1a_Grossjean_2025
     RDKit          3D

 26 27  0  0  0  0  0  0  0  0999 V2000
  128.7960  132.6240   55.5710 C   0  0  0  0  0  0  0  0  0  0  0  0
  128.6330  131.8070   54.2860 C   0  0  0  0  0  0  0  0  0  0  0  0
  127.2800  131.8690   53.8540 O   0  0  0  0  0  0  0  0  0  0  0  0
  126.4880  130.7650   53.8690 C   0  0  0  0  0  0  0  0  0  0  0  0
  125.8750  130.3540   52.8790 O   0  0  0  0  0  0  0  0  0  0  0  0
  126.4180  130.1040   55.2150 C   0  0  0  0  0  0  0  0  0  0  0  0
  127.1740  128.9470   55.4490 C   0  0  0  0  0  0  0  0  0  0  0  0
  127.1270  128.3090   56.6840 C   0  0  0  0  0  0  0  0  0  0  0  0
  126.3250  128.8090   57.7100 C   0  0  0  0  0  0  0  0  0  0  0  0
  126.3520  128.0820   58.9170 N   0  0  0  0  0  0  0  0  0  0  0  0
  127.3900  127.5070   59.5600 C   0  0  0  0  0  0  0  0  0  0  0  0
  128.5620  127.5200   59.1820 O   0  0  0  0  0  0  0  0  0  0  0  0
  127.0360  126.7880   60.8640 C   0  0  0  0  0  0  0  0  0  0  0  0
  125.7150  125.5620   60.6340 S   0  0  0  0  0  0  0  0  0  0  0  0
  126.3510  124.2830   59.5730 C   0  0  0  0  0  0  0  0  0  0  0  0
  127.3230  123.5300   60.1460 N   0  0  0  0  0  0  0  0  0  0  0  0
  127.8820  122.5300   59.4240 C   0  0  0  0  0  0  0  0  0  0  0  0
  128.9710  121.7390   60.1260 C   0  0  0  0  0  0  0  0  0  0  0  0
  127.4930  122.2360   58.1200 C   0  0  0  0  0  0  0  0  0  0  0  0
  126.4770  122.9930   57.5270 C   0  0  0  0  0  0  0  0  0  0  0  0
  126.0550  122.6420   56.1010 C   0  0  0  0  0  0  0  0  0  0  0  0
  125.8760  124.0400   58.2630 C   0  0  0  0  0  0  0  0  0  0  0  0
  124.7760  124.8150   57.6800 C   0  0  0  0  0  0  0  0  0  0  0  0
  123.9090  125.4250   57.2180 N   0  0  0  0  0  0  0  0  0  0  0  0
  125.5710  129.9720   57.4880 C   0  0  0  0  0  0  0  0  0  0  0  0
  125.6180  130.6090   56.2520 C   0  0  0  0  0  0  0  0  0  0  0  0
  1  2  1  0
  2  3  1  0
  3  4  1  0
  4  5  2  0
  4  6  1  0
  6  7  2  0
  7  8  1  0
  8  9  2  0
  9 10  1  0
 10 11  1  0
 11 12  2  0
 11 13  1  0
 13 14  1  0
 14 15  1  0
 15 16  2  0
 16 17  1  0
 17 18  1  0
 17 19  2  0
 19 20  1  0
 20 21  1  0
 20 22  2  0
 22 23  1  0
 23 24  3  0
  9 25  1  0
 25 26  2  0
 26  6  1  0
 22 15  1  0
M  END
>  <Binding energies>  (1) 
[-8.21]

>  <Ligand effiencies>  (1) 
[-0.3040740740740741]

>  <Interactions>  (1) 
["V-B:TYR:539:CE2:9845, V-B:PRO:540:CA:9852, V-B:PRO:540:N:9853, V-B:TYR:539:C:9836, H-B:TYR:531:OH:9764, V-B:TYR:539:CZ:9846, V-B:ALA:541:CB:9861, V-B:PRO:540:CB:9854, V-B:MET:535:CE:9804, V-B:TYR:539:CD2:9843, V-A:TYR:539:CD2:4871, V-A:TYR:539:CE2:4873, V-A:ILE:538:CD1:4862, V-B:LYS:534:CE:9791, V-A:TYR:539:CZ:4874, V-B:ASP:366:CB:8180, V-B:LEU:363:CD1:8157, V-B:ASP:366:CG:8181, V-B:TYR:531:CE1:9761, H-A:TYR:539:OH:4875, V-A:TYR:539:CG:4869, V-A:TYR:539:CD1:4870, V-A:TYR:539:CE1:4872, V-B:ILE:538:CB:9831, V-B:ILE:538:CG2:9832, H-B:LYS:534:NZ:9792, V-B:TYR:531:CZ:9763, H-B:ASP:366:OD1:8182, V-B:PRO:540:CD:9856, H-B:ARG:545:NH2:9897"]

$$$$
1aa_Ghoteimi_2023
     RDKit          3D

 40 43  0  0  0  0  0  0  0  0999 V2000
  124.1030  124.4920   58.4000 C   0  0  0  0  0  0  0  0  0  0  0  0
  125.2550  124.2040   57.4320 C   0  0  0  0  0  0  0  0  0  0  0  0
  125.5990  122.8260   57.5030 O   0  0  0  0  0  0  0  0  0  0  0  0
  126.8960  122.4300   57.5710 C   0  0  0  0  0  0  0  0  0  0  0  0
  127.4510  121.7630   56.6930 O   0  0  0  0  0  0  0  0  0  0  0  0
  127.5900  122.8830   58.8230 C   0  0  0  0  0  0  0  0  0  0  0  0
  128.9220  123.3240   58.8150 C   0  0  0  0  0  0  0  0  0  0  0  0
  129.5400  123.7400   59.9920 C   0  0  0  0  0  0  0  0  0  0  0  0
  128.8320  123.7240   61.2030 C   0  0  0  0  0  0  0  0  0  0  0  0
  129.3510  124.1180   62.4500 N   0  0  0  0  0  0  0  0  0  0  0  0
  129.9660  123.3930   63.4120 C   0  0  0  0  0  0  0  0  0  0  0  0
  130.1940  122.1850   63.3460 O   0  0  0  0  0  0  0  0  0  0  0  0
  130.4140  124.1400   64.6790 C   0  0  0  0  0  0  0  0  0  0  0  0
  130.4240  125.5550   64.4490 O   0  0  0  0  0  0  0  0  0  0  0  0
  129.6340  126.3960   65.2200 C   0  0  0  0  0  0  0  0  0  0  0  0
  129.8290  126.4030   66.5670 N   0  0  0  0  0  0  0  0  0  0  0  0
  129.0650  127.2020   67.3570 C   0  0  0  0  0  0  0  0  0  0  0  0
  129.3440  127.1530   68.8320 C   0  0  0  0  0  0  0  0  0  0  0  0
  128.4890  126.4640   69.7050 C   0  0  0  0  0  0  0  0  0  0  0  0
  128.7440  126.4180   71.0730 C   0  0  0  0  0  0  0  0  0  0  0  0
  129.8600  127.0570   71.6100 C   0  0  0  0  0  0  0  0  0  0  0  0
  130.0320  126.9580   72.9770 O   0  0  0  0  0  0  0  0  0  0  0  0
  130.1450  125.6700   73.5710 C   0  0  0  0  0  0  0  0  0  0  0  0
  130.7260  127.7450   70.7490 C   0  0  0  0  0  0  0  0  0  0  0  0
  130.4690  127.7880   69.3820 C   0  0  0  0  0  0  0  0  0  0  0  0
  128.0900  128.0370   66.7970 C   0  0  0  0  0  0  0  0  0  0  0  0
  127.8770  128.0580   65.4110 C   0  0  0  0  0  0  0  0  0  0  0  0
  126.8300  128.9780   64.8750 C   0  0  0  0  0  0  0  0  0  0  0  0
  127.1550  129.9140   63.8880 C   0  0  0  0  0  0  0  0  0  0  0  0
  126.1830  130.7680   63.3760 C   0  0  0  0  0  0  0  0  0  0  0  0
  124.8670  130.7010   63.8330 C   0  0  0  0  0  0  0  0  0  0  0  0
  123.9710  131.5880   63.2680 O   0  0  0  0  0  0  0  0  0  0  0  0
  123.7420  131.5430   61.8640 C   0  0  0  0  0  0  0  0  0  0  0  0
  124.5350  129.7580   64.8180 C   0  0  0  0  0  0  0  0  0  0  0  0
  125.5090  128.9050   65.3290 C   0  0  0  0  0  0  0  0  0  0  0  0
  128.6650  127.2070   64.6030 C   0  0  0  0  0  0  0  0  0  0  0  0
  128.4850  127.1280   63.1520 C   0  0  0  0  0  0  0  0  0  0  0  0
  128.3430  127.0640   62.0060 N   0  0  0  0  0  0  0  0  0  0  0  0
  127.5070  123.2840   61.2140 C   0  0  0  0  0  0  0  0  0  0  0  0
  126.8910  122.8680   60.0380 C   0  0  0  0  0  0  0  0  0  0  0  0
  1  2  1  0
  2  3  1  0
  3  4  1  0
  4  5  2  0
  4  6  1  0
  6  7  2  0
  7  8  1  0
  8  9  2  0
  9 10  1  0
 10 11  1  0
 11 12  2  0
 11 13  1  0
 13 14  1  0
 14 15  1  0
 15 16  2  0
 16 17  1  0
 17 18  1  0
 18 19  2  0
 19 20  1  0
 20 21  2  0
 21 22  1  0
 22 23  1  0
 21 24  1  0
 24 25  2  0
 17 26  2  0
 26 27  1  0
 27 28  1  0
 28 29  2  0
 29 30  1  0
 30 31  2  0
 31 32  1  0
 32 33  1  0
 31 34  1  0
 34 35  2  0
 27 36  2  0
 36 37  1  0
 37 38  3  0
  9 39  1  0
 39 40  2  0
 40  6  1  0
 36 15  1  0
 25 18  1  0
 35 28  1  0
M  END
>  <Binding energies>  (2) 
[-10.0]

>  <Ligand effiencies>  (2) 
[-0.24390243902439024]

>  <Interactions>  (2) 
["V-A:GLU:543:CD:4905, V-B:TYR:539:CE2:9845, V-B:PRO:540:CA:9852, V-B:PRO:540:N:9853, V-B:TYR:539:C:9836, V-B:GLU:543:CD:9877, V-B:HIS:456:CE1:9038, V-A:HIS:456:CE1:4066, V-B:TYR:539:CZ:9846, V-B:ALA:541:CB:9861, V-B:PRO:540:CB:9854, V-B:GLU:543:CG:9876, H-B:GLU:543:OE2:9879, V-B:ILE:369:CD1:8207, V-B:LEU:363:CD1:8157, V-B:LEU:363:CA:8153, V-B:ASP:366:CG:8181, H-B:TYR:539:N:9839, V-B:PRO:540:CD:9856, V-B:PRO:540:C:9850, V-B:ARG:545:CZ:9895, H-B:GLY:454:N:9018, V-A:HIS:456:CD2:4064, V-A:GLU:543:C:4899, V-B:LYS:547:CE:9919, H-A:LYS:547:NZ:4948, V-A:GLY:544:C:4909"]

$$$$
1b_Grossjean_2025
     RDKit          3D

 25 26  0  0  0  0  0  0  0  0999 V2000
  128.1700  122.7210   54.7200 C   0  0  0  0  0  0  0  0  0  0  0  0
  127.6850  121.8290   55.7160 O   0  0  0  0  0  0  0  0  0  0  0  0
  126.5950  122.1430   56.4630 C   0  0  0  0  0  0  0  0  0  0  0  0
  125.4340  122.0010   56.0660 O   0  0  0  0  0  0  0  0  0  0  0  0
  126.9420  122.6740   57.8250 C   0  0  0  0  0  0  0  0  0  0  0  0
  128.2040  122.4670   58.4030 C   0  0  0  0  0  0  0  0  0  0  0  0
  128.4920  122.9710   59.6670 C   0  0  0  0  0  0  0  0  0  0  0  0
  127.5320  123.6900   60.3790 C   0  0  0  0  0  0  0  0  0  0  0  0
  127.9340  124.1500   61.6480 N   0  0  0  0  0  0  0  0  0  0  0  0
  129.0490  124.8160   62.0200 C   0  0  0  0  0  0  0  0  0  0  0  0
  129.9600  125.1610   61.2680 O   0  0  0  0  0  0  0  0  0  0  0  0
  129.1420  125.1590   63.5070 C   0  0  0  0  0  0  0  0  0  0  0  0
  130.1510  123.9590   64.4270 S   0  0  0  0  0  0  0  0  0  0  0  0
  130.9520  122.9120   63.2300 C   0  0  0  0  0  0  0  0  0  0  0  0
  130.1760  121.8900   62.7920 N   0  0  0  0  0  0  0  0  0  0  0  0
  130.6870  121.0320   61.8780 C   0  0  0  0  0  0  0  0  0  0  0  0
  129.7570  119.9220   61.4230 C   0  0  0  0  0  0  0  0  0  0  0  0
  131.9810  121.1510   61.3760 C   0  0  0  0  0  0  0  0  0  0  0  0
  132.7960  122.1890   61.8380 C   0  0  0  0  0  0  0  0  0  0  0  0
  134.2170  122.2890   61.2860 C   0  0  0  0  0  0  0  0  0  0  0  0
  132.2850  123.0970   62.7930 C   0  0  0  0  0  0  0  0  0  0  0  0
  133.1350  124.1650   63.3240 C   0  0  0  0  0  0  0  0  0  0  0  0
  133.8090  125.0080   63.7420 N   0  0  0  0  0  0  0  0  0  0  0  0
  126.2680  123.9010   59.8080 C   0  0  0  0  0  0  0  0  0  0  0  0
  125.9810  123.3970   58.5430 C   0  0  0  0  0  0  0  0  0  0  0  0
  1  2  1  0
  2  3  1  0
  3  4  2  0
  3  5  1  0
  5  6  2  0
  6  7  1  0
  7  8  2  0
  8  9  1  0
  9 10  1  0
 10 11  2  0
 10 12  1  0
 12 13  1  0
 13 14  1  0
 14 15  2  0
 15 16  1  0
 16 17  1  0
 16 18  2  0
 18 19  1  0
 19 20  1  0
 19 21  2  0
 21 22  1  0
 22 23  3  0
  8 24  1  0
 24 25  2  0
 25  5  1  0
 21 14  1  0
M  END
>  <Binding energies>  (3) 
[-7.96]

>  <Ligand effiencies>  (3) 
[-0.30615384615384617]

>  <Interactions>  (3) 
["V-A:LEU:475:CD1:4254, V-B:TYR:539:CE2:9845, V-B:TYR:539:CE1:9844, V-B:PRO:540:CA:9852, H-A:TYR:484:OH:4344, V-B:PRO:540:N:9853, V-B:TYR:539:C:9836, V-B:GLU:543:CD:9877, V-B:TYR:539:CZ:9846, V-B:TYR:539:CD1:9842, V-B:ALA:541:CB:9861, V-B:PRO:540:CB:9854, V-B:MET:535:CE:9804, V-B:TYR:539:CD2:9843, V-B:GLU:543:CG:9876, H-B:GLU:543:OE2:9879, H-A:GLY:454:N:4046, H-B:TYR:539:N:9839, V-B:ILE:538:CB:9831, V-B:ILE:538:CA:9829, V-B:ILE:538:CG2:9832, V-A:GLY:454:CA:4045, V-B:PRO:540:CD:9856, V-A:ILE:369:CG2:3233, V-A:ILE:369:CG1:3234, V-A:ILE:369:CB:3232, H-A:ARG:545:NH1:4924, H-A:ARG:545:NH2:4925, H-A:ARG:545:NE:4921, V-A:PRO:482:CG:4323"]

$$$$
1c_Grossjean_2025
     RDKit          3D

 23 24  0  0  0  0  0  0  0  0999 V2000
  132.7420  131.1570   61.3490 C   0  0  0  0  0  0  0  0  0  0  0  0
  133.3470  131.0420   60.0660 O   0  0  0  0  0  0  0  0  0  0  0  0
  132.5560  131.1320   58.9370 C   0  0  0  0  0  0  0  0  0  0  0  0
  133.2210  131.1860   57.7130 C   0  0  0  0  0  0  0  0  0  0  0  0
  132.5110  131.2770   56.5200 C   0  0  0  0  0  0  0  0  0  0  0  0
  131.1090  131.3090   56.5390 C   0  0  0  0  0  0  0  0  0  0  0  0
  130.2940  131.4100   55.3950 N   0  0  0  0  0  0  0  0  0  0  0  0
  129.3330  132.3130   55.1040 C   0  0  0  0  0  0  0  0  0  0  0  0
  129.0020  133.2590   55.8180 O   0  0  0  0  0  0  0  0  0  0  0  0
  128.6270  132.1100   53.7620 C   0  0  0  0  0  0  0  0  0  0  0  0
  127.8510  130.4710   53.6460 S   0  0  0  0  0  0  0  0  0  0  0  0
  127.2700  130.0090   55.2650 C   0  0  0  0  0  0  0  0  0  0  0  0
  126.1680  130.6960   55.6600 N   0  0  0  0  0  0  0  0  0  0  0  0
  125.6350  130.4300   56.8760 C   0  0  0  0  0  0  0  0  0  0  0  0
  124.3990  131.2300   57.2430 C   0  0  0  0  0  0  0  0  0  0  0  0
  126.1780  129.4860   57.7440 C   0  0  0  0  0  0  0  0  0  0  0  0
  127.3280  128.7900   57.3580 C   0  0  0  0  0  0  0  0  0  0  0  0
  127.9150  127.7720   58.3350 C   0  0  0  0  0  0  0  0  0  0  0  0
  127.9040  129.0520   56.0930 C   0  0  0  0  0  0  0  0  0  0  0  0
  129.1390  128.3720   55.6950 C   0  0  0  0  0  0  0  0  0  0  0  0
  130.1140  127.8350   55.3800 N   0  0  0  0  0  0  0  0  0  0  0  0
  130.4390  131.2670   57.7630 C   0  0  0  0  0  0  0  0  0  0  0  0
  131.1530  131.1760   58.9550 C   0  0  0  0  0  0  0  0  0  0  0  0
  1  2  1  0
  2  3  1  0
  3  4  2  0
  4  5  1  0
  5  6  2  0
  6  7  1  0
  7  8  1  0
  8  9  2  0
  8 10  1  0
 10 11  1  0
 11 12  1  0
 12 13  2  0
 13 14  1  0
 14 15  1  0
 14 16  2  0
 16 17  1  0
 17 18  1  0
 17 19  2  0
 19 20  1  0
 20 21  3  0
  6 22  1  0
 22 23  2  0
 23  3  1  0
 19 12  1  0
M  END
>  <Binding energies>  (4) 
[-7.49]

>  <Ligand effiencies>  (4) 
[-0.3120833333333333]

>  <Interactions>  (4) 
["V-A:GLU:543:CD:4905, H-B:TYR:531:OH:9764, V-B:MET:535:CE:9804, V-A:TYR:531:CZ:4791, V-A:PRO:540:CA:4880, V-A:TYR:539:CE2:4873, H-A:TYR:531:OH:4792, V-A:PRO:540:CB:4882, V-A:ILE:538:CD1:4862, H-A:TYR:539:N:4867, V-A:TYR:539:CZ:4874, V-A:LEU:363:CD1:3185, V-B:ASP:366:CB:8180, H-A:TYR:539:OH:4875, V-A:LEU:363:CA:3181, V-A:TYR:539:CE1:4872, V-A:ILE:538:CA:4857, V-A:LEU:363:CB:3183, V-A:ASN:362:CB:3172, H-B:LYS:534:NZ:9792, H-A:LEU:363:N:3182, V-A:TYR:531:CE2:4790"]

$$$$
1d_Grossjean_2025
     RDKit          3D

 21 22  0  0  0  0  0  0  0  0999 V2000
  124.1810  131.1760   57.0390 C   0  0  0  0  0  0  0  0  0  0  0  0
  125.4710  130.4390   56.7360 C   0  0  0  0  0  0  0  0  0  0  0  0
  126.0070  129.5110   57.6250 C   0  0  0  0  0  0  0  0  0  0  0  0
  127.1950  128.8530   57.2880 C   0  0  0  0  0  0  0  0  0  0  0  0
  127.7550  127.8280   58.2720 C   0  0  0  0  0  0  0  0  0  0  0  0
  127.8260  129.1530   56.0580 C   0  0  0  0  0  0  0  0  0  0  0  0
  129.0440  128.4420   55.6630 C   0  0  0  0  0  0  0  0  0  0  0  0
  130.0060  127.8790   55.3530 N   0  0  0  0  0  0  0  0  0  0  0  0
  127.2230  130.1270   55.2280 C   0  0  0  0  0  0  0  0  0  0  0  0
  127.8790  130.6260   53.6520 S   0  0  0  0  0  0  0  0  0  0  0  0
  128.6630  132.2510   53.8800 C   0  0  0  0  0  0  0  0  0  0  0  0
  129.3140  132.3890   55.2570 C   0  0  0  0  0  0  0  0  0  0  0  0
  128.9480  133.2940   56.0070 O   0  0  0  0  0  0  0  0  0  0  0  0
  130.2480  131.4590   55.5510 N   0  0  0  0  0  0  0  0  0  0  0  0
  131.0390  131.3080   56.7050 C   0  0  0  0  0  0  0  0  0  0  0  0
  132.4210  131.2860   56.4940 C   0  0  0  0  0  0  0  0  0  0  0  0
  133.2940  131.1470   57.5680 C   0  0  0  0  0  0  0  0  0  0  0  0
  132.7860  131.0360   58.8600 C   0  0  0  0  0  0  0  0  0  0  0  0
  131.4120  131.0650   59.0860 C   0  0  0  0  0  0  0  0  0  0  0  0
  130.5360  131.2030   58.0130 C   0  0  0  0  0  0  0  0  0  0  0  0
  126.0590  130.7430   55.5550 N   0  0  0  0  0  0  0  0  0  0  0  0
  1  2  1  0
  2  3  2  0
  3  4  1  0
  4  5  1  0
  4  6  2  0
  6  7  1  0
  7  8  3  0
  6  9  1  0
  9 10  1  0
 10 11  1  0
 11 12  1  0
 12 13  2  0
 12 14  1  0
 14 15  1  0
 15 16  2  0
 16 17  1  0
 17 18  2  0
 18 19  1  0
 19 20  2  0
  9 21  2  0
 21  2  1  0
 20 15  1  0
M  END
>  <Binding energies>  (5) 
[-7.22]

>  <Ligand effiencies>  (5) 
[-0.3281818181818182]

>  <Interactions>  (5) 
["H-B:TYR:531:OH:9764, V-B:MET:535:CE:9804, V-A:TYR:531:CZ:4791, V-A:PRO:540:CA:4880, V-A:TYR:539:CE2:4873, H-A:TYR:531:OH:4792, V-A:PRO:540:CB:4882, V-A:ILE:538:CD1:4862, H-A:TYR:539:N:4867, V-A:TYR:539:CZ:4874, V-A:LEU:363:CD1:3185, V-B:ASP:366:CB:8180, V-B:TYR:531:CE1:9761, H-A:TYR:539:OH:4875, V-A:LEU:363:CA:3181, V-A:TYR:539:CE1:4872, V-A:ILE:538:CA:4857, V-A:LEU:363:CB:3183, V-B:ASP:366:C:8176, H-B:LYS:534:NZ:9792, V-B:TYR:531:CZ:9763, V-A:TYR:531:CE2:4790"]

$$$$
1e_Grossjean_2025
     RDKit          3D

 22 23  0  0  0  0  0  0  0  0999 V2000
  130.7120  131.2490   60.3770 C   0  0  0  0  0  0  0  0  0  0  0  0
  131.3920  131.2240   59.0210 C   0  0  0  0  0  0  0  0  0  0  0  0
  132.7780  131.0940   58.9010 C   0  0  0  0  0  0  0  0  0  0  0  0
  133.3340  131.0810   57.6210 C   0  0  0  0  0  0  0  0  0  0  0  0
  132.5030  131.1990   56.5050 C   0  0  0  0  0  0  0  0  0  0  0  0
  131.1210  131.3210   56.6970 C   0  0  0  0  0  0  0  0  0  0  0  0
  130.3370  131.4480   55.5370 N   0  0  0  0  0  0  0  0  0  0  0  0
  129.3770  132.3590   55.2670 C   0  0  0  0  0  0  0  0  0  0  0  0
  129.0170  133.2540   56.0330 O   0  0  0  0  0  0  0  0  0  0  0  0
  128.6890  132.2180   53.9070 C   0  0  0  0  0  0  0  0  0  0  0  0
  127.9520  130.5710   53.6850 S   0  0  0  0  0  0  0  0  0  0  0  0
  127.3060  130.0190   55.2520 C   0  0  0  0  0  0  0  0  0  0  0  0
  126.2010  130.6990   55.6490 N   0  0  0  0  0  0  0  0  0  0  0  0
  125.6200  130.3710   56.8270 C   0  0  0  0  0  0  0  0  0  0  0  0
  124.3860  131.1670   57.2010 C   0  0  0  0  0  0  0  0  0  0  0  0
  126.1200  129.3690   57.6570 C   0  0  0  0  0  0  0  0  0  0  0  0
  127.2730  128.6790   57.2690 C   0  0  0  0  0  0  0  0  0  0  0  0
  127.8110  127.5970   58.2050 C   0  0  0  0  0  0  0  0  0  0  0  0
  127.8980  129.0070   56.0450 C   0  0  0  0  0  0  0  0  0  0  0  0
  129.1390  128.3340   55.6530 C   0  0  0  0  0  0  0  0  0  0  0  0
  130.1190  127.8010   55.3450 N   0  0  0  0  0  0  0  0  0  0  0  0
  130.5710  131.3380   57.9470 N   0  0  0  0  0  0  0  0  0  0  0  0
  1  2  1  0
  2  3  2  0
  3  4  1  0
  4  5  2  0
  5  6  1  0
  6  7  1  0
  7  8  1  0
  8  9  2  0
  8 10  1  0
 10 11  1  0
 11 12  1  0
 12 13  2  0
 13 14  1  0
 14 15  1  0
 14 16  2  0
 16 17  1  0
 17 18  1  0
 17 19  2  0
 19 20  1  0
 20 21  3  0
  6 22  2  0
 22  2  1  0
 19 12  1  0
M  END
>  <Binding energies>  (6) 
[-7.38]

>  <Ligand effiencies>  (6) 
[-0.3208695652173913]

>  <Interactions>  (6) 
["H-B:TYR:531:OH:9764, V-B:MET:535:CE:9804, V-A:TYR:531:CZ:4791, V-A:PRO:540:CA:4880, V-A:TYR:539:CE2:4873, H-A:TYR:531:OH:4792, V-A:PRO:540:CB:4882, V-A:ILE:538:CD1:4862, H-A:TYR:539:N:4867, V-A:TYR:539:CZ:4874, V-A:LEU:363:CD1:3185, V-B:ASP:366:CB:8180, H-A:TYR:539:OH:4875, V-A:LEU:363:CA:3181, V-A:TYR:539:CE1:4872, V-A:ILE:538:CA:4857, V-A:LEU:363:CB:3183, H-B:LYS:534:NZ:9792, V-B:TYR:531:CZ:9763, V-A:TYR:531:CE2:4790"]

$$$$
1f_Grossjean_2025
     RDKit          3D

 21 22  0  0  0  0  0  0  0  0999 V2000
  130.1960  127.3710   56.0470 C   0  0  0  0  0  0  0  0  0  0  0  0
  130.4990  128.3120   57.1990 C   0  0  0  0  0  0  0  0  0  0  0  0
  129.9080  128.1480   58.4490 C   0  0  0  0  0  0  0  0  0  0  0  0
  130.2160  129.0550   59.4690 C   0  0  0  0  0  0  0  0  0  0  0  0
  129.5410  128.8660   60.8260 C   0  0  0  0  0  0  0  0  0  0  0  0
  131.1240  130.1070   59.2090 C   0  0  0  0  0  0  0  0  0  0  0  0
  131.4160  131.0990   60.2470 C   0  0  0  0  0  0  0  0  0  0  0  0
  131.6450  131.8800   61.0690 N   0  0  0  0  0  0  0  0  0  0  0  0
  131.6980  130.1800   57.9180 C   0  0  0  0  0  0  0  0  0  0  0  0
  132.8580  131.4310   57.4070 S   0  0  0  0  0  0  0  0  0  0  0  0
  132.2270  132.2150   55.8840 C   0  0  0  0  0  0  0  0  0  0  0  0
  130.6960  132.2830   55.7790 C   0  0  0  0  0  0  0  0  0  0  0  0
  130.0910  133.3020   56.1150 O   0  0  0  0  0  0  0  0  0  0  0  0
  130.1140  131.1520   55.3260 N   0  0  0  0  0  0  0  0  0  0  0  0
  128.7530  130.8690   55.1020 C   0  0  0  0  0  0  0  0  0  0  0  0
  127.8900  130.2250   56.0080 C   0  0  0  0  0  0  0  0  0  0  0  0
  126.5540  130.0100   55.6560 C   0  0  0  0  0  0  0  0  0  0  0  0
  126.1140  130.4470   54.4070 C   0  0  0  0  0  0  0  0  0  0  0  0
  126.9240  131.0740   53.5180 N   0  0  0  0  0  0  0  0  0  0  0  0
  128.2190  131.2750   53.8740 C   0  0  0  0  0  0  0  0  0  0  0  0
  131.3740  129.3090   56.9290 N   0  0  0  0  0  0  0  0  0  0  0  0
  1  2  1  0
  2  3  2  0
  3  4  1  0
  4  5  1  0
  4  6  2  0
  6  7  1  0
  7  8  3  0
  6  9  1  0
  9 10  1  0
 10 11  1  0
 11 12  1  0
 12 13  2  0
 12 14  1  0
 14 15  1  0
 15 16  2  0
 16 17  1  0
 17 18  2  0
 18 19  1  0
 19 20  2  0
  9 21  2  0
 21  2  1  0
 20 15  1  0
M  END
>  <Binding energies>  (7) 
[-7.33]

>  <Ligand effiencies>  (7) 
[-0.3331818181818182]

>  <Interactions>  (7) 
["V-B:MET:535:CE:9804, V-A:PRO:540:CA:4880, H-A:TYR:531:OH:4792, V-A:PRO:540:CB:4882, H-A:ALA:541:N:4888, V-A:ILE:538:CD1:4862, H-A:TYR:539:N:4867, V-A:TYR:539:CZ:4874, V-A:LEU:363:CD1:3185, V-B:TYR:531:CE1:9761, H-A:TYR:539:OH:4875, H-B:LYS:534:NZ:9792, V-B:TYR:531:CZ:9763, V-A:ILE:538:CG2:4860, V-A:PRO:540:CD:4884, V-A:TYR:531:CE2:4790"]

$$$$
1g_Grossjean_2025
     RDKit          3D

 22 23  0  0  0  0  0  0  0  0999 V2000
  127.5140  128.6710   59.7380 C   0  0  0  0  0  0  0  0  0  0  0  0
  127.0680  129.2310   58.4000 C   0  0  0  0  0  0  0  0  0  0  0  0
  125.8570  129.9060   58.2590 C   0  0  0  0  0  0  0  0  0  0  0  0
  125.4910  130.3860   56.9970 C   0  0  0  0  0  0  0  0  0  0  0  0
  124.1510  131.1100   56.8630 C   0  0  0  0  0  0  0  0  0  0  0  0
  126.3580  130.1820   55.9000 C   0  0  0  0  0  0  0  0  0  0  0  0
  125.9710  130.6300   54.5600 C   0  0  0  0  0  0  0  0  0  0  0  0
  125.6630  130.9830   53.5020 N   0  0  0  0  0  0  0  0  0  0  0  0
  127.5790  129.5080   56.1410 C   0  0  0  0  0  0  0  0  0  0  0  0
  128.7890  129.1760   54.8810 S   0  0  0  0  0  0  0  0  0  0  0  0
  129.4590  130.7770   54.3390 C   0  0  0  0  0  0  0  0  0  0  0  0
  129.6670  131.7360   55.5120 C   0  0  0  0  0  0  0  0  0  0  0  0
  129.7320  132.9500   55.3110 O   0  0  0  0  0  0  0  0  0  0  0  0
  129.7750  131.1750   56.7280 N   0  0  0  0  0  0  0  0  0  0  0  0
  129.9190  131.9040   57.9890 C   0  0  0  0  0  0  0  0  0  0  0  0
  131.1510  131.5150   58.8010 C   0  0  0  0  0  0  0  0  0  0  0  0
  132.3200  131.1140   58.1470 C   0  0  0  0  0  0  0  0  0  0  0  0
  133.4450  130.7600   58.8880 C   0  0  0  0  0  0  0  0  0  0  0  0
  133.3980  130.8130   60.2800 C   0  0  0  0  0  0  0  0  0  0  0  0
  132.2380  131.2170   60.9370 C   0  0  0  0  0  0  0  0  0  0  0  0
  131.1130  131.5690   60.1970 C   0  0  0  0  0  0  0  0  0  0  0  0
  127.9160  129.0260   57.3650 N   0  0  0  0  0  0  0  0  0  0  0  0
  1  2  1  0
  2  3  2  0
  3  4  1  0
  4  5  1  0
  4  6  2  0
  6  7  1  0
  7  8  3  0
  6  9  1  0
  9 10  1  0
 10 11  1  0
 11 12  1  0
 12 13  2  0
 12 14  1  0
 14 15  1  0
 15 16  1  0
 16 17  2  0
 17 18  1  0
 18 19  2  0
 19 20  1  0
 20 21  2  0
  9 22  2  0
 22  2  1  0
 21 16  1  0
M  END
>  <Binding energies>  (8) 
[-7.39]

>  <Ligand effiencies>  (8) 
[-0.32130434782608697]

>  <Interactions>  (8) 
["V-A:GLU:543:CD:4905, V-A:PRO:540:CA:4880, V-A:ASP:366:CG:3209, V-A:TYR:539:CE2:4873, H-A:TYR:531:OH:4792, V-A:TYR:539:C:4864, V-A:PRO:540:N:4881, V-A:PRO:540:CB:4882, V-A:ILE:538:CD1:4862, H-A:TYR:539:N:4867, V-A:TYR:539:CZ:4874, V-B:ASP:366:CB:8180, V-B:ASP:366:CG:8181, V-B:TYR:531:CE1:9761, H-A:TYR:539:OH:4875, V-A:LEU:363:CA:3181, V-A:ASN:362:C:3168, V-B:ASP:366:C:8176, V-A:ASN:362:CB:3172, H-B:LYS:534:NZ:9792, V-B:TYR:531:CZ:9763, V-A:ASN:362:CA:3170"]

$$$$
1h_Grossjean_2025
     RDKit          3D

 28 29  0  0  0  0  0  0  0  0999 V2000
  124.0540  124.1740   60.6480 C   0  0  0  0  0  0  0  0  0  0  0  0
  124.6100  123.9810   59.3520 O   0  0  0  0  0  0  0  0  0  0  0  0
  125.8500  123.3810   59.2290 C   0  0  0  0  0  0  0  0  0  0  0  0
  126.7700  123.2580   60.2820 C   0  0  0  0  0  0  0  0  0  0  0  0
  128.0100  122.6520   60.0800 C   0  0  0  0  0  0  0  0  0  0  0  0
  128.9910  122.5030   61.2390 C   0  0  0  0  0  0  0  0  0  0  0  0
  130.3960  122.4910   60.8320 N   0  0  0  0  0  0  0  0  0  0  0  0
  131.4290  122.1260   61.6130 C   0  0  0  0  0  0  0  0  0  0  0  0
  131.3020  121.7310   62.7710 O   0  0  0  0  0  0  0  0  0  0  0  0
  132.8220  122.2300   60.9920 C   0  0  0  0  0  0  0  0  0  0  0  0
  133.4660  123.9300   61.0450 S   0  0  0  0  0  0  0  0  0  0  0  0
  132.9400  124.6740   62.5800 C   0  0  0  0  0  0  0  0  0  0  0  0
  133.8130  124.5690   63.6160 N   0  0  0  0  0  0  0  0  0  0  0  0
  133.4780  125.1150   64.8080 C   0  0  0  0  0  0  0  0  0  0  0  0
  134.5060  124.9610   65.9140 C   0  0  0  0  0  0  0  0  0  0  0  0
  132.2730  125.7800   65.0200 C   0  0  0  0  0  0  0  0  0  0  0  0
  131.3640  125.8930   63.9620 C   0  0  0  0  0  0  0  0  0  0  0  0
  130.0490  126.6280   64.2140 C   0  0  0  0  0  0  0  0  0  0  0  0
  131.6930  125.3300   62.7070 C   0  0  0  0  0  0  0  0  0  0  0  0
  130.7600  125.4310   61.5820 C   0  0  0  0  0  0  0  0  0  0  0  0
  130.0220  125.5100   60.6930 N   0  0  0  0  0  0  0  0  0  0  0  0
  128.3260  122.1290   58.8250 C   0  0  0  0  0  0  0  0  0  0  0  0
  127.4230  122.2340   57.7550 C   0  0  0  0  0  0  0  0  0  0  0  0
  127.6700  121.7420   56.4860 O   0  0  0  0  0  0  0  0  0  0  0  0
  127.9440  122.6510   55.4250 C   0  0  0  0  0  0  0  0  0  0  0  0
  126.1930  122.8720   57.9670 C   0  0  0  0  0  0  0  0  0  0  0  0
  125.2970  122.9770   56.9310 O   0  0  0  0  0  0  0  0  0  0  0  0
  125.0480  124.3120   56.5130 C   0  0  0  0  0  0  0  0  0  0  0  0
  1  2  1  0
  2  3  1  0
  3  4  2  0
  4  5  1  0
  5  6  1  0
  6  7  1  0
  7  8  1  0
  8  9  2  0
  8 10  1  0
 10 11  1  0
 11 12  1  0
 12 13  2  0
 13 14  1  0
 14 15  1  0
 14 16  2  0
 16 17  1  0
 17 18  1  0
 17 19  2  0
 19 20  1  0
 20 21  3  0
  5 22  2  0
 22 23  1  0
 23 24  1  0
 24 25  1  0
 23 26  2  0
 26 27  1  0
 27 28  1  0
 26  3  1  0
 19 12  1  0
M  END
>  <Binding energies>  (9) 
[-7.56]

>  <Ligand effiencies>  (9) 
[-0.26068965517241377]

>  <Interactions>  (9) 
["V-A:GLU:543:CD:4905, V-A:LEU:475:CD1:4254, V-B:TYR:539:CE2:9845, V-B:TYR:539:CE1:9844, V-B:PRO:540:CA:9852, V-B:TYR:539:CG:9841, V-B:PRO:540:N:9853, V-B:TYR:539:C:9836, V-A:HIS:456:CE1:4066, V-B:TYR:539:CZ:9846, V-B:TYR:539:CD1:9842, V-B:ALA:541:CB:9861, V-B:PRO:540:CB:9854, V-B:MET:535:CE:9804, V-B:TYR:539:CD2:9843, V-A:ASP:366:CG:3209, V-B:ASN:362:CB:8144, H-A:GLY:454:N:4046, V-A:ARG:545:CD:4920, H-B:TYR:539:OH:9847, V-B:LEU:363:CD1:8157, V-B:ASN:362:C:8140, V-A:ARG:545:CZ:4923, V-A:ARG:545:CG:4919, H-B:TYR:539:N:9839, V-B:ILE:538:CB:9831, V-B:ILE:538:CA:9829, V-B:ILE:538:CG2:9832, V-A:GLY:454:CA:4045, V-B:TYR:531:CE2:9762, V-A:GLY:453:C:4038, V-A:GLY:453:CA:4040, V-A:GLY:454:C:4043"]

$$$$
1i_Grossjean_2025
     RDKit          3D

 20 21  0  0  0  0  0  0  0  0999 V2000
  128.6210  132.7060   54.0550 C   0  0  0  0  0  0  0  0  0  0  0  0
  129.1350  132.4840   55.4650 C   0  0  0  0  0  0  0  0  0  0  0  0
  130.4780  132.2130   55.7180 C   0  0  0  0  0  0  0  0  0  0  0  0
  130.8970  132.0270   57.0400 C   0  0  0  0  0  0  0  0  0  0  0  0
  132.3780  131.7480   57.2930 C   0  0  0  0  0  0  0  0  0  0  0  0
  129.9480  132.1110   58.0840 C   0  0  0  0  0  0  0  0  0  0  0  0
  130.3740  131.9690   59.4790 C   0  0  0  0  0  0  0  0  0  0  0  0
  130.7130  131.8580   60.5800 N   0  0  0  0  0  0  0  0  0  0  0  0
  128.6010  132.3650   57.7330 C   0  0  0  0  0  0  0  0  0  0  0  0
  127.2790  132.5020   58.9150 S   0  0  0  0  0  0  0  0  0  0  0  0
  126.0530  131.2190   58.5200 C   0  0  0  0  0  0  0  0  0  0  0  0
  126.4400  130.4160   57.2760 C   0  0  0  0  0  0  0  0  0  0  0  0
  127.0160  129.3360   57.4110 O   0  0  0  0  0  0  0  0  0  0  0  0
  126.1040  130.9770   56.0940 N   0  0  0  0  0  0  0  0  0  0  0  0
  126.3400  130.4670   54.8250 C   0  0  0  0  0  0  0  0  0  0  0  0
  127.3270  129.5210   54.5560 C   0  0  0  0  0  0  0  0  0  0  0  0
  127.2370  129.2840   53.2040 C   0  0  0  0  0  0  0  0  0  0  0  0
  126.2480  130.0490   52.6850 O   0  0  0  0  0  0  0  0  0  0  0  0
  125.6870  130.7970   53.7220 N   0  0  0  0  0  0  0  0  0  0  0  0
  128.2090  132.5640   56.4490 N   0  0  0  0  0  0  0  0  0  0  0  0
  1  2  1  0
  2  3  2  0
  3  4  1  0
  4  5  1  0
  4  6  2  0
  6  7  1  0
  7  8  3  0
  6  9  1  0
  9 10  1  0
 10 11  1  0
 11 12  1  0
 12 13  2  0
 12 14  1  0
 14 15  1  0
 15 16  1  0
 16 17  2  0
 17 18  1  0
 18 19  1  0
  9 20  2  0
 20  2  1  0
 19 15  2  0
M  END
>  <Binding energies>  (10) 
[-7.53]

>  <Ligand effiencies>  (10) 
[-0.3585714285714286]

>  <Interactions>  (10) 
["H-B:TYR:531:OH:9764, V-B:MET:535:CE:9804, V-A:PRO:540:CA:4880, V-A:TYR:539:CD2:4871, V-A:TYR:539:CE2:4873, V-A:PRO:540:C:4878, V-A:TYR:539:C:4864, V-A:PRO:540:N:4881, V-A:PRO:540:CB:4882, H-A:ALA:541:N:4888, V-A:ILE:538:CD1:4862, V-A:TYR:539:CZ:4874, V-A:LEU:363:CD1:3185, V-B:TYR:531:CE1:9761, H-A:TYR:539:OH:4875, V-A:TYR:539:CD1:4870, V-A:TYR:539:CE1:4872, V-A:ILE:538:CA:4857, H-B:LYS:534:NZ:9792, V-A:MET:535:CE:4832, V-B:MET:535:CG:9802, V-A:ILE:538:CG2:4860"]

$$$$
1k_Grossjean_2025
     RDKit          3D

 25 25  0  0  0  0  0  0  0  0999 V2000
  127.4860  122.3530   57.2700 C   0  0  0  0  0  0  0  0  0  0  0  0
  126.6440  122.1250   56.1520 O   0  0  0  0  0  0  0  0  0  0  0  0
  125.6700  123.1420   55.9600 C   0  0  0  0  0  0  0  0  0  0  0  0
  125.2460  123.7100   57.3210 C   0  0  0  0  0  0  0  0  0  0  0  0
  125.0010  125.1050   57.1960 O   0  0  0  0  0  0  0  0  0  0  0  0
  125.1470  125.8220   58.4150 C   0  0  0  0  0  0  0  0  0  0  0  0
  126.4030  126.6990   58.3420 C   0  0  0  0  0  0  0  0  0  0  0  0
  126.1070  127.8940   57.6290 O   0  0  0  0  0  0  0  0  0  0  0  0
  127.2600  128.6160   57.2200 C   0  0  0  0  0  0  0  0  0  0  0  0
  126.9650  129.3560   55.9020 C   0  0  0  0  0  0  0  0  0  0  0  0
  127.7660  130.5650   55.7060 N   0  0  0  0  0  0  0  0  0  0  0  0
  127.6520  131.4110   54.6670 C   0  0  0  0  0  0  0  0  0  0  0  0
  126.8370  131.2520   53.7560 O   0  0  0  0  0  0  0  0  0  0  0  0
  128.6170  132.6080   54.6770 C   0  0  0  0  0  0  0  0  0  0  0  0
  130.2640  132.2880   55.3980 S   0  0  0  0  0  0  0  0  0  0  0  0
  130.1040  132.0990   57.1680 C   0  0  0  0  0  0  0  0  0  0  0  0
  128.9020  132.4490   57.6950 N   0  0  0  0  0  0  0  0  0  0  0  0
  128.7160  132.3400   59.0310 C   0  0  0  0  0  0  0  0  0  0  0  0
  127.3520  132.7570   59.5430 C   0  0  0  0  0  0  0  0  0  0  0  0
  129.7080  131.8740   59.8910 C   0  0  0  0  0  0  0  0  0  0  0  0
  130.9480  131.5030   59.3610 C   0  0  0  0  0  0  0  0  0  0  0  0
  132.0210  130.9950   60.3210 C   0  0  0  0  0  0  0  0  0  0  0  0
  131.1640  131.6140   57.9690 C   0  0  0  0  0  0  0  0  0  0  0  0
  132.4540  131.2360   57.3860 C   0  0  0  0  0  0  0  0  0  0  0  0
  133.4740  130.9380   56.9260 N   0  0  0  0  0  0  0  0  0  0  0  0
  1  2  1  0
  2  3  1  0
  3  4  1  0
  4  5  1  0
  5  6  1  0
  6  7  1  0
  7  8  1  0
  8  9  1  0
  9 10  1  0
 10 11  1  0
 11 12  1  0
 12 13  2  0
 12 14  1  0
 14 15  1  0
 15 16  1  0
 16 17  2  0
 17 18  1  0
 18 19  1  0
 18 20  2  0
 20 21  1  0
 21 22  1  0
 21 23  2  0
 23 24  1  0
 24 25  3  0
 23 16  1  0
M  END
>  <Binding energies>  (11) 
[-6.5]

>  <Ligand effiencies>  (11) 
[-0.25]

>  <Interactions>  (11) 
["V-B:TYR:539:CE1:9844, V-B:PRO:540:CA:9852, V-B:PRO:540:N:9853, V-B:TYR:539:C:9836, H-B:TYR:531:OH:9764, V-B:TYR:539:CD1:9842, V-B:PRO:540:CB:9854, V-B:MET:535:CE:9804, V-A:PRO:540:CA:4880, V-A:TYR:539:CD2:4871, V-A:TYR:539:CE2:4873, H-A:TYR:531:OH:4792, V-A:TYR:539:C:4864, V-A:PRO:540:N:4881, V-A:PRO:540:CB:4882, V-A:ILE:538:CD1:4862, H-A:TYR:539:N:4867, V-A:TYR:539:CZ:4874, V-A:LEU:363:CD1:3185, V-B:ASP:366:CB:8180, V-B:LEU:363:CD1:8157, V-B:ASP:366:CG:8181, H-A:TYR:539:OH:4875, V-A:TYR:539:CG:4869, V-A:TYR:539:CD1:4870, V-A:TYR:539:CE1:4872, V-A:ILE:538:CA:4857, H-B:TYR:539:N:9839, V-B:ILE:538:CB:9831, V-B:ILE:538:CG2:9832, H-B:LYS:534:NZ:9792"]

$$$$
1l_Grossjean_2025
     RDKit          3D

 17 17  0  0  0  0  0  0  0  0999 V2000
  124.7970  131.1000   57.0020 C   0  0  0  0  0  0  0  0  0  0  0  0
  125.3310  130.5290   55.8160 O   0  0  0  0  0  0  0  0  0  0  0  0
  126.5570  131.1210   55.5140 N   0  0  0  0  0  0  0  0  0  0  0  0
  127.0120  131.0720   54.2470 C   0  0  0  0  0  0  0  0  0  0  0  0
  126.3170  130.7370   53.2840 O   0  0  0  0  0  0  0  0  0  0  0  0
  128.4800  131.4820   54.0660 C   0  0  0  0  0  0  0  0  0  0  0  0
  128.9830  132.9750   54.9880 S   0  0  0  0  0  0  0  0  0  0  0  0
  129.3210  132.4980   56.6740 C   0  0  0  0  0  0  0  0  0  0  0  0
  128.2740  132.5890   57.5350 N   0  0  0  0  0  0  0  0  0  0  0  0
  128.4610  132.2450   58.8310 C   0  0  0  0  0  0  0  0  0  0  0  0
  127.2450  132.3730   59.7290 C   0  0  0  0  0  0  0  0  0  0  0  0
  129.6850  131.7970   59.3200 C   0  0  0  0  0  0  0  0  0  0  0  0
  130.7710  131.6960   58.4440 C   0  0  0  0  0  0  0  0  0  0  0  0
  132.1040  131.2020   59.0020 C   0  0  0  0  0  0  0  0  0  0  0  0
  130.5980  132.0520   57.0880 C   0  0  0  0  0  0  0  0  0  0  0  0
  131.7190  131.9570   56.1470 C   0  0  0  0  0  0  0  0  0  0  0  0
  132.6040  131.8820   55.4060 N   0  0  0  0  0  0  0  0  0  0  0  0
  1  2  1  0
  2  3  1  0
  3  4  1  0
  4  5  2  0
  4  6  1  0
  6  7  1  0
  7  8  1  0
  8  9  2  0
  9 10  1  0
 10 11  1  0
 10 12  2  0
 12 13  1  0
 13 14  1  0
 13 15  2  0
 15 16  1  0
 16 17  3  0
 15  8  1  0
M  END
>  <Binding energies>  (12) 
[-5.89]

>  <Ligand effiencies>  (12) 
[-0.3272222222222222]

>  <Interactions>  (12) 
["H-B:TYR:531:OH:9764, V-A:PRO:540:CA:4880, V-A:TYR:539:CD2:4871, V-A:TYR:539:CE2:4873, H-A:TYR:531:OH:4792, V-A:TYR:539:C:4864, V-A:PRO:540:N:4881, V-A:PRO:540:CB:4882, V-A:ILE:538:CD1:4862, H-A:TYR:539:N:4867, V-A:TYR:539:CZ:4874, V-A:LEU:363:CD1:3185, H-A:TYR:539:OH:4875, H-B:LYS:534:NZ:9792, V-A:ILE:538:CG2:4860"]

$$$$
1m_Grossjean_2025
     RDKit          3D

 20 20  0  0  0  0  0  0  0  0999 V2000
  126.7570  129.7510   53.7320 C   0  0  0  0  0  0  0  0  0  0  0  0
  126.9580  131.1430   53.5390 O   0  0  0  0  0  0  0  0  0  0  0  0
  128.0330  131.7610   54.0700 C   0  0  0  0  0  0  0  0  0  0  0  0
  128.4990  132.8410   53.6940 O   0  0  0  0  0  0  0  0  0  0  0  0
  128.6290  130.9530   55.2410 C   0  0  0  0  0  0  0  0  0  0  0  0
  130.0770  131.1610   55.3990 N   0  0  0  0  0  0  0  0  0  0  0  0
  130.6650  132.2930   55.8310 C   0  0  0  0  0  0  0  0  0  0  0  0
  130.0320  133.3070   56.1320 O   0  0  0  0  0  0  0  0  0  0  0  0
  132.1960  132.2500   55.9190 C   0  0  0  0  0  0  0  0  0  0  0  0
  132.8500  131.3840   57.3870 S   0  0  0  0  0  0  0  0  0  0  0  0
  131.6530  130.1650   57.8870 C   0  0  0  0  0  0  0  0  0  0  0  0
  131.3250  129.2900   56.9020 N   0  0  0  0  0  0  0  0  0  0  0  0
  130.4270  128.3140   57.1700 C   0  0  0  0  0  0  0  0  0  0  0  0
  130.1270  127.3630   56.0270 C   0  0  0  0  0  0  0  0  0  0  0  0
  129.8140  128.1770   58.4130 C   0  0  0  0  0  0  0  0  0  0  0  0
  130.1230  129.0890   59.4280 C   0  0  0  0  0  0  0  0  0  0  0  0
  129.4270  128.9290   60.7770 C   0  0  0  0  0  0  0  0  0  0  0  0
  131.0590  130.1180   59.1710 C   0  0  0  0  0  0  0  0  0  0  0  0
  131.3600  131.1130   60.2030 C   0  0  0  0  0  0  0  0  0  0  0  0
  131.5980  131.8980   61.0190 N   0  0  0  0  0  0  0  0  0  0  0  0
  1  2  1  0
  2  3  1  0
  3  4  2  0
  3  5  1  0
  5  6  1  0
  6  7  1  0
  7  8  2  0
  7  9  1  0
  9 10  1  0
 10 11  1  0
 11 12  2  0
 12 13  1  0
 13 14  1  0
 13 15  2  0
 15 16  1  0
 16 17  1  0
 16 18  2  0
 18 19  1  0
 19 20  3  0
 18 11  1  0
M  END
>  <Binding energies>  (13) 
[-6.6]

>  <Ligand effiencies>  (13) 
[-0.3142857142857143]

>  <Interactions>  (13) 
["V-B:MET:535:CE:9804, V-A:PRO:540:CA:4880, H-A:TYR:531:OH:4792, V-A:TYR:539:C:4864, V-A:PRO:540:N:4881, V-A:PRO:540:CB:4882, H-A:ALA:541:N:4888, V-A:ILE:538:CD1:4862, H-A:TYR:539:N:4867, V-A:TYR:539:CZ:4874, V-A:LEU:363:CD1:3185, V-B:TYR:531:CE1:9761, H-A:TYR:539:OH:4875, V-A:TYR:539:CE1:4872, H-B:LYS:534:NZ:9792, V-A:ILE:538:CG2:4860, V-A:PRO:540:CD:4884"]

$$$$
1n_Grossjean_2025
     RDKit          3D

 27 28  0  0  0  0  0  0  0  0999 V2000
  131.8890  132.2530   55.7650 C   0  0  0  0  0  0  0  0  0  0  0  0
  130.4580  132.2650   56.3130 C   0  0  0  0  0  0  0  0  0  0  0  0
  129.6140  132.9740   55.4140 O   0  0  0  0  0  0  0  0  0  0  0  0
  128.5340  132.3760   54.8480 C   0  0  0  0  0  0  0  0  0  0  0  0
  128.1050  132.6680   53.7280 O   0  0  0  0  0  0  0  0  0  0  0  0
  127.9200  131.3150   55.7160 C   0  0  0  0  0  0  0  0  0  0  0  0
  127.7730  129.9900   55.2770 C   0  0  0  0  0  0  0  0  0  0  0  0
  127.1970  129.0320   56.1060 C   0  0  0  0  0  0  0  0  0  0  0  0
  126.7520  129.3750   57.3830 C   0  0  0  0  0  0  0  0  0  0  0  0
  126.1810  128.3290   58.1340 N   0  0  0  0  0  0  0  0  0  0  0  0
  126.5250  127.0250   58.1980 C   0  0  0  0  0  0  0  0  0  0  0  0
  127.4530  126.5000   57.5820 O   0  0  0  0  0  0  0  0  0  0  0  0
  125.6680  126.1580   59.1290 C   0  0  0  0  0  0  0  0  0  0  0  0
  124.2670  125.8540   58.5550 C   0  0  0  0  0  0  0  0  0  0  0  0
  124.1260  124.2430   57.7250 S   0  0  0  0  0  0  0  0  0  0  0  0
  125.7360  123.4850   57.7410 C   0  0  0  0  0  0  0  0  0  0  0  0
  126.2770  123.3300   56.5060 N   0  0  0  0  0  0  0  0  0  0  0  0
  127.5080  122.7780   56.3990 C   0  0  0  0  0  0  0  0  0  0  0  0
  128.0510  122.6470   54.9900 C   0  0  0  0  0  0  0  0  0  0  0  0
  128.2420  122.3560   57.5060 C   0  0  0  0  0  0  0  0  0  0  0  0
  127.6850  122.4930   58.7820 C   0  0  0  0  0  0  0  0  0  0  0  0
  128.5020  122.0110   59.9790 C   0  0  0  0  0  0  0  0  0  0  0  0
  126.3980  123.0620   58.9180 C   0  0  0  0  0  0  0  0  0  0  0  0
  125.7750  123.1660   60.2390 C   0  0  0  0  0  0  0  0  0  0  0  0
  125.2840  123.2470   61.2840 N   0  0  0  0  0  0  0  0  0  0  0  0
  126.9050  130.6940   57.8330 C   0  0  0  0  0  0  0  0  0  0  0  0
  127.4840  131.6520   57.0040 C   0  0  0  0  0  0  0  0  0  0  0  0
  1  2  1  0
  2  3  1  0
  3  4  1  0
  4  5  2  0
  4  6  1  0
  6  7  2  0
  7  8  1  0
  8  9  2  0
  9 10  1  0
 10 11  1  0
 11 12  2  0
 11 13  1  0
 13 14  1  0
 14 15  1  0
 15 16  1  0
 16 17  2  0
 17 18  1  0
 18 19  1  0
 18 20  2  0
 20 21  1  0
 21 22  1  0
 21 23  2  0
 23 24  1  0
 24 25  3  0
  9 26  1  0
 26 27  2  0
 27  6  1  0
 23 16  1  0
M  END
>  <Binding energies>  (14) 
[-8.86]

>  <Ligand effiencies>  (14) 
[-0.3164285714285714]

>  <Interactions>  (14) 
["V-B:TYR:539:CE2:9845, V-B:TYR:539:CE1:9844, V-B:PRO:540:CA:9852, V-B:TYR:539:CG:9841, V-B:PRO:540:N:9853, V-B:TYR:539:C:9836, H-B:TYR:531:OH:9764, V-B:TYR:539:CZ:9846, V-B:TYR:539:CD1:9842, V-B:ALA:541:CB:9861, V-B:PRO:540:CB:9854, V-B:MET:535:CE:9804, V-B:TYR:539:CD2:9843, V-A:TYR:539:CD2:4871, V-A:TYR:539:CE2:4873, H-B:ALA:541:N:9860, V-A:TYR:539:C:4864, V-A:PRO:540:N:4881, V-A:ILE:538:CD1:4862, H-A:TYR:539:N:4867, V-A:TYR:539:CZ:4874, V-A:LEU:363:CD1:3185, V-B:ASP:366:CB:8180, V-B:ASP:366:CG:8181, H-A:TYR:539:OH:4875, V-A:TYR:539:CD1:4870, V-A:TYR:539:CE1:4872, V-B:ILE:538:CB:9831, V-B:ILE:538:CA:9829, V-B:ILE:538:CG2:9832, H-B:LYS:534:NZ:9792, V-A:ILE:538:CG2:4860, H-B:ASP:366:OD1:8182, V-B:PRO:540:C:9850, V-A:PRO:540:CD:4884"]

$$$$
1q_Grossjean_2025
     RDKit          3D

 21 21  0  0  0  0  0  0  0  0999 V2000
  127.1970  123.2830   61.3400 C   0  0  0  0  0  0  0  0  0  0  0  0
  126.0290  122.8740   60.6430 O   0  0  0  0  0  0  0  0  0  0  0  0
  124.8050  123.2920   61.0480 C   0  0  0  0  0  0  0  0  0  0  0  0
  124.1300  122.7760   61.9400 O   0  0  0  0  0  0  0  0  0  0  0  0
  124.2620  124.5030   60.2590 C   0  0  0  0  0  0  0  0  0  0  0  0
  125.3120  125.2310   59.5300 N   0  0  0  0  0  0  0  0  0  0  0  0
  125.1780  125.8050   58.3190 C   0  0  0  0  0  0  0  0  0  0  0  0
  124.1270  125.7830   57.6750 O   0  0  0  0  0  0  0  0  0  0  0  0
  126.4230  126.5200   57.7730 C   0  0  0  0  0  0  0  0  0  0  0  0
  127.6960  126.3090   58.6160 C   0  0  0  0  0  0  0  0  0  0  0  0
  128.3990  124.6400   58.4680 S   0  0  0  0  0  0  0  0  0  0  0  0
  129.3170  124.5440   56.9440 C   0  0  0  0  0  0  0  0  0  0  0  0
  130.4130  125.3440   56.9240 N   0  0  0  0  0  0  0  0  0  0  0  0
  131.1900  125.3590   55.8170 C   0  0  0  0  0  0  0  0  0  0  0  0
  132.3870  126.2900   55.8630 C   0  0  0  0  0  0  0  0  0  0  0  0
  130.9180  124.5760   54.6970 C   0  0  0  0  0  0  0  0  0  0  0  0
  129.8060  123.7280   54.7150 C   0  0  0  0  0  0  0  0  0  0  0  0
  129.5380  122.8660   53.4820 C   0  0  0  0  0  0  0  0  0  0  0  0
  128.9800  123.6940   55.8620 C   0  0  0  0  0  0  0  0  0  0  0  0
  127.8450  122.7710   55.9210 C   0  0  0  0  0  0  0  0  0  0  0  0
  126.9490  122.0400   55.9640 N   0  0  0  0  0  0  0  0  0  0  0  0
  1  2  1  0
  2  3  1  0
  3  4  2  0
  3  5  1  0
  5  6  1  0
  6  7  1  0
  7  8  2  0
  7  9  1  0
  9 10  1  0
 10 11  1  0
 11 12  1  0
 12 13  2  0
 13 14  1  0
 14 15  1  0
 14 16  2  0
 16 17  1  0
 17 18  1  0
 17 19  2  0
 19 20  1  0
 20 21  3  0
 19 12  1  0
M  END
>  <Binding energies>  (15) 
[-6.93]

>  <Ligand effiencies>  (15) 
[-0.315]

>  <Interactions>  (15) 
["V-B:TYR:539:CE1:9844, V-B:PRO:540:CA:9852, V-B:GLU:543:CD:9877, H-B:TYR:531:OH:9764, V-B:TYR:539:CZ:9846, V-B:TYR:539:CD1:9842, V-B:ALA:541:CB:9861, V-B:PRO:540:CB:9854, V-B:MET:535:CE:9804, V-A:TYR:531:CZ:4791, V-A:ASP:366:CB:3208, H-B:ALA:541:N:9860, H-B:GLU:543:OE2:9879, V-B:ASN:362:CB:8144, V-B:ASP:366:CB:8180, H-B:TYR:539:OH:9847, V-B:ASN:362:C:8140, H-B:TYR:539:N:9839, V-A:TYR:531:CE1:4789, V-A:ASP:366:C:3204, H-B:ASP:366:OD1:8182, V-B:PRO:540:C:9850, H-B:ASN:362:ND2:8147, V-B:VAL:537:C:9819"]

$$$$
2a_Grossjean_2025
     RDKit          3D

 29 30  0  0  0  0  0  0  0  0999 V2000
  129.0870  132.5510   55.6130 C   0  0  0  0  0  0  0  0  0  0  0  0
  128.6850  131.5910   54.4890 C   0  0  0  0  0  0  0  0  0  0  0  0
  127.3570  131.8870   54.0720 O   0  0  0  0  0  0  0  0  0  0  0  0
  126.3940  130.9290   54.0710 C   0  0  0  0  0  0  0  0  0  0  0  0
  125.6200  130.7430   53.1270 O   0  0  0  0  0  0  0  0  0  0  0  0
  126.3790  130.1040   55.3260 C   0  0  0  0  0  0  0  0  0  0  0  0
  125.6330  130.4800   56.4520 C   0  0  0  0  0  0  0  0  0  0  0  0
  125.6420  129.6930   57.6000 C   0  0  0  0  0  0  0  0  0  0  0  0
  126.4000  128.5230   57.6510 C   0  0  0  0  0  0  0  0  0  0  0  0
  126.3460  127.8150   58.8650 N   0  0  0  0  0  0  0  0  0  0  0  0
  127.3270  127.5310   59.7490 C   0  0  0  0  0  0  0  0  0  0  0  0
  128.5130  127.8390   59.6250 O   0  0  0  0  0  0  0  0  0  0  0  0
  126.8890  126.7560   60.9960 C   0  0  0  0  0  0  0  0  0  0  0  0
  125.6210  125.4910   60.6510 S   0  0  0  0  0  0  0  0  0  0  0  0
  126.3260  124.1860   59.6510 C   0  0  0  0  0  0  0  0  0  0  0  0
  127.3090  123.4590   60.2400 N   0  0  0  0  0  0  0  0  0  0  0  0
  127.8970  122.4640   59.5380 C   0  0  0  0  0  0  0  0  0  0  0  0
  129.0050  121.7150   60.2540 C   0  0  0  0  0  0  0  0  0  0  0  0
  127.5280  122.1470   58.2340 C   0  0  0  0  0  0  0  0  0  0  0  0
  126.5080  122.8790   57.6080 C   0  0  0  0  0  0  0  0  0  0  0  0
  126.1110  122.5150   56.1650 C   0  0  0  0  0  0  0  0  0  0  0  0
  125.9440  123.6230   55.4420 F   0  0  0  0  0  0  0  0  0  0  0  0
  127.0660  121.7720   55.6040 F   0  0  0  0  0  0  0  0  0  0  0  0
  124.9730  121.8190   56.1030 F   0  0  0  0  0  0  0  0  0  0  0  0
  125.8860  123.9280   58.3320 C   0  0  0  0  0  0  0  0  0  0  0  0
  124.8170  124.7280   57.7250 C   0  0  0  0  0  0  0  0  0  0  0  0
  123.9730  125.3590   57.2460 N   0  0  0  0  0  0  0  0  0  0  0  0
  127.1420  128.1360   56.5260 C   0  0  0  0  0  0  0  0  0  0  0  0
  127.1290  128.9220   55.3760 C   0  0  0  0  0  0  0  0  0  0  0  0
  1  2  1  0
  2  3  1  0
  3  4  1  0
  4  5  2  0
  4  6  1  0
  6  7  2  0
  7  8  1  0
  8  9  2  0
  9 10  1  0
 10 11  1  0
 11 12  2  0
 11 13  1  0
 13 14  1  0
 14 15  1  0
 15 16  2  0
 16 17  1  0
 17 18  1  0
 17 19  2  0
 19 20  1  0
 20 21  1  0
 21 22  1  0
 21 23  1  0
 21 24  1  0
 20 25  2  0
 25 26  1  0
 26 27  3  0
  9 28  1  0
 28 29  2  0
 29  6  1  0
 25 15  1  0
M  END
>  <Binding energies>  (16) 
[-7.98]

>  <Ligand effiencies>  (16) 
[-0.266]

>  <Interactions>  (16) 
["V-B:TYR:539:CE2:9845, V-B:PRO:540:CA:9852, V-B:PRO:540:N:9853, V-B:TYR:539:C:9836, H-B:TYR:531:OH:9764, V-B:TYR:539:CZ:9846, V-B:TYR:539:CD1:9842, V-B:ALA:541:CB:9861, V-B:PRO:540:CB:9854, V-B:MET:535:CE:9804, V-B:TYR:539:CD2:9843, V-A:TYR:539:CD2:4871, V-A:TYR:539:CE2:4873, V-A:ILE:538:CD1:4862, V-A:TYR:539:CZ:4874, V-B:ASP:366:CB:8180, V-B:LEU:363:CD1:8157, V-B:ASP:366:CG:8181, V-B:TYR:531:CE1:9761, H-A:TYR:539:OH:4875, V-A:TYR:539:CG:4869, V-B:ILE:538:CB:9831, V-B:ILE:538:CA:9829, V-B:ILE:538:CG2:9832, V-B:ILE:538:C:9827, H-B:LYS:534:NZ:9792, V-B:TYR:531:CZ:9763, H-B:ASP:366:OD1:8182, V-B:PRO:540:CD:9856, H-B:ARG:545:NH2:9897, V-B:TYR:539:CA:9838, V-B:PRO:540:CG:9855, V-B:ILE:538:CD1:9834, V-B:ILE:538:CG1:9833"]

$$$$
2b_Grossjean_2025
     RDKit          3D

 28 29  0  0  0  0  0  0  0  0999 V2000
  128.7180  131.6750   54.7140 C   0  0  0  0  0  0  0  0  0  0  0  0
  127.4940  131.8670   54.0200 O   0  0  0  0  0  0  0  0  0  0  0  0
  126.5180  130.9240   54.0500 C   0  0  0  0  0  0  0  0  0  0  0  0
  125.7470  130.7110   53.1080 O   0  0  0  0  0  0  0  0  0  0  0  0
  126.4650  130.1660   55.3450 C   0  0  0  0  0  0  0  0  0  0  0  0
  127.1910  128.9820   55.5420 C   0  0  0  0  0  0  0  0  0  0  0  0
  127.1190  128.3020   56.7550 C   0  0  0  0  0  0  0  0  0  0  0  0
  126.3280  128.7920   57.7940 C   0  0  0  0  0  0  0  0  0  0  0  0
  126.3230  128.0240   58.9740 N   0  0  0  0  0  0  0  0  0  0  0  0
  127.3580  127.5860   59.7220 C   0  0  0  0  0  0  0  0  0  0  0  0
  128.5490  127.7740   59.4710 O   0  0  0  0  0  0  0  0  0  0  0  0
  126.9700  126.7800   60.9660 C   0  0  0  0  0  0  0  0  0  0  0  0
  125.7010  125.5130   60.6310 S   0  0  0  0  0  0  0  0  0  0  0  0
  126.3940  124.2040   59.6310 C   0  0  0  0  0  0  0  0  0  0  0  0
  127.3650  123.4620   60.2220 N   0  0  0  0  0  0  0  0  0  0  0  0
  127.9380  122.4570   59.5220 C   0  0  0  0  0  0  0  0  0  0  0  0
  129.0210  121.6850   60.2490 C   0  0  0  0  0  0  0  0  0  0  0  0
  127.5670  122.1450   58.2180 C   0  0  0  0  0  0  0  0  0  0  0  0
  126.5610  122.8940   57.5880 C   0  0  0  0  0  0  0  0  0  0  0  0
  126.1590  122.5320   56.1460 C   0  0  0  0  0  0  0  0  0  0  0  0
  126.0450  123.6410   55.4130 F   0  0  0  0  0  0  0  0  0  0  0  0
  127.0850  121.7440   55.5960 F   0  0  0  0  0  0  0  0  0  0  0  0
  124.9930  121.8860   56.0810 F   0  0  0  0  0  0  0  0  0  0  0  0
  125.9560  123.9550   58.3090 C   0  0  0  0  0  0  0  0  0  0  0  0
  124.9040  124.7750   57.6990 C   0  0  0  0  0  0  0  0  0  0  0  0
  124.0730  125.4210   57.2180 N   0  0  0  0  0  0  0  0  0  0  0  0
  125.5930  129.9710   57.6030 C   0  0  0  0  0  0  0  0  0  0  0  0
  125.6650  130.6490   56.3890 C   0  0  0  0  0  0  0  0  0  0  0  0
  1  2  1  0
  2  3  1  0
  3  4  2  0
  3  5  1  0
  5  6  2  0
  6  7  1  0
  7  8  2  0
  8  9  1  0
  9 10  1  0
 10 11  2  0
 10 12  1  0
 12 13  1  0
 13 14  1  0
 14 15  2  0
 15 16  1  0
 16 17  1  0
 16 18  2  0
 18 19  1  0
 19 20  1  0
 20 21  1  0
 20 22  1  0
 20 23  1  0
 19 24  2  0
 24 25  1  0
 25 26  3  0
  8 27  1  0
 27 28  2  0
 28  5  1  0
 24 14  1  0
M  END
>  <Binding energies>  (17) 
[-7.75]

>  <Ligand effiencies>  (17) 
[-0.2672413793103448]

>  <Interactions>  (17) 
["V-B:TYR:539:CE2:9845, V-B:PRO:540:CA:9852, V-B:PRO:540:N:9853, V-B:TYR:539:C:9836, H-B:TYR:531:OH:9764, V-B:TYR:539:CZ:9846, V-B:TYR:539:CD1:9842, V-B:ALA:541:CB:9861, V-B:PRO:540:CB:9854, V-B:MET:535:CE:9804, V-B:TYR:539:CD2:9843, V-A:TYR:539:CE2:4873, V-A:ILE:538:CD1:4862, V-A:TYR:539:CZ:4874, V-B:ASP:366:CB:8180, V-B:LEU:363:CD1:8157, V-B:ASP:366:CG:8181, V-B:TYR:531:CE1:9761, H-A:TYR:539:OH:4875, V-B:ILE:538:CB:9831, V-B:ILE:538:CA:9829, V-B:ILE:538:CG2:9832, V-B:ILE:538:C:9827, H-B:LYS:534:NZ:9792, V-B:TYR:531:CZ:9763, H-B:ASP:366:OD1:8182, V-B:PRO:540:CD:9856, H-B:ARG:545:NH2:9897, V-B:TYR:539:CA:9838, V-B:PRO:540:CG:9855, V-B:ILE:538:CD1:9834, V-B:ILE:538:CG1:9833"]

$$$$
2c_Grossjean_2025
     RDKit          3D

 26 27  0  0  0  0  0  0  0  0999 V2000
  132.7040  131.2870   61.3190 C   0  0  0  0  0  0  0  0  0  0  0  0
  133.2850  131.0820   60.0350 O   0  0  0  0  0  0  0  0  0  0  0  0
  132.4780  131.1360   58.9140 C   0  0  0  0  0  0  0  0  0  0  0  0
  133.1280  131.1730   57.6810 C   0  0  0  0  0  0  0  0  0  0  0  0
  132.4010  131.2290   56.4950 C   0  0  0  0  0  0  0  0  0  0  0  0
  130.9990  131.2600   56.5350 C   0  0  0  0  0  0  0  0  0  0  0  0
  130.1800  131.2980   55.3920 N   0  0  0  0  0  0  0  0  0  0  0  0
  129.3240  132.2670   55.0010 C   0  0  0  0  0  0  0  0  0  0  0  0
  129.0790  133.2880   55.6450 O   0  0  0  0  0  0  0  0  0  0  0  0
  128.6070  131.9970   53.6690 C   0  0  0  0  0  0  0  0  0  0  0  0
  127.5380  130.5160   53.6380 S   0  0  0  0  0  0  0  0  0  0  0  0
  126.9810  130.1500   55.2970 C   0  0  0  0  0  0  0  0  0  0  0  0
  125.8280  130.7590   55.6790 N   0  0  0  0  0  0  0  0  0  0  0  0
  125.3530  130.5360   56.9230 C   0  0  0  0  0  0  0  0  0  0  0  0
  124.0710  131.2650   57.2780 C   0  0  0  0  0  0  0  0  0  0  0  0
  125.9930  129.6970   57.8330 C   0  0  0  0  0  0  0  0  0  0  0  0
  127.1800  129.0510   57.4580 C   0  0  0  0  0  0  0  0  0  0  0  0
  127.8750  128.1250   58.4750 C   0  0  0  0  0  0  0  0  0  0  0  0
  129.1020  128.5760   58.7400 F   0  0  0  0  0  0  0  0  0  0  0  0
  127.1750  128.0820   59.6090 F   0  0  0  0  0  0  0  0  0  0  0  0
  127.9960  126.8710   58.0310 F   0  0  0  0  0  0  0  0  0  0  0  0
  127.6930  129.2810   56.1570 C   0  0  0  0  0  0  0  0  0  0  0  0
  128.9330  128.6340   55.7120 C   0  0  0  0  0  0  0  0  0  0  0  0
  129.9100  128.1230   55.3620 N   0  0  0  0  0  0  0  0  0  0  0  0
  130.3430  131.2070   57.7660 C   0  0  0  0  0  0  0  0  0  0  0  0
  131.0750  131.1500   58.9490 C   0  0  0  0  0  0  0  0  0  0  0  0
  1  2  1  0
  2  3  1  0
  3  4  2  0
  4  5  1  0
  5  6  2  0
  6  7  1  0
  7  8  1  0
  8  9  2  0
  8 10  1  0
 10 11  1  0
 11 12  1  0
 12 13  2  0
 13 14  1  0
 14 15  1  0
 14 16  2  0
 16 17  1  0
 17 18  1  0
 18 19  1  0
 18 20  1  0
 18 21  1  0
 17 22  2  0
 22 23  1  0
 23 24  3  0
  6 25  1  0
 25 26  2  0
 26  3  1  0
 22 12  1  0
M  END
>  <Binding energies>  (18) 
[-6.81]

>  <Ligand effiencies>  (18) 
[-0.2522222222222222]

>  <Interactions>  (18) 
["V-A:GLU:543:CD:4905, H-B:TYR:531:OH:9764, V-B:MET:535:CE:9804, V-A:TYR:531:CZ:4791, V-A:PRO:540:CA:4880, V-A:TYR:539:CE2:4873, H-A:TYR:531:OH:4792, V-A:PRO:540:CB:4882, V-B:ILE:369:CG2:8205, V-A:ILE:538:CD1:4862, H-A:TYR:539:N:4867, V-A:TYR:539:CZ:4874, V-A:LEU:363:CD1:3185, V-B:ASP:366:CB:8180, H-A:TYR:539:OH:4875, V-A:LEU:363:CA:3181, V-A:TYR:539:CE1:4872, V-A:ILE:538:CA:4857, V-A:LEU:363:CB:3183, V-B:ASP:366:C:8176, V-B:ASP:366:CA:8178, V-A:ASN:362:CB:3172, H-B:LYS:534:NZ:9792, V-B:TYR:531:CZ:9763, H-A:LEU:363:N:3182, V-A:TYR:531:CE2:4790"]

$$$$
2d_Ghoteimi_2023
     RDKit          3D

 38 42  0  0  0  0  0  0  0  0999 V2000
  124.6650  130.4190   62.7340 C   0  0  0  0  0  0  0  0  0  0  0  0
  124.1300  130.7650   64.0020 O   0  0  0  0  0  0  0  0  0  0  0  0
  124.2260  129.9130   65.0430 C   0  0  0  0  0  0  0  0  0  0  0  0
  123.4230  129.8290   65.9770 O   0  0  0  0  0  0  0  0  0  0  0  0
  125.4770  129.0300   64.9270 C   0  0  0  0  0  0  0  0  0  0  0  0
  126.8990  129.7810   65.7920 S   0  0  0  0  0  0  0  0  0  0  0  0
  128.0880  128.5000   66.1340 C   0  0  0  0  0  0  0  0  0  0  0  0
  128.2530  128.2640   67.4580 N   0  0  0  0  0  0  0  0  0  0  0  0
  129.1360  127.3160   67.8660 C   0  0  0  0  0  0  0  0  0  0  0  0
  129.2780  127.1240   69.3410 C   0  0  0  0  0  0  0  0  0  0  0  0
  130.3190  127.7410   70.0430 C   0  0  0  0  0  0  0  0  0  0  0  0
  130.4570  127.5670   71.4170 C   0  0  0  0  0  0  0  0  0  0  0  0
  129.5520  126.7770   72.1420 C   0  0  0  0  0  0  0  0  0  0  0  0
  129.6870  126.5770   73.5200 N   0  0  0  0  0  0  0  0  0  0  0  0
  128.6620  127.0470   74.4730 C   0  0  0  0  0  0  0  0  0  0  0  0
  129.1460  127.0760   75.9380 C   0  0  0  0  0  0  0  0  0  0  0  0
  129.6340  125.7970   76.3110 O   0  0  0  0  0  0  0  0  0  0  0  0
  130.7270  125.3990   75.5010 C   0  0  0  0  0  0  0  0  0  0  0  0
  130.2930  125.3260   74.0220 C   0  0  0  0  0  0  0  0  0  0  0  0
  128.5180  126.1500   71.4320 C   0  0  0  0  0  0  0  0  0  0  0  0
  128.3810  126.3220   70.0580 C   0  0  0  0  0  0  0  0  0  0  0  0
  129.8750  126.5750   66.9400 C   0  0  0  0  0  0  0  0  0  0  0  0
  129.6980  126.7750   65.5660 C   0  0  0  0  0  0  0  0  0  0  0  0
  130.5010  125.9270   64.6350 C   0  0  0  0  0  0  0  0  0  0  0  0
  131.8960  125.9510   64.6910 C   0  0  0  0  0  0  0  0  0  0  0  0
  132.6540  125.1550   63.8370 C   0  0  0  0  0  0  0  0  0  0  0  0
  132.0360  124.3130   62.8980 C   0  0  0  0  0  0  0  0  0  0  0  0
  132.7770  123.4950   62.0390 N   0  0  0  0  0  0  0  0  0  0  0  0
  132.8530  122.0360   62.2420 C   0  0  0  0  0  0  0  0  0  0  0  0
  133.4010  121.2720   61.0180 C   0  0  0  0  0  0  0  0  0  0  0  0
  134.6640  121.7990   60.6420 O   0  0  0  0  0  0  0  0  0  0  0  0
  134.5790  123.1740   60.3020 C   0  0  0  0  0  0  0  0  0  0  0  0
  134.0640  123.9860   61.5100 C   0  0  0  0  0  0  0  0  0  0  0  0
  130.6350  124.2820   62.8620 C   0  0  0  0  0  0  0  0  0  0  0  0
  129.8780  125.0770   63.7170 C   0  0  0  0  0  0  0  0  0  0  0  0
  128.7740  127.7630   65.1410 C   0  0  0  0  0  0  0  0  0  0  0  0
  128.5400  127.9970   63.7130 C   0  0  0  0  0  0  0  0  0  0  0  0
  128.3570  128.1780   62.5840 N   0  0  0  0  0  0  0  0  0  0  0  0
  1  2  1  0
  2  3  1  0
  3  4  2  0
  3  5  1  0
  5  6  1  0
  6  7  1  0
  7  8  2  0
  8  9  1  0
  9 10  1  0
 10 11  2  0
 11 12  1  0
 12 13  2  0
 13 14  1  0
 14 15  1  0
 15 16  1  0
 16 17  1  0
 17 18  1  0
 18 19  1  0
 13 20  1  0
 20 21  2  0
  9 22  2  0
 22 23  1  0
 23 24  1  0
 24 25  2  0
 25 26  1  0
 26 27  2  0
 27 28  1  0
 28 29  1  0
 29 30  1  0
 30 31  1  0
 31 32  1  0
 32 33  1  0
 27 34  1  0
 34 35  2  0
 23 36  2  0
 36 37  1  0
 37 38  3  0
 36  7  1  0
 21 10  1  0
 35 24  1  0
 19 14  1  0
 33 28  1  0
M  END
>  <Binding energies>  (19) 
[-9.48]

>  <Ligand effiencies>  (19) 
[-0.24947368421052632]

>  <Interactions>  (19) 
["V-A:GLU:543:CD:4905, V-A:LEU:475:CD1:4254, V-B:TYR:539:CE2:9845, V-B:GLU:543:CD:9877, V-B:HIS:456:CE1:9038, V-A:HIS:456:CE1:4066, V-A:ASP:366:CG:3209, V-B:GLU:543:CG:9876, H-B:TYR:484:OH:9316, V-A:ARG:545:CZ:4923, V-B:ASP:366:CG:8181, V-A:GLY:454:CA:4045, V-A:ILE:369:CG2:3233, V-A:ILE:369:CG1:3234, V-A:ASP:366:CA:3206, V-A:ILE:369:CB:3232, V-B:ARG:545:CZ:9895, H-B:GLY:454:N:9018, V-B:LYS:547:CD:9918, V-A:HIS:456:CD2:4064, V-A:LYS:547:CE:4947, V-B:LYS:547:CE:9919, H-B:ARG:545:NE:9893"]

$$$$
2d_Grossjean_2025
     RDKit          3D

 24 25  0  0  0  0  0  0  0  0999 V2000
  124.1540  131.2550   57.1140 C   0  0  0  0  0  0  0  0  0  0  0  0
  125.4330  130.5080   56.7860 C   0  0  0  0  0  0  0  0  0  0  0  0
  126.0110  129.6200   57.6890 C   0  0  0  0  0  0  0  0  0  0  0  0
  127.1920  128.9500   57.3380 C   0  0  0  0  0  0  0  0  0  0  0  0
  127.8110  127.9620   58.3460 C   0  0  0  0  0  0  0  0  0  0  0  0
  127.7820  126.7250   57.8490 F   0  0  0  0  0  0  0  0  0  0  0  0
  129.0780  128.2980   58.5950 F   0  0  0  0  0  0  0  0  0  0  0  0
  127.1650  127.9420   59.5130 F   0  0  0  0  0  0  0  0  0  0  0  0
  127.7660  129.2080   56.0670 C   0  0  0  0  0  0  0  0  0  0  0  0
  128.9730  128.5000   55.6330 C   0  0  0  0  0  0  0  0  0  0  0  0
  129.9250  127.9390   55.2920 N   0  0  0  0  0  0  0  0  0  0  0  0
  127.1220  130.1460   55.2250 C   0  0  0  0  0  0  0  0  0  0  0  0
  127.7220  130.6120   53.6120 S   0  0  0  0  0  0  0  0  0  0  0  0
  128.6230  132.1910   53.7560 C   0  0  0  0  0  0  0  0  0  0  0  0
  129.3350  132.3530   55.1020 C   0  0  0  0  0  0  0  0  0  0  0  0
  129.0370  133.3050   55.8250 O   0  0  0  0  0  0  0  0  0  0  0  0
  130.2790  131.4290   55.3800 N   0  0  0  0  0  0  0  0  0  0  0  0
  131.0930  131.3050   56.5210 C   0  0  0  0  0  0  0  0  0  0  0  0
  130.4230  131.1970   57.7420 C   0  0  0  0  0  0  0  0  0  0  0  0
  131.1420  131.0760   58.9280 C   0  0  0  0  0  0  0  0  0  0  0  0
  132.5350  131.0730   58.8940 C   0  0  0  0  0  0  0  0  0  0  0  0
  133.2130  131.1930   57.6840 C   0  0  0  0  0  0  0  0  0  0  0  0
  132.4980  131.3130   56.4960 C   0  0  0  0  0  0  0  0  0  0  0  0
  125.9690  130.7690   55.5720 N   0  0  0  0  0  0  0  0  0  0  0  0
  1  2  1  0
  2  3  2  0
  3  4  1  0
  4  5  1  0
  5  6  1  0
  5  7  1  0
  5  8  1  0
  4  9  2  0
  9 10  1  0
 10 11  3  0
  9 12  1  0
 12 13  1  0
 13 14  1  0
 14 15  1  0
 15 16  2  0
 15 17  1  0
 17 18  1  0
 18 19  2  0
 19 20  1  0
 20 21  2  0
 21 22  1  0
 22 23  2  0
 12 24  2  0
 24  2  1  0
 23 18  1  0
M  END
>  <Binding energies>  (20) 
[-6.88]

>  <Ligand effiencies>  (20) 
[-0.2752]

>  <Interactions>  (20) 
["H-B:TYR:531:OH:9764, V-B:MET:535:CE:9804, V-A:TYR:531:CZ:4791, V-A:PRO:540:CA:4880, V-A:TYR:539:CE2:4873, H-A:TYR:531:OH:4792, V-A:PRO:540:CB:4882, V-B:ILE:369:CG2:8205, V-A:ILE:538:CD1:4862, H-A:TYR:539:N:4867, V-A:TYR:539:CZ:4874, V-A:LEU:363:CD1:3185, V-B:ASP:366:CB:8180, V-B:TYR:531:CE1:9761, H-A:TYR:539:OH:4875, V-A:LEU:363:CA:3181, V-A:TYR:539:CE1:4872, V-A:ILE:538:CA:4857, V-A:LEU:363:CB:3183, V-B:ASP:366:C:8176, H-B:LYS:534:NZ:9792, V-B:TYR:531:CZ:9763, V-A:TYR:531:CE2:4790"]

$$$$
2e_Grossjean_2025
     RDKit          3D

 25 26  0  0  0  0  0  0  0  0999 V2000
  130.3800  131.1570   60.2670 C   0  0  0  0  0  0  0  0  0  0  0  0
  131.1330  131.1930   58.9510 C   0  0  0  0  0  0  0  0  0  0  0  0
  132.5250  131.0870   58.9010 C   0  0  0  0  0  0  0  0  0  0  0  0
  133.1490  131.1160   57.6530 C   0  0  0  0  0  0  0  0  0  0  0  0
  132.3750  131.2500   56.4970 C   0  0  0  0  0  0  0  0  0  0  0  0
  130.9860  131.3620   56.6200 C   0  0  0  0  0  0  0  0  0  0  0  0
  130.2520  131.4510   55.4240 N   0  0  0  0  0  0  0  0  0  0  0  0
  129.3100  132.3600   55.0900 C   0  0  0  0  0  0  0  0  0  0  0  0
  128.9870  133.3290   55.7790 O   0  0  0  0  0  0  0  0  0  0  0  0
  128.5790  132.1070   53.7670 C   0  0  0  0  0  0  0  0  0  0  0  0
  128.0350  130.3770   53.6070 S   0  0  0  0  0  0  0  0  0  0  0  0
  127.3260  129.9540   55.1830 C   0  0  0  0  0  0  0  0  0  0  0  0
  126.2120  130.6560   55.5080 N   0  0  0  0  0  0  0  0  0  0  0  0
  125.6340  130.4290   56.7100 C   0  0  0  0  0  0  0  0  0  0  0  0
  124.3930  131.2480   57.0090 C   0  0  0  0  0  0  0  0  0  0  0  0
  126.1400  129.5090   57.6260 C   0  0  0  0  0  0  0  0  0  0  0  0
  127.2960  128.7810   57.3080 C   0  0  0  0  0  0  0  0  0  0  0  0
  127.8550  127.7830   58.3400 C   0  0  0  0  0  0  0  0  0  0  0  0
  127.1260  127.8230   59.4570 F   0  0  0  0  0  0  0  0  0  0  0  0
  127.8190  126.5460   57.8440 F   0  0  0  0  0  0  0  0  0  0  0  0
  129.1200  128.0450   58.6770 F   0  0  0  0  0  0  0  0  0  0  0  0
  127.9110  129.0030   56.0510 C   0  0  0  0  0  0  0  0  0  0  0  0
  129.1380  128.2960   55.6710 C   0  0  0  0  0  0  0  0  0  0  0  0
  130.1070  127.7380   55.3720 N   0  0  0  0  0  0  0  0  0  0  0  0
  130.3680  131.3260   57.8370 N   0  0  0  0  0  0  0  0  0  0  0  0
  1  2  1  0
  2  3  2  0
  3  4  1  0
  4  5  2  0
  5  6  1  0
  6  7  1  0
  7  8  1  0
  8  9  2  0
  8 10  1  0
 10 11  1  0
 11 12  1  0
 12 13  2  0
 13 14  1  0
 14 15  1  0
 14 16  2  0
 16 17  1  0
 17 18  1  0
 18 19  1  0
 18 20  1  0
 18 21  1  0
 17 22  2  0
 22 23  1  0
 23 24  3  0
  6 25  2  0
 25  2  1  0
 22 12  1  0
M  END
>  <Binding energies>  (21) 
[-6.94]

>  <Ligand effiencies>  (21) 
[-0.26692307692307693]

>  <Interactions>  (21) 
["H-B:TYR:531:OH:9764, V-B:MET:535:CE:9804, V-A:TYR:531:CZ:4791, V-A:PRO:540:CA:4880, V-A:TYR:539:CE2:4873, H-A:TYR:531:OH:4792, V-A:PRO:540:CB:4882, V-A:ILE:538:CD1:4862, H-A:TYR:539:N:4867, V-A:TYR:539:CZ:4874, V-A:LEU:363:CD1:3185, H-A:TYR:539:OH:4875, V-A:LEU:363:CA:3181, V-A:TYR:539:CE1:4872, V-A:ILE:538:CA:4857, V-A:LEU:363:CB:3183, H-B:LYS:534:NZ:9792, V-B:TYR:531:CZ:9763, V-A:TYR:531:CE2:4790"]

$$$$
2f_Grossjean_2025
     RDKit          3D

 24 25  0  0  0  0  0  0  0  0999 V2000
  130.4670  127.1760   55.9940 C   0  0  0  0  0  0  0  0  0  0  0  0
  130.6190  128.1560   57.1420 C   0  0  0  0  0  0  0  0  0  0  0  0
  129.9200  127.9950   58.3360 C   0  0  0  0  0  0  0  0  0  0  0  0
  130.0880  128.9330   59.3670 C   0  0  0  0  0  0  0  0  0  0  0  0
  129.2980  128.7440   60.6750 C   0  0  0  0  0  0  0  0  0  0  0  0
  130.1210  128.3770   61.6590 F   0  0  0  0  0  0  0  0  0  0  0  0
  128.7010  129.8860   61.0150 F   0  0  0  0  0  0  0  0  0  0  0  0
  128.3510  127.8080   60.5770 F   0  0  0  0  0  0  0  0  0  0  0  0
  130.9770  130.0180   59.1570 C   0  0  0  0  0  0  0  0  0  0  0  0
  131.1440  131.0540   60.1790 C   0  0  0  0  0  0  0  0  0  0  0  0
  131.2750  131.8720   60.9880 N   0  0  0  0  0  0  0  0  0  0  0  0
  131.6640  130.0870   57.9210 C   0  0  0  0  0  0  0  0  0  0  0  0
  132.8230  131.3700   57.4910 S   0  0  0  0  0  0  0  0  0  0  0  0
  132.2270  132.1850   55.9710 C   0  0  0  0  0  0  0  0  0  0  0  0
  130.7000  132.2570   55.8260 C   0  0  0  0  0  0  0  0  0  0  0  0
  130.0880  133.2830   56.1250 O   0  0  0  0  0  0  0  0  0  0  0  0
  130.1270  131.1190   55.3770 N   0  0  0  0  0  0  0  0  0  0  0  0
  128.7700  130.8420   55.1210 C   0  0  0  0  0  0  0  0  0  0  0  0
  127.8880  130.1960   56.0070 C   0  0  0  0  0  0  0  0  0  0  0  0
  126.5600  129.9860   55.6290 C   0  0  0  0  0  0  0  0  0  0  0  0
  126.1450  130.4320   54.3750 C   0  0  0  0  0  0  0  0  0  0  0  0
  126.9730  131.0650   53.5060 N   0  0  0  0  0  0  0  0  0  0  0  0
  128.2610  131.2620   53.8870 C   0  0  0  0  0  0  0  0  0  0  0  0
  131.4720  129.1830   56.9290 N   0  0  0  0  0  0  0  0  0  0  0  0
  1  2  1  0
  2  3  2  0
  3  4  1  0
  4  5  1  0
  5  6  1  0
  5  7  1  0
  5  8  1  0
  4  9  2  0
  9 10  1  0
 10 11  3  0
  9 12  1  0
 12 13  1  0
 13 14  1  0
 14 15  1  0
 15 16  2  0
 15 17  1  0
 17 18  1  0
 18 19  2  0
 19 20  1  0
 20 21  2  0
 21 22  1  0
 22 23  2  0
 12 24  2  0
 24  2  1  0
 23 18  1  0
M  END
>  <Binding energies>  (22) 
[-6.76]

>  <Ligand effiencies>  (22) 
[-0.2704]

>  <Interactions>  (22) 
["V-A:GLU:543:CD:4905, V-B:MET:535:CE:9804, V-A:PRO:540:CA:4880, H-A:TYR:531:OH:4792, V-A:PRO:540:N:4881, V-A:PRO:540:CB:4882, H-A:ALA:541:N:4888, V-A:ILE:538:CD1:4862, H-A:TYR:539:N:4867, V-A:TYR:539:CZ:4874, V-A:LEU:363:CD1:3185, V-B:TYR:531:CE1:9761, H-A:TYR:539:OH:4875, H-B:LYS:534:NZ:9792, V-B:TYR:531:CZ:9763, V-A:ILE:538:CG2:4860, V-A:PRO:540:CD:4884"]

$$$$
2g_Grossjean_2025
     RDKit          3D

 25 26  0  0  0  0  0  0  0  0999 V2000
  127.7440  128.2200   59.5220 C   0  0  0  0  0  0  0  0  0  0  0  0
  127.2410  128.8960   58.2610 C   0  0  0  0  0  0  0  0  0  0  0  0
  126.0400  129.6000   58.2400 C   0  0  0  0  0  0  0  0  0  0  0  0
  125.6140  130.2020   57.0460 C   0  0  0  0  0  0  0  0  0  0  0  0
  124.2770  130.9690   57.0400 C   0  0  0  0  0  0  0  0  0  0  0  0
  124.4790  132.2540   57.3380 F   0  0  0  0  0  0  0  0  0  0  0  0
  123.7160  130.8890   55.8320 F   0  0  0  0  0  0  0  0  0  0  0  0
  123.4010  130.4880   57.9240 F   0  0  0  0  0  0  0  0  0  0  0  0
  126.4320  130.0790   55.8940 C   0  0  0  0  0  0  0  0  0  0  0  0
  126.0070  130.6400   54.6090 C   0  0  0  0  0  0  0  0  0  0  0  0
  125.6700  131.0840   53.5950 N   0  0  0  0  0  0  0  0  0  0  0  0
  127.6520  129.3710   56.0180 C   0  0  0  0  0  0  0  0  0  0  0  0
  128.8080  129.1430   54.6830 S   0  0  0  0  0  0  0  0  0  0  0  0
  129.3930  130.7970   54.1770 C   0  0  0  0  0  0  0  0  0  0  0  0
  129.6070  131.7830   55.3330 C   0  0  0  0  0  0  0  0  0  0  0  0
  129.6900  132.9970   55.1340 O   0  0  0  0  0  0  0  0  0  0  0  0
  129.7030  131.2300   56.5550 N   0  0  0  0  0  0  0  0  0  0  0  0
  129.8990  131.9620   57.8070 C   0  0  0  0  0  0  0  0  0  0  0  0
  131.1610  131.5770   58.5700 C   0  0  0  0  0  0  0  0  0  0  0  0
  131.1330  131.4950   59.9660 C   0  0  0  0  0  0  0  0  0  0  0  0
  132.2750  131.1060   60.6620 C   0  0  0  0  0  0  0  0  0  0  0  0
  133.4370  130.7910   59.9620 C   0  0  0  0  0  0  0  0  0  0  0  0
  133.4680  130.8590   58.5700 C   0  0  0  0  0  0  0  0  0  0  0  0
  132.3270  131.2470   57.8730 C   0  0  0  0  0  0  0  0  0  0  0  0
  128.0370  128.7760   57.1740 N   0  0  0  0  0  0  0  0  0  0  0  0
  1  2  1  0
  2  3  2  0
  3  4  1  0
  4  5  1  0
  5  6  1  0
  5  7  1  0
  5  8  1  0
  4  9  2  0
  9 10  1  0
 10 11  3  0
  9 12  1  0
 12 13  1  0
 13 14  1  0
 14 15  1  0
 15 16  2  0
 15 17  1  0
 17 18  1  0
 18 19  1  0
 19 20  2  0
 20 21  1  0
 21 22  2  0
 22 23  1  0
 23 24  2  0
 12 25  2  0
 25  2  1  0
 24 19  1  0
M  END
>  <Binding energies>  (23) 
[-6.72]

>  <Ligand effiencies>  (23) 
[-0.25846153846153846]

>  <Interactions>  (23) 
["V-B:MET:535:CE:9804, V-A:PRO:540:CA:4880, V-A:TYR:539:CD2:4871, V-A:ASP:366:CG:3209, V-A:TYR:539:CE2:4873, H-A:TYR:531:OH:4792, V-A:TYR:539:C:4864, V-A:PRO:540:N:4881, V-A:PRO:540:CB:4882, V-B:ILE:369:CG2:8205, V-A:ILE:538:CD1:4862, H-A:TYR:539:N:4867, V-A:TYR:539:CZ:4874, V-B:ASP:366:CB:8180, V-B:ASP:366:CG:8181, V-B:TYR:531:CE1:9761, H-A:TYR:539:OH:4875, V-A:LEU:363:CA:3181, V-A:ASN:362:C:3168, V-A:LEU:363:CB:3183, V-B:ASP:366:C:8176, V-B:ASP:366:CA:8178, V-A:ASN:362:CB:3172, H-B:LYS:534:NZ:9792, V-B:TYR:531:CZ:9763, V-B:ILE:369:CB:8204, V-B:ASN:370:CB:8213, V-B:ASN:370:CA:8211, V-B:TYR:531:CD1:9759"]

$$$$
2h_Grossjean_2025
     RDKit          3D

 31 32  0  0  0  0  0  0  0  0999 V2000
  128.1680  131.4810   61.8810 C   0  0  0  0  0  0  0  0  0  0  0  0
  129.2030  132.3050   61.3550 O   0  0  0  0  0  0  0  0  0  0  0  0
  129.6180  132.1210   60.0480 C   0  0  0  0  0  0  0  0  0  0  0  0
  128.7600  132.1770   58.9380 C   0  0  0  0  0  0  0  0  0  0  0  0
  129.2530  131.9900   57.6490 C   0  0  0  0  0  0  0  0  0  0  0  0
  130.6110  131.7430   57.4390 C   0  0  0  0  0  0  0  0  0  0  0  0
  131.1320  131.5610   56.0150 C   0  0  0  0  0  0  0  0  0  0  0  0
  130.0810  131.2770   55.0370 N   0  0  0  0  0  0  0  0  0  0  0  0
  129.1530  132.1590   54.6260 C   0  0  0  0  0  0  0  0  0  0  0  0
  129.0410  133.2910   55.0980 O   0  0  0  0  0  0  0  0  0  0  0  0
  128.2260  131.6700   53.5040 C   0  0  0  0  0  0  0  0  0  0  0  0
  127.5210  130.0060   53.7570 S   0  0  0  0  0  0  0  0  0  0  0  0
  127.0990  129.8830   55.4810 C   0  0  0  0  0  0  0  0  0  0  0  0
  125.9220  130.4760   55.7980 N   0  0  0  0  0  0  0  0  0  0  0  0
  125.5140  130.4580   57.0860 C   0  0  0  0  0  0  0  0  0  0  0  0
  124.1920  131.1470   57.3690 C   0  0  0  0  0  0  0  0  0  0  0  0
  126.2500  129.8500   58.1010 C   0  0  0  0  0  0  0  0  0  0  0  0
  127.4610  129.2140   57.7890 C   0  0  0  0  0  0  0  0  0  0  0  0
  128.2580  128.5390   58.9220 C   0  0  0  0  0  0  0  0  0  0  0  0
  129.4910  129.0430   58.9730 F   0  0  0  0  0  0  0  0  0  0  0  0
  127.7020  128.7200   60.1220 F   0  0  0  0  0  0  0  0  0  0  0  0
  128.3350  127.2250   58.7090 F   0  0  0  0  0  0  0  0  0  0  0  0
  127.9000  129.2180   56.4400 C   0  0  0  0  0  0  0  0  0  0  0  0
  129.1270  128.5170   56.0520 C   0  0  0  0  0  0  0  0  0  0  0  0
  130.0940  127.9600   55.7480 N   0  0  0  0  0  0  0  0  0  0  0  0
  131.4760  131.6610   58.5400 C   0  0  0  0  0  0  0  0  0  0  0  0
  132.8140  131.4150   58.3420 O   0  0  0  0  0  0  0  0  0  0  0  0
  133.1170  130.0740   57.9820 C   0  0  0  0  0  0  0  0  0  0  0  0
  130.9800  131.8690   59.8390 C   0  0  0  0  0  0  0  0  0  0  0  0
  131.8290  131.8080   60.9180 O   0  0  0  0  0  0  0  0  0  0  0  0
  132.4170  130.5320   61.1230 C   0  0  0  0  0  0  0  0  0  0  0  0
  1  2  1  0
  2  3  1  0
  3  4  2  0
  4  5  1  0
  5  6  2  0
  6  7  1  0
  7  8  1  0
  8  9  1  0
  9 10  2  0
  9 11  1  0
 11 12  1  0
 12 13  1  0
 13 14  2  0
 14 15  1  0
 15 16  1  0
 15 17  2  0
 17 18  1  0
 18 19  1  0
 19 20  1  0
 19 21  1  0
 19 22  1  0
 18 23  2  0
 23 24  1  0
 24 25  3  0
  6 26  1  0
 26 27  1  0
 27 28  1  0
 26 29  2  0
 29 30  1  0
 30 31  1  0
 29  3  1  0
 23 13  1  0
M  END
>  <Binding energies>  (24) 
[-6.65]

>  <Ligand effiencies>  (24) 
[-0.2078125]

>  <Interactions>  (24) 
["V-A:GLU:543:CD:4905, H-B:TYR:531:OH:9764, V-B:MET:535:CE:9804, V-A:PRO:540:CA:4880, V-A:ASP:366:CG:3209, V-A:ASP:366:CB:3208, V-A:TYR:539:CE2:4873, H-A:TYR:531:OH:4792, V-A:PRO:540:C:4878, V-A:TYR:539:C:4864, V-A:PRO:540:N:4881, V-A:PRO:540:CB:4882, V-B:ILE:369:CG2:8205, H-A:ALA:541:N:4888, V-A:ILE:538:CD1:4862, V-B:LYS:534:CE:9791, H-A:TYR:539:N:4867, V-A:TYR:539:CZ:4874, V-B:ASP:366:CB:8180, H-A:TYR:539:OH:4875, V-A:LEU:363:CA:3181, V-A:ILE:538:CA:4857, V-B:ASP:366:C:8176, V-B:ASP:366:CA:8178, V-A:ASN:362:CB:3172"]

$$$$
2i_Grossjean_2025
     RDKit          3D

 23 24  0  0  0  0  0  0  0  0999 V2000
  124.1530  130.4730   57.0040 C   0  0  0  0  0  0  0  0  0  0  0  0
  125.0690  131.2650   57.9190 C   0  0  0  0  0  0  0  0  0  0  0  0
  124.5640  132.0770   58.9320 C   0  0  0  0  0  0  0  0  0  0  0  0
  125.4530  132.7870   59.7530 C   0  0  0  0  0  0  0  0  0  0  0  0
  124.8780  133.6810   60.8680 C   0  0  0  0  0  0  0  0  0  0  0  0
  123.5740  133.4410   61.0180 F   0  0  0  0  0  0  0  0  0  0  0  0
  125.4990  133.4320   62.0210 F   0  0  0  0  0  0  0  0  0  0  0  0
  125.0190  134.9840   60.6100 F   0  0  0  0  0  0  0  0  0  0  0  0
  126.8450  132.6530   59.5200 C   0  0  0  0  0  0  0  0  0  0  0  0
  127.8180  133.3720   60.3480 C   0  0  0  0  0  0  0  0  0  0  0  0
  128.5870  133.9390   61.0020 N   0  0  0  0  0  0  0  0  0  0  0  0
  127.2700  131.8090   58.4680 C   0  0  0  0  0  0  0  0  0  0  0  0
  128.9960  131.5690   58.0770 S   0  0  0  0  0  0  0  0  0  0  0  0
  129.4350  132.7110   56.7320 C   0  0  0  0  0  0  0  0  0  0  0  0
  128.8390  132.2830   55.3900 C   0  0  0  0  0  0  0  0  0  0  0  0
  129.0340  132.9850   54.3960 O   0  0  0  0  0  0  0  0  0  0  0  0
  128.1030  131.1500   55.4070 N   0  0  0  0  0  0  0  0  0  0  0  0
  127.4510  130.5710   54.3320 C   0  0  0  0  0  0  0  0  0  0  0  0
  127.7480  129.4000   53.6190 C   0  0  0  0  0  0  0  0  0  0  0  0
  126.7630  129.3140   52.6620 C   0  0  0  0  0  0  0  0  0  0  0  0
  125.9200  130.3650   52.7970 O   0  0  0  0  0  0  0  0  0  0  0  0
  126.3660  131.1490   53.8630 N   0  0  0  0  0  0  0  0  0  0  0  0
  126.3930  131.1290   57.6850 N   0  0  0  0  0  0  0  0  0  0  0  0
  1  2  1  0
  2  3  2  0
  3  4  1  0
  4  5  1  0
  5  6  1  0
  5  7  1  0
  5  8  1  0
  4  9  2  0
  9 10  1  0
 10 11  3  0
  9 12  1  0
 12 13  1  0
 13 14  1  0
 14 15  1  0
 15 16  2  0
 15 17  1  0
 17 18  1  0
 18 19  1  0
 19 20  2  0
 20 21  1  0
 21 22  1  0
 12 23  2  0
 23  2  1  0
 22 18  2  0
M  END
>  <Binding energies>  (25) 
[-6.85]

>  <Ligand effiencies>  (25) 
[-0.28541666666666665]

>  <Interactions>  (25) 
["V-B:MET:535:CE:9804, V-A:TYR:539:CD2:4871, V-A:TYR:539:CE2:4873, V-B:LEU:475:CD2:9227, V-B:TRP:381:CH2:8340, V-A:TYR:539:C:4864, V-A:PRO:540:N:4881, V-B:ILE:369:CG2:8205, V-B:TRP:381:CZ2:8338, H-A:ALA:541:N:4888, V-A:ILE:538:CD1:4862, V-B:LYS:534:CE:9791, H-A:TYR:539:N:4867, V-A:TYR:539:CZ:4874, V-B:ILE:369:CD1:8207, V-B:ASP:366:CB:8180, V-B:TYR:531:CE1:9761, H-A:TYR:539:OH:4875, V-B:ASP:366:C:8176, V-B:ASP:366:CA:8178, H-B:LYS:534:NZ:9792, V-B:LYS:534:CD:9790, V-B:TYR:531:CZ:9763, V-A:MET:535:CE:4832, V-B:MET:535:CG:9802, V-A:TYR:539:CA:4866, V-B:ILE:369:CB:8204, V-B:ILE:369:CG1:8206"]

$$$$
2k_Grossjean_2025
     RDKit          3D

 28 28  0  0  0  0  0  0  0  0999 V2000
  126.4340  129.3110   52.6640 C   0  0  0  0  0  0  0  0  0  0  0  0
  126.6960  130.5740   53.2570 O   0  0  0  0  0  0  0  0  0  0  0  0
  126.2380  130.6750   54.5990 C   0  0  0  0  0  0  0  0  0  0  0  0
  127.3490  130.2360   55.5610 C   0  0  0  0  0  0  0  0  0  0  0  0
  127.7400  128.9080   55.2420 O   0  0  0  0  0  0  0  0  0  0  0  0
  129.1040  128.7750   54.8620 C   0  0  0  0  0  0  0  0  0  0  0  0
  129.7430  127.6790   55.7250 C   0  0  0  0  0  0  0  0  0  0  0  0
  130.6970  126.9980   54.9260 O   0  0  0  0  0  0  0  0  0  0  0  0
  130.9070  125.6350   55.2640 C   0  0  0  0  0  0  0  0  0  0  0  0
  130.0320  125.2830   56.4820 C   0  0  0  0  0  0  0  0  0  0  0  0
  129.0490  124.2350   56.1950 N   0  0  0  0  0  0  0  0  0  0  0  0
  129.0410  123.4460   55.1040 C   0  0  0  0  0  0  0  0  0  0  0  0
  129.8980  123.5030   54.2200 O   0  0  0  0  0  0  0  0  0  0  0  0
  127.8670  122.4600   55.0030 C   0  0  0  0  0  0  0  0  0  0  0  0
  126.2840  123.0550   55.6920 S   0  0  0  0  0  0  0  0  0  0  0  0
  126.4060  123.1410   57.4740 C   0  0  0  0  0  0  0  0  0  0  0  0
  127.4520  122.4720   58.0250 N   0  0  0  0  0  0  0  0  0  0  0  0
  127.6040  122.4900   59.3680 C   0  0  0  0  0  0  0  0  0  0  0  0
  128.7880  121.7110   59.9060 C   0  0  0  0  0  0  0  0  0  0  0  0
  126.7370  123.1770   60.2130 C   0  0  0  0  0  0  0  0  0  0  0  0
  125.6540  123.8820   59.6650 C   0  0  0  0  0  0  0  0  0  0  0  0
  124.7070  124.6420   60.6140 C   0  0  0  0  0  0  0  0  0  0  0  0
  123.5280  124.9190   60.0550 F   0  0  0  0  0  0  0  0  0  0  0  0
  124.4720  123.9110   61.7050 F   0  0  0  0  0  0  0  0  0  0  0  0
  125.2590  125.7990   60.9790 F   0  0  0  0  0  0  0  0  0  0  0  0
  125.4780  123.8660   58.2570 C   0  0  0  0  0  0  0  0  0  0  0  0
  124.3620  124.5810   57.6310 C   0  0  0  0  0  0  0  0  0  0  0  0
  123.4810  125.1470   57.1380 N   0  0  0  0  0  0  0  0  0  0  0  0
  1  2  1  0
  2  3  1  0
  3  4  1  0
  4  5  1  0
  5  6  1  0
  6  7  1  0
  7  8  1  0
  8  9  1  0
  9 10  1  0
 10 11  1  0
 11 12  1  0
 12 13  2  0
 12 14  1  0
 14 15  1  0
 15 16  1  0
 16 17  2  0
 17 18  1  0
 18 19  1  0
 18 20  2  0
 20 21  1  0
 21 22  1  0
 22 23  1  0
 22 24  1  0
 22 25  1  0
 21 26  2  0
 26 27  1  0
 27 28  3  0
 26 16  1  0
M  END
>  <Binding energies>  (26) 
[-6.25]

>  <Ligand effiencies>  (26) 
[-0.21551724137931033]

>  <Interactions>  (26) 
["V-B:TYR:539:CE2:9845, V-B:TYR:539:CE1:9844, V-B:PRO:540:CA:9852, V-B:TYR:539:CG:9841, V-B:PRO:540:N:9853, V-B:TYR:539:C:9836, V-B:GLU:543:CD:9877, H-B:TYR:531:OH:9764, V-B:TYR:539:CZ:9846, V-B:TYR:539:CD1:9842, V-B:ALA:541:CB:9861, V-B:PRO:540:CB:9854, V-B:MET:535:CE:9804, V-B:TYR:539:CD2:9843, H-A:TYR:531:OH:4792, V-B:LYS:534:CE:9791, V-A:TYR:539:CZ:4874, V-B:ASN:362:CB:8144, V-B:ASP:366:CB:8180, V-B:LEU:363:CD1:8157, V-B:ASN:362:C:8140, V-B:LEU:363:CA:8153, V-B:ASP:366:CG:8181, V-B:TYR:531:CE1:9761, H-A:TYR:539:OH:4875, V-B:ILE:538:CB:9831, V-B:ILE:538:CA:9829, V-A:TYR:531:CE1:4789, V-B:ILE:538:CG2:9832, H-B:LYS:534:NZ:9792, V-B:LYS:534:CD:9790, V-A:MET:535:CE:4832, V-B:MET:535:CG:9802, V-B:TYR:531:CE2:9762, V-B:ARG:545:CZ:9895"]

$$$$
3aa_Grossjean_2025
     RDKit          3D

 34 36  0  0  0  0  0  0  0  0999 V2000
  132.3560  132.1720   56.5770 C   0  0  0  0  0  0  0  0  0  0  0  0
  131.0960  132.1210   55.7090 C   0  0  0  0  0  0  0  0  0  0  0  0
  130.1160  133.0020   56.2430 O   0  0  0  0  0  0  0  0  0  0  0  0
  128.8790  132.5520   56.5770 C   0  0  0  0  0  0  0  0  0  0  0  0
  127.9680  132.3950   55.7590 O   0  0  0  0  0  0  0  0  0  0  0  0
  128.7240  132.2790   58.0460 C   0  0  0  0  0  0  0  0  0  0  0  0
  127.4630  132.1510   58.6490 C   0  0  0  0  0  0  0  0  0  0  0  0
  127.3550  131.8930   60.0130 C   0  0  0  0  0  0  0  0  0  0  0  0
  128.4990  131.7510   60.7990 C   0  0  0  0  0  0  0  0  0  0  0  0
  128.2790  131.4880   62.1660 N   0  0  0  0  0  0  0  0  0  0  0  0
  127.6370  132.2320   63.0940 C   0  0  0  0  0  0  0  0  0  0  0  0
  127.1290  133.3370   62.8960 O   0  0  0  0  0  0  0  0  0  0  0  0
  127.5690  131.6240   64.4940 C   0  0  0  0  0  0  0  0  0  0  0  0
  126.6090  130.0790   64.5140 S   0  0  0  0  0  0  0  0  0  0  0  0
  127.7440  128.7650   64.9020 C   0  0  0  0  0  0  0  0  0  0  0  0
  127.8330  128.4980   66.2260 N   0  0  0  0  0  0  0  0  0  0  0  0
  128.6660  127.5180   66.6610 C   0  0  0  0  0  0  0  0  0  0  0  0
  128.6980  127.2730   68.1390 C   0  0  0  0  0  0  0  0  0  0  0  0
  127.6980  126.5060   68.7580 C   0  0  0  0  0  0  0  0  0  0  0  0
  127.7210  126.2730   70.1310 C   0  0  0  0  0  0  0  0  0  0  0  0
  128.7470  126.8060   70.9040 C   0  0  0  0  0  0  0  0  0  0  0  0
  129.7510  127.5670   70.3150 C   0  0  0  0  0  0  0  0  0  0  0  0
  129.7260  127.7960   68.9420 C   0  0  0  0  0  0  0  0  0  0  0  0
  129.4300  126.7720   65.7580 C   0  0  0  0  0  0  0  0  0  0  0  0
  129.3670  127.0420   64.3820 C   0  0  0  0  0  0  0  0  0  0  0  0
  130.2320  126.2060   63.4200 C   0  0  0  0  0  0  0  0  0  0  0  0
  131.0380  125.3520   64.0570 F   0  0  0  0  0  0  0  0  0  0  0  0
  129.4560  125.4880   62.6080 F   0  0  0  0  0  0  0  0  0  0  0  0
  131.0000  127.0100   62.6840 F   0  0  0  0  0  0  0  0  0  0  0  0
  128.5090  128.0760   63.9350 C   0  0  0  0  0  0  0  0  0  0  0  0
  128.4470  128.4410   62.5170 C   0  0  0  0  0  0  0  0  0  0  0  0
  128.3980  128.7290   61.3970 N   0  0  0  0  0  0  0  0  0  0  0  0
  129.7630  131.8910   60.2060 C   0  0  0  0  0  0  0  0  0  0  0  0
  129.8690  132.1510   58.8430 C   0  0  0  0  0  0  0  0  0  0  0  0
  1  2  1  0
  2  3  1  0
  3  4  1  0
  4  5  2  0
  4  6  1  0
  6  7  2  0
  7  8  1  0
  8  9  2  0
  9 10  1  0
 10 11  1  0
 11 12  2  0
 11 13  1  0
 13 14  1  0
 14 15  1  0
 15 16  2  0
 16 17  1  0
 17 18  1  0
 18 19  2  0
 19 20  1  0
 20 21  2  0
 21 22  1  0
 22 23  2  0
 17 24  2  0
 24 25  1  0
 25 26  1  0
 26 27  1  0
 26 28  1  0
 26 29  1  0
 25 30  2  0
 30 31  1  0
 31 32  3  0
  9 33  1  0
 33 34  2  0
 34  6  1  0
 30 15  1  0
 23 18  1  0
M  END
>  <Binding energies>  (27) 
[-8.28]

>  <Ligand effiencies>  (27) 
[-0.23657142857142854]

>  <Interactions>  (27) 
["V-A:GLU:543:CD:4905, V-A:GLU:543:CG:4904, V-B:GLU:543:CD:9877, V-B:HIS:456:CE1:9038, V-A:HIS:456:CE1:4066, V-A:PRO:540:CA:4880, V-A:TYR:539:CD2:4871, V-A:TYR:539:CE2:4873, V-A:ALA:541:CB:4889, V-A:TYR:539:C:4864, V-B:GLU:543:CB:9875, V-A:PRO:540:N:4881, V-A:PRO:540:CB:4882, V-B:GLU:543:C:9871, H-B:TYR:484:OH:9316, V-A:ILE:538:CD1:4862, H-A:TYR:539:N:4867, V-A:LEU:363:CD1:3185, V-A:ARG:545:CZ:4923, H-A:TYR:539:OH:4875, V-A:TYR:539:CG:4869, V-A:ILE:538:CG2:4860, H-A:GLU:543:OE2:4907, V-A:PRO:540:CD:4884, V-B:HIS:456:CD2:9036, V-B:GLY:544:C:9881"]

$$$$
3ad_Grossjean_2025
     RDKit          3D

 29 31  0  0  0  0  0  0  0  0999 V2000
  130.4700  132.2120   60.8230 N   0  0  0  0  0  0  0  0  0  0  0  0
  130.5550  131.3250   60.0850 C   0  0  0  0  0  0  0  0  0  0  0  0
  130.6600  130.1990   59.1520 C   0  0  0  0  0  0  0  0  0  0  0  0
  129.8000  129.0800   59.2680 C   0  0  0  0  0  0  0  0  0  0  0  0
  128.6880  128.9910   60.3300 C   0  0  0  0  0  0  0  0  0  0  0  0
  129.1640  128.8140   61.5650 F   0  0  0  0  0  0  0  0  0  0  0  0
  127.9710  130.1170   60.3330 F   0  0  0  0  0  0  0  0  0  0  0  0
  127.8790  127.9640   60.0640 F   0  0  0  0  0  0  0  0  0  0  0  0
  129.9720  128.0080   58.3790 C   0  0  0  0  0  0  0  0  0  0  0  0
  130.9760  128.0490   57.4060 C   0  0  0  0  0  0  0  0  0  0  0  0
  131.2140  126.9250   56.4410 C   0  0  0  0  0  0  0  0  0  0  0  0
  130.1400  126.1790   55.9310 C   0  0  0  0  0  0  0  0  0  0  0  0
  130.3530  125.1360   55.0350 C   0  0  0  0  0  0  0  0  0  0  0  0
  131.6490  124.8230   54.6350 C   0  0  0  0  0  0  0  0  0  0  0  0
  132.7290  125.5490   55.1240 C   0  0  0  0  0  0  0  0  0  0  0  0
  132.5120  126.5930   56.0190 C   0  0  0  0  0  0  0  0  0  0  0  0
  131.8020  129.1210   57.3030 N   0  0  0  0  0  0  0  0  0  0  0  0
  131.6420  130.1770   58.1360 C   0  0  0  0  0  0  0  0  0  0  0  0
  132.8020  131.4940   57.8490 S   0  0  0  0  0  0  0  0  0  0  0  0
  132.3660  132.2610   56.2600 C   0  0  0  0  0  0  0  0  0  0  0  0
  130.8570  132.2500   56.0070 C   0  0  0  0  0  0  0  0  0  0  0  0
  130.2220  133.2980   56.1310 O   0  0  0  0  0  0  0  0  0  0  0  0
  130.3370  131.0540   55.6600 N   0  0  0  0  0  0  0  0  0  0  0  0
  129.0090  130.7040   55.3500 C   0  0  0  0  0  0  0  0  0  0  0  0
  128.6930  130.6770   53.9880 C   0  0  0  0  0  0  0  0  0  0  0  0
  127.4050  130.3480   53.5720 C   0  0  0  0  0  0  0  0  0  0  0  0
  126.4300  130.0490   54.5180 C   0  0  0  0  0  0  0  0  0  0  0  0
  126.7290  130.0790   55.8780 C   0  0  0  0  0  0  0  0  0  0  0  0
  128.0150  130.4090   56.2980 C   0  0  0  0  0  0  0  0  0  0  0  0
  1  2  3  0
  2  3  1  0
  3  4  2  0
  4  5  1  0
  5  6  1  0
  5  7  1  0
  5  8  1  0
  4  9  1  0
  9 10  2  0
 10 11  1  0
 11 12  2  0
 12 13  1  0
 13 14  2  0
 14 15  1  0
 15 16  2  0
 10 17  1  0
 17 18  2  0
 18 19  1  0
 19 20  1  0
 20 21  1  0
 21 22  2  0
 21 23  1  0
 23 24  1  0
 24 25  2  0
 25 26  1  0
 26 27  2  0
 27 28  1  0
 28 29  2  0
 18  3  1  0
 29 24  1  0
 16 11  1  0
M  END
>  <Binding energies>  (28) 
[-7.82]

>  <Ligand effiencies>  (28) 
[-0.26066666666666666]

>  <Interactions>  (28) 
["V-A:GLU:543:CD:4905, V-B:MET:535:CE:9804, V-A:TYR:531:CZ:4791, V-A:PRO:540:CA:4880, V-A:ASP:366:CB:3208, H-A:TYR:531:OH:4792, V-A:TYR:539:C:4864, V-A:PRO:540:N:4881, V-A:PRO:540:CB:4882, H-A:ALA:541:N:4888, V-A:ILE:538:CD1:4862, V-B:LYS:534:CE:9791, H-A:TYR:539:N:4867, V-A:LEU:363:CD1:3185, V-B:TYR:531:CE1:9761, V-A:TYR:531:CE1:4789, V-A:ASP:366:C:3204, V-B:TYR:531:CZ:9763, V-A:ILE:538:CG2:4860, V-A:PRO:540:CD:4884, V-A:ASN:370:CG:3242, V-A:ASN:370:CB:3241"]

$$$$
3ai_Grossjean_2025
     RDKit          3D

 28 30  0  0  0  0  0  0  0  0999 V2000
  130.9020  131.9900   60.9540 N   0  0  0  0  0  0  0  0  0  0  0  0
  130.9490  131.1020   60.2130 C   0  0  0  0  0  0  0  0  0  0  0  0
  131.0080  129.9760   59.2760 C   0  0  0  0  0  0  0  0  0  0  0  0
  130.3830  128.7430   59.5850 C   0  0  0  0  0  0  0  0  0  0  0  0
  129.5780  128.5210   60.8800 C   0  0  0  0  0  0  0  0  0  0  0  0
  130.3440  128.1610   61.9110 F   0  0  0  0  0  0  0  0  0  0  0  0
  128.9460  129.6450   61.2210 F   0  0  0  0  0  0  0  0  0  0  0  0
  128.6750  127.5560   60.6990 F   0  0  0  0  0  0  0  0  0  0  0  0
  130.5090  127.6810   58.6770 C   0  0  0  0  0  0  0  0  0  0  0  0
  131.2390  127.8440   57.4950 C   0  0  0  0  0  0  0  0  0  0  0  0
  131.4150  126.7410   56.4950 C   0  0  0  0  0  0  0  0  0  0  0  0
  132.6860  126.4330   55.9850 C   0  0  0  0  0  0  0  0  0  0  0  0
  132.8580  125.4070   55.0590 C   0  0  0  0  0  0  0  0  0  0  0  0
  131.7570  124.6730   54.6310 C   0  0  0  0  0  0  0  0  0  0  0  0
  130.4870  124.9560   55.1230 C   0  0  0  0  0  0  0  0  0  0  0  0
  130.3200  125.9820   56.0480 C   0  0  0  0  0  0  0  0  0  0  0  0
  131.8430  129.0250   57.2070 N   0  0  0  0  0  0  0  0  0  0  0  0
  131.7160  130.0720   58.0570 C   0  0  0  0  0  0  0  0  0  0  0  0
  132.5560  131.5410   57.5020 S   0  0  0  0  0  0  0  0  0  0  0  0
  131.9980  131.8970   55.8010 C   0  0  0  0  0  0  0  0  0  0  0  0
  130.4790  132.0570   55.6370 C   0  0  0  0  0  0  0  0  0  0  0  0
  129.8850  133.0040   56.1590 O   0  0  0  0  0  0  0  0  0  0  0  0
  129.8880  131.0940   54.8950 N   0  0  0  0  0  0  0  0  0  0  0  0
  128.5400  130.9870   54.5760 C   0  0  0  0  0  0  0  0  0  0  0  0
  127.6140  130.3370   55.3910 C   0  0  0  0  0  0  0  0  0  0  0  0
  126.4130  130.4490   54.7290 C   0  0  0  0  0  0  0  0  0  0  0  0
  126.6050  131.1310   53.5750 O   0  0  0  0  0  0  0  0  0  0  0  0
  127.9580  131.4670   53.4900 N   0  0  0  0  0  0  0  0  0  0  0  0
  1  2  3  0
  2  3  1  0
  3  4  2  0
  4  5  1  0
  5  6  1  0
  5  7  1  0
  5  8  1  0
  4  9  1  0
  9 10  2  0
 10 11  1  0
 11 12  2  0
 12 13  1  0
 13 14  2  0
 14 15  1  0
 15 16  2  0
 10 17  1  0
 17 18  2  0
 18 19  1  0
 19 20  1  0
 20 21  1  0
 21 22  2  0
 21 23  1  0
 23 24  1  0
 24 25  1  0
 25 26  2  0
 26 27  1  0
 27 28  1  0
 18  3  1  0
 28 24  2  0
 16 11  1  0
M  END
>  <Binding energies>  (29) 
[-8.85]

>  <Ligand effiencies>  (29) 
[-0.30517241379310345]

>  <Interactions>  (29) 
["V-A:GLU:543:CD:4905, V-B:TYR:539:CE1:9844, V-B:MET:535:CE:9804, V-A:TYR:531:CZ:4791, V-A:PRO:540:CA:4880, V-A:ASP:366:CG:3209, V-A:ASP:366:CB:3208, H-A:TYR:531:OH:4792, H-A:ALA:541:N:4888, V-A:ILE:538:CD1:4862, H-A:TYR:539:N:4867, V-A:TYR:539:CZ:4874, V-A:LEU:363:CD1:3185, V-B:TYR:531:CE1:9761, H-A:TYR:539:OH:4875, V-A:TYR:531:CE1:4789, V-A:ASP:366:C:3204, H-B:LYS:534:NZ:9792, V-A:ILE:538:CG2:4860, V-A:ASP:366:CA:3206, V-A:ASN:370:CG:3242, V-A:ASN:370:CB:3241, V-A:TYR:531:CE2:4790"]

$$$$
3aj_Grossjean_2025
     RDKit          3D

 28 30  0  0  0  0  0  0  0  0999 V2000
  133.4040  130.8890   56.8080 N   0  0  0  0  0  0  0  0  0  0  0  0
  132.4700  131.2240   57.4020 C   0  0  0  0  0  0  0  0  0  0  0  0
  131.2870  131.6490   58.1580 C   0  0  0  0  0  0  0  0  0  0  0  0
  131.2070  131.4350   59.5560 C   0  0  0  0  0  0  0  0  0  0  0  0
  132.3510  130.7960   60.3670 C   0  0  0  0  0  0  0  0  0  0  0  0
  133.3800  130.4230   59.6030 F   0  0  0  0  0  0  0  0  0  0  0  0
  132.8110  131.6640   61.2680 F   0  0  0  0  0  0  0  0  0  0  0  0
  131.9090  129.7090   61.0000 F   0  0  0  0  0  0  0  0  0  0  0  0
  130.0340  131.8170   60.2250 C   0  0  0  0  0  0  0  0  0  0  0  0
  128.9710  132.3900   59.5190 C   0  0  0  0  0  0  0  0  0  0  0  0
  127.6930  132.8060   60.1830 C   0  0  0  0  0  0  0  0  0  0  0  0
  127.0650  131.9670   61.1150 C   0  0  0  0  0  0  0  0  0  0  0  0
  125.8790  132.3490   61.7390 C   0  0  0  0  0  0  0  0  0  0  0  0
  125.3050  133.5790   61.4350 C   0  0  0  0  0  0  0  0  0  0  0  0
  125.9100  134.4300   60.5150 C   0  0  0  0  0  0  0  0  0  0  0  0
  127.0950  134.0450   59.8960 C   0  0  0  0  0  0  0  0  0  0  0  0
  129.0500  132.5860   58.1780 N   0  0  0  0  0  0  0  0  0  0  0  0
  130.1810  132.2480   57.5140 C   0  0  0  0  0  0  0  0  0  0  0  0
  130.1100  132.5980   55.7700 S   0  0  0  0  0  0  0  0  0  0  0  0
  129.3430  131.1640   54.9420 C   0  0  0  0  0  0  0  0  0  0  0  0
  127.8090  131.1230   55.0030 C   0  0  0  0  0  0  0  0  0  0  0  0
  127.1360  131.1160   53.9700 O   0  0  0  0  0  0  0  0  0  0  0  0
  127.2950  131.0950   56.2530 N   0  0  0  0  0  0  0  0  0  0  0  0
  125.9500  131.0480   56.5950 C   0  0  0  0  0  0  0  0  0  0  0  0
  124.9300  130.7480   55.8210 N   0  0  0  0  0  0  0  0  0  0  0  0
  123.7890  130.7980   56.4800 C   0  0  0  0  0  0  0  0  0  0  0  0
  123.8700  131.1500   57.8250 C   0  0  0  0  0  0  0  0  0  0  0  0
  125.5350  131.4270   58.2370 S   0  0  0  0  0  0  0  0  0  0  0  0
  1  2  3  0
  2  3  1  0
  3  4  2  0
  4  5  1  0
  5  6  1  0
  5  7  1  0
  5  8  1  0
  4  9  1  0
  9 10  2  0
 10 11  1  0
 11 12  2  0
 12 13  1  0
 13 14  2  0
 14 15  1  0
 15 16  2  0
 10 17  1  0
 17 18  2  0
 18 19  1  0
 19 20  1  0
 20 21  1  0
 21 22  2  0
 21 23  1  0
 23 24  1  0
 24 25  2  0
 25 26  1  0
 26 27  2  0
 27 28  1  0
 18  3  1  0
 28 24  1  0
 16 11  1  0
M  END
>  <Binding energies>  (30) 
[-7.49]

>  <Ligand effiencies>  (30) 
[-0.2582758620689655]

>  <Interactions>  (30) 
["V-A:GLU:543:CD:4905, H-B:TYR:531:OH:9764, V-A:PRO:540:CA:4880, V-A:TYR:539:CD2:4871, V-A:ASP:366:CG:3209, V-A:ASP:366:CB:3208, V-A:TYR:539:CE2:4873, V-B:LEU:475:CD2:9227, H-A:TYR:531:OH:4792, V-B:TRP:381:CH2:8340, V-A:TYR:539:C:4864, V-A:PRO:540:N:4881, V-A:PRO:540:CB:4882, V-B:ILE:369:CG2:8205, V-A:ILE:538:CD1:4862, H-A:TYR:539:N:4867, V-A:TYR:539:CZ:4874, V-A:LEU:363:CD1:3185, V-B:ASP:366:CB:8180, V-B:ASP:366:CG:8181, V-B:TYR:531:CE1:9761, H-A:TYR:539:OH:4875, V-A:LEU:363:CA:3181, V-A:ASN:362:C:3168, V-B:ASP:366:C:8176, V-B:ASP:366:CA:8178, V-A:ASN:362:CB:3172, H-B:LYS:534:NZ:9792, V-B:TYR:531:CZ:9763, V-B:ILE:369:CB:8204, V-B:ASN:370:CB:8213"]

$$$$
3ak_Grossjean_2025
     RDKit          3D

 33 34  0  0  0  0  0  0  0  0999 V2000
  130.6750  124.1630   54.6300 C   0  0  0  0  0  0  0  0  0  0  0  0
  132.0380  123.9830   54.9790 O   0  0  0  0  0  0  0  0  0  0  0  0
  132.7280  125.2030   55.2100 C   0  0  0  0  0  0  0  0  0  0  0  0
  132.1410  125.8830   56.4530 C   0  0  0  0  0  0  0  0  0  0  0  0
  131.4030  127.0310   56.0470 O   0  0  0  0  0  0  0  0  0  0  0  0
  130.9620  127.8820   57.1020 C   0  0  0  0  0  0  0  0  0  0  0  0
  129.5150  127.6120   57.5530 C   0  0  0  0  0  0  0  0  0  0  0  0
  128.7070  128.7360   57.2290 O   0  0  0  0  0  0  0  0  0  0  0  0
  127.3650  128.4050   56.8980 C   0  0  0  0  0  0  0  0  0  0  0  0
  126.7560  129.4940   55.9970 C   0  0  0  0  0  0  0  0  0  0  0  0
  127.6450  130.6360   55.7760 N   0  0  0  0  0  0  0  0  0  0  0  0
  127.5890  131.4920   54.7370 C   0  0  0  0  0  0  0  0  0  0  0  0
  126.7430  131.4040   53.8460 O   0  0  0  0  0  0  0  0  0  0  0  0
  128.6240  132.6270   54.6560 C   0  0  0  0  0  0  0  0  0  0  0  0
  130.2730  132.2830   55.3720 S   0  0  0  0  0  0  0  0  0  0  0  0
  130.1030  132.0980   57.1410 C   0  0  0  0  0  0  0  0  0  0  0  0
  128.9160  132.4980   57.6600 N   0  0  0  0  0  0  0  0  0  0  0  0
  128.6940  132.4030   58.9960 C   0  0  0  0  0  0  0  0  0  0  0  0
  127.3540  132.8670   59.4840 C   0  0  0  0  0  0  0  0  0  0  0  0
  126.1890  132.1460   59.1770 C   0  0  0  0  0  0  0  0  0  0  0  0
  124.9430  132.5700   59.6300 C   0  0  0  0  0  0  0  0  0  0  0  0
  124.8450  133.7240   60.4020 C   0  0  0  0  0  0  0  0  0  0  0  0
  125.9830  134.4540   60.7230 C   0  0  0  0  0  0  0  0  0  0  0  0
  127.2280  134.0270   60.2680 C   0  0  0  0  0  0  0  0  0  0  0  0
  129.6700  131.8790   59.8500 C   0  0  0  0  0  0  0  0  0  0  0  0
  130.9060  131.4570   59.3380 C   0  0  0  0  0  0  0  0  0  0  0  0
  131.9580  130.8880   60.3100 C   0  0  0  0  0  0  0  0  0  0  0  0
  133.1580  130.8810   59.7310 F   0  0  0  0  0  0  0  0  0  0  0  0
  132.0140  131.6370   61.4130 F   0  0  0  0  0  0  0  0  0  0  0  0
  131.6890  129.6370   60.6910 F   0  0  0  0  0  0  0  0  0  0  0  0
  131.1350  131.5680   57.9450 C   0  0  0  0  0  0  0  0  0  0  0  0
  132.4080  131.1430   57.3550 C   0  0  0  0  0  0  0  0  0  0  0  0
  133.4130  130.8080   56.8880 N   0  0  0  0  0  0  0  0  0  0  0  0
  1  2  1  0
  2  3  1  0
  3  4  1  0
  4  5  1  0
  5  6  1  0
  6  7  1  0
  7  8  1  0
  8  9  1  0
  9 10  1  0
 10 11  1  0
 11 12  1  0
 12 13  2  0
 12 14  1  0
 14 15  1  0
 15 16  1  0
 16 17  2  0
 17 18  1  0
 18 19  1  0
 19 20  2  0
 20 21  1  0
 21 22  2  0
 22 23  1  0
 23 24  2  0
 18 25  2  0
 25 26  1  0
 26 27  1  0
 27 28  1  0
 27 29  1  0
 27 30  1  0
 26 31  2  0
 31 32  1  0
 32 33  3  0
 31 16  1  0
 24 19  1  0
M  END
>  <Binding energies>  (31) 
[-7.14]

>  <Ligand effiencies>  (31) 
[-0.21]

>  <Interactions>  (31) 
["V-A:GLU:543:CD:4905, V-B:TYR:539:CE1:9844, V-B:TYR:539:CZ:9846, V-B:MET:535:CE:9804, V-A:PRO:540:CA:4880, V-A:TYR:539:CD2:4871, V-A:ASP:366:CG:3209, V-A:ASP:366:CB:3208, V-A:TYR:539:CE2:4873, V-B:LEU:475:CD2:9227, H-A:TYR:531:OH:4792, V-A:PRO:540:C:4878, V-A:TYR:539:C:4864, V-A:PRO:540:N:4881, V-A:PRO:540:CB:4882, V-B:ILE:369:CG2:8205, V-A:ILE:538:CD1:4862, H-A:TYR:539:N:4867, V-A:TYR:539:CZ:4874, V-A:LEU:363:CD1:3185, H-B:TYR:539:OH:9847, H-A:TYR:539:OH:4875, V-A:LEU:363:CA:3181, V-A:TYR:539:CG:4869, V-A:ASN:362:C:3168, V-A:TYR:539:CD1:4870, V-A:TYR:539:CE1:4872, V-A:ILE:538:CA:4857, V-A:TYR:531:CE1:4789, V-A:ASP:366:C:3204, V-A:ASN:362:CB:3172, H-B:LYS:534:NZ:9792, V-B:TYR:531:CZ:9763, V-A:ASN:370:CG:3242, V-A:ASN:370:CB:3241"]

$$$$
3bk_Grossjean_2025
     RDKit          3D

 30 31  0  0  0  0  0  0  0  0999 V2000
  133.1250  125.3340   55.0000 C   0  0  0  0  0  0  0  0  0  0  0  0
  132.0850  124.3710   55.0690 O   0  0  0  0  0  0  0  0  0  0  0  0
  130.8210  124.9270   55.4040 C   0  0  0  0  0  0  0  0  0  0  0  0
  130.5600  126.1710   54.5440 C   0  0  0  0  0  0  0  0  0  0  0  0
  130.4610  127.3120   55.3840 O   0  0  0  0  0  0  0  0  0  0  0  0
  130.9160  127.0890   56.7130 C   0  0  0  0  0  0  0  0  0  0  0  0
  129.9960  127.8280   57.6930 C   0  0  0  0  0  0  0  0  0  0  0  0
  129.1920  128.7560   56.9780 O   0  0  0  0  0  0  0  0  0  0  0  0
  127.9200  128.2450   56.6020 C   0  0  0  0  0  0  0  0  0  0  0  0
  127.1840  129.2860   55.7460 C   0  0  0  0  0  0  0  0  0  0  0  0
  127.9440  130.5290   55.6040 N   0  0  0  0  0  0  0  0  0  0  0  0
  127.8110  131.4160   54.6040 C   0  0  0  0  0  0  0  0  0  0  0  0
  127.0030  131.2910   53.6820 O   0  0  0  0  0  0  0  0  0  0  0  0
  128.7110  132.6520   54.6630 C   0  0  0  0  0  0  0  0  0  0  0  0
  130.3400  132.2740   55.3830 S   0  0  0  0  0  0  0  0  0  0  0  0
  130.1570  132.0360   57.1430 C   0  0  0  0  0  0  0  0  0  0  0  0
  128.9670  132.4180   57.6720 N   0  0  0  0  0  0  0  0  0  0  0  0
  128.7390  132.2770   59.0050 C   0  0  0  0  0  0  0  0  0  0  0  0
  127.3910  132.7040   59.5030 C   0  0  0  0  0  0  0  0  0  0  0  0
  127.2560  133.8300   60.3310 C   0  0  0  0  0  0  0  0  0  0  0  0
  126.0070  134.2280   60.8010 C   0  0  0  0  0  0  0  0  0  0  0  0
  124.8730  133.5040   60.4480 C   0  0  0  0  0  0  0  0  0  0  0  0
  124.9790  132.3870   59.6260 C   0  0  0  0  0  0  0  0  0  0  0  0
  126.2290  131.9930   59.1570 C   0  0  0  0  0  0  0  0  0  0  0  0
  129.7170  131.7340   59.8460 C   0  0  0  0  0  0  0  0  0  0  0  0
  130.9490  131.3360   59.3180 C   0  0  0  0  0  0  0  0  0  0  0  0
  131.9880  130.7490   60.2720 C   0  0  0  0  0  0  0  0  0  0  0  0
  131.1870  131.4860   57.9350 C   0  0  0  0  0  0  0  0  0  0  0  0
  132.4680  131.0750   57.3530 C   0  0  0  0  0  0  0  0  0  0  0  0
  133.4800  130.7510   56.8940 N   0  0  0  0  0  0  0  0  0  0  0  0
  1  2  1  0
  2  3  1  0
  3  4  1  0
  4  5  1  0
  5  6  1  0
  6  7  1  0
  7  8  1  0
  8  9  1  0
  9 10  1  0
 10 11  1  0
 11 12  1  0
 12 13  2  0
 12 14  1  0
 14 15  1  0
 15 16  1  0
 16 17  2  0
 17 18  1  0
 18 19  1  0
 19 20  2  0
 20 21  1  0
 21 22  2  0
 22 23  1  0
 23 24  2  0
 18 25  2  0
 25 26  1  0
 26 27  1  0
 26 28  2  0
 28 29  1  0
 29 30  3  0
 28 16  1  0
 24 19  1  0
M  END
>  <Binding energies>  (32) 
[-7.46]

>  <Ligand effiencies>  (32) 
[-0.24064516129032257]

>  <Interactions>  (32) 
["V-B:TYR:539:CE1:9844, V-B:MET:535:CE:9804, V-A:TYR:531:CZ:4791, V-A:PRO:540:CA:4880, V-A:TYR:539:CD2:4871, V-A:TYR:539:CE2:4873, V-B:LEU:475:CD2:9227, H-A:TYR:531:OH:4792, V-A:TYR:539:C:4864, V-A:PRO:540:N:4881, V-A:PRO:540:CB:4882, V-B:ILE:369:CG2:8205, V-A:ILE:538:CD1:4862, H-A:TYR:539:N:4867, V-A:TYR:539:CZ:4874, V-A:LEU:363:CD1:3185, H-B:TYR:539:OH:9847, H-A:TYR:539:OH:4875, V-A:TYR:539:CG:4869, V-A:TYR:539:CD1:4870, V-A:TYR:539:CE1:4872, V-A:ILE:538:CA:4857, V-A:TYR:531:CE1:4789, V-A:ASP:366:C:3204, H-B:LYS:534:NZ:9792, V-A:MET:535:CE:4832, V-A:ASN:370:CG:3242, V-A:ASN:370:CB:3241, V-A:TYR:531:CD1:4787"]

$$$$
3cb_Grossjean_2025
     RDKit          3D

 30 32  0  0  0  0  0  0  0  0999 V2000
  127.3750  129.9130   53.0990 C   0  0  0  0  0  0  0  0  0  0  0  0
  126.9120  130.8480   54.0620 O   0  0  0  0  0  0  0  0  0  0  0  0
  127.4890  130.9340   55.2880 C   0  0  0  0  0  0  0  0  0  0  0  0
  128.3340  131.7830   55.5840 O   0  0  0  0  0  0  0  0  0  0  0  0
  126.9990  129.8890   56.2490 C   0  0  0  0  0  0  0  0  0  0  0  0
  125.9710  130.1480   57.1680 C   0  0  0  0  0  0  0  0  0  0  0  0
  125.5380  129.1560   58.0430 C   0  0  0  0  0  0  0  0  0  0  0  0
  126.1230  127.8890   58.0250 C   0  0  0  0  0  0  0  0  0  0  0  0
  125.6060  126.9620   58.9510 N   0  0  0  0  0  0  0  0  0  0  0  0
  124.6240  126.0460   58.8060 C   0  0  0  0  0  0  0  0  0  0  0  0
  123.9930  125.8470   57.7670 O   0  0  0  0  0  0  0  0  0  0  0  0
  124.3390  125.2130   60.0660 C   0  0  0  0  0  0  0  0  0  0  0  0
  124.6980  123.4300   59.9070 S   0  0  0  0  0  0  0  0  0  0  0  0
  126.3750  123.2610   59.3340 C   0  0  0  0  0  0  0  0  0  0  0  0
  127.2650  123.0270   60.3290 N   0  0  0  0  0  0  0  0  0  0  0  0
  128.5700  122.8810   60.0110 C   0  0  0  0  0  0  0  0  0  0  0  0
  129.5060  122.6090   61.1740 C   0  0  0  0  0  0  0  0  0  0  0  0
  129.0370  122.9670   58.7030 C   0  0  0  0  0  0  0  0  0  0  0  0
  128.1390  123.2240   57.6590 C   0  0  0  0  0  0  0  0  0  0  0  0
  128.6900  123.3130   56.2730 C   0  0  0  0  0  0  0  0  0  0  0  0
  129.7810  124.1490   56.0010 C   0  0  0  0  0  0  0  0  0  0  0  0
  130.3090  124.2300   54.7150 C   0  0  0  0  0  0  0  0  0  0  0  0
  129.7480  123.4700   53.6920 C   0  0  0  0  0  0  0  0  0  0  0  0
  128.6690  122.6280   53.9460 C   0  0  0  0  0  0  0  0  0  0  0  0
  128.1450  122.5470   55.2330 C   0  0  0  0  0  0  0  0  0  0  0  0
  126.7660  123.3930   57.9790 C   0  0  0  0  0  0  0  0  0  0  0  0
  125.7970  123.7560   56.9400 C   0  0  0  0  0  0  0  0  0  0  0  0
  125.0310  124.0420   56.1210 N   0  0  0  0  0  0  0  0  0  0  0  0
  127.1490  127.6210   57.1060 C   0  0  0  0  0  0  0  0  0  0  0  0
  127.5810  128.6140   56.2300 C   0  0  0  0  0  0  0  0  0  0  0  0
  1  2  1  0
  2  3  1  0
  3  4  2  0
  3  5  1  0
  5  6  2  0
  6  7  1  0
  7  8  2  0
  8  9  1  0
  9 10  1  0
 10 11  2  0
 10 12  1  0
 12 13  1  0
 13 14  1  0
 14 15  2  0
 15 16  1  0
 16 17  1  0
 16 18  2  0
 18 19  1  0
 19 20  1  0
 20 21  2  0
 21 22  1  0
 22 23  2  0
 23 24  1  0
 24 25  2  0
 19 26  2  0
 26 27  1  0
 27 28  3  0
  8 29  1  0
 29 30  2  0
 30  5  1  0
 26 14  1  0
 25 20  1  0
M  END
>  <Binding energies>  (33) 
[-8.62]

>  <Ligand effiencies>  (33) 
[-0.2780645161290322]

>  <Interactions>  (33) 
["V-B:TYR:539:CE2:9845, V-B:TYR:539:CE1:9844, V-B:PRO:540:CA:9852, H-B:TYR:531:OH:9764, V-B:TYR:539:CZ:9846, V-B:TYR:539:CD1:9842, V-B:ALA:541:CB:9861, V-B:PRO:540:CB:9854, V-B:MET:535:CE:9804, V-B:TYR:539:CD2:9843, V-A:TYR:539:CE2:4873, H-B:ALA:541:N:9860, V-B:LYS:534:CE:9791, V-A:TYR:539:CZ:4874, V-B:ASP:366:CB:8180, V-B:ASP:366:CG:8181, H-A:TYR:539:OH:4875, V-B:ILE:538:CB:9831, V-B:ILE:538:CA:9829, V-B:ILE:538:CG2:9832, H-B:LYS:534:NZ:9792, V-B:LYS:534:CD:9790, H-B:ASP:366:OD1:8182, V-B:VAL:537:C:9819"]

$$$$
3ch_Grossjean_2025
     RDKit          3D

 32 34  0  0  0  0  0  0  0  0999 V2000
  127.7190  122.5010   55.3130 C   0  0  0  0  0  0  0  0  0  0  0  0
  127.2330  121.7650   56.4310 O   0  0  0  0  0  0  0  0  0  0  0  0
  127.4210  122.2610   57.7090 C   0  0  0  0  0  0  0  0  0  0  0  0
  128.6270  122.1610   58.4210 C   0  0  0  0  0  0  0  0  0  0  0  0
  128.7470  122.6960   59.7110 C   0  0  0  0  0  0  0  0  0  0  0  0
  129.9130  122.6500   60.4990 N   0  0  0  0  0  0  0  0  0  0  0  0
  130.3280  121.7050   61.3710 C   0  0  0  0  0  0  0  0  0  0  0  0
  129.7300  120.6610   61.6310 O   0  0  0  0  0  0  0  0  0  0  0  0
  131.6760  121.9720   62.0400 C   0  0  0  0  0  0  0  0  0  0  0  0
  132.2630  123.6670   61.7490 S   0  0  0  0  0  0  0  0  0  0  0  0
  132.2730  124.4660   63.3400 C   0  0  0  0  0  0  0  0  0  0  0  0
  133.5020  124.5400   63.9100 N   0  0  0  0  0  0  0  0  0  0  0  0
  133.6160  125.1220   65.1240 C   0  0  0  0  0  0  0  0  0  0  0  0
  135.0160  125.1660   65.7060 C   0  0  0  0  0  0  0  0  0  0  0  0
  132.5240  125.6470   65.8110 C   0  0  0  0  0  0  0  0  0  0  0  0
  131.2470  125.5870   65.2350 C   0  0  0  0  0  0  0  0  0  0  0  0
  130.1040  126.1540   66.0140 C   0  0  0  0  0  0  0  0  0  0  0  0
  129.4340  127.2920   65.5510 C   0  0  0  0  0  0  0  0  0  0  0  0
  128.3730  127.8310   66.2750 C   0  0  0  0  0  0  0  0  0  0  0  0
  127.9800  127.2330   67.4700 C   0  0  0  0  0  0  0  0  0  0  0  0
  128.6410  126.1050   67.9470 C   0  0  0  0  0  0  0  0  0  0  0  0
  129.7020  125.5690   67.2210 C   0  0  0  0  0  0  0  0  0  0  0  0
  131.1140  124.9960   63.9530 C   0  0  0  0  0  0  0  0  0  0  0  0
  129.8210  124.9910   63.2630 C   0  0  0  0  0  0  0  0  0  0  0  0
  128.8000  124.9860   62.7180 N   0  0  0  0  0  0  0  0  0  0  0  0
  127.6410  123.3170   60.2950 C   0  0  0  0  0  0  0  0  0  0  0  0
  126.4240  123.4280   59.6040 C   0  0  0  0  0  0  0  0  0  0  0  0
  125.2940  124.0370   60.1220 O   0  0  0  0  0  0  0  0  0  0  0  0
  124.5590  123.3890   61.1540 C   0  0  0  0  0  0  0  0  0  0  0  0
  126.3270  122.8930   58.3130 C   0  0  0  0  0  0  0  0  0  0  0  0
  125.1450  123.0100   57.6190 O   0  0  0  0  0  0  0  0  0  0  0  0
  124.9370  124.2920   57.0410 C   0  0  0  0  0  0  0  0  0  0  0  0
  1  2  1  0
  2  3  1  0
  3  4  2  0
  4  5  1  0
  5  6  1  0
  6  7  1  0
  7  8  2  0
  7  9  1  0
  9 10  1  0
 10 11  1  0
 11 12  2  0
 12 13  1  0
 13 14  1  0
 13 15  2  0
 15 16  1  0
 16 17  1  0
 17 18  2  0
 18 19  1  0
 19 20  2  0
 20 21  1  0
 21 22  2  0
 16 23  2  0
 23 24  1  0
 24 25  3  0
  5 26  2  0
 26 27  1  0
 27 28  1  0
 28 29  1  0
 27 30  2  0
 30 31  1  0
 31 32  1  0
 30  3  1  0
 23 11  1  0
 22 17  1  0
M  END
>  <Binding energies>  (34) 
[-8.75]

>  <Ligand effiencies>  (34) 
[-0.26515151515151514]

>  <Interactions>  (34) 
["V-A:GLU:543:CD:4905, V-A:LEU:475:CD1:4254, V-B:TYR:539:CE2:9845, V-B:TYR:539:CE1:9844, V-B:PRO:540:CA:9852, V-B:TYR:539:CG:9841, V-B:PRO:540:N:9853, V-B:TYR:539:C:9836, V-B:GLU:543:CD:9877, V-B:HIS:456:CE1:9038, V-A:HIS:456:CE1:4066, V-B:TYR:539:CZ:9846, V-B:TYR:539:CD1:9842, V-B:ALA:541:CB:9861, V-B:PRO:540:CB:9854, V-B:MET:535:CE:9804, V-B:TYR:539:CD2:9843, V-B:GLU:543:CB:9875, V-B:ASN:362:CB:8144, H-A:GLY:454:N:4046, V-A:ARG:545:CD:4920, H-B:TYR:539:OH:9847, V-B:LEU:363:CD1:8157, V-A:ARG:545:CZ:4923, V-A:ARG:545:CG:4919, H-B:TYR:539:N:9839, V-B:ILE:538:CB:9831, V-B:ILE:538:CA:9829, V-B:ILE:538:CG2:9832, V-A:GLY:454:CA:4045, V-A:GLY:453:C:4038, V-A:GLY:453:CA:4040, V-A:GLY:454:C:4043"]

$$$$
3ci_Grossjean_2025
     RDKit          3D

 25 27  0  0  0  0  0  0  0  0999 V2000
  132.7670  131.4280   61.6960 C   0  0  0  0  0  0  0  0  0  0  0  0
  131.6170  131.5120   60.7110 C   0  0  0  0  0  0  0  0  0  0  0  0
  130.3360  131.8810   61.1110 C   0  0  0  0  0  0  0  0  0  0  0  0
  129.3090  131.9600   60.1600 C   0  0  0  0  0  0  0  0  0  0  0  0
  127.9540  132.3750   60.6330 C   0  0  0  0  0  0  0  0  0  0  0  0
  127.0150  131.4210   61.0440 C   0  0  0  0  0  0  0  0  0  0  0  0
  125.7500  131.8130   61.4750 C   0  0  0  0  0  0  0  0  0  0  0  0
  125.4170  133.1640   61.4910 C   0  0  0  0  0  0  0  0  0  0  0  0
  126.3360  134.1250   61.0780 C   0  0  0  0  0  0  0  0  0  0  0  0
  127.6000  133.7300   60.6470 C   0  0  0  0  0  0  0  0  0  0  0  0
  129.6140  131.6450   58.8110 C   0  0  0  0  0  0  0  0  0  0  0  0
  128.5710  131.6670   57.7800 C   0  0  0  0  0  0  0  0  0  0  0  0
  127.7460  131.6870   56.9670 N   0  0  0  0  0  0  0  0  0  0  0  0
  130.9440  131.2830   58.4890 C   0  0  0  0  0  0  0  0  0  0  0  0
  131.4440  130.8870   56.8190 S   0  0  0  0  0  0  0  0  0  0  0  0
  131.1180  132.3140   55.7320 C   0  0  0  0  0  0  0  0  0  0  0  0
  129.7530  132.2510   55.0390 C   0  0  0  0  0  0  0  0  0  0  0  0
  129.1100  133.2910   54.8800 O   0  0  0  0  0  0  0  0  0  0  0  0
  129.3430  131.0200   54.6590 N   0  0  0  0  0  0  0  0  0  0  0  0
  128.1710  130.6930   53.9930 C   0  0  0  0  0  0  0  0  0  0  0  0
  127.9750  129.4680   53.3560 C   0  0  0  0  0  0  0  0  0  0  0  0
  126.7080  129.5400   52.8230 C   0  0  0  0  0  0  0  0  0  0  0  0
  126.1690  130.7450   53.1270 O   0  0  0  0  0  0  0  0  0  0  0  0
  127.1060  131.4670   53.8670 N   0  0  0  0  0  0  0  0  0  0  0  0
  131.9220  131.2130   59.4290 N   0  0  0  0  0  0  0  0  0  0  0  0
  1  2  1  0
  2  3  2  0
  3  4  1  0
  4  5  1  0
  5  6  2  0
  6  7  1  0
  7  8  2  0
  8  9  1  0
  9 10  2  0
  4 11  2  0
 11 12  1  0
 12 13  3  0
 11 14  1  0
 14 15  1  0
 15 16  1  0
 16 17  1  0
 17 18  2  0
 17 19  1  0
 19 20  1  0
 20 21  1  0
 21 22  2  0
 22 23  1  0
 23 24  1  0
 14 25  2  0
 25  2  1  0
 10  5  1  0
 24 20  2  0
M  END
>  <Binding energies>  (35) 
[-8.92]

>  <Ligand effiencies>  (35) 
[-0.34307692307692306]

>  <Interactions>  (35) 
["V-A:GLU:543:CD:4905, V-B:MET:535:CE:9804, V-A:PRO:540:CA:4880, V-B:LEU:475:CD2:9227, V-A:ALA:541:CB:4889, H-A:TYR:531:OH:4792, V-A:PRO:540:C:4878, V-A:PRO:540:N:4881, V-A:PRO:540:CB:4882, V-A:ILE:538:CD1:4862, V-B:LYS:534:CE:9791, H-A:TYR:539:N:4867, V-B:TYR:531:CE1:9761, H-A:TYR:539:OH:4875, V-A:ILE:538:CA:4857, V-A:ASN:362:CB:3172, H-B:LYS:534:NZ:9792, V-B:LYS:534:CD:9790, V-A:MET:535:CE:4832, V-B:MET:535:CG:9802, V-A:ILE:538:CG2:4860, V-A:ASN:362:CG:3173"]

$$$$
3ck_Grossjean_2025
     RDKit          3D

 30 31  0  0  0  0  0  0  0  0999 V2000
  123.7910  125.1100   58.6380 C   0  0  0  0  0  0  0  0  0  0  0  0
  124.1670  125.1340   57.2690 O   0  0  0  0  0  0  0  0  0  0  0  0
  125.3140  124.3450   56.9830 C   0  0  0  0  0  0  0  0  0  0  0  0
  124.8960  122.8810   56.7960 C   0  0  0  0  0  0  0  0  0  0  0  0
  126.0320  122.1130   56.4170 O   0  0  0  0  0  0  0  0  0  0  0  0
  127.0180  122.8520   55.7080 C   0  0  0  0  0  0  0  0  0  0  0  0
  128.2960  122.9200   56.5530 C   0  0  0  0  0  0  0  0  0  0  0  0
  127.9260  123.1110   57.9100 O   0  0  0  0  0  0  0  0  0  0  0  0
  128.3840  122.1040   58.8000 C   0  0  0  0  0  0  0  0  0  0  0  0
  128.1830  122.5700   60.2540 C   0  0  0  0  0  0  0  0  0  0  0  0
  129.4150  122.5720   61.0480 N   0  0  0  0  0  0  0  0  0  0  0  0
  130.1260  121.4850   61.3950 C   0  0  0  0  0  0  0  0  0  0  0  0
  129.8240  120.3410   61.0500 O   0  0  0  0  0  0  0  0  0  0  0  0
  131.3690  121.7550   62.2590 C   0  0  0  0  0  0  0  0  0  0  0  0
  132.2010  123.3510   61.9560 S   0  0  0  0  0  0  0  0  0  0  0  0
  132.2680  124.2760   63.4830 C   0  0  0  0  0  0  0  0  0  0  0  0
  133.4980  124.3950   64.0430 N   0  0  0  0  0  0  0  0  0  0  0  0
  133.6220  125.0780   65.2030 C   0  0  0  0  0  0  0  0  0  0  0  0
  135.0250  125.1660   65.7700 C   0  0  0  0  0  0  0  0  0  0  0  0
  132.5360  125.6660   65.8470 C   0  0  0  0  0  0  0  0  0  0  0  0
  131.2550  125.5510   65.2900 C   0  0  0  0  0  0  0  0  0  0  0  0
  130.1170  126.1770   66.0280 C   0  0  0  0  0  0  0  0  0  0  0  0
  129.4910  127.3190   65.5150 C   0  0  0  0  0  0  0  0  0  0  0  0
  128.4350  127.9140   66.2030 C   0  0  0  0  0  0  0  0  0  0  0  0
  128.0060  127.3710   67.4110 C   0  0  0  0  0  0  0  0  0  0  0  0
  128.6250  126.2400   67.9380 C   0  0  0  0  0  0  0  0  0  0  0  0
  129.6790  125.6480   67.2480 C   0  0  0  0  0  0  0  0  0  0  0  0
  131.1130  124.8470   64.0670 C   0  0  0  0  0  0  0  0  0  0  0  0
  129.8030  124.7300   63.4160 C   0  0  0  0  0  0  0  0  0  0  0  0
  128.7690  124.6390   62.9030 N   0  0  0  0  0  0  0  0  0  0  0  0
  1  2  1  0
  2  3  1  0
  3  4  1  0
  4  5  1  0
  5  6  1  0
  6  7  1  0
  7  8  1  0
  8  9  1  0
  9 10  1  0
 10 11  1  0
 11 12  1  0
 12 13  2  0
 12 14  1  0
 14 15  1  0
 15 16  1  0
 16 17  2  0
 17 18  1  0
 18 19  1  0
 18 20  2  0
 20 21  1  0
 21 22  1  0
 22 23  2  0
 23 24  1  0
 24 25  2  0
 25 26  1  0
 26 27  2  0
 21 28  2  0
 28 29  1  0
 29 30  3  0
 28 16  1  0
 27 22  1  0
M  END
>  <Binding energies>  (36) 
[-7.58]

>  <Ligand effiencies>  (36) 
[-0.24451612903225806]

>  <Interactions>  (36) 
["V-A:GLU:543:CD:4905, V-A:LEU:475:CD1:4254, V-B:TYR:539:CE2:9845, V-B:TYR:539:CE1:9844, V-B:PRO:540:CA:9852, H-A:TYR:484:OH:4344, V-B:TYR:539:CG:9841, V-B:PRO:540:N:9853, V-B:TYR:539:C:9836, V-B:GLU:543:CD:9877, V-B:HIS:456:CE1:9038, H-B:TYR:531:OH:9764, V-A:HIS:456:CE1:4066, V-B:TYR:539:CZ:9846, V-B:TYR:539:CD1:9842, V-B:ALA:541:CB:9861, V-B:PRO:540:CB:9854, V-B:MET:535:CE:9804, V-B:TYR:539:CD2:9843, V-B:GLU:543:CG:9876, V-B:GLU:543:CB:9875, V-B:ASP:366:CB:8180, H-A:GLY:454:N:4046, V-A:ARG:545:CD:4920, V-B:LEU:363:CD1:8157, V-A:ARG:545:CZ:4923, V-A:ARG:545:CG:4919, V-B:LEU:363:CA:8153, V-B:ASP:366:CG:8181, H-B:TYR:539:N:9839, V-B:ILE:538:CB:9831, V-B:ILE:538:CA:9829, V-B:ILE:538:CG2:9832, V-A:GLY:454:CA:4045, V-B:PRO:540:CD:9856, V-A:GLY:453:C:4038, V-A:GLY:453:CA:4040, V-A:GLY:454:C:4043, V-B:PRO:540:CG:9855"]

$$$$
4aa_Grossjean_2025
     RDKit          3D

 26 28  0  0  0  0  0  0  0  0999 V2000
  128.5600  132.6790   54.5540 C   0  0  0  0  0  0  0  0  0  0  0  0
  128.6700  131.3540   53.7940 C   0  0  0  0  0  0  0  0  0  0  0  0
  127.4640  131.1170   53.0800 O   0  0  0  0  0  0  0  0  0  0  0  0
  126.5950  130.1490   53.4720 C   0  0  0  0  0  0  0  0  0  0  0  0
  125.9610  129.4420   52.6820 O   0  0  0  0  0  0  0  0  0  0  0  0
  126.4780  130.0270   54.9640 C   0  0  0  0  0  0  0  0  0  0  0  0
  125.4880  130.7580   55.6340 C   0  0  0  0  0  0  0  0  0  0  0  0
  125.3570  130.6700   57.0180 C   0  0  0  0  0  0  0  0  0  0  0  0
  126.2050  129.8440   57.7570 C   0  0  0  0  0  0  0  0  0  0  0  0
  125.9900  129.8370   59.1490 N   0  0  0  0  0  0  0  0  0  0  0  0
  126.1100  130.8360   60.0560 C   0  0  0  0  0  0  0  0  0  0  0  0
  126.4930  131.9750   59.7860 O   0  0  0  0  0  0  0  0  0  0  0  0
  125.7700  130.4730   61.4340 C   0  0  0  0  0  0  0  0  0  0  0  0
  124.1820  130.8730   62.0940 S   0  0  0  0  0  0  0  0  0  0  0  0
  124.6050  130.1910   63.6480 C   0  0  0  0  0  0  0  0  0  0  0  0
  123.7500  130.1830   64.6720 N   0  0  0  0  0  0  0  0  0  0  0  0
  124.2040  129.6280   65.8220 C   0  0  0  0  0  0  0  0  0  0  0  0
  123.2180  129.6330   66.9750 C   0  0  0  0  0  0  0  0  0  0  0  0
  125.4780  129.0830   65.9700 C   0  0  0  0  0  0  0  0  0  0  0  0
  126.3720  129.0920   64.8930 C   0  0  0  0  0  0  0  0  0  0  0  0
  127.7520  128.4860   65.1030 C   0  0  0  0  0  0  0  0  0  0  0  0
  125.9340  129.6700   63.6710 C   0  0  0  0  0  0  0  0  0  0  0  0
  126.5770  129.8480   62.3970 C   0  0  0  0  0  0  0  0  0  0  0  0
  127.8640  129.4330   62.1630 N   0  0  0  0  0  0  0  0  0  0  0  0
  127.2020  129.1130   57.0960 C   0  0  0  0  0  0  0  0  0  0  0  0
  127.3350  129.2050   55.7120 C   0  0  0  0  0  0  0  0  0  0  0  0
  1  2  1  0
  2  3  1  0
  3  4  1  0
  4  5  2  0
  4  6  1  0
  6  7  2  0
  7  8  1  0
  8  9  2  0
  9 10  1  0
 10 11  1  0
 11 12  2  0
 11 13  1  0
 13 14  1  0
 14 15  1  0
 15 16  2  0
 16 17  1  0
 17 18  1  0
 17 19  2  0
 19 20  1  0
 20 21  1  0
 20 22  2  0
 22 23  1  0
 23 24  1  0
  9 25  1  0
 25 26  2  0
 26  6  1  0
 23 13  2  0
 22 15  1  0
M  END
>  <Binding energies>  (37) 
[-8.25]

>  <Ligand effiencies>  (37) 
[-0.28448275862068967]

>  <Interactions>  (37) 
["V-A:GLU:543:CD:4905, V-B:GLU:543:CD:9877, V-B:HIS:456:CE1:9038, V-B:MET:535:CE:9804, V-A:TYR:539:CE2:4873, H-B:TYR:484:OH:9316, V-A:ILE:538:CD1:4862, V-B:LYS:534:CE:9791, V-A:TYR:539:CZ:4874, V-B:ILE:369:CD1:8207, V-B:ASP:366:CB:8180, V-B:ASP:366:CG:8181, V-B:TYR:531:CE1:9761, V-A:TYR:539:CG:4869, V-A:TYR:539:CD1:4870, V-A:TYR:539:CE1:4872, V-A:ILE:538:CA:4857, H-B:LYS:534:NZ:9792, V-B:LYS:534:CD:9790, V-B:TYR:531:CZ:9763, H-B:ASP:366:OD1:8182, H-A:GLU:543:OE2:4907, V-B:ARG:545:CD:9892, V-B:ARG:545:CG:9891, V-B:ARG:545:CZ:9895, V-B:GLY:453:CA:9012, H-B:GLY:454:N:9018, H-B:ARG:545:NH1:9896, V-B:ILE:455:C:9020, V-B:ARG:545:CB:9890"]

$$$$
4ab_Grossjean_2025
     RDKit          3D

 25 27  0  0  0  0  0  0  0  0999 V2000
  128.2310  132.1210   53.8710 C   0  0  0  0  0  0  0  0  0  0  0  0
  127.6890  131.0510   53.1100 O   0  0  0  0  0  0  0  0  0  0  0  0
  126.5750  130.3940   53.5220 C   0  0  0  0  0  0  0  0  0  0  0  0
  125.7220  129.9480   52.7470 O   0  0  0  0  0  0  0  0  0  0  0  0
  126.4790  130.2690   55.0150 C   0  0  0  0  0  0  0  0  0  0  0  0
  125.3350  130.7460   55.6680 C   0  0  0  0  0  0  0  0  0  0  0  0
  125.2170  130.6460   57.0520 C   0  0  0  0  0  0  0  0  0  0  0  0
  126.2320  130.0610   57.8080 C   0  0  0  0  0  0  0  0  0  0  0  0
  126.0110  130.0200   59.1980 N   0  0  0  0  0  0  0  0  0  0  0  0
  126.2010  130.9740   60.1420 C   0  0  0  0  0  0  0  0  0  0  0  0
  126.6670  132.0910   59.9140 O   0  0  0  0  0  0  0  0  0  0  0  0
  125.8320  130.5860   61.5050 C   0  0  0  0  0  0  0  0  0  0  0  0
  124.2390  130.9950   62.1460 S   0  0  0  0  0  0  0  0  0  0  0  0
  124.6220  130.2710   63.6910 C   0  0  0  0  0  0  0  0  0  0  0  0
  123.7500  130.2550   64.7000 N   0  0  0  0  0  0  0  0  0  0  0  0
  124.1730  129.6650   65.8440 C   0  0  0  0  0  0  0  0  0  0  0  0
  123.1670  129.6620   66.9800 C   0  0  0  0  0  0  0  0  0  0  0  0
  125.4340  129.0940   66.0010 C   0  0  0  0  0  0  0  0  0  0  0  0
  126.3480  129.1140   64.9410 C   0  0  0  0  0  0  0  0  0  0  0  0
  127.7130  128.4790   65.1620 C   0  0  0  0  0  0  0  0  0  0  0  0
  125.9410  129.7270   63.7250 C   0  0  0  0  0  0  0  0  0  0  0  0
  126.6100  129.9260   62.4680 C   0  0  0  0  0  0  0  0  0  0  0  0
  127.8950  129.4970   62.2470 N   0  0  0  0  0  0  0  0  0  0  0  0
  127.3840  129.5850   57.1640 C   0  0  0  0  0  0  0  0  0  0  0  0
  127.5020  129.6880   55.7800 C   0  0  0  0  0  0  0  0  0  0  0  0
  1  2  1  0
  2  3  1  0
  3  4  2  0
  3  5  1  0
  5  6  2  0
  6  7  1  0
  7  8  2  0
  8  9  1  0
  9 10  1  0
 10 11  2  0
 10 12  1  0
 12 13  1  0
 13 14  1  0
 14 15  2  0
 15 16  1  0
 16 17  1  0
 16 18  2  0
 18 19  1  0
 19 20  1  0
 19 21  2  0
 21 22  1  0
 22 23  1  0
  8 24  1  0
 24 25  2  0
 25  5  1  0
 22 12  2  0
 21 14  1  0
M  END
>  <Binding energies>  (38) 
[-8.04]

>  <Ligand effiencies>  (38) 
[-0.2871428571428571]

>  <Interactions>  (38) 
["V-A:GLU:543:CD:4905, V-B:GLU:543:CD:9877, V-B:HIS:456:CE1:9038, V-A:TYR:539:CE2:4873, H-B:TYR:484:OH:9316, V-A:ILE:538:CD1:4862, V-B:LYS:534:CE:9791, V-A:TYR:539:CZ:4874, V-B:ILE:369:CD1:8207, V-B:ASP:366:CG:8181, V-B:TYR:531:CE1:9761, V-A:TYR:539:CE1:4872, H-B:LYS:534:NZ:9792, V-B:LYS:534:CD:9790, V-B:TYR:531:CZ:9763, H-B:ASP:366:OD1:8182, H-A:GLU:543:OE2:4907, V-B:ARG:545:CD:9892, V-B:ARG:545:CG:9891, V-B:ARG:545:CZ:9895, V-B:GLY:453:C:9010, V-B:GLY:453:CA:9012, H-B:GLY:454:N:9018, V-B:ILE:455:C:9020, V-B:ARG:545:CB:9890"]

$$$$
4ac_Grossjean_2025
     RDKit          3D

 23 25  0  0  0  0  0  0  0  0999 V2000
  126.6970  129.6460   52.7310 C   0  0  0  0  0  0  0  0  0  0  0  0
  126.3670  130.7730   53.5360 O   0  0  0  0  0  0  0  0  0  0  0  0
  126.3630  130.6420   54.9110 C   0  0  0  0  0  0  0  0  0  0  0  0
  125.1240  130.7510   55.5420 C   0  0  0  0  0  0  0  0  0  0  0  0
  125.0210  130.6320   56.9260 C   0  0  0  0  0  0  0  0  0  0  0  0
  126.1590  130.3910   57.6970 C   0  0  0  0  0  0  0  0  0  0  0  0
  125.9590  130.2990   59.0870 N   0  0  0  0  0  0  0  0  0  0  0  0
  126.2020  131.2190   60.0510 C   0  0  0  0  0  0  0  0  0  0  0  0
  126.6950  132.3280   59.8360 O   0  0  0  0  0  0  0  0  0  0  0  0
  125.8440  130.8120   61.4120 C   0  0  0  0  0  0  0  0  0  0  0  0
  124.2350  131.1520   62.0510 S   0  0  0  0  0  0  0  0  0  0  0  0
  124.6330  130.4060   63.5820 C   0  0  0  0  0  0  0  0  0  0  0  0
  123.7550  130.3350   64.5820 N   0  0  0  0  0  0  0  0  0  0  0  0
  124.1900  129.7320   65.7150 C   0  0  0  0  0  0  0  0  0  0  0  0
  123.1750  129.6610   66.8410 C   0  0  0  0  0  0  0  0  0  0  0  0
  125.4710  129.2050   65.8700 C   0  0  0  0  0  0  0  0  0  0  0  0
  126.3910  129.2820   64.8180 C   0  0  0  0  0  0  0  0  0  0  0  0
  127.7760  128.6930   65.0350 C   0  0  0  0  0  0  0  0  0  0  0  0
  125.9690  129.9060   63.6130 C   0  0  0  0  0  0  0  0  0  0  0  0
  126.6370  130.1490   62.3620 C   0  0  0  0  0  0  0  0  0  0  0  0
  127.9340  129.7610   62.1380 N   0  0  0  0  0  0  0  0  0  0  0  0
  127.4100  130.2930   57.0710 C   0  0  0  0  0  0  0  0  0  0  0  0
  127.5090  130.4130   55.6870 C   0  0  0  0  0  0  0  0  0  0  0  0
  1  2  1  0
  2  3  1  0
  3  4  2  0
  4  5  1  0
  5  6  2  0
  6  7  1  0
  7  8  1  0
  8  9  2  0
  8 10  1  0
 10 11  1  0
 11 12  1  0
 12 13  2  0
 13 14  1  0
 14 15  1  0
 14 16  2  0
 16 17  1  0
 17 18  1  0
 17 19  2  0
 19 20  1  0
 20 21  1  0
  6 22  1  0
 22 23  2  0
 23  3  1  0
 20 10  2  0
 19 12  1  0
M  END
>  <Binding energies>  (39) 
[-7.62]

>  <Ligand effiencies>  (39) 
[-0.29307692307692307]

>  <Interactions>  (39) 
["V-A:GLU:543:CD:4905, V-B:HIS:456:CE1:9038, V-B:MET:535:CE:9804, V-A:TYR:539:CE2:4873, H-B:TYR:484:OH:9316, V-B:LYS:534:CE:9791, V-A:TYR:539:CZ:4874, V-B:ILE:369:CD1:8207, V-B:ASP:366:CG:8181, V-B:TYR:531:CE1:9761, H-A:TYR:539:OH:4875, H-B:LYS:534:NZ:9792, V-B:LYS:534:CD:9790, V-B:TYR:531:CZ:9763, V-B:MET:535:CG:9802, H-B:ASP:366:OD1:8182, H-A:GLU:543:OE2:4907, V-B:ARG:545:CD:9892, V-B:ARG:545:CG:9891, V-B:ARG:545:CZ:9895, V-B:GLY:453:C:9010, V-B:GLY:453:CA:9012, H-B:GLY:454:N:9018, V-B:ILE:455:C:9020"]

$$$$
4ad_Grossjean_2025
     RDKit          3D

 21 23  0  0  0  0  0  0  0  0999 V2000
  134.6290  125.1130   65.7850 C   0  0  0  0  0  0  0  0  0  0  0  0
  133.3070  124.9380   65.0610 C   0  0  0  0  0  0  0  0  0  0  0  0
  132.1770  125.6570   65.4450 C   0  0  0  0  0  0  0  0  0  0  0  0
  130.9670  125.4770   64.7650 C   0  0  0  0  0  0  0  0  0  0  0  0
  129.7610  126.2830   65.2220 C   0  0  0  0  0  0  0  0  0  0  0  0
  130.9430  124.5490   63.6890 C   0  0  0  0  0  0  0  0  0  0  0  0
  129.8990  124.1270   62.7940 C   0  0  0  0  0  0  0  0  0  0  0  0
  128.6260  124.6330   62.8670 N   0  0  0  0  0  0  0  0  0  0  0  0
  130.3050  123.1640   61.8560 C   0  0  0  0  0  0  0  0  0  0  0  0
  129.5060  122.5100   60.8190 C   0  0  0  0  0  0  0  0  0  0  0  0
  129.5600  121.2880   60.6630 O   0  0  0  0  0  0  0  0  0  0  0  0
  128.7240  123.3350   60.0800 N   0  0  0  0  0  0  0  0  0  0  0  0
  127.8800  123.0340   58.9940 C   0  0  0  0  0  0  0  0  0  0  0  0
  126.5600  123.4800   59.1030 C   0  0  0  0  0  0  0  0  0  0  0  0
  125.6510  123.2400   58.0760 C   0  0  0  0  0  0  0  0  0  0  0  0
  126.0640  122.5620   56.9330 C   0  0  0  0  0  0  0  0  0  0  0  0
  127.3810  122.1250   56.8060 C   0  0  0  0  0  0  0  0  0  0  0  0
  128.2910  122.3620   57.8310 C   0  0  0  0  0  0  0  0  0  0  0  0
  132.0100  122.7580   62.0590 S   0  0  0  0  0  0  0  0  0  0  0  0
  132.1670  123.8750   63.3950 C   0  0  0  0  0  0  0  0  0  0  0  0
  133.3220  124.0450   64.0420 N   0  0  0  0  0  0  0  0  0  0  0  0
  1  2  1  0
  2  3  2  0
  3  4  1  0
  4  5  1  0
  4  6  2  0
  6  7  1  0
  7  8  1  0
  7  9  2  0
  9 10  1  0
 10 11  2  0
 10 12  1  0
 12 13  1  0
 13 14  2  0
 14 15  1  0
 15 16  2  0
 16 17  1  0
 17 18  2  0
  9 19  1  0
 19 20  1  0
 20 21  2  0
 21  2  1  0
 20  6  1  0
 18 13  1  0
M  END
>  <Binding energies>  (40) 
[-6.94]

>  <Ligand effiencies>  (40) 
[-0.2891666666666667]

>  <Interactions>  (40) 
["V-A:LEU:475:CD1:4254, V-B:TYR:539:CE2:9845, V-B:TYR:539:CE1:9844, V-B:PRO:540:CA:9852, H-A:TYR:484:OH:4344, V-B:TYR:539:CG:9841, V-B:PRO:540:N:9853, V-B:TYR:539:C:9836, V-B:GLU:543:CD:9877, V-A:HIS:456:CE1:4066, V-B:TYR:539:CZ:9846, V-B:TYR:539:CD1:9842, V-B:ALA:541:CB:9861, V-B:PRO:540:CB:9854, V-B:TYR:539:CD2:9843, V-B:GLU:543:CG:9876, H-B:GLU:543:OE2:9879, H-A:GLY:454:N:4046, V-A:ARG:545:CD:4920, V-A:ARG:545:CZ:4923, V-A:ARG:545:CG:4919, V-A:GLY:454:CA:4045, V-B:PRO:540:CD:9856, V-A:GLY:453:C:4038, H-B:GLU:543:OE1:9878, V-A:GLY:453:CA:4040, V-B:TYR:539:CA:9838, V-A:GLY:454:C:4043"]

$$$$
4ae_Grossjean_2025
     RDKit          3D

 22 24  0  0  0  0  0  0  0  0999 V2000
  128.1550  132.2580   54.7970 C   0  0  0  0  0  0  0  0  0  0  0  0
  128.8750  132.1430   56.1260 C   0  0  0  0  0  0  0  0  0  0  0  0
  130.2570  132.3290   56.2280 C   0  0  0  0  0  0  0  0  0  0  0  0
  130.8530  132.2000   57.4830 C   0  0  0  0  0  0  0  0  0  0  0  0
  130.0640  131.8900   58.5930 C   0  0  0  0  0  0  0  0  0  0  0  0
  128.6850  131.7250   58.4220 C   0  0  0  0  0  0  0  0  0  0  0  0
  127.9470  131.3940   59.5720 N   0  0  0  0  0  0  0  0  0  0  0  0
  126.7170  131.8280   59.9440 C   0  0  0  0  0  0  0  0  0  0  0  0
  126.0430  132.6240   59.2880 O   0  0  0  0  0  0  0  0  0  0  0  0
  126.2180  131.2870   61.2100 C   0  0  0  0  0  0  0  0  0  0  0  0
  124.5210  131.4770   61.6530 S   0  0  0  0  0  0  0  0  0  0  0  0
  124.7770  130.6590   63.1770 C   0  0  0  0  0  0  0  0  0  0  0  0
  123.7880  130.4700   64.0510 N   0  0  0  0  0  0  0  0  0  0  0  0
  124.1200  129.8280   65.1960 C   0  0  0  0  0  0  0  0  0  0  0  0
  122.9810  129.6290   66.1800 C   0  0  0  0  0  0  0  0  0  0  0  0
  125.4060  129.3720   65.4850 C   0  0  0  0  0  0  0  0  0  0  0  0
  126.4410  129.5710   64.5640 C   0  0  0  0  0  0  0  0  0  0  0  0
  127.8270  129.0590   64.9250 C   0  0  0  0  0  0  0  0  0  0  0  0
  126.1310  130.2440   63.3520 C   0  0  0  0  0  0  0  0  0  0  0  0
  126.9320  130.6120   62.2150 C   0  0  0  0  0  0  0  0  0  0  0  0
  128.2710  130.3230   62.1360 N   0  0  0  0  0  0  0  0  0  0  0  0
  128.0960  131.8430   57.1960 N   0  0  0  0  0  0  0  0  0  0  0  0
  1  2  1  0
  2  3  2  0
  3  4  1  0
  4  5  2  0
  5  6  1  0
  6  7  1  0
  7  8  1  0
  8  9  2  0
  8 10  1  0
 10 11  1  0
 11 12  1  0
 12 13  2  0
 13 14  1  0
 14 15  1  0
 14 16  2  0
 16 17  1  0
 17 18  1  0
 17 19  2  0
 19 20  1  0
 20 21  1  0
  6 22  2  0
 22  2  1  0
 20 10  2  0
 19 12  1  0
M  END
>  <Binding energies>  (41) 
[-7.07]

>  <Ligand effiencies>  (41) 
[-0.2828]

>  <Interactions>  (41) 
["V-A:GLU:543:CD:4905, V-A:GLU:543:CG:4904, V-B:HIS:456:CE1:9038, V-A:PRO:540:CA:4880, V-A:TYR:539:CD2:4871, V-A:TYR:539:CE2:4873, V-A:TYR:539:C:4864, V-A:PRO:540:N:4881, V-A:PRO:540:CB:4882, V-A:ILE:538:CD1:4862, V-A:TYR:539:CZ:4874, V-B:ILE:369:CD1:8207, V-B:ASP:366:CG:8181, V-A:TYR:539:CD1:4870, V-A:TYR:539:CE1:4872, H-A:GLU:543:OE2:4907, V-B:GLY:454:CA:9017, V-B:ARG:545:CD:9892, V-B:ARG:545:CG:9891, V-B:ARG:545:CZ:9895, V-B:GLY:453:C:9010, V-B:GLY:453:CA:9012, H-B:GLY:454:N:9018"]

$$$$
4af_Grossjean_2025
     RDKit          3D

 21 23  0  0  0  0  0  0  0  0999 V2000
  134.4520  125.0780   65.7110 C   0  0  0  0  0  0  0  0  0  0  0  0
  133.1560  124.9670   64.9290 C   0  0  0  0  0  0  0  0  0  0  0  0
  132.0910  125.8290   65.1800 C   0  0  0  0  0  0  0  0  0  0  0  0
  130.9040  125.7070   64.4480 C   0  0  0  0  0  0  0  0  0  0  0  0
  129.7690  126.6690   64.7590 C   0  0  0  0  0  0  0  0  0  0  0  0
  130.8360  124.6870   63.4610 C   0  0  0  0  0  0  0  0  0  0  0  0
  129.7970  124.2860   62.5500 C   0  0  0  0  0  0  0  0  0  0  0  0
  128.5790  124.9180   62.5060 N   0  0  0  0  0  0  0  0  0  0  0  0
  130.1460  123.2060   61.7250 C   0  0  0  0  0  0  0  0  0  0  0  0
  129.3300  122.5290   60.7160 C   0  0  0  0  0  0  0  0  0  0  0  0
  129.3390  121.3010   60.6230 O   0  0  0  0  0  0  0  0  0  0  0  0
  128.5800  123.3440   59.9340 N   0  0  0  0  0  0  0  0  0  0  0  0
  127.7350  123.0210   58.8560 C   0  0  0  0  0  0  0  0  0  0  0  0
  126.4120  123.4710   58.6930 C   0  0  0  0  0  0  0  0  0  0  0  0
  125.6750  123.0600   57.5810 C   0  0  0  0  0  0  0  0  0  0  0  0
  126.2770  122.2040   56.6580 C   0  0  0  0  0  0  0  0  0  0  0  0
  127.5480  121.7490   56.7960 N   0  0  0  0  0  0  0  0  0  0  0  0
  128.2520  122.1570   57.8820 C   0  0  0  0  0  0  0  0  0  0  0  0
  131.7880  122.6520   62.0630 S   0  0  0  0  0  0  0  0  0  0  0  0
  131.9950  123.8700   63.3010 C   0  0  0  0  0  0  0  0  0  0  0  0
  133.1280  123.9840   63.9960 N   0  0  0  0  0  0  0  0  0  0  0  0
  1  2  1  0
  2  3  2  0
  3  4  1  0
  4  5  1  0
  4  6  2  0
  6  7  1  0
  7  8  1  0
  7  9  2  0
  9 10  1  0
 10 11  2  0
 10 12  1  0
 12 13  1  0
 13 14  2  0
 14 15  1  0
 15 16  2  0
 16 17  1  0
 17 18  2  0
  9 19  1  0
 19 20  1  0
 20 21  2  0
 21  2  1  0
 20  6  1  0
 18 13  1  0
M  END
>  <Binding energies>  (42) 
[-7.14]

>  <Ligand effiencies>  (42) 
[-0.2975]

>  <Interactions>  (42) 
["V-A:GLU:543:CD:4905, V-A:LEU:475:CD1:4254, V-B:TYR:539:CE2:9845, V-B:TYR:539:CE1:9844, V-B:PRO:540:CA:9852, H-A:TYR:484:OH:4344, V-B:TYR:539:CG:9841, V-B:PRO:540:N:9853, V-B:TYR:539:C:9836, V-B:GLU:543:CD:9877, V-A:HIS:456:CE1:4066, V-B:TYR:539:CZ:9846, V-B:TYR:539:CD1:9842, V-B:ALA:541:CB:9861, V-B:PRO:540:CB:9854, V-B:TYR:539:CD2:9843, V-B:GLU:543:CG:9876, H-B:GLU:543:OE2:9879, H-A:GLY:454:N:4046, V-A:ARG:545:CD:4920, V-A:ARG:545:CZ:4923, V-A:ARG:545:CG:4919, H-B:TYR:539:N:9839, V-B:ILE:538:CB:9831, V-A:GLY:454:CA:4045, V-B:PRO:540:CD:9856, V-A:GLY:453:C:4038, H-B:GLU:543:OE1:9878, V-A:GLY:453:CA:4040, V-A:GLY:454:C:4043"]

$$$$
4ag_Grossjean_2025
     RDKit          3D

 22 24  0  0  0  0  0  0  0  0999 V2000
  129.0150  126.0380   65.3380 C   0  0  0  0  0  0  0  0  0  0  0  0
  129.3060  126.5440   66.7380 C   0  0  0  0  0  0  0  0  0  0  0  0
  130.4670  127.2650   67.0140 C   0  0  0  0  0  0  0  0  0  0  0  0
  130.7160  127.7230   68.3120 C   0  0  0  0  0  0  0  0  0  0  0  0
  131.9960  128.5050   68.5630 C   0  0  0  0  0  0  0  0  0  0  0  0
  129.7530  127.4280   69.3150 C   0  0  0  0  0  0  0  0  0  0  0  0
  129.6900  127.7370   70.7170 C   0  0  0  0  0  0  0  0  0  0  0  0
  130.6730  128.4490   71.3580 N   0  0  0  0  0  0  0  0  0  0  0  0
  128.5430  127.2440   71.3570 C   0  0  0  0  0  0  0  0  0  0  0  0
  128.1550  127.3820   72.7610 C   0  0  0  0  0  0  0  0  0  0  0  0
  128.9960  127.5560   73.6450 O   0  0  0  0  0  0  0  0  0  0  0  0
  126.8350  127.2890   73.0240 N   0  0  0  0  0  0  0  0  0  0  0  0
  126.2230  127.4220   74.3460 C   0  0  0  0  0  0  0  0  0  0  0  0
  125.7510  128.8350   74.6700 C   0  0  0  0  0  0  0  0  0  0  0  0
  124.4960  129.0320   75.2540 C   0  0  0  0  0  0  0  0  0  0  0  0
  124.0730  130.3200   75.5740 C   0  0  0  0  0  0  0  0  0  0  0  0
  124.9100  131.4050   75.3200 C   0  0  0  0  0  0  0  0  0  0  0  0
  126.1670  131.2140   74.7520 C   0  0  0  0  0  0  0  0  0  0  0  0
  126.5910  129.9260   74.4330 C   0  0  0  0  0  0  0  0  0  0  0  0
  127.4970  126.3870   70.2250 S   0  0  0  0  0  0  0  0  0  0  0  0
  128.6060  126.6840   68.9050 C   0  0  0  0  0  0  0  0  0  0  0  0
  128.3660  126.2470   67.6680 N   0  0  0  0  0  0  0  0  0  0  0  0
  1  2  1  0
  2  3  2  0
  3  4  1  0
  4  5  1  0
  4  6  2  0
  6  7  1  0
  7  8  1  0
  7  9  2  0
  9 10  1  0
 10 11  2  0
 10 12  1  0
 12 13  1  0
 13 14  1  0
 14 15  2  0
 15 16  1  0
 16 17  2  0
 17 18  1  0
 18 19  2  0
  9 20  1  0
 20 21  1  0
 21 22  2  0
 22  2  1  0
 21  6  1  0
 19 14  1  0
M  END
>  <Binding energies>  (43) 
[-7.82]

>  <Ligand effiencies>  (43) 
[-0.3128]

>  <Interactions>  (43) 
["V-A:GLU:543:CD:4905, V-A:GLU:543:CA:4901, V-B:GLU:543:CD:9877, V-B:HIS:456:CE1:9038, V-A:HIS:456:CE1:4066, V-A:GLU:543:CB:4903, V-B:GLU:543:CG:9876, V-B:GLU:543:CB:9875, V-B:GLU:543:C:9871, V-A:ARG:545:CG:4919, V-B:LYS:547:CD:9918, V-B:HIS:456:CG:9034, V-A:GLU:543:C:4899, V-B:HIS:456:CD2:9036, V-B:GLY:544:C:9881, V-B:LYS:547:CE:9919, V-B:ASP:473:CB:9207, V-B:ASP:473:CG:9208, V-B:HIS:456:CB:9033, V-B:LYS:471:CE:9188, V-A:GLY:544:CA:4911, H-A:LYS:547:NZ:4948, V-A:GLY:544:C:4909, V-B:VAL:458:CG2:9055, H-A:HIS:456:NE2:4067, H-A:GLU:543:O:4900, V-B:VAL:457:CA:9043, H-B:HIS:456:NE2:9039, V-B:HIS:456:C:9029, V-B:LYS:471:CB:9185, V-B:VAL:457:C:9041, V-B:HIS:456:CA:9031, V-A:ARG:545:CA:4916, H-B:GLY:544:O:9882, H-A:GLY:544:O:4910, V-A:ARG:545:CB:4918"]

$$$$
4ah_Grossjean_2025
     RDKit          3D

 28 30  0  0  0  0  0  0  0  0999 V2000
  128.2860  132.6480   53.4980 C   0  0  0  0  0  0  0  0  0  0  0  0
  129.0630  132.9920   54.6390 O   0  0  0  0  0  0  0  0  0  0  0  0
  128.8470  132.3270   55.8330 C   0  0  0  0  0  0  0  0  0  0  0  0
  127.6650  131.6360   56.1430 C   0  0  0  0  0  0  0  0  0  0  0  0
  127.5160  130.9880   57.3690 C   0  0  0  0  0  0  0  0  0  0  0  0
  126.2430  130.2030   57.6690 C   0  0  0  0  0  0  0  0  0  0  0  0
  125.9800  130.0380   59.0990 N   0  0  0  0  0  0  0  0  0  0  0  0
  125.9680  131.0330   60.0110 C   0  0  0  0  0  0  0  0  0  0  0  0
  126.2220  132.2030   59.7210 O   0  0  0  0  0  0  0  0  0  0  0  0
  125.6740  130.6360   61.3870 C   0  0  0  0  0  0  0  0  0  0  0  0
  124.1020  131.0010   62.0990 S   0  0  0  0  0  0  0  0  0  0  0  0
  124.5780  130.2910   63.6250 C   0  0  0  0  0  0  0  0  0  0  0  0
  123.7520  130.2450   64.6710 N   0  0  0  0  0  0  0  0  0  0  0  0
  124.2430  129.6660   65.7930 C   0  0  0  0  0  0  0  0  0  0  0  0
  123.2880  129.6270   66.9720 C   0  0  0  0  0  0  0  0  0  0  0  0
  125.5280  129.1370   65.8930 C   0  0  0  0  0  0  0  0  0  0  0  0
  126.3940  129.1880   64.7950 C   0  0  0  0  0  0  0  0  0  0  0  0
  127.7870  128.5970   64.9530 C   0  0  0  0  0  0  0  0  0  0  0  0
  125.9150  129.7900   63.6000 C   0  0  0  0  0  0  0  0  0  0  0  0
  126.5210  130.0110   62.3140 C   0  0  0  0  0  0  0  0  0  0  0  0
  127.8090  129.6290   62.0350 N   0  0  0  0  0  0  0  0  0  0  0  0
  128.5660  131.0040   58.2880 C   0  0  0  0  0  0  0  0  0  0  0  0
  129.7570  131.6920   58.0090 C   0  0  0  0  0  0  0  0  0  0  0  0
  130.8300  131.7620   58.8780 O   0  0  0  0  0  0  0  0  0  0  0  0
  130.6590  131.3580   60.2330 C   0  0  0  0  0  0  0  0  0  0  0  0
  129.8820  132.3550   56.7800 C   0  0  0  0  0  0  0  0  0  0  0  0
  131.0500  133.0170   56.4840 O   0  0  0  0  0  0  0  0  0  0  0  0
  132.1280  132.1600   56.1350 C   0  0  0  0  0  0  0  0  0  0  0  0
  1  2  1  0
  2  3  1  0
  3  4  2  0
  4  5  1  0
  5  6  1  0
  6  7  1  0
  7  8  1  0
  8  9  2  0
  8 10  1  0
 10 11  1  0
 11 12  1  0
 12 13  2  0
 13 14  1  0
 14 15  1  0
 14 16  2  0
 16 17  1  0
 17 18  1  0
 17 19  2  0
 19 20  1  0
 20 21  1  0
  5 22  2  0
 22 23  1  0
 23 24  1  0
 24 25  1  0
 23 26  2  0
 26 27  1  0
 27 28  1  0
 26  3  1  0
 20 10  2  0
 19 12  1  0
M  END
>  <Binding energies>  (44) 
[-7.89]

>  <Ligand effiencies>  (44) 
[-0.25451612903225806]

>  <Interactions>  (44) 
["V-A:GLU:543:CD:4905, V-B:GLU:543:CD:9877, V-B:HIS:456:CE1:9038, V-A:PRO:540:CA:4880, V-A:TYR:539:CD2:4871, V-A:TYR:539:CE2:4873, V-A:TYR:539:C:4864, V-A:PRO:540:N:4881, V-A:PRO:540:CB:4882, H-B:TYR:484:OH:9316, V-A:ILE:538:CD1:4862, H-A:TYR:539:N:4867, V-A:TYR:539:CZ:4874, V-B:ILE:369:CD1:8207, V-A:LEU:363:CD1:3185, V-B:ASP:366:CB:8180, V-B:ASP:366:CG:8181, V-A:TYR:539:CD1:4870, V-A:TYR:539:CE1:4872, V-A:ILE:538:CA:4857, V-A:ILE:538:CG2:4860, H-B:ASP:366:OD1:8182, H-A:GLU:543:OE2:4907, V-A:PRO:540:CD:4884, V-B:ARG:545:CD:9892, V-B:ARG:545:CG:9891, V-B:ARG:545:CZ:9895, H-B:GLY:454:N:9018, V-A:VAL:537:C:4847, V-B:ILE:455:C:9020, V-B:ARG:545:CB:9890"]

$$$$
4ai_Grossjean_2025
     RDKit          3D

 20 22  0  0  0  0  0  0  0  0999 V2000
  133.5760  124.8870   65.2940 C   0  0  0  0  0  0  0  0  0  0  0  0
  132.8290  124.5180   64.0250 C   0  0  0  0  0  0  0  0  0  0  0  0
  133.5050  124.3510   62.8180 C   0  0  0  0  0  0  0  0  0  0  0  0
  132.7970  124.0050   61.6610 C   0  0  0  0  0  0  0  0  0  0  0  0
  133.5800  123.8330   60.3680 C   0  0  0  0  0  0  0  0  0  0  0  0
  131.3900  123.8350   61.7710 C   0  0  0  0  0  0  0  0  0  0  0  0
  130.3790  123.4880   60.8090 C   0  0  0  0  0  0  0  0  0  0  0  0
  130.6730  123.2520   59.4900 N   0  0  0  0  0  0  0  0  0  0  0  0
  129.0840  123.4110   61.3460 C   0  0  0  0  0  0  0  0  0  0  0  0
  127.8300  123.0970   60.6590 C   0  0  0  0  0  0  0  0  0  0  0  0
  127.8240  122.3810   59.6550 O   0  0  0  0  0  0  0  0  0  0  0  0
  126.7130  123.6300   61.2150 N   0  0  0  0  0  0  0  0  0  0  0  0
  125.4020  123.4860   60.7800 C   0  0  0  0  0  0  0  0  0  0  0  0
  124.9400  124.0000   59.5680 C   0  0  0  0  0  0  0  0  0  0  0  0
  123.6110  123.6530   59.5140 C   0  0  0  0  0  0  0  0  0  0  0  0
  123.2870  122.9640   60.6340 O   0  0  0  0  0  0  0  0  0  0  0  0
  124.4310  122.8630   61.4280 N   0  0  0  0  0  0  0  0  0  0  0  0
  129.0850  123.7950   63.0690 S   0  0  0  0  0  0  0  0  0  0  0  0
  130.8180  124.0350   63.0630 C   0  0  0  0  0  0  0  0  0  0  0  0
  131.4890  124.3650   64.1670 N   0  0  0  0  0  0  0  0  0  0  0  0
  1  2  1  0
  2  3  2  0
  3  4  1  0
  4  5  1  0
  4  6  2  0
  6  7  1  0
  7  8  1  0
  7  9  2  0
  9 10  1  0
 10 11  2  0
 10 12  1  0
 12 13  1  0
 13 14  1  0
 14 15  2  0
 15 16  1  0
 16 17  1  0
  9 18  1  0
 18 19  1  0
 19 20  2  0
 20  2  1  0
 19  6  1  0
 17 13  2  0
M  END
>  <Binding energies>  (45) 
[-6.72]

>  <Ligand effiencies>  (45) 
[-0.29217391304347823]

>  <Interactions>  (45) 
["V-B:TYR:539:CE2:9845, V-B:PRO:540:CA:9852, H-A:TYR:484:OH:4344, V-B:GLU:543:CD:9877, V-A:HIS:456:CE1:4066, V-B:TYR:539:CZ:9846, V-B:ALA:541:CB:9861, V-B:PRO:540:CB:9854, V-B:TYR:539:CD2:9843, V-A:ASP:366:CG:3209, V-A:ASP:366:CB:3208, V-B:GLU:543:CG:9876, H-B:ALA:541:N:9860, H-B:GLU:543:OE2:9879, H-B:TYR:539:OH:9847, V-B:LEU:363:CD1:8157, V-B:ASN:362:C:8140, V-A:ARG:545:CZ:4923, V-B:LEU:363:CA:8153, V-A:GLY:454:CA:4045, V-B:LEU:363:CB:8155, V-A:ASP:366:CA:3206, H-B:LEU:363:N:8154"]

$$$$
4aj_Grossjean_2025
     RDKit          3D

 20 22  0  0  0  0  0  0  0  0999 V2000
  133.6240  124.9670   65.3060 C   0  0  0  0  0  0  0  0  0  0  0  0
  132.8870  124.5720   64.0400 C   0  0  0  0  0  0  0  0  0  0  0  0
  133.5710  124.3700   62.8440 C   0  0  0  0  0  0  0  0  0  0  0  0
  132.8700  124.0120   61.6870 C   0  0  0  0  0  0  0  0  0  0  0  0
  133.6630  123.8030   60.4060 C   0  0  0  0  0  0  0  0  0  0  0  0
  131.4610  123.8660   61.7840 C   0  0  0  0  0  0  0  0  0  0  0  0
  130.4530  123.5180   60.8190 C   0  0  0  0  0  0  0  0  0  0  0  0
  130.7560  123.2490   59.5080 N   0  0  0  0  0  0  0  0  0  0  0  0
  129.1520  123.4760   61.3430 C   0  0  0  0  0  0  0  0  0  0  0  0
  127.8990  123.1700   60.6490 C   0  0  0  0  0  0  0  0  0  0  0  0
  127.8960  122.4710   59.6330 O   0  0  0  0  0  0  0  0  0  0  0  0
  126.7810  123.6940   61.2090 N   0  0  0  0  0  0  0  0  0  0  0  0
  125.4760  123.5460   60.7590 C   0  0  0  0  0  0  0  0  0  0  0  0
  124.4800  122.9290   61.3580 N   0  0  0  0  0  0  0  0  0  0  0  0
  123.3730  122.9880   60.6430 C   0  0  0  0  0  0  0  0  0  0  0  0
  123.4580  123.6670   59.4310 C   0  0  0  0  0  0  0  0  0  0  0  0
  125.0810  124.2570   59.2270 S   0  0  0  0  0  0  0  0  0  0  0  0
  129.1420  123.8860   63.0590 S   0  0  0  0  0  0  0  0  0  0  0  0
  130.8790  124.0980   63.0670 C   0  0  0  0  0  0  0  0  0  0  0  0
  131.5440  124.4400   64.1710 N   0  0  0  0  0  0  0  0  0  0  0  0
  1  2  1  0
  2  3  2  0
  3  4  1  0
  4  5  1  0
  4  6  2  0
  6  7  1  0
  7  8  1  0
  7  9  2  0
  9 10  1  0
 10 11  2  0
 10 12  1  0
 12 13  1  0
 13 14  2  0
 14 15  1  0
 15 16  2  0
 16 17  1  0
  9 18  1  0
 18 19  1  0
 19 20  2  0
 20  2  1  0
 19  6  1  0
 17 13  1  0
M  END
>  <Binding energies>  (46) 
[-6.55]

>  <Ligand effiencies>  (46) 
[-0.28478260869565214]

>  <Interactions>  (46) 
["V-B:TYR:539:CE2:9845, V-B:PRO:540:CA:9852, H-A:TYR:484:OH:4344, V-B:GLU:543:CD:9877, V-A:HIS:456:CE1:4066, V-B:TYR:539:CZ:9846, V-B:ALA:541:CB:9861, V-B:PRO:540:CB:9854, V-B:TYR:539:CD2:9843, V-A:ASP:366:CG:3209, V-A:ASP:366:CB:3208, V-B:GLU:543:CG:9876, H-B:ALA:541:N:9860, H-B:GLU:543:OE2:9879, V-B:ASN:362:CB:8144, V-A:ARG:545:CD:4920, H-B:TYR:539:OH:9847, V-B:LEU:363:CD1:8157, V-B:ASN:362:C:8140, V-A:ARG:545:CZ:4923, V-B:LEU:363:CA:8153, V-A:GLY:454:CA:4045, V-B:LEU:363:CB:8155, V-A:ASP:366:CA:3206, V-B:ASN:362:CA:8142"]

$$$$
4ak_Grossjean_2025
     RDKit          3D

 25 26  0  0  0  0  0  0  0  0999 V2000
  126.8600  130.8820   55.0110 C   0  0  0  0  0  0  0  0  0  0  0  0
  127.1720  131.5200   53.7830 O   0  0  0  0  0  0  0  0  0  0  0  0
  128.2600  132.4320   53.8790 C   0  0  0  0  0  0  0  0  0  0  0  0
  128.7710  132.4680   55.3250 C   0  0  0  0  0  0  0  0  0  0  0  0
  130.1210  132.9120   55.3370 O   0  0  0  0  0  0  0  0  0  0  0  0
  130.8380  132.5370   56.5060 C   0  0  0  0  0  0  0  0  0  0  0  0
  132.1810  131.9180   56.0990 C   0  0  0  0  0  0  0  0  0  0  0  0
  132.4060  130.7410   56.8630 O   0  0  0  0  0  0  0  0  0  0  0  0
  133.4740  130.8550   57.7950 C   0  0  0  0  0  0  0  0  0  0  0  0
  132.8970  131.0910   59.2030 C   0  0  0  0  0  0  0  0  0  0  0  0
  131.4390  131.2030   59.2280 N   0  0  0  0  0  0  0  0  0  0  0  0
  130.7040  131.5800   60.2930 C   0  0  0  0  0  0  0  0  0  0  0  0
  131.2140  131.8940   61.3700 O   0  0  0  0  0  0  0  0  0  0  0  0
  129.2550  131.6040   60.0990 C   0  0  0  0  0  0  0  0  0  0  0  0
  128.5680  131.3420   58.4960 S   0  0  0  0  0  0  0  0  0  0  0  0
  126.9410  131.5080   59.1170 C   0  0  0  0  0  0  0  0  0  0  0  0
  125.8710  131.4090   58.3270 N   0  0  0  0  0  0  0  0  0  0  0  0
  124.6680  131.5600   58.9330 C   0  0  0  0  0  0  0  0  0  0  0  0
  123.4630  131.4430   58.0180 C   0  0  0  0  0  0  0  0  0  0  0  0
  124.5120  131.8040   60.2960 C   0  0  0  0  0  0  0  0  0  0  0  0
  125.6370  131.9060   61.1230 C   0  0  0  0  0  0  0  0  0  0  0  0
  125.4160  132.1770   62.6030 C   0  0  0  0  0  0  0  0  0  0  0  0
  126.9160  131.7550   60.5220 C   0  0  0  0  0  0  0  0  0  0  0  0
  128.2490  131.7990   61.0580 C   0  0  0  0  0  0  0  0  0  0  0  0
  128.4980  132.0170   62.3900 N   0  0  0  0  0  0  0  0  0  0  0  0
  1  2  1  0
  2  3  1  0
  3  4  1  0
  4  5  1  0
  5  6  1  0
  6  7  1  0
  7  8  1  0
  8  9  1  0
  9 10  1  0
 10 11  1  0
 11 12  1  0
 12 13  2  0
 12 14  1  0
 14 15  1  0
 15 16  1  0
 16 17  2  0
 17 18  1  0
 18 19  1  0
 18 20  2  0
 20 21  1  0
 21 22  1  0
 21 23  2  0
 23 24  1  0
 24 25  1  0
 24 14  2  0
 23 16  1  0
M  END
>  <Binding energies>  (47) 
[-6.76]

>  <Ligand effiencies>  (47) 
[-0.2414285714285714]

>  <Interactions>  (47) 
["V-A:GLU:543:CD:4905, V-A:GLU:543:CG:4904, V-A:PRO:540:CA:4880, V-A:TYR:539:CD2:4871, V-A:TYR:539:CE2:4873, V-A:ALA:541:CB:4889, H-A:TYR:531:OH:4792, V-A:TYR:539:C:4864, V-A:PRO:540:N:4881, V-A:PRO:540:CB:4882, V-B:ILE:369:CG2:8205, H-A:ALA:541:N:4888, V-A:ILE:538:CD1:4862, H-A:TYR:539:N:4867, V-A:TYR:539:CZ:4874, V-B:ILE:369:CD1:8207, V-A:LEU:363:CD1:3185, V-B:ASP:366:CB:8180, V-B:ASP:366:CG:8181, H-A:TYR:539:OH:4875, V-A:LEU:363:CA:3181, V-A:TYR:539:CG:4869, V-A:TYR:539:CD1:4870, V-A:TYR:539:CE1:4872, V-A:ILE:538:CA:4857, V-A:LEU:363:CB:3183, V-B:ASP:366:C:8176, V-B:ASP:366:CA:8178, H-B:LYS:534:NZ:9792, V-A:ILE:538:CG2:4860, V-B:ILE:369:CB:8204, H-A:GLU:543:OE2:4907, V-A:PRO:540:CD:4884, V-A:TYR:531:CE2:4790"]

$$$$
4al_Grossjean_2025
     RDKit          3D

 16 17  0  0  0  0  0  0  0  0999 V2000
  127.1160  130.3220   55.9940 C   0  0  0  0  0  0  0  0  0  0  0  0
  127.2950  131.6980   56.2900 O   0  0  0  0  0  0  0  0  0  0  0  0
  128.4780  132.3180   56.0400 C   0  0  0  0  0  0  0  0  0  0  0  0
  128.6930  133.0170   55.0470 O   0  0  0  0  0  0  0  0  0  0  0  0
  129.4920  132.0680   57.0870 C   0  0  0  0  0  0  0  0  0  0  0  0
  129.1210  132.4250   58.7760 S   0  0  0  0  0  0  0  0  0  0  0  0
  130.7080  131.8890   59.2800 C   0  0  0  0  0  0  0  0  0  0  0  0
  131.0860  131.9110   60.5580 N   0  0  0  0  0  0  0  0  0  0  0  0
  132.3420  131.4680   60.8160 C   0  0  0  0  0  0  0  0  0  0  0  0
  132.7510  131.5010   62.2770 C   0  0  0  0  0  0  0  0  0  0  0  0
  133.2180  131.0100   59.8340 C   0  0  0  0  0  0  0  0  0  0  0  0
  132.8190  130.9890   58.4940 C   0  0  0  0  0  0  0  0  0  0  0  0
  133.8100  130.4810   57.4590 C   0  0  0  0  0  0  0  0  0  0  0  0
  131.5090  131.4460   58.1860 C   0  0  0  0  0  0  0  0  0  0  0  0
  130.7890  131.5590   56.9480 C   0  0  0  0  0  0  0  0  0  0  0  0
  131.3320  131.1990   55.7410 N   0  0  0  0  0  0  0  0  0  0  0  0
  1  2  1  0
  2  3  1  0
  3  4  2  0
  3  5  1  0
  5  6  1  0
  6  7  1  0
  7  8  2  0
  8  9  1  0
  9 10  1  0
  9 11  2  0
 11 12  1  0
 12 13  1  0
 12 14  2  0
 14 15  1  0
 15 16  1  0
 15  5  2  0
 14  7  1  0
M  END
>  <Binding energies>  (48) 
[-5.73]

>  <Ligand effiencies>  (48) 
[-0.31833333333333336]

>  <Interactions>  (48) 
["V-A:GLU:543:CD:4905, V-A:GLU:543:CG:4904, V-A:TYR:531:CZ:4791, V-A:PRO:540:CA:4880, V-A:TYR:539:CD2:4871, V-A:ASP:366:CB:3208, V-A:TYR:539:CE2:4873, H-A:TYR:531:OH:4792, V-A:TYR:539:C:4864, V-A:PRO:540:N:4881, V-A:PRO:540:CB:4882, H-A:ALA:541:N:4888, V-A:ILE:538:CD1:4862, H-A:TYR:539:N:4867, V-A:TYR:539:CZ:4874, V-A:LEU:363:CD1:3185, H-A:TYR:539:OH:4875, V-A:LEU:363:CA:3181, V-A:TYR:539:CG:4869, V-A:ASN:362:C:3168, V-A:LEU:363:CB:3183, V-A:ASN:362:CB:3172, V-A:TYR:531:CE2:4790, V-A:LEU:363:C:3179, V-A:ASN:362:CG:3173, V-A:ALA:541:C:4885"]

$$$$
4bc_Grossjean_2025
     RDKit          3D

 26 28  0  0  0  0  0  0  0  0999 V2000
  128.2510  130.6560   53.1330 C   0  0  0  0  0  0  0  0  0  0  0  0
  126.9840  131.1370   53.5690 O   0  0  0  0  0  0  0  0  0  0  0  0
  126.6190  130.9690   54.8910 C   0  0  0  0  0  0  0  0  0  0  0  0
  127.6450  131.0260   55.8330 C   0  0  0  0  0  0  0  0  0  0  0  0
  127.3730  130.8670   57.1890 C   0  0  0  0  0  0  0  0  0  0  0  0
  126.0630  130.6580   57.6230 C   0  0  0  0  0  0  0  0  0  0  0  0
  125.8870  130.4930   59.0090 N   0  0  0  0  0  0  0  0  0  0  0  0
  126.4440  131.1860   60.0330 C   0  0  0  0  0  0  0  0  0  0  0  0
  127.2640  132.0930   59.8820 O   0  0  0  0  0  0  0  0  0  0  0  0
  126.0140  130.7820   61.3750 C   0  0  0  0  0  0  0  0  0  0  0  0
  124.3800  131.1390   61.9270 S   0  0  0  0  0  0  0  0  0  0  0  0
  124.6890  130.3870   63.4740 C   0  0  0  0  0  0  0  0  0  0  0  0
  123.7510  130.3290   64.4190 N   0  0  0  0  0  0  0  0  0  0  0  0
  124.1090  129.7250   65.5750 C   0  0  0  0  0  0  0  0  0  0  0  0
  123.0250  129.6640   66.6360 C   0  0  0  0  0  0  0  0  0  0  0  0
  125.3710  129.1820   65.8070 C   0  0  0  0  0  0  0  0  0  0  0  0
  126.3630  129.2410   64.8160 C   0  0  0  0  0  0  0  0  0  0  0  0
  127.7370  128.6320   65.1190 C   0  0  0  0  0  0  0  0  0  0  0  0
  127.7150  127.7810   66.1460 F   0  0  0  0  0  0  0  0  0  0  0  0
  128.1770  127.9630   64.0540 F   0  0  0  0  0  0  0  0  0  0  0  0
  128.6030  129.6000   65.4210 F   0  0  0  0  0  0  0  0  0  0  0  0
  126.0170  129.8710   63.5830 C   0  0  0  0  0  0  0  0  0  0  0  0
  126.7500  130.1100   62.3630 C   0  0  0  0  0  0  0  0  0  0  0  0
  128.0510  129.7120   62.1920 N   0  0  0  0  0  0  0  0  0  0  0  0
  125.0260  130.5860   56.6800 C   0  0  0  0  0  0  0  0  0  0  0  0
  125.3020  130.7440   55.3260 C   0  0  0  0  0  0  0  0  0  0  0  0
  1  2  1  0
  2  3  1  0
  3  4  2  0
  4  5  1  0
  5  6  2  0
  6  7  1  0
  7  8  1  0
  8  9  2  0
  8 10  1  0
 10 11  1  0
 11 12  1  0
 12 13  2  0
 13 14  1  0
 14 15  1  0
 14 16  2  0
 16 17  1  0
 17 18  1  0
 18 19  1  0
 18 20  1  0
 18 21  1  0
 17 22  2  0
 22 23  1  0
 23 24  1  0
  6 25  1  0
 25 26  2  0
 26  3  1  0
 23 10  2  0
 22 12  1  0
M  END
>  <Binding energies>  (49) 
[-7.07]

>  <Ligand effiencies>  (49) 
[-0.24379310344827587]

>  <Interactions>  (49) 
["V-A:GLU:543:CD:4905, V-A:GLU:543:CG:4904, V-B:GLU:543:CD:9877, V-B:HIS:456:CE1:9038, V-A:GLU:543:CB:4903, V-A:TYR:539:CE2:4873, H-B:TYR:484:OH:9316, V-A:ILE:538:CD1:4862, V-B:LYS:534:CE:9791, V-A:TYR:539:CZ:4874, V-B:ILE:369:CD1:8207, V-B:ASP:366:CG:8181, V-B:TYR:531:CE1:9761, H-A:TYR:539:OH:4875, H-B:LYS:534:NZ:9792, V-B:TYR:531:CZ:9763, H-B:ASP:366:OD1:8182, H-A:GLU:543:OE2:4907, V-B:ARG:545:CD:9892, V-B:ARG:545:CG:9891, V-B:ARG:545:CZ:9895, V-B:GLY:453:C:9010, V-B:GLY:453:CA:9012, H-B:GLY:454:N:9018, V-B:ILE:455:C:9020"]

$$$$
4bf_Grossjean_2025
     RDKit          3D

 24 26  0  0  0  0  0  0  0  0999 V2000
  124.7780  122.8870   55.1400 C   0  0  0  0  0  0  0  0  0  0  0  0
  125.3850  123.0980   56.5160 C   0  0  0  0  0  0  0  0  0  0  0  0
  124.5890  123.4420   57.6050 C   0  0  0  0  0  0  0  0  0  0  0  0
  125.1640  123.6380   58.8710 C   0  0  0  0  0  0  0  0  0  0  0  0
  124.2490  124.0180   60.0400 C   0  0  0  0  0  0  0  0  0  0  0  0
  124.1840  123.0730   60.9820 F   0  0  0  0  0  0  0  0  0  0  0  0
  124.6970  125.1310   60.6210 F   0  0  0  0  0  0  0  0  0  0  0  0
  123.0080  124.2220   59.5940 F   0  0  0  0  0  0  0  0  0  0  0  0
  126.5760  123.4690   58.9800 C   0  0  0  0  0  0  0  0  0  0  0  0
  127.4960  123.5840   60.0840 C   0  0  0  0  0  0  0  0  0  0  0  0
  127.0900  123.9110   61.3540 N   0  0  0  0  0  0  0  0  0  0  0  0
  128.8350  123.3290   59.7460 C   0  0  0  0  0  0  0  0  0  0  0  0
  130.0220  123.3880   60.6060 C   0  0  0  0  0  0  0  0  0  0  0  0
  129.9140  123.3130   61.8300 O   0  0  0  0  0  0  0  0  0  0  0  0
  131.2050  123.5120   59.9550 N   0  0  0  0  0  0  0  0  0  0  0  0
  132.5050  123.6430   60.4770 C   0  0  0  0  0  0  0  0  0  0  0  0
  133.6960  123.4840   59.7470 C   0  0  0  0  0  0  0  0  0  0  0  0
  134.9270  123.6270   60.3920 C   0  0  0  0  0  0  0  0  0  0  0  0
  134.9360  123.9210   61.7550 C   0  0  0  0  0  0  0  0  0  0  0  0
  133.8020  124.0730   62.4830 N   0  0  0  0  0  0  0  0  0  0  0  0
  132.6130  123.9310   61.8420 C   0  0  0  0  0  0  0  0  0  0  0  0
  128.9970  122.9400   58.0360 S   0  0  0  0  0  0  0  0  0  0  0  0
  127.2760  123.1150   57.7850 C   0  0  0  0  0  0  0  0  0  0  0  0
  126.7260  122.9290   56.5860 N   0  0  0  0  0  0  0  0  0  0  0  0
  1  2  1  0
  2  3  2  0
  3  4  1  0
  4  5  1  0
  5  6  1  0
  5  7  1  0
  5  8  1  0
  4  9  2  0
  9 10  1  0
 10 11  1  0
 10 12  2  0
 12 13  1  0
 13 14  2  0
 13 15  1  0
 15 16  1  0
 16 17  2  0
 17 18  1  0
 18 19  2  0
 19 20  1  0
 20 21  2  0
 12 22  1  0
 22 23  1  0
 23 24  2  0
 24  2  1  0
 23  9  1  0
 21 16  1  0
M  END
>  <Binding energies>  (50) 
[-6.79]

>  <Ligand effiencies>  (50) 
[-0.2514814814814815]

>  <Interactions>  (50) 
["V-B:TYR:539:CE2:9845, V-B:TYR:539:CE1:9844, V-B:PRO:540:CA:9852, V-B:GLU:543:CD:9877, V-B:TYR:539:CZ:9846, V-B:TYR:539:CD1:9842, V-B:ALA:541:CB:9861, V-B:PRO:540:CB:9854, V-B:TYR:539:CD2:9843, V-A:ASP:366:CG:3209, V-A:ASP:366:CB:3208, V-B:GLU:543:CG:9876, H-B:GLU:543:OE2:9879, V-B:ASN:362:CB:8144, H-A:GLY:454:N:4046, H-B:TYR:539:OH:9847, V-B:LEU:363:CD1:8157, V-B:ASN:362:C:8140, V-B:LEU:363:CA:8153, V-B:ASP:366:CG:8181, V-B:ILE:538:CB:9831, V-B:ILE:538:CG2:9832, V-A:GLY:454:CA:4045, V-B:LEU:363:CB:8155, V-B:PRO:540:C:9850, V-A:ILE:369:CG2:3233, V-A:ILE:369:CG1:3234, V-A:ASP:366:CA:3206, V-A:ILE:369:CB:3232, V-A:GLY:453:C:4038, V-A:GLY:453:CA:4040, V-B:ILE:538:CD1:9834"]

$$$$
4bh_Grossjean_2025
     RDKit          3D

 31 33  0  0  0  0  0  0  0  0999 V2000
  123.7760  131.1580   56.9290 C   0  0  0  0  0  0  0  0  0  0  0  0
  124.7420  130.6350   56.0250 O   0  0  0  0  0  0  0  0  0  0  0  0
  126.0510  131.0730   56.0990 C   0  0  0  0  0  0  0  0  0  0  0  0
  126.6860  131.4470   57.2940 C   0  0  0  0  0  0  0  0  0  0  0  0
  128.0110  131.8840   57.2960 C   0  0  0  0  0  0  0  0  0  0  0  0
  128.6970  132.2410   58.6090 C   0  0  0  0  0  0  0  0  0  0  0  0
  127.9830  131.7600   59.7910 N   0  0  0  0  0  0  0  0  0  0  0  0
  126.7630  132.1760   60.1910 C   0  0  0  0  0  0  0  0  0  0  0  0
  126.1360  133.0560   59.5990 O   0  0  0  0  0  0  0  0  0  0  0  0
  126.2370  131.5510   61.4050 C   0  0  0  0  0  0  0  0  0  0  0  0
  124.5500  131.7800   61.8550 S   0  0  0  0  0  0  0  0  0  0  0  0
  124.7630  130.8300   63.3070 C   0  0  0  0  0  0  0  0  0  0  0  0
  123.7540  130.6120   64.1490 N   0  0  0  0  0  0  0  0  0  0  0  0
  124.0410  129.8600   65.2370 C   0  0  0  0  0  0  0  0  0  0  0  0
  122.8780  129.6250   66.1840 C   0  0  0  0  0  0  0  0  0  0  0  0
  125.2990  129.3250   65.5000 C   0  0  0  0  0  0  0  0  0  0  0  0
  126.3670  129.5530   64.6170 C   0  0  0  0  0  0  0  0  0  0  0  0
  127.7330  128.9420   64.9460 C   0  0  0  0  0  0  0  0  0  0  0  0
  127.6690  127.9910   65.8810 F   0  0  0  0  0  0  0  0  0  0  0  0
  128.2560  128.3900   63.8520 F   0  0  0  0  0  0  0  0  0  0  0  0
  128.5540  129.8910   65.3970 F   0  0  0  0  0  0  0  0  0  0  0  0
  126.0990  130.3450   63.4610 C   0  0  0  0  0  0  0  0  0  0  0  0
  126.9220  130.7860   62.3620 C   0  0  0  0  0  0  0  0  0  0  0  0
  128.2540  130.4770   62.2600 N   0  0  0  0  0  0  0  0  0  0  0  0
  128.7230  131.9220   56.0960 C   0  0  0  0  0  0  0  0  0  0  0  0
  128.1130  131.5610   54.8840 C   0  0  0  0  0  0  0  0  0  0  0  0
  128.7530  131.5890   53.6580 O   0  0  0  0  0  0  0  0  0  0  0  0
  129.3170  130.3890   53.1390 C   0  0  0  0  0  0  0  0  0  0  0  0
  126.7740  131.1450   54.9000 C   0  0  0  0  0  0  0  0  0  0  0  0
  126.1680  130.7710   53.7230 O   0  0  0  0  0  0  0  0  0  0  0  0
  126.3640  129.4060   53.3800 C   0  0  0  0  0  0  0  0  0  0  0  0
  1  2  1  0
  2  3  1  0
  3  4  2  0
  4  5  1  0
  5  6  1  0
  6  7  1  0
  7  8  1  0
  8  9  2  0
  8 10  1  0
 10 11  1  0
 11 12  1  0
 12 13  2  0
 13 14  1  0
 14 15  1  0
 14 16  2  0
 16 17  1  0
 17 18  1  0
 18 19  1  0
 18 20  1  0
 18 21  1  0
 17 22  2  0
 22 23  1  0
 23 24  1  0
  5 25  2  0
 25 26  1  0
 26 27  1  0
 27 28  1  0
 26 29  2  0
 29 30  1  0
 30 31  1  0
 29  3  1  0
 23 10  2  0
 22 12  1  0
M  END
>  <Binding energies>  (51) 
[-6.73]

>  <Ligand effiencies>  (51) 
[-0.19794117647058826]

>  <Interactions>  (51) 
["V-A:GLU:543:CD:4905, V-A:GLU:543:CG:4904, V-B:GLU:543:CD:9877, V-B:HIS:456:CE1:9038, H-B:TYR:531:OH:9764, V-A:GLU:543:CB:4903, V-B:MET:535:CE:9804, V-A:TYR:531:CZ:4791, V-A:TYR:539:CD2:4871, V-A:TYR:539:CE2:4873, V-A:TYR:539:C:4864, V-B:ILE:369:CG2:8205, V-A:ILE:538:CD1:4862, V-A:TYR:539:CZ:4874, V-B:ILE:369:CD1:8207, V-B:ASP:366:CB:8180, V-B:ASP:366:CG:8181, V-B:TYR:531:CE1:9761, H-A:TYR:539:OH:4875, V-B:ASP:366:C:8176, V-B:ASP:366:CA:8178, H-B:LYS:534:NZ:9792, V-B:LYS:534:CD:9790, V-B:TYR:531:CZ:9763, V-A:MET:535:CE:4832, V-B:MET:535:CG:9802, H-A:GLU:543:OE2:4907, V-B:GLY:454:CA:9017, V-B:ARG:545:CD:9892, V-B:ARG:545:CG:9891, V-B:ARG:545:CZ:9895, V-B:GLY:453:C:9010, V-B:GLY:453:CA:9012, H-B:GLY:454:N:9018, V-A:MET:535:CG:4830, V-A:MET:535:CB:4829"]

$$$$
4bi_Grossjean_2025
     RDKit          3D

 23 25  0  0  0  0  0  0  0  0999 V2000
  133.4980  125.0280   65.3200 C   0  0  0  0  0  0  0  0  0  0  0  0
  132.7830  124.6290   64.0420 C   0  0  0  0  0  0  0  0  0  0  0  0
  133.4940  124.3670   62.8730 C   0  0  0  0  0  0  0  0  0  0  0  0
  132.8190  123.9940   61.6990 C   0  0  0  0  0  0  0  0  0  0  0  0
  133.6450  123.7080   60.4410 C   0  0  0  0  0  0  0  0  0  0  0  0
  133.2590  124.4310   59.3870 F   0  0  0  0  0  0  0  0  0  0  0  0
  134.9280  123.9900   60.6680 F   0  0  0  0  0  0  0  0  0  0  0  0
  133.5300  122.4220   60.1060 F   0  0  0  0  0  0  0  0  0  0  0  0
  131.3970  123.9030   61.7650 C   0  0  0  0  0  0  0  0  0  0  0  0
  130.3900  123.5630   60.7900 C   0  0  0  0  0  0  0  0  0  0  0  0
  130.6930  123.2430   59.4910 N   0  0  0  0  0  0  0  0  0  0  0  0
  129.0770  123.5810   61.2900 C   0  0  0  0  0  0  0  0  0  0  0  0
  127.8250  123.3030   60.5810 C   0  0  0  0  0  0  0  0  0  0  0  0
  127.8330  122.7210   59.4940 O   0  0  0  0  0  0  0  0  0  0  0  0
  126.6960  123.7100   61.2120 N   0  0  0  0  0  0  0  0  0  0  0  0
  125.3850  123.5650   60.7770 C   0  0  0  0  0  0  0  0  0  0  0  0
  124.9080  124.1300   59.5950 C   0  0  0  0  0  0  0  0  0  0  0  0
  123.5840  123.7590   59.5290 C   0  0  0  0  0  0  0  0  0  0  0  0
  123.2800  123.0080   60.6150 O   0  0  0  0  0  0  0  0  0  0  0  0
  124.4300  122.8930   61.3990 N   0  0  0  0  0  0  0  0  0  0  0  0
  129.0490  124.0480   62.9890 S   0  0  0  0  0  0  0  0  0  0  0  0
  130.7900  124.1970   63.0240 C   0  0  0  0  0  0  0  0  0  0  0  0
  131.4350  124.5490   64.1360 N   0  0  0  0  0  0  0  0  0  0  0  0
  1  2  1  0
  2  3  2  0
  3  4  1  0
  4  5  1  0
  5  6  1  0
  5  7  1  0
  5  8  1  0
  4  9  2  0
  9 10  1  0
 10 11  1  0
 10 12  2  0
 12 13  1  0
 13 14  2  0
 13 15  1  0
 15 16  1  0
 16 17  1  0
 17 18  2  0
 18 19  1  0
 19 20  1  0
 12 21  1  0
 21 22  1  0
 22 23  2  0
 23  2  1  0
 22  9  1  0
 20 16  2  0
M  END
>  <Binding energies>  (52) 
[-6.48]

>  <Ligand effiencies>  (52) 
[-0.24923076923076926]

>  <Interactions>  (52) 
["V-B:TYR:539:CE2:9845, V-B:PRO:540:CA:9852, H-A:TYR:484:OH:4344, V-B:GLU:543:CD:9877, V-A:HIS:456:CE1:4066, V-B:TYR:539:CZ:9846, V-B:ALA:541:CB:9861, V-B:PRO:540:CB:9854, V-B:TYR:539:CD2:9843, V-A:ASP:366:CG:3209, V-A:ASP:366:CB:3208, V-B:GLU:543:CG:9876, H-B:ALA:541:N:9860, H-B:GLU:543:OE2:9879, V-A:ARG:545:CD:4920, H-B:TYR:539:OH:9847, V-B:LEU:363:CD1:8157, V-B:ASN:362:C:8140, V-A:ARG:545:CZ:4923, V-B:LEU:363:CA:8153, V-A:GLY:454:CA:4045, V-B:LEU:363:CB:8155, V-A:ILE:369:CG2:3233, V-A:ILE:369:CG1:3234, V-A:ASP:366:CA:3206, V-A:ILE:369:CB:3232, H-B:LEU:363:N:8154"]

$$$$
4bj_Grossjean_2025
     RDKit          3D

 23 25  0  0  0  0  0  0  0  0999 V2000
  133.6010  125.1240   65.2970 C   0  0  0  0  0  0  0  0  0  0  0  0
  132.8920  124.7010   64.0230 C   0  0  0  0  0  0  0  0  0  0  0  0
  133.6110  124.3830   62.8730 C   0  0  0  0  0  0  0  0  0  0  0  0
  132.9420  124.0000   61.7000 C   0  0  0  0  0  0  0  0  0  0  0  0
  133.7760  123.6620   60.4590 C   0  0  0  0  0  0  0  0  0  0  0  0
  133.4200  124.3680   59.3840 F   0  0  0  0  0  0  0  0  0  0  0  0
  135.0620  123.9170   60.6970 F   0  0  0  0  0  0  0  0  0  0  0  0
  133.6300  122.3720   60.1570 F   0  0  0  0  0  0  0  0  0  0  0  0
  131.5170  123.9510   61.7480 C   0  0  0  0  0  0  0  0  0  0  0  0
  130.5120  123.6160   60.7680 C   0  0  0  0  0  0  0  0  0  0  0  0
  130.8240  123.2520   59.4820 N   0  0  0  0  0  0  0  0  0  0  0  0
  129.1950  123.6870   61.2490 C   0  0  0  0  0  0  0  0  0  0  0  0
  127.9460  123.4260   60.5300 C   0  0  0  0  0  0  0  0  0  0  0  0
  127.9550  122.8630   59.4330 O   0  0  0  0  0  0  0  0  0  0  0  0
  126.8160  123.8290   61.1600 N   0  0  0  0  0  0  0  0  0  0  0  0
  125.5120  123.6910   60.7050 C   0  0  0  0  0  0  0  0  0  0  0  0
  124.4930  123.1350   61.3240 N   0  0  0  0  0  0  0  0  0  0  0  0
  123.3960  123.1840   60.5960 C   0  0  0  0  0  0  0  0  0  0  0  0
  123.5120  123.7920   59.3500 C   0  0  0  0  0  0  0  0  0  0  0  0
  125.1530  124.3230   59.1290 S   0  0  0  0  0  0  0  0  0  0  0  0
  129.1580  124.1990   62.9340 S   0  0  0  0  0  0  0  0  0  0  0  0
  130.9020  124.2970   62.9910 C   0  0  0  0  0  0  0  0  0  0  0  0
  131.5410  124.6630   64.1010 N   0  0  0  0  0  0  0  0  0  0  0  0
  1  2  1  0
  2  3  2  0
  3  4  1  0
  4  5  1  0
  5  6  1  0
  5  7  1  0
  5  8  1  0
  4  9  2  0
  9 10  1  0
 10 11  1  0
 10 12  2  0
 12 13  1  0
 13 14  2  0
 13 15  1  0
 15 16  1  0
 16 17  2  0
 17 18  1  0
 18 19  2  0
 19 20  1  0
 12 21  1  0
 21 22  1  0
 22 23  2  0
 23  2  1  0
 22  9  1  0
 20 16  1  0
M  END
>  <Binding energies>  (53) 
[-6.31]

>  <Ligand effiencies>  (53) 
[-0.24269230769230768]

>  <Interactions>  (53) 
["V-B:TYR:539:CE2:9845, V-B:PRO:540:CA:9852, H-A:TYR:484:OH:4344, V-B:GLU:543:CD:9877, V-A:HIS:456:CE1:4066, V-B:TYR:539:CZ:9846, V-B:ALA:541:CB:9861, V-B:PRO:540:CB:9854, V-B:TYR:539:CD2:9843, V-A:ASP:366:CG:3209, V-A:ASP:366:CB:3208, V-B:GLU:543:CG:9876, H-B:ALA:541:N:9860, H-B:GLU:543:OE2:9879, V-B:ASN:362:CB:8144, V-A:ARG:545:CD:4920, H-B:TYR:539:OH:9847, V-B:LEU:363:CD1:8157, V-B:ASN:362:C:8140, V-A:ARG:545:CZ:4923, V-B:LEU:363:CA:8153, V-A:GLY:454:CA:4045, V-B:LEU:363:CB:8155, V-A:ILE:369:CG2:3233, V-A:ILE:369:CG1:3234, V-A:ASP:366:CA:3206, V-A:ILE:369:CB:3232, V-B:ASN:362:CA:8142, V-A:GLY:453:CA:4040"]

$$$$
4bk_Grossjean_2025
     RDKit          3D

 28 29  0  0  0  0  0  0  0  0999 V2000
  128.2410  130.5760   52.9040 C   0  0  0  0  0  0  0  0  0  0  0  0
  126.8650  130.7440   53.2080 O   0  0  0  0  0  0  0  0  0  0  0  0
  126.3920  129.8460   54.2050 C   0  0  0  0  0  0  0  0  0  0  0  0
  126.2950  130.5790   55.5490 C   0  0  0  0  0  0  0  0  0  0  0  0
  127.5840  130.6500   56.1420 O   0  0  0  0  0  0  0  0  0  0  0  0
  127.9910  131.9700   56.4760 C   0  0  0  0  0  0  0  0  0  0  0  0
  129.0220  132.4610   55.4510 C   0  0  0  0  0  0  0  0  0  0  0  0
  130.0880  133.1100   56.1300 O   0  0  0  0  0  0  0  0  0  0  0  0
  131.2680  132.3220   56.2340 C   0  0  0  0  0  0  0  0  0  0  0  0
  131.4420  131.8530   57.6890 C   0  0  0  0  0  0  0  0  0  0  0  0
  130.2460  132.0330   58.5120 N   0  0  0  0  0  0  0  0  0  0  0  0
  129.9170  131.2830   59.5840 C   0  0  0  0  0  0  0  0  0  0  0  0
  130.6300  130.3640   59.9900 O   0  0  0  0  0  0  0  0  0  0  0  0
  128.6620  131.6300   60.2530 C   0  0  0  0  0  0  0  0  0  0  0  0
  127.7760  133.0760   59.7730 S   0  0  0  0  0  0  0  0  0  0  0  0
  126.5170  132.7440   60.9390 C   0  0  0  0  0  0  0  0  0  0  0  0
  125.4660  133.5510   61.0770 N   0  0  0  0  0  0  0  0  0  0  0  0
  124.5560  133.1880   62.0100 C   0  0  0  0  0  0  0  0  0  0  0  0
  123.3660  134.1210   62.1480 C   0  0  0  0  0  0  0  0  0  0  0  0
  124.6720  132.0490   62.8020 C   0  0  0  0  0  0  0  0  0  0  0  0
  125.7770  131.1950   62.6640 C   0  0  0  0  0  0  0  0  0  0  0  0
  125.8630  129.9560   63.5610 C   0  0  0  0  0  0  0  0  0  0  0  0
  124.8160  129.8300   64.3790 F   0  0  0  0  0  0  0  0  0  0  0  0
  125.9160  128.8570   62.8080 F   0  0  0  0  0  0  0  0  0  0  0  0
  126.9560  130.0220   64.3190 F   0  0  0  0  0  0  0  0  0  0  0  0
  126.7550  131.5480   61.6870 C   0  0  0  0  0  0  0  0  0  0  0  0
  127.9890  130.9320   61.2660 C   0  0  0  0  0  0  0  0  0  0  0  0
  128.4620  129.7670   61.8150 N   0  0  0  0  0  0  0  0  0  0  0  0
  1  2  1  0
  2  3  1  0
  3  4  1  0
  4  5  1  0
  5  6  1  0
  6  7  1  0
  7  8  1  0
  8  9  1  0
  9 10  1  0
 10 11  1  0
 11 12  1  0
 12 13  2  0
 12 14  1  0
 14 15  1  0
 15 16  1  0
 16 17  2  0
 17 18  1  0
 18 19  1  0
 18 20  2  0
 20 21  1  0
 21 22  1  0
 22 23  1  0
 22 24  1  0
 22 25  1  0
 21 26  2  0
 26 27  1  0
 27 28  1  0
 27 14  2  0
 26 16  1  0
M  END
>  <Binding energies>  (54) 
[-5.14]

>  <Ligand effiencies>  (54) 
[-0.16580645161290322]

>  <Interactions>  (54) 
["V-A:GLU:543:CD:4905, V-B:MET:535:CE:9804, V-A:PRO:540:CA:4880, V-A:TYR:539:CD2:4871, V-A:TYR:539:CE2:4873, V-B:LEU:475:CD2:9227, V-A:TYR:539:C:4864, V-A:PRO:540:N:4881, V-A:PRO:540:CB:4882, V-B:ILE:369:CG2:8205, V-A:ILE:538:CD1:4862, V-B:LYS:534:CE:9791, H-A:TYR:539:N:4867, V-A:TYR:539:CZ:4874, V-B:ILE:369:CD1:8207, V-B:ASP:366:CG:8181, V-B:TYR:531:CE1:9761, H-A:TYR:539:OH:4875, H-A:TYR:539:O:4865, H-B:LYS:534:NZ:9792, V-B:TYR:531:CZ:9763, V-A:ILE:538:CG2:4860, H-A:GLU:543:OE2:4907, V-B:GLY:454:CA:9017, V-A:PRO:540:CD:4884, V-B:ARG:545:CZ:9895, V-A:MET:535:CG:4830, V-B:SER:385:C:8373, V-B:ILE:369:CG1:8206"]

$$$$
4cd_Grossjean_2025
     RDKit          3D

 29 32  0  0  0  0  0  0  0  0999 V2000
  131.0230  122.3040   64.1040 N   0  0  0  0  0  0  0  0  0  0  0  0
  130.2510  123.2030   63.4120 C   0  0  0  0  0  0  0  0  0  0  0  0
  130.0260  124.5190   63.8480 C   0  0  0  0  0  0  0  0  0  0  0  0
  130.5150  125.1740   65.0650 C   0  0  0  0  0  0  0  0  0  0  0  0
  131.7010  125.0970   65.3860 O   0  0  0  0  0  0  0  0  0  0  0  0
  129.5810  125.8550   65.7730 N   0  0  0  0  0  0  0  0  0  0  0  0
  129.7070  126.5410   66.9950 C   0  0  0  0  0  0  0  0  0  0  0  0
  128.8080  126.1740   68.0000 C   0  0  0  0  0  0  0  0  0  0  0  0
  128.8610  126.7850   69.2490 C   0  0  0  0  0  0  0  0  0  0  0  0
  129.8210  127.7630   69.4970 C   0  0  0  0  0  0  0  0  0  0  0  0
  130.7320  128.1300   68.5110 C   0  0  0  0  0  0  0  0  0  0  0  0
  130.6810  127.5200   67.2590 C   0  0  0  0  0  0  0  0  0  0  0  0
  129.0000  125.3970   62.7160 S   0  0  0  0  0  0  0  0  0  0  0  0
  128.8730  123.9980   61.6760 C   0  0  0  0  0  0  0  0  0  0  0  0
  128.1600  124.0300   60.5520 N   0  0  0  0  0  0  0  0  0  0  0  0
  128.1100  122.8890   59.8160 C   0  0  0  0  0  0  0  0  0  0  0  0
  127.2960  122.9550   58.5560 C   0  0  0  0  0  0  0  0  0  0  0  0
  126.0210  123.5420   58.5540 C   0  0  0  0  0  0  0  0  0  0  0  0
  125.2610  123.6070   57.3890 C   0  0  0  0  0  0  0  0  0  0  0  0
  125.7690  123.0840   56.2050 C   0  0  0  0  0  0  0  0  0  0  0  0
  127.0310  122.5000   56.1780 C   0  0  0  0  0  0  0  0  0  0  0  0
  127.7870  122.4390   57.3440 C   0  0  0  0  0  0  0  0  0  0  0  0
  128.7900  121.7300   60.2010 C   0  0  0  0  0  0  0  0  0  0  0  0
  129.5480  121.6870   61.3830 C   0  0  0  0  0  0  0  0  0  0  0  0
  130.2650  120.3820   61.7480 C   0  0  0  0  0  0  0  0  0  0  0  0
  130.1200  120.0450   63.0320 F   0  0  0  0  0  0  0  0  0  0  0  0
  129.7790  119.3800   61.0150 F   0  0  0  0  0  0  0  0  0  0  0  0
  131.5710  120.5050   61.5140 F   0  0  0  0  0  0  0  0  0  0  0  0
  129.5980  122.8730   62.1690 C   0  0  0  0  0  0  0  0  0  0  0  0
  1  2  1  0
  2  3  2  0
  3  4  1  0
  4  5  2  0
  4  6  1  0
  6  7  1  0
  7  8  2  0
  8  9  1  0
  9 10  2  0
 10 11  1  0
 11 12  2  0
  3 13  1  0
 13 14  1  0
 14 15  2  0
 15 16  1  0
 16 17  1  0
 17 18  2  0
 18 19  1  0
 19 20  2  0
 20 21  1  0
 21 22  2  0
 16 23  2  0
 23 24  1  0
 24 25  1  0
 25 26  1  0
 25 27  1  0
 25 28  1  0
 24 29  2  0
 29  2  1  0
 12  7  1  0
 29 14  1  0
 22 17  1  0
M  END
>  <Binding energies>  (55) 
[-7.75]

>  <Ligand effiencies>  (55) 
[-0.2421875]

>  <Interactions>  (55) 
["V-A:GLU:543:CD:4905, V-A:LEU:475:CD1:4254, V-B:TYR:539:CE2:9845, V-B:TYR:539:CE1:9844, V-B:PRO:540:CA:9852, H-A:TYR:484:OH:4344, V-B:TYR:539:CG:9841, V-B:PRO:540:N:9853, V-B:TYR:539:C:9836, V-B:GLU:543:CD:9877, V-B:HIS:456:CE1:9038, V-A:HIS:456:CE1:4066, V-B:TYR:539:CZ:9846, V-A:GLU:543:CB:4903, V-B:TYR:539:CD1:9842, V-B:ALA:541:CB:9861, V-B:PRO:540:CB:9854, V-B:TYR:539:CD2:9843, V-B:GLU:543:CG:9876, H-B:GLU:543:OE2:9879, V-B:GLU:543:CB:9875, V-A:TYR:484:CE1:4341, V-A:TYR:484:CZ:4343, V-B:LEU:363:CD1:8157, V-B:ILE:538:CB:9831, H-B:GLU:543:OE1:9878, V-A:LEU:475:CD2:4255, V-A:LEU:475:CG:4253, V-A:GLU:543:C:4899, V-A:PRO:482:CG:4323, V-A:PRO:482:CB:4322"]

$$$$
4cg_Grossjean_2025
     RDKit          3D

 30 33  0  0  0  0  0  0  0  0999 V2000
  130.9460  122.5240   64.1750 N   0  0  0  0  0  0  0  0  0  0  0  0
  130.1540  123.3630   63.4350 C   0  0  0  0  0  0  0  0  0  0  0  0
  129.8400  124.6700   63.8320 C   0  0  0  0  0  0  0  0  0  0  0  0
  130.2950  125.3990   65.0150 C   0  0  0  0  0  0  0  0  0  0  0  0
  131.0740  124.8890   65.8230 O   0  0  0  0  0  0  0  0  0  0  0  0
  129.7810  126.6360   65.1830 N   0  0  0  0  0  0  0  0  0  0  0  0
  130.1090  127.5490   66.2760 C   0  0  0  0  0  0  0  0  0  0  0  0
  129.4550  127.1700   67.6000 C   0  0  0  0  0  0  0  0  0  0  0  0
  130.0940  127.4800   68.8040 C   0  0  0  0  0  0  0  0  0  0  0  0
  129.4850  127.1640   70.0160 C   0  0  0  0  0  0  0  0  0  0  0  0
  128.2350  126.5480   70.0190 C   0  0  0  0  0  0  0  0  0  0  0  0
  127.5860  126.2510   68.8230 C   0  0  0  0  0  0  0  0  0  0  0  0
  128.1940  126.5690   67.6110 C   0  0  0  0  0  0  0  0  0  0  0  0
  128.8210  125.4750   62.6410 S   0  0  0  0  0  0  0  0  0  0  0  0
  128.8030  124.0480   61.6320 C   0  0  0  0  0  0  0  0  0  0  0  0
  128.1380  124.0210   60.4800 N   0  0  0  0  0  0  0  0  0  0  0  0
  128.1850  122.8700   59.7600 C   0  0  0  0  0  0  0  0  0  0  0  0
  127.4220  122.8710   58.4660 C   0  0  0  0  0  0  0  0  0  0  0  0
  128.0430  122.4980   57.2630 C   0  0  0  0  0  0  0  0  0  0  0  0
  127.3410  122.4980   56.0610 C   0  0  0  0  0  0  0  0  0  0  0  0
  126.0010  122.8750   56.0440 C   0  0  0  0  0  0  0  0  0  0  0  0
  125.3620  123.2520   57.2200 C   0  0  0  0  0  0  0  0  0  0  0  0
  126.0680  123.2500   58.4190 C   0  0  0  0  0  0  0  0  0  0  0  0
  128.8860  121.7460   60.2110 C   0  0  0  0  0  0  0  0  0  0  0  0
  129.5910  121.7630   61.4250 C   0  0  0  0  0  0  0  0  0  0  0  0
  130.3370  120.4960   61.8590 C   0  0  0  0  0  0  0  0  0  0  0  0
  129.9640  119.4100   61.1800 F   0  0  0  0  0  0  0  0  0  0  0  0
  131.6470  120.6570   61.6680 F   0  0  0  0  0  0  0  0  0  0  0  0
  130.1070  120.2580   63.1490 F   0  0  0  0  0  0  0  0  0  0  0  0
  129.5600  122.9710   62.1800 C   0  0  0  0  0  0  0  0  0  0  0  0
  1  2  1  0
  2  3  2  0
  3  4  1  0
  4  5  2  0
  4  6  1  0
  6  7  1  0
  7  8  1  0
  8  9  2  0
  9 10  1  0
 10 11  2  0
 11 12  1  0
 12 13  2  0
  3 14  1  0
 14 15  1  0
 15 16  2  0
 16 17  1  0
 17 18  1  0
 18 19  2  0
 19 20  1  0
 20 21  2  0
 21 22  1  0
 22 23  2  0
 17 24  2  0
 24 25  1  0
 25 26  1  0
 26 27  1  0
 26 28  1  0
 26 29  1  0
 25 30  2  0
 30  2  1  0
 13  8  1  0
 30 15  1  0
 23 18  1  0
M  END
>  <Binding energies>  (56) 
[-7.66]

>  <Ligand effiencies>  (56) 
[-0.23212121212121212]

>  <Interactions>  (56) 
["V-A:GLU:543:CD:4905, V-A:GLU:543:CG:4904, V-A:LEU:475:CD1:4254, V-B:TYR:539:CE2:9845, V-B:TYR:539:CE1:9844, V-B:PRO:540:CA:9852, H-A:TYR:484:OH:4344, V-B:TYR:539:CG:9841, V-B:PRO:540:N:9853, V-B:TYR:539:C:9836, V-B:GLU:543:CD:9877, V-B:HIS:456:CE1:9038, V-A:HIS:456:CE1:4066, V-B:TYR:539:CZ:9846, V-A:GLU:543:CB:4903, V-B:TYR:539:CD1:9842, V-B:ALA:541:CB:9861, V-B:PRO:540:CB:9854, V-B:TYR:539:CD2:9843, V-B:GLU:543:CG:9876, V-B:GLU:543:CB:9875, V-A:TYR:484:CE1:4341, V-A:TYR:484:CZ:4343, V-B:GLU:543:C:9871, V-B:LEU:363:CD1:8157, V-B:ILE:538:CB:9831, V-B:ILE:538:CA:9829, V-B:ILE:538:CG2:9832, H-A:GLU:543:OE1:4906, H-B:GLU:543:OE1:9878, V-A:LEU:475:CD2:4255, V-A:LEU:475:CG:4253, V-A:PRO:482:CG:4323, V-A:PRO:482:CB:4322"]

$$$$
4ch_Grossjean_2025
     RDKit          3D

 36 39  0  0  0  0  0  0  0  0999 V2000
  127.8690  122.6200   55.1920 C   0  0  0  0  0  0  0  0  0  0  0  0
  127.2920  121.8020   56.2040 O   0  0  0  0  0  0  0  0  0  0  0  0
  127.2310  122.2720   57.5030 C   0  0  0  0  0  0  0  0  0  0  0  0
  128.2680  122.1250   58.4400 C   0  0  0  0  0  0  0  0  0  0  0  0
  128.1380  122.6270   59.7360 C   0  0  0  0  0  0  0  0  0  0  0  0
  129.2620  122.4330   60.7470 C   0  0  0  0  0  0  0  0  0  0  0  0
  129.1620  123.2910   61.9280 N   0  0  0  0  0  0  0  0  0  0  0  0
  130.0160  124.2850   62.2500 C   0  0  0  0  0  0  0  0  0  0  0  0
  130.9770  124.5890   61.5410 O   0  0  0  0  0  0  0  0  0  0  0  0
  129.7160  125.0140   63.4830 C   0  0  0  0  0  0  0  0  0  0  0  0
  130.2660  124.3890   65.0340 S   0  0  0  0  0  0  0  0  0  0  0  0
  129.5740  125.7530   65.8790 C   0  0  0  0  0  0  0  0  0  0  0  0
  129.6590  125.8670   67.2010 N   0  0  0  0  0  0  0  0  0  0  0  0
  129.0960  126.9660   67.7690 C   0  0  0  0  0  0  0  0  0  0  0  0
  129.2030  127.0610   69.2640 C   0  0  0  0  0  0  0  0  0  0  0  0
  128.2410  126.4600   70.0930 C   0  0  0  0  0  0  0  0  0  0  0  0
  128.3340  126.5460   71.4800 C   0  0  0  0  0  0  0  0  0  0  0  0
  129.3930  127.2360   72.0600 C   0  0  0  0  0  0  0  0  0  0  0  0
  130.3570  127.8430   71.2620 C   0  0  0  0  0  0  0  0  0  0  0  0
  130.2590  127.7570   69.8760 C   0  0  0  0  0  0  0  0  0  0  0  0
  128.4360  127.9340   67.0070 C   0  0  0  0  0  0  0  0  0  0  0  0
  128.3390  127.8240   65.6100 C   0  0  0  0  0  0  0  0  0  0  0  0
  127.6020  128.9220   64.8350 C   0  0  0  0  0  0  0  0  0  0  0  0
  127.4940  130.0640   65.5190 F   0  0  0  0  0  0  0  0  0  0  0  0
  128.2550  129.1940   63.7060 F   0  0  0  0  0  0  0  0  0  0  0  0
  126.3670  128.5160   64.5420 F   0  0  0  0  0  0  0  0  0  0  0  0
  128.9380  126.6830   65.0040 C   0  0  0  0  0  0  0  0  0  0  0  0
  129.0450  126.2380   63.6350 C   0  0  0  0  0  0  0  0  0  0  0  0
  128.5280  126.9460   62.5800 N   0  0  0  0  0  0  0  0  0  0  0  0
  126.9560  123.2680   60.1100 C   0  0  0  0  0  0  0  0  0  0  0  0
  125.9030  123.4280   59.1950 C   0  0  0  0  0  0  0  0  0  0  0  0
  124.7070  124.0530   59.4970 O   0  0  0  0  0  0  0  0  0  0  0  0
  124.1740  123.9450   60.8120 C   0  0  0  0  0  0  0  0  0  0  0  0
  126.0560  122.9310   57.8930 C   0  0  0  0  0  0  0  0  0  0  0  0
  125.0280  123.0670   56.9920 O   0  0  0  0  0  0  0  0  0  0  0  0
  124.8620  124.3890   56.4980 C   0  0  0  0  0  0  0  0  0  0  0  0
  1  2  1  0
  2  3  1  0
  3  4  2  0
  4  5  1  0
  5  6  1  0
  6  7  1  0
  7  8  1  0
  8  9  2  0
  8 10  1  0
 10 11  1  0
 11 12  1  0
 12 13  2  0
 13 14  1  0
 14 15  1  0
 15 16  2  0
 16 17  1  0
 17 18  2  0
 18 19  1  0
 19 20  2  0
 14 21  2  0
 21 22  1  0
 22 23  1  0
 23 24  1  0
 23 25  1  0
 23 26  1  0
 22 27  2  0
 27 28  1  0
 28 29  1  0
  5 30  2  0
 30 31  1  0
 31 32  1  0
 32 33  1  0
 31 34  2  0
 34 35  1  0
 35 36  1  0
 34  3  1  0
 28 10  2  0
 27 12  1  0
 20 15  1  0
M  END
>  <Binding energies>  (57) 
[-8.04]

>  <Ligand effiencies>  (57) 
[-0.20615384615384613]

>  <Interactions>  (57) 
["V-A:GLU:543:CD:4905, V-A:GLU:543:CG:4904, V-B:TYR:539:CE2:9845, V-B:TYR:539:CE1:9844, V-B:PRO:540:CA:9852, V-B:TYR:539:CG:9841, V-B:PRO:540:N:9853, V-B:TYR:539:C:9836, V-B:GLU:543:CD:9877, V-B:HIS:456:CE1:9038, V-A:HIS:456:CE1:4066, V-B:TYR:539:CZ:9846, V-B:TYR:539:CD1:9842, V-B:ALA:541:CB:9861, V-B:PRO:540:CB:9854, V-B:MET:535:CE:9804, V-B:TYR:539:CD2:9843, V-B:GLU:543:CG:9876, H-B:GLU:543:OE2:9879, V-B:GLU:543:CB:9875, V-A:TYR:484:CE1:4341, V-B:ASN:362:CB:8144, V-B:LEU:363:CD1:8157, V-B:ASN:362:C:8140, H-B:TYR:539:N:9839, V-B:ILE:538:CB:9831, V-B:ILE:538:CA:9829, V-B:ILE:538:CG2:9832, V-B:TYR:531:CZ:9763, V-B:TYR:531:CE2:9762, V-B:PRO:540:CD:9856, H-A:GLU:543:OE2:4907, V-B:ARG:545:CZ:9895, H-B:GLU:543:OE1:9878, V-A:HIS:456:CD2:4064, V-B:HIS:456:CD2:9036, V-B:LYS:547:CE:9919, V-A:GLY:544:C:4909"]

$$$$
4cj_Grossjean_2025
     RDKit          3D

 28 31  0  0  0  0  0  0  0  0999 V2000
  131.0540  124.7500   66.3380 N   0  0  0  0  0  0  0  0  0  0  0  0
  130.6930  125.5630   65.2940 C   0  0  0  0  0  0  0  0  0  0  0  0
  131.3040  125.5090   64.0300 C   0  0  0  0  0  0  0  0  0  0  0  0
  132.3810  124.6280   63.5740 C   0  0  0  0  0  0  0  0  0  0  0  0
  133.5300  124.7610   64.0030 O   0  0  0  0  0  0  0  0  0  0  0  0
  132.0200  123.6910   62.6610 N   0  0  0  0  0  0  0  0  0  0  0  0
  132.8430  122.7410   62.0720 C   0  0  0  0  0  0  0  0  0  0  0  0
  134.1550  122.7620   61.9680 N   0  0  0  0  0  0  0  0  0  0  0  0
  134.6090  121.6900   61.3500 C   0  0  0  0  0  0  0  0  0  0  0  0
  133.6530  120.7660   60.9370 C   0  0  0  0  0  0  0  0  0  0  0  0
  132.0770  121.3420   61.3900 S   0  0  0  0  0  0  0  0  0  0  0  0
  130.5880  126.6810   62.9260 S   0  0  0  0  0  0  0  0  0  0  0  0
  129.4820  127.2350   64.1610 C   0  0  0  0  0  0  0  0  0  0  0  0
  128.5960  128.1980   63.9180 N   0  0  0  0  0  0  0  0  0  0  0  0
  127.7730  128.5570   64.9370 C   0  0  0  0  0  0  0  0  0  0  0  0
  126.7770  129.6370   64.6250 C   0  0  0  0  0  0  0  0  0  0  0  0
  125.4320  129.3220   64.3710 C   0  0  0  0  0  0  0  0  0  0  0  0
  124.5040  130.3180   64.0760 C   0  0  0  0  0  0  0  0  0  0  0  0
  124.9110  131.6480   64.0280 C   0  0  0  0  0  0  0  0  0  0  0  0
  126.2370  131.9860   64.2740 C   0  0  0  0  0  0  0  0  0  0  0  0
  127.1600  130.9880   64.5700 C   0  0  0  0  0  0  0  0  0  0  0  0
  127.8600  127.9650   66.2010 C   0  0  0  0  0  0  0  0  0  0  0  0
  128.7920  126.9500   66.4690 C   0  0  0  0  0  0  0  0  0  0  0  0
  128.8320  126.3410   67.8760 C   0  0  0  0  0  0  0  0  0  0  0  0
  128.9890  125.0160   67.8700 F   0  0  0  0  0  0  0  0  0  0  0  0
  129.8480  126.8620   68.5620 F   0  0  0  0  0  0  0  0  0  0  0  0
  127.6910  126.6040   68.5130 F   0  0  0  0  0  0  0  0  0  0  0  0
  129.6480  126.5520   65.4020 C   0  0  0  0  0  0  0  0  0  0  0  0
  1  2  1  0
  2  3  2  0
  3  4  1  0
  4  5  2  0
  4  6  1  0
  6  7  1  0
  7  8  2  0
  8  9  1  0
  9 10  2  0
 10 11  1  0
  3 12  1  0
 12 13  1  0
 13 14  2  0
 14 15  1  0
 15 16  1  0
 16 17  2  0
 17 18  1  0
 18 19  2  0
 19 20  1  0
 20 21  2  0
 15 22  2  0
 22 23  1  0
 23 24  1  0
 24 25  1  0
 24 26  1  0
 24 27  1  0
 23 28  2  0
 28  2  1  0
 11  7  1  0
 28 13  1  0
 21 16  1  0
M  END
>  <Binding energies>  (58) 
[-7.04]

>  <Ligand effiencies>  (58) 
[-0.2270967741935484]

>  <Interactions>  (58) 
["V-A:GLU:543:CD:4905, V-A:GLU:543:CG:4904, V-A:LEU:475:CD1:4254, V-B:TYR:539:CE2:9845, H-A:TYR:484:OH:4344, V-B:GLU:543:CD:9877, V-B:HIS:456:CE1:9038, V-A:HIS:456:CE1:4066, V-B:TYR:539:CD2:9843, V-B:GLU:543:CG:9876, V-B:GLU:543:CB:9875, V-A:TYR:484:CE1:4341, V-A:TYR:484:CZ:4343, V-B:GLU:543:CA:9873, V-B:GLU:543:C:9871, H-A:GLY:454:N:4046, V-A:GLY:454:CA:4045, V-A:ILE:369:CG2:3233, V-A:ILE:369:CG1:3234, V-A:ILE:369:CB:3232, V-B:GLY:454:CA:9017, V-A:ILE:369:CD1:3235, V-B:ARG:545:CZ:9895, H-A:ARG:545:NH2:4925, H-A:HIS:456:NE2:4067"]

$$$$
4ck_Grossjean_2025
     RDKit          3D

 33 35  0  0  0  0  0  0  0  0999 V2000
  127.9020  122.4640   55.2380 C   0  0  0  0  0  0  0  0  0  0  0  0
  127.2390  121.7850   56.2940 O   0  0  0  0  0  0  0  0  0  0  0  0
  127.7980  122.0500   57.5730 C   0  0  0  0  0  0  0  0  0  0  0  0
  128.0740  123.5530   57.6980 C   0  0  0  0  0  0  0  0  0  0  0  0
  126.8490  124.2310   57.9380 O   0  0  0  0  0  0  0  0  0  0  0  0
  126.3230  124.8780   56.7870 C   0  0  0  0  0  0  0  0  0  0  0  0
  124.7930  124.7620   56.8000 C   0  0  0  0  0  0  0  0  0  0  0  0
  124.2650  125.7780   57.6420 O   0  0  0  0  0  0  0  0  0  0  0  0
  123.0350  125.4280   58.2640 C   0  0  0  0  0  0  0  0  0  0  0  0
  123.3110  124.5560   59.4980 C   0  0  0  0  0  0  0  0  0  0  0  0
  124.7370  124.4980   59.8230 N   0  0  0  0  0  0  0  0  0  0  0  0
  125.3040  123.6980   60.7490 C   0  0  0  0  0  0  0  0  0  0  0  0
  124.6570  122.8880   61.4160 O   0  0  0  0  0  0  0  0  0  0  0  0
  126.7520  123.8360   60.9130 C   0  0  0  0  0  0  0  0  0  0  0  0
  127.7800  122.4060   60.9260 S   0  0  0  0  0  0  0  0  0  0  0  0
  129.2170  123.3880   61.0860 C   0  0  0  0  0  0  0  0  0  0  0  0
  130.4280  122.8420   61.1550 N   0  0  0  0  0  0  0  0  0  0  0  0
  131.4860  123.6860   61.2800 C   0  0  0  0  0  0  0  0  0  0  0  0
  132.8400  123.0390   61.3360 C   0  0  0  0  0  0  0  0  0  0  0  0
  134.0100  123.8120   61.2620 C   0  0  0  0  0  0  0  0  0  0  0  0
  135.2690  123.2170   61.3110 C   0  0  0  0  0  0  0  0  0  0  0  0
  135.3750  121.8370   61.4360 C   0  0  0  0  0  0  0  0  0  0  0  0
  134.2330  121.0480   61.5170 C   0  0  0  0  0  0  0  0  0  0  0  0
  132.9760  121.6460   61.4680 C   0  0  0  0  0  0  0  0  0  0  0  0
  131.3220  125.0740   61.3270 C   0  0  0  0  0  0  0  0  0  0  0  0
  130.0490  125.6610   61.2560 C   0  0  0  0  0  0  0  0  0  0  0  0
  129.9410  127.1900   61.3180 C   0  0  0  0  0  0  0  0  0  0  0  0
  131.1010  127.7850   61.5960 F   0  0  0  0  0  0  0  0  0  0  0  0
  129.5230  127.6590   60.1430 F   0  0  0  0  0  0  0  0  0  0  0  0
  129.0730  127.5420   62.2670 F   0  0  0  0  0  0  0  0  0  0  0  0
  128.9330  124.7850   61.1280 C   0  0  0  0  0  0  0  0  0  0  0  0
  127.5110  125.0110   61.0180 C   0  0  0  0  0  0  0  0  0  0  0  0
  126.9560  126.2650   61.0220 N   0  0  0  0  0  0  0  0  0  0  0  0
  1  2  1  0
  2  3  1  0
  3  4  1  0
  4  5  1  0
  5  6  1  0
  6  7  1  0
  7  8  1  0
  8  9  1  0
  9 10  1  0
 10 11  1  0
 11 12  1  0
 12 13  2  0
 12 14  1  0
 14 15  1  0
 15 16  1  0
 16 17  2  0
 17 18  1  0
 18 19  1  0
 19 20  2  0
 20 21  1  0
 21 22  2  0
 22 23  1  0
 23 24  2  0
 18 25  2  0
 25 26  1  0
 26 27  1  0
 27 28  1  0
 27 29  1  0
 27 30  1  0
 26 31  2  0
 31 32  1  0
 32 33  1  0
 32 14  2  0
 31 16  1  0
 24 19  1  0
M  END
>  <Binding energies>  (59) 
[-6.45]

>  <Ligand effiencies>  (59) 
[-0.17916666666666667]

>  <Interactions>  (59) 
["V-A:GLU:543:CD:4905, V-A:LEU:475:CD1:4254, V-B:TYR:539:CE2:9845, V-B:TYR:539:CE1:9844, V-B:PRO:540:CA:9852, V-B:TYR:539:CG:9841, V-B:PRO:540:N:9853, V-B:TYR:539:C:9836, V-B:GLU:543:CD:9877, H-B:TYR:531:OH:9764, V-B:TYR:539:CZ:9846, V-B:TYR:539:CD1:9842, V-B:ALA:541:CB:9861, V-B:PRO:540:CB:9854, V-B:MET:535:CE:9804, V-B:TYR:539:CD2:9843, V-A:ASP:366:CG:3209, H-B:ALA:541:N:9860, H-B:GLU:543:OE2:9879, V-B:ALA:541:CA:9859, V-B:ASP:366:CB:8180, V-B:LEU:363:CD1:8157, V-B:ASN:362:C:8140, V-B:LEU:363:CA:8153, V-B:ASP:366:CG:8181, H-B:TYR:539:N:9839, V-B:ILE:538:CB:9831, V-B:ILE:538:CA:9829, V-B:ILE:538:CG2:9832, V-B:TYR:531:CZ:9763, V-A:GLY:454:CA:4045, V-B:TYR:531:CE2:9762, V-B:LEU:363:CB:8155, H-B:ASP:366:OD1:8182, V-B:PRO:540:C:9850, V-A:ILE:369:CG2:3233, V-A:ILE:369:CG1:3234, V-A:ILE:369:CB:3232, V-A:GLY:453:C:4038, V-A:ILE:369:CD1:3235, H-B:GLU:543:OE1:9878, V-A:GLY:453:CA:4040, V-B:TYR:539:CA:9838, V-B:LEU:363:C:8151"]

$$$$
4dd_Grossjean_2025
     RDKit          3D

 26 29  0  0  0  0  0  0  0  0999 V2000
  130.4710  120.3560   61.8410 C   0  0  0  0  0  0  0  0  0  0  0  0
  129.7170  121.6280   61.4860 C   0  0  0  0  0  0  0  0  0  0  0  0
  128.9970  121.6550   60.2860 C   0  0  0  0  0  0  0  0  0  0  0  0
  128.2810  122.7960   59.9020 C   0  0  0  0  0  0  0  0  0  0  0  0
  127.5060  122.8560   58.6190 C   0  0  0  0  0  0  0  0  0  0  0  0
  128.0940  122.4680   57.4040 C   0  0  0  0  0  0  0  0  0  0  0  0
  127.3790  122.5190   56.2100 C   0  0  0  0  0  0  0  0  0  0  0  0
  126.0610  122.9610   56.2140 C   0  0  0  0  0  0  0  0  0  0  0  0
  125.4530  123.3490   57.4020 C   0  0  0  0  0  0  0  0  0  0  0  0
  126.1710  123.2950   58.5950 C   0  0  0  0  0  0  0  0  0  0  0  0
  128.2620  123.9230   60.6650 N   0  0  0  0  0  0  0  0  0  0  0  0
  128.9420  123.8960   61.8100 C   0  0  0  0  0  0  0  0  0  0  0  0
  128.9880  125.2680   62.8950 S   0  0  0  0  0  0  0  0  0  0  0  0
  130.0170  124.3940   64.0320 C   0  0  0  0  0  0  0  0  0  0  0  0
  130.4490  125.0290   65.2790 C   0  0  0  0  0  0  0  0  0  0  0  0
  131.6260  124.9720   65.6370 O   0  0  0  0  0  0  0  0  0  0  0  0
  129.4750  125.6670   65.9740 N   0  0  0  0  0  0  0  0  0  0  0  0
  129.5440  126.3210   67.2170 C   0  0  0  0  0  0  0  0  0  0  0  0
  130.4570  127.3760   67.3030 C   0  0  0  0  0  0  0  0  0  0  0  0
  130.5880  128.0970   68.4870 C   0  0  0  0  0  0  0  0  0  0  0  0
  129.8000  127.7670   69.5860 C   0  0  0  0  0  0  0  0  0  0  0  0
  128.8770  126.7270   69.5110 C   0  0  0  0  0  0  0  0  0  0  0  0
  128.7440  126.0040   68.3280 C   0  0  0  0  0  0  0  0  0  0  0  0
  130.3010  123.1010   63.5660 C   0  0  0  0  0  0  0  0  0  0  0  0
  131.0830  122.2000   64.2440 N   0  0  0  0  0  0  0  0  0  0  0  0
  129.6950  122.7910   62.2980 C   0  0  0  0  0  0  0  0  0  0  0  0
  1  2  1  0
  2  3  2  0
  3  4  1  0
  4  5  1  0
  5  6  2  0
  6  7  1  0
  7  8  2  0
  8  9  1  0
  9 10  2  0
  4 11  2  0
 11 12  1  0
 12 13  1  0
 13 14  1  0
 14 15  1  0
 15 16  2  0
 15 17  1  0
 17 18  1  0
 18 19  2  0
 19 20  1  0
 20 21  2  0
 21 22  1  0
 22 23  2  0
 14 24  2  0
 24 25  1  0
 24 26  1  0
 26  2  1  0
 10  5  1  0
 26 12  2  0
 23 18  1  0
M  END
>  <Binding energies>  (60) 
[-8.07]

>  <Ligand effiencies>  (60) 
[-0.27827586206896554]

>  <Interactions>  (60) 
["V-A:LEU:475:CD1:4254, V-B:TYR:539:CE2:9845, V-B:TYR:539:CE1:9844, V-B:PRO:540:CA:9852, H-A:TYR:484:OH:4344, V-B:TYR:539:CG:9841, V-B:PRO:540:N:9853, V-B:TYR:539:C:9836, V-B:GLU:543:CD:9877, V-B:HIS:456:CE1:9038, V-A:HIS:456:CE1:4066, V-B:TYR:539:CZ:9846, V-A:GLU:543:CB:4903, V-B:TYR:539:CD1:9842, V-B:ALA:541:CB:9861, V-B:PRO:540:CB:9854, V-B:TYR:539:CD2:9843, V-B:GLU:543:CG:9876, H-B:GLU:543:OE2:9879, V-B:GLU:543:CB:9875, V-A:TYR:484:CE1:4341, V-A:TYR:484:CZ:4343, V-B:GLU:543:C:9871, V-B:LEU:363:CD1:8157, V-B:ILE:538:CB:9831, H-B:GLU:543:OE1:9878, V-A:LEU:475:CD2:4255, V-A:LEU:475:CG:4253, V-A:GLU:543:C:4899"]

$$$$
4dg_Grossjean_2025
     RDKit          3D

 27 30  0  0  0  0  0  0  0  0999 V2000
  130.4850  120.5430   61.9990 C   0  0  0  0  0  0  0  0  0  0  0  0
  129.7330  121.7970   61.5800 C   0  0  0  0  0  0  0  0  0  0  0  0
  129.0010  121.7600   60.3870 C   0  0  0  0  0  0  0  0  0  0  0  0
  128.2870  122.8810   59.9460 C   0  0  0  0  0  0  0  0  0  0  0  0
  127.4910  122.8710   58.6710 C   0  0  0  0  0  0  0  0  0  0  0  0
  126.1460  123.2730   58.6580 C   0  0  0  0  0  0  0  0  0  0  0  0
  125.4030  123.2620   57.4790 C   0  0  0  0  0  0  0  0  0  0  0  0
  125.9980  122.8480   56.2930 C   0  0  0  0  0  0  0  0  0  0  0  0
  127.3280  122.4410   56.2770 C   0  0  0  0  0  0  0  0  0  0  0  0
  128.0660  122.4530   57.4570 C   0  0  0  0  0  0  0  0  0  0  0  0
  128.2560  124.0390   60.6600 N   0  0  0  0  0  0  0  0  0  0  0  0
  128.9530  124.0760   61.7950 C   0  0  0  0  0  0  0  0  0  0  0  0
  129.0050  125.5030   62.8040 S   0  0  0  0  0  0  0  0  0  0  0  0
  130.0550  124.6960   63.9670 C   0  0  0  0  0  0  0  0  0  0  0  0
  130.5470  125.4190   65.1380 C   0  0  0  0  0  0  0  0  0  0  0  0
  131.4800  124.9840   65.8170 O   0  0  0  0  0  0  0  0  0  0  0  0
  129.8950  126.5600   65.4430 N   0  0  0  0  0  0  0  0  0  0  0  0
  130.2260  127.4550   66.5520 C   0  0  0  0  0  0  0  0  0  0  0  0
  129.4840  127.1210   67.8410 C   0  0  0  0  0  0  0  0  0  0  0  0
  130.0300  127.4930   69.0730 C   0  0  0  0  0  0  0  0  0  0  0  0
  129.3410  127.2180   70.2510 C   0  0  0  0  0  0  0  0  0  0  0  0
  128.1030  126.5820   70.1930 C   0  0  0  0  0  0  0  0  0  0  0  0
  127.5440  126.2230   68.9680 C   0  0  0  0  0  0  0  0  0  0  0  0
  128.2330  126.4990   67.7900 C   0  0  0  0  0  0  0  0  0  0  0  0
  130.3520  123.3850   63.5630 C   0  0  0  0  0  0  0  0  0  0  0  0
  131.1590  122.5320   64.2720 N   0  0  0  0  0  0  0  0  0  0  0  0
  129.7220  123.0030   62.3280 C   0  0  0  0  0  0  0  0  0  0  0  0
  1  2  1  0
  2  3  2  0
  3  4  1  0
  4  5  1  0
  5  6  2  0
  6  7  1  0
  7  8  2  0
  8  9  1  0
  9 10  2  0
  4 11  2  0
 11 12  1  0
 12 13  1  0
 13 14  1  0
 14 15  1  0
 15 16  2  0
 15 17  1  0
 17 18  1  0
 18 19  1  0
 19 20  2  0
 20 21  1  0
 21 22  2  0
 22 23  1  0
 23 24  2  0
 14 25  2  0
 25 26  1  0
 25 27  1  0
 27  2  1  0
 10  5  1  0
 27 12  2  0
 24 19  1  0
M  END
>  <Binding energies>  (61) 
[-8.07]

>  <Ligand effiencies>  (61) 
[-0.269]

>  <Interactions>  (61) 
["V-A:GLU:543:CD:4905, V-A:LEU:475:CD1:4254, V-B:TYR:539:CE2:9845, V-B:TYR:539:CE1:9844, V-B:PRO:540:CA:9852, H-A:TYR:484:OH:4344, V-B:TYR:539:CG:9841, V-B:PRO:540:N:9853, V-B:TYR:539:C:9836, V-B:GLU:543:CD:9877, V-B:HIS:456:CE1:9038, V-A:HIS:456:CE1:4066, V-B:TYR:539:CZ:9846, V-A:GLU:543:CB:4903, V-B:TYR:539:CD1:9842, V-B:ALA:541:CB:9861, V-B:PRO:540:CB:9854, V-B:TYR:539:CD2:9843, V-B:GLU:543:CG:9876, V-B:GLU:543:CB:9875, V-A:TYR:484:CE1:4341, V-A:TYR:484:CZ:4343, V-B:GLU:543:C:9871, V-B:LEU:363:CD1:8157, V-B:ILE:538:CB:9831, V-B:PRO:540:CD:9856, H-A:GLU:543:OE1:4906, H-B:GLU:543:OE1:9878, V-A:LEU:475:CD2:4255, V-B:HIS:456:CD2:9036, V-B:GLY:544:C:9881"]

$$$$
4dj_Grossjean_2025
     RDKit          3D

 25 28  0  0  0  0  0  0  0  0999 V2000
  130.4980  120.4330   61.8790 C   0  0  0  0  0  0  0  0  0  0  0  0
  129.7410  121.6980   61.5030 C   0  0  0  0  0  0  0  0  0  0  0  0
  129.0110  121.6990   60.3080 C   0  0  0  0  0  0  0  0  0  0  0  0
  128.2940  122.8320   59.9040 C   0  0  0  0  0  0  0  0  0  0  0  0
  127.4970  122.8610   58.6310 C   0  0  0  0  0  0  0  0  0  0  0  0
  128.0750  122.4730   57.4110 C   0  0  0  0  0  0  0  0  0  0  0  0
  127.3430  122.4980   56.2270 C   0  0  0  0  0  0  0  0  0  0  0  0
  126.0160  122.9160   56.2450 C   0  0  0  0  0  0  0  0  0  0  0  0
  125.4200  123.3090   57.4380 C   0  0  0  0  0  0  0  0  0  0  0  0
  126.1550  123.2820   58.6190 C   0  0  0  0  0  0  0  0  0  0  0  0
  128.2600  123.9660   60.6550 N   0  0  0  0  0  0  0  0  0  0  0  0
  128.9550  123.9670   61.7920 C   0  0  0  0  0  0  0  0  0  0  0  0
  129.0050  125.3600   62.8490 S   0  0  0  0  0  0  0  0  0  0  0  0
  130.0580  124.5170   63.9870 C   0  0  0  0  0  0  0  0  0  0  0  0
  130.5230  125.1900   65.2010 C   0  0  0  0  0  0  0  0  0  0  0  0
  131.6640  124.9960   65.6310 O   0  0  0  0  0  0  0  0  0  0  0  0
  129.6220  126.0080   65.7970 N   0  0  0  0  0  0  0  0  0  0  0  0
  129.8080  126.7550   66.9520 C   0  0  0  0  0  0  0  0  0  0  0  0
  130.8040  127.5670   67.2370 N   0  0  0  0  0  0  0  0  0  0  0  0
  130.6570  128.1140   68.4280 C   0  0  0  0  0  0  0  0  0  0  0  0
  129.5180  127.7480   69.1380 C   0  0  0  0  0  0  0  0  0  0  0  0
  128.5960  126.6240   68.1850 S   0  0  0  0  0  0  0  0  0  0  0  0
  130.3450  123.2180   63.5430 C   0  0  0  0  0  0  0  0  0  0  0  0
  131.1430  122.3360   64.2280 N   0  0  0  0  0  0  0  0  0  0  0  0
  129.7240  122.8770   62.2910 C   0  0  0  0  0  0  0  0  0  0  0  0
  1  2  1  0
  2  3  2  0
  3  4  1  0
  4  5  1  0
  5  6  2  0
  6  7  1  0
  7  8  2  0
  8  9  1  0
  9 10  2  0
  4 11  2  0
 11 12  1  0
 12 13  1  0
 13 14  1  0
 14 15  1  0
 15 16  2  0
 15 17  1  0
 17 18  1  0
 18 19  2  0
 19 20  1  0
 20 21  2  0
 21 22  1  0
 14 23  2  0
 23 24  1  0
 23 25  1  0
 25  2  1  0
 10  5  1  0
 25 12  2  0
 22 18  1  0
M  END
>  <Binding energies>  (62) 
[-7.35]

>  <Ligand effiencies>  (62) 
[-0.2625]

>  <Interactions>  (62) 
["V-A:LEU:475:CD1:4254, V-B:TYR:539:CE2:9845, V-B:TYR:539:CE1:9844, V-B:PRO:540:CA:9852, H-A:TYR:484:OH:4344, V-B:TYR:539:CG:9841, V-B:PRO:540:N:9853, V-B:TYR:539:C:9836, V-B:GLU:543:CD:9877, V-B:HIS:456:CE1:9038, V-A:HIS:456:CE1:4066, V-B:TYR:539:CZ:9846, V-A:GLU:543:CB:4903, V-B:TYR:539:CD1:9842, V-B:ALA:541:CB:9861, V-B:PRO:540:CB:9854, V-B:TYR:539:CD2:9843, V-B:GLU:543:CG:9876, H-B:GLU:543:OE2:9879, V-B:GLU:543:CB:9875, V-A:TYR:484:CE1:4341, V-A:TYR:484:CZ:4343, V-B:LEU:363:CD1:8157, V-B:ILE:538:CB:9831, H-B:GLU:543:OE1:9878, V-A:LEU:475:CD2:4255, V-A:LEU:475:CG:4253, V-A:GLU:543:C:4899"]

$$$$
4ea_Grossjean_2025
     RDKit          3D

 31 34  0  0  0  0  0  0  0  0999 V2000
  129.0050  122.8410   53.8650 C   0  0  0  0  0  0  0  0  0  0  0  0
  128.5070  123.0940   55.2910 C   0  0  0  0  0  0  0  0  0  0  0  0
  127.7200  121.9910   55.7190 O   0  0  0  0  0  0  0  0  0  0  0  0
  126.6270  122.1720   56.5050 C   0  0  0  0  0  0  0  0  0  0  0  0
  125.5060  121.7400   56.2200 O   0  0  0  0  0  0  0  0  0  0  0  0
  126.9180  122.9510   57.7560 C   0  0  0  0  0  0  0  0  0  0  0  0
  128.0260  122.5980   58.5370 C   0  0  0  0  0  0  0  0  0  0  0  0
  128.3230  123.3000   59.7020 C   0  0  0  0  0  0  0  0  0  0  0  0
  127.5210  124.3670   60.1100 C   0  0  0  0  0  0  0  0  0  0  0  0
  127.9170  125.0020   61.3030 N   0  0  0  0  0  0  0  0  0  0  0  0
  129.1550  125.2800   61.7810 C   0  0  0  0  0  0  0  0  0  0  0  0
  130.2020  124.9970   61.1990 O   0  0  0  0  0  0  0  0  0  0  0  0
  129.1850  125.9620   63.0770 C   0  0  0  0  0  0  0  0  0  0  0  0
  130.4100  125.5440   64.2780 S   0  0  0  0  0  0  0  0  0  0  0  0
  129.7730  126.7180   65.4070 C   0  0  0  0  0  0  0  0  0  0  0  0
  130.3140  126.9020   66.6120 N   0  0  0  0  0  0  0  0  0  0  0  0
  129.7260  127.8430   67.3920 C   0  0  0  0  0  0  0  0  0  0  0  0
  130.3560  128.0360   68.7580 C   0  0  0  0  0  0  0  0  0  0  0  0
  128.6210  128.5950   66.9980 C   0  0  0  0  0  0  0  0  0  0  0  0
  128.0570  128.3990   65.7330 C   0  0  0  0  0  0  0  0  0  0  0  0
  126.8840  129.2060   65.3300 C   0  0  0  0  0  0  0  0  0  0  0  0
  125.6100  128.8830   65.8080 C   0  0  0  0  0  0  0  0  0  0  0  0
  124.5060  129.6430   65.4300 C   0  0  0  0  0  0  0  0  0  0  0  0
  124.6760  130.7260   64.5710 C   0  0  0  0  0  0  0  0  0  0  0  0
  125.9400  131.0540   64.0850 C   0  0  0  0  0  0  0  0  0  0  0  0
  127.0420  130.2930   64.4630 C   0  0  0  0  0  0  0  0  0  0  0  0
  128.6450  127.4210   64.8850 C   0  0  0  0  0  0  0  0  0  0  0  0
  128.3310  126.9690   63.5540 C   0  0  0  0  0  0  0  0  0  0  0  0
  127.2870  127.4900   62.8320 N   0  0  0  0  0  0  0  0  0  0  0  0
  126.4090  124.7270   59.3330 C   0  0  0  0  0  0  0  0  0  0  0  0
  126.1130  124.0240   58.1680 C   0  0  0  0  0  0  0  0  0  0  0  0
  1  2  1  0
  2  3  1  0
  3  4  1  0
  4  5  2  0
  4  6  1  0
  6  7  2  0
  7  8  1  0
  8  9  2  0
  9 10  1  0
 10 11  1  0
 11 12  2  0
 11 13  1  0
 13 14  1  0
 14 15  1  0
 15 16  2  0
 16 17  1  0
 17 18  1  0
 17 19  2  0
 19 20  1  0
 20 21  1  0
 21 22  2  0
 22 23  1  0
 23 24  2  0
 24 25  1  0
 25 26  2  0
 20 27  2  0
 27 28  1  0
 28 29  1  0
  9 30  1  0
 30 31  2  0
 31  6  1  0
 28 13  2  0
 27 15  1  0
 26 21  1  0
M  END
>  <Binding energies>  (63) 
[-9.11]

>  <Ligand effiencies>  (63) 
[-0.26794117647058824]

>  <Interactions>  (63) 
["V-A:GLU:543:CD:4905, V-A:GLU:543:CG:4904, V-B:TYR:539:CE2:9845, V-B:TYR:539:CE1:9844, V-B:PRO:540:CA:9852, V-B:PRO:540:N:9853, V-B:TYR:539:C:9836, V-B:GLU:543:CD:9877, V-B:HIS:456:CE1:9038, V-A:HIS:456:CE1:4066, V-B:TYR:539:CZ:9846, V-A:GLU:543:CB:4903, V-B:TYR:539:CD1:9842, V-B:MET:535:CE:9804, H-B:GLU:543:OE2:9879, H-B:TYR:539:N:9839, V-B:ILE:538:CB:9831, V-B:ILE:538:CA:9829, H-B:ASP:366:OD1:8182, V-B:PRO:540:CD:9856, V-B:GLY:454:CA:9017, V-B:ARG:545:CD:9892, V-B:ARG:545:CZ:9895, H-B:GLU:543:OE1:9878, V-A:GLU:543:C:4899"]

$$$$
4eb_Grossjean_2025
     RDKit          3D

 30 33  0  0  0  0  0  0  0  0999 V2000
  128.1680  122.5860   54.6950 C   0  0  0  0  0  0  0  0  0  0  0  0
  127.7450  121.7870   55.7900 O   0  0  0  0  0  0  0  0  0  0  0  0
  126.6230  122.0990   56.4900 C   0  0  0  0  0  0  0  0  0  0  0  0
  125.4870  121.7770   56.1310 O   0  0  0  0  0  0  0  0  0  0  0  0
  126.9030  122.8740   57.7450 C   0  0  0  0  0  0  0  0  0  0  0  0
  128.0940  122.6370   58.4430 C   0  0  0  0  0  0  0  0  0  0  0  0
  128.3830  123.3390   59.6090 C   0  0  0  0  0  0  0  0  0  0  0  0
  127.4900  124.2920   60.1020 C   0  0  0  0  0  0  0  0  0  0  0  0
  127.8870  124.9400   61.2880 N   0  0  0  0  0  0  0  0  0  0  0  0
  129.1080  125.3760   61.6840 C   0  0  0  0  0  0  0  0  0  0  0  0
  130.1350  125.2640   61.0150 O   0  0  0  0  0  0  0  0  0  0  0  0
  129.1460  126.0150   63.0020 C   0  0  0  0  0  0  0  0  0  0  0  0
  130.3760  125.5550   64.1810 S   0  0  0  0  0  0  0  0  0  0  0  0
  129.7480  126.6930   65.3520 C   0  0  0  0  0  0  0  0  0  0  0  0
  130.2960  126.8360   66.5600 N   0  0  0  0  0  0  0  0  0  0  0  0
  129.7150  127.7520   67.3720 C   0  0  0  0  0  0  0  0  0  0  0  0
  130.3550  127.8980   68.7420 C   0  0  0  0  0  0  0  0  0  0  0  0
  128.6110  128.5200   67.0110 C   0  0  0  0  0  0  0  0  0  0  0  0
  128.0400  128.3670   65.7420 C   0  0  0  0  0  0  0  0  0  0  0  0
  126.8660  129.1910   65.3720 C   0  0  0  0  0  0  0  0  0  0  0  0
  125.5940  128.8540   65.8440 C   0  0  0  0  0  0  0  0  0  0  0  0
  124.4900  129.6290   65.4980 C   0  0  0  0  0  0  0  0  0  0  0  0
  124.6590  130.7410   64.6760 C   0  0  0  0  0  0  0  0  0  0  0  0
  125.9230  131.0830   64.1980 C   0  0  0  0  0  0  0  0  0  0  0  0
  127.0250  130.3070   64.5450 C   0  0  0  0  0  0  0  0  0  0  0  0
  128.6200  127.4160   64.8590 C   0  0  0  0  0  0  0  0  0  0  0  0
  128.2980  127.0090   63.5170 C   0  0  0  0  0  0  0  0  0  0  0  0
  127.2520  127.5560   62.8170 N   0  0  0  0  0  0  0  0  0  0  0  0
  126.2950  124.5370   59.4090 C   0  0  0  0  0  0  0  0  0  0  0  0
  126.0070  123.8330   58.2430 C   0  0  0  0  0  0  0  0  0  0  0  0
  1  2  1  0
  2  3  1  0
  3  4  2  0
  3  5  1  0
  5  6  2  0
  6  7  1  0
  7  8  2  0
  8  9  1  0
  9 10  1  0
 10 11  2  0
 10 12  1  0
 12 13  1  0
 13 14  1  0
 14 15  2  0
 15 16  1  0
 16 17  1  0
 16 18  2  0
 18 19  1  0
 19 20  1  0
 20 21  2  0
 21 22  1  0
 22 23  2  0
 23 24  1  0
 24 25  2  0
 19 26  2  0
 26 27  1  0
 27 28  1  0
  8 29  1  0
 29 30  2  0
 30  5  1  0
 27 12  2  0
 26 14  1  0
 25 20  1  0
M  END
>  <Binding energies>  (64) 
[-8.94]

>  <Ligand effiencies>  (64) 
[-0.2709090909090909]

>  <Interactions>  (64) 
["V-A:GLU:543:CD:4905, V-A:GLU:543:CG:4904, V-B:TYR:539:CE2:9845, V-B:TYR:539:CE1:9844, V-B:PRO:540:CA:9852, V-B:PRO:540:N:9853, V-B:TYR:539:C:9836, V-B:GLU:543:CD:9877, V-B:HIS:456:CE1:9038, V-A:HIS:456:CE1:4066, V-B:TYR:539:CZ:9846, V-A:GLU:543:CB:4903, V-B:TYR:539:CD1:9842, V-B:MET:535:CE:9804, H-B:GLU:543:OE2:9879, H-B:TYR:539:N:9839, V-B:ILE:538:CB:9831, V-B:ILE:538:CA:9829, V-B:ILE:538:CG2:9832, H-B:ASP:366:OD1:8182, V-B:PRO:540:CD:9856, V-B:GLY:454:CA:9017, V-B:ARG:545:CD:9892, V-B:ARG:545:CG:9891, V-B:ARG:545:CZ:9895, H-B:GLU:543:OE1:9878, V-A:GLU:543:C:4899"]

$$$$
8b_Ghoteimi_2023
     RDKit          3D

 34 38  0  0  0  0  0  0  0  0999 V2000
  124.1240  133.7610   61.8380 C   0  0  0  0  0  0  0  0  0  0  0  0
  123.7550  132.9150   62.9220 O   0  0  0  0  0  0  0  0  0  0  0  0
  124.6230  131.9170   63.3220 C   0  0  0  0  0  0  0  0  0  0  0  0
  125.8500  132.3270   63.8370 C   0  0  0  0  0  0  0  0  0  0  0  0
  126.7870  131.3920   64.2650 C   0  0  0  0  0  0  0  0  0  0  0  0
  126.5200  130.0170   64.1870 C   0  0  0  0  0  0  0  0  0  0  0  0
  127.5240  129.0070   64.6440 C   0  0  0  0  0  0  0  0  0  0  0  0
  127.6860  128.6880   65.9960 C   0  0  0  0  0  0  0  0  0  0  0  0
  128.6320  127.7390   66.3960 C   0  0  0  0  0  0  0  0  0  0  0  0
  128.7850  127.4310   67.8370 C   0  0  0  0  0  0  0  0  0  0  0  0
  129.8220  128.0080   68.5730 C   0  0  0  0  0  0  0  0  0  0  0  0
  129.9590  127.7250   69.9290 C   0  0  0  0  0  0  0  0  0  0  0  0
  129.0660  126.8630   70.5680 C   0  0  0  0  0  0  0  0  0  0  0  0
  129.2780  126.6420   71.9150 O   0  0  0  0  0  0  0  0  0  0  0  0
  128.3120  127.1020   72.8550 C   0  0  0  0  0  0  0  0  0  0  0  0
  128.0280  126.2810   69.8250 C   0  0  0  0  0  0  0  0  0  0  0  0
  127.8910  126.5660   68.4680 C   0  0  0  0  0  0  0  0  0  0  0  0
  129.4120  127.1080   65.3910 C   0  0  0  0  0  0  0  0  0  0  0  0
  130.4460  126.1070   65.4420 C   0  0  0  0  0  0  0  0  0  0  0  0
  130.8740  125.5530   66.6220 N   0  0  0  0  0  0  0  0  0  0  0  0
  130.9620  125.7580   64.1850 C   0  0  0  0  0  0  0  0  0  0  0  0
  132.0080  124.7830   63.8670 C   0  0  0  0  0  0  0  0  0  0  0  0
  132.4740  124.0520   64.7450 O   0  0  0  0  0  0  0  0  0  0  0  0
  132.4060  124.7570   62.5700 N   0  0  0  0  0  0  0  0  0  0  0  0
  133.3680  123.9370   61.9970 C   0  0  0  0  0  0  0  0  0  0  0  0
  133.0530  122.8400   61.1950 C   0  0  0  0  0  0  0  0  0  0  0  0
  134.2670  122.3000   60.8360 C   0  0  0  0  0  0  0  0  0  0  0  0
  135.2600  123.0340   61.3900 O   0  0  0  0  0  0  0  0  0  0  0  0
  134.6780  124.0700   62.1230 N   0  0  0  0  0  0  0  0  0  0  0  0
  130.1720  126.6680   62.8970 S   0  0  0  0  0  0  0  0  0  0  0  0
  129.1580  127.5070   64.0480 C   0  0  0  0  0  0  0  0  0  0  0  0
  128.2590  128.4130   63.6650 N   0  0  0  0  0  0  0  0  0  0  0  0
  125.2820  129.6110   63.6710 C   0  0  0  0  0  0  0  0  0  0  0  0
  124.3430  130.5450   63.2420 C   0  0  0  0  0  0  0  0  0  0  0  0
  1  2  1  0
  2  3  1  0
  3  4  2  0
  4  5  1  0
  5  6  2  0
  6  7  1  0
  7  8  2  0
  8  9  1  0
  9 10  1  0
 10 11  2  0
 11 12  1  0
 12 13  2  0
 13 14  1  0
 14 15  1  0
 13 16  1  0
 16 17  2  0
  9 18  2  0
 18 19  1  0
 19 20  1  0
 19 21  2  0
 21 22  1  0
 22 23  2  0
 22 24  1  0
 24 25  1  0
 25 26  1  0
 26 27  2  0
 27 28  1  0
 28 29  1  0
 21 30  1  0
 30 31  1  0
 31 32  2  0
  6 33  1  0
 33 34  2  0
 34  3  1  0
 32  7  1  0
 17 10  1  0
 31 18  1  0
 29 25  2  0
M  END
>  <Binding energies>  (65) 
[-8.56]

>  <Ligand effiencies>  (65) 
[-0.23135135135135138]

>  <Interactions>  (65) 
["V-A:GLU:543:CD:4905, V-B:TYR:539:CE2:9845, H-A:TYR:484:OH:4344, V-B:GLU:543:CD:9877, V-B:HIS:456:CE1:9038, V-A:HIS:456:CE1:4066, V-A:GLU:543:CB:4903, V-A:ASP:366:CG:3209, V-B:LEU:475:CD2:9227, H-A:ASP:366:OD1:3210, V-B:GLU:543:CB:9875, V-A:TYR:484:CZ:4343, V-B:GLU:543:C:9871, V-B:ILE:369:CG2:8205, V-B:ILE:369:CD1:8207, H-A:GLY:454:N:4046, V-B:ASP:366:CG:8181, V-A:ILE:369:CG2:3233, V-A:ILE:369:CG1:3234, V-A:ILE:369:CB:3232, V-B:GLY:454:CA:9017, V-B:ARG:545:CZ:9895, H-B:GLY:454:N:9018, H-A:ASP:366:OD2:3211, V-A:GLU:543:C:4899, V-B:HIS:456:CD2:9036, V-B:GLY:544:C:9881, V-B:LYS:547:CE:9919, H-A:HIS:456:NE2:4067"]

$$$$
9d_Ghoteimi_2023
     RDKit          3D

 38 43  0  0  0  0  0  0  0  0999 V2000
  132.7940  124.2550   64.3380 C   0  0  0  0  0  0  0  0  0  0  0  0
  132.0700  123.0440   64.1780 O   0  0  0  0  0  0  0  0  0  0  0  0
  130.7510  122.9740   64.4970 C   0  0  0  0  0  0  0  0  0  0  0  0
  130.1310  121.9170   64.6390 O   0  0  0  0  0  0  0  0  0  0  0  0
  130.1250  124.3050   64.6560 C   0  0  0  0  0  0  0  0  0  0  0  0
  129.7500  125.2740   63.2310 S   0  0  0  0  0  0  0  0  0  0  0  0
  129.0750  126.5440   64.2240 C   0  0  0  0  0  0  0  0  0  0  0  0
  128.5430  127.6420   63.6870 N   0  0  0  0  0  0  0  0  0  0  0  0
  128.0290  128.5620   64.5450 C   0  0  0  0  0  0  0  0  0  0  0  0
  127.4150  129.7730   63.9190 C   0  0  0  0  0  0  0  0  0  0  0  0
  126.8420  129.7000   62.6450 C   0  0  0  0  0  0  0  0  0  0  0  0
  126.2700  130.8230   62.0520 C   0  0  0  0  0  0  0  0  0  0  0  0
  126.2390  132.0580   62.7190 C   0  0  0  0  0  0  0  0  0  0  0  0
  125.6830  133.1990   62.1290 N   0  0  0  0  0  0  0  0  0  0  0  0
  126.2860  133.8160   60.9300 C   0  0  0  0  0  0  0  0  0  0  0  0
  125.7630  135.2350   60.6290 C   0  0  0  0  0  0  0  0  0  0  0  0
  124.3490  135.2220   60.5360 O   0  0  0  0  0  0  0  0  0  0  0  0
  123.7530  134.7920   61.7490 C   0  0  0  0  0  0  0  0  0  0  0  0
  124.2140  133.3580   62.0890 C   0  0  0  0  0  0  0  0  0  0  0  0
  126.8280  132.1290   63.9890 C   0  0  0  0  0  0  0  0  0  0  0  0
  127.4030  131.0070   64.5800 C   0  0  0  0  0  0  0  0  0  0  0  0
  128.0780  128.3980   65.9320 C   0  0  0  0  0  0  0  0  0  0  0  0
  128.6530  127.2560   66.5010 C   0  0  0  0  0  0  0  0  0  0  0  0
  128.7040  127.1450   67.9830 C   0  0  0  0  0  0  0  0  0  0  0  0
  127.7610  126.3810   68.6730 C   0  0  0  0  0  0  0  0  0  0  0  0
  127.8240  126.2650   70.0600 C   0  0  0  0  0  0  0  0  0  0  0  0
  128.8430  126.8970   70.7900 C   0  0  0  0  0  0  0  0  0  0  0  0
  128.9220  126.8040   72.1810 N   0  0  0  0  0  0  0  0  0  0  0  0
  128.4480  127.9330   73.0040 C   0  0  0  0  0  0  0  0  0  0  0  0
  128.2270  127.5570   74.4850 C   0  0  0  0  0  0  0  0  0  0  0  0
  129.4150  126.9980   75.0270 O   0  0  0  0  0  0  0  0  0  0  0  0
  129.8090  125.8260   74.3290 C   0  0  0  0  0  0  0  0  0  0  0  0
  130.0730  126.1620   72.8450 C   0  0  0  0  0  0  0  0  0  0  0  0
  129.7840  127.6630   70.0860 C   0  0  0  0  0  0  0  0  0  0  0  0
  129.7190  127.7800   68.7010 C   0  0  0  0  0  0  0  0  0  0  0  0
  129.1600  126.2610   65.6200 C   0  0  0  0  0  0  0  0  0  0  0  0
  129.7480  124.9640   65.8330 C   0  0  0  0  0  0  0  0  0  0  0  0
  129.9030  124.4120   67.0790 N   0  0  0  0  0  0  0  0  0  0  0  0
  1  2  1  0
  2  3  1  0
  3  4  2  0
  3  5  1  0
  5  6  1  0
  6  7  1  0
  7  8  2  0
  8  9  1  0
  9 10  1  0
 10 11  2  0
 11 12  1  0
 12 13  2  0
 13 14  1  0
 14 15  1  0
 15 16  1  0
 16 17  1  0
 17 18  1  0
 18 19  1  0
 13 20  1  0
 20 21  2  0
  9 22  2  0
 22 23  1  0
 23 24  1  0
 24 25  2  0
 25 26  1  0
 26 27  2  0
 27 28  1  0
 28 29  1  0
 29 30  1  0
 30 31  1  0
 31 32  1  0
 32 33  1  0
 27 34  1  0
 34 35  2  0
 23 36  2  0
 36 37  1  0
 37 38  1  0
 37  5  2  0
 36  7  1  0
 21 10  1  0
 35 24  1  0
 19 14  1  0
 33 28  1  0
M  END
>  <Binding energies>  (66) 
[-9.08]

>  <Ligand effiencies>  (66) 
[-0.227]

>  <Interactions>  (66) 
["V-A:GLU:543:CD:4905, V-A:GLU:543:CG:4904, H-A:TYR:484:OH:4344, V-B:GLU:543:CD:9877, V-B:HIS:456:CE1:9038, V-A:HIS:456:CE1:4066, V-A:GLU:543:CB:4903, V-A:TYR:539:CD2:4871, V-B:GLU:543:CG:9876, V-B:LEU:475:CD2:9227, V-B:TRP:381:CH2:8340, V-B:GLU:543:CB:9875, V-A:TYR:484:CE1:4341, V-A:TYR:484:CZ:4343, V-B:GLU:543:CA:9873, V-B:GLU:543:C:9871, V-B:ILE:369:CG2:8205, V-B:TRP:381:CZ2:8338, V-B:ILE:369:CD1:8207, V-A:GLY:454:CA:4045, V-B:GLY:454:CA:9017, V-A:HIS:456:CD2:4064, V-B:HIS:456:CD2:9036, V-A:LYS:547:CE:4947, V-B:GLY:544:C:9881, V-B:LYS:547:CE:9919, H-A:LYS:547:NZ:4948, H-A:HIS:456:NE2:4067, V-B:SER:385:C:8373, H-B:GLU:543:O:9872"]

$$$$
RR10_Rahimova_2017
     RDKit          3D

 34 38  0  0  0  0  0  0  0  0999 V2000
  131.3610  124.3470   64.7460 C   0  0  0  0  0  0  0  0  0  0  0  0
  130.9060  125.1310   65.9900 C   0  0  1  0  0  0  0  0  0  0  0  0
  131.0120  126.6590   65.7780 C   0  0  0  0  0  0  0  0  0  0  0  0
  130.5840  127.4250   67.0510 C   0  0  0  0  0  0  0  0  0  0  0  0
  129.1390  127.0720   67.4880 C   0  0  1  0  0  0  0  0  0  0  0  0
  128.1620  127.5810   66.5160 N   0  0  0  0  0  0  0  0  0  0  0  0
  127.9360  128.8790   66.2450 C   0  0  0  0  0  0  0  0  0  0  0  0
  128.5580  129.7970   66.7850 O   0  0  0  0  0  0  0  0  0  0  0  0
  126.8280  129.1900   65.2170 C   0  0  1  0  0  0  0  0  0  0  0  0
  125.4420  128.9140   65.8540 C   0  0  0  0  0  0  0  0  0  0  0  0
  124.3260  129.3130   64.8580 C   0  0  0  0  0  0  0  0  0  0  0  0
  124.4970  130.7540   64.3230 C   0  0  0  0  0  0  0  0  0  0  0  0
  125.8710  130.9560   63.7890 N   0  0  0  0  0  0  0  0  0  0  0  0
  126.0910  132.4630   62.8830 S   0  0  0  0  0  0  0  0  0  0  0  0
  127.5120  132.8250   62.9380 O   0  0  0  0  0  0  0  0  0  0  0  0
  125.0670  133.4140   63.3340 O   0  0  0  0  0  0  0  0  0  0  0  0
  125.7330  132.0370   61.1780 C   0  0  0  0  0  0  0  0  0  0  0  0
  124.4080  131.8150   60.7910 C   0  0  0  0  0  0  0  0  0  0  0  0
  124.0630  131.4780   59.4790 C   0  0  0  0  0  0  0  0  0  0  0  0
  125.1140  131.3760   58.5650 C   0  0  0  0  0  0  0  0  0  0  0  0
  125.1850  131.0700   57.2260 N   0  0  0  0  0  0  0  0  0  0  0  0
  126.5110  131.1200   56.8490 C   0  0  0  0  0  0  0  0  0  0  0  0
  126.9900  130.8340   55.4550 C   0  0  0  0  0  0  0  0  0  0  0  0
  128.0480  131.5690   54.9030 C   0  0  0  0  0  0  0  0  0  0  0  0
  128.4950  131.3030   53.6120 C   0  0  0  0  0  0  0  0  0  0  0  0
  127.8850  130.2990   52.8630 C   0  0  0  0  0  0  0  0  0  0  0  0
  126.8340  129.5600   53.3970 C   0  0  0  0  0  0  0  0  0  0  0  0
  126.3870  129.8270   54.6890 C   0  0  0  0  0  0  0  0  0  0  0  0
  127.2970  131.4430   57.8530 N   0  0  0  0  0  0  0  0  0  0  0  0
  126.4630  131.6050   58.9270 C   0  0  0  0  0  0  0  0  0  0  0  0
  126.7780  131.9440   60.2510 C   0  0  0  0  0  0  0  0  0  0  0  0
  126.9390  130.6720   64.7800 C   0  0  0  0  0  0  0  0  0  0  0  0
  129.0440  125.5340   67.6790 C   0  0  0  0  0  0  0  0  0  0  0  0
  129.4630  124.7640   66.4070 C   0  0  0  0  0  0  0  0  0  0  0  0
  2  1  1  6
  2  3  1  0
  3  4  1  0
  4  5  1  0
  5  6  1  6
  6  7  1  0
  7  8  2  0
  9  7  1  1
  9 10  1  0
 10 11  1  0
 11 12  1  0
 12 13  1  0
 13 14  1  0
 14 15  2  0
 14 16  2  0
 14 17  1  0
 17 18  2  0
 18 19  1  0
 19 20  2  0
 20 21  1  0
 21 22  1  0
 22 23  1  0
 23 24  2  0
 24 25  1  0
 25 26  2  0
 26 27  1  0
 27 28  2  0
 22 29  2  0
 29 30  1  0
 30 31  2  0
 13 32  1  0
  5 33  1  0
 33 34  1  0
 34  2  1  0
 32  9  1  0
 31 17  1  0
 30 20  1  0
 28 23  1  0
M  END
>  <Binding energies>  (67) 
[-10.3]

>  <Ligand effiencies>  (67) 
[-0.28611111111111115]

>  <Interactions>  (67) 
["V-A:GLU:543:CD:4905, V-A:GLU:543:CG:4904, V-B:GLU:543:CD:9877, V-B:HIS:456:CE1:9038, H-B:TYR:531:OH:9764, V-A:HIS:456:CE1:4066, V-A:GLU:543:CB:4903, V-B:MET:535:CE:9804, V-B:GLU:543:CG:9876, V-A:TYR:539:CE2:4873, V-B:LEU:475:CD2:9227, V-B:GLU:543:CB:9875, V-A:TYR:484:CE1:4341, V-A:TYR:484:CZ:4343, V-B:GLU:543:CA:9873, V-B:GLU:543:C:9871, H-B:TYR:484:OH:9316, V-B:ILE:369:CG2:8205, V-A:ILE:538:CD1:4862, V-B:LYS:534:CE:9791, V-A:TYR:539:CZ:4874, V-B:ILE:369:CD1:8207, V-B:ASP:366:CB:8180, V-B:ASP:366:CG:8181, V-B:TYR:531:CE1:9761, H-A:TYR:539:OH:4875, V-B:ASP:366:CA:8178, V-B:TYR:531:CZ:9763, V-B:ILE:369:CB:8204, V-B:GLY:454:CA:9017, V-B:ARG:545:CD:9892, V-B:ARG:545:CG:9891, V-B:ARG:545:CZ:9895, H-B:GLU:543:OE1:9878, H-B:ASP:366:O:8177"]

$$$$
RR12_Rahimova_2017
     RDKit          3D

 26 28  0  0  0  0  0  0  0  0999 V2000
  127.4880  135.9760   60.9950 C   0  0  0  0  0  0  0  0  0  0  0  0
  126.3750  134.9750   60.6580 C   0  0  0  0  0  0  0  0  0  0  0  0
  126.7190  133.5390   61.0920 C   0  0  0  0  0  0  0  0  0  0  0  0
  127.0130  132.7030   59.9310 N   0  0  0  0  0  0  0  0  0  0  0  0
  128.2550  132.2590   59.5030 C   0  0  0  0  0  0  0  0  0  0  0  0
  129.5650  132.6250   60.1800 C   0  0  0  0  0  0  0  0  0  0  0  0
  130.3730  131.3850   60.6050 C   0  0  0  0  0  0  0  0  0  0  0  0
  131.2700  130.8430   59.4760 C   0  0  0  0  0  0  0  0  0  0  0  0
  131.1770  131.6040   58.2310 N   0  0  0  0  0  0  0  0  0  0  0  0
  132.1920  131.8030   57.3700 C   0  0  0  0  0  0  0  0  0  0  0  0
  133.3270  131.3580   57.5500 O   0  0  0  0  0  0  0  0  0  0  0  0
  131.8520  132.6290   56.1230 C   0  0  0  0  0  0  0  0  0  0  0  0
  130.4600  132.9470   56.1260 O   0  0  0  0  0  0  0  0  0  0  0  0
  129.5790  132.1410   55.4290 C   0  0  0  0  0  0  0  0  0  0  0  0
  128.6460  132.7960   54.6220 C   0  0  0  0  0  0  0  0  0  0  0  0
  127.7200  132.0690   53.8790 C   0  0  0  0  0  0  0  0  0  0  0  0
  127.7270  130.6780   53.9410 C   0  0  0  0  0  0  0  0  0  0  0  0
  128.6500  130.0090   54.7410 C   0  0  0  0  0  0  0  0  0  0  0  0
  129.5750  130.7380   55.4850 C   0  0  0  0  0  0  0  0  0  0  0  0
  128.1970  131.4990   58.4380 N   0  0  0  0  0  0  0  0  0  0  0  0
  126.8640  131.4030   58.1480 C   0  0  0  0  0  0  0  0  0  0  0  0
  126.2350  130.6960   57.1120 C   0  0  0  0  0  0  0  0  0  0  0  0
  124.8430  130.7500   57.0310 C   0  0  0  0  0  0  0  0  0  0  0  0
  124.0910  131.4830   57.9490 C   0  0  0  0  0  0  0  0  0  0  0  0
  124.6880  132.1980   58.9900 C   0  0  0  0  0  0  0  0  0  0  0  0
  126.0850  132.1440   59.0710 C   0  0  0  0  0  0  0  0  0  0  0  0
  1  2  1  0
  2  3  1  0
  3  4  1  0
  4  5  1  0
  5  6  1  0
  6  7  1  0
  7  8  1  0
  8  9  1  0
  9 10  1  0
 10 11  2  0
 10 12  1  0
 12 13  1  0
 13 14  1  0
 14 15  2  0
 15 16  1  0
 16 17  2  0
 17 18  1  0
 18 19  2  0
  5 20  2  0
 20 21  1  0
 21 22  2  0
 22 23  1  0
 23 24  2  0
 24 25  1  0
 25 26  2  0
 26  4  1  0
 19 14  1  0
 26 21  1  0
M  END
>  <Binding energies>  (68) 
[-7.24]

>  <Ligand effiencies>  (68) 
[-0.26814814814814814]

>  <Interactions>  (68) 
["V-A:PRO:540:CA:4880, V-A:TYR:539:CD2:4871, V-A:TYR:539:CE2:4873, V-B:LEU:475:CD2:9227, V-A:ALA:541:CB:4889, V-B:TRP:381:CH2:8340, V-A:PRO:540:C:4878, V-A:TYR:539:C:4864, V-A:PRO:540:N:4881, V-A:PRO:540:CB:4882, V-B:ILE:369:CG2:8205, V-B:TRP:381:CZ2:8338, V-A:ILE:538:CD1:4862, H-A:TYR:539:N:4867, V-A:TYR:539:CZ:4874, V-A:LEU:363:CD1:3185, V-B:ASP:366:CB:8180, V-A:ILE:538:C:4855, V-A:TYR:539:CG:4869, V-A:TYR:539:CD1:4870, V-A:TYR:539:CE1:4872, V-A:ILE:538:CA:4857, H-A:TYR:539:O:4865, V-B:ASP:366:CA:8178, V-B:TYR:531:CZ:9763, V-B:PRO:482:CG:9295, V-B:PRO:482:CB:9294, V-A:ILE:538:CG2:4860, V-B:ILE:369:CB:8204, V-A:PRO:540:CD:4884"]

$$$$
RR13_Rahimova_2017
     RDKit          3D

 48 54  0  0  0  0  0  0  0  0999 V2000
  129.7590  131.8640   60.7680 Cl  0  0  0  0  0  0  0  0  0  0  0  0
  131.1000  131.4050   59.7750 C   0  0  0  0  0  0  0  0  0  0  0  0
  132.3840  131.5550   60.3050 C   0  0  0  0  0  0  0  0  0  0  0  0
  133.5050  131.2230   59.5490 C   0  0  0  0  0  0  0  0  0  0  0  0
  133.3490  130.7410   58.2520 C   0  0  0  0  0  0  0  0  0  0  0  0
  132.0720  130.5880   57.7160 C   0  0  0  0  0  0  0  0  0  0  0  0
  130.9280  130.9060   58.4680 C   0  0  0  0  0  0  0  0  0  0  0  0
  129.5250  130.7520   57.8420 C   0  0  1  0  0  0  0  0  0  0  0  0
  129.4130  131.5510   56.5340 C   0  0  0  0  0  0  0  0  0  0  0  0
  130.1060  132.6190   56.2050 N   0  0  0  0  0  0  0  0  0  0  0  0
  129.6410  133.0030   54.9510 N   0  0  0  0  0  0  0  0  0  0  0  0
  128.6350  132.1520   54.5370 N   0  0  0  0  0  0  0  0  0  0  0  0
  128.4960  131.2800   55.5410 N   0  0  0  0  0  0  0  0  0  0  0  0
  127.5340  130.1880   55.4430 C   0  0  0  0  0  0  0  0  0  0  0  0
  126.1000  130.7450   55.3700 C   0  0  0  0  0  0  0  0  0  0  0  0
  125.5060  130.9840   56.7500 C   0  0  0  0  0  0  0  0  0  0  0  0
  124.1440  131.2650   56.8830 C   0  0  0  0  0  0  0  0  0  0  0  0
  123.6020  131.4900   58.1460 C   0  0  0  0  0  0  0  0  0  0  0  0
  124.4250  131.4340   59.2700 C   0  0  0  0  0  0  0  0  0  0  0  0
  125.7830  131.1560   59.1430 C   0  0  0  0  0  0  0  0  0  0  0  0
  126.3260  130.9300   57.8800 C   0  0  0  0  0  0  0  0  0  0  0  0
  129.1030  129.3400   57.6780 N   0  0  0  0  0  0  0  0  0  0  0  0
  129.3270  128.5860   58.9250 C   0  0  0  0  0  0  0  0  0  0  0  0
  128.7680  127.1490   58.8060 C   0  0  0  0  0  0  0  0  0  0  0  0
  129.4460  126.4160   57.7230 N   0  0  0  0  0  0  0  0  0  0  0  0
  128.9990  125.0070   57.6260 C   0  0  1  0  0  0  0  0  0  0  0  0
  129.2040  124.3370   56.2500 C   0  0  0  0  0  0  0  0  0  0  0  0
  128.1670  123.5240   55.7720 C   0  0  0  0  0  0  0  0  0  0  0  0
  128.2580  122.8930   54.5330 C   0  0  0  0  0  0  0  0  0  0  0  0
  129.3980  123.0600   53.7510 C   0  0  0  0  0  0  0  0  0  0  0  0
  130.4460  123.8500   54.2140 C   0  0  0  0  0  0  0  0  0  0  0  0
  130.3660  124.4840   55.4570 C   0  0  0  0  0  0  0  0  0  0  0  0
  131.7500  125.3870   55.9730 Cl  0  0  0  0  0  0  0  0  0  0  0  0
  129.5670  124.1180   58.7340 C   0  0  0  0  0  0  0  0  0  0  0  0
  130.7390  124.2700   59.3070 N   0  0  0  0  0  0  0  0  0  0  0  0
  130.8330  123.2610   60.2590 N   0  0  0  0  0  0  0  0  0  0  0  0
  129.6800  122.5020   60.2600 N   0  0  0  0  0  0  0  0  0  0  0  0
  128.9050  123.0630   59.3250 N   0  0  0  0  0  0  0  0  0  0  0  0
  127.5910  122.5000   59.0310 C   0  0  0  0  0  0  0  0  0  0  0  0
  126.5370  123.0570   60.0060 C   0  0  0  0  0  0  0  0  0  0  0  0
  125.4580  123.8530   59.2900 C   0  0  0  0  0  0  0  0  0  0  0  0
  125.5240  124.0310   57.9060 C   0  0  0  0  0  0  0  0  0  0  0  0
  124.5320  124.7540   57.2500 C   0  0  0  0  0  0  0  0  0  0  0  0
  123.4760  125.2980   57.9810 C   0  0  0  0  0  0  0  0  0  0  0  0
  123.4050  125.1230   59.3620 C   0  0  0  0  0  0  0  0  0  0  0  0
  124.3960  124.3990   60.0180 C   0  0  0  0  0  0  0  0  0  0  0  0
  129.2150  127.1710   56.4780 C   0  0  0  0  0  0  0  0  0  0  0  0
  129.7850  128.6030   56.6000 C   0  0  0  0  0  0  0  0  0  0  0  0
  1  2  1  0
  2  3  2  0
  3  4  1  0
  4  5  2  0
  5  6  1  0
  6  7  2  0
  7  8  1  0
  8  9  1  0
  9 10  2  0
 10 11  1  0
 11 12  2  0
 12 13  1  0
 13 14  1  0
 14 15  1  0
 15 16  1  0
 16 17  2  0
 17 18  1  0
 18 19  2  0
 19 20  1  0
 20 21  2  0
  8 22  1  6
 22 23  1  0
 23 24  1  0
 24 25  1  0
 26 25  1  6
 26 27  1  0
 27 28  2  0
 28 29  1  0
 29 30  2  0
 30 31  1  0
 31 32  2  0
 32 33  1  0
 26 34  1  0
 34 35  2  0
 35 36  1  0
 36 37  2  0
 37 38  1  0
 38 39  1  0
 39 40  1  0
 40 41  1  0
 41 42  2  0
 42 43  1  0
 43 44  2  0
 44 45  1  0
 45 46  2  0
 25 47  1  0
 47 48  1  0
  7  2  1  0
 13  9  1  0
 21 16  1  0
 48 22  1  0
 32 27  1  0
 38 34  1  0
 46 41  1  0
M  END
>  <Binding energies>  (69) 
[-14.28]

>  <Ligand effiencies>  (69) 
[-0.2975]

>  <Interactions>  (69) 
["V-B:TYR:539:CE2:9845, V-B:TYR:539:CE1:9844, V-B:PRO:540:CA:9852, V-B:PRO:540:N:9853, V-B:TYR:539:C:9836, V-B:TYR:539:CZ:9846, V-B:TYR:539:CD1:9842, V-B:PRO:540:CB:9854, V-B:MET:535:CE:9804, V-A:PRO:540:CA:4880, V-A:TYR:539:CE2:4873, V-A:PRO:540:C:4878, V-A:PRO:540:CB:4882, V-B:ILE:369:CG2:8205, H-A:TYR:539:N:4867, V-A:TYR:539:CZ:4874, V-B:ASP:366:CB:8180, H-B:TYR:539:OH:9847, V-B:LEU:363:CD1:8157, V-B:ASN:362:C:8140, V-B:LEU:363:CA:8153, V-B:ASP:366:CG:8181, V-B:TYR:531:CE1:9761, V-A:LEU:363:CA:3181, V-A:ASN:362:C:3168, V-A:LEU:363:CB:3183, V-B:ILE:538:CB:9831, V-B:ILE:538:CA:9829, V-B:ILE:538:CG2:9832, V-B:ASP:366:C:8176, V-B:ASP:366:CA:8178, V-A:ASN:362:CB:3172, V-B:TYR:531:CZ:9763, V-B:TYR:531:CE2:9762, V-B:PRO:540:C:9850, V-B:ILE:369:CB:8204"]

$$$$
RR14_Rahimova_2017
     RDKit          3D

 39 43  0  0  0  0  0  0  0  0999 V2000
  128.2090  129.3040   66.2680 C   0  0  0  0  0  0  0  0  0  0  0  0
  128.2830  128.0520   66.9420 O   0  0  0  0  0  0  0  0  0  0  0  0
  128.9150  126.9910   66.3230 C   0  0  0  0  0  0  0  0  0  0  0  0
  129.3290  125.9450   67.1490 C   0  0  0  0  0  0  0  0  0  0  0  0
  129.9950  124.8450   66.6190 C   0  0  0  0  0  0  0  0  0  0  0  0
  130.2610  124.7830   65.2490 C   0  0  0  0  0  0  0  0  0  0  0  0
  131.0480  123.6110   64.6740 C   0  0  0  0  0  0  0  0  0  0  0  0
  132.3040  124.0130   64.0410 N   0  0  0  0  0  0  0  0  0  0  0  0
  133.0880  124.9310   64.6160 N   0  0  0  0  0  0  0  0  0  0  0  0
  134.1490  125.0820   63.7450 N   0  0  0  0  0  0  0  0  0  0  0  0
  133.9840  124.2510   62.6420 N   0  0  0  0  0  0  0  0  0  0  0  0
  132.8530  123.6160   62.8400 C   0  0  0  0  0  0  0  0  0  0  0  0
  132.2330  122.6070   61.8830 C   0  0  0  0  0  0  0  0  0  0  0  0
  131.1170  123.1760   61.1110 N   0  0  0  0  0  0  0  0  0  0  0  0
  131.5800  123.8550   59.8940 C   0  0  0  0  0  0  0  0  0  0  0  0
  130.9790  125.2660   59.7120 C   0  0  0  0  0  0  0  0  0  0  0  0
  129.9150  125.3470   58.5970 C   0  0  0  0  0  0  0  0  0  0  0  0
  130.4910  125.4460   57.2520 N   0  0  0  0  0  0  0  0  0  0  0  0
  129.9890  124.3580   56.4010 C   0  0  0  0  0  0  0  0  0  0  0  0
  130.6160  124.4020   54.9920 C   0  0  0  0  0  0  0  0  0  0  0  0
  132.0370  124.4020   55.0880 O   0  0  0  0  0  0  0  0  0  0  0  0
  132.5280  125.5200   55.8170 C   0  0  0  0  0  0  0  0  0  0  0  0
  131.9600  125.5090   57.2530 C   0  0  0  0  0  0  0  0  0  0  0  0
  130.1460  122.1240   60.7750 C   0  0  0  0  0  0  0  0  0  0  0  0
  128.7560  122.6010   60.3600 C   0  0  0  0  0  0  0  0  0  0  0  0
  128.3320  122.4870   59.0780 C   0  0  0  0  0  0  0  0  0  0  0  0
  127.0080  122.9760   58.6410 C   0  0  0  0  0  0  0  0  0  0  0  0
  126.5280  122.8560   57.3260 C   0  0  0  0  0  0  0  0  0  0  0  0
  127.3560  122.1960   56.2320 C   0  0  0  0  0  0  0  0  0  0  0  0
  125.2580  123.3510   57.0180 C   0  0  0  0  0  0  0  0  0  0  0  0
  124.4730  123.9570   57.9980 C   0  0  0  0  0  0  0  0  0  0  0  0
  124.9410  124.0800   59.3090 C   0  0  0  0  0  0  0  0  0  0  0  0
  124.0590  124.7450   60.3580 C   0  0  0  0  0  0  0  0  0  0  0  0
  126.2150  123.5860   59.6300 C   0  0  0  0  0  0  0  0  0  0  0  0
  126.7300  123.6900   60.9400 N   0  0  0  0  0  0  0  0  0  0  0  0
  127.9360  123.2560   61.3840 C   0  0  0  0  0  0  0  0  0  0  0  0
  128.2660  123.4270   62.5570 O   0  0  0  0  0  0  0  0  0  0  0  0
  129.8250  125.8100   64.4100 C   0  0  0  0  0  0  0  0  0  0  0  0
  129.1590  126.9110   64.9420 C   0  0  0  0  0  0  0  0  0  0  0  0
  1  2  1  0
  2  3  1  0
  3  4  2  0
  4  5  1  0
  5  6  2  0
  6  7  1  0
  7  8  1  0
  8  9  1  0
  9 10  2  0
 10 11  1  0
 11 12  2  0
 12 13  1  0
 13 14  1  0
 14 15  1  0
 15 16  1  0
 16 17  1  0
 17 18  1  0
 18 19  1  0
 19 20  1  0
 20 21  1  0
 21 22  1  0
 22 23  1  0
 14 24  1  0
 24 25  1  0
 25 26  2  0
 26 27  1  0
 27 28  2  0
 28 29  1  0
 28 30  1  0
 30 31  2  0
 31 32  1  0
 32 33  1  0
 32 34  2  0
 34 35  1  0
 35 36  1  0
 36 37  2  0
  6 38  1  0
 38 39  2  0
 39  3  1  0
 12  8  1  0
 23 18  1  0
 36 25  1  0
 34 27  1  0
M  END
>  <Binding energies>  (70) 
[-11.34]

>  <Ligand effiencies>  (70) 
[-0.2835]

>  <Interactions>  (70) 
["V-A:GLU:543:CD:4905, V-A:GLU:543:CG:4904, V-A:LEU:475:CD1:4254, V-B:TYR:539:CE2:9845, V-B:TYR:539:CE1:9844, V-B:PRO:540:CA:9852, H-A:TYR:484:OH:4344, V-B:PRO:540:N:9853, V-B:TYR:539:C:9836, V-B:GLU:543:CD:9877, V-B:HIS:456:CE1:9038, V-A:HIS:456:CE1:4066, V-B:TYR:539:CZ:9846, V-A:GLU:543:CB:4903, V-B:TYR:539:CD1:9842, V-B:ALA:541:CB:9861, V-B:PRO:540:CB:9854, V-B:MET:535:CE:9804, V-B:TYR:539:CD2:9843, V-A:ASP:366:CG:3209, V-A:ASP:366:CB:3208, V-B:GLU:543:CG:9876, H-B:GLU:543:OE2:9879, V-B:GLU:543:CB:9875, V-A:TYR:484:CE1:4341, V-A:TYR:484:CZ:4343, V-B:ASN:362:CB:8144, H-A:GLY:454:N:4046, H-B:TYR:539:OH:9847, V-B:LEU:363:CD1:8157, V-B:ASN:362:C:8140, V-B:ASP:366:CG:8181, V-B:ILE:538:CB:9831, V-B:ILE:538:CA:9829, V-A:TYR:531:CE1:4789, V-A:ASP:366:C:3204, V-A:GLY:454:CA:4045, H-A:ARG:545:NH1:4924, H-A:ARG:545:NH2:4925, H-A:ARG:545:NE:4921"]

$$$$
RR15_Rahimova_2017
     RDKit          3D

 45 49  0  0  0  0  0  0  0  0999 V2000
  124.8630  124.0150   56.1700 C   0  0  0  0  0  0  0  0  0  0  0  0
  125.4340  122.8410   56.7360 O   0  0  0  0  0  0  0  0  0  0  0  0
  126.1720  122.9360   57.9040 C   0  0  0  0  0  0  0  0  0  0  0  0
  125.7040  123.5600   59.0700 C   0  0  0  0  0  0  0  0  0  0  0  0
  126.4990  123.6240   60.2120 C   0  0  0  0  0  0  0  0  0  0  0  0
  127.7830  123.0700   60.2210 C   0  0  0  0  0  0  0  0  0  0  0  0
  128.6450  123.1440   61.4520 C   0  0  0  0  0  0  0  0  0  0  0  0
  129.5530  122.2260   61.7530 N   0  0  0  0  0  0  0  0  0  0  0  0
  130.1250  122.6290   62.9410 N   0  0  0  0  0  0  0  0  0  0  0  0
  129.5150  123.7850   63.2070 N   0  0  0  0  0  0  0  0  0  0  0  0
  129.7050  124.4880   64.4750 C   0  0  0  0  0  0  0  0  0  0  0  0
  130.5390  125.7900   64.3770 C   0  0  0  0  0  0  0  0  0  0  0  0
  131.4720  125.9440   65.1680 O   0  0  0  0  0  0  0  0  0  0  0  0
  130.2450  126.7110   63.4090 N   0  0  0  0  0  0  0  0  0  0  0  0
  129.1640  127.7000   63.5940 C   0  0  0  0  0  0  0  0  0  0  0  0
  127.8580  127.3310   62.8580 C   0  0  0  0  0  0  0  0  0  0  0  0
  127.1920  128.5000   62.0930 C   0  0  0  0  0  0  0  0  0  0  0  0
  126.4740  129.4390   62.9600 N   0  0  0  0  0  0  0  0  0  0  0  0
  125.4460  130.2200   62.2560 C   0  0  0  0  0  0  0  0  0  0  0  0
  124.6620  131.1290   63.2280 C   0  0  0  0  0  0  0  0  0  0  0  0
  124.1170  130.3560   64.2920 O   0  0  0  0  0  0  0  0  0  0  0  0
  125.1210  129.6800   65.0410 C   0  0  0  0  0  0  0  0  0  0  0  0
  125.9150  128.7290   64.1190 C   0  0  0  0  0  0  0  0  0  0  0  0
  131.0920  126.9280   62.1960 C   0  0  2  0  0  0  0  0  0  0  0  0
  130.3820  127.7260   61.0580 C   0  0  0  0  0  0  0  0  0  0  0  0
  129.6180  127.1680   60.2710 O   0  0  0  0  0  0  0  0  0  0  0  0
  130.6310  129.0470   61.0320 N   0  0  0  0  0  0  0  0  0  0  0  0
  130.0050  130.0070   60.1290 C   0  0  0  0  0  0  0  0  0  0  0  0
  130.8750  131.2670   59.9650 C   0  0  2  0  0  0  0  0  0  0  0  0
  132.1460  131.0840   59.1180 C   0  0  0  0  0  0  0  0  0  0  0  0
  133.2610  130.9640   60.1290 C   0  0  0  0  0  0  0  0  0  0  0  0
  132.7620  131.8790   61.2340 C   0  0  0  0  0  0  0  0  0  0  0  0
  131.3700  131.5830   61.2730 O   0  0  0  0  0  0  0  0  0  0  0  0
  131.8130  125.6420   61.8070 C   0  0  0  0  0  0  0  0  0  0  0  0
  131.3790  124.9640   60.6610 C   0  0  0  0  0  0  0  0  0  0  0  0
  131.9990  123.7850   60.2580 C   0  0  0  0  0  0  0  0  0  0  0  0
  133.0620  123.2750   60.9980 C   0  0  0  0  0  0  0  0  0  0  0  0
  133.6650  122.1300   60.6070 F   0  0  0  0  0  0  0  0  0  0  0  0
  133.5080  123.9370   62.1390 C   0  0  0  0  0  0  0  0  0  0  0  0
  132.8870  125.1160   62.5420 C   0  0  0  0  0  0  0  0  0  0  0  0
  128.5610  124.1250   62.3320 N   0  0  0  0  0  0  0  0  0  0  0  0
  128.2470  122.4450   59.0560 C   0  0  0  0  0  0  0  0  0  0  0  0
  127.4550  122.3700   57.8970 C   0  0  0  0  0  0  0  0  0  0  0  0
  127.8670  121.7610   56.7240 O   0  0  0  0  0  0  0  0  0  0  0  0
  128.0920  122.5530   55.5630 C   0  0  0  0  0  0  0  0  0  0  0  0
  1  2  1  0
  2  3  1  0
  3  4  2  0
  4  5  1  0
  5  6  2  0
  6  7  1  0
  7  8  1  0
  8  9  2  0
  9 10  1  0
 10 11  1  0
 11 12  1  0
 12 13  2  0
 12 14  1  0
 14 15  1  0
 15 16  1  0
 16 17  1  0
 17 18  1  0
 18 19  1  0
 19 20  1  0
 20 21  1  0
 21 22  1  0
 22 23  1  0
 24 14  1  1
 24 25  1  0
 25 26  2  0
 25 27  1  0
 27 28  1  0
 29 28  1  1
 29 30  1  0
 30 31  1  0
 31 32  1  0
 32 33  1  0
 24 34  1  0
 34 35  2  0
 35 36  1  0
 36 37  2  0
 37 38  1  0
 37 39  1  0
 39 40  2  0
 10 41  1  0
  6 42  1  0
 42 43  2  0
 43 44  1  0
 44 45  1  0
 43  3  1  0
 41  7  2  0
 23 18  1  0
 33 29  1  0
 40 34  1  0
M  END
>  <Binding energies>  (71) 
[-9.71]

>  <Ligand effiencies>  (71) 
[-0.21108695652173914]

>  <Interactions>  (71) 
["V-A:GLU:543:CD:4905, V-B:TYR:539:CE2:9845, V-B:TYR:539:CE1:9844, V-B:PRO:540:CA:9852, V-B:PRO:540:N:9853, V-B:TYR:539:C:9836, V-B:GLU:543:CD:9877, V-B:TYR:539:CZ:9846, V-B:TYR:539:CD1:9842, V-B:ALA:541:CB:9861, V-B:PRO:540:CB:9854, V-B:MET:535:CE:9804, V-B:TYR:539:CD2:9843, V-A:PRO:540:CA:4880, V-A:ASP:366:CG:3209, V-B:GLU:543:CG:9876, H-A:ASP:366:OD1:3210, V-A:PRO:540:C:4878, V-A:PRO:540:CB:4882, H-B:TYR:484:OH:9316, H-A:ALA:541:N:4888, V-B:LEU:363:CD1:8157, V-A:ARG:545:CZ:4923, V-B:ASP:366:CG:8181, V-A:LEU:363:CA:3181, V-A:ASN:362:C:3168, H-B:TYR:539:N:9839, V-B:ILE:538:CA:9829, V-A:ASN:362:CB:3172, V-B:TYR:531:CE2:9762, V-A:ILE:369:CG2:3233, V-A:ILE:369:CG1:3234, V-A:ILE:369:CB:3232, H-A:GLU:543:OE2:4907, H-A:GLU:543:OE1:4906, V-B:ARG:545:CZ:9895, H-B:GLY:454:N:9018"]

$$$$
RR17_Rahimova_2017
     RDKit          3D

 38 41  0  0  0  0  0  0  0  0999 V2000
  123.5860  129.6620   66.4920 C   0  0  0  0  0  0  0  0  0  0  0  0
  124.5030  129.7110   65.2660 C   0  0  0  0  0  0  0  0  0  0  0  0
  123.8190  130.3780   64.2090 O   0  0  0  0  0  0  0  0  0  0  0  0
  124.4840  131.3400   63.4720 C   0  0  0  0  0  0  0  0  0  0  0  0
  125.7280  131.7440   63.9540 C   0  0  0  0  0  0  0  0  0  0  0  0
  126.4700  132.7080   63.2800 C   0  0  0  0  0  0  0  0  0  0  0  0
  125.9800  133.2930   62.1040 C   0  0  0  0  0  0  0  0  0  0  0  0
  126.8040  134.3300   61.3980 C   0  0  0  0  0  0  0  0  0  0  0  0
  126.4830  135.5220   61.3670 O   0  0  0  0  0  0  0  0  0  0  0  0
  128.0840  133.8420   60.6840 C   0  0  0  0  0  0  0  0  0  0  0  0
  127.7210  132.6020   59.3900 S   0  0  0  0  0  0  0  0  0  0  0  0
  129.3440  131.9410   59.1370 C   0  0  0  0  0  0  0  0  0  0  0  0
  130.3080  131.9300   60.0290 N   0  0  0  0  0  0  0  0  0  0  0  0
  131.4150  131.3210   59.4510 N   0  0  0  0  0  0  0  0  0  0  0  0
  131.0770  130.9830   58.2330 C   0  0  0  0  0  0  0  0  0  0  0  0
  131.9950  130.2740   57.2480 C   0  0  0  0  0  0  0  0  0  0  0  0
  132.3000  128.8930   57.6140 N   0  0  0  0  0  0  0  0  0  0  0  0
  131.8800  127.7770   56.8680 C   0  0  0  0  0  0  0  0  0  0  0  0
  130.5210  127.4620   56.8930 C   0  0  0  0  0  0  0  0  0  0  0  0
  130.0390  126.3670   56.1820 C   0  0  0  0  0  0  0  0  0  0  0  0
  130.9120  125.5740   55.4330 C   0  0  0  0  0  0  0  0  0  0  0  0
  130.3670  124.3720   54.6630 C   0  0  0  0  0  0  0  0  0  0  0  0
  129.9980  124.6910   53.4200 F   0  0  0  0  0  0  0  0  0  0  0  0
  131.2900  123.4120   54.5830 F   0  0  0  0  0  0  0  0  0  0  0  0
  129.3030  123.8890   55.3040 F   0  0  0  0  0  0  0  0  0  0  0  0
  132.2740  125.8920   55.4000 C   0  0  0  0  0  0  0  0  0  0  0  0
  132.7550  126.9880   56.1100 C   0  0  0  0  0  0  0  0  0  0  0  0
  129.7770  131.3580   57.9630 N   0  0  0  0  0  0  0  0  0  0  0  0
  129.0530  131.1620   56.7780 C   0  0  0  0  0  0  0  0  0  0  0  0
  128.1470  130.1050   56.6930 C   0  0  0  0  0  0  0  0  0  0  0  0
  127.4310  129.9090   55.5160 C   0  0  0  0  0  0  0  0  0  0  0  0
  127.6200  130.7670   54.4200 C   0  0  0  0  0  0  0  0  0  0  0  0
  126.9550  130.6490   53.2150 O   0  0  0  0  0  0  0  0  0  0  0  0
  126.4840  129.3690   52.8040 C   0  0  0  0  0  0  0  0  0  0  0  0
  128.5340  131.8180   54.5230 C   0  0  0  0  0  0  0  0  0  0  0  0
  129.2520  132.0220   55.6980 C   0  0  0  0  0  0  0  0  0  0  0  0
  124.7290  132.8860   61.6190 C   0  0  0  0  0  0  0  0  0  0  0  0
  123.9870  131.9190   62.2950 C   0  0  0  0  0  0  0  0  0  0  0  0
  1  2  1  0
  2  3  1  0
  3  4  1  0
  4  5  2  0
  5  6  1  0
  6  7  2  0
  7  8  1  0
  8  9  2  0
  8 10  1  0
 10 11  1  0
 11 12  1  0
 12 13  2  0
 13 14  1  0
 14 15  2  0
 15 16  1  0
 16 17  1  0
 17 18  1  0
 18 19  2  0
 19 20  1  0
 20 21  2  0
 21 22  1  0
 22 23  1  0
 22 24  1  0
 22 25  1  0
 21 26  1  0
 26 27  2  0
 15 28  1  0
 28 29  1  0
 29 30  2  0
 30 31  1  0
 31 32  2  0
 32 33  1  0
 33 34  1  0
 32 35  1  0
 35 36  2  0
  7 37  1  0
 37 38  2  0
 38  4  1  0
 28 12  1  0
 36 29  1  0
 27 18  1  0
M  END
>  <Binding energies>  (72) 
[-9.67]

>  <Ligand effiencies>  (72) 
[-0.24794871794871795]

>  <Interactions>  (72) 
["V-B:TYR:539:CE1:9844, V-B:HIS:456:CE1:9038, V-B:TYR:539:CZ:9846, V-B:TYR:539:CD1:9842, V-B:MET:535:CE:9804, V-A:TYR:531:CZ:4791, V-A:PRO:540:CA:4880, V-A:ASP:366:CG:3209, V-A:ASP:366:CB:3208, V-B:LEU:475:CD2:9227, H-A:ASP:366:OD1:3210, V-A:ALA:541:CB:4889, V-A:TYR:539:C:4864, H-A:ALA:541:N:4888, V-A:ILE:538:CD1:4862, V-B:LYS:534:CE:9791, V-A:TYR:539:CZ:4874, V-B:ILE:369:CD1:8207, V-B:TYR:531:CE1:9761, V-A:TYR:531:CE1:4789, V-A:ASP:366:C:3204, H-B:LYS:534:NZ:9792, V-B:LYS:534:CD:9790, V-A:MET:535:CE:4832, V-B:MET:535:CG:9802, V-A:ASP:366:CA:3206, V-B:GLY:454:CA:9017, V-B:ARG:545:CD:9892, V-B:ARG:545:CG:9891, V-B:ARG:545:CZ:9895, V-A:ASN:370:CG:3242, V-A:ASN:370:CB:3241, H-B:GLY:454:N:9018"]

$$$$
RR19_Rahimova_2017
     RDKit          3D

 46 51  0  0  0  0  0  0  0  0999 V2000
  130.6320  131.5350   59.8600 O   0  0  0  0  0  0  0  0  0  0  0  0
  129.6440  130.9320   59.4320 C   0  0  0  0  0  0  0  0  0  0  0  0
  129.4470  129.5900   59.4790 N   0  0  0  0  0  0  0  0  0  0  0  0
  130.0860  128.5730   60.1460 C   0  0  0  0  0  0  0  0  0  0  0  0
  131.2430  128.7680   61.3660 S   0  0  0  0  0  0  0  0  0  0  0  0
  129.6300  127.3730   59.6580 N   0  0  0  0  0  0  0  0  0  0  0  0
  129.8160  126.0870   60.0470 C   0  0  0  0  0  0  0  0  0  0  0  0
  130.3320  125.7090   61.1020 O   0  0  0  0  0  0  0  0  0  0  0  0
  129.3300  125.0410   59.0130 C   0  0  2  0  0  0  0  0  0  0  0  0
  129.8800  125.2440   57.5710 C   0  0  0  0  0  0  0  0  0  0  0  0
  129.3870  124.2390   56.5420 C   0  0  0  0  0  0  0  0  0  0  0  0
  128.3560  123.3270   56.8570 C   0  0  0  0  0  0  0  0  0  0  0  0
  127.8640  122.4710   55.8810 C   0  0  0  0  0  0  0  0  0  0  0  0
  128.3700  122.5190   54.5870 C   0  0  0  0  0  0  0  0  0  0  0  0
  129.3630  123.4320   54.2560 C   0  0  0  0  0  0  0  0  0  0  0  0
  129.8670  124.2980   55.2160 C   0  0  0  0  0  0  0  0  0  0  0  0
  127.8460  124.9230   59.0200 N   0  0  0  0  0  0  0  0  0  0  0  0
  127.2180  123.9040   59.6730 C   0  0  0  0  0  0  0  0  0  0  0  0
  127.7460  122.9740   60.2880 O   0  0  0  0  0  0  0  0  0  0  0  0
  125.7670  124.1510   59.4920 C   0  0  0  0  0  0  0  0  0  0  0  0
  124.6550  123.4340   59.9360 C   0  0  0  0  0  0  0  0  0  0  0  0
  123.3790  123.9120   59.6190 C   0  0  0  0  0  0  0  0  0  0  0  0
  123.2320  125.0890   58.8720 C   0  0  0  0  0  0  0  0  0  0  0  0
  124.3600  125.7940   58.4370 C   0  0  0  0  0  0  0  0  0  0  0  0
  125.6230  125.2990   58.7630 C   0  0  0  0  0  0  0  0  0  0  0  0
  126.9790  125.8180   58.4580 C   0  0  0  0  0  0  0  0  0  0  0  0
  127.2600  126.8450   57.8380 O   0  0  0  0  0  0  0  0  0  0  0  0
  128.4950  131.7270   58.7560 C   0  0  2  0  0  0  0  0  0  0  0  0
  127.1740  131.7470   59.5780 C   0  0  0  0  0  0  0  0  0  0  0  0
  126.8210  133.1110   60.1440 C   0  0  0  0  0  0  0  0  0  0  0  0
  127.8310  133.9350   60.6860 C   0  0  0  0  0  0  0  0  0  0  0  0
  127.5230  135.2220   61.1100 C   0  0  0  0  0  0  0  0  0  0  0  0
  126.2310  135.7130   60.9770 C   0  0  0  0  0  0  0  0  0  0  0  0
  125.2360  134.9270   60.4090 C   0  0  0  0  0  0  0  0  0  0  0  0
  125.5220  133.6370   59.9800 C   0  0  0  0  0  0  0  0  0  0  0  0
  128.2520  131.3260   57.3410 N   0  0  0  0  0  0  0  0  0  0  0  0
  128.8090  132.0040   56.2980 C   0  0  0  0  0  0  0  0  0  0  0  0
  129.5350  132.9970   56.3560 O   0  0  0  0  0  0  0  0  0  0  0  0
  128.3550  131.2910   55.0780 C   0  0  0  0  0  0  0  0  0  0  0  0
  128.6050  131.5390   53.7280 C   0  0  0  0  0  0  0  0  0  0  0  0
  128.0390  130.6860   52.7740 C   0  0  0  0  0  0  0  0  0  0  0  0
  127.2410  129.6070   53.1770 C   0  0  0  0  0  0  0  0  0  0  0  0
  127.0040  129.3730   54.5360 C   0  0  0  0  0  0  0  0  0  0  0  0
  127.5760  130.2380   55.4710 C   0  0  0  0  0  0  0  0  0  0  0  0
  127.5100  130.2470   56.9530 C   0  0  0  0  0  0  0  0  0  0  0  0
  126.9130  129.4500   57.6780 O   0  0  0  0  0  0  0  0  0  0  0  0
  1  2  2  0
  2  3  1  0
  3  4  1  0
  4  5  2  0
  4  6  1  0
  6  7  1  0
  7  8  2  0
  7  9  1  0
  9 10  1  6
 10 11  1  0
 11 12  2  0
 12 13  1  0
 13 14  2  0
 14 15  1  0
 15 16  2  0
  9 17  1  0
 17 18  1  0
 18 19  2  0
 18 20  1  0
 20 21  2  0
 21 22  1  0
 22 23  2  0
 23 24  1  0
 24 25  2  0
 25 26  1  0
 26 27  2  0
  2 28  1  0
 28 29  1  1
 29 30  1  0
 30 31  2  0
 31 32  1  0
 32 33  2  0
 33 34  1  0
 34 35  2  0
 28 36  1  0
 36 37  1  0
 37 38  2  0
 37 39  1  0
 39 40  2  0
 40 41  1  0
 41 42  2  0
 42 43  1  0
 43 44  2  0
 44 45  1  0
 45 46  2  0
 16 11  1  0
 26 17  1  0
 35 30  1  0
 45 36  1  0
 25 20  1  0
 44 39  1  0
M  END
>  <Binding energies>  (73) 
[-10.81]

>  <Ligand effiencies>  (73) 
[-0.22520833333333334]

>  <Interactions>  (73) 
["V-A:GLU:543:CD:4905, V-B:TYR:539:CE1:9844, V-B:PRO:540:CA:9852, H-B:TYR:531:OH:9764, V-B:TYR:539:CZ:9846, V-B:TYR:539:CD1:9842, V-B:PRO:540:CB:9854, V-B:MET:535:CE:9804, V-A:TYR:539:CD2:4871, V-A:ASP:366:CG:3209, V-A:TYR:539:CE2:4873, V-B:LEU:475:CD2:9227, V-A:ALA:541:CB:4889, V-B:TRP:381:CH2:8340, V-B:ILE:369:CG2:8205, V-B:TRP:381:CZ2:8338, V-A:ILE:538:CD1:4862, V-B:LYS:534:CE:9791, H-A:TYR:539:N:4867, V-B:ASP:366:CB:8180, V-B:LEU:363:CD1:8157, V-B:ASN:362:C:8140, V-B:LEU:363:CA:8153, V-B:ASP:366:CG:8181, V-B:TYR:531:CE1:9761, V-B:ILE:538:CB:9831, V-B:ILE:538:CA:9829, V-B:ILE:538:CG2:9832, V-B:TYR:531:CZ:9763, V-B:LEU:363:CB:8155, V-A:MET:535:CG:4830, V-B:TRP:381:CZ3:8339"]

$$$$
RR1_Rahimova_2017
     RDKit          3D

 41 44  0  0  0  0  0  0  0  0999 V2000
  129.6890  123.4900   53.1950 C   0  0  0  0  0  0  0  0  0  0  0  0
  130.6620  123.4170   54.2320 O   0  0  0  0  0  0  0  0  0  0  0  0
  131.0600  124.5770   54.8660 C   0  0  0  0  0  0  0  0  0  0  0  0
  130.1780  125.5260   55.4070 C   0  0  0  0  0  0  0  0  0  0  0  0
  130.6720  126.6720   56.0230 C   0  0  0  0  0  0  0  0  0  0  0  0
  132.0480  126.8870   56.1160 C   0  0  0  0  0  0  0  0  0  0  0  0
  132.4480  128.0960   56.7150 N   0  0  0  0  0  0  0  0  0  0  0  0
  131.8250  128.8280   57.6630 C   0  0  0  0  0  0  0  0  0  0  0  0
  130.7140  128.5730   58.1290 O   0  0  0  0  0  0  0  0  0  0  0  0
  132.6130  130.0570   58.1440 C   0  0  0  0  0  0  0  0  0  0  0  0
  132.4630  131.5450   57.0960 S   0  0  0  0  0  0  0  0  0  0  0  0
  130.7460  131.4040   56.7240 C   0  0  0  0  0  0  0  0  0  0  0  0
  130.2720  130.8930   55.6160 N   0  0  0  0  0  0  0  0  0  0  0  0
  128.9540  130.9750   55.7660 C   0  0  0  0  0  0  0  0  0  0  0  0
  127.9940  130.4820   54.7210 C   0  0  0  0  0  0  0  0  0  0  0  0
  128.2640  129.3340   53.9590 C   0  0  0  0  0  0  0  0  0  0  0  0
  127.3540  128.9020   52.9930 C   0  0  0  0  0  0  0  0  0  0  0  0
  126.1820  129.6340   52.8090 C   0  0  0  0  0  0  0  0  0  0  0  0
  125.8900  130.7480   53.5270 N   0  0  0  0  0  0  0  0  0  0  0  0
  126.7870  131.1510   54.4620 C   0  0  0  0  0  0  0  0  0  0  0  0
  128.5470  131.5160   56.8990 N   0  0  0  0  0  0  0  0  0  0  0  0
  129.6980  131.7950   57.5170 N   0  0  0  0  0  0  0  0  0  0  0  0
  129.6990  132.3980   58.8500 C   0  0  0  0  0  0  0  0  0  0  0  0
  130.2670  131.5050   59.9670 C   0  0  0  0  0  0  0  0  0  0  0  0
  130.9220  131.9920   60.8950 O   0  0  0  0  0  0  0  0  0  0  0  0
  129.9940  130.1920   59.8380 N   0  0  0  0  0  0  0  0  0  0  0  0
  130.3460  129.3460   60.8810 N   0  0  0  0  0  0  0  0  0  0  0  0
  129.6880  128.1710   60.9890 C   0  0  0  0  0  0  0  0  0  0  0  0
  128.8690  127.7580   60.1610 O   0  0  0  0  0  0  0  0  0  0  0  0
  130.0330  127.3360   62.2040 C   0  0  0  0  0  0  0  0  0  0  0  0
  129.2010  127.3620   63.3290 C   0  0  0  0  0  0  0  0  0  0  0  0
  129.5060  126.6120   64.4600 C   0  0  0  0  0  0  0  0  0  0  0  0
  130.6610  125.8150   64.5040 C   0  0  0  0  0  0  0  0  0  0  0  0
  131.0280  125.0560   65.6020 O   0  0  0  0  0  0  0  0  0  0  0  0
  130.0710  124.7880   66.6200 C   0  0  0  0  0  0  0  0  0  0  0  0
  131.5110  125.7800   63.3910 C   0  0  0  0  0  0  0  0  0  0  0  0
  132.6470  124.9950   63.4920 O   0  0  0  0  0  0  0  0  0  0  0  0
  133.1950  124.3950   62.3230 C   0  0  0  0  0  0  0  0  0  0  0  0
  131.1880  126.5380   62.2510 C   0  0  0  0  0  0  0  0  0  0  0  0
  132.9330  125.9400   55.5770 C   0  0  0  0  0  0  0  0  0  0  0  0
  132.4350  124.7950   54.9620 C   0  0  0  0  0  0  0  0  0  0  0  0
  1  2  1  0
  2  3  1  0
  3  4  2  0
  4  5  1  0
  5  6  2  0
  6  7  1  0
  7  8  1  0
  8  9  2  0
  8 10  1  0
 10 11  1  0
 11 12  1  0
 12 13  2  0
 13 14  1  0
 14 15  1  0
 15 16  2  0
 16 17  1  0
 17 18  2  0
 18 19  1  0
 19 20  2  0
 14 21  2  0
 21 22  1  0
 22 23  1  0
 23 24  1  0
 24 25  2  0
 24 26  1  0
 26 27  1  0
 27 28  1  0
 28 29  2  0
 28 30  1  0
 30 31  2  0
 31 32  1  0
 32 33  2  0
 33 34  1  0
 34 35  1  0
 33 36  1  0
 36 37  1  0
 37 38  1  0
 36 39  2  0
  6 40  1  0
 40 41  2  0
 41  3  1  0
 22 12  1  0
 39 30  1  0
 20 15  1  0
M  END
>  <Binding energies>  (74) 
[-8.55]

>  <Ligand effiencies>  (74) 
[-0.19431818181818183]

>  <Interactions>  (74) 
["V-A:GLU:543:CD:4905, V-B:TYR:539:CE1:9844, H-A:TYR:484:OH:4344, V-B:GLU:543:CD:9877, V-A:HIS:456:CE1:4066, V-B:TYR:539:CZ:9846, V-B:MET:535:CE:9804, V-A:TYR:531:CZ:4791, V-A:PRO:540:CA:4880, V-A:ASP:366:CG:3209, V-A:ASP:366:CB:3208, V-B:GLU:543:CG:9876, V-A:TYR:539:CE2:4873, H-A:TYR:531:OH:4792, V-A:TYR:539:C:4864, V-B:GLU:543:CB:9875, V-A:PRO:540:N:4881, V-A:TYR:484:CE1:4341, V-A:TYR:484:CZ:4343, H-A:ALA:541:N:4888, V-B:LYS:534:CE:9791, V-A:TYR:539:CZ:4874, H-B:TYR:539:OH:9847, V-A:ARG:545:CZ:4923, V-B:TYR:531:CE1:9761, H-A:TYR:539:OH:4875, V-A:TYR:539:CE1:4872, V-A:TYR:531:CE1:4789, V-A:ASP:366:C:3204, H-B:LYS:534:NZ:9792, V-B:LYS:534:CD:9790, V-B:TYR:531:CZ:9763, V-A:MET:535:CE:4832, V-B:MET:535:CG:9802, V-A:ASP:366:CA:3206, H-A:GLU:543:OE2:4907, H-A:GLU:543:OE1:4906, V-A:ASN:370:CG:3242, V-A:ASN:370:CB:3241, H-A:ARG:545:NH2:4925, V-B:TYR:531:CD1:9759"]

$$$$
RR22_Rahimova_2017
     RDKit          3D

 31 36  0  0  0  0  0  0  0  0999 V2000
  132.7540  124.5300   54.6280 O   0  0  0  0  0  0  0  0  0  0  0  0
  131.8320  124.7740   55.4030 C   0  0  0  0  0  0  0  0  0  0  0  0
  131.9020  125.4390   56.6150 N   0  0  0  0  0  0  0  0  0  0  0  0
  130.7160  125.6970   57.3730 C   0  0  1  0  0  0  0  0  0  0  0  0
  130.9610  125.1220   58.6600 O   0  0  0  0  0  0  0  0  0  0  0  0
  130.9260  125.9570   59.7770 C   0  0  0  0  0  0  0  0  0  0  0  0
  131.5190  125.4660   60.9400 C   0  0  0  0  0  0  0  0  0  0  0  0
  131.4880  126.2260   62.1090 C   0  0  0  0  0  0  0  0  0  0  0  0
  130.8580  127.4710   62.1150 C   0  0  0  0  0  0  0  0  0  0  0  0
  130.2640  127.9630   60.9510 C   0  0  0  0  0  0  0  0  0  0  0  0
  130.3090  127.2220   59.7660 C   0  0  0  0  0  0  0  0  0  0  0  0
  129.6600  127.6450   58.4670 C   0  0  1  0  0  0  0  0  0  0  0  0
  129.5280  129.0980   58.0580 C   0  0  0  0  0  0  0  0  0  0  0  0
  129.5820  128.9470   56.5350 C   0  0  0  0  0  0  0  0  0  0  0  0
  129.1160  130.0010   55.6120 C   0  0  0  0  0  0  0  0  0  0  0  0
  128.3840  129.6680   54.4620 C   0  0  0  0  0  0  0  0  0  0  0  0
  127.9450  130.6660   53.5950 C   0  0  0  0  0  0  0  0  0  0  0  0
  128.2350  131.9990   53.8710 C   0  0  0  0  0  0  0  0  0  0  0  0
  128.9610  132.3450   55.0090 C   0  0  0  0  0  0  0  0  0  0  0  0
  129.3990  131.3490   55.8770 C   0  0  0  0  0  0  0  0  0  0  0  0
  130.0970  127.8240   56.2010 N   0  0  0  0  0  0  0  0  0  0  0  0
  130.4430  127.1420   57.3790 N   0  0  0  0  0  0  0  0  0  0  0  0
  129.6020  124.8870   56.7270 C   0  0  0  0  0  0  0  0  0  0  0  0
  128.4340  124.6090   57.3540 C   0  0  0  0  0  0  0  0  0  0  0  0
  127.2710  123.8590   56.8410 C   0  0  0  0  0  0  0  0  0  0  0  0
  125.9940  124.4220   56.7060 C   0  0  0  0  0  0  0  0  0  0  0  0
  124.9400  123.6500   56.2130 C   0  0  0  0  0  0  0  0  0  0  0  0
  125.1920  122.3210   55.8720 C   0  0  0  0  0  0  0  0  0  0  0  0
  126.4140  121.7480   56.0000 N   0  0  0  0  0  0  0  0  0  0  0  0
  127.4270  122.5160   56.4790 C   0  0  0  0  0  0  0  0  0  0  0  0
  130.0970  124.3030   55.1320 S   0  0  0  0  0  0  0  0  0  0  0  0
  1  2  2  0
  2  3  1  0
  4  3  1  6
  4  5  1  0
  5  6  1  0
  6  7  2  0
  7  8  1  0
  8  9  2  0
  9 10  1  0
 10 11  2  0
 11 12  1  0
 12 13  1  1
 13 14  1  0
 14 15  1  0
 15 16  2  0
 16 17  1  0
 17 18  2  0
 18 19  1  0
 19 20  2  0
 14 21  2  0
 21 22  1  0
  4 23  1  0
 23 24  2  0
 24 25  1  0
 25 26  2  0
 26 27  1  0
 27 28  2  0
 28 29  1  0
 29 30  2  0
 23 31  1  0
 31  2  1  0
 22  4  1  0
 30 25  1  0
 11  6  1  0
 22 12  1  0
 20 15  1  0
M  END
>  <Binding energies>  (75) 
[-9.18]

>  <Ligand effiencies>  (75) 
[-0.286875]

>  <Interactions>  (75) 
["V-A:GLU:543:CD:4905, V-B:TYR:539:CE1:9844, V-B:PRO:540:N:9853, V-B:TYR:539:CZ:9846, V-B:TYR:539:CD1:9842, V-B:PRO:540:CB:9854, V-B:MET:535:CE:9804, V-A:ASP:366:CG:3209, V-A:ASP:366:CB:3208, H-A:TYR:531:OH:4792, V-A:ILE:538:CD1:4862, V-B:LYS:534:CE:9791, V-A:TYR:539:CZ:4874, H-B:TYR:539:OH:9847, V-B:LEU:363:CD1:8157, V-A:ARG:545:CZ:4923, V-A:TYR:539:CE1:4872, V-A:ILE:538:CA:4857, H-B:TYR:539:N:9839, V-B:ILE:538:CB:9831, V-B:ILE:538:CG2:9832, V-B:PRO:540:CD:9856, H-A:ASP:366:O:3205, V-B:PRO:540:CG:9855, V-B:ILE:538:CD1:9834"]

$$$$
RR24_Rahimova_2017
     RDKit          3D

 43 49  0  0  0  0  0  0  0  0999 V2000
  128.1060  133.7480   60.9670 C   0  0  0  0  0  0  0  0  0  0  0  0
  127.9400  132.6090   59.9500 C   0  0  2  0  0  0  0  0  0  0  0  0
  127.0780  131.4290   60.4860 C   0  0  0  0  0  0  0  0  0  0  0  0
  125.9610  131.1700   60.0250 O   0  0  0  0  0  0  0  0  0  0  0  0
  127.6840  130.7620   61.5110 O   0  0  0  0  0  0  0  0  0  0  0  0
  127.9270  129.4120   61.3940 C   0  0  0  0  0  0  0  0  0  0  0  0
  127.0140  128.5030   61.9340 C   0  0  0  0  0  0  0  0  0  0  0  0
  127.2440  127.1360   61.8140 C   0  0  0  0  0  0  0  0  0  0  0  0
  128.3810  126.6700   61.1470 C   0  0  0  0  0  0  0  0  0  0  0  0
  128.6390  125.1630   61.0350 C   0  0  1  0  0  0  0  0  0  0  0  0
  127.9730  124.5550   59.7780 C   0  0  0  0  0  0  0  0  0  0  0  0
  128.6410  123.7860   58.8990 C   0  0  0  0  0  0  0  0  0  0  0  0
  129.9720  123.4850   59.0540 N   0  0  0  0  0  0  0  0  0  0  0  0
  130.6930  123.9610   60.1240 C   0  0  0  0  0  0  0  0  0  0  0  0
  131.9910  123.5660   60.1350 N   0  0  0  0  0  0  0  0  0  0  0  0
  132.8770  124.0010   61.0730 C   0  0  0  0  0  0  0  0  0  0  0  0
  134.0850  123.8780   60.8630 O   0  0  0  0  0  0  0  0  0  0  0  0
  132.2950  124.7030   62.1170 N   0  0  0  0  0  0  0  0  0  0  0  0
  133.1990  125.1200   63.2090 C   0  0  0  0  0  0  0  0  0  0  0  0
  130.9900  125.1570   62.2060 C   0  0  0  0  0  0  0  0  0  0  0  0
  130.5520  125.8250   63.1480 O   0  0  0  0  0  0  0  0  0  0  0  0
  130.1410  124.7530   61.0810 C   0  0  0  0  0  0  0  0  0  0  0  0
  127.7690  123.3560   57.8200 C   0  0  0  0  0  0  0  0  0  0  0  0
  127.9750  122.5690   56.6860 C   0  0  0  0  0  0  0  0  0  0  0  0
  126.9070  122.3320   55.8170 C   0  0  0  0  0  0  0  0  0  0  0  0
  125.6470  122.8770   56.0850 C   0  0  0  0  0  0  0  0  0  0  0  0
  125.4470  123.6640   57.2220 C   0  0  0  0  0  0  0  0  0  0  0  0
  126.5180  123.8990   58.0860 C   0  0  0  0  0  0  0  0  0  0  0  0
  126.5860  124.6780   59.3400 C   0  0  0  0  0  0  0  0  0  0  0  0
  125.7050  125.3050   59.9250 O   0  0  0  0  0  0  0  0  0  0  0  0
  129.2840  127.5830   60.5910 C   0  0  0  0  0  0  0  0  0  0  0  0
  129.0540  128.9510   60.7090 C   0  0  0  0  0  0  0  0  0  0  0  0
  129.2500  132.1520   59.4000 N   0  0  0  0  0  0  0  0  0  0  0  0
  129.4470  132.0000   58.0600 C   0  0  0  0  0  0  0  0  0  0  0  0
  128.6310  132.1930   57.1570 O   0  0  0  0  0  0  0  0  0  0  0  0
  130.8550  131.5510   57.9160 C   0  0  0  0  0  0  0  0  0  0  0  0
  131.6020  131.2390   56.7800 C   0  0  0  0  0  0  0  0  0  0  0  0
  132.9330  130.8390   56.9440 C   0  0  0  0  0  0  0  0  0  0  0  0
  133.4940  130.7590   58.2250 C   0  0  0  0  0  0  0  0  0  0  0  0
  132.7280  131.0770   59.3520 C   0  0  0  0  0  0  0  0  0  0  0  0
  131.4030  131.4720   59.1680 C   0  0  0  0  0  0  0  0  0  0  0  0
  130.3600  131.8680   60.1480 C   0  0  0  0  0  0  0  0  0  0  0  0
  130.4740  131.9320   61.3720 O   0  0  0  0  0  0  0  0  0  0  0  0
  2  1  1  1
  2  3  1  0
  3  4  2  0
  3  5  1  0
  5  6  1  0
  6  7  2  0
  7  8  1  0
  8  9  2  0
 10  9  1  6
 10 11  1  0
 11 12  2  0
 12 13  1  0
 13 14  1  0
 14 15  1  0
 15 16  1  0
 16 17  2  0
 16 18  1  0
 18 19  1  0
 18 20  1  0
 20 21  2  0
 20 22  1  0
 12 23  1  0
 23 24  2  0
 24 25  1  0
 25 26  2  0
 26 27  1  0
 27 28  2  0
 28 29  1  0
 29 30  2  0
  9 31  1  0
 31 32  2  0
  2 33  1  0
 33 34  1  0
 34 35  2  0
 34 36  1  0
 36 37  2  0
 37 38  1  0
 38 39  2  0
 39 40  1  0
 40 41  2  0
 41 42  1  0
 42 43  2  0
 32  6  1  0
 42 33  1  0
 22 10  1  0
 28 23  1  0
 41 36  1  0
 29 11  1  0
 22 14  2  0
M  END
>  <Binding energies>  (76) 
[-10.71]

>  <Ligand effiencies>  (76) 
[-0.23800000000000002]

>  <Interactions>  (76) 
["V-B:TYR:539:CE2:9845, V-B:TYR:539:CE1:9844, V-B:PRO:540:N:9853, V-B:GLU:543:CD:9877, V-B:TYR:539:CZ:9846, V-B:TYR:539:CD1:9842, V-B:PRO:540:CB:9854, V-A:TYR:531:CZ:4791, V-A:PRO:540:CA:4880, V-A:ASP:366:CG:3209, V-A:ALA:541:CB:4889, V-A:PRO:540:C:4878, V-A:TYR:539:C:4864, V-A:PRO:540:N:4881, V-A:PRO:540:CB:4882, H-A:ALA:541:N:4888, V-A:LEU:363:CD1:3185, H-B:TYR:539:OH:9847, V-B:LEU:363:CD1:8157, V-A:ARG:545:CZ:4923, V-A:LEU:363:CA:3181, V-A:ASN:362:C:3168, V-A:LEU:363:CB:3183, V-B:ILE:538:CB:9831, V-B:ILE:538:CA:9829, V-B:ILE:538:CG2:9832, V-B:PRO:540:CD:9856"]

$$$$
RR25_Rahimova_2017
     RDKit          3D

 39 44  0  0  0  0  0  0  0  0999 V2000
  131.2020  127.6450   67.4280 O   0  0  0  0  0  0  0  0  0  0  0  0
  130.2690  127.7350   66.6290 C   0  0  0  0  0  0  0  0  0  0  0  0
  129.2430  128.5740   66.9860 O   0  0  0  0  0  0  0  0  0  0  0  0
  128.2700  128.9520   66.0780 C   0  0  0  0  0  0  0  0  0  0  0  0
  127.6310  130.1680   66.3130 C   0  0  0  0  0  0  0  0  0  0  0  0
  126.6350  130.6050   65.4430 C   0  0  0  0  0  0  0  0  0  0  0  0
  126.2620  129.8360   64.3310 C   0  0  0  0  0  0  0  0  0  0  0  0
  125.2060  130.3080   63.4020 N   0  0  0  0  0  0  0  0  0  0  0  0
  125.5170  130.5640   62.2410 O   0  0  0  0  0  0  0  0  0  0  0  0
  124.0610  130.4270   63.8260 O   0  0  0  0  0  0  0  0  0  0  0  0
  126.9100  128.6080   64.1190 C   0  0  0  0  0  0  0  0  0  0  0  0
  127.9050  128.1500   64.9870 C   0  0  0  0  0  0  0  0  0  0  0  0
  128.6420  126.8370   64.7940 C   0  0  0  0  0  0  0  0  0  0  0  0
  130.1140  126.9880   65.2710 C   0  0  2  0  0  0  0  0  0  0  0  0
  130.8750  125.6330   65.1810 C   0  0  0  0  0  0  0  0  0  0  0  0
  131.2520  125.1510   66.2530 O   0  0  0  0  0  0  0  0  0  0  0  0
  131.0080  124.9510   64.0040 N   0  0  0  0  0  0  0  0  0  0  0  0
  130.8660  125.5980   62.6830 C   0  0  0  0  0  0  0  0  0  0  0  0
  130.1770  124.6130   61.7140 C   0  0  0  0  0  0  0  0  0  0  0  0
  130.8960  123.3370   61.6480 N   0  0  0  0  0  0  0  0  0  0  0  0
  130.3210  122.4480   60.6290 C   0  0  0  0  0  0  0  0  0  0  0  0
  128.8970  121.9510   60.9970 C   0  0  0  0  0  0  0  0  0  0  0  0
  127.7840  122.4570   60.1420 N   0  0  0  0  0  0  0  0  0  0  0  0
  126.7400  123.0470   60.8220 C   0  0  0  0  0  0  0  0  0  0  0  0
  126.6950  123.1270   62.0550 O   0  0  0  0  0  0  0  0  0  0  0  0
  125.6490  123.6140   59.9350 C   0  0  0  0  0  0  0  0  0  0  0  0
  124.5520  124.2590   60.5210 C   0  0  0  0  0  0  0  0  0  0  0  0
  123.5350  124.7990   59.7360 C   0  0  0  0  0  0  0  0  0  0  0  0
  123.5820  124.7150   58.3460 C   0  0  0  0  0  0  0  0  0  0  0  0
  124.6700  124.0720   57.7090 C   0  0  0  0  0  0  0  0  0  0  0  0
  124.7820  123.9530   56.3030 C   0  0  0  0  0  0  0  0  0  0  0  0
  125.8830  123.3100   55.7410 C   0  0  0  0  0  0  0  0  0  0  0  0
  126.8870  122.7750   56.5450 C   0  0  0  0  0  0  0  0  0  0  0  0
  126.8190  122.8690   57.9410 C   0  0  0  0  0  0  0  0  0  0  0  0
  125.7020  123.5230   58.5210 C   0  0  0  0  0  0  0  0  0  0  0  0
  127.9370  122.2810   58.7820 C   0  0  0  0  0  0  0  0  0  0  0  0
  128.9070  121.7100   58.2740 O   0  0  0  0  0  0  0  0  0  0  0  0
  130.9110  122.7070   62.9690 C   0  0  0  0  0  0  0  0  0  0  0  0
  131.6140  123.5990   64.0200 C   0  0  0  0  0  0  0  0  0  0  0  0
  1  2  2  0
  2  3  1  0
  3  4  1  0
  4  5  2  0
  5  6  1  0
  6  7  2  0
  7  8  1  0
  8  9  2  0
  8 10  1  0
  7 11  1  0
 11 12  2  0
 12 13  1  0
 13 14  1  0
 14 15  1  1
 15 16  2  0
 15 17  1  0
 17 18  1  0
 18 19  1  0
 19 20  1  0
 20 21  1  0
 21 22  1  0
 22 23  1  0
 23 24  1  0
 24 25  2  0
 24 26  1  0
 26 27  2  0
 27 28  1  0
 28 29  2  0
 29 30  1  0
 30 31  2  0
 31 32  1  0
 32 33  2  0
 33 34  1  0
 34 35  2  0
 34 36  1  0
 36 37  2  0
 20 38  1  0
 38 39  1  0
 14  2  1  0
 39 17  1  0
 12  4  1  0
 36 23  1  0
 35 26  1  0
 35 30  1  0
M  CHG  2   8   1  10  -1
M  END
>  <Binding energies>  (77) 
[-10.54]

>  <Ligand effiencies>  (77) 
[-0.27025641025641023]

>  <Interactions>  (77) 
["V-B:TYR:484:CZ:9315, V-A:GLU:543:CD:4905, V-A:GLU:543:CG:4904, V-A:LEU:475:CD1:4254, V-B:TYR:539:CE2:9845, V-B:PRO:540:CA:9852, H-A:TYR:484:OH:4344, V-B:TYR:484:CE1:9313, V-B:PRO:540:N:9853, V-B:TYR:539:C:9836, V-B:GLU:543:CD:9877, V-B:HIS:456:CE1:9038, V-B:TYR:539:CZ:9846, V-A:GLU:543:CB:4903, V-B:ALA:541:CB:9861, V-B:PRO:540:CB:9854, V-B:MET:535:CE:9804, V-B:TYR:539:CD2:9843, V-B:GLU:543:CG:9876, H-B:ALA:541:N:9860, V-B:ASP:366:CB:8180, V-B:LEU:363:CD1:8157, V-B:ASN:362:C:8140, V-B:LEU:363:CA:8153, V-B:ASP:366:CG:8181, V-B:ILE:538:CB:9831, V-B:ILE:538:CG2:9832, V-B:TYR:531:CE2:9762, V-B:LEU:363:CB:8155, V-B:PRO:540:C:9850, H-B:GLY:454:N:9018"]

$$$$
RR27_Rahimova_2017
     RDKit          3D

 39 44  0  0  0  0  0  0  0  0999 V2000
  129.9070  124.1130   56.1140 O   0  0  0  0  0  0  0  0  0  0  0  0
  129.9670  124.5730   57.2580 C   0  0  0  0  0  0  0  0  0  0  0  0
  128.7930  124.2750   58.2360 C   0  0  0  0  0  0  0  0  0  0  0  0
  129.1730  123.2860   59.3530 C   0  0  0  0  0  0  0  0  0  0  0  0
  130.3460  123.4360   60.1090 C   0  0  0  0  0  0  0  0  0  0  0  0
  130.6570  122.5250   61.1130 C   0  0  0  0  0  0  0  0  0  0  0  0
  129.7990  121.4590   61.3670 C   0  0  0  0  0  0  0  0  0  0  0  0
  128.6330  121.2950   60.6240 C   0  0  0  0  0  0  0  0  0  0  0  0
  128.3220  122.2060   59.6200 C   0  0  0  0  0  0  0  0  0  0  0  0
  127.4930  123.9350   57.4820 C   0  0  0  0  0  0  0  0  0  0  0  0
  127.3990  122.8150   56.6450 C   0  0  0  0  0  0  0  0  0  0  0  0
  126.2120  122.5430   55.9680 C   0  0  0  0  0  0  0  0  0  0  0  0
  125.1190  123.3910   56.1220 C   0  0  0  0  0  0  0  0  0  0  0  0
  125.2030  124.5140   56.9420 C   0  0  0  0  0  0  0  0  0  0  0  0
  126.3890  124.7850   57.6160 C   0  0  0  0  0  0  0  0  0  0  0  0
  131.0890  125.1950   57.7210 N   0  0  0  0  0  0  0  0  0  0  0  0
  131.1270  125.9760   58.9660 C   0  0  0  0  0  0  0  0  0  0  0  0
  130.7060  127.4180   58.6040 C   0  0  0  0  0  0  0  0  0  0  0  0
  131.5780  128.0330   57.4650 C   0  0  0  0  0  0  0  0  0  0  0  0
  131.1290  129.4270   56.9880 C   0  0  0  0  0  0  0  0  0  0  0  0
  132.0840  130.4020   56.9760 N   0  0  0  0  0  0  0  0  0  0  0  0
  131.7450  131.6460   56.5370 C   0  0  0  0  0  0  0  0  0  0  0  0
  132.6150  132.7030   56.4740 O   0  0  0  0  0  0  0  0  0  0  0  0
  130.4210  131.8760   56.1160 C   0  0  0  0  0  0  0  0  0  0  0  0
  129.7660  132.9680   55.6290 N   0  0  0  0  0  0  0  0  0  0  0  0
  128.4570  132.5910   55.3930 N   0  0  0  0  0  0  0  0  0  0  0  0
  128.3130  131.2890   55.7210 N   0  0  0  0  0  0  0  0  0  0  0  0
  127.0150  130.6310   55.5930 C   0  0  0  0  0  0  0  0  0  0  0  0
  126.0560  130.9430   56.7340 C   0  0  0  0  0  0  0  0  0  0  0  0
  124.6760  130.8290   56.5450 C   0  0  0  0  0  0  0  0  0  0  0  0
  123.7970  131.1040   57.5940 C   0  0  0  0  0  0  0  0  0  0  0  0
  124.2950  131.4880   58.8390 C   0  0  0  0  0  0  0  0  0  0  0  0
  125.6720  131.5940   59.0370 C   0  0  0  0  0  0  0  0  0  0  0  0
  126.2920  132.0440   60.5850 Cl  0  0  0  0  0  0  0  0  0  0  0  0
  126.5500  131.3270   57.9870 C   0  0  0  0  0  0  0  0  0  0  0  0
  129.5200  130.7930   56.1860 C   0  0  0  0  0  0  0  0  0  0  0  0
  129.8230  129.5660   56.6190 N   0  0  0  0  0  0  0  0  0  0  0  0
  131.8070  127.0240   56.2970 C   0  0  0  0  0  0  0  0  0  0  0  0
  132.1520  125.5950   56.7860 C   0  0  0  0  0  0  0  0  0  0  0  0
  1  2  2  0
  2  3  1  0
  3  4  1  0
  4  5  2  0
  5  6  1  0
  6  7  2  0
  7  8  1  0
  8  9  2  0
  3 10  1  0
 10 11  2  0
 11 12  1  0
 12 13  2  0
 13 14  1  0
 14 15  2  0
  2 16  1  0
 16 17  1  0
 17 18  1  0
 18 19  1  0
 19 20  1  0
 20 21  2  0
 21 22  1  0
 22 23  1  0
 22 24  2  0
 24 25  1  0
 25 26  2  0
 26 27  1  0
 27 28  1  0
 28 29  1  0
 29 30  2  0
 30 31  1  0
 31 32  2  0
 32 33  1  0
 33 34  1  0
 33 35  2  0
 27 36  1  0
 36 37  2  0
 19 38  1  0
 38 39  1  0
  9  4  1  0
 15 10  1  0
 39 16  1  0
 37 20  1  0
 36 24  1  0
 35 29  1  0
M  END
>  <Binding energies>  (78) 
[-10.84]

>  <Ligand effiencies>  (78) 
[-0.271]

>  <Interactions>  (78) 
["V-B:TYR:539:CE2:9845, V-B:TYR:539:CE1:9844, V-B:PRO:540:CA:9852, V-B:PRO:540:N:9853, V-B:TYR:539:C:9836, V-B:TYR:539:CZ:9846, V-B:ALA:541:CB:9861, V-B:MET:535:CE:9804, V-B:TYR:539:CD2:9843, V-A:TYR:531:CZ:4791, V-A:TYR:539:CD2:4871, V-A:ASP:366:CG:3209, V-A:ASP:366:CB:3208, V-A:TYR:539:CE2:4873, H-A:TYR:531:OH:4792, V-B:ALA:541:CA:9859, V-B:ILE:369:CG2:8205, V-A:ILE:538:CD1:4862, H-A:TYR:539:N:4867, V-A:TYR:539:CZ:4874, V-A:LEU:363:CD1:3185, V-B:ASP:366:CB:8180, H-B:TYR:539:OH:9847, V-B:LEU:363:CD1:8157, V-B:ASP:366:CG:8181, V-B:TYR:531:CE1:9761, V-B:ILE:538:CB:9831, V-B:ILE:538:CA:9829, V-A:TYR:531:CE1:4789, V-B:ILE:538:CG2:9832, V-B:ASP:366:C:8176, V-B:ASP:366:CA:8178, V-B:TYR:531:CZ:9763, V-B:PRO:540:CD:9856, V-B:PRO:540:C:9850, V-B:ILE:369:CB:8204"]

$$$$
RR28_Rahimova_2017
     RDKit          3D

 46 49  0  0  0  0  0  0  0  0999 V2000
  127.1290  129.2050   65.3350 C   0  0  0  0  0  0  0  0  0  0  0  0
  128.2260  128.6150   66.2140 C   0  0  0  0  0  0  0  0  0  0  0  0
  128.6890  129.2820   67.1370 O   0  0  0  0  0  0  0  0  0  0  0  0
  128.6270  127.3640   65.9090 N   0  0  0  0  0  0  0  0  0  0  0  0
  129.6680  126.5480   66.5750 C   0  0  0  0  0  0  0  0  0  0  0  0
  129.4920  126.6970   68.1140 C   0  0  0  0  0  0  0  0  0  0  0  0
  130.3170  127.5860   68.8190 C   0  0  0  0  0  0  0  0  0  0  0  0
  130.1910  127.7420   70.1950 C   0  0  0  0  0  0  0  0  0  0  0  0
  129.2350  127.0090   70.9010 C   0  0  0  0  0  0  0  0  0  0  0  0
  129.1140  127.1890   72.4140 C   0  0  0  0  0  0  0  0  0  0  0  0
  129.9550  126.4010   73.0870 F   0  0  0  0  0  0  0  0  0  0  0  0
  129.3740  128.4520   72.7520 F   0  0  0  0  0  0  0  0  0  0  0  0
  127.8710  126.8910   72.7920 F   0  0  0  0  0  0  0  0  0  0  0  0
  128.4080  126.1190   70.2120 C   0  0  0  0  0  0  0  0  0  0  0  0
  128.5360  125.9640   68.8340 C   0  0  0  0  0  0  0  0  0  0  0  0
  131.0960  126.9520   66.0610 C   0  0  0  0  0  0  0  0  0  0  0  0
  131.3240  126.6240   64.5640 C   0  0  0  0  0  0  0  0  0  0  0  0
  131.1210  125.1740   64.4190 N   0  0  0  0  0  0  0  0  0  0  0  0
  132.1780  124.3200   64.4920 C   0  0  0  0  0  0  0  0  0  0  0  0
  133.3440  124.7230   64.5100 O   0  0  0  0  0  0  0  0  0  0  0  0
  131.9200  122.7980   64.3840 C   0  0  0  0  0  0  0  0  0  0  0  0
  132.2220  122.1550   63.0030 C   0  0  0  0  0  0  0  0  0  0  0  0
  132.2110  123.1350   61.8060 C   0  0  0  0  0  0  0  0  0  0  0  0
  133.1020  123.9870   61.7490 O   0  0  0  0  0  0  0  0  0  0  0  0
  131.3210  122.9520   60.7900 N   0  0  0  0  0  0  0  0  0  0  0  0
  130.0750  122.1900   60.9360 C   0  0  0  0  0  0  0  0  0  0  0  0
  129.0210  123.1700   61.4950 C   0  0  0  0  0  0  0  0  0  0  0  0
  128.7980  124.4580   60.6270 C   0  0  0  0  0  0  0  0  0  0  0  0
  128.0970  125.4750   61.4400 N   0  0  0  0  0  0  0  0  0  0  0  0
  128.6110  126.5860   62.0050 C   0  0  0  0  0  0  0  0  0  0  0  0
  127.6400  127.4450   62.8100 C   0  0  0  0  0  0  0  0  0  0  0  0
  129.7880  126.9290   61.9060 O   0  0  0  0  0  0  0  0  0  0  0  0
  127.8540  124.0670   59.4440 C   0  0  0  0  0  0  0  0  0  0  0  0
  126.5770  124.6280   59.2720 C   0  0  0  0  0  0  0  0  0  0  0  0
  125.7670  124.2530   58.2040 C   0  0  0  0  0  0  0  0  0  0  0  0
  126.2120  123.3040   57.2800 C   0  0  0  0  0  0  0  0  0  0  0  0
  125.3360  122.8850   56.1000 C   0  0  0  0  0  0  0  0  0  0  0  0
  124.6040  121.8150   56.4140 F   0  0  0  0  0  0  0  0  0  0  0  0
  124.5140  123.8870   55.7880 F   0  0  0  0  0  0  0  0  0  0  0  0
  126.0590  122.5850   55.0190 F   0  0  0  0  0  0  0  0  0  0  0  0
  127.4740  122.7320   57.4420 C   0  0  0  0  0  0  0  0  0  0  0  0
  128.2810  123.1090   58.5110 C   0  0  0  0  0  0  0  0  0  0  0  0
  130.1990  125.0050   60.1490 C   0  0  0  0  0  0  0  0  0  0  0  0
  131.2310  123.9350   59.7030 C   0  0  0  0  0  0  0  0  0  0  0  0
  129.7400  124.7490   64.6900 C   0  0  0  0  0  0  0  0  0  0  0  0
  129.4580  125.0490   66.1850 C   0  0  0  0  0  0  0  0  0  0  0  0
  1  2  1  0
  2  3  2  0
  2  4  1  0
  4  5  1  0
  5  6  1  0
  6  7  2  0
  7  8  1  0
  8  9  2  0
  9 10  1  0
 10 11  1  0
 10 12  1  0
 10 13  1  0
  9 14  1  0
 14 15  2  0
  5 16  1  0
 16 17  1  0
 17 18  1  0
 18 19  1  0
 19 20  2  0
 19 21  1  0
 21 22  1  0
 22 23  1  0
 23 24  2  0
 23 25  1  0
 25 26  1  0
 26 27  1  0
 27 28  1  0
 28 29  1  0
 29 30  1  0
 30 31  1  0
 30 32  2  0
 28 33  1  0
 33 34  2  0
 34 35  1  0
 35 36  2  0
 36 37  1  0
 37 38  1  0
 37 39  1  0
 37 40  1  0
 36 41  1  0
 41 42  2  0
 28 43  1  0
 43 44  1  0
 18 45  1  0
 45 46  1  0
 46  5  1  0
 15  6  1  0
 44 25  1  0
 42 33  1  0
M  END
>  <Binding energies>  (79) 
[-9.98]

>  <Ligand effiencies>  (79) 
[-0.20791666666666667]

>  <Interactions>  (79) 
["V-A:GLU:543:CD:4905, V-A:GLU:543:CG:4904, V-A:LEU:475:CD1:4254, V-B:TYR:539:CE2:9845, V-B:PRO:540:CA:9852, H-A:TYR:484:OH:4344, V-B:PRO:540:N:9853, V-B:TYR:539:C:9836, V-B:GLU:543:CD:9877, V-B:HIS:456:CE1:9038, V-A:HIS:456:CE1:4066, V-B:TYR:539:CZ:9846, V-A:GLU:543:CB:4903, V-B:ALA:541:CB:9861, V-B:PRO:540:CB:9854, V-B:MET:535:CE:9804, V-B:TYR:539:CD2:9843, V-B:GLU:543:CG:9876, H-B:GLU:543:OE2:9879, V-B:GLU:543:CB:9875, V-A:TYR:484:CE1:4341, V-A:TYR:484:CZ:4343, V-B:GLU:543:C:9871, H-A:GLY:454:N:4046, V-B:LEU:363:CD1:8157, V-A:ARG:545:CZ:4923, V-B:ILE:538:CB:9831, V-B:ILE:538:CA:9829, V-B:ILE:538:CG2:9832, V-A:GLY:454:CA:4045, V-B:TYR:531:CE2:9762, V-B:PRO:540:CD:9856, H-B:GLU:543:OE1:9878, V-A:HIS:456:CD2:4064, V-B:HIS:456:CD2:9036, V-A:LYS:547:CE:4947, V-B:LYS:547:CE:9919, V-B:PRO:540:CG:9855, V-B:ILE:538:CD1:9834"]

$$$$
RR29_Rahimova_2017
     RDKit          3D

 18 19  0  0  0  0  0  0  0  0999 V2000
  134.0830  129.7810   56.5670 C   0  0  0  0  0  0  0  0  0  0  0  0
  133.1300  130.6300   57.3950 C   0  0  0  0  0  0  0  0  0  0  0  0
  132.3010  131.6140   56.5400 C   0  0  0  0  0  0  0  0  0  0  0  0
  130.8640  131.7680   57.0810 C   0  0  0  0  0  0  0  0  0  0  0  0
  129.8140  131.5460   56.0030 C   0  0  0  0  0  0  0  0  0  0  0  0
  129.3800  132.6270   55.2100 C   0  0  0  0  0  0  0  0  0  0  0  0
  128.4150  132.4430   54.2100 C   0  0  0  0  0  0  0  0  0  0  0  0
  127.8980  131.1640   54.0410 C   0  0  0  0  0  0  0  0  0  0  0  0
  128.3140  130.1120   54.8090 C   0  0  0  0  0  0  0  0  0  0  0  0
  129.2770  130.2620   55.8010 C   0  0  0  0  0  0  0  0  0  0  0  0
  127.6730  128.9820   54.4090 O   0  0  0  0  0  0  0  0  0  0  0  0
  126.6850  129.4060   53.5070 C   0  0  0  0  0  0  0  0  0  0  0  0
  126.9850  130.7250   53.1350 O   0  0  0  0  0  0  0  0  0  0  0  0
  133.1090  130.4670   58.6660 N   0  0  0  0  0  0  0  0  0  0  0  0
  132.3110  131.2930   59.4260 N   0  0  0  0  0  0  0  0  0  0  0  0
  131.5870  130.8790   60.4790 C   0  0  0  0  0  0  0  0  0  0  0  0
  131.5580  129.6270   60.9380 N   0  0  0  0  0  0  0  0  0  0  0  0
  130.8470  131.7780   61.1100 N   0  0  0  0  0  0  0  0  0  0  0  0
  1  2  1  0
  2  3  1  0
  3  4  1  0
  4  5  1  0
  5  6  2  0
  6  7  1  0
  7  8  2  0
  8  9  1  0
  9 10  2  0
  9 11  1  0
 11 12  1  0
 12 13  1  0
  2 14  2  0
 14 15  1  0
 15 16  1  0
 16 17  1  0
 16 18  2  0
 10  5  1  0
 13  8  1  0
M  CHG  1  18   1
M  END
>  <Binding energies>  (80) 
[-8.04]

>  <Ligand effiencies>  (80) 
[-0.3495652173913043]

>  <Interactions>  (80) 
["V-A:GLU:543:CD:4905, V-B:MET:535:CE:9804, V-A:TYR:531:CZ:4791, V-A:PRO:540:CA:4880, V-A:ASP:366:CG:3209, V-A:ASP:366:CB:3208, H-A:ASP:366:OD1:3210, V-A:PRO:540:C:4878, V-A:PRO:540:N:4881, V-A:PRO:540:CB:4882, V-A:ILE:538:CD1:4862, V-A:TYR:539:CZ:4874, V-A:LEU:363:CD1:3185, V-B:TYR:531:CE1:9761, V-A:LEU:363:CA:3181, V-A:TYR:539:CD1:4870, V-A:TYR:539:CE1:4872, V-A:ILE:538:CA:4857, H-A:TYR:539:O:4865, H-B:LYS:534:NZ:9792, V-B:TYR:531:CZ:9763, H-A:GLU:543:OE2:4907, H-A:GLU:543:OE1:4906, V-A:TYR:531:CE2:4790, V-A:LEU:363:C:3179"]

$$$$
RR30_Rahimova_2017
     RDKit          3D

 18 19  0  0  0  0  0  0  0  0999 V2000
  129.7220  122.1190   61.3260 C   0  0  0  0  0  0  0  0  0  0  0  0
  128.7350  122.0870   60.1500 C   0  0  0  0  0  0  0  0  0  0  0  0
  127.5900  123.0580   60.3360 C   0  0  0  0  0  0  0  0  0  0  0  0
  127.6470  124.3580   60.4870 N   0  0  0  0  0  0  0  0  0  0  0  0
  126.3290  124.7840   60.6290 N   0  0  0  0  0  0  0  0  0  0  0  0
  125.5900  123.7060   60.5620 C   0  0  0  0  0  0  0  0  0  0  0  0
  123.8330  123.5970   60.6620 S   0  0  0  0  0  0  0  0  0  0  0  0
  123.3750  124.6200   59.2260 C   0  0  0  0  0  0  0  0  0  0  0  0
  124.3620  124.4640   58.0660 C   0  0  0  0  0  0  0  0  0  0  0  0
  124.4600  125.3680   57.2340 O   0  0  0  0  0  0  0  0  0  0  0  0
  125.0450  123.2980   58.0240 N   0  0  0  0  0  0  0  0  0  0  0  0
  125.9850  122.9280   57.0740 C   0  0  0  0  0  0  0  0  0  0  0  0
  126.1460  121.7560   56.5020 N   0  0  0  0  0  0  0  0  0  0  0  0
  127.1970  121.7520   55.5930 N   0  0  0  0  0  0  0  0  0  0  0  0
  127.8060  122.9110   55.4960 C   0  0  0  0  0  0  0  0  0  0  0  0
  128.9800  123.1550   54.5760 C   0  0  0  0  0  0  0  0  0  0  0  0
  127.1180  124.1280   56.5360 S   0  0  0  0  0  0  0  0  0  0  0  0
  126.3220  122.5780   60.3730 O   0  0  0  0  0  0  0  0  0  0  0  0
  1  2  1  0
  2  3  1  0
  3  4  2  0
  4  5  1  0
  5  6  2  0
  6  7  1  0
  7  8  1  0
  8  9  1  0
  9 10  2  0
  9 11  1  0
 11 12  1  0
 12 13  2  0
 13 14  1  0
 14 15  2  0
 15 16  1  0
 15 17  1  0
  6 18  1  0
 18  3  1  0
 17 12  1  0
M  END
>  <Binding energies>  (81) 
[-6.87]

>  <Ligand effiencies>  (81) 
[-0.36157894736842106]

>  <Interactions>  (81) 
["V-B:TYR:539:CE2:9845, V-B:TYR:539:CE1:9844, V-B:PRO:540:CA:9852, V-B:PRO:540:N:9853, H-B:TYR:531:OH:9764, V-B:TYR:539:CD1:9842, V-B:ALA:541:CB:9861, V-B:PRO:540:CB:9854, V-B:MET:535:CE:9804, V-B:TYR:539:CD2:9843, H-B:ALA:541:N:9860, V-B:ASP:366:CB:8180, V-B:LEU:363:CD1:8157, V-B:ASN:362:C:8140, V-B:LEU:363:CA:8153, H-B:TYR:539:N:9839, V-B:ILE:538:CA:9829, V-B:LEU:363:CB:8155, V-B:PRO:540:CD:9856, H-B:LEU:363:N:8154"]

$$$$
RR31_Rahimova_2017
     RDKit          3D

 18 19  0  0  0  0  0  0  0  0999 V2000
  127.9250  127.0860   71.8810 C   0  0  0  0  0  0  0  0  0  0  0  0
  128.4200  126.9680   70.4460 C   0  0  0  0  0  0  0  0  0  0  0  0
  127.6020  126.3610   69.4910 C   0  0  0  0  0  0  0  0  0  0  0  0
  128.0250  126.2410   68.1690 C   0  0  0  0  0  0  0  0  0  0  0  0
  129.2760  126.7310   67.7590 C   0  0  0  0  0  0  0  0  0  0  0  0
  129.7180  126.6080   66.4400 N   0  0  0  0  0  0  0  0  0  0  0  0
  129.0190  127.2630   65.3170 C   0  0  0  0  0  0  0  0  0  0  0  0
  129.3890  126.6950   63.9270 C   0  0  0  0  0  0  0  0  0  0  0  0
  130.8360  126.7540   63.7050 N   0  0  0  0  0  0  0  0  0  0  0  0
  131.2140  126.2550   62.3790 C   0  0  0  0  0  0  0  0  0  0  0  0
  130.0520  126.2930   61.3660 C   0  0  0  0  0  0  0  0  0  0  0  0
  129.9080  127.6690   60.6960 C   0  0  0  0  0  0  0  0  0  0  0  0
  130.8320  128.6840   61.3780 N   0  0  0  0  0  0  0  0  0  0  0  0
  131.4700  125.9380   64.7390 C   0  0  0  0  0  0  0  0  0  0  0  0
  131.1600  126.4960   66.1460 C   0  0  0  0  0  0  0  0  0  0  0  0
  130.0910  127.3300   68.7310 C   0  0  0  0  0  0  0  0  0  0  0  0
  129.6790  127.4560   70.0620 C   0  0  0  0  0  0  0  0  0  0  0  0
  130.6130  128.1140   71.0700 C   0  0  0  0  0  0  0  0  0  0  0  0
  1  2  1  0
  2  3  2  0
  3  4  1  0
  4  5  2  0
  5  6  1  0
  6  7  1  0
  7  8  1  0
  8  9  1  0
  9 10  1  0
 10 11  1  0
 11 12  1  0
 12 13  1  0
  9 14  1  0
 14 15  1  0
  5 16  1  0
 16 17  2  0
 17 18  1  0
 17  2  1  0
 15  6  1  0
M  CHG  1  13   1
M  END
>  <Binding energies>  (82) 
[-6.67]

>  <Ligand effiencies>  (82) 
[-0.31761904761904763]

>  <Interactions>  (82) 
["V-A:GLU:543:CD:4905, V-B:GLU:543:CD:9877, V-B:HIS:456:CE1:9038, V-A:HIS:456:CE1:4066, H-A:ASP:366:OD1:3210, V-B:GLU:543:CB:9875, V-B:GLU:543:C:9871, H-A:GLU:543:OE2:4907, H-A:GLU:543:OE1:4906, H-A:ARG:545:NH2:4925, V-A:GLU:543:C:4899, V-B:HIS:456:CD2:9036, V-B:GLY:544:C:9881, V-B:LYS:547:CE:9919, V-A:GLY:544:C:4909"]

$$$$
RR32_Rahimova_2017
     RDKit          3D

 18 20  0  0  0  0  0  0  0  0999 V2000
  128.6200  122.3440   60.8470 C   0  0  0  0  0  0  0  0  0  0  0  0
  127.7750  122.7590   59.6470 C   0  0  0  0  0  0  0  0  0  0  0  0
  128.3640  122.7230   58.3820 C   0  0  0  0  0  0  0  0  0  0  0  0
  127.6230  123.0910   57.2630 C   0  0  0  0  0  0  0  0  0  0  0  0
  128.2100  123.0540   56.0110 N   0  0  0  0  0  0  0  0  0  0  0  0
  127.3100  123.0510   54.8430 C   0  0  0  0  0  0  0  0  0  0  0  0
  128.0500  122.8250   53.5030 C   0  0  0  0  0  0  0  0  0  0  0  0
  129.0660  123.8580   53.3060 N   0  0  0  0  0  0  0  0  0  0  0  0
  129.7420  123.6640   52.0280 C   0  0  0  0  0  0  0  0  0  0  0  0
  130.0250  123.7630   54.4050 C   0  0  0  0  0  0  0  0  0  0  0  0
  129.3150  123.9990   55.7590 C   0  0  0  0  0  0  0  0  0  0  0  0
  126.3290  123.4960   57.3430 N   0  0  0  0  0  0  0  0  0  0  0  0
  125.7280  123.5450   58.5630 C   0  0  0  0  0  0  0  0  0  0  0  0
  124.3790  123.9730   58.6170 C   0  0  0  0  0  0  0  0  0  0  0  0
  123.7140  124.0430   59.8360 C   0  0  0  0  0  0  0  0  0  0  0  0
  124.3640  123.6930   61.0140 C   0  0  0  0  0  0  0  0  0  0  0  0
  125.6890  123.2690   60.9960 C   0  0  0  0  0  0  0  0  0  0  0  0
  126.4110  123.1830   59.7700 C   0  0  0  0  0  0  0  0  0  0  0  0
  1  2  1  0
  2  3  2  0
  3  4  1  0
  4  5  1  0
  5  6  1  0
  6  7  1  0
  7  8  1  0
  8  9  1  0
  8 10  1  0
 10 11  1  0
  4 12  2  0
 12 13  1  0
 13 14  2  0
 14 15  1  0
 15 16  2  0
 16 17  1  0
 17 18  2  0
 18  2  1  0
 11  5  1  0
 18 13  1  0
M  END
>  <Binding energies>  (83) 
[-6.54]

>  <Ligand effiencies>  (83) 
[-0.36333333333333334]

>  <Interactions>  (83) 
["V-B:TYR:539:CE2:9845, V-B:TYR:539:CE1:9844, V-B:PRO:540:CA:9852, V-B:TYR:539:CZ:9846, V-B:TYR:539:CD1:9842, V-B:ALA:541:CB:9861, V-B:PRO:540:CB:9854, V-B:MET:535:CE:9804, V-B:TYR:539:CD2:9843, V-B:ASN:362:CB:8144, V-B:LEU:363:CD1:8157, V-B:ASN:362:C:8140, V-B:LEU:363:CA:8153, V-B:ILE:538:CB:9831, V-B:ILE:538:CA:9829, V-B:ILE:538:CG2:9832, V-A:MET:535:CE:4832, V-B:PRO:540:C:9850, V-B:VAL:537:C:9819, V-B:MET:535:CB:9801"]

$$$$
RR5_Rahimova_2017
     RDKit          3D

 45 50  0  0  0  0  0  0  0  0999 V2000
  130.0570  128.5260   57.1750 O   0  0  0  0  0  0  0  0  0  0  0  0
  129.3310  128.4840   58.1670 C   0  0  0  0  0  0  0  0  0  0  0  0
  128.7640  127.1320   58.6420 C   0  0  0  0  0  0  0  0  0  0  0  0
  127.2270  126.9550   58.3750 C   0  0  2  0  0  0  0  0  0  0  0  0
  126.8850  125.9630   57.3360 N   0  0  0  0  0  0  0  0  0  0  0  0
  125.6230  125.3890   57.2650 C   0  0  0  0  0  0  0  0  0  0  0  0
  124.6550  125.6470   57.9860 O   0  0  0  0  0  0  0  0  0  0  0  0
  125.6260  124.4790   56.2760 O   0  0  0  0  0  0  0  0  0  0  0  0
  125.5470  123.0830   56.5510 C   0  0  0  0  0  0  0  0  0  0  0  0
  126.9570  122.4780   56.7310 C   0  0  0  0  0  0  0  0  0  0  0  0
  127.9590  122.9490   55.6910 C   0  0  0  0  0  0  0  0  0  0  0  0
  127.9100  122.8460   54.2980 C   0  0  0  0  0  0  0  0  0  0  0  0
  128.9440  123.3760   53.5250 C   0  0  0  0  0  0  0  0  0  0  0  0
  130.0270  124.0060   54.1400 C   0  0  0  0  0  0  0  0  0  0  0  0
  130.0800  124.1080   55.5320 C   0  0  0  0  0  0  0  0  0  0  0  0
  129.0440  123.5770   56.3030 C   0  0  0  0  0  0  0  0  0  0  0  0
  128.8460  123.5350   57.7600 C   0  0  0  0  0  0  0  0  0  0  0  0
  129.6390  124.0060   58.8100 C   0  0  0  0  0  0  0  0  0  0  0  0
  129.2230  123.8140   60.1280 C   0  0  0  0  0  0  0  0  0  0  0  0
  128.0200  123.1560   60.3950 C   0  0  0  0  0  0  0  0  0  0  0  0
  127.2300  122.6910   59.3440 C   0  0  0  0  0  0  0  0  0  0  0  0
  127.6410  122.8840   58.0230 C   0  0  0  0  0  0  0  0  0  0  0  0
  126.5670  128.3140   58.0360 C   0  0  0  0  0  0  0  0  0  0  0  0
  126.3640  128.7230   56.9100 O   0  0  0  0  0  0  0  0  0  0  0  0
  126.2360  128.9650   59.1900 O   0  0  0  0  0  0  0  0  0  0  0  0
  128.9970  129.5530   58.9250 N   0  0  0  0  0  0  0  0  0  0  0  0
  129.3150  131.0100   58.8420 C   0  0  0  0  0  0  0  0  0  0  0  0
  130.8140  131.0440   59.2930 C   0  0  0  0  0  0  0  0  0  0  0  0
  131.8450  130.6110   58.4440 C   0  0  0  0  0  0  0  0  0  0  0  0
  133.1750  130.6480   58.8550 C   0  0  0  0  0  0  0  0  0  0  0  0
  133.4940  131.1080   60.1280 C   0  0  0  0  0  0  0  0  0  0  0  0
  132.4940  131.5450   60.9890 C   0  0  0  0  0  0  0  0  0  0  0  0
  131.1670  131.5180   60.5730 C   0  0  0  0  0  0  0  0  0  0  0  0
  129.1250  131.4450   57.3500 C   0  0  0  0  0  0  0  0  0  0  0  0
  130.0890  132.2120   56.6770 C   0  0  0  0  0  0  0  0  0  0  0  0
  129.8910  132.6050   55.3560 C   0  0  0  0  0  0  0  0  0  0  0  0
  128.7250  132.2370   54.6910 C   0  0  0  0  0  0  0  0  0  0  0  0
  127.7570  131.4750   55.3360 C   0  0  0  0  0  0  0  0  0  0  0  0
  127.9610  131.0760   56.6530 C   0  0  0  0  0  0  0  0  0  0  0  0
  128.3570  131.7220   59.8570 C   0  0  0  0  0  0  0  0  0  0  0  0
  128.0220  131.1170   61.0820 C   0  0  0  0  0  0  0  0  0  0  0  0
  127.1650  131.7410   61.9840 C   0  0  0  0  0  0  0  0  0  0  0  0
  126.6310  132.9880   61.6790 C   0  0  0  0  0  0  0  0  0  0  0  0
  126.9550  133.6170   60.4830 C   0  0  0  0  0  0  0  0  0  0  0  0
  127.8120  132.9890   59.5830 C   0  0  0  0  0  0  0  0  0  0  0  0
  1  2  2  0
  2  3  1  0
  4  3  1  6
  4  5  1  0
  5  6  1  0
  6  7  2  0
  6  8  1  0
  8  9  1  0
  9 10  1  0
 10 11  1  0
 11 12  2  0
 12 13  1  0
 13 14  2  0
 14 15  1  0
 15 16  2  0
 16 17  1  0
 17 18  2  0
 18 19  1  0
 19 20  2  0
 20 21  1  0
 21 22  2  0
  4 23  1  0
 23 24  2  0
 23 25  1  0
  2 26  1  0
 26 27  1  0
 27 28  1  0
 28 29  2  0
 29 30  1  0
 30 31  2  0
 31 32  1  0
 32 33  2  0
 27 34  1  0
 34 35  2  0
 35 36  1  0
 36 37  2  0
 37 38  1  0
 38 39  2  0
 27 40  1  0
 40 41  2  0
 41 42  1  0
 42 43  2  0
 43 44  1  0
 44 45  2  0
 22 10  1  0
 33 28  1  0
 39 34  1  0
 45 40  1  0
 16 11  1  0
 22 17  1  0
M  END
>  <Binding energies>  (84) 
[-11.19]

>  <Ligand effiencies>  (84) 
[-0.233125]

>  <Interactions>  (84) 
["V-A:GLU:543:CD:4905, V-B:TYR:539:CE2:9845, V-B:TYR:539:CE1:9844, V-B:PRO:540:CA:9852, V-B:PRO:540:N:9853, V-B:TYR:539:C:9836, H-B:TYR:531:OH:9764, V-B:TYR:539:CZ:9846, V-B:TYR:539:CD1:9842, V-B:ALA:541:CB:9861, V-B:PRO:540:CB:9854, V-B:MET:535:CE:9804, V-A:PRO:540:CA:4880, V-A:TYR:539:CD2:4871, V-A:ASP:366:CG:3209, V-A:TYR:539:CE2:4873, H-A:TYR:531:OH:4792, V-A:TYR:539:C:4864, V-A:PRO:540:N:4881, V-A:PRO:540:CB:4882, V-A:ILE:538:CD1:4862, V-A:TYR:539:CZ:4874, V-B:LEU:363:CD1:8157, V-A:LEU:363:CA:3181, V-A:ASN:362:C:3168, V-A:TYR:539:CE1:4872, V-A:ILE:538:CA:4857, V-B:ILE:538:CB:9831, V-B:ILE:538:CA:9829, V-B:ILE:538:CG2:9832, V-A:ASN:362:CB:3172, V-A:ASN:362:CA:3170, V-A:ILE:538:CG2:4860, H-B:ASP:366:OD1:8182, V-B:PRO:540:CD:9856, V-B:MET:535:CB:9801"]

$$$$
