1a_Ghoteimi_2023
     RDKit          3D

 40 43  0  0  0  0  0  0  0  0999 V2000
  128.6150  122.8850   53.9350 C   0  0  0  0  0  0  0  0  0  0  0  0
  128.3060  123.0800   55.4220 C   0  0  0  0  0  0  0  0  0  0  0  0
  127.4730  122.0190   55.8730 O   0  0  0  0  0  0  0  0  0  0  0  0
  126.4840  122.2390   56.7770 C   0  0  0  0  0  0  0  0  0  0  0  0
  125.2820  122.1850   56.4990 O   0  0  0  0  0  0  0  0  0  0  0  0
  126.9990  122.5500   58.1530 C   0  0  0  0  0  0  0  0  0  0  0  0
  128.2590  122.1160   58.5900 C   0  0  0  0  0  0  0  0  0  0  0  0
  128.7080  122.4180   59.8730 C   0  0  0  0  0  0  0  0  0  0  0  0
  127.9020  123.1660   60.7440 C   0  0  0  0  0  0  0  0  0  0  0  0
  128.2530  123.5240   62.0600 N   0  0  0  0  0  0  0  0  0  0  0  0
  129.3890  123.2790   62.7500 C   0  0  0  0  0  0  0  0  0  0  0  0
  130.3740  122.6820   62.3180 O   0  0  0  0  0  0  0  0  0  0  0  0
  129.4150  123.8120   64.1820 C   0  0  0  0  0  0  0  0  0  0  0  0
  130.4590  125.2920   64.3300 S   0  0  0  0  0  0  0  0  0  0  0  0
  129.5020  126.4850   65.2370 C   0  0  0  0  0  0  0  0  0  0  0  0
  129.7090  126.4540   66.5740 N   0  0  0  0  0  0  0  0  0  0  0  0
  129.0410  127.3200   67.3820 C   0  0  0  0  0  0  0  0  0  0  0  0
  129.3410  127.2370   68.8510 C   0  0  0  0  0  0  0  0  0  0  0  0
  128.4800  126.5650   69.7340 C   0  0  0  0  0  0  0  0  0  0  0  0
  128.7610  126.4890   71.0950 C   0  0  0  0  0  0  0  0  0  0  0  0
  129.9080  127.0830   71.6170 C   0  0  0  0  0  0  0  0  0  0  0  0
  130.1080  126.9560   72.9780 O   0  0  0  0  0  0  0  0  0  0  0  0
  130.1940  125.6550   73.5480 C   0  0  0  0  0  0  0  0  0  0  0  0
  130.7750  127.7610   70.7490 C   0  0  0  0  0  0  0  0  0  0  0  0
  130.4910  127.8350   69.3880 C   0  0  0  0  0  0  0  0  0  0  0  0
  128.1380  128.2440   66.8420 C   0  0  0  0  0  0  0  0  0  0  0  0
  127.8890  128.2780   65.4640 C   0  0  0  0  0  0  0  0  0  0  0  0
  126.8890  129.2690   64.9630 C   0  0  0  0  0  0  0  0  0  0  0  0
  127.2900  130.5400   64.5360 C   0  0  0  0  0  0  0  0  0  0  0  0
  126.3540  131.4520   64.0570 C   0  0  0  0  0  0  0  0  0  0  0  0
  125.0030  131.1120   63.9870 C   0  0  0  0  0  0  0  0  0  0  0  0
  124.1490  132.0800   63.4980 O   0  0  0  0  0  0  0  0  0  0  0  0
  123.8260  132.0850   62.1120 C   0  0  0  0  0  0  0  0  0  0  0  0
  124.5980  129.8350   64.4070 C   0  0  0  0  0  0  0  0  0  0  0  0
  125.5360  128.9250   64.8870 C   0  0  0  0  0  0  0  0  0  0  0  0
  128.5920  127.3770   64.6290 C   0  0  0  0  0  0  0  0  0  0  0  0
  128.3840  127.3750   63.1770 C   0  0  0  0  0  0  0  0  0  0  0  0
  128.2200  127.3750   62.0320 N   0  0  0  0  0  0  0  0  0  0  0  0
  126.6470  123.5960   60.3140 C   0  0  0  0  0  0  0  0  0  0  0  0
  126.1990  123.2940   59.0300 C   0  0  0  0  0  0  0  0  0  0  0  0
  1  2  1  0
  2  3  1  0
  3  4  1  0
  4  5  2  0
  4  6  1  0
  6  7  2  0
  7  8  1  0
  8  9  2  0
  9 10  1  0
 10 11  1  0
 11 12  2  0
 11 13  1  0
 13 14  1  0
 14 15  1  0
 15 16  2  0
 16 17  1  0
 17 18  1  0
 18 19  2  0
 19 20  1  0
 20 21  2  0
 21 22  1  0
 22 23  1  0
 21 24  1  0
 24 25  2  0
 17 26  2  0
 26 27  1  0
 27 28  1  0
 28 29  2  0
 29 30  1  0
 30 31  2  0
 31 32  1  0
 32 33  1  0
 31 34  1  0
 34 35  2  0
 27 36  2  0
 36 37  1  0
 37 38  3  0
  9 39  1  0
 39 40  2  0
 40  6  1  0
 36 15  1  0
 25 18  1  0
 35 28  1  0
M  END
>  <Binding energies>  (1) 
[-11.54]

>  <Ligand effiencies>  (1) 
[-0.2814634146341463]

>  <Interactions>  (1) 
["V-A:GLU:543:CD:4905, V-A:GLU:543:CG:4904, V-B:TYR:539:CE2:9845, V-B:TYR:539:CE1:9844, V-B:PRO:540:CA:9852, V-B:TYR:539:CG:9841, V-B:PRO:540:N:9853, V-B:TYR:539:C:9836, V-B:GLU:543:CD:9877, V-B:HIS:456:CE1:9038, V-A:HIS:456:CE1:4066, V-B:TYR:539:CZ:9846, V-B:TYR:539:CD1:9842, V-B:ALA:541:CB:9861, V-B:PRO:540:CB:9854, V-B:MET:535:CE:9804, V-B:TYR:539:CD2:9843, V-B:GLU:543:CG:9876, H-B:GLU:543:OE2:9879, V-B:GLU:543:CB:9875, V-B:ILE:369:CD1:8207, H-B:TYR:539:N:9839, V-B:ILE:538:CB:9831, V-B:ILE:538:CA:9829, V-B:ILE:538:CG2:9832, V-B:PRO:540:CD:9856, V-B:GLY:454:CA:9017, V-B:ARG:545:CZ:9895, H-B:GLY:454:N:9018, V-A:HIS:456:CD2:4064, V-A:GLU:543:C:4899, V-B:LYS:547:CE:9919, H-A:LYS:547:NZ:4948, V-A:GLY:544:C:4909"]

$$$$
1b_Ghoteimi_2023
     RDKit          3D

 34 37  0  0  0  0  0  0  0  0999 V2000
  130.1280  125.7840   73.8610 C   0  0  0  0  0  0  0  0  0  0  0  0
  129.7280  127.0030   73.2450 O   0  0  0  0  0  0  0  0  0  0  0  0
  129.4680  127.0170   71.8880 C   0  0  0  0  0  0  0  0  0  0  0  0
  130.3790  127.7010   71.0850 C   0  0  0  0  0  0  0  0  0  0  0  0
  130.1990  127.7700   69.7070 C   0  0  0  0  0  0  0  0  0  0  0  0
  129.1020  127.1530   69.0870 C   0  0  0  0  0  0  0  0  0  0  0  0
  128.9090  127.2320   67.5990 C   0  0  0  0  0  0  0  0  0  0  0  0
  128.0290  128.1340   66.9920 C   0  0  0  0  0  0  0  0  0  0  0  0
  127.8890  128.1690   65.5990 C   0  0  0  0  0  0  0  0  0  0  0  0
  126.9270  129.1540   65.0200 C   0  0  0  0  0  0  0  0  0  0  0  0
  125.5570  128.8760   65.0020 C   0  0  0  0  0  0  0  0  0  0  0  0
  124.6580  129.7870   64.4560 C   0  0  0  0  0  0  0  0  0  0  0  0
  125.1090  130.9910   63.9140 C   0  0  0  0  0  0  0  0  0  0  0  0
  124.1450  131.8340   63.3950 O   0  0  0  0  0  0  0  0  0  0  0  0
  123.7630  131.6940   62.0300 C   0  0  0  0  0  0  0  0  0  0  0  0
  126.4830  131.2710   63.9230 C   0  0  0  0  0  0  0  0  0  0  0  0
  127.3800  130.3580   64.4690 C   0  0  0  0  0  0  0  0  0  0  0  0
  128.6690  127.2790   64.8200 C   0  0  0  0  0  0  0  0  0  0  0  0
  128.6300  127.3420   63.3560 C   0  0  0  0  0  0  0  0  0  0  0  0
  128.6000  127.3930   62.2000 N   0  0  0  0  0  0  0  0  0  0  0  0
  129.5220  126.3800   65.4970 C   0  0  0  0  0  0  0  0  0  0  0  0
  130.5670  125.1880   64.6840 S   0  0  0  0  0  0  0  0  0  0  0  0
  132.3000  125.5990   65.0770 C   0  0  0  0  0  0  0  0  0  0  0  0
  133.3340  125.0930   64.0610 C   0  0  0  0  0  0  0  0  0  0  0  0
  134.5410  125.1610   64.3040 O   0  0  0  0  0  0  0  0  0  0  0  0
  132.8070  124.5910   62.9220 N   0  0  0  0  0  0  0  0  0  0  0  0
  133.4960  124.0640   61.8370 C   0  0  0  0  0  0  0  0  0  0  0  0
  132.8650  123.6290   60.6720 C   0  0  0  0  0  0  0  0  0  0  0  0
  133.8820  123.1870   59.8580 C   0  0  0  0  0  0  0  0  0  0  0  0
  135.0650  123.3510   60.4970 O   0  0  0  0  0  0  0  0  0  0  0  0
  134.8070  123.9080   61.7500 N   0  0  0  0  0  0  0  0  0  0  0  0
  129.6490  126.3760   66.8460 N   0  0  0  0  0  0  0  0  0  0  0  0
  128.1890  126.4680   69.9060 C   0  0  0  0  0  0  0  0  0  0  0  0
  128.3650  126.3980   71.2840 C   0  0  0  0  0  0  0  0  0  0  0  0
  1  2  1  0
  2  3  1  0
  3  4  2  0
  4  5  1  0
  5  6  2  0
  6  7  1  0
  7  8  2  0
  8  9  1  0
  9 10  1  0
 10 11  2  0
 11 12  1  0
 12 13  2  0
 13 14  1  0
 14 15  1  0
 13 16  1  0
 16 17  2  0
  9 18  2  0
 18 19  1  0
 19 20  3  0
 18 21  1  0
 21 22  1  0
 22 23  1  0
 23 24  1  0
 24 25  2  0
 24 26  1  0
 26 27  1  0
 27 28  1  0
 28 29  2  0
 29 30  1  0
 30 31  1  0
 21 32  2  0
  6 33  1  0
 33 34  2  0
 34  3  1  0
 32  7  1  0
 17 10  1  0
 31 27  2  0
M  END
>  <Binding energies>  (2) 
[-9.63]

>  <Ligand effiencies>  (2) 
[-0.2751428571428572]

>  <Interactions>  (2) 
["V-A:GLU:543:CD:4905, V-A:GLU:543:CG:4904, V-B:TYR:539:CE2:9845, V-B:GLU:543:CD:9877, V-B:HIS:456:CE1:9038, V-A:HIS:456:CE1:4066, V-B:TYR:539:CZ:9846, V-A:ASP:366:CG:3209, V-B:ILE:369:CD1:8207, H-A:GLY:454:N:4046, V-A:ARG:545:CZ:4923, V-B:ASP:366:CG:8181, V-A:ILE:369:CG2:3233, V-A:ILE:369:CG1:3234, V-A:ASP:366:CA:3206, V-A:ILE:369:CB:3232, V-B:ARG:545:CZ:9895, H-B:GLY:454:N:9018, H-A:ARG:545:NH1:4924, H-A:ARG:545:NH2:4925, V-A:HIS:456:CD2:4064, V-B:LYS:547:CE:9919, H-A:LYS:547:NZ:4948, V-A:GLY:544:C:4909, H-A:ARG:545:NE:4921"]

$$$$
1c_Ghoteimi_2023
     RDKit          3D

 34 37  0  0  0  0  0  0  0  0999 V2000
  128.3230  127.6290   74.2150 C   0  0  0  0  0  0  0  0  0  0  0  0
  129.3690  127.1870   73.3570 O   0  0  0  0  0  0  0  0  0  0  0  0
  129.1610  127.1700   71.9910 C   0  0  0  0  0  0  0  0  0  0  0  0
  130.1370  127.7720   71.2020 C   0  0  0  0  0  0  0  0  0  0  0  0
  130.0080  127.8030   69.8170 C   0  0  0  0  0  0  0  0  0  0  0  0
  128.8950  127.2340   69.1780 C   0  0  0  0  0  0  0  0  0  0  0  0
  128.7490  127.2700   67.6840 C   0  0  0  0  0  0  0  0  0  0  0  0
  127.9410  128.2030   67.0250 C   0  0  0  0  0  0  0  0  0  0  0  0
  127.8580  128.2150   65.6280 C   0  0  0  0  0  0  0  0  0  0  0  0
  127.0300  129.2810   64.9900 C   0  0  0  0  0  0  0  0  0  0  0  0
  127.4910  130.5990   64.9290 C   0  0  0  0  0  0  0  0  0  0  0  0
  126.7090  131.5950   64.3530 C   0  0  0  0  0  0  0  0  0  0  0  0
  125.4510  131.2950   63.8310 C   0  0  0  0  0  0  0  0  0  0  0  0
  124.7440  132.3460   63.2790 O   0  0  0  0  0  0  0  0  0  0  0  0
  123.8300  132.0870   62.2180 C   0  0  0  0  0  0  0  0  0  0  0  0
  124.9810  129.9740   63.8960 C   0  0  0  0  0  0  0  0  0  0  0  0
  125.7660  128.9790   64.4730 C   0  0  0  0  0  0  0  0  0  0  0  0
  128.5860  127.2430   64.9020 C   0  0  0  0  0  0  0  0  0  0  0  0
  128.5140  127.1810   63.4380 C   0  0  0  0  0  0  0  0  0  0  0  0
  128.4570  127.1340   62.2830 N   0  0  0  0  0  0  0  0  0  0  0  0
  129.3940  126.3440   65.6280 C   0  0  0  0  0  0  0  0  0  0  0  0
  130.4890  125.1840   64.8400 S   0  0  0  0  0  0  0  0  0  0  0  0
  132.1640  125.8080   65.1970 C   0  0  0  0  0  0  0  0  0  0  0  0
  133.2040  125.2750   64.2050 C   0  0  0  0  0  0  0  0  0  0  0  0
  134.3700  125.1230   64.5700 O   0  0  0  0  0  0  0  0  0  0  0  0
  132.7250  124.9640   62.9800 N   0  0  0  0  0  0  0  0  0  0  0  0
  133.4120  124.3260   61.9600 C   0  0  0  0  0  0  0  0  0  0  0  0
  134.6800  123.9750   61.9360 N   0  0  0  0  0  0  0  0  0  0  0  0
  134.9870  123.3490   60.8160 C   0  0  0  0  0  0  0  0  0  0  0  0
  133.9520  123.1790   59.9020 C   0  0  0  0  0  0  0  0  0  0  0  0
  132.5010  123.8850   60.5520 S   0  0  0  0  0  0  0  0  0  0  0  0
  129.4780  126.3650   66.9790 N   0  0  0  0  0  0  0  0  0  0  0  0
  127.9210  126.6250   69.9820 C   0  0  0  0  0  0  0  0  0  0  0  0
  128.0460  126.5920   71.3680 C   0  0  0  0  0  0  0  0  0  0  0  0
  1  2  1  0
  2  3  1  0
  3  4  2  0
  4  5  1  0
  5  6  2  0
  6  7  1  0
  7  8  2  0
  8  9  1  0
  9 10  1  0
 10 11  2  0
 11 12  1  0
 12 13  2  0
 13 14  1  0
 14 15  1  0
 13 16  1  0
 16 17  2  0
  9 18  2  0
 18 19  1  0
 19 20  3  0
 18 21  1  0
 21 22  1  0
 22 23  1  0
 23 24  1  0
 24 25  2  0
 24 26  1  0
 26 27  1  0
 27 28  2  0
 28 29  1  0
 29 30  2  0
 30 31  1  0
 21 32  2  0
  6 33  1  0
 33 34  2  0
 34  3  1  0
 32  7  1  0
 17 10  1  0
 31 27  1  0
M  END
>  <Binding energies>  (3) 
[-9.33]

>  <Ligand effiencies>  (3) 
[-0.26657142857142857]

>  <Interactions>  (3) 
["V-A:GLU:543:CD:4905, V-A:GLU:543:CG:4904, V-B:TYR:539:CE2:9845, V-B:GLU:543:CD:9877, V-B:HIS:456:CE1:9038, V-A:HIS:456:CE1:4066, V-B:TYR:539:CZ:9846, V-A:ASP:366:CG:3209, V-B:GLU:543:CG:9876, V-B:ILE:369:CD1:8207, H-A:GLY:454:N:4046, V-A:ARG:545:CZ:4923, V-A:ILE:369:CG2:3233, V-A:ILE:369:CG1:3234, V-A:ASP:366:CA:3206, V-A:ILE:369:CB:3232, V-B:GLY:454:CA:9017, V-A:GLY:453:C:4038, V-B:ARG:545:CZ:9895, H-B:GLY:454:N:9018, H-A:ARG:545:NH1:4924, V-A:GLY:453:CA:4040, H-A:ARG:545:NH2:4925, V-A:HIS:456:CD2:4064, V-B:HIS:456:CD2:9036, V-A:LYS:547:CE:4947, V-B:GLY:544:C:9881, V-B:LYS:547:CE:9919, H-A:LYS:547:NZ:4948, H-A:ARG:545:NE:4921"]

$$$$
1d_Ghoteimi_2023
     RDKit          3D

 30 32  0  0  0  0  0  0  0  0999 V2000
  124.1380  130.0240   63.2750 C   0  0  0  0  0  0  0  0  0  0  0  0
  124.4050  130.5490   64.5670 O   0  0  0  0  0  0  0  0  0  0  0  0
  124.1610  129.8120   65.6700 C   0  0  0  0  0  0  0  0  0  0  0  0
  123.2360  129.9770   66.4670 O   0  0  0  0  0  0  0  0  0  0  0  0
  125.1860  128.6970   65.8610 C   0  0  0  0  0  0  0  0  0  0  0  0
  126.7800  129.3060   65.2360 S   0  0  0  0  0  0  0  0  0  0  0  0
  128.0370  128.2120   65.8600 C   0  0  0  0  0  0  0  0  0  0  0  0
  128.0930  128.1610   67.2120 N   0  0  0  0  0  0  0  0  0  0  0  0
  129.0100  127.3670   67.8230 C   0  0  0  0  0  0  0  0  0  0  0  0
  129.0020  127.3630   69.3240 C   0  0  0  0  0  0  0  0  0  0  0  0
  129.9790  128.0510   70.0600 C   0  0  0  0  0  0  0  0  0  0  0  0
  129.9740  128.0410   71.4510 C   0  0  0  0  0  0  0  0  0  0  0  0
  128.9940  127.3420   72.1510 C   0  0  0  0  0  0  0  0  0  0  0  0
  129.0690  127.3840   73.5300 O   0  0  0  0  0  0  0  0  0  0  0  0
  127.9410  127.8360   74.2720 C   0  0  0  0  0  0  0  0  0  0  0  0
  128.0110  126.6490   71.4310 C   0  0  0  0  0  0  0  0  0  0  0  0
  128.0190  126.6630   70.0390 C   0  0  0  0  0  0  0  0  0  0  0  0
  129.8960  126.5900   67.0670 C   0  0  0  0  0  0  0  0  0  0  0  0
  129.8700  126.6360   65.6670 C   0  0  0  0  0  0  0  0  0  0  0  0
  130.8490  125.7860   64.9230 C   0  0  0  0  0  0  0  0  0  0  0  0
  130.4000  124.8610   63.9750 C   0  0  0  0  0  0  0  0  0  0  0  0
  131.3060  124.0660   63.2780 C   0  0  0  0  0  0  0  0  0  0  0  0
  132.6760  124.1830   63.5090 C   0  0  0  0  0  0  0  0  0  0  0  0
  133.4990  123.3500   62.7770 O   0  0  0  0  0  0  0  0  0  0  0  0
  133.2720  123.2000   61.3800 C   0  0  0  0  0  0  0  0  0  0  0  0
  133.1320  125.1190   64.4500 C   0  0  0  0  0  0  0  0  0  0  0  0
  132.2240  125.9130   65.1450 C   0  0  0  0  0  0  0  0  0  0  0  0
  128.9280  127.4860   65.0370 C   0  0  0  0  0  0  0  0  0  0  0  0
  128.9260  127.6520   63.5810 C   0  0  0  0  0  0  0  0  0  0  0  0
  128.9250  127.7820   62.4310 N   0  0  0  0  0  0  0  0  0  0  0  0
  1  2  1  0
  2  3  1  0
  3  4  2  0
  3  5  1  0
  5  6  1  0
  6  7  1  0
  7  8  2  0
  8  9  1  0
  9 10  1  0
 10 11  2  0
 11 12  1  0
 12 13  2  0
 13 14  1  0
 14 15  1  0
 13 16  1  0
 16 17  2  0
  9 18  2  0
 18 19  1  0
 19 20  1  0
 20 21  2  0
 21 22  1  0
 22 23  2  0
 23 24  1  0
 24 25  1  0
 23 26  1  0
 26 27  2  0
 19 28  2  0
 28 29  1  0
 29 30  3  0
 28  7  1  0
 17 10  1  0
 27 20  1  0
M  END
>  <Binding energies>  (4) 
[-8.58]

>  <Ligand effiencies>  (4) 
[-0.286]

>  <Interactions>  (4) 
["V-A:GLU:543:CD:4905, V-B:GLU:543:CD:9877, V-B:HIS:456:CE1:9038, V-A:HIS:456:CE1:4066, H-B:TYR:484:OH:9316, H-A:GLY:454:N:4046, V-A:ARG:545:CZ:4923, V-B:ASP:366:CG:8181, V-B:ARG:545:CD:9892, V-B:ARG:545:CG:9891, V-B:ARG:545:CZ:9895, H-B:GLY:454:N:9018, V-A:GLU:543:C:4899, V-B:HIS:456:CD2:9036, V-B:GLY:544:C:9881, V-B:LYS:547:CE:9919, H-A:LYS:547:NZ:4948, H-B:HIS:456:ND1:9035, H-B:ILE:455:N:9023"]

$$$$
1j_Grossjean_2025
     RDKit          3D

 20 21  0  0  0  0  0  0  0  0999 V2000
  128.8310  121.8020   59.7520 C   0  0  0  0  0  0  0  0  0  0  0  0
  127.6150  122.5760   59.2750 C   0  0  0  0  0  0  0  0  0  0  0  0
  126.7680  123.2270   60.1690 C   0  0  0  0  0  0  0  0  0  0  0  0
  125.6700  123.9360   59.6700 C   0  0  0  0  0  0  0  0  0  0  0  0
  124.7650  124.6550   60.6690 C   0  0  0  0  0  0  0  0  0  0  0  0
  125.4440  123.9680   58.2760 C   0  0  0  0  0  0  0  0  0  0  0  0
  124.3310  124.7480   57.7280 C   0  0  0  0  0  0  0  0  0  0  0  0
  123.4520  125.3660   57.2990 N   0  0  0  0  0  0  0  0  0  0  0  0
  126.3410  123.2570   57.4440 C   0  0  0  0  0  0  0  0  0  0  0  0
  126.2070  123.1870   55.6710 S   0  0  0  0  0  0  0  0  0  0  0  0
  127.5650  122.1490   55.0540 C   0  0  0  0  0  0  0  0  0  0  0  0
  128.8070  122.9730   54.7110 C   0  0  0  0  0  0  0  0  0  0  0  0
  129.2140  122.9980   53.5490 O   0  0  0  0  0  0  0  0  0  0  0  0
  129.3740  123.6310   55.7460 N   0  0  0  0  0  0  0  0  0  0  0  0
  130.5040  124.4340   55.6980 C   0  0  0  0  0  0  0  0  0  0  0  0
  131.6020  124.2420   54.9980 N   0  0  0  0  0  0  0  0  0  0  0  0
  132.4750  125.2100   55.1920 C   0  0  0  0  0  0  0  0  0  0  0  0
  132.0900  126.2210   56.0670 C   0  0  0  0  0  0  0  0  0  0  0  0
  130.4940  125.8750   56.6630 S   0  0  0  0  0  0  0  0  0  0  0  0
  127.4160  122.5900   57.9360 N   0  0  0  0  0  0  0  0  0  0  0  0
  1  2  1  0
  2  3  2  0
  3  4  1  0
  4  5  1  0
  4  6  2  0
  6  7  1  0
  7  8  3  0
  6  9  1  0
  9 10  1  0
 10 11  1  0
 11 12  1  0
 12 13  2  0
 12 14  1  0
 14 15  1  0
 15 16  2  0
 16 17  1  0
 17 18  2  0
 18 19  1  0
  9 20  2  0
 20  2  1  0
 19 15  1  0
M  END
>  <Binding energies>  (5) 
[-7.04]

>  <Ligand effiencies>  (5) 
[-0.3352380952380952]

>  <Interactions>  (5) 
["V-B:TYR:539:CE2:9845, V-B:TYR:539:CE1:9844, V-B:PRO:540:CA:9852, V-B:TYR:539:CG:9841, V-B:PRO:540:N:9853, V-B:TYR:539:C:9836, H-B:TYR:531:OH:9764, V-B:TYR:539:CZ:9846, V-B:TYR:539:CD1:9842, V-B:PRO:540:CB:9854, V-B:MET:535:CE:9804, V-B:TYR:539:CD2:9843, V-A:ASP:366:CB:3208, H-B:TYR:539:OH:9847, V-B:LEU:363:CD1:8157, V-B:ILE:538:CB:9831, V-B:ILE:538:CA:9829, V-A:TYR:531:CE1:4789, V-B:ILE:538:CG2:9832, V-B:ILE:538:C:9827, V-B:TYR:531:CE2:9762, V-A:ASN:370:CB:3241"]

$$$$
1o_Grossjean_2025
     RDKit          3D

 26 27  0  0  0  0  0  0  0  0999 V2000
  128.2280  122.0380   58.5550 C   0  0  0  0  0  0  0  0  0  0  0  0
  127.8520  121.7200   57.2230 O   0  0  0  0  0  0  0  0  0  0  0  0
  126.7950  122.3330   56.6300 C   0  0  0  0  0  0  0  0  0  0  0  0
  126.0760  121.7850   55.7880 O   0  0  0  0  0  0  0  0  0  0  0  0
  126.5850  123.7430   57.1010 C   0  0  0  0  0  0  0  0  0  0  0  0
  127.6020  124.7070   57.0360 C   0  0  0  0  0  0  0  0  0  0  0  0
  127.3730  126.0070   57.4790 C   0  0  0  0  0  0  0  0  0  0  0  0
  126.1300  126.3690   57.9990 C   0  0  0  0  0  0  0  0  0  0  0  0
  126.0050  127.7110   58.4100 N   0  0  0  0  0  0  0  0  0  0  0  0
  126.4270  128.8430   57.8060 C   0  0  0  0  0  0  0  0  0  0  0  0
  126.9870  128.8970   56.7100 O   0  0  0  0  0  0  0  0  0  0  0  0
  126.1400  130.1460   58.5670 C   0  0  0  0  0  0  0  0  0  0  0  0
  127.2870  130.5700   59.5060 C   0  0  0  0  0  0  0  0  0  0  0  0
  128.0430  132.1650   59.0710 S   0  0  0  0  0  0  0  0  0  0  0  0
  129.7550  131.8850   58.6630 C   0  0  0  0  0  0  0  0  0  0  0  0
  130.5070  131.4980   59.7250 N   0  0  0  0  0  0  0  0  0  0  0  0
  131.8230  131.2480   59.5340 C   0  0  0  0  0  0  0  0  0  0  0  0
  132.5950  130.8060   60.7630 C   0  0  0  0  0  0  0  0  0  0  0  0
  132.4410  131.3840   58.2940 C   0  0  0  0  0  0  0  0  0  0  0  0
  131.6820  131.8070   57.1980 C   0  0  0  0  0  0  0  0  0  0  0  0
  132.3860  131.9620   55.8510 C   0  0  0  0  0  0  0  0  0  0  0  0
  130.3060  132.0780   57.3740 C   0  0  0  0  0  0  0  0  0  0  0  0
  129.5080  132.5790   56.2520 C   0  0  0  0  0  0  0  0  0  0  0  0
  128.8790  132.9740   55.3640 N   0  0  0  0  0  0  0  0  0  0  0  0
  125.1060  125.4110   58.0620 C   0  0  0  0  0  0  0  0  0  0  0  0
  125.3370  124.1120   57.6180 C   0  0  0  0  0  0  0  0  0  0  0  0
  1  2  1  0
  2  3  1  0
  3  4  2  0
  3  5  1  0
  5  6  2  0
  6  7  1  0
  7  8  2  0
  8  9  1  0
  9 10  1  0
 10 11  2  0
 10 12  1  0
 12 13  1  0
 13 14  1  0
 14 15  1  0
 15 16  2  0
 16 17  1  0
 17 18  1  0
 17 19  2  0
 19 20  1  0
 20 21  1  0
 20 22  2  0
 22 23  1  0
 23 24  3  0
  8 25  1  0
 25 26  2  0
 26  5  1  0
 22 15  1  0
M  END
>  <Binding energies>  (6) 
[-8.68]

>  <Ligand effiencies>  (6) 
[-0.3214814814814815]

>  <Interactions>  (6) 
["V-B:TYR:539:CE2:9845, V-B:TYR:539:CE1:9844, V-B:PRO:540:CA:9852, V-B:TYR:539:CG:9841, V-B:PRO:540:N:9853, V-B:TYR:539:C:9836, H-B:TYR:531:OH:9764, V-B:TYR:539:CZ:9846, V-B:TYR:539:CD1:9842, V-B:MET:535:CE:9804, V-B:TYR:539:CD2:9843, V-A:TYR:531:CZ:4791, V-A:PRO:540:CA:4880, V-A:TYR:539:CD2:4871, V-A:TYR:539:C:4864, V-A:PRO:540:N:4881, V-A:PRO:540:CB:4882, V-A:ILE:538:CD1:4862, H-A:TYR:539:N:4867, V-A:LEU:363:CD1:3185, V-B:ASP:366:CB:8180, V-B:LEU:363:CD1:8157, V-B:ASP:366:CG:8181, H-B:TYR:539:N:9839, V-B:ILE:538:CB:9831, V-A:ASN:362:CB:3172, V-A:ILE:538:CG2:4860, H-B:ASP:366:OD1:8182, V-A:TYR:539:CA:4866, V-B:PRO:540:CD:9856, V-A:TYR:531:CE2:4790"]

$$$$
1p_Grossjean_2025
     RDKit          3D

 21 22  0  0  0  0  0  0  0  0999 V2000
  132.7260  131.0440   61.1290 C   0  0  0  0  0  0  0  0  0  0  0  0
  131.9390  131.4320   59.8920 C   0  0  0  0  0  0  0  0  0  0  0  0
  132.5130  131.3980   58.6230 C   0  0  0  0  0  0  0  0  0  0  0  0
  131.7440  131.7790   57.5180 C   0  0  0  0  0  0  0  0  0  0  0  0
  132.3990  131.7490   56.1380 C   0  0  0  0  0  0  0  0  0  0  0  0
  130.4040  132.1810   57.7150 C   0  0  0  0  0  0  0  0  0  0  0  0
  129.5930  132.6300   56.5820 C   0  0  0  0  0  0  0  0  0  0  0  0
  128.9530  132.9850   55.6850 N   0  0  0  0  0  0  0  0  0  0  0  0
  129.8960  132.1620   59.0360 C   0  0  0  0  0  0  0  0  0  0  0  0
  128.2320  132.6260   59.4580 S   0  0  0  0  0  0  0  0  0  0  0  0
  127.1780  131.1920   59.0940 C   0  0  0  0  0  0  0  0  0  0  0  0
  125.8340  131.5600   58.4370 C   0  0  0  0  0  0  0  0  0  0  0  0
  125.6520  130.9640   57.0340 C   0  0  0  0  0  0  0  0  0  0  0  0
  124.5910  130.4080   56.7420 O   0  0  0  0  0  0  0  0  0  0  0  0
  126.7020  131.1120   56.1950 N   0  0  0  0  0  0  0  0  0  0  0  0
  126.7980  130.6700   54.8820 C   0  0  0  0  0  0  0  0  0  0  0  0
  127.7330  129.7240   54.4630 C   0  0  0  0  0  0  0  0  0  0  0  0
  127.5010  129.5640   53.1160 C   0  0  0  0  0  0  0  0  0  0  0  0
  126.4820  130.3720   52.7430 O   0  0  0  0  0  0  0  0  0  0  0  0
  126.0450  131.0690   53.8710 N   0  0  0  0  0  0  0  0  0  0  0  0
  130.6570  131.8110   60.1040 N   0  0  0  0  0  0  0  0  0  0  0  0
  1  2  1  0
  2  3  2  0
  3  4  1  0
  4  5  1  0
  4  6  2  0
  6  7  1  0
  7  8  3  0
  6  9  1  0
  9 10  1  0
 10 11  1  0
 11 12  1  0
 12 13  1  0
 13 14  2  0
 13 15  1  0
 15 16  1  0
 16 17  1  0
 17 18  2  0
 18 19  1  0
 19 20  1  0
  9 21  2  0
 21  2  1  0
 20 16  2  0
M  END
>  <Binding energies>  (7) 
[-7.86]

>  <Ligand effiencies>  (7) 
[-0.3572727272727273]

>  <Interactions>  (7) 
["V-A:GLU:543:CD:4905, H-B:TYR:531:OH:9764, V-B:MET:535:CE:9804, V-A:TYR:531:CZ:4791, V-A:PRO:540:CA:4880, V-A:TYR:539:CD2:4871, V-A:TYR:539:CE2:4873, V-A:TYR:539:C:4864, V-A:PRO:540:N:4881, V-A:PRO:540:CB:4882, H-A:ALA:541:N:4888, V-A:ILE:538:CD1:4862, V-B:LYS:534:CE:9791, H-A:TYR:539:N:4867, V-A:TYR:539:CZ:4874, V-A:LEU:363:CD1:3185, H-A:TYR:539:OH:4875, V-A:ASN:362:CB:3172, H-B:LYS:534:NZ:9792, V-A:MET:535:CE:4832, V-A:ILE:538:CG2:4860, V-A:TYR:539:CA:4866, V-A:TYR:531:CE2:4790"]

$$$$
2a_Ghoteimi_2023
     RDKit          3D

 48 53  0  0  0  0  0  0  0  0999 V2000
  128.9860  122.9010   53.8700 C   0  0  0  0  0  0  0  0  0  0  0  0
  128.4650  123.1320   55.2910 C   0  0  0  0  0  0  0  0  0  0  0  0
  127.6800  122.0170   55.6930 O   0  0  0  0  0  0  0  0  0  0  0  0
  126.6080  122.1710   56.5120 C   0  0  0  0  0  0  0  0  0  0  0  0
  125.4390  122.0540   56.1310 O   0  0  0  0  0  0  0  0  0  0  0  0
  126.9870  122.4910   57.9290 C   0  0  0  0  0  0  0  0  0  0  0  0
  128.1440  121.9680   58.5260 C   0  0  0  0  0  0  0  0  0  0  0  0
  128.4660  122.2860   59.8410 C   0  0  0  0  0  0  0  0  0  0  0  0
  127.6460  123.1350   60.5870 C   0  0  0  0  0  0  0  0  0  0  0  0
  128.0650  123.3850   61.9070 N   0  0  0  0  0  0  0  0  0  0  0  0
  129.2920  123.2760   62.4610 C   0  0  0  0  0  0  0  0  0  0  0  0
  130.2990  122.8710   61.8790 O   0  0  0  0  0  0  0  0  0  0  0  0
  129.3750  123.6620   63.9440 C   0  0  0  0  0  0  0  0  0  0  0  0
  130.6110  124.9470   64.3200 S   0  0  0  0  0  0  0  0  0  0  0  0
  129.7070  126.2720   65.0880 C   0  0  0  0  0  0  0  0  0  0  0  0
  129.7260  126.2360   66.4410 N   0  0  0  0  0  0  0  0  0  0  0  0
  129.0640  127.1900   67.1420 C   0  0  0  0  0  0  0  0  0  0  0  0
  129.1200  127.0810   68.6320 C   0  0  0  0  0  0  0  0  0  0  0  0
  128.1730  126.3330   69.3420 C   0  0  0  0  0  0  0  0  0  0  0  0
  128.2240  126.2450   70.7300 C   0  0  0  0  0  0  0  0  0  0  0  0
  129.2280  126.8960   71.4610 C   0  0  0  0  0  0  0  0  0  0  0  0
  129.2490  126.8230   72.8580 N   0  0  0  0  0  0  0  0  0  0  0  0
  129.8000  125.6460   73.5600 C   0  0  0  0  0  0  0  0  0  0  0  0
  130.0730  125.8870   75.0600 C   0  0  0  0  0  0  0  0  0  0  0  0
  128.8970  126.3550   75.6990 O   0  0  0  0  0  0  0  0  0  0  0  0
  128.4560  127.5810   75.1380 C   0  0  0  0  0  0  0  0  0  0  0  0
  128.1330  127.3940   73.6410 C   0  0  0  0  0  0  0  0  0  0  0  0
  130.1680  127.6550   70.7460 C   0  0  0  0  0  0  0  0  0  0  0  0
  130.1190  127.7400   69.3580 C   0  0  0  0  0  0  0  0  0  0  0  0
  128.3730  128.2160   66.4930 C   0  0  0  0  0  0  0  0  0  0  0  0
  128.3390  128.2730   65.0920 C   0  0  0  0  0  0  0  0  0  0  0  0
  127.5770  129.3940   64.4630 C   0  0  0  0  0  0  0  0  0  0  0  0
  126.5990  129.1260   63.5020 C   0  0  0  0  0  0  0  0  0  0  0  0
  125.8970  130.1630   62.8950 C   0  0  0  0  0  0  0  0  0  0  0  0
  126.1500  131.5010   63.2340 C   0  0  0  0  0  0  0  0  0  0  0  0
  125.4700  132.5590   62.6230 N   0  0  0  0  0  0  0  0  0  0  0  0
  123.9950  132.6060   62.6930 C   0  0  0  0  0  0  0  0  0  0  0  0
  123.4130  133.9900   62.3350 C   0  0  0  0  0  0  0  0  0  0  0  0
  123.8700  134.3930   61.0530 O   0  0  0  0  0  0  0  0  0  0  0  0
  125.2850  134.4890   61.0070 C   0  0  0  0  0  0  0  0  0  0  0  0
  125.9180  133.1210   61.3340 C   0  0  0  0  0  0  0  0  0  0  0  0
  127.1410  131.7620   64.1910 C   0  0  0  0  0  0  0  0  0  0  0  0
  127.8440  130.7250   64.7960 C   0  0  0  0  0  0  0  0  0  0  0  0
  129.0300  127.2770   64.3610 C   0  0  0  0  0  0  0  0  0  0  0  0
  129.0780  127.3160   62.8960 C   0  0  0  0  0  0  0  0  0  0  0  0
  129.1130  127.3480   61.7400 N   0  0  0  0  0  0  0  0  0  0  0  0
  126.4830  123.6560   60.0000 C   0  0  0  0  0  0  0  0  0  0  0  0
  126.1620  123.3380   58.6830 C   0  0  0  0  0  0  0  0  0  0  0  0
  1  2  1  0
  2  3  1  0
  3  4  1  0
  4  5  2  0
  4  6  1  0
  6  7  2  0
  7  8  1  0
  8  9  2  0
  9 10  1  0
 10 11  1  0
 11 12  2  0
 11 13  1  0
 13 14  1  0
 14 15  1  0
 15 16  2  0
 16 17  1  0
 17 18  1  0
 18 19  2  0
 19 20  1  0
 20 21  2  0
 21 22  1  0
 22 23  1  0
 23 24  1  0
 24 25  1  0
 25 26  1  0
 26 27  1  0
 21 28  1  0
 28 29  2  0
 17 30  2  0
 30 31  1  0
 31 32  1  0
 32 33  2  0
 33 34  1  0
 34 35  2  0
 35 36  1  0
 36 37  1  0
 37 38  1  0
 38 39  1  0
 39 40  1  0
 40 41  1  0
 35 42  1  0
 42 43  2  0
 31 44  2  0
 44 45  1  0
 45 46  3  0
  9 47  1  0
 47 48  2  0
 48  6  1  0
 44 15  1  0
 29 18  1  0
 43 32  1  0
 27 22  1  0
 41 36  1  0
M  END
>  <Binding energies>  (8) 
[-12.36]

>  <Ligand effiencies>  (8) 
[-0.25224489795918364]

>  <Interactions>  (8) 
["V-A:GLU:543:CD:4905, V-A:GLU:543:CG:4904, V-B:TYR:539:CE2:9845, V-B:TYR:539:CE1:9844, V-B:PRO:540:CA:9852, V-B:TYR:539:CG:9841, V-B:PRO:540:N:9853, V-B:TYR:539:C:9836, V-B:GLU:543:CD:9877, V-B:HIS:456:CE1:9038, V-A:HIS:456:CE1:4066, V-B:TYR:539:CZ:9846, V-A:GLU:543:CB:4903, V-B:TYR:539:CD1:9842, V-B:ALA:541:CB:9861, V-B:PRO:540:CB:9854, V-B:MET:535:CE:9804, V-B:TYR:539:CD2:9843, V-B:GLU:543:CG:9876, V-B:LEU:475:CD2:9227, V-B:TRP:381:CH2:8340, H-B:GLU:543:OE2:9879, V-B:GLU:543:CB:9875, V-B:GLU:543:C:9871, V-B:ILE:369:CG2:8205, V-B:ILE:369:CD1:8207, H-B:TYR:539:N:9839, V-B:ILE:538:CB:9831, V-B:ILE:538:CA:9829, V-B:PRO:540:CD:9856, V-B:GLY:454:CA:9017, V-A:HIS:456:CD2:4064, V-A:LYS:547:CE:4947, V-B:GLY:544:C:9881, V-B:LYS:547:CE:9919, H-B:LYS:547:NZ:9920"]

$$$$
2aa_Ghoteimi_2023
     RDKit          3D

 48 53  0  0  0  0  0  0  0  0999 V2000
  128.7860  122.8370   53.8790 C   0  0  0  0  0  0  0  0  0  0  0  0
  128.3290  123.1150   55.3150 C   0  0  0  0  0  0  0  0  0  0  0  0
  127.5280  122.0330   55.7710 O   0  0  0  0  0  0  0  0  0  0  0  0
  126.4980  122.2370   56.6330 C   0  0  0  0  0  0  0  0  0  0  0  0
  125.3100  122.1520   56.3050 O   0  0  0  0  0  0  0  0  0  0  0  0
  126.9470  122.5600   58.0290 C   0  0  0  0  0  0  0  0  0  0  0  0
  126.1460  123.2980   58.9130 C   0  0  0  0  0  0  0  0  0  0  0  0
  126.5880  123.5780   60.2020 C   0  0  0  0  0  0  0  0  0  0  0  0
  127.8410  123.1350   60.6320 C   0  0  0  0  0  0  0  0  0  0  0  0
  128.1870  123.4710   61.9560 N   0  0  0  0  0  0  0  0  0  0  0  0
  129.4040  123.6120   62.5220 C   0  0  0  0  0  0  0  0  0  0  0  0
  130.4790  123.4910   61.9310 O   0  0  0  0  0  0  0  0  0  0  0  0
  129.3770  123.9760   64.0120 C   0  0  0  0  0  0  0  0  0  0  0  0
  130.0860  125.2020   64.2220 O   0  0  0  0  0  0  0  0  0  0  0  0
  129.4850  126.2450   64.9130 C   0  0  0  0  0  0  0  0  0  0  0  0
  129.5190  126.2140   66.2750 N   0  0  0  0  0  0  0  0  0  0  0  0
  128.9440  127.2200   66.9810 C   0  0  0  0  0  0  0  0  0  0  0  0
  129.0170  127.1170   68.4720 C   0  0  0  0  0  0  0  0  0  0  0  0
  128.0690  126.3740   69.1830 C   0  0  0  0  0  0  0  0  0  0  0  0
  128.1350  126.2690   70.5700 C   0  0  0  0  0  0  0  0  0  0  0  0
  129.1610  126.8930   71.2970 C   0  0  0  0  0  0  0  0  0  0  0  0
  129.2350  126.8080   72.6920 N   0  0  0  0  0  0  0  0  0  0  0  0
  128.1790  127.3770   73.5550 C   0  0  0  0  0  0  0  0  0  0  0  0
  128.5900  127.5090   75.0370 C   0  0  0  0  0  0  0  0  0  0  0  0
  129.0300  126.2550   75.5320 O   0  0  0  0  0  0  0  0  0  0  0  0
  130.1550  125.7770   74.8110 C   0  0  0  0  0  0  0  0  0  0  0  0
  129.7900  125.5930   73.3230 C   0  0  0  0  0  0  0  0  0  0  0  0
  130.0960  127.6540   70.5810 C   0  0  0  0  0  0  0  0  0  0  0  0
  130.0270  127.7610   69.1950 C   0  0  0  0  0  0  0  0  0  0  0  0
  128.3030  128.2820   66.3360 C   0  0  0  0  0  0  0  0  0  0  0  0
  128.2440  128.3310   64.9370 C   0  0  0  0  0  0  0  0  0  0  0  0
  127.5220  129.4770   64.3050 C   0  0  0  0  0  0  0  0  0  0  0  0
  126.5460  129.2460   63.3320 C   0  0  0  0  0  0  0  0  0  0  0  0
  125.8840  130.3090   62.7250 C   0  0  0  0  0  0  0  0  0  0  0  0
  126.1890  131.6370   63.0630 C   0  0  0  0  0  0  0  0  0  0  0  0
  125.5350  132.7190   62.4690 N   0  0  0  0  0  0  0  0  0  0  0  0
  124.0630  132.7800   62.3930 C   0  0  0  0  0  0  0  0  0  0  0  0
  123.5230  134.1820   62.0370 C   0  0  0  0  0  0  0  0  0  0  0  0
  124.1120  134.6350   60.8260 O   0  0  0  0  0  0  0  0  0  0  0  0
  125.5240  134.7210   60.9330 C   0  0  0  0  0  0  0  0  0  0  0  0
  126.1160  133.3350   61.2590 C   0  0  0  0  0  0  0  0  0  0  0  0
  127.1640  131.8580   64.0450 C   0  0  0  0  0  0  0  0  0  0  0  0
  127.8260  130.7960   64.6530 C   0  0  0  0  0  0  0  0  0  0  0  0
  128.8650  127.2910   64.2070 C   0  0  0  0  0  0  0  0  0  0  0  0
  128.8970  127.2860   62.7430 C   0  0  0  0  0  0  0  0  0  0  0  0
  128.9210  127.2830   61.5860 N   0  0  0  0  0  0  0  0  0  0  0  0
  128.6450  122.3910   59.7570 C   0  0  0  0  0  0  0  0  0  0  0  0
  128.1980  122.1090   58.4690 C   0  0  0  0  0  0  0  0  0  0  0  0
  1  2  1  0
  2  3  1  0
  3  4  1  0
  4  5  2  0
  4  6  1  0
  6  7  2  0
  7  8  1  0
  8  9  2  0
  9 10  1  0
 10 11  1  0
 11 12  2  0
 11 13  1  0
 13 14  1  0
 14 15  1  0
 15 16  2  0
 16 17  1  0
 17 18  1  0
 18 19  2  0
 19 20  1  0
 20 21  2  0
 21 22  1  0
 22 23  1  0
 23 24  1  0
 24 25  1  0
 25 26  1  0
 26 27  1  0
 21 28  1  0
 28 29  2  0
 17 30  2  0
 30 31  1  0
 31 32  1  0
 32 33  2  0
 33 34  1  0
 34 35  2  0
 35 36  1  0
 36 37  1  0
 37 38  1  0
 38 39  1  0
 39 40  1  0
 40 41  1  0
 35 42  1  0
 42 43  2  0
 31 44  2  0
 44 45  1  0
 45 46  3  0
  9 47  1  0
 47 48  2  0
 48  6  1  0
 44 15  1  0
 29 18  1  0
 43 32  1  0
 27 22  1  0
 41 36  1  0
M  END
>  <Binding energies>  (9) 
[-11.85]

>  <Ligand effiencies>  (9) 
[-0.24183673469387754]

>  <Interactions>  (9) 
["V-A:GLU:543:CD:4905, V-A:GLU:543:CG:4904, V-B:TYR:539:CE2:9845, V-B:TYR:539:CE1:9844, V-B:PRO:540:CA:9852, V-B:TYR:539:CG:9841, V-B:PRO:540:N:9853, V-B:TYR:539:C:9836, V-B:GLU:543:CD:9877, V-B:HIS:456:CE1:9038, V-A:HIS:456:CE1:4066, V-B:TYR:539:CZ:9846, V-B:TYR:539:CD1:9842, V-B:ALA:541:CB:9861, V-B:PRO:540:CB:9854, V-B:MET:535:CE:9804, V-B:TYR:539:CD2:9843, V-B:GLU:543:CG:9876, V-B:LEU:475:CD2:9227, V-B:TRP:381:CH2:8340, H-B:GLU:543:OE2:9879, V-B:GLU:543:CB:9875, V-B:GLU:543:C:9871, V-B:ILE:369:CG2:8205, V-B:ILE:369:CD1:8207, H-B:TYR:539:N:9839, V-B:ILE:538:CB:9831, V-B:ILE:538:CA:9829, V-B:ILE:538:CG2:9832, V-B:PRO:540:CD:9856, V-B:GLY:454:CA:9017, V-B:VAL:537:C:9819, V-A:HIS:456:CD2:4064, V-A:LYS:547:CE:4947, V-B:GLY:544:C:9881, V-B:LYS:547:CE:9919, H-B:LYS:547:NZ:9920"]

$$$$
2b_Ghoteimi_2023
     RDKit          3D

 42 47  0  0  0  0  0  0  0  0999 V2000
  130.5150  122.5730   64.8910 N   0  0  0  0  0  0  0  0  0  0  0  0
  130.4940  123.4660   64.1550 C   0  0  0  0  0  0  0  0  0  0  0  0
  130.4670  124.6000   63.2270 C   0  0  0  0  0  0  0  0  0  0  0  0
  130.3000  125.9220   63.7110 C   0  0  0  0  0  0  0  0  0  0  0  0
  130.1440  126.2640   65.1560 C   0  0  0  0  0  0  0  0  0  0  0  0
  131.1460  126.9710   65.8240 C   0  0  0  0  0  0  0  0  0  0  0  0
  131.0070  127.2920   67.1710 C   0  0  0  0  0  0  0  0  0  0  0  0
  129.8680  126.8980   67.8930 C   0  0  0  0  0  0  0  0  0  0  0  0
  129.7000  127.2180   69.2410 N   0  0  0  0  0  0  0  0  0  0  0  0
  128.8720  126.3400   70.0910 C   0  0  0  0  0  0  0  0  0  0  0  0
  128.4600  126.9930   71.4270 C   0  0  0  0  0  0  0  0  0  0  0  0
  129.6110  127.4440   72.1260 O   0  0  0  0  0  0  0  0  0  0  0  0
  130.3390  128.4020   71.3740 C   0  0  0  0  0  0  0  0  0  0  0  0
  130.8060  127.7800   70.0420 C   0  0  0  0  0  0  0  0  0  0  0  0
  128.8700  126.1850   67.2140 C   0  0  0  0  0  0  0  0  0  0  0  0
  129.0070  125.8680   65.8660 C   0  0  0  0  0  0  0  0  0  0  0  0
  130.2850  126.9740   62.7870 C   0  0  0  0  0  0  0  0  0  0  0  0
  130.4640  126.7210   61.4240 C   0  0  0  0  0  0  0  0  0  0  0  0
  130.4860  127.8110   60.4000 C   0  0  0  0  0  0  0  0  0  0  0  0
  130.7080  129.1400   60.7770 C   0  0  0  0  0  0  0  0  0  0  0  0
  130.7470  130.1570   59.8270 C   0  0  0  0  0  0  0  0  0  0  0  0
  130.5510  129.8860   58.4640 C   0  0  0  0  0  0  0  0  0  0  0  0
  130.6170  130.8930   57.4950 N   0  0  0  0  0  0  0  0  0  0  0  0
  129.4960  131.8440   57.3440 C   0  0  0  0  0  0  0  0  0  0  0  0
  129.5260  132.6290   56.0150 C   0  0  0  0  0  0  0  0  0  0  0  0
  130.7750  133.2870   55.8670 O   0  0  0  0  0  0  0  0  0  0  0  0
  131.8500  132.3620   55.8460 C   0  0  0  0  0  0  0  0  0  0  0  0
  131.8890  131.5660   57.1680 C   0  0  0  0  0  0  0  0  0  0  0  0
  130.3360  128.5520   58.0900 C   0  0  0  0  0  0  0  0  0  0  0  0
  130.3010  127.5340   59.0400 C   0  0  0  0  0  0  0  0  0  0  0  0
  130.6250  125.4540   60.9630 N   0  0  0  0  0  0  0  0  0  0  0  0
  130.6090  124.4180   61.8330 C   0  0  0  0  0  0  0  0  0  0  0  0
  130.8280  122.8320   61.0570 S   0  0  0  0  0  0  0  0  0  0  0  0
  129.3430  121.8410   61.4030 C   0  0  0  0  0  0  0  0  0  0  0  0
  128.2280  122.1040   60.3890 C   0  0  0  0  0  0  0  0  0  0  0  0
  127.0840  122.3210   60.7930 O   0  0  0  0  0  0  0  0  0  0  0  0
  128.6020  122.0680   59.0910 N   0  0  0  0  0  0  0  0  0  0  0  0
  127.8010  122.2800   57.9790 C   0  0  0  0  0  0  0  0  0  0  0  0
  126.8300  123.2790   57.9190 C   0  0  0  0  0  0  0  0  0  0  0  0
  126.2680  123.1580   56.6700 C   0  0  0  0  0  0  0  0  0  0  0  0
  126.8680  122.1400   56.0110 O   0  0  0  0  0  0  0  0  0  0  0  0
  127.8410  121.5910   56.8500 N   0  0  0  0  0  0  0  0  0  0  0  0
  1  2  3  0
  2  3  1  0
  3  4  2  0
  4  5  1  0
  5  6  2  0
  6  7  1  0
  7  8  2  0
  8  9  1  0
  9 10  1  0
 10 11  1  0
 11 12  1  0
 12 13  1  0
 13 14  1  0
  8 15  1  0
 15 16  2  0
  4 17  1  0
 17 18  2  0
 18 19  1  0
 19 20  2  0
 20 21  1  0
 21 22  2  0
 22 23  1  0
 23 24  1  0
 24 25  1  0
 25 26  1  0
 26 27  1  0
 27 28  1  0
 22 29  1  0
 29 30  2  0
 18 31  1  0
 31 32  2  0
 32 33  1  0
 33 34  1  0
 34 35  1  0
 35 36  2  0
 35 37  1  0
 37 38  1  0
 38 39  1  0
 39 40  2  0
 40 41  1  0
 41 42  1  0
 32  3  1  0
 42 38  2  0
 16  5  1  0
 30 19  1  0
 14  9  1  0
 28 23  1  0
M  END
>  <Binding energies>  (10) 
[-11.36]

>  <Ligand effiencies>  (10) 
[-0.2641860465116279]

>  <Interactions>  (10) 
["V-A:GLU:543:CD:4905, V-B:TYR:539:CE2:9845, V-B:TYR:539:CE1:9844, V-B:PRO:540:CA:9852, H-A:TYR:484:OH:4344, V-B:TYR:539:CG:9841, V-B:PRO:540:N:9853, V-B:TYR:539:C:9836, V-B:GLU:543:CD:9877, V-A:HIS:456:CE1:4066, V-B:TYR:539:CZ:9846, V-A:GLU:543:CB:4903, V-B:TYR:539:CD1:9842, V-B:ALA:541:CB:9861, V-B:TYR:539:CD2:9843, V-A:PRO:540:CA:4880, V-A:ASP:366:CG:3209, V-B:GLU:543:CG:9876, H-B:ALA:541:N:9860, V-A:TYR:539:C:4864, V-B:GLU:543:CB:9875, V-A:PRO:540:N:4881, V-A:PRO:540:CB:4882, V-A:ILE:538:CD1:4862, H-A:TYR:539:N:4867, V-A:LEU:363:CD1:3185, H-B:TYR:539:OH:9847, H-B:TYR:539:N:9839, H-B:TYR:539:O:9837, V-A:ILE:538:CG2:4860, V-A:TYR:539:CA:4866, V-B:PRO:540:C:9850, V-A:PRO:540:CD:4884, V-A:HIS:456:CD2:4064, V-A:GLU:543:C:4899, V-B:HIS:456:CD2:9036, V-A:GLY:544:CA:4911, H-A:LYS:547:NZ:4948, V-A:GLY:544:C:4909"]

$$$$
2c_Ghoteimi_2023
     RDKit          3D

 42 47  0  0  0  0  0  0  0  0999 V2000
  130.2000  122.3260   65.0870 N   0  0  0  0  0  0  0  0  0  0  0  0
  130.2180  123.2170   64.3500 C   0  0  0  0  0  0  0  0  0  0  0  0
  130.2410  124.3500   63.4190 C   0  0  0  0  0  0  0  0  0  0  0  0
  130.0800  125.6760   63.8930 C   0  0  0  0  0  0  0  0  0  0  0  0
  129.8760  126.0270   65.3300 C   0  0  0  0  0  0  0  0  0  0  0  0
  129.8990  125.0290   66.3070 C   0  0  0  0  0  0  0  0  0  0  0  0
  129.7140  125.3490   67.6490 C   0  0  0  0  0  0  0  0  0  0  0  0
  129.4860  126.6740   68.0520 C   0  0  0  0  0  0  0  0  0  0  0  0
  129.3190  127.0200   69.3950 N   0  0  0  0  0  0  0  0  0  0  0  0
  128.6070  126.0920   70.2960 C   0  0  0  0  0  0  0  0  0  0  0  0
  128.1580  126.7510   71.6180 C   0  0  0  0  0  0  0  0  0  0  0  0
  129.2730  127.3370   72.2720 O   0  0  0  0  0  0  0  0  0  0  0  0
  129.8850  128.3370   71.4720 C   0  0  0  0  0  0  0  0  0  0  0  0
  130.3780  127.7200   70.1460 C   0  0  0  0  0  0  0  0  0  0  0  0
  129.4610  127.6680   67.0630 C   0  0  0  0  0  0  0  0  0  0  0  0
  129.6480  127.3480   65.7210 C   0  0  0  0  0  0  0  0  0  0  0  0
  130.1130  126.7240   62.9640 C   0  0  0  0  0  0  0  0  0  0  0  0
  130.3270  126.4620   61.6070 C   0  0  0  0  0  0  0  0  0  0  0  0
  130.3880  127.5460   60.5800 C   0  0  0  0  0  0  0  0  0  0  0  0
  130.1140  127.2730   59.2360 C   0  0  0  0  0  0  0  0  0  0  0  0
  130.1640  128.2800   58.2750 C   0  0  0  0  0  0  0  0  0  0  0  0
  130.5020  129.5980   58.6220 C   0  0  0  0  0  0  0  0  0  0  0  0
  130.5320  130.6260   57.6740 N   0  0  0  0  0  0  0  0  0  0  0  0
  129.3510  131.4940   57.4930 C   0  0  0  0  0  0  0  0  0  0  0  0
  129.3760  132.3090   56.1830 C   0  0  0  0  0  0  0  0  0  0  0  0
  130.5740  133.0640   56.1030 O   0  0  0  0  0  0  0  0  0  0  0  0
  131.7180  132.2250   56.1120 C   0  0  0  0  0  0  0  0  0  0  0  0
  131.7620  131.4030   57.4170 C   0  0  0  0  0  0  0  0  0  0  0  0
  130.7630  129.8690   59.9720 C   0  0  0  0  0  0  0  0  0  0  0  0
  130.7120  128.8620   60.9330 C   0  0  0  0  0  0  0  0  0  0  0  0
  130.4840  125.1910   61.1570 N   0  0  0  0  0  0  0  0  0  0  0  0
  130.4240  124.1580   62.0310 C   0  0  0  0  0  0  0  0  0  0  0  0
  130.6380  122.5660   61.2670 S   0  0  0  0  0  0  0  0  0  0  0  0
  129.0080  122.0230   60.6720 C   0  0  0  0  0  0  0  0  0  0  0  0
  128.7230  122.5140   59.2520 C   0  0  0  0  0  0  0  0  0  0  0  0
  129.4710  123.3480   58.7390 O   0  0  0  0  0  0  0  0  0  0  0  0
  127.6360  121.9780   58.6570 N   0  0  0  0  0  0  0  0  0  0  0  0
  127.1760  122.2430   57.3760 C   0  0  0  0  0  0  0  0  0  0  0  0
  127.8020  122.0480   56.2360 N   0  0  0  0  0  0  0  0  0  0  0  0
  127.0610  122.4090   55.2070 C   0  0  0  0  0  0  0  0  0  0  0  0
  125.7980  122.9120   55.5050 C   0  0  0  0  0  0  0  0  0  0  0  0
  125.5800  122.9070   57.2300 S   0  0  0  0  0  0  0  0  0  0  0  0
  1  2  3  0
  2  3  1  0
  3  4  2  0
  4  5  1  0
  5  6  2  0
  6  7  1  0
  7  8  2  0
  8  9  1  0
  9 10  1  0
 10 11  1  0
 11 12  1  0
 12 13  1  0
 13 14  1  0
  8 15  1  0
 15 16  2  0
  4 17  1  0
 17 18  2  0
 18 19  1  0
 19 20  2  0
 20 21  1  0
 21 22  2  0
 22 23  1  0
 23 24  1  0
 24 25  1  0
 25 26  1  0
 26 27  1  0
 27 28  1  0
 22 29  1  0
 29 30  2  0
 18 31  1  0
 31 32  2  0
 32 33  1  0
 33 34  1  0
 34 35  1  0
 35 36  2  0
 35 37  1  0
 37 38  1  0
 38 39  2  0
 39 40  1  0
 40 41  2  0
 41 42  1  0
 32  3  1  0
 42 38  1  0
 16  5  1  0
 30 19  1  0
 14  9  1  0
 28 23  1  0
M  END
>  <Binding energies>  (11) 
[-11.46]

>  <Ligand effiencies>  (11) 
[-0.26651162790697674]

>  <Interactions>  (11) 
["V-A:GLU:543:CD:4905, V-B:TYR:539:CE2:9845, V-B:PRO:540:CA:9852, H-A:TYR:484:OH:4344, V-B:PRO:540:N:9853, V-B:TYR:539:C:9836, V-B:GLU:543:CD:9877, V-A:HIS:456:CE1:4066, V-B:TYR:539:CZ:9846, V-A:GLU:543:CB:4903, V-B:ALA:541:CB:9861, V-B:PRO:540:CB:9854, V-B:MET:535:CE:9804, V-B:TYR:539:CD2:9843, V-A:PRO:540:CA:4880, V-B:GLU:543:CG:9876, V-A:TYR:539:C:4864, V-B:GLU:543:CB:9875, V-A:PRO:540:N:4881, V-A:PRO:540:CB:4882, V-A:TYR:484:CE1:4341, V-A:TYR:484:CZ:4343, V-A:ILE:538:CD1:4862, H-A:TYR:539:N:4867, V-A:LEU:363:CD1:3185, H-B:TYR:539:OH:9847, V-B:LEU:363:CD1:8157, H-B:TYR:539:N:9839, V-B:ILE:538:CB:9831, V-B:ILE:538:CA:9829, V-B:ILE:538:CG2:9832, H-B:TYR:539:O:9837, V-B:ILE:538:C:9827, V-A:ILE:538:CG2:4860, V-B:PRO:540:CD:9856, V-A:PRO:540:CD:4884, V-A:HIS:456:CD2:4064, V-B:HIS:456:CD2:9036, V-B:LYS:547:CE:9919, H-A:LYS:547:NZ:4948"]

$$$$
2j_Grossjean_2025
     RDKit          3D

 23 24  0  0  0  0  0  0  0  0999 V2000
  125.7270  122.2800   56.1330 C   0  0  0  0  0  0  0  0  0  0  0  0
  127.1070  122.8540   55.8720 C   0  0  0  0  0  0  0  0  0  0  0  0
  127.6660  122.8570   54.5970 C   0  0  0  0  0  0  0  0  0  0  0  0
  128.9450  123.4020   54.4050 C   0  0  0  0  0  0  0  0  0  0  0  0
  129.5470  123.3990   52.9870 C   0  0  0  0  0  0  0  0  0  0  0  0
  130.1860  124.5480   52.7600 F   0  0  0  0  0  0  0  0  0  0  0  0
  130.4120  122.3910   52.8600 F   0  0  0  0  0  0  0  0  0  0  0  0
  128.6240  123.2580   52.0340 F   0  0  0  0  0  0  0  0  0  0  0  0
  129.6290  123.9330   55.5270 C   0  0  0  0  0  0  0  0  0  0  0  0
  130.9680  124.5140   55.3840 C   0  0  0  0  0  0  0  0  0  0  0  0
  132.0240  124.9740   55.2710 N   0  0  0  0  0  0  0  0  0  0  0  0
  128.9860  123.8870   56.7870 C   0  0  0  0  0  0  0  0  0  0  0  0
  129.7530  124.5280   58.2680 S   0  0  0  0  0  0  0  0  0  0  0  0
  129.6700  123.2430   59.5610 C   0  0  0  0  0  0  0  0  0  0  0  0
  128.2640  122.9790   60.1190 C   0  0  0  0  0  0  0  0  0  0  0  0
  128.0820  122.1250   60.9900 O   0  0  0  0  0  0  0  0  0  0  0  0
  127.2860  123.7360   59.5730 N   0  0  0  0  0  0  0  0  0  0  0  0
  125.9350  123.7040   59.8930 C   0  0  0  0  0  0  0  0  0  0  0  0
  125.3740  123.2110   60.9750 N   0  0  0  0  0  0  0  0  0  0  0  0
  124.0630  123.3520   60.9490 C   0  0  0  0  0  0  0  0  0  0  0  0
  123.5330  123.9730   59.8220 C   0  0  0  0  0  0  0  0  0  0  0  0
  124.8320  124.3910   58.7450 S   0  0  0  0  0  0  0  0  0  0  0  0
  127.7470  123.3580   56.9510 N   0  0  0  0  0  0  0  0  0  0  0  0
  1  2  1  0
  2  3  2  0
  3  4  1  0
  4  5  1  0
  5  6  1  0
  5  7  1  0
  5  8  1  0
  4  9  2  0
  9 10  1  0
 10 11  3  0
  9 12  1  0
 12 13  1  0
 13 14  1  0
 14 15  1  0
 15 16  2  0
 15 17  1  0
 17 18  1  0
 18 19  2  0
 19 20  1  0
 20 21  2  0
 21 22  1  0
 12 23  2  0
 23  2  1  0
 22 18  1  0
M  END
>  <Binding energies>  (12) 
[-6.47]

>  <Ligand effiencies>  (12) 
[-0.26958333333333334]

>  <Interactions>  (12) 
["V-B:TYR:539:CE2:9845, V-B:TYR:539:CE1:9844, V-B:PRO:540:CA:9852, V-B:PRO:540:N:9853, V-B:TYR:539:CZ:9846, V-B:TYR:539:CD1:9842, V-B:PRO:540:CB:9854, V-B:MET:535:CE:9804, H-B:ALA:541:N:9860, V-B:ASN:362:CB:8144, H-B:TYR:539:OH:9847, V-B:LEU:363:CD1:8157, V-B:ASN:362:C:8140, V-B:LEU:363:CA:8153, V-B:ILE:538:CB:9831, V-B:ILE:538:CA:9829, V-B:ILE:538:CG2:9832, V-A:MET:535:CE:4832, V-B:MET:535:CG:9802, V-B:LEU:363:CB:8155, V-B:PRO:540:CD:9856, V-A:ASN:370:CG:3242, V-B:MET:535:C:9797, V-B:MET:535:CA:9799, V-B:VAL:537:C:9819, V-B:MET:535:CB:9801, V-A:LEU:373:CD1:3276"]

$$$$
3ab_Grossjean_2025
     RDKit          3D

 33 35  0  0  0  0  0  0  0  0999 V2000
  128.3210  121.9180   59.5790 C   0  0  0  0  0  0  0  0  0  0  0  0
  128.3010  121.7200   58.1720 O   0  0  0  0  0  0  0  0  0  0  0  0
  127.2990  122.2270   57.4100 C   0  0  0  0  0  0  0  0  0  0  0  0
  126.7550  121.6010   56.4950 O   0  0  0  0  0  0  0  0  0  0  0  0
  126.9140  123.6280   57.7910 C   0  0  0  0  0  0  0  0  0  0  0  0
  125.6320  123.9420   58.2690 C   0  0  0  0  0  0  0  0  0  0  0  0
  125.3030  125.2490   58.6160 C   0  0  0  0  0  0  0  0  0  0  0  0
  126.2570  126.2720   58.4890 C   0  0  0  0  0  0  0  0  0  0  0  0
  126.0370  127.6240   58.8150 N   0  0  0  0  0  0  0  0  0  0  0  0
  126.0990  128.7240   58.0360 C   0  0  0  0  0  0  0  0  0  0  0  0
  126.3890  128.7380   56.8400 O   0  0  0  0  0  0  0  0  0  0  0  0
  125.7780  130.0450   58.7400 C   0  0  0  0  0  0  0  0  0  0  0  0
  126.0580  131.4810   57.6600 S   0  0  0  0  0  0  0  0  0  0  0  0
  127.5350  131.1630   56.7200 C   0  0  0  0  0  0  0  0  0  0  0  0
  128.6670  131.1940   57.4620 N   0  0  0  0  0  0  0  0  0  0  0  0
  129.8690  130.9630   56.8740 C   0  0  0  0  0  0  0  0  0  0  0  0
  131.0730  131.0130   57.7660 C   0  0  0  0  0  0  0  0  0  0  0  0
  130.9320  131.1340   59.1580 C   0  0  0  0  0  0  0  0  0  0  0  0
  132.0460  131.1800   59.9920 C   0  0  0  0  0  0  0  0  0  0  0  0
  133.3220  131.1060   59.4430 C   0  0  0  0  0  0  0  0  0  0  0  0
  133.4910  130.9900   58.0670 C   0  0  0  0  0  0  0  0  0  0  0  0
  132.3740  130.9440   57.2380 C   0  0  0  0  0  0  0  0  0  0  0  0
  129.9570  130.7120   55.5000 C   0  0  0  0  0  0  0  0  0  0  0  0
  128.8010  130.6940   54.7060 C   0  0  0  0  0  0  0  0  0  0  0  0
  128.9420  130.4200   53.1960 C   0  0  0  0  0  0  0  0  0  0  0  0
  128.0820  129.4990   52.7550 F   0  0  0  0  0  0  0  0  0  0  0  0
  128.7190  131.5370   52.5030 F   0  0  0  0  0  0  0  0  0  0  0  0
  130.1730  129.9830   52.9260 F   0  0  0  0  0  0  0  0  0  0  0  0
  127.5490  130.9330   55.3260 C   0  0  0  0  0  0  0  0  0  0  0  0
  126.3180  130.9810   54.5330 C   0  0  0  0  0  0  0  0  0  0  0  0
  125.3470  131.0190   53.9050 N   0  0  0  0  0  0  0  0  0  0  0  0
  127.5340  125.9620   58.0200 C   0  0  0  0  0  0  0  0  0  0  0  0
  127.8590  124.6540   57.6720 C   0  0  0  0  0  0  0  0  0  0  0  0
  1  2  1  0
  2  3  1  0
  3  4  2  0
  3  5  1  0
  5  6  2  0
  6  7  1  0
  7  8  2  0
  8  9  1  0
  9 10  1  0
 10 11  2  0
 10 12  1  0
 12 13  1  0
 13 14  1  0
 14 15  2  0
 15 16  1  0
 16 17  1  0
 17 18  2  0
 18 19  1  0
 19 20  2  0
 20 21  1  0
 21 22  2  0
 16 23  2  0
 23 24  1  0
 24 25  1  0
 25 26  1  0
 25 27  1  0
 25 28  1  0
 24 29  2  0
 29 30  1  0
 30 31  3  0
  8 32  1  0
 32 33  2  0
 33  5  1  0
 29 14  1  0
 22 17  1  0
M  END
>  <Binding energies>  (13) 
[-8.48]

>  <Ligand effiencies>  (13) 
[-0.24941176470588236]

>  <Interactions>  (13) 
["V-B:TYR:539:CE2:9845, V-B:PRO:540:CA:9852, V-B:PRO:540:N:9853, V-B:TYR:539:C:9836, H-B:TYR:531:OH:9764, V-B:TYR:539:CD1:9842, V-B:PRO:540:CB:9854, V-B:MET:535:CE:9804, V-B:TYR:539:CD2:9843, V-A:TYR:531:CZ:4791, V-A:PRO:540:CA:4880, V-A:TYR:539:CE2:4873, V-A:PRO:540:CB:4882, V-A:ILE:538:CD1:4862, V-B:LYS:534:CE:9791, V-A:TYR:539:CZ:4874, V-A:LEU:363:CD1:3185, V-B:ASP:366:CB:8180, V-B:ASP:366:CG:8181, V-B:TYR:531:CE1:9761, H-A:TYR:539:OH:4875, V-A:LEU:363:CA:3181, V-A:ASN:362:C:3168, V-A:LEU:363:CB:3183, H-B:TYR:539:N:9839, V-A:TYR:531:CE1:4789, H-B:LYS:534:NZ:9792, V-A:MET:535:CE:4832, H-B:ASP:366:OD1:8182, V-B:PRO:540:CD:9856, V-A:MET:535:CG:4830, V-A:MET:535:CB:4829, V-A:TYR:531:CE2:4790, V-A:ILE:538:CG1:4861"]

$$$$
3ac_Grossjean_2025
     RDKit          3D

 31 33  0  0  0  0  0  0  0  0999 V2000
  125.9920  129.4160   52.5580 C   0  0  0  0  0  0  0  0  0  0  0  0
  126.2450  130.6910   53.1420 O   0  0  0  0  0  0  0  0  0  0  0  0
  127.4010  130.8800   53.8750 C   0  0  0  0  0  0  0  0  0  0  0  0
  128.1960  129.7540   54.0840 C   0  0  0  0  0  0  0  0  0  0  0  0
  129.3810  129.8480   54.8070 C   0  0  0  0  0  0  0  0  0  0  0  0
  129.7850  131.0740   55.3410 C   0  0  0  0  0  0  0  0  0  0  0  0
  131.0070  131.0740   56.0390 N   0  0  0  0  0  0  0  0  0  0  0  0
  131.7970  132.1180   56.3710 C   0  0  0  0  0  0  0  0  0  0  0  0
  131.5460  133.3010   56.1430 O   0  0  0  0  0  0  0  0  0  0  0  0
  133.0980  131.7570   57.0890 C   0  0  0  0  0  0  0  0  0  0  0  0
  132.8080  131.1840   58.7910 S   0  0  0  0  0  0  0  0  0  0  0  0
  131.4510  130.0280   58.7820 C   0  0  0  0  0  0  0  0  0  0  0  0
  131.6340  128.9980   57.9210 N   0  0  0  0  0  0  0  0  0  0  0  0
  130.6850  128.0330   57.8090 C   0  0  0  0  0  0  0  0  0  0  0  0
  130.9620  126.9320   56.8290 C   0  0  0  0  0  0  0  0  0  0  0  0
  129.9500  126.0340   56.4530 C   0  0  0  0  0  0  0  0  0  0  0  0
  130.1980  125.0130   55.5400 C   0  0  0  0  0  0  0  0  0  0  0  0
  131.4680  124.8750   54.9890 C   0  0  0  0  0  0  0  0  0  0  0  0
  132.4900  125.7470   55.3480 C   0  0  0  0  0  0  0  0  0  0  0  0
  132.2370  126.7660   56.2620 C   0  0  0  0  0  0  0  0  0  0  0  0
  129.5080  128.0960   58.5610 C   0  0  0  0  0  0  0  0  0  0  0  0
  129.2840  129.1630   59.4420 C   0  0  0  0  0  0  0  0  0  0  0  0
  127.9690  129.1960   60.2470 C   0  0  0  0  0  0  0  0  0  0  0  0
  128.1700  129.2410   61.5650 F   0  0  0  0  0  0  0  0  0  0  0  0
  127.2530  130.2720   59.9180 F   0  0  0  0  0  0  0  0  0  0  0  0
  127.2510  128.1030   59.9850 F   0  0  0  0  0  0  0  0  0  0  0  0
  130.2740  130.1710   59.5520 C   0  0  0  0  0  0  0  0  0  0  0  0
  130.0500  131.3430   60.4000 C   0  0  0  0  0  0  0  0  0  0  0  0
  129.8730  132.2700   61.0710 N   0  0  0  0  0  0  0  0  0  0  0  0
  128.9930  132.2130   55.1290 C   0  0  0  0  0  0  0  0  0  0  0  0
  127.8080  132.1150   54.4040 C   0  0  0  0  0  0  0  0  0  0  0  0
  1  2  1  0
  2  3  1  0
  3  4  2  0
  4  5  1  0
  5  6  2  0
  6  7  1  0
  7  8  1  0
  8  9  2  0
  8 10  1  0
 10 11  1  0
 11 12  1  0
 12 13  2  0
 13 14  1  0
 14 15  1  0
 15 16  2  0
 16 17  1  0
 17 18  2  0
 18 19  1  0
 19 20  2  0
 14 21  2  0
 21 22  1  0
 22 23  1  0
 23 24  1  0
 23 25  1  0
 23 26  1  0
 22 27  2  0
 27 28  1  0
 28 29  3  0
  6 30  1  0
 30 31  2  0
 31  3  1  0
 27 12  1  0
 20 15  1  0
M  END
>  <Binding energies>  (14) 
[-7.72]

>  <Ligand effiencies>  (14) 
[-0.24125]

>  <Interactions>  (14) 
["V-B:TYR:539:CE1:9844, V-B:MET:535:CE:9804, V-A:TYR:531:CZ:4791, V-A:PRO:540:CA:4880, V-A:ASP:366:CB:3208, V-A:TYR:539:CE2:4873, H-A:TYR:531:OH:4792, V-A:PRO:540:N:4881, V-A:PRO:540:CB:4882, H-A:ALA:541:N:4888, V-A:ILE:538:CD1:4862, V-B:LYS:534:CE:9791, H-A:TYR:539:N:4867, V-A:TYR:539:CZ:4874, V-A:LEU:363:CD1:3185, V-B:TYR:531:CE1:9761, H-A:TYR:539:OH:4875, V-A:LEU:363:CA:3181, V-A:TYR:539:CD1:4870, V-A:TYR:539:CE1:4872, V-A:LEU:363:CB:3183, V-A:TYR:531:CE1:4789, V-A:ASP:366:C:3204, H-B:LYS:534:NZ:9792, V-B:LYS:534:CD:9790, V-B:TYR:531:CZ:9763, V-B:MET:535:CG:9802, V-A:ILE:538:CG2:4860, V-A:PRO:540:CD:4884, V-B:TYR:531:CD1:9759, V-B:LYS:534:CG:9789"]

$$$$
3af_Grossjean_2025
     RDKit          3D

 29 31  0  0  0  0  0  0  0  0999 V2000
  130.3760  132.2500   60.6890 N   0  0  0  0  0  0  0  0  0  0  0  0
  130.4740  131.3550   59.9620 C   0  0  0  0  0  0  0  0  0  0  0  0
  130.5970  130.2210   59.0420 C   0  0  0  0  0  0  0  0  0  0  0  0
  129.7250  129.1100   59.1450 C   0  0  0  0  0  0  0  0  0  0  0  0
  128.5810  129.0420   60.1760 C   0  0  0  0  0  0  0  0  0  0  0  0
  129.0210  128.8970   61.4290 F   0  0  0  0  0  0  0  0  0  0  0  0
  127.8600  130.1620   60.1300 F   0  0  0  0  0  0  0  0  0  0  0  0
  127.7870  128.0040   59.9120 F   0  0  0  0  0  0  0  0  0  0  0  0
  129.9170  128.0240   58.2770 C   0  0  0  0  0  0  0  0  0  0  0  0
  130.9500  128.0470   57.3350 C   0  0  0  0  0  0  0  0  0  0  0  0
  131.2120  126.9070   56.3960 C   0  0  0  0  0  0  0  0  0  0  0  0
  130.1500  126.1550   55.8670 C   0  0  0  0  0  0  0  0  0  0  0  0
  130.3870  125.0970   54.9930 C   0  0  0  0  0  0  0  0  0  0  0  0
  131.6920  124.7760   54.6360 C   0  0  0  0  0  0  0  0  0  0  0  0
  132.7610  125.5070   55.1430 C   0  0  0  0  0  0  0  0  0  0  0  0
  132.5210  126.5640   56.0160 C   0  0  0  0  0  0  0  0  0  0  0  0
  131.7860  129.1120   57.2420 N   0  0  0  0  0  0  0  0  0  0  0  0
  131.6070  130.1820   58.0540 C   0  0  0  0  0  0  0  0  0  0  0  0
  132.7880  131.4860   57.7750 S   0  0  0  0  0  0  0  0  0  0  0  0
  132.3750  132.2900   56.1970 C   0  0  0  0  0  0  0  0  0  0  0  0
  130.8680  132.3060   55.9440 C   0  0  0  0  0  0  0  0  0  0  0  0
  130.2430  133.3520   56.1180 O   0  0  0  0  0  0  0  0  0  0  0  0
  130.3360  131.1300   55.5470 N   0  0  0  0  0  0  0  0  0  0  0  0
  128.9990  130.8060   55.2430 C   0  0  0  0  0  0  0  0  0  0  0  0
  128.0780  130.2100   56.1230 C   0  0  0  0  0  0  0  0  0  0  0  0
  126.7790  129.9410   55.6860 C   0  0  0  0  0  0  0  0  0  0  0  0
  126.4320  130.2760   54.3770 C   0  0  0  0  0  0  0  0  0  0  0  0
  127.3000  130.8510   53.5090 N   0  0  0  0  0  0  0  0  0  0  0  0
  128.5590  131.1060   53.9490 C   0  0  0  0  0  0  0  0  0  0  0  0
  1  2  3  0
  2  3  1  0
  3  4  2  0
  4  5  1  0
  5  6  1  0
  5  7  1  0
  5  8  1  0
  4  9  1  0
  9 10  2  0
 10 11  1  0
 11 12  2  0
 12 13  1  0
 13 14  2  0
 14 15  1  0
 15 16  2  0
 10 17  1  0
 17 18  2  0
 18 19  1  0
 19 20  1  0
 20 21  1  0
 21 22  2  0
 21 23  1  0
 23 24  1  0
 24 25  2  0
 25 26  1  0
 26 27  2  0
 27 28  1  0
 28 29  2  0
 18  3  1  0
 29 24  1  0
 16 11  1  0
M  END
>  <Binding energies>  (15) 
[-8.12]

>  <Ligand effiencies>  (15) 
[-0.27066666666666667]

>  <Interactions>  (15) 
["V-A:GLU:543:CD:4905, V-B:TYR:539:CE1:9844, V-B:MET:535:CE:9804, V-A:TYR:531:CZ:4791, V-A:PRO:540:CA:4880, V-A:ASP:366:CB:3208, H-A:TYR:531:OH:4792, V-A:TYR:539:C:4864, V-A:PRO:540:N:4881, V-A:PRO:540:CB:4882, H-A:ALA:541:N:4888, V-A:ILE:538:CD1:4862, H-A:TYR:539:N:4867, V-A:LEU:363:CD1:3185, V-B:TYR:531:CE1:9761, V-A:TYR:531:CE1:4789, V-A:ASP:366:C:3204, H-B:LYS:534:NZ:9792, V-B:TYR:531:CZ:9763, V-A:ILE:538:CG2:4860, V-A:PRO:540:CD:4884, V-A:ASN:370:CG:3242, V-A:ASN:370:CB:3241"]

$$$$
3ag_Grossjean_2025
     RDKit          3D

 30 32  0  0  0  0  0  0  0  0999 V2000
  132.0980  124.4760   54.7870 N   0  0  0  0  0  0  0  0  0  0  0  0
  131.0890  124.3850   55.3480 C   0  0  0  0  0  0  0  0  0  0  0  0
  129.8110  124.2670   56.0540 C   0  0  0  0  0  0  0  0  0  0  0  0
  128.7310  123.5500   55.4830 C   0  0  0  0  0  0  0  0  0  0  0  0
  128.8440  122.8100   54.1360 C   0  0  0  0  0  0  0  0  0  0  0  0
  130.0450  122.9450   53.5700 F   0  0  0  0  0  0  0  0  0  0  0  0
  128.6280  121.5070   54.3140 F   0  0  0  0  0  0  0  0  0  0  0  0
  127.9430  123.2840   53.2740 F   0  0  0  0  0  0  0  0  0  0  0  0
  127.5110  123.5110   56.1740 C   0  0  0  0  0  0  0  0  0  0  0  0
  127.3680  124.1800   57.3950 C   0  0  0  0  0  0  0  0  0  0  0  0
  126.0880  124.1740   58.1740 C   0  0  0  0  0  0  0  0  0  0  0  0
  124.9170  124.7280   57.6320 C   0  0  0  0  0  0  0  0  0  0  0  0
  123.7240  124.7260   58.3500 C   0  0  0  0  0  0  0  0  0  0  0  0
  123.6860  124.1690   59.6250 C   0  0  0  0  0  0  0  0  0  0  0  0
  124.8330  123.6160   60.1850 C   0  0  0  0  0  0  0  0  0  0  0  0
  126.0240  123.6210   59.4650 C   0  0  0  0  0  0  0  0  0  0  0  0
  128.4090  124.8560   57.9460 N   0  0  0  0  0  0  0  0  0  0  0  0
  129.6030  124.8900   57.3050 C   0  0  0  0  0  0  0  0  0  0  0  0
  130.8490  125.8170   58.1730 S   0  0  0  0  0  0  0  0  0  0  0  0
  131.3230  127.2140   57.1110 C   0  0  0  0  0  0  0  0  0  0  0  0
  130.1960  127.6280   56.1640 C   0  0  0  0  0  0  0  0  0  0  0  0
  130.2190  127.2660   54.9860 O   0  0  0  0  0  0  0  0  0  0  0  0
  129.2160  128.3800   56.6950 N   0  0  0  0  0  0  0  0  0  0  0  0
  128.0310  128.8560   55.9830 C   0  0  0  0  0  0  0  0  0  0  0  0
  128.2360  130.1730   55.2420 C   0  0  0  0  0  0  0  0  0  0  0  0
  128.1160  130.2130   53.8510 C   0  0  0  0  0  0  0  0  0  0  0  0
  128.2740  131.4190   53.1730 C   0  0  0  0  0  0  0  0  0  0  0  0
  128.5420  132.5830   53.8910 C   0  0  0  0  0  0  0  0  0  0  0  0
  128.6480  132.5530   55.2790 C   0  0  0  0  0  0  0  0  0  0  0  0
  128.4900  131.3470   55.9570 C   0  0  0  0  0  0  0  0  0  0  0  0
  1  2  3  0
  2  3  1  0
  3  4  2  0
  4  5  1  0
  5  6  1  0
  5  7  1  0
  5  8  1  0
  4  9  1  0
  9 10  2  0
 10 11  1  0
 11 12  2  0
 12 13  1  0
 13 14  2  0
 14 15  1  0
 15 16  2  0
 10 17  1  0
 17 18  2  0
 18 19  1  0
 19 20  1  0
 20 21  1  0
 21 22  2  0
 21 23  1  0
 23 24  1  0
 24 25  1  0
 25 26  2  0
 26 27  1  0
 27 28  2  0
 28 29  1  0
 29 30  2  0
 18  3  1  0
 30 25  1  0
 16 11  1  0
M  END
>  <Binding energies>  (16) 
[-8.36]

>  <Ligand effiencies>  (16) 
[-0.2696774193548387]

>  <Interactions>  (16) 
["V-B:TYR:539:CE1:9844, V-B:PRO:540:CA:9852, V-B:TYR:539:CG:9841, V-B:TYR:539:CZ:9846, V-B:TYR:539:CD1:9842, V-B:PRO:540:CB:9854, V-B:MET:535:CE:9804, V-A:TYR:539:CD2:4871, V-A:ASP:366:CB:3208, V-A:TYR:539:CE2:4873, H-A:TYR:531:OH:4792, V-A:ILE:538:CD1:4862, V-B:LYS:534:CE:9791, V-A:TYR:539:CZ:4874, V-B:ASP:366:CB:8180, H-B:TYR:539:OH:9847, V-B:LEU:363:CD1:8157, V-B:ASN:362:C:8140, V-B:LEU:363:CA:8153, V-A:TYR:539:CG:4869, V-A:TYR:539:CD1:4870, V-A:TYR:539:CE1:4872, V-A:ILE:538:CA:4857, V-B:ILE:538:CB:9831, V-B:ILE:538:CA:9829, V-B:ILE:538:CG2:9832, V-B:ILE:538:C:9827, V-B:MET:535:CG:9802, V-B:VAL:537:C:9819, V-B:MET:535:CB:9801"]

$$$$
3bc_Grossjean_2025
     RDKit          3D

 28 30  0  0  0  0  0  0  0  0999 V2000
  124.1370  130.9860   56.8630 C   0  0  0  0  0  0  0  0  0  0  0  0
  124.8430  130.3860   55.7830 O   0  0  0  0  0  0  0  0  0  0  0  0
  126.2170  130.5300   55.7130 C   0  0  0  0  0  0  0  0  0  0  0  0
  126.8610  130.9190   56.8880 C   0  0  0  0  0  0  0  0  0  0  0  0
  128.2430  131.0910   56.9150 C   0  0  0  0  0  0  0  0  0  0  0  0
  128.9990  130.8820   55.7610 C   0  0  0  0  0  0  0  0  0  0  0  0
  130.3890  131.0680   55.8880 N   0  0  0  0  0  0  0  0  0  0  0  0
  131.0860  132.2150   56.0340 C   0  0  0  0  0  0  0  0  0  0  0  0
  130.5810  133.3360   56.1190 O   0  0  0  0  0  0  0  0  0  0  0  0
  132.6070  132.0340   56.1310 C   0  0  0  0  0  0  0  0  0  0  0  0
  133.2000  131.2680   57.6780 S   0  0  0  0  0  0  0  0  0  0  0  0
  132.0560  129.9790   58.1200 C   0  0  0  0  0  0  0  0  0  0  0  0
  132.0750  128.9200   57.2750 N   0  0  0  0  0  0  0  0  0  0  0  0
  131.2520  127.8620   57.4970 C   0  0  0  0  0  0  0  0  0  0  0  0
  131.3190  126.7400   56.5040 C   0  0  0  0  0  0  0  0  0  0  0  0
  132.5420  126.3650   55.9270 C   0  0  0  0  0  0  0  0  0  0  0  0
  132.6120  125.3240   55.0050 C   0  0  0  0  0  0  0  0  0  0  0  0
  131.4540  124.6440   54.6440 C   0  0  0  0  0  0  0  0  0  0  0  0
  130.2280  124.9970   55.1980 C   0  0  0  0  0  0  0  0  0  0  0  0
  130.1630  126.0390   56.1200 C   0  0  0  0  0  0  0  0  0  0  0  0
  130.3790  127.8480   58.5890 C   0  0  0  0  0  0  0  0  0  0  0  0
  130.3630  128.9240   59.4840 C   0  0  0  0  0  0  0  0  0  0  0  0
  129.4060  128.8580   60.6730 C   0  0  0  0  0  0  0  0  0  0  0  0
  131.2250  130.0190   59.2630 C   0  0  0  0  0  0  0  0  0  0  0  0
  131.2610  131.1330   60.2130 C   0  0  0  0  0  0  0  0  0  0  0  0
  131.2870  132.0120   60.9650 N   0  0  0  0  0  0  0  0  0  0  0  0
  128.3610  130.4780   54.5790 C   0  0  0  0  0  0  0  0  0  0  0  0
  126.9790  130.3070   54.5560 C   0  0  0  0  0  0  0  0  0  0  0  0
  1  2  1  0
  2  3  1  0
  3  4  2  0
  4  5  1  0
  5  6  2  0
  6  7  1  0
  7  8  1  0
  8  9  2  0
  8 10  1  0
 10 11  1  0
 11 12  1  0
 12 13  2  0
 13 14  1  0
 14 15  1  0
 15 16  2  0
 16 17  1  0
 17 18  2  0
 18 19  1  0
 19 20  2  0
 14 21  2  0
 21 22  1  0
 22 23  1  0
 22 24  2  0
 24 25  1  0
 25 26  3  0
  6 27  1  0
 27 28  2  0
 28  3  1  0
 24 12  1  0
 20 15  1  0
M  END
>  <Binding energies>  (17) 
[-8.21]

>  <Ligand effiencies>  (17) 
[-0.2831034482758621]

>  <Interactions>  (17) 
["V-B:TYR:539:CE1:9844, H-B:TYR:531:OH:9764, V-B:MET:535:CE:9804, V-A:TYR:531:CZ:4791, V-A:PRO:540:CA:4880, V-A:ASP:366:CG:3209, V-A:ASP:366:CB:3208, V-A:TYR:539:CE2:4873, H-A:TYR:531:OH:4792, V-A:PRO:540:N:4881, V-A:PRO:540:CB:4882, H-A:ALA:541:N:4888, V-A:ILE:538:CD1:4862, H-A:TYR:539:N:4867, V-A:TYR:539:CZ:4874, V-A:LEU:363:CD1:3185, V-B:ASP:366:CB:8180, V-B:TYR:531:CE1:9761, H-A:TYR:539:OH:4875, V-A:TYR:531:CE1:4789, V-A:ASP:366:C:3204, V-B:ASP:366:C:8176, V-B:TYR:531:CZ:9763, V-A:ILE:538:CG2:4860, V-A:PRO:540:CD:4884, V-A:ASN:370:CG:3242, V-A:ASN:370:CB:3241, V-A:TYR:531:CE2:4790"]

$$$$
3bd_Grossjean_2025
     RDKit          3D

 26 28  0  0  0  0  0  0  0  0999 V2000
  129.2310  128.8220   60.6660 C   0  0  0  0  0  0  0  0  0  0  0  0
  130.1950  128.9470   59.4880 C   0  0  0  0  0  0  0  0  0  0  0  0
  130.2880  127.8750   58.5930 C   0  0  0  0  0  0  0  0  0  0  0  0
  131.1630  127.9480   57.5030 C   0  0  0  0  0  0  0  0  0  0  0  0
  131.3090  126.8380   56.5040 C   0  0  0  0  0  0  0  0  0  0  0  0
  132.5700  126.4950   55.9920 C   0  0  0  0  0  0  0  0  0  0  0  0
  132.7130  125.4670   55.0640 C   0  0  0  0  0  0  0  0  0  0  0  0
  131.5910  124.7660   54.6330 C   0  0  0  0  0  0  0  0  0  0  0  0
  130.3300  125.0890   55.1220 C   0  0  0  0  0  0  0  0  0  0  0  0
  130.1920  126.1170   56.0500 C   0  0  0  0  0  0  0  0  0  0  0  0
  131.9180  129.0580   57.2910 N   0  0  0  0  0  0  0  0  0  0  0  0
  131.8400  130.1070   58.1490 C   0  0  0  0  0  0  0  0  0  0  0  0
  132.8900  131.4990   57.7660 S   0  0  0  0  0  0  0  0  0  0  0  0
  132.3780  132.1640   56.1530 C   0  0  0  0  0  0  0  0  0  0  0  0
  130.8610  132.1210   55.9710 C   0  0  0  0  0  0  0  0  0  0  0  0
  130.2100  133.1560   56.1210 O   0  0  0  0  0  0  0  0  0  0  0  0
  130.3420  130.9110   55.6650 N   0  0  0  0  0  0  0  0  0  0  0  0
  129.0020  130.5600   55.4130 C   0  0  0  0  0  0  0  0  0  0  0  0
  128.6410  130.4410   54.0690 C   0  0  0  0  0  0  0  0  0  0  0  0
  127.3350  130.1050   53.7220 C   0  0  0  0  0  0  0  0  0  0  0  0
  126.3860  129.8990   54.7190 C   0  0  0  0  0  0  0  0  0  0  0  0
  126.7310  130.0290   56.0630 C   0  0  0  0  0  0  0  0  0  0  0  0
  128.0360  130.3630   56.4130 C   0  0  0  0  0  0  0  0  0  0  0  0
  130.9860  130.0950   59.2720 C   0  0  0  0  0  0  0  0  0  0  0  0
  130.9100  131.2360   60.1910 C   0  0  0  0  0  0  0  0  0  0  0  0
  130.8480  132.1350   60.9150 N   0  0  0  0  0  0  0  0  0  0  0  0
  1  2  1  0
  2  3  2  0
  3  4  1  0
  4  5  1  0
  5  6  2  0
  6  7  1  0
  7  8  2  0
  8  9  1  0
  9 10  2  0
  4 11  2  0
 11 12  1  0
 12 13  1  0
 13 14  1  0
 14 15  1  0
 15 16  2  0
 15 17  1  0
 17 18  1  0
 18 19  2  0
 19 20  1  0
 20 21  2  0
 21 22  1  0
 22 23  2  0
 12 24  2  0
 24 25  1  0
 25 26  3  0
 24  2  1  0
 10  5  1  0
 23 18  1  0
M  END
>  <Binding energies>  (18) 
[-8.4]

>  <Ligand effiencies>  (18) 
[-0.3111111111111111]

>  <Interactions>  (18) 
["V-B:TYR:539:CE1:9844, V-B:MET:535:CE:9804, V-A:TYR:531:CZ:4791, V-A:PRO:540:CA:4880, V-A:ASP:366:CG:3209, V-A:ASP:366:CB:3208, H-A:TYR:531:OH:4792, V-A:PRO:540:N:4881, V-A:PRO:540:CB:4882, H-A:ALA:541:N:4888, V-A:ILE:538:CD1:4862, H-A:TYR:539:N:4867, V-A:LEU:363:CD1:3185, V-B:TYR:531:CE1:9761, V-A:TYR:531:CE1:4789, V-A:ASP:366:C:3204, V-B:TYR:531:CZ:9763, V-A:ILE:538:CG2:4860, V-A:PRO:540:CD:4884, V-A:ASN:370:CG:3242, V-A:ASN:370:CB:3241"]

$$$$
3be_Grossjean_2025
     RDKit          3D

 27 29  0  0  0  0  0  0  0  0999 V2000
  125.8510  130.3800   57.0000 C   0  0  0  0  0  0  0  0  0  0  0  0
  126.9360  130.2510   55.9500 C   0  0  0  0  0  0  0  0  0  0  0  0
  126.6790  129.6890   54.6970 C   0  0  0  0  0  0  0  0  0  0  0  0
  127.7270  129.5990   53.7810 C   0  0  0  0  0  0  0  0  0  0  0  0
  128.9940  130.0700   54.1340 C   0  0  0  0  0  0  0  0  0  0  0  0
  129.1830  130.6260   55.4040 C   0  0  0  0  0  0  0  0  0  0  0  0
  130.4830  131.0720   55.7040 N   0  0  0  0  0  0  0  0  0  0  0  0
  130.8950  132.3150   56.0360 C   0  0  0  0  0  0  0  0  0  0  0  0
  130.1560  133.2970   56.1260 O   0  0  0  0  0  0  0  0  0  0  0  0
  132.4020  132.4410   56.3100 C   0  0  0  0  0  0  0  0  0  0  0  0
  133.0120  131.4960   57.7470 S   0  0  0  0  0  0  0  0  0  0  0  0
  131.8420  130.2000   58.0930 C   0  0  0  0  0  0  0  0  0  0  0  0
  131.9520  129.1330   57.2640 N   0  0  0  0  0  0  0  0  0  0  0  0
  131.1220  128.0670   57.4170 C   0  0  0  0  0  0  0  0  0  0  0  0
  131.3010  126.9340   56.4500 C   0  0  0  0  0  0  0  0  0  0  0  0
  130.1920  126.2170   55.9730 C   0  0  0  0  0  0  0  0  0  0  0  0
  130.3510  125.1640   55.0770 C   0  0  0  0  0  0  0  0  0  0  0  0
  131.6240  124.8110   54.6450 C   0  0  0  0  0  0  0  0  0  0  0  0
  132.7390  125.5030   55.1040 C   0  0  0  0  0  0  0  0  0  0  0  0
  132.5770  126.5560   56.0000 C   0  0  0  0  0  0  0  0  0  0  0  0
  130.1480  128.0550   58.4210 C   0  0  0  0  0  0  0  0  0  0  0  0
  130.0370  129.1370   59.3000 C   0  0  0  0  0  0  0  0  0  0  0  0
  128.9700  129.0730   60.3910 C   0  0  0  0  0  0  0  0  0  0  0  0
  130.9070  130.2400   59.1520 C   0  0  0  0  0  0  0  0  0  0  0  0
  130.8440  131.3580   60.0950 C   0  0  0  0  0  0  0  0  0  0  0  0
  130.7930  132.2410   60.8410 N   0  0  0  0  0  0  0  0  0  0  0  0
  128.1610  130.7130   56.3070 N   0  0  0  0  0  0  0  0  0  0  0  0
  1  2  1  0
  2  3  2  0
  3  4  1  0
  4  5  2  0
  5  6  1  0
  6  7  1  0
  7  8  1  0
  8  9  2  0
  8 10  1  0
 10 11  1  0
 11 12  1  0
 12 13  2  0
 13 14  1  0
 14 15  1  0
 15 16  2  0
 16 17  1  0
 17 18  2  0
 18 19  1  0
 19 20  2  0
 14 21  2  0
 21 22  1  0
 22 23  1  0
 22 24  2  0
 24 25  1  0
 25 26  3  0
  6 27  2  0
 27  2  1  0
 24 12  1  0
 20 15  1  0
M  END
>  <Binding energies>  (19) 
[-8.49]

>  <Ligand effiencies>  (19) 
[-0.3032142857142857]

>  <Interactions>  (19) 
["V-B:MET:535:CE:9804, V-A:TYR:531:CZ:4791, V-A:PRO:540:CA:4880, V-A:ASP:366:CB:3208, V-A:TYR:539:CE2:4873, H-A:TYR:531:OH:4792, V-A:TYR:539:C:4864, V-A:PRO:540:N:4881, V-A:PRO:540:CB:4882, H-A:ALA:541:N:4888, V-A:ILE:538:CD1:4862, H-A:TYR:539:N:4867, V-A:LEU:363:CD1:3185, V-B:TYR:531:CE1:9761, V-A:TYR:531:CE1:4789, V-A:ASP:366:C:3204, V-B:TYR:531:CZ:9763, V-A:ILE:538:CG2:4860, V-A:PRO:540:CD:4884, V-A:ASN:370:CG:3242, V-A:ASN:370:CB:3241, V-A:PRO:540:CG:4883"]

$$$$
3bf_Grossjean_2025
     RDKit          3D

 26 28  0  0  0  0  0  0  0  0999 V2000
  128.8950  128.9970   60.2880 C   0  0  0  0  0  0  0  0  0  0  0  0
  129.9840  129.0500   59.2190 C   0  0  0  0  0  0  0  0  0  0  0  0
  130.1340  127.9440   58.3770 C   0  0  0  0  0  0  0  0  0  0  0  0
  131.1100  127.9560   57.3740 C   0  0  0  0  0  0  0  0  0  0  0  0
  131.3080  126.8130   56.4250 C   0  0  0  0  0  0  0  0  0  0  0  0
  130.2150  126.0470   55.9890 C   0  0  0  0  0  0  0  0  0  0  0  0
  130.3900  124.9840   55.1080 C   0  0  0  0  0  0  0  0  0  0  0  0
  131.6660  124.6700   54.6500 C   0  0  0  0  0  0  0  0  0  0  0  0
  132.7650  125.4120   55.0680 C   0  0  0  0  0  0  0  0  0  0  0  0
  132.5860  126.4750   55.9500 C   0  0  0  0  0  0  0  0  0  0  0  0
  131.9210  129.0340   57.2040 N   0  0  0  0  0  0  0  0  0  0  0  0
  131.8040  130.1040   58.0290 C   0  0  0  0  0  0  0  0  0  0  0  0
  132.9510  131.4160   57.6620 S   0  0  0  0  0  0  0  0  0  0  0  0
  132.2300  132.4430   56.3370 C   0  0  0  0  0  0  0  0  0  0  0  0
  130.7210  132.2600   56.1180 C   0  0  0  0  0  0  0  0  0  0  0  0
  129.9100  133.0040   56.6730 O   0  0  0  0  0  0  0  0  0  0  0  0
  130.3930  131.2640   55.2670 N   0  0  0  0  0  0  0  0  0  0  0  0
  129.1150  130.8320   54.8640 C   0  0  0  0  0  0  0  0  0  0  0  0
  128.5610  129.7480   55.5520 C   0  0  0  0  0  0  0  0  0  0  0  0
  127.2900  129.2810   55.2080 C   0  0  0  0  0  0  0  0  0  0  0  0
  126.6020  129.9220   54.1780 C   0  0  0  0  0  0  0  0  0  0  0  0
  127.1100  130.9810   53.5010 N   0  0  0  0  0  0  0  0  0  0  0  0
  128.3460  131.4240   53.8460 C   0  0  0  0  0  0  0  0  0  0  0  0
  130.8290  130.1670   59.0490 C   0  0  0  0  0  0  0  0  0  0  0  0
  130.6560  131.3560   59.8880 C   0  0  0  0  0  0  0  0  0  0  0  0
  130.5180  132.2940   60.5530 N   0  0  0  0  0  0  0  0  0  0  0  0
  1  2  1  0
  2  3  2  0
  3  4  1  0
  4  5  1  0
  5  6  2  0
  6  7  1  0
  7  8  2  0
  8  9  1  0
  9 10  2  0
  4 11  2  0
 11 12  1  0
 12 13  1  0
 13 14  1  0
 14 15  1  0
 15 16  2  0
 15 17  1  0
 17 18  1  0
 18 19  2  0
 19 20  1  0
 20 21  2  0
 21 22  1  0
 22 23  2  0
 12 24  2  0
 24 25  1  0
 25 26  3  0
 24  2  1  0
 10  5  1  0
 23 18  1  0
M  END
>  <Binding energies>  (20) 
[-8.76]

>  <Ligand effiencies>  (20) 
[-0.3244444444444444]

>  <Interactions>  (20) 
["V-B:TYR:539:CE1:9844, V-B:MET:535:CE:9804, V-A:TYR:531:CZ:4791, V-A:PRO:540:CA:4880, V-A:ASP:366:CB:3208, H-A:TYR:531:OH:4792, V-A:TYR:539:C:4864, V-A:PRO:540:N:4881, V-A:PRO:540:CB:4882, H-A:ALA:541:N:4888, V-A:ILE:538:CD1:4862, H-A:TYR:539:N:4867, V-A:LEU:363:CD1:3185, V-B:TYR:531:CE1:9761, H-A:TYR:539:OH:4875, V-A:TYR:531:CE1:4789, V-A:ASP:366:C:3204, H-B:LYS:534:NZ:9792, V-B:TYR:531:CZ:9763, V-A:ILE:538:CG2:4860, V-A:PRO:540:CD:4884, V-A:ASN:370:CG:3242, V-A:ASN:370:CB:3241, V-A:PRO:540:CG:4883"]

$$$$
3bg_Grossjean_2025
     RDKit          3D

 27 29  0  0  0  0  0  0  0  0999 V2000
  129.6070  128.7260   60.8450 C   0  0  0  0  0  0  0  0  0  0  0  0
  130.5010  128.8250   59.6110 C   0  0  0  0  0  0  0  0  0  0  0  0
  130.5190  127.7470   58.7200 C   0  0  0  0  0  0  0  0  0  0  0  0
  131.3190  127.7990   57.5700 C   0  0  0  0  0  0  0  0  0  0  0  0
  131.3760  126.6810   56.5670 C   0  0  0  0  0  0  0  0  0  0  0  0
  130.2130  125.9900   56.1850 C   0  0  0  0  0  0  0  0  0  0  0  0
  130.2590  124.9670   55.2440 C   0  0  0  0  0  0  0  0  0  0  0  0
  131.4740  124.6130   54.6670 C   0  0  0  0  0  0  0  0  0  0  0  0
  132.6420  125.2700   55.0330 C   0  0  0  0  0  0  0  0  0  0  0  0
  132.5920  126.2920   55.9770 C   0  0  0  0  0  0  0  0  0  0  0  0
  132.0700  128.9010   57.3010 N   0  0  0  0  0  0  0  0  0  0  0  0
  132.0620  129.9570   58.1540 C   0  0  0  0  0  0  0  0  0  0  0  0
  133.0640  131.3530   57.6670 S   0  0  0  0  0  0  0  0  0  0  0  0
  132.3830  132.0320   56.1190 C   0  0  0  0  0  0  0  0  0  0  0  0
  130.8560  132.1320   56.1630 C   0  0  0  0  0  0  0  0  0  0  0  0
  130.3120  133.2360   56.1370 O   0  0  0  0  0  0  0  0  0  0  0  0
  130.1830  130.9710   56.2530 N   0  0  0  0  0  0  0  0  0  0  0  0
  128.7450  130.8400   56.4900 C   0  0  0  0  0  0  0  0  0  0  0  0
  128.0010  130.4120   55.2310 C   0  0  0  0  0  0  0  0  0  0  0  0
  126.6850  130.8370   55.0160 C   0  0  0  0  0  0  0  0  0  0  0  0
  126.0020  130.4390   53.8710 C   0  0  0  0  0  0  0  0  0  0  0  0
  126.6400  129.6250   52.9360 C   0  0  0  0  0  0  0  0  0  0  0  0
  127.9560  129.2130   53.1320 C   0  0  0  0  0  0  0  0  0  0  0  0
  128.6390  129.6120   54.2790 C   0  0  0  0  0  0  0  0  0  0  0  0
  131.2920  129.9600   59.3360 C   0  0  0  0  0  0  0  0  0  0  0  0
  131.2880  131.1080   60.2470 C   0  0  0  0  0  0  0  0  0  0  0  0
  131.2840  132.0130   60.9670 N   0  0  0  0  0  0  0  0  0  0  0  0
  1  2  1  0
  2  3  2  0
  3  4  1  0
  4  5  1  0
  5  6  2  0
  6  7  1  0
  7  8  2  0
  8  9  1  0
  9 10  2  0
  4 11  2  0
 11 12  1  0
 12 13  1  0
 13 14  1  0
 14 15  1  0
 15 16  2  0
 15 17  1  0
 17 18  1  0
 18 19  1  0
 19 20  2  0
 20 21  1  0
 21 22  2  0
 22 23  1  0
 23 24  2  0
 12 25  2  0
 25 26  1  0
 26 27  3  0
 25  2  1  0
 10  5  1  0
 24 19  1  0
M  END
>  <Binding energies>  (21) 
[-8.53]

>  <Ligand effiencies>  (21) 
[-0.3046428571428571]

>  <Interactions>  (21) 
["V-B:TYR:539:CE1:9844, V-B:MET:535:CE:9804, V-A:TYR:531:CZ:4791, V-A:PRO:540:CA:4880, V-A:ASP:366:CG:3209, V-A:ASP:366:CB:3208, V-A:TYR:539:CE2:4873, H-A:TYR:531:OH:4792, V-A:TYR:539:C:4864, V-A:PRO:540:N:4881, V-A:PRO:540:CB:4882, H-A:ALA:541:N:4888, V-A:ILE:538:CD1:4862, V-B:LYS:534:CE:9791, H-A:TYR:539:N:4867, V-A:TYR:539:CZ:4874, V-A:LEU:363:CD1:3185, V-B:TYR:531:CE1:9761, V-A:TYR:531:CE1:4789, V-A:ASP:366:C:3204, V-B:LYS:534:CD:9790, V-B:TYR:531:CZ:9763, V-A:MET:535:CE:4832, V-A:ILE:538:CG2:4860, V-A:ASN:370:CG:3242, V-A:ASN:370:CB:3241, V-A:TYR:531:CE2:4790"]

$$$$
3ca_Grossjean_2025
     RDKit          3D

 31 33  0  0  0  0  0  0  0  0999 V2000
  129.0650  122.9230   53.8780 C   0  0  0  0  0  0  0  0  0  0  0  0
  128.5160  123.2080   55.2790 C   0  0  0  0  0  0  0  0  0  0  0  0
  127.8810  122.0400   55.7850 O   0  0  0  0  0  0  0  0  0  0  0  0
  126.7940  122.1280   56.5940 C   0  0  0  0  0  0  0  0  0  0  0  0
  125.6450  121.8700   56.2200 O   0  0  0  0  0  0  0  0  0  0  0  0
  127.1280  122.5640   57.9920 C   0  0  0  0  0  0  0  0  0  0  0  0
  128.0160  121.7950   58.7540 C   0  0  0  0  0  0  0  0  0  0  0  0
  128.3450  122.1730   60.0530 C   0  0  0  0  0  0  0  0  0  0  0  0
  127.7880  123.3210   60.6180 C   0  0  0  0  0  0  0  0  0  0  0  0
  128.1890  123.6130   61.9360 N   0  0  0  0  0  0  0  0  0  0  0  0
  129.4290  123.7960   62.4390 C   0  0  0  0  0  0  0  0  0  0  0  0
  130.4740  123.7550   61.7910 O   0  0  0  0  0  0  0  0  0  0  0  0
  129.4880  124.0970   63.9410 C   0  0  0  0  0  0  0  0  0  0  0  0
  130.6210  125.4640   64.3540 S   0  0  0  0  0  0  0  0  0  0  0  0
  129.7660  126.6840   65.3430 C   0  0  0  0  0  0  0  0  0  0  0  0
  130.1830  126.7950   66.6300 N   0  0  0  0  0  0  0  0  0  0  0  0
  129.5960  127.7110   67.4300 C   0  0  0  0  0  0  0  0  0  0  0  0
  130.1290  127.7860   68.8470 C   0  0  0  0  0  0  0  0  0  0  0  0
  128.5650  128.5380   66.9910 C   0  0  0  0  0  0  0  0  0  0  0  0
  128.1040  128.4310   65.6720 C   0  0  0  0  0  0  0  0  0  0  0  0
  126.9880  129.3300   65.2500 C   0  0  0  0  0  0  0  0  0  0  0  0
  125.6580  128.9340   65.4370 C   0  0  0  0  0  0  0  0  0  0  0  0
  124.6110  129.7610   65.0370 C   0  0  0  0  0  0  0  0  0  0  0  0
  124.8920  130.9890   64.4440 C   0  0  0  0  0  0  0  0  0  0  0  0
  126.2090  131.3950   64.2440 C   0  0  0  0  0  0  0  0  0  0  0  0
  127.2530  130.5640   64.6440 C   0  0  0  0  0  0  0  0  0  0  0  0
  128.7250  127.4850   64.8170 C   0  0  0  0  0  0  0  0  0  0  0  0
  128.3200  127.3630   63.4130 C   0  0  0  0  0  0  0  0  0  0  0  0
  127.9990  127.2670   62.3040 N   0  0  0  0  0  0  0  0  0  0  0  0
  126.9040  124.1020   59.8590 C   0  0  0  0  0  0  0  0  0  0  0  0
  126.5780  123.7230   58.5590 C   0  0  0  0  0  0  0  0  0  0  0  0
  1  2  1  0
  2  3  1  0
  3  4  1  0
  4  5  2  0
  4  6  1  0
  6  7  2  0
  7  8  1  0
  8  9  2  0
  9 10  1  0
 10 11  1  0
 11 12  2  0
 11 13  1  0
 13 14  1  0
 14 15  1  0
 15 16  2  0
 16 17  1  0
 17 18  1  0
 17 19  2  0
 19 20  1  0
 20 21  1  0
 21 22  2  0
 22 23  1  0
 23 24  2  0
 24 25  1  0
 25 26  2  0
 20 27  2  0
 27 28  1  0
 28 29  3  0
  9 30  1  0
 30 31  2  0
 31  6  1  0
 27 15  1  0
 26 21  1  0
M  END
>  <Binding energies>  (22) 
[-9.07]

>  <Ligand effiencies>  (22) 
[-0.2834375]

>  <Interactions>  (22) 
["V-A:GLU:543:CD:4905, V-A:GLU:543:CG:4904, V-B:TYR:539:CE2:9845, V-B:TYR:539:CE1:9844, V-B:PRO:540:CA:9852, V-B:TYR:539:CG:9841, V-B:PRO:540:N:9853, V-B:TYR:539:C:9836, V-B:GLU:543:CD:9877, V-B:HIS:456:CE1:9038, V-A:HIS:456:CE1:4066, V-B:TYR:539:CZ:9846, V-A:GLU:543:CB:4903, V-B:TYR:539:CD1:9842, V-B:ALA:541:CB:9861, V-B:MET:535:CE:9804, V-B:TYR:539:CD2:9843, V-B:GLU:543:CG:9876, H-B:GLU:543:OE2:9879, H-B:TYR:539:N:9839, V-B:ILE:538:CB:9831, V-B:ILE:538:CA:9829, V-B:PRO:540:CD:9856, V-B:GLY:454:CA:9017, V-B:ARG:545:CZ:9895"]

$$$$
3ce_Grossjean_2025
     RDKit          3D

 27 29  0  0  0  0  0  0  0  0999 V2000
  131.4980  125.1480   55.4960 C   0  0  0  0  0  0  0  0  0  0  0  0
  130.5070  126.2210   55.9060 C   0  0  0  0  0  0  0  0  0  0  0  0
  129.7590  126.1130   57.0810 C   0  0  0  0  0  0  0  0  0  0  0  0
  128.8740  127.1430   57.4000 C   0  0  0  0  0  0  0  0  0  0  0  0
  128.7580  128.2430   56.5470 C   0  0  0  0  0  0  0  0  0  0  0  0
  129.5300  128.2830   55.3810 C   0  0  0  0  0  0  0  0  0  0  0  0
  129.3870  129.4220   54.5710 N   0  0  0  0  0  0  0  0  0  0  0  0
  128.2640  129.8950   53.9850 C   0  0  0  0  0  0  0  0  0  0  0  0
  127.1480  129.3820   54.0790 O   0  0  0  0  0  0  0  0  0  0  0  0
  128.4350  131.1690   53.1580 C   0  0  0  0  0  0  0  0  0  0  0  0
  128.5580  132.6470   54.2070 S   0  0  0  0  0  0  0  0  0  0  0  0
  128.6340  132.0490   55.8800 C   0  0  0  0  0  0  0  0  0  0  0  0
  127.4260  131.7210   56.4020 N   0  0  0  0  0  0  0  0  0  0  0  0
  127.3780  131.2390   57.6660 C   0  0  0  0  0  0  0  0  0  0  0  0
  125.9990  130.8800   58.1830 C   0  0  0  0  0  0  0  0  0  0  0  0
  128.5170  131.0790   58.4510 C   0  0  0  0  0  0  0  0  0  0  0  0
  129.7700  131.4370   57.9380 C   0  0  0  0  0  0  0  0  0  0  0  0
  130.9590  131.2710   58.8270 C   0  0  0  0  0  0  0  0  0  0  0  0
  130.8880  131.6490   60.1730 C   0  0  0  0  0  0  0  0  0  0  0  0
  131.9940  131.5040   61.0070 C   0  0  0  0  0  0  0  0  0  0  0  0
  133.1800  130.9860   60.4950 C   0  0  0  0  0  0  0  0  0  0  0  0
  133.2700  130.6150   59.1560 C   0  0  0  0  0  0  0  0  0  0  0  0
  132.1630  130.7600   58.3250 C   0  0  0  0  0  0  0  0  0  0  0  0
  129.8390  131.9330   56.6110 C   0  0  0  0  0  0  0  0  0  0  0  0
  131.1250  132.3090   56.0150 C   0  0  0  0  0  0  0  0  0  0  0  0
  132.1400  132.6050   55.5450 N   0  0  0  0  0  0  0  0  0  0  0  0
  130.4040  127.2820   55.0660 N   0  0  0  0  0  0  0  0  0  0  0  0
  1  2  1  0
  2  3  2  0
  3  4  1  0
  4  5  2  0
  5  6  1  0
  6  7  1  0
  7  8  1  0
  8  9  2  0
  8 10  1  0
 10 11  1  0
 11 12  1  0
 12 13  2  0
 13 14  1  0
 14 15  1  0
 14 16  2  0
 16 17  1  0
 17 18  1  0
 18 19  2  0
 19 20  1  0
 20 21  2  0
 21 22  1  0
 22 23  2  0
 17 24  2  0
 24 25  1  0
 25 26  3  0
  6 27  2  0
 27  2  1  0
 24 12  1  0
 23 18  1  0
M  END
>  <Binding energies>  (23) 
[-8.36]

>  <Ligand effiencies>  (23) 
[-0.29857142857142854]

>  <Interactions>  (23) 
["V-A:GLU:543:CD:4905, V-B:MET:535:CE:9804, V-A:TYR:531:CZ:4791, V-A:PRO:540:CA:4880, V-A:TYR:539:CD2:4871, V-A:ASP:366:CG:3209, V-A:TYR:539:CE2:4873, H-A:TYR:531:OH:4792, V-A:PRO:540:C:4878, V-A:TYR:539:C:4864, V-A:PRO:540:N:4881, V-A:PRO:540:CB:4882, V-A:ILE:538:CD1:4862, V-B:LYS:534:CE:9791, H-A:TYR:539:N:4867, V-A:TYR:539:CZ:4874, H-A:TYR:539:OH:4875, V-A:LEU:363:CA:3181, V-A:ASN:362:C:3168, V-A:ASN:362:CB:3172, V-A:ILE:538:CG2:4860"]

$$$$
3cj_Grossjean_2025
     RDKit          3D

 25 27  0  0  0  0  0  0  0  0999 V2000
  131.2640  126.4350   57.7160 C   0  0  0  0  0  0  0  0  0  0  0  0
  131.0350  127.8690   57.2790 C   0  0  0  0  0  0  0  0  0  0  0  0
  129.8840  128.2460   56.5910 C   0  0  0  0  0  0  0  0  0  0  0  0
  129.7030  129.5880   56.2270 C   0  0  0  0  0  0  0  0  0  0  0  0
  128.4260  129.9580   55.5500 C   0  0  0  0  0  0  0  0  0  0  0  0
  128.3490  129.9990   54.1530 C   0  0  0  0  0  0  0  0  0  0  0  0
  127.1600  130.3570   53.5210 C   0  0  0  0  0  0  0  0  0  0  0  0
  126.0450  130.6820   54.2880 C   0  0  0  0  0  0  0  0  0  0  0  0
  126.1090  130.6560   55.6780 C   0  0  0  0  0  0  0  0  0  0  0  0
  127.2990  130.2970   56.3070 C   0  0  0  0  0  0  0  0  0  0  0  0
  130.7250  130.5160   56.5460 C   0  0  0  0  0  0  0  0  0  0  0  0
  130.6070  131.9280   56.1670 C   0  0  0  0  0  0  0  0  0  0  0  0
  130.5130  133.0420   55.8680 N   0  0  0  0  0  0  0  0  0  0  0  0
  131.8570  130.0460   57.2500 C   0  0  0  0  0  0  0  0  0  0  0  0
  133.1460  131.1290   57.8280 S   0  0  0  0  0  0  0  0  0  0  0  0
  133.1550  130.9190   59.6370 C   0  0  0  0  0  0  0  0  0  0  0  0
  131.7360  130.8530   60.2110 C   0  0  0  0  0  0  0  0  0  0  0  0
  131.2200  131.8730   60.6730 O   0  0  0  0  0  0  0  0  0  0  0  0
  131.1330  129.6470   60.1270 N   0  0  0  0  0  0  0  0  0  0  0  0
  129.8170  129.3570   60.4470 C   0  0  0  0  0  0  0  0  0  0  0  0
  128.7380  130.0390   60.1280 N   0  0  0  0  0  0  0  0  0  0  0  0
  127.6460  129.4510   60.5740 C   0  0  0  0  0  0  0  0  0  0  0  0
  127.8270  128.2630   61.2750 C   0  0  0  0  0  0  0  0  0  0  0  0
  129.5270  127.9040   61.3500 S   0  0  0  0  0  0  0  0  0  0  0  0
  132.0040  128.7490   57.6180 N   0  0  0  0  0  0  0  0  0  0  0  0
  1  2  1  0
  2  3  2  0
  3  4  1  0
  4  5  1  0
  5  6  2  0
  6  7  1  0
  7  8  2  0
  8  9  1  0
  9 10  2  0
  4 11  2  0
 11 12  1  0
 12 13  3  0
 11 14  1  0
 14 15  1  0
 15 16  1  0
 16 17  1  0
 17 18  2  0
 17 19  1  0
 19 20  1  0
 20 21  2  0
 21 22  1  0
 22 23  2  0
 23 24  1  0
 14 25  2  0
 25  2  1  0
 10  5  1  0
 24 20  1  0
M  END
>  <Binding energies>  (24) 
[-7.39]

>  <Ligand effiencies>  (24) 
[-0.28423076923076923]

>  <Interactions>  (24) 
["V-A:PRO:540:CA:4880, V-A:ASP:366:CG:3209, V-A:ASP:366:CB:3208, V-A:TYR:539:CE2:4873, H-A:ASP:366:OD1:3210, H-A:TYR:531:OH:4792, V-A:PRO:540:CB:4882, H-A:ALA:541:N:4888, V-A:ILE:538:CD1:4862, V-B:LYS:534:CE:9791, H-A:TYR:539:N:4867, V-A:TYR:539:CZ:4874, V-B:TYR:531:CE1:9761, V-A:LEU:363:CA:3181, V-A:ASN:362:C:3168"]

$$$$
4ba_Grossjean_2025
     RDKit          3D

 28 30  0  0  0  0  0  0  0  0999 V2000
  128.6240  132.3830   53.7940 C   0  0  0  0  0  0  0  0  0  0  0  0
  128.2640  131.0820   53.0500 C   0  0  0  0  0  0  0  0  0  0  0  0
  127.0030  130.3610   53.5680 C   0  0  0  0  0  0  0  0  0  0  0  0
  126.1750  129.9310   52.7610 O   0  0  0  0  0  0  0  0  0  0  0  0
  126.8450  130.2100   55.0530 C   0  0  0  0  0  0  0  0  0  0  0  0
  125.7390  130.7870   55.6900 C   0  0  0  0  0  0  0  0  0  0  0  0
  125.5690  130.6640   57.0650 C   0  0  0  0  0  0  0  0  0  0  0  0
  126.4970  129.9600   57.8330 C   0  0  0  0  0  0  0  0  0  0  0  0
  126.2330  129.9050   59.2150 N   0  0  0  0  0  0  0  0  0  0  0  0
  126.6360  130.7290   60.2130 C   0  0  0  0  0  0  0  0  0  0  0  0
  127.3820  131.6960   60.0540 O   0  0  0  0  0  0  0  0  0  0  0  0
  126.1400  130.3840   61.5470 C   0  0  0  0  0  0  0  0  0  0  0  0
  124.4810  130.7680   62.0030 S   0  0  0  0  0  0  0  0  0  0  0  0
  124.7250  130.1270   63.6100 C   0  0  0  0  0  0  0  0  0  0  0  0
  123.7480  130.1340   64.5160 N   0  0  0  0  0  0  0  0  0  0  0  0
  124.0550  129.6120   65.7250 C   0  0  0  0  0  0  0  0  0  0  0  0
  122.9310  129.6390   66.7450 C   0  0  0  0  0  0  0  0  0  0  0  0
  125.3030  129.0840   66.0460 C   0  0  0  0  0  0  0  0  0  0  0  0
  126.3370  129.0730   65.0960 C   0  0  0  0  0  0  0  0  0  0  0  0
  127.6920  128.4790   65.4950 C   0  0  0  0  0  0  0  0  0  0  0  0
  127.6330  127.7450   66.6080 F   0  0  0  0  0  0  0  0  0  0  0  0
  128.1440  127.6900   64.5200 F   0  0  0  0  0  0  0  0  0  0  0  0
  128.5680  129.4610   65.7090 F   0  0  0  0  0  0  0  0  0  0  0  0
  126.0460  129.6230   63.8110 C   0  0  0  0  0  0  0  0  0  0  0  0
  126.8350  129.7920   62.6150 C   0  0  0  0  0  0  0  0  0  0  0  0
  128.1490  129.4050   62.5340 N   0  0  0  0  0  0  0  0  0  0  0  0
  127.6110  129.3840   57.2040 C   0  0  0  0  0  0  0  0  0  0  0  0
  127.7800  129.5080   55.8280 C   0  0  0  0  0  0  0  0  0  0  0  0
  1  2  1  0
  2  3  1  0
  3  4  2  0
  3  5  1  0
  5  6  2  0
  6  7  1  0
  7  8  2  0
  8  9  1  0
  9 10  1  0
 10 11  2  0
 10 12  1  0
 12 13  1  0
 13 14  1  0
 14 15  2  0
 15 16  1  0
 16 17  1  0
 16 18  2  0
 18 19  1  0
 19 20  1  0
 20 21  1  0
 20 22  1  0
 20 23  1  0
 19 24  2  0
 24 25  1  0
 25 26  1  0
  8 27  1  0
 27 28  2  0
 28  5  1  0
 25 12  2  0
 24 14  1  0
M  END
>  <Binding energies>  (25) 
[-7.7]

>  <Ligand effiencies>  (25) 
[-0.24838709677419354]

>  <Interactions>  (25) 
["V-A:GLU:543:CD:4905, V-A:GLU:543:CG:4904, V-B:GLU:543:CD:9877, V-B:HIS:456:CE1:9038, V-A:GLU:543:CB:4903, V-B:MET:535:CE:9804, V-A:TYR:539:CE2:4873, H-B:TYR:484:OH:9316, V-A:ILE:538:CD1:4862, V-B:LYS:534:CE:9791, V-A:TYR:539:CZ:4874, V-B:ASP:366:CG:8181, V-B:TYR:531:CE1:9761, V-A:TYR:539:CE1:4872, V-A:ILE:538:CA:4857, H-B:LYS:534:NZ:9792, V-B:TYR:531:CZ:9763, H-B:ASP:366:OD1:8182, H-A:GLU:543:OE2:4907, V-B:ARG:545:CD:9892, V-B:ARG:545:CG:9891, V-B:ARG:545:CZ:9895, V-B:GLY:453:C:9010, V-B:GLY:453:CA:9012, H-B:GLY:454:N:9018, H-B:ARG:545:NH1:9896, V-B:ILE:455:C:9020"]

$$$$
4bb_Grossjean_2025
     RDKit          3D

 27 29  0  0  0  0  0  0  0  0999 V2000
  128.6360  130.2600   53.2650 C   0  0  0  0  0  0  0  0  0  0  0  0
  127.1540  130.3000   53.6440 C   0  0  0  0  0  0  0  0  0  0  0  0
  126.3240  130.3580   52.7360 O   0  0  0  0  0  0  0  0  0  0  0  0
  126.7930  130.2760   55.0990 C   0  0  0  0  0  0  0  0  0  0  0  0
  127.7140  129.7760   56.0280 C   0  0  0  0  0  0  0  0  0  0  0  0
  127.4020  129.7430   57.3840 C   0  0  0  0  0  0  0  0  0  0  0  0
  126.1690  130.2140   57.8390 C   0  0  0  0  0  0  0  0  0  0  0  0
  125.9570  130.1310   59.2290 N   0  0  0  0  0  0  0  0  0  0  0  0
  126.4260  130.9150   60.2310 C   0  0  0  0  0  0  0  0  0  0  0  0
  127.1850  131.8690   60.0640 O   0  0  0  0  0  0  0  0  0  0  0  0
  125.9910  130.5340   61.5770 C   0  0  0  0  0  0  0  0  0  0  0  0
  124.3650  130.9290   62.1290 S   0  0  0  0  0  0  0  0  0  0  0  0
  124.6750  130.2240   63.6980 C   0  0  0  0  0  0  0  0  0  0  0  0
  123.7430  130.2060   64.6490 N   0  0  0  0  0  0  0  0  0  0  0  0
  124.1010  129.6340   65.8210 C   0  0  0  0  0  0  0  0  0  0  0  0
  123.0230  129.6230   66.8910 C   0  0  0  0  0  0  0  0  0  0  0  0
  125.3570  129.0850   66.0640 C   0  0  0  0  0  0  0  0  0  0  0  0
  126.3430  129.1010   65.0660 C   0  0  0  0  0  0  0  0  0  0  0  0
  127.7110  128.4840   65.3790 C   0  0  0  0  0  0  0  0  0  0  0  0
  127.6970  127.7050   66.4630 F   0  0  0  0  0  0  0  0  0  0  0  0
  128.1120  127.7330   64.3530 F   0  0  0  0  0  0  0  0  0  0  0  0
  128.6040  129.4500   65.5930 F   0  0  0  0  0  0  0  0  0  0  0  0
  125.9990  129.6970   63.8160 C   0  0  0  0  0  0  0  0  0  0  0  0
  126.7280  129.8940   62.5880 C   0  0  0  0  0  0  0  0  0  0  0  0
  128.0260  129.4840   62.4240 N   0  0  0  0  0  0  0  0  0  0  0  0
  125.2390  130.7090   56.9130 C   0  0  0  0  0  0  0  0  0  0  0  0
  125.5520  130.7410   55.5560 C   0  0  0  0  0  0  0  0  0  0  0  0
  1  2  1  0
  2  3  2  0
  2  4  1  0
  4  5  2  0
  5  6  1  0
  6  7  2  0
  7  8  1  0
  8  9  1  0
  9 10  2  0
  9 11  1  0
 11 12  1  0
 12 13  1  0
 13 14  2  0
 14 15  1  0
 15 16  1  0
 15 17  2  0
 17 18  1  0
 18 19  1  0
 19 20  1  0
 19 21  1  0
 19 22  1  0
 18 23  2  0
 23 24  1  0
 24 25  1  0
  7 26  1  0
 26 27  2  0
 27  4  1  0
 24 11  2  0
 23 13  1  0
M  END
>  <Binding energies>  (26) 
[-7.59]

>  <Ligand effiencies>  (26) 
[-0.253]

>  <Interactions>  (26) 
["V-A:GLU:543:CD:4905, V-A:GLU:543:CG:4904, V-B:GLU:543:CD:9877, V-B:HIS:456:CE1:9038, V-A:GLU:543:CB:4903, V-A:TYR:539:CE2:4873, H-B:TYR:484:OH:9316, V-A:ILE:538:CD1:4862, V-B:LYS:534:CE:9791, V-A:TYR:539:CZ:4874, V-B:ASP:366:CG:8181, V-B:TYR:531:CE1:9761, H-B:LYS:534:NZ:9792, V-B:TYR:531:CZ:9763, V-A:MET:535:CE:4832, H-B:ASP:366:OD1:8182, H-A:GLU:543:OE2:4907, V-B:ARG:545:CD:9892, V-B:ARG:545:CG:9891, V-B:ARG:545:CZ:9895, H-B:ASP:366:OD2:8183, V-B:GLY:453:C:9010, V-B:GLY:453:CA:9012, H-B:GLY:454:N:9018, H-B:ARG:545:NH1:9896, V-A:MET:535:CG:4830, V-B:ILE:455:C:9020, V-B:ARG:545:CB:9890"]

$$$$
4bd_Grossjean_2025
     RDKit          3D

 24 26  0  0  0  0  0  0  0  0999 V2000
  124.7860  122.8830   55.1430 C   0  0  0  0  0  0  0  0  0  0  0  0
  125.3920  123.0880   56.5190 C   0  0  0  0  0  0  0  0  0  0  0  0
  124.5970  123.4340   57.6090 C   0  0  0  0  0  0  0  0  0  0  0  0
  125.1700  123.6230   58.8760 C   0  0  0  0  0  0  0  0  0  0  0  0
  124.2560  124.0070   60.0440 C   0  0  0  0  0  0  0  0  0  0  0  0
  124.1880  123.0620   60.9850 F   0  0  0  0  0  0  0  0  0  0  0  0
  124.7080  125.1170   60.6260 F   0  0  0  0  0  0  0  0  0  0  0  0
  123.0180  124.2150   59.5990 F   0  0  0  0  0  0  0  0  0  0  0  0
  126.5810  123.4440   58.9870 C   0  0  0  0  0  0  0  0  0  0  0  0
  127.5000  123.5480   60.0950 C   0  0  0  0  0  0  0  0  0  0  0  0
  127.0950  123.8700   61.3640 N   0  0  0  0  0  0  0  0  0  0  0  0
  128.8390  123.2910   59.7560 C   0  0  0  0  0  0  0  0  0  0  0  0
  130.0230  123.3250   60.6200 C   0  0  0  0  0  0  0  0  0  0  0  0
  129.9140  123.1910   61.8400 O   0  0  0  0  0  0  0  0  0  0  0  0
  131.2060  123.4980   59.9800 N   0  0  0  0  0  0  0  0  0  0  0  0
  132.5030  123.6160   60.5130 C   0  0  0  0  0  0  0  0  0  0  0  0
  132.5950  124.2130   61.7730 C   0  0  0  0  0  0  0  0  0  0  0  0
  133.8340  124.3650   62.3900 C   0  0  0  0  0  0  0  0  0  0  0  0
  134.9840  123.9120   61.7490 C   0  0  0  0  0  0  0  0  0  0  0  0
  134.9040  123.3030   60.4990 C   0  0  0  0  0  0  0  0  0  0  0  0
  133.6670  123.1490   59.8790 C   0  0  0  0  0  0  0  0  0  0  0  0
  129.0010  122.9040   58.0440 S   0  0  0  0  0  0  0  0  0  0  0  0
  127.2810  123.0900   57.7930 C   0  0  0  0  0  0  0  0  0  0  0  0
  126.7310  122.9110   56.5930 N   0  0  0  0  0  0  0  0  0  0  0  0
  1  2  1  0
  2  3  2  0
  3  4  1  0
  4  5  1  0
  5  6  1  0
  5  7  1  0
  5  8  1  0
  4  9  2  0
  9 10  1  0
 10 11  1  0
 10 12  2  0
 12 13  1  0
 13 14  2  0
 13 15  1  0
 15 16  1  0
 16 17  2  0
 17 18  1  0
 18 19  2  0
 19 20  1  0
 20 21  2  0
 12 22  1  0
 22 23  1  0
 23 24  2  0
 24  2  1  0
 23  9  1  0
 21 16  1  0
M  END
>  <Binding energies>  (27) 
[-6.67]

>  <Ligand effiencies>  (27) 
[-0.24703703703703703]

>  <Interactions>  (27) 
["V-B:TYR:539:CE2:9845, V-B:TYR:539:CE1:9844, V-B:PRO:540:CA:9852, V-B:GLU:543:CD:9877, V-B:TYR:539:CZ:9846, V-B:TYR:539:CD1:9842, V-B:ALA:541:CB:9861, V-B:PRO:540:CB:9854, V-B:TYR:539:CD2:9843, V-A:ASP:366:CG:3209, V-B:GLU:543:CG:9876, H-B:GLU:543:OE2:9879, V-B:ASN:362:CB:8144, H-B:TYR:539:OH:9847, V-B:LEU:363:CD1:8157, V-B:ASN:362:C:8140, V-B:LEU:363:CA:8153, V-B:ASP:366:CG:8181, V-B:ILE:538:CB:9831, V-B:ILE:538:CG2:9832, V-A:GLY:454:CA:4045, V-B:LEU:363:CB:8155, V-B:PRO:540:C:9850, V-A:ILE:369:CG2:3233, V-A:ILE:369:CG1:3234, V-A:ASP:366:CA:3206, V-A:ILE:369:CB:3232, V-A:GLY:453:C:4038, V-A:GLY:453:CA:4040, V-B:ILE:538:CD1:9834"]

$$$$
4be_Grossjean_2025
     RDKit          3D

 25 27  0  0  0  0  0  0  0  0999 V2000
  134.6760  120.2660   61.3950 C   0  0  0  0  0  0  0  0  0  0  0  0
  134.0170  121.6270   61.2830 C   0  0  0  0  0  0  0  0  0  0  0  0
  134.6490  122.7850   61.7420 C   0  0  0  0  0  0  0  0  0  0  0  0
  133.9810  124.0030   61.6090 C   0  0  0  0  0  0  0  0  0  0  0  0
  132.7120  124.0340   61.0260 C   0  0  0  0  0  0  0  0  0  0  0  0
  132.1390  122.8370   60.5820 C   0  0  0  0  0  0  0  0  0  0  0  0
  130.8570  122.9350   60.0110 N   0  0  0  0  0  0  0  0  0  0  0  0
  129.6510  122.6770   60.5760 C   0  0  0  0  0  0  0  0  0  0  0  0
  129.5050  122.3030   61.7420 O   0  0  0  0  0  0  0  0  0  0  0  0
  128.4930  122.8490   59.6950 C   0  0  0  0  0  0  0  0  0  0  0  0
  128.6060  122.4130   57.9900 S   0  0  0  0  0  0  0  0  0  0  0  0
  126.9580  122.9230   57.7050 C   0  0  0  0  0  0  0  0  0  0  0  0
  126.4030  122.8320   56.4970 N   0  0  0  0  0  0  0  0  0  0  0  0
  125.1210  123.2560   56.4000 C   0  0  0  0  0  0  0  0  0  0  0  0
  124.5080  123.1480   55.0160 C   0  0  0  0  0  0  0  0  0  0  0  0
  124.3900  123.7600   57.4720 C   0  0  0  0  0  0  0  0  0  0  0  0
  124.9690  123.8570   58.7460 C   0  0  0  0  0  0  0  0  0  0  0  0
  124.1230  124.4160   59.8960 C   0  0  0  0  0  0  0  0  0  0  0  0
  124.7340  125.3970   60.5640 F   0  0  0  0  0  0  0  0  0  0  0  0
  122.9830  124.9120   59.4170 F   0  0  0  0  0  0  0  0  0  0  0  0
  123.8500  123.4460   60.7680 F   0  0  0  0  0  0  0  0  0  0  0  0
  126.3210  123.4230   58.8820 C   0  0  0  0  0  0  0  0  0  0  0  0
  127.2300  123.3780   60.0020 C   0  0  0  0  0  0  0  0  0  0  0  0
  126.8810  123.8080   61.2570 N   0  0  0  0  0  0  0  0  0  0  0  0
  132.7840  121.6410   60.7140 N   0  0  0  0  0  0  0  0  0  0  0  0
  1  2  1  0
  2  3  2  0
  3  4  1  0
  4  5  2  0
  5  6  1  0
  6  7  1  0
  7  8  1  0
  8  9  2  0
  8 10  1  0
 10 11  1  0
 11 12  1  0
 12 13  2  0
 13 14  1  0
 14 15  1  0
 14 16  2  0
 16 17  1  0
 17 18  1  0
 18 19  1  0
 18 20  1  0
 18 21  1  0
 17 22  2  0
 22 23  1  0
 23 24  1  0
  6 25  2  0
 25  2  1  0
 23 10  2  0
 22 12  1  0
M  END
>  <Binding energies>  (28) 
[-6.7]

>  <Ligand effiencies>  (28) 
[-0.2392857142857143]

>  <Interactions>  (28) 
["V-A:LEU:475:CD1:4254, V-B:TYR:539:CE2:9845, V-B:TYR:539:CE1:9844, V-B:PRO:540:CA:9852, V-B:TYR:539:CG:9841, V-B:PRO:540:N:9853, V-B:TYR:539:C:9836, V-B:GLU:543:CD:9877, V-B:TYR:539:CZ:9846, V-B:TYR:539:CD1:9842, V-B:ALA:541:CB:9861, V-B:PRO:540:CB:9854, V-B:TYR:539:CD2:9843, V-A:ASP:366:CG:3209, H-B:GLU:543:OE2:9879, V-B:ASN:362:CB:8144, V-B:ASP:366:CB:8180, H-B:TYR:539:OH:9847, V-B:LEU:363:CD1:8157, V-B:ASN:362:C:8140, V-B:LEU:363:CA:8153, V-B:ASP:366:CG:8181, V-B:ILE:538:CB:9831, V-B:ILE:538:CG2:9832, V-A:GLY:454:CA:4045, V-B:LEU:363:CB:8155, V-A:ILE:369:CG2:3233, V-A:ILE:369:CG1:3234, V-A:ILE:369:CB:3232, V-A:GLY:453:C:4038, V-A:ILE:369:CD1:3235, V-A:GLY:453:CA:4040, V-B:LEU:363:C:8151, V-B:ILE:538:CD1:9834, V-A:SER:385:C:3401"]

$$$$
4bg_Grossjean_2025
     RDKit          3D

 25 27  0  0  0  0  0  0  0  0999 V2000
  124.7020  123.2220   54.9770 C   0  0  0  0  0  0  0  0  0  0  0  0
  125.2130  123.2410   56.4060 C   0  0  0  0  0  0  0  0  0  0  0  0
  124.5090  123.8990   57.4110 C   0  0  0  0  0  0  0  0  0  0  0  0
  124.9960  123.9130   58.7280 C   0  0  0  0  0  0  0  0  0  0  0  0
  124.1860  124.6500   59.8000 C   0  0  0  0  0  0  0  0  0  0  0  0
  123.1210  125.2840   59.3060 F   0  0  0  0  0  0  0  0  0  0  0  0
  123.7460  123.7800   60.7100 F   0  0  0  0  0  0  0  0  0  0  0  0
  124.9530  125.5620   60.3980 F   0  0  0  0  0  0  0  0  0  0  0  0
  126.2240  123.2310   58.9760 C   0  0  0  0  0  0  0  0  0  0  0  0
  127.0170  123.0380   60.1660 C   0  0  0  0  0  0  0  0  0  0  0  0
  126.6650  123.5600   61.3860 N   0  0  0  0  0  0  0  0  0  0  0  0
  128.1700  122.2650   59.9650 C   0  0  0  0  0  0  0  0  0  0  0  0
  129.2050  121.9020   60.9340 C   0  0  0  0  0  0  0  0  0  0  0  0
  129.6340  120.7510   61.0160 O   0  0  0  0  0  0  0  0  0  0  0  0
  129.6800  122.9100   61.6950 N   0  0  0  0  0  0  0  0  0  0  0  0
  130.7010  122.7800   62.7350 C   0  0  0  0  0  0  0  0  0  0  0  0
  132.1240  122.7660   62.1940 C   0  0  0  0  0  0  0  0  0  0  0  0
  132.6060  121.6420   61.5160 C   0  0  0  0  0  0  0  0  0  0  0  0
  133.8950  121.6470   60.9890 C   0  0  0  0  0  0  0  0  0  0  0  0
  134.6940  122.7800   61.1280 C   0  0  0  0  0  0  0  0  0  0  0  0
  134.2140  123.9090   61.7870 C   0  0  0  0  0  0  0  0  0  0  0  0
  132.9260  123.9050   62.3160 C   0  0  0  0  0  0  0  0  0  0  0  0
  128.3330  121.7800   58.2800 S   0  0  0  0  0  0  0  0  0  0  0  0
  126.8420  122.5900   57.8590 C   0  0  0  0  0  0  0  0  0  0  0  0
  126.3760  122.5820   56.6100 N   0  0  0  0  0  0  0  0  0  0  0  0
  1  2  1  0
  2  3  2  0
  3  4  1  0
  4  5  1  0
  5  6  1  0
  5  7  1  0
  5  8  1  0
  4  9  2  0
  9 10  1  0
 10 11  1  0
 10 12  2  0
 12 13  1  0
 13 14  2  0
 13 15  1  0
 15 16  1  0
 16 17  1  0
 17 18  2  0
 18 19  1  0
 19 20  2  0
 20 21  1  0
 21 22  2  0
 12 23  1  0
 23 24  1  0
 24 25  2  0
 25  2  1  0
 24  9  1  0
 22 17  1  0
M  END
>  <Binding energies>  (29) 
[-7.13]

>  <Ligand effiencies>  (29) 
[-0.2546428571428571]

>  <Interactions>  (29) 
["V-A:LEU:475:CD1:4254, V-B:TYR:539:CE2:9845, V-B:TYR:539:CE1:9844, V-B:PRO:540:CA:9852, V-B:TYR:539:CG:9841, V-B:PRO:540:N:9853, V-B:TYR:539:C:9836, V-B:GLU:543:CD:9877, V-B:TYR:539:CZ:9846, V-B:TYR:539:CD1:9842, V-B:ALA:541:CB:9861, V-B:PRO:540:CB:9854, V-B:TYR:539:CD2:9843, V-A:ASP:366:CG:3209, V-B:GLU:543:CG:9876, H-B:GLU:543:OE2:9879, V-B:ASN:362:CB:8144, V-B:ASP:366:CB:8180, V-B:LEU:363:CD1:8157, V-B:ASN:362:C:8140, V-B:LEU:363:CA:8153, V-B:ASP:366:CG:8181, V-B:ILE:538:CB:9831, V-B:ILE:538:CG2:9832, V-A:GLY:454:CA:4045, V-A:ILE:369:CG2:3233, V-A:ILE:369:CG1:3234, V-A:ILE:369:CB:3232, V-A:GLY:453:C:4038, V-B:ASN:362:CA:8142, V-A:GLY:453:CA:4040, V-B:TYR:539:CA:9838"]

$$$$
4ca_Grossjean_2025
     RDKit          3D

 34 37  0  0  0  0  0  0  0  0999 V2000
  129.4890  123.1830   53.9440 C   0  0  0  0  0  0  0  0  0  0  0  0
  128.1320  122.5820   54.3260 C   0  0  0  0  0  0  0  0  0  0  0  0
  128.1990  122.0700   55.6510 O   0  0  0  0  0  0  0  0  0  0  0  0
  127.1290  122.1400   56.4850 C   0  0  0  0  0  0  0  0  0  0  0  0
  125.9990  121.7460   56.1770 O   0  0  0  0  0  0  0  0  0  0  0  0
  127.4570  122.7430   57.8200 C   0  0  0  0  0  0  0  0  0  0  0  0
  126.8830  123.9710   58.1760 C   0  0  0  0  0  0  0  0  0  0  0  0
  127.1650  124.5530   59.4090 C   0  0  0  0  0  0  0  0  0  0  0  0
  128.0300  123.9260   60.3060 C   0  0  0  0  0  0  0  0  0  0  0  0
  128.2370  124.5980   61.5270 N   0  0  0  0  0  0  0  0  0  0  0  0
  129.3430  125.2200   62.0030 C   0  0  0  0  0  0  0  0  0  0  0  0
  130.3940  125.3400   61.3730 O   0  0  0  0  0  0  0  0  0  0  0  0
  129.2130  125.7820   63.3500 C   0  0  0  0  0  0  0  0  0  0  0  0
  129.7610  124.8620   64.7500 S   0  0  0  0  0  0  0  0  0  0  0  0
  129.3220  126.1620   65.8310 C   0  0  0  0  0  0  0  0  0  0  0  0
  129.5120  126.0660   67.1450 N   0  0  0  0  0  0  0  0  0  0  0  0
  129.1540  127.1330   67.9050 C   0  0  0  0  0  0  0  0  0  0  0  0
  129.3890  126.9970   69.3820 C   0  0  0  0  0  0  0  0  0  0  0  0
  130.3900  127.7450   70.0220 C   0  0  0  0  0  0  0  0  0  0  0  0
  130.6170  127.6190   71.3900 C   0  0  0  0  0  0  0  0  0  0  0  0
  129.8440  126.7390   72.1400 C   0  0  0  0  0  0  0  0  0  0  0  0
  128.8480  125.9840   71.5310 C   0  0  0  0  0  0  0  0  0  0  0  0
  128.6240  126.1120   70.1630 C   0  0  0  0  0  0  0  0  0  0  0  0
  128.5860  128.2820   67.3450 C   0  0  0  0  0  0  0  0  0  0  0  0
  128.3770  128.3920   65.9610 C   0  0  0  0  0  0  0  0  0  0  0  0
  127.7530  129.6810   65.4140 C   0  0  0  0  0  0  0  0  0  0  0  0
  128.2570  130.0460   64.2330 F   0  0  0  0  0  0  0  0  0  0  0  0
  126.4410  129.5150   65.2530 F   0  0  0  0  0  0  0  0  0  0  0  0
  127.9700  130.6840   66.2650 F   0  0  0  0  0  0  0  0  0  0  0  0
  128.7650  127.2850   65.1530 C   0  0  0  0  0  0  0  0  0  0  0  0
  128.7180  127.0400   63.7320 C   0  0  0  0  0  0  0  0  0  0  0  0
  128.2280  127.9570   62.8380 N   0  0  0  0  0  0  0  0  0  0  0  0
  128.6050  122.6940   59.9610 C   0  0  0  0  0  0  0  0  0  0  0  0
  128.3200  122.1120   58.7280 C   0  0  0  0  0  0  0  0  0  0  0  0
  1  2  1  0
  2  3  1  0
  3  4  1  0
  4  5  2  0
  4  6  1  0
  6  7  2  0
  7  8  1  0
  8  9  2  0
  9 10  1  0
 10 11  1  0
 11 12  2  0
 11 13  1  0
 13 14  1  0
 14 15  1  0
 15 16  2  0
 16 17  1  0
 17 18  1  0
 18 19  2  0
 19 20  1  0
 20 21  2  0
 21 22  1  0
 22 23  2  0
 17 24  2  0
 24 25  1  0
 25 26  1  0
 26 27  1  0
 26 28  1  0
 26 29  1  0
 25 30  2  0
 30 31  1  0
 31 32  1  0
  9 33  1  0
 33 34  2  0
 34  6  1  0
 31 13  2  0
 30 15  1  0
 23 18  1  0
M  END
>  <Binding energies>  (30) 
[-8.82]

>  <Ligand effiencies>  (30) 
[-0.23837837837837839]

>  <Interactions>  (30) 
["V-B:TYR:484:CZ:9315, V-A:GLU:543:CD:4905, V-A:GLU:543:CA:4901, V-A:GLU:543:CG:4904, V-B:TYR:539:CE2:9845, V-B:TYR:539:CE1:9844, V-B:PRO:540:CA:9852, V-B:TYR:539:CG:9841, V-B:TYR:484:CE1:9313, V-B:PRO:540:N:9853, V-B:TYR:539:C:9836, V-B:GLU:543:CD:9877, V-B:HIS:456:CE1:9038, V-A:HIS:456:CE1:4066, V-B:TYR:539:CZ:9846, V-A:GLU:543:CB:4903, V-B:TYR:539:CD1:9842, V-B:MET:535:CE:9804, V-B:TYR:539:CD2:9843, V-B:GLU:543:CG:9876, H-B:GLU:543:OE2:9879, V-B:GLU:543:CB:9875, H-B:TYR:539:N:9839, V-B:ILE:538:CB:9831, V-B:ILE:538:CA:9829, V-B:ILE:538:CG2:9832, H-B:ASP:366:OD1:8182, V-B:PRO:540:CD:9856, H-A:GLU:543:OE2:4907, H-B:GLU:543:OE1:9878, V-A:HIS:456:CD2:4064, V-B:LYS:547:CE:9919, V-A:GLY:544:C:4909"]

$$$$
4cb_Grossjean_2025
     RDKit          3D

 33 36  0  0  0  0  0  0  0  0999 V2000
  128.2230  122.6160   54.6920 C   0  0  0  0  0  0  0  0  0  0  0  0
  127.7820  121.7730   55.7480 O   0  0  0  0  0  0  0  0  0  0  0  0
  126.7270  122.1230   56.5270 C   0  0  0  0  0  0  0  0  0  0  0  0
  125.5510  121.9230   56.2110 O   0  0  0  0  0  0  0  0  0  0  0  0
  127.1340  122.7790   57.8170 C   0  0  0  0  0  0  0  0  0  0  0  0
  126.2730  123.7110   58.4110 C   0  0  0  0  0  0  0  0  0  0  0  0
  126.6180  124.3300   59.6090 C   0  0  0  0  0  0  0  0  0  0  0  0
  127.8300  124.0350   60.2340 C   0  0  0  0  0  0  0  0  0  0  0  0
  128.0700  124.7070   61.4480 N   0  0  0  0  0  0  0  0  0  0  0  0
  129.1690  125.3760   61.8730 C   0  0  0  0  0  0  0  0  0  0  0  0
  130.1810  125.5490   61.1910 O   0  0  0  0  0  0  0  0  0  0  0  0
  129.0840  125.9230   63.2300 C   0  0  0  0  0  0  0  0  0  0  0  0
  129.6270  124.9670   64.6070 S   0  0  0  0  0  0  0  0  0  0  0  0
  129.2510  126.2650   65.7150 C   0  0  0  0  0  0  0  0  0  0  0  0
  129.4610  126.1450   67.0230 N   0  0  0  0  0  0  0  0  0  0  0  0
  129.1480  127.2120   67.8040 C   0  0  0  0  0  0  0  0  0  0  0  0
  129.4000  127.0480   69.2750 C   0  0  0  0  0  0  0  0  0  0  0  0
  130.4480  127.7390   69.9050 C   0  0  0  0  0  0  0  0  0  0  0  0
  130.6900  127.5890   71.2680 C   0  0  0  0  0  0  0  0  0  0  0  0
  129.8850  126.7420   72.0230 C   0  0  0  0  0  0  0  0  0  0  0  0
  128.8420  126.0430   71.4230 C   0  0  0  0  0  0  0  0  0  0  0  0
  128.6050  126.1950   70.0600 C   0  0  0  0  0  0  0  0  0  0  0  0
  128.6060  128.3850   67.2690 C   0  0  0  0  0  0  0  0  0  0  0  0
  128.3780  128.5210   65.8910 C   0  0  0  0  0  0  0  0  0  0  0  0
  127.7830  129.8360   65.3710 C   0  0  0  0  0  0  0  0  0  0  0  0
  128.2470  130.1790   64.1670 F   0  0  0  0  0  0  0  0  0  0  0  0
  126.4590  129.7220   65.2710 F   0  0  0  0  0  0  0  0  0  0  0  0
  128.0790  130.8280   66.2100 F   0  0  0  0  0  0  0  0  0  0  0  0
  128.7180  127.4140   65.0610 C   0  0  0  0  0  0  0  0  0  0  0  0
  128.6390  127.1920   63.6380 C   0  0  0  0  0  0  0  0  0  0  0  0
  128.1670  128.1390   62.7650 N   0  0  0  0  0  0  0  0  0  0  0  0
  128.6960  123.1000   59.6480 C   0  0  0  0  0  0  0  0  0  0  0  0
  128.3490  122.4810   58.4510 C   0  0  0  0  0  0  0  0  0  0  0  0
  1  2  1  0
  2  3  1  0
  3  4  2  0
  3  5  1  0
  5  6  2  0
  6  7  1  0
  7  8  2  0
  8  9  1  0
  9 10  1  0
 10 11  2  0
 10 12  1  0
 12 13  1  0
 13 14  1  0
 14 15  2  0
 15 16  1  0
 16 17  1  0
 17 18  2  0
 18 19  1  0
 19 20  2  0
 20 21  1  0
 21 22  2  0
 16 23  2  0
 23 24  1  0
 24 25  1  0
 25 26  1  0
 25 27  1  0
 25 28  1  0
 24 29  2  0
 29 30  1  0
 30 31  1  0
  8 32  1  0
 32 33  2  0
 33  5  1  0
 30 12  2  0
 29 14  1  0
 22 17  1  0
M  END
>  <Binding energies>  (31) 
[-8.5]

>  <Ligand effiencies>  (31) 
[-0.2361111111111111]

>  <Interactions>  (31) 
["V-B:TYR:484:CZ:9315, V-A:GLU:543:CD:4905, V-A:GLU:543:CA:4901, V-A:GLU:543:CG:4904, V-B:TYR:539:CE2:9845, V-B:TYR:539:CE1:9844, V-B:PRO:540:CA:9852, V-B:TYR:539:CG:9841, V-B:TYR:484:CE1:9313, V-B:PRO:540:N:9853, V-B:TYR:539:C:9836, V-B:GLU:543:CD:9877, V-B:HIS:456:CE1:9038, V-A:HIS:456:CE1:4066, V-B:TYR:539:CZ:9846, V-A:GLU:543:CB:4903, V-B:TYR:539:CD1:9842, V-B:MET:535:CE:9804, V-B:TYR:539:CD2:9843, V-B:GLU:543:CG:9876, H-B:GLU:543:OE2:9879, V-B:GLU:543:CB:9875, H-B:TYR:539:N:9839, V-B:ILE:538:CB:9831, V-B:ILE:538:CA:9829, V-B:ILE:538:CG2:9832, H-B:ASP:366:OD1:8182, V-B:PRO:540:CD:9856, H-A:GLU:543:OE2:4907, V-A:HIS:456:CD2:4064, V-A:GLU:543:C:4899, V-B:LYS:547:CE:9919, V-A:GLY:544:C:4909"]

$$$$
4cc_Grossjean_2025
     RDKit          3D

 31 34  0  0  0  0  0  0  0  0999 V2000
  127.4440  122.4890   55.2670 C   0  0  0  0  0  0  0  0  0  0  0  0
  127.0020  121.8510   56.4600 O   0  0  0  0  0  0  0  0  0  0  0  0
  127.3530  122.3890   57.6830 C   0  0  0  0  0  0  0  0  0  0  0  0
  126.7570  123.6030   58.0240 C   0  0  0  0  0  0  0  0  0  0  0  0
  127.0480  124.2210   59.2370 C   0  0  0  0  0  0  0  0  0  0  0  0
  127.9530  123.6350   60.1240 C   0  0  0  0  0  0  0  0  0  0  0  0
  128.1720  124.3240   61.3320 N   0  0  0  0  0  0  0  0  0  0  0  0
  129.3420  124.6980   61.9040 C   0  0  0  0  0  0  0  0  0  0  0  0
  130.4490  124.5090   61.3970 O   0  0  0  0  0  0  0  0  0  0  0  0
  129.2220  125.3660   63.2040 C   0  0  0  0  0  0  0  0  0  0  0  0
  129.8690  124.6050   64.6560 S   0  0  0  0  0  0  0  0  0  0  0  0
  129.3530  125.9500   65.6450 C   0  0  0  0  0  0  0  0  0  0  0  0
  129.5750  125.9730   66.9570 N   0  0  0  0  0  0  0  0  0  0  0  0
  129.1460  127.0650   67.6410 C   0  0  0  0  0  0  0  0  0  0  0  0
  129.4070  127.0620   69.1190 C   0  0  0  0  0  0  0  0  0  0  0  0
  128.5530  126.3750   69.9980 C   0  0  0  0  0  0  0  0  0  0  0  0
  128.7890  126.3690   71.3710 C   0  0  0  0  0  0  0  0  0  0  0  0
  129.8850  127.0530   71.8860 C   0  0  0  0  0  0  0  0  0  0  0  0
  130.7440  127.7440   71.0380 C   0  0  0  0  0  0  0  0  0  0  0  0
  130.5050  127.7480   69.6670 C   0  0  0  0  0  0  0  0  0  0  0  0
  128.4820  128.1200   67.0070 C   0  0  0  0  0  0  0  0  0  0  0  0
  128.2410  128.1060   65.6240 C   0  0  0  0  0  0  0  0  0  0  0  0
  127.5130  129.2980   64.9940 C   0  0  0  0  0  0  0  0  0  0  0  0
  128.0400  129.6770   63.8270 F   0  0  0  0  0  0  0  0  0  0  0  0
  126.2380  128.9820   64.7710 F   0  0  0  0  0  0  0  0  0  0  0  0
  127.5690  130.3460   65.8160 F   0  0  0  0  0  0  0  0  0  0  0  0
  128.6950  126.9690   64.8950 C   0  0  0  0  0  0  0  0  0  0  0  0
  128.6310  126.6040   63.5010 C   0  0  0  0  0  0  0  0  0  0  0  0
  128.0450  127.4040   62.5530 N   0  0  0  0  0  0  0  0  0  0  0  0
  128.5470  122.4080   59.7950 C   0  0  0  0  0  0  0  0  0  0  0  0
  128.2520  121.7940   58.5810 C   0  0  0  0  0  0  0  0  0  0  0  0
  1  2  1  0
  2  3  1  0
  3  4  2  0
  4  5  1  0
  5  6  2  0
  6  7  1  0
  7  8  1  0
  8  9  2  0
  8 10  1  0
 10 11  1  0
 11 12  1  0
 12 13  2  0
 13 14  1  0
 14 15  1  0
 15 16  2  0
 16 17  1  0
 17 18  2  0
 18 19  1  0
 19 20  2  0
 14 21  2  0
 21 22  1  0
 22 23  1  0
 23 24  1  0
 23 25  1  0
 23 26  1  0
 22 27  2  0
 27 28  1  0
 28 29  1  0
  6 30  1  0
 30 31  2  0
 31  3  1  0
 28 10  2  0
 27 12  1  0
 20 15  1  0
M  END
>  <Binding energies>  (32) 
[-7.8]

>  <Ligand effiencies>  (32) 
[-0.22941176470588234]

>  <Interactions>  (32) 
["V-B:TYR:484:CZ:9315, V-A:GLU:543:CD:4905, V-A:GLU:543:CG:4904, V-B:TYR:539:CE2:9845, V-B:TYR:539:CE1:9844, V-B:PRO:540:CA:9852, V-B:TYR:539:CG:9841, V-B:TYR:484:CE1:9313, V-B:PRO:540:N:9853, V-B:TYR:539:C:9836, V-B:GLU:543:CD:9877, V-B:HIS:456:CE1:9038, V-A:HIS:456:CE1:4066, V-B:TYR:539:CZ:9846, V-A:GLU:543:CB:4903, V-B:TYR:539:CD1:9842, V-B:MET:535:CE:9804, V-B:TYR:539:CD2:9843, V-B:GLU:543:CG:9876, H-B:GLU:543:OE2:9879, V-B:GLU:543:CB:9875, H-B:TYR:539:N:9839, V-B:ILE:538:CB:9831, V-B:ILE:538:CA:9829, V-B:ILE:538:CG2:9832, H-B:ASP:366:OD1:8182, H-A:GLU:543:OE2:4907, H-B:GLU:543:OE1:9878, V-A:HIS:456:CD2:4064, V-A:GLU:543:C:4899, V-A:GLY:544:C:4909"]

$$$$
4ce_Grossjean_2025
     RDKit          3D

 30 33  0  0  0  0  0  0  0  0999 V2000
  128.1360  126.3210   70.5940 C   0  0  0  0  0  0  0  0  0  0  0  0
  128.9930  126.7230   69.4090 C   0  0  0  0  0  0  0  0  0  0  0  0
  129.9370  127.7490   69.5040 C   0  0  0  0  0  0  0  0  0  0  0  0
  130.6960  128.0600   68.3750 C   0  0  0  0  0  0  0  0  0  0  0  0
  130.4980  127.3460   67.1930 C   0  0  0  0  0  0  0  0  0  0  0  0
  129.5320  126.3330   67.1640 C   0  0  0  0  0  0  0  0  0  0  0  0
  129.3950  125.6330   65.9520 N   0  0  0  0  0  0  0  0  0  0  0  0
  130.3660  125.1320   65.1470 C   0  0  0  0  0  0  0  0  0  0  0  0
  131.5700  125.2140   65.3940 O   0  0  0  0  0  0  0  0  0  0  0  0
  129.8930  124.4670   63.9310 C   0  0  0  0  0  0  0  0  0  0  0  0
  128.8560  125.3260   62.7950 S   0  0  0  0  0  0  0  0  0  0  0  0
  128.8120  123.9480   61.7220 C   0  0  0  0  0  0  0  0  0  0  0  0
  128.1310  123.9800   60.5800 N   0  0  0  0  0  0  0  0  0  0  0  0
  128.1690  122.8650   59.8030 C   0  0  0  0  0  0  0  0  0  0  0  0
  127.3960  122.9340   58.5200 C   0  0  0  0  0  0  0  0  0  0  0  0
  126.1190  123.5180   58.4840 C   0  0  0  0  0  0  0  0  0  0  0  0
  125.3920  123.5800   57.2970 C   0  0  0  0  0  0  0  0  0  0  0  0
  125.9350  123.0600   56.1280 C   0  0  0  0  0  0  0  0  0  0  0  0
  127.1970  122.4760   56.1360 C   0  0  0  0  0  0  0  0  0  0  0  0
  127.9190  122.4130   57.3250 C   0  0  0  0  0  0  0  0  0  0  0  0
  128.8720  121.7180   60.1890 C   0  0  0  0  0  0  0  0  0  0  0  0
  129.5890  121.6730   61.3950 C   0  0  0  0  0  0  0  0  0  0  0  0
  130.3380  120.3860   61.7540 C   0  0  0  0  0  0  0  0  0  0  0  0
  129.9640  119.3380   61.0170 F   0  0  0  0  0  0  0  0  0  0  0  0
  131.6470  120.5580   61.5660 F   0  0  0  0  0  0  0  0  0  0  0  0
  130.1150  120.0760   63.0310 F   0  0  0  0  0  0  0  0  0  0  0  0
  129.5690  122.8420   62.2090 C   0  0  0  0  0  0  0  0  0  0  0  0
  130.1760  123.1670   63.4770 C   0  0  0  0  0  0  0  0  0  0  0  0
  130.9600  122.2830   64.1730 N   0  0  0  0  0  0  0  0  0  0  0  0
  128.7880  126.0200   68.2650 N   0  0  0  0  0  0  0  0  0  0  0  0
  1  2  1  0
  2  3  2  0
  3  4  1  0
  4  5  2  0
  5  6  1  0
  6  7  1  0
  7  8  1  0
  8  9  2  0
  8 10  1  0
 10 11  1  0
 11 12  1  0
 12 13  2  0
 13 14  1  0
 14 15  1  0
 15 16  2  0
 16 17  1  0
 17 18  2  0
 18 19  1  0
 19 20  2  0
 14 21  2  0
 21 22  1  0
 22 23  1  0
 23 24  1  0
 23 25  1  0
 23 26  1  0
 22 27  2  0
 27 28  1  0
 28 29  1  0
  6 30  2  0
 30  2  1  0
 28 10  2  0
 27 12  1  0
 20 15  1  0
M  END
>  <Binding energies>  (33) 
[-7.86]

>  <Ligand effiencies>  (33) 
[-0.2381818181818182]

>  <Interactions>  (33) 
["V-A:LEU:475:CD1:4254, V-B:TYR:539:CE2:9845, V-B:TYR:539:CE1:9844, V-B:PRO:540:CA:9852, H-A:TYR:484:OH:4344, V-B:TYR:539:CG:9841, V-B:PRO:540:N:9853, V-B:TYR:539:C:9836, V-B:GLU:543:CD:9877, V-A:HIS:456:CE1:4066, V-B:TYR:539:CZ:9846, V-A:GLU:543:CB:4903, V-B:TYR:539:CD1:9842, V-B:ALA:541:CB:9861, V-B:PRO:540:CB:9854, V-B:MET:535:CE:9804, V-B:TYR:539:CD2:9843, V-B:GLU:543:CG:9876, H-B:GLU:543:OE2:9879, V-B:GLU:543:CB:9875, V-A:TYR:484:CE1:4341, V-A:TYR:484:CZ:4343, V-B:LEU:363:CD1:8157, V-B:ILE:538:CB:9831, V-B:ILE:538:CA:9829, V-B:ILE:538:CG2:9832, H-B:GLU:543:OE1:9878, V-A:LEU:475:CD2:4255, V-A:LEU:475:CG:4253, V-A:GLU:543:C:4899, V-B:GLY:544:C:9881, V-A:TRP:381:CH2:3368, V-A:PRO:482:CG:4323, V-A:PRO:482:CB:4322"]

$$$$
4cf_Grossjean_2025
     RDKit          3D

 29 32  0  0  0  0  0  0  0  0999 V2000
  131.0260  122.2830   64.1480 N   0  0  0  0  0  0  0  0  0  0  0  0
  130.2500  123.1870   63.4690 C   0  0  0  0  0  0  0  0  0  0  0  0
  130.0180  124.4960   63.9240 C   0  0  0  0  0  0  0  0  0  0  0  0
  130.4880  125.1310   65.1580 C   0  0  0  0  0  0  0  0  0  0  0  0
  131.6760  125.0740   65.4790 O   0  0  0  0  0  0  0  0  0  0  0  0
  129.5370  125.7720   65.8790 N   0  0  0  0  0  0  0  0  0  0  0  0
  129.6420  126.4320   67.1180 C   0  0  0  0  0  0  0  0  0  0  0  0
  128.8030  126.2220   68.2300 C   0  0  0  0  0  0  0  0  0  0  0  0
  129.0090  126.9570   69.3990 C   0  0  0  0  0  0  0  0  0  0  0  0
  130.0480  127.8870   69.4300 C   0  0  0  0  0  0  0  0  0  0  0  0
  130.8660  128.1140   68.3710 N   0  0  0  0  0  0  0  0  0  0  0  0
  130.6520  127.3930   67.2400 C   0  0  0  0  0  0  0  0  0  0  0  0
  128.9850  125.3830   62.8060 S   0  0  0  0  0  0  0  0  0  0  0  0
  128.8650  123.9980   61.7460 C   0  0  0  0  0  0  0  0  0  0  0  0
  128.1470  124.0410   60.6250 N   0  0  0  0  0  0  0  0  0  0  0  0
  128.1010  122.9090   59.8750 C   0  0  0  0  0  0  0  0  0  0  0  0
  127.2780  122.9840   58.6220 C   0  0  0  0  0  0  0  0  0  0  0  0
  126.0210  123.6060   58.6260 C   0  0  0  0  0  0  0  0  0  0  0  0
  125.2510  123.6810   57.4680 C   0  0  0  0  0  0  0  0  0  0  0  0
  125.7330  123.1330   56.2840 C   0  0  0  0  0  0  0  0  0  0  0  0
  126.9780  122.5130   56.2500 C   0  0  0  0  0  0  0  0  0  0  0  0
  127.7430  122.4410   57.4100 C   0  0  0  0  0  0  0  0  0  0  0  0
  128.7950  121.7510   60.2390 C   0  0  0  0  0  0  0  0  0  0  0  0
  129.5580  121.6980   61.4160 C   0  0  0  0  0  0  0  0  0  0  0  0
  130.2890  120.3940   61.7580 C   0  0  0  0  0  0  0  0  0  0  0  0
  129.8670  119.3520   61.0380 F   0  0  0  0  0  0  0  0  0  0  0  0
  131.5940  120.5350   61.5290 F   0  0  0  0  0  0  0  0  0  0  0  0
  130.0980  120.0930   63.0430 F   0  0  0  0  0  0  0  0  0  0  0  0
  129.5990  122.8730   62.2210 C   0  0  0  0  0  0  0  0  0  0  0  0
  1  2  1  0
  2  3  2  0
  3  4  1  0
  4  5  2  0
  4  6  1  0
  6  7  1  0
  7  8  2  0
  8  9  1  0
  9 10  2  0
 10 11  1  0
 11 12  2  0
  3 13  1  0
 13 14  1  0
 14 15  2  0
 15 16  1  0
 16 17  1  0
 17 18  2  0
 18 19  1  0
 19 20  2  0
 20 21  1  0
 21 22  2  0
 16 23  2  0
 23 24  1  0
 24 25  1  0
 25 26  1  0
 25 27  1  0
 25 28  1  0
 24 29  2  0
 29  2  1  0
 12  7  1  0
 29 14  1  0
 22 17  1  0
M  END
>  <Binding energies>  (34) 
[-7.4]

>  <Ligand effiencies>  (34) 
[-0.23125]

>  <Interactions>  (34) 
["V-A:GLU:543:CD:4905, V-A:LEU:475:CD1:4254, V-B:TYR:539:CE2:9845, V-B:TYR:539:CE1:9844, V-B:PRO:540:CA:9852, H-A:TYR:484:OH:4344, V-B:TYR:539:CG:9841, V-B:PRO:540:N:9853, V-B:TYR:539:C:9836, V-B:GLU:543:CD:9877, V-B:HIS:456:CE1:9038, V-A:HIS:456:CE1:4066, V-A:GLU:543:CB:4903, V-B:TYR:539:CD1:9842, V-B:ALA:541:CB:9861, V-B:PRO:540:CB:9854, V-B:TYR:539:CD2:9843, V-B:GLU:543:CG:9876, H-B:GLU:543:OE2:9879, V-B:GLU:543:CB:9875, V-A:TYR:484:CE1:4341, V-A:TYR:484:CZ:4343, V-B:LEU:363:CD1:8157, V-B:ILE:538:CB:9831, H-B:GLU:543:OE1:9878, V-A:LEU:475:CD2:4255, V-A:LEU:475:CG:4253, V-A:GLU:543:C:4899, V-A:PRO:482:CG:4323, V-A:PRO:482:CB:4322"]

$$$$
4ci_Grossjean_2025
     RDKit          3D

 28 31  0  0  0  0  0  0  0  0999 V2000
  131.6660  123.0500   60.2770 N   0  0  0  0  0  0  0  0  0  0  0  0
  130.6320  123.4080   61.1020 C   0  0  0  0  0  0  0  0  0  0  0  0
  129.2830  123.1640   60.7970 C   0  0  0  0  0  0  0  0  0  0  0  0
  128.7190  122.5050   59.6150 C   0  0  0  0  0  0  0  0  0  0  0  0
  128.2430  121.3700   59.6950 O   0  0  0  0  0  0  0  0  0  0  0  0
  128.7760  123.2210   58.4650 N   0  0  0  0  0  0  0  0  0  0  0  0
  128.3220  122.8400   57.2080 C   0  0  0  0  0  0  0  0  0  0  0  0
  128.6320  123.5380   56.0420 C   0  0  0  0  0  0  0  0  0  0  0  0
  128.0010  122.8490   55.0330 C   0  0  0  0  0  0  0  0  0  0  0  0
  127.3440  121.7900   55.5640 O   0  0  0  0  0  0  0  0  0  0  0  0
  127.5550  121.7960   56.9440 N   0  0  0  0  0  0  0  0  0  0  0  0
  128.2240  123.7450   62.0790 S   0  0  0  0  0  0  0  0  0  0  0  0
  129.5890  124.3180   63.0090 C   0  0  0  0  0  0  0  0  0  0  0  0
  129.4270  124.9110   64.1890 N   0  0  0  0  0  0  0  0  0  0  0  0
  130.5480  125.3190   64.8400 C   0  0  0  0  0  0  0  0  0  0  0  0
  130.3320  125.9890   66.1670 C   0  0  0  0  0  0  0  0  0  0  0  0
  129.3780  125.5000   67.0740 C   0  0  0  0  0  0  0  0  0  0  0  0
  129.1750  126.1160   68.3070 C   0  0  0  0  0  0  0  0  0  0  0  0
  129.9250  127.2360   68.6500 C   0  0  0  0  0  0  0  0  0  0  0  0
  130.8730  127.7440   67.7690 C   0  0  0  0  0  0  0  0  0  0  0  0
  131.0720  127.1260   66.5380 C   0  0  0  0  0  0  0  0  0  0  0  0
  131.8230  125.1450   64.2920 C   0  0  0  0  0  0  0  0  0  0  0  0
  132.0060  124.5210   63.0480 C   0  0  0  0  0  0  0  0  0  0  0  0
  133.4320  124.3630   62.5080 C   0  0  0  0  0  0  0  0  0  0  0  0
  134.3220  125.1210   63.1510 F   0  0  0  0  0  0  0  0  0  0  0  0
  133.8220  123.0950   62.6350 F   0  0  0  0  0  0  0  0  0  0  0  0
  133.4680  124.7090   61.2210 F   0  0  0  0  0  0  0  0  0  0  0  0
  130.8380  124.0780   62.3640 C   0  0  0  0  0  0  0  0  0  0  0  0
  1  2  1  0
  2  3  2  0
  3  4  1  0
  4  5  2  0
  4  6  1  0
  6  7  1  0
  7  8  1  0
  8  9  2  0
  9 10  1  0
 10 11  1  0
  3 12  1  0
 12 13  1  0
 13 14  2  0
 14 15  1  0
 15 16  1  0
 16 17  2  0
 17 18  1  0
 18 19  2  0
 19 20  1  0
 20 21  2  0
 15 22  2  0
 22 23  1  0
 23 24  1  0
 24 25  1  0
 24 26  1  0
 24 27  1  0
 23 28  2  0
 28  2  1  0
 11  7  2  0
 28 13  1  0
 21 16  1  0
M  END
>  <Binding energies>  (35) 
[-7.53]

>  <Ligand effiencies>  (35) 
[-0.24290322580645163]

>  <Interactions>  (35) 
["V-A:GLU:543:CD:4905, V-B:TYR:539:CE2:9845, V-B:TYR:539:CE1:9844, V-B:GLU:543:CD:9877, V-A:HIS:456:CE1:4066, V-B:TYR:539:CZ:9846, V-A:GLU:543:CB:4903, V-B:TYR:539:CD1:9842, V-B:ALA:541:CB:9861, V-B:MET:535:CE:9804, V-B:TYR:539:CD2:9843, V-A:ASP:366:CG:3209, V-A:ASP:366:CB:3208, V-B:GLU:543:CG:9876, H-B:ALA:541:N:9860, V-B:GLU:543:CB:9875, H-B:TYR:539:OH:9847, V-A:ARG:545:CZ:4923, H-B:TYR:539:N:9839, V-B:ILE:538:CB:9831, V-B:ILE:538:CA:9829, V-B:ILE:538:CG2:9832, V-A:GLY:454:CA:4045, V-A:GLY:453:C:4038, V-A:GLY:453:CA:4040"]

$$$$
8a_Ghoteimi_2023
     RDKit          3D

 40 44  0  0  0  0  0  0  0  0999 V2000
  129.6020  123.2070   53.9040 C   0  0  0  0  0  0  0  0  0  0  0  0
  128.1840  122.7960   54.3090 C   0  0  0  0  0  0  0  0  0  0  0  0
  128.2290  122.1010   55.5480 O   0  0  0  0  0  0  0  0  0  0  0  0
  127.1910  122.1610   56.4240 C   0  0  0  0  0  0  0  0  0  0  0  0
  126.0590  121.7420   56.1660 O   0  0  0  0  0  0  0  0  0  0  0  0
  127.5570  122.7950   57.7350 C   0  0  0  0  0  0  0  0  0  0  0  0
  126.5620  122.9930   58.7000 C   0  0  0  0  0  0  0  0  0  0  0  0
  126.8700  123.5790   59.9250 C   0  0  0  0  0  0  0  0  0  0  0  0
  128.1760  123.9800   60.2110 C   0  0  0  0  0  0  0  0  0  0  0  0
  128.3680  124.5650   61.4780 N   0  0  0  0  0  0  0  0  0  0  0  0
  129.5110  124.8250   62.1600 C   0  0  0  0  0  0  0  0  0  0  0  0
  130.6400  124.5680   61.7440 O   0  0  0  0  0  0  0  0  0  0  0  0
  129.3270  125.4600   63.4680 C   0  0  0  0  0  0  0  0  0  0  0  0
  130.0550  124.7560   64.9110 S   0  0  0  0  0  0  0  0  0  0  0  0
  129.3850  126.0160   65.9210 C   0  0  0  0  0  0  0  0  0  0  0  0
  129.5770  126.0320   67.2400 N   0  0  0  0  0  0  0  0  0  0  0  0
  129.0070  127.0530   67.9340 C   0  0  0  0  0  0  0  0  0  0  0  0
  129.2180  127.0400   69.4140 C   0  0  0  0  0  0  0  0  0  0  0  0
  128.3560  126.3290   70.2610 C   0  0  0  0  0  0  0  0  0  0  0  0
  128.5510  126.3310   71.6390 C   0  0  0  0  0  0  0  0  0  0  0  0
  129.6100  127.0380   72.2050 C   0  0  0  0  0  0  0  0  0  0  0  0
  129.7240  126.9840   73.5810 O   0  0  0  0  0  0  0  0  0  0  0  0
  128.6160  127.3750   74.3840 C   0  0  0  0  0  0  0  0  0  0  0  0
  130.4810  127.7470   71.3660 C   0  0  0  0  0  0  0  0  0  0  0  0
  130.2830  127.7460   69.9870 C   0  0  0  0  0  0  0  0  0  0  0  0
  128.2590  128.0530   67.3090 C   0  0  0  0  0  0  0  0  0  0  0  0
  128.0690  128.0500   65.9230 C   0  0  0  0  0  0  0  0  0  0  0  0
  127.2920  129.1550   65.3060 C   0  0  0  0  0  0  0  0  0  0  0  0
  125.9860  128.9340   64.8640 C   0  0  0  0  0  0  0  0  0  0  0  0
  125.2470  129.9720   64.3050 C   0  0  0  0  0  0  0  0  0  0  0  0
  125.7970  131.2490   64.1810 C   0  0  0  0  0  0  0  0  0  0  0  0
  124.9900  132.2160   63.6140 O   0  0  0  0  0  0  0  0  0  0  0  0
  124.6050  132.0870   62.2510 C   0  0  0  0  0  0  0  0  0  0  0  0
  127.1070  131.4740   64.6320 C   0  0  0  0  0  0  0  0  0  0  0  0
  127.8440  130.4340   65.1930 C   0  0  0  0  0  0  0  0  0  0  0  0
  128.6380  126.9770   65.1790 C   0  0  0  0  0  0  0  0  0  0  0  0
  128.6060  126.6240   63.7810 C   0  0  0  0  0  0  0  0  0  0  0  0
  127.9140  127.3590   62.8510 N   0  0  0  0  0  0  0  0  0  0  0  0
  129.1800  123.7810   59.2520 C   0  0  0  0  0  0  0  0  0  0  0  0
  128.8710  123.1940   58.0270 C   0  0  0  0  0  0  0  0  0  0  0  0
  1  2  1  0
  2  3  1  0
  3  4  1  0
  4  5  2  0
  4  6  1  0
  6  7  2  0
  7  8  1  0
  8  9  2  0
  9 10  1  0
 10 11  1  0
 11 12  2  0
 11 13  1  0
 13 14  1  0
 14 15  1  0
 15 16  2  0
 16 17  1  0
 17 18  1  0
 18 19  2  0
 19 20  1  0
 20 21  2  0
 21 22  1  0
 22 23  1  0
 21 24  1  0
 24 25  2  0
 17 26  2  0
 26 27  1  0
 27 28  1  0
 28 29  2  0
 29 30  1  0
 30 31  2  0
 31 32  1  0
 32 33  1  0
 31 34  1  0
 34 35  2  0
 27 36  2  0
 36 37  1  0
 37 38  1  0
  9 39  1  0
 39 40  2  0
 40  6  1  0
 37 13  2  0
 36 15  1  0
 25 18  1  0
 35 28  1  0
M  END
>  <Binding energies>  (36) 
[-10.8]

>  <Ligand effiencies>  (36) 
[-0.25116279069767444]

>  <Interactions>  (36) 
["V-A:GLU:543:CD:4905, V-A:GLU:543:CG:4904, V-B:TYR:539:CE2:9845, V-B:TYR:539:CE1:9844, V-B:PRO:540:CA:9852, V-B:TYR:484:CE1:9313, V-B:PRO:540:N:9853, V-B:TYR:539:C:9836, V-B:GLU:543:CD:9877, V-B:HIS:456:CE1:9038, V-A:HIS:456:CE1:4066, V-B:TYR:539:CZ:9846, V-A:GLU:543:CB:4903, V-B:TYR:539:CD1:9842, V-B:PRO:540:CB:9854, V-B:MET:535:CE:9804, V-B:GLU:543:CG:9876, H-B:GLU:543:OE2:9879, V-B:GLU:543:CB:9875, H-B:TYR:484:OH:9316, H-B:TYR:539:N:9839, V-B:ILE:538:CB:9831, V-B:ILE:538:CA:9829, V-B:ILE:538:CG2:9832, H-B:ASP:366:OD1:8182, V-B:PRO:540:CD:9856, H-A:GLU:543:OE2:4907, V-B:ARG:545:CZ:9895, H-B:GLU:543:OE1:9878, H-B:GLY:454:N:9018, V-A:HIS:456:CD2:4064, V-A:LYS:547:CE:4947, V-B:LYS:547:CE:9919, H-A:LYS:547:NZ:4948, V-A:GLY:544:C:4909"]

$$$$
8c_Ghoteimi_2023
     RDKit          3D

 34 38  0  0  0  0  0  0  0  0999 V2000
  124.0210  133.6770   62.0090 C   0  0  0  0  0  0  0  0  0  0  0  0
  124.1630  133.3430   63.3850 O   0  0  0  0  0  0  0  0  0  0  0  0
  124.9410  132.2570   63.7390 C   0  0  0  0  0  0  0  0  0  0  0  0
  126.2150  132.5360   64.2290 C   0  0  0  0  0  0  0  0  0  0  0  0
  127.0690  131.5040   64.6070 C   0  0  0  0  0  0  0  0  0  0  0  0
  126.6700  130.1640   64.5040 C   0  0  0  0  0  0  0  0  0  0  0  0
  127.5840  129.0500   64.9060 C   0  0  0  0  0  0  0  0  0  0  0  0
  127.8470  128.7590   66.2480 C   0  0  0  0  0  0  0  0  0  0  0  0
  128.7050  127.7100   66.5960 C   0  0  0  0  0  0  0  0  0  0  0  0
  128.9690  127.4340   68.0260 C   0  0  0  0  0  0  0  0  0  0  0  0
  130.0740  128.0060   68.6610 C   0  0  0  0  0  0  0  0  0  0  0  0
  130.3150  127.7530   70.0080 C   0  0  0  0  0  0  0  0  0  0  0  0
  129.4620  126.9250   70.7390 C   0  0  0  0  0  0  0  0  0  0  0  0
  129.7780  126.7320   72.0700 O   0  0  0  0  0  0  0  0  0  0  0  0
  129.7560  125.4150   72.6060 C   0  0  0  0  0  0  0  0  0  0  0  0
  128.3540  126.3470   70.0980 C   0  0  0  0  0  0  0  0  0  0  0  0
  128.1130  126.6010   68.7510 C   0  0  0  0  0  0  0  0  0  0  0  0
  129.2910  126.9510   65.5490 C   0  0  0  0  0  0  0  0  0  0  0  0
  130.1940  125.8300   65.5430 C   0  0  0  0  0  0  0  0  0  0  0  0
  130.6740  125.2670   66.6990 N   0  0  0  0  0  0  0  0  0  0  0  0
  130.5300  125.3760   64.2580 C   0  0  0  0  0  0  0  0  0  0  0  0
  131.4090  124.2670   63.8840 C   0  0  0  0  0  0  0  0  0  0  0  0
  131.5290  123.2830   64.6160 O   0  0  0  0  0  0  0  0  0  0  0  0
  132.0590  124.4130   62.7020 N   0  0  0  0  0  0  0  0  0  0  0  0
  132.9420  123.5150   62.1190 C   0  0  0  0  0  0  0  0  0  0  0  0
  134.2450  123.6380   61.9800 N   0  0  0  0  0  0  0  0  0  0  0  0
  134.7680  122.5880   61.3790 C   0  0  0  0  0  0  0  0  0  0  0  0
  133.8810  121.5810   61.0140 C   0  0  0  0  0  0  0  0  0  0  0  0
  132.2740  122.0450   61.4880 S   0  0  0  0  0  0  0  0  0  0  0  0
  129.7250  126.3330   63.0140 S   0  0  0  0  0  0  0  0  0  0  0  0
  128.9480  127.3330   64.2190 C   0  0  0  0  0  0  0  0  0  0  0  0
  128.1330  128.3340   63.8870 N   0  0  0  0  0  0  0  0  0  0  0  0
  125.3860  129.8910   64.0130 C   0  0  0  0  0  0  0  0  0  0  0  0
  124.5290  130.9200   63.6330 C   0  0  0  0  0  0  0  0  0  0  0  0
  1  2  1  0
  2  3  1  0
  3  4  2  0
  4  5  1  0
  5  6  2  0
  6  7  1  0
  7  8  2  0
  8  9  1  0
  9 10  1  0
 10 11  2  0
 11 12  1  0
 12 13  2  0
 13 14  1  0
 14 15  1  0
 13 16  1  0
 16 17  2  0
  9 18  2  0
 18 19  1  0
 19 20  1  0
 19 21  2  0
 21 22  1  0
 22 23  2  0
 22 24  1  0
 24 25  1  0
 25 26  2  0
 26 27  1  0
 27 28  2  0
 28 29  1  0
 21 30  1  0
 30 31  1  0
 31 32  2  0
  6 33  1  0
 33 34  2  0
 34  3  1  0
 32  7  1  0
 17 10  1  0
 31 18  1  0
 29 25  1  0
M  END
>  <Binding energies>  (37) 
[-8.68]

>  <Ligand effiencies>  (37) 
[-0.23459459459459459]

>  <Interactions>  (37) 
["V-B:TYR:484:CZ:9315, V-A:GLU:543:CD:4905, V-A:GLU:543:CG:4904, V-A:LEU:475:CD1:4254, V-B:TYR:539:CE2:9845, H-A:TYR:484:OH:4344, V-B:TYR:484:CE1:9313, V-B:GLU:543:CD:9877, V-B:HIS:456:CE1:9038, V-A:HIS:456:CE1:4066, V-A:GLU:543:CB:4903, V-B:LEU:475:CD2:9227, H-A:ASP:366:OD1:3210, V-B:GLU:543:CB:9875, V-A:TYR:484:CE1:4341, V-A:TYR:484:CZ:4343, V-B:ILE:369:CG2:8205, V-B:ILE:369:CD1:8207, H-A:GLY:454:N:4046, V-A:GLY:454:CA:4045, V-A:ILE:369:CG2:3233, V-A:ILE:369:CG1:3234, V-A:ILE:369:CB:3232, V-B:GLY:454:CA:9017, V-A:GLY:453:C:4038, V-B:ARG:545:CZ:9895, H-B:GLY:454:N:9018, H-A:ASP:366:OD2:3211, V-A:HIS:456:CD2:4064, V-A:GLU:543:C:4899, V-B:LYS:547:CE:9919, H-A:LYS:547:NZ:4948, H-A:HIS:456:NE2:4067"]

$$$$
8d_Ghoteimi_2023
     RDKit          3D

 30 33  0  0  0  0  0  0  0  0999 V2000
  132.9470  124.9070   64.6970 C   0  0  0  0  0  0  0  0  0  0  0  0
  132.2020  123.8880   64.0450 O   0  0  0  0  0  0  0  0  0  0  0  0
  130.9050  123.6550   64.3740 C   0  0  0  0  0  0  0  0  0  0  0  0
  130.3860  122.5360   64.3860 O   0  0  0  0  0  0  0  0  0  0  0  0
  130.1680  124.8900   64.7190 C   0  0  0  0  0  0  0  0  0  0  0  0
  129.3880  125.8340   63.4490 S   0  0  0  0  0  0  0  0  0  0  0  0
  128.8130  127.0020   64.6170 C   0  0  0  0  0  0  0  0  0  0  0  0
  128.0890  128.0620   64.2540 N   0  0  0  0  0  0  0  0  0  0  0  0
  127.6910  128.9070   65.2420 C   0  0  0  0  0  0  0  0  0  0  0  0
  126.8850  130.0890   64.8080 C   0  0  0  0  0  0  0  0  0  0  0  0
  125.5530  129.9460   64.3950 C   0  0  0  0  0  0  0  0  0  0  0  0
  124.8070  131.0500   63.9920 C   0  0  0  0  0  0  0  0  0  0  0  0
  125.3720  132.3250   63.9890 C   0  0  0  0  0  0  0  0  0  0  0  0
  124.5580  133.3600   63.5740 O   0  0  0  0  0  0  0  0  0  0  0  0
  124.1110  133.3930   62.2220 C   0  0  0  0  0  0  0  0  0  0  0  0
  126.7030  132.4800   64.4010 C   0  0  0  0  0  0  0  0  0  0  0  0
  127.4450  131.3730   64.8050 C   0  0  0  0  0  0  0  0  0  0  0  0
  128.0230  128.6950   66.5840 C   0  0  0  0  0  0  0  0  0  0  0  0
  128.7790  127.5820   66.9640 C   0  0  0  0  0  0  0  0  0  0  0  0
  129.1060  127.3800   68.3950 C   0  0  0  0  0  0  0  0  0  0  0  0
  130.2570  127.9540   68.9390 C   0  0  0  0  0  0  0  0  0  0  0  0
  130.5690  127.7580   70.2820 C   0  0  0  0  0  0  0  0  0  0  0  0
  129.7380  126.9910   71.0980 C   0  0  0  0  0  0  0  0  0  0  0  0
  130.1270  126.8490   72.4160 O   0  0  0  0  0  0  0  0  0  0  0  0
  130.1200  125.5550   73.0070 C   0  0  0  0  0  0  0  0  0  0  0  0
  128.5780  126.4180   70.5490 C   0  0  0  0  0  0  0  0  0  0  0  0
  128.2680  126.6150   69.2060 C   0  0  0  0  0  0  0  0  0  0  0  0
  129.2030  126.6850   65.9490 C   0  0  0  0  0  0  0  0  0  0  0  0
  129.9760  125.4730   65.9770 C   0  0  0  0  0  0  0  0  0  0  0  0
  130.4820  124.9460   67.1380 N   0  0  0  0  0  0  0  0  0  0  0  0
  1  2  1  0
  2  3  1  0
  3  4  2  0
  3  5  1  0
  5  6  1  0
  6  7  1  0
  7  8  2  0
  8  9  1  0
  9 10  1  0
 10 11  2  0
 11 12  1  0
 12 13  2  0
 13 14  1  0
 14 15  1  0
 13 16  1  0
 16 17  2  0
  9 18  2  0
 18 19  1  0
 19 20  1  0
 20 21  2  0
 21 22  1  0
 22 23  2  0
 23 24  1  0
 24 25  1  0
 23 26  1  0
 26 27  2  0
 19 28  2  0
 28 29  1  0
 29 30  1  0
 29  5  2  0
 28  7  1  0
 17 10  1  0
 27 20  1  0
M  END
>  <Binding energies>  (38) 
[-7.6]

>  <Ligand effiencies>  (38) 
[-0.2375]

>  <Interactions>  (38) 
["V-B:TYR:484:CZ:9315, V-A:GLU:543:CD:4905, V-A:GLU:543:CG:4904, H-A:TYR:484:OH:4344, V-B:TYR:484:CE1:9313, V-B:GLU:543:CD:9877, V-B:HIS:456:CE1:9038, V-A:HIS:456:CE1:4066, V-A:GLU:543:CB:4903, V-B:GLU:543:CG:9876, V-B:LEU:475:CD2:9227, V-B:GLU:543:CB:9875, V-A:TYR:484:CE1:4341, V-A:TYR:484:CZ:4343, V-B:ILE:369:CD1:8207, V-A:ARG:545:CZ:4923, V-B:GLY:454:CA:9017, H-B:GLY:454:N:9018, V-A:HIS:456:CD2:4064, V-A:GLU:543:C:4899, V-B:LYS:547:CE:9919, H-A:LYS:547:NZ:4948, V-A:GLY:544:C:4909, H-A:HIS:456:NE2:4067, H-B:GLU:543:O:9872"]

$$$$
9a_Ghoteimi_2023
     RDKit          3D

 48 54  0  0  0  0  0  0  0  0999 V2000
  129.6250  123.5140   52.9140 C   0  0  0  0  0  0  0  0  0  0  0  0
  128.4630  122.8860   53.6920 C   0  0  0  0  0  0  0  0  0  0  0  0
  128.7840  122.8540   55.0780 O   0  0  0  0  0  0  0  0  0  0  0  0
  127.8550  122.5060   56.0040 C   0  0  0  0  0  0  0  0  0  0  0  0
  126.8990  121.7610   55.7620 O   0  0  0  0  0  0  0  0  0  0  0  0
  128.1000  123.1210   57.3520 C   0  0  0  0  0  0  0  0  0  0  0  0
  127.1600  122.9290   58.3730 C   0  0  0  0  0  0  0  0  0  0  0  0
  127.3580  123.4880   59.6320 C   0  0  0  0  0  0  0  0  0  0  0  0
  128.4980  124.2470   59.8990 C   0  0  0  0  0  0  0  0  0  0  0  0
  128.5920  124.7630   61.2060 N   0  0  0  0  0  0  0  0  0  0  0  0
  129.6160  124.7240   62.0940 C   0  0  0  0  0  0  0  0  0  0  0  0
  130.7040  124.1920   61.8720 O   0  0  0  0  0  0  0  0  0  0  0  0
  129.3560  125.3810   63.3780 C   0  0  0  0  0  0  0  0  0  0  0  0
  129.7930  124.5830   64.8900 S   0  0  0  0  0  0  0  0  0  0  0  0
  129.2050  125.9370   65.8270 C   0  0  0  0  0  0  0  0  0  0  0  0
  129.2800  125.9520   67.1570 N   0  0  0  0  0  0  0  0  0  0  0  0
  128.8050  127.0570   67.7900 C   0  0  0  0  0  0  0  0  0  0  0  0
  128.9100  127.0570   69.2800 C   0  0  0  0  0  0  0  0  0  0  0  0
  127.9620  126.3840   70.0600 C   0  0  0  0  0  0  0  0  0  0  0  0
  128.0530  126.3770   71.4490 C   0  0  0  0  0  0  0  0  0  0  0  0
  129.1030  127.0320   72.1110 C   0  0  0  0  0  0  0  0  0  0  0  0
  129.1970  127.0500   73.5060 N   0  0  0  0  0  0  0  0  0  0  0  0
  128.1480  127.6680   74.3430 C   0  0  0  0  0  0  0  0  0  0  0  0
  128.5810  127.9170   75.8020 C   0  0  0  0  0  0  0  0  0  0  0  0
  129.0510  126.7120   76.3830 O   0  0  0  0  0  0  0  0  0  0  0  0
  130.1690  126.1960   75.6780 C   0  0  0  0  0  0  0  0  0  0  0  0
  129.7770  125.8920   74.2180 C   0  0  0  0  0  0  0  0  0  0  0  0
  130.0420  127.7170   71.3260 C   0  0  0  0  0  0  0  0  0  0  0  0
  129.9490  127.7260   69.9370 C   0  0  0  0  0  0  0  0  0  0  0  0
  128.2340  128.1260   67.0950 C   0  0  0  0  0  0  0  0  0  0  0  0
  128.1350  128.1060   65.7000 C   0  0  0  0  0  0  0  0  0  0  0  0
  127.4860  129.2530   65.0140 C   0  0  0  0  0  0  0  0  0  0  0  0
  127.8960  130.5630   65.2750 C   0  0  0  0  0  0  0  0  0  0  0  0
  127.2970  131.6340   64.6210 C   0  0  0  0  0  0  0  0  0  0  0  0
  126.2820  131.4240   63.6740 C   0  0  0  0  0  0  0  0  0  0  0  0
  125.6570  132.4850   63.0130 N   0  0  0  0  0  0  0  0  0  0  0  0
  124.1820  132.5330   62.9630 C   0  0  0  0  0  0  0  0  0  0  0  0
  123.6300  133.9150   62.5530 C   0  0  0  0  0  0  0  0  0  0  0  0
  124.1920  134.3150   61.3130 O   0  0  0  0  0  0  0  0  0  0  0  0
  125.6060  134.4140   61.3860 C   0  0  0  0  0  0  0  0  0  0  0  0
  126.2110  133.0460   61.7650 C   0  0  0  0  0  0  0  0  0  0  0  0
  125.8800  130.1050   63.4180 C   0  0  0  0  0  0  0  0  0  0  0  0
  126.4770  129.0340   64.0750 C   0  0  0  0  0  0  0  0  0  0  0  0
  128.6600  126.9730   65.0140 C   0  0  0  0  0  0  0  0  0  0  0  0
  128.7810  126.6380   63.6160 C   0  0  0  0  0  0  0  0  0  0  0  0
  128.3810  127.4880   62.6170 N   0  0  0  0  0  0  0  0  0  0  0  0
  129.4470  124.4420   58.8830 C   0  0  0  0  0  0  0  0  0  0  0  0
  129.2470  123.8830   57.6230 C   0  0  0  0  0  0  0  0  0  0  0  0
  1  2  1  0
  2  3  1  0
  3  4  1  0
  4  5  2  0
  4  6  1  0
  6  7  2  0
  7  8  1  0
  8  9  2  0
  9 10  1  0
 10 11  1  0
 11 12  2  0
 11 13  1  0
 13 14  1  0
 14 15  1  0
 15 16  2  0
 16 17  1  0
 17 18  1  0
 18 19  2  0
 19 20  1  0
 20 21  2  0
 21 22  1  0
 22 23  1  0
 23 24  1  0
 24 25  1  0
 25 26  1  0
 26 27  1  0
 21 28  1  0
 28 29  2  0
 17 30  2  0
 30 31  1  0
 31 32  1  0
 32 33  2  0
 33 34  1  0
 34 35  2  0
 35 36  1  0
 36 37  1  0
 37 38  1  0
 38 39  1  0
 39 40  1  0
 40 41  1  0
 35 42  1  0
 42 43  2  0
 31 44  2  0
 44 45  1  0
 45 46  1  0
  9 47  1  0
 47 48  2  0
 48  6  1  0
 45 13  2  0
 44 15  1  0
 29 18  1  0
 43 32  1  0
 27 22  1  0
 41 36  1  0
M  END
>  <Binding energies>  (39) 
[-11.03]

>  <Ligand effiencies>  (39) 
[-0.21627450980392154]

>  <Interactions>  (39) 
["V-A:GLU:543:CD:4905, V-A:GLU:543:CG:4904, V-B:TYR:539:CE2:9845, V-B:TYR:539:CE1:9844, V-B:PRO:540:CA:9852, V-B:TYR:484:CE1:9313, V-B:PRO:540:N:9853, V-B:GLU:543:CD:9877, V-B:HIS:456:CE1:9038, V-A:HIS:456:CE1:4066, V-B:TYR:539:CZ:9846, V-A:GLU:543:CB:4903, V-B:TYR:539:CD1:9842, V-B:MET:535:CE:9804, V-B:GLU:543:CG:9876, V-B:LEU:475:CD2:9227, H-B:GLU:543:OE2:9879, V-B:GLU:543:CB:9875, V-B:GLU:543:C:9871, V-B:ILE:369:CD1:8207, H-B:TYR:539:N:9839, V-B:ILE:538:CB:9831, V-B:ILE:538:CA:9829, V-B:ILE:538:CG2:9832, V-A:MET:535:CE:4832, H-A:GLU:543:OE2:4907, V-B:GLY:454:CA:9017, V-B:VAL:537:C:9819, V-B:MET:535:CB:9801, V-A:LYS:547:CE:4947, V-B:GLY:544:C:9881, V-B:LYS:547:CE:9919"]

$$$$
9b_Ghoteimi_2023
     RDKit          3D

 42 48  0  0  0  0  0  0  0  0999 V2000
  129.2270  127.9080   62.9600 N   0  0  0  0  0  0  0  0  0  0  0  0
  128.6060  128.3020   64.1180 C   0  0  0  0  0  0  0  0  0  0  0  0
  127.6200  129.3010   64.1650 C   0  0  0  0  0  0  0  0  0  0  0  0
  127.0520  130.0770   63.0600 C   0  0  0  0  0  0  0  0  0  0  0  0
  125.9020  129.8650   62.6690 O   0  0  0  0  0  0  0  0  0  0  0  0
  127.8740  131.0110   62.5200 N   0  0  0  0  0  0  0  0  0  0  0  0
  127.6020  131.8710   61.4650 C   0  0  0  0  0  0  0  0  0  0  0  0
  126.9580  131.4630   60.2970 C   0  0  0  0  0  0  0  0  0  0  0  0
  126.8780  132.5950   59.5190 C   0  0  0  0  0  0  0  0  0  0  0  0
  127.4440  133.6310   60.1840 O   0  0  0  0  0  0  0  0  0  0  0  0
  127.8990  133.1590   61.4150 N   0  0  0  0  0  0  0  0  0  0  0  0
  127.0660  129.5720   65.8170 S   0  0  0  0  0  0  0  0  0  0  0  0
  128.1670  128.3630   66.4330 C   0  0  0  0  0  0  0  0  0  0  0  0
  128.2520  128.0950   67.7350 N   0  0  0  0  0  0  0  0  0  0  0  0
  129.1530  127.1500   68.1130 C   0  0  0  0  0  0  0  0  0  0  0  0
  129.2420  126.8830   69.5800 C   0  0  0  0  0  0  0  0  0  0  0  0
  128.4460  125.9050   70.1880 C   0  0  0  0  0  0  0  0  0  0  0  0
  128.5230  125.6710   71.5580 C   0  0  0  0  0  0  0  0  0  0  0  0
  129.3890  126.4160   72.3730 C   0  0  0  0  0  0  0  0  0  0  0  0
  129.4800  126.1890   73.7510 N   0  0  0  0  0  0  0  0  0  0  0  0
  128.9950  127.1850   74.7270 C   0  0  0  0  0  0  0  0  0  0  0  0
  128.8550  126.6350   76.1610 C   0  0  0  0  0  0  0  0  0  0  0  0
  130.0820  126.0650   76.5850 O   0  0  0  0  0  0  0  0  0  0  0  0
  130.4730  124.9900   75.7470 C   0  0  0  0  0  0  0  0  0  0  0  0
  130.6600  125.4870   74.2970 C   0  0  0  0  0  0  0  0  0  0  0  0
  130.1990  127.3800   71.7550 C   0  0  0  0  0  0  0  0  0  0  0  0
  130.1250  127.6110   70.3850 C   0  0  0  0  0  0  0  0  0  0  0  0
  129.9430  126.4610   67.1890 C   0  0  0  0  0  0  0  0  0  0  0  0
  129.8420  126.7250   65.8180 C   0  0  0  0  0  0  0  0  0  0  0  0
  130.6830  125.9440   64.8760 C   0  0  0  0  0  0  0  0  0  0  0  0
  132.0740  125.9970   64.9620 C   0  0  0  0  0  0  0  0  0  0  0  0
  132.8640  125.2520   64.0930 C   0  0  0  0  0  0  0  0  0  0  0  0
  132.2840  124.4320   63.1120 C   0  0  0  0  0  0  0  0  0  0  0  0
  133.0580  123.6630   62.2390 N   0  0  0  0  0  0  0  0  0  0  0  0
  133.0860  122.1960   62.4000 C   0  0  0  0  0  0  0  0  0  0  0  0
  134.2600  121.5260   61.6550 C   0  0  0  0  0  0  0  0  0  0  0  0
  134.2290  121.8790   60.2810 O   0  0  0  0  0  0  0  0  0  0  0  0
  134.3350  123.2830   60.0960 C   0  0  0  0  0  0  0  0  0  0  0  0
  133.1670  124.0000   60.8060 C   0  0  0  0  0  0  0  0  0  0  0  0
  130.8840  124.3720   63.0470 C   0  0  0  0  0  0  0  0  0  0  0  0
  130.0940  125.1190   63.9170 C   0  0  0  0  0  0  0  0  0  0  0  0
  128.9300  127.7360   65.4040 C   0  0  0  0  0  0  0  0  0  0  0  0
  1  2  1  0
  2  3  2  0
  3  4  1  0
  4  5  2  0
  4  6  1  0
  6  7  1  0
  7  8  1  0
  8  9  2  0
  9 10  1  0
 10 11  1  0
  3 12  1  0
 12 13  1  0
 13 14  2  0
 14 15  1  0
 15 16  1  0
 16 17  2  0
 17 18  1  0
 18 19  2  0
 19 20  1  0
 20 21  1  0
 21 22  1  0
 22 23  1  0
 23 24  1  0
 24 25  1  0
 19 26  1  0
 26 27  2  0
 15 28  2  0
 28 29  1  0
 29 30  1  0
 30 31  2  0
 31 32  1  0
 32 33  2  0
 33 34  1  0
 34 35  1  0
 35 36  1  0
 36 37  1  0
 37 38  1  0
 38 39  1  0
 33 40  1  0
 40 41  2  0
 29 42  2  0
 42  2  1  0
 11  7  2  0
 42 13  1  0
 27 16  1  0
 41 30  1  0
 25 20  1  0
 39 34  1  0
M  END
>  <Binding energies>  (40) 
[-9.55]

>  <Ligand effiencies>  (40) 
[-0.21222222222222223]

>  <Interactions>  (40) 
["V-A:GLU:543:CD:4905, V-A:LEU:475:CD1:4254, V-B:GLU:543:CD:9877, V-B:HIS:456:CE1:9038, V-A:HIS:456:CE1:4066, V-A:TYR:539:CD2:4871, V-A:ASP:366:CG:3209, V-A:TYR:539:CE2:4873, V-B:GLU:543:C:9871, H-B:TYR:539:OH:9847, V-A:ARG:545:CZ:4923, V-A:GLY:454:CA:4045, V-A:ILE:369:CG2:3233, V-A:ILE:369:CG1:3234, V-A:ASP:366:CA:3206, V-A:ILE:369:CB:3232, H-A:GLU:543:OE2:4907, H-A:GLU:543:OE1:4906, V-B:LYS:547:CD:9918, V-A:HIS:456:CD2:4064, V-A:LYS:547:CE:4947, V-B:LYS:547:CE:9919"]

$$$$
9c_Ghoteimi_2023
     RDKit          3D

 42 48  0  0  0  0  0  0  0  0999 V2000
  129.2260  127.8870   62.9870 N   0  0  0  0  0  0  0  0  0  0  0  0
  128.6110  128.3000   64.1410 C   0  0  0  0  0  0  0  0  0  0  0  0
  127.6290  129.3030   64.1780 C   0  0  0  0  0  0  0  0  0  0  0  0
  127.0640  130.0690   63.0630 C   0  0  0  0  0  0  0  0  0  0  0  0
  125.9220  129.8420   62.6560 O   0  0  0  0  0  0  0  0  0  0  0  0
  127.8800  131.0120   62.5320 N   0  0  0  0  0  0  0  0  0  0  0  0
  127.5970  131.8580   61.4680 C   0  0  0  0  0  0  0  0  0  0  0  0
  127.6570  131.5870   60.1820 N   0  0  0  0  0  0  0  0  0  0  0  0
  127.3230  132.6330   59.4510 C   0  0  0  0  0  0  0  0  0  0  0  0
  126.9830  133.7890   60.1480 C   0  0  0  0  0  0  0  0  0  0  0  0
  127.1090  133.4770   61.8530 S   0  0  0  0  0  0  0  0  0  0  0  0
  127.0810  129.5980   65.8270 S   0  0  0  0  0  0  0  0  0  0  0  0
  128.1790  128.3940   66.4570 C   0  0  0  0  0  0  0  0  0  0  0  0
  128.2650  128.1410   67.7620 N   0  0  0  0  0  0  0  0  0  0  0  0
  129.1620  127.1980   68.1490 C   0  0  0  0  0  0  0  0  0  0  0  0
  129.2540  126.9500   69.6200 C   0  0  0  0  0  0  0  0  0  0  0  0
  130.2430  127.5620   70.3980 C   0  0  0  0  0  0  0  0  0  0  0  0
  130.3300  127.3210   71.7660 C   0  0  0  0  0  0  0  0  0  0  0  0
  129.4350  126.4470   72.4050 C   0  0  0  0  0  0  0  0  0  0  0  0
  129.5050  126.1990   73.7810 N   0  0  0  0  0  0  0  0  0  0  0  0
  128.9970  127.1770   74.7650 C   0  0  0  0  0  0  0  0  0  0  0  0
  128.8310  126.6020   76.1870 C   0  0  0  0  0  0  0  0  0  0  0  0
  130.0560  126.0330   76.6240 O   0  0  0  0  0  0  0  0  0  0  0  0
  130.4670  124.9740   75.7760 C   0  0  0  0  0  0  0  0  0  0  0  0
  130.6790  125.4950   74.3380 C   0  0  0  0  0  0  0  0  0  0  0  0
  128.4340  125.8520   71.6240 C   0  0  0  0  0  0  0  0  0  0  0  0
  128.3460  126.0970   70.2570 C   0  0  0  0  0  0  0  0  0  0  0  0
  129.9470  126.4930   67.2330 C   0  0  0  0  0  0  0  0  0  0  0  0
  129.8440  126.7390   65.8600 C   0  0  0  0  0  0  0  0  0  0  0  0
  130.6760  125.9420   64.9250 C   0  0  0  0  0  0  0  0  0  0  0  0
  132.0690  126.0260   64.9740 C   0  0  0  0  0  0  0  0  0  0  0  0
  132.8540  125.2670   64.1100 C   0  0  0  0  0  0  0  0  0  0  0  0
  132.2660  124.4050   63.1720 C   0  0  0  0  0  0  0  0  0  0  0  0
  133.0340  123.6250   62.3030 N   0  0  0  0  0  0  0  0  0  0  0  0
  133.0410  122.1580   62.4670 C   0  0  0  0  0  0  0  0  0  0  0  0
  134.2040  121.4670   61.7220 C   0  0  0  0  0  0  0  0  0  0  0  0
  134.1770  121.8180   60.3470 O   0  0  0  0  0  0  0  0  0  0  0  0
  134.3060  123.2190   60.1610 C   0  0  0  0  0  0  0  0  0  0  0  0
  133.1490  123.9570   60.8690 C   0  0  0  0  0  0  0  0  0  0  0  0
  130.8660  124.3130   63.1450 C   0  0  0  0  0  0  0  0  0  0  0  0
  130.0810  125.0720   64.0090 C   0  0  0  0  0  0  0  0  0  0  0  0
  128.9350  127.7490   65.4330 C   0  0  0  0  0  0  0  0  0  0  0  0
  1  2  1  0
  2  3  2  0
  3  4  1  0
  4  5  2  0
  4  6  1  0
  6  7  1  0
  7  8  2  0
  8  9  1  0
  9 10  2  0
 10 11  1  0
  3 12  1  0
 12 13  1  0
 13 14  2  0
 14 15  1  0
 15 16  1  0
 16 17  2  0
 17 18  1  0
 18 19  2  0
 19 20  1  0
 20 21  1  0
 21 22  1  0
 22 23  1  0
 23 24  1  0
 24 25  1  0
 19 26  1  0
 26 27  2  0
 15 28  2  0
 28 29  1  0
 29 30  1  0
 30 31  2  0
 31 32  1  0
 32 33  2  0
 33 34  1  0
 34 35  1  0
 35 36  1  0
 36 37  1  0
 37 38  1  0
 38 39  1  0
 33 40  1  0
 40 41  2  0
 29 42  2  0
 42  2  1  0
 11  7  1  0
 42 13  1  0
 27 16  1  0
 41 30  1  0
 25 20  1  0
 39 34  1  0
M  END
>  <Binding energies>  (41) 
[-9.69]

>  <Ligand effiencies>  (41) 
[-0.21533333333333332]

>  <Interactions>  (41) 
["V-A:GLU:543:CD:4905, V-A:LEU:475:CD1:4254, V-B:GLU:543:CD:9877, V-B:HIS:456:CE1:9038, V-A:HIS:456:CE1:4066, V-A:TYR:539:CD2:4871, V-A:ASP:366:CG:3209, V-A:TYR:539:CE2:4873, V-B:LEU:475:CD2:9227, V-A:ALA:541:CB:4889, V-B:GLU:543:C:9871, H-B:TYR:539:OH:9847, V-A:ARG:545:CZ:4923, V-A:GLY:454:CA:4045, V-A:ILE:369:CG2:3233, V-A:ILE:369:CG1:3234, V-A:ASP:366:CA:3206, V-A:ILE:369:CB:3232, H-A:GLU:543:OE2:4907, H-A:GLU:543:OE1:4906, V-B:LYS:547:CD:9918, V-A:HIS:456:CD2:4064, V-A:LYS:547:CE:4947, V-B:GLY:544:C:9881, V-B:LYS:547:CE:9919"]

$$$$
RR11_Rahimova_2017
     RDKit          3D

 33 38  0  0  0  0  0  0  0  0999 V2000
  134.1690  121.6950   60.6870 N   0  0  0  0  0  0  0  0  0  0  0  0
  133.4270  122.5020   61.5470 C   0  0  0  0  0  0  0  0  0  0  0  0
  133.9220  123.7490   61.9280 C   0  0  0  0  0  0  0  0  0  0  0  0
  133.1790  124.5550   62.7850 C   0  0  0  0  0  0  0  0  0  0  0  0
  131.9360  124.1250   63.2690 C   0  0  0  0  0  0  0  0  0  0  0  0
  131.1350  124.9970   64.1880 C   0  0  0  0  0  0  0  0  0  0  0  0
  130.6140  126.1560   63.8470 N   0  0  0  0  0  0  0  0  0  0  0  0
  129.9610  126.6040   64.9660 C   0  0  0  0  0  0  0  0  0  0  0  0
  129.2300  127.7840   65.1510 C   0  0  0  0  0  0  0  0  0  0  0  0
  128.6340  128.0090   66.3980 C   0  0  0  0  0  0  0  0  0  0  0  0
  127.8370  129.2860   66.6310 C   0  0  0  0  0  0  0  0  0  0  0  0
  127.5050  130.0220   65.3410 C   0  0  0  0  0  0  0  0  0  0  0  0
  127.8590  131.3700   65.2060 C   0  0  0  0  0  0  0  0  0  0  0  0
  127.5840  132.0850   64.0390 C   0  0  0  0  0  0  0  0  0  0  0  0
  126.9430  131.4150   62.9890 C   0  0  0  0  0  0  0  0  0  0  0  0
  126.5620  131.8890   61.7610 N   0  0  0  0  0  0  0  0  0  0  0  0
  125.9990  130.8660   61.1530 C   0  0  0  0  0  0  0  0  0  0  0  0
  125.4100  130.9180   59.7730 C   0  0  0  0  0  0  0  0  0  0  0  0
  126.1260  130.4240   58.6750 C   0  0  0  0  0  0  0  0  0  0  0  0
  125.5840  130.4820   57.3940 C   0  0  0  0  0  0  0  0  0  0  0  0
  124.3200  131.0350   57.2010 C   0  0  0  0  0  0  0  0  0  0  0  0
  123.7780  131.0970   55.9180 N   0  0  0  0  0  0  0  0  0  0  0  0
  123.5950  131.5260   58.2830 C   0  0  0  0  0  0  0  0  0  0  0  0
  124.1380  131.4680   59.5640 C   0  0  0  0  0  0  0  0  0  0  0  0
  126.0040  129.7330   61.9380 N   0  0  0  0  0  0  0  0  0  0  0  0
  126.6030  130.0490   63.1350 C   0  0  0  0  0  0  0  0  0  0  0  0
  126.8800  129.3260   64.2980 C   0  0  0  0  0  0  0  0  0  0  0  0
  128.7900  127.0880   67.4400 C   0  0  0  0  0  0  0  0  0  0  0  0
  129.5170  125.9050   67.2880 C   0  0  0  0  0  0  0  0  0  0  0  0
  130.0920  125.6850   66.0340 C   0  0  0  0  0  0  0  0  0  0  0  0
  130.8520  124.6710   65.4990 N   0  0  0  0  0  0  0  0  0  0  0  0
  131.4520  122.8690   62.8790 C   0  0  0  0  0  0  0  0  0  0  0  0
  132.1930  122.0600   62.0210 C   0  0  0  0  0  0  0  0  0  0  0  0
  1  2  1  0
  2  3  2  0
  3  4  1  0
  4  5  2  0
  5  6  1  0
  6  7  2  0
  7  8  1  0
  8  9  2  0
  9 10  1  0
 10 11  1  0
 11 12  1  0
 12 13  2  0
 13 14  1  0
 14 15  2  0
 15 16  1  0
 16 17  2  0
 17 18  1  0
 18 19  2  0
 19 20  1  0
 20 21  2  0
 21 22  1  0
 21 23  1  0
 23 24  2  0
 17 25  1  0
 25 26  1  0
 26 27  2  0
 10 28  2  0
 28 29  1  0
 29 30  2  0
 30 31  1  0
  5 32  1  0
 32 33  2  0
 33  2  1  0
 31  6  1  0
 30  8  1  0
 27 12  1  0
 26 15  1  0
 24 18  1  0
M  END
>  <Binding energies>  (42) 
[-9.09]

>  <Ligand effiencies>  (42) 
[-0.23307692307692307]

>  <Interactions>  (42) 
["V-B:TYR:484:CZ:9315, V-A:GLU:543:CD:4905, V-A:GLU:543:CG:4904, V-A:LEU:475:CD1:4254, V-B:TYR:539:CE2:9845, H-A:TYR:484:OH:4344, V-B:TYR:484:CE1:9313, V-B:HIS:456:CE1:9038, H-B:TYR:531:OH:9764, V-A:HIS:456:CE1:4066, V-A:GLU:543:CB:4903, V-A:TYR:539:CE2:4873, V-A:ALA:541:CB:4889, V-B:GLU:543:CB:9875, V-A:TYR:484:CE1:4341, V-A:TYR:484:CZ:4343, V-B:ILE:369:CG2:8205, V-A:TYR:539:CZ:4874, V-B:ILE:369:CD1:8207, V-B:ASP:366:CB:8180, H-B:TYR:539:OH:9847, V-A:ARG:545:CZ:4923, V-B:ASP:366:CG:8181, V-B:TYR:531:CE1:9761, H-A:TYR:539:OH:4875, V-B:ASP:366:C:8176, V-B:ASP:366:CA:8178, V-B:TYR:531:CZ:9763, V-A:GLY:454:CA:4045, H-B:ASP:366:OD1:8182, V-B:ILE:369:CB:8204, V-A:ILE:369:CG2:3233, V-A:ILE:369:CG1:3234, V-A:ILE:369:CB:3232, H-B:ASP:366:OD2:8183, H-B:ASP:366:O:8177, V-B:ASN:370:CB:8213, V-B:ASN:370:CA:8211, H-A:SER:385:O:3402"]

$$$$
RR16_Rahimova_2017
     RDKit          3D

 44 49  0  0  0  0  0  0  0  0999 V2000
  133.0770  122.8350   64.1950 O   0  0  0  0  0  0  0  0  0  0  0  0
  132.7080  124.1640   63.6940 S   0  0  0  0  0  0  0  0  0  0  0  0
  133.7360  125.1210   63.2700 O   0  0  0  0  0  0  0  0  0  0  0  0
  131.7130  124.9400   64.9280 N   0  0  0  0  0  0  0  0  0  0  0  0
  130.2930  125.2730   64.6630 C   0  0  0  0  0  0  0  0  0  0  0  0
  129.4100  124.6650   65.7840 C   0  0  0  0  0  0  0  0  0  0  0  0
  129.8930  124.8390   67.2370 C   0  0  0  0  0  0  0  0  0  0  0  0
  129.5560  126.2100   67.8470 C   0  0  0  0  0  0  0  0  0  0  0  0
  129.9620  127.4360   67.0080 C   0  0  0  0  0  0  0  0  0  0  0  0
  129.3910  127.5330   65.5800 C   0  0  0  0  0  0  0  0  0  0  0  0
  130.1760  126.8030   64.4720 C   0  0  0  0  0  0  0  0  0  0  0  0
  131.5930  123.9080   62.3190 C   0  0  0  0  0  0  0  0  0  0  0  0
  131.7250  124.6670   61.1540 C   0  0  0  0  0  0  0  0  0  0  0  0
  130.7780  124.5450   60.1410 C   0  0  0  0  0  0  0  0  0  0  0  0
  129.7050  123.6650   60.2970 C   0  0  0  0  0  0  0  0  0  0  0  0
  128.4100  123.6090   59.0590 S   0  0  0  0  0  0  0  0  0  0  0  0
  127.1260  123.5550   59.7700 O   0  0  0  0  0  0  0  0  0  0  0  0
  128.7690  122.5620   58.0950 O   0  0  0  0  0  0  0  0  0  0  0  0
  128.5260  125.1780   58.2390 N   0  0  0  0  0  0  0  0  0  0  0  0
  129.5870  125.2530   57.2010 C   0  0  0  0  0  0  0  0  0  0  0  0
  129.8210  126.7160   56.7720 C   0  0  0  0  0  0  0  0  0  0  0  0
  128.5020  127.4060   56.3410 C   0  0  0  0  0  0  0  0  0  0  0  0
  128.7050  128.8730   55.9560 C   0  0  0  0  0  0  0  0  0  0  0  0
  127.6760  129.5710   55.3080 C   0  0  0  0  0  0  0  0  0  0  0  0
  127.8150  130.9120   54.9460 C   0  0  0  0  0  0  0  0  0  0  0  0
  126.7960  131.5800   54.3160 O   0  0  0  0  0  0  0  0  0  0  0  0
  129.0230  131.5580   55.2490 C   0  0  0  0  0  0  0  0  0  0  0  0
  129.4300  132.8440   55.0360 N   0  0  0  0  0  0  0  0  0  0  0  0
  130.7000  132.9680   55.5550 N   0  0  0  0  0  0  0  0  0  0  0  0
  131.0820  131.7690   56.0370 N   0  0  0  0  0  0  0  0  0  0  0  0
  132.3580  131.6280   56.7260 C   0  0  0  0  0  0  0  0  0  0  0  0
  132.2000  131.4800   58.2320 C   0  0  0  0  0  0  0  0  0  0  0  0
  133.2900  131.0900   59.0180 C   0  0  0  0  0  0  0  0  0  0  0  0
  133.1530  130.9760   60.4020 C   0  0  0  0  0  0  0  0  0  0  0  0
  131.9270  131.2520   61.0070 C   0  0  0  0  0  0  0  0  0  0  0  0
  130.8370  131.6430   60.2300 C   0  0  0  0  0  0  0  0  0  0  0  0
  129.3210  131.9950   60.9770 Cl  0  0  0  0  0  0  0  0  0  0  0  0
  130.9720  131.7540   58.8440 C   0  0  0  0  0  0  0  0  0  0  0  0
  130.0600  130.8450   55.8950 C   0  0  0  0  0  0  0  0  0  0  0  0
  129.9230  129.5000   56.2550 C   0  0  0  0  0  0  0  0  0  0  0  0
  127.3680  127.2090   57.3800 C   0  0  0  0  0  0  0  0  0  0  0  0
  127.2200  125.7320   57.7980 C   0  0  0  0  0  0  0  0  0  0  0  0
  129.5980  122.8760   61.4440 C   0  0  0  0  0  0  0  0  0  0  0  0
  130.5420  123.0010   62.4580 C   0  0  0  0  0  0  0  0  0  0  0  0
  1  2  2  0
  2  3  2  0
  2  4  1  0
  4  5  1  0
  5  6  1  0
  6  7  1  0
  7  8  1  0
  8  9  1  0
  9 10  1  0
 10 11  1  0
  2 12  1  0
 12 13  2  0
 13 14  1  0
 14 15  2  0
 15 16  1  0
 16 17  2  0
 16 18  2  0
 16 19  1  0
 19 20  1  0
 20 21  1  0
 21 22  1  0
 22 23  1  0
 23 24  2  0
 24 25  1  0
 25 26  1  0
 25 27  2  0
 27 28  1  0
 28 29  2  0
 29 30  1  0
 30 31  1  0
 31 32  1  0
 32 33  2  0
 33 34  1  0
 34 35  2  0
 35 36  1  0
 36 37  1  0
 36 38  2  0
 30 39  1  0
 39 40  2  0
 22 41  1  0
 41 42  1  0
 15 43  1  0
 43 44  2  0
 11  5  1  0
 44 12  1  0
 42 19  1  0
 40 23  1  0
 39 27  1  0
 38 32  1  0
M  END
>  <Binding energies>  (43) 
[-11.7]

>  <Ligand effiencies>  (43) 
[-0.24375]

>  <Interactions>  (43) 
["V-A:GLU:543:CD:4905, V-B:TYR:539:CE2:9845, H-A:TYR:484:OH:4344, V-B:GLU:543:CD:9877, V-A:HIS:456:CE1:4066, V-A:GLU:543:CB:4903, V-B:ALA:541:CB:9861, V-B:MET:535:CE:9804, V-A:PRO:540:CA:4880, V-A:ASP:366:CG:3209, V-B:GLU:543:CG:9876, V-A:ALA:541:CB:4889, V-A:PRO:540:C:4878, V-B:GLU:543:CB:9875, V-A:PRO:540:N:4881, V-A:PRO:540:CB:4882, V-A:TYR:484:CE1:4341, V-A:TYR:484:CZ:4343, V-B:GLU:543:CA:9873, V-A:ILE:538:CD1:4862, H-A:TYR:539:N:4867, V-A:LEU:363:CD1:3185, H-A:GLY:454:N:4046, H-A:TYR:539:OH:4875, V-A:LEU:363:CA:3181, V-A:ASN:362:C:3168, V-A:ASN:362:CB:3172, H-B:LYS:534:NZ:9792, V-A:GLY:454:CA:4045, H-A:ARG:545:NH1:4924, H-A:ARG:545:NH2:4925"]

$$$$
RR18_Rahimova_2017
     RDKit          3D

 36 41  0  0  0  0  0  0  0  0999 V2000
  133.0650  131.3540   57.5120 C   0  0  0  0  0  0  0  0  0  0  0  0
  132.1600  130.6000   58.4540 C   0  0  0  0  0  0  0  0  0  0  0  0
  131.6630  130.8490   59.7230 C   0  0  0  0  0  0  0  0  0  0  0  0
  130.8670  129.7570   60.0660 C   0  0  0  0  0  0  0  0  0  0  0  0
  130.9050  128.8800   58.9950 C   0  0  0  0  0  0  0  0  0  0  0  0
  130.2630  127.5240   58.7140 C   0  0  1  0  0  0  0  0  0  0  0  0
  130.6030  127.0160   57.2810 C   0  0  0  0  0  0  0  0  0  0  0  0
  130.1210  127.7380   56.1080 C   0  0  0  0  0  0  0  0  0  0  0  0
  130.1260  127.2300   54.9850 O   0  0  0  0  0  0  0  0  0  0  0  0
  129.6650  128.9840   56.3730 N   0  0  0  0  0  0  0  0  0  0  0  0
  129.1490  129.9710   55.5050 C   0  0  0  0  0  0  0  0  0  0  0  0
  128.8600  129.7360   54.1480 C   0  0  0  0  0  0  0  0  0  0  0  0
  128.3580  130.7560   53.3430 C   0  0  0  0  0  0  0  0  0  0  0  0
  128.1440  132.0240   53.8740 C   0  0  0  0  0  0  0  0  0  0  0  0
  128.4360  132.2750   55.2130 C   0  0  0  0  0  0  0  0  0  0  0  0
  128.9390  131.2610   56.0340 C   0  0  0  0  0  0  0  0  0  0  0  0
  129.2480  131.5880   57.4920 C   0  0  0  0  0  0  0  0  0  0  0  0
  131.4380  125.9520   57.1530 C   0  0  0  0  0  0  0  0  0  0  0  0
  131.9160  125.2100   58.1900 N   0  0  0  0  0  0  0  0  0  0  0  0
  131.5090  125.4540   59.3810 C   0  0  0  0  0  0  0  0  0  0  0  0
  131.9150  124.4960   60.7850 S   0  0  0  0  0  0  0  0  0  0  0  0
  130.9160  125.5360   61.8490 C   0  0  0  0  0  0  0  0  0  0  0  0
  130.7230  125.3960   63.2060 C   0  0  0  0  0  0  0  0  0  0  0  0
  131.3020  124.2520   63.9250 C   0  0  0  0  0  0  0  0  0  0  0  0
  132.0060  123.3320   63.5110 O   0  0  0  0  0  0  0  0  0  0  0  0
  130.9120  124.3430   65.2000 N   0  0  0  0  0  0  0  0  0  0  0  0
  130.1530  125.4470   65.4460 C   0  0  0  0  0  0  0  0  0  0  0  0
  129.5990  125.8500   66.6610 C   0  0  0  0  0  0  0  0  0  0  0  0
  128.8760  127.0380   66.7080 C   0  0  0  0  0  0  0  0  0  0  0  0
  128.7270  127.8020   65.5520 C   0  0  0  0  0  0  0  0  0  0  0  0
  129.2910  127.3760   64.3460 C   0  0  0  0  0  0  0  0  0  0  0  0
  130.0070  126.1660   64.2730 C   0  0  0  0  0  0  0  0  0  0  0  0
  130.3100  126.5790   61.0210 C   0  0  0  0  0  0  0  0  0  0  0  0
  129.5220  127.4420   61.3950 O   0  0  0  0  0  0  0  0  0  0  0  0
  130.7000  126.4910   59.7200 N   0  0  0  0  0  0  0  0  0  0  0  0
  131.6950  129.4000   58.0180 O   0  0  0  0  0  0  0  0  0  0  0  0
  1  2  1  0
  2  3  2  0
  3  4  1  0
  4  5  2  0
  6  5  1  1
  6  7  1  0
  7  8  1  0
  8  9  2  0
  8 10  1  0
 10 11  1  0
 11 12  2  0
 12 13  1  0
 13 14  2  0
 14 15  1  0
 15 16  2  0
 16 17  1  0
  7 18  2  0
 18 19  1  0
 19 20  2  0
 20 21  1  0
 21 22  1  0
 22 23  2  0
 23 24  1  0
 24 25  2  0
 24 26  1  0
 26 27  1  0
 27 28  2  0
 28 29  1  0
 29 30  2  0
 30 31  1  0
 31 32  2  0
 22 33  1  0
 33 34  2  0
 33 35  1  0
  5 36  1  0
 36  2  1  0
 35  6  1  0
 16 11  1  0
 35 20  1  0
 32 23  1  0
 32 27  1  0
M  END
>  <Binding energies>  (44) 
[-9.39]

>  <Ligand effiencies>  (44) 
[-0.24710526315789474]

>  <Interactions>  (44) 
["V-A:GLU:543:CD:4905, H-A:TYR:484:OH:4344, V-B:GLU:543:CD:9877, V-A:HIS:456:CE1:4066, V-B:MET:535:CE:9804, V-A:PRO:540:CA:4880, V-A:TYR:539:CD2:4871, V-A:ASP:366:CG:3209, V-A:ASP:366:CB:3208, V-B:GLU:543:CG:9876, V-A:TYR:539:CE2:4873, H-A:TYR:531:OH:4792, V-B:GLU:543:CB:9875, V-A:PRO:540:CB:4882, V-A:TYR:484:CE1:4341, V-A:TYR:484:CZ:4343, V-A:ILE:538:CD1:4862, V-B:LYS:534:CE:9791, V-A:TYR:539:CZ:4874, V-A:LEU:363:CD1:3185, H-B:TYR:539:OH:9847, V-A:LEU:363:CA:3181, V-A:TYR:539:CE1:4872, V-A:LEU:363:CB:3183, V-A:MET:535:CE:4832"]

$$$$
RR20_Rahimova_2017
     RDKit          3D

 38 43  0  0  0  0  0  0  0  0999 V2000
  125.3040  130.7600   56.6350 C   0  0  0  0  0  0  0  0  0  0  0  0
  125.1230  131.0240   58.1190 C   0  0  0  0  0  0  0  0  0  0  0  0
  123.9030  131.5060   58.5950 C   0  0  0  0  0  0  0  0  0  0  0  0
  123.7320  131.7410   59.9560 C   0  0  0  0  0  0  0  0  0  0  0  0
  124.7830  131.5080   60.8520 C   0  0  0  0  0  0  0  0  0  0  0  0
  124.5690  131.7490   62.3300 C   0  0  0  0  0  0  0  0  0  0  0  0
  123.4070  131.8440   62.7310 O   0  0  0  0  0  0  0  0  0  0  0  0
  125.6520  131.8390   63.1560 N   0  0  0  0  0  0  0  0  0  0  0  0
  126.0560  133.1170   63.7640 C   0  0  0  0  0  0  0  0  0  0  0  0
  127.1880  132.7960   64.7250 C   0  0  0  0  0  0  0  0  0  0  0  0
  127.0890  131.3080   64.8720 C   0  0  0  0  0  0  0  0  0  0  0  0
  127.8200  130.4560   65.7000 C   0  0  0  0  0  0  0  0  0  0  0  0
  127.6990  129.0660   65.5780 C   0  0  0  0  0  0  0  0  0  0  0  0
  128.4790  128.1480   66.4770 C   0  0  0  0  0  0  0  0  0  0  0  0
  128.6910  128.5230   67.7290 N   0  0  0  0  0  0  0  0  0  0  0  0
  129.3610  127.6400   68.4240 C   0  0  0  0  0  0  0  0  0  0  0  0
  129.7450  127.7130   69.7540 N   0  0  0  0  0  0  0  0  0  0  0  0
  129.4020  126.8590   70.7490 C   0  0  0  0  0  0  0  0  0  0  0  0
  128.6970  125.8610   70.5880 O   0  0  0  0  0  0  0  0  0  0  0  0
  129.9500  127.1390   72.1690 C   0  0  0  0  0  0  0  0  0  0  0  0
  128.9930  127.8680   73.0220 N   0  0  0  0  0  0  0  0  0  0  0  0
  129.0010  129.3150   72.7650 C   0  0  0  0  0  0  0  0  0  0  0  0
  128.1910  130.0540   73.8540 C   0  0  0  0  0  0  0  0  0  0  0  0
  126.8460  129.3900   74.1520 C   0  0  0  0  0  0  0  0  0  0  0  0
  125.8660  130.0500   74.9020 C   0  0  0  0  0  0  0  0  0  0  0  0
  124.6570  129.4310   75.2060 C   0  0  0  0  0  0  0  0  0  0  0  0
  124.4110  128.1360   74.7580 C   0  0  0  0  0  0  0  0  0  0  0  0
  125.3740  127.4710   74.0030 C   0  0  0  0  0  0  0  0  0  0  0  0
  126.5940  128.0820   73.6910 C   0  0  0  0  0  0  0  0  0  0  0  0
  127.6270  127.3730   72.8140 C   0  0  0  0  0  0  0  0  0  0  0  0
  129.8080  126.2310   67.5430 S   0  0  0  0  0  0  0  0  0  0  0  0
  129.0320  126.8970   66.1260 C   0  0  0  0  0  0  0  0  0  0  0  0
  129.0630  126.1480   64.8120 C   0  0  0  0  0  0  0  0  0  0  0  0
  126.8710  128.5520   64.5690 C   0  0  0  0  0  0  0  0  0  0  0  0
  126.1550  129.4020   63.7260 C   0  0  0  0  0  0  0  0  0  0  0  0
  126.2180  130.7880   63.9140 C   0  0  0  0  0  0  0  0  0  0  0  0
  125.9950  130.9960   60.3700 C   0  0  0  0  0  0  0  0  0  0  0  0
  126.1660  130.7600   59.0080 C   0  0  0  0  0  0  0  0  0  0  0  0
  1  2  1  0
  2  3  2  0
  3  4  1  0
  4  5  2  0
  5  6  1  0
  6  7  2  0
  6  8  1  0
  8  9  1  0
  9 10  1  0
 10 11  1  0
 11 12  2  0
 12 13  1  0
 13 14  1  0
 14 15  1  0
 15 16  2  0
 16 17  1  0
 17 18  1  0
 18 19  2  0
 18 20  1  0
 20 21  1  0
 21 22  1  0
 22 23  1  0
 23 24  1  0
 24 25  2  0
 25 26  1  0
 26 27  2  0
 27 28  1  0
 28 29  2  0
 29 30  1  0
 16 31  1  0
 31 32  1  0
 32 33  1  0
 13 34  2  0
 34 35  1  0
 35 36  2  0
  5 37  1  0
 37 38  2  0
 38  2  1  0
 36  8  1  0
 36 11  1  0
 32 14  2  0
 30 21  1  0
 29 24  1  0
M  END
>  <Binding energies>  (45) 
[-11.08]

>  <Ligand effiencies>  (45) 
[-0.2841025641025641]

>  <Interactions>  (45) 
["V-B:TYR:484:CZ:9315, V-A:GLU:543:CD:4905, V-A:GLU:543:CG:4904, V-B:TYR:484:CE1:9313, V-B:GLU:543:CD:9877, V-B:HIS:456:CE1:9038, V-A:HIS:456:CE1:4066, V-A:GLU:543:CB:4903, V-B:GLU:543:CG:9876, V-A:TYR:539:CE2:4873, V-B:LEU:475:CD2:9227, V-A:ALA:541:CB:4889, V-B:ILE:369:CG2:8205, V-A:TYR:539:CZ:4874, V-B:ILE:369:CD1:8207, V-B:ASP:366:CB:8180, V-B:ASP:366:CG:8181, V-B:TYR:531:CE1:9761, V-B:ASP:366:CA:8178, V-B:TYR:531:CZ:9763, V-B:ILE:369:CB:8204, H-B:GLY:454:N:9018, V-B:LYS:547:CD:9918, V-B:HIS:456:CG:9034, V-A:HIS:456:CD2:4064, V-B:HIS:456:CD2:9036, V-A:LYS:547:CE:4947, V-B:LYS:547:CE:9919, V-B:HIS:456:CB:9033, V-B:LYS:471:CE:9188, H-A:LYS:547:NZ:4948, V-B:VAL:458:CG2:9055, H-A:GLU:543:O:4900, H-B:HIS:456:NE2:9039, V-B:HIS:456:C:9029, V-B:VAL:457:C:9041, V-B:HIS:456:CA:9031, V-B:LYS:547:CG:9917, V-B:LEU:475:CD1:9226"]

$$$$
RR21_Rahimova_2017
     RDKit          3D

 40 45  0  0  0  0  0  0  0  0999 V2000
  133.5870  123.7630   61.3550 C   0  0  0  0  0  0  0  0  0  0  0  0
  133.9330  124.3490   62.6060 O   0  0  0  0  0  0  0  0  0  0  0  0
  132.9370  124.8810   63.4020 C   0  0  0  0  0  0  0  0  0  0  0  0
  131.6020  125.0460   62.9930 C   0  0  0  0  0  0  0  0  0  0  0  0
  130.6560  125.5890   63.8610 C   0  0  0  0  0  0  0  0  0  0  0  0
  131.0140  125.9770   65.1570 C   0  0  0  0  0  0  0  0  0  0  0  0
  129.9940  126.5550   66.0890 C   0  0  0  0  0  0  0  0  0  0  0  0
  130.1090  126.3610   67.3890 N   0  0  0  0  0  0  0  0  0  0  0  0
  129.0700  126.9860   67.9640 N   0  0  0  0  0  0  0  0  0  0  0  0
  128.8980  126.9940   69.3730 C   0  0  0  0  0  0  0  0  0  0  0  0
  127.8670  126.2560   69.9740 C   0  0  0  0  0  0  0  0  0  0  0  0
  127.7120  126.2680   71.3580 C   0  0  0  0  0  0  0  0  0  0  0  0
  128.5840  127.0170   72.1450 C   0  0  0  0  0  0  0  0  0  0  0  0
  129.6100  127.7550   71.5600 C   0  0  0  0  0  0  0  0  0  0  0  0
  129.7680  127.7460   70.1770 C   0  0  0  0  0  0  0  0  0  0  0  0
  128.2970  127.5970   67.0100 C   0  0  0  0  0  0  0  0  0  0  0  0
  128.8560  127.3300   65.7690 C   0  0  0  0  0  0  0  0  0  0  0  0
  128.4170  127.8020   64.4650 C   0  0  0  0  0  0  0  0  0  0  0  0
  127.3970  128.6430   64.1790 C   0  0  0  0  0  0  0  0  0  0  0  0
  126.2730  129.4230   65.3140 S   0  0  0  0  0  0  0  0  0  0  0  0
  125.4870  130.2270   63.9630 C   0  0  0  0  0  0  0  0  0  0  0  0
  124.4930  131.0590   64.0010 N   0  0  0  0  0  0  0  0  0  0  0  0
  123.9550  131.6520   62.8260 C   0  0  0  0  0  0  0  0  0  0  0  0
  123.0300  132.4620   62.7790 O   0  0  0  0  0  0  0  0  0  0  0  0
  124.6330  131.2100   61.5580 C   0  0  0  0  0  0  0  0  0  0  0  0
  124.1250  131.7690   60.2230 C   0  0  0  0  0  0  0  0  0  0  0  0
  125.0130  131.4420   59.0240 C   0  0  0  0  0  0  0  0  0  0  0  0
  124.4680  130.8210   57.8970 C   0  0  0  0  0  0  0  0  0  0  0  0
  125.2750  130.5390   56.7980 C   0  0  0  0  0  0  0  0  0  0  0  0
  126.6300  130.8780   56.8220 C   0  0  0  0  0  0  0  0  0  0  0  0
  127.5020  130.5790   55.6170 C   0  0  0  0  0  0  0  0  0  0  0  0
  127.1740  131.5090   57.9440 C   0  0  0  0  0  0  0  0  0  0  0  0
  126.3670  131.7910   59.0420 C   0  0  0  0  0  0  0  0  0  0  0  0
  125.6200  130.3760   61.5350 N   0  0  0  0  0  0  0  0  0  0  0  0
  126.0580  129.8760   62.7680 N   0  0  0  0  0  0  0  0  0  0  0  0
  127.1020  129.0120   62.8010 C   0  0  0  0  0  0  0  0  0  0  0  0
  127.7130  128.6060   61.8050 O   0  0  0  0  0  0  0  0  0  0  0  0
  132.3430  125.8180   65.5630 C   0  0  0  0  0  0  0  0  0  0  0  0
  133.2920  125.2750   64.6970 C   0  0  0  0  0  0  0  0  0  0  0  0
  134.5700  125.1340   65.1200 F   0  0  0  0  0  0  0  0  0  0  0  0
  1  2  1  0
  2  3  1  0
  3  4  2  0
  4  5  1  0
  5  6  2  0
  6  7  1  0
  7  8  2  0
  8  9  1  0
  9 10  1  0
 10 11  2  0
 11 12  1  0
 12 13  2  0
 13 14  1  0
 14 15  2  0
  9 16  1  0
 16 17  2  0
 17 18  1  0
 18 19  2  0
 19 20  1  0
 20 21  1  0
 21 22  2  0
 22 23  1  0
 23 24  2  0
 23 25  1  0
 25 26  1  0
 26 27  1  0
 27 28  2  0
 28 29  1  0
 29 30  2  0
 30 31  1  0
 30 32  1  0
 32 33  2  0
 25 34  2  0
 34 35  1  0
 35 36  1  0
 36 37  2  0
  6 38  1  0
 38 39  2  0
 39 40  1  0
 39  3  1  0
 17  7  1  0
 36 19  1  0
 15 10  1  0
 35 21  1  0
 33 27  1  0
M  END
>  <Binding energies>  (46) 
[-11.03]

>  <Ligand effiencies>  (46) 
[-0.27575]

>  <Interactions>  (46) 
["V-A:GLU:543:CD:4905, V-B:GLU:543:CD:9877, V-B:HIS:456:CE1:9038, V-A:HIS:456:CE1:4066, V-A:TYR:539:CD2:4871, V-A:ASP:366:CG:3209, V-A:TYR:539:CE2:4873, V-B:GLU:543:C:9871, H-B:TYR:484:OH:9316, V-B:ILE:369:CG2:8205, V-A:TYR:539:CZ:4874, V-B:ILE:369:CD1:8207, V-B:ASP:366:CB:8180, H-A:GLY:454:N:4046, V-A:ARG:545:CD:4920, V-A:ARG:545:CZ:4923, V-B:ASP:366:CG:8181, V-B:TYR:531:CE1:9761, V-B:ASP:366:CA:8178, V-B:TYR:531:CZ:9763, V-A:GLY:454:CA:4045, V-B:GLY:454:CA:9017, V-A:GLY:453:C:4038, H-B:GLY:454:N:9018, V-A:GLY:453:CA:4040, V-B:HIS:456:CD2:9036, V-B:GLY:544:C:9881, V-B:LYS:547:CE:9919, V-B:GLY:544:CA:9883"]

$$$$
RR23_Rahimova_2017
     RDKit          3D

 39 44  0  0  0  0  0  0  0  0999 V2000
  127.3650  127.3790   73.7090 C   0  0  0  0  0  0  0  0  0  0  0  0
  128.0950  127.5010   72.3840 C   0  0  0  0  0  0  0  0  0  0  0  0
  129.2200  128.3200   72.2800 C   0  0  0  0  0  0  0  0  0  0  0  0
  129.8960  128.4240   71.0660 C   0  0  0  0  0  0  0  0  0  0  0  0
  129.4450  127.7170   69.9450 C   0  0  0  0  0  0  0  0  0  0  0  0
  130.2040  127.8270   68.6420 C   0  0  0  0  0  0  0  0  0  0  0  0
  131.4040  128.1070   68.7020 O   0  0  0  0  0  0  0  0  0  0  0  0
  129.5500  127.6010   67.4640 N   0  0  0  0  0  0  0  0  0  0  0  0
  128.6610  128.6120   66.8700 C   0  0  0  0  0  0  0  0  0  0  0  0
  128.2410  128.0700   65.5140 C   0  0  0  0  0  0  0  0  0  0  0  0
  129.2230  126.9620   65.2790 C   0  0  0  0  0  0  0  0  0  0  0  0
  129.3850  126.1550   64.1530 C   0  0  0  0  0  0  0  0  0  0  0  0
  130.2590  125.0580   64.1860 C   0  0  0  0  0  0  0  0  0  0  0  0
  130.4670  124.1440   62.9690 C   0  0  2  0  0  0  0  0  0  0  0  0
  129.4230  124.3060   61.9800 N   0  0  0  0  0  0  0  0  0  0  0  0
  129.1870  123.2210   61.3580 C   0  0  0  0  0  0  0  0  0  0  0  0
  128.2600  122.9950   60.3880 N   0  0  0  0  0  0  0  0  0  0  0  0
  127.2810  123.8220   59.9500 C   0  0  0  0  0  0  0  0  0  0  0  0
  127.0840  124.9740   60.3460 O   0  0  0  0  0  0  0  0  0  0  0  0
  126.3520  123.2380   58.8730 C   0  0  0  0  0  0  0  0  0  0  0  0
  127.1050  123.1070   57.6040 N   0  0  0  0  0  0  0  0  0  0  0  0
  126.7650  122.0120   56.8200 N   0  0  0  0  0  0  0  0  0  0  0  0
  127.3500  121.7830   55.6880 N   0  0  0  0  0  0  0  0  0  0  0  0
  128.3450  122.6510   55.2330 C   0  0  0  0  0  0  0  0  0  0  0  0
  128.9580  122.3750   54.0090 C   0  0  0  0  0  0  0  0  0  0  0  0
  129.9570  123.2240   53.5280 C   0  0  0  0  0  0  0  0  0  0  0  0
  130.3430  124.3440   54.2670 C   0  0  0  0  0  0  0  0  0  0  0  0
  129.7330  124.6210   55.4920 C   0  0  0  0  0  0  0  0  0  0  0  0
  128.7300  123.7710   55.9730 C   0  0  0  0  0  0  0  0  0  0  0  0
  128.0590  124.0510   57.2980 C   0  0  0  0  0  0  0  0  0  0  0  0
  128.3440  125.0090   58.0230 O   0  0  0  0  0  0  0  0  0  0  0  0
  130.1700  121.7990   61.8080 S   0  0  0  0  0  0  0  0  0  0  0  0
  130.6580  122.6500   63.3190 C   0  0  2  0  0  0  0  0  0  0  0  0
  129.8230  122.1030   64.4960 C   0  0  0  0  0  0  0  0  0  0  0  0
  130.9250  124.7610   65.3810 C   0  0  0  0  0  0  0  0  0  0  0  0
  130.7480  125.5550   66.5140 C   0  0  0  0  0  0  0  0  0  0  0  0
  129.9360  126.6960   66.4490 C   0  0  0  0  0  0  0  0  0  0  0  0
  128.3320  126.8750   70.0650 C   0  0  0  0  0  0  0  0  0  0  0  0
  127.6570  126.7710   71.2780 C   0  0  0  0  0  0  0  0  0  0  0  0
  1  2  1  0
  2  3  2  0
  3  4  1  0
  4  5  2  0
  5  6  1  0
  6  7  2  0
  6  8  1  0
  8  9  1  0
  9 10  1  0
 10 11  1  0
 11 12  2  0
 12 13  1  0
 14 13  1  1
 14 15  1  0
 15 16  2  0
 16 17  1  0
 17 18  1  0
 18 19  2  0
 18 20  1  0
 20 21  1  0
 21 22  1  0
 22 23  2  0
 23 24  1  0
 24 25  2  0
 25 26  1  0
 26 27  2  0
 27 28  1  0
 28 29  2  0
 29 30  1  0
 30 31  2  0
 16 32  1  0
 32 33  1  0
 33 34  1  1
 13 35  2  0
 35 36  1  0
 36 37  2  0
  5 38  1  0
 38 39  2  0
 39  2  1  0
 37  8  1  0
 37 11  1  0
 33 14  1  0
 30 21  1  0
 29 24  1  0
M  END
>  <Binding energies>  (47) 
[-11.24]

>  <Ligand effiencies>  (47) 
[-0.281]

>  <Interactions>  (47) 
["V-A:GLU:543:CD:4905, V-A:GLU:543:CG:4904, V-A:LEU:475:CD1:4254, V-B:TYR:539:CE1:9844, V-B:PRO:540:CA:9852, V-B:PRO:540:N:9853, V-B:GLU:543:CD:9877, V-B:HIS:456:CE1:9038, V-A:HIS:456:CE1:4066, V-B:TYR:539:CZ:9846, V-A:GLU:543:CB:4903, V-B:TYR:539:CD1:9842, V-B:ALA:541:CB:9861, V-B:PRO:540:CB:9854, V-B:MET:535:CE:9804, V-B:GLU:543:CG:9876, V-A:TYR:484:CE1:4341, V-A:TYR:484:CZ:4343, H-B:TYR:539:N:9839, V-B:ILE:538:CA:9829, V-B:ILE:538:CG2:9832, H-B:TYR:539:O:9837, V-A:MET:535:CE:4832, V-B:VAL:537:C:9819, V-A:LEU:475:CD2:4255, V-B:LYS:547:CD:9918, V-A:GLU:543:C:4899, V-B:HIS:456:CD2:9036, V-B:GLY:544:C:9881, V-B:LYS:547:CE:9919, H-A:ARG:545:N:4917"]

$$$$
RR26_Rahimova_2017
     RDKit          3D

 38 44  0  0  0  0  0  0  0  0999 V2000
  127.5400  133.7800   60.6830 C   0  0  0  0  0  0  0  0  0  0  0  0
  126.0930  133.9930   61.1080 C   0  0  0  0  0  0  0  0  0  0  0  0
  125.3870  135.0600   60.5420 C   0  0  0  0  0  0  0  0  0  0  0  0
  124.0490  135.2780   60.8640 C   0  0  0  0  0  0  0  0  0  0  0  0
  123.4010  134.4240   61.7520 C   0  0  0  0  0  0  0  0  0  0  0  0
  124.0940  133.3580   62.3210 C   0  0  0  0  0  0  0  0  0  0  0  0
  125.4440  133.1280   62.0160 C   0  0  0  0  0  0  0  0  0  0  0  0
  126.1200  131.9660   62.6850 C   0  0  0  0  0  0  0  0  0  0  0  0
  126.3420  131.9310   63.9970 N   0  0  0  0  0  0  0  0  0  0  0  0
  126.9210  130.7700   64.1420 C   0  0  0  0  0  0  0  0  0  0  0  0
  127.5680  129.8670   65.4610 S   0  0  0  0  0  0  0  0  0  0  0  0
  128.0050  128.5460   64.3130 C   0  0  0  0  0  0  0  0  0  0  0  0
  128.6170  127.3740   64.5940 C   0  0  0  0  0  0  0  0  0  0  0  0
  129.0660  126.8840   65.8870 C   0  0  0  0  0  0  0  0  0  0  0  0
  128.7710  127.3900   67.1440 C   0  0  0  0  0  0  0  0  0  0  0  0
  129.3770  126.5850   68.0750 N   0  0  0  0  0  0  0  0  0  0  0  0
  129.3520  126.7060   69.4880 C   0  0  0  0  0  0  0  0  0  0  0  0
  128.5190  125.8870   70.2640 C   0  0  0  0  0  0  0  0  0  0  0  0
  128.5010  126.0180   71.6500 C   0  0  0  0  0  0  0  0  0  0  0  0
  129.3170  126.9640   72.2650 C   0  0  0  0  0  0  0  0  0  0  0  0
  130.1510  127.7820   71.5060 C   0  0  0  0  0  0  0  0  0  0  0  0
  130.1690  127.6550   70.1200 C   0  0  0  0  0  0  0  0  0  0  0  0
  130.0200  125.5760   67.4690 N   0  0  0  0  0  0  0  0  0  0  0  0
  129.8490  125.7430   66.1730 C   0  0  0  0  0  0  0  0  0  0  0  0
  130.4600  124.7740   65.2090 C   0  0  0  0  0  0  0  0  0  0  0  0
  129.7920  123.5850   64.8770 C   0  0  0  0  0  0  0  0  0  0  0  0
  130.3550  122.6730   63.9820 C   0  0  0  0  0  0  0  0  0  0  0  0
  131.5960  122.9450   63.4110 C   0  0  0  0  0  0  0  0  0  0  0  0
  132.2660  124.1390   63.7200 C   0  0  0  0  0  0  0  0  0  0  0  0
  131.7040  125.0440   64.6180 C   0  0  0  0  0  0  0  0  0  0  0  0
  133.5170  124.4290   63.2120 O   0  0  0  0  0  0  0  0  0  0  0  0
  133.8660  123.6730   62.0480 C   0  0  0  0  0  0  0  0  0  0  0  0
  133.4960  122.1820   62.2370 C   0  0  0  0  0  0  0  0  0  0  0  0
  132.0940  122.0410   62.4940 O   0  0  0  0  0  0  0  0  0  0  0  0
  127.6340  128.8620   62.9360 C   0  0  0  0  0  0  0  0  0  0  0  0
  127.7910  128.1910   61.9150 O   0  0  0  0  0  0  0  0  0  0  0  0
  127.0340  130.1310   62.9640 N   0  0  0  0  0  0  0  0  0  0  0  0
  126.5100  130.8990   62.0050 N   0  0  0  0  0  0  0  0  0  0  0  0
  1  2  1  0
  2  3  2  0
  3  4  1  0
  4  5  2  0
  5  6  1  0
  6  7  2  0
  7  8  1  0
  8  9  1  0
  9 10  2  0
 10 11  1  0
 11 12  1  0
 12 13  2  0
 13 14  1  0
 14 15  2  0
 15 16  1  0
 16 17  1  0
 17 18  2  0
 18 19  1  0
 19 20  2  0
 20 21  1  0
 21 22  2  0
 16 23  1  0
 23 24  2  0
 24 25  1  0
 25 26  2  0
 26 27  1  0
 27 28  2  0
 28 29  1  0
 29 30  2  0
 29 31  1  0
 31 32  1  0
 32 33  1  0
 33 34  1  0
 12 35  1  0
 35 36  2  0
 35 37  1  0
 37 38  1  0
  7  2  1  0
 38  8  2  0
 37 10  1  0
 24 14  1  0
 30 25  1  0
 22 17  1  0
 34 28  1  0
M  END
>  <Binding energies>  (48) 
[-10.52]

>  <Ligand effiencies>  (48) 
[-0.2768421052631579]

>  <Interactions>  (48) 
["V-A:GLU:543:CD:4905, V-A:GLU:543:CG:4904, V-A:LEU:475:CD1:4254, H-A:TYR:484:OH:4344, V-B:GLU:543:CD:9877, V-B:HIS:456:CE1:9038, V-A:HIS:456:CE1:4066, V-B:ALA:541:CB:9861, V-A:TYR:539:CD2:4871, V-B:GLU:543:CG:9876, V-B:LEU:475:CD2:9227, V-A:ALA:541:CB:4889, V-B:TRP:381:CH2:8340, V-B:GLU:543:CB:9875, V-A:TYR:484:CE1:4341, V-B:GLU:543:C:9871, H-B:TYR:484:OH:9316, V-B:ILE:369:CG2:8205, V-B:TRP:381:CZ2:8338, V-B:ILE:369:CD1:8207, H-A:GLY:454:N:4046, V-A:GLY:454:CA:4045, V-B:GLY:454:CA:9017, V-A:GLY:453:C:4038, V-A:HIS:456:CD2:4064, V-B:LYS:547:CE:9919, V-B:SER:385:C:8373, V-B:ILE:369:CG1:8206"]

$$$$
RR2_Rahimova_2017
     RDKit          3D

 46 50  0  0  0  0  0  0  0  0999 V2000
  125.0940  122.2040   56.1680 C   0  0  0  0  0  0  0  0  0  0  0  0
  126.3920  121.6380   56.0310 O   0  0  0  0  0  0  0  0  0  0  0  0
  127.4810  122.4760   55.8800 C   0  0  0  0  0  0  0  0  0  0  0  0
  128.2170  122.6120   54.6940 C   0  0  0  0  0  0  0  0  0  0  0  0
  129.3030  123.4800   54.6370 C   0  0  0  0  0  0  0  0  0  0  0  0
  129.6820  124.2290   55.7600 C   0  0  0  0  0  0  0  0  0  0  0  0
  130.8730  125.1620   55.6730 C   0  0  0  0  0  0  0  0  0  0  0  0
  131.9490  124.7580   55.2190 O   0  0  0  0  0  0  0  0  0  0  0  0
  130.6720  126.4210   56.1300 N   0  0  0  0  0  0  0  0  0  0  0  0
  131.7570  127.2900   56.1590 N   0  0  0  0  0  0  0  0  0  0  0  0
  131.7940  128.2320   57.1230 C   0  0  0  0  0  0  0  0  0  0  0  0
  130.8560  128.5050   57.8780 O   0  0  0  0  0  0  0  0  0  0  0  0
  133.1270  128.9770   57.2690 C   0  0  0  0  0  0  0  0  0  0  0  0
  133.0620  130.7650   56.8790 S   0  0  0  0  0  0  0  0  0  0  0  0
  131.9920  131.3390   58.1630 C   0  0  0  0  0  0  0  0  0  0  0  0
  132.3940  131.5360   59.3930 N   0  0  0  0  0  0  0  0  0  0  0  0
  131.2860  131.9110   60.1390 N   0  0  0  0  0  0  0  0  0  0  0  0
  130.2590  131.9560   59.3250 C   0  0  0  0  0  0  0  0  0  0  0  0
  128.8820  132.3400   59.7600 C   0  0  0  0  0  0  0  0  0  0  0  0
  127.7790  131.6250   59.2860 C   0  0  0  0  0  0  0  0  0  0  0  0
  126.4920  131.9800   59.6790 C   0  0  0  0  0  0  0  0  0  0  0  0
  126.2970  133.0460   60.5650 C   0  0  0  0  0  0  0  0  0  0  0  0
  125.0230  133.4550   60.9870 N   0  0  0  0  0  0  0  0  0  0  0  0
  123.9880  132.5450   62.1100 S   0  0  0  0  0  0  0  0  0  0  0  0
  123.4060  131.4500   61.3260 O   0  0  0  0  0  0  0  0  0  0  0  0
  123.1310  133.5030   62.8170 O   0  0  0  0  0  0  0  0  0  0  0  0
  125.1160  131.7960   63.2840 C   0  0  0  0  0  0  0  0  0  0  0  0
  124.9460  130.4690   63.6870 C   0  0  0  0  0  0  0  0  0  0  0  0
  125.8240  129.9110   64.6120 C   0  0  0  0  0  0  0  0  0  0  0  0
  126.8730  130.6750   65.1280 C   0  0  0  0  0  0  0  0  0  0  0  0
  127.8200  130.0690   66.1470 C   0  0  0  0  0  0  0  0  0  0  0  0
  127.0380  132.0020   64.7260 C   0  0  0  0  0  0  0  0  0  0  0  0
  126.1600  132.5620   63.8020 C   0  0  0  0  0  0  0  0  0  0  0  0
  127.3990  133.7580   61.0390 C   0  0  0  0  0  0  0  0  0  0  0  0
  128.6860  133.4070   60.6420 C   0  0  0  0  0  0  0  0  0  0  0  0
  130.6380  131.5960   58.0420 N   0  0  0  0  0  0  0  0  0  0  0  0
  129.8320  131.4740   56.8910 C   0  0  0  0  0  0  0  0  0  0  0  0
  129.7730  132.5190   55.9680 C   0  0  0  0  0  0  0  0  0  0  0  0
  128.9800  132.3910   54.8320 C   0  0  0  0  0  0  0  0  0  0  0  0
  128.2420  131.2270   54.6080 C   0  0  0  0  0  0  0  0  0  0  0  0
  127.4840  131.1930   53.4540 O   0  0  0  0  0  0  0  0  0  0  0  0
  126.8190  129.9860   53.0940 C   0  0  0  0  0  0  0  0  0  0  0  0
  128.3080  130.1800   55.5430 C   0  0  0  0  0  0  0  0  0  0  0  0
  129.1010  130.3030   56.6790 C   0  0  0  0  0  0  0  0  0  0  0  0
  128.9370  124.0920   56.9410 C   0  0  0  0  0  0  0  0  0  0  0  0
  127.8490  123.2240   56.9960 C   0  0  0  0  0  0  0  0  0  0  0  0
  1  2  1  0
  2  3  1  0
  3  4  2  0
  4  5  1  0
  5  6  2  0
  6  7  1  0
  7  8  2  0
  7  9  1  0
  9 10  1  0
 10 11  1  0
 11 12  2  0
 11 13  1  0
 13 14  1  0
 14 15  1  0
 15 16  2  0
 16 17  1  0
 17 18  2  0
 18 19  1  0
 19 20  2  0
 20 21  1  0
 21 22  2  0
 22 23  1  0
 23 24  1  0
 24 25  2  0
 24 26  2  0
 24 27  1  0
 27 28  2  0
 28 29  1  0
 29 30  2  0
 30 31  1  0
 30 32  1  0
 32 33  2  0
 22 34  1  0
 34 35  2  0
 18 36  1  0
 36 37  1  0
 37 38  2  0
 38 39  1  0
 39 40  2  0
 40 41  1  0
 41 42  1  0
 40 43  1  0
 43 44  2  0
  6 45  1  0
 45 46  2  0
 46  3  1  0
 36 15  1  0
 44 37  1  0
 35 19  1  0
 33 27  1  0
M  END
>  <Binding energies>  (49) 
[-12.4]

>  <Ligand effiencies>  (49) 
[-0.2530612244897959]

>  <Interactions>  (49) 
["V-B:TYR:484:CZ:9315, V-A:GLU:543:CD:4905, V-A:GLU:543:CG:4904, V-B:TYR:539:CE1:9844, V-B:PRO:540:CA:9852, V-B:TYR:484:CE1:9313, V-B:PRO:540:N:9853, V-B:HIS:456:CE1:9038, V-B:TYR:539:CZ:9846, V-A:GLU:543:CB:4903, V-B:TYR:539:CD1:9842, V-B:PRO:540:CB:9854, V-B:MET:535:CE:9804, V-A:TYR:531:CZ:4791, V-A:PRO:540:CA:4880, V-A:ASP:366:CG:3209, V-A:ASP:366:CB:3208, V-A:TYR:539:CE2:4873, V-B:LEU:475:CD2:9227, V-A:ALA:541:CB:4889, H-A:TYR:531:OH:4792, V-A:PRO:540:C:4878, V-A:TYR:539:C:4864, V-A:PRO:540:N:4881, V-A:PRO:540:CB:4882, V-B:ILE:369:CG2:8205, H-A:ALA:541:N:4888, V-A:ILE:538:CD1:4862, V-B:LYS:534:CE:9791, V-A:TYR:539:CZ:4874, V-B:ILE:369:CD1:8207, H-B:TYR:539:OH:9847, V-B:LEU:363:CD1:8157, V-B:TYR:531:CE1:9761, V-A:TYR:539:CE1:4872, V-A:ILE:538:CA:4857, V-A:ALA:541:CA:4887, H-B:TYR:539:N:9839, V-B:ILE:538:CB:9831, V-B:ILE:538:CA:9829, V-A:TYR:531:CE1:4789, V-B:ILE:538:CG2:9832, H-B:LYS:534:NZ:9792, V-B:LYS:534:CD:9790, V-B:PRO:540:CD:9856, V-B:GLY:454:CA:9017, H-B:GLY:454:N:9018, V-B:PRO:540:CG:9855, V-B:ILE:538:CD1:9834"]

$$$$
RR33_Rahimova_2017
     RDKit          3D

 18 19  0  0  0  0  0  0  0  0999 V2000
  134.9420  125.1170   66.2150 C   0  0  0  0  0  0  0  0  0  0  0  0
  133.6470  125.1800   65.4000 C   0  0  0  0  0  0  0  0  0  0  0  0
  133.8440  124.4820   64.1730 O   0  0  0  0  0  0  0  0  0  0  0  0
  132.7490  124.1410   63.4030 C   0  0  0  0  0  0  0  0  0  0  0  0
  132.3170  125.0930   62.4800 C   0  0  0  0  0  0  0  0  0  0  0  0
  131.2190  124.8400   61.6630 C   0  0  0  0  0  0  0  0  0  0  0  0
  130.5340  123.6250   61.7570 C   0  0  0  0  0  0  0  0  0  0  0  0
  129.3540  123.3540   60.8790 C   0  0  0  0  0  0  0  0  0  0  0  0
  128.0850  123.5520   61.1570 N   0  0  0  0  0  0  0  0  0  0  0  0
  127.4260  123.1660   60.0750 C   0  0  0  0  0  0  0  0  0  0  0  0
  125.9160  123.2570   60.0110 C   0  0  0  0  0  0  0  0  0  0  0  0
  125.3430  123.2280   61.3480 N   0  0  0  0  0  0  0  0  0  0  0  0
  124.1090  123.9950   61.3930 C   0  0  0  0  0  0  0  0  0  0  0  0
  128.3260  122.7210   59.1150 C   0  0  0  0  0  0  0  0  0  0  0  0
  128.2150  122.1750   57.7120 C   0  0  0  0  0  0  0  0  0  0  0  0
  129.5670  122.8440   59.6380 O   0  0  0  0  0  0  0  0  0  0  0  0
  130.9660  122.6660   62.6780 C   0  0  0  0  0  0  0  0  0  0  0  0
  132.0650  122.9190   63.4960 C   0  0  0  0  0  0  0  0  0  0  0  0
  1  2  1  0
  2  3  1  0
  3  4  1  0
  4  5  2  0
  5  6  1  0
  6  7  2  0
  7  8  1  0
  8  9  2  0
  9 10  1  0
 10 11  1  0
 11 12  1  0
 12 13  1  0
 10 14  2  0
 14 15  1  0
 14 16  1  0
  7 17  1  0
 17 18  2  0
 18  4  1  0
 16  8  1  0
M  END
>  <Binding energies>  (50) 
[-5.88]

>  <Ligand effiencies>  (50) 
[-0.3094736842105263]

>  <Interactions>  (50) 
["V-A:LEU:475:CD1:4254, V-B:TYR:539:CE2:9845, V-B:TYR:539:CE1:9844, V-B:PRO:540:CA:9852, H-A:TYR:484:OH:4344, V-B:TYR:539:CG:9841, V-B:PRO:540:N:9853, V-B:TYR:539:C:9836, V-B:GLU:543:CD:9877, V-A:HIS:456:CE1:4066, V-B:TYR:539:CZ:9846, V-B:TYR:539:CD1:9842, V-B:PRO:540:CB:9854, V-B:TYR:539:CD2:9843, V-A:ASP:366:CG:3209, H-B:ALA:541:N:9860, H-B:GLU:543:OE2:9879, V-B:ASN:362:CB:8144, H-A:GLY:454:N:4046, V-A:ARG:545:CD:4920, H-B:TYR:539:OH:9847, V-B:ASN:362:C:8140, V-A:ARG:545:CZ:4923, V-A:ARG:545:CG:4919, V-A:GLY:454:CA:4045, V-B:PRO:540:C:9850, V-A:GLY:453:C:4038, V-B:ARG:545:CZ:9895, V-A:GLY:453:CA:4040, V-A:GLY:454:C:4043, V-A:ILE:455:C:4048"]

$$$$
RR3_Rahimova_2017
     RDKit          3D

 38 44  0  0  0  0  0  0  0  0999 V2000
  123.9800  132.7130   62.8540 C   0  0  0  0  0  0  0  0  0  0  0  0
  123.7810  131.4260   62.3640 C   0  0  0  0  0  0  0  0  0  0  0  0
  124.6850  130.4180   62.6870 C   0  0  0  0  0  0  0  0  0  0  0  0
  125.7950  130.6810   63.5030 C   0  0  0  0  0  0  0  0  0  0  0  0
  126.7660  129.5950   63.8510 C   0  0  0  0  0  0  0  0  0  0  0  0
  127.2290  129.4370   65.1640 C   0  0  0  0  0  0  0  0  0  0  0  0
  128.1340  128.4290   65.4860 C   0  0  0  0  0  0  0  0  0  0  0  0
  128.6040  127.5600   64.4980 C   0  0  0  0  0  0  0  0  0  0  0  0
  129.5810  126.4780   64.8370 C   0  0  0  0  0  0  0  0  0  0  0  0
  130.1420  125.7630   63.8680 N   0  0  0  0  0  0  0  0  0  0  0  0
  130.9750  124.9330   64.4490 C   0  0  0  0  0  0  0  0  0  0  0  0
  131.8100  123.9560   63.7570 C   0  0  0  0  0  0  0  0  0  0  0  0
  132.3640  122.8190   64.3210 C   0  0  0  0  0  0  0  0  0  0  0  0
  133.0810  122.1260   63.3810 N   0  0  0  0  0  0  0  0  0  0  0  0
  133.0260  122.7820   62.1710 C   0  0  0  0  0  0  0  0  0  0  0  0
  133.5940  122.4650   60.9330 C   0  0  0  0  0  0  0  0  0  0  0  0
  133.3510  123.3460   59.8800 C   0  0  0  0  0  0  0  0  0  0  0  0
  132.5800  124.4910   60.0450 C   0  0  0  0  0  0  0  0  0  0  0  0
  132.0120  124.8070   61.2780 C   0  0  0  0  0  0  0  0  0  0  0  0
  132.2270  123.9520   62.3740 C   0  0  0  0  0  0  0  0  0  0  0  0
  130.9590  125.0960   65.8070 N   0  0  0  0  0  0  0  0  0  0  0  0
  130.0460  126.0760   66.1000 C   0  0  0  0  0  0  0  0  0  0  0  0
  129.7150  126.4840   67.4980 C   0  0  0  0  0  0  0  0  0  0  0  0
  128.6630  125.8680   68.1770 C   0  0  0  0  0  0  0  0  0  0  0  0
  128.3430  126.2540   69.4740 C   0  0  0  0  0  0  0  0  0  0  0  0
  129.0690  127.2610   70.1260 C   0  0  0  0  0  0  0  0  0  0  0  0
  128.7100  127.6880   71.5150 C   0  0  0  0  0  0  0  0  0  0  0  0
  127.7540  126.9800   72.2600 C   0  0  0  0  0  0  0  0  0  0  0  0
  127.4230  127.3750   73.5550 C   0  0  0  0  0  0  0  0  0  0  0  0
  128.0470  128.4830   74.1180 C   0  0  0  0  0  0  0  0  0  0  0  0
  128.9980  129.1980   73.3980 C   0  0  0  0  0  0  0  0  0  0  0  0
  129.3260  128.8020   72.1050 C   0  0  0  0  0  0  0  0  0  0  0  0
  130.1350  127.8600   69.4400 C   0  0  0  0  0  0  0  0  0  0  0  0
  130.4580  127.4760   68.1420 C   0  0  0  0  0  0  0  0  0  0  0  0
  128.1380  127.7020   63.1890 C   0  0  0  0  0  0  0  0  0  0  0  0
  127.2330  128.7100   62.8700 C   0  0  0  0  0  0  0  0  0  0  0  0
  125.9760  131.9860   63.9850 C   0  0  0  0  0  0  0  0  0  0  0  0
  125.0740  132.9970   63.6640 C   0  0  0  0  0  0  0  0  0  0  0  0
  1  2  2  0
  2  3  1  0
  3  4  2  0
  4  5  1  0
  5  6  2  0
  6  7  1  0
  7  8  2  0
  8  9  1  0
  9 10  1  0
 10 11  2  0
 11 12  1  0
 12 13  2  0
 13 14  1  0
 14 15  1  0
 15 16  2  0
 16 17  1  0
 17 18  2  0
 18 19  1  0
 19 20  2  0
 11 21  1  0
 21 22  1  0
 22 23  1  0
 23 24  2  0
 24 25  1  0
 25 26  2  0
 26 27  1  0
 27 28  2  0
 28 29  1  0
 29 30  2  0
 30 31  1  0
 31 32  2  0
 26 33  1  0
 33 34  2  0
  8 35  1  0
 35 36  2  0
  4 37  1  0
 37 38  2  0
 38  1  1  0
 36  5  1  0
 22  9  2  0
 34 23  1  0
 20 12  1  0
 32 27  1  0
 20 15  1  0
M  END
>  <Binding energies>  (51) 
[-10.21]

>  <Ligand effiencies>  (51) 
[-0.25525000000000003]

>  <Interactions>  (51) 
["V-A:GLU:543:CD:4905, V-A:LEU:475:CD1:4254, V-B:TYR:539:CE2:9845, H-A:TYR:484:OH:4344, V-B:GLU:543:CD:9877, V-B:HIS:456:CE1:9038, V-A:HIS:456:CE1:4066, V-B:TYR:539:CZ:9846, V-A:GLU:543:CB:4903, V-A:ASP:366:CG:3209, V-A:ASP:366:CB:3208, V-B:LEU:475:CD2:9227, V-B:GLU:543:CB:9875, V-A:TYR:484:CZ:4343, V-B:GLU:543:C:9871, V-B:ILE:369:CD1:8207, V-B:ASP:366:CG:8181, V-A:GLY:454:CA:4045, V-A:ILE:369:CG2:3233, V-A:ILE:369:CB:3232, V-B:GLY:454:CA:9017, V-A:LEU:475:CG:4253, V-B:LYS:547:CD:9918, V-A:GLU:543:C:4899, V-B:HIS:456:CD2:9036, V-A:LYS:547:CE:4947, V-B:LYS:547:CE:9919, H-A:HIS:456:NE2:4067"]

$$$$
RR4_Rahimova_2017
     RDKit          3D

 40 44  0  0  0  0  0  0  0  0999 V2000
  130.1710  125.7280   73.6310 C   0  0  0  0  0  0  0  0  0  0  0  0
  130.0710  126.9850   72.9730 O   0  0  0  0  0  0  0  0  0  0  0  0
  129.7540  127.0190   71.6280 C   0  0  0  0  0  0  0  0  0  0  0  0
  130.5970  127.7610   70.8050 C   0  0  0  0  0  0  0  0  0  0  0  0
  130.3560  127.8510   69.4370 C   0  0  0  0  0  0  0  0  0  0  0  0
  129.2590  127.2010   68.8520 C   0  0  0  0  0  0  0  0  0  0  0  0
  129.0010  127.3000   67.3750 C   0  0  0  0  0  0  0  0  0  0  0  0
  128.0990  128.2160   66.8240 C   0  0  0  0  0  0  0  0  0  0  0  0
  127.8960  128.2730   65.4390 C   0  0  0  0  0  0  0  0  0  0  0  0
  126.9390  129.2960   64.9210 C   0  0  0  0  0  0  0  0  0  0  0  0
  125.5700  129.0160   64.8730 C   0  0  0  0  0  0  0  0  0  0  0  0
  124.6690  129.9680   64.4020 C   0  0  0  0  0  0  0  0  0  0  0  0
  125.1180  131.2180   63.9770 C   0  0  0  0  0  0  0  0  0  0  0  0
  124.1530  132.0980   63.5270 O   0  0  0  0  0  0  0  0  0  0  0  0
  124.1040  132.4270   62.1420 C   0  0  0  0  0  0  0  0  0  0  0  0
  126.4900  131.5050   64.0280 C   0  0  0  0  0  0  0  0  0  0  0  0
  127.3890  130.5520   64.4990 C   0  0  0  0  0  0  0  0  0  0  0  0
  128.6030  127.3630   64.6150 C   0  0  0  0  0  0  0  0  0  0  0  0
  128.4290  127.3800   63.1600 C   0  0  0  0  0  0  0  0  0  0  0  0
  128.2910  127.3930   62.0110 N   0  0  0  0  0  0  0  0  0  0  0  0
  129.4760  126.4440   65.2420 C   0  0  0  0  0  0  0  0  0  0  0  0
  130.4330  125.2240   64.3680 S   0  0  0  0  0  0  0  0  0  0  0  0
  129.2820  123.9470   63.7570 C   0  0  0  0  0  0  0  0  0  0  0  0
  129.2470  123.7990   62.2300 C   0  0  0  0  0  0  0  0  0  0  0  0
  130.2770  123.9310   61.5640 O   0  0  0  0  0  0  0  0  0  0  0  0
  128.0240  123.5370   61.7150 N   0  0  0  0  0  0  0  0  0  0  0  0
  127.6670  123.3470   60.3770 C   0  0  0  0  0  0  0  0  0  0  0  0
  128.8140  122.8970   59.1440 S   0  0  0  0  0  0  0  0  0  0  0  0
  127.5830  122.9000   57.9190 C   0  0  0  0  0  0  0  0  0  0  0  0
  126.3290  123.2410   58.4480 C   0  0  0  0  0  0  0  0  0  0  0  0
  126.3760  123.4790   59.8440 C   0  0  0  0  0  0  0  0  0  0  0  0
  125.2030  123.8320   60.6390 C   0  0  0  0  0  0  0  0  0  0  0  0
  124.2740  124.1120   61.2680 N   0  0  0  0  0  0  0  0  0  0  0  0
  125.0710  123.2760   57.5730 C   0  0  0  0  0  0  0  0  0  0  0  0
  125.3110  122.5280   56.2420 C   0  0  0  0  0  0  0  0  0  0  0  0
  126.6540  122.9110   55.5950 C   0  0  0  0  0  0  0  0  0  0  0  0
  127.8570  122.5050   56.4740 C   0  0  0  0  0  0  0  0  0  0  0  0
  129.6780  126.4320   66.5800 N   0  0  0  0  0  0  0  0  0  0  0  0
  128.4170  126.4520   69.6890 C   0  0  0  0  0  0  0  0  0  0  0  0
  128.6560  126.3600   71.0570 C   0  0  0  0  0  0  0  0  0  0  0  0
  1  2  1  0
  2  3  1  0
  3  4  2  0
  4  5  1  0
  5  6  2  0
  6  7  1  0
  7  8  2  0
  8  9  1  0
  9 10  1  0
 10 11  2  0
 11 12  1  0
 12 13  2  0
 13 14  1  0
 14 15  1  0
 13 16  1  0
 16 17  2  0
  9 18  2  0
 18 19  1  0
 19 20  3  0
 18 21  1  0
 21 22  1  0
 22 23  1  0
 23 24  1  0
 24 25  2  0
 24 26  1  0
 26 27  1  0
 27 28  1  0
 28 29  1  0
 29 30  2  0
 30 31  1  0
 31 32  1  0
 32 33  3  0
 30 34  1  0
 34 35  1  0
 35 36  1  0
 36 37  1  0
 21 38  2  0
  6 39  1  0
 39 40  2  0
 40  3  1  0
 38  7  1  0
 17 10  1  0
 31 27  2  0
 37 29  1  0
M  END
>  <Binding energies>  (52) 
[-12.14]

>  <Ligand effiencies>  (52) 
[-0.2960975609756098]

>  <Interactions>  (52) 
["V-A:GLU:543:CD:4905, V-A:GLU:543:CG:4904, V-B:TYR:539:CE2:9845, V-B:TYR:539:CE1:9844, V-B:PRO:540:CA:9852, V-B:PRO:540:N:9853, V-B:GLU:543:CD:9877, V-B:HIS:456:CE1:9038, V-A:HIS:456:CE1:4066, V-B:TYR:539:CZ:9846, V-B:TYR:539:CD1:9842, V-B:ALA:541:CB:9861, V-B:PRO:540:CB:9854, V-B:MET:535:CE:9804, V-B:TYR:539:CD2:9843, V-B:GLU:543:CG:9876, H-B:GLU:543:OE2:9879, V-B:ILE:369:CD1:8207, V-B:LEU:363:CD1:8157, V-B:ILE:538:CB:9831, V-B:ILE:538:CA:9829, V-B:ILE:538:CG2:9832, V-B:PRO:540:CD:9856, V-B:GLY:454:CA:9017, H-B:ARG:545:NH2:9897, V-B:ARG:545:CZ:9895, H-B:GLY:454:N:9018, V-A:HIS:456:CD2:4064, V-A:GLU:543:C:4899, V-B:LYS:547:CE:9919, H-A:LYS:547:NZ:4948, V-A:GLY:544:C:4909"]

$$$$
RR6_Rahimova_2017
     RDKit          3D

 38 41  0  0  0  0  0  0  0  0999 V2000
  128.1230  122.7130   54.8690 C   0  0  0  0  0  0  0  0  0  0  0  0
  127.5100  121.7940   55.7620 O   0  0  0  0  0  0  0  0  0  0  0  0
  126.4340  122.1550   56.5070 C   0  0  0  0  0  0  0  0  0  0  0  0
  125.2770  122.1550   56.0750 O   0  0  0  0  0  0  0  0  0  0  0  0
  126.7900  122.5560   57.9100 C   0  0  0  0  0  0  0  0  0  0  0  0
  125.9480  123.3620   58.6890 C   0  0  0  0  0  0  0  0  0  0  0  0
  126.3100  123.7230   59.9850 C   0  0  0  0  0  0  0  0  0  0  0  0
  127.5290  123.2830   60.5230 C   0  0  0  0  0  0  0  0  0  0  0  0
  128.0050  123.6110   61.8060 N   0  0  0  0  0  0  0  0  0  0  0  0
  129.2760  123.7870   62.2290 C   0  0  0  0  0  0  0  0  0  0  0  0
  130.2810  123.6960   61.5240 O   0  0  0  0  0  0  0  0  0  0  0  0
  129.4430  124.0600   63.7270 C   0  0  0  0  0  0  0  0  0  0  0  0
  130.4170  125.5580   64.0950 S   0  0  0  0  0  0  0  0  0  0  0  0
  129.3550  126.6470   65.0200 C   0  0  0  0  0  0  0  0  0  0  0  0
  129.4300  126.4910   66.3640 N   0  0  0  0  0  0  0  0  0  0  0  0
  128.6880  127.2850   67.1760 C   0  0  0  0  0  0  0  0  0  0  0  0
  128.8740  127.0890   68.6520 C   0  0  0  0  0  0  0  0  0  0  0  0
  129.9070  127.7430   69.3430 C   0  0  0  0  0  0  0  0  0  0  0  0
  130.0880  127.5510   70.7100 C   0  0  0  0  0  0  0  0  0  0  0  0
  129.2340  126.7030   71.4150 C   0  0  0  0  0  0  0  0  0  0  0  0
  129.4410  126.4890   72.9030 C   0  0  0  0  0  0  0  0  0  0  0  0
  128.2020  126.0470   70.7480 C   0  0  0  0  0  0  0  0  0  0  0  0
  128.0250  126.2430   69.3820 C   0  0  0  0  0  0  0  0  0  0  0  0
  127.8360  128.2570   66.6420 C   0  0  0  0  0  0  0  0  0  0  0  0
  127.7380  128.4360   65.2550 C   0  0  0  0  0  0  0  0  0  0  0  0
  126.8230  129.5040   64.7530 C   0  0  0  0  0  0  0  0  0  0  0  0
  125.4770  129.2160   64.5020 C   0  0  0  0  0  0  0  0  0  0  0  0
  124.6140  130.2100   64.0490 C   0  0  0  0  0  0  0  0  0  0  0  0
  125.0740  131.5090   63.8450 C   0  0  0  0  0  0  0  0  0  0  0  0
  124.1470  132.4300   63.3980 O   0  0  0  0  0  0  0  0  0  0  0  0
  124.1220  132.7740   62.0170 C   0  0  0  0  0  0  0  0  0  0  0  0
  126.4220  131.8050   64.1010 C   0  0  0  0  0  0  0  0  0  0  0  0
  127.2830  130.8090   64.5540 C   0  0  0  0  0  0  0  0  0  0  0  0
  128.5150  127.6030   64.4130 C   0  0  0  0  0  0  0  0  0  0  0  0
  128.4390  127.7170   62.9530 C   0  0  0  0  0  0  0  0  0  0  0  0
  128.3800  127.8080   61.8000 N   0  0  0  0  0  0  0  0  0  0  0  0
  128.3620  122.4670   59.7560 C   0  0  0  0  0  0  0  0  0  0  0  0
  127.9990  122.1100   58.4600 C   0  0  0  0  0  0  0  0  0  0  0  0
  1  2  1  0
  2  3  1  0
  3  4  2  0
  3  5  1  0
  5  6  2  0
  6  7  1  0
  7  8  2  0
  8  9  1  0
  9 10  1  0
 10 11  2  0
 10 12  1  0
 12 13  1  0
 13 14  1  0
 14 15  2  0
 15 16  1  0
 16 17  1  0
 17 18  2  0
 18 19  1  0
 19 20  2  0
 20 21  1  0
 20 22  1  0
 22 23  2  0
 16 24  2  0
 24 25  1  0
 25 26  1  0
 26 27  2  0
 27 28  1  0
 28 29  2  0
 29 30  1  0
 30 31  1  0
 29 32  1  0
 32 33  2  0
 25 34  2  0
 34 35  1  0
 35 36  3  0
  8 37  1  0
 37 38  2  0
 38  5  1  0
 34 14  1  0
 23 17  1  0
 33 26  1  0
M  END
>  <Binding energies>  (53) 
[-10.92]

>  <Ligand effiencies>  (53) 
[-0.27999999999999997]

>  <Interactions>  (53) 
["V-A:GLU:543:CD:4905, V-A:GLU:543:CG:4904, V-B:TYR:539:CE2:9845, V-B:TYR:539:CE1:9844, V-B:PRO:540:CA:9852, V-B:TYR:539:CG:9841, V-B:PRO:540:N:9853, V-B:TYR:539:C:9836, V-B:GLU:543:CD:9877, V-B:HIS:456:CE1:9038, V-A:HIS:456:CE1:4066, V-B:TYR:539:CZ:9846, V-B:TYR:539:CD1:9842, V-B:ALA:541:CB:9861, V-B:PRO:540:CB:9854, V-B:MET:535:CE:9804, V-B:TYR:539:CD2:9843, V-B:GLU:543:CG:9876, H-B:GLU:543:OE2:9879, V-B:GLU:543:CB:9875, V-B:GLU:543:C:9871, V-B:ILE:369:CD1:8207, H-B:TYR:539:N:9839, V-B:ILE:538:CB:9831, V-B:ILE:538:CA:9829, V-B:ILE:538:CG2:9832, V-B:PRO:540:CD:9856, V-B:GLY:454:CA:9017, V-B:ARG:545:CZ:9895, H-B:GLY:454:N:9018, V-A:HIS:456:CD2:4064, V-B:GLY:544:C:9881, V-B:LYS:547:CE:9919"]

$$$$
RR7_Rahimova_2017
     RDKit          3D

 47 53  0  0  0  0  0  0  0  0999 V2000
  124.1250  123.4030   61.3710 C   0  0  0  0  0  0  0  0  0  0  0  0
  125.4420  122.8790   61.5150 O   0  0  0  0  0  0  0  0  0  0  0  0
  126.4220  123.2690   60.6240 C   0  0  0  0  0  0  0  0  0  0  0  0
  126.4290  124.6130   60.2540 C   0  0  0  0  0  0  0  0  0  0  0  0
  127.3820  125.1000   59.3650 C   0  0  0  0  0  0  0  0  0  0  0  0
  128.3490  124.2470   58.8140 C   0  0  0  0  0  0  0  0  0  0  0  0
  129.4500  124.7720   57.8400 C   0  0  0  0  0  0  0  0  0  0  0  0
  130.7180  124.3660   58.4040 O   0  0  0  0  0  0  0  0  0  0  0  0
  130.9020  124.3580   59.8240 C   0  0  0  0  0  0  0  0  0  0  0  0
  132.3780  124.6490   60.1390 C   0  0  1  0  0  0  0  0  0  0  0  0
  132.3960  125.4770   61.2990 O   0  0  0  0  0  0  0  0  0  0  0  0
  133.1140  124.8930   62.3480 C   0  0  1  0  0  0  0  0  0  0  0  0
  132.5300  125.2670   63.6220 N   0  0  0  0  0  0  0  0  0  0  0  0
  133.0650  125.1000   64.8870 C   0  0  0  0  0  0  0  0  0  0  0  0
  132.2990  125.4880   65.8760 N   0  0  0  0  0  0  0  0  0  0  0  0
  131.1510  125.9020   65.2570 C   0  0  0  0  0  0  0  0  0  0  0  0
  129.9400  126.4160   65.7610 C   0  0  0  0  0  0  0  0  0  0  0  0
  129.8030  126.5790   67.1520 N   0  0  0  0  0  0  0  0  0  0  0  0
  128.6760  126.7440   67.8840 C   0  0  0  0  0  0  0  0  0  0  0  0
  127.5400  126.7970   67.4070 O   0  0  0  0  0  0  0  0  0  0  0  0
  128.8810  126.9000   69.3760 C   0  0  0  0  0  0  0  0  0  0  0  0
  127.9960  126.2750   70.2670 C   0  0  0  0  0  0  0  0  0  0  0  0
  128.1680  126.4010   71.6430 C   0  0  0  0  0  0  0  0  0  0  0  0
  129.2310  127.1490   72.1390 C   0  0  0  0  0  0  0  0  0  0  0  0
  130.1230  127.7740   71.2720 C   0  0  0  0  0  0  0  0  0  0  0  0
  129.9500  127.6500   69.8950 C   0  0  0  0  0  0  0  0  0  0  0  0
  128.9370  126.7370   64.8900 N   0  0  0  0  0  0  0  0  0  0  0  0
  129.1610  126.5400   63.5640 C   0  0  0  0  0  0  0  0  0  0  0  0
  130.2860  126.0560   62.9720 N   0  0  0  0  0  0  0  0  0  0  0  0
  131.2530  125.7570   63.8490 C   0  0  0  0  0  0  0  0  0  0  0  0
  133.1110  123.3980   62.0520 C   0  0  0  0  0  0  0  0  0  0  0  0
  133.2110  123.4220   60.5370 C   0  0  2  0  0  0  0  0  0  0  0  0
  134.5540  123.5130   60.0940 O   0  0  0  0  0  0  0  0  0  0  0  0
  129.3530  124.1240   56.4330 C   0  0  0  0  0  0  0  0  0  0  0  0
  130.3100  124.4190   55.4490 C   0  0  0  0  0  0  0  0  0  0  0  0
  130.2240  123.8550   54.1810 C   0  0  0  0  0  0  0  0  0  0  0  0
  129.1780  122.9880   53.8810 C   0  0  0  0  0  0  0  0  0  0  0  0
  128.2180  122.6810   54.8410 C   0  0  0  0  0  0  0  0  0  0  0  0
  128.3040  123.2470   56.1100 C   0  0  0  0  0  0  0  0  0  0  0  0
  129.4600  126.3070   57.5930 C   0  0  0  0  0  0  0  0  0  0  0  0
  130.5570  127.0850   57.9960 C   0  0  0  0  0  0  0  0  0  0  0  0
  130.5700  128.4600   57.7880 C   0  0  0  0  0  0  0  0  0  0  0  0
  129.4790  129.0760   57.1810 C   0  0  0  0  0  0  0  0  0  0  0  0
  128.3750  128.3270   56.7850 C   0  0  0  0  0  0  0  0  0  0  0  0
  128.3640  126.9510   56.9940 C   0  0  0  0  0  0  0  0  0  0  0  0
  128.3470  122.8990   59.2000 C   0  0  0  0  0  0  0  0  0  0  0  0
  127.3940  122.4120   60.0900 C   0  0  0  0  0  0  0  0  0  0  0  0
  1  2  1  0
  2  3  1  0
  3  4  2  0
  4  5  1  0
  5  6  2  0
  6  7  1  0
  7  8  1  0
  8  9  1  0
 10  9  1  1
 10 11  1  0
 11 12  1  0
 12 13  1  1
 13 14  1  0
 14 15  2  0
 15 16  1  0
 16 17  2  0
 17 18  1  0
 18 19  1  0
 19 20  2  0
 19 21  1  0
 21 22  2  0
 22 23  1  0
 23 24  2  0
 24 25  1  0
 25 26  2  0
 17 27  1  0
 27 28  2  0
 28 29  1  0
 29 30  2  0
 12 31  1  0
 31 32  1  0
 32 33  1  1
  7 34  1  0
 34 35  2  0
 35 36  1  0
 36 37  2  0
 37 38  1  0
 38 39  2  0
  7 40  1  0
 40 41  2  0
 41 42  1  0
 42 43  2  0
 43 44  1  0
 44 45  2  0
  6 46  1  0
 46 47  2  0
 47  3  1  0
 32 10  1  0
 39 34  1  0
 45 40  1  0
 30 13  1  0
 30 16  1  0
 26 21  1  0
M  END
>  <Binding energies>  (54) 
[-10.31]

>  <Ligand effiencies>  (54) 
[-0.21040816326530612]

>  <Interactions>  (54) 
["V-B:TYR:539:CE2:9845, V-B:TYR:539:CE1:9844, V-B:PRO:540:CA:9852, H-A:TYR:484:OH:4344, V-B:PRO:540:N:9853, V-B:GLU:543:CD:9877, V-B:HIS:456:CE1:9038, V-A:HIS:456:CE1:4066, V-B:TYR:539:CZ:9846, V-B:TYR:539:CD1:9842, V-B:ALA:541:CB:9861, V-B:PRO:540:CB:9854, V-B:MET:535:CE:9804, V-A:ASP:366:CG:3209, V-A:ASP:366:CB:3208, H-B:ALA:541:N:9860, V-B:GLU:543:CB:9875, V-B:GLU:543:C:9871, V-B:ASN:362:CB:8144, H-B:TYR:539:OH:9847, V-B:ASN:362:C:8140, V-A:ARG:545:CZ:4923, V-B:ILE:538:CB:9831, V-B:ILE:538:CA:9829, V-B:ILE:538:CG2:9832, V-B:PRO:540:C:9850, H-A:ASP:366:OD2:3211, H-A:ARG:545:NH2:4925, V-B:GLY:544:C:9881, V-B:LYS:547:CE:9919, H-A:HIS:456:NE2:4067"]

$$$$
RR8_A_Rahimova_2017
     RDKit          3D

 42 46  0  0  0  0  0  0  0  0999 V2000
  132.1400  124.2250   54.6550 O   0  0  0  0  0  0  0  0  0  0  0  0
  131.2800  124.6400   55.4400 C   0  0  0  0  0  0  0  0  0  0  0  0
  131.4820  125.6480   56.3450 O   0  0  0  0  0  0  0  0  0  0  0  0
  131.1850  126.9550   55.9370 C   0  0  1  0  0  0  0  0  0  0  0  0
  130.1420  126.9800   55.0060 O   0  0  0  0  0  0  0  0  0  0  0  0
  129.2770  128.0940   55.2110 C   0  0  2  0  0  0  0  0  0  0  0  0
  129.1960  128.8990   53.9020 C   0  0  0  0  0  0  0  0  0  0  0  0
  128.1080  129.8080   53.9900 O   0  0  0  0  0  0  0  0  0  0  0  0
  128.4810  131.1720   53.8430 C   0  0  0  0  0  0  0  0  0  0  0  0
  129.0690  131.6900   55.1480 C   0  0  0  0  0  0  0  0  0  0  0  0
  128.2240  132.0120   56.2130 C   0  0  0  0  0  0  0  0  0  0  0  0
  128.7600  132.4800   57.4100 C   0  0  0  0  0  0  0  0  0  0  0  0
  130.1410  132.6210   57.5410 C   0  0  0  0  0  0  0  0  0  0  0  0
  130.9900  132.2960   56.4850 C   0  0  0  0  0  0  0  0  0  0  0  0
  130.4550  131.8270   55.2890 C   0  0  0  0  0  0  0  0  0  0  0  0
  129.9040  128.8300   56.4020 C   0  0  1  0  0  0  0  0  0  0  0  0
  128.9380  129.3580   57.3070 O   0  0  0  0  0  0  0  0  0  0  0  0
  127.7440  128.5960   57.4490 C   0  0  0  0  0  0  0  0  0  0  0  0
  126.5410  129.5250   57.5290 C   0  0  0  0  0  0  0  0  0  0  0  0
  126.0530  129.9210   58.7780 C   0  0  0  0  0  0  0  0  0  0  0  0
  124.9480  130.7630   58.8600 C   0  0  0  0  0  0  0  0  0  0  0  0
  124.3290  131.2060   57.6910 C   0  0  0  0  0  0  0  0  0  0  0  0
  124.8040  130.8100   56.4430 C   0  0  0  0  0  0  0  0  0  0  0  0
  125.9090  129.9670   56.3620 C   0  0  0  0  0  0  0  0  0  0  0  0
  130.6570  127.7340   57.1330 C   0  0  2  0  0  0  0  0  0  0  0  0
  131.6820  128.2890   57.9530 O   0  0  0  0  0  0  0  0  0  0  0  0
  131.9990  129.6540   57.7040 C   0  0  0  0  0  0  0  0  0  0  0  0
  132.1290  130.4050   59.0200 C   0  0  0  0  0  0  0  0  0  0  0  0
  133.3840  130.8340   59.4640 C   0  0  0  0  0  0  0  0  0  0  0  0
  133.4970  131.5300   60.6650 C   0  0  0  0  0  0  0  0  0  0  0  0
  132.3560  131.7980   61.4180 C   0  0  0  0  0  0  0  0  0  0  0  0
  131.1020  131.3790   60.9800 C   0  0  0  0  0  0  0  0  0  0  0  0
  130.9880  130.6830   59.7780 C   0  0  0  0  0  0  0  0  0  0  0  0
  129.8850  124.0900   55.4880 C   0  0  0  0  0  0  0  0  0  0  0  0
  129.3500  123.3300   54.4350 C   0  0  0  0  0  0  0  0  0  0  0  0
  128.0510  122.8350   54.5090 C   0  0  0  0  0  0  0  0  0  0  0  0
  127.2530  123.0860   55.6330 C   0  0  0  0  0  0  0  0  0  0  0  0
  125.8710  122.5560   55.7110 N   0  0  0  0  0  0  0  0  0  0  0  0
  124.9420  123.2800   55.3640 O   0  0  0  0  0  0  0  0  0  0  0  0
  125.7020  121.4100   56.1200 O   0  0  0  0  0  0  0  0  0  0  0  0
  127.7870  123.8460   56.6810 C   0  0  0  0  0  0  0  0  0  0  0  0
  129.0850  124.3420   56.6100 C   0  0  0  0  0  0  0  0  0  0  0  0
  1  2  2  0
  2  3  1  0
  4  3  1  1
  4  5  1  0
  5  6  1  0
  6  7  1  6
  7  8  1  0
  8  9  1  0
  9 10  1  0
 10 11  2  0
 11 12  1  0
 12 13  2  0
 13 14  1  0
 14 15  2  0
  6 16  1  0
 16 17  1  1
 17 18  1  0
 18 19  1  0
 19 20  2  0
 20 21  1  0
 21 22  2  0
 22 23  1  0
 23 24  2  0
 16 25  1  0
 25 26  1  1
 26 27  1  0
 27 28  1  0
 28 29  2  0
 29 30  1  0
 30 31  2  0
 31 32  1  0
 32 33  2  0
  2 34  1  0
 34 35  2  0
 35 36  1  0
 36 37  2  0
 37 38  1  0
 38 39  2  0
 38 40  1  0
 37 41  1  0
 41 42  2  0
 25  4  1  0
 33 28  1  0
 42 34  1  0
 15 10  1  0
 24 19  1  0
M  CHG  2  38   1  40  -1
M  END
>  <Binding energies>  (55) 
[-9.73]

>  <Ligand effiencies>  (55) 
[-0.2316666666666667]

>  <Interactions>  (55) 
["V-A:GLU:543:CD:4905, V-B:TYR:539:CE1:9844, V-B:TYR:539:CZ:9846, V-B:TYR:539:CD1:9842, V-B:MET:535:CE:9804, V-A:TYR:531:CZ:4791, V-A:PRO:540:CA:4880, V-A:TYR:539:CD2:4871, V-A:ASP:366:CG:3209, V-A:ASP:366:CB:3208, V-A:TYR:539:CE2:4873, H-A:TYR:531:OH:4792, V-A:PRO:540:C:4878, V-A:TYR:539:C:4864, V-A:PRO:540:N:4881, V-A:PRO:540:CB:4882, V-B:ILE:369:CG2:8205, V-A:ILE:538:CD1:4862, V-A:TYR:539:CZ:4874, V-B:ASP:366:CB:8180, H-B:TYR:539:OH:9847, V-B:ASP:366:CG:8181, V-B:TYR:531:CE1:9761, V-A:LEU:363:CA:3181, V-A:ASN:362:C:3168, H-B:TYR:539:N:9839, V-B:ILE:538:CB:9831, V-B:ILE:538:CA:9829, V-A:TYR:531:CE1:4789, V-B:ILE:538:CG2:9832, V-A:ASN:362:CB:3172, V-B:TYR:531:CZ:9763, V-A:MET:535:CE:4832, V-A:ASN:362:CA:3170, V-A:ILE:538:CG2:4860, V-B:PRO:540:CD:9856"]

$$$$
RR8_B_Rahimova_2017
     RDKit          3D

 42 46  0  0  0  0  0  0  0  0999 V2000
  130.4030  133.0090   55.0660 O   0  0  0  0  0  0  0  0  0  0  0  0
  129.8750  132.3790   55.9880 C   0  0  0  0  0  0  0  0  0  0  0  0
  128.5900  131.9120   55.9680 O   0  0  0  0  0  0  0  0  0  0  0  0
  128.2460  130.9540   54.9970 C   0  0  2  0  0  0  0  0  0  0  0  0
  126.8690  130.9370   54.7460 O   0  0  0  0  0  0  0  0  0  0  0  0
  126.1970  129.9960   55.5820 C   0  0  2  0  0  0  0  0  0  0  0  0
  125.1220  130.7200   56.4100 C   0  0  0  0  0  0  0  0  0  0  0  0
  125.3390  130.4580   57.7910 O   0  0  0  0  0  0  0  0  0  0  0  0
  124.4530  131.1290   58.6740 C   0  0  0  0  0  0  0  0  0  0  0  0
  125.2160  132.2110   59.4230 C   0  0  0  0  0  0  0  0  0  0  0  0
  124.5350  133.0600   60.3010 C   0  0  0  0  0  0  0  0  0  0  0  0
  125.2220  134.0680   60.9710 C   0  0  0  0  0  0  0  0  0  0  0  0
  126.5910  134.2230   60.7620 C   0  0  0  0  0  0  0  0  0  0  0  0
  127.2780  133.3780   59.8940 C   0  0  0  0  0  0  0  0  0  0  0  0
  126.5900  132.3710   59.2210 C   0  0  0  0  0  0  0  0  0  0  0  0
  127.3210  129.3380   56.3910 C   0  0  1  0  0  0  0  0  0  0  0  0
  127.0180  127.9570   56.6100 O   0  0  0  0  0  0  0  0  0  0  0  0
  126.5280  127.5960   57.9040 C   0  0  0  0  0  0  0  0  0  0  0  0
  125.9500  126.1850   57.9290 C   0  0  0  0  0  0  0  0  0  0  0  0
  126.6120  125.1440   57.2720 C   0  0  0  0  0  0  0  0  0  0  0  0
  126.0990  123.8500   57.3250 C   0  0  0  0  0  0  0  0  0  0  0  0
  124.9230  123.6030   58.0300 C   0  0  0  0  0  0  0  0  0  0  0  0
  124.2550  124.6370   58.6830 C   0  0  0  0  0  0  0  0  0  0  0  0
  124.7700  125.9300   58.6340 C   0  0  0  0  0  0  0  0  0  0  0  0
  128.5580  129.5560   55.5270 C   0  0  2  0  0  0  0  0  0  0  0  0
  129.7380  129.4940   56.3240 O   0  0  0  0  0  0  0  0  0  0  0  0
  129.8140  128.3990   57.2250 C   0  0  0  0  0  0  0  0  0  0  0  0
  130.5930  127.2830   56.5520 C   0  0  0  0  0  0  0  0  0  0  0  0
  131.9900  127.3220   56.5110 C   0  0  0  0  0  0  0  0  0  0  0  0
  132.6930  126.3020   55.8740 C   0  0  0  0  0  0  0  0  0  0  0  0
  132.0000  125.2500   55.2810 C   0  0  0  0  0  0  0  0  0  0  0  0
  130.6070  125.2050   55.3190 C   0  0  0  0  0  0  0  0  0  0  0  0
  129.9030  126.2230   55.9560 C   0  0  0  0  0  0  0  0  0  0  0  0
  130.5760  132.0720   57.2790 C   0  0  0  0  0  0  0  0  0  0  0  0
  129.9140  132.1410   58.5140 C   0  0  0  0  0  0  0  0  0  0  0  0
  130.5910  131.8600   59.6960 C   0  0  0  0  0  0  0  0  0  0  0  0
  131.9470  131.5120   59.6760 C   0  0  0  0  0  0  0  0  0  0  0  0
  132.6740  131.2380   60.9400 N   0  0  0  0  0  0  0  0  0  0  0  0
  133.5390  130.3660   60.9450 O   0  0  0  0  0  0  0  0  0  0  0  0
  132.3900  131.8980   61.9370 O   0  0  0  0  0  0  0  0  0  0  0  0
  132.6070  131.4370   58.4420 C   0  0  0  0  0  0  0  0  0  0  0  0
  131.9290  131.7110   57.2590 C   0  0  0  0  0  0  0  0  0  0  0  0
  1  2  2  0
  2  3  1  0
  4  3  1  1
  4  5  1  0
  5  6  1  0
  6  7  1  1
  7  8  1  0
  8  9  1  0
  9 10  1  0
 10 11  2  0
 11 12  1  0
 12 13  2  0
 13 14  1  0
 14 15  2  0
  6 16  1  0
 16 17  1  6
 17 18  1  0
 18 19  1  0
 19 20  2  0
 20 21  1  0
 21 22  2  0
 22 23  1  0
 23 24  2  0
 16 25  1  0
 25 26  1  1
 26 27  1  0
 27 28  1  0
 28 29  2  0
 29 30  1  0
 30 31  2  0
 31 32  1  0
 32 33  2  0
  2 34  1  0
 34 35  2  0
 35 36  1  0
 36 37  2  0
 37 38  1  0
 38 39  2  0
 38 40  1  0
 37 41  1  0
 41 42  2  0
 25  4  1  0
 33 28  1  0
 42 34  1  0
 15 10  1  0
 24 19  1  0
M  CHG  2  38   1  40  -1
M  END
>  <Binding energies>  (56) 
[-10.1]

>  <Ligand effiencies>  (56) 
[-0.24047619047619045]

>  <Interactions>  (56) 
["V-A:GLU:543:CD:4905, V-B:PRO:540:CA:9852, H-B:TYR:531:OH:9764, V-B:PRO:540:CB:9854, V-B:MET:535:CE:9804, V-A:TYR:531:CZ:4791, V-A:PRO:540:CA:4880, V-A:TYR:539:CD2:4871, V-A:ASP:366:CB:3208, V-A:TYR:539:CE2:4873, V-B:LEU:475:CD2:9227, H-A:TYR:531:OH:4792, V-A:PRO:540:C:4878, V-A:TYR:539:C:4864, V-A:PRO:540:N:4881, V-A:PRO:540:CB:4882, V-B:ILE:369:CG2:8205, H-A:ALA:541:N:4888, V-A:ILE:538:CD1:4862, H-A:TYR:539:N:4867, V-A:TYR:539:CZ:4874, V-B:ILE:369:CD1:8207, V-B:ASP:366:CB:8180, V-B:LEU:363:CD1:8157, V-B:LEU:363:CA:8153, V-B:ASP:366:CG:8181, V-B:TYR:531:CE1:9761, H-A:TYR:539:OH:4875, V-A:TYR:531:CE1:4789, V-A:ASP:366:C:3204, V-B:ASP:366:CA:8178, V-A:ASN:362:CB:3172, V-B:TYR:531:CZ:9763, V-A:ASP:366:CA:3206, H-A:LEU:363:N:3182, H-A:ARG:545:NH2:4925"]

$$$$
RR9_Rahimova_2017
     RDKit          3D

 36 40  0  0  0  0  0  0  0  0999 V2000
  124.1140  133.2960   62.5330 C   0  0  0  0  0  0  0  0  0  0  0  0
  123.6990  131.8210   62.4940 C   0  0  0  0  0  0  0  0  0  0  0  0
  124.1550  131.1860   63.6850 O   0  0  0  0  0  0  0  0  0  0  0  0
  125.1790  130.2610   63.6110 C   0  0  0  0  0  0  0  0  0  0  0  0
  125.6070  129.9050   62.3340 C   0  0  0  0  0  0  0  0  0  0  0  0
  126.6310  128.9790   62.1620 C   0  0  0  0  0  0  0  0  0  0  0  0
  127.2570  128.3820   63.2650 C   0  0  0  0  0  0  0  0  0  0  0  0
  128.3590  127.3800   63.0860 C   0  0  0  0  0  0  0  0  0  0  0  0
  128.2640  126.3430   62.1450 C   0  0  0  0  0  0  0  0  0  0  0  0
  129.3050  125.4130   61.9710 C   0  0  0  0  0  0  0  0  0  0  0  0
  129.1860  124.3870   60.8770 C   0  0  0  0  0  0  0  0  0  0  0  0
  129.8710  124.4820   59.8580 O   0  0  0  0  0  0  0  0  0  0  0  0
  128.2850  123.4080   61.0880 N   0  0  0  0  0  0  0  0  0  0  0  0
  127.8960  122.3750   60.1210 C   0  0  0  0  0  0  0  0  0  0  0  0
  127.1320  122.9430   58.9030 C   0  0  0  0  0  0  0  0  0  0  0  0
  125.8320  123.6620   59.2460 C   0  0  0  0  0  0  0  0  0  0  0  0
  125.1320  124.3580   58.2540 C   0  0  0  0  0  0  0  0  0  0  0  0
  123.9280  124.9850   58.5630 C   0  0  0  0  0  0  0  0  0  0  0  0
  123.4300  124.9190   59.8620 C   0  0  0  0  0  0  0  0  0  0  0  0
  124.1240  124.2320   60.8560 C   0  0  0  0  0  0  0  0  0  0  0  0
  125.3280  123.6040   60.5480 C   0  0  0  0  0  0  0  0  0  0  0  0
  130.4290  125.5650   62.8200 C   0  0  0  0  0  0  0  0  0  0  0  0
  131.6890  124.9100   63.0820 C   0  0  0  0  0  0  0  0  0  0  0  0
  132.2410  123.6490   62.5040 C   0  0  0  0  0  0  0  0  0  0  0  0
  133.5880  123.5740   62.1350 C   0  0  0  0  0  0  0  0  0  0  0  0
  134.0970  122.4020   61.5810 C   0  0  0  0  0  0  0  0  0  0  0  0
  133.2620  121.2990   61.3970 C   0  0  0  0  0  0  0  0  0  0  0  0
  133.8120  120.0280   60.7760 C   0  0  0  0  0  0  0  0  0  0  0  0
  131.9160  121.3700   61.7620 C   0  0  0  0  0  0  0  0  0  0  0  0
  131.4100  122.5410   62.3180 C   0  0  0  0  0  0  0  0  0  0  0  0
  132.3740  125.5730   63.9860 N   0  0  0  0  0  0  0  0  0  0  0  0
  131.6250  126.6090   64.3950 N   0  0  0  0  0  0  0  0  0  0  0  0
  130.4230  126.6500   63.7280 C   0  0  0  0  0  0  0  0  0  0  0  0
  129.4460  127.5410   63.8910 N   0  0  0  0  0  0  0  0  0  0  0  0
  126.8200  128.7440   64.5470 C   0  0  0  0  0  0  0  0  0  0  0  0
  125.7960  129.6720   64.7230 C   0  0  0  0  0  0  0  0  0  0  0  0
  1  2  1  0
  2  3  1  0
  3  4  1  0
  4  5  2  0
  5  6  1  0
  6  7  2  0
  7  8  1  0
  8  9  2  0
  9 10  1  0
 10 11  1  0
 11 12  2  0
 11 13  1  0
 13 14  1  0
 14 15  1  0
 15 16  1  0
 16 17  2  0
 17 18  1  0
 18 19  2  0
 19 20  1  0
 20 21  2  0
 10 22  2  0
 22 23  1  0
 23 24  1  0
 24 25  2  0
 25 26  1  0
 26 27  2  0
 27 28  1  0
 27 29  1  0
 29 30  2  0
 23 31  2  0
 31 32  1  0
 32 33  1  0
 33 34  2  0
  7 35  1  0
 35 36  2  0
 36  4  1  0
 34  8  1  0
 21 16  1  0
 33 22  1  0
 30 24  1  0
M  END
>  <Binding energies>  (57) 
[-9.12]

>  <Ligand effiencies>  (57) 
[-0.24]

>  <Interactions>  (57) 
["V-A:GLU:543:CD:4905, V-A:LEU:475:CD1:4254, V-B:TYR:539:CE2:9845, V-B:PRO:540:CA:9852, V-B:PRO:540:N:9853, V-B:GLU:543:CD:9877, V-B:ALA:541:CB:9861, V-B:PRO:540:CB:9854, V-B:LEU:475:CD2:9227, H-B:GLU:543:OE2:9879, V-B:ILE:369:CD1:8207, V-B:ASN:362:CB:8144, V-B:ASP:366:CB:8180, V-B:LEU:363:CD1:8157, V-B:ASN:362:C:8140, V-A:ARG:545:CZ:4923, V-B:LEU:363:CA:8153, V-B:ASP:366:CG:8181, V-A:GLY:454:CA:4045, V-B:PRO:540:C:9850, V-A:ILE:369:CG2:3233, V-A:ILE:369:CG1:3234, V-B:GLY:454:CA:9017, H-A:GLU:543:OE1:4906, H-B:GLY:454:N:9018, H-A:ARG:545:NH2:4925, H-A:ARG:545:NE:4921"]

$$$$
