1a_Grossjean_2025
     RDKit          3D

 26 27  0  0  0  0  0  0  0  0999 V2000
  128.2380  128.7000   67.3690 C   0  0  0  0  0  0  0  0  0  0  0  0
  129.1570  128.5750   68.5870 C   0  0  0  0  0  0  0  0  0  0  0  0
  130.1450  127.5840   68.3360 O   0  0  0  0  0  0  0  0  0  0  0  0
  129.7990  126.2870   68.1270 C   0  0  0  0  0  0  0  0  0  0  0  0
  129.0870  125.6400   68.9010 O   0  0  0  0  0  0  0  0  0  0  0  0
  130.3850  125.7120   66.8700 C   0  0  0  0  0  0  0  0  0  0  0  0
  131.6600  126.1220   66.4590 C   0  0  0  0  0  0  0  0  0  0  0  0
  132.2280  125.6110   65.2960 C   0  0  0  0  0  0  0  0  0  0  0  0
  131.5340  124.6830   64.5180 C   0  0  0  0  0  0  0  0  0  0  0  0
  132.2020  124.2350   63.3620 N   0  0  0  0  0  0  0  0  0  0  0  0
  133.4880  124.3980   62.9840 C   0  0  0  0  0  0  0  0  0  0  0  0
  134.3500  125.0010   63.6230 O   0  0  0  0  0  0  0  0  0  0  0  0
  133.8620  123.7660   61.6420 C   0  0  0  0  0  0  0  0  0  0  0  0
  134.0970  121.9680   61.7730 S   0  0  0  0  0  0  0  0  0  0  0  0
  132.4980  121.2070   61.6030 C   0  0  0  0  0  0  0  0  0  0  0  0
  131.4690  122.0010   61.9910 N   0  0  0  0  0  0  0  0  0  0  0  0
  130.2070  121.5180   61.9070 C   0  0  0  0  0  0  0  0  0  0  0  0
  129.1090  122.4580   62.3710 C   0  0  0  0  0  0  0  0  0  0  0  0
  129.9200  120.2420   61.4290 C   0  0  0  0  0  0  0  0  0  0  0  0
  130.9720  119.4220   61.0070 C   0  0  0  0  0  0  0  0  0  0  0  0
  130.6330  118.0320   60.4720 C   0  0  0  0  0  0  0  0  0  0  0  0
  132.2990  119.9060   61.0810 C   0  0  0  0  0  0  0  0  0  0  0  0
  133.4120  119.0840   60.5990 C   0  0  0  0  0  0  0  0  0  0  0  0
  134.2890  118.4330   60.2180 N   0  0  0  0  0  0  0  0  0  0  0  0
  130.2600  124.2600   64.9260 C   0  0  0  0  0  0  0  0  0  0  0  0
  129.6930  124.7720   66.0890 C   0  0  0  0  0  0  0  0  0  0  0  0
  1  2  1  0
  2  3  1  0
  3  4  1  0
  4  5  2  0
  4  6  1  0
  6  7  2  0
  7  8  1  0
  8  9  2  0
  9 10  1  0
 10 11  1  0
 11 12  2  0
 11 13  1  0
 13 14  1  0
 14 15  1  0
 15 16  2  0
 16 17  1  0
 17 18  1  0
 17 19  2  0
 19 20  1  0
 20 21  1  0
 20 22  2  0
 22 23  1  0
 23 24  3  0
  9 25  1  0
 25 26  2  0
 26  6  1  0
 22 15  1  0
M  END
>  <Binding energies>  (1) 
[-7.34]

>  <Ligand effiencies>  (1) 
[-0.27185185185185184]

>  <Interactions>  (1) 
["V-A:ILE:369:CG2:3236, V-B:TYR:539:CD2:9846, V-A:PRO:482:CG:4326, V-B:PRO:540:C:9853, V-A:LEU:475:CD1:4257, V-B:ALA:541:CA:9862, V-A:SER:385:CA:3406, V-B:TYR:539:C:9839, V-B:ALA:541:CB:9864, V-B:GLU:543:CD:9880, V-A:ARG:545:CZ:4926, V-B:GLU:543:CB:9878, V-A:GLU:543:CB:4906, V-A:HIS:456:CE1:4069, V-B:HIS:456:CE1:9041, H-A:GLY:454:N:4049, V-A:GLU:543:C:4902, V-B:GLU:543:CG:9879, V-A:GLU:543:CD:4908, V-A:GLU:543:CG:4907, H-A:ARG:545:NH1:4927, V-A:ILE:369:CD1:3238, V-A:TYR:484:CE2:4345, V-A:TYR:484:CZ:4346, H-A:ARG:545:NH2:4928, H-A:HIS:383:NE2:3393, H-A:SER:385:OG:3409"]

$$$$
1aa_Ghoteimi_2023
     RDKit          3D

 40 43  0  0  0  0  0  0  0  0999 V2000
  133.5670  130.6220   58.8570 C   0  0  0  0  0  0  0  0  0  0  0  0
  132.6760  130.9010   57.6430 C   0  0  0  0  0  0  0  0  0  0  0  0
  131.6460  131.8100   58.0100 O   0  0  0  0  0  0  0  0  0  0  0  0
  130.4990  131.8990   57.2890 C   0  0  0  0  0  0  0  0  0  0  0  0
  130.2530  132.8270   56.5130 O   0  0  0  0  0  0  0  0  0  0  0  0
  129.5570  130.7540   57.5290 C   0  0  0  0  0  0  0  0  0  0  0  0
  128.8300  130.6280   58.7220 C   0  0  0  0  0  0  0  0  0  0  0  0
  127.9630  129.5550   58.9160 C   0  0  0  0  0  0  0  0  0  0  0  0
  127.8050  128.5880   57.9130 C   0  0  0  0  0  0  0  0  0  0  0  0
  126.9610  127.4650   57.9980 N   0  0  0  0  0  0  0  0  0  0  0  0
  125.6130  127.3850   58.0790 C   0  0  0  0  0  0  0  0  0  0  0  0
  124.8510  128.3520   58.0870 O   0  0  0  0  0  0  0  0  0  0  0  0
  124.9940  125.9810   58.1640 C   0  0  0  0  0  0  0  0  0  0  0  0
  126.0170  124.9780   58.1130 O   0  0  0  0  0  0  0  0  0  0  0  0
  126.8920  124.8120   59.1780 C   0  0  0  0  0  0  0  0  0  0  0  0
  126.8660  125.7360   60.1780 N   0  0  0  0  0  0  0  0  0  0  0  0
  127.7170  125.6160   61.2310 C   0  0  0  0  0  0  0  0  0  0  0  0
  127.6240  126.6730   62.2930 C   0  0  0  0  0  0  0  0  0  0  0  0
  126.6970  127.7210   62.1890 C   0  0  0  0  0  0  0  0  0  0  0  0
  126.6100  128.7040   63.1710 C   0  0  0  0  0  0  0  0  0  0  0  0
  127.4440  128.6700   64.2870 C   0  0  0  0  0  0  0  0  0  0  0  0
  127.2870  129.6870   65.2090 O   0  0  0  0  0  0  0  0  0  0  0  0
  127.5560  129.4260   66.5820 C   0  0  0  0  0  0  0  0  0  0  0  0
  128.3720  127.6260   64.4070 C   0  0  0  0  0  0  0  0  0  0  0  0
  128.4560  126.6450   63.4240 C   0  0  0  0  0  0  0  0  0  0  0  0
  128.6080  124.5390   61.3080 C   0  0  0  0  0  0  0  0  0  0  0  0
  128.6480  123.5690   60.2980 C   0  0  0  0  0  0  0  0  0  0  0  0
  129.6140  122.4390   60.4440 C   0  0  0  0  0  0  0  0  0  0  0  0
  129.2390  121.2770   61.1260 C   0  0  0  0  0  0  0  0  0  0  0  0
  130.1300  120.2160   61.2580 C   0  0  0  0  0  0  0  0  0  0  0  0
  131.4100  120.2920   60.7090 C   0  0  0  0  0  0  0  0  0  0  0  0
  132.2260  119.1910   60.8900 O   0  0  0  0  0  0  0  0  0  0  0  0
  133.6260  119.3230   60.6770 C   0  0  0  0  0  0  0  0  0  0  0  0
  131.7870  121.4520   60.0170 C   0  0  0  0  0  0  0  0  0  0  0  0
  130.8950  122.5130   59.8860 C   0  0  0  0  0  0  0  0  0  0  0  0
  127.7700  123.7160   59.1980 C   0  0  0  0  0  0  0  0  0  0  0  0
  127.7700  122.7770   58.0750 C   0  0  0  0  0  0  0  0  0  0  0  0
  127.7680  122.0360   57.1860 N   0  0  0  0  0  0  0  0  0  0  0  0
  128.5280  128.7090   56.7260 C   0  0  0  0  0  0  0  0  0  0  0  0
  129.3950  129.7810   56.5340 C   0  0  0  0  0  0  0  0  0  0  0  0
  1  2  1  0
  2  3  1  0
  3  4  1  0
  4  5  2  0
  4  6  1  0
  6  7  2  0
  7  8  1  0
  8  9  2  0
  9 10  1  0
 10 11  1  0
 11 12  2  0
 11 13  1  0
 13 14  1  0
 14 15  1  0
 15 16  2  0
 16 17  1  0
 17 18  1  0
 18 19  2  0
 19 20  1  0
 20 21  2  0
 21 22  1  0
 22 23  1  0
 21 24  1  0
 24 25  2  0
 17 26  2  0
 26 27  1  0
 27 28  1  0
 28 29  2  0
 29 30  1  0
 30 31  2  0
 31 32  1  0
 32 33  1  0
 31 34  1  0
 34 35  2  0
 27 36  2  0
 36 37  1  0
 37 38  3  0
  9 39  1  0
 39 40  2  0
 40  6  1  0
 36 15  1  0
 25 18  1  0
 35 28  1  0
M  END
>  <Binding energies>  (2) 
[-6.67]

>  <Ligand effiencies>  (2) 
[-0.1626829268292683]

>  <Interactions>  (2) 
["V-A:ILE:369:CG2:3236, V-B:TYR:539:CE2:9848, V-B:PRO:540:N:9856, V-B:TYR:539:CD2:9846, V-B:PRO:540:CA:9855, V-B:PRO:540:C:9853, V-B:MET:535:CE:9807, H-B:TYR:539:N:9842, H-B:TYR:531:OH:9767, V-B:ALA:541:CA:9862, V-A:SER:385:CA:3406, V-A:SER:385:C:3404, V-B:TYR:539:C:9839, V-B:ALA:541:CB:9864, V-B:GLU:543:CD:9880, V-B:HIS:456:CE1:9041, V-B:TYR:484:CE2:9317, V-A:GLU:543:CD:4908, V-A:GLU:543:CG:4907, V-A:ASP:366:CG:3212, V-A:ASP:366:CB:3211, V-B:ASP:366:CB:8183, V-B:ASP:366:CG:8184, V-A:TYR:539:C:4867, H-A:TYR:539:N:4870, V-A:PRO:540:CA:4883, V-B:TYR:531:CZ:9766, V-B:TYR:531:CE2:9765, V-A:PRO:540:CB:4885, V-A:PRO:540:N:4884, V-A:ASN:362:C:3171, V-A:LEU:363:CD1:3188, V-A:LEU:363:CA:3184, V-A:LEU:363:CB:3186"]

$$$$
1b_Grossjean_2025
     RDKit          3D

 25 26  0  0  0  0  0  0  0  0999 V2000
  125.1090  124.0980   57.9600 C   0  0  0  0  0  0  0  0  0  0  0  0
  126.1340  123.8610   57.0040 O   0  0  0  0  0  0  0  0  0  0  0  0
  126.9040  122.7450   57.0690 C   0  0  0  0  0  0  0  0  0  0  0  0
  126.5590  121.6520   56.6080 O   0  0  0  0  0  0  0  0  0  0  0  0
  128.2230  122.9720   57.7510 C   0  0  0  0  0  0  0  0  0  0  0  0
  128.5710  122.3070   58.9360 C   0  0  0  0  0  0  0  0  0  0  0  0
  129.8010  122.5420   59.5430 C   0  0  0  0  0  0  0  0  0  0  0  0
  130.7080  123.4400   58.9820 C   0  0  0  0  0  0  0  0  0  0  0  0
  131.9190  123.6000   59.6820 N   0  0  0  0  0  0  0  0  0  0  0  0
  133.1890  123.6530   59.2230 C   0  0  0  0  0  0  0  0  0  0  0  0
  133.5270  123.5730   58.0430 O   0  0  0  0  0  0  0  0  0  0  0  0
  134.2650  123.8410   60.2940 C   0  0  0  0  0  0  0  0  0  0  0  0
  134.3770  122.4110   61.4120 S   0  0  0  0  0  0  0  0  0  0  0  0
  132.7730  122.1900   62.1530 C   0  0  0  0  0  0  0  0  0  0  0  0
  132.0420  121.1980   61.5860 N   0  0  0  0  0  0  0  0  0  0  0  0
  130.8050  120.9430   62.0740 C   0  0  0  0  0  0  0  0  0  0  0  0
  130.0520  119.8100   61.4020 C   0  0  0  0  0  0  0  0  0  0  0  0
  130.2490  121.6650   63.1270 C   0  0  0  0  0  0  0  0  0  0  0  0
  130.9860  122.7040   63.7030 C   0  0  0  0  0  0  0  0  0  0  0  0
  130.3490  123.4930   64.8460 C   0  0  0  0  0  0  0  0  0  0  0  0
  132.2800  122.9890   63.2110 C   0  0  0  0  0  0  0  0  0  0  0  0
  133.0540  124.1010   63.7680 C   0  0  0  0  0  0  0  0  0  0  0  0
  133.6620  124.9800   64.2110 N   0  0  0  0  0  0  0  0  0  0  0  0
  130.3680  124.1090   57.7960 C   0  0  0  0  0  0  0  0  0  0  0  0
  129.1380  123.8740   57.1900 C   0  0  0  0  0  0  0  0  0  0  0  0
  1  2  1  0
  2  3  1  0
  3  4  2  0
  3  5  1  0
  5  6  2  0
  6  7  1  0
  7  8  2  0
  8  9  1  0
  9 10  1  0
 10 11  2  0
 10 12  1  0
 12 13  1  0
 13 14  1  0
 14 15  2  0
 15 16  1  0
 16 17  1  0
 16 18  2  0
 18 19  1  0
 19 20  1  0
 19 21  2  0
 21 22  1  0
 22 23  3  0
  8 24  1  0
 24 25  2  0
 25  5  1  0
 21 14  1  0
M  END
>  <Binding energies>  (3) 
[-7.69]

>  <Ligand effiencies>  (3) 
[-0.2957692307692308]

>  <Interactions>  (3) 
["V-A:ILE:369:CG2:3236, V-B:TYR:539:CE2:9848, V-B:PRO:540:N:9856, V-B:TYR:539:CZ:9849, V-B:TYR:539:CD2:9846, V-B:PRO:540:CA:9855, V-B:PRO:540:C:9853, V-B:MET:535:CE:9807, H-B:TYR:539:N:9842, V-A:LEU:475:CD1:4257, H-B:TYR:531:OH:9767, V-B:ALA:541:CA:9862, V-B:TYR:539:C:9839, V-B:ALA:541:CB:9864, V-A:GLY:454:CA:4048, H-A:TYR:484:OH:4347, H-A:GLY:454:N:4049, V-B:GLU:543:CG:9879, V-A:ASP:366:CG:3212, H-A:ARG:545:NH1:4927, V-A:ILE:369:CD1:3238, V-A:TYR:484:CE2:4345, V-A:ASP:366:CB:3211, V-A:ASP:366:CA:3209, V-A:TYR:484:CZ:4346, V-A:ILE:369:CB:3235, H-A:ARG:545:NH2:4928, V-B:TYR:531:CE2:9765, V-B:LEU:363:CD1:8160, H-B:TYR:539:OH:9850"]

$$$$
1c_Grossjean_2025
     RDKit          3D

 23 24  0  0  0  0  0  0  0  0999 V2000
  128.5600  126.6370   68.3030 C   0  0  0  0  0  0  0  0  0  0  0  0
  129.9610  126.3880   68.2640 O   0  0  0  0  0  0  0  0  0  0  0  0
  130.5340  125.9520   67.0840 C   0  0  0  0  0  0  0  0  0  0  0  0
  129.7290  125.1750   66.2510 C   0  0  0  0  0  0  0  0  0  0  0  0
  130.2160  124.6900   65.0410 C   0  0  0  0  0  0  0  0  0  0  0  0
  131.5280  124.9870   64.6440 C   0  0  0  0  0  0  0  0  0  0  0  0
  132.1240  124.5400   63.4480 N   0  0  0  0  0  0  0  0  0  0  0  0
  133.4190  124.5790   63.0700 C   0  0  0  0  0  0  0  0  0  0  0  0
  134.3490  125.0180   63.7470 O   0  0  0  0  0  0  0  0  0  0  0  0
  133.7130  124.0140   61.6780 C   0  0  0  0  0  0  0  0  0  0  0  0
  134.0020  122.2200   61.7240 S   0  0  0  0  0  0  0  0  0  0  0  0
  132.4310  121.3930   61.5880 C   0  0  0  0  0  0  0  0  0  0  0  0
  131.3910  122.1310   62.0550 N   0  0  0  0  0  0  0  0  0  0  0  0
  130.1450  121.6050   62.0050 C   0  0  0  0  0  0  0  0  0  0  0  0
  129.0330  122.4910   62.5350 C   0  0  0  0  0  0  0  0  0  0  0  0
  129.8860  120.3320   61.5020 C   0  0  0  0  0  0  0  0  0  0  0  0
  130.9520  119.5540   61.0410 C   0  0  0  0  0  0  0  0  0  0  0  0
  130.6450  118.1540   60.5110 C   0  0  0  0  0  0  0  0  0  0  0  0
  132.2640  120.0810   61.0860 C   0  0  0  0  0  0  0  0  0  0  0  0
  133.4000  119.2600   60.6590 C   0  0  0  0  0  0  0  0  0  0  0  0
  134.2960  118.6120   60.3210 N   0  0  0  0  0  0  0  0  0  0  0  0
  132.3410  125.7550   65.4800 C   0  0  0  0  0  0  0  0  0  0  0  0
  131.8500  126.2370   66.6900 C   0  0  0  0  0  0  0  0  0  0  0  0
  1  2  1  0
  2  3  1  0
  3  4  2  0
  4  5  1  0
  5  6  2  0
  6  7  1  0
  7  8  1  0
  8  9  2  0
  8 10  1  0
 10 11  1  0
 11 12  1  0
 12 13  2  0
 13 14  1  0
 14 15  1  0
 14 16  2  0
 16 17  1  0
 17 18  1  0
 17 19  2  0
 19 20  1  0
 20 21  3  0
  6 22  1  0
 22 23  2  0
 23  3  1  0
 19 12  1  0
M  END
>  <Binding energies>  (4) 
[-6.87]

>  <Ligand effiencies>  (4) 
[-0.28625]

>  <Interactions>  (4) 
["V-A:ILE:369:CG2:3236, V-B:TYR:539:CD2:9846, V-A:PRO:482:CG:4326, V-B:PRO:540:C:9853, V-A:LEU:475:CD1:4257, V-B:ALA:541:CA:9862, V-A:SER:385:CA:3406, V-B:TYR:539:C:9839, V-B:ALA:541:CB:9864, V-B:GLU:543:CD:9880, V-A:ARG:545:CZ:4926, V-B:GLU:543:CB:9878, V-A:HIS:456:CE1:4069, V-B:HIS:456:CE1:9041, H-A:GLY:454:N:4049, V-B:GLU:543:CG:9879, V-A:ASP:366:CG:3212, H-A:ARG:545:NH1:4927, V-A:TYR:484:CE2:4345, H-A:ARG:545:NH2:4928, H-A:HIS:383:NE2:3393, H-A:SER:385:OG:3409"]

$$$$
1d_Grossjean_2025
     RDKit          3D

 21 22  0  0  0  0  0  0  0  0999 V2000
  128.5010  126.5580   67.9060 C   0  0  0  0  0  0  0  0  0  0  0  0
  129.6730  126.1700   67.0250 C   0  0  0  0  0  0  0  0  0  0  0  0
  130.9840  126.2120   67.4940 C   0  0  0  0  0  0  0  0  0  0  0  0
  132.0250  125.8330   66.6400 C   0  0  0  0  0  0  0  0  0  0  0  0
  133.4520  125.8710   67.1820 C   0  0  0  0  0  0  0  0  0  0  0  0
  131.7220  125.4260   65.3200 C   0  0  0  0  0  0  0  0  0  0  0  0
  132.7900  124.9800   64.4230 C   0  0  0  0  0  0  0  0  0  0  0  0
  133.6370  124.6280   63.7170 N   0  0  0  0  0  0  0  0  0  0  0  0
  130.3650  125.4390   64.9210 C   0  0  0  0  0  0  0  0  0  0  0  0
  129.8050  124.9610   63.3010 S   0  0  0  0  0  0  0  0  0  0  0  0
  129.0660  123.3060   63.4480 C   0  0  0  0  0  0  0  0  0  0  0  0
  128.1770  122.9640   62.2520 C   0  0  0  0  0  0  0  0  0  0  0  0
  128.4550  121.9850   61.5580 O   0  0  0  0  0  0  0  0  0  0  0  0
  127.1150  123.7780   62.0680 N   0  0  0  0  0  0  0  0  0  0  0  0
  126.1240  123.7560   61.0700 C   0  0  0  0  0  0  0  0  0  0  0  0
  126.5710  123.9890   59.7660 C   0  0  0  0  0  0  0  0  0  0  0  0
  125.6730  123.9840   58.7030 C   0  0  0  0  0  0  0  0  0  0  0  0
  124.3230  123.7380   58.9410 C   0  0  0  0  0  0  0  0  0  0  0  0
  123.8650  123.4960   60.2340 C   0  0  0  0  0  0  0  0  0  0  0  0
  124.7610  123.5020   61.3000 C   0  0  0  0  0  0  0  0  0  0  0  0
  129.3610  125.7880   65.7640 N   0  0  0  0  0  0  0  0  0  0  0  0
  1  2  1  0
  2  3  2  0
  3  4  1  0
  4  5  1  0
  4  6  2  0
  6  7  1  0
  7  8  3  0
  6  9  1  0
  9 10  1  0
 10 11  1  0
 11 12  1  0
 12 13  2  0
 12 14  1  0
 14 15  1  0
 15 16  2  0
 16 17  1  0
 17 18  2  0
 18 19  1  0
 19 20  2  0
  9 21  2  0
 21  2  1  0
 20 15  1  0
M  END
>  <Binding energies>  (5) 
[-7.3]

>  <Ligand effiencies>  (5) 
[-0.3318181818181818]

>  <Interactions>  (5) 
["V-B:PRO:540:CB:9857, V-B:PRO:540:CA:9855, H-B:ALA:541:N:9863, V-B:ALA:541:CB:9864, V-B:GLU:543:CD:9880, V-A:ARG:545:CD:4923, V-A:ARG:545:CZ:4926, V-B:GLU:543:CB:9878, V-A:HIS:456:CE1:4069, V-A:ARG:545:CG:4922, H-A:GLY:454:N:4049, V-B:GLU:543:CG:9879, H-B:GLU:543:OE2:9882, V-A:TYR:484:CZ:4346, V-B:ASP:366:CG:8184, H-A:ARG:545:NH2:4928, V-B:LEU:363:CA:8156, V-B:ASN:362:C:8143, V-B:ASN:362:CB:8147, V-B:LEU:363:CB:8158, V-B:LEU:363:CD1:8160, H-B:GLU:543:OE1:9881"]

$$$$
1e_Grossjean_2025
     RDKit          3D

 22 23  0  0  0  0  0  0  0  0999 V2000
  134.7640  125.3650   66.8020 C   0  0  0  0  0  0  0  0  0  0  0  0
  133.5460  125.3930   65.8970 C   0  0  0  0  0  0  0  0  0  0  0  0
  132.3080  125.8570   66.3510 C   0  0  0  0  0  0  0  0  0  0  0  0
  131.2320  125.8510   65.4640 C   0  0  0  0  0  0  0  0  0  0  0  0
  131.4140  125.3850   64.1600 C   0  0  0  0  0  0  0  0  0  0  0  0
  132.6820  124.9380   63.7680 C   0  0  0  0  0  0  0  0  0  0  0  0
  132.8010  124.4700   62.4480 N   0  0  0  0  0  0  0  0  0  0  0  0
  133.9240  124.1470   61.7690 C   0  0  0  0  0  0  0  0  0  0  0  0
  135.0690  124.2260   62.2170 O   0  0  0  0  0  0  0  0  0  0  0  0
  133.7170  123.6790   60.3270 C   0  0  0  0  0  0  0  0  0  0  0  0
  132.0020  123.1620   60.0180 S   0  0  0  0  0  0  0  0  0  0  0  0
  131.8610  121.4190   60.3600 C   0  0  0  0  0  0  0  0  0  0  0  0
  132.9960  120.7230   60.0930 N   0  0  0  0  0  0  0  0  0  0  0  0
  133.0100  119.3880   60.3110 C   0  0  0  0  0  0  0  0  0  0  0  0
  134.3140  118.6800   59.9980 C   0  0  0  0  0  0  0  0  0  0  0  0
  131.9010  118.6930   60.7880 C   0  0  0  0  0  0  0  0  0  0  0  0
  130.7180  119.3950   61.0430 C   0  0  0  0  0  0  0  0  0  0  0  0
  129.5100  118.6070   61.5480 C   0  0  0  0  0  0  0  0  0  0  0  0
  130.6790  120.7900   60.8190 C   0  0  0  0  0  0  0  0  0  0  0  0
  129.4320  121.5290   61.0260 C   0  0  0  0  0  0  0  0  0  0  0  0
  128.4450  122.1120   61.1890 N   0  0  0  0  0  0  0  0  0  0  0  0
  133.7390  124.9380   64.6340 N   0  0  0  0  0  0  0  0  0  0  0  0
  1  2  1  0
  2  3  2  0
  3  4  1  0
  4  5  2  0
  5  6  1  0
  6  7  1  0
  7  8  1  0
  8  9  2  0
  8 10  1  0
 10 11  1  0
 11 12  1  0
 12 13  2  0
 13 14  1  0
 14 15  1  0
 14 16  2  0
 16 17  1  0
 17 18  1  0
 17 19  2  0
 19 20  1  0
 20 21  3  0
  6 22  2  0
 22  2  1  0
 19 12  1  0
M  END
>  <Binding energies>  (6) 
[-7.65]

>  <Ligand effiencies>  (6) 
[-0.33260869565217394]

>  <Interactions>  (6) 
["V-A:ILE:369:CG2:3236, V-B:TYR:539:CE2:9848, V-B:TYR:539:CD2:9846, V-B:PRO:540:CA:9855, V-A:PRO:482:CG:4326, V-B:PRO:540:C:9853, V-A:PRO:482:CB:4325, V-A:LEU:475:CD1:4257, H-B:ALA:541:N:9863, V-A:SER:385:CB:3408, V-B:ALA:541:CA:9862, V-A:SER:385:CA:3406, V-A:SER:385:C:3404, V-B:TYR:539:C:9839, V-B:ALA:541:CB:9864, V-A:ARG:545:CD:4923, V-A:ARG:545:CZ:4926, V-A:GLY:453:CA:4043, V-A:GLY:453:C:4041, V-A:ARG:545:CG:4922, V-A:GLY:454:CA:4048, H-A:TYR:484:OH:4347, H-A:GLY:454:N:4049, V-A:ASP:366:CG:3212, V-A:ILE:369:CD1:3238, V-A:ASP:366:CA:3209, V-A:TYR:484:CZ:4346, H-A:ARG:545:NH2:4928, V-A:HIS:383:CD2:3391, V-A:ILE:455:C:4051, H-A:ARG:545:NE:4924"]

$$$$
1f_Grossjean_2025
     RDKit          3D

 21 22  0  0  0  0  0  0  0  0999 V2000
  130.7650  118.9790   60.7990 C   0  0  0  0  0  0  0  0  0  0  0  0
  131.3720  120.1600   61.5320 C   0  0  0  0  0  0  0  0  0  0  0  0
  132.7390  120.4190   61.4920 C   0  0  0  0  0  0  0  0  0  0  0  0
  133.2430  121.5170   62.1990 C   0  0  0  0  0  0  0  0  0  0  0  0
  134.7490  121.7690   62.1550 C   0  0  0  0  0  0  0  0  0  0  0  0
  132.3530  122.3390   62.9260 C   0  0  0  0  0  0  0  0  0  0  0  0
  132.8690  123.4600   63.7170 C   0  0  0  0  0  0  0  0  0  0  0  0
  133.2780  124.3440   64.3410 N   0  0  0  0  0  0  0  0  0  0  0  0
  130.9760  122.0180   62.8870 C   0  0  0  0  0  0  0  0  0  0  0  0
  129.7090  122.9360   63.7390 S   0  0  0  0  0  0  0  0  0  0  0  0
  128.8370  123.9800   62.5220 C   0  0  0  0  0  0  0  0  0  0  0  0
  128.1980  123.2150   61.3540 C   0  0  0  0  0  0  0  0  0  0  0  0
  127.9960  122.0030   61.4370 O   0  0  0  0  0  0  0  0  0  0  0  0
  127.9200  123.9730   60.2720 N   0  0  0  0  0  0  0  0  0  0  0  0
  127.3340  123.6070   59.0450 C   0  0  0  0  0  0  0  0  0  0  0  0
  127.6430  122.4530   58.3010 C   0  0  0  0  0  0  0  0  0  0  0  0
  126.9790  122.2100   57.0950 C   0  0  0  0  0  0  0  0  0  0  0  0
  126.0190  123.1250   56.6640 C   0  0  0  0  0  0  0  0  0  0  0  0
  125.6990  124.2420   57.3650 N   0  0  0  0  0  0  0  0  0  0  0  0
  126.3530  124.4650   58.5340 C   0  0  0  0  0  0  0  0  0  0  0  0
  130.5010  120.9370   62.2190 N   0  0  0  0  0  0  0  0  0  0  0  0
  1  2  1  0
  2  3  2  0
  3  4  1  0
  4  5  1  0
  4  6  2  0
  6  7  1  0
  7  8  3  0
  6  9  1  0
  9 10  1  0
 10 11  1  0
 11 12  1  0
 12 13  2  0
 12 14  1  0
 14 15  1  0
 15 16  2  0
 16 17  1  0
 17 18  2  0
 18 19  1  0
 19 20  2  0
  9 21  2  0
 21  2  1  0
 20 15  1  0
M  END
>  <Binding energies>  (7) 
[-7.15]

>  <Ligand effiencies>  (7) 
[-0.325]

>  <Interactions>  (7) 
["V-B:PRO:540:CB:9857, V-A:ILE:369:CG2:3236, V-B:PRO:540:N:9856, V-B:TYR:539:CD2:9846, V-B:PRO:540:CA:9855, V-B:MET:535:CE:9807, V-A:LEU:475:CD1:4257, H-B:ALA:541:N:9863, H-B:TYR:531:OH:9767, V-B:TYR:539:C:9839, V-B:ALA:541:CB:9864, V-B:GLU:543:CD:9880, V-A:GLY:453:C:4041, V-A:GLY:454:CA:4048, H-A:TYR:484:OH:4347, H-A:GLY:454:N:4049, V-A:ILE:369:CD1:3238, V-B:PRO:540:CD:9859, V-B:TYR:531:CE2:9765, V-B:LEU:363:CD1:8160"]

$$$$
1g_Grossjean_2025
     RDKit          3D

 22 23  0  0  0  0  0  0  0  0999 V2000
  129.2360  126.1020   62.9200 C   0  0  0  0  0  0  0  0  0  0  0  0
  130.5350  125.8820   63.6710 C   0  0  0  0  0  0  0  0  0  0  0  0
  131.7170  125.5610   63.0070 C   0  0  0  0  0  0  0  0  0  0  0  0
  132.8820  125.3540   63.7540 C   0  0  0  0  0  0  0  0  0  0  0  0
  134.1620  124.9880   63.0040 C   0  0  0  0  0  0  0  0  0  0  0  0
  132.8340  125.4850   65.1600 C   0  0  0  0  0  0  0  0  0  0  0  0
  134.0280  125.2220   65.9670 C   0  0  0  0  0  0  0  0  0  0  0  0
  134.9730  125.0130   66.6010 N   0  0  0  0  0  0  0  0  0  0  0  0
  131.5970  125.8390   65.7480 C   0  0  0  0  0  0  0  0  0  0  0  0
  131.3600  126.0550   67.4970 S   0  0  0  0  0  0  0  0  0  0  0  0
  129.6790  125.4830   67.8890 C   0  0  0  0  0  0  0  0  0  0  0  0
  128.6930  126.6460   68.0130 C   0  0  0  0  0  0  0  0  0  0  0  0
  127.8700  126.6620   68.9290 O   0  0  0  0  0  0  0  0  0  0  0  0
  128.7870  127.6080   67.0790 N   0  0  0  0  0  0  0  0  0  0  0  0
  127.9880  128.8320   67.0380 C   0  0  0  0  0  0  0  0  0  0  0  0
  127.0860  128.9530   65.8140 C   0  0  0  0  0  0  0  0  0  0  0  0
  125.7690  129.4010   65.9580 C   0  0  0  0  0  0  0  0  0  0  0  0
  124.9460  129.5120   64.8410 C   0  0  0  0  0  0  0  0  0  0  0  0
  125.4430  129.1790   63.5820 C   0  0  0  0  0  0  0  0  0  0  0  0
  126.7550  128.7370   63.4310 C   0  0  0  0  0  0  0  0  0  0  0  0
  127.5790  128.6240   64.5480 C   0  0  0  0  0  0  0  0  0  0  0  0
  130.4670  126.0150   65.0170 N   0  0  0  0  0  0  0  0  0  0  0  0
  1  2  1  0
  2  3  2  0
  3  4  1  0
  4  5  1  0
  4  6  2  0
  6  7  1  0
  7  8  3  0
  6  9  1  0
  9 10  1  0
 10 11  1  0
 11 12  1  0
 12 13  2  0
 12 14  1  0
 14 15  1  0
 15 16  1  0
 16 17  2  0
 17 18  1  0
 18 19  2  0
 19 20  1  0
 20 21  2  0
  9 22  2  0
 22  2  1  0
 21 16  1  0
M  END
>  <Binding energies>  (8) 
[-6.55]

>  <Ligand effiencies>  (8) 
[-0.28478260869565214]

>  <Interactions>  (8) 
["V-A:ARG:545:CD:4923, V-A:ARG:545:CZ:4926, V-A:GLY:453:CA:4043, V-B:GLU:543:CB:9878, V-A:GLY:453:C:4041, V-A:GLU:543:CB:4906, V-A:HIS:456:CE1:4069, V-A:ARG:545:CG:4922, V-B:HIS:456:CE1:9041, V-B:ARG:545:CZ:9898, V-A:GLY:454:CA:4048, H-A:TYR:484:OH:4347, H-A:GLY:454:N:4049, H-A:GLU:543:OE1:4909, V-A:GLU:543:CD:4908, V-A:GLU:543:CG:4907, V-A:ASP:366:CG:3212, V-A:TYR:484:CE2:4345, V-A:TYR:484:CZ:4346, H-A:ARG:545:NE:4924, H-A:ILE:455:N:4054"]

$$$$
1h_Grossjean_2025
     RDKit          3D

 28 29  0  0  0  0  0  0  0  0999 V2000
  134.3120  124.6110   62.5890 C   0  0  0  0  0  0  0  0  0  0  0  0
  133.9720  124.7370   63.9650 O   0  0  0  0  0  0  0  0  0  0  0  0
  132.6450  124.6590   64.3470 C   0  0  0  0  0  0  0  0  0  0  0  0
  131.6790  123.8960   63.6720 C   0  0  0  0  0  0  0  0  0  0  0  0
  130.3530  123.8750   64.1060 C   0  0  0  0  0  0  0  0  0  0  0  0
  129.3190  123.0230   63.3760 C   0  0  0  0  0  0  0  0  0  0  0  0
  129.6310  122.7840   61.9680 N   0  0  0  0  0  0  0  0  0  0  0  0
  129.9160  121.5850   61.4270 C   0  0  0  0  0  0  0  0  0  0  0  0
  129.9190  120.5320   62.0650 O   0  0  0  0  0  0  0  0  0  0  0  0
  130.2540  121.5720   59.9370 C   0  0  0  0  0  0  0  0  0  0  0  0
  130.0140  123.2040   59.1710 S   0  0  0  0  0  0  0  0  0  0  0  0
  128.3240  123.7050   59.4540 C   0  0  0  0  0  0  0  0  0  0  0  0
  128.1280  124.5550   60.4960 N   0  0  0  0  0  0  0  0  0  0  0  0
  126.8710  124.9780   60.7640 C   0  0  0  0  0  0  0  0  0  0  0  0
  126.7320  125.9270   61.9390 C   0  0  0  0  0  0  0  0  0  0  0  0
  125.7660  124.5770   60.0160 C   0  0  0  0  0  0  0  0  0  0  0  0
  125.9550  123.7010   58.9410 C   0  0  0  0  0  0  0  0  0  0  0  0
  124.7320  123.2760   58.1330 C   0  0  0  0  0  0  0  0  0  0  0  0
  127.2600  123.2470   58.6430 C   0  0  0  0  0  0  0  0  0  0  0  0
  127.4880  122.3270   57.5260 C   0  0  0  0  0  0  0  0  0  0  0  0
  127.6670  121.6000   56.6430 N   0  0  0  0  0  0  0  0  0  0  0  0
  129.9900  124.5920   65.2460 C   0  0  0  0  0  0  0  0  0  0  0  0
  130.9370  125.3590   65.9440 C   0  0  0  0  0  0  0  0  0  0  0  0
  130.6480  126.0960   67.0790 O   0  0  0  0  0  0  0  0  0  0  0  0
  129.3260  126.5870   67.2770 C   0  0  0  0  0  0  0  0  0  0  0  0
  132.2590  125.3930   65.4780 C   0  0  0  0  0  0  0  0  0  0  0  0
  133.1970  126.1350   66.1540 O   0  0  0  0  0  0  0  0  0  0  0  0
  133.9580  125.3870   67.0920 C   0  0  0  0  0  0  0  0  0  0  0  0
  1  2  1  0
  2  3  1  0
  3  4  2  0
  4  5  1  0
  5  6  1  0
  6  7  1  0
  7  8  1  0
  8  9  2  0
  8 10  1  0
 10 11  1  0
 11 12  1  0
 12 13  2  0
 13 14  1  0
 14 15  1  0
 14 16  2  0
 16 17  1  0
 17 18  1  0
 17 19  2  0
 19 20  1  0
 20 21  3  0
  5 22  2  0
 22 23  1  0
 23 24  1  0
 24 25  1  0
 23 26  2  0
 26 27  1  0
 27 28  1  0
 26  3  1  0
 19 12  1  0
M  END
>  <Binding energies>  (9) 
[-6.29]

>  <Ligand effiencies>  (9) 
[-0.21689655172413794]

>  <Interactions>  (9) 
["V-B:PRO:540:CB:9857, V-B:TYR:539:CE2:9848, V-B:PRO:540:N:9856, V-B:TYR:539:CD2:9846, V-B:PRO:540:CA:9855, V-B:MET:535:CE:9807, H-B:TYR:539:N:9842, H-B:ALA:541:N:9863, V-B:TYR:539:C:9839, V-B:ALA:541:CB:9864, V-B:GLU:543:CD:9880, V-A:ARG:545:CD:4923, V-A:ARG:545:CZ:4926, V-A:GLY:453:CA:4043, V-A:GLY:453:C:4041, V-A:HIS:456:CE1:4069, V-A:ARG:545:CG:4922, H-A:TYR:484:OH:4347, H-A:GLY:454:N:4049, V-B:GLU:543:CG:9879, V-A:ASP:366:CG:3212, H-A:ARG:545:NH1:4927, V-A:TYR:484:CZ:4346, V-B:ASP:366:CG:8184, H-A:ARG:545:NH2:4928, H-A:ARG:545:NE:4924, V-B:LEU:363:CB:8158, V-B:LEU:363:CD1:8160"]

$$$$
1i_Grossjean_2025
     RDKit          3D

 20 21  0  0  0  0  0  0  0  0999 V2000
  134.2650  118.9300   60.0130 C   0  0  0  0  0  0  0  0  0  0  0  0
  132.9470  119.5800   60.3910 C   0  0  0  0  0  0  0  0  0  0  0  0
  131.8410  118.8210   60.7660 C   0  0  0  0  0  0  0  0  0  0  0  0
  130.6540  119.4750   61.1130 C   0  0  0  0  0  0  0  0  0  0  0  0
  129.4590  118.6220   61.5370 C   0  0  0  0  0  0  0  0  0  0  0  0
  130.6040  120.8880   61.0690 C   0  0  0  0  0  0  0  0  0  0  0  0
  129.3880  121.5950   61.4770 C   0  0  0  0  0  0  0  0  0  0  0  0
  128.4260  122.1510   61.8020 N   0  0  0  0  0  0  0  0  0  0  0  0
  131.7690  121.5760   60.6530 C   0  0  0  0  0  0  0  0  0  0  0  0
  131.8830  123.3480   60.5390 S   0  0  0  0  0  0  0  0  0  0  0  0
  131.1770  123.8420   58.9390 C   0  0  0  0  0  0  0  0  0  0  0  0
  129.6750  123.5580   58.8590 C   0  0  0  0  0  0  0  0  0  0  0  0
  128.9550  123.8460   59.8160 O   0  0  0  0  0  0  0  0  0  0  0  0
  129.2480  122.9990   57.7060 N   0  0  0  0  0  0  0  0  0  0  0  0
  127.9500  122.6380   57.3770 C   0  0  0  0  0  0  0  0  0  0  0  0
  126.8300  123.3440   57.8130 C   0  0  0  0  0  0  0  0  0  0  0  0
  125.7540  122.6740   57.2780 C   0  0  0  0  0  0  0  0  0  0  0  0
  126.2020  121.6180   56.5590 O   0  0  0  0  0  0  0  0  0  0  0  0
  127.5960  121.6050   56.6300 N   0  0  0  0  0  0  0  0  0  0  0  0
  132.9210  120.9330   60.3380 N   0  0  0  0  0  0  0  0  0  0  0  0
  1  2  1  0
  2  3  2  0
  3  4  1  0
  4  5  1  0
  4  6  2  0
  6  7  1  0
  7  8  3  0
  6  9  1  0
  9 10  1  0
 10 11  1  0
 11 12  1  0
 12 13  2  0
 12 14  1  0
 14 15  1  0
 15 16  1  0
 16 17  2  0
 17 18  1  0
 18 19  1  0
  9 20  2  0
 20  2  1  0
 19 15  2  0
M  END
>  <Binding energies>  (10) 
[-6.97]

>  <Ligand effiencies>  (10) 
[-0.33190476190476187]

>  <Interactions>  (10) 
["V-B:PRO:540:CB:9857, V-A:ILE:369:CG2:3236, V-B:TYR:539:CE2:9848, V-B:PRO:540:N:9856, V-B:TYR:539:CZ:9849, V-B:TYR:539:CD2:9846, V-B:PRO:540:CA:9855, V-A:PRO:482:CG:4326, V-B:PRO:540:C:9853, V-A:PRO:482:CB:4325, V-B:MET:535:CE:9807, H-B:TYR:539:N:9842, V-A:LEU:475:CD1:4257, H-B:ALA:541:N:9863, V-A:SER:385:CB:3408, V-B:ALA:541:CA:9862, V-A:SER:385:CA:3406, V-A:SER:385:C:3404, V-B:TYR:539:C:9839, V-B:ALA:541:CB:9864, V-A:HIS:383:CD2:3391, V-B:PRO:540:CD:9859, V-B:LEU:363:CD1:8160, H-B:TYR:539:OH:9850, V-B:TYR:539:CE1:9847"]

$$$$
1k_Grossjean_2025
     RDKit          3D

 25 25  0  0  0  0  0  0  0  0999 V2000
  126.0990  122.8560   56.9640 C   0  0  0  0  0  0  0  0  0  0  0  0
  125.6740  124.2070   57.0460 O   0  0  0  0  0  0  0  0  0  0  0  0
  124.9670  124.5070   58.2420 C   0  0  0  0  0  0  0  0  0  0  0  0
  125.9360  124.4810   59.4310 C   0  0  0  0  0  0  0  0  0  0  0  0
  125.8850  123.2040   60.0550 O   0  0  0  0  0  0  0  0  0  0  0  0
  125.8390  123.2640   61.4740 C   0  0  0  0  0  0  0  0  0  0  0  0
  127.2600  123.1290   62.0360 C   0  0  0  0  0  0  0  0  0  0  0  0
  127.9920  122.1940   61.2540 O   0  0  0  0  0  0  0  0  0  0  0  0
  129.3590  122.0830   61.6270 C   0  0  0  0  0  0  0  0  0  0  0  0
  130.0450  121.0060   60.7650 C   0  0  0  0  0  0  0  0  0  0  0  0
  131.5050  121.0960   60.7500 N   0  0  0  0  0  0  0  0  0  0  0  0
  132.3440  120.1680   61.2430 C   0  0  0  0  0  0  0  0  0  0  0  0
  131.9570  119.1200   61.7630 O   0  0  0  0  0  0  0  0  0  0  0  0
  133.8410  120.4960   61.1220 C   0  0  0  0  0  0  0  0  0  0  0  0
  134.3670  122.0740   61.8770 S   0  0  0  0  0  0  0  0  0  0  0  0
  133.3250  123.3930   61.2680 C   0  0  0  0  0  0  0  0  0  0  0  0
  133.0820  123.3880   59.9320 N   0  0  0  0  0  0  0  0  0  0  0  0
  132.3080  124.3640   59.4040 C   0  0  0  0  0  0  0  0  0  0  0  0
  132.0910  124.2950   57.9050 C   0  0  0  0  0  0  0  0  0  0  0  0
  131.7410  125.3740   60.1780 C   0  0  0  0  0  0  0  0  0  0  0  0
  131.9770  125.3860   61.5570 C   0  0  0  0  0  0  0  0  0  0  0  0
  131.3460  126.5020   62.3870 C   0  0  0  0  0  0  0  0  0  0  0  0
  132.7860  124.3780   62.1270 C   0  0  0  0  0  0  0  0  0  0  0  0
  133.0530  124.3680   63.5680 C   0  0  0  0  0  0  0  0  0  0  0  0
  133.2640  124.3620   64.7070 N   0  0  0  0  0  0  0  0  0  0  0  0
  1  2  1  0
  2  3  1  0
  3  4  1  0
  4  5  1  0
  5  6  1  0
  6  7  1  0
  7  8  1  0
  8  9  1  0
  9 10  1  0
 10 11  1  0
 11 12  1  0
 12 13  2  0
 12 14  1  0
 14 15  1  0
 15 16  1  0
 16 17  2  0
 17 18  1  0
 18 19  1  0
 18 20  2  0
 20 21  1  0
 21 22  1  0
 21 23  2  0
 23 24  1  0
 24 25  3  0
 23 16  1  0
M  END
>  <Binding energies>  (11) 
[-5.51]

>  <Ligand effiencies>  (11) 
[-0.2119230769230769]

>  <Interactions>  (11) 
["V-B:PRO:540:CB:9857, V-A:ILE:369:CG2:3236, V-B:TYR:539:CE2:9848, V-B:TYR:539:CZ:9849, V-B:TYR:539:CD2:9846, V-B:PRO:540:CA:9855, V-B:MET:535:CE:9807, V-A:LEU:475:CD1:4257, H-B:ALA:541:N:9863, H-B:TYR:531:OH:9767, V-B:ALA:541:CB:9864, V-B:GLU:543:CD:9880, H-A:TYR:484:OH:4347, H-A:GLY:454:N:4049, V-A:ASP:366:CG:3212, V-A:ASP:366:CB:3211, V-B:TYR:531:CE2:9765, V-B:LEU:363:CD1:8160, H-A:SER:385:OG:3409"]

$$$$
1l_Grossjean_2025
     RDKit          3D

 17 17  0  0  0  0  0  0  0  0999 V2000
  132.9380  125.3890   64.8850 C   0  0  0  0  0  0  0  0  0  0  0  0
  134.0650  125.0080   64.1080 O   0  0  0  0  0  0  0  0  0  0  0  0
  133.7160  124.9560   62.7590 N   0  0  0  0  0  0  0  0  0  0  0  0
  133.6150  123.7560   62.1550 C   0  0  0  0  0  0  0  0  0  0  0  0
  133.5880  122.6840   62.7660 O   0  0  0  0  0  0  0  0  0  0  0  0
  133.5170  123.8030   60.6240 C   0  0  0  0  0  0  0  0  0  0  0  0
  131.9610  123.1500   59.9300 S   0  0  0  0  0  0  0  0  0  0  0  0
  131.8830  121.4030   60.2870 C   0  0  0  0  0  0  0  0  0  0  0  0
  133.0220  120.7010   60.0510 N   0  0  0  0  0  0  0  0  0  0  0  0
  133.0330  119.3700   60.2990 C   0  0  0  0  0  0  0  0  0  0  0  0
  134.3400  118.6560   60.0110 C   0  0  0  0  0  0  0  0  0  0  0  0
  131.9220  118.6880   60.7900 C   0  0  0  0  0  0  0  0  0  0  0  0
  130.7440  119.4000   61.0390 C   0  0  0  0  0  0  0  0  0  0  0  0
  129.5380  118.6320   61.5780 C   0  0  0  0  0  0  0  0  0  0  0  0
  130.7110  120.7890   60.7860 C   0  0  0  0  0  0  0  0  0  0  0  0
  129.4890  121.5600   61.0380 C   0  0  0  0  0  0  0  0  0  0  0  0
  128.5250  122.1670   61.2370 N   0  0  0  0  0  0  0  0  0  0  0  0
  1  2  1  0
  2  3  1  0
  3  4  1  0
  4  5  2  0
  4  6  1  0
  6  7  1  0
  7  8  1  0
  8  9  2  0
  9 10  1  0
 10 11  1  0
 10 12  2  0
 12 13  1  0
 13 14  1  0
 13 15  2  0
 15 16  1  0
 16 17  3  0
 15  8  1  0
M  END
>  <Binding energies>  (12) 
[-6.07]

>  <Ligand effiencies>  (12) 
[-0.33722222222222226]

>  <Interactions>  (12) 
["V-A:ILE:369:CG2:3236, V-B:TYR:539:CE2:9848, V-B:TYR:539:CD2:9846, V-A:PRO:482:CG:4326, V-B:PRO:540:C:9853, V-A:PRO:482:CB:4325, V-A:LEU:475:CD1:4257, H-B:ALA:541:N:9863, V-A:SER:385:CB:3408, V-B:ALA:541:CA:9862, V-A:SER:385:CA:3406, V-A:SER:385:C:3404, V-B:TYR:539:C:9839, V-B:ALA:541:CB:9864, V-A:ARG:545:CZ:4926, H-A:GLY:454:N:4049, V-A:ASP:366:CG:3212, H-A:ARG:545:NH1:4927, H-A:ARG:545:NH2:4928, V-A:HIS:383:CD2:3391, H-A:ARG:545:NE:4924, H-A:ASP:366:OD2:3214, H-A:ASP:366:OD1:3213"]

$$$$
1m_Grossjean_2025
     RDKit          3D

 20 20  0  0  0  0  0  0  0  0999 V2000
  125.8300  123.0370   56.6070 C   0  0  0  0  0  0  0  0  0  0  0  0
  125.7510  124.2540   57.3360 O   0  0  0  0  0  0  0  0  0  0  0  0
  124.7910  124.4340   58.2670 C   0  0  0  0  0  0  0  0  0  0  0  0
  123.7110  125.0030   58.0820 O   0  0  0  0  0  0  0  0  0  0  0  0
  125.1980  123.8250   59.6250 C   0  0  0  0  0  0  0  0  0  0  0  0
  126.6040  123.3970   59.6590 N   0  0  0  0  0  0  0  0  0  0  0  0
  127.2460  122.8930   60.7300 C   0  0  0  0  0  0  0  0  0  0  0  0
  126.7080  122.7490   61.8300 O   0  0  0  0  0  0  0  0  0  0  0  0
  128.7140  122.5080   60.5010 C   0  0  0  0  0  0  0  0  0  0  0  0
  129.5850  121.9060   61.9880 S   0  0  0  0  0  0  0  0  0  0  0  0
  130.8320  120.7490   61.4640 C   0  0  0  0  0  0  0  0  0  0  0  0
  130.3250  119.5790   60.9980 N   0  0  0  0  0  0  0  0  0  0  0  0
  131.1810  118.6250   60.5650 C   0  0  0  0  0  0  0  0  0  0  0  0
  130.5410  117.3540   60.0400 C   0  0  0  0  0  0  0  0  0  0  0  0
  132.5640  118.7880   60.5900 C   0  0  0  0  0  0  0  0  0  0  0  0
  133.0990  119.9790   61.0930 C   0  0  0  0  0  0  0  0  0  0  0  0
  134.6180  120.1290   61.1260 C   0  0  0  0  0  0  0  0  0  0  0  0
  132.2240  120.9900   61.5520 C   0  0  0  0  0  0  0  0  0  0  0  0
  132.7640  122.2240   62.1290 C   0  0  0  0  0  0  0  0  0  0  0  0
  133.1900  123.1980   62.5830 N   0  0  0  0  0  0  0  0  0  0  0  0
  1  2  1  0
  2  3  1  0
  3  4  2  0
  3  5  1  0
  5  6  1  0
  6  7  1  0
  7  8  2  0
  7  9  1  0
  9 10  1  0
 10 11  1  0
 11 12  2  0
 12 13  1  0
 13 14  1  0
 13 15  2  0
 15 16  1  0
 16 17  1  0
 16 18  2  0
 18 19  1  0
 19 20  3  0
 18 11  1  0
M  END
>  <Binding energies>  (13) 
[-5.88]

>  <Ligand effiencies>  (13) 
[-0.27999999999999997]

>  <Interactions>  (13) 
["V-B:PRO:540:CB:9857, V-A:ILE:369:CG2:3236, V-B:TYR:539:CD2:9846, V-B:PRO:540:CA:9855, V-A:PRO:482:CG:4326, V-B:PRO:540:C:9853, V-B:MET:535:CE:9807, V-A:LEU:475:CD1:4257, H-B:ALA:541:N:9863, H-B:TYR:531:OH:9767, V-A:SER:385:CA:3406, V-A:SER:385:C:3404, V-B:TYR:539:C:9839, V-B:ALA:541:CB:9864, V-A:HIS:383:CE1:3392, H-A:GLY:454:N:4049, V-A:ILE:369:CD1:3238, V-B:ASP:366:CB:8183, V-B:TYR:539:CB:9843, V-B:TYR:531:CE2:9765, V-B:LEU:363:CD1:8160"]

$$$$
1n_Grossjean_2025
     RDKit          3D

 27 28  0  0  0  0  0  0  0  0999 V2000
  124.3870  123.6680   58.9600 C   0  0  0  0  0  0  0  0  0  0  0  0
  125.3830  124.5420   58.1920 C   0  0  0  0  0  0  0  0  0  0  0  0
  125.7520  123.8890   56.9840 O   0  0  0  0  0  0  0  0  0  0  0  0
  126.5130  122.7640   57.0000 C   0  0  0  0  0  0  0  0  0  0  0  0
  126.1230  121.6730   56.5710 O   0  0  0  0  0  0  0  0  0  0  0  0
  127.8810  122.9810   57.5790 C   0  0  0  0  0  0  0  0  0  0  0  0
  128.3980  122.1590   58.5930 C   0  0  0  0  0  0  0  0  0  0  0  0
  129.6690  122.3900   59.1100 C   0  0  0  0  0  0  0  0  0  0  0  0
  130.4460  123.4470   58.6340 C   0  0  0  0  0  0  0  0  0  0  0  0
  131.7130  123.5920   59.2310 N   0  0  0  0  0  0  0  0  0  0  0  0
  132.8180  124.2180   58.7700 C   0  0  0  0  0  0  0  0  0  0  0  0
  132.9080  124.8060   57.6930 O   0  0  0  0  0  0  0  0  0  0  0  0
  134.0400  124.1720   59.6970 C   0  0  0  0  0  0  0  0  0  0  0  0
  133.6960  123.7160   61.1310 C   0  0  0  0  0  0  0  0  0  0  0  0
  133.9780  121.9480   61.4480 S   0  0  0  0  0  0  0  0  0  0  0  0
  132.3920  121.1400   61.4400 C   0  0  0  0  0  0  0  0  0  0  0  0
  131.3840  121.9170   61.9090 N   0  0  0  0  0  0  0  0  0  0  0  0
  130.1290  121.4100   61.9330 C   0  0  0  0  0  0  0  0  0  0  0  0
  129.0520  122.3400   62.4600 C   0  0  0  0  0  0  0  0  0  0  0  0
  129.8310  120.1190   61.5020 C   0  0  0  0  0  0  0  0  0  0  0  0
  130.8670  119.3030   61.0360 C   0  0  0  0  0  0  0  0  0  0  0  0
  130.5180  117.8870   60.5810 C   0  0  0  0  0  0  0  0  0  0  0  0
  132.1860  119.8090   61.0060 C   0  0  0  0  0  0  0  0  0  0  0  0
  133.2930  118.9550   60.5710 C   0  0  0  0  0  0  0  0  0  0  0  0
  134.1660  118.2780   60.2280 N   0  0  0  0  0  0  0  0  0  0  0  0
  129.9400  124.2660   57.6140 C   0  0  0  0  0  0  0  0  0  0  0  0
  128.6700  124.0320   57.0950 C   0  0  0  0  0  0  0  0  0  0  0  0
  1  2  1  0
  2  3  1  0
  3  4  1  0
  4  5  2  0
  4  6  1  0
  6  7  2  0
  7  8  1  0
  8  9  2  0
  9 10  1  0
 10 11  1  0
 11 12  2  0
 11 13  1  0
 13 14  1  0
 14 15  1  0
 15 16  1  0
 16 17  2  0
 17 18  1  0
 18 19  1  0
 18 20  2  0
 20 21  1  0
 21 22  1  0
 21 23  2  0
 23 24  1  0
 24 25  3  0
  9 26  1  0
 26 27  2  0
 27  6  1  0
 23 16  1  0
M  END
>  <Binding energies>  (14) 
[-8.21]

>  <Ligand effiencies>  (14) 
[-0.29321428571428576]

>  <Interactions>  (14) 
["V-B:PRO:540:CB:9857, V-A:ILE:369:CG2:3236, V-B:TYR:539:CE2:9848, V-B:PRO:540:N:9856, V-B:TYR:539:CZ:9849, V-B:TYR:539:CD2:9846, V-B:PRO:540:CA:9855, V-A:PRO:482:CG:4326, V-B:PRO:540:C:9853, V-B:MET:535:CE:9807, H-B:TYR:539:N:9842, V-A:LEU:475:CD1:4257, H-B:TYR:531:OH:9767, V-B:ALA:541:CA:9862, V-A:SER:385:CA:3406, V-B:TYR:539:C:9839, V-B:ALA:541:CB:9864, V-A:ASP:366:CG:3212, V-A:ILE:369:CD1:3238, V-A:ASP:366:C:3207, V-A:ASP:366:CB:3211, V-A:ASP:366:CA:3209, V-A:ILE:369:CB:3235, V-B:LEU:363:CA:8156, V-B:LEU:363:CB:8158, V-B:TYR:531:CE2:9765, V-B:LEU:363:CD1:8160, H-A:HIS:383:NE2:3393, H-A:SER:385:OG:3409, H-B:TYR:539:OH:9850"]

$$$$
1q_Grossjean_2025
     RDKit          3D

 21 21  0  0  0  0  0  0  0  0999 V2000
  125.1370  124.0660   57.9070 C   0  0  0  0  0  0  0  0  0  0  0  0
  126.1670  123.7680   56.9740 O   0  0  0  0  0  0  0  0  0  0  0  0
  126.6610  122.5100   56.8740 C   0  0  0  0  0  0  0  0  0  0  0  0
  126.1270  121.5760   56.2720 O   0  0  0  0  0  0  0  0  0  0  0  0
  127.9910  122.2960   57.6270 C   0  0  0  0  0  0  0  0  0  0  0  0
  127.8880  122.5760   59.0670 N   0  0  0  0  0  0  0  0  0  0  0  0
  128.2370  123.7260   59.6740 C   0  0  0  0  0  0  0  0  0  0  0  0
  128.6930  124.6970   59.0670 O   0  0  0  0  0  0  0  0  0  0  0  0
  128.0200  123.7780   61.1940 C   0  0  0  0  0  0  0  0  0  0  0  0
  128.9420  122.8400   61.9980 C   0  0  0  0  0  0  0  0  0  0  0  0
  129.3250  121.2840   61.1400 S   0  0  0  0  0  0  0  0  0  0  0  0
  131.0950  121.0930   61.0740 C   0  0  0  0  0  0  0  0  0  0  0  0
  131.7710  122.2090   61.4460 N   0  0  0  0  0  0  0  0  0  0  0  0
  133.1240  122.1860   61.4340 C   0  0  0  0  0  0  0  0  0  0  0  0
  133.8090  123.4750   61.8470 C   0  0  0  0  0  0  0  0  0  0  0  0
  133.8540  121.0580   61.0650 C   0  0  0  0  0  0  0  0  0  0  0  0
  133.1680  119.8940   60.7040 C   0  0  0  0  0  0  0  0  0  0  0  0
  133.9900  118.6640   60.3210 C   0  0  0  0  0  0  0  0  0  0  0  0
  131.7540  119.8930   60.7110 C   0  0  0  0  0  0  0  0  0  0  0  0
  131.0200  118.6670   60.3910 C   0  0  0  0  0  0  0  0  0  0  0  0
  130.4440  117.6960   60.1380 N   0  0  0  0  0  0  0  0  0  0  0  0
  1  2  1  0
  2  3  1  0
  3  4  2  0
  3  5  1  0
  5  6  1  0
  6  7  1  0
  7  8  2  0
  7  9  1  0
  9 10  1  0
 10 11  1  0
 11 12  1  0
 12 13  2  0
 13 14  1  0
 14 15  1  0
 14 16  2  0
 16 17  1  0
 17 18  1  0
 17 19  2  0
 19 20  1  0
 20 21  3  0
 19 12  1  0
M  END
>  <Binding energies>  (15) 
[-5.99]

>  <Ligand effiencies>  (15) 
[-0.2722727272727273]

>  <Interactions>  (15) 
["V-A:ILE:369:CG2:3236, V-B:TYR:539:CE2:9848, V-B:PRO:540:N:9856, V-B:TYR:539:CD2:9846, V-B:PRO:540:CA:9855, V-B:MET:535:CE:9807, H-B:TYR:539:N:9842, V-A:LEU:475:CD1:4257, H-B:ALA:541:N:9863, V-A:SER:385:CB:3408, H-B:TYR:531:OH:9767, V-A:SER:385:CA:3406, V-A:SER:385:C:3404, V-B:TYR:539:C:9839, V-B:ALA:541:CB:9864, V-A:ILE:369:CD1:3238, V-A:HIS:383:CD2:3391, V-B:TYR:539:CG:9844, V-B:TYR:531:CE2:9765, V-B:LEU:363:CD1:8160, H-B:TYR:539:O:9840, H-A:HIS:383:NE2:3393"]

$$$$
2a_Grossjean_2025
     RDKit          3D

 29 30  0  0  0  0  0  0  0  0999 V2000
  128.3830  129.4070   67.5970 C   0  0  0  0  0  0  0  0  0  0  0  0
  128.2310  127.8860   67.5020 C   0  0  0  0  0  0  0  0  0  0  0  0
  129.2040  127.2630   68.3320 O   0  0  0  0  0  0  0  0  0  0  0  0
  129.4870  125.9410   68.2100 C   0  0  0  0  0  0  0  0  0  0  0  0
  129.1730  125.0960   69.0530 O   0  0  0  0  0  0  0  0  0  0  0  0
  130.2010  125.6060   66.9310 C   0  0  0  0  0  0  0  0  0  0  0  0
  129.6180  124.7950   65.9460 C   0  0  0  0  0  0  0  0  0  0  0  0
  130.3080  124.5030   64.7730 C   0  0  0  0  0  0  0  0  0  0  0  0
  131.5930  125.0050   64.5640 C   0  0  0  0  0  0  0  0  0  0  0  0
  132.2010  124.6340   63.3500 N   0  0  0  0  0  0  0  0  0  0  0  0
  133.5060  124.6230   63.0000 C   0  0  0  0  0  0  0  0  0  0  0  0
  134.4410  124.9810   63.7170 O   0  0  0  0  0  0  0  0  0  0  0  0
  133.8050  124.1190   61.5840 C   0  0  0  0  0  0  0  0  0  0  0  0
  134.0290  122.3110   61.4930 S   0  0  0  0  0  0  0  0  0  0  0  0
  132.4310  121.5060   61.4690 C   0  0  0  0  0  0  0  0  0  0  0  0
  131.3760  122.2790   61.8340 N   0  0  0  0  0  0  0  0  0  0  0  0
  130.1400  121.7320   61.8510 C   0  0  0  0  0  0  0  0  0  0  0  0
  129.0170  122.6510   62.2950 C   0  0  0  0  0  0  0  0  0  0  0  0
  129.9000  120.4070   61.5010 C   0  0  0  0  0  0  0  0  0  0  0  0
  130.9740  119.5910   61.1120 C   0  0  0  0  0  0  0  0  0  0  0  0
  130.6920  118.1270   60.7260 C   0  0  0  0  0  0  0  0  0  0  0  0
  131.3990  117.3050   61.5020 F   0  0  0  0  0  0  0  0  0  0  0  0
  129.3940  117.8580   60.8780 F   0  0  0  0  0  0  0  0  0  0  0  0
  131.0120  117.8570   59.4580 F   0  0  0  0  0  0  0  0  0  0  0  0
  132.2770  120.1510   61.0930 C   0  0  0  0  0  0  0  0  0  0  0  0
  133.4360  119.3440   60.6980 C   0  0  0  0  0  0  0  0  0  0  0  0
  134.3500  118.7060   60.3870 N   0  0  0  0  0  0  0  0  0  0  0  0
  132.1790  125.8220   65.5410 C   0  0  0  0  0  0  0  0  0  0  0  0
  131.4860  126.1180   66.7110 C   0  0  0  0  0  0  0  0  0  0  0  0
  1  2  1  0
  2  3  1  0
  3  4  1  0
  4  5  2  0
  4  6  1  0
  6  7  2  0
  7  8  1  0
  8  9  2  0
  9 10  1  0
 10 11  1  0
 11 12  2  0
 11 13  1  0
 13 14  1  0
 14 15  1  0
 15 16  2  0
 16 17  1  0
 17 18  1  0
 17 19  2  0
 19 20  1  0
 20 21  1  0
 21 22  1  0
 21 23  1  0
 21 24  1  0
 20 25  2  0
 25 26  1  0
 26 27  3  0
  9 28  1  0
 28 29  2  0
 29  6  1  0
 25 15  1  0
M  END
>  <Binding energies>  (16) 
[-7.26]

>  <Ligand effiencies>  (16) 
[-0.242]

>  <Interactions>  (16) 
["V-A:ILE:369:CG2:3236, V-B:TYR:539:CD2:9846, V-A:PRO:482:CG:4326, V-B:PRO:540:C:9853, V-A:PRO:482:CB:4325, V-A:LEU:475:CD1:4257, V-B:ALA:541:CA:9862, V-A:SER:385:CA:3406, V-B:TYR:539:C:9839, V-B:ALA:541:CB:9864, V-B:GLU:543:CD:9880, V-A:ARG:545:CZ:4926, V-B:GLU:543:CB:9878, V-A:GLU:543:CB:4906, V-A:HIS:456:CE1:4069, V-B:HIS:456:CE1:9041, V-A:HIS:383:CE1:3392, H-A:GLY:454:N:4049, V-B:TYR:484:CE2:9317, V-B:GLU:543:CG:9879, V-A:GLU:543:CD:4908, V-A:GLU:543:CG:4907, V-A:ASP:366:CG:3212, H-A:ARG:545:NH1:4927, V-A:TYR:484:CE2:4345, V-A:TYR:484:CZ:4346, H-A:ARG:545:NH2:4928, V-B:TYR:539:CB:9843, V-B:TYR:539:CG:9844, H-A:HIS:383:NE2:3393, H-A:SER:385:OG:3409, V-A:PRO:482:CD:4327"]

$$$$
2b_Grossjean_2025
     RDKit          3D

 28 29  0  0  0  0  0  0  0  0999 V2000
  125.0940  124.1620   58.0130 C   0  0  0  0  0  0  0  0  0  0  0  0
  126.0860  123.9760   57.0130 O   0  0  0  0  0  0  0  0  0  0  0  0
  126.8440  122.8510   56.9810 C   0  0  0  0  0  0  0  0  0  0  0  0
  126.4850  121.8040   56.4330 O   0  0  0  0  0  0  0  0  0  0  0  0
  128.1630  123.0040   57.6820 C   0  0  0  0  0  0  0  0  0  0  0  0
  128.4620  122.3060   58.8620 C   0  0  0  0  0  0  0  0  0  0  0  0
  129.6940  122.4720   59.4890 C   0  0  0  0  0  0  0  0  0  0  0  0
  130.6520  123.3290   58.9490 C   0  0  0  0  0  0  0  0  0  0  0  0
  131.8600  123.4270   59.6660 N   0  0  0  0  0  0  0  0  0  0  0  0
  133.1320  123.4410   59.2140 C   0  0  0  0  0  0  0  0  0  0  0  0
  133.4700  123.3390   58.0340 O   0  0  0  0  0  0  0  0  0  0  0  0
  134.2080  123.5780   60.2960 C   0  0  0  0  0  0  0  0  0  0  0  0
  134.3580  122.0980   61.3500 S   0  0  0  0  0  0  0  0  0  0  0  0
  132.7620  121.3120   61.5280 C   0  0  0  0  0  0  0  0  0  0  0  0
  131.8150  122.0390   62.1730 N   0  0  0  0  0  0  0  0  0  0  0  0
  130.5870  121.5040   62.3490 C   0  0  0  0  0  0  0  0  0  0  0  0
  129.5910  122.3750   63.0900 C   0  0  0  0  0  0  0  0  0  0  0  0
  130.2470  120.2360   61.8860 C   0  0  0  0  0  0  0  0  0  0  0  0
  131.2070  119.4690   61.2090 C   0  0  0  0  0  0  0  0  0  0  0  0
  130.8130  118.0700   60.6990 C   0  0  0  0  0  0  0  0  0  0  0  0
  131.4850  117.1340   61.3710 F   0  0  0  0  0  0  0  0  0  0  0  0
  129.5060  117.8700   60.8710 F   0  0  0  0  0  0  0  0  0  0  0  0
  131.0770  117.9000   59.4010 F   0  0  0  0  0  0  0  0  0  0  0  0
  132.5030  120.0150   61.0240 C   0  0  0  0  0  0  0  0  0  0  0  0
  133.5470  119.2550   60.3300 C   0  0  0  0  0  0  0  0  0  0  0  0
  134.3710  118.6560   59.7810 N   0  0  0  0  0  0  0  0  0  0  0  0
  130.3590  124.0370   57.7740 C   0  0  0  0  0  0  0  0  0  0  0  0
  129.1260  123.8710   57.1490 C   0  0  0  0  0  0  0  0  0  0  0  0
  1  2  1  0
  2  3  1  0
  3  4  2  0
  3  5  1  0
  5  6  2  0
  6  7  1  0
  7  8  2  0
  8  9  1  0
  9 10  1  0
 10 11  2  0
 10 12  1  0
 12 13  1  0
 13 14  1  0
 14 15  2  0
 15 16  1  0
 16 17  1  0
 16 18  2  0
 18 19  1  0
 19 20  1  0
 20 21  1  0
 20 22  1  0
 20 23  1  0
 19 24  2  0
 24 25  1  0
 25 26  3  0
  8 27  1  0
 27 28  2  0
 28  5  1  0
 24 14  1  0
M  END
>  <Binding energies>  (17) 
[-7.62]

>  <Ligand effiencies>  (17) 
[-0.26275862068965516]

>  <Interactions>  (17) 
["V-A:ILE:369:CG2:3236, V-B:TYR:539:CE2:9848, V-B:PRO:540:N:9856, V-B:TYR:539:CZ:9849, V-B:TYR:539:CD2:9846, V-B:PRO:540:CA:9855, V-A:PRO:482:CG:4326, V-B:PRO:540:C:9853, V-A:PRO:482:CB:4325, V-B:MET:535:CE:9807, H-B:TYR:539:N:9842, V-A:LEU:475:CD1:4257, H-B:TYR:531:OH:9767, V-B:ALA:541:CA:9862, V-A:SER:385:CA:3406, V-B:TYR:539:C:9839, V-B:ALA:541:CB:9864, V-A:HIS:383:CE1:3392, V-A:ASP:366:CG:3212, V-A:ILE:369:CD1:3238, V-A:ASP:366:CA:3209, V-A:ILE:369:CB:3235, V-B:TYR:539:CB:9843, V-B:TYR:539:CG:9844, V-B:TYR:531:CE2:9765, V-B:LEU:363:CD1:8160, H-A:HIS:383:NE2:3393, H-A:SER:385:OG:3409, H-B:TYR:539:OH:9850, V-A:PRO:482:CD:4327"]

$$$$
2c_Grossjean_2025
     RDKit          3D

 26 27  0  0  0  0  0  0  0  0999 V2000
  128.7470  126.7900   68.1830 C   0  0  0  0  0  0  0  0  0  0  0  0
  129.8530  125.8930   68.1890 O   0  0  0  0  0  0  0  0  0  0  0  0
  130.4240  125.5200   66.9880 C   0  0  0  0  0  0  0  0  0  0  0  0
  131.6720  126.0670   66.6950 C   0  0  0  0  0  0  0  0  0  0  0  0
  132.3270  125.7520   65.5070 C   0  0  0  0  0  0  0  0  0  0  0  0
  131.7240  124.8830   64.5860 C   0  0  0  0  0  0  0  0  0  0  0  0
  132.3150  124.4920   63.3700 N   0  0  0  0  0  0  0  0  0  0  0  0
  133.6170  124.5370   63.0130 C   0  0  0  0  0  0  0  0  0  0  0  0
  134.5200  125.0000   63.7120 O   0  0  0  0  0  0  0  0  0  0  0  0
  133.9210  123.9930   61.6090 C   0  0  0  0  0  0  0  0  0  0  0  0
  134.1210  122.1800   61.4950 S   0  0  0  0  0  0  0  0  0  0  0  0
  132.5090  121.4060   61.4550 C   0  0  0  0  0  0  0  0  0  0  0  0
  131.4710  122.1880   61.8500 N   0  0  0  0  0  0  0  0  0  0  0  0
  130.2250  121.6660   61.8540 C   0  0  0  0  0  0  0  0  0  0  0  0
  129.1240  122.5970   62.3240 C   0  0  0  0  0  0  0  0  0  0  0  0
  129.9580  120.3570   61.4590 C   0  0  0  0  0  0  0  0  0  0  0  0
  131.0120  119.5340   61.0400 C   0  0  0  0  0  0  0  0  0  0  0  0
  130.7000  118.0890   60.6050 C   0  0  0  0  0  0  0  0  0  0  0  0
  129.4000  117.8360   60.7630 F   0  0  0  0  0  0  0  0  0  0  0  0
  131.0220  117.9180   59.3220 F   0  0  0  0  0  0  0  0  0  0  0  0
  131.3750  117.1810   61.3130 F   0  0  0  0  0  0  0  0  0  0  0  0
  132.3260  120.0670   61.0360 C   0  0  0  0  0  0  0  0  0  0  0  0
  133.4680  119.2510   60.6090 C   0  0  0  0  0  0  0  0  0  0  0  0
  134.3680  118.6060   60.2720 N   0  0  0  0  0  0  0  0  0  0  0  0
  130.4820  124.3190   64.8810 C   0  0  0  0  0  0  0  0  0  0  0  0
  129.8320  124.6370   66.0700 C   0  0  0  0  0  0  0  0  0  0  0  0
  1  2  1  0
  2  3  1  0
  3  4  2  0
  4  5  1  0
  5  6  2  0
  6  7  1  0
  7  8  1  0
  8  9  2  0
  8 10  1  0
 10 11  1  0
 11 12  1  0
 12 13  2  0
 13 14  1  0
 14 15  1  0
 14 16  2  0
 16 17  1  0
 17 18  1  0
 18 19  1  0
 18 20  1  0
 18 21  1  0
 17 22  2  0
 22 23  1  0
 23 24  3  0
  6 25  1  0
 25 26  2  0
 26  3  1  0
 22 12  1  0
M  END
>  <Binding energies>  (18) 
[-6.7]

>  <Ligand effiencies>  (18) 
[-0.24814814814814815]

>  <Interactions>  (18) 
["V-A:ILE:369:CG2:3236, V-B:PRO:540:N:9856, V-B:TYR:539:CD2:9846, V-A:PRO:482:CG:4326, V-B:PRO:540:C:9853, V-A:PRO:482:CB:4325, V-A:LEU:475:CD1:4257, V-B:ALA:541:CA:9862, V-A:SER:385:CA:3406, V-B:TYR:539:C:9839, V-B:ALA:541:CB:9864, V-B:GLU:543:CD:9880, V-A:ARG:545:CZ:4926, V-B:GLU:543:CB:9878, V-A:HIS:456:CE1:4069, V-B:HIS:456:CE1:9041, V-A:HIS:383:CE1:3392, H-A:GLY:454:N:4049, V-B:GLU:543:CG:9879, V-A:ASP:366:CG:3212, H-A:ARG:545:NH1:4927, V-A:TYR:484:CE2:4345, V-A:TYR:484:CZ:4346, H-A:ARG:545:NH2:4928, V-B:TYR:539:CB:9843, V-B:TYR:539:CG:9844, H-A:HIS:383:NE2:3393, H-A:SER:385:OG:3409, V-A:PRO:482:CD:4327"]

$$$$
2d_Ghoteimi_2023
     RDKit          3D

 38 42  0  0  0  0  0  0  0  0999 V2000
  124.3330  130.1940   63.2510 C   0  0  0  0  0  0  0  0  0  0  0  0
  124.3130  129.8580   64.6290 O   0  0  0  0  0  0  0  0  0  0  0  0
  125.4000  129.3180   65.2190 C   0  0  0  0  0  0  0  0  0  0  0  0
  125.3820  128.4480   66.0940 O   0  0  0  0  0  0  0  0  0  0  0  0
  126.6960  129.9220   64.6580 C   0  0  0  0  0  0  0  0  0  0  0  0
  127.4170  128.8530   63.3650 S   0  0  0  0  0  0  0  0  0  0  0  0
  128.2540  127.4980   64.1620 C   0  0  0  0  0  0  0  0  0  0  0  0
  128.3380  127.6370   65.5070 N   0  0  0  0  0  0  0  0  0  0  0  0
  128.9580  126.6810   66.2440 C   0  0  0  0  0  0  0  0  0  0  0  0
  129.0280  126.9120   67.7190 C   0  0  0  0  0  0  0  0  0  0  0  0
  129.5080  128.1240   68.2280 C   0  0  0  0  0  0  0  0  0  0  0  0
  129.5750  128.3460   69.6010 C   0  0  0  0  0  0  0  0  0  0  0  0
  129.1540  127.3680   70.5150 C   0  0  0  0  0  0  0  0  0  0  0  0
  129.2320  127.5680   71.8980 N   0  0  0  0  0  0  0  0  0  0  0  0
  130.1370  126.7660   72.7440 C   0  0  0  0  0  0  0  0  0  0  0  0
  129.8210  126.8610   74.2510 C   0  0  0  0  0  0  0  0  0  0  0  0
  129.8180  128.2200   74.6600 O   0  0  0  0  0  0  0  0  0  0  0  0
  128.8390  128.9720   73.9630 C   0  0  0  0  0  0  0  0  0  0  0  0
  129.1220  128.9350   72.4460 C   0  0  0  0  0  0  0  0  0  0  0  0
  128.6860  126.1500   70.0000 C   0  0  0  0  0  0  0  0  0  0  0  0
  128.6210  125.9270   68.6280 C   0  0  0  0  0  0  0  0  0  0  0  0
  129.5100  125.5490   65.6370 C   0  0  0  0  0  0  0  0  0  0  0  0
  129.4070  125.3640   64.2530 C   0  0  0  0  0  0  0  0  0  0  0  0
  129.9950  124.1170   63.6780 C   0  0  0  0  0  0  0  0  0  0  0  0
  131.3530  123.8420   63.8400 C   0  0  0  0  0  0  0  0  0  0  0  0
  131.9090  122.6770   63.3190 C   0  0  0  0  0  0  0  0  0  0  0  0
  131.1180  121.7530   62.6160 C   0  0  0  0  0  0  0  0  0  0  0  0
  131.6510  120.5710   62.0950 N   0  0  0  0  0  0  0  0  0  0  0  0
  132.8210  120.5860   61.1950 C   0  0  0  0  0  0  0  0  0  0  0  0
  133.4780  119.2000   61.0160 C   0  0  0  0  0  0  0  0  0  0  0  0
  132.5110  118.2580   60.5770 O   0  0  0  0  0  0  0  0  0  0  0  0
  131.4480  118.1250   61.5080 C   0  0  0  0  0  0  0  0  0  0  0  0
  130.7370  119.4830   61.6950 C   0  0  0  0  0  0  0  0  0  0  0  0
  129.7520  122.0300   62.4730 C   0  0  0  0  0  0  0  0  0  0  0  0
  129.1970  123.1950   62.9950 C   0  0  0  0  0  0  0  0  0  0  0  0
  128.7560  126.3620   63.4850 C   0  0  0  0  0  0  0  0  0  0  0  0
  128.6070  126.2050   62.0360 C   0  0  0  0  0  0  0  0  0  0  0  0
  128.4910  126.0770   60.8910 N   0  0  0  0  0  0  0  0  0  0  0  0
  1  2  1  0
  2  3  1  0
  3  4  2  0
  3  5  1  0
  5  6  1  0
  6  7  1  0
  7  8  2  0
  8  9  1  0
  9 10  1  0
 10 11  2  0
 11 12  1  0
 12 13  2  0
 13 14  1  0
 14 15  1  0
 15 16  1  0
 16 17  1  0
 17 18  1  0
 18 19  1  0
 13 20  1  0
 20 21  2  0
  9 22  2  0
 22 23  1  0
 23 24  1  0
 24 25  2  0
 25 26  1  0
 26 27  2  0
 27 28  1  0
 28 29  1  0
 29 30  1  0
 30 31  1  0
 31 32  1  0
 32 33  1  0
 27 34  1  0
 34 35  2  0
 23 36  2  0
 36 37  1  0
 37 38  3  0
 36  7  1  0
 21 10  1  0
 35 24  1  0
 19 14  1  0
 33 28  1  0
M  END
>  <Binding energies>  (19) 
[-8.33]

>  <Ligand effiencies>  (19) 
[-0.21921052631578947]

>  <Interactions>  (19) 
["V-A:ILE:369:CG2:3236, V-A:PRO:482:CG:4326, V-A:PRO:482:CB:4325, V-A:LEU:475:CD1:4257, V-A:SER:385:CA:3406, V-A:SER:385:C:3404, V-B:ALA:541:CB:9864, V-B:GLU:543:CD:9880, H-B:ARG:545:NE:9896, V-B:GLU:543:CB:9878, V-A:GLU:543:CB:4906, H-B:TYR:484:OH:9319, V-A:HIS:456:CE1:4069, V-B:HIS:456:CE1:9041, H-B:ARG:545:NH2:9900, V-B:ARG:545:CZ:9898, H-B:GLY:454:N:9021, V-A:GLU:543:C:4902, V-B:GLU:543:CG:9879, V-A:GLU:543:CD:4908, V-B:GLU:543:C:9874, V-B:HIS:456:CD2:9039, V-B:GLU:543:CA:9876, V-A:HIS:456:CD2:4067, H-A:HIS:383:NE2:3393, H-A:SER:385:OG:3409, H-A:LYS:547:NZ:4951"]

$$$$
2d_Grossjean_2025
     RDKit          3D

 24 25  0  0  0  0  0  0  0  0999 V2000
  129.0630  122.5570   62.3460 C   0  0  0  0  0  0  0  0  0  0  0  0
  130.1700  121.6320   61.8780 C   0  0  0  0  0  0  0  0  0  0  0  0
  129.9080  120.3230   61.4800 C   0  0  0  0  0  0  0  0  0  0  0  0
  130.9660  119.5080   61.0500 C   0  0  0  0  0  0  0  0  0  0  0  0
  130.6560  118.0660   60.6040 C   0  0  0  0  0  0  0  0  0  0  0  0
  131.3530  117.2010   61.3400 F   0  0  0  0  0  0  0  0  0  0  0  0
  129.3550  117.8110   60.7540 F   0  0  0  0  0  0  0  0  0  0  0  0
  130.9620  117.8440   59.3240 F   0  0  0  0  0  0  0  0  0  0  0  0
  132.2780  120.0470   61.0430 C   0  0  0  0  0  0  0  0  0  0  0  0
  133.4100  119.2530   60.5600 C   0  0  0  0  0  0  0  0  0  0  0  0
  134.3030  118.6240   60.1760 N   0  0  0  0  0  0  0  0  0  0  0  0
  132.4520  121.3790   61.4890 C   0  0  0  0  0  0  0  0  0  0  0  0
  134.0320  122.2010   61.5750 S   0  0  0  0  0  0  0  0  0  0  0  0
  133.7550  124.0030   61.5770 C   0  0  0  0  0  0  0  0  0  0  0  0
  133.5490  124.5760   62.9820 C   0  0  0  0  0  0  0  0  0  0  0  0
  134.5220  125.0090   63.6000 O   0  0  0  0  0  0  0  0  0  0  0  0
  132.2850  124.5300   63.4520 N   0  0  0  0  0  0  0  0  0  0  0  0
  131.7790  124.9750   64.6880 C   0  0  0  0  0  0  0  0  0  0  0  0
  130.4560  124.6270   64.9700 C   0  0  0  0  0  0  0  0  0  0  0  0
  129.8650  125.0260   66.1650 C   0  0  0  0  0  0  0  0  0  0  0  0
  130.5960  125.7840   67.0770 C   0  0  0  0  0  0  0  0  0  0  0  0
  131.9110  126.1490   66.8010 C   0  0  0  0  0  0  0  0  0  0  0  0
  132.5060  125.7500   65.6080 C   0  0  0  0  0  0  0  0  0  0  0  0
  131.4160  122.1590   61.8810 N   0  0  0  0  0  0  0  0  0  0  0  0
  1  2  1  0
  2  3  2  0
  3  4  1  0
  4  5  1  0
  5  6  1  0
  5  7  1  0
  5  8  1  0
  4  9  2  0
  9 10  1  0
 10 11  3  0
  9 12  1  0
 12 13  1  0
 13 14  1  0
 14 15  1  0
 15 16  2  0
 15 17  1  0
 17 18  1  0
 18 19  2  0
 19 20  1  0
 20 21  2  0
 21 22  1  0
 22 23  2  0
 12 24  2  0
 24  2  1  0
 23 18  1  0
M  END
>  <Binding energies>  (20) 
[-6.78]

>  <Ligand effiencies>  (20) 
[-0.2712]

>  <Interactions>  (20) 
["V-A:ILE:369:CG2:3236, V-B:PRO:540:N:9856, V-B:TYR:539:CD2:9846, V-A:PRO:482:CG:4326, V-B:PRO:540:C:9853, V-A:PRO:482:CB:4325, V-A:LEU:475:CD1:4257, V-B:ALA:541:CA:9862, V-A:SER:385:CA:3406, V-B:TYR:539:C:9839, V-B:ALA:541:CB:9864, V-B:GLU:543:CD:9880, V-A:ARG:545:CZ:4926, V-B:GLU:543:CB:9878, V-A:HIS:456:CE1:4069, V-A:HIS:383:CE1:3392, H-A:GLY:454:N:4049, V-B:GLU:543:CG:9879, V-A:ASP:366:CG:3212, H-A:ARG:545:NH1:4927, V-A:TYR:484:CE2:4345, V-A:TYR:484:CZ:4346, H-A:ARG:545:NH2:4928, V-B:TYR:539:CB:9843, V-B:TYR:539:CA:9841, V-B:TYR:539:CG:9844, H-A:HIS:383:NE2:3393, H-A:SER:385:OG:3409, V-A:PRO:482:CD:4327"]

$$$$
2e_Grossjean_2025
     RDKit          3D

 25 26  0  0  0  0  0  0  0  0999 V2000
  134.3680  125.7080   67.5160 C   0  0  0  0  0  0  0  0  0  0  0  0
  133.2630  125.5340   66.4920 C   0  0  0  0  0  0  0  0  0  0  0  0
  131.9660  125.9970   66.7290 C   0  0  0  0  0  0  0  0  0  0  0  0
  131.0030  125.8120   65.7360 C   0  0  0  0  0  0  0  0  0  0  0  0
  131.3550  125.1750   64.5430 C   0  0  0  0  0  0  0  0  0  0  0  0
  132.6700  124.7270   64.3750 C   0  0  0  0  0  0  0  0  0  0  0  0
  132.9800  124.1320   63.1400 N   0  0  0  0  0  0  0  0  0  0  0  0
  134.0950  124.2930   62.3940 C   0  0  0  0  0  0  0  0  0  0  0  0
  135.0790  124.9560   62.7270 O   0  0  0  0  0  0  0  0  0  0  0  0
  134.0780  123.6220   61.0170 C   0  0  0  0  0  0  0  0  0  0  0  0
  134.3270  121.8220   61.1300 S   0  0  0  0  0  0  0  0  0  0  0  0
  132.6940  121.1180   61.1730 C   0  0  0  0  0  0  0  0  0  0  0  0
  131.7390  121.9360   61.6830 N   0  0  0  0  0  0  0  0  0  0  0  0
  130.4770  121.4630   61.7940 C   0  0  0  0  0  0  0  0  0  0  0  0
  129.4600  122.4300   62.3700 C   0  0  0  0  0  0  0  0  0  0  0  0
  130.1210  120.1710   61.4120 C   0  0  0  0  0  0  0  0  0  0  0  0
  131.0980  119.3100   60.8920 C   0  0  0  0  0  0  0  0  0  0  0  0
  130.6930  117.8780   60.4950 C   0  0  0  0  0  0  0  0  0  0  0  0
  131.3850  116.9910   61.2120 F   0  0  0  0  0  0  0  0  0  0  0  0
  129.3920  117.6940   60.7180 F   0  0  0  0  0  0  0  0  0  0  0  0
  130.9220  117.6170   59.2060 F   0  0  0  0  0  0  0  0  0  0  0  0
  132.4250  119.7920   60.7650 C   0  0  0  0  0  0  0  0  0  0  0  0
  133.4980  118.9310   60.2560 C   0  0  0  0  0  0  0  0  0  0  0  0
  134.3450  118.2520   59.8550 N   0  0  0  0  0  0  0  0  0  0  0  0
  133.6190  124.9110   65.3390 N   0  0  0  0  0  0  0  0  0  0  0  0
  1  2  1  0
  2  3  2  0
  3  4  1  0
  4  5  2  0
  5  6  1  0
  6  7  1  0
  7  8  1  0
  8  9  2  0
  8 10  1  0
 10 11  1  0
 11 12  1  0
 12 13  2  0
 13 14  1  0
 14 15  1  0
 14 16  2  0
 16 17  1  0
 17 18  1  0
 18 19  1  0
 18 20  1  0
 18 21  1  0
 17 22  2  0
 22 23  1  0
 23 24  3  0
  6 25  2  0
 25  2  1  0
 22 12  1  0
M  END
>  <Binding energies>  (21) 
[-7.0]

>  <Ligand effiencies>  (21) 
[-0.2692307692307692]

>  <Interactions>  (21) 
["V-A:ILE:369:CG2:3236, V-B:TYR:539:CD2:9846, V-A:PRO:482:CG:4326, V-B:PRO:540:C:9853, V-A:PRO:482:CB:4325, V-A:LEU:475:CD1:4257, V-A:SER:385:CA:3406, V-B:TYR:539:C:9839, V-B:ALA:541:CB:9864, V-A:ARG:545:CD:4923, V-A:ARG:545:CZ:4926, V-A:GLY:453:CA:4043, V-A:ARG:545:CB:4921, V-A:GLY:453:C:4041, V-A:HIS:456:CE1:4069, V-A:ARG:545:CG:4922, V-A:HIS:383:CE1:3392, H-A:TYR:484:OH:4347, H-A:GLY:454:N:4049, V-A:ASP:366:CG:3212, H-A:ARG:545:NH1:4927, V-A:ILE:369:CD1:3238, V-A:TYR:484:CZ:4346, H-A:ARG:545:NH2:4928, V-B:TYR:539:CB:9843, V-B:TYR:539:CA:9841, V-A:HIS:383:CD2:3391, V-A:ILE:455:C:4051, H-A:ARG:545:NE:4924, V-B:TYR:539:CG:9844, H-A:HIS:383:NE2:3393, H-A:SER:385:OG:3409, V-A:PRO:482:CD:4327"]

$$$$
2f_Grossjean_2025
     RDKit          3D

 24 25  0  0  0  0  0  0  0  0999 V2000
  133.5690  125.6190   66.9500 C   0  0  0  0  0  0  0  0  0  0  0  0
  133.0690  125.3930   65.5360 C   0  0  0  0  0  0  0  0  0  0  0  0
  131.7190  125.5050   65.2120 C   0  0  0  0  0  0  0  0  0  0  0  0
  131.3050  125.2780   63.8900 C   0  0  0  0  0  0  0  0  0  0  0  0
  129.8060  125.3940   63.5550 C   0  0  0  0  0  0  0  0  0  0  0  0
  129.1210  125.7640   64.6390 F   0  0  0  0  0  0  0  0  0  0  0  0
  129.6240  126.3040   62.5970 F   0  0  0  0  0  0  0  0  0  0  0  0
  129.2810  124.2450   63.1230 F   0  0  0  0  0  0  0  0  0  0  0  0
  132.2860  124.9470   62.9200 C   0  0  0  0  0  0  0  0  0  0  0  0
  131.8970  124.6450   61.5400 C   0  0  0  0  0  0  0  0  0  0  0  0
  131.5890  124.4080   60.4490 N   0  0  0  0  0  0  0  0  0  0  0  0
  133.6380  124.8820   63.3350 C   0  0  0  0  0  0  0  0  0  0  0  0
  134.9970  124.4930   62.2520 S   0  0  0  0  0  0  0  0  0  0  0  0
  134.3510  123.4920   60.8690 C   0  0  0  0  0  0  0  0  0  0  0  0
  133.9660  122.0500   61.2330 C   0  0  0  0  0  0  0  0  0  0  0  0
  134.7430  121.3330   61.8650 O   0  0  0  0  0  0  0  0  0  0  0  0
  132.7500  121.6670   60.7890 N   0  0  0  0  0  0  0  0  0  0  0  0
  132.0860  120.4350   60.9490 C   0  0  0  0  0  0  0  0  0  0  0  0
  130.7770  120.2710   61.4380 C   0  0  0  0  0  0  0  0  0  0  0  0
  130.2340  118.9900   61.5430 C   0  0  0  0  0  0  0  0  0  0  0  0
  131.0130  117.9000   61.1520 C   0  0  0  0  0  0  0  0  0  0  0  0
  132.2750  118.0320   60.6700 N   0  0  0  0  0  0  0  0  0  0  0  0
  132.7880  119.2850   60.5740 C   0  0  0  0  0  0  0  0  0  0  0  0
  134.0150  125.0820   64.6210 N   0  0  0  0  0  0  0  0  0  0  0  0
  1  2  1  0
  2  3  2  0
  3  4  1  0
  4  5  1  0
  5  6  1  0
  5  7  1  0
  5  8  1  0
  4  9  2  0
  9 10  1  0
 10 11  3  0
  9 12  1  0
 12 13  1  0
 13 14  1  0
 14 15  1  0
 15 16  2  0
 15 17  1  0
 17 18  1  0
 18 19  2  0
 19 20  1  0
 20 21  2  0
 21 22  1  0
 22 23  2  0
 12 24  2  0
 24  2  1  0
 23 18  1  0
M  END
>  <Binding energies>  (22) 
[-6.4]

>  <Ligand effiencies>  (22) 
[-0.256]

>  <Interactions>  (22) 
["V-A:ILE:369:CG2:3236, V-B:TYR:539:CD2:9846, V-A:PRO:482:CG:4326, V-A:PRO:482:CB:4325, V-A:LEU:475:CD1:4257, V-B:ALA:541:CA:9862, V-B:ALA:541:CB:9864, V-B:GLU:543:CD:9880, V-A:ARG:545:CD:4923, V-A:ARG:545:CZ:4926, V-A:GLY:453:CA:4043, V-A:HIS:456:CE1:4069, V-A:ARG:545:CG:4922, H-A:TYR:484:OH:4347, H-A:GLY:454:N:4049, V-B:GLU:543:CG:9879, H-A:ARG:545:NH1:4927, V-A:ILE:369:CD1:3238, V-A:TYR:484:CZ:4346, V-A:ILE:369:CB:3235, H-A:ARG:545:NH2:4928, H-A:ARG:545:NE:4924, H-A:HIS:383:NE2:3393, H-A:SER:385:OG:3409"]

$$$$
2g_Grossjean_2025
     RDKit          3D

 25 26  0  0  0  0  0  0  0  0999 V2000
  128.8260  122.7820   62.0530 C   0  0  0  0  0  0  0  0  0  0  0  0
  129.9590  121.8800   61.6020 C   0  0  0  0  0  0  0  0  0  0  0  0
  129.7810  120.5080   61.4450 C   0  0  0  0  0  0  0  0  0  0  0  0
  130.8630  119.7150   61.0320 C   0  0  0  0  0  0  0  0  0  0  0  0
  130.6490  118.1970   60.8730 C   0  0  0  0  0  0  0  0  0  0  0  0
  129.3660  117.8880   61.0680 F   0  0  0  0  0  0  0  0  0  0  0  0
  131.0040  117.8170   59.6450 F   0  0  0  0  0  0  0  0  0  0  0  0
  131.3680  117.4810   61.7410 F   0  0  0  0  0  0  0  0  0  0  0  0
  132.1080  120.3450   60.7780 C   0  0  0  0  0  0  0  0  0  0  0  0
  133.2830  119.5560   60.3990 C   0  0  0  0  0  0  0  0  0  0  0  0
  134.2110  118.9320   60.1000 N   0  0  0  0  0  0  0  0  0  0  0  0
  132.1870  121.7500   60.9340 C   0  0  0  0  0  0  0  0  0  0  0  0
  133.6610  122.7010   60.6330 S   0  0  0  0  0  0  0  0  0  0  0  0
  134.3750  123.1320   62.2560 C   0  0  0  0  0  0  0  0  0  0  0  0
  133.7340  124.3490   62.9370 C   0  0  0  0  0  0  0  0  0  0  0  0
  134.3360  124.9950   63.7980 O   0  0  0  0  0  0  0  0  0  0  0  0
  132.4850  124.6460   62.5340 N   0  0  0  0  0  0  0  0  0  0  0  0
  131.6740  125.7590   63.0290 C   0  0  0  0  0  0  0  0  0  0  0  0
  131.2960  125.6560   64.5020 C   0  0  0  0  0  0  0  0  0  0  0  0
  130.1000  125.0320   64.8720 C   0  0  0  0  0  0  0  0  0  0  0  0
  129.7710  124.9030   66.2190 C   0  0  0  0  0  0  0  0  0  0  0  0
  130.6420  125.3870   67.1920 C   0  0  0  0  0  0  0  0  0  0  0  0
  131.8410  125.9980   66.8300 C   0  0  0  0  0  0  0  0  0  0  0  0
  132.1710  126.1270   65.4840 C   0  0  0  0  0  0  0  0  0  0  0  0
  131.1370  122.4970   61.3560 N   0  0  0  0  0  0  0  0  0  0  0  0
  1  2  1  0
  2  3  2  0
  3  4  1  0
  4  5  1  0
  5  6  1  0
  5  7  1  0
  5  8  1  0
  4  9  2  0
  9 10  1  0
 10 11  3  0
  9 12  1  0
 12 13  1  0
 13 14  1  0
 14 15  1  0
 15 16  2  0
 15 17  1  0
 17 18  1  0
 18 19  1  0
 19 20  2  0
 20 21  1  0
 21 22  2  0
 22 23  1  0
 23 24  2  0
 12 25  2  0
 25  2  1  0
 24 19  1  0
M  END
>  <Binding energies>  (23) 
[-6.35]

>  <Ligand effiencies>  (23) 
[-0.24423076923076922]

>  <Interactions>  (23) 
["V-A:ILE:369:CG2:3236, V-B:TYR:539:CD2:9846, V-A:PRO:482:CG:4326, V-B:PRO:540:C:9853, V-A:PRO:482:CB:4325, V-A:LEU:475:CD1:4257, V-B:ALA:541:CA:9862, V-B:TYR:539:C:9839, V-B:ALA:541:CB:9864, V-B:GLU:543:CD:9880, V-A:ARG:545:CZ:4926, V-B:GLU:543:CB:9878, V-A:GLY:453:C:4041, V-A:HIS:456:CE1:4069, V-A:GLY:454:CA:4048, V-A:HIS:383:CE1:3392, H-A:GLY:454:N:4049, V-B:GLU:543:CG:9879, V-A:GLU:543:CD:4908, H-A:ARG:545:NH1:4927, V-A:ILE:369:CD1:3238, V-A:TYR:484:CE2:4345, V-A:TYR:484:CZ:4346, H-A:ARG:545:NH2:4928, V-B:TYR:539:CB:9843, V-B:TYR:539:CG:9844, H-A:HIS:383:NE2:3393, H-A:SER:385:OG:3409, V-A:PRO:482:CD:4327"]

$$$$
2h_Grossjean_2025
     RDKit          3D

 31 32  0  0  0  0  0  0  0  0999 V2000
  124.5310  123.5020   58.5340 C   0  0  0  0  0  0  0  0  0  0  0  0
  125.7990  124.1170   58.3360 O   0  0  0  0  0  0  0  0  0  0  0  0
  126.9470  123.4360   58.6970 C   0  0  0  0  0  0  0  0  0  0  0  0
  127.9650  123.0820   57.7970 C   0  0  0  0  0  0  0  0  0  0  0  0
  129.0980  122.4030   58.2370 C   0  0  0  0  0  0  0  0  0  0  0  0
  129.2410  122.0620   59.5830 C   0  0  0  0  0  0  0  0  0  0  0  0
  130.5030  121.3350   60.0460 C   0  0  0  0  0  0  0  0  0  0  0  0
  131.1340  121.9420   61.2170 N   0  0  0  0  0  0  0  0  0  0  0  0
  132.4600  121.9990   61.4360 C   0  0  0  0  0  0  0  0  0  0  0  0
  133.2890  121.4640   60.6980 O   0  0  0  0  0  0  0  0  0  0  0  0
  132.8930  122.7920   62.6770 C   0  0  0  0  0  0  0  0  0  0  0  0
  132.3990  124.5480   62.6810 S   0  0  0  0  0  0  0  0  0  0  0  0
  132.4410  125.0890   64.3760 C   0  0  0  0  0  0  0  0  0  0  0  0
  133.6790  125.0610   64.9270 N   0  0  0  0  0  0  0  0  0  0  0  0
  133.8230  125.4350   66.2180 C   0  0  0  0  0  0  0  0  0  0  0  0
  135.2340  125.3710   66.7700 C   0  0  0  0  0  0  0  0  0  0  0  0
  132.7510  125.8540   67.0040 C   0  0  0  0  0  0  0  0  0  0  0  0
  131.4650  125.9090   66.4450 C   0  0  0  0  0  0  0  0  0  0  0  0
  130.2930  126.3830   67.3270 C   0  0  0  0  0  0  0  0  0  0  0  0
  130.7270  127.2750   68.2170 F   0  0  0  0  0  0  0  0  0  0  0  0
  129.3180  126.9620   66.6220 F   0  0  0  0  0  0  0  0  0  0  0  0
  129.7600  125.3470   67.9750 F   0  0  0  0  0  0  0  0  0  0  0  0
  131.2990  125.5270   65.0890 C   0  0  0  0  0  0  0  0  0  0  0  0
  129.9880  125.6230   64.4410 C   0  0  0  0  0  0  0  0  0  0  0  0
  128.9530  125.7020   63.9320 N   0  0  0  0  0  0  0  0  0  0  0  0
  128.2220  122.3880   60.4900 C   0  0  0  0  0  0  0  0  0  0  0  0
  128.3540  122.0530   61.8170 O   0  0  0  0  0  0  0  0  0  0  0  0
  128.4820  123.1660   62.6930 C   0  0  0  0  0  0  0  0  0  0  0  0
  127.0880  123.0910   60.0480 C   0  0  0  0  0  0  0  0  0  0  0  0
  126.0960  123.4290   60.9370 O   0  0  0  0  0  0  0  0  0  0  0  0
  126.1290  124.7860   61.3570 C   0  0  0  0  0  0  0  0  0  0  0  0
  1  2  1  0
  2  3  1  0
  3  4  2  0
  4  5  1  0
  5  6  2  0
  6  7  1  0
  7  8  1  0
  8  9  1  0
  9 10  2  0
  9 11  1  0
 11 12  1  0
 12 13  1  0
 13 14  2  0
 14 15  1  0
 15 16  1  0
 15 17  2  0
 17 18  1  0
 18 19  1  0
 19 20  1  0
 19 21  1  0
 19 22  1  0
 18 23  2  0
 23 24  1  0
 24 25  3  0
  6 26  1  0
 26 27  1  0
 27 28  1  0
 26 29  2  0
 29 30  1  0
 30 31  1  0
 29  3  1  0
 23 13  1  0
M  END
>  <Binding energies>  (24) 
[-6.22]

>  <Ligand effiencies>  (24) 
[-0.194375]

>  <Interactions>  (24) 
["V-B:PRO:540:CB:9857, V-B:TYR:539:CE2:9848, V-B:TYR:539:CZ:9849, V-B:TYR:539:CD2:9846, V-B:PRO:540:CA:9855, V-B:PRO:540:C:9853, V-B:MET:535:CE:9807, V-A:LEU:475:CD1:4257, H-B:ALA:541:N:9863, V-B:TYR:539:C:9839, V-B:ALA:541:CB:9864, V-B:GLU:543:CD:9880, V-A:ARG:545:CD:4923, V-A:ARG:545:CZ:4926, V-A:GLY:453:CA:4043, V-B:GLU:543:CB:9878, V-A:GLY:453:C:4041, V-A:GLU:543:CB:4906, V-A:HIS:456:CE1:4069, V-A:ARG:545:CG:4922, V-A:GLY:454:CA:4048, H-A:TYR:484:OH:4347, H-A:GLY:454:N:4049, V-B:GLU:543:CG:9879, V-A:GLU:543:CD:4908, V-A:TYR:484:CE2:4345, V-A:TYR:484:CZ:4346, H-A:ARG:545:NH2:4928, V-A:ILE:455:C:4051, H-A:ARG:545:NE:4924, V-B:LEU:363:CA:8156, V-B:TYR:539:CG:9844, V-B:LEU:363:CB:8158, V-B:LEU:363:CD1:8160, V-A:GLY:454:C:4046"]

$$$$
2i_Grossjean_2025
     RDKit          3D

 23 24  0  0  0  0  0  0  0  0999 V2000
  129.3280  122.3030   62.5290 C   0  0  0  0  0  0  0  0  0  0  0  0
  130.3780  121.3630   61.9660 C   0  0  0  0  0  0  0  0  0  0  0  0
  130.0470  120.0930   61.5000 C   0  0  0  0  0  0  0  0  0  0  0  0
  131.0540  119.2630   60.9860 C   0  0  0  0  0  0  0  0  0  0  0  0
  130.6700  117.8610   60.4770 C   0  0  0  0  0  0  0  0  0  0  0  0
  129.3740  117.6340   60.6980 F   0  0  0  0  0  0  0  0  0  0  0  0
  130.9070  117.7690   59.1680 F   0  0  0  0  0  0  0  0  0  0  0  0
  131.3570  116.8860   61.0780 F   0  0  0  0  0  0  0  0  0  0  0  0
  132.3850  119.7500   60.9590 C   0  0  0  0  0  0  0  0  0  0  0  0
  133.4760  118.9250   60.4310 C   0  0  0  0  0  0  0  0  0  0  0  0
  134.3380  118.2740   60.0150 N   0  0  0  0  0  0  0  0  0  0  0  0
  132.6330  121.0520   61.4540 C   0  0  0  0  0  0  0  0  0  0  0  0
  134.2690  121.7670   61.4770 S   0  0  0  0  0  0  0  0  0  0  0  0
  134.1090  123.5530   61.1760 C   0  0  0  0  0  0  0  0  0  0  0  0
  134.1100  124.3620   62.4740 C   0  0  0  0  0  0  0  0  0  0  0  0
  135.1140  125.0090   62.7760 O   0  0  0  0  0  0  0  0  0  0  0  0
  132.9870  124.2790   63.2200 N   0  0  0  0  0  0  0  0  0  0  0  0
  132.7540  124.9010   64.4350 C   0  0  0  0  0  0  0  0  0  0  0  0
  131.5760  125.4620   64.9520 C   0  0  0  0  0  0  0  0  0  0  0  0
  131.9290  125.9320   66.1960 C   0  0  0  0  0  0  0  0  0  0  0  0
  133.2380  125.6620   66.4170 O   0  0  0  0  0  0  0  0  0  0  0  0
  133.7440  125.0040   65.2940 N   0  0  0  0  0  0  0  0  0  0  0  0
  131.6430  121.8400   61.9460 N   0  0  0  0  0  0  0  0  0  0  0  0
  1  2  1  0
  2  3  2  0
  3  4  1  0
  4  5  1  0
  5  6  1  0
  5  7  1  0
  5  8  1  0
  4  9  2  0
  9 10  1  0
 10 11  3  0
  9 12  1  0
 12 13  1  0
 13 14  1  0
 14 15  1  0
 15 16  2  0
 15 17  1  0
 17 18  1  0
 18 19  1  0
 19 20  2  0
 20 21  1  0
 21 22  1  0
 12 23  2  0
 23  2  1  0
 22 18  2  0
M  END
>  <Binding energies>  (25) 
[-6.49]

>  <Ligand effiencies>  (25) 
[-0.2704166666666667]

>  <Interactions>  (25) 
["V-A:ILE:369:CG2:3236, V-B:TYR:539:CD2:9846, V-A:PRO:482:CG:4326, V-B:PRO:540:C:9853, V-A:PRO:482:CB:4325, V-A:LEU:475:CD1:4257, V-B:ALA:541:CA:9862, V-A:SER:385:CA:3406, V-B:TYR:539:C:9839, V-B:ALA:541:CB:9864, V-A:ARG:545:CZ:4926, V-A:GLY:453:CA:4043, V-A:GLY:453:C:4041, V-A:HIS:383:CE1:3392, H-A:TYR:484:OH:4347, H-A:GLY:454:N:4049, V-A:ASP:366:CG:3212, H-A:ARG:545:NH1:4927, V-A:ILE:369:CD1:3238, H-A:ARG:545:NH2:4928, V-B:TYR:539:CB:9843, V-B:TYR:539:CA:9841, V-A:HIS:383:CD2:3391, H-A:ARG:545:NE:4924, V-B:TYR:539:CG:9844, H-A:HIS:383:NE2:3393, H-A:SER:385:OG:3409, V-A:PRO:482:CD:4327"]

$$$$
2k_Grossjean_2025
     RDKit          3D

 28 28  0  0  0  0  0  0  0  0999 V2000
  124.9990  124.0990   58.1090 C   0  0  0  0  0  0  0  0  0  0  0  0
  126.0370  124.2570   57.1540 O   0  0  0  0  0  0  0  0  0  0  0  0
  127.1760  123.4480   57.4160 C   0  0  0  0  0  0  0  0  0  0  0  0
  128.3800  124.3390   57.7490 C   0  0  0  0  0  0  0  0  0  0  0  0
  129.5390  123.5280   57.8650 O   0  0  0  0  0  0  0  0  0  0  0  0
  130.7600  124.2570   57.9140 C   0  0  0  0  0  0  0  0  0  0  0  0
  130.5630  125.4720   58.8300 C   0  0  0  0  0  0  0  0  0  0  0  0
  130.7860  125.0500   60.1660 O   0  0  0  0  0  0  0  0  0  0  0  0
  130.6220  126.0570   61.1530 C   0  0  0  0  0  0  0  0  0  0  0  0
  131.6300  125.8100   62.2910 C   0  0  0  0  0  0  0  0  0  0  0  0
  132.4990  124.6570   62.0450 N   0  0  0  0  0  0  0  0  0  0  0  0
  133.5890  124.3290   62.7660 C   0  0  0  0  0  0  0  0  0  0  0  0
  133.9660  124.9650   63.7520 O   0  0  0  0  0  0  0  0  0  0  0  0
  134.3720  123.1040   62.2700 C   0  0  0  0  0  0  0  0  0  0  0  0
  133.8450  122.4410   60.6520 S   0  0  0  0  0  0  0  0  0  0  0  0
  132.2820  121.5940   60.8380 C   0  0  0  0  0  0  0  0  0  0  0  0
  131.2190  122.3800   61.1460 N   0  0  0  0  0  0  0  0  0  0  0  0
  130.0060  121.8050   61.3060 C   0  0  0  0  0  0  0  0  0  0  0  0
  128.8730  122.7480   61.6600 C   0  0  0  0  0  0  0  0  0  0  0  0
  129.7970  120.4370   61.1550 C   0  0  0  0  0  0  0  0  0  0  0  0
  130.8800  119.6060   60.8290 C   0  0  0  0  0  0  0  0  0  0  0  0
  130.6300  118.0950   60.6610 C   0  0  0  0  0  0  0  0  0  0  0  0
  130.9980  117.6400   59.4620 F   0  0  0  0  0  0  0  0  0  0  0  0
  131.3210  117.4130   61.5770 F   0  0  0  0  0  0  0  0  0  0  0  0
  129.3330  117.8270   60.8110 F   0  0  0  0  0  0  0  0  0  0  0  0
  132.1600  120.1940   60.6660 C   0  0  0  0  0  0  0  0  0  0  0  0
  133.3270  119.3730   60.3280 C   0  0  0  0  0  0  0  0  0  0  0  0
  134.2480  118.7250   60.0610 N   0  0  0  0  0  0  0  0  0  0  0  0
  1  2  1  0
  2  3  1  0
  3  4  1  0
  4  5  1  0
  5  6  1  0
  6  7  1  0
  7  8  1  0
  8  9  1  0
  9 10  1  0
 10 11  1  0
 11 12  1  0
 12 13  2  0
 12 14  1  0
 14 15  1  0
 15 16  1  0
 16 17  2  0
 17 18  1  0
 18 19  1  0
 18 20  2  0
 20 21  1  0
 21 22  1  0
 22 23  1  0
 22 24  1  0
 22 25  1  0
 21 26  2  0
 26 27  1  0
 27 28  3  0
 26 16  1  0
M  END
>  <Binding energies>  (26) 
[-4.69]

>  <Ligand effiencies>  (26) 
[-0.1617241379310345]

>  <Interactions>  (26) 
["V-A:ILE:369:CG2:3236, V-B:TYR:539:CE2:9848, V-B:PRO:540:N:9856, V-B:TYR:539:CZ:9849, V-B:TYR:539:CD2:9846, V-A:PRO:482:CG:4326, V-B:PRO:540:C:9853, V-A:PRO:482:CB:4325, V-B:MET:535:CE:9807, V-A:LEU:475:CD1:4257, H-B:TYR:531:OH:9767, V-B:ALA:541:CA:9862, V-B:TYR:539:C:9839, V-B:ALA:541:CB:9864, V-A:GLY:453:C:4041, V-A:GLY:454:CA:4048, V-A:HIS:383:CE1:3392, H-A:GLY:454:N:4049, V-A:ASP:366:CG:3212, H-A:ARG:545:NH1:4927, V-A:ILE:369:CD1:3238, H-A:ARG:545:NH2:4928, V-B:TYR:539:CB:9843, V-B:TYR:539:CG:9844, V-B:TYR:531:CE2:9765, V-B:LEU:363:CD1:8160, H-A:HIS:383:NE2:3393, H-A:SER:385:OG:3409, H-B:TYR:539:OH:9850, V-A:PRO:482:CD:4327"]

$$$$
3aa_Grossjean_2025
     RDKit          3D

 34 36  0  0  0  0  0  0  0  0999 V2000
  133.9920  125.3680   67.6260 C   0  0  0  0  0  0  0  0  0  0  0  0
  132.6380  125.9370   67.1930 C   0  0  0  0  0  0  0  0  0  0  0  0
  132.7240  126.3970   65.8500 O   0  0  0  0  0  0  0  0  0  0  0  0
  132.9430  125.5320   64.8280 C   0  0  0  0  0  0  0  0  0  0  0  0
  134.0470  125.0350   64.5810 O   0  0  0  0  0  0  0  0  0  0  0  0
  131.7120  125.2490   64.0140 C   0  0  0  0  0  0  0  0  0  0  0  0
  130.5310  124.7650   64.5970 C   0  0  0  0  0  0  0  0  0  0  0  0
  129.4060  124.5190   63.8140 C   0  0  0  0  0  0  0  0  0  0  0  0
  129.4360  124.7560   62.4390 C   0  0  0  0  0  0  0  0  0  0  0  0
  128.2440  124.4770   61.7410 N   0  0  0  0  0  0  0  0  0  0  0  0
  127.4430  123.3910   61.8040 C   0  0  0  0  0  0  0  0  0  0  0  0
  127.6410  122.3970   62.5040 O   0  0  0  0  0  0  0  0  0  0  0  0
  126.2040  123.4320   60.9090 C   0  0  0  0  0  0  0  0  0  0  0  0
  126.6430  123.3760   59.1450 S   0  0  0  0  0  0  0  0  0  0  0  0
  128.4200  123.3730   59.0500 C   0  0  0  0  0  0  0  0  0  0  0  0
  128.9930  122.2950   59.6370 N   0  0  0  0  0  0  0  0  0  0  0  0
  130.3450  122.1690   59.6380 C   0  0  0  0  0  0  0  0  0  0  0  0
  130.9030  120.9420   60.2930 C   0  0  0  0  0  0  0  0  0  0  0  0
  130.1180  120.1850   61.1780 C   0  0  0  0  0  0  0  0  0  0  0  0
  130.6290  119.0430   61.7900 C   0  0  0  0  0  0  0  0  0  0  0  0
  131.9340  118.6430   61.5250 C   0  0  0  0  0  0  0  0  0  0  0  0
  132.7310  119.3740   60.6500 C   0  0  0  0  0  0  0  0  0  0  0  0
  132.2170  120.5140   60.0380 C   0  0  0  0  0  0  0  0  0  0  0  0
  131.1570  123.1350   59.0340 C   0  0  0  0  0  0  0  0  0  0  0  0
  130.5870  124.2690   58.4350 C   0  0  0  0  0  0  0  0  0  0  0  0
  131.5150  125.3150   57.7910 C   0  0  0  0  0  0  0  0  0  0  0  0
  132.8040  124.9710   57.8500 F   0  0  0  0  0  0  0  0  0  0  0  0
  131.2050  125.4750   56.5040 F   0  0  0  0  0  0  0  0  0  0  0  0
  131.3820  126.4860   58.4150 F   0  0  0  0  0  0  0  0  0  0  0  0
  129.1770  124.4040   58.4520 C   0  0  0  0  0  0  0  0  0  0  0  0
  128.5300  125.5940   57.8930 C   0  0  0  0  0  0  0  0  0  0  0  0
  128.0190  126.5350   57.4530 N   0  0  0  0  0  0  0  0  0  0  0  0
  130.6170  125.2270   61.8470 C   0  0  0  0  0  0  0  0  0  0  0  0
  131.7410  125.4710   62.6310 C   0  0  0  0  0  0  0  0  0  0  0  0
  1  2  1  0
  2  3  1  0
  3  4  1  0
  4  5  2  0
  4  6  1  0
  6  7  2  0
  7  8  1  0
  8  9  2  0
  9 10  1  0
 10 11  1  0
 11 12  2  0
 11 13  1  0
 13 14  1  0
 14 15  1  0
 15 16  2  0
 16 17  1  0
 17 18  1  0
 18 19  2  0
 19 20  1  0
 20 21  2  0
 21 22  1  0
 22 23  2  0
 17 24  2  0
 24 25  1  0
 25 26  1  0
 26 27  1  0
 26 28  1  0
 26 29  1  0
 25 30  2  0
 30 31  1  0
 31 32  3  0
  9 33  1  0
 33 34  2  0
 34  6  1  0
 30 15  1  0
 23 18  1  0
M  END
>  <Binding energies>  (27) 
[-7.45]

>  <Ligand effiencies>  (27) 
[-0.21285714285714286]

>  <Interactions>  (27) 
["V-B:PRO:540:CB:9857, V-A:ILE:369:CG2:3236, V-B:TYR:539:CE2:9848, V-B:TYR:539:CZ:9849, V-B:TYR:539:CD2:9846, V-B:PRO:540:CA:9855, V-A:PRO:482:CG:4326, V-A:PRO:482:CB:4325, V-A:LEU:475:CD1:4257, H-B:ALA:541:N:9863, H-B:TYR:531:OH:9767, V-B:ALA:541:CB:9864, V-B:GLU:543:CD:9880, V-A:ARG:545:CD:4923, V-A:ARG:545:CZ:4926, V-A:HIS:456:CE1:4069, V-A:ARG:545:CG:4922, H-A:TYR:484:OH:4347, H-A:GLY:454:N:4049, V-B:GLU:543:CG:9879, V-A:ASP:366:CG:3212, H-A:ARG:545:NH1:4927, V-A:ASP:366:C:3207, V-A:ASP:366:CB:3211, V-A:ASP:366:CA:3209, V-A:TYR:484:CZ:4346, H-A:ARG:545:NH2:4928, V-A:ILE:455:C:4051, H-A:ARG:545:NE:4924, V-A:TYR:484:CE1:4344"]

$$$$
3ad_Grossjean_2025
     RDKit          3D

 29 31  0  0  0  0  0  0  0  0999 V2000
  134.3080  118.7720   60.7390 N   0  0  0  0  0  0  0  0  0  0  0  0
  133.4020  119.4730   60.9030 C   0  0  0  0  0  0  0  0  0  0  0  0
  132.2510  120.3570   61.1100 C   0  0  0  0  0  0  0  0  0  0  0  0
  130.9310  119.8450   61.0940 C   0  0  0  0  0  0  0  0  0  0  0  0
  130.6230  118.3470   60.9060 C   0  0  0  0  0  0  0  0  0  0  0  0
  130.8840  117.9150   59.6720 F   0  0  0  0  0  0  0  0  0  0  0  0
  131.3580  117.6220   61.7510 F   0  0  0  0  0  0  0  0  0  0  0  0
  129.3320  118.1120   61.1460 F   0  0  0  0  0  0  0  0  0  0  0  0
  129.8630  120.7410   61.2510 C   0  0  0  0  0  0  0  0  0  0  0  0
  130.1050  122.1090   61.4160 C   0  0  0  0  0  0  0  0  0  0  0  0
  129.0000  123.1110   61.5720 C   0  0  0  0  0  0  0  0  0  0  0  0
  127.6660  122.7540   61.3200 C   0  0  0  0  0  0  0  0  0  0  0  0
  126.6360  123.6790   61.4640 C   0  0  0  0  0  0  0  0  0  0  0  0
  126.9280  124.9800   61.8650 C   0  0  0  0  0  0  0  0  0  0  0  0
  128.2400  125.3580   62.1240 C   0  0  0  0  0  0  0  0  0  0  0  0
  129.2680  124.4290   61.9790 C   0  0  0  0  0  0  0  0  0  0  0  0
  131.3710  122.5960   61.4240 N   0  0  0  0  0  0  0  0  0  0  0  0
  132.4190  121.7480   61.2960 C   0  0  0  0  0  0  0  0  0  0  0  0
  134.0020  122.5580   61.3420 S   0  0  0  0  0  0  0  0  0  0  0  0
  133.6930  124.3360   61.5660 C   0  0  0  0  0  0  0  0  0  0  0  0
  133.4350  124.6970   63.0310 C   0  0  0  0  0  0  0  0  0  0  0  0
  134.3880  125.0010   63.7490 O   0  0  0  0  0  0  0  0  0  0  0  0
  132.1430  124.6500   63.4200 N   0  0  0  0  0  0  0  0  0  0  0  0
  131.5690  124.9320   64.6740 C   0  0  0  0  0  0  0  0  0  0  0  0
  132.3160  125.7700   65.5070 C   0  0  0  0  0  0  0  0  0  0  0  0
  131.8410  126.1090   66.7710 C   0  0  0  0  0  0  0  0  0  0  0  0
  130.6190  125.6070   67.2070 C   0  0  0  0  0  0  0  0  0  0  0  0
  129.8680  124.7650   66.3910 C   0  0  0  0  0  0  0  0  0  0  0  0
  130.3390  124.4230   65.1260 C   0  0  0  0  0  0  0  0  0  0  0  0
  1  2  3  0
  2  3  1  0
  3  4  2  0
  4  5  1  0
  5  6  1  0
  5  7  1  0
  5  8  1  0
  4  9  1  0
  9 10  2  0
 10 11  1  0
 11 12  2  0
 12 13  1  0
 13 14  2  0
 14 15  1  0
 15 16  2  0
 10 17  1  0
 17 18  2  0
 18 19  1  0
 19 20  1  0
 20 21  1  0
 21 22  2  0
 21 23  1  0
 23 24  1  0
 24 25  2  0
 25 26  1  0
 26 27  2  0
 27 28  1  0
 28 29  2  0
 18  3  1  0
 29 24  1  0
 16 11  1  0
M  END
>  <Binding energies>  (28) 
[-7.44]

>  <Ligand effiencies>  (28) 
[-0.24800000000000003]

>  <Interactions>  (28) 
["V-A:ILE:369:CG2:3236, V-B:TYR:539:CD2:9846, V-B:PRO:540:CA:9855, V-A:PRO:482:CG:4326, V-B:PRO:540:C:9853, V-A:PRO:482:CB:4325, V-A:LEU:475:CD1:4257, V-B:ALA:541:CA:9862, V-A:SER:385:CA:3406, V-B:TYR:539:C:9839, V-B:ALA:541:CB:9864, V-B:GLU:543:CD:9880, V-A:ARG:545:CZ:4926, V-B:GLU:543:CB:9878, V-A:HIS:456:CE1:4069, H-A:GLY:454:N:4049, V-B:GLU:543:CG:9879, V-A:ASP:366:CG:3212, H-A:ARG:545:NH1:4927, V-A:TYR:484:CE2:4345, V-A:TYR:484:CZ:4346, H-A:ARG:545:NH2:4928, V-B:TYR:539:CB:9843, V-B:TYR:539:CG:9844, H-A:HIS:383:NE2:3393, H-A:SER:385:OG:3409, V-A:PRO:482:CD:4327"]

$$$$
3ai_Grossjean_2025
     RDKit          3D

 28 30  0  0  0  0  0  0  0  0999 V2000
  131.8530  122.6400   64.1640 N   0  0  0  0  0  0  0  0  0  0  0  0
  131.0710  122.6540   63.3110 C   0  0  0  0  0  0  0  0  0  0  0  0
  130.0800  122.6690   62.2300 C   0  0  0  0  0  0  0  0  0  0  0  0
  129.9830  121.5880   61.3220 C   0  0  0  0  0  0  0  0  0  0  0  0
  130.8620  120.3270   61.4320 C   0  0  0  0  0  0  0  0  0  0  0  0
  130.6630  119.4670   60.4310 F   0  0  0  0  0  0  0  0  0  0  0  0
  132.1510  120.6690   61.4180 F   0  0  0  0  0  0  0  0  0  0  0  0
  130.5980  119.6820   62.5690 F   0  0  0  0  0  0  0  0  0  0  0  0
  129.0510  121.6720   60.2760 C   0  0  0  0  0  0  0  0  0  0  0  0
  128.2410  122.8040   60.1400 C   0  0  0  0  0  0  0  0  0  0  0  0
  127.2370  122.9530   59.0360 C   0  0  0  0  0  0  0  0  0  0  0  0
  126.0670  123.7030   59.2290 C   0  0  0  0  0  0  0  0  0  0  0  0
  125.1320  123.8490   58.2080 C   0  0  0  0  0  0  0  0  0  0  0  0
  125.3570  123.2450   56.9750 C   0  0  0  0  0  0  0  0  0  0  0  0
  126.5100  122.4980   56.7580 C   0  0  0  0  0  0  0  0  0  0  0  0
  127.4420  122.3550   57.7810 C   0  0  0  0  0  0  0  0  0  0  0  0
  128.3440  123.8430   61.0080 N   0  0  0  0  0  0  0  0  0  0  0  0
  129.2190  123.7740   62.0400 C   0  0  0  0  0  0  0  0  0  0  0  0
  129.1980  125.2160   63.0850 S   0  0  0  0  0  0  0  0  0  0  0  0
  130.7030  126.1850   62.7320 C   0  0  0  0  0  0  0  0  0  0  0  0
  131.9600  125.7300   63.4890 C   0  0  0  0  0  0  0  0  0  0  0  0
  132.8920  125.1850   62.8930 O   0  0  0  0  0  0  0  0  0  0  0  0
  131.9390  125.9770   64.8180 N   0  0  0  0  0  0  0  0  0  0  0  0
  132.9310  125.6840   65.7440 C   0  0  0  0  0  0  0  0  0  0  0  0
  132.8320  126.0090   67.0960 C   0  0  0  0  0  0  0  0  0  0  0  0
  134.0020  125.5580   67.6610 C   0  0  0  0  0  0  0  0  0  0  0  0
  134.7670  124.9890   66.6990 O   0  0  0  0  0  0  0  0  0  0  0  0
  134.0770  125.0740   65.4880 N   0  0  0  0  0  0  0  0  0  0  0  0
  1  2  3  0
  2  3  1  0
  3  4  2  0
  4  5  1  0
  5  6  1  0
  5  7  1  0
  5  8  1  0
  4  9  1  0
  9 10  2  0
 10 11  1  0
 11 12  2  0
 12 13  1  0
 13 14  2  0
 14 15  1  0
 15 16  2  0
 10 17  1  0
 17 18  2  0
 18 19  1  0
 19 20  1  0
 20 21  1  0
 21 22  2  0
 21 23  1  0
 23 24  1  0
 24 25  1  0
 25 26  2  0
 26 27  1  0
 27 28  1  0
 18  3  1  0
 28 24  2  0
 16 11  1  0
M  END
>  <Binding energies>  (29) 
[-7.73]

>  <Ligand effiencies>  (29) 
[-0.26655172413793105]

>  <Interactions>  (29) 
["V-B:PRO:540:CB:9857, V-B:PRO:540:N:9856, V-B:TYR:539:CD2:9846, V-B:PRO:540:CA:9855, V-B:PRO:540:C:9853, V-A:PRO:482:CB:4325, V-B:MET:535:CE:9807, V-A:LEU:475:CD1:4257, V-B:ALA:541:CA:9862, V-B:TYR:539:C:9839, V-B:ALA:541:CB:9864, V-A:ARG:545:CD:4923, V-A:ARG:545:CZ:4926, V-A:ARG:545:CB:4921, V-A:HIS:456:CE1:4069, V-A:ARG:545:CG:4922, H-A:TYR:484:OH:4347, H-A:GLY:454:N:4049, H-A:GLU:543:OE1:4909, V-A:GLU:543:CD:4908, V-A:TYR:484:CZ:4346, H-A:ARG:545:NH2:4928, V-A:ILE:455:C:4051, H-A:ARG:545:NE:4924, V-B:TYR:531:CE2:9765, V-B:LEU:363:CD1:8160, H-A:ILE:455:N:4054"]

$$$$
3aj_Grossjean_2025
     RDKit          3D

 28 30  0  0  0  0  0  0  0  0999 V2000
  134.2230  118.6410   60.6720 N   0  0  0  0  0  0  0  0  0  0  0  0
  133.3340  119.3660   60.8230 C   0  0  0  0  0  0  0  0  0  0  0  0
  132.2050  120.2820   61.0140 C   0  0  0  0  0  0  0  0  0  0  0  0
  130.8730  119.8040   60.9940 C   0  0  0  0  0  0  0  0  0  0  0  0
  130.5270  118.3120   60.8170 C   0  0  0  0  0  0  0  0  0  0  0  0
  129.2470  118.0430   61.0830 F   0  0  0  0  0  0  0  0  0  0  0  0
  130.7660  117.9340   59.5620 F   0  0  0  0  0  0  0  0  0  0  0  0
  131.2690  117.5710   61.6410 F   0  0  0  0  0  0  0  0  0  0  0  0
  129.8260  120.7290   61.1340 C   0  0  0  0  0  0  0  0  0  0  0  0
  130.1020  122.0910   61.2850 C   0  0  0  0  0  0  0  0  0  0  0  0
  129.0240  123.1210   61.4290 C   0  0  0  0  0  0  0  0  0  0  0  0
  127.6730  122.7660   61.2980 C   0  0  0  0  0  0  0  0  0  0  0  0
  126.6640  123.7180   61.4340 C   0  0  0  0  0  0  0  0  0  0  0  0
  126.9970  125.0420   61.7030 C   0  0  0  0  0  0  0  0  0  0  0  0
  128.3290  125.4190   61.8380 C   0  0  0  0  0  0  0  0  0  0  0  0
  129.3330  124.4640   61.7030 C   0  0  0  0  0  0  0  0  0  0  0  0
  131.3810  122.5460   61.2960 N   0  0  0  0  0  0  0  0  0  0  0  0
  132.4090  121.6710   61.1870 C   0  0  0  0  0  0  0  0  0  0  0  0
  134.0100  122.4450   61.2450 S   0  0  0  0  0  0  0  0  0  0  0  0
  133.7570  124.2360   61.4930 C   0  0  0  0  0  0  0  0  0  0  0  0
  133.4390  124.6520   62.9370 C   0  0  0  0  0  0  0  0  0  0  0  0
  134.3370  125.0060   63.7040 O   0  0  0  0  0  0  0  0  0  0  0  0
  132.1290  124.5940   63.2650 N   0  0  0  0  0  0  0  0  0  0  0  0
  131.5670  124.9190   64.4920 C   0  0  0  0  0  0  0  0  0  0  0  0
  132.0030  125.7920   65.3750 N   0  0  0  0  0  0  0  0  0  0  0  0
  131.2170  125.8490   66.4320 C   0  0  0  0  0  0  0  0  0  0  0  0
  130.1100  125.0040   66.4210 C   0  0  0  0  0  0  0  0  0  0  0  0
  130.1100  124.0910   64.9420 S   0  0  0  0  0  0  0  0  0  0  0  0
  1  2  3  0
  2  3  1  0
  3  4  2  0
  4  5  1  0
  5  6  1  0
  5  7  1  0
  5  8  1  0
  4  9  1  0
  9 10  2  0
 10 11  1  0
 11 12  2  0
 12 13  1  0
 13 14  2  0
 14 15  1  0
 15 16  2  0
 10 17  1  0
 17 18  2  0
 18 19  1  0
 19 20  1  0
 20 21  1  0
 21 22  2  0
 21 23  1  0
 23 24  1  0
 24 25  2  0
 25 26  1  0
 26 27  2  0
 27 28  1  0
 18  3  1  0
 28 24  1  0
 16 11  1  0
M  END
>  <Binding energies>  (30) 
[-6.68]

>  <Ligand effiencies>  (30) 
[-0.2303448275862069]

>  <Interactions>  (30) 
["V-A:ILE:369:CG2:3236, V-B:PRO:540:N:9856, V-B:TYR:539:CD2:9846, V-B:PRO:540:CA:9855, V-A:PRO:482:CG:4326, V-B:PRO:540:C:9853, V-A:PRO:482:CB:4325, V-A:LEU:475:CD1:4257, V-B:ALA:541:CA:9862, V-B:TYR:539:C:9839, V-B:ALA:541:CB:9864, V-B:GLU:543:CD:9880, V-A:ARG:545:CZ:4926, V-B:GLU:543:CB:9878, H-A:TYR:484:OH:4347, H-A:GLY:454:N:4049, V-B:GLU:543:CG:9879, V-A:ASP:366:CG:3212, H-A:ARG:545:NH1:4927, V-A:TYR:484:CE2:4345, V-A:TYR:484:CZ:4346, H-A:ARG:545:NH2:4928, V-B:TYR:539:CB:9843, V-B:TYR:539:CA:9841, V-B:TYR:539:CG:9844, H-A:HIS:383:NE2:3393, H-A:SER:385:OG:3409, V-A:PRO:482:CD:4327"]

$$$$
3ak_Grossjean_2025
     RDKit          3D

 33 34  0  0  0  0  0  0  0  0999 V2000
  132.9050  125.2080   64.9100 C   0  0  0  0  0  0  0  0  0  0  0  0
  133.9420  124.7450   64.0580 O   0  0  0  0  0  0  0  0  0  0  0  0
  133.4780  123.9100   63.0070 C   0  0  0  0  0  0  0  0  0  0  0  0
  134.2790  124.2160   61.7350 C   0  0  0  0  0  0  0  0  0  0  0  0
  133.6510  123.5780   60.6280 O   0  0  0  0  0  0  0  0  0  0  0  0
  132.5880  124.3080   60.0200 C   0  0  0  0  0  0  0  0  0  0  0  0
  131.9040  123.5570   58.8630 C   0  0  0  0  0  0  0  0  0  0  0  0
  130.4980  123.7390   58.9560 O   0  0  0  0  0  0  0  0  0  0  0  0
  129.8760  124.0650   57.7200 C   0  0  0  0  0  0  0  0  0  0  0  0
  128.5790  123.2550   57.5470 C   0  0  0  0  0  0  0  0  0  0  0  0
  127.6000  123.4810   58.6130 N   0  0  0  0  0  0  0  0  0  0  0  0
  126.3560  123.9700   58.4520 C   0  0  0  0  0  0  0  0  0  0  0  0
  125.8950  124.2710   57.3500 O   0  0  0  0  0  0  0  0  0  0  0  0
  125.4690  124.1640   59.6940 C   0  0  0  0  0  0  0  0  0  0  0  0
  125.8560  123.1180   61.1450 S   0  0  0  0  0  0  0  0  0  0  0  0
  127.5780  123.3370   61.5670 C   0  0  0  0  0  0  0  0  0  0  0  0
  128.3650  122.2440   61.4090 N   0  0  0  0  0  0  0  0  0  0  0  0
  129.6860  122.3100   61.7090 C   0  0  0  0  0  0  0  0  0  0  0  0
  130.4810  121.0550   61.5030 C   0  0  0  0  0  0  0  0  0  0  0  0
  131.8680  121.1100   61.2960 C   0  0  0  0  0  0  0  0  0  0  0  0
  132.6120  119.9480   61.1070 C   0  0  0  0  0  0  0  0  0  0  0  0
  131.9760  118.7110   61.1260 C   0  0  0  0  0  0  0  0  0  0  0  0
  130.6030  118.6280   61.3320 C   0  0  0  0  0  0  0  0  0  0  0  0
  129.8630  119.7920   61.5210 C   0  0  0  0  0  0  0  0  0  0  0  0
  130.2590  123.5010   62.1680 C   0  0  0  0  0  0  0  0  0  0  0  0
  129.4690  124.6470   62.3400 C   0  0  0  0  0  0  0  0  0  0  0  0
  130.1340  125.9400   62.8500 C   0  0  0  0  0  0  0  0  0  0  0  0
  130.0120  126.0250   64.1740 F   0  0  0  0  0  0  0  0  0  0  0  0
  131.4310  125.9420   62.5340 F   0  0  0  0  0  0  0  0  0  0  0  0
  129.5940  127.0430   62.3250 F   0  0  0  0  0  0  0  0  0  0  0  0
  128.0880  124.5690   62.0340 C   0  0  0  0  0  0  0  0  0  0  0  0
  127.2130  125.7350   62.1940 C   0  0  0  0  0  0  0  0  0  0  0  0
  126.5220  126.6550   62.3220 N   0  0  0  0  0  0  0  0  0  0  0  0
  1  2  1  0
  2  3  1  0
  3  4  1  0
  4  5  1  0
  5  6  1  0
  6  7  1  0
  7  8  1  0
  8  9  1  0
  9 10  1  0
 10 11  1  0
 11 12  1  0
 12 13  2  0
 12 14  1  0
 14 15  1  0
 15 16  1  0
 16 17  2  0
 17 18  1  0
 18 19  1  0
 19 20  2  0
 20 21  1  0
 21 22  2  0
 22 23  1  0
 23 24  2  0
 18 25  2  0
 25 26  1  0
 26 27  1  0
 27 28  1  0
 27 29  1  0
 27 30  1  0
 26 31  2  0
 31 32  1  0
 32 33  3  0
 31 16  1  0
 24 19  1  0
M  END
>  <Binding energies>  (31) 
[-6.23]

>  <Ligand effiencies>  (31) 
[-0.18323529411764708]

>  <Interactions>  (31) 
["V-B:PRO:540:CB:9857, V-B:TYR:539:CE2:9848, V-B:TYR:539:CZ:9849, V-A:PRO:482:CG:4326, V-B:PRO:540:C:9853, V-A:PRO:482:CB:4325, V-B:MET:535:CE:9807, V-A:LEU:475:CD1:4257, H-B:ALA:541:N:9863, H-B:TYR:531:OH:9767, V-B:ALA:541:CA:9862, V-B:ALA:541:CB:9864, V-B:GLU:543:CD:9880, V-A:ARG:545:CZ:4926, H-B:ARG:545:NH2:9900, V-A:GLY:454:CA:4048, H-A:GLY:454:N:4049, V-A:ASP:366:CG:3212, H-A:ARG:545:NH1:4927, V-A:ILE:369:CD1:3238, V-A:ASP:366:CB:3211, H-A:ARG:545:NH2:4928"]

$$$$
3bk_Grossjean_2025
     RDKit          3D

 30 31  0  0  0  0  0  0  0  0999 V2000
  133.0990  118.9700   60.4620 C   0  0  0  0  0  0  0  0  0  0  0  0
  132.1190  117.9680   60.6900 O   0  0  0  0  0  0  0  0  0  0  0  0
  130.8030  118.4860   60.8270 C   0  0  0  0  0  0  0  0  0  0  0  0
  130.8690  119.9490   61.2850 C   0  0  0  0  0  0  0  0  0  0  0  0
  129.5740  120.5280   61.2020 O   0  0  0  0  0  0  0  0  0  0  0  0
  129.5170  121.6950   60.3920 C   0  0  0  0  0  0  0  0  0  0  0  0
  128.5710  122.7150   61.0390 C   0  0  0  0  0  0  0  0  0  0  0  0
  128.5850  123.9170   60.2820 O   0  0  0  0  0  0  0  0  0  0  0  0
  128.3170  125.0840   61.0500 C   0  0  0  0  0  0  0  0  0  0  0  0
  127.1330  124.8160   61.9900 C   0  0  0  0  0  0  0  0  0  0  0  0
  125.8860  124.5770   61.2610 N   0  0  0  0  0  0  0  0  0  0  0  0
  125.2140  123.4140   61.2240 C   0  0  0  0  0  0  0  0  0  0  0  0
  125.5690  122.4000   61.8260 O   0  0  0  0  0  0  0  0  0  0  0  0
  123.9260  123.3960   60.3980 C   0  0  0  0  0  0  0  0  0  0  0  0
  124.2630  123.4420   58.6090 S   0  0  0  0  0  0  0  0  0  0  0  0
  125.6200  124.5610   58.3020 C   0  0  0  0  0  0  0  0  0  0  0  0
  125.4240  125.8490   58.6790 N   0  0  0  0  0  0  0  0  0  0  0  0
  126.4020  126.7730   58.4820 C   0  0  0  0  0  0  0  0  0  0  0  0
  126.1110  128.1670   58.9470 C   0  0  0  0  0  0  0  0  0  0  0  0
  125.3680  129.0510   58.1470 C   0  0  0  0  0  0  0  0  0  0  0  0
  125.1000  130.3500   58.5720 C   0  0  0  0  0  0  0  0  0  0  0  0
  125.5710  130.7840   59.8060 C   0  0  0  0  0  0  0  0  0  0  0  0
  126.3060  129.9270   60.6200 C   0  0  0  0  0  0  0  0  0  0  0  0
  126.5710  128.6290   60.1920 C   0  0  0  0  0  0  0  0  0  0  0  0
  127.6200  126.4120   57.8950 C   0  0  0  0  0  0  0  0  0  0  0  0
  127.8390  125.0880   57.4990 C   0  0  0  0  0  0  0  0  0  0  0  0
  129.1840  124.7380   56.8630 C   0  0  0  0  0  0  0  0  0  0  0  0
  126.8230  124.1310   57.7010 C   0  0  0  0  0  0  0  0  0  0  0  0
  127.0250  122.7360   57.2980 C   0  0  0  0  0  0  0  0  0  0  0  0
  127.1850  121.6350   56.9790 N   0  0  0  0  0  0  0  0  0  0  0  0
  1  2  1  0
  2  3  1  0
  3  4  1  0
  4  5  1  0
  5  6  1  0
  6  7  1  0
  7  8  1  0
  8  9  1  0
  9 10  1  0
 10 11  1  0
 11 12  1  0
 12 13  2  0
 12 14  1  0
 14 15  1  0
 15 16  1  0
 16 17  2  0
 17 18  1  0
 18 19  1  0
 19 20  2  0
 20 21  1  0
 21 22  2  0
 22 23  1  0
 23 24  2  0
 18 25  2  0
 25 26  1  0
 26 27  1  0
 26 28  2  0
 28 29  1  0
 29 30  3  0
 28 16  1  0
 24 19  1  0
M  END
>  <Binding energies>  (32) 
[-6.5]

>  <Ligand effiencies>  (32) 
[-0.20967741935483872]

>  <Interactions>  (32) 
["V-B:PRO:540:CB:9857, V-A:ILE:369:CG2:3236, V-B:PRO:540:N:9856, V-B:TYR:539:CZ:9849, V-B:TYR:539:CD2:9846, V-B:PRO:540:CA:9855, V-A:PRO:482:CG:4326, V-B:MET:535:CE:9807, H-B:TYR:539:N:9842, V-A:LEU:475:CD1:4257, H-B:ALA:541:N:9863, H-B:TYR:531:OH:9767, V-B:TYR:539:C:9839, V-B:GLU:543:CD:9880, V-B:ASP:366:CB:8183, V-A:TYR:539:CE1:4875, V-B:ASP:366:CG:8184, V-B:LEU:363:CA:8156, V-B:ASN:362:C:8143, V-B:ASN:362:CB:8147, V-B:LEU:363:CB:8158, H-B:GLU:543:OE1:9881, H-B:ASP:366:OD1:8185, H-A:HIS:383:NE2:3393, H-A:SER:385:OG:3409"]

$$$$
3cb_Grossjean_2025
     RDKit          3D

 30 32  0  0  0  0  0  0  0  0999 V2000
  128.7130  126.1270   70.8010 C   0  0  0  0  0  0  0  0  0  0  0  0
  128.9010  126.0080   69.3980 O   0  0  0  0  0  0  0  0  0  0  0  0
  129.5020  126.9960   68.6870 C   0  0  0  0  0  0  0  0  0  0  0  0
  129.5410  128.1730   69.0570 O   0  0  0  0  0  0  0  0  0  0  0  0
  130.1140  126.5150   67.4020 C   0  0  0  0  0  0  0  0  0  0  0  0
  129.3360  125.9870   66.3600 C   0  0  0  0  0  0  0  0  0  0  0  0
  129.9340  125.5520   65.1810 C   0  0  0  0  0  0  0  0  0  0  0  0
  131.3180  125.6300   65.0180 C   0  0  0  0  0  0  0  0  0  0  0  0
  131.8160  125.1650   63.7840 N   0  0  0  0  0  0  0  0  0  0  0  0
  133.0860  124.9040   63.4040 C   0  0  0  0  0  0  0  0  0  0  0  0
  134.0770  125.0200   64.1270 O   0  0  0  0  0  0  0  0  0  0  0  0
  133.2280  124.4130   61.9550 C   0  0  0  0  0  0  0  0  0  0  0  0
  132.1190  123.0370   61.4960 S   0  0  0  0  0  0  0  0  0  0  0  0
  131.2970  123.4820   59.9810 C   0  0  0  0  0  0  0  0  0  0  0  0
  132.0860  124.1720   59.1220 N   0  0  0  0  0  0  0  0  0  0  0  0
  131.5670  124.5630   57.9370 C   0  0  0  0  0  0  0  0  0  0  0  0
  132.5100  125.3190   57.0210 C   0  0  0  0  0  0  0  0  0  0  0  0
  130.2530  124.2900   57.5670 C   0  0  0  0  0  0  0  0  0  0  0  0
  129.4140  123.5920   58.4450 C   0  0  0  0  0  0  0  0  0  0  0  0
  128.0100  123.3290   58.0050 C   0  0  0  0  0  0  0  0  0  0  0  0
  127.7340  122.2700   57.1300 C   0  0  0  0  0  0  0  0  0  0  0  0
  126.4280  122.0100   56.7230 C   0  0  0  0  0  0  0  0  0  0  0  0
  125.3890  122.8090   57.1920 C   0  0  0  0  0  0  0  0  0  0  0  0
  125.6440  123.8600   58.0680 C   0  0  0  0  0  0  0  0  0  0  0  0
  126.9510  124.1160   58.4750 C   0  0  0  0  0  0  0  0  0  0  0  0
  129.9400  123.1860   59.6990 C   0  0  0  0  0  0  0  0  0  0  0  0
  129.0820  122.5360   60.6950 C   0  0  0  0  0  0  0  0  0  0  0  0
  128.4050  122.0230   61.4800 N   0  0  0  0  0  0  0  0  0  0  0  0
  132.1020  126.1610   66.0530 C   0  0  0  0  0  0  0  0  0  0  0  0
  131.5030  126.5960   67.2320 C   0  0  0  0  0  0  0  0  0  0  0  0
  1  2  1  0
  2  3  1  0
  3  4  2  0
  3  5  1  0
  5  6  2  0
  6  7  1  0
  7  8  2  0
  8  9  1  0
  9 10  1  0
 10 11  2  0
 10 12  1  0
 12 13  1  0
 13 14  1  0
 14 15  2  0
 15 16  1  0
 16 17  1  0
 16 18  2  0
 18 19  1  0
 19 20  1  0
 20 21  2  0
 21 22  1  0
 22 23  2  0
 23 24  1  0
 24 25  2  0
 19 26  2  0
 26 27  1  0
 27 28  3  0
  8 29  1  0
 29 30  2  0
 30  5  1  0
 26 14  1  0
 25 20  1  0
M  END
>  <Binding energies>  (33) 
[-8.72]

>  <Ligand effiencies>  (33) 
[-0.2812903225806452]

>  <Interactions>  (33) 
["V-B:PRO:540:CB:9857, V-B:TYR:539:CE2:9848, V-B:PRO:540:N:9856, V-B:TYR:539:CZ:9849, V-B:PRO:540:CA:9855, V-B:MET:535:CE:9807, H-B:ALA:541:N:9863, V-B:TYR:539:C:9839, V-B:GLU:543:CD:9880, V-A:ARG:545:CZ:4926, V-B:GLU:543:CB:9878, V-A:HIS:456:CE1:4069, H-A:GLY:454:N:4049, V-B:GLU:543:CG:9879, V-A:GLU:543:CD:4908, V-A:ASP:366:CG:3212, H-A:ARG:545:NH1:4927, V-B:GLU:543:C:9874, V-B:HIS:456:CD2:9039, V-A:ASP:366:C:3207, V-A:ASP:366:CB:3211, V-A:ASP:366:CA:3209, H-A:ARG:545:NH2:4928, V-B:PRO:540:CD:9859, H-A:ARG:545:NE:4924, V-B:TYR:539:CG:9844, V-B:LEU:363:CD1:8160"]

$$$$
3ch_Grossjean_2025
     RDKit          3D

 32 34  0  0  0  0  0  0  0  0999 V2000
  132.3240  125.4290   56.9010 C   0  0  0  0  0  0  0  0  0  0  0  0
  130.9790  125.8390   57.1230 O   0  0  0  0  0  0  0  0  0  0  0  0
  130.0460  124.9150   57.5570 C   0  0  0  0  0  0  0  0  0  0  0  0
  130.3500  123.8220   58.3850 C   0  0  0  0  0  0  0  0  0  0  0  0
  129.3490  122.9290   58.7930 C   0  0  0  0  0  0  0  0  0  0  0  0
  129.5550  121.8110   59.6240 N   0  0  0  0  0  0  0  0  0  0  0  0
  129.1410  121.5890   60.8910 C   0  0  0  0  0  0  0  0  0  0  0  0
  128.4640  122.3640   61.5670 O   0  0  0  0  0  0  0  0  0  0  0  0
  129.5290  120.2350   61.4840 C   0  0  0  0  0  0  0  0  0  0  0  0
  131.3220  120.0880   61.7430 S   0  0  0  0  0  0  0  0  0  0  0  0
  131.9280  121.7480   61.9560 C   0  0  0  0  0  0  0  0  0  0  0  0
  132.6030  122.2290   60.8820 N   0  0  0  0  0  0  0  0  0  0  0  0
  133.1110  123.4800   60.9460 C   0  0  0  0  0  0  0  0  0  0  0  0
  133.8580  123.9530   59.7140 C   0  0  0  0  0  0  0  0  0  0  0  0
  132.9700  124.2910   62.0690 C   0  0  0  0  0  0  0  0  0  0  0  0
  132.2690  123.8150   63.1860 C   0  0  0  0  0  0  0  0  0  0  0  0
  132.1510  124.7170   64.3730 C   0  0  0  0  0  0  0  0  0  0  0  0
  133.2920  125.0710   65.1030 C   0  0  0  0  0  0  0  0  0  0  0  0
  133.1890  125.9040   66.2140 C   0  0  0  0  0  0  0  0  0  0  0  0
  131.9410  126.3840   66.6020 C   0  0  0  0  0  0  0  0  0  0  0  0
  130.7960  126.0360   65.8910 C   0  0  0  0  0  0  0  0  0  0  0  0
  130.9030  125.2020   64.7800 C   0  0  0  0  0  0  0  0  0  0  0  0
  131.7130  122.5120   63.1270 C   0  0  0  0  0  0  0  0  0  0  0  0
  130.8910  121.9990   64.2280 C   0  0  0  0  0  0  0  0  0  0  0  0
  130.2430  121.5920   65.0960 N   0  0  0  0  0  0  0  0  0  0  0  0
  128.0400  123.1260   58.3500 C   0  0  0  0  0  0  0  0  0  0  0  0
  127.7120  124.2100   57.5200 C   0  0  0  0  0  0  0  0  0  0  0  0
  126.4340  124.4660   57.0530 O   0  0  0  0  0  0  0  0  0  0  0  0
  125.3150  124.2060   57.8940 C   0  0  0  0  0  0  0  0  0  0  0  0
  128.7240  125.0950   57.1290 C   0  0  0  0  0  0  0  0  0  0  0  0
  128.4120  126.1700   56.3320 O   0  0  0  0  0  0  0  0  0  0  0  0
  128.4180  127.4180   57.0120 C   0  0  0  0  0  0  0  0  0  0  0  0
  1  2  1  0
  2  3  1  0
  3  4  2  0
  4  5  1  0
  5  6  1  0
  6  7  1  0
  7  8  2  0
  7  9  1  0
  9 10  1  0
 10 11  1  0
 11 12  2  0
 12 13  1  0
 13 14  1  0
 13 15  2  0
 15 16  1  0
 16 17  1  0
 17 18  2  0
 18 19  1  0
 19 20  2  0
 20 21  1  0
 21 22  2  0
 16 23  2  0
 23 24  1  0
 24 25  3  0
  5 26  2  0
 26 27  1  0
 27 28  1  0
 28 29  1  0
 27 30  2  0
 30 31  1  0
 31 32  1  0
 30  3  1  0
 23 11  1  0
 22 17  1  0
M  END
>  <Binding energies>  (34) 
[-7.22]

>  <Ligand effiencies>  (34) 
[-0.21878787878787878]

>  <Interactions>  (34) 
["V-A:ILE:369:CG2:3236, V-B:TYR:539:CE2:9848, V-B:TYR:539:CZ:9849, V-B:TYR:539:CD2:9846, V-B:PRO:540:CA:9855, V-B:PRO:540:C:9853, V-B:MET:535:CE:9807, V-A:LEU:475:CD1:4257, H-B:ALA:541:N:9863, H-B:TYR:531:OH:9767, V-B:ALA:541:CA:9862, V-B:TYR:539:C:9839, V-B:ALA:541:CB:9864, V-A:ARG:545:CD:4923, V-A:ARG:545:CZ:4926, V-A:HIS:456:CE1:4069, V-A:ARG:545:CG:4922, H-A:TYR:484:OH:4347, V-A:GLU:543:CD:4908, V-A:ASP:366:CG:3212, V-A:ASP:366:C:3207, V-A:ASP:366:CB:3211, V-A:ASP:366:CA:3209, V-A:TYR:484:CZ:4346, V-A:ILE:369:CB:3235, V-B:TYR:531:CE2:9765, V-B:LEU:363:CD1:8160, H-B:TYR:539:O:9840, H-B:TYR:539:OH:9850, V-A:LEU:475:CG:4256, V-A:LEU:475:CD2:4258"]

$$$$
3ci_Grossjean_2025
     RDKit          3D

 25 27  0  0  0  0  0  0  0  0999 V2000
  134.5010  124.4830   62.3110 C   0  0  0  0  0  0  0  0  0  0  0  0
  133.0980  123.9490   62.0880 C   0  0  0  0  0  0  0  0  0  0  0  0
  132.8670  122.6150   61.7650 C   0  0  0  0  0  0  0  0  0  0  0  0
  131.5520  122.1640   61.5850 C   0  0  0  0  0  0  0  0  0  0  0  0
  131.3520  120.7210   61.2540 C   0  0  0  0  0  0  0  0  0  0  0  0
  130.3210  119.9850   61.8540 C   0  0  0  0  0  0  0  0  0  0  0  0
  130.1440  118.6380   61.5490 C   0  0  0  0  0  0  0  0  0  0  0  0
  131.0020  118.0180   60.6450 C   0  0  0  0  0  0  0  0  0  0  0  0
  132.0360  118.7330   60.0470 C   0  0  0  0  0  0  0  0  0  0  0  0
  132.2110  120.0790   60.3540 C   0  0  0  0  0  0  0  0  0  0  0  0
  130.4940  123.0970   61.7290 C   0  0  0  0  0  0  0  0  0  0  0  0
  129.1010  122.6930   61.5100 C   0  0  0  0  0  0  0  0  0  0  0  0
  128.0020  122.3720   61.3380 N   0  0  0  0  0  0  0  0  0  0  0  0
  130.8180  124.4340   62.0640 C   0  0  0  0  0  0  0  0  0  0  0  0
  129.5620  125.6870   62.2920 S   0  0  0  0  0  0  0  0  0  0  0  0
  129.2220  125.8910   64.0710 C   0  0  0  0  0  0  0  0  0  0  0  0
  130.3100  125.2940   64.9700 C   0  0  0  0  0  0  0  0  0  0  0  0
  130.0820  124.2450   65.5750 O   0  0  0  0  0  0  0  0  0  0  0  0
  131.4630  125.9970   65.0420 N   0  0  0  0  0  0  0  0  0  0  0  0
  132.6060  125.6650   65.7560 C   0  0  0  0  0  0  0  0  0  0  0  0
  132.7610  125.9400   67.1140 C   0  0  0  0  0  0  0  0  0  0  0  0
  134.0130  125.4640   67.4350 C   0  0  0  0  0  0  0  0  0  0  0  0
  134.5800  124.9290   66.3270 O   0  0  0  0  0  0  0  0  0  0  0  0
  133.6790  125.0640   65.2690 N   0  0  0  0  0  0  0  0  0  0  0  0
  132.0990  124.8470   62.2330 N   0  0  0  0  0  0  0  0  0  0  0  0
  1  2  1  0
  2  3  2  0
  3  4  1  0
  4  5  1  0
  5  6  2  0
  6  7  1  0
  7  8  2  0
  8  9  1  0
  9 10  2  0
  4 11  2  0
 11 12  1  0
 12 13  3  0
 11 14  1  0
 14 15  1  0
 15 16  1  0
 16 17  1  0
 17 18  2  0
 17 19  1  0
 19 20  1  0
 20 21  1  0
 21 22  2  0
 22 23  1  0
 23 24  1  0
 14 25  2  0
 25  2  1  0
 10  5  1  0
 24 20  2  0
M  END
>  <Binding energies>  (35) 
[-8.28]

>  <Ligand effiencies>  (35) 
[-0.31846153846153846]

>  <Interactions>  (35) 
["V-B:TYR:539:CE2:9848, V-B:TYR:539:CD2:9846, V-A:PRO:482:CG:4326, V-A:PRO:482:CB:4325, V-A:LEU:475:CD1:4257, H-B:ALA:541:N:9863, V-B:ALA:541:CA:9862, V-B:ALA:541:CB:9864, V-B:GLU:543:CD:9880, V-A:ARG:545:CD:4923, V-A:ARG:545:CZ:4926, V-A:GLY:453:CA:4043, V-A:GLY:453:C:4041, V-A:HIS:456:CE1:4069, V-A:ARG:545:CG:4922, H-A:TYR:484:OH:4347, H-A:GLY:454:N:4049, H-A:GLU:543:OE1:4909, V-A:GLU:543:CD:4908, V-A:ASP:366:CG:3212, V-A:TYR:484:CZ:4346, H-A:GLU:543:OE2:4910, V-A:ILE:455:C:4051, H-A:ARG:545:NE:4924, H-A:ILE:455:N:4054"]

$$$$
3ck_Grossjean_2025
     RDKit          3D

 30 31  0  0  0  0  0  0  0  0999 V2000
  125.7840  122.1350   56.3530 C   0  0  0  0  0  0  0  0  0  0  0  0
  126.9920  121.6260   56.8960 O   0  0  0  0  0  0  0  0  0  0  0  0
  127.8990  122.6400   57.3070 C   0  0  0  0  0  0  0  0  0  0  0  0
  128.2660  122.4330   58.7830 C   0  0  0  0  0  0  0  0  0  0  0  0
  129.6770  122.3120   58.9040 O   0  0  0  0  0  0  0  0  0  0  0  0
  130.3110  123.4640   59.4450 C   0  0  0  0  0  0  0  0  0  0  0  0
  131.5920  123.0360   60.1710 C   0  0  0  0  0  0  0  0  0  0  0  0
  132.5310  124.0980   60.0850 O   0  0  0  0  0  0  0  0  0  0  0  0
  133.8710  123.7330   60.3750 C   0  0  0  0  0  0  0  0  0  0  0  0
  134.1720  124.0140   61.8600 C   0  0  0  0  0  0  0  0  0  0  0  0
  133.0120  124.5000   62.6150 N   0  0  0  0  0  0  0  0  0  0  0  0
  133.0420  124.9970   63.8640 C   0  0  0  0  0  0  0  0  0  0  0  0
  134.0810  125.1260   64.5160 O   0  0  0  0  0  0  0  0  0  0  0  0
  131.6810  125.4120   64.4440 C   0  0  0  0  0  0  0  0  0  0  0  0
  130.2960  124.2800   64.0770 S   0  0  0  0  0  0  0  0  0  0  0  0
  129.0200  125.1790   63.2070 C   0  0  0  0  0  0  0  0  0  0  0  0
  128.9550  126.5080   63.4730 N   0  0  0  0  0  0  0  0  0  0  0  0
  128.0100  127.2500   62.8520 C   0  0  0  0  0  0  0  0  0  0  0  0
  127.9970  128.7250   63.2020 C   0  0  0  0  0  0  0  0  0  0  0  0
  127.1000  126.7040   61.9510 C   0  0  0  0  0  0  0  0  0  0  0  0
  127.1440  125.3330   61.6660 C   0  0  0  0  0  0  0  0  0  0  0  0
  126.1340  124.7880   60.7110 C   0  0  0  0  0  0  0  0  0  0  0  0
  126.1400  125.1950   59.3720 C   0  0  0  0  0  0  0  0  0  0  0  0
  125.1930  124.6980   58.4780 C   0  0  0  0  0  0  0  0  0  0  0  0
  124.2330  123.7950   58.9230 C   0  0  0  0  0  0  0  0  0  0  0  0
  124.2080  123.3860   60.2550 C   0  0  0  0  0  0  0  0  0  0  0  0
  125.1550  123.8840   61.1450 C   0  0  0  0  0  0  0  0  0  0  0  0
  128.1390  124.5450   62.3000 C   0  0  0  0  0  0  0  0  0  0  0  0
  128.2600  123.1120   62.0080 C   0  0  0  0  0  0  0  0  0  0  0  0
  128.3550  121.9820   61.7770 N   0  0  0  0  0  0  0  0  0  0  0  0
  1  2  1  0
  2  3  1  0
  3  4  1  0
  4  5  1  0
  5  6  1  0
  6  7  1  0
  7  8  1  0
  8  9  1  0
  9 10  1  0
 10 11  1  0
 11 12  1  0
 12 13  2  0
 12 14  1  0
 14 15  1  0
 15 16  1  0
 16 17  2  0
 17 18  1  0
 18 19  1  0
 18 20  2  0
 20 21  1  0
 21 22  1  0
 22 23  2  0
 23 24  1  0
 24 25  2  0
 25 26  1  0
 26 27  2  0
 21 28  2  0
 28 29  1  0
 29 30  3  0
 28 16  1  0
 27 22  1  0
M  END
>  <Binding energies>  (36) 
[-6.38]

>  <Ligand effiencies>  (36) 
[-0.20580645161290323]

>  <Interactions>  (36) 
["V-B:PRO:540:CB:9857, V-A:ILE:369:CG2:3236, V-B:TYR:539:CE2:9848, V-B:PRO:540:N:9856, V-B:TYR:539:CZ:9849, V-B:PRO:540:CA:9855, V-B:MET:535:CE:9807, H-B:TYR:539:N:9842, H-B:ALA:541:N:9863, V-B:TYR:539:C:9839, V-B:ALA:541:CB:9864, V-B:GLU:543:CD:9880, V-A:ARG:545:CZ:4926, H-A:TYR:484:OH:4347, H-A:GLY:454:N:4049, V-A:GLU:543:CD:4908, V-A:ASP:366:CG:3212, H-A:ARG:545:NH1:4927, V-A:ILE:369:CD1:3238, V-A:ASP:366:CA:3209, V-B:ASP:366:CB:8183, H-A:ARG:545:NH2:4928, V-B:PRO:540:CD:9859, H-A:ARG:545:NE:4924, V-B:LEU:363:CA:8156, V-B:ASN:362:C:8143, V-B:LEU:363:CB:8158, V-B:TYR:531:CE2:9765, V-B:LEU:363:CD1:8160"]

$$$$
4aa_Grossjean_2025
     RDKit          3D

 26 28  0  0  0  0  0  0  0  0999 V2000
  130.2500  116.9310   59.9910 C   0  0  0  0  0  0  0  0  0  0  0  0
  131.3700  117.8860   59.5680 C   0  0  0  0  0  0  0  0  0  0  0  0
  132.3910  117.8840   60.5580 O   0  0  0  0  0  0  0  0  0  0  0  0
  132.7350  119.0230   61.2130 C   0  0  0  0  0  0  0  0  0  0  0  0
  133.7720  119.1410   61.8750 O   0  0  0  0  0  0  0  0  0  0  0  0
  131.7260  120.1240   61.0580 C   0  0  0  0  0  0  0  0  0  0  0  0
  132.0210  121.2080   60.2200 C   0  0  0  0  0  0  0  0  0  0  0  0
  131.1090  122.2480   60.0590 C   0  0  0  0  0  0  0  0  0  0  0  0
  129.8810  122.2210   60.7230 C   0  0  0  0  0  0  0  0  0  0  0  0
  129.0390  123.3260   60.4950 N   0  0  0  0  0  0  0  0  0  0  0  0
  127.7680  123.5540   60.9060 C   0  0  0  0  0  0  0  0  0  0  0  0
  127.0940  122.7510   61.5530 O   0  0  0  0  0  0  0  0  0  0  0  0
  127.2040  124.8450   60.5050 C   0  0  0  0  0  0  0  0  0  0  0  0
  126.6500  125.0970   58.8480 S   0  0  0  0  0  0  0  0  0  0  0  0
  126.2180  126.7560   59.1960 C   0  0  0  0  0  0  0  0  0  0  0  0
  125.6950  127.5590   58.2670 N   0  0  0  0  0  0  0  0  0  0  0  0
  125.4090  128.8220   58.6660 C   0  0  0  0  0  0  0  0  0  0  0  0
  124.8190  129.7200   57.5940 C   0  0  0  0  0  0  0  0  0  0  0  0
  125.6290  129.2960   59.9580 C   0  0  0  0  0  0  0  0  0  0  0  0
  126.1770  128.4510   60.9290 C   0  0  0  0  0  0  0  0  0  0  0  0
  126.3980  129.0130   62.3260 C   0  0  0  0  0  0  0  0  0  0  0  0
  126.4940  127.1190   60.5480 C   0  0  0  0  0  0  0  0  0  0  0  0
  127.0600  126.0110   61.2710 C   0  0  0  0  0  0  0  0  0  0  0  0
  127.4160  126.1070   62.5930 N   0  0  0  0  0  0  0  0  0  0  0  0
  129.5800  121.1430   61.5680 C   0  0  0  0  0  0  0  0  0  0  0  0
  130.4950  120.1050   61.7310 C   0  0  0  0  0  0  0  0  0  0  0  0
  1  2  1  0
  2  3  1  0
  3  4  1  0
  4  5  2  0
  4  6  1  0
  6  7  2  0
  7  8  1  0
  8  9  2  0
  9 10  1  0
 10 11  1  0
 11 12  2  0
 11 13  1  0
 13 14  1  0
 14 15  1  0
 15 16  2  0
 16 17  1  0
 17 18  1  0
 17 19  2  0
 19 20  1  0
 20 21  1  0
 20 22  2  0
 22 23  1  0
 23 24  1  0
  9 25  1  0
 25 26  2  0
 26  6  1  0
 23 13  2  0
 22 15  1  0
M  END
>  <Binding energies>  (37) 
[-6.62]

>  <Ligand effiencies>  (37) 
[-0.22827586206896552]

>  <Interactions>  (37) 
["V-B:TYR:539:CE2:9848, V-B:TYR:539:CD2:9846, V-A:PRO:482:CG:4326, V-B:PRO:540:C:9853, V-A:LEU:475:CD1:4257, H-B:ALA:541:N:9863, H-B:TYR:531:OH:9767, V-B:ALA:541:CA:9862, V-B:TYR:539:C:9839, V-B:ALA:541:CB:9864, V-B:GLU:543:CD:9880, V-A:HIS:383:CE1:3392, H-B:GLU:543:OE2:9882, V-B:ASP:366:CB:8183, V-B:ASP:366:CA:8181, V-A:TYR:539:CE1:4875, V-B:ASP:366:CG:8184, V-B:VAL:344:CG1:7972, V-B:TYR:539:CB:9843, V-A:HIS:383:CD2:3391, V-B:TYR:539:CG:9844, H-B:GLU:543:OE1:9881, V-B:ASP:366:C:8179, H-A:HIS:383:NE2:3393, H-A:SER:385:OG:3409"]

$$$$
4ab_Grossjean_2025
     RDKit          3D

 25 27  0  0  0  0  0  0  0  0999 V2000
  124.6470  124.3780   57.5550 C   0  0  0  0  0  0  0  0  0  0  0  0
  125.4270  123.7020   56.5790 O   0  0  0  0  0  0  0  0  0  0  0  0
  126.3400  122.7650   56.9410 C   0  0  0  0  0  0  0  0  0  0  0  0
  126.4050  121.6440   56.4270 O   0  0  0  0  0  0  0  0  0  0  0  0
  127.2610  123.2260   58.0340 C   0  0  0  0  0  0  0  0  0  0  0  0
  126.8830  123.0340   59.3700 C   0  0  0  0  0  0  0  0  0  0  0  0
  127.7140  123.4520   60.4070 C   0  0  0  0  0  0  0  0  0  0  0  0
  128.9390  124.0590   60.1310 C   0  0  0  0  0  0  0  0  0  0  0  0
  129.6940  124.4480   61.2540 N   0  0  0  0  0  0  0  0  0  0  0  0
  129.3610  125.2470   62.2960 C   0  0  0  0  0  0  0  0  0  0  0  0
  128.2810  125.8290   62.4060 O   0  0  0  0  0  0  0  0  0  0  0  0
  130.4010  125.4100   63.3140 C   0  0  0  0  0  0  0  0  0  0  0  0
  132.0380  124.8200   63.0180 S   0  0  0  0  0  0  0  0  0  0  0  0
  132.5620  125.3320   64.6060 C   0  0  0  0  0  0  0  0  0  0  0  0
  133.8130  125.1500   65.0300 N   0  0  0  0  0  0  0  0  0  0  0  0
  134.0870  125.5900   66.2820 C   0  0  0  0  0  0  0  0  0  0  0  0
  135.5150  125.3690   66.7460 C   0  0  0  0  0  0  0  0  0  0  0  0
  133.1510  126.2050   67.1100 C   0  0  0  0  0  0  0  0  0  0  0  0
  131.8380  126.3930   66.6630 C   0  0  0  0  0  0  0  0  0  0  0  0
  130.8520  127.0680   67.6050 C   0  0  0  0  0  0  0  0  0  0  0  0
  131.5110  125.9410   65.3560 C   0  0  0  0  0  0  0  0  0  0  0  0
  130.2890  125.9670   64.5980 C   0  0  0  0  0  0  0  0  0  0  0  0
  129.1270  126.4970   65.1010 N   0  0  0  0  0  0  0  0  0  0  0  0
  129.3230  124.2600   58.7970 C   0  0  0  0  0  0  0  0  0  0  0  0
  128.4900  123.8440   57.7610 C   0  0  0  0  0  0  0  0  0  0  0  0
  1  2  1  0
  2  3  1  0
  3  4  2  0
  3  5  1  0
  5  6  2  0
  6  7  1  0
  7  8  2  0
  8  9  1  0
  9 10  1  0
 10 11  2  0
 10 12  1  0
 12 13  1  0
 13 14  1  0
 14 15  2  0
 15 16  1  0
 16 17  1  0
 16 18  2  0
 18 19  1  0
 19 20  1  0
 19 21  2  0
 21 22  1  0
 22 23  1  0
  8 24  1  0
 24 25  2  0
 25  5  1  0
 22 12  2  0
 21 14  1  0
M  END
>  <Binding energies>  (38) 
[-7.35]

>  <Ligand effiencies>  (38) 
[-0.2625]

>  <Interactions>  (38) 
["V-B:PRO:540:CB:9857, V-B:PRO:540:N:9856, V-B:PRO:540:CA:9855, V-B:MET:535:CE:9807, H-B:TYR:539:N:9842, H-B:TYR:531:OH:9767, V-B:GLU:543:CD:9880, V-A:ARG:545:CD:4923, V-A:ARG:545:CZ:4926, V-A:GLY:453:CA:4043, V-A:ARG:545:CB:4921, V-A:GLY:453:C:4041, V-A:GLU:543:CB:4906, V-A:HIS:456:CE1:4069, V-A:ARG:545:CG:4922, V-A:GLY:454:CA:4048, H-A:TYR:484:OH:4347, H-A:GLY:454:N:4049, H-A:GLU:543:OE1:4909, V-A:GLU:543:CD:4908, H-B:GLU:543:OE2:9882, H-A:ARG:545:NH1:4927, H-A:ARG:545:NH2:4928, V-A:ILE:455:C:4051, H-A:ARG:545:NE:4924, V-B:TYR:531:CZ:9766, V-B:TYR:531:CE2:9765, V-B:LEU:363:CD1:8160, H-B:GLU:543:OE1:9881, V-A:GLY:454:C:4046, V-A:ILE:455:CA:4053"]

$$$$
4ac_Grossjean_2025
     RDKit          3D

 23 25  0  0  0  0  0  0  0  0999 V2000
  125.4520  122.0090   56.4400 C   0  0  0  0  0  0  0  0  0  0  0  0
  126.8630  121.9450   56.6170 O   0  0  0  0  0  0  0  0  0  0  0  0
  127.4210  122.4560   57.7720 C   0  0  0  0  0  0  0  0  0  0  0  0
  128.8060  122.3450   57.8960 C   0  0  0  0  0  0  0  0  0  0  0  0
  129.4580  122.8330   59.0250 C   0  0  0  0  0  0  0  0  0  0  0  0
  128.7310  123.4490   60.0450 C   0  0  0  0  0  0  0  0  0  0  0  0
  129.4730  123.8990   61.1530 N   0  0  0  0  0  0  0  0  0  0  0  0
  129.1740  124.8720   62.0470 C   0  0  0  0  0  0  0  0  0  0  0  0
  128.1580  125.5680   61.9930 O   0  0  0  0  0  0  0  0  0  0  0  0
  130.1580  125.0680   63.1150 C   0  0  0  0  0  0  0  0  0  0  0  0
  131.8340  124.5660   62.8870 S   0  0  0  0  0  0  0  0  0  0  0  0
  132.2650  125.1100   64.4920 C   0  0  0  0  0  0  0  0  0  0  0  0
  133.5070  124.9990   64.9650 N   0  0  0  0  0  0  0  0  0  0  0  0
  133.7080  125.4580   66.2240 C   0  0  0  0  0  0  0  0  0  0  0  0
  135.1270  125.3230   66.7430 C   0  0  0  0  0  0  0  0  0  0  0  0
  132.7050  126.0190   67.0140 C   0  0  0  0  0  0  0  0  0  0  0  0
  131.4020  126.1330   66.5140 C   0  0  0  0  0  0  0  0  0  0  0  0
  130.3430  126.7520   67.4140 C   0  0  0  0  0  0  0  0  0  0  0  0
  131.1550  125.6640   65.1960 C   0  0  0  0  0  0  0  0  0  0  0  0
  129.9660  125.6290   64.3870 C   0  0  0  0  0  0  0  0  0  0  0  0
  128.7610  126.1060   64.8370 N   0  0  0  0  0  0  0  0  0  0  0  0
  127.3370  123.5540   59.9340 C   0  0  0  0  0  0  0  0  0  0  0  0
  126.6880  123.0640   58.8030 C   0  0  0  0  0  0  0  0  0  0  0  0
  1  2  1  0
  2  3  1  0
  3  4  2  0
  4  5  1  0
  5  6  2  0
  6  7  1  0
  7  8  1  0
  8  9  2  0
  8 10  1  0
 10 11  1  0
 11 12  1  0
 12 13  2  0
 13 14  1  0
 14 15  1  0
 14 16  2  0
 16 17  1  0
 17 18  1  0
 17 19  2  0
 19 20  1  0
 20 21  1  0
  6 22  1  0
 22 23  2  0
 23  3  1  0
 20 10  2  0
 19 12  1  0
M  END
>  <Binding energies>  (39) 
[-6.68]

>  <Ligand effiencies>  (39) 
[-0.2569230769230769]

>  <Interactions>  (39) 
["V-B:PRO:540:CB:9857, V-B:TYR:539:CE2:9848, V-B:PRO:540:N:9856, V-B:TYR:539:CZ:9849, V-B:TYR:539:CD2:9846, V-B:PRO:540:CA:9855, V-B:MET:535:CE:9807, H-B:TYR:539:N:9842, V-B:TYR:539:C:9839, V-B:GLU:543:CD:9880, V-A:ARG:545:CD:4923, V-A:ARG:545:CZ:4926, V-A:GLY:453:CA:4043, V-A:GLY:453:C:4041, V-A:HIS:456:CE1:4069, V-A:ARG:545:CG:4922, V-A:GLY:454:CA:4048, H-A:TYR:484:OH:4347, H-A:GLY:454:N:4049, H-A:GLU:543:OE1:4909, V-B:GLU:543:CG:9879, H-B:GLU:543:OE2:9882, V-A:TYR:484:CZ:4346, H-A:ARG:545:NH2:4928, V-A:ILE:455:C:4051, V-B:PRO:540:CD:9859, H-A:ARG:545:NE:4924, V-B:TYR:539:CG:9844, V-B:LEU:363:CD1:8160, H-B:GLU:543:OE1:9881, V-A:GLY:454:C:4046"]

$$$$
4ad_Grossjean_2025
     RDKit          3D

 21 23  0  0  0  0  0  0  0  0999 V2000
  124.8240  129.6960   58.5710 C   0  0  0  0  0  0  0  0  0  0  0  0
  124.9980  130.1290   60.0150 C   0  0  0  0  0  0  0  0  0  0  0  0
  124.4400  131.3170   60.4810 C   0  0  0  0  0  0  0  0  0  0  0  0
  124.6160  131.6970   61.8170 C   0  0  0  0  0  0  0  0  0  0  0  0
  123.9890  133.0040   62.2780 C   0  0  0  0  0  0  0  0  0  0  0  0
  125.3730  130.8370   62.6570 C   0  0  0  0  0  0  0  0  0  0  0  0
  125.7420  130.9140   64.0440 C   0  0  0  0  0  0  0  0  0  0  0  0
  125.3590  131.9610   64.8460 N   0  0  0  0  0  0  0  0  0  0  0  0
  126.5180  129.8320   64.4900 C   0  0  0  0  0  0  0  0  0  0  0  0
  127.0760  129.5990   65.8240 C   0  0  0  0  0  0  0  0  0  0  0  0
  127.2870  130.5410   66.5900 O   0  0  0  0  0  0  0  0  0  0  0  0
  127.3170  128.3010   66.1330 N   0  0  0  0  0  0  0  0  0  0  0  0
  127.8820  127.7480   67.2990 C   0  0  0  0  0  0  0  0  0  0  0  0
  128.9580  128.4510   67.8500 C   0  0  0  0  0  0  0  0  0  0  0  0
  129.5770  127.9920   69.0080 C   0  0  0  0  0  0  0  0  0  0  0  0
  129.1160  126.8310   69.6240 C   0  0  0  0  0  0  0  0  0  0  0  0
  128.0360  126.1290   69.0930 C   0  0  0  0  0  0  0  0  0  0  0  0
  127.4150  126.5860   67.9340 C   0  0  0  0  0  0  0  0  0  0  0  0
  126.8080  128.6780   63.1880 S   0  0  0  0  0  0  0  0  0  0  0  0
  125.8930  129.6490   62.0580 C   0  0  0  0  0  0  0  0  0  0  0  0
  125.7260  129.2840   60.7860 N   0  0  0  0  0  0  0  0  0  0  0  0
  1  2  1  0
  2  3  2  0
  3  4  1  0
  4  5  1  0
  4  6  2  0
  6  7  1  0
  7  8  1  0
  7  9  2  0
  9 10  1  0
 10 11  2  0
 10 12  1  0
 12 13  1  0
 13 14  2  0
 14 15  1  0
 15 16  2  0
 16 17  1  0
 17 18  2  0
  9 19  1  0
 19 20  1  0
 20 21  2  0
 21  2  1  0
 20  6  1  0
 18 13  1  0
M  END
>  <Binding energies>  (40) 
[-6.05]

>  <Ligand effiencies>  (40) 
[-0.2520833333333333]

>  <Interactions>  (40) 
["V-B:GLU:543:CD:9880, V-B:GLU:543:CB:9878, V-A:GLU:543:CB:4906, H-B:TYR:484:OH:9319, V-A:HIS:456:CE1:4069, V-B:HIS:456:CE1:9041, V-B:TYR:484:CZ:9318, V-B:GLU:543:CG:9879, V-A:GLU:543:CD:4908, V-A:GLU:543:CG:4907, H-B:GLU:543:OE2:9882, V-B:GLU:543:C:9874, V-B:GLU:543:CA:9876, V-B:ASP:366:CB:8183, V-B:ASP:366:CA:8181, V-A:TYR:539:CE1:4875, V-B:ASP:366:CG:8184, V-B:ILE:369:CG2:8208, V-B:LEU:475:CD1:9229, V-B:GLY:454:CA:9020, V-B:ASP:366:C:8179, V-B:LEU:475:CG:9228, V-B:ILE:369:CD1:8210"]

$$$$
4ae_Grossjean_2025
     RDKit          3D

 22 24  0  0  0  0  0  0  0  0999 V2000
  127.4430  122.5510   57.6170 C   0  0  0  0  0  0  0  0  0  0  0  0
  127.0560  123.1220   58.9670 C   0  0  0  0  0  0  0  0  0  0  0  0
  125.7180  123.3150   59.3220 C   0  0  0  0  0  0  0  0  0  0  0  0
  125.4370  123.8530   60.5790 C   0  0  0  0  0  0  0  0  0  0  0  0
  126.4870  124.1820   61.4390 C   0  0  0  0  0  0  0  0  0  0  0  0
  127.8030  123.9560   61.0230 C   0  0  0  0  0  0  0  0  0  0  0  0
  128.8160  124.3260   61.9240 N   0  0  0  0  0  0  0  0  0  0  0  0
  129.6200  125.4190   61.8940 C   0  0  0  0  0  0  0  0  0  0  0  0
  129.5710  126.2820   61.0160 O   0  0  0  0  0  0  0  0  0  0  0  0
  130.5830  125.5190   62.9930 C   0  0  0  0  0  0  0  0  0  0  0  0
  132.2710  125.0710   62.7420 S   0  0  0  0  0  0  0  0  0  0  0  0
  132.6610  125.4190   64.4100 C   0  0  0  0  0  0  0  0  0  0  0  0
  133.8940  125.2610   64.8940 N   0  0  0  0  0  0  0  0  0  0  0  0
  134.0620  125.5600   66.2040 C   0  0  0  0  0  0  0  0  0  0  0  0
  135.4700  125.3670   66.7360 C   0  0  0  0  0  0  0  0  0  0  0  0
  133.0370  126.0120   67.0340 C   0  0  0  0  0  0  0  0  0  0  0  0
  131.7440  126.1770   66.5230 C   0  0  0  0  0  0  0  0  0  0  0  0
  130.6580  126.6690   67.4680 C   0  0  0  0  0  0  0  0  0  0  0  0
  131.5290  125.8710   65.1520 C   0  0  0  0  0  0  0  0  0  0  0  0
  130.3570  125.9220   64.3200 C   0  0  0  0  0  0  0  0  0  0  0  0
  129.1360  126.3270   64.7960 N   0  0  0  0  0  0  0  0  0  0  0  0
  128.0860  123.4360   59.7930 N   0  0  0  0  0  0  0  0  0  0  0  0
  1  2  1  0
  2  3  2  0
  3  4  1  0
  4  5  2  0
  5  6  1  0
  6  7  1  0
  7  8  1  0
  8  9  2  0
  8 10  1  0
 10 11  1  0
 11 12  1  0
 12 13  2  0
 13 14  1  0
 14 15  1  0
 14 16  2  0
 16 17  1  0
 17 18  1  0
 17 19  2  0
 19 20  1  0
 20 21  1  0
  6 22  2  0
 22  2  1  0
 20 10  2  0
 19 12  1  0
M  END
>  <Binding energies>  (41) 
[-6.39]

>  <Ligand effiencies>  (41) 
[-0.2556]

>  <Interactions>  (41) 
["V-B:PRO:540:CB:9857, V-B:PRO:540:N:9856, V-B:PRO:540:CA:9855, V-B:MET:535:CE:9807, V-B:TYR:539:C:9839, V-B:GLU:543:CD:9880, V-A:ARG:545:CD:4923, V-A:ARG:545:CZ:4926, V-A:GLY:453:CA:4043, V-A:ARG:545:CB:4921, V-A:GLY:453:C:4041, V-A:HIS:456:CE1:4069, V-A:ARG:545:CG:4922, V-A:GLY:454:CA:4048, H-A:TYR:484:OH:4347, H-A:GLY:454:N:4049, H-A:GLU:543:OE1:4909, V-A:GLU:543:CD:4908, H-B:GLU:543:OE2:9882, H-A:ARG:545:NH1:4927, H-A:ARG:545:NH2:4928, V-A:ILE:455:C:4051, H-A:ARG:545:NE:4924, H-B:GLU:543:OE1:9881, V-A:GLY:454:C:4046, V-A:ILE:455:CA:4053"]

$$$$
4af_Grossjean_2025
     RDKit          3D

 21 23  0  0  0  0  0  0  0  0999 V2000
  133.6970  125.3760   65.6800 C   0  0  0  0  0  0  0  0  0  0  0  0
  133.0580  124.8630   64.4020 C   0  0  0  0  0  0  0  0  0  0  0  0
  133.8170  124.6590   63.2520 C   0  0  0  0  0  0  0  0  0  0  0  0
  133.2050  124.1880   62.0840 C   0  0  0  0  0  0  0  0  0  0  0  0
  134.0750  123.9830   60.8540 C   0  0  0  0  0  0  0  0  0  0  0  0
  131.8080  123.9330   62.1240 C   0  0  0  0  0  0  0  0  0  0  0  0
  130.8800  123.4580   61.1320 C   0  0  0  0  0  0  0  0  0  0  0  0
  131.2720  123.1450   59.8550 N   0  0  0  0  0  0  0  0  0  0  0  0
  129.5590  123.3460   61.5930 C   0  0  0  0  0  0  0  0  0  0  0  0
  128.3680  122.9280   60.8530 C   0  0  0  0  0  0  0  0  0  0  0  0
  127.4310  122.3760   61.4320 O   0  0  0  0  0  0  0  0  0  0  0  0
  128.3810  123.2090   59.5270 N   0  0  0  0  0  0  0  0  0  0  0  0
  127.4280  122.9030   58.5370 C   0  0  0  0  0  0  0  0  0  0  0  0
  126.1100  123.3930   58.4950 C   0  0  0  0  0  0  0  0  0  0  0  0
  125.2580  122.9950   57.4630 C   0  0  0  0  0  0  0  0  0  0  0  0
  125.7430  122.1120   56.4970 C   0  0  0  0  0  0  0  0  0  0  0  0
  127.0070  121.6190   56.5200 N   0  0  0  0  0  0  0  0  0  0  0  0
  127.8230  122.0150   57.5290 C   0  0  0  0  0  0  0  0  0  0  0  0
  129.4320  123.8370   63.2850 S   0  0  0  0  0  0  0  0  0  0  0  0
  131.1450  124.1820   63.3630 C   0  0  0  0  0  0  0  0  0  0  0  0
  131.7240  124.6300   64.4770 N   0  0  0  0  0  0  0  0  0  0  0  0
  1  2  1  0
  2  3  2  0
  3  4  1  0
  4  5  1  0
  4  6  2  0
  6  7  1  0
  7  8  1  0
  7  9  2  0
  9 10  1  0
 10 11  2  0
 10 12  1  0
 12 13  1  0
 13 14  2  0
 14 15  1  0
 15 16  2  0
 16 17  1  0
 17 18  2  0
  9 19  1  0
 19 20  1  0
 20 21  2  0
 21  2  1  0
 20  6  1  0
 18 13  1  0
M  END
>  <Binding energies>  (42) 
[-6.29]

>  <Ligand effiencies>  (42) 
[-0.26208333333333333]

>  <Interactions>  (42) 
["V-B:PRO:540:CB:9857, V-B:TYR:539:CE2:9848, V-B:PRO:540:N:9856, V-B:TYR:539:CD2:9846, V-B:PRO:540:CA:9855, V-B:MET:535:CE:9807, H-B:TYR:539:N:9842, H-B:ALA:541:N:9863, V-B:TYR:539:C:9839, V-B:GLU:543:CD:9880, V-A:ARG:545:CD:4923, V-A:ARG:545:CZ:4926, V-A:GLY:453:CA:4043, V-A:GLY:453:C:4041, H-A:TYR:484:OH:4347, V-B:GLU:543:CG:9879, V-A:ASP:366:CG:3212, V-A:ILE:369:CD1:3238, V-A:ASP:366:CA:3209, V-B:TYR:539:CA:9841, V-B:PRO:540:CD:9859, V-B:TYR:539:CG:9844, V-B:LEU:363:CD1:8160"]

$$$$
4ag_Grossjean_2025
     RDKit          3D

 22 24  0  0  0  0  0  0  0  0999 V2000
  134.0430  122.7890   62.5130 C   0  0  0  0  0  0  0  0  0  0  0  0
  133.0510  123.6280   63.2980 C   0  0  0  0  0  0  0  0  0  0  0  0
  131.7170  123.7170   62.9020 C   0  0  0  0  0  0  0  0  0  0  0  0
  130.8190  124.4950   63.6410 C   0  0  0  0  0  0  0  0  0  0  0  0
  129.3740  124.5620   63.1700 C   0  0  0  0  0  0  0  0  0  0  0  0
  131.3150  125.1740   64.7860 C   0  0  0  0  0  0  0  0  0  0  0  0
  130.6870  126.0370   65.7490 C   0  0  0  0  0  0  0  0  0  0  0  0
  129.3540  126.3610   65.6850 N   0  0  0  0  0  0  0  0  0  0  0  0
  131.5560  126.5090   66.7430 C   0  0  0  0  0  0  0  0  0  0  0  0
  131.2540  127.3880   67.8720 C   0  0  0  0  0  0  0  0  0  0  0  0
  132.1450  127.9950   68.4710 O   0  0  0  0  0  0  0  0  0  0  0  0
  129.9540  127.4760   68.2250 N   0  0  0  0  0  0  0  0  0  0  0  0
  129.4230  128.3100   69.3020 C   0  0  0  0  0  0  0  0  0  0  0  0
  129.3900  127.6210   70.6610 C   0  0  0  0  0  0  0  0  0  0  0  0
  128.7600  126.3800   70.7970 C   0  0  0  0  0  0  0  0  0  0  0  0
  128.7510  125.7360   72.0320 C   0  0  0  0  0  0  0  0  0  0  0  0
  129.3810  126.3290   73.1240 C   0  0  0  0  0  0  0  0  0  0  0  0
  130.0240  127.5580   72.9920 C   0  0  0  0  0  0  0  0  0  0  0  0
  130.0340  128.2010   71.7570 C   0  0  0  0  0  0  0  0  0  0  0  0
  133.1890  125.8820   66.5150 S   0  0  0  0  0  0  0  0  0  0  0  0
  132.7000  125.0000   65.0850 C   0  0  0  0  0  0  0  0  0  0  0  0
  133.5590  124.2590   64.3840 N   0  0  0  0  0  0  0  0  0  0  0  0
  1  2  1  0
  2  3  2  0
  3  4  1  0
  4  5  1  0
  4  6  2  0
  6  7  1  0
  7  8  1  0
  7  9  2  0
  9 10  1  0
 10 11  2  0
 10 12  1  0
 12 13  1  0
 13 14  1  0
 14 15  2  0
 15 16  1  0
 16 17  2  0
 17 18  1  0
 18 19  2  0
  9 20  1  0
 20 21  1  0
 21 22  2  0
 22  2  1  0
 21  6  1  0
 19 14  1  0
M  END
>  <Binding energies>  (43) 
[-6.65]

>  <Ligand effiencies>  (43) 
[-0.266]

>  <Interactions>  (43) 
["V-B:GLU:543:CD:9880, V-A:ARG:545:CD:4923, V-A:ARG:545:CZ:4926, V-A:GLY:453:C:4041, V-A:GLU:543:CB:4906, V-A:HIS:456:CE1:4069, V-A:ARG:545:CG:4922, V-B:HIS:456:CE1:9041, V-A:GLY:454:CA:4048, H-A:TYR:484:OH:4347, H-A:GLY:454:N:4049, V-A:GLU:543:C:4902, H-A:GLU:543:OE1:4909, V-A:GLU:543:CD:4908, H-B:GLU:543:OE2:9882, V-A:ILE:369:CD1:3238, V-B:HIS:456:CD2:9039, H-A:HIS:456:ND1:4066"]

$$$$
4ah_Grossjean_2025
     RDKit          3D

 28 30  0  0  0  0  0  0  0  0999 V2000
  132.6500  127.2530   74.3330 C   0  0  0  0  0  0  0  0  0  0  0  0
  131.2910  127.6730   74.2960 O   0  0  0  0  0  0  0  0  0  0  0  0
  130.4600  127.1960   73.2980 C   0  0  0  0  0  0  0  0  0  0  0  0
  130.2260  127.8650   72.0860 C   0  0  0  0  0  0  0  0  0  0  0  0
  129.3720  127.3230   71.1240 C   0  0  0  0  0  0  0  0  0  0  0  0
  129.1660  128.0410   69.7950 C   0  0  0  0  0  0  0  0  0  0  0  0
  129.7210  127.3220   68.6490 N   0  0  0  0  0  0  0  0  0  0  0  0
  130.9890  127.4280   68.1990 C   0  0  0  0  0  0  0  0  0  0  0  0
  131.8120  128.1930   68.7040 O   0  0  0  0  0  0  0  0  0  0  0  0
  131.3270  126.6060   67.0370 C   0  0  0  0  0  0  0  0  0  0  0  0
  132.9940  126.0910   66.7700 S   0  0  0  0  0  0  0  0  0  0  0  0
  132.5510  125.2760   65.2870 C   0  0  0  0  0  0  0  0  0  0  0  0
  133.4470  124.6260   64.5440 N   0  0  0  0  0  0  0  0  0  0  0  0
  132.9740  124.0360   63.4200 C   0  0  0  0  0  0  0  0  0  0  0  0
  134.0110  123.3040   62.5880 C   0  0  0  0  0  0  0  0  0  0  0  0
  131.6390  124.0800   63.0260 C   0  0  0  0  0  0  0  0  0  0  0  0
  130.7000  124.7650   63.8060 C   0  0  0  0  0  0  0  0  0  0  0  0
  129.2540  124.7850   63.3340 C   0  0  0  0  0  0  0  0  0  0  0  0
  131.1590  125.3990   64.9920 C   0  0  0  0  0  0  0  0  0  0  0  0
  130.4870  126.1730   66.0010 C   0  0  0  0  0  0  0  0  0  0  0  0
  129.1440  126.4450   65.9440 N   0  0  0  0  0  0  0  0  0  0  0  0
  128.7660  126.0890   71.3590 C   0  0  0  0  0  0  0  0  0  0  0  0
  128.9770  125.4000   72.5630 C   0  0  0  0  0  0  0  0  0  0  0  0
  128.3980  124.1810   72.8680 O   0  0  0  0  0  0  0  0  0  0  0  0
  129.1670  122.9900   72.7370 C   0  0  0  0  0  0  0  0  0  0  0  0
  129.8220  125.9680   73.5270 C   0  0  0  0  0  0  0  0  0  0  0  0
  130.0530  125.2960   74.7040 O   0  0  0  0  0  0  0  0  0  0  0  0
  131.2000  124.4580   74.6760 C   0  0  0  0  0  0  0  0  0  0  0  0
  1  2  1  0
  2  3  1  0
  3  4  2  0
  4  5  1  0
  5  6  1  0
  6  7  1  0
  7  8  1  0
  8  9  2  0
  8 10  1  0
 10 11  1  0
 11 12  1  0
 12 13  2  0
 13 14  1  0
 14 15  1  0
 14 16  2  0
 16 17  1  0
 17 18  1  0
 17 19  2  0
 19 20  1  0
 20 21  1  0
  5 22  2  0
 22 23  1  0
 23 24  1  0
 24 25  1  0
 23 26  2  0
 26 27  1  0
 27 28  1  0
 26  3  1  0
 20 10  2  0
 19 12  1  0
M  END
>  <Binding energies>  (44) 
[-6.51]

>  <Ligand effiencies>  (44) 
[-0.21]

>  <Interactions>  (44) 
["V-B:GLU:543:CD:9880, V-A:ARG:545:CD:4923, V-A:ARG:545:CZ:4926, V-A:GLY:453:C:4041, V-A:GLU:543:CB:4906, V-A:HIS:456:CE1:4069, V-A:ARG:545:CG:4922, V-B:HIS:456:CE1:9041, V-A:GLY:454:CA:4048, H-A:TYR:484:OH:4347, H-A:GLY:454:N:4049, H-A:GLU:543:OE1:4909, V-B:GLU:543:CG:9879, V-A:GLU:543:CD:4908, H-B:GLU:543:OE2:9882, V-B:GLU:543:C:9874, V-B:HIS:456:CD2:9039, V-A:LYS:547:CE:4950, H-A:HIS:456:ND1:4066, V-A:TYR:484:CB:4340, V-A:LYS:547:CD:4949, V-A:TYR:484:CG:4341, V-A:TYR:484:CD2:4343, V-A:HIS:456:CG:4065, V-A:HIS:456:CB:4064, V-A:HIS:456:CD2:4067, H-B:LYS:547:NZ:9923, H-A:LYS:547:NZ:4951"]

$$$$
4ai_Grossjean_2025
     RDKit          3D

 20 22  0  0  0  0  0  0  0  0999 V2000
  135.6000  124.2710   61.8700 C   0  0  0  0  0  0  0  0  0  0  0  0
  134.3610  123.4660   61.5200 C   0  0  0  0  0  0  0  0  0  0  0  0
  134.3380  122.0810   61.6780 C   0  0  0  0  0  0  0  0  0  0  0  0
  133.1840  121.3590   61.3540 C   0  0  0  0  0  0  0  0  0  0  0  0
  133.2070  119.8500   61.5460 C   0  0  0  0  0  0  0  0  0  0  0  0
  132.0620  122.0850   60.8680 C   0  0  0  0  0  0  0  0  0  0  0  0
  130.7490  121.6740   60.4510 C   0  0  0  0  0  0  0  0  0  0  0  0
  130.3550  120.3590   60.4620 N   0  0  0  0  0  0  0  0  0  0  0  0
  129.9210  122.7320   60.0450 C   0  0  0  0  0  0  0  0  0  0  0  0
  128.5430  122.6750   59.5560 C   0  0  0  0  0  0  0  0  0  0  0  0
  127.6340  122.2680   60.2810 O   0  0  0  0  0  0  0  0  0  0  0  0
  128.3590  123.1110   58.2840 N   0  0  0  0  0  0  0  0  0  0  0  0
  127.1650  123.1760   57.5780 C   0  0  0  0  0  0  0  0  0  0  0  0
  126.5670  122.0630   56.9890 C   0  0  0  0  0  0  0  0  0  0  0  0
  125.4230  122.5430   56.3930 C   0  0  0  0  0  0  0  0  0  0  0  0
  125.3360  123.8760   56.6130 O   0  0  0  0  0  0  0  0  0  0  0  0
  126.4450  124.2660   57.3660 N   0  0  0  0  0  0  0  0  0  0  0  0
  130.7690  124.2780   60.1470 S   0  0  0  0  0  0  0  0  0  0  0  0
  132.2140  123.4990   60.7520 C   0  0  0  0  0  0  0  0  0  0  0  0
  133.3130  124.1900   61.0580 N   0  0  0  0  0  0  0  0  0  0  0  0
  1  2  1  0
  2  3  2  0
  3  4  1  0
  4  5  1  0
  4  6  2  0
  6  7  1  0
  7  8  1  0
  7  9  2  0
  9 10  1  0
 10 11  2  0
 10 12  1  0
 12 13  1  0
 13 14  1  0
 14 15  2  0
 15 16  1  0
 16 17  1  0
  9 18  1  0
 18 19  1  0
 19 20  2  0
 20  2  1  0
 19  6  1  0
 17 13  2  0
M  END
>  <Binding energies>  (45) 
[-6.27]

>  <Ligand effiencies>  (45) 
[-0.2726086956521739]

>  <Interactions>  (45) 
["V-B:PRO:540:CB:9857, V-A:ILE:369:CG2:3236, V-B:TYR:539:CE2:9848, V-B:PRO:540:N:9856, V-B:TYR:539:CD2:9846, V-B:PRO:540:CA:9855, V-B:MET:535:CE:9807, V-A:LEU:475:CD1:4257, H-B:ALA:541:N:9863, H-B:TYR:531:OH:9767, V-B:TYR:539:C:9839, V-A:GLY:453:CA:4043, V-A:GLY:453:C:4041, V-A:GLY:454:CA:4048, V-A:ASP:366:CG:3212, V-A:ILE:369:CD1:3238, V-B:PRO:540:CD:9859, V-B:TYR:531:CE2:9765, V-B:LEU:363:CD1:8160, H-B:TYR:539:O:9840, H-B:TYR:539:OH:9850"]

$$$$
4aj_Grossjean_2025
     RDKit          3D

 20 22  0  0  0  0  0  0  0  0999 V2000
  135.5940  124.2610   61.8780 C   0  0  0  0  0  0  0  0  0  0  0  0
  134.4010  123.3940   61.5200 C   0  0  0  0  0  0  0  0  0  0  0  0
  134.4690  122.0060   61.6160 C   0  0  0  0  0  0  0  0  0  0  0  0
  133.3580  121.2250   61.2760 C   0  0  0  0  0  0  0  0  0  0  0  0
  133.4830  119.7140   61.3960 C   0  0  0  0  0  0  0  0  0  0  0  0
  132.1840  121.8960   60.8400 C   0  0  0  0  0  0  0  0  0  0  0  0
  130.8930  121.4180   60.4220 C   0  0  0  0  0  0  0  0  0  0  0  0
  130.5860  120.0830   60.3790 N   0  0  0  0  0  0  0  0  0  0  0  0
  129.9950  122.4380   60.0730 C   0  0  0  0  0  0  0  0  0  0  0  0
  128.6150  122.3130   59.5980 C   0  0  0  0  0  0  0  0  0  0  0  0
  127.7040  122.0260   60.3780 O   0  0  0  0  0  0  0  0  0  0  0  0
  128.4310  122.5460   58.2750 N   0  0  0  0  0  0  0  0  0  0  0  0
  127.2300  122.5050   57.5800 C   0  0  0  0  0  0  0  0  0  0  0  0
  126.7890  121.5520   56.7870 N   0  0  0  0  0  0  0  0  0  0  0  0
  125.6000  121.8430   56.2960 C   0  0  0  0  0  0  0  0  0  0  0  0
  125.0520  123.0610   56.6900 C   0  0  0  0  0  0  0  0  0  0  0  0
  126.1620  123.8580   57.7650 S   0  0  0  0  0  0  0  0  0  0  0  0
  130.7390  124.0290   60.2410 S   0  0  0  0  0  0  0  0  0  0  0  0
  132.2420  123.3220   60.7890 C   0  0  0  0  0  0  0  0  0  0  0  0
  133.2980  124.0690   61.1110 N   0  0  0  0  0  0  0  0  0  0  0  0
  1  2  1  0
  2  3  2  0
  3  4  1  0
  4  5  1  0
  4  6  2  0
  6  7  1  0
  7  8  1  0
  7  9  2  0
  9 10  1  0
 10 11  2  0
 10 12  1  0
 12 13  1  0
 13 14  2  0
 14 15  1  0
 15 16  2  0
 16 17  1  0
  9 18  1  0
 18 19  1  0
 19 20  2  0
 20  2  1  0
 19  6  1  0
 17 13  1  0
M  END
>  <Binding energies>  (46) 
[-6.17]

>  <Ligand effiencies>  (46) 
[-0.2682608695652174]

>  <Interactions>  (46) 
["V-B:PRO:540:CB:9857, V-A:ILE:369:CG2:3236, V-B:TYR:539:CE2:9848, V-B:PRO:540:N:9856, V-B:TYR:539:CD2:9846, V-B:PRO:540:CA:9855, V-B:MET:535:CE:9807, H-B:TYR:539:N:9842, V-A:LEU:475:CD1:4257, H-B:ALA:541:N:9863, V-A:SER:385:C:3404, V-B:TYR:539:C:9839, V-A:GLY:453:CA:4043, V-A:GLY:453:C:4041, V-A:ASP:366:CG:3212, V-A:ILE:369:CD1:3238, V-B:PRO:540:CD:9859, V-B:TYR:531:CE2:9765, V-B:LEU:363:CD1:8160, H-B:TYR:539:O:9840, H-B:TYR:539:OH:9850, V-B:ILE:538:CG2:9835"]

$$$$
4ak_Grossjean_2025
     RDKit          3D

 25 26  0  0  0  0  0  0  0  0999 V2000
  127.8910  123.3830   62.5660 C   0  0  0  0  0  0  0  0  0  0  0  0
  127.1120  122.4580   61.8240 O   0  0  0  0  0  0  0  0  0  0  0  0
  125.7200  122.7510   61.8370 C   0  0  0  0  0  0  0  0  0  0  0  0
  125.3960  123.7420   60.7120 C   0  0  0  0  0  0  0  0  0  0  0  0
  126.5540  123.9410   59.9120 O   0  0  0  0  0  0  0  0  0  0  0  0
  126.6460  125.2430   59.3490 C   0  0  0  0  0  0  0  0  0  0  0  0
  125.6480  125.3670   58.1920 C   0  0  0  0  0  0  0  0  0  0  0  0
  126.0050  124.4540   57.1630 O   0  0  0  0  0  0  0  0  0  0  0  0
  125.3950  123.1770   57.2910 C   0  0  0  0  0  0  0  0  0  0  0  0
  126.4830  122.0870   57.2530 C   0  0  0  0  0  0  0  0  0  0  0  0
  127.6040  122.3470   58.1550 N   0  0  0  0  0  0  0  0  0  0  0  0
  128.8060  122.8330   57.7860 C   0  0  0  0  0  0  0  0  0  0  0  0
  129.0680  123.1320   56.6200 O   0  0  0  0  0  0  0  0  0  0  0  0
  129.7900  122.9970   58.8550 C   0  0  0  0  0  0  0  0  0  0  0  0
  131.0760  124.1940   58.7060 S   0  0  0  0  0  0  0  0  0  0  0  0
  131.7180  123.7680   60.2760 C   0  0  0  0  0  0  0  0  0  0  0  0
  132.7960  124.3680   60.7840 N   0  0  0  0  0  0  0  0  0  0  0  0
  133.1910  123.9420   62.0090 C   0  0  0  0  0  0  0  0  0  0  0  0
  134.4180  124.6370   62.5700 C   0  0  0  0  0  0  0  0  0  0  0  0
  132.5410  122.9420   62.7290 C   0  0  0  0  0  0  0  0  0  0  0  0
  131.4100  122.3150   62.1930 C   0  0  0  0  0  0  0  0  0  0  0  0
  130.7370  121.2270   63.0160 C   0  0  0  0  0  0  0  0  0  0  0  0
  130.9660  122.7340   60.9100 C   0  0  0  0  0  0  0  0  0  0  0  0
  129.8680  122.3170   60.0810 C   0  0  0  0  0  0  0  0  0  0  0  0
  128.9870  121.3380   60.4670 N   0  0  0  0  0  0  0  0  0  0  0  0
  1  2  1  0
  2  3  1  0
  3  4  1  0
  4  5  1  0
  5  6  1  0
  6  7  1  0
  7  8  1  0
  8  9  1  0
  9 10  1  0
 10 11  1  0
 11 12  1  0
 12 13  2  0
 12 14  1  0
 14 15  1  0
 15 16  1  0
 16 17  2  0
 17 18  1  0
 18 19  1  0
 18 20  2  0
 20 21  1  0
 21 22  1  0
 21 23  2  0
 23 24  1  0
 24 25  1  0
 24 14  2  0
 23 16  1  0
M  END
>  <Binding energies>  (47) 
[-4.87]

>  <Ligand effiencies>  (47) 
[-0.17392857142857143]

>  <Interactions>  (47) 
["V-B:PRO:540:CB:9857, V-B:TYR:539:CE2:9848, V-B:PRO:540:N:9856, V-B:TYR:539:CZ:9849, V-B:TYR:539:CD2:9846, V-B:PRO:540:CA:9855, V-B:PRO:540:C:9853, V-B:MET:535:CE:9807, V-A:LEU:475:CD1:4257, H-B:ALA:541:N:9863, H-B:TYR:531:OH:9767, V-B:TYR:539:C:9839, V-B:ALA:541:CB:9864, V-B:GLU:543:CD:9880, V-A:ARG:545:CZ:4926, V-A:GLY:453:CA:4043, V-A:GLY:453:C:4041, V-B:GLU:543:CG:9879, V-A:ASP:366:CG:3212, V-B:ASP:366:CB:8183, V-B:PRO:540:CD:9859, V-B:TYR:531:CZ:9766, V-B:TYR:531:CE2:9765, V-B:LEU:363:CD1:8160, H-B:TYR:539:O:9840, H-B:TYR:539:OH:9850"]

$$$$
4al_Grossjean_2025
     RDKit          3D

 16 17  0  0  0  0  0  0  0  0999 V2000
  130.9990  117.3560   60.3850 C   0  0  0  0  0  0  0  0  0  0  0  0
  131.8640  118.2500   59.7010 O   0  0  0  0  0  0  0  0  0  0  0  0
  132.9710  118.7500   60.3080 C   0  0  0  0  0  0  0  0  0  0  0  0
  134.0930  118.2460   60.2180 O   0  0  0  0  0  0  0  0  0  0  0  0
  132.6950  119.9710   61.0960 C   0  0  0  0  0  0  0  0  0  0  0  0
  134.0110  120.7940   61.9370 S   0  0  0  0  0  0  0  0  0  0  0  0
  132.9130  122.0080   62.5520 C   0  0  0  0  0  0  0  0  0  0  0  0
  133.3310  123.0080   63.3290 N   0  0  0  0  0  0  0  0  0  0  0  0
  132.3790  123.8830   63.7390 C   0  0  0  0  0  0  0  0  0  0  0  0
  132.8770  125.0120   64.6230 C   0  0  0  0  0  0  0  0  0  0  0  0
  131.0340  123.7810   63.3920 C   0  0  0  0  0  0  0  0  0  0  0  0
  130.5980  122.7320   62.5760 C   0  0  0  0  0  0  0  0  0  0  0  0
  129.1200  122.6640   62.2250 C   0  0  0  0  0  0  0  0  0  0  0  0
  131.5680  121.7950   62.1270 C   0  0  0  0  0  0  0  0  0  0  0  0
  131.4740  120.6260   61.2980 C   0  0  0  0  0  0  0  0  0  0  0  0
  130.2890  120.1970   60.7580 N   0  0  0  0  0  0  0  0  0  0  0  0
  1  2  1  0
  2  3  1  0
  3  4  2  0
  3  5  1  0
  5  6  1  0
  6  7  1  0
  7  8  2  0
  8  9  1  0
  9 10  1  0
  9 11  2  0
 11 12  1  0
 12 13  1  0
 12 14  2  0
 14 15  1  0
 15 16  1  0
 15  5  2  0
 14  7  1  0
M  END
>  <Binding energies>  (48) 
[-5.15]

>  <Ligand effiencies>  (48) 
[-0.28611111111111115]

>  <Interactions>  (48) 
["V-A:ILE:369:CG2:3236, V-B:TYR:539:CD2:9846, V-A:PRO:482:CG:4326, V-A:LEU:475:CD1:4257, V-A:SER:385:C:3404, V-B:TYR:539:C:9839, V-B:ALA:541:CB:9864, V-A:ARG:545:CZ:4926, V-A:GLY:454:CA:4048, V-A:HIS:383:CE1:3392, H-A:TYR:484:OH:4347, H-A:GLY:454:N:4049, V-A:ILE:369:CD1:3238, V-A:HIS:383:CD2:3391, H-B:TYR:539:O:9840, H-A:HIS:383:NE2:3393, H-A:SER:385:OG:3409"]

$$$$
4bc_Grossjean_2025
     RDKit          3D

 26 28  0  0  0  0  0  0  0  0999 V2000
  125.4680  122.0400   56.4250 C   0  0  0  0  0  0  0  0  0  0  0  0
  126.8730  121.9310   56.6260 O   0  0  0  0  0  0  0  0  0  0  0  0
  127.4310  122.4480   57.7800 C   0  0  0  0  0  0  0  0  0  0  0  0
  128.8190  122.3730   57.8870 C   0  0  0  0  0  0  0  0  0  0  0  0
  129.4710  122.8680   59.0140 C   0  0  0  0  0  0  0  0  0  0  0  0
  128.7400  123.4530   60.0480 C   0  0  0  0  0  0  0  0  0  0  0  0
  129.4820  123.9100   61.1530 N   0  0  0  0  0  0  0  0  0  0  0  0
  129.2260  124.9460   61.9890 C   0  0  0  0  0  0  0  0  0  0  0  0
  128.2610  125.7030   61.8690 O   0  0  0  0  0  0  0  0  0  0  0  0
  130.1920  125.1320   63.0760 C   0  0  0  0  0  0  0  0  0  0  0  0
  131.8770  124.6670   62.8540 S   0  0  0  0  0  0  0  0  0  0  0  0
  132.2790  125.1770   64.4760 C   0  0  0  0  0  0  0  0  0  0  0  0
  133.5210  125.0730   64.9500 N   0  0  0  0  0  0  0  0  0  0  0  0
  133.7090  125.4990   66.2200 C   0  0  0  0  0  0  0  0  0  0  0  0
  135.1310  125.3770   66.7390 C   0  0  0  0  0  0  0  0  0  0  0  0
  132.6960  126.0210   67.0210 C   0  0  0  0  0  0  0  0  0  0  0  0
  131.3870  126.1320   66.5270 C   0  0  0  0  0  0  0  0  0  0  0  0
  130.3050  126.7100   67.4470 C   0  0  0  0  0  0  0  0  0  0  0  0
  129.3510  127.3650   66.7820 F   0  0  0  0  0  0  0  0  0  0  0  0
  129.7160  125.7240   68.1230 F   0  0  0  0  0  0  0  0  0  0  0  0
  130.8540  127.5680   68.3070 F   0  0  0  0  0  0  0  0  0  0  0  0
  131.1540  125.6930   65.1900 C   0  0  0  0  0  0  0  0  0  0  0  0
  129.9740  125.6570   64.3590 C   0  0  0  0  0  0  0  0  0  0  0  0
  128.7500  126.0980   64.7930 N   0  0  0  0  0  0  0  0  0  0  0  0
  127.3410  123.5200   59.9540 C   0  0  0  0  0  0  0  0  0  0  0  0
  126.6930  123.0240   58.8260 C   0  0  0  0  0  0  0  0  0  0  0  0
  1  2  1  0
  2  3  1  0
  3  4  2  0
  4  5  1  0
  5  6  2  0
  6  7  1  0
  7  8  1  0
  8  9  2  0
  8 10  1  0
 10 11  1  0
 11 12  1  0
 12 13  2  0
 13 14  1  0
 14 15  1  0
 14 16  2  0
 16 17  1  0
 17 18  1  0
 18 19  1  0
 18 20  1  0
 18 21  1  0
 17 22  2  0
 22 23  1  0
 23 24  1  0
  6 25  1  0
 25 26  2  0
 26  3  1  0
 23 10  2  0
 22 12  1  0
M  END
>  <Binding energies>  (49) 
[-6.42]

>  <Ligand effiencies>  (49) 
[-0.22137931034482758]

>  <Interactions>  (49) 
["V-B:PRO:540:CB:9857, V-B:TYR:539:CE2:9848, V-B:PRO:540:N:9856, V-B:TYR:539:CZ:9849, V-B:TYR:539:CD2:9846, V-B:PRO:540:CA:9855, V-B:MET:535:CE:9807, H-B:TYR:539:N:9842, V-B:TYR:539:C:9839, V-B:GLU:543:CD:9880, V-A:ARG:545:CD:4923, V-A:ARG:545:CZ:4926, V-A:GLY:453:CA:4043, V-B:GLU:543:CB:9878, V-A:GLY:453:C:4041, V-A:GLU:543:CB:4906, V-A:HIS:456:CE1:4069, V-A:ARG:545:CG:4922, V-A:GLY:454:CA:4048, H-A:TYR:484:OH:4347, H-A:GLY:454:N:4049, H-A:GLU:543:OE1:4909, V-B:GLU:543:CG:9879, V-A:GLU:543:CD:4908, H-B:GLU:543:OE2:9882, V-A:TYR:484:CE2:4345, V-A:TYR:484:CZ:4346, H-A:ARG:545:NH2:4928, V-A:ILE:455:C:4051, V-B:PRO:540:CD:9859, H-A:ARG:545:NE:4924, V-B:TYR:539:CG:9844, V-B:LEU:363:CD1:8160, H-B:GLU:543:OE1:9881, V-B:TYR:539:CE1:9847"]

$$$$
4bf_Grossjean_2025
     RDKit          3D

 24 26  0  0  0  0  0  0  0  0999 V2000
  133.6370  125.4000   65.5230 C   0  0  0  0  0  0  0  0  0  0  0  0
  133.0070  124.8640   64.2490 C   0  0  0  0  0  0  0  0  0  0  0  0
  133.7780  124.6190   63.1170 C   0  0  0  0  0  0  0  0  0  0  0  0
  133.1820  124.1270   61.9450 C   0  0  0  0  0  0  0  0  0  0  0  0
  134.0700  123.8750   60.7220 C   0  0  0  0  0  0  0  0  0  0  0  0
  135.3320  124.2730   60.9020 F   0  0  0  0  0  0  0  0  0  0  0  0
  134.0980  122.5710   60.4450 F   0  0  0  0  0  0  0  0  0  0  0  0
  133.5890  124.5390   59.6700 F   0  0  0  0  0  0  0  0  0  0  0  0
  131.7740  123.8960   61.9750 C   0  0  0  0  0  0  0  0  0  0  0  0
  130.8380  123.4100   60.9920 C   0  0  0  0  0  0  0  0  0  0  0  0
  131.2180  123.0500   59.7240 N   0  0  0  0  0  0  0  0  0  0  0  0
  129.5120  123.3360   61.4490 C   0  0  0  0  0  0  0  0  0  0  0  0
  128.3130  122.9210   60.7130 C   0  0  0  0  0  0  0  0  0  0  0  0
  127.3750  122.3780   61.2970 O   0  0  0  0  0  0  0  0  0  0  0  0
  128.3250  123.1930   59.3850 N   0  0  0  0  0  0  0  0  0  0  0  0
  127.3680  122.8860   58.3990 C   0  0  0  0  0  0  0  0  0  0  0  0
  126.0440  123.3590   58.3730 C   0  0  0  0  0  0  0  0  0  0  0  0
  125.1890  122.9640   57.3420 C   0  0  0  0  0  0  0  0  0  0  0  0
  125.6790  122.1010   56.3620 C   0  0  0  0  0  0  0  0  0  0  0  0
  126.9490  121.6250   56.3670 N   0  0  0  0  0  0  0  0  0  0  0  0
  127.7680  122.0170   57.3770 C   0  0  0  0  0  0  0  0  0  0  0  0
  129.3830  123.8740   63.1220 S   0  0  0  0  0  0  0  0  0  0  0  0
  131.1010  124.1890   63.2020 C   0  0  0  0  0  0  0  0  0  0  0  0
  131.6710  124.6550   64.3120 N   0  0  0  0  0  0  0  0  0  0  0  0
  1  2  1  0
  2  3  2  0
  3  4  1  0
  4  5  1  0
  5  6  1  0
  5  7  1  0
  5  8  1  0
  4  9  2  0
  9 10  1  0
 10 11  1  0
 10 12  2  0
 12 13  1  0
 13 14  2  0
 13 15  1  0
 15 16  1  0
 16 17  2  0
 17 18  1  0
 18 19  2  0
 19 20  1  0
 20 21  2  0
 12 22  1  0
 22 23  1  0
 23 24  2  0
 24  2  1  0
 23  9  1  0
 21 16  1  0
M  END
>  <Binding energies>  (50) 
[-6.1]

>  <Ligand effiencies>  (50) 
[-0.22592592592592592]

>  <Interactions>  (50) 
["V-B:PRO:540:CB:9857, V-A:ILE:369:CG2:3236, V-B:TYR:539:CE2:9848, V-B:PRO:540:N:9856, V-B:TYR:539:CD2:9846, V-B:PRO:540:CA:9855, V-B:MET:535:CE:9807, H-B:TYR:539:N:9842, H-B:ALA:541:N:9863, V-B:TYR:539:C:9839, V-B:GLU:543:CD:9880, V-A:ARG:545:CD:4923, V-A:ARG:545:CZ:4926, V-A:GLY:453:CA:4043, V-A:GLY:453:C:4041, H-A:TYR:484:OH:4347, V-B:GLU:543:CG:9879, V-A:ASP:366:CG:3212, V-A:ILE:369:CD1:3238, V-A:ASP:366:CB:3211, V-A:ASP:366:CA:3209, V-A:ILE:369:CB:3235, V-B:TYR:539:CA:9841, V-B:PRO:540:CD:9859, V-B:TYR:539:CG:9844, V-B:TYR:539:CD1:9845, V-B:LEU:363:CD1:8160, V-A:ILE:369:CG1:3237, V-A:CYS:365:C:3203"]

$$$$
4bh_Grossjean_2025
     RDKit          3D

 31 33  0  0  0  0  0  0  0  0999 V2000
  132.6650  127.2150   74.2990 C   0  0  0  0  0  0  0  0  0  0  0  0
  131.4040  127.8140   74.0200 O   0  0  0  0  0  0  0  0  0  0  0  0
  130.5200  127.1720   73.1720 C   0  0  0  0  0  0  0  0  0  0  0  0
  130.0810  127.7020   71.9490 C   0  0  0  0  0  0  0  0  0  0  0  0
  129.1850  126.9990   71.1440 C   0  0  0  0  0  0  0  0  0  0  0  0
  128.7550  127.5700   69.7980 C   0  0  0  0  0  0  0  0  0  0  0  0
  129.4290  126.9480   68.6580 N   0  0  0  0  0  0  0  0  0  0  0  0
  130.6660  127.2550   68.2180 C   0  0  0  0  0  0  0  0  0  0  0  0
  131.3500  128.1440   68.7290 O   0  0  0  0  0  0  0  0  0  0  0  0
  131.1430  126.4980   67.0590 C   0  0  0  0  0  0  0  0  0  0  0  0
  132.8710  126.3170   66.7750 S   0  0  0  0  0  0  0  0  0  0  0  0
  132.5780  125.4130   65.3080 C   0  0  0  0  0  0  0  0  0  0  0  0
  133.5830  124.9460   64.5670 N   0  0  0  0  0  0  0  0  0  0  0  0
  133.2310  124.2590   63.4560 C   0  0  0  0  0  0  0  0  0  0  0  0
  134.3910  123.7380   62.6250 C   0  0  0  0  0  0  0  0  0  0  0  0
  131.9130  124.0270   63.0720 C   0  0  0  0  0  0  0  0  0  0  0  0
  130.8510  124.5170   63.8480 C   0  0  0  0  0  0  0  0  0  0  0  0
  129.4170  124.2350   63.3880 C   0  0  0  0  0  0  0  0  0  0  0  0
  128.8040  123.3070   64.1250 F   0  0  0  0  0  0  0  0  0  0  0  0
  128.6900  125.3490   63.4660 F   0  0  0  0  0  0  0  0  0  0  0  0
  129.4250  123.8030   62.1270 F   0  0  0  0  0  0  0  0  0  0  0  0
  131.1870  125.2490   65.0250 C   0  0  0  0  0  0  0  0  0  0  0  0
  130.3900  125.8940   66.0400 C   0  0  0  0  0  0  0  0  0  0  0  0
  129.0200  125.9070   66.0120 N   0  0  0  0  0  0  0  0  0  0  0  0
  128.7410  125.7390   71.5480 C   0  0  0  0  0  0  0  0  0  0  0  0
  129.1570  125.1870   72.7700 C   0  0  0  0  0  0  0  0  0  0  0  0
  128.7460  123.9510   73.2390 O   0  0  0  0  0  0  0  0  0  0  0  0
  129.2880  122.7700   72.6580 C   0  0  0  0  0  0  0  0  0  0  0  0
  130.0420  125.9170   73.5760 C   0  0  0  0  0  0  0  0  0  0  0  0
  130.4720  125.3800   74.7670 O   0  0  0  0  0  0  0  0  0  0  0  0
  131.3710  124.2900   74.6170 C   0  0  0  0  0  0  0  0  0  0  0  0
  1  2  1  0
  2  3  1  0
  3  4  2  0
  4  5  1  0
  5  6  1  0
  6  7  1  0
  7  8  1  0
  8  9  2  0
  8 10  1  0
 10 11  1  0
 11 12  1  0
 12 13  2  0
 13 14  1  0
 14 15  1  0
 14 16  2  0
 16 17  1  0
 17 18  1  0
 18 19  1  0
 18 20  1  0
 18 21  1  0
 17 22  2  0
 22 23  1  0
 23 24  1  0
  5 25  2  0
 25 26  1  0
 26 27  1  0
 27 28  1  0
 26 29  2  0
 29 30  1  0
 30 31  1  0
 29  3  1  0
 23 10  2  0
 22 12  1  0
M  END
>  <Binding energies>  (51) 
[-6.0]

>  <Ligand effiencies>  (51) 
[-0.17647058823529413]

>  <Interactions>  (51) 
["V-B:ALA:541:CB:9864, V-B:GLU:543:CD:9880, V-A:ARG:545:CD:4923, V-A:ARG:545:CZ:4926, V-A:GLY:453:CA:4043, V-B:GLU:543:CB:9878, V-A:GLY:453:C:4041, V-A:GLU:543:CB:4906, V-A:HIS:456:CE1:4069, V-A:ARG:545:CG:4922, V-B:HIS:456:CE1:9041, V-A:GLY:454:CA:4048, H-A:TYR:484:OH:4347, H-A:GLY:454:N:4049, H-A:GLU:543:OE1:4909, V-B:GLU:543:CG:9879, V-A:GLU:543:CD:4908, H-B:GLU:543:OE2:9882, V-B:GLU:543:C:9874, V-A:ILE:369:CD1:3238, V-B:HIS:456:CD2:9039, V-A:LYS:547:CE:4950, H-A:HIS:456:ND1:4066, H-A:ARG:545:NH2:4928, V-A:TYR:484:CB:4340, V-A:LYS:547:CD:4949, V-A:TYR:484:CG:4341, V-A:TYR:484:CD2:4343, V-A:HIS:456:CG:4065, V-A:HIS:456:CB:4064, V-A:HIS:456:CD2:4067, H-B:LYS:547:NZ:9923, H-A:LYS:547:NZ:4951"]

$$$$
4bi_Grossjean_2025
     RDKit          3D

 23 25  0  0  0  0  0  0  0  0999 V2000
  135.4770  124.2290   61.9150 C   0  0  0  0  0  0  0  0  0  0  0  0
  134.2050  123.4750   61.5710 C   0  0  0  0  0  0  0  0  0  0  0  0
  134.2050  122.0880   61.4450 C   0  0  0  0  0  0  0  0  0  0  0  0
  133.0190  121.4030   61.1310 C   0  0  0  0  0  0  0  0  0  0  0  0
  133.0670  119.8760   61.0120 C   0  0  0  0  0  0  0  0  0  0  0  0
  132.8000  119.4400   59.7790 F   0  0  0  0  0  0  0  0  0  0  0  0
  134.2820  119.4350   61.3360 F   0  0  0  0  0  0  0  0  0  0  0  0
  132.1670  119.3310   61.8310 F   0  0  0  0  0  0  0  0  0  0  0  0
  131.8420  122.1880   60.9460 C   0  0  0  0  0  0  0  0  0  0  0  0
  130.4790  121.8480   60.6200 C   0  0  0  0  0  0  0  0  0  0  0  0
  130.0670  120.5580   60.4050 N   0  0  0  0  0  0  0  0  0  0  0  0
  129.6130  122.9530   60.5480 C   0  0  0  0  0  0  0  0  0  0  0  0
  128.1830  122.9740   60.2310 C   0  0  0  0  0  0  0  0  0  0  0  0
  127.3720  122.3750   60.9390 O   0  0  0  0  0  0  0  0  0  0  0  0
  127.8400  123.7010   59.1380 N   0  0  0  0  0  0  0  0  0  0  0  0
  126.5660  123.9000   58.6210 C   0  0  0  0  0  0  0  0  0  0  0  0
  125.4060  123.7630   59.3810 C   0  0  0  0  0  0  0  0  0  0  0  0
  124.3740  124.0400   58.5130 C   0  0  0  0  0  0  0  0  0  0  0  0
  124.8880  124.3300   57.2930 O   0  0  0  0  0  0  0  0  0  0  0  0
  126.2790  124.2370   57.3750 N   0  0  0  0  0  0  0  0  0  0  0  0
  130.4750  124.4580   60.8610 S   0  0  0  0  0  0  0  0  0  0  0  0
  131.9790  123.6010   61.1040 C   0  0  0  0  0  0  0  0  0  0  0  0
  133.1060  124.2460   61.4040 N   0  0  0  0  0  0  0  0  0  0  0  0
  1  2  1  0
  2  3  2  0
  3  4  1  0
  4  5  1  0
  5  6  1  0
  5  7  1  0
  5  8  1  0
  4  9  2  0
  9 10  1  0
 10 11  1  0
 10 12  2  0
 12 13  1  0
 13 14  2  0
 13 15  1  0
 15 16  1  0
 16 17  1  0
 17 18  2  0
 18 19  1  0
 19 20  1  0
 12 21  1  0
 21 22  1  0
 22 23  2  0
 23  2  1  0
 22  9  1  0
 20 16  2  0
M  END
>  <Binding energies>  (52) 
[-6.05]

>  <Ligand effiencies>  (52) 
[-0.2326923076923077]

>  <Interactions>  (52) 
["V-B:PRO:540:CB:9857, V-A:ILE:369:CG2:3236, V-B:TYR:539:CE2:9848, V-B:TYR:539:CD2:9846, V-B:PRO:540:CA:9855, V-A:LEU:475:CD1:4257, H-B:ALA:541:N:9863, V-A:SER:385:CB:3408, H-B:TYR:531:OH:9767, V-A:SER:385:CA:3406, V-A:SER:385:C:3404, V-B:TYR:539:C:9839, V-A:GLY:453:CA:4043, V-A:GLY:453:C:4041, V-A:ASP:366:CG:3212, V-A:ILE:369:CD1:3238, V-B:LEU:363:CA:8156, V-B:LEU:363:CB:8158, V-B:LEU:363:CD1:8160, H-B:TYR:539:O:9840"]

$$$$
4bj_Grossjean_2025
     RDKit          3D

 23 25  0  0  0  0  0  0  0  0999 V2000
  135.5160  124.2680   61.8710 C   0  0  0  0  0  0  0  0  0  0  0  0
  134.2530  123.4900   61.5490 C   0  0  0  0  0  0  0  0  0  0  0  0
  134.2840  122.1070   61.3880 C   0  0  0  0  0  0  0  0  0  0  0  0
  133.1100  121.4010   61.0840 C   0  0  0  0  0  0  0  0  0  0  0  0
  133.1940  119.8800   60.9130 C   0  0  0  0  0  0  0  0  0  0  0  0
  132.4020  119.2150   61.7570 F   0  0  0  0  0  0  0  0  0  0  0  0
  132.8320  119.5440   59.6750 F   0  0  0  0  0  0  0  0  0  0  0  0
  134.4440  119.4710   61.1330 F   0  0  0  0  0  0  0  0  0  0  0  0
  131.9080  122.1580   60.9540 C   0  0  0  0  0  0  0  0  0  0  0  0
  130.5450  121.7930   60.6520 C   0  0  0  0  0  0  0  0  0  0  0  0
  130.1610  120.4980   60.4120 N   0  0  0  0  0  0  0  0  0  0  0  0
  129.6520  122.8760   60.6340 C   0  0  0  0  0  0  0  0  0  0  0  0
  128.2140  122.8680   60.3560 C   0  0  0  0  0  0  0  0  0  0  0  0
  127.4560  122.1110   60.9690 O   0  0  0  0  0  0  0  0  0  0  0  0
  127.7980  123.7450   59.4100 N   0  0  0  0  0  0  0  0  0  0  0  0
  126.4960  123.9440   58.9710 C   0  0  0  0  0  0  0  0  0  0  0  0
  126.0920  124.2830   57.7660 N   0  0  0  0  0  0  0  0  0  0  0  0
  124.7790  124.3790   57.7040 C   0  0  0  0  0  0  0  0  0  0  0  0
  124.0860  124.1150   58.8810 C   0  0  0  0  0  0  0  0  0  0  0  0
  125.2270  123.7230   60.1330 S   0  0  0  0  0  0  0  0  0  0  0  0
  130.4810  124.3940   60.9700 S   0  0  0  0  0  0  0  0  0  0  0  0
  132.0130  123.5700   61.1480 C   0  0  0  0  0  0  0  0  0  0  0  0
  133.1300  124.2370   61.4340 N   0  0  0  0  0  0  0  0  0  0  0  0
  1  2  1  0
  2  3  2  0
  3  4  1  0
  4  5  1  0
  5  6  1  0
  5  7  1  0
  5  8  1  0
  4  9  2  0
  9 10  1  0
 10 11  1  0
 10 12  2  0
 12 13  1  0
 13 14  2  0
 13 15  1  0
 15 16  1  0
 16 17  2  0
 17 18  1  0
 18 19  2  0
 19 20  1  0
 12 21  1  0
 21 22  1  0
 22 23  2  0
 23  2  1  0
 22  9  1  0
 20 16  1  0
M  END
>  <Binding energies>  (53) 
[-5.59]

>  <Ligand effiencies>  (53) 
[-0.215]

>  <Interactions>  (53) 
["V-B:PRO:540:CB:9857, V-A:ILE:369:CG2:3236, V-B:TYR:539:CE2:9848, V-B:TYR:539:CD2:9846, V-B:PRO:540:CA:9855, V-A:LEU:475:CD1:4257, H-B:ALA:541:N:9863, V-A:SER:385:CB:3408, H-B:TYR:531:OH:9767, V-A:SER:385:CA:3406, V-A:SER:385:C:3404, V-B:TYR:539:C:9839, V-A:GLY:453:CA:4043, V-A:GLY:453:C:4041, V-A:ASP:366:CG:3212, V-A:ILE:369:CD1:3238, V-B:ASP:366:CB:8183, V-B:ASP:366:CG:8184, V-B:LEU:363:CA:8156, V-B:TYR:531:CZ:9766, V-B:LEU:363:CB:8158, V-B:TYR:531:CE2:9765, V-B:LEU:363:CD1:8160, H-B:TYR:539:O:9840"]

$$$$
4bk_Grossjean_2025
     RDKit          3D

 28 29  0  0  0  0  0  0  0  0999 V2000
  129.2110  122.2120   62.2440 C   0  0  0  0  0  0  0  0  0  0  0  0
  128.1290  122.2010   61.3250 O   0  0  0  0  0  0  0  0  0  0  0  0
  126.9380  122.7750   61.8480 C   0  0  0  0  0  0  0  0  0  0  0  0
  126.4240  123.8530   60.8840 C   0  0  0  0  0  0  0  0  0  0  0  0
  125.5400  123.2610   59.9420 O   0  0  0  0  0  0  0  0  0  0  0  0
  124.5730  124.1610   59.4180 C   0  0  0  0  0  0  0  0  0  0  0  0
  124.5670  124.0680   57.8870 C   0  0  0  0  0  0  0  0  0  0  0  0
  125.8490  124.4220   57.3890 O   0  0  0  0  0  0  0  0  0  0  0  0
  126.5220  123.3590   56.7250 C   0  0  0  0  0  0  0  0  0  0  0  0
  126.8280  122.2390   57.7350 C   0  0  0  0  0  0  0  0  0  0  0  0
  128.1220  122.3860   58.4020 N   0  0  0  0  0  0  0  0  0  0  0  0
  129.0840  123.2650   58.0510 C   0  0  0  0  0  0  0  0  0  0  0  0
  128.9450  124.0590   57.1200 O   0  0  0  0  0  0  0  0  0  0  0  0
  130.3110  123.2300   58.8500 C   0  0  0  0  0  0  0  0  0  0  0  0
  131.3180  124.6680   58.9850 S   0  0  0  0  0  0  0  0  0  0  0  0
  132.4400  123.8370   60.0360 C   0  0  0  0  0  0  0  0  0  0  0  0
  133.5200  124.4470   60.5230 N   0  0  0  0  0  0  0  0  0  0  0  0
  134.3130  123.7010   61.3270 C   0  0  0  0  0  0  0  0  0  0  0  0
  135.5350  124.4180   61.8720 C   0  0  0  0  0  0  0  0  0  0  0  0
  134.0540  122.3730   61.6530 C   0  0  0  0  0  0  0  0  0  0  0  0
  132.9190  121.7230   61.1420 C   0  0  0  0  0  0  0  0  0  0  0  0
  132.6780  120.2590   61.5250 C   0  0  0  0  0  0  0  0  0  0  0  0
  133.6740  119.7370   62.2450 F   0  0  0  0  0  0  0  0  0  0  0  0
  131.5650  120.1600   62.2510 F   0  0  0  0  0  0  0  0  0  0  0  0
  132.5520  119.5190   60.4240 F   0  0  0  0  0  0  0  0  0  0  0  0
  132.0610  122.4820   60.2910 C   0  0  0  0  0  0  0  0  0  0  0  0
  130.8340  122.1670   59.6010 C   0  0  0  0  0  0  0  0  0  0  0  0
  130.2380  120.9340   59.6730 N   0  0  0  0  0  0  0  0  0  0  0  0
  1  2  1  0
  2  3  1  0
  3  4  1  0
  4  5  1  0
  5  6  1  0
  6  7  1  0
  7  8  1  0
  8  9  1  0
  9 10  1  0
 10 11  1  0
 11 12  1  0
 12 13  2  0
 12 14  1  0
 14 15  1  0
 15 16  1  0
 16 17  2  0
 17 18  1  0
 18 19  1  0
 18 20  2  0
 20 21  1  0
 21 22  1  0
 22 23  1  0
 22 24  1  0
 22 25  1  0
 21 26  2  0
 26 27  1  0
 27 28  1  0
 27 14  2  0
 26 16  1  0
M  END
>  <Binding energies>  (54) 
[-4.63]

>  <Ligand effiencies>  (54) 
[-0.14935483870967742]

>  <Interactions>  (54) 
["V-B:PRO:540:CB:9857, V-A:ILE:369:CG2:3236, V-B:TYR:539:CE2:9848, V-B:PRO:540:N:9856, V-B:TYR:539:CZ:9849, V-B:TYR:539:CD2:9846, V-B:PRO:540:CA:9855, V-B:PRO:540:C:9853, V-B:MET:535:CE:9807, V-A:LEU:475:CD1:4257, H-B:ALA:541:N:9863, H-B:TYR:531:OH:9767, V-B:ALA:541:CA:9862, V-A:SER:385:CA:3406, V-A:SER:385:C:3404, V-B:TYR:539:C:9839, V-B:ALA:541:CB:9864, V-B:GLU:543:CD:9880, V-A:GLY:453:CA:4043, V-A:GLY:453:C:4041, V-A:ASP:366:CG:3212, V-A:ILE:369:CD1:3238, V-A:ASP:366:CA:3209, V-B:ASP:366:CB:8183, V-B:ASP:366:CG:8184, V-B:PRO:540:CD:9859, V-B:LEU:363:CA:8156, V-B:TYR:539:CG:9844, V-B:TYR:531:CE2:9765, V-B:LEU:363:CD1:8160, H-B:TYR:539:O:9840, H-B:TYR:539:OH:9850"]

$$$$
4cd_Grossjean_2025
     RDKit          3D

 29 32  0  0  0  0  0  0  0  0999 V2000
  131.2440  122.6950   64.2380 N   0  0  0  0  0  0  0  0  0  0  0  0
  130.2800  123.4890   63.6710 C   0  0  0  0  0  0  0  0  0  0  0  0
  129.8550  124.7040   64.2330 C   0  0  0  0  0  0  0  0  0  0  0  0
  130.3020  125.3420   65.4750 C   0  0  0  0  0  0  0  0  0  0  0  0
  131.5010  125.4410   65.7330 O   0  0  0  0  0  0  0  0  0  0  0  0
  129.3130  125.8020   66.2790 N   0  0  0  0  0  0  0  0  0  0  0  0
  129.3970  126.4090   67.5460 C   0  0  0  0  0  0  0  0  0  0  0  0
  128.7020  125.7710   68.5780 C   0  0  0  0  0  0  0  0  0  0  0  0
  128.7350  126.2860   69.8700 C   0  0  0  0  0  0  0  0  0  0  0  0
  129.4700  127.4380   70.1350 C   0  0  0  0  0  0  0  0  0  0  0  0
  130.1790  128.0760   69.1200 C   0  0  0  0  0  0  0  0  0  0  0  0
  130.1480  127.5640   67.8250 C   0  0  0  0  0  0  0  0  0  0  0  0
  128.6150  125.4650   63.2380 S   0  0  0  0  0  0  0  0  0  0  0  0
  128.6680  124.1520   62.0870 C   0  0  0  0  0  0  0  0  0  0  0  0
  127.8860  124.1400   61.0100 N   0  0  0  0  0  0  0  0  0  0  0  0
  127.9890  123.0690   60.1800 C   0  0  0  0  0  0  0  0  0  0  0  0
  127.0930  123.0830   58.9750 C   0  0  0  0  0  0  0  0  0  0  0  0
  125.9110  123.8420   58.9670 C   0  0  0  0  0  0  0  0  0  0  0  0
  125.0760  123.8590   57.8530 C   0  0  0  0  0  0  0  0  0  0  0  0
  125.4130  123.1160   56.7270 C   0  0  0  0  0  0  0  0  0  0  0  0
  126.5780  122.3590   56.7070 C   0  0  0  0  0  0  0  0  0  0  0  0
  127.4110  122.3450   57.8220 C   0  0  0  0  0  0  0  0  0  0  0  0
  128.8880  122.0270   60.4240 C   0  0  0  0  0  0  0  0  0  0  0  0
  129.7200  122.0320   61.5560 C   0  0  0  0  0  0  0  0  0  0  0  0
  130.6800  120.8550   61.7650 C   0  0  0  0  0  0  0  0  0  0  0  0
  130.6280  120.3490   62.9990 F   0  0  0  0  0  0  0  0  0  0  0  0
  130.3810  119.8720   60.9170 F   0  0  0  0  0  0  0  0  0  0  0  0
  131.9340  121.2540   61.5520 F   0  0  0  0  0  0  0  0  0  0  0  0
  129.6120  123.1430   62.4400 C   0  0  0  0  0  0  0  0  0  0  0  0
  1  2  1  0
  2  3  2  0
  3  4  1  0
  4  5  2  0
  4  6  1  0
  6  7  1  0
  7  8  2  0
  8  9  1  0
  9 10  2  0
 10 11  1  0
 11 12  2  0
  3 13  1  0
 13 14  1  0
 14 15  2  0
 15 16  1  0
 16 17  1  0
 17 18  2  0
 18 19  1  0
 19 20  2  0
 20 21  1  0
 21 22  2  0
 16 23  2  0
 23 24  1  0
 24 25  1  0
 25 26  1  0
 25 27  1  0
 25 28  1  0
 24 29  2  0
 29  2  1  0
 12  7  1  0
 29 14  1  0
 22 17  1  0
M  END
>  <Binding energies>  (55) 
[-7.5]

>  <Ligand effiencies>  (55) 
[-0.234375]

>  <Interactions>  (55) 
["V-B:PRO:540:CB:9857, V-B:PRO:540:N:9856, V-B:TYR:539:CD2:9846, V-B:PRO:540:CA:9855, V-B:MET:535:CE:9807, V-A:LEU:475:CD1:4257, V-B:ALA:541:CA:9862, V-B:TYR:539:C:9839, V-B:ALA:541:CB:9864, V-B:GLU:543:CD:9880, V-B:GLU:543:CB:9878, V-A:GLU:543:CB:4906, V-A:HIS:456:CE1:4069, V-B:HIS:456:CE1:9041, H-A:TYR:484:OH:4347, V-A:GLU:543:C:4902, V-B:GLU:543:CG:9879, V-A:GLU:543:CD:4908, H-B:GLU:543:OE2:9882, V-B:GLU:543:C:9874, V-B:GLU:543:CA:9876, V-A:TYR:484:CZ:4346, V-B:PRO:540:CD:9859, V-B:TYR:531:CE2:9765, V-B:LEU:363:CD1:8160, V-A:LEU:475:CG:4256, V-A:LEU:475:CD2:4258"]

$$$$
4cg_Grossjean_2025
     RDKit          3D

 30 33  0  0  0  0  0  0  0  0999 V2000
  131.9260  126.0810   64.7680 N   0  0  0  0  0  0  0  0  0  0  0  0
  131.2360  124.8960   64.7390 C   0  0  0  0  0  0  0  0  0  0  0  0
  130.2080  124.5850   65.6400 C   0  0  0  0  0  0  0  0  0  0  0  0
  129.6460  125.4140   66.7050 C   0  0  0  0  0  0  0  0  0  0  0  0
  129.4960  124.9770   67.8480 O   0  0  0  0  0  0  0  0  0  0  0  0
  129.2700  126.6610   66.3490 N   0  0  0  0  0  0  0  0  0  0  0  0
  128.7070  127.6660   67.2490 C   0  0  0  0  0  0  0  0  0  0  0  0
  127.5750  128.4740   66.6240 C   0  0  0  0  0  0  0  0  0  0  0  0
  127.8700  129.6190   65.8780 C   0  0  0  0  0  0  0  0  0  0  0  0
  126.8410  130.3420   65.2790 C   0  0  0  0  0  0  0  0  0  0  0  0
  125.5240  129.9120   65.4200 C   0  0  0  0  0  0  0  0  0  0  0  0
  125.2250  128.7630   66.1490 C   0  0  0  0  0  0  0  0  0  0  0  0
  126.2530  128.0380   66.7460 C   0  0  0  0  0  0  0  0  0  0  0  0
  129.5230  122.9960   65.3080 S   0  0  0  0  0  0  0  0  0  0  0  0
  130.6330  122.7500   63.9800 C   0  0  0  0  0  0  0  0  0  0  0  0
  130.6170  121.6310   63.2610 N   0  0  0  0  0  0  0  0  0  0  0  0
  131.5140  121.5300   62.2460 C   0  0  0  0  0  0  0  0  0  0  0  0
  131.4720  120.2540   61.4540 C   0  0  0  0  0  0  0  0  0  0  0  0
  130.3510  119.4100   61.5060 C   0  0  0  0  0  0  0  0  0  0  0  0
  130.3070  118.2260   60.7760 C   0  0  0  0  0  0  0  0  0  0  0  0
  131.3900  117.8660   59.9800 C   0  0  0  0  0  0  0  0  0  0  0  0
  132.5140  118.6820   59.9110 C   0  0  0  0  0  0  0  0  0  0  0  0
  132.5530  119.8640   60.6440 C   0  0  0  0  0  0  0  0  0  0  0  0
  132.4350  122.5480   61.9700 C   0  0  0  0  0  0  0  0  0  0  0  0
  132.4600  123.7320   62.7230 C   0  0  0  0  0  0  0  0  0  0  0  0
  133.4950  124.8060   62.3680 C   0  0  0  0  0  0  0  0  0  0  0  0
  134.3370  125.0730   63.3690 F   0  0  0  0  0  0  0  0  0  0  0  0
  134.2260  124.4020   61.3280 F   0  0  0  0  0  0  0  0  0  0  0  0
  132.8760  125.9430   62.0550 F   0  0  0  0  0  0  0  0  0  0  0  0
  131.5140  123.8540   63.7810 C   0  0  0  0  0  0  0  0  0  0  0  0
  1  2  1  0
  2  3  2  0
  3  4  1  0
  4  5  2  0
  4  6  1  0
  6  7  1  0
  7  8  1  0
  8  9  2  0
  9 10  1  0
 10 11  2  0
 11 12  1  0
 12 13  2  0
  3 14  1  0
 14 15  1  0
 15 16  2  0
 16 17  1  0
 17 18  1  0
 18 19  2  0
 19 20  1  0
 20 21  2  0
 21 22  1  0
 22 23  2  0
 17 24  2  0
 24 25  1  0
 25 26  1  0
 26 27  1  0
 26 28  1  0
 26 29  1  0
 25 30  2  0
 30  2  1  0
 13  8  1  0
 30 15  1  0
 23 18  1  0
M  END
>  <Binding energies>  (56) 
[-7.84]

>  <Ligand effiencies>  (56) 
[-0.23757575757575758]

>  <Interactions>  (56) 
["V-A:ILE:369:CG2:3236, V-B:TYR:539:CD2:9846, V-A:PRO:482:CG:4326, V-A:PRO:482:CB:4325, V-A:LEU:475:CD1:4257, V-B:TYR:539:C:9839, V-B:ALA:541:CB:9864, V-B:GLU:543:CD:9880, V-A:ARG:545:CZ:4926, V-A:GLY:453:CA:4043, V-B:GLU:543:CB:9878, V-A:GLY:453:C:4041, V-B:HIS:456:CE1:9041, V-B:ARG:545:CZ:9898, V-A:HIS:383:CE1:3392, H-A:TYR:484:OH:4347, H-A:GLU:543:OE1:4909, V-B:GLU:543:CG:9879, V-A:GLU:543:CD:4908, V-A:GLU:543:CG:4907, V-A:ASP:366:CG:3212, H-B:GLU:543:OE2:9882, V-A:ILE:369:CD1:3238, V-A:TYR:484:CE2:4345, V-A:ASP:366:CB:3211, V-A:ASP:366:CA:3209, V-A:TYR:484:CZ:4346, H-A:GLU:543:OE2:4910, V-B:TYR:539:CB:9843, V-A:HIS:383:CD2:3391, V-B:ARG:545:CD:9895, V-B:ARG:545:CG:9894"]

$$$$
4ch_Grossjean_2025
     RDKit          3D

 36 39  0  0  0  0  0  0  0  0999 V2000
  132.7520  126.9130   75.3330 C   0  0  0  0  0  0  0  0  0  0  0  0
  131.3650  127.2350   75.3410 O   0  0  0  0  0  0  0  0  0  0  0  0
  130.5750  126.8580   74.2710 C   0  0  0  0  0  0  0  0  0  0  0  0
  130.2740  127.6960   73.1850 C   0  0  0  0  0  0  0  0  0  0  0  0
  129.4700  127.2480   72.1360 C   0  0  0  0  0  0  0  0  0  0  0  0
  129.1310  128.1810   70.9800 C   0  0  0  0  0  0  0  0  0  0  0  0
  129.4850  127.6560   69.6600 N   0  0  0  0  0  0  0  0  0  0  0  0
  128.7310  126.8150   68.9230 C   0  0  0  0  0  0  0  0  0  0  0  0
  127.6230  126.4190   69.2940 O   0  0  0  0  0  0  0  0  0  0  0  0
  129.2870  126.4220   67.6280 C   0  0  0  0  0  0  0  0  0  0  0  0
  130.6470  125.3050   67.5540 S   0  0  0  0  0  0  0  0  0  0  0  0
  130.6490  125.3550   65.8080 C   0  0  0  0  0  0  0  0  0  0  0  0
  131.5300  124.6600   65.0940 N   0  0  0  0  0  0  0  0  0  0  0  0
  131.4510  124.7570   63.7410 C   0  0  0  0  0  0  0  0  0  0  0  0
  132.4650  123.9650   62.9650 C   0  0  0  0  0  0  0  0  0  0  0  0
  133.4420  124.6120   62.1900 C   0  0  0  0  0  0  0  0  0  0  0  0
  134.3840  123.8840   61.4670 C   0  0  0  0  0  0  0  0  0  0  0  0
  134.3620  122.4940   61.5090 C   0  0  0  0  0  0  0  0  0  0  0  0
  133.4030  121.8280   62.2660 C   0  0  0  0  0  0  0  0  0  0  0  0
  132.4610  122.5600   62.9850 C   0  0  0  0  0  0  0  0  0  0  0  0
  130.4980  125.5640   63.1130 C   0  0  0  0  0  0  0  0  0  0  0  0
  129.5630  126.3040   63.8560 C   0  0  0  0  0  0  0  0  0  0  0  0
  128.5460  127.1690   63.1040 C   0  0  0  0  0  0  0  0  0  0  0  0
  128.2960  128.3310   63.7120 F   0  0  0  0  0  0  0  0  0  0  0  0
  129.0030  127.4460   61.8840 F   0  0  0  0  0  0  0  0  0  0  0  0
  127.3880  126.5160   63.0010 F   0  0  0  0  0  0  0  0  0  0  0  0
  129.6290  126.1990   65.2750 C   0  0  0  0  0  0  0  0  0  0  0  0
  128.8580  126.7880   66.3430 C   0  0  0  0  0  0  0  0  0  0  0  0
  127.8040  127.6370   66.1180 N   0  0  0  0  0  0  0  0  0  0  0  0
  128.9440  125.9560   72.1750 C   0  0  0  0  0  0  0  0  0  0  0  0
  129.2280  125.0960   73.2490 C   0  0  0  0  0  0  0  0  0  0  0  0
  128.7430  123.8050   73.3530 O   0  0  0  0  0  0  0  0  0  0  0  0
  129.4510  122.7410   72.7250 C   0  0  0  0  0  0  0  0  0  0  0  0
  130.0500  125.5580   74.2880 C   0  0  0  0  0  0  0  0  0  0  0  0
  130.3230  124.7330   75.3520 O   0  0  0  0  0  0  0  0  0  0  0  0
  131.4480  123.8880   75.1550 C   0  0  0  0  0  0  0  0  0  0  0  0
  1  2  1  0
  2  3  1  0
  3  4  2  0
  4  5  1  0
  5  6  1  0
  6  7  1  0
  7  8  1  0
  8  9  2  0
  8 10  1  0
 10 11  1  0
 11 12  1  0
 12 13  2  0
 13 14  1  0
 14 15  1  0
 15 16  2  0
 16 17  1  0
 17 18  2  0
 18 19  1  0
 19 20  2  0
 14 21  2  0
 21 22  1  0
 22 23  1  0
 23 24  1  0
 23 25  1  0
 23 26  1  0
 22 27  2  0
 27 28  1  0
 28 29  1  0
  5 30  2  0
 30 31  1  0
 31 32  1  0
 32 33  1  0
 31 34  2  0
 34 35  1  0
 35 36  1  0
 34  3  1  0
 28 10  2  0
 27 12  1  0
 20 15  1  0
M  END
>  <Binding energies>  (57) 
[-6.47]

>  <Ligand effiencies>  (57) 
[-0.16589743589743589]

>  <Interactions>  (57) 
["V-A:ILE:369:CG2:3236, V-A:LEU:475:CD1:4257, V-B:GLU:543:CD:9880, V-B:GLU:543:CB:9878, V-A:HIS:456:CE1:4069, V-B:HIS:456:CE1:9041, V-A:GLY:454:CA:4048, H-A:TYR:484:OH:4347, H-A:GLU:543:OE1:4909, V-A:GLU:543:CD:4908, V-A:ASP:366:CG:3212, H-B:GLU:543:OE2:9882, V-A:ILE:369:CD1:3238, V-B:HIS:456:CD2:9039, V-A:TYR:484:CE2:4345, V-A:LYS:547:CE:4950, V-A:TYR:484:CZ:4346, V-A:TYR:484:CB:4340, V-A:LYS:547:CD:4949, V-A:TYR:484:CG:4341, V-A:TYR:484:CD2:4343, V-A:HIS:456:CB:4064, V-A:HIS:456:CD2:4067, H-B:LYS:547:NZ:9923, H-A:GLU:543:O:4903, H-A:LYS:547:NZ:4951"]

$$$$
4cj_Grossjean_2025
     RDKit          3D

 28 31  0  0  0  0  0  0  0  0999 V2000
  131.2970  122.7410   64.0910 N   0  0  0  0  0  0  0  0  0  0  0  0
  130.2810  123.4880   63.5510 C   0  0  0  0  0  0  0  0  0  0  0  0
  129.8060  124.6750   64.1320 C   0  0  0  0  0  0  0  0  0  0  0  0
  130.2630  125.3400   65.3550 C   0  0  0  0  0  0  0  0  0  0  0  0
  131.4500  125.3020   65.6880 O   0  0  0  0  0  0  0  0  0  0  0  0
  129.2990  125.9720   66.0690 N   0  0  0  0  0  0  0  0  0  0  0  0
  129.4660  126.6720   67.2560 C   0  0  0  0  0  0  0  0  0  0  0  0
  130.4630  127.4610   67.5950 N   0  0  0  0  0  0  0  0  0  0  0  0
  130.2930  127.9670   68.8000 C   0  0  0  0  0  0  0  0  0  0  0  0
  129.1320  127.5890   69.4690 C   0  0  0  0  0  0  0  0  0  0  0  0
  128.2200  126.5120   68.4530 S   0  0  0  0  0  0  0  0  0  0  0  0
  128.5090  125.3810   63.1700 S   0  0  0  0  0  0  0  0  0  0  0  0
  128.6100  124.0840   62.0030 C   0  0  0  0  0  0  0  0  0  0  0  0
  127.8150  124.0470   60.9360 N   0  0  0  0  0  0  0  0  0  0  0  0
  127.9710  123.0050   60.0800 C   0  0  0  0  0  0  0  0  0  0  0  0
  127.0680  123.0010   58.8800 C   0  0  0  0  0  0  0  0  0  0  0  0
  127.3660  122.2090   57.7590 C   0  0  0  0  0  0  0  0  0  0  0  0
  126.5370  122.2050   56.6400 C   0  0  0  0  0  0  0  0  0  0  0  0
  125.3940  122.9980   56.6260 C   0  0  0  0  0  0  0  0  0  0  0  0
  125.0760  123.7930   57.7220 C   0  0  0  0  0  0  0  0  0  0  0  0
  125.9080  123.7930   58.8380 C   0  0  0  0  0  0  0  0  0  0  0  0
  128.9070  121.9910   60.3130 C   0  0  0  0  0  0  0  0  0  0  0  0
  129.7480  122.0190   61.4360 C   0  0  0  0  0  0  0  0  0  0  0  0
  130.7540  120.8770   61.6280 C   0  0  0  0  0  0  0  0  0  0  0  0
  132.0230  121.2730   61.5180 F   0  0  0  0  0  0  0  0  0  0  0  0
  130.6050  120.3470   62.8420 F   0  0  0  0  0  0  0  0  0  0  0  0
  130.5480  119.9350   60.7080 F   0  0  0  0  0  0  0  0  0  0  0  0
  129.6060  123.1180   62.3300 C   0  0  0  0  0  0  0  0  0  0  0  0
  1  2  1  0
  2  3  2  0
  3  4  1  0
  4  5  2  0
  4  6  1  0
  6  7  1  0
  7  8  2  0
  8  9  1  0
  9 10  2  0
 10 11  1  0
  3 12  1  0
 12 13  1  0
 13 14  2  0
 14 15  1  0
 15 16  1  0
 16 17  2  0
 17 18  1  0
 18 19  2  0
 19 20  1  0
 20 21  2  0
 15 22  2  0
 22 23  1  0
 23 24  1  0
 24 25  1  0
 24 26  1  0
 24 27  1  0
 23 28  2  0
 28  2  1  0
 11  7  1  0
 28 13  1  0
 21 16  1  0
M  END
>  <Binding energies>  (58) 
[-6.82]

>  <Ligand effiencies>  (58) 
[-0.22]

>  <Interactions>  (58) 
["V-B:PRO:540:CB:9857, V-B:PRO:540:N:9856, V-B:TYR:539:CD2:9846, V-B:PRO:540:CA:9855, V-B:MET:535:CE:9807, V-A:LEU:475:CD1:4257, V-B:TYR:539:C:9839, V-B:ALA:541:CB:9864, V-B:GLU:543:CD:9880, V-B:GLU:543:CB:9878, V-A:GLU:543:CB:4906, V-A:HIS:456:CE1:4069, V-B:HIS:456:CE1:9041, H-A:TYR:484:OH:4347, V-A:GLU:543:C:4902, H-A:GLU:543:OE1:4909, V-B:GLU:543:CG:9879, H-B:GLU:543:OE2:9882, V-A:TYR:484:CZ:4346, V-B:PRO:540:CD:9859, V-B:TYR:531:CE2:9765, V-B:LEU:363:CD1:8160"]

$$$$
4ck_Grossjean_2025
     RDKit          3D

 33 35  0  0  0  0  0  0  0  0999 V2000
  130.4550  121.9830   73.8780 C   0  0  0  0  0  0  0  0  0  0  0  0
  129.1550  122.3810   73.4710 O   0  0  0  0  0  0  0  0  0  0  0  0
  129.1290  123.6410   72.8160 C   0  0  0  0  0  0  0  0  0  0  0  0
  129.8060  124.6860   73.7130 C   0  0  0  0  0  0  0  0  0  0  0  0
  129.6740  125.9670   73.1140 O   0  0  0  0  0  0  0  0  0  0  0  0
  128.7810  125.9870   72.0080 C   0  0  0  0  0  0  0  0  0  0  0  0
  129.1210  127.1820   71.1080 C   0  0  0  0  0  0  0  0  0  0  0  0
  128.9010  126.8130   69.7540 O   0  0  0  0  0  0  0  0  0  0  0  0
  129.6060  127.6170   68.8170 C   0  0  0  0  0  0  0  0  0  0  0  0
  128.8600  127.6150   67.4730 C   0  0  0  0  0  0  0  0  0  0  0  0
  129.3940  126.6140   66.5500 N   0  0  0  0  0  0  0  0  0  0  0  0
  129.5830  125.3070   66.8250 C   0  0  0  0  0  0  0  0  0  0  0  0
  129.2900  124.8060   67.9120 O   0  0  0  0  0  0  0  0  0  0  0  0
  130.1540  124.5020   65.7440 C   0  0  0  0  0  0  0  0  0  0  0  0
  129.5010  122.9040   65.3920 S   0  0  0  0  0  0  0  0  0  0  0  0
  130.6100  122.6980   64.0570 C   0  0  0  0  0  0  0  0  0  0  0  0
  130.6120  121.5910   63.3200 N   0  0  0  0  0  0  0  0  0  0  0  0
  131.5110  121.5200   62.3030 C   0  0  0  0  0  0  0  0  0  0  0  0
  131.4750  120.2660   61.4790 C   0  0  0  0  0  0  0  0  0  0  0  0
  130.3910  119.3770   61.5690 C   0  0  0  0  0  0  0  0  0  0  0  0
  130.3530  118.2100   60.8090 C   0  0  0  0  0  0  0  0  0  0  0  0
  131.4010  117.9150   59.9450 C   0  0  0  0  0  0  0  0  0  0  0  0
  132.4850  118.7800   59.8330 C   0  0  0  0  0  0  0  0  0  0  0  0
  132.5190  119.9460   60.5940 C   0  0  0  0  0  0  0  0  0  0  0  0
  132.3970  122.5670   62.0270 C   0  0  0  0  0  0  0  0  0  0  0  0
  132.4050  123.7390   62.7990 C   0  0  0  0  0  0  0  0  0  0  0  0
  133.4060  124.8450   62.4440 C   0  0  0  0  0  0  0  0  0  0  0  0
  132.8220  126.0160   62.1840 F   0  0  0  0  0  0  0  0  0  0  0  0
  134.2470  125.0350   63.4600 F   0  0  0  0  0  0  0  0  0  0  0  0
  134.0980  124.4940   61.3600 F   0  0  0  0  0  0  0  0  0  0  0  0
  131.4680  123.8220   63.8690 C   0  0  0  0  0  0  0  0  0  0  0  0
  131.1780  124.8440   64.8460 C   0  0  0  0  0  0  0  0  0  0  0  0
  131.8480  126.0390   64.8930 N   0  0  0  0  0  0  0  0  0  0  0  0
  1  2  1  0
  2  3  1  0
  3  4  1  0
  4  5  1  0
  5  6  1  0
  6  7  1  0
  7  8  1  0
  8  9  1  0
  9 10  1  0
 10 11  1  0
 11 12  1  0
 12 13  2  0
 12 14  1  0
 14 15  1  0
 15 16  1  0
 16 17  2  0
 17 18  1  0
 18 19  1  0
 19 20  2  0
 20 21  1  0
 21 22  2  0
 22 23  1  0
 23 24  2  0
 18 25  2  0
 25 26  1  0
 26 27  1  0
 27 28  1  0
 27 29  1  0
 27 30  1  0
 26 31  2  0
 31 32  1  0
 32 33  1  0
 32 14  2  0
 31 16  1  0
 24 19  1  0
M  END
>  <Binding energies>  (59) 
[-6.62]

>  <Ligand effiencies>  (59) 
[-0.18388888888888888]

>  <Interactions>  (59) 
["V-A:ILE:369:CG2:3236, V-B:TYR:539:CE2:9848, V-B:TYR:539:CD2:9846, V-A:PRO:482:CG:4326, V-A:PRO:482:CB:4325, V-A:LEU:475:CD1:4257, V-B:TYR:539:C:9839, V-B:ALA:541:CB:9864, V-B:GLU:543:CD:9880, V-A:ARG:545:CZ:4926, V-A:GLY:453:CA:4043, V-B:GLU:543:CB:9878, V-A:GLY:453:C:4041, V-A:GLU:543:CB:4906, V-A:HIS:456:CE1:4069, V-B:HIS:456:CE1:9041, V-A:HIS:383:CE1:3392, H-A:TYR:484:OH:4347, H-A:GLU:543:OE1:4909, V-B:GLU:543:CG:9879, V-A:GLU:543:CD:4908, V-A:ASP:366:CG:3212, H-B:GLU:543:OE2:9882, V-B:GLU:543:C:9874, V-B:HIS:456:CD2:9039, V-A:TYR:484:CE2:4345, V-A:ASP:366:CB:3211, V-A:ASP:366:CA:3209, V-A:TYR:484:CZ:4346, H-A:GLU:543:OE2:4910, V-B:TYR:539:CB:9843, V-A:HIS:383:CD2:3391, V-A:TYR:484:CB:4340, V-A:TYR:484:CG:4341, V-A:HIS:456:CD2:4067, H-B:LYS:547:NZ:9923"]

$$$$
4dd_Grossjean_2025
     RDKit          3D

 26 29  0  0  0  0  0  0  0  0999 V2000
  130.6260  120.6730   62.1030 C   0  0  0  0  0  0  0  0  0  0  0  0
  129.7060  121.8410   61.7810 C   0  0  0  0  0  0  0  0  0  0  0  0
  128.9490  121.7790   60.6040 C   0  0  0  0  0  0  0  0  0  0  0  0
  128.0830  122.8210   60.2500 C   0  0  0  0  0  0  0  0  0  0  0  0
  127.2650  122.7850   58.9930 C   0  0  0  0  0  0  0  0  0  0  0  0
  126.0670  123.5100   58.8930 C   0  0  0  0  0  0  0  0  0  0  0  0
  125.3040  123.4830   57.7280 C   0  0  0  0  0  0  0  0  0  0  0  0
  125.7310  122.7260   56.6430 C   0  0  0  0  0  0  0  0  0  0  0  0
  126.9140  121.9990   56.7130 C   0  0  0  0  0  0  0  0  0  0  0  0
  127.6750  122.0300   57.8800 C   0  0  0  0  0  0  0  0  0  0  0  0
  127.9470  123.9350   61.0200 N   0  0  0  0  0  0  0  0  0  0  0  0
  128.6610  123.9920   62.1440 C   0  0  0  0  0  0  0  0  0  0  0  0
  128.5680  125.3560   63.2350 S   0  0  0  0  0  0  0  0  0  0  0  0
  129.7360  124.6170   64.3330 C   0  0  0  0  0  0  0  0  0  0  0  0
  130.1240  125.2990   65.5690 C   0  0  0  0  0  0  0  0  0  0  0  0
  131.3100  125.3830   65.8930 O   0  0  0  0  0  0  0  0  0  0  0  0
  129.1020  125.8160   66.2930 N   0  0  0  0  0  0  0  0  0  0  0  0
  129.1270  126.4740   67.5360 C   0  0  0  0  0  0  0  0  0  0  0  0
  128.7710  125.7000   68.6450 C   0  0  0  0  0  0  0  0  0  0  0  0
  128.7790  126.2560   69.9210 C   0  0  0  0  0  0  0  0  0  0  0  0
  129.1500  127.5870   70.0910 C   0  0  0  0  0  0  0  0  0  0  0  0
  129.5180  128.3660   68.9980 C   0  0  0  0  0  0  0  0  0  0  0  0
  129.5120  127.8130   67.7200 C   0  0  0  0  0  0  0  0  0  0  0  0
  130.1660  123.3720   63.8490 C   0  0  0  0  0  0  0  0  0  0  0  0
  131.0780  122.5750   64.4970 N   0  0  0  0  0  0  0  0  0  0  0  0
  129.5630  122.9900   62.6000 C   0  0  0  0  0  0  0  0  0  0  0  0
  1  2  1  0
  2  3  2  0
  3  4  1  0
  4  5  1  0
  5  6  2  0
  6  7  1  0
  7  8  2  0
  8  9  1  0
  9 10  2  0
  4 11  2  0
 11 12  1  0
 12 13  1  0
 13 14  1  0
 14 15  1  0
 15 16  2  0
 15 17  1  0
 17 18  1  0
 18 19  2  0
 19 20  1  0
 20 21  2  0
 21 22  1  0
 22 23  2  0
 14 24  2  0
 24 25  1  0
 24 26  1  0
 26  2  1  0
 10  5  1  0
 26 12  2  0
 23 18  1  0
M  END
>  <Binding energies>  (60) 
[-7.91]

>  <Ligand effiencies>  (60) 
[-0.2727586206896552]

>  <Interactions>  (60) 
["V-B:PRO:540:CB:9857, V-B:PRO:540:N:9856, V-B:TYR:539:CD2:9846, V-B:PRO:540:CA:9855, V-B:PRO:540:C:9853, V-B:MET:535:CE:9807, V-A:LEU:475:CD1:4257, V-B:TYR:539:C:9839, V-B:ALA:541:CB:9864, V-B:GLU:543:CD:9880, V-B:GLU:543:CB:9878, V-A:GLU:543:CB:4906, V-A:HIS:456:CE1:4069, V-B:HIS:456:CE1:9041, H-A:TYR:484:OH:4347, V-A:GLU:543:C:4902, V-B:GLU:543:CG:9879, V-A:GLU:543:CD:4908, H-B:GLU:543:OE2:9882, V-B:GLU:543:C:9874, V-A:TYR:484:CE2:4345, V-B:GLU:543:CA:9876, V-A:TYR:484:CZ:4346, V-B:TYR:539:CA:9841, V-B:PRO:540:CD:9859, V-B:TYR:531:CE2:9765, V-B:LEU:363:CD1:8160, H-B:GLU:543:OE1:9881"]

$$$$
4dg_Grossjean_2025
     RDKit          3D

 27 30  0  0  0  0  0  0  0  0999 V2000
  133.9100  125.0030   62.9940 C   0  0  0  0  0  0  0  0  0  0  0  0
  132.7980  123.9760   63.1440 C   0  0  0  0  0  0  0  0  0  0  0  0
  132.8400  122.8350   62.3340 C   0  0  0  0  0  0  0  0  0  0  0  0
  131.8460  121.8520   62.4230 C   0  0  0  0  0  0  0  0  0  0  0  0
  131.8650  120.6160   61.5680 C   0  0  0  0  0  0  0  0  0  0  0  0
  130.7500  119.7640   61.5090 C   0  0  0  0  0  0  0  0  0  0  0  0
  130.7640  118.6150   60.7210 C   0  0  0  0  0  0  0  0  0  0  0  0
  131.8960  118.3010   59.9790 C   0  0  0  0  0  0  0  0  0  0  0  0
  133.0170  119.1250   60.0220 C   0  0  0  0  0  0  0  0  0  0  0  0
  132.9990  120.2710   60.8110 C   0  0  0  0  0  0  0  0  0  0  0  0
  130.8150  121.9510   63.3060 N   0  0  0  0  0  0  0  0  0  0  0  0
  130.7740  123.0370   64.0770 C   0  0  0  0  0  0  0  0  0  0  0  0
  129.5010  123.2930   65.2480 S   0  0  0  0  0  0  0  0  0  0  0  0
  130.2090  124.8290   65.7460 C   0  0  0  0  0  0  0  0  0  0  0  0
  129.5480  125.6480   66.7610 C   0  0  0  0  0  0  0  0  0  0  0  0
  129.3670  125.2300   67.9060 O   0  0  0  0  0  0  0  0  0  0  0  0
  129.1210  126.8620   66.3520 N   0  0  0  0  0  0  0  0  0  0  0  0
  128.4570  127.8540   67.1970 C   0  0  0  0  0  0  0  0  0  0  0  0
  127.3380  128.6050   66.4830 C   0  0  0  0  0  0  0  0  0  0  0  0
  126.0050  128.2810   66.7500 C   0  0  0  0  0  0  0  0  0  0  0  0
  124.9800  128.9860   66.1240 C   0  0  0  0  0  0  0  0  0  0  0  0
  125.2920  130.0190   65.2430 C   0  0  0  0  0  0  0  0  0  0  0  0
  126.6180  130.3580   64.9850 C   0  0  0  0  0  0  0  0  0  0  0  0
  127.6430  129.6540   65.6120 C   0  0  0  0  0  0  0  0  0  0  0  0
  131.3700  125.1180   65.0130 C   0  0  0  0  0  0  0  0  0  0  0  0
  132.1170  126.2550   65.1830 N   0  0  0  0  0  0  0  0  0  0  0  0
  131.7210  124.1000   64.0590 C   0  0  0  0  0  0  0  0  0  0  0  0
  1  2  1  0
  2  3  2  0
  3  4  1  0
  4  5  1  0
  5  6  2  0
  6  7  1  0
  7  8  2  0
  8  9  1  0
  9 10  2  0
  4 11  2  0
 11 12  1  0
 12 13  1  0
 13 14  1  0
 14 15  1  0
 15 16  2  0
 15 17  1  0
 17 18  1  0
 18 19  1  0
 19 20  2  0
 20 21  1  0
 21 22  2  0
 22 23  1  0
 23 24  2  0
 14 25  2  0
 25 26  1  0
 25 27  1  0
 27  2  1  0
 10  5  1  0
 27 12  2  0
 24 19  1  0
M  END
>  <Binding energies>  (61) 
[-8.23]

>  <Ligand effiencies>  (61) 
[-0.2743333333333334]

>  <Interactions>  (61) 
["V-A:ILE:369:CG2:3236, V-B:TYR:539:CD2:9846, V-A:PRO:482:CG:4326, V-A:LEU:475:CD1:4257, V-B:ALA:541:CB:9864, V-B:GLU:543:CD:9880, V-A:ARG:545:CZ:4926, V-A:GLY:453:CA:4043, V-B:GLU:543:CB:9878, V-B:HIS:456:CE1:9041, V-B:ARG:545:CZ:9898, H-A:TYR:484:OH:4347, H-A:GLU:543:OE1:4909, V-B:GLU:543:CG:9879, V-A:GLU:543:CD:4908, V-A:GLU:543:CG:4907, V-A:ASP:366:CG:3212, H-B:GLU:543:OE2:9882, V-A:TYR:484:CE2:4345, V-A:TYR:484:CZ:4346, H-A:GLU:543:OE2:4910, V-A:HIS:383:CD2:3391, V-B:ARG:545:CD:9895, V-B:ARG:545:CG:9894"]

$$$$
4dj_Grossjean_2025
     RDKit          3D

 25 28  0  0  0  0  0  0  0  0999 V2000
  130.6280  120.6390   62.1230 C   0  0  0  0  0  0  0  0  0  0  0  0
  129.7400  121.8300   61.7970 C   0  0  0  0  0  0  0  0  0  0  0  0
  128.9750  121.7820   60.6260 C   0  0  0  0  0  0  0  0  0  0  0  0
  128.1390  122.8460   60.2680 C   0  0  0  0  0  0  0  0  0  0  0  0
  127.3030  122.8200   59.0200 C   0  0  0  0  0  0  0  0  0  0  0  0
  126.1010  123.5440   58.9430 C   0  0  0  0  0  0  0  0  0  0  0  0
  125.3220  123.5240   57.7890 C   0  0  0  0  0  0  0  0  0  0  0  0
  125.7330  122.7740   56.6920 C   0  0  0  0  0  0  0  0  0  0  0  0
  126.9160  122.0450   56.7420 C   0  0  0  0  0  0  0  0  0  0  0  0
  127.6920  122.0680   57.8970 C   0  0  0  0  0  0  0  0  0  0  0  0
  128.0190  123.9570   61.0440 N   0  0  0  0  0  0  0  0  0  0  0  0
  128.7460  124.0050   62.1590 C   0  0  0  0  0  0  0  0  0  0  0  0
  128.6940  125.3760   63.2440 S   0  0  0  0  0  0  0  0  0  0  0  0
  129.8600  124.6200   64.3320 C   0  0  0  0  0  0  0  0  0  0  0  0
  130.2960  125.3120   65.5460 C   0  0  0  0  0  0  0  0  0  0  0  0
  131.4910  125.3580   65.8500 O   0  0  0  0  0  0  0  0  0  0  0  0
  129.3080  125.8700   66.2870 N   0  0  0  0  0  0  0  0  0  0  0  0
  129.4510  126.5740   67.4740 C   0  0  0  0  0  0  0  0  0  0  0  0
  130.3170  127.5260   67.7490 N   0  0  0  0  0  0  0  0  0  0  0  0
  130.1680  127.9760   68.9800 C   0  0  0  0  0  0  0  0  0  0  0  0
  129.1580  127.3850   69.7330 C   0  0  0  0  0  0  0  0  0  0  0  0
  128.3680  126.1750   68.7680 S   0  0  0  0  0  0  0  0  0  0  0  0
  130.2580  123.3630   63.8510 C   0  0  0  0  0  0  0  0  0  0  0  0
  131.1600  122.5510   64.4930 N   0  0  0  0  0  0  0  0  0  0  0  0
  129.6340  122.9870   62.6120 C   0  0  0  0  0  0  0  0  0  0  0  0
  1  2  1  0
  2  3  2  0
  3  4  1  0
  4  5  1  0
  5  6  2  0
  6  7  1  0
  7  8  2  0
  8  9  1  0
  9 10  2  0
  4 11  2  0
 11 12  1  0
 12 13  1  0
 13 14  1  0
 14 15  1  0
 15 16  2  0
 15 17  1  0
 17 18  1  0
 18 19  2  0
 19 20  1  0
 20 21  2  0
 21 22  1  0
 14 23  2  0
 23 24  1  0
 23 25  1  0
 25  2  1  0
 10  5  1  0
 25 12  2  0
 22 18  1  0
M  END
>  <Binding energies>  (62) 
[-7.33]

>  <Ligand effiencies>  (62) 
[-0.2617857142857143]

>  <Interactions>  (62) 
["V-B:PRO:540:CB:9857, V-B:PRO:540:N:9856, V-B:TYR:539:CD2:9846, V-B:PRO:540:CA:9855, V-B:PRO:540:C:9853, V-B:MET:535:CE:9807, V-A:LEU:475:CD1:4257, V-B:TYR:539:C:9839, V-B:ALA:541:CB:9864, V-B:GLU:543:CD:9880, V-B:GLU:543:CB:9878, V-A:GLU:543:CB:4906, V-A:HIS:456:CE1:4069, V-B:HIS:456:CE1:9041, H-A:TYR:484:OH:4347, V-A:GLU:543:C:4902, V-B:GLU:543:CG:9879, H-B:GLU:543:OE2:9882, V-B:GLU:543:C:9874, V-A:TYR:484:CE2:4345, V-A:TYR:484:CZ:4346, V-B:TYR:539:CA:9841, V-B:PRO:540:CD:9859, V-B:TYR:531:CE2:9765, V-B:LEU:363:CD1:8160"]

$$$$
4ea_Grossjean_2025
     RDKit          3D

 31 34  0  0  0  0  0  0  0  0999 V2000
  130.6110  117.2290   60.1300 C   0  0  0  0  0  0  0  0  0  0  0  0
  131.6900  118.2540   59.7660 C   0  0  0  0  0  0  0  0  0  0  0  0
  132.6670  118.2960   60.7970 O   0  0  0  0  0  0  0  0  0  0  0  0
  133.4340  119.4000   60.9930 C   0  0  0  0  0  0  0  0  0  0  0  0
  134.5700  119.5290   60.5270 O   0  0  0  0  0  0  0  0  0  0  0  0
  132.7620  120.4470   61.8330 C   0  0  0  0  0  0  0  0  0  0  0  0
  133.5480  121.3090   62.6080 C   0  0  0  0  0  0  0  0  0  0  0  0
  132.9550  122.2910   63.3980 C   0  0  0  0  0  0  0  0  0  0  0  0
  131.5680  122.4320   63.4280 C   0  0  0  0  0  0  0  0  0  0  0  0
  131.0810  123.4580   64.2620 N   0  0  0  0  0  0  0  0  0  0  0  0
  130.4170  124.5990   63.9530 C   0  0  0  0  0  0  0  0  0  0  0  0
  130.1160  124.9390   62.8080 O   0  0  0  0  0  0  0  0  0  0  0  0
  130.0620  125.4430   65.0970 C   0  0  0  0  0  0  0  0  0  0  0  0
  130.8680  125.2250   66.6530 S   0  0  0  0  0  0  0  0  0  0  0  0
  129.9310  126.5120   67.3740 C   0  0  0  0  0  0  0  0  0  0  0  0
  130.0870  126.8690   68.6500 N   0  0  0  0  0  0  0  0  0  0  0  0
  129.2990  127.8810   69.0870 C   0  0  0  0  0  0  0  0  0  0  0  0
  129.4930  128.2700   70.5410 C   0  0  0  0  0  0  0  0  0  0  0  0
  128.3680  128.5400   68.2860 C   0  0  0  0  0  0  0  0  0  0  0  0
  128.2080  128.1630   66.9490 C   0  0  0  0  0  0  0  0  0  0  0  0
  127.2150  128.8720   66.1110 C   0  0  0  0  0  0  0  0  0  0  0  0
  125.8490  128.6220   66.2750 C   0  0  0  0  0  0  0  0  0  0  0  0
  124.9140  129.2900   65.4890 C   0  0  0  0  0  0  0  0  0  0  0  0
  125.3460  130.2070   64.5340 C   0  0  0  0  0  0  0  0  0  0  0  0
  126.7040  130.4610   64.3590 C   0  0  0  0  0  0  0  0  0  0  0  0
  127.6380  129.7920   65.1460 C   0  0  0  0  0  0  0  0  0  0  0  0
  129.0160  127.1040   66.4510 C   0  0  0  0  0  0  0  0  0  0  0  0
  129.1120  126.4750   65.1600 C   0  0  0  0  0  0  0  0  0  0  0  0
  128.3360  126.8630   64.0980 N   0  0  0  0  0  0  0  0  0  0  0  0
  130.7720  121.5720   62.6550 C   0  0  0  0  0  0  0  0  0  0  0  0
  131.3660  120.5920   61.8660 C   0  0  0  0  0  0  0  0  0  0  0  0
  1  2  1  0
  2  3  1  0
  3  4  1  0
  4  5  2  0
  4  6  1  0
  6  7  2  0
  7  8  1  0
  8  9  2  0
  9 10  1  0
 10 11  1  0
 11 12  2  0
 11 13  1  0
 13 14  1  0
 14 15  1  0
 15 16  2  0
 16 17  1  0
 17 18  1  0
 17 19  2  0
 19 20  1  0
 20 21  1  0
 21 22  2  0
 22 23  1  0
 23 24  2  0
 24 25  1  0
 25 26  2  0
 20 27  2  0
 27 28  1  0
 28 29  1  0
  9 30  1  0
 30 31  2  0
 31  6  1  0
 28 13  2  0
 27 15  1  0
 26 21  1  0
M  END
>  <Binding energies>  (63) 
[-7.31]

>  <Ligand effiencies>  (63) 
[-0.215]

>  <Interactions>  (63) 
["V-A:ILE:369:CG2:3236, V-B:TYR:539:CD2:9846, V-A:PRO:482:CG:4326, V-A:LEU:475:CD1:4257, V-A:SER:385:CA:3406, V-B:TYR:539:C:9839, V-B:ALA:541:CB:9864, V-B:GLU:543:CD:9880, V-A:GLU:543:CB:4906, V-A:HIS:456:CE1:4069, V-B:HIS:456:CE1:9041, V-B:ARG:545:CZ:9898, V-A:GLY:454:CA:4048, V-A:HIS:383:CE1:3392, H-A:TYR:484:OH:4347, V-A:GLU:543:C:4902, H-A:GLU:543:OE1:4909, V-A:GLU:543:CD:4908, V-A:GLU:543:CG:4907, H-B:GLU:543:OE2:9882, V-A:TYR:484:CE2:4345, V-A:TYR:484:CZ:4346, V-B:TYR:539:CB:9843, H-A:HIS:383:NE2:3393, H-A:SER:385:OG:3409"]

$$$$
4eb_Grossjean_2025
     RDKit          3D

 30 33  0  0  0  0  0  0  0  0999 V2000
  124.5640  124.5740   57.7310 C   0  0  0  0  0  0  0  0  0  0  0  0
  125.1450  123.6870   56.7870 O   0  0  0  0  0  0  0  0  0  0  0  0
  126.0210  122.7250   57.1790 C   0  0  0  0  0  0  0  0  0  0  0  0
  126.1210  121.6290   56.6210 O   0  0  0  0  0  0  0  0  0  0  0  0
  126.8550  123.1290   58.3610 C   0  0  0  0  0  0  0  0  0  0  0  0
  128.1870  123.5140   58.1570 C   0  0  0  0  0  0  0  0  0  0  0  0
  128.9860  123.8930   59.2320 C   0  0  0  0  0  0  0  0  0  0  0  0
  128.4730  123.8970   60.5290 C   0  0  0  0  0  0  0  0  0  0  0  0
  129.3720  124.2990   61.5370 N   0  0  0  0  0  0  0  0  0  0  0  0
  129.7980  125.5360   61.8900 C   0  0  0  0  0  0  0  0  0  0  0  0
  129.4370  126.5780   61.3410 O   0  0  0  0  0  0  0  0  0  0  0  0
  130.7500  125.5750   63.0030 C   0  0  0  0  0  0  0  0  0  0  0  0
  132.4580  125.2250   62.7290 S   0  0  0  0  0  0  0  0  0  0  0  0
  132.8300  125.4720   64.4200 C   0  0  0  0  0  0  0  0  0  0  0  0
  134.0700  125.3430   64.8950 N   0  0  0  0  0  0  0  0  0  0  0  0
  134.2250  125.5610   66.2230 C   0  0  0  0  0  0  0  0  0  0  0  0
  135.6430  125.4090   66.7430 C   0  0  0  0  0  0  0  0  0  0  0  0
  133.1800  125.9030   67.0790 C   0  0  0  0  0  0  0  0  0  0  0  0
  131.8810  126.0380   66.5760 C   0  0  0  0  0  0  0  0  0  0  0  0
  130.7810  126.4010   67.4990 C   0  0  0  0  0  0  0  0  0  0  0  0
  129.8230  125.4490   67.8590 C   0  0  0  0  0  0  0  0  0  0  0  0
  128.7890  125.7900   68.7280 C   0  0  0  0  0  0  0  0  0  0  0  0
  128.7120  127.0850   69.2340 C   0  0  0  0  0  0  0  0  0  0  0  0
  129.6610  128.0420   68.8790 C   0  0  0  0  0  0  0  0  0  0  0  0
  130.6940  127.7000   68.0100 C   0  0  0  0  0  0  0  0  0  0  0  0
  131.6770  125.8170   65.1870 C   0  0  0  0  0  0  0  0  0  0  0  0
  130.5050  125.8680   64.3540 C   0  0  0  0  0  0  0  0  0  0  0  0
  129.2650  126.1780   64.8530 N   0  0  0  0  0  0  0  0  0  0  0  0
  127.1400  123.5130   60.7430 C   0  0  0  0  0  0  0  0  0  0  0  0
  126.3430  123.1340   59.6670 C   0  0  0  0  0  0  0  0  0  0  0  0
  1  2  1  0
  2  3  1  0
  3  4  2  0
  3  5  1  0
  5  6  2  0
  6  7  1  0
  7  8  2  0
  8  9  1  0
  9 10  1  0
 10 11  2  0
 10 12  1  0
 12 13  1  0
 13 14  1  0
 14 15  2  0
 15 16  1  0
 16 17  1  0
 16 18  2  0
 18 19  1  0
 19 20  1  0
 20 21  2  0
 21 22  1  0
 22 23  2  0
 23 24  1  0
 24 25  2  0
 19 26  2  0
 26 27  1  0
 27 28  1  0
  8 29  1  0
 29 30  2  0
 30  5  1  0
 27 12  2  0
 26 14  1  0
 25 20  1  0
M  END
>  <Binding energies>  (64) 
[-8.87]

>  <Ligand effiencies>  (64) 
[-0.26878787878787874]

>  <Interactions>  (64) 
["V-B:PRO:540:CB:9857, V-B:PRO:540:N:9856, V-B:PRO:540:CA:9855, V-B:MET:535:CE:9807, H-B:TYR:539:N:9842, H-B:TYR:531:OH:9767, V-B:GLU:543:CD:9880, V-A:ARG:545:CD:4923, V-A:ARG:545:CZ:4926, V-A:GLY:453:CA:4043, V-B:GLU:543:CB:9878, V-A:ARG:545:CB:4921, V-A:GLY:453:C:4041, V-A:GLU:543:CB:4906, V-A:HIS:456:CE1:4069, V-A:ARG:545:CG:4922, V-B:HIS:456:CE1:9041, V-A:GLY:454:CA:4048, H-A:TYR:484:OH:4347, H-A:GLY:454:N:4049, H-A:GLU:543:OE1:4909, V-B:GLU:543:CG:9879, V-A:GLU:543:CD:4908, V-A:GLU:543:CG:4907, V-A:ASP:366:CG:3212, H-B:GLU:543:OE2:9882, H-A:ARG:545:NH1:4927, V-B:GLU:543:C:9874, V-A:TYR:484:CE2:4345, V-B:GLU:543:CA:9876, V-A:TYR:484:CZ:4346, V-B:ASP:366:CB:8183, H-A:ARG:545:NH2:4928, V-A:ILE:455:C:4051, H-A:ARG:545:NE:4924, V-B:TYR:531:CZ:9766, V-B:TYR:531:CE2:9765, V-B:LEU:363:CD1:8160, H-B:GLU:543:OE1:9881, V-A:GLY:454:C:4046, V-A:ILE:455:CA:4053, V-A:VAL:452:CG2:4039"]

$$$$
8b_Ghoteimi_2023
     RDKit          3D

 34 38  0  0  0  0  0  0  0  0999 V2000
  130.4940  116.6320   59.6550 C   0  0  0  0  0  0  0  0  0  0  0  0
  131.3950  117.2910   60.5390 O   0  0  0  0  0  0  0  0  0  0  0  0
  131.2280  118.6400   60.7890 C   0  0  0  0  0  0  0  0  0  0  0  0
  132.2100  119.4920   60.2890 C   0  0  0  0  0  0  0  0  0  0  0  0
  132.1250  120.8660   60.4930 C   0  0  0  0  0  0  0  0  0  0  0  0
  131.0530  121.4240   61.2040 C   0  0  0  0  0  0  0  0  0  0  0  0
  130.9580  122.9000   61.4280 C   0  0  0  0  0  0  0  0  0  0  0  0
  131.0070  123.4550   62.7110 C   0  0  0  0  0  0  0  0  0  0  0  0
  130.9170  124.8380   62.8940 C   0  0  0  0  0  0  0  0  0  0  0  0
  130.9620  125.3930   64.2660 C   0  0  0  0  0  0  0  0  0  0  0  0
  129.7810  125.5970   64.9820 C   0  0  0  0  0  0  0  0  0  0  0  0
  129.8260  126.1100   66.2750 C   0  0  0  0  0  0  0  0  0  0  0  0
  131.0480  126.4280   66.8710 C   0  0  0  0  0  0  0  0  0  0  0  0
  130.9960  126.9290   68.1570 O   0  0  0  0  0  0  0  0  0  0  0  0
  129.8820  127.7240   68.5480 C   0  0  0  0  0  0  0  0  0  0  0  0
  132.2330  126.2250   66.1470 C   0  0  0  0  0  0  0  0  0  0  0  0
  132.1870  125.7120   64.8540 C   0  0  0  0  0  0  0  0  0  0  0  0
  130.7820  125.6570   61.7410 C   0  0  0  0  0  0  0  0  0  0  0  0
  130.6710  127.0820   61.5620 C   0  0  0  0  0  0  0  0  0  0  0  0
  130.6820  127.9570   62.6180 N   0  0  0  0  0  0  0  0  0  0  0  0
  130.5540  127.4790   60.2210 C   0  0  0  0  0  0  0  0  0  0  0  0
  130.4280  128.8340   59.6800 C   0  0  0  0  0  0  0  0  0  0  0  0
  129.5170  129.5780   60.0510 O   0  0  0  0  0  0  0  0  0  0  0  0
  131.3680  129.1850   58.7660 N   0  0  0  0  0  0  0  0  0  0  0  0
  131.4890  130.3980   58.1010 C   0  0  0  0  0  0  0  0  0  0  0  0
  132.6810  130.8340   57.5250 C   0  0  0  0  0  0  0  0  0  0  0  0
  132.3860  132.0630   56.9790 C   0  0  0  0  0  0  0  0  0  0  0  0
  131.0840  132.3500   57.2120 O   0  0  0  0  0  0  0  0  0  0  0  0
  130.5250  131.2860   57.9230 N   0  0  0  0  0  0  0  0  0  0  0  0
  130.5820  126.0860   59.1390 S   0  0  0  0  0  0  0  0  0  0  0  0
  130.7480  124.9840   60.4860 C   0  0  0  0  0  0  0  0  0  0  0  0
  130.8320  123.6650   60.3110 N   0  0  0  0  0  0  0  0  0  0  0  0
  130.0670  120.5610   61.7020 C   0  0  0  0  0  0  0  0  0  0  0  0
  130.1500  119.1860   61.5010 C   0  0  0  0  0  0  0  0  0  0  0  0
  1  2  1  0
  2  3  1  0
  3  4  2  0
  4  5  1  0
  5  6  2  0
  6  7  1  0
  7  8  2  0
  8  9  1  0
  9 10  1  0
 10 11  2  0
 11 12  1  0
 12 13  2  0
 13 14  1  0
 14 15  1  0
 13 16  1  0
 16 17  2  0
  9 18  2  0
 18 19  1  0
 19 20  1  0
 19 21  2  0
 21 22  1  0
 22 23  2  0
 22 24  1  0
 24 25  1  0
 25 26  1  0
 26 27  2  0
 27 28  1  0
 28 29  1  0
 21 30  1  0
 30 31  1  0
 31 32  2  0
  6 33  1  0
 33 34  2  0
 34  3  1  0
 32  7  1  0
 17 10  1  0
 31 18  1  0
 29 25  2  0
M  END
>  <Binding energies>  (65) 
[-7.85]

>  <Ligand effiencies>  (65) 
[-0.21216216216216216]

>  <Interactions>  (65) 
["V-B:TYR:539:CE2:9848, V-B:TYR:539:CD2:9846, V-A:PRO:482:CG:4326, V-B:PRO:540:C:9853, V-A:PRO:482:CB:4325, V-A:LEU:475:CD1:4257, V-B:ALA:541:CA:9862, V-B:TYR:539:C:9839, V-B:ALA:541:CB:9864, V-B:GLU:543:CD:9880, V-A:ARG:545:CZ:4926, V-A:GLU:543:CB:4906, V-A:HIS:456:CE1:4069, V-A:HIS:383:CE1:3392, H-A:GLU:543:OE1:4909, V-B:GLU:543:CG:9879, V-A:GLU:543:CD:4908, V-A:ASP:366:CG:3212, V-A:ASP:366:CB:3211, H-A:TYR:539:N:4870, V-A:PRO:540:CA:4883, H-A:GLU:543:OE2:4910, V-B:VAL:344:CG1:7972, V-B:TYR:539:CB:9843, H-A:ASP:366:OD2:3214, V-A:PRO:540:CB:4885, V-A:PRO:540:N:4884, V-A:LEU:363:CD1:3188, H-A:HIS:383:NE2:3393, H-A:SER:385:OG:3409, V-A:PRO:540:CD:4887, V-A:PRO:540:CG:4886"]

$$$$
9d_Ghoteimi_2023
     RDKit          3D

 38 43  0  0  0  0  0  0  0  0999 V2000
  124.5280  129.5020   65.4040 C   0  0  0  0  0  0  0  0  0  0  0  0
  125.1170  130.6630   64.8360 O   0  0  0  0  0  0  0  0  0  0  0  0
  126.4670  130.7900   64.7530 C   0  0  0  0  0  0  0  0  0  0  0  0
  127.0500  131.8640   64.5850 O   0  0  0  0  0  0  0  0  0  0  0  0
  127.1760  129.4980   64.8810 C   0  0  0  0  0  0  0  0  0  0  0  0
  127.4620  128.5080   63.4500 S   0  0  0  0  0  0  0  0  0  0  0  0
  128.2980  127.3040   64.4010 C   0  0  0  0  0  0  0  0  0  0  0  0
  128.8330  126.2200   63.8410 N   0  0  0  0  0  0  0  0  0  0  0  0
  129.4770  125.3530   64.6650 C   0  0  0  0  0  0  0  0  0  0  0  0
  130.0910  124.1570   64.0110 C   0  0  0  0  0  0  0  0  0  0  0  0
  129.3030  123.2690   63.2700 C   0  0  0  0  0  0  0  0  0  0  0  0
  129.8650  122.1520   62.6590 C   0  0  0  0  0  0  0  0  0  0  0  0
  131.2400  121.8870   62.7560 C   0  0  0  0  0  0  0  0  0  0  0  0
  131.8160  120.7590   62.1620 N   0  0  0  0  0  0  0  0  0  0  0  0
  130.9840  119.6990   61.5580 C   0  0  0  0  0  0  0  0  0  0  0  0
  131.7500  118.3910   61.2690 C   0  0  0  0  0  0  0  0  0  0  0  0
  132.8880  118.6620   60.4690 O   0  0  0  0  0  0  0  0  0  0  0  0
  133.7810  119.5510   61.1190 C   0  0  0  0  0  0  0  0  0  0  0  0
  133.0790  120.8960   61.4050 C   0  0  0  0  0  0  0  0  0  0  0  0
  132.0230  122.7720   63.5120 C   0  0  0  0  0  0  0  0  0  0  0  0
  131.4600  123.8880   64.1260 C   0  0  0  0  0  0  0  0  0  0  0  0
  129.5550  125.5540   66.0450 C   0  0  0  0  0  0  0  0  0  0  0  0
  128.9780  126.6810   66.6410 C   0  0  0  0  0  0  0  0  0  0  0  0
  129.0660  126.8330   68.1180 C   0  0  0  0  0  0  0  0  0  0  0  0
  129.8380  127.8490   68.6850 C   0  0  0  0  0  0  0  0  0  0  0  0
  129.9020  127.9980   70.0680 C   0  0  0  0  0  0  0  0  0  0  0  0
  129.1830  127.1450   70.9200 C   0  0  0  0  0  0  0  0  0  0  0  0
  129.2380  127.2680   72.3100 N   0  0  0  0  0  0  0  0  0  0  0  0
  128.9620  128.5810   72.9250 C   0  0  0  0  0  0  0  0  0  0  0  0
  128.6730  128.4950   74.4390 C   0  0  0  0  0  0  0  0  0  0  0  0
  129.7430  127.8390   75.1030 O   0  0  0  0  0  0  0  0  0  0  0  0
  129.9320  126.5190   74.6150 C   0  0  0  0  0  0  0  0  0  0  0  0
  130.2570  126.5580   73.1060 C   0  0  0  0  0  0  0  0  0  0  0  0
  128.4120  126.1270   70.3380 C   0  0  0  0  0  0  0  0  0  0  0  0
  128.3490  125.9780   68.9560 C   0  0  0  0  0  0  0  0  0  0  0  0
  128.3350  127.6230   65.7910 C   0  0  0  0  0  0  0  0  0  0  0  0
  127.7020  128.8940   66.0300 C   0  0  0  0  0  0  0  0  0  0  0  0
  127.6390  129.4730   67.2710 N   0  0  0  0  0  0  0  0  0  0  0  0
  1  2  1  0
  2  3  1  0
  3  4  2  0
  3  5  1  0
  5  6  1  0
  6  7  1  0
  7  8  2  0
  8  9  1  0
  9 10  1  0
 10 11  2  0
 11 12  1  0
 12 13  2  0
 13 14  1  0
 14 15  1  0
 15 16  1  0
 16 17  1  0
 17 18  1  0
 18 19  1  0
 13 20  1  0
 20 21  2  0
  9 22  2  0
 22 23  1  0
 23 24  1  0
 24 25  2  0
 25 26  1  0
 26 27  2  0
 27 28  1  0
 28 29  1  0
 29 30  1  0
 30 31  1  0
 31 32  1  0
 32 33  1  0
 27 34  1  0
 34 35  2  0
 23 36  2  0
 36 37  1  0
 37 38  1  0
 37  5  2  0
 36  7  1  0
 21 10  1  0
 35 24  1  0
 19 14  1  0
 33 28  1  0
M  END
>  <Binding energies>  (66) 
[-8.03]

>  <Ligand effiencies>  (66) 
[-0.20074999999999998]

>  <Interactions>  (66) 
["V-A:ILE:369:CG2:3236, V-A:PRO:482:CG:4326, V-A:LEU:475:CD1:4257, V-A:SER:385:CA:3406, V-A:SER:385:C:3404, V-B:ALA:541:CB:9864, V-B:GLU:543:CD:9880, V-B:GLU:543:CB:9878, V-A:GLU:543:CB:4906, H-B:TYR:484:OH:9319, V-A:HIS:456:CE1:4069, V-B:HIS:456:CE1:9041, V-B:ARG:545:CZ:9898, H-B:GLY:454:N:9021, V-B:TYR:484:CZ:9318, V-A:GLU:543:C:4902, H-A:GLU:543:OE1:4909, V-B:TYR:484:CE2:9317, V-B:GLU:543:CG:9879, V-A:GLU:543:CD:4908, V-A:GLU:543:CG:4907, V-B:GLU:543:C:9874, V-B:HIS:456:CD2:9039, V-B:GLU:543:CA:9876, V-A:HIS:456:CG:4065, V-A:HIS:456:CD2:4067, H-A:HIS:383:NE2:3393, H-A:SER:385:OG:3409, H-A:GLU:543:O:4903, H-A:LYS:547:NZ:4951"]

$$$$
RR10_Rahimova_2017
     RDKit          3D

 34 38  0  0  0  0  0  0  0  0999 V2000
  132.3770  126.1030   66.0600 C   0  0  0  0  0  0  0  0  0  0  0  0
  131.3900  126.1140   67.2400 C   0  0  1  0  0  0  0  0  0  0  0  0
  130.8520  127.5350   67.5270 C   0  0  0  0  0  0  0  0  0  0  0  0
  129.8900  127.5280   68.7370 C   0  0  0  0  0  0  0  0  0  0  0  0
  128.6940  126.5640   68.5290 C   0  0  1  0  0  0  0  0  0  0  0  0
  127.8040  127.0600   67.4700 N   0  0  0  0  0  0  0  0  0  0  0  0
  127.5450  128.3550   67.2120 C   0  0  0  0  0  0  0  0  0  0  0  0
  128.0600  129.2810   67.8420 O   0  0  0  0  0  0  0  0  0  0  0  0
  126.5420  128.6490   66.0770 C   0  0  1  0  0  0  0  0  0  0  0  0
  125.1950  129.1150   66.6890 C   0  0  0  0  0  0  0  0  0  0  0  0
  124.2160  129.4990   65.5540 C   0  0  0  0  0  0  0  0  0  0  0  0
  124.8340  130.5050   64.5550 C   0  0  0  0  0  0  0  0  0  0  0  0
  126.1510  130.0160   64.0640 N   0  0  0  0  0  0  0  0  0  0  0  0
  126.8110  130.9310   62.6980 S   0  0  0  0  0  0  0  0  0  0  0  0
  128.2620  131.0480   62.8860 O   0  0  0  0  0  0  0  0  0  0  0  0
  125.9890  132.1350   62.5230 O   0  0  0  0  0  0  0  0  0  0  0  0
  126.5590  129.8790   61.2680 C   0  0  0  0  0  0  0  0  0  0  0  0
  126.0920  130.4430   60.0770 C   0  0  0  0  0  0  0  0  0  0  0  0
  125.8730  129.6780   58.9270 C   0  0  0  0  0  0  0  0  0  0  0  0
  126.1480  128.3130   59.0250 C   0  0  0  0  0  0  0  0  0  0  0  0
  126.0600  127.2580   58.1480 N   0  0  0  0  0  0  0  0  0  0  0  0
  126.4700  126.1190   58.8100 C   0  0  0  0  0  0  0  0  0  0  0  0
  126.5040  124.7570   58.1780 C   0  0  0  0  0  0  0  0  0  0  0  0
  127.7220  124.0850   58.0050 C   0  0  0  0  0  0  0  0  0  0  0  0
  127.7540  122.8210   57.4220 C   0  0  0  0  0  0  0  0  0  0  0  0
  126.5670  122.2220   57.0080 C   0  0  0  0  0  0  0  0  0  0  0  0
  125.3500  122.8750   57.1730 C   0  0  0  0  0  0  0  0  0  0  0  0
  125.3190  124.1400   57.7560 C   0  0  0  0  0  0  0  0  0  0  0  0
  126.8220  126.3710   60.0510 N   0  0  0  0  0  0  0  0  0  0  0  0
  126.6320  127.7180   60.2150 C   0  0  0  0  0  0  0  0  0  0  0  0
  126.8440  128.5110   61.3520 C   0  0  0  0  0  0  0  0  0  0  0  0
  127.1250  129.7450   65.1520 C   0  0  0  0  0  0  0  0  0  0  0  0
  129.2500  125.1460   68.2240 C   0  0  0  0  0  0  0  0  0  0  0  0
  130.2060  125.1470   67.0100 C   0  0  0  0  0  0  0  0  0  0  0  0
  2  1  1  6
  2  3  1  0
  3  4  1  0
  4  5  1  0
  5  6  1  6
  6  7  1  0
  7  8  2  0
  9  7  1  1
  9 10  1  0
 10 11  1  0
 11 12  1  0
 12 13  1  0
 13 14  1  0
 14 15  2  0
 14 16  2  0
 14 17  1  0
 17 18  2  0
 18 19  1  0
 19 20  2  0
 20 21  1  0
 21 22  1  0
 22 23  1  0
 23 24  2  0
 24 25  1  0
 25 26  2  0
 26 27  1  0
 27 28  2  0
 22 29  2  0
 29 30  1  0
 30 31  2  0
 13 32  1  0
  5 33  1  0
 33 34  1  0
 34  2  1  0
 32  9  1  0
 31 17  1  0
 30 20  1  0
 28 23  1  0
M  END
>  <Binding energies>  (67) 
[-10.25]

>  <Ligand effiencies>  (67) 
[-0.2847222222222222]

>  <Interactions>  (67) 
["V-B:PRO:540:CB:9857, V-B:PRO:540:N:9856, V-B:PRO:540:CA:9855, V-B:MET:535:CE:9807, H-B:TYR:531:OH:9767, V-B:TYR:539:C:9839, V-B:GLU:543:CD:9880, V-A:ARG:545:CZ:4926, V-B:GLU:543:CB:9878, V-A:GLU:543:CB:4906, V-A:HIS:456:CE1:4069, V-B:HIS:456:CE1:9041, V-B:ARG:545:CZ:9898, V-B:TYR:484:CZ:9318, V-B:GLU:543:CG:9879, V-A:GLU:543:CD:4908, V-A:GLU:543:CG:4907, H-B:GLU:543:OE2:9882, V-B:GLU:543:C:9874, V-A:TYR:484:CE2:4345, V-B:GLU:543:CA:9876, V-A:TYR:484:CZ:4346, V-B:ASP:366:CB:8183, V-A:TYR:539:CE1:4875, V-B:ASP:366:CG:8184, V-B:PRO:540:CD:9859, V-B:TYR:531:CZ:9766, V-B:TYR:531:CE2:9765, V-B:LEU:363:CD1:8160, V-B:ARG:545:CD:9895, V-B:ARG:545:CG:9894, V-B:GLY:454:CA:9020"]

$$$$
RR12_Rahimova_2017
     RDKit          3D

 26 28  0  0  0  0  0  0  0  0999 V2000
  134.3510  123.7660   60.1390 C   0  0  0  0  0  0  0  0  0  0  0  0
  133.7510  123.9690   61.5370 C   0  0  0  0  0  0  0  0  0  0  0  0
  133.8470  122.7050   62.4110 C   0  0  0  0  0  0  0  0  0  0  0  0
  132.6200  121.9180   62.3210 N   0  0  0  0  0  0  0  0  0  0  0  0
  131.3920  122.2020   62.8990 C   0  0  0  0  0  0  0  0  0  0  0  0
  131.1320  123.4030   63.7900 C   0  0  0  0  0  0  0  0  0  0  0  0
  130.6330  124.6260   62.9980 C   0  0  0  0  0  0  0  0  0  0  0  0
  131.5480  125.8550   63.1620 C   0  0  0  0  0  0  0  0  0  0  0  0
  131.8940  126.1520   64.5510 N   0  0  0  0  0  0  0  0  0  0  0  0
  132.8920  125.5690   65.2400 C   0  0  0  0  0  0  0  0  0  0  0  0
  133.6300  124.7060   64.7590 O   0  0  0  0  0  0  0  0  0  0  0  0
  133.0720  126.0520   66.6850 C   0  0  0  0  0  0  0  0  0  0  0  0
  132.2120  127.1660   66.9260 O   0  0  0  0  0  0  0  0  0  0  0  0
  130.9890  126.9580   67.5350 C   0  0  0  0  0  0  0  0  0  0  0  0
  130.4480  125.6760   67.4190 C   0  0  0  0  0  0  0  0  0  0  0  0
  129.2210  125.3700   68.0020 C   0  0  0  0  0  0  0  0  0  0  0  0
  128.5300  126.3510   68.7080 C   0  0  0  0  0  0  0  0  0  0  0  0
  129.0540  127.6360   68.8320 C   0  0  0  0  0  0  0  0  0  0  0  0
  130.2800  127.9410   68.2470 C   0  0  0  0  0  0  0  0  0  0  0  0
  130.4680  121.3170   62.6150 N   0  0  0  0  0  0  0  0  0  0  0  0
  131.0860  120.4150   61.7940 C   0  0  0  0  0  0  0  0  0  0  0  0
  130.5550  119.2680   61.1840 C   0  0  0  0  0  0  0  0  0  0  0  0
  131.3970  118.5040   60.3760 C   0  0  0  0  0  0  0  0  0  0  0  0
  132.7300  118.8630   60.1750 C   0  0  0  0  0  0  0  0  0  0  0  0
  133.2880  119.9970   60.7690 C   0  0  0  0  0  0  0  0  0  0  0  0
  132.4430  120.7630   61.5810 C   0  0  0  0  0  0  0  0  0  0  0  0
  1  2  1  0
  2  3  1  0
  3  4  1  0
  4  5  1  0
  5  6  1  0
  6  7  1  0
  7  8  1  0
  8  9  1  0
  9 10  1  0
 10 11  2  0
 10 12  1  0
 12 13  1  0
 13 14  1  0
 14 15  2  0
 15 16  1  0
 16 17  2  0
 17 18  1  0
 18 19  2  0
  5 20  2  0
 20 21  1  0
 21 22  2  0
 22 23  1  0
 23 24  2  0
 24 25  1  0
 25 26  2  0
 26  4  1  0
 19 14  1  0
 26 21  1  0
M  END
>  <Binding energies>  (68) 
[-7.16]

>  <Ligand effiencies>  (68) 
[-0.2651851851851852]

>  <Interactions>  (68) 
["V-A:ILE:369:CG2:3236, V-B:TYR:539:CD2:9846, V-A:LEU:475:CD1:4257, V-B:ALA:541:CB:9864, V-A:ARG:545:CD:4923, V-A:ARG:545:CZ:4926, V-B:GLU:543:CB:9878, V-A:GLU:543:CB:4906, V-A:HIS:456:CE1:4069, V-A:ARG:545:CG:4922, V-B:HIS:456:CE1:9041, V-A:GLY:454:CA:4048, H-A:TYR:484:OH:4347, H-A:GLY:454:N:4049, H-A:GLU:543:OE1:4909, V-B:GLU:543:CG:9879, V-A:GLU:543:CD:4908, V-A:GLU:543:CG:4907, V-A:ASP:366:CG:3212, V-A:ILE:369:CD1:3238, V-A:TYR:484:CE2:4345, V-A:ASP:366:CB:3211, V-A:ASP:366:CA:3209, V-B:GLU:543:CA:9876, V-A:TYR:484:CZ:4346, V-A:ILE:369:CB:3235, H-A:GLU:543:OE2:4910, H-A:ARG:545:NE:4924"]

$$$$
RR13_Rahimova_2017
     RDKit          3D

 48 54  0  0  0  0  0  0  0  0999 V2000
  128.9180  130.8680   57.3090 Cl  0  0  0  0  0  0  0  0  0  0  0  0
  127.7490  129.8360   58.0600 C   0  0  0  0  0  0  0  0  0  0  0  0
  126.4370  129.8830   57.5820 C   0  0  0  0  0  0  0  0  0  0  0  0
  125.4460  129.0930   58.1580 C   0  0  0  0  0  0  0  0  0  0  0  0
  125.7610  128.2500   59.2200 C   0  0  0  0  0  0  0  0  0  0  0  0
  127.0670  128.1970   59.7020 C   0  0  0  0  0  0  0  0  0  0  0  0
  128.0830  128.9770   59.1270 C   0  0  0  0  0  0  0  0  0  0  0  0
  129.5180  128.9190   59.6960 C   0  0  1  0  0  0  0  0  0  0  0  0
  129.8890  130.2370   60.3930 C   0  0  0  0  0  0  0  0  0  0  0  0
  130.8490  131.0650   60.0460 N   0  0  0  0  0  0  0  0  0  0  0  0
  130.8200  132.0950   60.9820 N   0  0  0  0  0  0  0  0  0  0  0  0
  129.8310  131.8590   61.9160 N   0  0  0  0  0  0  0  0  0  0  0  0
  129.2870  130.6950   61.5450 N   0  0  0  0  0  0  0  0  0  0  0  0
  128.1640  130.1360   62.2880 C   0  0  0  0  0  0  0  0  0  0  0  0
  128.0160  130.8460   63.6470 C   0  0  0  0  0  0  0  0  0  0  0  0
  127.0860  130.0970   64.5890 C   0  0  0  0  0  0  0  0  0  0  0  0
  127.6180  129.2870   65.5960 C   0  0  0  0  0  0  0  0  0  0  0  0
  126.7660  128.5950   66.4530 C   0  0  0  0  0  0  0  0  0  0  0  0
  125.3860  128.7160   66.3000 C   0  0  0  0  0  0  0  0  0  0  0  0
  124.8500  129.5210   65.2970 C   0  0  0  0  0  0  0  0  0  0  0  0
  125.7020  130.2130   64.4390 C   0  0  0  0  0  0  0  0  0  0  0  0
  129.7650  127.7360   60.5550 N   0  0  0  0  0  0  0  0  0  0  0  0
  130.6930  128.0760   61.6490 C   0  0  0  0  0  0  0  0  0  0  0  0
  130.8510  126.8870   62.6250 C   0  0  0  0  0  0  0  0  0  0  0  0
  131.4050  125.7140   61.9290 N   0  0  0  0  0  0  0  0  0  0  0  0
  131.6500  124.5750   62.8440 C   0  0  1  0  0  0  0  0  0  0  0  0
  132.2970  123.3300   62.1990 C   0  0  0  0  0  0  0  0  0  0  0  0
  133.6480  123.4240   61.8390 C   0  0  0  0  0  0  0  0  0  0  0  0
  134.3190  122.3440   61.2670 C   0  0  0  0  0  0  0  0  0  0  0  0
  133.6420  121.1490   61.0390 C   0  0  0  0  0  0  0  0  0  0  0  0
  132.2950  121.0400   61.3740 C   0  0  0  0  0  0  0  0  0  0  0  0
  131.6130  122.1180   61.9450 C   0  0  0  0  0  0  0  0  0  0  0  0
  129.9240  121.9050   62.2620 Cl  0  0  0  0  0  0  0  0  0  0  0  0
  132.4190  124.9730   64.1060 C   0  0  0  0  0  0  0  0  0  0  0  0
  133.7200  124.8870   64.2640 N   0  0  0  0  0  0  0  0  0  0  0  0
  133.9820  125.3680   65.5430 N   0  0  0  0  0  0  0  0  0  0  0  0
  132.8070  125.7620   66.1500 N   0  0  0  0  0  0  0  0  0  0  0  0
  131.8580  125.5290   65.2360 N   0  0  0  0  0  0  0  0  0  0  0  0
  130.4610  125.8120   65.5460 C   0  0  0  0  0  0  0  0  0  0  0  0
  130.0390  125.0890   66.8380 C   0  0  0  0  0  0  0  0  0  0  0  0
  129.7640  126.0590   67.9760 C   0  0  0  0  0  0  0  0  0  0  0  0
  130.2360  127.3730   67.9020 C   0  0  0  0  0  0  0  0  0  0  0  0
  129.9780  128.2630   68.9410 C   0  0  0  0  0  0  0  0  0  0  0  0
  129.2490  127.8370   70.0510 C   0  0  0  0  0  0  0  0  0  0  0  0
  128.7750  126.5280   70.1290 C   0  0  0  0  0  0  0  0  0  0  0  0
  129.0320  125.6380   69.0900 C   0  0  0  0  0  0  0  0  0  0  0  0
  130.4710  125.3740   60.8400 C   0  0  0  0  0  0  0  0  0  0  0  0
  130.3260  126.5630   59.8620 C   0  0  0  0  0  0  0  0  0  0  0  0
  1  2  1  0
  2  3  2  0
  3  4  1  0
  4  5  2  0
  5  6  1  0
  6  7  2  0
  7  8  1  0
  8  9  1  0
  9 10  2  0
 10 11  1  0
 11 12  2  0
 12 13  1  0
 13 14  1  0
 14 15  1  0
 15 16  1  0
 16 17  2  0
 17 18  1  0
 18 19  2  0
 19 20  1  0
 20 21  2  0
  8 22  1  1
 22 23  1  0
 23 24  1  0
 24 25  1  0
 26 25  1  6
 26 27  1  0
 27 28  2  0
 28 29  1  0
 29 30  2  0
 30 31  1  0
 31 32  2  0
 32 33  1  0
 26 34  1  0
 34 35  2  0
 35 36  1  0
 36 37  2  0
 37 38  1  0
 38 39  1  0
 39 40  1  0
 40 41  1  0
 41 42  2  0
 42 43  1  0
 43 44  2  0
 44 45  1  0
 45 46  2  0
 25 47  1  0
 47 48  1  0
  7  2  1  0
 13  9  1  0
 21 16  1  0
 48 22  1  0
 32 27  1  0
 38 34  1  0
 46 41  1  0
M  END
>  <Binding energies>  (69) 
[-12.26]

>  <Ligand effiencies>  (69) 
[-0.2554166666666667]

>  <Interactions>  (69) 
["V-A:ILE:369:CG2:3236, V-A:LEU:475:CD1:4257, V-B:ALA:541:CB:9864, V-A:ARG:545:CZ:4926, V-B:GLU:543:CB:9878, V-A:GLU:543:CB:4906, V-A:HIS:456:CE1:4069, V-B:HIS:456:CE1:9041, V-B:ARG:545:CZ:9898, H-A:TYR:484:OH:4347, H-A:ALA:541:N:4891, H-A:GLY:454:N:4049, V-A:ALA:541:CB:4892, V-A:GLU:543:C:4902, V-B:GLU:543:CG:9879, V-A:GLU:543:CD:4908, V-A:GLU:543:CG:4907, V-B:GLU:543:C:9874, V-A:ILE:369:CD1:3238, V-A:TYR:484:CE2:4345, V-A:TYR:484:CZ:4346, V-B:ASP:366:CB:8183, V-A:TYR:539:CE1:4875, V-B:ASP:366:CG:8184, H-A:ARG:545:NH2:4928, H-A:ARG:545:NE:4924, V-A:TYR:539:CZ:4877, V-B:ARG:545:CD:9895, V-B:ARG:545:CG:9894"]

$$$$
RR14_Rahimova_2017
     RDKit          3D

 39 43  0  0  0  0  0  0  0  0999 V2000
  131.0040  117.5950   60.3800 C   0  0  0  0  0  0  0  0  0  0  0  0
  132.3360  117.9870   60.6970 O   0  0  0  0  0  0  0  0  0  0  0  0
  132.6090  119.3220   60.9200 C   0  0  0  0  0  0  0  0  0  0  0  0
  131.6250  120.2330   60.5320 C   0  0  0  0  0  0  0  0  0  0  0  0
  131.8220  121.6000   60.6950 C   0  0  0  0  0  0  0  0  0  0  0  0
  133.0150  122.0730   61.2470 C   0  0  0  0  0  0  0  0  0  0  0  0
  133.2610  123.5720   61.3670 C   0  0  0  0  0  0  0  0  0  0  0  0
  133.0980  124.0790   62.7290 N   0  0  0  0  0  0  0  0  0  0  0  0
  134.1170  124.6790   63.3540 N   0  0  0  0  0  0  0  0  0  0  0  0
  133.6250  124.9940   64.6060 N   0  0  0  0  0  0  0  0  0  0  0  0
  132.3050  124.5690   64.7210 N   0  0  0  0  0  0  0  0  0  0  0  0
  132.0090  124.0100   63.5720 C   0  0  0  0  0  0  0  0  0  0  0  0
  130.6720  123.3690   63.2270 C   0  0  0  0  0  0  0  0  0  0  0  0
  129.7210  124.3310   62.6450 N   0  0  0  0  0  0  0  0  0  0  0  0
  128.4530  123.6910   62.2700 C   0  0  0  0  0  0  0  0  0  0  0  0
  128.6340  122.4650   61.3480 C   0  0  0  0  0  0  0  0  0  0  0  0
  128.7600  122.8270   59.8540 C   0  0  0  0  0  0  0  0  0  0  0  0
  127.4650  123.0020   59.1870 N   0  0  0  0  0  0  0  0  0  0  0  0
  127.5950  122.7530   57.7460 C   0  0  0  0  0  0  0  0  0  0  0  0
  126.2600  122.9790   57.0060 C   0  0  0  0  0  0  0  0  0  0  0  0
  125.7600  124.2830   57.2860 O   0  0  0  0  0  0  0  0  0  0  0  0
  125.5270  124.4840   58.6750 C   0  0  0  0  0  0  0  0  0  0  0  0
  126.8410  124.3050   59.4660 C   0  0  0  0  0  0  0  0  0  0  0  0
  129.4810  125.4360   63.5840 C   0  0  0  0  0  0  0  0  0  0  0  0
  129.6170  126.8450   63.0110 C   0  0  0  0  0  0  0  0  0  0  0  0
  128.6640  127.7840   63.2300 C   0  0  0  0  0  0  0  0  0  0  0  0
  128.7510  129.1410   62.6540 C   0  0  0  0  0  0  0  0  0  0  0  0
  127.7930  130.1450   62.8770 C   0  0  0  0  0  0  0  0  0  0  0  0
  126.5680  129.8990   63.7490 C   0  0  0  0  0  0  0  0  0  0  0  0
  127.9710  131.3980   62.2860 C   0  0  0  0  0  0  0  0  0  0  0  0
  129.0830  131.6560   61.4860 C   0  0  0  0  0  0  0  0  0  0  0  0
  130.0430  130.6650   61.2600 C   0  0  0  0  0  0  0  0  0  0  0  0
  131.2480  130.9790   60.3820 C   0  0  0  0  0  0  0  0  0  0  0  0
  129.8740  129.4030   61.8480 C   0  0  0  0  0  0  0  0  0  0  0  0
  130.8150  128.3710   61.6460 N   0  0  0  0  0  0  0  0  0  0  0  0
  130.7750  127.1140   62.1530 C   0  0  0  0  0  0  0  0  0  0  0  0
  131.6620  126.3040   61.8820 O   0  0  0  0  0  0  0  0  0  0  0  0
  133.9930  121.1690   61.6660 C   0  0  0  0  0  0  0  0  0  0  0  0
  133.7950  119.8010   61.5010 C   0  0  0  0  0  0  0  0  0  0  0  0
  1  2  1  0
  2  3  1  0
  3  4  2  0
  4  5  1  0
  5  6  2  0
  6  7  1  0
  7  8  1  0
  8  9  1  0
  9 10  2  0
 10 11  1  0
 11 12  2  0
 12 13  1  0
 13 14  1  0
 14 15  1  0
 15 16  1  0
 16 17  1  0
 17 18  1  0
 18 19  1  0
 19 20  1  0
 20 21  1  0
 21 22  1  0
 22 23  1  0
 14 24  1  0
 24 25  1  0
 25 26  2  0
 26 27  1  0
 27 28  2  0
 28 29  1  0
 28 30  1  0
 30 31  2  0
 31 32  1  0
 32 33  1  0
 32 34  2  0
 34 35  1  0
 35 36  1  0
 36 37  2  0
  6 38  1  0
 38 39  2  0
 39  3  1  0
 12  8  1  0
 23 18  1  0
 36 25  1  0
 34 27  1  0
M  END
>  <Binding energies>  (70) 
[-10.31]

>  <Ligand effiencies>  (70) 
[-0.25775000000000003]

>  <Interactions>  (70) 
["V-A:ILE:369:CG2:3236, V-B:TYR:539:CE2:9848, V-B:PRO:540:N:9856, V-B:TYR:539:CD2:9846, V-B:PRO:540:CA:9855, V-A:PRO:482:CG:4326, V-B:MET:535:CE:9807, V-A:LEU:475:CD1:4257, H-B:TYR:531:OH:9767, V-A:SER:385:CA:3406, V-A:SER:385:C:3404, V-B:TYR:539:C:9839, V-B:ALA:541:CB:9864, V-B:GLU:543:CD:9880, V-A:HIS:383:CE1:3392, H-A:TYR:484:OH:4347, H-A:GLY:454:N:4049, V-A:ALA:541:CB:4892, V-A:GLU:543:CD:4908, H-A:ARG:545:NH1:4927, V-A:ILE:369:CD1:3238, V-A:PRO:540:CA:4883, H-A:GLU:543:OE2:4910, H-A:ARG:545:NH2:4928, H-A:ARG:545:NE:4924, H-A:ASP:366:OD2:3214, V-A:PRO:540:CB:4885, H-A:HIS:383:NE2:3393, H-A:SER:385:OG:3409"]

$$$$
RR15_Rahimova_2017
     RDKit          3D

 45 49  0  0  0  0  0  0  0  0999 V2000
  126.8140  127.4000   75.7370 C   0  0  0  0  0  0  0  0  0  0  0  0
  128.1340  127.7220   75.3100 O   0  0  0  0  0  0  0  0  0  0  0  0
  128.4580  127.6250   73.9680 C   0  0  0  0  0  0  0  0  0  0  0  0
  128.3890  126.4290   73.2360 C   0  0  0  0  0  0  0  0  0  0  0  0
  128.7330  126.4000   71.8860 C   0  0  0  0  0  0  0  0  0  0  0  0
  129.1560  127.5600   71.2300 C   0  0  0  0  0  0  0  0  0  0  0  0
  129.5330  127.5270   69.7750 C   0  0  0  0  0  0  0  0  0  0  0  0
  130.4840  128.2940   69.2590 N   0  0  0  0  0  0  0  0  0  0  0  0
  130.5320  127.9900   67.9140 N   0  0  0  0  0  0  0  0  0  0  0  0
  129.6180  127.0300   67.7760 N   0  0  0  0  0  0  0  0  0  0  0  0
  129.2200  126.5220   66.4640 C   0  0  0  0  0  0  0  0  0  0  0  0
  129.6380  125.0570   66.1810 C   0  0  0  0  0  0  0  0  0  0  0  0
  129.4890  124.2250   67.0790 O   0  0  0  0  0  0  0  0  0  0  0  0
  130.1260  124.7180   64.9490 N   0  0  0  0  0  0  0  0  0  0  0  0
  130.1910  123.3100   64.5100 C   0  0  0  0  0  0  0  0  0  0  0  0
  128.9380  122.8450   63.7360 C   0  0  0  0  0  0  0  0  0  0  0  0
  129.2190  122.2770   62.3260 C   0  0  0  0  0  0  0  0  0  0  0  0
  128.0710  122.3540   61.4180 N   0  0  0  0  0  0  0  0  0  0  0  0
  127.0180  123.2720   61.8790 C   0  0  0  0  0  0  0  0  0  0  0  0
  125.8740  123.3820   60.8480 C   0  0  0  0  0  0  0  0  0  0  0  0
  126.3930  123.7520   59.5750 O   0  0  0  0  0  0  0  0  0  0  0  0
  127.3370  122.8090   59.0790 C   0  0  0  0  0  0  0  0  0  0  0  0
  128.5230  122.6860   60.0600 C   0  0  0  0  0  0  0  0  0  0  0  0
  130.4450  125.7210   63.8860 C   0  0  2  0  0  0  0  0  0  0  0  0
  129.1900  126.3270   63.1860 C   0  0  0  0  0  0  0  0  0  0  0  0
  128.6400  125.7450   62.2510 O   0  0  0  0  0  0  0  0  0  0  0  0
  128.7410  127.4870   63.6980 N   0  0  0  0  0  0  0  0  0  0  0  0
  127.5320  128.1840   63.2760 C   0  0  0  0  0  0  0  0  0  0  0  0
  126.7330  128.6960   64.4890 C   0  0  2  0  0  0  0  0  0  0  0  0
  126.3300  130.1810   64.4350 C   0  0  0  0  0  0  0  0  0  0  0  0
  127.3240  130.8760   65.3330 C   0  0  0  0  0  0  0  0  0  0  0  0
  127.5700  129.8110   66.3870 C   0  0  0  0  0  0  0  0  0  0  0  0
  127.6200  128.6170   65.6130 O   0  0  0  0  0  0  0  0  0  0  0  0
  131.5730  125.2170   62.9930 C   0  0  0  0  0  0  0  0  0  0  0  0
  132.8390  125.0400   63.5640 C   0  0  0  0  0  0  0  0  0  0  0  0
  133.9060  124.5840   62.7970 C   0  0  0  0  0  0  0  0  0  0  0  0
  133.7140  124.2980   61.4480 C   0  0  0  0  0  0  0  0  0  0  0  0
  134.7510  123.8530   60.7020 F   0  0  0  0  0  0  0  0  0  0  0  0
  132.4620  124.4660   60.8620 C   0  0  0  0  0  0  0  0  0  0  0  0
  131.3960  124.9240   61.6310 C   0  0  0  0  0  0  0  0  0  0  0  0
  128.9450  126.7380   68.8950 N   0  0  0  0  0  0  0  0  0  0  0  0
  129.2210  128.7530   71.9630 C   0  0  0  0  0  0  0  0  0  0  0  0
  128.8750  128.7990   73.3240 C   0  0  0  0  0  0  0  0  0  0  0  0
  128.9200  129.9520   74.0880 O   0  0  0  0  0  0  0  0  0  0  0  0
  128.2080  131.1080   73.6600 C   0  0  0  0  0  0  0  0  0  0  0  0
  1  2  1  0
  2  3  1  0
  3  4  2  0
  4  5  1  0
  5  6  2  0
  6  7  1  0
  7  8  1  0
  8  9  2  0
  9 10  1  0
 10 11  1  0
 11 12  1  0
 12 13  2  0
 12 14  1  0
 14 15  1  0
 15 16  1  0
 16 17  1  0
 17 18  1  0
 18 19  1  0
 19 20  1  0
 20 21  1  0
 21 22  1  0
 22 23  1  0
 24 14  1  1
 24 25  1  0
 25 26  2  0
 25 27  1  0
 27 28  1  0
 29 28  1  6
 29 30  1  0
 30 31  1  0
 31 32  1  0
 32 33  1  0
 24 34  1  0
 34 35  2  0
 35 36  1  0
 36 37  2  0
 37 38  1  0
 37 39  1  0
 39 40  2  0
 10 41  1  0
  6 42  1  0
 42 43  2  0
 43 44  1  0
 44 45  1  0
 43  3  1  0
 41  7  2  0
 23 18  1  0
 33 29  1  0
 40 34  1  0
M  END
>  <Binding energies>  (71) 
[-8.29]

>  <Ligand effiencies>  (71) 
[-0.1802173913043478]

>  <Interactions>  (71) 
["V-B:PRO:540:CB:9857, V-A:ILE:369:CG2:3236, V-B:PRO:540:N:9856, V-B:PRO:540:CA:9855, H-B:ALA:541:N:9863, V-B:TYR:539:C:9839, V-B:ALA:541:CB:9864, V-B:GLU:543:CD:9880, V-A:ARG:545:CZ:4926, V-A:GLY:453:CA:4043, V-B:GLU:543:CB:9878, V-A:GLY:453:C:4041, V-A:HIS:456:CE1:4069, V-B:HIS:456:CE1:9041, H-A:TYR:484:OH:4347, V-B:TYR:484:CZ:9318, H-A:GLU:543:OE1:4909, V-B:TYR:484:CE2:9317, V-B:GLU:543:CG:9879, V-A:GLU:543:CD:4908, V-A:GLU:543:CG:4907, V-A:ASP:366:CG:3212, H-B:GLU:543:OE2:9882, V-A:ILE:369:CD1:3238, V-B:HIS:456:CD2:9039, V-A:TYR:484:CE2:4345, V-A:ASP:366:CB:3211, V-A:ASP:366:CA:3209, V-A:ILE:369:CB:3235, H-A:GLU:543:OE2:4910, H-A:LYS:547:NZ:4951"]

$$$$
RR17_Rahimova_2017
     RDKit          3D

 38 41  0  0  0  0  0  0  0  0999 V2000
  125.1320  123.1190   57.7620 C   0  0  0  0  0  0  0  0  0  0  0  0
  125.6850  122.2960   56.5950 C   0  0  0  0  0  0  0  0  0  0  0  0
  126.9250  121.7150   56.9910 O   0  0  0  0  0  0  0  0  0  0  0  0
  127.9280  122.5290   57.4850 C   0  0  0  0  0  0  0  0  0  0  0  0
  128.7070  122.0020   58.5130 C   0  0  0  0  0  0  0  0  0  0  0  0
  129.7390  122.7480   59.0740 C   0  0  0  0  0  0  0  0  0  0  0  0
  130.0130  124.0440   58.6150 C   0  0  0  0  0  0  0  0  0  0  0  0
  131.1340  124.8250   59.2380 C   0  0  0  0  0  0  0  0  0  0  0  0
  131.0040  125.4290   60.3070 O   0  0  0  0  0  0  0  0  0  0  0  0
  132.4750  124.8600   58.4730 C   0  0  0  0  0  0  0  0  0  0  0  0
  133.6320  123.5670   59.0510 S   0  0  0  0  0  0  0  0  0  0  0  0
  133.3670  123.6800   60.7980 C   0  0  0  0  0  0  0  0  0  0  0  0
  133.5760  124.7480   61.5310 N   0  0  0  0  0  0  0  0  0  0  0  0
  133.2430  124.4360   62.8440 N   0  0  0  0  0  0  0  0  0  0  0  0
  132.8400  123.1900   62.8530 C   0  0  0  0  0  0  0  0  0  0  0  0
  132.3680  122.4450   64.0930 C   0  0  0  0  0  0  0  0  0  0  0  0
  131.0180  122.8040   64.5190 N   0  0  0  0  0  0  0  0  0  0  0  0
  130.0170  123.2580   63.6410 C   0  0  0  0  0  0  0  0  0  0  0  0
  129.9130  124.6340   63.4420 C   0  0  0  0  0  0  0  0  0  0  0  0
  128.9410  125.1510   62.5900 C   0  0  0  0  0  0  0  0  0  0  0  0
  128.0610  124.2930   61.9220 C   0  0  0  0  0  0  0  0  0  0  0  0
  126.9950  124.8770   60.9960 C   0  0  0  0  0  0  0  0  0  0  0  0
  126.2090  125.7560   61.6200 F   0  0  0  0  0  0  0  0  0  0  0  0
  127.5670  125.4980   59.9620 F   0  0  0  0  0  0  0  0  0  0  0  0
  126.2320  123.8880   60.5310 F   0  0  0  0  0  0  0  0  0  0  0  0
  128.1690  122.9120   62.1150 C   0  0  0  0  0  0  0  0  0  0  0  0
  129.1420  122.3960   62.9660 C   0  0  0  0  0  0  0  0  0  0  0  0
  132.9050  122.6460   61.5870 N   0  0  0  0  0  0  0  0  0  0  0  0
  132.5520  121.3470   61.1900 C   0  0  0  0  0  0  0  0  0  0  0  0
  131.2080  120.9730   61.1830 C   0  0  0  0  0  0  0  0  0  0  0  0
  130.8580  119.6840   60.7920 C   0  0  0  0  0  0  0  0  0  0  0  0
  131.8490  118.7660   60.4080 C   0  0  0  0  0  0  0  0  0  0  0  0
  131.5950  117.4690   60.0070 O   0  0  0  0  0  0  0  0  0  0  0  0
  130.2630  117.0920   59.6760 C   0  0  0  0  0  0  0  0  0  0  0  0
  133.1900  119.1580   60.4240 C   0  0  0  0  0  0  0  0  0  0  0  0
  133.5470  120.4460   60.8130 C   0  0  0  0  0  0  0  0  0  0  0  0
  129.2290  124.5730   57.5790 C   0  0  0  0  0  0  0  0  0  0  0  0
  128.1970  123.8240   57.0190 C   0  0  0  0  0  0  0  0  0  0  0  0
  1  2  1  0
  2  3  1  0
  3  4  1  0
  4  5  2  0
  5  6  1  0
  6  7  2  0
  7  8  1  0
  8  9  2  0
  8 10  1  0
 10 11  1  0
 11 12  1  0
 12 13  2  0
 13 14  1  0
 14 15  2  0
 15 16  1  0
 16 17  1  0
 17 18  1  0
 18 19  2  0
 19 20  1  0
 20 21  2  0
 21 22  1  0
 22 23  1  0
 22 24  1  0
 22 25  1  0
 21 26  1  0
 26 27  2  0
 15 28  1  0
 28 29  1  0
 29 30  2  0
 30 31  1  0
 31 32  2  0
 32 33  1  0
 33 34  1  0
 32 35  1  0
 35 36  2  0
  7 37  1  0
 37 38  2  0
 38  4  1  0
 28 12  1  0
 36 29  1  0
 27 18  1  0
M  END
>  <Binding energies>  (72) 
[-7.61]

>  <Ligand effiencies>  (72) 
[-0.19512820512820514]

>  <Interactions>  (72) 
["V-B:PRO:540:CB:9857, V-A:ILE:369:CG2:3236, V-B:TYR:539:CE2:9848, V-B:PRO:540:N:9856, V-B:TYR:539:CZ:9849, V-B:TYR:539:CD2:9846, V-B:PRO:540:CA:9855, V-A:PRO:482:CG:4326, V-B:MET:535:CE:9807, H-B:TYR:539:N:9842, V-A:LEU:475:CD1:4257, V-B:ALA:541:CA:9862, V-B:TYR:539:C:9839, V-B:ALA:541:CB:9864, V-B:GLU:543:CD:9880, V-A:GLY:454:CA:4048, V-A:HIS:383:CE1:3392, H-A:TYR:484:OH:4347, H-A:GLY:454:N:4049, V-B:GLU:543:CG:9879, V-A:ASP:366:CG:3212, V-A:TYR:484:CE2:4345, V-A:ASP:366:CB:3211, V-A:ASP:366:CA:3209, V-A:TYR:484:CZ:4346, V-B:ASP:366:CG:8184, V-B:VAL:344:CG1:7972, V-B:TYR:539:CB:9843, V-B:TYR:539:CA:9841, V-B:PRO:540:CD:9859, V-B:TYR:539:CG:9844, V-B:LEU:363:CD1:8160, H-A:HIS:383:NE2:3393"]

$$$$
RR19_Rahimova_2017
     RDKit          3D

 46 51  0  0  0  0  0  0  0  0999 V2000
  132.1290  127.9150   68.3980 O   0  0  0  0  0  0  0  0  0  0  0  0
  131.1560  127.3750   67.8640 C   0  0  0  0  0  0  0  0  0  0  0  0
  131.1980  126.5140   66.8160 N   0  0  0  0  0  0  0  0  0  0  0  0
  132.2230  125.8360   66.2030 C   0  0  0  0  0  0  0  0  0  0  0  0
  133.8070  125.7070   66.7860 S   0  0  0  0  0  0  0  0  0  0  0  0
  131.7490  125.2800   65.0410 N   0  0  0  0  0  0  0  0  0  0  0  0
  132.2840  124.4120   64.1450 C   0  0  0  0  0  0  0  0  0  0  0  0
  133.3210  123.7600   64.2890 O   0  0  0  0  0  0  0  0  0  0  0  0
  131.4780  124.2910   62.8280 C   0  0  2  0  0  0  0  0  0  0  0  0
  130.0090  124.7980   62.9120 C   0  0  0  0  0  0  0  0  0  0  0  0
  129.0750  124.2570   61.8420 C   0  0  0  0  0  0  0  0  0  0  0  0
  129.4670  124.2290   60.4860 C   0  0  0  0  0  0  0  0  0  0  0  0
  128.6330  123.6590   59.5330 C   0  0  0  0  0  0  0  0  0  0  0  0
  127.4190  123.0980   59.9100 C   0  0  0  0  0  0  0  0  0  0  0  0
  127.0340  123.0920   61.2450 C   0  0  0  0  0  0  0  0  0  0  0  0
  127.8540  123.6540   62.2130 C   0  0  0  0  0  0  0  0  0  0  0  0
  131.5500  122.9110   62.2750 N   0  0  0  0  0  0  0  0  0  0  0  0
  130.7880  121.9020   62.7860 C   0  0  0  0  0  0  0  0  0  0  0  0
  130.0020  121.9660   63.7330 O   0  0  0  0  0  0  0  0  0  0  0  0
  131.0990  120.7110   61.9570 C   0  0  0  0  0  0  0  0  0  0  0  0
  130.6230  119.4020   62.0230 C   0  0  0  0  0  0  0  0  0  0  0  0
  131.0930  118.4700   61.0910 C   0  0  0  0  0  0  0  0  0  0  0  0
  132.0230  118.8550   60.1150 C   0  0  0  0  0  0  0  0  0  0  0  0
  132.4880  120.1740   60.0660 C   0  0  0  0  0  0  0  0  0  0  0  0
  132.0070  121.0870   61.0050 C   0  0  0  0  0  0  0  0  0  0  0  0
  132.3000  122.5290   61.1980 C   0  0  0  0  0  0  0  0  0  0  0  0
  133.0530  123.2310   60.5220 O   0  0  0  0  0  0  0  0  0  0  0  0
  129.7270  127.6830   68.3860 C   0  0  2  0  0  0  0  0  0  0  0  0
  129.0980  126.5280   69.2180 C   0  0  0  0  0  0  0  0  0  0  0  0
  129.0760  126.7870   70.7140 C   0  0  0  0  0  0  0  0  0  0  0  0
  128.7220  125.7530   71.6060 C   0  0  0  0  0  0  0  0  0  0  0  0
  128.8010  125.9620   72.9780 C   0  0  0  0  0  0  0  0  0  0  0  0
  129.2530  127.1770   73.4760 C   0  0  0  0  0  0  0  0  0  0  0  0
  129.6410  128.1910   72.6090 C   0  0  0  0  0  0  0  0  0  0  0  0
  129.5690  128.0020   71.2350 C   0  0  0  0  0  0  0  0  0  0  0  0
  128.7980  128.1580   67.3210 N   0  0  0  0  0  0  0  0  0  0  0  0
  128.2640  129.4110   67.3420 C   0  0  0  0  0  0  0  0  0  0  0  0
  128.4390  130.2820   68.1950 O   0  0  0  0  0  0  0  0  0  0  0  0
  127.4290  129.5030   66.1190 C   0  0  0  0  0  0  0  0  0  0  0  0
  126.6440  130.5460   65.6250 C   0  0  0  0  0  0  0  0  0  0  0  0
  125.9530  130.3530   64.4230 C   0  0  0  0  0  0  0  0  0  0  0  0
  126.0560  129.1350   63.7370 C   0  0  0  0  0  0  0  0  0  0  0  0
  126.8500  128.1030   64.2480 C   0  0  0  0  0  0  0  0  0  0  0  0
  127.5290  128.3150   65.4500 C   0  0  0  0  0  0  0  0  0  0  0  0
  128.4310  127.4290   66.2250 C   0  0  0  0  0  0  0  0  0  0  0  0
  128.7770  126.2820   65.9400 O   0  0  0  0  0  0  0  0  0  0  0  0
  1  2  2  0
  2  3  1  0
  3  4  1  0
  4  5  2  0
  4  6  1  0
  6  7  1  0
  7  8  2  0
  7  9  1  0
  9 10  1  1
 10 11  1  0
 11 12  2  0
 12 13  1  0
 13 14  2  0
 14 15  1  0
 15 16  2  0
  9 17  1  0
 17 18  1  0
 18 19  2  0
 18 20  1  0
 20 21  2  0
 21 22  1  0
 22 23  2  0
 23 24  1  0
 24 25  2  0
 25 26  1  0
 26 27  2  0
  2 28  1  0
 28 29  1  6
 29 30  1  0
 30 31  2  0
 31 32  1  0
 32 33  2  0
 33 34  1  0
 34 35  2  0
 28 36  1  0
 36 37  1  0
 37 38  2  0
 37 39  1  0
 39 40  2  0
 40 41  1  0
 41 42  2  0
 42 43  1  0
 43 44  2  0
 44 45  1  0
 45 46  2  0
 16 11  1  0
 26 17  1  0
 35 30  1  0
 45 36  1  0
 25 20  1  0
 44 39  1  0
M  END
>  <Binding energies>  (73) 
[-10.85]

>  <Ligand effiencies>  (73) 
[-0.22604166666666667]

>  <Interactions>  (73) 
["V-B:PRO:540:CB:9857, V-A:ILE:369:CG2:3236, V-B:TYR:539:CE2:9848, V-B:TYR:539:CD2:9846, V-B:PRO:540:CA:9855, V-A:PRO:482:CG:4326, V-A:PRO:482:CB:4325, V-A:LEU:475:CD1:4257, V-B:ALA:541:CB:9864, V-B:GLU:543:CD:9880, V-A:ARG:545:CD:4923, V-A:ARG:545:CZ:4926, V-A:GLU:543:CB:4906, H-B:TYR:484:OH:9319, V-A:HIS:456:CE1:4069, V-A:ARG:545:CG:4922, V-B:HIS:456:CE1:9041, V-B:ARG:545:CZ:9898, H-A:TYR:484:OH:4347, H-A:GLY:454:N:4049, V-B:TYR:484:CZ:9318, H-A:GLU:543:OE1:4909, V-B:TYR:484:CE2:9317, V-B:GLU:543:CG:9879, V-A:GLU:543:CD:4908, V-A:GLU:543:CG:4907, V-B:GLU:543:C:9874, V-B:HIS:456:CD2:9039, H-A:HIS:456:ND1:4066"]

$$$$
RR1_Rahimova_2017
     RDKit          3D

 41 44  0  0  0  0  0  0  0  0999 V2000
  133.7010  125.3950   66.1760 C   0  0  0  0  0  0  0  0  0  0  0  0
  133.9490  124.9710   64.8400 O   0  0  0  0  0  0  0  0  0  0  0  0
  132.9500  125.1020   63.8950 C   0  0  0  0  0  0  0  0  0  0  0  0
  131.8260  125.9300   64.0420 C   0  0  0  0  0  0  0  0  0  0  0  0
  130.8640  125.9920   63.0370 C   0  0  0  0  0  0  0  0  0  0  0  0
  131.0110  125.2380   61.8720 C   0  0  0  0  0  0  0  0  0  0  0  0
  129.9640  125.3330   60.9350 N   0  0  0  0  0  0  0  0  0  0  0  0
  130.0220  125.3560   59.5870 C   0  0  0  0  0  0  0  0  0  0  0  0
  131.0630  125.3660   58.9290 O   0  0  0  0  0  0  0  0  0  0  0  0
  128.6530  125.3770   58.8880 C   0  0  0  0  0  0  0  0  0  0  0  0
  128.1430  123.8020   58.1160 S   0  0  0  0  0  0  0  0  0  0  0  0
  128.8210  122.7120   59.3230 C   0  0  0  0  0  0  0  0  0  0  0  0
  129.9480  122.0630   59.1780 N   0  0  0  0  0  0  0  0  0  0  0  0
  130.0730  121.3860   60.3150 C   0  0  0  0  0  0  0  0  0  0  0  0
  131.2520  120.4980   60.5960 C   0  0  0  0  0  0  0  0  0  0  0  0
  132.4990  121.0280   60.9660 C   0  0  0  0  0  0  0  0  0  0  0  0
  133.5770  120.1780   61.2180 C   0  0  0  0  0  0  0  0  0  0  0  0
  133.3830  118.8040   61.0940 C   0  0  0  0  0  0  0  0  0  0  0  0
  132.1930  118.2580   60.7390 N   0  0  0  0  0  0  0  0  0  0  0  0
  131.1570  119.1010   60.4990 C   0  0  0  0  0  0  0  0  0  0  0  0
  129.0920  121.5490   61.1820 N   0  0  0  0  0  0  0  0  0  0  0  0
  128.2830  122.4020   60.5450 N   0  0  0  0  0  0  0  0  0  0  0  0
  127.0550  122.8770   61.1820 C   0  0  0  0  0  0  0  0  0  0  0  0
  127.2110  124.1580   62.0200 C   0  0  0  0  0  0  0  0  0  0  0  0
  128.0810  124.2400   62.8950 O   0  0  0  0  0  0  0  0  0  0  0  0
  126.3390  125.1410   61.7240 N   0  0  0  0  0  0  0  0  0  0  0  0
  126.5130  126.3750   62.3340 N   0  0  0  0  0  0  0  0  0  0  0  0
  126.6880  127.4530   61.5390 C   0  0  0  0  0  0  0  0  0  0  0  0
  126.6010  127.4260   60.3070 O   0  0  0  0  0  0  0  0  0  0  0  0
  126.9810  128.7560   62.2550 C   0  0  0  0  0  0  0  0  0  0  0  0
  126.1800  129.1580   63.3290 C   0  0  0  0  0  0  0  0  0  0  0  0
  126.4230  130.3560   63.9930 C   0  0  0  0  0  0  0  0  0  0  0  0
  127.4760  131.1950   63.5970 C   0  0  0  0  0  0  0  0  0  0  0  0
  127.7640  132.4040   64.2050 O   0  0  0  0  0  0  0  0  0  0  0  0
  127.9800  132.4480   65.6110 C   0  0  0  0  0  0  0  0  0  0  0  0
  128.2860  130.8140   62.5190 C   0  0  0  0  0  0  0  0  0  0  0  0
  129.2990  131.6860   62.1550 O   0  0  0  0  0  0  0  0  0  0  0  0
  130.5160  131.1710   61.6260 C   0  0  0  0  0  0  0  0  0  0  0  0
  128.0340  129.5970   61.8600 C   0  0  0  0  0  0  0  0  0  0  0  0
  132.1340  124.4100   61.7210 C   0  0  0  0  0  0  0  0  0  0  0  0
  133.0930  124.3510   62.7280 C   0  0  0  0  0  0  0  0  0  0  0  0
  1  2  1  0
  2  3  1  0
  3  4  2  0
  4  5  1  0
  5  6  2  0
  6  7  1  0
  7  8  1  0
  8  9  2  0
  8 10  1  0
 10 11  1  0
 11 12  1  0
 12 13  2  0
 13 14  1  0
 14 15  1  0
 15 16  2  0
 16 17  1  0
 17 18  2  0
 18 19  1  0
 19 20  2  0
 14 21  2  0
 21 22  1  0
 22 23  1  0
 23 24  1  0
 24 25  2  0
 24 26  1  0
 26 27  1  0
 27 28  1  0
 28 29  2  0
 28 30  1  0
 30 31  2  0
 31 32  1  0
 32 33  2  0
 33 34  1  0
 34 35  1  0
 33 36  1  0
 36 37  1  0
 37 38  1  0
 36 39  2  0
  6 40  1  0
 40 41  2  0
 41  3  1  0
 22 12  1  0
 39 30  1  0
 20 15  1  0
M  END
>  <Binding energies>  (74) 
[-7.57]

>  <Ligand effiencies>  (74) 
[-0.17204545454545456]

>  <Interactions>  (74) 
["V-B:PRO:540:CB:9857, V-A:ILE:369:CG2:3236, V-B:TYR:539:CE2:9848, V-B:TYR:539:CD2:9846, V-B:PRO:540:CA:9855, V-B:PRO:540:C:9853, V-A:LEU:475:CD1:4257, H-B:ALA:541:N:9863, V-A:SER:385:CB:3408, V-A:SER:385:CA:3406, V-A:SER:385:C:3404, V-B:GLU:543:CD:9880, V-A:ARG:545:CD:4923, V-A:ARG:545:CZ:4926, V-A:ARG:545:CG:4922, H-A:TYR:484:OH:4347, H-A:ALA:541:N:4891, H-A:GLY:454:N:4049, V-B:TYR:484:CZ:9318, V-A:ALA:541:CB:4892, V-B:TYR:484:CE2:9317, V-A:GLU:543:CD:4908, V-A:GLU:543:CG:4907, H-B:GLU:543:OE2:9882, H-A:ARG:545:NH1:4927, V-B:ASP:366:CG:8184, H-A:ARG:545:NH2:4928, H-A:ARG:545:NE:4924, V-B:LEU:475:CD1:9229, H-B:GLU:543:OE1:9881, H-B:ASP:366:OD1:8185, H-A:HIS:383:NE2:3393, H-A:SER:385:OG:3409, V-B:LEU:475:CD2:9230"]

$$$$
RR22_Rahimova_2017
     RDKit          3D

 31 36  0  0  0  0  0  0  0  0999 V2000
  123.8810  129.5720   56.2570 O   0  0  0  0  0  0  0  0  0  0  0  0
  124.7600  129.6890   57.1070 C   0  0  0  0  0  0  0  0  0  0  0  0
  124.6170  129.6320   58.4830 N   0  0  0  0  0  0  0  0  0  0  0  0
  125.7600  129.7280   59.3380 C   0  0  1  0  0  0  0  0  0  0  0  0
  125.4760  130.8160   60.2220 O   0  0  0  0  0  0  0  0  0  0  0  0
  125.4370  130.5630   61.5940 C   0  0  0  0  0  0  0  0  0  0  0  0
  124.8090  131.5230   62.3860 C   0  0  0  0  0  0  0  0  0  0  0  0
  124.7660  131.3600   63.7710 C   0  0  0  0  0  0  0  0  0  0  0  0
  125.3570  130.2420   64.3610 C   0  0  0  0  0  0  0  0  0  0  0  0
  125.9870  129.2810   63.5680 C   0  0  0  0  0  0  0  0  0  0  0  0
  126.0160  129.4190   62.1770 C   0  0  0  0  0  0  0  0  0  0  0  0
  126.7080  128.4590   61.2360 C   0  0  1  0  0  0  0  0  0  0  0  0
  126.8130  126.9740   61.5200 C   0  0  0  0  0  0  0  0  0  0  0  0
  126.8300  126.4340   60.0870 C   0  0  0  0  0  0  0  0  0  0  0  0
  127.3050  125.0770   59.7510 C   0  0  0  0  0  0  0  0  0  0  0  0
  127.5220  124.7080   58.4150 C   0  0  0  0  0  0  0  0  0  0  0  0
  127.9700  123.4270   58.1040 C   0  0  0  0  0  0  0  0  0  0  0  0
  128.2040  122.5090   59.1240 C   0  0  0  0  0  0  0  0  0  0  0  0
  127.9940  122.8600   60.4550 C   0  0  0  0  0  0  0  0  0  0  0  0
  127.5470  124.1410   60.7680 C   0  0  0  0  0  0  0  0  0  0  0  0
  126.3650  127.2960   59.2630 N   0  0  0  0  0  0  0  0  0  0  0  0
  125.9890  128.4330   59.9980 N   0  0  0  0  0  0  0  0  0  0  0  0
  126.9260  130.1580   58.4600 C   0  0  0  0  0  0  0  0  0  0  0  0
  128.0730  130.6760   58.9590 C   0  0  0  0  0  0  0  0  0  0  0  0
  129.2790  131.1120   58.2300 C   0  0  0  0  0  0  0  0  0  0  0  0
  130.5690  130.6620   58.5420 C   0  0  0  0  0  0  0  0  0  0  0  0
  131.6650  131.1190   57.8080 C   0  0  0  0  0  0  0  0  0  0  0  0
  131.4400  132.0280   56.7740 C   0  0  0  0  0  0  0  0  0  0  0  0
  130.2040  132.4870   56.4540 N   0  0  0  0  0  0  0  0  0  0  0  0
  129.1510  132.0300   57.1800 C   0  0  0  0  0  0  0  0  0  0  0  0
  126.5190  129.9780   56.7470 S   0  0  0  0  0  0  0  0  0  0  0  0
  1  2  2  0
  2  3  1  0
  4  3  1  6
  4  5  1  0
  5  6  1  0
  6  7  2  0
  7  8  1  0
  8  9  2  0
  9 10  1  0
 10 11  2  0
 11 12  1  0
 12 13  1  1
 13 14  1  0
 14 15  1  0
 15 16  2  0
 16 17  1  0
 17 18  2  0
 18 19  1  0
 19 20  2  0
 14 21  2  0
 21 22  1  0
  4 23  1  0
 23 24  2  0
 24 25  1  0
 25 26  2  0
 26 27  1  0
 27 28  2  0
 28 29  1  0
 29 30  2  0
 23 31  1  0
 31  2  1  0
 22  4  1  0
 30 25  1  0
 11  6  1  0
 22 12  1  0
 20 15  1  0
M  END
>  <Binding energies>  (75) 
[-8.62]

>  <Ligand effiencies>  (75) 
[-0.269375]

>  <Interactions>  (75) 
["V-B:PRO:540:N:9856, V-B:PRO:540:CA:9855, V-B:MET:535:CE:9807, H-B:TYR:531:OH:9767, V-B:TYR:539:C:9839, V-B:ASP:366:CB:8183, V-B:ASP:366:CA:8181, V-A:TYR:539:CE1:4875, V-B:ASP:366:CG:8184, V-A:TYR:539:C:4867, H-A:TYR:539:N:4870, V-A:PRO:540:CA:4883, V-A:TYR:539:CD1:4873, V-B:TYR:531:CZ:9766, V-A:PRO:540:CB:4885, V-A:TYR:539:CG:4872, V-A:TYR:539:CZ:4877, V-A:PRO:540:N:4884, V-B:LEU:475:CD1:9229, V-B:GLY:454:CA:9020, V-B:TYR:531:CE1:9764, H-B:ASP:366:OD2:8186, V-B:ASP:366:C:8179, V-A:PRO:540:CD:4887, H-A:TYR:539:OH:4878, H-B:ASP:366:O:8180"]

$$$$
RR24_Rahimova_2017
     RDKit          3D

 43 49  0  0  0  0  0  0  0  0999 V2000
  127.1770  121.9700   57.0470 C   0  0  0  0  0  0  0  0  0  0  0  0
  127.1960  123.0190   58.1690 C   0  0  2  0  0  0  0  0  0  0  0  0
  126.6800  124.4150   57.7120 C   0  0  0  0  0  0  0  0  0  0  0  0
  125.4910  124.7380   57.8050 O   0  0  0  0  0  0  0  0  0  0  0  0
  127.6720  125.1940   57.1900 O   0  0  0  0  0  0  0  0  0  0  0  0
  127.9280  126.4290   57.7410 C   0  0  0  0  0  0  0  0  0  0  0  0
  127.7810  126.6080   59.1180 C   0  0  0  0  0  0  0  0  0  0  0  0
  128.0460  127.8490   59.6880 C   0  0  0  0  0  0  0  0  0  0  0  0
  128.4680  128.9140   58.8870 C   0  0  0  0  0  0  0  0  0  0  0  0
  128.7400  130.2850   59.5190 C   0  0  1  0  0  0  0  0  0  0  0  0
  127.8460  130.5400   60.7540 C   0  0  0  0  0  0  0  0  0  0  0  0
  128.3390  130.9380   61.9410 C   0  0  0  0  0  0  0  0  0  0  0  0
  129.6810  131.1470   62.1430 N   0  0  0  0  0  0  0  0  0  0  0  0
  130.5940  130.9560   61.1330 C   0  0  0  0  0  0  0  0  0  0  0  0
  131.8780  131.2130   61.4930 N   0  0  0  0  0  0  0  0  0  0  0  0
  132.9260  131.0040   60.6500 C   0  0  0  0  0  0  0  0  0  0  0  0
  134.0670  130.9440   61.1110 O   0  0  0  0  0  0  0  0  0  0  0  0
  132.5540  130.7110   59.3470 N   0  0  0  0  0  0  0  0  0  0  0  0
  133.6530  130.5650   58.3700 C   0  0  0  0  0  0  0  0  0  0  0  0
  131.2830  130.4290   58.8740 C   0  0  0  0  0  0  0  0  0  0  0  0
  131.0310  130.1230   57.7050 O   0  0  0  0  0  0  0  0  0  0  0  0
  130.2310  130.5480   59.8890 C   0  0  0  0  0  0  0  0  0  0  0  0
  127.2740  131.0990   62.9170 C   0  0  0  0  0  0  0  0  0  0  0  0
  127.2630  131.4800   64.2590 C   0  0  0  0  0  0  0  0  0  0  0  0
  126.0450  131.5390   64.9410 C   0  0  0  0  0  0  0  0  0  0  0  0
  124.8530  131.2210   64.2820 C   0  0  0  0  0  0  0  0  0  0  0  0
  124.8710  130.8400   62.9380 C   0  0  0  0  0  0  0  0  0  0  0  0
  126.0910  130.7810   62.2620 C   0  0  0  0  0  0  0  0  0  0  0  0
  126.3960  130.4190   60.8620 C   0  0  0  0  0  0  0  0  0  0  0  0
  125.6380  130.0840   59.9530 O   0  0  0  0  0  0  0  0  0  0  0  0
  128.6330  128.7270   57.5110 C   0  0  0  0  0  0  0  0  0  0  0  0
  128.3690  127.4850   56.9400 C   0  0  0  0  0  0  0  0  0  0  0  0
  128.5250  123.0970   58.8420 N   0  0  0  0  0  0  0  0  0  0  0  0
  128.6850  122.7450   60.1490 C   0  0  0  0  0  0  0  0  0  0  0  0
  127.8160  122.3450   60.9270 O   0  0  0  0  0  0  0  0  0  0  0  0
  130.1260  122.9470   60.4400 C   0  0  0  0  0  0  0  0  0  0  0  0
  130.8580  122.7500   61.6120 C   0  0  0  0  0  0  0  0  0  0  0  0
  132.2300  123.0240   61.5970 C   0  0  0  0  0  0  0  0  0  0  0  0
  132.8470  123.4820   60.4270 C   0  0  0  0  0  0  0  0  0  0  0  0
  132.0960  123.6720   59.2610 C   0  0  0  0  0  0  0  0  0  0  0  0
  130.7290  123.3950   59.2960 C   0  0  0  0  0  0  0  0  0  0  0  0
  129.6890  123.4930   58.2410 C   0  0  0  0  0  0  0  0  0  0  0  0
  129.8440  123.8510   57.0730 O   0  0  0  0  0  0  0  0  0  0  0  0
  2  1  1  6
  2  3  1  0
  3  4  2  0
  3  5  1  0
  5  6  1  0
  6  7  2  0
  7  8  1  0
  8  9  2  0
 10  9  1  1
 10 11  1  0
 11 12  2  0
 12 13  1  0
 13 14  1  0
 14 15  1  0
 15 16  1  0
 16 17  2  0
 16 18  1  0
 18 19  1  0
 18 20  1  0
 20 21  2  0
 20 22  1  0
 12 23  1  0
 23 24  2  0
 24 25  1  0
 25 26  2  0
 26 27  1  0
 27 28  2  0
 28 29  1  0
 29 30  2  0
  9 31  1  0
 31 32  2  0
  2 33  1  0
 33 34  1  0
 34 35  2  0
 34 36  1  0
 36 37  2  0
 37 38  1  0
 38 39  2  0
 39 40  1  0
 40 41  2  0
 41 42  1  0
 42 43  2  0
 32  6  1  0
 42 33  1  0
 22 10  1  0
 28 23  1  0
 41 36  1  0
 29 11  1  0
 22 14  2  0
M  END
>  <Binding energies>  (76) 
[-9.71]

>  <Ligand effiencies>  (76) 
[-0.2157777777777778]

>  <Interactions>  (76) 
["V-B:TYR:539:CE2:9848, V-B:PRO:540:N:9856, V-B:TYR:539:CZ:9849, V-B:TYR:539:CD2:9846, V-B:PRO:540:CA:9855, V-B:MET:535:CE:9807, H-B:ALA:541:N:9863, H-B:TYR:531:OH:9767, V-B:TYR:539:C:9839, V-B:TYR:484:CZ:9318, V-A:ALA:541:CB:4892, H-A:GLU:543:OE1:4909, V-B:TYR:484:CE2:9317, V-A:GLU:543:CD:4908, V-A:GLU:543:CG:4907, V-A:ASP:366:CG:3212, V-A:ASP:366:CB:3211, V-A:PRO:540:CA:4883, H-A:GLU:543:OE2:4910, H-A:ARG:545:NH2:4928, V-B:TYR:539:CA:9841, V-B:PRO:540:CD:9859, V-A:PRO:540:CB:4885, V-A:LEU:363:CD1:3188, V-A:ASN:362:CB:3175, V-A:LEU:363:CA:3184, V-A:LEU:363:CB:3186, V-B:LEU:475:CD1:9229, V-B:GLY:454:CA:9020, H-B:TYR:539:OH:9850, H-A:ALA:541:O:4889, H-A:LEU:363:N:3185"]

$$$$
RR25_Rahimova_2017
     RDKit          3D

 39 44  0  0  0  0  0  0  0  0999 V2000
  126.9730  122.4190   60.8690 O   0  0  0  0  0  0  0  0  0  0  0  0
  127.8680  123.1310   61.3260 C   0  0  0  0  0  0  0  0  0  0  0  0
  128.5860  122.6060   62.3720 O   0  0  0  0  0  0  0  0  0  0  0  0
  129.7630  123.1900   62.8050 C   0  0  0  0  0  0  0  0  0  0  0  0
  130.6810  122.3550   63.4400 C   0  0  0  0  0  0  0  0  0  0  0  0
  131.8840  122.8790   63.9090 C   0  0  0  0  0  0  0  0  0  0  0  0
  132.1840  124.2400   63.7540 C   0  0  0  0  0  0  0  0  0  0  0  0
  133.4690  124.7930   64.2470 N   0  0  0  0  0  0  0  0  0  0  0  0
  134.3550  125.0380   63.4320 O   0  0  0  0  0  0  0  0  0  0  0  0
  133.6020  124.9870   65.4520 O   0  0  0  0  0  0  0  0  0  0  0  0
  131.2410  125.0670   63.1230 C   0  0  0  0  0  0  0  0  0  0  0  0
  130.0260  124.5590   62.6540 C   0  0  0  0  0  0  0  0  0  0  0  0
  128.9790  125.4080   61.9560 C   0  0  0  0  0  0  0  0  0  0  0  0
  128.2630  124.5640   60.8640 C   0  0  2  0  0  0  0  0  0  0  0  0
  127.1150  125.3730   60.1940 C   0  0  0  0  0  0  0  0  0  0  0  0
  126.1190  124.7250   59.8580 O   0  0  0  0  0  0  0  0  0  0  0  0
  127.1460  126.7360   60.0960 N   0  0  0  0  0  0  0  0  0  0  0  0
  128.3980  127.5170   60.1850 C   0  0  0  0  0  0  0  0  0  0  0  0
  128.1130  128.8390   60.9280 C   0  0  0  0  0  0  0  0  0  0  0  0
  127.0220  129.5850   60.2940 N   0  0  0  0  0  0  0  0  0  0  0  0
  126.8370  130.9020   60.9180 C   0  0  0  0  0  0  0  0  0  0  0  0
  127.5640  132.0390   60.1510 C   0  0  0  0  0  0  0  0  0  0  0  0
  128.9870  131.7770   59.7840 N   0  0  0  0  0  0  0  0  0  0  0  0
  129.8710  131.7430   60.8410 C   0  0  0  0  0  0  0  0  0  0  0  0
  129.5340  131.9500   62.0130 O   0  0  0  0  0  0  0  0  0  0  0  0
  131.3000  131.4110   60.4580 C   0  0  0  0  0  0  0  0  0  0  0  0
  132.2780  131.3250   61.4580 C   0  0  0  0  0  0  0  0  0  0  0  0
  133.6000  131.0140   61.1430 C   0  0  0  0  0  0  0  0  0  0  0  0
  133.9850  130.7760   59.8250 C   0  0  0  0  0  0  0  0  0  0  0  0
  133.0320  130.8520   58.7810 C   0  0  0  0  0  0  0  0  0  0  0  0
  133.3540  130.6220   57.4230 C   0  0  0  0  0  0  0  0  0  0  0  0
  132.3660  130.7100   56.4440 C   0  0  0  0  0  0  0  0  0  0  0  0
  131.0510  131.0250   56.7810 C   0  0  0  0  0  0  0  0  0  0  0  0
  130.6860  131.2610   58.1130 C   0  0  0  0  0  0  0  0  0  0  0  0
  131.6860  131.1730   59.1140 C   0  0  0  0  0  0  0  0  0  0  0  0
  129.2420  131.5930   58.4400 C   0  0  0  0  0  0  0  0  0  0  0  0
  128.3730  131.6730   57.5660 O   0  0  0  0  0  0  0  0  0  0  0  0
  125.7910  128.7920   60.3310 C   0  0  0  0  0  0  0  0  0  0  0  0
  125.9540  127.4490   59.5800 C   0  0  0  0  0  0  0  0  0  0  0  0
  1  2  2  0
  2  3  1  0
  3  4  1  0
  4  5  2  0
  5  6  1  0
  6  7  2  0
  7  8  1  0
  8  9  2  0
  8 10  1  0
  7 11  1  0
 11 12  2  0
 12 13  1  0
 13 14  1  0
 14 15  1  1
 15 16  2  0
 15 17  1  0
 17 18  1  0
 18 19  1  0
 19 20  1  0
 20 21  1  0
 21 22  1  0
 22 23  1  0
 23 24  1  0
 24 25  2  0
 24 26  1  0
 26 27  2  0
 27 28  1  0
 28 29  2  0
 29 30  1  0
 30 31  2  0
 31 32  1  0
 32 33  2  0
 33 34  1  0
 34 35  2  0
 34 36  1  0
 36 37  2  0
 20 38  1  0
 38 39  1  0
 14  2  1  0
 39 17  1  0
 12  4  1  0
 36 23  1  0
 35 26  1  0
 35 30  1  0
M  CHG  2   8   1  10  -1
M  END
>  <Binding energies>  (77) 
[-10.46]

>  <Ligand effiencies>  (77) 
[-0.2682051282051282]

>  <Interactions>  (77) 
["V-B:PRO:540:CA:9855, V-A:LEU:475:CD1:4257, H-B:ALA:541:N:9863, V-B:ALA:541:CB:9864, V-A:ARG:545:CZ:4926, V-A:GLY:454:CA:4048, H-A:TYR:484:OH:4347, H-A:ALA:541:N:4891, H-A:GLY:454:N:4049, V-A:GLU:543:CD:4908, V-A:ASP:366:CG:3212, H-A:ARG:545:NH1:4927, V-A:ASP:366:CB:3211, V-B:ASP:366:CB:8183, V-A:TYR:539:CE1:4875, V-B:ASP:366:CG:8184, V-A:TYR:539:C:4867, V-A:PRO:540:CA:4883, H-A:ARG:545:NH2:4928, V-A:TYR:539:CD1:4873, H-A:ARG:545:NE:4924, V-A:PRO:540:CB:4885, V-A:PRO:540:N:4884, V-A:PRO:540:C:4881, V-A:ASN:362:C:3171, V-A:LEU:363:CD1:3188, V-A:ASN:362:CB:3175, V-A:LEU:363:CA:3184, V-A:LEU:363:CB:3186, V-A:ASN:362:CA:3173, V-A:TYR:531:CZ:4794, V-A:TYR:531:CE2:4793"]

$$$$
RR27_Rahimova_2017
     RDKit          3D

 39 44  0  0  0  0  0  0  0  0999 V2000
  128.4690  121.9940   61.9850 O   0  0  0  0  0  0  0  0  0  0  0  0
  129.1060  122.6580   61.1620 C   0  0  0  0  0  0  0  0  0  0  0  0
  130.6410  122.4240   61.0550 C   0  0  0  0  0  0  0  0  0  0  0  0
  131.0210  120.9350   60.9550 C   0  0  0  0  0  0  0  0  0  0  0  0
  132.2100  120.5130   60.3410 C   0  0  0  0  0  0  0  0  0  0  0  0
  132.5230  119.1590   60.2700 C   0  0  0  0  0  0  0  0  0  0  0  0
  131.6500  118.2200   60.8120 C   0  0  0  0  0  0  0  0  0  0  0  0
  130.4650  118.6230   61.4220 C   0  0  0  0  0  0  0  0  0  0  0  0
  130.1520  119.9770   61.4930 C   0  0  0  0  0  0  0  0  0  0  0  0
  131.4170  123.2210   62.1220 C   0  0  0  0  0  0  0  0  0  0  0  0
  130.7860  123.7260   63.2670 C   0  0  0  0  0  0  0  0  0  0  0  0
  131.5150  124.4530   64.2060 C   0  0  0  0  0  0  0  0  0  0  0  0
  132.8730  124.6800   64.0010 C   0  0  0  0  0  0  0  0  0  0  0  0
  133.5090  124.1930   62.8630 C   0  0  0  0  0  0  0  0  0  0  0  0
  132.7810  123.4690   61.9250 C   0  0  0  0  0  0  0  0  0  0  0  0
  128.4830  123.4660   60.2580 N   0  0  0  0  0  0  0  0  0  0  0  0
  129.1890  124.4600   59.4370 C   0  0  0  0  0  0  0  0  0  0  0  0
  129.2570  125.7600   60.2680 C   0  0  0  0  0  0  0  0  0  0  0  0
  127.8510  126.2440   60.7470 C   0  0  0  0  0  0  0  0  0  0  0  0
  127.8730  127.4740   61.6730 C   0  0  0  0  0  0  0  0  0  0  0  0
  127.4100  127.2860   62.9440 N   0  0  0  0  0  0  0  0  0  0  0  0
  127.4330  128.3350   63.8120 C   0  0  0  0  0  0  0  0  0  0  0  0
  127.0010  128.2680   65.1100 O   0  0  0  0  0  0  0  0  0  0  0  0
  127.9310  129.5730   63.3620 C   0  0  0  0  0  0  0  0  0  0  0  0
  128.0970  130.7910   63.9530 N   0  0  0  0  0  0  0  0  0  0  0  0
  128.6330  131.6390   63.0020 N   0  0  0  0  0  0  0  0  0  0  0  0
  128.8010  130.9540   61.8520 N   0  0  0  0  0  0  0  0  0  0  0  0
  129.3320  131.6180   60.6640 C   0  0  0  0  0  0  0  0  0  0  0  0
  130.8210  131.3840   60.4460 C   0  0  0  0  0  0  0  0  0  0  0  0
  131.7220  131.5470   61.5030 C   0  0  0  0  0  0  0  0  0  0  0  0
  133.0850  131.3220   61.3050 C   0  0  0  0  0  0  0  0  0  0  0  0
  133.5540  130.9280   60.0530 C   0  0  0  0  0  0  0  0  0  0  0  0
  132.6590  130.7530   58.9960 C   0  0  0  0  0  0  0  0  0  0  0  0
  133.2330  130.2390   57.4510 Cl  0  0  0  0  0  0  0  0  0  0  0  0
  131.2970  130.9860   59.1910 C   0  0  0  0  0  0  0  0  0  0  0  0
  128.3710  129.6490   62.0230 C   0  0  0  0  0  0  0  0  0  0  0  0
  128.3530  128.6390   61.1490 N   0  0  0  0  0  0  0  0  0  0  0  0
  126.9880  125.0690   61.3000 C   0  0  0  0  0  0  0  0  0  0  0  0
  127.0580  123.7950   60.4200 C   0  0  0  0  0  0  0  0  0  0  0  0
  1  2  2  0
  2  3  1  0
  3  4  1  0
  4  5  2  0
  5  6  1  0
  6  7  2  0
  7  8  1  0
  8  9  2  0
  3 10  1  0
 10 11  2  0
 11 12  1  0
 12 13  2  0
 13 14  1  0
 14 15  2  0
  2 16  1  0
 16 17  1  0
 17 18  1  0
 18 19  1  0
 19 20  1  0
 20 21  2  0
 21 22  1  0
 22 23  1  0
 22 24  2  0
 24 25  1  0
 25 26  2  0
 26 27  1  0
 27 28  1  0
 28 29  1  0
 29 30  2  0
 30 31  1  0
 31 32  2  0
 32 33  1  0
 33 34  1  0
 33 35  2  0
 27 36  1  0
 36 37  2  0
 19 38  1  0
 38 39  1  0
  9  4  1  0
 15 10  1  0
 39 16  1  0
 37 20  1  0
 36 24  1  0
 35 29  1  0
M  END
>  <Binding energies>  (78) 
[-10.18]

>  <Ligand effiencies>  (78) 
[-0.2545]

>  <Interactions>  (78) 
["V-A:ILE:369:CG2:3236, V-B:TYR:539:CE2:9848, V-B:TYR:539:CD2:9846, V-A:PRO:482:CG:4326, V-A:PRO:482:CB:4325, V-A:LEU:475:CD1:4257, H-B:ALA:541:N:9863, V-B:ALA:541:CA:9862, V-B:ALA:541:CB:9864, V-B:GLU:543:CD:9880, V-A:ARG:545:CZ:4926, H-B:ARG:545:NH2:9900, V-A:GLU:543:CD:4908, V-A:ASP:366:CG:3212, H-B:GLU:543:OE2:9882, V-A:ASP:366:CB:3211, V-A:PRO:540:CA:4883, V-A:PRO:540:CB:4885, V-A:PRO:540:C:4881, V-A:ASN:362:C:3171, V-A:ALA:541:CA:4890, V-A:LEU:363:CD1:3188, V-A:ASN:362:CB:3175, V-A:LEU:363:CA:3184"]

$$$$
RR28_Rahimova_2017
     RDKit          3D

 46 49  0  0  0  0  0  0  0  0999 V2000
  131.1240  118.0330   60.8260 C   0  0  0  0  0  0  0  0  0  0  0  0
  130.6010  119.4310   61.1350 C   0  0  0  0  0  0  0  0  0  0  0  0
  129.5080  119.5640   61.6820 O   0  0  0  0  0  0  0  0  0  0  0  0
  131.3970  120.4600   60.7770 N   0  0  0  0  0  0  0  0  0  0  0  0
  131.1490  121.9100   60.9430 C   0  0  0  0  0  0  0  0  0  0  0  0
  129.7940  122.2530   60.2610 C   0  0  0  0  0  0  0  0  0  0  0  0
  129.7370  122.3760   58.8640 C   0  0  0  0  0  0  0  0  0  0  0  0
  128.5430  122.6870   58.2210 C   0  0  0  0  0  0  0  0  0  0  0  0
  127.3760  122.8820   58.9610 C   0  0  0  0  0  0  0  0  0  0  0  0
  126.0750  123.2270   58.2370 C   0  0  0  0  0  0  0  0  0  0  0  0
  125.6760  122.2510   57.4190 F   0  0  0  0  0  0  0  0  0  0  0  0
  125.1000  123.4480   59.1190 F   0  0  0  0  0  0  0  0  0  0  0  0
  126.2560  124.3310   57.5120 F   0  0  0  0  0  0  0  0  0  0  0  0
  127.4190  122.7640   60.3530 C   0  0  0  0  0  0  0  0  0  0  0  0
  128.6140  122.4540   60.9950 C   0  0  0  0  0  0  0  0  0  0  0  0
  132.3620  122.7410   60.3910 C   0  0  0  0  0  0  0  0  0  0  0  0
  133.6680  122.5320   61.2000 C   0  0  0  0  0  0  0  0  0  0  0  0
  133.3670  122.9260   62.5860 N   0  0  0  0  0  0  0  0  0  0  0  0
  133.6220  124.1930   63.0120 C   0  0  0  0  0  0  0  0  0  0  0  0
  134.2570  124.9980   62.3260 O   0  0  0  0  0  0  0  0  0  0  0  0
  133.2480  124.5840   64.4620 C   0  0  0  0  0  0  0  0  0  0  0  0
  132.1370  125.6600   64.6100 C   0  0  0  0  0  0  0  0  0  0  0  0
  130.8250  125.1630   65.2610 C   0  0  0  0  0  0  0  0  0  0  0  0
  129.9770  124.6440   64.5290 O   0  0  0  0  0  0  0  0  0  0  0  0
  130.6950  125.1810   66.6170 N   0  0  0  0  0  0  0  0  0  0  0  0
  131.4950  126.0440   67.4940 C   0  0  0  0  0  0  0  0  0  0  0  0
  130.7740  127.4090   67.5480 C   0  0  0  0  0  0  0  0  0  0  0  0
  129.2820  127.3430   68.0280 C   0  0  0  0  0  0  0  0  0  0  0  0
  128.5990  128.6020   67.6600 N   0  0  0  0  0  0  0  0  0  0  0  0
  128.0010  128.9130   66.4920 C   0  0  0  0  0  0  0  0  0  0  0  0
  127.3900  130.3070   66.3960 C   0  0  0  0  0  0  0  0  0  0  0  0
  127.9290  128.1500   65.5300 O   0  0  0  0  0  0  0  0  0  0  0  0
  129.2960  127.2530   69.5880 C   0  0  0  0  0  0  0  0  0  0  0  0
  129.8400  128.2590   70.4040 C   0  0  0  0  0  0  0  0  0  0  0  0
  129.8320  128.1410   71.7910 C   0  0  0  0  0  0  0  0  0  0  0  0
  129.2810  127.0110   72.4000 C   0  0  0  0  0  0  0  0  0  0  0  0
  129.2600  126.8670   73.9210 C   0  0  0  0  0  0  0  0  0  0  0  0
  128.8210  127.9900   74.4930 F   0  0  0  0  0  0  0  0  0  0  0  0
  128.4420  125.8700   74.2550 F   0  0  0  0  0  0  0  0  0  0  0  0
  130.4700  126.6010   74.4170 F   0  0  0  0  0  0  0  0  0  0  0  0
  128.7440  125.9990   71.6020 C   0  0  0  0  0  0  0  0  0  0  0  0
  128.7540  126.1200   70.2170 C   0  0  0  0  0  0  0  0  0  0  0  0
  128.5740  126.1120   67.3410 C   0  0  0  0  0  0  0  0  0  0  0  0
  129.4170  124.8120   67.2400 C   0  0  0  0  0  0  0  0  0  0  0  0
  132.3780  122.0550   63.2370 C   0  0  0  0  0  0  0  0  0  0  0  0
  131.0420  122.2300   62.4700 C   0  0  0  0  0  0  0  0  0  0  0  0
  1  2  1  0
  2  3  2  0
  2  4  1  0
  4  5  1  0
  5  6  1  0
  6  7  2  0
  7  8  1  0
  8  9  2  0
  9 10  1  0
 10 11  1  0
 10 12  1  0
 10 13  1  0
  9 14  1  0
 14 15  2  0
  5 16  1  0
 16 17  1  0
 17 18  1  0
 18 19  1  0
 19 20  2  0
 19 21  1  0
 21 22  1  0
 22 23  1  0
 23 24  2  0
 23 25  1  0
 25 26  1  0
 26 27  1  0
 27 28  1  0
 28 29  1  0
 29 30  1  0
 30 31  1  0
 30 32  2  0
 28 33  1  0
 33 34  2  0
 34 35  1  0
 35 36  2  0
 36 37  1  0
 37 38  1  0
 37 39  1  0
 37 40  1  0
 36 41  1  0
 41 42  2  0
 28 43  1  0
 43 44  1  0
 18 45  1  0
 45 46  1  0
 46  5  1  0
 15  6  1  0
 44 25  1  0
 42 33  1  0
M  END
>  <Binding energies>  (79) 
[-8.82]

>  <Ligand effiencies>  (79) 
[-0.18375]

>  <Interactions>  (79) 
["V-B:PRO:540:CB:9857, V-A:ILE:369:CG2:3236, V-B:TYR:539:CE2:9848, V-B:PRO:540:N:9856, V-B:TYR:539:CZ:9849, V-B:TYR:539:CD2:9846, V-B:PRO:540:CA:9855, V-A:PRO:482:CG:4326, V-B:PRO:540:C:9853, V-B:MET:535:CE:9807, V-A:LEU:475:CD1:4257, H-B:ALA:541:N:9863, V-B:TYR:539:C:9839, V-B:ALA:541:CB:9864, V-B:GLU:543:CD:9880, V-A:ARG:545:CZ:4926, V-B:GLU:543:CB:9878, V-A:GLU:543:CB:4906, V-A:HIS:456:CE1:4069, V-B:HIS:456:CE1:9041, V-A:GLY:454:CA:4048, H-A:GLY:454:N:4049, V-B:TYR:484:CZ:9318, V-B:LYS:547:CE:9922, V-A:GLU:543:C:4902, V-B:TYR:484:CE2:9317, V-B:GLU:543:CG:9879, V-A:GLU:543:CD:4908, V-A:GLU:543:CG:4907, H-A:ARG:545:NH1:4927, V-B:GLU:543:C:9874, V-A:ILE:369:CD1:3238, V-B:HIS:456:CD2:9039, V-A:TYR:484:CE2:4345, V-B:GLU:543:CA:9876, V-A:TYR:484:CZ:4346, H-A:ARG:545:NH2:4928, V-B:PRO:540:CD:9859, V-B:TYR:531:CZ:9766, V-B:TYR:531:CE2:9765, V-B:LEU:363:CD1:8160, H-A:GLU:543:O:4903, V-B:PRO:540:CG:9858, H-B:HIS:456:NE2:9042"]

$$$$
RR29_Rahimova_2017
     RDKit          3D

 18 19  0  0  0  0  0  0  0  0999 V2000
  134.3640  125.2370   66.7770 C   0  0  0  0  0  0  0  0  0  0  0  0
  133.0080  125.7860   66.3610 C   0  0  0  0  0  0  0  0  0  0  0  0
  132.7730  125.7220   64.8350 C   0  0  0  0  0  0  0  0  0  0  0  0
  132.9580  124.2910   64.2890 C   0  0  0  0  0  0  0  0  0  0  0  0
  131.6690  123.7190   63.7200 C   0  0  0  0  0  0  0  0  0  0  0  0
  131.5680  122.3390   63.4540 C   0  0  0  0  0  0  0  0  0  0  0  0
  130.3880  121.7910   62.9310 C   0  0  0  0  0  0  0  0  0  0  0  0
  129.3340  122.6600   62.6750 C   0  0  0  0  0  0  0  0  0  0  0  0
  129.4270  124.0000   62.9290 C   0  0  0  0  0  0  0  0  0  0  0  0
  130.5800  124.5690   63.4570 C   0  0  0  0  0  0  0  0  0  0  0  0
  128.2470  124.5990   62.6190 O   0  0  0  0  0  0  0  0  0  0  0  0
  127.4860  123.6200   61.9620 C   0  0  0  0  0  0  0  0  0  0  0  0
  128.0920  122.3770   62.2000 O   0  0  0  0  0  0  0  0  0  0  0  0
  132.2240  126.2390   67.2680 N   0  0  0  0  0  0  0  0  0  0  0  0
  131.0320  126.8150   66.8860 N   0  0  0  0  0  0  0  0  0  0  0  0
  129.9100  126.1220   66.6320 C   0  0  0  0  0  0  0  0  0  0  0  0
  129.7940  124.7970   66.7310 N   0  0  0  0  0  0  0  0  0  0  0  0
  128.8380  126.8020   66.2540 N   0  0  0  0  0  0  0  0  0  0  0  0
  1  2  1  0
  2  3  1  0
  3  4  1  0
  4  5  1  0
  5  6  2  0
  6  7  1  0
  7  8  2  0
  8  9  1  0
  9 10  2  0
  9 11  1  0
 11 12  1  0
 12 13  1  0
  2 14  2  0
 14 15  1  0
 15 16  1  0
 16 17  1  0
 16 18  2  0
 10  5  1  0
 13  8  1  0
M  CHG  1  18   1
M  END
>  <Binding energies>  (80) 
[-7.15]

>  <Ligand effiencies>  (80) 
[-0.31086956521739134]

>  <Interactions>  (80) 
["V-A:LEU:475:CD1:4257, H-B:ALA:541:N:9863, V-B:ALA:541:CB:9864, V-B:GLU:543:CD:9880, V-A:ARG:545:CD:4923, V-A:ARG:545:CZ:4926, V-B:GLU:543:CB:9878, V-A:GLU:543:CB:4906, V-A:HIS:456:CE1:4069, V-A:ARG:545:CG:4922, V-A:GLY:454:CA:4048, H-A:TYR:484:OH:4347, H-A:GLU:543:OE1:4909, V-B:GLU:543:CG:9879, V-A:GLU:543:CD:4908, H-B:GLU:543:OE2:9882, V-A:TYR:484:CE2:4345, V-A:TYR:484:CZ:4346, H-A:GLU:543:OE2:4910, V-A:ILE:455:C:4051"]

$$$$
RR30_Rahimova_2017
     RDKit          3D

 18 19  0  0  0  0  0  0  0  0999 V2000
  133.9890  123.5280   60.0750 C   0  0  0  0  0  0  0  0  0  0  0  0
  134.7810  124.1940   61.2100 C   0  0  0  0  0  0  0  0  0  0  0  0
  133.9970  124.2450   62.5030 C   0  0  0  0  0  0  0  0  0  0  0  0
  134.3060  124.8680   63.6130 N   0  0  0  0  0  0  0  0  0  0  0  0
  133.2700  124.5980   64.5030 N   0  0  0  0  0  0  0  0  0  0  0  0
  132.4300  123.8280   63.8580 C   0  0  0  0  0  0  0  0  0  0  0  0
  130.9090  123.1600   64.4520 S   0  0  0  0  0  0  0  0  0  0  0  0
  129.9000  123.2910   62.9420 C   0  0  0  0  0  0  0  0  0  0  0  0
  129.8760  121.9820   62.1470 C   0  0  0  0  0  0  0  0  0  0  0  0
  128.8280  121.6260   61.6040 O   0  0  0  0  0  0  0  0  0  0  0  0
  131.0320  121.2800   62.1300 N   0  0  0  0  0  0  0  0  0  0  0  0
  131.2520  120.0720   61.4850 C   0  0  0  0  0  0  0  0  0  0  0  0
  132.3630  119.6330   60.9380 N   0  0  0  0  0  0  0  0  0  0  0  0
  132.2120  118.3700   60.3780 N   0  0  0  0  0  0  0  0  0  0  0  0
  131.0000  117.8820   60.5110 C   0  0  0  0  0  0  0  0  0  0  0  0
  130.5900  116.5270   59.9820 C   0  0  0  0  0  0  0  0  0  0  0  0
  129.9240  118.9600   61.3580 S   0  0  0  0  0  0  0  0  0  0  0  0
  132.8250  123.5670   62.5860 O   0  0  0  0  0  0  0  0  0  0  0  0
  1  2  1  0
  2  3  1  0
  3  4  2  0
  4  5  1  0
  5  6  2  0
  6  7  1  0
  7  8  1  0
  8  9  1  0
  9 10  2  0
  9 11  1  0
 11 12  1  0
 12 13  2  0
 13 14  1  0
 14 15  2  0
 15 16  1  0
 15 17  1  0
  6 18  1  0
 18  3  1  0
 17 12  1  0
M  END
>  <Binding energies>  (81) 
[-6.02]

>  <Ligand effiencies>  (81) 
[-0.31684210526315787]

>  <Interactions>  (81) 
["V-A:ILE:369:CG2:3236, V-B:TYR:539:CD2:9846, V-A:PRO:482:CG:4326, V-B:PRO:540:C:9853, V-A:PRO:482:CB:4325, V-A:LEU:475:CD1:4257, H-B:ALA:541:N:9863, V-B:ALA:541:CA:9862, V-B:TYR:539:C:9839, V-B:ALA:541:CB:9864, V-A:GLY:453:CA:4043, V-A:GLY:453:C:4041, V-A:HIS:383:CE1:3392, H-A:TYR:484:OH:4347, H-A:GLY:454:N:4049, V-A:ASP:366:CG:3212, H-A:ARG:545:NH1:4927, V-A:ILE:369:CD1:3238, V-A:ASP:366:CA:3209, V-A:ILE:369:CB:3235, H-A:ARG:545:NH2:4928, V-B:VAL:344:CG1:7972, V-B:TYR:539:CB:9843, H-A:HIS:383:NE2:3393, H-A:SER:385:OG:3409"]

$$$$
RR31_Rahimova_2017
     RDKit          3D

 18 19  0  0  0  0  0  0  0  0999 V2000
  130.9760  117.1630   59.6210 C   0  0  0  0  0  0  0  0  0  0  0  0
  131.1460  118.4610   60.3980 C   0  0  0  0  0  0  0  0  0  0  0  0
  130.0700  118.9600   61.1340 C   0  0  0  0  0  0  0  0  0  0  0  0
  130.1950  120.1440   61.8590 C   0  0  0  0  0  0  0  0  0  0  0  0
  131.4020  120.8610   61.8760 C   0  0  0  0  0  0  0  0  0  0  0  0
  131.5390  122.0540   62.5890 N   0  0  0  0  0  0  0  0  0  0  0  0
  130.4720  122.5660   63.4700 C   0  0  0  0  0  0  0  0  0  0  0  0
  130.6210  124.0610   63.8390 C   0  0  0  0  0  0  0  0  0  0  0  0
  131.9270  124.3200   64.4500 N   0  0  0  0  0  0  0  0  0  0  0  0
  132.0850  125.7240   64.8440 C   0  0  0  0  0  0  0  0  0  0  0  0
  131.4770  126.0340   66.2260 C   0  0  0  0  0  0  0  0  0  0  0  0
  129.9850  125.6700   66.3020 C   0  0  0  0  0  0  0  0  0  0  0  0
  129.1380  126.8090   65.7240 N   0  0  0  0  0  0  0  0  0  0  0  0
  132.9490  123.9670   63.4650 C   0  0  0  0  0  0  0  0  0  0  0  0
  132.8620  122.4690   63.0970 C   0  0  0  0  0  0  0  0  0  0  0  0
  132.4720  120.3530   61.1250 C   0  0  0  0  0  0  0  0  0  0  0  0
  132.3600  119.1660   60.3920 C   0  0  0  0  0  0  0  0  0  0  0  0
  133.5590  118.6690   59.5940 C   0  0  0  0  0  0  0  0  0  0  0  0
  1  2  1  0
  2  3  2  0
  3  4  1  0
  4  5  2  0
  5  6  1  0
  6  7  1  0
  7  8  1  0
  8  9  1  0
  9 10  1  0
 10 11  1  0
 11 12  1  0
 12 13  1  0
  9 14  1  0
 14 15  1  0
  5 16  1  0
 16 17  2  0
 17 18  1  0
 17  2  1  0
 15  6  1  0
M  CHG  1  13   1
M  END
>  <Binding energies>  (82) 
[-7.23]

>  <Ligand effiencies>  (82) 
[-0.3442857142857143]

>  <Interactions>  (82) 
["V-A:ILE:369:CG2:3236, V-B:TYR:539:CD2:9846, V-A:PRO:482:CG:4326, V-B:PRO:540:C:9853, V-A:LEU:475:CD1:4257, V-B:ALA:541:CA:9862, V-A:SER:385:CA:3406, V-B:TYR:539:C:9839, V-B:ALA:541:CB:9864, V-B:GLU:543:CD:9880, V-A:ARG:545:CZ:4926, V-A:GLY:454:CA:4048, V-A:HIS:383:CE1:3392, H-A:TYR:484:OH:4347, H-A:GLU:543:OE1:4909, V-A:GLU:543:CD:4908, H-B:GLU:543:OE2:9882, V-B:TYR:539:CB:9843, V-A:HIS:383:CD2:3391"]

$$$$
RR32_Rahimova_2017
     RDKit          3D

 18 20  0  0  0  0  0  0  0  0999 V2000
  130.2020  131.6240   56.5530 C   0  0  0  0  0  0  0  0  0  0  0  0
  130.2120  131.6250   58.0780 C   0  0  0  0  0  0  0  0  0  0  0  0
  129.0130  131.8800   58.7460 C   0  0  0  0  0  0  0  0  0  0  0  0
  128.9830  131.8850   60.1370 C   0  0  0  0  0  0  0  0  0  0  0  0
  127.7920  132.1390   60.7950 N   0  0  0  0  0  0  0  0  0  0  0  0
  127.6010  133.4920   61.3480 C   0  0  0  0  0  0  0  0  0  0  0  0
  126.3270  133.6220   62.2170 C   0  0  0  0  0  0  0  0  0  0  0  0
  125.1440  133.2660   61.4340 N   0  0  0  0  0  0  0  0  0  0  0  0
  123.9400  133.4190   62.2440 C   0  0  0  0  0  0  0  0  0  0  0  0
  125.2900  131.8770   61.0020 C   0  0  0  0  0  0  0  0  0  0  0  0
  126.5500  131.7200   60.1180 C   0  0  0  0  0  0  0  0  0  0  0  0
  130.0870  131.6530   60.8940 N   0  0  0  0  0  0  0  0  0  0  0  0
  131.2710  131.4040   60.2720 C   0  0  0  0  0  0  0  0  0  0  0  0
  132.4060  131.1670   61.0860 C   0  0  0  0  0  0  0  0  0  0  0  0
  133.6420  130.9070   60.5060 C   0  0  0  0  0  0  0  0  0  0  0  0
  133.7790  130.8760   59.1240 C   0  0  0  0  0  0  0  0  0  0  0  0
  132.6850  131.1050   58.2950 C   0  0  0  0  0  0  0  0  0  0  0  0
  131.3980  131.3760   58.8450 C   0  0  0  0  0  0  0  0  0  0  0  0
  1  2  1  0
  2  3  2  0
  3  4  1  0
  4  5  1  0
  5  6  1  0
  6  7  1  0
  7  8  1  0
  8  9  1  0
  8 10  1  0
 10 11  1  0
  4 12  2  0
 12 13  1  0
 13 14  2  0
 14 15  1  0
 15 16  2  0
 16 17  1  0
 17 18  2  0
 18  2  1  0
 11  5  1  0
 18 13  1  0
M  END
>  <Binding energies>  (83) 
[-6.46]

>  <Ligand effiencies>  (83) 
[-0.35888888888888887]

>  <Interactions>  (83) 
["H-A:ALA:541:N:4891, V-A:ALA:541:CB:4892, V-A:ASP:366:CG:3212, V-A:ASP:366:CB:3211, V-A:TYR:539:CE1:4875, V-B:ILE:369:CG2:8208, V-A:TYR:539:C:4867, V-A:PRO:540:CA:4883, V-A:TYR:539:CD1:4873, V-A:PRO:540:CB:4885, V-A:PRO:540:N:4884, V-A:PRO:540:C:4881, V-A:ASN:362:C:3171, V-A:LEU:363:CD1:3188, V-A:ASN:362:CB:3175, V-A:LEU:363:CA:3184, V-A:LEU:363:CB:3186, V-B:LEU:475:CD1:9229, V-B:GLY:454:CA:9020, V-B:ILE:369:CD1:8210"]

$$$$
RR5_Rahimova_2017
     RDKit          3D

 45 50  0  0  0  0  0  0  0  0999 V2000
  127.7030  122.7200   61.9710 O   0  0  0  0  0  0  0  0  0  0  0  0
  128.0120  122.6590   60.7820 C   0  0  0  0  0  0  0  0  0  0  0  0
  126.9240  122.8030   59.7010 C   0  0  0  0  0  0  0  0  0  0  0  0
  126.5900  124.2910   59.3250 C   0  0  2  0  0  0  0  0  0  0  0  0
  126.2610  125.1640   60.4700 N   0  0  0  0  0  0  0  0  0  0  0  0
  127.2400  125.8880   61.1370 C   0  0  0  0  0  0  0  0  0  0  0  0
  128.4400  125.9390   60.8540 O   0  0  0  0  0  0  0  0  0  0  0  0
  126.6640  126.5280   62.1690 O   0  0  0  0  0  0  0  0  0  0  0  0
  127.4280  127.3270   63.0680 C   0  0  0  0  0  0  0  0  0  0  0  0
  126.5140  128.0010   64.1160 C   0  0  0  0  0  0  0  0  0  0  0  0
  127.2400  128.4020   65.3880 C   0  0  0  0  0  0  0  0  0  0  0  0
  127.9680  127.6130   66.2830 C   0  0  0  0  0  0  0  0  0  0  0  0
  128.5790  128.2020   67.3910 C   0  0  0  0  0  0  0  0  0  0  0  0
  128.4640  129.5770   67.6070 C   0  0  0  0  0  0  0  0  0  0  0  0
  127.7350  130.3660   66.7150 C   0  0  0  0  0  0  0  0  0  0  0  0
  127.1240  129.7740   65.6080 C   0  0  0  0  0  0  0  0  0  0  0  0
  126.3040  130.3520   64.5310 C   0  0  0  0  0  0  0  0  0  0  0  0
  125.8840  131.6630   64.2980 C   0  0  0  0  0  0  0  0  0  0  0  0
  125.0790  131.9440   63.1940 C   0  0  0  0  0  0  0  0  0  0  0  0
  124.6970  130.9180   62.3260 C   0  0  0  0  0  0  0  0  0  0  0  0
  125.1220  129.6100   62.5610 C   0  0  0  0  0  0  0  0  0  0  0  0
  125.9310  129.3250   63.6630 C   0  0  0  0  0  0  0  0  0  0  0  0
  125.4500  124.3510   58.2790 C   0  0  0  0  0  0  0  0  0  0  0  0
  125.6030  124.2260   57.0800 O   0  0  0  0  0  0  0  0  0  0  0  0
  124.2560  124.5440   58.9120 O   0  0  0  0  0  0  0  0  0  0  0  0
  129.2730  122.5000   60.3200 N   0  0  0  0  0  0  0  0  0  0  0  0
  130.5980  122.3300   60.9890 C   0  0  0  0  0  0  0  0  0  0  0  0
  130.7580  120.7720   61.0050 C   0  0  0  0  0  0  0  0  0  0  0  0
  129.7440  119.9360   61.5010 C   0  0  0  0  0  0  0  0  0  0  0  0
  129.8970  118.5520   61.5090 C   0  0  0  0  0  0  0  0  0  0  0  0
  131.0710  117.9810   61.0300 C   0  0  0  0  0  0  0  0  0  0  0  0
  132.0900  118.7840   60.5320 C   0  0  0  0  0  0  0  0  0  0  0  0
  131.9320  120.1670   60.5150 C   0  0  0  0  0  0  0  0  0  0  0  0
  131.6680  123.0360   60.0910 C   0  0  0  0  0  0  0  0  0  0  0  0
  131.3260  123.6370   58.8690 C   0  0  0  0  0  0  0  0  0  0  0  0
  132.2990  124.2420   58.0770 C   0  0  0  0  0  0  0  0  0  0  0  0
  133.6260  124.2520   58.4950 C   0  0  0  0  0  0  0  0  0  0  0  0
  133.9880  123.6660   59.7030 C   0  0  0  0  0  0  0  0  0  0  0  0
  133.0140  123.0700   60.4970 C   0  0  0  0  0  0  0  0  0  0  0  0
  130.4430  122.9400   62.4230 C   0  0  0  0  0  0  0  0  0  0  0  0
  130.3840  124.3330   62.6140 C   0  0  0  0  0  0  0  0  0  0  0  0
  130.2550  124.8810   63.8870 C   0  0  0  0  0  0  0  0  0  0  0  0
  130.1760  124.0450   64.9940 C   0  0  0  0  0  0  0  0  0  0  0  0
  130.2170  122.6650   64.8360 C   0  0  0  0  0  0  0  0  0  0  0  0
  130.3470  122.1200   63.5610 C   0  0  0  0  0  0  0  0  0  0  0  0
  1  2  2  0
  2  3  1  0
  4  3  1  1
  4  5  1  0
  5  6  1  0
  6  7  2  0
  6  8  1  0
  8  9  1  0
  9 10  1  0
 10 11  1  0
 11 12  2  0
 12 13  1  0
 13 14  2  0
 14 15  1  0
 15 16  2  0
 16 17  1  0
 17 18  2  0
 18 19  1  0
 19 20  2  0
 20 21  1  0
 21 22  2  0
  4 23  1  0
 23 24  2  0
 23 25  1  0
  2 26  1  0
 26 27  1  0
 27 28  1  0
 28 29  2  0
 29 30  1  0
 30 31  2  0
 31 32  1  0
 32 33  2  0
 27 34  1  0
 34 35  2  0
 35 36  1  0
 36 37  2  0
 37 38  1  0
 38 39  2  0
 27 40  1  0
 40 41  2  0
 41 42  1  0
 42 43  2  0
 43 44  1  0
 44 45  2  0
 22 10  1  0
 33 28  1  0
 39 34  1  0
 45 40  1  0
 16 11  1  0
 22 17  1  0
M  END
>  <Binding energies>  (84) 
[-11.1]

>  <Ligand effiencies>  (84) 
[-0.23124999999999998]

>  <Interactions>  (84) 
["V-B:PRO:540:CB:9857, V-A:ILE:369:CG2:3236, V-B:TYR:539:CE2:9848, V-B:PRO:540:N:9856, V-B:TYR:539:CZ:9849, V-B:TYR:539:CD2:9846, V-B:PRO:540:CA:9855, V-A:PRO:482:CG:4326, V-B:PRO:540:C:9853, V-A:PRO:482:CB:4325, V-A:LEU:475:CD1:4257, H-B:ALA:541:N:9863, H-B:TYR:531:OH:9767, V-B:ALA:541:CA:9862, V-B:ALA:541:CB:9864, V-B:GLU:543:CD:9880, V-A:GLU:543:CB:4906, V-B:HIS:456:CE1:9041, H-B:ARG:545:NH2:9900, V-B:ARG:545:CZ:9898, V-B:TYR:484:CZ:9318, V-B:TYR:484:CE2:9317, V-B:GLU:543:CG:9879, V-A:GLU:543:CD:4908, V-A:GLU:543:CG:4907, V-A:ASP:366:CG:3212, V-A:ILE:369:CD1:3238, V-A:ASP:366:C:3207, V-A:TYR:484:CE2:4345, V-A:ASP:366:CB:3211, V-A:ASP:366:CA:3209, V-A:TYR:484:CZ:4346, V-A:ILE:369:CB:3235, V-B:ASP:366:CG:8184, H-B:TYR:539:O:9840, V-B:LEU:475:CD1:9229, H-B:GLU:543:OE1:9881, H-B:ASP:366:OD1:8185, V-B:GLY:454:CA:9020, V-A:GLU:543:CA:4904"]

$$$$
