1a_Ghoteimi_2023
     RDKit          3D

 40 43  0  0  0  0  0  0  0  0999 V2000
  128.8530  131.4880   62.0690 C   0  0  0  0  0  0  0  0  0  0  0  0
  128.4590  132.3380   60.8580 C   0  0  0  0  0  0  0  0  0  0  0  0
  129.3930  132.1230   59.8070 O   0  0  0  0  0  0  0  0  0  0  0  0
  128.9960  131.6370   58.6030 C   0  0  0  0  0  0  0  0  0  0  0  0
  129.2690  132.1780   57.5270 O   0  0  0  0  0  0  0  0  0  0  0  0
  128.1930  130.3730   58.7100 C   0  0  0  0  0  0  0  0  0  0  0  0
  126.9020  130.2650   58.1720 C   0  0  0  0  0  0  0  0  0  0  0  0
  126.1800  129.0810   58.2900 C   0  0  0  0  0  0  0  0  0  0  0  0
  126.7410  127.9760   58.9470 C   0  0  0  0  0  0  0  0  0  0  0  0
  126.1010  126.7340   59.1280 N   0  0  0  0  0  0  0  0  0  0  0  0
  126.5700  125.4830   58.9330 C   0  0  0  0  0  0  0  0  0  0  0  0
  127.7060  125.1940   58.5560 O   0  0  0  0  0  0  0  0  0  0  0  0
  125.5770  124.3570   59.2210 C   0  0  0  0  0  0  0  0  0  0  0  0
  125.5950  123.8770   60.9740 S   0  0  0  0  0  0  0  0  0  0  0  0
  126.6530  125.0460   61.7960 C   0  0  0  0  0  0  0  0  0  0  0  0
  126.1320  126.2930   61.8830 N   0  0  0  0  0  0  0  0  0  0  0  0
  126.8400  127.2790   62.4940 C   0  0  0  0  0  0  0  0  0  0  0  0
  126.1860  128.6290   62.5690 C   0  0  0  0  0  0  0  0  0  0  0  0
  125.3770  129.1060   61.5250 C   0  0  0  0  0  0  0  0  0  0  0  0
  124.7710  130.3570   61.5970 C   0  0  0  0  0  0  0  0  0  0  0  0
  124.9560  131.1710   62.7110 C   0  0  0  0  0  0  0  0  0  0  0  0
  124.3150  132.3950   62.6980 O   0  0  0  0  0  0  0  0  0  0  0  0
  124.6400  133.3380   61.6830 C   0  0  0  0  0  0  0  0  0  0  0  0
  125.7640  130.7110   63.7600 C   0  0  0  0  0  0  0  0  0  0  0  0
  126.3680  129.4600   63.6850 C   0  0  0  0  0  0  0  0  0  0  0  0
  128.1050  127.0180   63.0350 C   0  0  0  0  0  0  0  0  0  0  0  0
  128.6750  125.7420   62.9350 C   0  0  0  0  0  0  0  0  0  0  0  0
  130.0420  125.5450   63.5060 C   0  0  0  0  0  0  0  0  0  0  0  0
  131.1380  125.2980   62.6730 C   0  0  0  0  0  0  0  0  0  0  0  0
  132.4110  125.1300   63.2120 C   0  0  0  0  0  0  0  0  0  0  0  0
  132.6140  125.2130   64.5900 C   0  0  0  0  0  0  0  0  0  0  0  0
  133.9100  125.0340   65.0320 O   0  0  0  0  0  0  0  0  0  0  0  0
  134.2310  125.3470   66.3830 C   0  0  0  0  0  0  0  0  0  0  0  0
  131.5180  125.4680   65.4270 C   0  0  0  0  0  0  0  0  0  0  0  0
  130.2460  125.6350   64.8860 C   0  0  0  0  0  0  0  0  0  0  0  0
  127.9300  124.7180   62.3010 C   0  0  0  0  0  0  0  0  0  0  0  0
  128.4670  123.3590   62.1800 C   0  0  0  0  0  0  0  0  0  0  0  0
  128.8920  122.2870   62.0850 N   0  0  0  0  0  0  0  0  0  0  0  0
  128.0230  128.0800   59.4870 C   0  0  0  0  0  0  0  0  0  0  0  0
  128.7440  129.2660   59.3690 C   0  0  0  0  0  0  0  0  0  0  0  0
  1  2  1  0
  2  3  1  0
  3  4  1  0
  4  5  2  0
  4  6  1  0
  6  7  2  0
  7  8  1  0
  8  9  2  0
  9 10  1  0
 10 11  1  0
 11 12  2  0
 11 13  1  0
 13 14  1  0
 14 15  1  0
 15 16  2  0
 16 17  1  0
 17 18  1  0
 18 19  2  0
 19 20  1  0
 20 21  2  0
 21 22  1  0
 22 23  1  0
 21 24  1  0
 24 25  2  0
 17 26  2  0
 26 27  1  0
 27 28  1  0
 28 29  2  0
 29 30  1  0
 30 31  2  0
 31 32  1  0
 32 33  1  0
 31 34  1  0
 34 35  2  0
 27 36  2  0
 36 37  1  0
 37 38  3  0
  9 39  1  0
 39 40  2  0
 40  6  1  0
 36 15  1  0
 25 18  1  0
 35 28  1  0
M  END
>  <Binding energies>  (1) 
[-7.41]

>  <Ligand effiencies>  (1) 
[-0.18073170731707316]

>  <Interactions>  (1) 
["H-B:ALA:541:N:9863, V-B:GLU:543:CD:9880, V-A:ARG:545:CD:4923, V-A:ARG:545:CZ:4926, V-A:GLY:453:CA:4043, V-A:ARG:545:CG:4922, H-B:ARG:545:NH2:9900, H-B:GLY:454:N:9021, H-A:TYR:484:OH:4347, H-A:ALA:541:N:4891, H-A:GLY:454:N:4049, V-A:ALA:541:CB:4892, V-B:ASP:366:CB:8183, V-A:TYR:539:CE1:4875, V-B:ASP:366:CG:8184, V-B:ILE:369:CG2:8208, V-A:TYR:539:C:4867, H-A:ARG:545:NH2:4928, V-A:TYR:539:CD1:4873, H-A:ARG:545:NE:4924, V-B:LEU:475:CD1:9229, H-B:ASP:366:OD1:8185, H-B:ASP:366:OD2:8186, V-B:ILE:369:CD1:8210"]

$$$$
1b_Ghoteimi_2023
     RDKit          3D

 34 37  0  0  0  0  0  0  0  0999 V2000
  125.7770  123.2520   57.8590 C   0  0  0  0  0  0  0  0  0  0  0  0
  126.7860  122.3680   58.3330 O   0  0  0  0  0  0  0  0  0  0  0  0
  127.6300  122.7880   59.3420 C   0  0  0  0  0  0  0  0  0  0  0  0
  128.9910  122.8180   59.0470 C   0  0  0  0  0  0  0  0  0  0  0  0
  129.9170  123.2270   60.0020 C   0  0  0  0  0  0  0  0  0  0  0  0
  129.5080  123.6220   61.2850 C   0  0  0  0  0  0  0  0  0  0  0  0
  130.5100  124.0610   62.3150 C   0  0  0  0  0  0  0  0  0  0  0  0
  130.1440  124.5430   63.5770 C   0  0  0  0  0  0  0  0  0  0  0  0
  131.1190  124.9350   64.5030 C   0  0  0  0  0  0  0  0  0  0  0  0
  130.6550  125.4450   65.8280 C   0  0  0  0  0  0  0  0  0  0  0  0
  131.3270  126.4980   66.4530 C   0  0  0  0  0  0  0  0  0  0  0  0
  130.9040  126.9710   67.6920 C   0  0  0  0  0  0  0  0  0  0  0  0
  129.8050  126.3980   68.3320 C   0  0  0  0  0  0  0  0  0  0  0  0
  129.4570  126.9310   69.5590 O   0  0  0  0  0  0  0  0  0  0  0  0
  129.2780  128.3380   69.6780 C   0  0  0  0  0  0  0  0  0  0  0  0
  129.1320  125.3350   67.7120 C   0  0  0  0  0  0  0  0  0  0  0  0
  129.5580  124.8640   66.4730 C   0  0  0  0  0  0  0  0  0  0  0  0
  132.4820  124.8210   64.1360 C   0  0  0  0  0  0  0  0  0  0  0  0
  133.5410  125.1280   65.1030 C   0  0  0  0  0  0  0  0  0  0  0  0
  134.3760  125.3700   65.8670 N   0  0  0  0  0  0  0  0  0  0  0  0
  132.7830  124.3470   62.8400 C   0  0  0  0  0  0  0  0  0  0  0  0
  134.4350  124.1470   62.2060 S   0  0  0  0  0  0  0  0  0  0  0  0
  134.3900  122.8510   60.9220 C   0  0  0  0  0  0  0  0  0  0  0  0
  133.8250  121.5000   61.3810 C   0  0  0  0  0  0  0  0  0  0  0  0
  134.1930  120.9910   62.4430 O   0  0  0  0  0  0  0  0  0  0  0  0
  132.9240  120.9490   60.5370 N   0  0  0  0  0  0  0  0  0  0  0  0
  132.2520  119.7420   60.6940 C   0  0  0  0  0  0  0  0  0  0  0  0
  130.9200  119.6600   61.0950 C   0  0  0  0  0  0  0  0  0  0  0  0
  130.6390  118.3130   61.1270 C   0  0  0  0  0  0  0  0  0  0  0  0
  131.7450  117.6210   60.7620 O   0  0  0  0  0  0  0  0  0  0  0  0
  132.7600  118.5380   60.4890 N   0  0  0  0  0  0  0  0  0  0  0  0
  131.8200  123.9610   61.9680 N   0  0  0  0  0  0  0  0  0  0  0  0
  128.1340  123.5870   61.5730 C   0  0  0  0  0  0  0  0  0  0  0  0
  127.2060  123.1770   60.6200 C   0  0  0  0  0  0  0  0  0  0  0  0
  1  2  1  0
  2  3  1  0
  3  4  2  0
  4  5  1  0
  5  6  2  0
  6  7  1  0
  7  8  2  0
  8  9  1  0
  9 10  1  0
 10 11  2  0
 11 12  1  0
 12 13  2  0
 13 14  1  0
 14 15  1  0
 13 16  1  0
 16 17  2  0
  9 18  2  0
 18 19  1  0
 19 20  3  0
 18 21  1  0
 21 22  1  0
 22 23  1  0
 23 24  1  0
 24 25  2  0
 24 26  1  0
 26 27  1  0
 27 28  1  0
 28 29  2  0
 29 30  1  0
 30 31  1  0
 21 32  2  0
  6 33  1  0
 33 34  2  0
 34  3  1  0
 32  7  1  0
 17 10  1  0
 31 27  2  0
M  END
>  <Binding energies>  (2) 
[-8.62]

>  <Ligand effiencies>  (2) 
[-0.24628571428571427]

>  <Interactions>  (2) 
["V-B:PRO:540:CB:9857, V-A:ILE:369:CG2:3236, V-B:TYR:539:CE2:9848, V-B:PRO:540:N:9856, V-B:TYR:539:CD2:9846, V-B:PRO:540:CA:9855, V-A:PRO:482:CG:4326, V-A:PRO:482:CB:4325, V-A:LEU:475:CD1:4257, V-B:TYR:539:C:9839, V-B:GLU:543:CD:9880, V-A:ARG:545:CZ:4926, V-B:GLU:543:CB:9878, V-A:GLU:543:CB:4906, V-A:HIS:456:CE1:4069, V-B:HIS:456:CE1:9041, H-A:TYR:484:OH:4347, H-A:GLY:454:N:4049, V-A:GLU:543:C:4902, V-B:GLU:543:CG:9879, V-A:GLU:543:CD:4908, H-A:ARG:545:NH1:4927, V-A:ILE:369:CD1:3238, V-A:TYR:484:CE2:4345, V-B:GLU:543:CA:9876, V-A:TYR:484:CZ:4346, V-A:ILE:369:CB:3235, H-A:ARG:545:NE:4924, V-B:LEU:363:CD1:8160, H-A:HIS:383:NE2:3393, H-A:SER:385:OG:3409, V-A:ILE:369:CG1:3237"]

$$$$
1c_Ghoteimi_2023
     RDKit          3D

 34 37  0  0  0  0  0  0  0  0999 V2000
  125.3870  122.5420   56.4030 C   0  0  0  0  0  0  0  0  0  0  0  0
  126.6070  121.8550   56.6590 O   0  0  0  0  0  0  0  0  0  0  0  0
  127.4150  122.2780   57.6980 C   0  0  0  0  0  0  0  0  0  0  0  0
  128.7860  122.2970   57.4550 C   0  0  0  0  0  0  0  0  0  0  0  0
  129.6740  122.7060   58.4460 C   0  0  0  0  0  0  0  0  0  0  0  0
  129.2170  123.1070   59.7110 C   0  0  0  0  0  0  0  0  0  0  0  0
  130.1730  123.5440   60.7840 C   0  0  0  0  0  0  0  0  0  0  0  0
  129.7460  124.0580   62.0130 C   0  0  0  0  0  0  0  0  0  0  0  0
  130.6740  124.4270   62.9940 C   0  0  0  0  0  0  0  0  0  0  0  0
  130.1470  124.9030   64.3070 C   0  0  0  0  0  0  0  0  0  0  0  0
  129.5650  126.1690   64.4230 C   0  0  0  0  0  0  0  0  0  0  0  0
  129.0940  126.6200   65.6520 C   0  0  0  0  0  0  0  0  0  0  0  0
  129.1990  125.8180   66.7880 C   0  0  0  0  0  0  0  0  0  0  0  0
  128.7040  126.3470   67.9650 O   0  0  0  0  0  0  0  0  0  0  0  0
  127.3650  126.8300   68.0010 C   0  0  0  0  0  0  0  0  0  0  0  0
  129.7880  124.5490   66.6770 C   0  0  0  0  0  0  0  0  0  0  0  0
  130.2590  124.1000   65.4460 C   0  0  0  0  0  0  0  0  0  0  0  0
  132.0520  124.2970   62.7000 C   0  0  0  0  0  0  0  0  0  0  0  0
  133.0750  124.6980   63.6720 C   0  0  0  0  0  0  0  0  0  0  0  0
  133.8800  125.0140   64.4400 N   0  0  0  0  0  0  0  0  0  0  0  0
  132.4120  123.7560   61.4480 C   0  0  0  0  0  0  0  0  0  0  0  0
  134.0960  123.3790   61.0120 S   0  0  0  0  0  0  0  0  0  0  0  0
  134.5170  121.9110   62.0060 C   0  0  0  0  0  0  0  0  0  0  0  0
  133.9350  120.6240   61.4120 C   0  0  0  0  0  0  0  0  0  0  0  0
  134.6880  119.6900   61.1290 O   0  0  0  0  0  0  0  0  0  0  0  0
  132.5900  120.6060   61.2830 N   0  0  0  0  0  0  0  0  0  0  0  0
  131.8070  119.5210   60.9220 C   0  0  0  0  0  0  0  0  0  0  0  0
  132.1490  118.4890   60.1810 N   0  0  0  0  0  0  0  0  0  0  0  0
  131.1610  117.6220   60.0760 C   0  0  0  0  0  0  0  0  0  0  0  0
  129.9850  117.9440   60.7450 C   0  0  0  0  0  0  0  0  0  0  0  0
  130.1920  119.4710   61.5500 S   0  0  0  0  0  0  0  0  0  0  0  0
  131.4960  123.3840   60.5220 N   0  0  0  0  0  0  0  0  0  0  0  0
  127.8340  123.0900   59.9420 C   0  0  0  0  0  0  0  0  0  0  0  0
  126.9420  122.6800   58.9550 C   0  0  0  0  0  0  0  0  0  0  0  0
  1  2  1  0
  2  3  1  0
  3  4  2  0
  4  5  1  0
  5  6  2  0
  6  7  1  0
  7  8  2  0
  8  9  1  0
  9 10  1  0
 10 11  2  0
 11 12  1  0
 12 13  2  0
 13 14  1  0
 14 15  1  0
 13 16  1  0
 16 17  2  0
  9 18  2  0
 18 19  1  0
 19 20  3  0
 18 21  1  0
 21 22  1  0
 22 23  1  0
 23 24  1  0
 24 25  2  0
 24 26  1  0
 26 27  1  0
 27 28  2  0
 28 29  1  0
 29 30  2  0
 30 31  1  0
 21 32  2  0
  6 33  1  0
 33 34  2  0
 34  3  1  0
 32  7  1  0
 17 10  1  0
 31 27  1  0
M  END
>  <Binding energies>  (3) 
[-7.97]

>  <Ligand effiencies>  (3) 
[-0.2277142857142857]

>  <Interactions>  (3) 
["V-B:PRO:540:CB:9857, V-A:ILE:369:CG2:3236, V-B:TYR:539:CE2:9848, V-B:PRO:540:N:9856, V-B:TYR:539:CZ:9849, V-B:TYR:539:CD2:9846, V-B:PRO:540:CA:9855, V-A:PRO:482:CG:4326, V-A:PRO:482:CB:4325, V-B:MET:535:CE:9807, H-B:TYR:539:N:9842, V-A:LEU:475:CD1:4257, V-B:ALA:541:CA:9862, V-B:TYR:539:C:9839, V-B:ALA:541:CB:9864, V-B:GLU:543:CD:9880, V-A:ARG:545:CZ:4926, V-B:GLU:543:CB:9878, V-B:HIS:456:CE1:9041, V-A:GLY:454:CA:4048, V-A:HIS:383:CE1:3392, H-A:TYR:484:OH:4347, H-A:GLY:454:N:4049, V-B:GLU:543:CG:9879, V-A:GLU:543:CD:4908, H-A:ARG:545:NH1:4927, V-A:ILE:369:CD1:3238, V-A:TYR:484:CE2:4345, V-A:TYR:484:CZ:4346, H-A:ARG:545:NH2:4928, V-B:TYR:539:CB:9843, V-B:PRO:540:CD:9859, H-A:ARG:545:NE:4924, V-B:TYR:539:CG:9844, V-B:TYR:531:CE2:9765, V-B:TYR:539:CD1:9845, V-B:LEU:363:CD1:8160, H-A:HIS:383:NE2:3393, H-A:SER:385:OG:3409, V-B:TYR:539:CE1:9847"]

$$$$
1d_Ghoteimi_2023
     RDKit          3D

 30 32  0  0  0  0  0  0  0  0999 V2000
  124.8940  124.4540   57.7510 C   0  0  0  0  0  0  0  0  0  0  0  0
  125.9800  123.9390   56.9960 O   0  0  0  0  0  0  0  0  0  0  0  0
  126.5200  122.7410   57.3020 C   0  0  0  0  0  0  0  0  0  0  0  0
  126.2970  121.6740   56.7290 O   0  0  0  0  0  0  0  0  0  0  0  0
  127.4800  122.8230   58.4860 C   0  0  0  0  0  0  0  0  0  0  0  0
  126.4840  123.1180   59.9780 S   0  0  0  0  0  0  0  0  0  0  0  0
  127.3080  124.3900   60.9110 C   0  0  0  0  0  0  0  0  0  0  0  0
  126.6790  125.5890   60.8720 N   0  0  0  0  0  0  0  0  0  0  0  0
  127.2010  126.6500   61.5380 C   0  0  0  0  0  0  0  0  0  0  0  0
  126.4400  127.9410   61.4480 C   0  0  0  0  0  0  0  0  0  0  0  0
  126.1150  128.5100   60.2070 C   0  0  0  0  0  0  0  0  0  0  0  0
  125.4150  129.7100   60.1260 C   0  0  0  0  0  0  0  0  0  0  0  0
  125.0190  130.3800   61.2810 C   0  0  0  0  0  0  0  0  0  0  0  0
  124.3320  131.5650   61.1050 O   0  0  0  0  0  0  0  0  0  0  0  0
  125.0540  132.7920   61.1080 C   0  0  0  0  0  0  0  0  0  0  0  0
  125.3370  129.8240   62.5290 C   0  0  0  0  0  0  0  0  0  0  0  0
  126.0370  128.6230   62.6050 C   0  0  0  0  0  0  0  0  0  0  0  0
  128.3830  126.5160   62.2770 C   0  0  0  0  0  0  0  0  0  0  0  0
  129.0620  125.2920   62.3220 C   0  0  0  0  0  0  0  0  0  0  0  0
  130.3210  125.2210   63.1240 C   0  0  0  0  0  0  0  0  0  0  0  0
  131.5520  125.0320   62.4870 C   0  0  0  0  0  0  0  0  0  0  0  0
  132.7290  124.9660   63.2280 C   0  0  0  0  0  0  0  0  0  0  0  0
  132.7010  125.0920   64.6160 C   0  0  0  0  0  0  0  0  0  0  0  0
  133.9160  125.0060   65.2680 O   0  0  0  0  0  0  0  0  0  0  0  0
  133.9940  125.3700   66.6420 C   0  0  0  0  0  0  0  0  0  0  0  0
  131.4700  125.2940   65.2590 C   0  0  0  0  0  0  0  0  0  0  0  0
  130.2950  125.3610   64.5160 C   0  0  0  0  0  0  0  0  0  0  0  0
  128.5250  124.1960   61.6030 C   0  0  0  0  0  0  0  0  0  0  0  0
  129.2470  122.9220   61.5300 C   0  0  0  0  0  0  0  0  0  0  0  0
  129.8180  121.9170   61.4740 N   0  0  0  0  0  0  0  0  0  0  0  0
  1  2  1  0
  2  3  1  0
  3  4  2  0
  3  5  1  0
  5  6  1  0
  6  7  1  0
  7  8  2  0
  8  9  1  0
  9 10  1  0
 10 11  2  0
 11 12  1  0
 12 13  2  0
 13 14  1  0
 14 15  1  0
 13 16  1  0
 16 17  2  0
  9 18  2  0
 18 19  1  0
 19 20  1  0
 20 21  2  0
 21 22  1  0
 22 23  2  0
 23 24  1  0
 24 25  1  0
 23 26  1  0
 26 27  2  0
 19 28  2  0
 28 29  1  0
 29 30  3  0
 28  7  1  0
 17 10  1  0
 27 20  1  0
M  END
>  <Binding energies>  (4) 
[-6.96]

>  <Ligand effiencies>  (4) 
[-0.232]

>  <Interactions>  (4) 
["V-B:PRO:540:CB:9857, V-B:PRO:540:N:9856, V-B:PRO:540:CA:9855, V-B:MET:535:CE:9807, H-B:TYR:539:N:9842, H-B:TYR:531:OH:9767, V-B:TYR:539:C:9839, V-A:ARG:545:CD:4923, V-A:ARG:545:CZ:4926, V-A:ARG:545:CG:4922, H-A:TYR:484:OH:4347, H-A:GLY:454:N:4049, V-A:TYR:484:CZ:4346, V-B:ASP:366:CB:8183, V-B:ASP:366:CG:8184, V-B:ILE:369:CG2:8208, H-A:ARG:545:NE:4924, V-B:TYR:531:CZ:9766, V-B:TYR:531:CE2:9765, V-B:LEU:363:CD1:8160"]

$$$$
1j_Grossjean_2025
     RDKit          3D

 20 21  0  0  0  0  0  0  0  0999 V2000
  129.3630  122.3750   62.5860 C   0  0  0  0  0  0  0  0  0  0  0  0
  130.3930  121.4130   62.0240 C   0  0  0  0  0  0  0  0  0  0  0  0
  130.0380  120.1390   61.5860 C   0  0  0  0  0  0  0  0  0  0  0  0
  131.0280  119.3000   61.0650 C   0  0  0  0  0  0  0  0  0  0  0  0
  130.6120  117.9140   60.5740 C   0  0  0  0  0  0  0  0  0  0  0  0
  132.3630  119.7610   61.0040 C   0  0  0  0  0  0  0  0  0  0  0  0
  133.4060  118.9190   60.4130 C   0  0  0  0  0  0  0  0  0  0  0  0
  134.2280  118.2520   59.9450 N   0  0  0  0  0  0  0  0  0  0  0  0
  132.6360  121.0590   61.4950 C   0  0  0  0  0  0  0  0  0  0  0  0
  134.2560  121.7980   61.4980 S   0  0  0  0  0  0  0  0  0  0  0  0
  134.0500  123.5830   61.2260 C   0  0  0  0  0  0  0  0  0  0  0  0
  134.1110  124.3740   62.5340 C   0  0  0  0  0  0  0  0  0  0  0  0
  135.1210  125.0270   62.7970 O   0  0  0  0  0  0  0  0  0  0  0  0
  133.0150  124.2890   63.3180 N   0  0  0  0  0  0  0  0  0  0  0  0
  132.8260  124.9030   64.5480 C   0  0  0  0  0  0  0  0  0  0  0  0
  133.7160  125.0960   65.4990 N   0  0  0  0  0  0  0  0  0  0  0  0
  133.1890  125.7150   66.5360 C   0  0  0  0  0  0  0  0  0  0  0  0
  131.8400  126.0410   66.4390 C   0  0  0  0  0  0  0  0  0  0  0  0
  131.2380  125.5030   64.8990 S   0  0  0  0  0  0  0  0  0  0  0  0
  131.6650  121.8740   61.9790 N   0  0  0  0  0  0  0  0  0  0  0  0
  1  2  1  0
  2  3  2  0
  3  4  1  0
  4  5  1  0
  4  6  2  0
  6  7  1  0
  7  8  3  0
  6  9  1  0
  9 10  1  0
 10 11  1  0
 11 12  1  0
 12 13  2  0
 12 14  1  0
 14 15  1  0
 15 16  2  0
 16 17  1  0
 17 18  2  0
 18 19  1  0
  9 20  2  0
 20  2  1  0
 19 15  1  0
M  END
>  <Binding energies>  (5) 
[-6.59]

>  <Ligand effiencies>  (5) 
[-0.3138095238095238]

>  <Interactions>  (5) 
["V-A:ILE:369:CG2:3236, V-B:TYR:539:CD2:9846, V-A:PRO:482:CG:4326, V-A:LEU:475:CD1:4257, V-B:ALA:541:CA:9862, V-A:SER:385:CA:3406, V-B:TYR:539:C:9839, V-B:ALA:541:CB:9864, V-A:ARG:545:CD:4923, V-A:ARG:545:CZ:4926, V-A:GLY:453:CA:4043, V-A:GLY:453:C:4041, V-A:ARG:545:CG:4922, H-A:TYR:484:OH:4347, H-A:GLY:454:N:4049, V-A:ASP:366:CG:3212, H-A:ARG:545:NH1:4927, V-A:ILE:369:CD1:3238, V-A:TYR:484:CZ:4346, H-A:ARG:545:NH2:4928, V-A:HIS:383:CD2:3391, H-A:ARG:545:NE:4924, H-A:HIS:383:NE2:3393, H-A:SER:385:OG:3409"]

$$$$
1o_Grossjean_2025
     RDKit          3D

 26 27  0  0  0  0  0  0  0  0999 V2000
  124.2940  123.8040   59.2100 C   0  0  0  0  0  0  0  0  0  0  0  0
  125.2010  122.9830   58.4890 O   0  0  0  0  0  0  0  0  0  0  0  0
  125.9560  123.4930   57.4810 C   0  0  0  0  0  0  0  0  0  0  0  0
  125.4820  123.8960   56.4140 O   0  0  0  0  0  0  0  0  0  0  0  0
  127.4240  123.5200   57.7930 C   0  0  0  0  0  0  0  0  0  0  0  0
  128.0250  122.5630   58.6230 C   0  0  0  0  0  0  0  0  0  0  0  0
  129.3900  122.6150   58.8910 C   0  0  0  0  0  0  0  0  0  0  0  0
  130.1810  123.6250   58.3420 C   0  0  0  0  0  0  0  0  0  0  0  0
  131.5500  123.5790   58.6700 N   0  0  0  0  0  0  0  0  0  0  0  0
  132.1900  124.0220   59.7750 C   0  0  0  0  0  0  0  0  0  0  0  0
  131.6460  124.5320   60.7540 O   0  0  0  0  0  0  0  0  0  0  0  0
  133.7140  123.8280   59.7780 C   0  0  0  0  0  0  0  0  0  0  0  0
  134.2950  123.5810   61.1840 C   0  0  0  0  0  0  0  0  0  0  0  0
  134.3750  121.8270   61.6520 S   0  0  0  0  0  0  0  0  0  0  0  0
  132.7310  121.1460   61.5700 C   0  0  0  0  0  0  0  0  0  0  0  0
  131.7890  121.9350   62.1470 N   0  0  0  0  0  0  0  0  0  0  0  0
  130.5000  121.5230   62.1370 C   0  0  0  0  0  0  0  0  0  0  0  0
  129.5030  122.4640   62.7880 C   0  0  0  0  0  0  0  0  0  0  0  0
  130.1000  120.3160   61.5690 C   0  0  0  0  0  0  0  0  0  0  0  0
  131.0660  119.4830   60.9940 C   0  0  0  0  0  0  0  0  0  0  0  0
  130.6040  118.1570   60.3910 C   0  0  0  0  0  0  0  0  0  0  0  0
  132.4200  119.8890   60.9960 C   0  0  0  0  0  0  0  0  0  0  0  0
  133.4520  119.0040   60.4520 C   0  0  0  0  0  0  0  0  0  0  0  0
  134.2650  118.3030   60.0200 N   0  0  0  0  0  0  0  0  0  0  0  0
  129.5880  124.5840   57.5060 C   0  0  0  0  0  0  0  0  0  0  0  0
  128.2230  124.5290   57.2390 C   0  0  0  0  0  0  0  0  0  0  0  0
  1  2  1  0
  2  3  1  0
  3  4  2  0
  3  5  1  0
  5  6  2  0
  6  7  1  0
  7  8  2  0
  8  9  1  0
  9 10  1  0
 10 11  2  0
 10 12  1  0
 12 13  1  0
 13 14  1  0
 14 15  1  0
 15 16  2  0
 16 17  1  0
 17 18  1  0
 17 19  2  0
 19 20  1  0
 20 21  1  0
 20 22  2  0
 22 23  1  0
 23 24  3  0
  8 25  1  0
 25 26  2  0
 26  5  1  0
 22 15  1  0
M  END
>  <Binding energies>  (6) 
[-6.97]

>  <Ligand effiencies>  (6) 
[-0.2581481481481481]

>  <Interactions>  (6) 
["V-B:PRO:540:CB:9857, V-A:ILE:369:CG2:3236, V-B:TYR:539:CE2:9848, V-B:PRO:540:N:9856, V-B:TYR:539:CZ:9849, V-B:TYR:539:CD2:9846, V-B:PRO:540:CA:9855, V-A:PRO:482:CG:4326, V-B:MET:535:CE:9807, V-A:LEU:475:CD1:4257, H-B:TYR:531:OH:9767, V-B:ALA:541:CA:9862, V-A:SER:385:CA:3406, V-B:TYR:539:C:9839, V-B:ALA:541:CB:9864, V-A:ASP:366:CG:3212, V-A:ILE:369:CD1:3238, V-A:ASP:366:CB:3211, V-A:ASP:366:CA:3209, V-A:ILE:369:CB:3235, V-B:ASP:366:CG:8184, V-B:LEU:363:CA:8156, V-B:LEU:363:CB:8158, V-B:LEU:363:CD1:8160, H-A:HIS:383:NE2:3393, H-A:SER:385:OG:3409, H-B:TYR:539:OH:9850"]

$$$$
1p_Grossjean_2025
     RDKit          3D

 21 22  0  0  0  0  0  0  0  0999 V2000
  129.3550  125.5940   63.0080 C   0  0  0  0  0  0  0  0  0  0  0  0
  130.5970  125.5270   63.8750 C   0  0  0  0  0  0  0  0  0  0  0  0
  130.5490  125.8070   65.2400 C   0  0  0  0  0  0  0  0  0  0  0  0
  131.7290  125.7430   65.9890 C   0  0  0  0  0  0  0  0  0  0  0  0
  131.6560  126.0680   67.4790 C   0  0  0  0  0  0  0  0  0  0  0  0
  132.9370  125.3880   65.3470 C   0  0  0  0  0  0  0  0  0  0  0  0
  134.1920  125.3600   66.0980 C   0  0  0  0  0  0  0  0  0  0  0  0
  135.1850  125.3380   66.6940 N   0  0  0  0  0  0  0  0  0  0  0  0
  132.8880  125.0970   63.9620 C   0  0  0  0  0  0  0  0  0  0  0  0
  134.3100  124.6260   63.0050 S   0  0  0  0  0  0  0  0  0  0  0  0
  133.7170  124.2580   61.3270 C   0  0  0  0  0  0  0  0  0  0  0  0
  134.3660  123.0110   60.6980 C   0  0  0  0  0  0  0  0  0  0  0  0
  133.8050  121.6870   61.2390 C   0  0  0  0  0  0  0  0  0  0  0  0
  134.0600  121.3470   62.3960 O   0  0  0  0  0  0  0  0  0  0  0  0
  133.0380  120.9820   60.3780 N   0  0  0  0  0  0  0  0  0  0  0  0
  132.4130  119.7640   60.6120 C   0  0  0  0  0  0  0  0  0  0  0  0
  131.0900  119.6570   61.0430 C   0  0  0  0  0  0  0  0  0  0  0  0
  130.8580  118.3050   61.1530 C   0  0  0  0  0  0  0  0  0  0  0  0
  131.9820  117.6330   60.8090 O   0  0  0  0  0  0  0  0  0  0  0  0
  132.9610  118.5690   60.4690 N   0  0  0  0  0  0  0  0  0  0  0  0
  131.7420  125.1830   63.2400 N   0  0  0  0  0  0  0  0  0  0  0  0
  1  2  1  0
  2  3  2  0
  3  4  1  0
  4  5  1  0
  4  6  2  0
  6  7  1  0
  7  8  3  0
  6  9  1  0
  9 10  1  0
 10 11  1  0
 11 12  1  0
 12 13  1  0
 13 14  2  0
 13 15  1  0
 15 16  1  0
 16 17  1  0
 17 18  2  0
 18 19  1  0
 19 20  1  0
  9 21  2  0
 21  2  1  0
 20 16  2  0
M  END
>  <Binding energies>  (7) 
[-6.94]

>  <Ligand effiencies>  (7) 
[-0.3154545454545455]

>  <Interactions>  (7) 
["V-A:ILE:369:CG2:3236, V-B:TYR:539:CE2:9848, V-B:TYR:539:CD2:9846, V-A:PRO:482:CG:4326, V-A:PRO:482:CB:4325, V-A:LEU:475:CD1:4257, V-A:ARG:545:CD:4923, V-A:ARG:545:CZ:4926, V-A:GLY:453:CA:4043, V-A:GLY:453:C:4041, V-A:HIS:456:CE1:4069, V-A:ARG:545:CG:4922, V-A:GLY:454:CA:4048, H-A:GLY:454:N:4049, V-A:ASP:366:CG:3212, H-A:ARG:545:NH1:4927, V-A:ILE:369:CD1:3238, V-A:TYR:484:CZ:4346, V-A:ILE:369:CB:3235, H-A:ARG:545:NH2:4928, H-A:ARG:545:NE:4924, H-A:HIS:383:NE2:3393, H-A:SER:385:OG:3409, H-A:ILE:455:N:4054, V-A:ILE:369:CG1:3237"]

$$$$
2a_Ghoteimi_2023
     RDKit          3D

 48 53  0  0  0  0  0  0  0  0999 V2000
  133.4410  131.0230   60.1810 C   0  0  0  0  0  0  0  0  0  0  0  0
  133.2920  130.9920   58.6570 C   0  0  0  0  0  0  0  0  0  0  0  0
  131.9620  130.6180   58.3200 O   0  0  0  0  0  0  0  0  0  0  0  0
  131.0020  131.5540   58.1090 C   0  0  0  0  0  0  0  0  0  0  0  0
  130.9720  132.2860   57.1150 O   0  0  0  0  0  0  0  0  0  0  0  0
  129.9740  131.6060   59.2040 C   0  0  0  0  0  0  0  0  0  0  0  0
  130.2060  131.0450   60.4680 C   0  0  0  0  0  0  0  0  0  0  0  0
  129.2330  131.1120   61.4600 C   0  0  0  0  0  0  0  0  0  0  0  0
  128.0120  131.7430   61.2140 C   0  0  0  0  0  0  0  0  0  0  0  0
  127.1000  131.7480   62.2870 N   0  0  0  0  0  0  0  0  0  0  0  0
  125.7500  131.8040   62.2750 C   0  0  0  0  0  0  0  0  0  0  0  0
  125.0550  131.9120   61.2640 O   0  0  0  0  0  0  0  0  0  0  0  0
  125.0840  131.7650   63.6560 C   0  0  0  0  0  0  0  0  0  0  0  0
  124.5770  130.1030   64.2020 S   0  0  0  0  0  0  0  0  0  0  0  0
  126.0660  129.1320   64.2330 C   0  0  0  0  0  0  0  0  0  0  0  0
  126.5320  128.8830   65.4780 N   0  0  0  0  0  0  0  0  0  0  0  0
  127.6690  128.1580   65.6320 C   0  0  0  0  0  0  0  0  0  0  0  0
  128.1290  127.9300   67.0360 C   0  0  0  0  0  0  0  0  0  0  0  0
  128.7050  128.9620   67.7880 C   0  0  0  0  0  0  0  0  0  0  0  0
  129.1420  128.7410   69.0900 C   0  0  0  0  0  0  0  0  0  0  0  0
  129.0140  127.4820   69.6940 C   0  0  0  0  0  0  0  0  0  0  0  0
  129.4860  127.2670   70.9940 N   0  0  0  0  0  0  0  0  0  0  0  0
  128.8330  126.3010   71.9000 C   0  0  0  0  0  0  0  0  0  0  0  0
  129.6840  125.9300   73.1330 C   0  0  0  0  0  0  0  0  0  0  0  0
  130.0640  127.1050   73.8320 O   0  0  0  0  0  0  0  0  0  0  0  0
  130.8400  127.9650   73.0140 C   0  0  0  0  0  0  0  0  0  0  0  0
  130.0270  128.3990   71.7760 C   0  0  0  0  0  0  0  0  0  0  0  0
  128.4470  126.4480   68.9320 C   0  0  0  0  0  0  0  0  0  0  0  0
  128.0080  126.6700   67.6310 C   0  0  0  0  0  0  0  0  0  0  0  0
  128.3600  127.6540   64.5270 C   0  0  0  0  0  0  0  0  0  0  0  0
  127.8960  127.9000   63.2270 C   0  0  0  0  0  0  0  0  0  0  0  0
  128.6860  127.3370   62.0910 C   0  0  0  0  0  0  0  0  0  0  0  0
  128.2840  126.1480   61.4760 C   0  0  0  0  0  0  0  0  0  0  0  0
  129.0240  125.6050   60.4300 C   0  0  0  0  0  0  0  0  0  0  0  0
  130.1880  126.2360   59.9660 C   0  0  0  0  0  0  0  0  0  0  0  0
  130.9560  125.6970   58.9290 N   0  0  0  0  0  0  0  0  0  0  0  0
  132.1220  124.8520   59.2570 C   0  0  0  0  0  0  0  0  0  0  0  0
  132.6290  124.0220   58.0580 C   0  0  0  0  0  0  0  0  0  0  0  0
  132.9180  124.8760   56.9630 O   0  0  0  0  0  0  0  0  0  0  0  0
  131.7700  125.5970   56.5420 C   0  0  0  0  0  0  0  0  0  0  0  0
  131.2370  126.4650   57.7000 C   0  0  0  0  0  0  0  0  0  0  0  0
  130.5920  127.4210   60.5970 C   0  0  0  0  0  0  0  0  0  0  0  0
  129.8530  127.9640   61.6440 C   0  0  0  0  0  0  0  0  0  0  0  0
  126.7100  128.6570   63.0680 C   0  0  0  0  0  0  0  0  0  0  0  0
  126.1450  128.8990   61.7370 C   0  0  0  0  0  0  0  0  0  0  0  0
  125.7020  129.0900   60.6850 N   0  0  0  0  0  0  0  0  0  0  0  0
  127.7700  132.3000   59.9500 C   0  0  0  0  0  0  0  0  0  0  0  0
  128.7450  132.2330   58.9580 C   0  0  0  0  0  0  0  0  0  0  0  0
  1  2  1  0
  2  3  1  0
  3  4  1  0
  4  5  2  0
  4  6  1  0
  6  7  2  0
  7  8  1  0
  8  9  2  0
  9 10  1  0
 10 11  1  0
 11 12  2  0
 11 13  1  0
 13 14  1  0
 14 15  1  0
 15 16  2  0
 16 17  1  0
 17 18  1  0
 18 19  2  0
 19 20  1  0
 20 21  2  0
 21 22  1  0
 22 23  1  0
 23 24  1  0
 24 25  1  0
 25 26  1  0
 26 27  1  0
 21 28  1  0
 28 29  2  0
 17 30  2  0
 30 31  1  0
 31 32  1  0
 32 33  2  0
 33 34  1  0
 34 35  2  0
 35 36  1  0
 36 37  1  0
 37 38  1  0
 38 39  1  0
 39 40  1  0
 40 41  1  0
 35 42  1  0
 42 43  2  0
 31 44  2  0
 44 45  1  0
 45 46  3  0
  9 47  1  0
 47 48  2  0
 48  6  1  0
 44 15  1  0
 29 18  1  0
 43 32  1  0
 27 22  1  0
 41 36  1  0
M  END
>  <Binding energies>  (8) 
[-8.72]

>  <Ligand effiencies>  (8) 
[-0.1779591836734694]

>  <Interactions>  (8) 
["V-B:TYR:539:CE2:9848, V-B:TYR:539:CZ:9849, V-B:GLU:543:CD:9880, V-B:GLU:543:CB:9878, V-A:GLU:543:CB:4906, V-A:HIS:456:CE1:4069, V-B:HIS:456:CE1:9041, V-B:ARG:545:CZ:9898, H-B:GLY:454:N:9021, V-A:GLU:543:C:4902, V-B:GLU:543:CG:9879, V-A:GLU:543:CD:4908, V-A:GLU:543:CG:4907, V-A:ASP:366:CG:3212, V-B:HIS:456:CD2:9039, V-A:ASP:366:CB:3211, V-A:LYS:547:CE:4950, V-A:TYR:539:CE1:4875, V-B:ASP:366:CG:8184, V-A:TYR:539:C:4867, H-A:TYR:539:N:4870, V-A:PRO:540:CA:4883, V-A:TYR:539:CD1:4873, V-A:HIS:456:CD2:4067, V-A:PRO:540:CB:4885, V-A:PRO:540:N:4884, V-A:ASN:362:C:3171, V-A:LEU:363:CD1:3188, V-A:ASN:362:CB:3175, V-A:LEU:363:CA:3184, V-A:LEU:363:CB:3186, V-B:LEU:475:CD1:9229, V-B:GLY:454:CA:9020, H-B:TYR:539:OH:9850"]

$$$$
2aa_Ghoteimi_2023
     RDKit          3D

 48 53  0  0  0  0  0  0  0  0999 V2000
  125.0290  123.8230   57.3970 C   0  0  0  0  0  0  0  0  0  0  0  0
  125.8360  122.8000   56.5900 C   0  0  0  0  0  0  0  0  0  0  0  0
  126.5340  121.9420   57.4830 O   0  0  0  0  0  0  0  0  0  0  0  0
  127.6740  122.3480   58.1000 C   0  0  0  0  0  0  0  0  0  0  0  0
  128.7980  121.9350   57.7940 O   0  0  0  0  0  0  0  0  0  0  0  0
  127.4340  123.3620   59.1820 C   0  0  0  0  0  0  0  0  0  0  0  0
  128.0770  124.6090   59.1840 C   0  0  0  0  0  0  0  0  0  0  0  0
  127.8310  125.5290   60.1980 C   0  0  0  0  0  0  0  0  0  0  0  0
  126.9470  125.2210   61.2340 C   0  0  0  0  0  0  0  0  0  0  0  0
  126.7700  126.2260   62.2050 N   0  0  0  0  0  0  0  0  0  0  0  0
  126.4390  127.5260   62.0540 C   0  0  0  0  0  0  0  0  0  0  0  0
  126.1970  128.0750   60.9770 O   0  0  0  0  0  0  0  0  0  0  0  0
  126.3540  128.3200   63.3640 C   0  0  0  0  0  0  0  0  0  0  0  0
  127.6720  128.5490   63.8750 O   0  0  0  0  0  0  0  0  0  0  0  0
  128.2780  127.6010   64.6890 C   0  0  0  0  0  0  0  0  0  0  0  0
  128.7730  126.4750   64.1030 N   0  0  0  0  0  0  0  0  0  0  0  0
  129.3750  125.5320   64.8690 C   0  0  0  0  0  0  0  0  0  0  0  0
  129.8900  124.3210   64.1570 C   0  0  0  0  0  0  0  0  0  0  0  0
  131.2390  123.9630   64.2400 C   0  0  0  0  0  0  0  0  0  0  0  0
  131.7230  122.8330   63.5850 C   0  0  0  0  0  0  0  0  0  0  0  0
  130.8700  122.0100   62.8330 C   0  0  0  0  0  0  0  0  0  0  0  0
  131.3420  120.8790   62.1580 N   0  0  0  0  0  0  0  0  0  0  0  0
  130.4200  119.9560   61.4640 C   0  0  0  0  0  0  0  0  0  0  0  0
  131.0580  118.6020   61.0900 C   0  0  0  0  0  0  0  0  0  0  0  0
  132.2350  118.8140   60.3260 O   0  0  0  0  0  0  0  0  0  0  0  0
  133.1980  119.5620   61.0520 C   0  0  0  0  0  0  0  0  0  0  0  0
  132.6230  120.9450   61.4240 C   0  0  0  0  0  0  0  0  0  0  0  0
  129.5230  122.3850   62.7350 C   0  0  0  0  0  0  0  0  0  0  0  0
  129.0410  123.5160   63.3880 C   0  0  0  0  0  0  0  0  0  0  0  0
  129.4820  125.6860   66.2550 C   0  0  0  0  0  0  0  0  0  0  0  0
  128.9720  126.8280   66.8830 C   0  0  0  0  0  0  0  0  0  0  0  0
  129.0930  126.9250   68.3700 C   0  0  0  0  0  0  0  0  0  0  0  0
  128.4100  126.0270   69.1940 C   0  0  0  0  0  0  0  0  0  0  0  0
  128.5030  126.1240   70.5790 C   0  0  0  0  0  0  0  0  0  0  0  0
  129.2710  127.1320   71.1820 C   0  0  0  0  0  0  0  0  0  0  0  0
  129.3810  127.2460   72.5710 N   0  0  0  0  0  0  0  0  0  0  0  0
  128.6790  128.3100   73.3130 C   0  0  0  0  0  0  0  0  0  0  0  0
  128.6300  128.0680   74.8370 C   0  0  0  0  0  0  0  0  0  0  0  0
  129.9440  127.8820   75.3410 O   0  0  0  0  0  0  0  0  0  0  0  0
  130.5820  126.7660   74.7380 C   0  0  0  0  0  0  0  0  0  0  0  0
  130.6830  126.9750   73.2130 C   0  0  0  0  0  0  0  0  0  0  0  0
  129.9580  128.0240   70.3480 C   0  0  0  0  0  0  0  0  0  0  0  0
  129.8660  127.9270   68.9630 C   0  0  0  0  0  0  0  0  0  0  0  0
  128.3660  127.8190   66.0760 C   0  0  0  0  0  0  0  0  0  0  0  0
  127.8500  129.0680   66.6400 C   0  0  0  0  0  0  0  0  0  0  0  0
  127.4420  130.0550   67.0870 N   0  0  0  0  0  0  0  0  0  0  0  0
  126.2950  123.9800   61.2350 C   0  0  0  0  0  0  0  0  0  0  0  0
  126.5400  123.0620   60.2170 C   0  0  0  0  0  0  0  0  0  0  0  0
  1  2  1  0
  2  3  1  0
  3  4  1  0
  4  5  2  0
  4  6  1  0
  6  7  2  0
  7  8  1  0
  8  9  2  0
  9 10  1  0
 10 11  1  0
 11 12  2  0
 11 13  1  0
 13 14  1  0
 14 15  1  0
 15 16  2  0
 16 17  1  0
 17 18  1  0
 18 19  2  0
 19 20  1  0
 20 21  2  0
 21 22  1  0
 22 23  1  0
 23 24  1  0
 24 25  1  0
 25 26  1  0
 26 27  1  0
 21 28  1  0
 28 29  2  0
 17 30  2  0
 30 31  1  0
 31 32  1  0
 32 33  2  0
 33 34  1  0
 34 35  2  0
 35 36  1  0
 36 37  1  0
 37 38  1  0
 38 39  1  0
 39 40  1  0
 40 41  1  0
 35 42  1  0
 42 43  2  0
 31 44  2  0
 44 45  1  0
 45 46  3  0
  9 47  1  0
 47 48  2  0
 48  6  1  0
 44 15  1  0
 29 18  1  0
 43 32  1  0
 27 22  1  0
 41 36  1  0
M  END
>  <Binding energies>  (9) 
[-9.39]

>  <Ligand effiencies>  (9) 
[-0.1916326530612245]

>  <Interactions>  (9) 
["V-B:PRO:540:CB:9857, V-A:ILE:369:CG2:3236, V-B:PRO:540:N:9856, V-B:PRO:540:CA:9855, V-A:PRO:482:CG:4326, V-B:MET:535:CE:9807, H-B:TYR:539:N:9842, V-A:LEU:475:CD1:4257, V-B:TYR:539:C:9839, V-B:ALA:541:CB:9864, V-B:GLU:543:CD:9880, V-B:GLU:543:CB:9878, V-A:GLU:543:CB:4906, H-B:TYR:484:OH:9319, V-A:HIS:456:CE1:4069, V-B:HIS:456:CE1:9041, V-B:ARG:545:CZ:9898, V-A:GLU:543:C:4902, V-B:GLU:543:CG:9879, V-A:GLU:543:CD:4908, V-A:GLU:543:CG:4907, H-B:GLU:543:OE2:9882, V-B:GLU:543:C:9874, V-B:HIS:456:CD2:9039, V-B:ASP:366:CG:8184, V-A:HIS:456:CG:4065, V-A:HIS:456:CD2:4067, V-B:TYR:531:CZ:9766, V-B:TYR:531:CE2:9765, V-B:LEU:363:CD1:8160, H-B:GLU:543:OE1:9881, H-A:HIS:383:NE2:3393, H-A:LYS:547:NZ:4951"]

$$$$
2b_Ghoteimi_2023
     RDKit          3D

 42 47  0  0  0  0  0  0  0  0999 V2000
  128.7170  126.2060   60.0800 N   0  0  0  0  0  0  0  0  0  0  0  0
  128.7660  126.2770   61.2340 C   0  0  0  0  0  0  0  0  0  0  0  0
  128.8320  126.3620   62.6960 C   0  0  0  0  0  0  0  0  0  0  0  0
  129.3640  125.2900   63.4560 C   0  0  0  0  0  0  0  0  0  0  0  0
  129.8870  124.0260   62.8570 C   0  0  0  0  0  0  0  0  0  0  0  0
  131.2620  123.7900   62.8010 C   0  0  0  0  0  0  0  0  0  0  0  0
  131.7550  122.6140   62.2420 C   0  0  0  0  0  0  0  0  0  0  0  0
  130.8860  121.6490   61.7080 C   0  0  0  0  0  0  0  0  0  0  0  0
  131.3550  120.4570   61.1550 N   0  0  0  0  0  0  0  0  0  0  0  0
  132.8100  120.2080   61.1120 C   0  0  0  0  0  0  0  0  0  0  0  0
  133.2070  119.0640   60.1550 C   0  0  0  0  0  0  0  0  0  0  0  0
  132.4960  117.8810   60.4870 O   0  0  0  0  0  0  0  0  0  0  0  0
  131.0920  118.0680   60.3900 C   0  0  0  0  0  0  0  0  0  0  0  0
  130.6430  119.1800   61.3600 C   0  0  0  0  0  0  0  0  0  0  0  0
  129.5070  121.8980   61.7660 C   0  0  0  0  0  0  0  0  0  0  0  0
  129.0140  123.0710   62.3280 C   0  0  0  0  0  0  0  0  0  0  0  0
  129.4100  125.4190   64.8490 C   0  0  0  0  0  0  0  0  0  0  0  0
  128.9710  126.5940   65.4660 C   0  0  0  0  0  0  0  0  0  0  0  0
  129.0270  126.7930   66.9480 C   0  0  0  0  0  0  0  0  0  0  0  0
  129.0130  128.0810   67.4950 C   0  0  0  0  0  0  0  0  0  0  0  0
  129.0480  128.2740   68.8730 C   0  0  0  0  0  0  0  0  0  0  0  0
  129.1130  127.1850   69.7570 C   0  0  0  0  0  0  0  0  0  0  0  0
  129.1190  127.3630   71.1460 N   0  0  0  0  0  0  0  0  0  0  0  0
  128.8990  126.2050   72.0360 C   0  0  0  0  0  0  0  0  0  0  0  0
  128.5450  126.5990   73.4870 C   0  0  0  0  0  0  0  0  0  0  0  0
  129.5410  127.4630   74.0120 O   0  0  0  0  0  0  0  0  0  0  0  0
  129.6460  128.6570   73.2540 C   0  0  0  0  0  0  0  0  0  0  0  0
  130.0290  128.3260   71.7960 C   0  0  0  0  0  0  0  0  0  0  0  0
  129.1200  125.8970   69.2050 C   0  0  0  0  0  0  0  0  0  0  0  0
  129.0810  125.7050   67.8260 C   0  0  0  0  0  0  0  0  0  0  0  0
  128.4630  127.6190   64.7370 N   0  0  0  0  0  0  0  0  0  0  0  0
  128.3770  127.5050   63.3900 C   0  0  0  0  0  0  0  0  0  0  0  0
  127.6830  128.9390   62.5960 S   0  0  0  0  0  0  0  0  0  0  0  0
  128.5780  130.3950   63.2150 C   0  0  0  0  0  0  0  0  0  0  0  0
  129.4890  131.0070   62.1500 C   0  0  0  0  0  0  0  0  0  0  0  0
  129.1870  132.0900   61.6460 O   0  0  0  0  0  0  0  0  0  0  0  0
  130.5830  130.2810   61.8340 N   0  0  0  0  0  0  0  0  0  0  0  0
  131.5730  130.6040   60.9160 C   0  0  0  0  0  0  0  0  0  0  0  0
  131.4520  130.3590   59.5490 C   0  0  0  0  0  0  0  0  0  0  0  0
  132.6250  130.8180   58.9980 C   0  0  0  0  0  0  0  0  0  0  0  0
  133.4120  131.3140   59.9820 O   0  0  0  0  0  0  0  0  0  0  0  0
  132.7330  131.1750   61.1950 N   0  0  0  0  0  0  0  0  0  0  0  0
  1  2  3  0
  2  3  1  0
  3  4  2  0
  4  5  1  0
  5  6  2  0
  6  7  1  0
  7  8  2  0
  8  9  1  0
  9 10  1  0
 10 11  1  0
 11 12  1  0
 12 13  1  0
 13 14  1  0
  8 15  1  0
 15 16  2  0
  4 17  1  0
 17 18  2  0
 18 19  1  0
 19 20  2  0
 20 21  1  0
 21 22  2  0
 22 23  1  0
 23 24  1  0
 24 25  1  0
 25 26  1  0
 26 27  1  0
 27 28  1  0
 22 29  1  0
 29 30  2  0
 18 31  1  0
 31 32  2  0
 32 33  1  0
 33 34  1  0
 34 35  1  0
 35 36  2  0
 35 37  1  0
 37 38  1  0
 38 39  1  0
 39 40  2  0
 40 41  1  0
 41 42  1  0
 32  3  1  0
 42 38  2  0
 16  5  1  0
 30 19  1  0
 14  9  1  0
 28 23  1  0
M  END
>  <Binding energies>  (10) 
[-9.43]

>  <Ligand effiencies>  (10) 
[-0.21930232558139534]

>  <Interactions>  (10) 
["V-A:ILE:369:CG2:3236, V-B:TYR:539:CD2:9846, V-A:PRO:482:CG:4326, V-A:LEU:475:CD1:4257, V-B:ALA:541:CB:9864, V-B:GLU:543:CD:9880, V-B:GLU:543:CB:9878, V-A:GLU:543:CB:4906, V-A:HIS:456:CE1:4069, V-B:HIS:456:CE1:9041, H-A:ALA:541:N:4891, V-A:ALA:541:CB:4892, H-A:GLU:543:OE1:4909, V-B:GLU:543:CG:9879, V-A:GLU:543:CD:4908, V-A:GLU:543:CG:4907, V-A:ASP:366:CG:3212, V-B:GLU:543:C:9874, V-B:HIS:456:CD2:9039, V-A:LYS:547:CE:4950, V-A:PRO:540:CA:4883, H-A:GLU:543:OE2:4910, H-A:ASP:366:OD2:3214, V-A:PRO:540:CB:4885, H-A:HIS:383:NE2:3393, H-A:SER:385:OG:3409, H-A:LEU:363:N:3185"]

$$$$
2c_Ghoteimi_2023
     RDKit          3D

 42 47  0  0  0  0  0  0  0  0999 V2000
  127.2930  129.7680   65.7620 N   0  0  0  0  0  0  0  0  0  0  0  0
  127.7660  128.7940   65.3550 C   0  0  0  0  0  0  0  0  0  0  0  0
  128.3650  127.5570   64.8440 C   0  0  0  0  0  0  0  0  0  0  0  0
  128.9630  126.6250   65.7290 C   0  0  0  0  0  0  0  0  0  0  0  0
  129.0360  126.8140   67.2090 C   0  0  0  0  0  0  0  0  0  0  0  0
  128.7570  125.7490   68.0670 C   0  0  0  0  0  0  0  0  0  0  0  0
  128.8280  125.9150   69.4480 C   0  0  0  0  0  0  0  0  0  0  0  0
  129.1670  127.1560   70.0100 C   0  0  0  0  0  0  0  0  0  0  0  0
  129.2640  127.3390   71.3910 N   0  0  0  0  0  0  0  0  0  0  0  0
  129.1260  126.1730   72.2860 C   0  0  0  0  0  0  0  0  0  0  0  0
  128.8660  126.5620   73.7570 C   0  0  0  0  0  0  0  0  0  0  0  0
  129.8850  127.4360   74.2170 O   0  0  0  0  0  0  0  0  0  0  0  0
  129.9370  128.6310   73.4520 C   0  0  0  0  0  0  0  0  0  0  0  0
  130.2240  128.2970   71.9730 C   0  0  0  0  0  0  0  0  0  0  0  0
  129.4420  128.2200   69.1390 C   0  0  0  0  0  0  0  0  0  0  0  0
  129.3730  128.0530   67.7590 C   0  0  0  0  0  0  0  0  0  0  0  0
  129.5180  125.4570   65.1920 C   0  0  0  0  0  0  0  0  0  0  0  0
  129.4570  125.2110   63.8170 C   0  0  0  0  0  0  0  0  0  0  0  0
  130.0200  123.9720   63.1970 C   0  0  0  0  0  0  0  0  0  0  0  0
  131.2780  123.4920   63.5750 C   0  0  0  0  0  0  0  0  0  0  0  0
  131.8050  122.3360   63.0050 C   0  0  0  0  0  0  0  0  0  0  0  0
  131.0970  121.6220   62.0260 C   0  0  0  0  0  0  0  0  0  0  0  0
  131.6010  120.4450   61.4620 N   0  0  0  0  0  0  0  0  0  0  0  0
  133.0570  120.2000   61.4500 C   0  0  0  0  0  0  0  0  0  0  0  0
  133.4890  119.0830   60.4770 C   0  0  0  0  0  0  0  0  0  0  0  0
  132.7800  117.8890   60.7620 O   0  0  0  0  0  0  0  0  0  0  0  0
  131.3800  118.0690   60.6180 C   0  0  0  0  0  0  0  0  0  0  0  0
  130.8840  119.1590   61.5910 C   0  0  0  0  0  0  0  0  0  0  0  0
  129.8300  122.1000   61.6590 C   0  0  0  0  0  0  0  0  0  0  0  0
  129.3040  123.2550   62.2310 C   0  0  0  0  0  0  0  0  0  0  0  0
  128.8820  126.1040   62.9710 N   0  0  0  0  0  0  0  0  0  0  0  0
  128.3660  127.2550   63.4630 C   0  0  0  0  0  0  0  0  0  0  0  0
  127.6640  128.3110   62.2150 S   0  0  0  0  0  0  0  0  0  0  0  0
  126.3880  127.3520   61.3440 C   0  0  0  0  0  0  0  0  0  0  0  0
  126.9950  126.3410   60.3700 C   0  0  0  0  0  0  0  0  0  0  0  0
  128.2170  126.3100   60.2140 O   0  0  0  0  0  0  0  0  0  0  0  0
  126.1120  125.5400   59.7370 N   0  0  0  0  0  0  0  0  0  0  0  0
  126.4070  124.5370   58.8250 C   0  0  0  0  0  0  0  0  0  0  0  0
  126.0770  124.4790   57.5530 N   0  0  0  0  0  0  0  0  0  0  0  0
  126.5300  123.3800   56.9840 C   0  0  0  0  0  0  0  0  0  0  0  0
  127.2480  122.5140   57.8030 C   0  0  0  0  0  0  0  0  0  0  0  0
  127.3270  123.1860   59.4040 S   0  0  0  0  0  0  0  0  0  0  0  0
  1  2  3  0
  2  3  1  0
  3  4  2  0
  4  5  1  0
  5  6  2  0
  6  7  1  0
  7  8  2  0
  8  9  1  0
  9 10  1  0
 10 11  1  0
 11 12  1  0
 12 13  1  0
 13 14  1  0
  8 15  1  0
 15 16  2  0
  4 17  1  0
 17 18  2  0
 18 19  1  0
 19 20  2  0
 20 21  1  0
 21 22  2  0
 22 23  1  0
 23 24  1  0
 24 25  1  0
 25 26  1  0
 26 27  1  0
 27 28  1  0
 22 29  1  0
 29 30  2  0
 18 31  1  0
 31 32  2  0
 32 33  1  0
 33 34  1  0
 34 35  1  0
 35 36  2  0
 35 37  1  0
 37 38  1  0
 38 39  2  0
 39 40  1  0
 40 41  2  0
 41 42  1  0
 32  3  1  0
 42 38  1  0
 16  5  1  0
 30 19  1  0
 14  9  1  0
 28 23  1  0
M  END
>  <Binding energies>  (11) 
[-9.68]

>  <Ligand effiencies>  (11) 
[-0.22511627906976744]

>  <Interactions>  (11) 
["V-B:PRO:540:CB:9857, V-A:ILE:369:CG2:3236, V-B:PRO:540:N:9856, V-B:TYR:539:CD2:9846, V-B:PRO:540:CA:9855, V-A:PRO:482:CG:4326, V-B:MET:535:CE:9807, V-A:LEU:475:CD1:4257, H-B:TYR:531:OH:9767, V-A:SER:385:CA:3406, V-B:TYR:539:C:9839, V-B:ALA:541:CB:9864, V-B:GLU:543:CD:9880, V-B:GLU:543:CB:9878, V-A:GLU:543:CB:4906, H-B:TYR:484:OH:9319, V-A:HIS:456:CE1:4069, V-B:HIS:456:CE1:9041, V-A:GLU:543:C:4902, V-B:GLU:543:CG:9879, V-A:GLU:543:CD:4908, V-A:GLU:543:CG:4907, V-B:GLU:543:C:9874, V-B:HIS:456:CD2:9039, V-A:LYS:547:CE:4950, V-B:GLU:543:CA:9876, V-B:ASP:366:CG:8184, H-B:ASP:366:OD1:8185, H-A:HIS:383:NE2:3393, H-A:SER:385:OG:3409, H-A:LYS:547:NZ:4951"]

$$$$
2j_Grossjean_2025
     RDKit          3D

 23 24  0  0  0  0  0  0  0  0999 V2000
  129.3480  122.3130   62.6060 C   0  0  0  0  0  0  0  0  0  0  0  0
  130.3830  121.3680   62.0230 C   0  0  0  0  0  0  0  0  0  0  0  0
  130.0360  120.1010   61.5620 C   0  0  0  0  0  0  0  0  0  0  0  0
  131.0270  119.2650   61.0290 C   0  0  0  0  0  0  0  0  0  0  0  0
  130.6260  117.8660   60.5230 C   0  0  0  0  0  0  0  0  0  0  0  0
  131.3270  116.9300   61.1650 F   0  0  0  0  0  0  0  0  0  0  0  0
  129.3260  117.6570   60.7400 F   0  0  0  0  0  0  0  0  0  0  0  0
  130.8450  117.7070   59.2160 F   0  0  0  0  0  0  0  0  0  0  0  0
  132.3610  119.7430   60.9780 C   0  0  0  0  0  0  0  0  0  0  0  0
  133.4370  118.9120   60.4300 C   0  0  0  0  0  0  0  0  0  0  0  0
  134.2870  118.2560   59.9970 N   0  0  0  0  0  0  0  0  0  0  0  0
  132.6240  121.0450   61.4680 C   0  0  0  0  0  0  0  0  0  0  0  0
  134.2650  121.7510   61.4520 S   0  0  0  0  0  0  0  0  0  0  0  0
  134.1120  123.5560   61.2240 C   0  0  0  0  0  0  0  0  0  0  0  0
  134.1540  124.3760   62.5220 C   0  0  0  0  0  0  0  0  0  0  0  0
  135.1270  125.0860   62.7870 O   0  0  0  0  0  0  0  0  0  0  0  0
  133.0680  124.2370   63.3150 N   0  0  0  0  0  0  0  0  0  0  0  0
  132.8470  124.8610   64.5360 C   0  0  0  0  0  0  0  0  0  0  0  0
  133.7200  125.0940   65.4930 N   0  0  0  0  0  0  0  0  0  0  0  0
  133.1640  125.7110   66.5170 C   0  0  0  0  0  0  0  0  0  0  0  0
  131.8050  125.9920   66.4030 C   0  0  0  0  0  0  0  0  0  0  0  0
  131.2360  125.4120   64.8660 S   0  0  0  0  0  0  0  0  0  0  0  0
  131.6490  121.8390   61.9790 N   0  0  0  0  0  0  0  0  0  0  0  0
  1  2  1  0
  2  3  2  0
  3  4  1  0
  4  5  1  0
  5  6  1  0
  5  7  1  0
  5  8  1  0
  4  9  2  0
  9 10  1  0
 10 11  3  0
  9 12  1  0
 12 13  1  0
 13 14  1  0
 14 15  1  0
 15 16  2  0
 15 17  1  0
 17 18  1  0
 18 19  2  0
 19 20  1  0
 20 21  2  0
 21 22  1  0
 12 23  2  0
 23  2  1  0
 22 18  1  0
M  END
>  <Binding energies>  (12) 
[-6.37]

>  <Ligand effiencies>  (12) 
[-0.2654166666666667]

>  <Interactions>  (12) 
["V-A:ILE:369:CG2:3236, V-B:PRO:540:N:9856, V-B:TYR:539:CD2:9846, V-A:PRO:482:CG:4326, V-B:PRO:540:C:9853, V-A:PRO:482:CB:4325, V-A:LEU:475:CD1:4257, V-B:ALA:541:CA:9862, V-A:SER:385:CA:3406, V-B:TYR:539:C:9839, V-B:ALA:541:CB:9864, V-A:ARG:545:CD:4923, V-A:ARG:545:CZ:4926, V-A:GLY:453:CA:4043, V-A:GLY:453:C:4041, V-A:ARG:545:CG:4922, V-A:HIS:383:CE1:3392, H-A:TYR:484:OH:4347, H-A:GLY:454:N:4049, V-A:ASP:366:CG:3212, H-A:ARG:545:NH1:4927, V-A:ILE:369:CD1:3238, V-A:TYR:484:CZ:4346, H-A:ARG:545:NH2:4928, V-B:TYR:539:CB:9843, V-B:TYR:539:CA:9841, V-A:HIS:383:CD2:3391, H-A:ARG:545:NE:4924, V-B:TYR:539:CG:9844, H-A:HIS:383:NE2:3393, H-A:SER:385:OG:3409, V-A:PRO:482:CD:4327"]

$$$$
3ab_Grossjean_2025
     RDKit          3D

 33 35  0  0  0  0  0  0  0  0999 V2000
  131.4110  126.1250   66.9070 C   0  0  0  0  0  0  0  0  0  0  0  0
  132.5970  126.2790   66.1390 O   0  0  0  0  0  0  0  0  0  0  0  0
  132.8730  125.4440   65.1050 C   0  0  0  0  0  0  0  0  0  0  0  0
  133.9970  124.9880   64.8790 O   0  0  0  0  0  0  0  0  0  0  0  0
  131.6710  125.1260   64.2630 C   0  0  0  0  0  0  0  0  0  0  0  0
  130.9160  123.9580   64.4550 C   0  0  0  0  0  0  0  0  0  0  0  0
  129.8060  123.6890   63.6600 C   0  0  0  0  0  0  0  0  0  0  0  0
  129.4290  124.5890   62.6510 C   0  0  0  0  0  0  0  0  0  0  0  0
  128.3240  124.4230   61.7950 N   0  0  0  0  0  0  0  0  0  0  0  0
  127.4380  123.4080   61.7110 C   0  0  0  0  0  0  0  0  0  0  0  0
  127.4510  122.3880   62.3990 O   0  0  0  0  0  0  0  0  0  0  0  0
  126.3420  123.5800   60.6560 C   0  0  0  0  0  0  0  0  0  0  0  0
  126.9330  123.1780   58.9840 S   0  0  0  0  0  0  0  0  0  0  0  0
  128.7130  123.1430   59.0400 C   0  0  0  0  0  0  0  0  0  0  0  0
  129.2130  122.0310   59.6290 N   0  0  0  0  0  0  0  0  0  0  0  0
  130.5580  121.8690   59.7360 C   0  0  0  0  0  0  0  0  0  0  0  0
  131.0310  120.6100   60.3980 C   0  0  0  0  0  0  0  0  0  0  0  0
  132.3270  120.1200   60.1680 C   0  0  0  0  0  0  0  0  0  0  0  0
  132.7720  118.9520   60.7810 C   0  0  0  0  0  0  0  0  0  0  0  0
  131.9240  118.2540   61.6340 C   0  0  0  0  0  0  0  0  0  0  0  0
  130.6340  118.7140   61.8760 C   0  0  0  0  0  0  0  0  0  0  0  0
  130.1930  119.8830   61.2610 C   0  0  0  0  0  0  0  0  0  0  0  0
  131.4360  122.8500   59.2620 C   0  0  0  0  0  0  0  0  0  0  0  0
  130.9420  124.0190   58.6660 C   0  0  0  0  0  0  0  0  0  0  0  0
  131.9430  125.0770   58.1630 C   0  0  0  0  0  0  0  0  0  0  0  0
  131.8160  125.3300   56.8580 F   0  0  0  0  0  0  0  0  0  0  0  0
  131.7610  126.2280   58.8110 F   0  0  0  0  0  0  0  0  0  0  0  0
  133.1920  124.6570   58.3710 F   0  0  0  0  0  0  0  0  0  0  0  0
  129.5380  124.1820   58.5550 C   0  0  0  0  0  0  0  0  0  0  0  0
  128.9680  125.4080   57.9920 C   0  0  0  0  0  0  0  0  0  0  0  0
  128.5200  126.3780   57.5480 N   0  0  0  0  0  0  0  0  0  0  0  0
  130.1730  125.7540   62.4610 C   0  0  0  0  0  0  0  0  0  0  0  0
  131.2840  126.0200   63.2560 C   0  0  0  0  0  0  0  0  0  0  0  0
  1  2  1  0
  2  3  1  0
  3  4  2  0
  3  5  1  0
  5  6  2  0
  6  7  1  0
  7  8  2  0
  8  9  1  0
  9 10  1  0
 10 11  2  0
 10 12  1  0
 12 13  1  0
 13 14  1  0
 14 15  2  0
 15 16  1  0
 16 17  1  0
 17 18  2  0
 18 19  1  0
 19 20  2  0
 20 21  1  0
 21 22  2  0
 16 23  2  0
 23 24  1  0
 24 25  1  0
 25 26  1  0
 25 27  1  0
 25 28  1  0
 24 29  2  0
 29 30  1  0
 30 31  3  0
  8 32  1  0
 32 33  2  0
 33  5  1  0
 29 14  1  0
 22 17  1  0
M  END
>  <Binding energies>  (13) 
[-7.38]

>  <Ligand effiencies>  (13) 
[-0.21705882352941175]

>  <Interactions>  (13) 
["V-B:PRO:540:CB:9857, V-A:ILE:369:CG2:3236, V-B:TYR:539:CE2:9848, V-B:TYR:539:CZ:9849, V-B:TYR:539:CD2:9846, V-B:PRO:540:CA:9855, V-A:PRO:482:CG:4326, V-A:PRO:482:CB:4325, V-A:LEU:475:CD1:4257, H-B:ALA:541:N:9863, H-B:TYR:531:OH:9767, V-B:ALA:541:CB:9864, V-B:GLU:543:CD:9880, V-A:ARG:545:CZ:4926, V-A:HIS:456:CE1:4069, H-A:TYR:484:OH:4347, H-A:GLY:454:N:4049, V-B:GLU:543:CG:9879, V-A:ASP:366:CG:3212, H-A:ARG:545:NH1:4927, V-A:ASP:366:C:3207, V-A:ASP:366:CB:3211, V-A:ASP:366:CA:3209, H-A:ARG:545:NH2:4928, H-A:ARG:545:NE:4924"]

$$$$
3ac_Grossjean_2025
     RDKit          3D

 31 33  0  0  0  0  0  0  0  0999 V2000
  128.5810  126.4940   68.3860 C   0  0  0  0  0  0  0  0  0  0  0  0
  129.5780  125.4830   68.2710 O   0  0  0  0  0  0  0  0  0  0  0  0
  130.2830  125.3610   67.0890 C   0  0  0  0  0  0  0  0  0  0  0  0
  129.7270  124.5310   66.1160 C   0  0  0  0  0  0  0  0  0  0  0  0
  130.3630  124.3500   64.8920 C   0  0  0  0  0  0  0  0  0  0  0  0
  131.5730  124.9920   64.6250 C   0  0  0  0  0  0  0  0  0  0  0  0
  132.1290  124.7640   63.3530 N   0  0  0  0  0  0  0  0  0  0  0  0
  133.4250  124.7950   62.9720 C   0  0  0  0  0  0  0  0  0  0  0  0
  134.3820  124.9960   63.7210 O   0  0  0  0  0  0  0  0  0  0  0  0
  133.6800  124.5520   61.4840 C   0  0  0  0  0  0  0  0  0  0  0  0
  133.9720  122.7950   61.1140 S   0  0  0  0  0  0  0  0  0  0  0  0
  132.4090  121.9380   61.1410 C   0  0  0  0  0  0  0  0  0  0  0  0
  131.3490  122.7670   61.2990 N   0  0  0  0  0  0  0  0  0  0  0  0
  130.0910  122.2580   61.3330 C   0  0  0  0  0  0  0  0  0  0  0  0
  128.9740  123.2420   61.5180 C   0  0  0  0  0  0  0  0  0  0  0  0
  129.2430  124.5740   61.8730 C   0  0  0  0  0  0  0  0  0  0  0  0
  128.2120  125.4940   62.0410 C   0  0  0  0  0  0  0  0  0  0  0  0
  126.8920  125.0930   61.8570 C   0  0  0  0  0  0  0  0  0  0  0  0
  126.5980  123.7790   61.5100 C   0  0  0  0  0  0  0  0  0  0  0  0
  127.6330  122.8620   61.3430 C   0  0  0  0  0  0  0  0  0  0  0  0
  129.8720  120.8810   61.2240 C   0  0  0  0  0  0  0  0  0  0  0  0
  130.9530  119.9990   61.0820 C   0  0  0  0  0  0  0  0  0  0  0  0
  130.6670  118.4880   60.9720 C   0  0  0  0  0  0  0  0  0  0  0  0
  131.0060  117.9830   59.7840 F   0  0  0  0  0  0  0  0  0  0  0  0
  131.3550  117.8190   61.8980 F   0  0  0  0  0  0  0  0  0  0  0  0
  129.3660  118.2600   61.1510 F   0  0  0  0  0  0  0  0  0  0  0  0
  132.2650  120.5340   61.0540 C   0  0  0  0  0  0  0  0  0  0  0  0
  133.4280  119.6470   60.9850 C   0  0  0  0  0  0  0  0  0  0  0  0
  134.3480  118.9460   60.9320 N   0  0  0  0  0  0  0  0  0  0  0  0
  132.1350  125.8350   65.5960 C   0  0  0  0  0  0  0  0  0  0  0  0
  131.4960  126.0150   66.8200 C   0  0  0  0  0  0  0  0  0  0  0  0
  1  2  1  0
  2  3  1  0
  3  4  2  0
  4  5  1  0
  5  6  2  0
  6  7  1  0
  7  8  1  0
  8  9  2  0
  8 10  1  0
 10 11  1  0
 11 12  1  0
 12 13  2  0
 13 14  1  0
 14 15  1  0
 15 16  2  0
 16 17  1  0
 17 18  2  0
 18 19  1  0
 19 20  2  0
 14 21  2  0
 21 22  1  0
 22 23  1  0
 23 24  1  0
 23 25  1  0
 23 26  1  0
 22 27  2  0
 27 28  1  0
 28 29  3  0
  6 30  1  0
 30 31  2  0
 31  3  1  0
 27 12  1  0
 20 15  1  0
M  END
>  <Binding energies>  (14) 
[-7.25]

>  <Ligand effiencies>  (14) 
[-0.2265625]

>  <Interactions>  (14) 
["V-A:ILE:369:CG2:3236, V-B:TYR:539:CD2:9846, V-B:PRO:540:CA:9855, V-A:PRO:482:CG:4326, V-B:PRO:540:C:9853, V-A:PRO:482:CB:4325, V-A:LEU:475:CD1:4257, V-B:ALA:541:CA:9862, V-B:TYR:539:C:9839, V-B:ALA:541:CB:9864, V-B:GLU:543:CD:9880, V-A:ARG:545:CZ:4926, V-B:GLU:543:CB:9878, V-A:HIS:456:CE1:4069, V-B:HIS:456:CE1:9041, H-A:GLY:454:N:4049, V-B:GLU:543:CG:9879, V-A:ASP:366:CG:3212, H-A:ARG:545:NH1:4927, V-A:TYR:484:CE2:4345, V-A:TYR:484:CZ:4346, H-A:ARG:545:NH2:4928, V-B:TYR:539:CB:9843, V-B:TYR:539:CG:9844, H-A:SER:385:OG:3409, V-A:PRO:482:CD:4327"]

$$$$
3af_Grossjean_2025
     RDKit          3D

 29 31  0  0  0  0  0  0  0  0999 V2000
  132.1440  121.3660   60.0290 N   0  0  0  0  0  0  0  0  0  0  0  0
  131.9990  122.0810   60.9280 C   0  0  0  0  0  0  0  0  0  0  0  0
  131.8170  122.9860   62.0650 C   0  0  0  0  0  0  0  0  0  0  0  0
  132.8830  123.8000   62.5190 C   0  0  0  0  0  0  0  0  0  0  0  0
  134.2610  123.8260   61.8300 C   0  0  0  0  0  0  0  0  0  0  0  0
  135.1350  124.6240   62.4490 F   0  0  0  0  0  0  0  0  0  0  0  0
  134.7820  122.5990   61.8080 F   0  0  0  0  0  0  0  0  0  0  0  0
  134.1390  124.2670   60.5770 F   0  0  0  0  0  0  0  0  0  0  0  0
  132.6760  124.6100   63.6460 C   0  0  0  0  0  0  0  0  0  0  0  0
  131.4410  124.6050   64.3030 C   0  0  0  0  0  0  0  0  0  0  0  0
  131.1720  125.4360   65.5220 C   0  0  0  0  0  0  0  0  0  0  0  0
  129.8700  125.5600   66.0320 C   0  0  0  0  0  0  0  0  0  0  0  0
  129.6140  126.3280   67.1650 C   0  0  0  0  0  0  0  0  0  0  0  0
  130.6610  126.9830   67.8050 C   0  0  0  0  0  0  0  0  0  0  0  0
  131.9610  126.8740   67.3220 C   0  0  0  0  0  0  0  0  0  0  0  0
  132.2120  126.1050   66.1890 C   0  0  0  0  0  0  0  0  0  0  0  0
  130.4230  123.8200   63.8670 N   0  0  0  0  0  0  0  0  0  0  0  0
  130.5910  123.0470   62.7670 C   0  0  0  0  0  0  0  0  0  0  0  0
  129.1430  122.1010   62.3420 S   0  0  0  0  0  0  0  0  0  0  0  0
  127.6940  123.1870   62.5070 C   0  0  0  0  0  0  0  0  0  0  0  0
  126.7800  123.1060   61.2850 C   0  0  0  0  0  0  0  0  0  0  0  0
  125.5660  122.9940   61.4510 O   0  0  0  0  0  0  0  0  0  0  0  0
  127.4070  123.1600   60.0890 N   0  0  0  0  0  0  0  0  0  0  0  0
  126.8690  123.1040   58.7890 C   0  0  0  0  0  0  0  0  0  0  0  0
  127.1080  122.0900   57.8440 C   0  0  0  0  0  0  0  0  0  0  0  0
  126.5070  122.1620   56.5850 C   0  0  0  0  0  0  0  0  0  0  0  0
  125.6800  123.2490   56.3010 C   0  0  0  0  0  0  0  0  0  0  0  0
  125.4320  124.2390   57.1950 N   0  0  0  0  0  0  0  0  0  0  0  0
  126.0240  124.1540   58.4130 C   0  0  0  0  0  0  0  0  0  0  0  0
  1  2  3  0
  2  3  1  0
  3  4  2  0
  4  5  1  0
  5  6  1  0
  5  7  1  0
  5  8  1  0
  4  9  1  0
  9 10  2  0
 10 11  1  0
 11 12  2  0
 12 13  1  0
 13 14  2  0
 14 15  1  0
 15 16  2  0
 10 17  1  0
 17 18  2  0
 18 19  1  0
 19 20  1  0
 20 21  1  0
 21 22  2  0
 21 23  1  0
 23 24  1  0
 24 25  2  0
 25 26  1  0
 26 27  2  0
 27 28  1  0
 28 29  2  0
 18  3  1  0
 29 24  1  0
 16 11  1  0
M  END
>  <Binding energies>  (15) 
[-7.16]

>  <Ligand effiencies>  (15) 
[-0.23866666666666667]

>  <Interactions>  (15) 
["V-B:PRO:540:CB:9857, V-A:ILE:369:CG2:3236, V-B:PRO:540:N:9856, V-B:PRO:540:CA:9855, V-B:MET:535:CE:9807, H-B:ALA:541:N:9863, H-B:TYR:531:OH:9767, V-B:TYR:539:C:9839, V-B:ALA:541:CB:9864, V-B:GLU:543:CD:9880, V-A:ARG:545:CZ:4926, V-A:GLY:453:CA:4043, V-A:GLY:453:C:4041, V-A:GLU:543:CB:4906, V-A:HIS:456:CE1:4069, V-A:ARG:545:CG:4922, V-A:GLY:454:CA:4048, H-A:TYR:484:OH:4347, V-B:GLU:543:CG:9879, V-A:GLU:543:CD:4908, V-A:ASP:366:CG:3212, V-A:ILE:369:CD1:3238, V-A:ASP:366:CB:3211, V-A:ASP:366:CA:3209, V-B:PRO:540:CD:9859, V-B:TYR:531:CZ:9766, V-B:TYR:531:CE2:9765, V-B:LEU:363:CD1:8160, V-B:MET:535:CG:9805"]

$$$$
3ag_Grossjean_2025
     RDKit          3D

 30 32  0  0  0  0  0  0  0  0999 V2000
  126.6440  126.4680   62.3700 N   0  0  0  0  0  0  0  0  0  0  0  0
  127.3070  125.5320   62.2140 C   0  0  0  0  0  0  0  0  0  0  0  0
  128.1500  124.3500   62.0170 C   0  0  0  0  0  0  0  0  0  0  0  0
  129.5460  124.4090   62.2490 C   0  0  0  0  0  0  0  0  0  0  0  0
  130.2500  125.6770   62.7700 C   0  0  0  0  0  0  0  0  0  0  0  0
  130.0410  126.7420   61.9930 F   0  0  0  0  0  0  0  0  0  0  0  0
  129.8010  125.9760   63.9900 F   0  0  0  0  0  0  0  0  0  0  0  0
  131.5670  125.4800   62.8300 F   0  0  0  0  0  0  0  0  0  0  0  0
  130.3180  123.2650   61.9950 C   0  0  0  0  0  0  0  0  0  0  0  0
  129.7160  122.0990   61.5110 C   0  0  0  0  0  0  0  0  0  0  0  0
  130.4910  120.8500   61.2200 C   0  0  0  0  0  0  0  0  0  0  0  0
  129.9460  119.5870   61.4960 C   0  0  0  0  0  0  0  0  0  0  0  0
  130.6610  118.4220   61.2290 C   0  0  0  0  0  0  0  0  0  0  0  0
  131.9360  118.5070   60.6790 C   0  0  0  0  0  0  0  0  0  0  0  0
  132.5010  119.7470   60.3980 C   0  0  0  0  0  0  0  0  0  0  0  0
  131.7830  120.9080   60.6680 C   0  0  0  0  0  0  0  0  0  0  0  0
  128.3750  122.0420   61.3010 N   0  0  0  0  0  0  0  0  0  0  0  0
  127.6070  123.1280   61.5590 C   0  0  0  0  0  0  0  0  0  0  0  0
  125.8780  122.8710   61.2300 S   0  0  0  0  0  0  0  0  0  0  0  0
  125.3890  124.0570   59.9420 C   0  0  0  0  0  0  0  0  0  0  0  0
  126.2280  123.9100   58.6730 C   0  0  0  0  0  0  0  0  0  0  0  0
  126.0110  124.6400   57.7040 O   0  0  0  0  0  0  0  0  0  0  0  0
  127.1860  122.9670   58.6960 N   0  0  0  0  0  0  0  0  0  0  0  0
  128.1230  122.6820   57.6100 C   0  0  0  0  0  0  0  0  0  0  0  0
  129.3570  123.5780   57.6010 C   0  0  0  0  0  0  0  0  0  0  0  0
  129.4880  124.5690   56.6250 C   0  0  0  0  0  0  0  0  0  0  0  0
  130.5990  125.4090   56.6310 C   0  0  0  0  0  0  0  0  0  0  0  0
  131.5710  125.2600   57.6200 C   0  0  0  0  0  0  0  0  0  0  0  0
  131.4380  124.2830   58.6040 C   0  0  0  0  0  0  0  0  0  0  0  0
  130.3270  123.4440   58.5990 C   0  0  0  0  0  0  0  0  0  0  0  0
  1  2  3  0
  2  3  1  0
  3  4  2  0
  4  5  1  0
  5  6  1  0
  5  7  1  0
  5  8  1  0
  4  9  1  0
  9 10  2  0
 10 11  1  0
 11 12  2  0
 12 13  1  0
 13 14  2  0
 14 15  1  0
 15 16  2  0
 10 17  1  0
 17 18  2  0
 18 19  1  0
 19 20  1  0
 20 21  1  0
 21 22  2  0
 21 23  1  0
 23 24  1  0
 24 25  1  0
 25 26  2  0
 26 27  1  0
 27 28  2  0
 28 29  1  0
 29 30  2  0
 18  3  1  0
 30 25  1  0
 16 11  1  0
M  END
>  <Binding energies>  (16) 
[-7.11]

>  <Ligand effiencies>  (16) 
[-0.22935483870967743]

>  <Interactions>  (16) 
["V-B:PRO:540:CB:9857, V-A:ILE:369:CG2:3236, V-B:TYR:539:CE2:9848, V-B:PRO:540:N:9856, V-B:TYR:539:CZ:9849, V-B:TYR:539:CD2:9846, V-B:PRO:540:CA:9855, V-A:PRO:482:CG:4326, V-B:PRO:540:C:9853, V-A:PRO:482:CB:4325, V-B:MET:535:CE:9807, H-B:ALA:541:N:9863, H-B:TYR:531:OH:9767, V-B:ALA:541:CA:9862, V-B:TYR:539:C:9839, V-B:ALA:541:CB:9864, V-B:GLU:543:CD:9880, H-B:ARG:545:NH2:9900, V-A:ASP:366:CB:3211, H-B:TYR:539:O:9840"]

$$$$
3bc_Grossjean_2025
     RDKit          3D

 28 30  0  0  0  0  0  0  0  0999 V2000
  129.6320  126.8160   67.9710 C   0  0  0  0  0  0  0  0  0  0  0  0
  130.9670  126.3340   67.8650 O   0  0  0  0  0  0  0  0  0  0  0  0
  131.4530  125.9640   66.6250 C   0  0  0  0  0  0  0  0  0  0  0  0
  132.8330  125.7880   66.5260 C   0  0  0  0  0  0  0  0  0  0  0  0
  133.4150  125.4160   65.3170 C   0  0  0  0  0  0  0  0  0  0  0  0
  132.6210  125.2210   64.1850 C   0  0  0  0  0  0  0  0  0  0  0  0
  133.2970  124.8340   63.0120 N   0  0  0  0  0  0  0  0  0  0  0  0
  133.6300  123.5960   62.5910 C   0  0  0  0  0  0  0  0  0  0  0  0
  133.3460  122.5520   63.1830 O   0  0  0  0  0  0  0  0  0  0  0  0
  134.3820  123.5540   61.2530 C   0  0  0  0  0  0  0  0  0  0  0  0
  133.3630  123.1170   59.8040 S   0  0  0  0  0  0  0  0  0  0  0  0
  132.0660  122.0330   60.3580 C   0  0  0  0  0  0  0  0  0  0  0  0
  130.8220  122.5500   60.2050 N   0  0  0  0  0  0  0  0  0  0  0  0
  129.7370  121.8250   60.5860 C   0  0  0  0  0  0  0  0  0  0  0  0
  128.3980  122.4760   60.4030 C   0  0  0  0  0  0  0  0  0  0  0  0
  127.8870  122.7150   59.1190 C   0  0  0  0  0  0  0  0  0  0  0  0
  126.6440  123.3190   58.9410 C   0  0  0  0  0  0  0  0  0  0  0  0
  125.8960  123.6940   60.0520 C   0  0  0  0  0  0  0  0  0  0  0  0
  126.3810  123.4710   61.3360 C   0  0  0  0  0  0  0  0  0  0  0  0
  127.6240  122.8680   61.5090 C   0  0  0  0  0  0  0  0  0  0  0  0
  129.8830  120.5480   61.1360 C   0  0  0  0  0  0  0  0  0  0  0  0
  131.1590  119.9910   61.2790 C   0  0  0  0  0  0  0  0  0  0  0  0
  131.2710  118.5860   61.8700 C   0  0  0  0  0  0  0  0  0  0  0  0
  132.2880  120.7370   60.8750 C   0  0  0  0  0  0  0  0  0  0  0  0
  133.6280  120.1550   60.9690 C   0  0  0  0  0  0  0  0  0  0  0  0
  134.6870  119.6940   61.0460 N   0  0  0  0  0  0  0  0  0  0  0  0
  131.2310  125.3830   64.2800 C   0  0  0  0  0  0  0  0  0  0  0  0
  130.6530  125.7550   65.4910 C   0  0  0  0  0  0  0  0  0  0  0  0
  1  2  1  0
  2  3  1  0
  3  4  2  0
  4  5  1  0
  5  6  2  0
  6  7  1  0
  7  8  1  0
  8  9  2  0
  8 10  1  0
 10 11  1  0
 11 12  1  0
 12 13  2  0
 13 14  1  0
 14 15  1  0
 15 16  2  0
 16 17  1  0
 17 18  2  0
 18 19  1  0
 19 20  2  0
 14 21  2  0
 21 22  1  0
 22 23  1  0
 22 24  2  0
 24 25  1  0
 25 26  3  0
  6 27  1  0
 27 28  2  0
 28  3  1  0
 24 12  1  0
 20 15  1  0
M  END
>  <Binding energies>  (17) 
[-7.74]

>  <Ligand effiencies>  (17) 
[-0.26689655172413795]

>  <Interactions>  (17) 
["V-B:PRO:540:CB:9857, V-A:ILE:369:CG2:3236, V-B:TYR:539:CE2:9848, V-B:PRO:540:N:9856, V-B:PRO:540:CA:9855, V-A:PRO:482:CG:4326, V-B:PRO:540:C:9853, V-A:PRO:482:CB:4325, V-A:LEU:475:CD1:4257, V-B:TYR:539:C:9839, V-B:ALA:541:CB:9864, V-B:GLU:543:CD:9880, V-A:ARG:545:CD:4923, V-A:ARG:545:CZ:4926, V-A:HIS:456:CE1:4069, V-A:ARG:545:CG:4922, V-A:GLY:454:CA:4048, H-A:GLY:454:N:4049, V-A:ILE:369:CD1:3238, V-A:TYR:484:CZ:4346, H-A:ASP:366:OD2:3214, H-A:SER:385:OG:3409, H-A:ASP:366:OD1:3213"]

$$$$
3bd_Grossjean_2025
     RDKit          3D

 26 28  0  0  0  0  0  0  0  0999 V2000
  126.8570  133.6120   60.7570 C   0  0  0  0  0  0  0  0  0  0  0  0
  127.6240  132.2910   60.7630 C   0  0  0  0  0  0  0  0  0  0  0  0
  129.0010  132.3240   60.5150 C   0  0  0  0  0  0  0  0  0  0  0  0
  129.7380  131.1350   60.5080 C   0  0  0  0  0  0  0  0  0  0  0  0
  131.2160  131.1000   60.2540 C   0  0  0  0  0  0  0  0  0  0  0  0
  132.1290  131.3680   61.2880 C   0  0  0  0  0  0  0  0  0  0  0  0
  133.5020  131.3380   61.0580 C   0  0  0  0  0  0  0  0  0  0  0  0
  133.9830  131.0400   59.7870 C   0  0  0  0  0  0  0  0  0  0  0  0
  133.1000  130.7730   58.7460 C   0  0  0  0  0  0  0  0  0  0  0  0
  131.7290  130.8040   58.9790 C   0  0  0  0  0  0  0  0  0  0  0  0
  129.1360  129.9420   60.7540 N   0  0  0  0  0  0  0  0  0  0  0  0
  127.8020  129.8910   60.9960 C   0  0  0  0  0  0  0  0  0  0  0  0
  127.1310  128.2630   61.2910 S   0  0  0  0  0  0  0  0  0  0  0  0
  126.0780  127.8220   59.8760 C   0  0  0  0  0  0  0  0  0  0  0  0
  126.6810  126.6890   59.0450 C   0  0  0  0  0  0  0  0  0  0  0  0
  127.7950  126.8420   58.5430 O   0  0  0  0  0  0  0  0  0  0  0  0
  125.9120  125.5850   58.9160 N   0  0  0  0  0  0  0  0  0  0  0  0
  126.1970  124.3820   58.2440 C   0  0  0  0  0  0  0  0  0  0  0  0
  125.2060  123.9110   57.3790 C   0  0  0  0  0  0  0  0  0  0  0  0
  125.3940  122.7230   56.6770 C   0  0  0  0  0  0  0  0  0  0  0  0
  126.5720  122.0000   56.8470 C   0  0  0  0  0  0  0  0  0  0  0  0
  127.5620  122.4520   57.7160 C   0  0  0  0  0  0  0  0  0  0  0  0
  127.3770  123.6400   58.4190 C   0  0  0  0  0  0  0  0  0  0  0  0
  126.9970  131.0510   61.0090 C   0  0  0  0  0  0  0  0  0  0  0  0
  125.5570  130.9830   61.2730 C   0  0  0  0  0  0  0  0  0  0  0  0
  124.4200  130.9310   61.4820 N   0  0  0  0  0  0  0  0  0  0  0  0
  1  2  1  0
  2  3  2  0
  3  4  1  0
  4  5  1  0
  5  6  2  0
  6  7  1  0
  7  8  2  0
  8  9  1  0
  9 10  2  0
  4 11  2  0
 11 12  1  0
 12 13  1  0
 13 14  1  0
 14 15  1  0
 15 16  2  0
 15 17  1  0
 17 18  1  0
 18 19  2  0
 19 20  1  0
 20 21  2  0
 21 22  1  0
 22 23  2  0
 12 24  2  0
 24 25  1  0
 25 26  3  0
 24  2  1  0
 10  5  1  0
 23 18  1  0
M  END
>  <Binding energies>  (18) 
[-7.5]

>  <Ligand effiencies>  (18) 
[-0.2777777777777778]

>  <Interactions>  (18) 
["V-B:PRO:540:CB:9857, V-B:PRO:540:N:9856, V-B:PRO:540:CA:9855, V-B:MET:535:CE:9807, H-B:TYR:531:OH:9767, V-B:TYR:539:C:9839, V-A:ASP:366:CG:3212, V-A:ASP:366:CB:3211, V-B:ASP:366:CB:8183, V-A:TYR:539:CE1:4875, V-B:ASP:366:CG:8184, V-A:TYR:539:C:4867, V-A:PRO:540:CA:4883, V-A:TYR:539:CD1:4873, V-B:TYR:539:CA:9841, V-B:PRO:540:CD:9859, V-B:TYR:531:CZ:9766, V-B:TYR:531:CE2:9765, V-A:PRO:540:CB:4885, V-B:LEU:363:CD1:8160, V-A:PRO:540:C:4881, V-A:ASN:362:C:3171, V-A:LEU:363:CD1:3188, V-A:ASN:362:CB:3175, V-A:LEU:363:CA:3184, V-A:LEU:363:CB:3186, H-B:ASP:366:OD1:8185"]

$$$$
3be_Grossjean_2025
     RDKit          3D

 27 29  0  0  0  0  0  0  0  0999 V2000
  134.3620  125.3540   67.2020 C   0  0  0  0  0  0  0  0  0  0  0  0
  133.3830  125.4070   66.0460 C   0  0  0  0  0  0  0  0  0  0  0  0
  132.0400  125.7420   66.2380 C   0  0  0  0  0  0  0  0  0  0  0  0
  131.1960  125.7680   65.1280 C   0  0  0  0  0  0  0  0  0  0  0  0
  131.7090  125.4630   63.8640 C   0  0  0  0  0  0  0  0  0  0  0  0
  133.0650  125.1390   63.7410 C   0  0  0  0  0  0  0  0  0  0  0  0
  133.5180  124.8310   62.4440 N   0  0  0  0  0  0  0  0  0  0  0  0
  133.7150  123.6180   61.8840 C   0  0  0  0  0  0  0  0  0  0  0  0
  133.5250  122.5430   62.4560 O   0  0  0  0  0  0  0  0  0  0  0  0
  134.2110  123.6560   60.4300 C   0  0  0  0  0  0  0  0  0  0  0  0
  133.2350  122.6610   59.2510 S   0  0  0  0  0  0  0  0  0  0  0  0
  131.9120  121.8810   60.1500 C   0  0  0  0  0  0  0  0  0  0  0  0
  130.8450  122.6910   60.3590 N   0  0  0  0  0  0  0  0  0  0  0  0
  129.7600  122.2220   61.0300 C   0  0  0  0  0  0  0  0  0  0  0  0
  128.6280  123.1860   61.2310 C   0  0  0  0  0  0  0  0  0  0  0  0
  127.3080  122.8170   60.9260 C   0  0  0  0  0  0  0  0  0  0  0  0
  126.2540  123.7070   61.1080 C   0  0  0  0  0  0  0  0  0  0  0  0
  126.5050  124.9840   61.5970 C   0  0  0  0  0  0  0  0  0  0  0  0
  127.8040  125.3760   61.9050 C   0  0  0  0  0  0  0  0  0  0  0  0
  128.8560  124.4830   61.7210 C   0  0  0  0  0  0  0  0  0  0  0  0
  129.7280  120.9100   61.5150 C   0  0  0  0  0  0  0  0  0  0  0  0
  130.8100  120.0540   61.2870 C   0  0  0  0  0  0  0  0  0  0  0  0
  130.7230  118.6250   61.8190 C   0  0  0  0  0  0  0  0  0  0  0  0
  131.9330  120.5340   60.5780 C   0  0  0  0  0  0  0  0  0  0  0  0
  133.0530  119.6390   60.2810 C   0  0  0  0  0  0  0  0  0  0  0  0
  133.9370  118.9290   60.0470 N   0  0  0  0  0  0  0  0  0  0  0  0
  133.8950  125.1090   64.8250 N   0  0  0  0  0  0  0  0  0  0  0  0
  1  2  1  0
  2  3  2  0
  3  4  1  0
  4  5  2  0
  5  6  1  0
  6  7  1  0
  7  8  1  0
  8  9  2  0
  8 10  1  0
 10 11  1  0
 11 12  1  0
 12 13  2  0
 13 14  1  0
 14 15  1  0
 15 16  2  0
 16 17  1  0
 17 18  2  0
 18 19  1  0
 19 20  2  0
 14 21  2  0
 21 22  1  0
 22 23  1  0
 22 24  2  0
 24 25  1  0
 25 26  3  0
  6 27  2  0
 27  2  1  0
 24 12  1  0
 20 15  1  0
M  END
>  <Binding energies>  (19) 
[-8.39]

>  <Ligand effiencies>  (19) 
[-0.29964285714285716]

>  <Interactions>  (19) 
["V-B:PRO:540:CB:9857, V-A:ILE:369:CG2:3236, V-B:TYR:539:CE2:9848, V-B:TYR:539:CD2:9846, V-B:PRO:540:CA:9855, V-A:PRO:482:CG:4326, V-B:PRO:540:C:9853, V-A:PRO:482:CB:4325, V-A:LEU:475:CD1:4257, V-B:ALA:541:CA:9862, V-B:ALA:541:CB:9864, V-B:GLU:543:CD:9880, V-A:ARG:545:CD:4923, V-A:ARG:545:CZ:4926, V-A:HIS:456:CE1:4069, V-A:ARG:545:CG:4922, H-A:TYR:484:OH:4347, H-A:GLY:454:N:4049, V-A:ASP:366:CG:3212, H-A:ARG:545:NH1:4927, V-A:ILE:369:CD1:3238, V-A:ASP:366:CA:3209, V-A:TYR:484:CZ:4346, V-A:ILE:369:CB:3235, H-A:ARG:545:NH2:4928, V-A:ILE:455:C:4051, H-A:ARG:545:NE:4924, H-A:ASP:366:OD2:3214, H-A:HIS:383:NE2:3393, H-A:SER:385:OG:3409, H-A:ASP:366:OD1:3213"]

$$$$
3bf_Grossjean_2025
     RDKit          3D

 26 28  0  0  0  0  0  0  0  0999 V2000
  129.7810  123.0070   64.5900 C   0  0  0  0  0  0  0  0  0  0  0  0
  130.1340  123.2450   63.1230 C   0  0  0  0  0  0  0  0  0  0  0  0
  129.1540  122.9860   62.1590 C   0  0  0  0  0  0  0  0  0  0  0  0
  129.4300  123.2050   60.8050 C   0  0  0  0  0  0  0  0  0  0  0  0
  128.4160  122.9680   59.7260 C   0  0  0  0  0  0  0  0  0  0  0  0
  128.7890  122.3680   58.5130 C   0  0  0  0  0  0  0  0  0  0  0  0
  127.8540  122.1450   57.5060 C   0  0  0  0  0  0  0  0  0  0  0  0
  126.5290  122.5210   57.6990 C   0  0  0  0  0  0  0  0  0  0  0  0
  126.1340  123.1190   58.8910 C   0  0  0  0  0  0  0  0  0  0  0  0
  127.0730  123.3410   59.8960 C   0  0  0  0  0  0  0  0  0  0  0  0
  130.6440  123.6690   60.4070 N   0  0  0  0  0  0  0  0  0  0  0  0
  131.6130  123.9010   61.3270 C   0  0  0  0  0  0  0  0  0  0  0  0
  133.1350  124.4970   60.6240 S   0  0  0  0  0  0  0  0  0  0  0  0
  134.4790  123.3820   61.1540 C   0  0  0  0  0  0  0  0  0  0  0  0
  134.0540  121.9290   61.4180 C   0  0  0  0  0  0  0  0  0  0  0  0
  134.6970  121.2170   62.1920 O   0  0  0  0  0  0  0  0  0  0  0  0
  132.9360  121.5420   60.7670 N   0  0  0  0  0  0  0  0  0  0  0  0
  132.2940  120.2900   60.7820 C   0  0  0  0  0  0  0  0  0  0  0  0
  130.9730  120.2550   61.2430 C   0  0  0  0  0  0  0  0  0  0  0  0
  130.2780  119.0440   61.2690 C   0  0  0  0  0  0  0  0  0  0  0  0
  130.9270  117.8930   60.8240 C   0  0  0  0  0  0  0  0  0  0  0  0
  132.2030  117.8990   60.3620 N   0  0  0  0  0  0  0  0  0  0  0  0
  132.8670  119.0840   60.3430 C   0  0  0  0  0  0  0  0  0  0  0  0
  131.3980  123.7200   62.7120 C   0  0  0  0  0  0  0  0  0  0  0  0
  132.4220  124.0450   63.7080 C   0  0  0  0  0  0  0  0  0  0  0  0
  133.2300  124.3010   64.4970 N   0  0  0  0  0  0  0  0  0  0  0  0
  1  2  1  0
  2  3  2  0
  3  4  1  0
  4  5  1  0
  5  6  2  0
  6  7  1  0
  7  8  2  0
  8  9  1  0
  9 10  2  0
  4 11  2  0
 11 12  1  0
 12 13  1  0
 13 14  1  0
 14 15  1  0
 15 16  2  0
 15 17  1  0
 17 18  1  0
 18 19  2  0
 19 20  1  0
 20 21  2  0
 21 22  1  0
 22 23  2  0
 12 24  2  0
 24 25  1  0
 25 26  3  0
 24  2  1  0
 10  5  1  0
 23 18  1  0
M  END
>  <Binding energies>  (20) 
[-7.73]

>  <Ligand effiencies>  (20) 
[-0.2862962962962963]

>  <Interactions>  (20) 
["V-B:PRO:540:CB:9857, V-A:ILE:369:CG2:3236, V-B:TYR:539:CE2:9848, V-B:PRO:540:N:9856, V-B:TYR:539:CZ:9849, V-B:TYR:539:CD2:9846, V-B:PRO:540:CA:9855, V-A:PRO:482:CG:4326, V-A:PRO:482:CB:4325, V-B:MET:535:CE:9807, V-A:LEU:475:CD1:4257, V-B:TYR:539:C:9839, V-B:ALA:541:CB:9864, V-B:GLU:543:CD:9880, H-A:TYR:484:OH:4347, H-A:GLY:454:N:4049, V-B:GLU:543:CG:9879, V-A:ILE:369:CD1:3238, V-A:TYR:484:CE2:4345, V-B:TYR:539:CA:9841, V-B:PRO:540:CD:9859, V-B:TYR:539:CG:9844, H-A:HIS:383:NE2:3393, H-A:SER:385:OG:3409"]

$$$$
3bg_Grossjean_2025
     RDKit          3D

 27 29  0  0  0  0  0  0  0  0999 V2000
  135.1810  124.1930   61.6890 C   0  0  0  0  0  0  0  0  0  0  0  0
  133.6790  124.3030   61.9430 C   0  0  0  0  0  0  0  0  0  0  0  0
  133.2490  124.6260   63.2330 C   0  0  0  0  0  0  0  0  0  0  0  0
  131.8800  124.7450   63.5090 C   0  0  0  0  0  0  0  0  0  0  0  0
  131.3510  125.1000   64.8710 C   0  0  0  0  0  0  0  0  0  0  0  0
  130.0560  124.7250   65.2660 C   0  0  0  0  0  0  0  0  0  0  0  0
  129.5700  125.0360   66.5320 C   0  0  0  0  0  0  0  0  0  0  0  0
  130.3730  125.7350   67.4280 C   0  0  0  0  0  0  0  0  0  0  0  0
  131.6530  126.1300   67.0600 C   0  0  0  0  0  0  0  0  0  0  0  0
  132.1350  125.8180   65.7920 C   0  0  0  0  0  0  0  0  0  0  0  0
  130.9590  124.5650   62.5240 N   0  0  0  0  0  0  0  0  0  0  0  0
  131.3600  124.2540   61.2640 C   0  0  0  0  0  0  0  0  0  0  0  0
  130.0550  124.0790   60.0580 S   0  0  0  0  0  0  0  0  0  0  0  0
  128.6720  123.1840   60.8380 C   0  0  0  0  0  0  0  0  0  0  0  0
  129.1600  121.9910   61.6650 C   0  0  0  0  0  0  0  0  0  0  0  0
  129.2800  122.0990   62.8850 O   0  0  0  0  0  0  0  0  0  0  0  0
  129.4580  120.8720   60.9820 N   0  0  0  0  0  0  0  0  0  0  0  0
  130.1070  119.6840   61.5390 C   0  0  0  0  0  0  0  0  0  0  0  0
  131.6220  119.7410   61.3830 C   0  0  0  0  0  0  0  0  0  0  0  0
  132.2980  118.7060   60.7280 C   0  0  0  0  0  0  0  0  0  0  0  0
  133.6820  118.7530   60.5940 C   0  0  0  0  0  0  0  0  0  0  0  0
  134.3880  119.8420   61.1040 C   0  0  0  0  0  0  0  0  0  0  0  0
  133.7200  120.8860   61.7390 C   0  0  0  0  0  0  0  0  0  0  0  0
  132.3340  120.8390   61.8740 C   0  0  0  0  0  0  0  0  0  0  0  0
  132.7210  124.1030   60.9260 C   0  0  0  0  0  0  0  0  0  0  0  0
  133.1420  123.7710   59.5630 C   0  0  0  0  0  0  0  0  0  0  0  0
  133.4750  123.5090   58.4860 N   0  0  0  0  0  0  0  0  0  0  0  0
  1  2  1  0
  2  3  2  0
  3  4  1  0
  4  5  1  0
  5  6  2  0
  6  7  1  0
  7  8  2  0
  8  9  1  0
  9 10  2  0
  4 11  2  0
 11 12  1  0
 12 13  1  0
 13 14  1  0
 14 15  1  0
 15 16  2  0
 15 17  1  0
 17 18  1  0
 18 19  1  0
 19 20  2  0
 20 21  1  0
 21 22  2  0
 22 23  1  0
 23 24  2  0
 12 25  2  0
 25 26  1  0
 26 27  3  0
 25  2  1  0
 10  5  1  0
 24 19  1  0
M  END
>  <Binding energies>  (21) 
[-7.55]

>  <Ligand effiencies>  (21) 
[-0.26964285714285713]

>  <Interactions>  (21) 
["V-A:ILE:369:CG2:3236, V-B:PRO:540:CA:9855, V-B:PRO:540:C:9853, V-A:LEU:475:CD1:4257, H-B:ALA:541:N:9863, V-A:SER:385:CB:3408, V-B:ALA:541:CA:9862, V-A:SER:385:CA:3406, V-A:SER:385:C:3404, V-B:TYR:539:C:9839, V-B:ALA:541:CB:9864, V-B:GLU:543:CD:9880, V-A:ARG:545:CZ:4926, V-A:GLY:453:CA:4043, V-B:GLU:543:CB:9878, V-A:GLY:453:C:4041, V-A:HIS:456:CE1:4069, V-B:GLU:543:CG:9879, V-A:ASP:366:CG:3212, V-A:ILE:369:CD1:3238, V-A:TYR:484:CE2:4345, V-A:ASP:366:CB:3211, V-A:ASP:366:CA:3209, V-A:TYR:484:CZ:4346, V-A:HIS:383:CD2:3391, H-B:TYR:539:O:9840, H-B:TYR:539:OH:9850"]

$$$$
3ca_Grossjean_2025
     RDKit          3D

 31 33  0  0  0  0  0  0  0  0999 V2000
  126.7340  121.9830   56.6450 C   0  0  0  0  0  0  0  0  0  0  0  0
  125.4750  122.7840   56.3030 C   0  0  0  0  0  0  0  0  0  0  0  0
  125.5070  124.0300   56.9890 O   0  0  0  0  0  0  0  0  0  0  0  0
  125.2800  124.1020   58.3250 C   0  0  0  0  0  0  0  0  0  0  0  0
  124.1550  124.2310   58.8180 O   0  0  0  0  0  0  0  0  0  0  0  0
  126.5330  124.0020   59.1460 C   0  0  0  0  0  0  0  0  0  0  0  0
  127.7560  124.3790   58.5770 C   0  0  0  0  0  0  0  0  0  0  0  0
  128.9350  124.2970   59.3130 C   0  0  0  0  0  0  0  0  0  0  0  0
  128.9170  123.8310   60.6280 C   0  0  0  0  0  0  0  0  0  0  0  0
  130.1640  123.7890   61.2810 N   0  0  0  0  0  0  0  0  0  0  0  0
  130.8080  122.7440   61.8440 C   0  0  0  0  0  0  0  0  0  0  0  0
  130.4000  121.5830   61.8640 O   0  0  0  0  0  0  0  0  0  0  0  0
  132.1640  123.0750   62.4760 C   0  0  0  0  0  0  0  0  0  0  0  0
  132.4460  124.8650   62.6760 S   0  0  0  0  0  0  0  0  0  0  0  0
  132.5960  125.2670   64.4120 C   0  0  0  0  0  0  0  0  0  0  0  0
  133.8470  125.1750   64.9290 N   0  0  0  0  0  0  0  0  0  0  0  0
  134.0390  125.4830   66.2300 C   0  0  0  0  0  0  0  0  0  0  0  0
  135.4670  125.3740   66.7290 C   0  0  0  0  0  0  0  0  0  0  0  0
  132.9990  125.8780   67.0680 C   0  0  0  0  0  0  0  0  0  0  0  0
  131.6960  125.9630   66.5620 C   0  0  0  0  0  0  0  0  0  0  0  0
  130.6100  126.3780   67.5010 C   0  0  0  0  0  0  0  0  0  0  0  0
  129.5800  125.4860   67.8220 C   0  0  0  0  0  0  0  0  0  0  0  0
  128.5580  125.8660   68.6880 C   0  0  0  0  0  0  0  0  0  0  0  0
  128.5620  127.1470   69.2360 C   0  0  0  0  0  0  0  0  0  0  0  0
  129.5760  128.0490   68.9230 C   0  0  0  0  0  0  0  0  0  0  0  0
  130.5950  127.6640   68.0550 C   0  0  0  0  0  0  0  0  0  0  0  0
  131.4830  125.6580   65.1930 C   0  0  0  0  0  0  0  0  0  0  0  0
  130.1500  125.7790   64.5950 C   0  0  0  0  0  0  0  0  0  0  0  0
  129.0970  125.8740   64.1230 N   0  0  0  0  0  0  0  0  0  0  0  0
  127.6950  123.4580   61.2090 C   0  0  0  0  0  0  0  0  0  0  0  0
  126.5170  123.5420   60.4720 C   0  0  0  0  0  0  0  0  0  0  0  0
  1  2  1  0
  2  3  1  0
  3  4  1  0
  4  5  2  0
  4  6  1  0
  6  7  2  0
  7  8  1  0
  8  9  2  0
  9 10  1  0
 10 11  1  0
 11 12  2  0
 11 13  1  0
 13 14  1  0
 14 15  1  0
 15 16  2  0
 16 17  1  0
 17 18  1  0
 17 19  2  0
 19 20  1  0
 20 21  1  0
 21 22  2  0
 22 23  1  0
 23 24  2  0
 24 25  1  0
 25 26  2  0
 20 27  2  0
 27 28  1  0
 28 29  3  0
  9 30  1  0
 30 31  2  0
 31  6  1  0
 27 15  1  0
 26 21  1  0
M  END
>  <Binding energies>  (22) 
[-8.23]

>  <Ligand effiencies>  (22) 
[-0.2571875]

>  <Interactions>  (22) 
["V-B:PRO:540:CB:9857, V-B:PRO:540:N:9856, V-B:PRO:540:CA:9855, V-B:MET:535:CE:9807, H-B:TYR:531:OH:9767, V-B:TYR:539:C:9839, V-A:ARG:545:CD:4923, V-A:ARG:545:CZ:4926, V-A:GLY:453:CA:4043, V-B:GLU:543:CB:9878, V-A:ARG:545:CB:4921, V-A:GLY:453:C:4041, V-A:GLU:543:CB:4906, V-A:HIS:456:CE1:4069, V-A:ARG:545:CG:4922, V-B:HIS:456:CE1:9041, V-A:GLY:454:CA:4048, H-A:TYR:484:OH:4347, H-A:GLY:454:N:4049, V-B:GLU:543:CG:9879, V-A:GLU:543:CD:4908, H-A:ARG:545:NH1:4927, V-B:GLU:543:C:9874, V-A:TYR:484:CE2:4345, V-B:GLU:543:CA:9876, V-A:TYR:484:CZ:4346, H-A:ARG:545:NH2:4928, V-B:TYR:539:CA:9841, V-A:ILE:455:C:4051, V-B:PRO:540:CD:9859, H-A:ARG:545:NE:4924, V-B:TYR:531:CE2:9765, V-B:LEU:363:CD1:8160, V-A:GLY:454:C:4046, V-A:ILE:455:CA:4053"]

$$$$
3ce_Grossjean_2025
     RDKit          3D

 27 29  0  0  0  0  0  0  0  0999 V2000
  134.1180  125.3730   67.4820 C   0  0  0  0  0  0  0  0  0  0  0  0
  133.2740  125.4210   66.2220 C   0  0  0  0  0  0  0  0  0  0  0  0
  131.9150  125.7420   66.2650 C   0  0  0  0  0  0  0  0  0  0  0  0
  131.2040  125.7770   65.0660 C   0  0  0  0  0  0  0  0  0  0  0  0
  131.8600  125.4950   63.8650 C   0  0  0  0  0  0  0  0  0  0  0  0
  133.2210  125.1710   63.8950 C   0  0  0  0  0  0  0  0  0  0  0  0
  133.8330  124.9150   62.6560 N   0  0  0  0  0  0  0  0  0  0  0  0
  134.0400  123.7220   62.0570 C   0  0  0  0  0  0  0  0  0  0  0  0
  133.7050  122.6300   62.5210 O   0  0  0  0  0  0  0  0  0  0  0  0
  134.7380  123.7740   60.6980 C   0  0  0  0  0  0  0  0  0  0  0  0
  133.5850  124.2010   59.3590 S   0  0  0  0  0  0  0  0  0  0  0  0
  132.1750  123.1420   59.5800 C   0  0  0  0  0  0  0  0  0  0  0  0
  132.4470  121.9920   60.2440 N   0  0  0  0  0  0  0  0  0  0  0  0
  131.4360  121.1250   60.4770 C   0  0  0  0  0  0  0  0  0  0  0  0
  131.8070  119.8660   61.2360 C   0  0  0  0  0  0  0  0  0  0  0  0
  130.1310  121.3620   60.0510 C   0  0  0  0  0  0  0  0  0  0  0  0
  129.8350  122.5320   59.3400 C   0  0  0  0  0  0  0  0  0  0  0  0
  128.4270  122.7300   58.8820 C   0  0  0  0  0  0  0  0  0  0  0  0
  128.0510  122.3550   57.5860 C   0  0  0  0  0  0  0  0  0  0  0  0
  126.7420  122.5420   57.1500 C   0  0  0  0  0  0  0  0  0  0  0  0
  125.8030  123.1120   58.0060 C   0  0  0  0  0  0  0  0  0  0  0  0
  126.1640  123.5000   59.2940 C   0  0  0  0  0  0  0  0  0  0  0  0
  127.4740  123.3110   59.7280 C   0  0  0  0  0  0  0  0  0  0  0  0
  130.8820  123.4570   59.0970 C   0  0  0  0  0  0  0  0  0  0  0  0
  130.6290  124.7060   58.3720 C   0  0  0  0  0  0  0  0  0  0  0  0
  130.4280  125.6920   57.8010 N   0  0  0  0  0  0  0  0  0  0  0  0
  133.9250  125.1420   65.0650 N   0  0  0  0  0  0  0  0  0  0  0  0
  1  2  1  0
  2  3  2  0
  3  4  1  0
  4  5  2  0
  5  6  1  0
  6  7  1  0
  7  8  1  0
  8  9  2  0
  8 10  1  0
 10 11  1  0
 11 12  1  0
 12 13  2  0
 13 14  1  0
 14 15  1  0
 14 16  2  0
 16 17  1  0
 17 18  1  0
 18 19  2  0
 19 20  1  0
 20 21  2  0
 21 22  1  0
 22 23  2  0
 17 24  2  0
 24 25  1  0
 25 26  3  0
  6 27  2  0
 27  2  1  0
 24 12  1  0
 23 18  1  0
M  END
>  <Binding energies>  (23) 
[-8.6]

>  <Ligand effiencies>  (23) 
[-0.3071428571428571]

>  <Interactions>  (23) 
["V-B:PRO:540:CB:9857, V-A:ILE:369:CG2:3236, V-B:TYR:539:CE2:9848, V-B:PRO:540:N:9856, V-B:TYR:539:CZ:9849, V-B:TYR:539:CD2:9846, V-B:PRO:540:CA:9855, V-B:MET:535:CE:9807, V-A:LEU:475:CD1:4257, V-B:TYR:539:C:9839, V-A:ARG:545:CD:4923, V-A:ARG:545:CZ:4926, V-A:HIS:456:CE1:4069, V-A:ARG:545:CG:4922, H-A:TYR:484:OH:4347, H-A:GLY:454:N:4049, V-A:ASP:366:CG:3212, H-A:ARG:545:NH1:4927, V-A:ILE:369:CD1:3238, V-A:ASP:366:CA:3209, V-A:TYR:484:CZ:4346, V-A:ILE:369:CB:3235, H-A:ARG:545:NH2:4928, V-A:ILE:455:C:4051, H-A:ARG:545:NE:4924, V-B:TYR:539:CG:9844, H-A:ASP:366:OD2:3214, V-B:LEU:363:CD1:8160, H-A:ASP:366:OD1:3213, V-A:ILE:369:CG1:3237"]

$$$$
3cj_Grossjean_2025
     RDKit          3D

 25 27  0  0  0  0  0  0  0  0999 V2000
  130.6220  120.6720   62.1810 C   0  0  0  0  0  0  0  0  0  0  0  0
  130.4630  121.6100   61.0010 C   0  0  0  0  0  0  0  0  0  0  0  0
  129.2720  121.6820   60.2830 C   0  0  0  0  0  0  0  0  0  0  0  0
  129.1610  122.5810   59.2130 C   0  0  0  0  0  0  0  0  0  0  0  0
  127.8460  122.6700   58.5130 C   0  0  0  0  0  0  0  0  0  0  0  0
  127.6450  122.0170   57.2910 C   0  0  0  0  0  0  0  0  0  0  0  0
  126.4220  122.1120   56.6330 C   0  0  0  0  0  0  0  0  0  0  0  0
  125.3950  122.8670   57.1930 C   0  0  0  0  0  0  0  0  0  0  0  0
  125.5830  123.5300   58.4030 C   0  0  0  0  0  0  0  0  0  0  0  0
  126.8080  123.4330   59.0600 C   0  0  0  0  0  0  0  0  0  0  0  0
  130.2890  123.3690   58.8750 C   0  0  0  0  0  0  0  0  0  0  0  0
  130.2450  124.3070   57.7490 C   0  0  0  0  0  0  0  0  0  0  0  0
  130.2080  125.0480   56.8600 N   0  0  0  0  0  0  0  0  0  0  0  0
  131.4550  123.2350   59.6610 C   0  0  0  0  0  0  0  0  0  0  0  0
  132.8930  124.2590   59.4310 S   0  0  0  0  0  0  0  0  0  0  0  0
  134.1640  123.5300   60.5130 C   0  0  0  0  0  0  0  0  0  0  0  0
  133.7420  123.5550   61.9860 C   0  0  0  0  0  0  0  0  0  0  0  0
  133.7120  122.5020   62.6270 O   0  0  0  0  0  0  0  0  0  0  0  0
  133.4620  124.7770   62.4870 N   0  0  0  0  0  0  0  0  0  0  0  0
  133.1900  125.0870   63.8100 C   0  0  0  0  0  0  0  0  0  0  0  0
  134.0000  125.0040   64.8420 N   0  0  0  0  0  0  0  0  0  0  0  0
  133.4140  125.4110   65.9500 C   0  0  0  0  0  0  0  0  0  0  0  0
  132.0940  125.8360   65.8300 C   0  0  0  0  0  0  0  0  0  0  0  0
  131.6030  125.6900   64.1680 S   0  0  0  0  0  0  0  0  0  0  0  0
  131.5370  122.3790   60.7110 N   0  0  0  0  0  0  0  0  0  0  0  0
  1  2  1  0
  2  3  2  0
  3  4  1  0
  4  5  1  0
  5  6  2  0
  6  7  1  0
  7  8  2  0
  8  9  1  0
  9 10  2  0
  4 11  2  0
 11 12  1  0
 12 13  3  0
 11 14  1  0
 14 15  1  0
 15 16  1  0
 16 17  1  0
 17 18  2  0
 17 19  1  0
 19 20  1  0
 20 21  2  0
 21 22  1  0
 22 23  2  0
 23 24  1  0
 14 25  2  0
 25  2  1  0
 10  5  1  0
 24 20  1  0
M  END
>  <Binding energies>  (24) 
[-7.85]

>  <Ligand effiencies>  (24) 
[-0.3019230769230769]

>  <Interactions>  (24) 
["V-B:PRO:540:CB:9857, V-A:ILE:369:CG2:3236, V-B:TYR:539:CE2:9848, V-B:PRO:540:N:9856, V-B:TYR:539:CZ:9849, V-B:TYR:539:CD2:9846, V-B:PRO:540:CA:9855, V-B:MET:535:CE:9807, V-A:LEU:475:CD1:4257, V-B:TYR:539:C:9839, V-B:ALA:541:CB:9864, V-A:ARG:545:CD:4923, V-A:ARG:545:CZ:4926, V-A:ARG:545:CG:4922, H-A:TYR:484:OH:4347, H-A:GLY:454:N:4049, V-A:ASP:366:CG:3212, H-A:ARG:545:NH1:4927, V-A:ILE:369:CD1:3238, V-A:ASP:366:CA:3209, V-A:ILE:369:CB:3235, H-A:ARG:545:NH2:4928, V-B:TYR:539:CA:9841, V-B:PRO:540:CD:9859, H-A:ARG:545:NE:4924, V-B:TYR:539:CG:9844, H-A:ASP:366:OD2:3214, V-B:LEU:363:CD1:8160, H-B:TYR:539:OH:9850, H-A:ASP:366:OD1:3213"]

$$$$
4ba_Grossjean_2025
     RDKit          3D

 28 30  0  0  0  0  0  0  0  0999 V2000
  134.4080  120.6620   61.8250 C   0  0  0  0  0  0  0  0  0  0  0  0
  134.0830  119.3580   61.0730 C   0  0  0  0  0  0  0  0  0  0  0  0
  132.5860  118.9900   61.0160 C   0  0  0  0  0  0  0  0  0  0  0  0
  132.2490  117.8060   61.0750 O   0  0  0  0  0  0  0  0  0  0  0  0
  131.5970  120.1130   60.8960 C   0  0  0  0  0  0  0  0  0  0  0  0
  131.8820  121.1940   60.0520 C   0  0  0  0  0  0  0  0  0  0  0  0
  130.9830  122.2480   59.9230 C   0  0  0  0  0  0  0  0  0  0  0  0
  129.7800  122.2430   60.6300 C   0  0  0  0  0  0  0  0  0  0  0  0
  128.9490  123.3630   60.4320 N   0  0  0  0  0  0  0  0  0  0  0  0
  127.6790  123.5910   60.8480 C   0  0  0  0  0  0  0  0  0  0  0  0
  126.9990  122.7750   61.4720 O   0  0  0  0  0  0  0  0  0  0  0  0
  127.1260  124.8970   60.4820 C   0  0  0  0  0  0  0  0  0  0  0  0
  126.5360  125.1830   58.8470 S   0  0  0  0  0  0  0  0  0  0  0  0
  126.1470  126.8440   59.2280 C   0  0  0  0  0  0  0  0  0  0  0  0
  125.6210  127.6600   58.3160 N   0  0  0  0  0  0  0  0  0  0  0  0
  125.3630  128.9220   58.7280 C   0  0  0  0  0  0  0  0  0  0  0  0
  124.7720  129.8380   57.6710 C   0  0  0  0  0  0  0  0  0  0  0  0
  125.6120  129.3820   60.0180 C   0  0  0  0  0  0  0  0  0  0  0  0
  126.1660  128.5260   60.9840 C   0  0  0  0  0  0  0  0  0  0  0  0
  126.4200  129.0770   62.3910 C   0  0  0  0  0  0  0  0  0  0  0  0
  125.8060  128.3740   63.3450 F   0  0  0  0  0  0  0  0  0  0  0  0
  127.7260  129.0550   62.6570 F   0  0  0  0  0  0  0  0  0  0  0  0
  125.9750  130.3320   62.4710 F   0  0  0  0  0  0  0  0  0  0  0  0
  126.4550  127.1890   60.5790 C   0  0  0  0  0  0  0  0  0  0  0  0
  127.0240  126.0560   61.2690 C   0  0  0  0  0  0  0  0  0  0  0  0
  127.4240  126.1130   62.5800 N   0  0  0  0  0  0  0  0  0  0  0  0
  129.4890  121.1670   61.4820 C   0  0  0  0  0  0  0  0  0  0  0  0
  130.3900  120.1130   61.6110 C   0  0  0  0  0  0  0  0  0  0  0  0
  1  2  1  0
  2  3  1  0
  3  4  2  0
  3  5  1  0
  5  6  2  0
  6  7  1  0
  7  8  2  0
  8  9  1  0
  9 10  1  0
 10 11  2  0
 10 12  1  0
 12 13  1  0
 13 14  1  0
 14 15  2  0
 15 16  1  0
 16 17  1  0
 16 18  2  0
 18 19  1  0
 19 20  1  0
 20 21  1  0
 20 22  1  0
 20 23  1  0
 19 24  2  0
 24 25  1  0
 25 26  1  0
  8 27  1  0
 27 28  2  0
 28  5  1  0
 25 12  2  0
 24 14  1  0
M  END
>  <Binding energies>  (25) 
[-6.36]

>  <Ligand effiencies>  (25) 
[-0.20516129032258065]

>  <Interactions>  (25) 
["V-A:ILE:369:CG2:3236, V-B:TYR:539:CE2:9848, V-B:TYR:539:CD2:9846, V-B:PRO:540:C:9853, V-A:LEU:475:CD1:4257, H-B:ALA:541:N:9863, V-A:SER:385:CB:3408, H-B:TYR:531:OH:9767, V-B:ALA:541:CA:9862, V-A:SER:385:CA:3406, V-A:SER:385:C:3404, V-B:ALA:541:CB:9864, V-B:GLU:543:CD:9880, V-B:ARG:545:CZ:9898, V-A:GLY:454:CA:4048, H-B:GLU:543:OE2:9882, V-A:ILE:369:CD1:3238, V-B:ASP:366:CB:8183, V-B:ASP:366:CA:8181, V-A:TYR:539:CE1:4875, V-B:ASP:366:CG:8184, V-A:TYR:539:CZ:4877, H-B:GLU:543:OE1:9881, V-B:ASP:366:C:8179, H-A:HIS:383:NE2:3393, H-A:SER:385:OG:3409"]

$$$$
4bb_Grossjean_2025
     RDKit          3D

 27 29  0  0  0  0  0  0  0  0999 V2000
  125.1410  123.4790   56.5610 C   0  0  0  0  0  0  0  0  0  0  0  0
  126.3220  122.5990   56.9780 C   0  0  0  0  0  0  0  0  0  0  0  0
  126.5700  121.6010   56.2990 O   0  0  0  0  0  0  0  0  0  0  0  0
  127.1060  122.9920   58.1940 C   0  0  0  0  0  0  0  0  0  0  0  0
  128.3930  122.4720   58.3790 C   0  0  0  0  0  0  0  0  0  0  0  0
  129.1420  122.8190   59.5000 C   0  0  0  0  0  0  0  0  0  0  0  0
  128.6230  123.6980   60.4520 C   0  0  0  0  0  0  0  0  0  0  0  0
  129.4630  123.9800   61.5470 N   0  0  0  0  0  0  0  0  0  0  0  0
  129.5860  123.3430   62.7380 C   0  0  0  0  0  0  0  0  0  0  0  0
  128.9120  122.3700   63.0740 O   0  0  0  0  0  0  0  0  0  0  0  0
  130.5790  123.9130   63.6510 C   0  0  0  0  0  0  0  0  0  0  0  0
  132.2930  123.5700   63.4250 S   0  0  0  0  0  0  0  0  0  0  0  0
  132.7160  124.5120   64.8360 C   0  0  0  0  0  0  0  0  0  0  0  0
  133.9830  124.6520   65.2230 N   0  0  0  0  0  0  0  0  0  0  0  0
  134.1850  125.4030   66.3300 C   0  0  0  0  0  0  0  0  0  0  0  0
  135.6350  125.5520   66.7540 C   0  0  0  0  0  0  0  0  0  0  0  0
  133.1610  126.0110   67.0520 C   0  0  0  0  0  0  0  0  0  0  0  0
  131.8250  125.8660   66.6480 C   0  0  0  0  0  0  0  0  0  0  0  0
  130.7330  126.5540   67.4750 C   0  0  0  0  0  0  0  0  0  0  0  0
  129.7730  127.0970   66.7220 F   0  0  0  0  0  0  0  0  0  0  0  0
  130.1520  125.6650   68.2810 F   0  0  0  0  0  0  0  0  0  0  0  0
  131.2670  127.5300   68.2070 F   0  0  0  0  0  0  0  0  0  0  0  0
  131.5760  125.0800   65.4840 C   0  0  0  0  0  0  0  0  0  0  0  0
  130.3690  124.7150   64.7850 C   0  0  0  0  0  0  0  0  0  0  0  0
  129.1250  125.1250   65.1930 N   0  0  0  0  0  0  0  0  0  0  0  0
  127.3310  124.2180   60.2770 C   0  0  0  0  0  0  0  0  0  0  0  0
  126.5830  123.8670   59.1560 C   0  0  0  0  0  0  0  0  0  0  0  0
  1  2  1  0
  2  3  2  0
  2  4  1  0
  4  5  2  0
  5  6  1  0
  6  7  2  0
  7  8  1  0
  8  9  1  0
  9 10  2  0
  9 11  1  0
 11 12  1  0
 12 13  1  0
 13 14  2  0
 14 15  1  0
 15 16  1  0
 15 17  2  0
 17 18  1  0
 18 19  1  0
 19 20  1  0
 19 21  1  0
 19 22  1  0
 18 23  2  0
 23 24  1  0
 24 25  1  0
  7 26  1  0
 26 27  2  0
 27  4  1  0
 24 11  2  0
 23 13  1  0
M  END
>  <Binding energies>  (26) 
[-6.43]

>  <Ligand effiencies>  (26) 
[-0.21433333333333332]

>  <Interactions>  (26) 
["V-B:PRO:540:CB:9857, V-B:TYR:539:CE2:9848, V-B:PRO:540:N:9856, V-B:TYR:539:CD2:9846, V-B:PRO:540:CA:9855, V-B:MET:535:CE:9807, H-B:TYR:539:N:9842, H-B:ALA:541:N:9863, V-B:TYR:539:C:9839, V-B:GLU:543:CD:9880, V-A:ARG:545:CD:4923, V-A:ARG:545:CZ:4926, V-A:GLY:453:CA:4043, V-B:GLU:543:CB:9878, V-A:ARG:545:CB:4921, V-A:GLY:453:C:4041, V-A:GLU:543:CB:4906, V-A:HIS:456:CE1:4069, V-A:ARG:545:CG:4922, H-A:TYR:484:OH:4347, H-A:GLY:454:N:4049, H-A:GLU:543:OE1:4909, V-B:GLU:543:CG:9879, V-A:GLU:543:CD:4908, H-B:GLU:543:OE2:9882, V-A:TYR:484:CE2:4345, V-A:TYR:484:CZ:4346, V-A:ILE:455:C:4051, V-B:TYR:531:CZ:9766, V-B:TYR:531:CE2:9765, V-B:LEU:363:CD1:8160, V-A:ILE:455:CA:4053, V-A:VAL:452:CG2:4039"]

$$$$
4bd_Grossjean_2025
     RDKit          3D

 24 26  0  0  0  0  0  0  0  0999 V2000
  133.7280  125.3870   65.7540 C   0  0  0  0  0  0  0  0  0  0  0  0
  133.0730  124.8720   64.4860 C   0  0  0  0  0  0  0  0  0  0  0  0
  133.8230  124.6210   63.3400 C   0  0  0  0  0  0  0  0  0  0  0  0
  133.2030  124.1470   62.1730 C   0  0  0  0  0  0  0  0  0  0  0  0
  134.0700  123.8890   60.9360 C   0  0  0  0  0  0  0  0  0  0  0  0
  133.6520  124.5560   59.8580 F   0  0  0  0  0  0  0  0  0  0  0  0
  135.3250  124.2660   61.1770 F   0  0  0  0  0  0  0  0  0  0  0  0
  134.0490  122.5910   60.6340 F   0  0  0  0  0  0  0  0  0  0  0  0
  131.7930  123.9380   62.2220 C   0  0  0  0  0  0  0  0  0  0  0  0
  130.8350  123.4720   61.2500 C   0  0  0  0  0  0  0  0  0  0  0  0
  131.1910  123.1110   59.9760 N   0  0  0  0  0  0  0  0  0  0  0  0
  129.5130  123.4230   61.7230 C   0  0  0  0  0  0  0  0  0  0  0  0
  128.3000  123.0190   61.0060 C   0  0  0  0  0  0  0  0  0  0  0  0
  127.4000  122.4100   61.5860 O   0  0  0  0  0  0  0  0  0  0  0  0
  128.2530  123.3740   59.6980 N   0  0  0  0  0  0  0  0  0  0  0  0
  127.2640  123.1060   58.7330 C   0  0  0  0  0  0  0  0  0  0  0  0
  127.6680  122.3330   57.6410 C   0  0  0  0  0  0  0  0  0  0  0  0
  126.7600  122.0050   56.6380 C   0  0  0  0  0  0  0  0  0  0  0  0
  125.4420  122.4440   56.7300 C   0  0  0  0  0  0  0  0  0  0  0  0
  125.0230  123.2030   57.8200 C   0  0  0  0  0  0  0  0  0  0  0  0
  125.9290  123.5330   58.8250 C   0  0  0  0  0  0  0  0  0  0  0  0
  129.4170  123.9500   63.4020 S   0  0  0  0  0  0  0  0  0  0  0  0
  131.1410  124.2350   63.4590 C   0  0  0  0  0  0  0  0  0  0  0  0
  131.7350  124.6840   64.5630 N   0  0  0  0  0  0  0  0  0  0  0  0
  1  2  1  0
  2  3  2  0
  3  4  1  0
  4  5  1  0
  5  6  1  0
  5  7  1  0
  5  8  1  0
  4  9  2  0
  9 10  1  0
 10 11  1  0
 10 12  2  0
 12 13  1  0
 13 14  2  0
 13 15  1  0
 15 16  1  0
 16 17  2  0
 17 18  1  0
 18 19  2  0
 19 20  1  0
 20 21  2  0
 12 22  1  0
 22 23  1  0
 23 24  2  0
 24  2  1  0
 23  9  1  0
 21 16  1  0
M  END
>  <Binding energies>  (27) 
[-5.79]

>  <Ligand effiencies>  (27) 
[-0.21444444444444444]

>  <Interactions>  (27) 
["V-B:PRO:540:CB:9857, V-A:ILE:369:CG2:3236, V-B:TYR:539:CE2:9848, V-B:PRO:540:N:9856, V-B:PRO:540:CA:9855, V-B:MET:535:CE:9807, H-B:ALA:541:N:9863, V-B:TYR:539:C:9839, V-B:GLU:543:CD:9880, V-A:ARG:545:CD:4923, V-A:ARG:545:CZ:4926, V-A:GLY:453:CA:4043, V-A:GLY:453:C:4041, V-A:ARG:545:CG:4922, H-A:TYR:484:OH:4347, V-B:GLU:543:CG:9879, V-A:ASP:366:CG:3212, V-A:ILE:369:CD1:3238, V-A:ASP:366:CB:3211, V-A:ASP:366:CA:3209, V-A:ILE:369:CB:3235, V-B:TYR:539:CA:9841, V-B:PRO:540:CD:9859, V-B:LEU:363:CD1:8160"]

$$$$
4be_Grossjean_2025
     RDKit          3D

 25 27  0  0  0  0  0  0  0  0999 V2000
  124.9260  123.5310   58.4860 C   0  0  0  0  0  0  0  0  0  0  0  0
  126.4060  123.2000   58.4380 C   0  0  0  0  0  0  0  0  0  0  0  0
  126.9820  122.5880   57.3220 C   0  0  0  0  0  0  0  0  0  0  0  0
  128.3490  122.3110   57.3490 C   0  0  0  0  0  0  0  0  0  0  0  0
  129.0990  122.6470   58.4780 C   0  0  0  0  0  0  0  0  0  0  0  0
  128.4600  123.2640   59.5600 C   0  0  0  0  0  0  0  0  0  0  0  0
  129.2690  123.5710   60.6680 N   0  0  0  0  0  0  0  0  0  0  0  0
  129.5840  122.7930   61.7340 C   0  0  0  0  0  0  0  0  0  0  0  0
  129.1830  121.6370   61.8830 O   0  0  0  0  0  0  0  0  0  0  0  0
  130.4360  123.4260   62.7450 C   0  0  0  0  0  0  0  0  0  0  0  0
  132.1800  123.1690   62.7200 S   0  0  0  0  0  0  0  0  0  0  0  0
  132.3910  124.1550   64.1480 C   0  0  0  0  0  0  0  0  0  0  0  0
  133.5970  124.3670   64.6730 N   0  0  0  0  0  0  0  0  0  0  0  0
  133.6340  125.1490   65.7770 C   0  0  0  0  0  0  0  0  0  0  0  0
  135.0160  125.3760   66.3620 C   0  0  0  0  0  0  0  0  0  0  0  0
  132.5060  125.7200   66.3590 C   0  0  0  0  0  0  0  0  0  0  0  0
  131.2330  125.5010   65.8100 C   0  0  0  0  0  0  0  0  0  0  0  0
  130.0220  126.1530   66.4850 C   0  0  0  0  0  0  0  0  0  0  0  0
  129.2690  125.2810   67.1600 F   0  0  0  0  0  0  0  0  0  0  0  0
  130.4310  127.0790   67.3510 F   0  0  0  0  0  0  0  0  0  0  0  0
  129.2450  126.7230   65.5640 F   0  0  0  0  0  0  0  0  0  0  0  0
  131.1580  124.6760   64.6480 C   0  0  0  0  0  0  0  0  0  0  0  0
  130.0560  124.2320   63.8290 C   0  0  0  0  0  0  0  0  0  0  0  0
  128.7550  124.5770   64.0890 N   0  0  0  0  0  0  0  0  0  0  0  0
  127.1220  123.5340   59.5430 N   0  0  0  0  0  0  0  0  0  0  0  0
  1  2  1  0
  2  3  2  0
  3  4  1  0
  4  5  2  0
  5  6  1  0
  6  7  1  0
  7  8  1  0
  8  9  2  0
  8 10  1  0
 10 11  1  0
 11 12  1  0
 12 13  2  0
 13 14  1  0
 14 15  1  0
 14 16  2  0
 16 17  1  0
 17 18  1  0
 18 19  1  0
 18 20  1  0
 18 21  1  0
 17 22  2  0
 22 23  1  0
 23 24  1  0
  6 25  2  0
 25  2  1  0
 23 10  2  0
 22 12  1  0
M  END
>  <Binding energies>  (28) 
[-6.02]

>  <Ligand effiencies>  (28) 
[-0.215]

>  <Interactions>  (28) 
["V-B:PRO:540:CB:9857, V-B:TYR:539:CE2:9848, V-B:PRO:540:N:9856, V-B:TYR:539:CZ:9849, V-B:TYR:539:CD2:9846, V-B:PRO:540:CA:9855, V-B:MET:535:CE:9807, H-B:ALA:541:N:9863, V-B:TYR:539:C:9839, V-B:GLU:543:CD:9880, V-A:ARG:545:CD:4923, V-A:ARG:545:CZ:4926, V-A:GLY:453:CA:4043, V-B:GLU:543:CB:9878, V-A:GLY:453:C:4041, V-A:GLU:543:CB:4906, V-A:HIS:456:CE1:4069, V-A:ARG:545:CG:4922, V-A:GLY:454:CA:4048, H-A:TYR:484:OH:4347, H-A:GLY:454:N:4049, V-B:GLU:543:CG:9879, V-A:GLU:543:CD:4908, H-B:GLU:543:OE2:9882, V-A:TYR:484:CE2:4345, V-A:TYR:484:CZ:4346, V-B:TYR:539:CG:9844, V-B:TYR:539:CD1:9845, V-B:LEU:363:CD1:8160, H-B:GLU:543:OE1:9881, V-B:TYR:539:CE1:9847"]

$$$$
4bg_Grossjean_2025
     RDKit          3D

 25 27  0  0  0  0  0  0  0  0999 V2000
  133.5970  123.5420   57.6860 C   0  0  0  0  0  0  0  0  0  0  0  0
  133.0640  124.1570   58.9670 C   0  0  0  0  0  0  0  0  0  0  0  0
  131.8900  124.9060   58.9690 C   0  0  0  0  0  0  0  0  0  0  0  0
  131.4110  125.4740   60.1600 C   0  0  0  0  0  0  0  0  0  0  0  0
  130.1150  126.2910   60.1130 C   0  0  0  0  0  0  0  0  0  0  0  0
  130.2680  127.5380   60.5610 F   0  0  0  0  0  0  0  0  0  0  0  0
  129.6780  126.3690   58.8560 F   0  0  0  0  0  0  0  0  0  0  0  0
  129.1850  125.7070   60.8670 F   0  0  0  0  0  0  0  0  0  0  0  0
  132.1730  125.2450   61.3440 C   0  0  0  0  0  0  0  0  0  0  0  0
  132.0050  125.6610   62.7150 C   0  0  0  0  0  0  0  0  0  0  0  0
  130.9600  126.4460   63.1310 N   0  0  0  0  0  0  0  0  0  0  0  0
  132.9990  125.1840   63.5830 C   0  0  0  0  0  0  0  0  0  0  0  0
  133.1550  125.4330   65.0160 C   0  0  0  0  0  0  0  0  0  0  0  0
  133.9280  124.7660   65.7050 O   0  0  0  0  0  0  0  0  0  0  0  0
  132.4340  126.4560   65.5190 N   0  0  0  0  0  0  0  0  0  0  0  0
  132.4190  126.8770   66.9200 C   0  0  0  0  0  0  0  0  0  0  0  0
  131.0620  126.7120   67.5920 C   0  0  0  0  0  0  0  0  0  0  0  0
  130.4680  127.7940   68.2480 C   0  0  0  0  0  0  0  0  0  0  0  0
  129.2110  127.6510   68.8280 C   0  0  0  0  0  0  0  0  0  0  0  0
  128.5430  126.4320   68.7380 C   0  0  0  0  0  0  0  0  0  0  0  0
  129.1210  125.3540   68.0710 C   0  0  0  0  0  0  0  0  0  0  0  0
  130.3800  125.4960   67.4920 C   0  0  0  0  0  0  0  0  0  0  0  0
  134.2030  124.2320   62.7190 S   0  0  0  0  0  0  0  0  0  0  0  0
  133.3540  124.4530   61.2070 C   0  0  0  0  0  0  0  0  0  0  0  0
  133.8060  123.9180   60.0720 N   0  0  0  0  0  0  0  0  0  0  0  0
  1  2  1  0
  2  3  2  0
  3  4  1  0
  4  5  1  0
  5  6  1  0
  5  7  1  0
  5  8  1  0
  4  9  2  0
  9 10  1  0
 10 11  1  0
 10 12  2  0
 12 13  1  0
 13 14  2  0
 13 15  1  0
 15 16  1  0
 16 17  1  0
 17 18  2  0
 18 19  1  0
 19 20  2  0
 20 21  1  0
 21 22  2  0
 12 23  1  0
 23 24  1  0
 24 25  2  0
 25  2  1  0
 24  9  1  0
 22 17  1  0
M  END
>  <Binding energies>  (29) 
[-6.66]

>  <Ligand effiencies>  (29) 
[-0.23785714285714285]

>  <Interactions>  (29) 
["V-A:ILE:369:CG2:3236, V-B:TYR:539:CE2:9848, V-B:TYR:539:CZ:9849, V-A:ARG:545:CD:4923, V-A:ARG:545:CZ:4926, V-A:GLY:453:CA:4043, V-B:GLU:543:CB:9878, V-A:GLY:453:C:4041, V-A:GLU:543:CB:4906, V-A:HIS:456:CE1:4069, V-A:ARG:545:CG:4922, V-B:HIS:456:CE1:9041, V-A:GLY:454:CA:4048, H-A:TYR:484:OH:4347, H-A:GLY:454:N:4049, H-A:GLU:543:OE1:4909, V-B:GLU:543:CG:9879, V-A:GLU:543:CD:4908, V-A:ASP:366:CG:3212, V-B:GLU:543:C:9874, V-A:ASP:366:C:3207, V-A:TYR:484:CE2:4345, V-A:ASP:366:CB:3211, V-A:ASP:366:CA:3209, V-B:GLU:543:CA:9876, V-A:TYR:484:CZ:4346, V-A:ILE:369:CB:3235, H-A:GLU:543:OE2:4910"]

$$$$
4ca_Grossjean_2025
     RDKit          3D

 34 37  0  0  0  0  0  0  0  0999 V2000
  129.1550  125.0110   72.8300 C   0  0  0  0  0  0  0  0  0  0  0  0
  129.0620  126.4950   73.1990 C   0  0  0  0  0  0  0  0  0  0  0  0
  129.9600  127.2410   72.3880 O   0  0  0  0  0  0  0  0  0  0  0  0
  129.5010  128.0850   71.4270 C   0  0  0  0  0  0  0  0  0  0  0  0
  129.1290  129.2400   71.6580 O   0  0  0  0  0  0  0  0  0  0  0  0
  129.4970  127.4750   70.0560 C   0  0  0  0  0  0  0  0  0  0  0  0
  128.7450  126.3150   69.8260 C   0  0  0  0  0  0  0  0  0  0  0  0
  128.7170  125.7280   68.5640 C   0  0  0  0  0  0  0  0  0  0  0  0
  129.4440  126.2820   67.5100 C   0  0  0  0  0  0  0  0  0  0  0  0
  129.3370  125.6130   66.2750 N   0  0  0  0  0  0  0  0  0  0  0  0
  130.3050  125.2020   65.4180 C   0  0  0  0  0  0  0  0  0  0  0  0
  131.5120  125.3220   65.6300 O   0  0  0  0  0  0  0  0  0  0  0  0
  129.8230  124.5690   64.1890 C   0  0  0  0  0  0  0  0  0  0  0  0
  128.5450  125.3280   63.2430 S   0  0  0  0  0  0  0  0  0  0  0  0
  128.6170  124.0590   62.0440 C   0  0  0  0  0  0  0  0  0  0  0  0
  127.8230  124.0680   60.9760 N   0  0  0  0  0  0  0  0  0  0  0  0
  127.9610  123.0470   60.0900 C   0  0  0  0  0  0  0  0  0  0  0  0
  127.0580  123.0910   58.8910 C   0  0  0  0  0  0  0  0  0  0  0  0
  127.3370  122.3180   57.7530 C   0  0  0  0  0  0  0  0  0  0  0  0
  126.5070  122.3580   56.6360 C   0  0  0  0  0  0  0  0  0  0  0  0
  125.3820  123.1760   56.6400 C   0  0  0  0  0  0  0  0  0  0  0  0
  125.0840  123.9550   57.7540 C   0  0  0  0  0  0  0  0  0  0  0  0
  125.9160  123.9120   58.8690 C   0  0  0  0  0  0  0  0  0  0  0  0
  128.8790  122.0110   60.2940 C   0  0  0  0  0  0  0  0  0  0  0  0
  129.7170  121.9900   61.4190 C   0  0  0  0  0  0  0  0  0  0  0  0
  130.7020  120.8260   61.5780 C   0  0  0  0  0  0  0  0  0  0  0  0
  131.9580  121.2280   61.7810 F   0  0  0  0  0  0  0  0  0  0  0  0
  130.3500  120.0750   62.6210 F   0  0  0  0  0  0  0  0  0  0  0  0
  130.6980  120.0780   60.4750 F   0  0  0  0  0  0  0  0  0  0  0  0
  129.5930  123.0650   62.3450 C   0  0  0  0  0  0  0  0  0  0  0  0
  130.2700  123.3850   63.5780 C   0  0  0  0  0  0  0  0  0  0  0  0
  131.2610  122.5960   64.1050 N   0  0  0  0  0  0  0  0  0  0  0  0
  130.1950  127.4460   67.7290 C   0  0  0  0  0  0  0  0  0  0  0  0
  130.2200  128.0330   68.9910 C   0  0  0  0  0  0  0  0  0  0  0  0
  1  2  1  0
  2  3  1  0
  3  4  1  0
  4  5  2  0
  4  6  1  0
  6  7  2  0
  7  8  1  0
  8  9  2  0
  9 10  1  0
 10 11  1  0
 11 12  2  0
 11 13  1  0
 13 14  1  0
 14 15  1  0
 15 16  2  0
 16 17  1  0
 17 18  1  0
 18 19  2  0
 19 20  1  0
 20 21  2  0
 21 22  1  0
 22 23  2  0
 17 24  2  0
 24 25  1  0
 25 26  1  0
 26 27  1  0
 26 28  1  0
 26 29  1  0
 25 30  2  0
 30 31  1  0
 31 32  1  0
  9 33  1  0
 33 34  2  0
 34  6  1  0
 31 13  2  0
 30 15  1  0
 23 18  1  0
M  END
>  <Binding energies>  (30) 
[-7.73]

>  <Ligand effiencies>  (30) 
[-0.20891891891891892]

>  <Interactions>  (30) 
["V-B:PRO:540:CB:9857, V-B:TYR:539:CE2:9848, V-B:PRO:540:N:9856, V-B:TYR:539:CD2:9846, V-B:PRO:540:CA:9855, V-B:MET:535:CE:9807, V-A:LEU:475:CD1:4257, V-B:ALA:541:CA:9862, V-B:TYR:539:C:9839, V-B:ALA:541:CB:9864, V-B:GLU:543:CD:9880, V-B:GLU:543:CB:9878, V-A:GLU:543:CB:4906, V-A:HIS:456:CE1:4069, V-B:HIS:456:CE1:9041, H-A:TYR:484:OH:4347, V-A:GLU:543:C:4902, V-B:GLU:543:CG:9879, V-A:GLU:543:CD:4908, H-B:GLU:543:OE2:9882, V-B:GLU:543:C:9874, V-B:HIS:456:CD2:9039, H-A:HIS:456:ND1:4066, V-B:GLU:543:CA:9876, V-A:TYR:484:CZ:4346, V-B:PRO:540:CD:9859, V-A:HIS:456:CD2:4067, V-B:TYR:531:CE2:9765, V-B:LEU:363:CD1:8160"]

$$$$
4cb_Grossjean_2025
     RDKit          3D

 33 36  0  0  0  0  0  0  0  0999 V2000
  131.1600  127.9260   73.0880 C   0  0  0  0  0  0  0  0  0  0  0  0
  130.0180  127.4370   72.3990 O   0  0  0  0  0  0  0  0  0  0  0  0
  129.3850  128.1950   71.4680 C   0  0  0  0  0  0  0  0  0  0  0  0
  128.8580  129.2830   71.7200 O   0  0  0  0  0  0  0  0  0  0  0  0
  129.3900  127.5800   70.0980 C   0  0  0  0  0  0  0  0  0  0  0  0
  128.7700  126.3380   69.9040 C   0  0  0  0  0  0  0  0  0  0  0  0
  128.7500  125.7460   68.6440 C   0  0  0  0  0  0  0  0  0  0  0  0
  129.3550  126.3770   67.5560 C   0  0  0  0  0  0  0  0  0  0  0  0
  129.2630  125.6960   66.3270 N   0  0  0  0  0  0  0  0  0  0  0  0
  130.2400  125.2480   65.5020 C   0  0  0  0  0  0  0  0  0  0  0  0
  131.4450  125.3360   65.7450 O   0  0  0  0  0  0  0  0  0  0  0  0
  129.7740  124.6110   64.2670 C   0  0  0  0  0  0  0  0  0  0  0  0
  128.5000  125.3630   63.3090 S   0  0  0  0  0  0  0  0  0  0  0  0
  128.5900  124.0940   62.1100 C   0  0  0  0  0  0  0  0  0  0  0  0
  127.8060  124.0960   61.0350 N   0  0  0  0  0  0  0  0  0  0  0  0
  127.9570  123.0730   60.1540 C   0  0  0  0  0  0  0  0  0  0  0  0
  127.0620  123.1070   58.9480 C   0  0  0  0  0  0  0  0  0  0  0  0
  125.8900  123.8800   58.9450 C   0  0  0  0  0  0  0  0  0  0  0  0
  125.0540  123.9120   57.8320 C   0  0  0  0  0  0  0  0  0  0  0  0
  125.3800  123.1690   56.7020 C   0  0  0  0  0  0  0  0  0  0  0  0
  126.5340  122.3920   56.6800 C   0  0  0  0  0  0  0  0  0  0  0  0
  127.3650  122.3610   57.7950 C   0  0  0  0  0  0  0  0  0  0  0  0
  128.8780  122.0430   60.3680 C   0  0  0  0  0  0  0  0  0  0  0  0
  129.7070  122.0290   61.5000 C   0  0  0  0  0  0  0  0  0  0  0  0
  130.6960  120.8700   61.6720 C   0  0  0  0  0  0  0  0  0  0  0  0
  130.5810  120.2550   62.8510 F   0  0  0  0  0  0  0  0  0  0  0  0
  130.4880  119.9560   60.7240 F   0  0  0  0  0  0  0  0  0  0  0  0
  131.9460  121.3250   61.5790 F   0  0  0  0  0  0  0  0  0  0  0  0
  129.5690  123.1060   62.4230 C   0  0  0  0  0  0  0  0  0  0  0  0
  130.2350  123.4310   63.6610 C   0  0  0  0  0  0  0  0  0  0  0  0
  131.2290  122.6510   64.1950 N   0  0  0  0  0  0  0  0  0  0  0  0
  129.9750  127.6210   67.7410 C   0  0  0  0  0  0  0  0  0  0  0  0
  129.9920  128.2130   69.0010 C   0  0  0  0  0  0  0  0  0  0  0  0
  1  2  1  0
  2  3  1  0
  3  4  2  0
  3  5  1  0
  5  6  2  0
  6  7  1  0
  7  8  2  0
  8  9  1  0
  9 10  1  0
 10 11  2  0
 10 12  1  0
 12 13  1  0
 13 14  1  0
 14 15  2  0
 15 16  1  0
 16 17  1  0
 17 18  2  0
 18 19  1  0
 19 20  2  0
 20 21  1  0
 21 22  2  0
 16 23  2  0
 23 24  1  0
 24 25  1  0
 25 26  1  0
 25 27  1  0
 25 28  1  0
 24 29  2  0
 29 30  1  0
 30 31  1  0
  8 32  1  0
 32 33  2  0
 33  5  1  0
 30 12  2  0
 29 14  1  0
 22 17  1  0
M  END
>  <Binding energies>  (31) 
[-7.59]

>  <Ligand effiencies>  (31) 
[-0.21083333333333332]

>  <Interactions>  (31) 
["V-B:PRO:540:CB:9857, V-B:PRO:540:N:9856, V-B:TYR:539:CD2:9846, V-B:PRO:540:CA:9855, V-B:MET:535:CE:9807, V-A:LEU:475:CD1:4257, V-B:ALA:541:CA:9862, V-B:TYR:539:C:9839, V-B:ALA:541:CB:9864, V-B:GLU:543:CD:9880, V-B:GLU:543:CB:9878, V-A:GLU:543:CB:4906, V-A:HIS:456:CE1:4069, V-B:HIS:456:CE1:9041, H-A:TYR:484:OH:4347, V-A:GLU:543:C:4902, V-B:GLU:543:CG:9879, V-A:GLU:543:CD:4908, H-B:GLU:543:OE2:9882, V-B:GLU:543:C:9874, V-B:HIS:456:CD2:9039, V-A:LYS:547:CE:4950, V-B:GLU:543:CA:9876, V-A:TYR:484:CZ:4346, V-A:GLY:544:C:4912, V-B:TYR:531:CE2:9765, V-B:LEU:363:CD1:8160"]

$$$$
4cc_Grossjean_2025
     RDKit          3D

 31 34  0  0  0  0  0  0  0  0999 V2000
  130.6500  128.3780   72.0280 C   0  0  0  0  0  0  0  0  0  0  0  0
  129.4210  128.1610   71.3440 O   0  0  0  0  0  0  0  0  0  0  0  0
  129.4440  127.6230   70.0720 C   0  0  0  0  0  0  0  0  0  0  0  0
  128.7360  126.4360   69.8850 C   0  0  0  0  0  0  0  0  0  0  0  0
  128.7000  125.8200   68.6370 C   0  0  0  0  0  0  0  0  0  0  0  0
  129.3830  126.3810   67.5560 C   0  0  0  0  0  0  0  0  0  0  0  0
  129.2750  125.6970   66.3310 N   0  0  0  0  0  0  0  0  0  0  0  0
  130.2560  125.2240   65.5250 C   0  0  0  0  0  0  0  0  0  0  0  0
  131.4580  125.2980   65.7870 O   0  0  0  0  0  0  0  0  0  0  0  0
  129.8010  124.5960   64.2810 C   0  0  0  0  0  0  0  0  0  0  0  0
  128.5390  125.3560   63.3130 S   0  0  0  0  0  0  0  0  0  0  0  0
  128.6150  124.0730   62.1280 C   0  0  0  0  0  0  0  0  0  0  0  0
  127.8310  124.0750   61.0520 N   0  0  0  0  0  0  0  0  0  0  0  0
  127.9680  123.0410   60.1820 C   0  0  0  0  0  0  0  0  0  0  0  0
  127.0700  123.0690   58.9790 C   0  0  0  0  0  0  0  0  0  0  0  0
  125.8710  123.8000   58.9950 C   0  0  0  0  0  0  0  0  0  0  0  0
  125.0320  123.8280   57.8840 C   0  0  0  0  0  0  0  0  0  0  0  0
  125.3810  123.1230   56.7380 C   0  0  0  0  0  0  0  0  0  0  0  0
  126.5610  122.3870   56.6960 C   0  0  0  0  0  0  0  0  0  0  0  0
  127.3960  122.3610   57.8100 C   0  0  0  0  0  0  0  0  0  0  0  0
  128.8780  122.0030   60.4050 C   0  0  0  0  0  0  0  0  0  0  0  0
  129.7080  121.9910   61.5380 C   0  0  0  0  0  0  0  0  0  0  0  0
  130.6870  120.8250   61.7160 C   0  0  0  0  0  0  0  0  0  0  0  0
  130.6140  120.2580   62.9230 F   0  0  0  0  0  0  0  0  0  0  0  0
  130.4300  119.8780   60.8150 F   0  0  0  0  0  0  0  0  0  0  0  0
  131.9380  121.2570   61.5540 F   0  0  0  0  0  0  0  0  0  0  0  0
  129.5790  123.0750   62.4520 C   0  0  0  0  0  0  0  0  0  0  0  0
  130.2400  123.3990   63.6930 C   0  0  0  0  0  0  0  0  0  0  0  0
  131.2130  122.6040   64.2440 N   0  0  0  0  0  0  0  0  0  0  0  0
  130.0870  127.5820   67.7330 C   0  0  0  0  0  0  0  0  0  0  0  0
  130.1190  128.1940   68.9820 C   0  0  0  0  0  0  0  0  0  0  0  0
  1  2  1  0
  2  3  1  0
  3  4  2  0
  4  5  1  0
  5  6  2  0
  6  7  1  0
  7  8  1  0
  8  9  2  0
  8 10  1  0
 10 11  1  0
 11 12  1  0
 12 13  2  0
 13 14  1  0
 14 15  1  0
 15 16  2  0
 16 17  1  0
 17 18  2  0
 18 19  1  0
 19 20  2  0
 14 21  2  0
 21 22  1  0
 22 23  1  0
 23 24  1  0
 23 25  1  0
 23 26  1  0
 22 27  2  0
 27 28  1  0
 28 29  1  0
  6 30  1  0
 30 31  2  0
 31  3  1  0
 28 10  2  0
 27 12  1  0
 20 15  1  0
M  END
>  <Binding energies>  (32) 
[-7.34]

>  <Ligand effiencies>  (32) 
[-0.21588235294117647]

>  <Interactions>  (32) 
["V-B:PRO:540:CB:9857, V-B:PRO:540:N:9856, V-B:TYR:539:CD2:9846, V-B:PRO:540:CA:9855, V-B:MET:535:CE:9807, V-A:LEU:475:CD1:4257, V-B:ALA:541:CA:9862, V-B:TYR:539:C:9839, V-B:ALA:541:CB:9864, V-B:GLU:543:CD:9880, V-B:GLU:543:CB:9878, V-A:GLU:543:CB:4906, V-A:HIS:456:CE1:4069, V-B:HIS:456:CE1:9041, H-A:TYR:484:OH:4347, V-A:GLU:543:C:4902, V-B:GLU:543:CG:9879, V-A:GLU:543:CD:4908, H-B:GLU:543:OE2:9882, V-B:GLU:543:C:9874, V-A:GLY:544:CA:4914, V-B:GLU:543:CA:9876, V-A:TYR:484:CZ:4346, V-A:GLY:544:C:4912, V-B:TYR:531:CE2:9765, V-B:LEU:363:CD1:8160, V-A:LEU:475:CG:4256, V-A:LEU:475:CD2:4258"]

$$$$
4ce_Grossjean_2025
     RDKit          3D

 30 33  0  0  0  0  0  0  0  0999 V2000
  128.7390  125.7790   71.2040 C   0  0  0  0  0  0  0  0  0  0  0  0
  128.9790  126.5330   69.9100 C   0  0  0  0  0  0  0  0  0  0  0  0
  129.2790  127.8980   69.9040 C   0  0  0  0  0  0  0  0  0  0  0  0
  129.4950  128.5240   68.6760 C   0  0  0  0  0  0  0  0  0  0  0  0
  129.4090  127.7810   67.4970 C   0  0  0  0  0  0  0  0  0  0  0  0
  129.0990  126.4180   67.5750 C   0  0  0  0  0  0  0  0  0  0  0  0
  129.0510  125.7180   66.3560 N   0  0  0  0  0  0  0  0  0  0  0  0
  130.0790  125.2540   65.6020 C   0  0  0  0  0  0  0  0  0  0  0  0
  131.2650  125.3770   65.9120 O   0  0  0  0  0  0  0  0  0  0  0  0
  129.6940  124.5760   64.3620 C   0  0  0  0  0  0  0  0  0  0  0  0
  128.4290  125.2520   63.3370 S   0  0  0  0  0  0  0  0  0  0  0  0
  128.6270  123.9680   62.1700 C   0  0  0  0  0  0  0  0  0  0  0  0
  127.8900  123.9170   61.0630 N   0  0  0  0  0  0  0  0  0  0  0  0
  128.1260  122.8890   60.2060 C   0  0  0  0  0  0  0  0  0  0  0  0
  127.2830  122.8640   58.9660 C   0  0  0  0  0  0  0  0  0  0  0  0
  127.6690  122.1000   57.8520 C   0  0  0  0  0  0  0  0  0  0  0  0
  126.8950  122.0780   56.6950 C   0  0  0  0  0  0  0  0  0  0  0  0
  125.7200  122.8190   56.6350 C   0  0  0  0  0  0  0  0  0  0  0  0
  125.3160  123.5850   57.7230 C   0  0  0  0  0  0  0  0  0  0  0  0
  126.0930  123.6070   58.8780 C   0  0  0  0  0  0  0  0  0  0  0  0
  129.0830  121.9050   60.4760 C   0  0  0  0  0  0  0  0  0  0  0  0
  129.8620  121.9460   61.6440 C   0  0  0  0  0  0  0  0  0  0  0  0
  130.8940  120.8380   61.8760 C   0  0  0  0  0  0  0  0  0  0  0  0
  130.9300  119.9400   60.8900 F   0  0  0  0  0  0  0  0  0  0  0  0
  132.1130  121.3710   61.9740 F   0  0  0  0  0  0  0  0  0  0  0  0
  130.6090  120.1850   63.0020 F   0  0  0  0  0  0  0  0  0  0  0  0
  129.6340  123.0290   62.5410 C   0  0  0  0  0  0  0  0  0  0  0  0
  130.2270  123.4030   63.8020 C   0  0  0  0  0  0  0  0  0  0  0  0
  131.2240  122.6740   64.3980 N   0  0  0  0  0  0  0  0  0  0  0  0
  128.8900  125.7970   68.7720 N   0  0  0  0  0  0  0  0  0  0  0  0
  1  2  1  0
  2  3  2  0
  3  4  1  0
  4  5  2  0
  5  6  1  0
  6  7  1  0
  7  8  1  0
  8  9  2  0
  8 10  1  0
 10 11  1  0
 11 12  1  0
 12 13  2  0
 13 14  1  0
 14 15  1  0
 15 16  2  0
 16 17  1  0
 17 18  2  0
 18 19  1  0
 19 20  2  0
 14 21  2  0
 21 22  1  0
 22 23  1  0
 23 24  1  0
 23 25  1  0
 23 26  1  0
 22 27  2  0
 27 28  1  0
 28 29  1  0
  6 30  2  0
 30  2  1  0
 28 10  2  0
 27 12  1  0
 20 15  1  0
M  END
>  <Binding energies>  (33) 
[-7.25]

>  <Ligand effiencies>  (33) 
[-0.2196969696969697]

>  <Interactions>  (33) 
["V-B:PRO:540:CB:9857, V-B:PRO:540:N:9856, V-B:TYR:539:CD2:9846, V-B:PRO:540:CA:9855, V-B:MET:535:CE:9807, V-A:LEU:475:CD1:4257, V-B:ALA:541:CA:9862, V-B:TYR:539:C:9839, V-B:ALA:541:CB:9864, V-B:GLU:543:CD:9880, V-B:GLU:543:CB:9878, V-A:GLU:543:CB:4906, V-A:HIS:456:CE1:4069, V-B:HIS:456:CE1:9041, H-A:TYR:484:OH:4347, V-A:GLU:543:C:4902, V-B:GLU:543:CG:9879, V-A:GLU:543:CD:4908, V-A:GLU:543:CG:4907, H-B:GLU:543:OE2:9882, V-B:GLU:543:C:9874, V-A:TYR:484:CZ:4346, V-B:TYR:539:CA:9841, V-B:PRO:540:CD:9859, V-B:TYR:531:CE2:9765, V-B:LEU:363:CD1:8160, H-B:GLU:543:OE1:9881, V-A:LEU:475:CG:4256, V-A:LEU:475:CD2:4258, V-A:GLU:543:CA:4904"]

$$$$
4cf_Grossjean_2025
     RDKit          3D

 29 32  0  0  0  0  0  0  0  0999 V2000
  125.9950  125.7000   59.1210 N   0  0  0  0  0  0  0  0  0  0  0  0
  126.8590  125.3140   60.1130 C   0  0  0  0  0  0  0  0  0  0  0  0
  127.0700  126.0600   61.2840 C   0  0  0  0  0  0  0  0  0  0  0  0
  126.4840  127.3490   61.6640 C   0  0  0  0  0  0  0  0  0  0  0  0
  125.9890  128.0880   60.8120 O   0  0  0  0  0  0  0  0  0  0  0  0
  126.5240  127.6370   62.9870 N   0  0  0  0  0  0  0  0  0  0  0  0
  126.1000  128.7940   63.6680 C   0  0  0  0  0  0  0  0  0  0  0  0
  126.8770  129.5380   64.5770 C   0  0  0  0  0  0  0  0  0  0  0  0
  126.3280  130.6620   65.1960 C   0  0  0  0  0  0  0  0  0  0  0  0
  125.0130  131.0160   64.8940 C   0  0  0  0  0  0  0  0  0  0  0  0
  124.2400  130.3130   64.0280 N   0  0  0  0  0  0  0  0  0  0  0  0
  124.7880  129.2210   63.4340 C   0  0  0  0  0  0  0  0  0  0  0  0
  128.2370  125.2690   62.3410 S   0  0  0  0  0  0  0  0  0  0  0  0
  128.4390  123.9530   61.2080 C   0  0  0  0  0  0  0  0  0  0  0  0
  129.2740  122.9460   61.4540 N   0  0  0  0  0  0  0  0  0  0  0  0
  129.3760  121.9780   60.5060 C   0  0  0  0  0  0  0  0  0  0  0  0
  130.3300  120.8600   60.8070 C   0  0  0  0  0  0  0  0  0  0  0  0
  129.8990  119.7130   61.4920 C   0  0  0  0  0  0  0  0  0  0  0  0
  130.7770  118.6710   61.7760 C   0  0  0  0  0  0  0  0  0  0  0  0
  132.1050  118.7610   61.3720 C   0  0  0  0  0  0  0  0  0  0  0  0
  132.5600  119.8840   60.6880 C   0  0  0  0  0  0  0  0  0  0  0  0
  131.6770  120.9230   60.4080 C   0  0  0  0  0  0  0  0  0  0  0  0
  128.6220  122.0140   59.3290 C   0  0  0  0  0  0  0  0  0  0  0  0
  127.7350  123.0690   59.0620 C   0  0  0  0  0  0  0  0  0  0  0  0
  126.9430  123.0470   57.7500 C   0  0  0  0  0  0  0  0  0  0  0  0
  127.2380  122.0000   56.9760 F   0  0  0  0  0  0  0  0  0  0  0  0
  125.6370  122.9940   58.0120 F   0  0  0  0  0  0  0  0  0  0  0  0
  127.2060  124.1480   57.0450 F   0  0  0  0  0  0  0  0  0  0  0  0
  127.6340  124.0990   60.0410 C   0  0  0  0  0  0  0  0  0  0  0  0
  1  2  1  0
  2  3  2  0
  3  4  1  0
  4  5  2  0
  4  6  1  0
  6  7  1  0
  7  8  2  0
  8  9  1  0
  9 10  2  0
 10 11  1  0
 11 12  2  0
  3 13  1  0
 13 14  1  0
 14 15  2  0
 15 16  1  0
 16 17  1  0
 17 18  2  0
 18 19  1  0
 19 20  2  0
 20 21  1  0
 21 22  2  0
 16 23  2  0
 23 24  1  0
 24 25  1  0
 25 26  1  0
 25 27  1  0
 25 28  1  0
 24 29  2  0
 29  2  1  0
 12  7  1  0
 29 14  1  0
 22 17  1  0
M  END
>  <Binding energies>  (34) 
[-7.15]

>  <Ligand effiencies>  (34) 
[-0.2234375]

>  <Interactions>  (34) 
["V-B:PRO:540:CB:9857, V-A:ILE:369:CG2:3236, V-B:TYR:539:CE2:9848, V-B:PRO:540:N:9856, V-B:TYR:539:CD2:9846, V-B:PRO:540:CA:9855, V-A:PRO:482:CG:4326, V-B:PRO:540:C:9853, V-A:PRO:482:CB:4325, V-B:MET:535:CE:9807, V-A:LEU:475:CD1:4257, H-B:TYR:531:OH:9767, V-B:ALA:541:CA:9862, V-B:TYR:539:C:9839, V-B:ALA:541:CB:9864, V-B:GLU:543:CD:9880, V-B:ARG:545:CZ:9898, H-B:GLY:454:N:9021, V-B:TYR:484:CZ:9318, V-B:TYR:484:CE2:9317, H-B:GLU:543:OE2:9882, V-B:ASP:366:CB:8183, V-B:ASP:366:CG:8184, V-B:TYR:539:CA:9841, V-B:PRO:540:CD:9859, V-B:LEU:363:CD1:8160, V-B:LEU:475:CD1:9229, H-B:GLU:543:OE1:9881, H-B:ASP:366:OD1:8185, V-B:GLY:454:CA:9020"]

$$$$
4ci_Grossjean_2025
     RDKit          3D

 28 31  0  0  0  0  0  0  0  0999 V2000
  128.5600  127.2470   65.5030 N   0  0  0  0  0  0  0  0  0  0  0  0
  128.6700  127.1350   64.1410 C   0  0  0  0  0  0  0  0  0  0  0  0
  129.6730  126.3820   63.5100 C   0  0  0  0  0  0  0  0  0  0  0  0
  130.7440  125.5910   64.1230 C   0  0  0  0  0  0  0  0  0  0  0  0
  130.8590  124.3880   63.8740 O   0  0  0  0  0  0  0  0  0  0  0  0
  131.5600  126.2690   64.9680 N   0  0  0  0  0  0  0  0  0  0  0  0
  132.6420  125.7690   65.6810 C   0  0  0  0  0  0  0  0  0  0  0  0
  132.8450  126.0230   67.0370 C   0  0  0  0  0  0  0  0  0  0  0  0
  134.0070  125.3610   67.3560 C   0  0  0  0  0  0  0  0  0  0  0  0
  134.4810  124.7400   66.2490 O   0  0  0  0  0  0  0  0  0  0  0  0
  133.6070  125.0070   65.1940 N   0  0  0  0  0  0  0  0  0  0  0  0
  129.5110  126.4490   61.7570 S   0  0  0  0  0  0  0  0  0  0  0  0
  128.1120  127.4900   61.8800 C   0  0  0  0  0  0  0  0  0  0  0  0
  127.4750  127.9310   60.7980 N   0  0  0  0  0  0  0  0  0  0  0  0
  126.3960  128.7320   60.9930 C   0  0  0  0  0  0  0  0  0  0  0  0
  125.7020  129.2170   59.7530 C   0  0  0  0  0  0  0  0  0  0  0  0
  124.7300  130.2290   59.8210 C   0  0  0  0  0  0  0  0  0  0  0  0
  124.0830  130.6830   58.6740 C   0  0  0  0  0  0  0  0  0  0  0  0
  124.3990  130.1280   57.4390 C   0  0  0  0  0  0  0  0  0  0  0  0
  125.3530  129.1220   57.3430 C   0  0  0  0  0  0  0  0  0  0  0  0
  125.9970  128.6700   58.4920 C   0  0  0  0  0  0  0  0  0  0  0  0
  125.9740  129.1000   62.2750 C   0  0  0  0  0  0  0  0  0  0  0  0
  126.6380  128.6420   63.4240 C   0  0  0  0  0  0  0  0  0  0  0  0
  126.1210  129.0850   64.7970 C   0  0  0  0  0  0  0  0  0  0  0  0
  125.7630  128.0630   65.5770 F   0  0  0  0  0  0  0  0  0  0  0  0
  127.0730  129.7620   65.4390 F   0  0  0  0  0  0  0  0  0  0  0  0
  125.0510  129.8670   64.6460 F   0  0  0  0  0  0  0  0  0  0  0  0
  127.7630  127.7900   63.2300 C   0  0  0  0  0  0  0  0  0  0  0  0
  1  2  1  0
  2  3  2  0
  3  4  1  0
  4  5  2  0
  4  6  1  0
  6  7  1  0
  7  8  1  0
  8  9  2  0
  9 10  1  0
 10 11  1  0
  3 12  1  0
 12 13  1  0
 13 14  2  0
 14 15  1  0
 15 16  1  0
 16 17  2  0
 17 18  1  0
 18 19  2  0
 19 20  1  0
 20 21  2  0
 15 22  2  0
 22 23  1  0
 23 24  1  0
 24 25  1  0
 24 26  1  0
 24 27  1  0
 23 28  2  0
 28  2  1  0
 11  7  2  0
 28 13  1  0
 21 16  1  0
M  END
>  <Binding energies>  (35) 
[-7.43]

>  <Ligand effiencies>  (35) 
[-0.2396774193548387]

>  <Interactions>  (35) 
["V-B:GLU:543:CD:9880, V-A:ARG:545:CD:4923, V-A:ARG:545:CZ:4926, V-A:HIS:456:CE1:4069, V-A:ARG:545:CG:4922, V-B:ARG:545:CZ:9898, H-A:TYR:484:OH:4347, H-A:GLY:454:N:4049, H-A:GLU:543:OE1:4909, V-A:GLU:543:CD:4908, H-B:GLU:543:OE2:9882, V-A:TYR:484:CZ:4346, V-B:ASP:366:CB:8183, V-B:ASP:366:CA:8181, V-A:TYR:539:CE1:4875, V-B:ASP:366:CG:8184, V-B:ILE:369:CG2:8208, H-A:GLU:543:OE2:4910, V-A:ILE:455:C:4051, H-A:ARG:545:NE:4924, V-B:TYR:531:CZ:9766, V-A:TYR:539:CZ:4877, V-B:ARG:545:CD:9895, V-B:TYR:531:CE1:9764, V-B:ASP:366:C:8179, H-A:ILE:455:N:4054, V-B:ILE:369:CB:8207"]

$$$$
8a_Ghoteimi_2023
     RDKit          3D

 40 44  0  0  0  0  0  0  0  0999 V2000
  130.6540  117.4120   59.8930 C   0  0  0  0  0  0  0  0  0  0  0  0
  131.4960  117.6340   61.1530 C   0  0  0  0  0  0  0  0  0  0  0  0
  132.7510  118.1950   60.7900 O   0  0  0  0  0  0  0  0  0  0  0  0
  132.8390  119.4600   60.3010 C   0  0  0  0  0  0  0  0  0  0  0  0
  133.2100  119.7200   59.1520 O   0  0  0  0  0  0  0  0  0  0  0  0
  132.4440  120.5100   61.2980 C   0  0  0  0  0  0  0  0  0  0  0  0
  131.0860  120.7570   61.5310 C   0  0  0  0  0  0  0  0  0  0  0  0
  130.6880  121.7250   62.4480 C   0  0  0  0  0  0  0  0  0  0  0  0
  131.6380  122.4680   63.1520 C   0  0  0  0  0  0  0  0  0  0  0  0
  131.1190  123.4220   64.0490 N   0  0  0  0  0  0  0  0  0  0  0  0
  130.5300  124.6200   63.8120 C   0  0  0  0  0  0  0  0  0  0  0  0
  130.3480  125.0930   62.6900 O   0  0  0  0  0  0  0  0  0  0  0  0
  130.0990  125.3510   65.0070 C   0  0  0  0  0  0  0  0  0  0  0  0
  130.8310  125.0090   66.5740 S   0  0  0  0  0  0  0  0  0  0  0  0
  129.8180  126.1980   67.3600 C   0  0  0  0  0  0  0  0  0  0  0  0
  129.8850  126.4170   68.6730 N   0  0  0  0  0  0  0  0  0  0  0  0
  129.0490  127.3600   69.1840 C   0  0  0  0  0  0  0  0  0  0  0  0
  129.1260  127.5740   70.6620 C   0  0  0  0  0  0  0  0  0  0  0  0
  129.1810  126.4890   71.5480 C   0  0  0  0  0  0  0  0  0  0  0  0
  129.2410  126.6950   72.9230 C   0  0  0  0  0  0  0  0  0  0  0  0
  129.2500  127.9860   73.4470 C   0  0  0  0  0  0  0  0  0  0  0  0
  129.3090  128.0950   74.8230 O   0  0  0  0  0  0  0  0  0  0  0  0
  128.2010  127.6550   75.6010 C   0  0  0  0  0  0  0  0  0  0  0  0
  129.2010  129.0780   72.5690 C   0  0  0  0  0  0  0  0  0  0  0  0
  129.1390  128.8690   71.1930 C   0  0  0  0  0  0  0  0  0  0  0  0
  128.1610  128.0820   68.3840 C   0  0  0  0  0  0  0  0  0  0  0  0
  128.0990  127.8670   67.0030 C   0  0  0  0  0  0  0  0  0  0  0  0
  127.1590  128.6850   66.1950 C   0  0  0  0  0  0  0  0  0  0  0  0
  125.7830  128.4660   66.2820 C   0  0  0  0  0  0  0  0  0  0  0  0
  124.8970  129.2440   65.5420 C   0  0  0  0  0  0  0  0  0  0  0  0
  125.3700  130.2570   64.7070 C   0  0  0  0  0  0  0  0  0  0  0  0
  124.4190  130.9780   64.0120 O   0  0  0  0  0  0  0  0  0  0  0  0
  124.0280  130.5420   62.7150 C   0  0  0  0  0  0  0  0  0  0  0  0
  126.7530  130.4850   64.6240 C   0  0  0  0  0  0  0  0  0  0  0  0
  127.6370  129.7060   65.3680 C   0  0  0  0  0  0  0  0  0  0  0  0
  128.9490  126.8690   66.4490 C   0  0  0  0  0  0  0  0  0  0  0  0
  129.1180  126.3510   65.1140 C   0  0  0  0  0  0  0  0  0  0  0  0
  128.3690  126.7920   64.0520 N   0  0  0  0  0  0  0  0  0  0  0  0
  133.0010  122.2240   62.9290 C   0  0  0  0  0  0  0  0  0  0  0  0
  133.3970  121.2550   62.0100 C   0  0  0  0  0  0  0  0  0  0  0  0
  1  2  1  0
  2  3  1  0
  3  4  1  0
  4  5  2  0
  4  6  1  0
  6  7  2  0
  7  8  1  0
  8  9  2  0
  9 10  1  0
 10 11  1  0
 11 12  2  0
 11 13  1  0
 13 14  1  0
 14 15  1  0
 15 16  2  0
 16 17  1  0
 17 18  1  0
 18 19  2  0
 19 20  1  0
 20 21  2  0
 21 22  1  0
 22 23  1  0
 21 24  1  0
 24 25  2  0
 17 26  2  0
 26 27  1  0
 27 28  1  0
 28 29  2  0
 29 30  1  0
 30 31  2  0
 31 32  1  0
 32 33  1  0
 31 34  1  0
 34 35  2  0
 27 36  2  0
 36 37  1  0
 37 38  1  0
  9 39  1  0
 39 40  2  0
 40  6  1  0
 37 13  2  0
 36 15  1  0
 25 18  1  0
 35 28  1  0
M  END
>  <Binding energies>  (36) 
[-8.7]

>  <Ligand effiencies>  (36) 
[-0.2023255813953488]

>  <Interactions>  (36) 
["V-A:ILE:369:CG2:3236, V-B:TYR:539:CD2:9846, V-A:PRO:482:CG:4326, V-A:PRO:482:CB:4325, V-A:LEU:475:CD1:4257, V-B:TYR:539:C:9839, V-B:ALA:541:CB:9864, V-B:GLU:543:CD:9880, V-A:HIS:456:CE1:4069, V-B:HIS:456:CE1:9041, V-B:ARG:545:CZ:9898, V-A:GLY:454:CA:4048, H-B:GLY:454:N:9021, V-A:HIS:383:CE1:3392, H-A:TYR:484:OH:4347, V-A:GLU:543:C:4902, H-A:GLU:543:OE1:4909, V-B:GLU:543:CG:9879, V-A:GLU:543:CD:4908, V-A:GLU:543:CG:4907, H-B:GLU:543:OE2:9882, V-B:HIS:456:CD2:9039, V-A:TYR:484:CE2:4345, V-A:TYR:484:CZ:4346, V-B:TYR:539:CB:9843, V-B:ARG:545:CD:9895, V-B:ARG:545:CG:9894, H-A:HIS:383:NE2:3393, H-A:SER:385:OG:3409, V-B:ILE:369:CD1:8210, H-A:LYS:547:NZ:4951"]

$$$$
8c_Ghoteimi_2023
     RDKit          3D

 34 38  0  0  0  0  0  0  0  0999 V2000
  130.6130  116.5100   59.8780 C   0  0  0  0  0  0  0  0  0  0  0  0
  131.5270  117.1270   60.7780 O   0  0  0  0  0  0  0  0  0  0  0  0
  131.4860  118.4980   60.9440 C   0  0  0  0  0  0  0  0  0  0  0  0
  130.2690  119.0400   61.3540 C   0  0  0  0  0  0  0  0  0  0  0  0
  130.1350  120.4120   61.5450 C   0  0  0  0  0  0  0  0  0  0  0  0
  131.2160  121.2790   61.3310 C   0  0  0  0  0  0  0  0  0  0  0  0
  131.0770  122.7550   61.5310 C   0  0  0  0  0  0  0  0  0  0  0  0
  131.1160  123.3340   62.8030 C   0  0  0  0  0  0  0  0  0  0  0  0
  130.9860  124.7180   62.9620 C   0  0  0  0  0  0  0  0  0  0  0  0
  131.0220  125.2980   64.3230 C   0  0  0  0  0  0  0  0  0  0  0  0
  129.8380  125.4850   65.0410 C   0  0  0  0  0  0  0  0  0  0  0  0
  129.8750  126.0210   66.3240 C   0  0  0  0  0  0  0  0  0  0  0  0
  131.0910  126.3820   66.9080 C   0  0  0  0  0  0  0  0  0  0  0  0
  131.0310  126.9040   68.1860 O   0  0  0  0  0  0  0  0  0  0  0  0
  129.8830  127.6460   68.5800 C   0  0  0  0  0  0  0  0  0  0  0  0
  132.2790  126.1970   66.1840 C   0  0  0  0  0  0  0  0  0  0  0  0
  132.2410  125.6600   64.9000 C   0  0  0  0  0  0  0  0  0  0  0  0
  130.8200  125.5120   61.7960 C   0  0  0  0  0  0  0  0  0  0  0  0
  130.6640  126.9280   61.5930 C   0  0  0  0  0  0  0  0  0  0  0  0
  130.6520  127.8220   62.6340 N   0  0  0  0  0  0  0  0  0  0  0  0
  130.5270  127.2990   60.2460 C   0  0  0  0  0  0  0  0  0  0  0  0
  130.3550  128.6390   59.6820 C   0  0  0  0  0  0  0  0  0  0  0  0
  129.4110  129.3530   60.0280 O   0  0  0  0  0  0  0  0  0  0  0  0
  131.2920  129.0120   58.7750 N   0  0  0  0  0  0  0  0  0  0  0  0
  131.3620  130.2220   58.0990 C   0  0  0  0  0  0  0  0  0  0  0  0
  130.3970  131.0920   57.8970 N   0  0  0  0  0  0  0  0  0  0  0  0
  130.8210  132.1370   57.2140 C   0  0  0  0  0  0  0  0  0  0  0  0
  132.1620  132.1280   56.8440 C   0  0  0  0  0  0  0  0  0  0  0  0
  132.8990  130.6640   57.4270 S   0  0  0  0  0  0  0  0  0  0  0  0
  130.5930  125.8890   59.1880 S   0  0  0  0  0  0  0  0  0  0  0  0
  130.8010  124.8160   60.5520 C   0  0  0  0  0  0  0  0  0  0  0  0
  130.9230  123.4970   60.4000 N   0  0  0  0  0  0  0  0  0  0  0  0
  132.4370  120.7260   60.9210 C   0  0  0  0  0  0  0  0  0  0  0  0
  132.5750  119.3550   60.7290 C   0  0  0  0  0  0  0  0  0  0  0  0
  1  2  1  0
  2  3  1  0
  3  4  2  0
  4  5  1  0
  5  6  2  0
  6  7  1  0
  7  8  2  0
  8  9  1  0
  9 10  1  0
 10 11  2  0
 11 12  1  0
 12 13  2  0
 13 14  1  0
 14 15  1  0
 13 16  1  0
 16 17  2  0
  9 18  2  0
 18 19  1  0
 19 20  1  0
 19 21  2  0
 21 22  1  0
 22 23  2  0
 22 24  1  0
 24 25  1  0
 25 26  2  0
 26 27  1  0
 27 28  2  0
 28 29  1  0
 21 30  1  0
 30 31  1  0
 31 32  2  0
  6 33  1  0
 33 34  2  0
 34  3  1  0
 32  7  1  0
 17 10  1  0
 31 18  1  0
 29 25  1  0
M  END
>  <Binding energies>  (37) 
[-7.93]

>  <Ligand effiencies>  (37) 
[-0.21432432432432433]

>  <Interactions>  (37) 
["V-B:TYR:539:CD2:9846, V-A:PRO:482:CG:4326, V-A:PRO:482:CB:4325, V-A:LEU:475:CD1:4257, V-B:ALA:541:CB:9864, V-B:GLU:543:CD:9880, V-A:ARG:545:CZ:4926, V-A:GLU:543:CB:4906, V-A:HIS:456:CE1:4069, V-A:ARG:545:CG:4922, V-A:HIS:383:CE1:3392, H-A:GLU:543:OE1:4909, V-B:GLU:543:CG:9879, V-A:GLU:543:CD:4908, V-A:ASP:366:CG:3212, V-A:ASP:366:CB:3211, V-A:TYR:539:C:4867, V-A:PRO:540:CA:4883, H-A:GLU:543:OE2:4910, V-B:VAL:344:CG1:7972, V-B:TYR:539:CB:9843, H-A:ASP:366:OD2:3214, V-A:PRO:540:CB:4885, V-A:PRO:540:N:4884, V-A:LEU:363:CD1:3188, H-A:HIS:383:NE2:3393, H-A:SER:385:OG:3409, V-A:PRO:540:CD:4887, V-A:PRO:540:CG:4886"]

$$$$
8d_Ghoteimi_2023
     RDKit          3D

 30 33  0  0  0  0  0  0  0  0999 V2000
  125.9620  122.3340   56.8650 C   0  0  0  0  0  0  0  0  0  0  0  0
  126.6430  122.5020   58.1010 O   0  0  0  0  0  0  0  0  0  0  0  0
  126.1160  123.2720   59.0870 C   0  0  0  0  0  0  0  0  0  0  0  0
  124.9820  123.7550   59.0540 O   0  0  0  0  0  0  0  0  0  0  0  0
  127.0480  123.4770   60.2180 C   0  0  0  0  0  0  0  0  0  0  0  0
  126.7920  124.8170   61.3380 S   0  0  0  0  0  0  0  0  0  0  0  0
  128.2040  124.3640   62.2640 C   0  0  0  0  0  0  0  0  0  0  0  0
  128.5880  125.0480   63.3420 N   0  0  0  0  0  0  0  0  0  0  0  0
  129.7000  124.6090   63.9900 C   0  0  0  0  0  0  0  0  0  0  0  0
  130.1110  125.3970   65.1930 C   0  0  0  0  0  0  0  0  0  0  0  0
  129.1620  125.8630   66.1140 C   0  0  0  0  0  0  0  0  0  0  0  0
  129.5500  126.5960   67.2310 C   0  0  0  0  0  0  0  0  0  0  0  0
  130.8950  126.8840   67.4580 C   0  0  0  0  0  0  0  0  0  0  0  0
  131.1880  127.6160   68.5920 O   0  0  0  0  0  0  0  0  0  0  0  0
  130.1240  128.0420   69.4380 C   0  0  0  0  0  0  0  0  0  0  0  0
  131.8530  126.4220   66.5450 C   0  0  0  0  0  0  0  0  0  0  0  0
  131.4610  125.6880   65.4290 C   0  0  0  0  0  0  0  0  0  0  0  0
  130.4270  123.4970   63.5560 C   0  0  0  0  0  0  0  0  0  0  0  0
  130.0220  122.7770   62.4270 C   0  0  0  0  0  0  0  0  0  0  0  0
  130.8080  121.5970   61.9970 C   0  0  0  0  0  0  0  0  0  0  0  0
  132.0960  121.7610   61.4830 C   0  0  0  0  0  0  0  0  0  0  0  0
  132.8310  120.6530   61.0700 C   0  0  0  0  0  0  0  0  0  0  0  0
  132.2940  119.3690   61.1700 C   0  0  0  0  0  0  0  0  0  0  0  0
  133.0950  118.3310   60.7360 O   0  0  0  0  0  0  0  0  0  0  0  0
  134.2590  118.6230   59.9720 C   0  0  0  0  0  0  0  0  0  0  0  0
  131.0000  119.2070   61.6920 C   0  0  0  0  0  0  0  0  0  0  0  0
  130.2660  120.3160   62.1020 C   0  0  0  0  0  0  0  0  0  0  0  0
  128.8620  123.2160   61.7360 C   0  0  0  0  0  0  0  0  0  0  0  0
  128.1800  122.7320   60.5680 C   0  0  0  0  0  0  0  0  0  0  0  0
  128.6100  121.6370   59.8610 N   0  0  0  0  0  0  0  0  0  0  0  0
  1  2  1  0
  2  3  1  0
  3  4  2  0
  3  5  1  0
  5  6  1  0
  6  7  1  0
  7  8  2  0
  8  9  1  0
  9 10  1  0
 10 11  2  0
 11 12  1  0
 12 13  2  0
 13 14  1  0
 14 15  1  0
 13 16  1  0
 16 17  2  0
  9 18  2  0
 18 19  1  0
 19 20  1  0
 20 21  2  0
 21 22  1  0
 22 23  2  0
 23 24  1  0
 24 25  1  0
 23 26  1  0
 26 27  2  0
 19 28  2  0
 28 29  1  0
 29 30  1  0
 29  5  2  0
 28  7  1  0
 17 10  1  0
 27 20  1  0
M  END
>  <Binding energies>  (38) 
[-6.85]

>  <Ligand effiencies>  (38) 
[-0.2140625]

>  <Interactions>  (38) 
["V-B:PRO:540:CB:9857, V-A:ILE:369:CG2:3236, V-B:PRO:540:N:9856, V-B:TYR:539:CD2:9846, V-B:PRO:540:CA:9855, V-A:PRO:482:CG:4326, V-B:PRO:540:C:9853, V-B:MET:535:CE:9807, V-A:LEU:475:CD1:4257, V-A:SER:385:CB:3408, V-B:ALA:541:CA:9862, V-A:SER:385:CA:3406, V-A:SER:385:C:3404, V-B:TYR:539:C:9839, V-B:ALA:541:CB:9864, V-B:GLU:543:CD:9880, V-B:GLU:543:CB:9878, V-A:GLU:543:CB:4906, V-A:HIS:456:CE1:4069, V-A:GLU:543:C:4902, V-B:GLU:543:CG:9879, V-A:GLU:543:CD:4908, H-A:HIS:456:ND1:4066, V-A:HIS:383:CD2:3391, V-B:PRO:540:CD:9859, V-B:LEU:363:CD1:8160, H-B:TYR:539:O:9840, H-A:HIS:383:NE2:3393, H-A:SER:385:OG:3409"]

$$$$
9a_Ghoteimi_2023
     RDKit          3D

 48 54  0  0  0  0  0  0  0  0999 V2000
  129.7510  133.6200   72.5900 C   0  0  0  0  0  0  0  0  0  0  0  0
  130.4190  132.6750   73.5930 C   0  0  0  0  0  0  0  0  0  0  0  0
  129.5200  132.4060   74.6630 O   0  0  0  0  0  0  0  0  0  0  0  0
  128.7520  131.2870   74.6680 C   0  0  0  0  0  0  0  0  0  0  0  0
  128.0870  130.9230   75.6440 O   0  0  0  0  0  0  0  0  0  0  0  0
  128.7950  130.5300   73.3720 C   0  0  0  0  0  0  0  0  0  0  0  0
  129.5450  129.3500   73.2930 C   0  0  0  0  0  0  0  0  0  0  0  0
  129.6070  128.6270   72.1050 C   0  0  0  0  0  0  0  0  0  0  0  0
  128.9200  129.0650   70.9730 C   0  0  0  0  0  0  0  0  0  0  0  0
  129.0540  128.2550   69.8290 N   0  0  0  0  0  0  0  0  0  0  0  0
  128.6420  126.9840   69.6000 C   0  0  0  0  0  0  0  0  0  0  0  0
  128.0390  126.2930   70.4210 O   0  0  0  0  0  0  0  0  0  0  0  0
  128.9560  126.4550   68.2690 C   0  0  0  0  0  0  0  0  0  0  0  0
  129.9830  125.0310   68.0960 S   0  0  0  0  0  0  0  0  0  0  0  0
  129.8360  125.0810   66.3550 C   0  0  0  0  0  0  0  0  0  0  0  0
  130.4230  124.1710   65.5780 N   0  0  0  0  0  0  0  0  0  0  0  0
  130.2360  124.2920   64.2370 C   0  0  0  0  0  0  0  0  0  0  0  0
  130.8950  123.2550   63.3860 C   0  0  0  0  0  0  0  0  0  0  0  0
  130.4550  121.9270   63.4170 C   0  0  0  0  0  0  0  0  0  0  0  0
  131.0620  120.9540   62.6270 C   0  0  0  0  0  0  0  0  0  0  0  0
  132.1230  121.2760   61.7650 C   0  0  0  0  0  0  0  0  0  0  0  0
  132.7540  120.3070   60.9800 N   0  0  0  0  0  0  0  0  0  0  0  0
  132.2320  119.9300   59.6500 C   0  0  0  0  0  0  0  0  0  0  0  0
  132.8260  118.6170   59.0980 C   0  0  0  0  0  0  0  0  0  0  0  0
  134.2420  118.6900   59.0870 O   0  0  0  0  0  0  0  0  0  0  0  0
  134.7620  118.8880   60.3920 C   0  0  0  0  0  0  0  0  0  0  0  0
  134.2290  120.2110   60.9770 C   0  0  0  0  0  0  0  0  0  0  0  0
  132.5680  122.6060   61.7490 C   0  0  0  0  0  0  0  0  0  0  0  0
  131.9630  123.5770   62.5410 C   0  0  0  0  0  0  0  0  0  0  0  0
  129.4910  125.3340   63.6790 C   0  0  0  0  0  0  0  0  0  0  0  0
  128.8900  126.3020   64.4900 C   0  0  0  0  0  0  0  0  0  0  0  0
  128.1400  127.4090   63.8430 C   0  0  0  0  0  0  0  0  0  0  0  0
  128.3230  128.7310   64.2570 C   0  0  0  0  0  0  0  0  0  0  0  0
  127.6290  129.7670   63.6400 C   0  0  0  0  0  0  0  0  0  0  0  0
  126.7450  129.5120   62.5790 C   0  0  0  0  0  0  0  0  0  0  0  0
  126.0290  130.5350   61.9520 N   0  0  0  0  0  0  0  0  0  0  0  0
  125.6370  131.7230   62.7360 C   0  0  0  0  0  0  0  0  0  0  0  0
  125.2030  132.9170   61.8590 C   0  0  0  0  0  0  0  0  0  0  0  0
  124.1600  132.5210   60.9820 O   0  0  0  0  0  0  0  0  0  0  0  0
  124.5690  131.4720   60.1190 C   0  0  0  0  0  0  0  0  0  0  0  0
  124.9860  130.2390   60.9500 C   0  0  0  0  0  0  0  0  0  0  0  0
  126.5710  128.1820   62.1700 C   0  0  0  0  0  0  0  0  0  0  0  0
  127.2620  127.1450   62.7900 C   0  0  0  0  0  0  0  0  0  0  0  0
  129.0420  126.1740   65.9000 C   0  0  0  0  0  0  0  0  0  0  0  0
  128.5320  126.9290   67.0180 C   0  0  0  0  0  0  0  0  0  0  0  0
  127.6960  128.0050   66.8610 N   0  0  0  0  0  0  0  0  0  0  0  0
  128.1630  130.2460   71.0440 C   0  0  0  0  0  0  0  0  0  0  0  0
  128.1030  130.9680   72.2320 C   0  0  0  0  0  0  0  0  0  0  0  0
  1  2  1  0
  2  3  1  0
  3  4  1  0
  4  5  2  0
  4  6  1  0
  6  7  2  0
  7  8  1  0
  8  9  2  0
  9 10  1  0
 10 11  1  0
 11 12  2  0
 11 13  1  0
 13 14  1  0
 14 15  1  0
 15 16  2  0
 16 17  1  0
 17 18  1  0
 18 19  2  0
 19 20  1  0
 20 21  2  0
 21 22  1  0
 22 23  1  0
 23 24  1  0
 24 25  1  0
 25 26  1  0
 26 27  1  0
 21 28  1  0
 28 29  2  0
 17 30  2  0
 30 31  1  0
 31 32  1  0
 32 33  2  0
 33 34  1  0
 34 35  2  0
 35 36  1  0
 36 37  1  0
 37 38  1  0
 38 39  1  0
 39 40  1  0
 40 41  1  0
 35 42  1  0
 42 43  2  0
 31 44  2  0
 44 45  1  0
 45 46  1  0
  9 47  1  0
 47 48  2  0
 48  6  1  0
 45 13  2  0
 44 15  1  0
 29 18  1  0
 43 32  1  0
 27 22  1  0
 41 36  1  0
M  END
>  <Binding energies>  (39) 
[-4.57]

>  <Ligand effiencies>  (39) 
[-0.08960784313725491]

>  <Interactions>  (39) 
["V-A:ILE:369:CG2:3236, V-B:TYR:539:CE2:9848, V-B:TYR:539:CD2:9846, V-A:LEU:475:CD1:4257, V-A:SER:385:CB:3408, V-A:SER:385:CA:3406, V-A:SER:385:C:3404, V-B:ALA:541:CB:9864, V-B:GLU:543:CD:9880, V-B:GLU:543:CB:9878, V-A:HIS:456:CE1:4069, V-B:HIS:456:CE1:9041, H-A:TYR:484:OH:4347, V-A:GLU:543:C:4902, H-A:GLU:543:OE1:4909, V-B:TYR:484:CE2:9317, V-B:GLU:543:CG:9879, V-A:GLU:543:CD:4908, V-A:GLU:543:CG:4907, H-B:GLU:543:OE2:9882, V-A:ILE:369:CD1:3238, V-B:HIS:456:CD2:9039, V-A:TYR:484:CE2:4345, V-B:TYR:484:CB:9312, V-B:TYR:484:CD2:9315, V-B:TYR:484:CG:9313, V-A:LYS:547:CE:4950, V-A:GLY:544:CA:4914, V-B:HIS:456:CG:9037, V-A:TYR:484:CZ:4346, V-A:TYR:539:CE1:4875, V-B:ASP:366:CG:8184, V-B:ILE:369:CG2:8208, V-A:HIS:383:CD2:3391, V-B:LEU:475:CD1:9229, H-A:HIS:383:NE2:3393, H-A:GLU:543:O:4903, H-A:LYS:547:NZ:4951, V-B:TYR:484:CA:9310"]

$$$$
9b_Ghoteimi_2023
     RDKit          3D

 42 48  0  0  0  0  0  0  0  0999 V2000
  129.2420  124.3680   61.1770 N   0  0  0  0  0  0  0  0  0  0  0  0
  129.4570  123.9380   62.4620 C   0  0  0  0  0  0  0  0  0  0  0  0
  129.7300  122.6020   62.7950 C   0  0  0  0  0  0  0  0  0  0  0  0
  129.8650  121.4480   61.9030 C   0  0  0  0  0  0  0  0  0  0  0  0
  129.0530  121.2570   60.9950 O   0  0  0  0  0  0  0  0  0  0  0  0
  130.9180  120.6330   62.1590 N   0  0  0  0  0  0  0  0  0  0  0  0
  131.2740  119.4710   61.4850 C   0  0  0  0  0  0  0  0  0  0  0  0
  130.3540  118.4900   61.1210 C   0  0  0  0  0  0  0  0  0  0  0  0
  131.0950  117.5230   60.4820 C   0  0  0  0  0  0  0  0  0  0  0  0
  132.3950  117.9040   60.4630 O   0  0  0  0  0  0  0  0  0  0  0  0
  132.4960  119.1390   61.1020 N   0  0  0  0  0  0  0  0  0  0  0  0
  129.9200  122.4050   64.5370 S   0  0  0  0  0  0  0  0  0  0  0  0
  129.6150  124.1040   64.8080 C   0  0  0  0  0  0  0  0  0  0  0  0
  129.5920  124.6220   66.0350 N   0  0  0  0  0  0  0  0  0  0  0  0
  129.3280  125.9510   66.1380 C   0  0  0  0  0  0  0  0  0  0  0  0
  129.2870  126.5030   67.5270 C   0  0  0  0  0  0  0  0  0  0  0  0
  128.9680  125.6890   68.6200 C   0  0  0  0  0  0  0  0  0  0  0  0
  128.9180  126.2110   69.9090 C   0  0  0  0  0  0  0  0  0  0  0  0
  129.1710  127.5700   70.1500 C   0  0  0  0  0  0  0  0  0  0  0  0
  129.1270  128.1090   71.4410 N   0  0  0  0  0  0  0  0  0  0  0  0
  128.7680  129.5230   71.6730 C   0  0  0  0  0  0  0  0  0  0  0  0
  128.4340  129.8480   73.1430 C   0  0  0  0  0  0  0  0  0  0  0  0
  129.5070  129.4530   73.9830 O   0  0  0  0  0  0  0  0  0  0  0  0
  129.7500  128.0590   73.8950 C   0  0  0  0  0  0  0  0  0  0  0  0
  130.1210  127.6750   72.4460 C   0  0  0  0  0  0  0  0  0  0  0  0
  129.5100  128.3760   69.0540 C   0  0  0  0  0  0  0  0  0  0  0  0
  129.5640  127.8530   67.7660 C   0  0  0  0  0  0  0  0  0  0  0  0
  129.1150  126.7590   65.0190 C   0  0  0  0  0  0  0  0  0  0  0  0
  129.1580  126.2230   63.7270 C   0  0  0  0  0  0  0  0  0  0  0  0
  128.9550  127.1300   62.5680 C   0  0  0  0  0  0  0  0  0  0  0  0
  130.0250  127.8570   62.0470 C   0  0  0  0  0  0  0  0  0  0  0  0
  129.8430  128.6930   60.9500 C   0  0  0  0  0  0  0  0  0  0  0  0
  128.5830  128.8250   60.3440 C   0  0  0  0  0  0  0  0  0  0  0  0
  128.3800  129.6470   59.2320 N   0  0  0  0  0  0  0  0  0  0  0  0
  129.3720  130.6940   58.9180 C   0  0  0  0  0  0  0  0  0  0  0  0
  128.8390  131.7600   57.9370 C   0  0  0  0  0  0  0  0  0  0  0  0
  128.3720  131.1380   56.7490 O   0  0  0  0  0  0  0  0  0  0  0  0
  127.3220  130.2200   57.0140 C   0  0  0  0  0  0  0  0  0  0  0  0
  127.8130  129.1170   57.9760 C   0  0  0  0  0  0  0  0  0  0  0  0
  127.5190  128.0750   60.8660 C   0  0  0  0  0  0  0  0  0  0  0  0
  127.7020  127.2390   61.9630 C   0  0  0  0  0  0  0  0  0  0  0  0
  129.3990  124.8260   63.5970 C   0  0  0  0  0  0  0  0  0  0  0  0
  1  2  1  0
  2  3  2  0
  3  4  1  0
  4  5  2  0
  4  6  1  0
  6  7  1  0
  7  8  1  0
  8  9  2  0
  9 10  1  0
 10 11  1  0
  3 12  1  0
 12 13  1  0
 13 14  2  0
 14 15  1  0
 15 16  1  0
 16 17  2  0
 17 18  1  0
 18 19  2  0
 19 20  1  0
 20 21  1  0
 21 22  1  0
 22 23  1  0
 23 24  1  0
 24 25  1  0
 19 26  1  0
 26 27  2  0
 15 28  2  0
 28 29  1  0
 29 30  1  0
 30 31  2  0
 31 32  1  0
 32 33  2  0
 33 34  1  0
 34 35  1  0
 35 36  1  0
 36 37  1  0
 37 38  1  0
 38 39  1  0
 33 40  1  0
 40 41  2  0
 29 42  2  0
 42  2  1  0
 11  7  2  0
 42 13  1  0
 27 16  1  0
 41 30  1  0
 25 20  1  0
 39 34  1  0
M  END
>  <Binding energies>  (40) 
[-8.38]

>  <Ligand effiencies>  (40) 
[-0.18622222222222223]

>  <Interactions>  (40) 
["V-A:PRO:482:CG:4326, V-A:PRO:482:CB:4325, V-A:LEU:475:CD1:4257, H-B:ALA:541:N:9863, V-B:ALA:541:CB:9864, V-B:GLU:543:CD:9880, V-B:GLU:543:CB:9878, V-A:GLU:543:CB:4906, V-A:HIS:456:CE1:4069, V-B:HIS:456:CE1:9041, V-A:HIS:383:CE1:3392, H-A:TYR:484:OH:4347, V-A:GLU:543:C:4902, V-B:GLU:543:CG:9879, V-A:GLU:543:CD:4908, V-A:GLU:543:CG:4907, V-B:GLU:543:C:9874, V-B:HIS:456:CD2:9039, V-A:TYR:484:CE2:4345, V-A:LYS:547:CE:4950, V-B:GLU:543:CA:9876, V-A:TYR:539:CE1:4875, V-A:TYR:539:C:4867, V-A:TYR:539:CD1:4873, V-A:TYR:539:CZ:4877, H-A:HIS:383:NE2:3393, H-A:SER:385:OG:3409, H-A:LYS:547:NZ:4951"]

$$$$
9c_Ghoteimi_2023
     RDKit          3D

 42 48  0  0  0  0  0  0  0  0999 V2000
  128.2840  128.6040   67.1140 N   0  0  0  0  0  0  0  0  0  0  0  0
  128.7880  127.3330   67.2190 C   0  0  0  0  0  0  0  0  0  0  0  0
  129.1380  126.7390   68.4410 C   0  0  0  0  0  0  0  0  0  0  0  0
  129.0330  127.2980   69.7920 C   0  0  0  0  0  0  0  0  0  0  0  0
  129.1150  128.5140   69.9800 O   0  0  0  0  0  0  0  0  0  0  0  0
  128.8510  126.3920   70.7840 N   0  0  0  0  0  0  0  0  0  0  0  0
  128.7360  126.6540   72.1430 C   0  0  0  0  0  0  0  0  0  0  0  0
  127.8920  126.1210   73.0000 N   0  0  0  0  0  0  0  0  0  0  0  0
  128.0620  126.6090   74.2140 C   0  0  0  0  0  0  0  0  0  0  0  0
  129.0660  127.5630   74.3590 C   0  0  0  0  0  0  0  0  0  0  0  0
  129.8220  127.8270   72.8160 S   0  0  0  0  0  0  0  0  0  0  0  0
  129.7770  125.1130   68.2000 S   0  0  0  0  0  0  0  0  0  0  0  0
  129.5880  125.2460   66.4680 C   0  0  0  0  0  0  0  0  0  0  0  0
  129.9520  124.2610   65.6490 N   0  0  0  0  0  0  0  0  0  0  0  0
  129.7790  124.4720   64.3180 C   0  0  0  0  0  0  0  0  0  0  0  0
  130.2150  123.3600   63.4200 C   0  0  0  0  0  0  0  0  0  0  0  0
  131.5320  122.8850   63.4400 C   0  0  0  0  0  0  0  0  0  0  0  0
  131.9360  121.8560   62.5960 C   0  0  0  0  0  0  0  0  0  0  0  0
  131.0380  121.2700   61.6880 C   0  0  0  0  0  0  0  0  0  0  0  0
  131.4260  120.2290   60.8370 N   0  0  0  0  0  0  0  0  0  0  0  0
  130.7860  118.8990   60.9070 C   0  0  0  0  0  0  0  0  0  0  0  0
  131.0820  118.0000   59.6880 C   0  0  0  0  0  0  0  0  0  0  0  0
  132.4830  117.8790   59.5040 O   0  0  0  0  0  0  0  0  0  0  0  0
  133.0860  119.1410   59.2660 C   0  0  0  0  0  0  0  0  0  0  0  0
  132.8500  120.0790   60.4690 C   0  0  0  0  0  0  0  0  0  0  0  0
  129.7160  121.7360   61.6850 C   0  0  0  0  0  0  0  0  0  0  0  0
  129.3120  122.7640   62.5330 C   0  0  0  0  0  0  0  0  0  0  0  0
  129.2200  125.6490   63.8140 C   0  0  0  0  0  0  0  0  0  0  0  0
  128.8170  126.6770   64.6730 C   0  0  0  0  0  0  0  0  0  0  0  0
  128.2000  127.8950   64.0920 C   0  0  0  0  0  0  0  0  0  0  0  0
  128.7990  128.5410   63.0100 C   0  0  0  0  0  0  0  0  0  0  0  0
  128.2150  129.6740   62.4510 C   0  0  0  0  0  0  0  0  0  0  0  0
  127.0140  130.1930   62.9610 C   0  0  0  0  0  0  0  0  0  0  0  0
  126.4030  131.3220   62.4080 N   0  0  0  0  0  0  0  0  0  0  0  0
  127.1200  132.0950   61.3740 C   0  0  0  0  0  0  0  0  0  0  0  0
  126.5240  133.5000   61.1420 C   0  0  0  0  0  0  0  0  0  0  0  0
  125.1440  133.3970   60.8260 O   0  0  0  0  0  0  0  0  0  0  0  0
  124.4120  132.7760   61.8710 C   0  0  0  0  0  0  0  0  0  0  0  0
  124.9550  131.3530   62.1270 C   0  0  0  0  0  0  0  0  0  0  0  0
  126.4100  129.5230   64.0350 C   0  0  0  0  0  0  0  0  0  0  0  0
  126.9950  128.3900   64.5940 C   0  0  0  0  0  0  0  0  0  0  0  0
  129.0210  126.4930   66.0710 C   0  0  0  0  0  0  0  0  0  0  0  0
  1  2  1  0
  2  3  2  0
  3  4  1  0
  4  5  2  0
  4  6  1  0
  6  7  1  0
  7  8  2  0
  8  9  1  0
  9 10  2  0
 10 11  1  0
  3 12  1  0
 12 13  1  0
 13 14  2  0
 14 15  1  0
 15 16  1  0
 16 17  2  0
 17 18  1  0
 18 19  2  0
 19 20  1  0
 20 21  1  0
 21 22  1  0
 22 23  1  0
 23 24  1  0
 24 25  1  0
 19 26  1  0
 26 27  2  0
 15 28  2  0
 28 29  1  0
 29 30  1  0
 30 31  2  0
 31 32  1  0
 32 33  2  0
 33 34  1  0
 34 35  1  0
 35 36  1  0
 36 37  1  0
 37 38  1  0
 38 39  1  0
 33 40  1  0
 40 41  2  0
 29 42  2  0
 42  2  1  0
 11  7  1  0
 42 13  1  0
 27 16  1  0
 41 30  1  0
 25 20  1  0
 39 34  1  0
M  END
>  <Binding energies>  (41) 
[-8.68]

>  <Ligand effiencies>  (41) 
[-0.1928888888888889]

>  <Interactions>  (41) 
["V-A:ILE:369:CG2:3236, V-B:TYR:539:CE2:9848, V-B:TYR:539:CD2:9846, V-A:PRO:482:CG:4326, V-A:LEU:475:CD1:4257, V-B:TYR:539:C:9839, V-B:ALA:541:CB:9864, V-B:GLU:543:CD:9880, V-B:GLU:543:CB:9878, V-A:GLU:543:CB:4906, H-B:TYR:484:OH:9319, V-A:HIS:456:CE1:4069, V-B:HIS:456:CE1:9041, H-A:TYR:484:OH:4347, H-A:GLU:543:OE1:4909, V-B:GLU:543:CG:9879, V-A:GLU:543:CD:4908, V-A:GLU:543:CG:4907, V-B:HIS:456:CD2:9039, V-A:TYR:484:CE2:4345, V-A:TYR:484:CZ:4346, V-B:ILE:369:CG2:8208, V-A:TYR:539:CD1:4873, V-B:TYR:539:CB:9843, V-A:HIS:383:CD2:3391, V-B:TYR:539:CG:9844, V-B:LEU:475:CD1:9229, H-A:HIS:383:NE2:3393, H-A:HIS:456:NE2:4070, V-B:ILE:369:CD1:8210, H-B:GLU:543:O:9875, H-B:HIS:456:NE2:9042"]

$$$$
RR11_Rahimova_2017
     RDKit          3D

 33 38  0  0  0  0  0  0  0  0999 V2000
  133.2840  124.2580   56.9060 N   0  0  0  0  0  0  0  0  0  0  0  0
  132.1640  125.0130   57.2490 C   0  0  0  0  0  0  0  0  0  0  0  0
  131.4330  124.6900   58.3910 C   0  0  0  0  0  0  0  0  0  0  0  0
  130.3160  125.4470   58.7330 C   0  0  0  0  0  0  0  0  0  0  0  0
  129.9200  126.5310   57.9400 C   0  0  0  0  0  0  0  0  0  0  0  0
  128.7190  127.3490   58.3140 C   0  0  0  0  0  0  0  0  0  0  0  0
  128.4930  127.8290   59.5180 N   0  0  0  0  0  0  0  0  0  0  0  0
  127.3110  128.5150   59.4170 C   0  0  0  0  0  0  0  0  0  0  0  0
  126.6130  129.2270   60.4030 C   0  0  0  0  0  0  0  0  0  0  0  0
  125.4210  129.8660   60.0440 C   0  0  0  0  0  0  0  0  0  0  0  0
  124.6380  130.6420   61.0950 C   0  0  0  0  0  0  0  0  0  0  0  0
  125.2630  130.5620   62.4800 C   0  0  0  0  0  0  0  0  0  0  0  0
  125.5290  131.7410   63.1850 C   0  0  0  0  0  0  0  0  0  0  0  0
  126.0940  131.7190   64.4620 C   0  0  0  0  0  0  0  0  0  0  0  0
  126.3870  130.4730   65.0330 C   0  0  0  0  0  0  0  0  0  0  0  0
  126.9420  130.1860   66.2530 N   0  0  0  0  0  0  0  0  0  0  0  0
  127.0090  128.8730   66.3040 C   0  0  0  0  0  0  0  0  0  0  0  0
  127.5710  128.0960   67.4590 C   0  0  0  0  0  0  0  0  0  0  0  0
  127.0380  126.8470   67.8010 C   0  0  0  0  0  0  0  0  0  0  0  0
  127.5510  126.1300   68.8790 C   0  0  0  0  0  0  0  0  0  0  0  0
  128.6030  126.6590   69.6240 C   0  0  0  0  0  0  0  0  0  0  0  0
  129.1150  125.9450   70.7070 N   0  0  0  0  0  0  0  0  0  0  0  0
  129.1450  127.8980   69.2930 C   0  0  0  0  0  0  0  0  0  0  0  0
  128.6310  128.6140   68.2150 C   0  0  0  0  0  0  0  0  0  0  0  0
  126.5100  128.2860   65.1600 N   0  0  0  0  0  0  0  0  0  0  0  0
  126.1000  129.2890   64.3140 C   0  0  0  0  0  0  0  0  0  0  0  0
  125.5300  129.3040   63.0380 C   0  0  0  0  0  0  0  0  0  0  0  0
  124.9270  129.7730   58.7380 C   0  0  0  0  0  0  0  0  0  0  0  0
  125.5960  129.0680   57.7350 C   0  0  0  0  0  0  0  0  0  0  0  0
  126.7930  128.4480   58.1020 C   0  0  0  0  0  0  0  0  0  0  0  0
  127.7200  127.6910   57.4260 N   0  0  0  0  0  0  0  0  0  0  0  0
  130.6640  126.8440   56.7940 C   0  0  0  0  0  0  0  0  0  0  0  0
  131.7820  126.0890   56.4490 C   0  0  0  0  0  0  0  0  0  0  0  0
  1  2  1  0
  2  3  2  0
  3  4  1  0
  4  5  2  0
  5  6  1  0
  6  7  2  0
  7  8  1  0
  8  9  2  0
  9 10  1  0
 10 11  1  0
 11 12  1  0
 12 13  2  0
 13 14  1  0
 14 15  2  0
 15 16  1  0
 16 17  2  0
 17 18  1  0
 18 19  2  0
 19 20  1  0
 20 21  2  0
 21 22  1  0
 21 23  1  0
 23 24  2  0
 17 25  1  0
 25 26  1  0
 26 27  2  0
 10 28  2  0
 28 29  1  0
 29 30  2  0
 30 31  1  0
  5 32  1  0
 32 33  2  0
 33  2  1  0
 31  6  1  0
 30  8  1  0
 27 12  1  0
 26 15  1  0
 24 18  1  0
M  END
>  <Binding energies>  (42) 
[-8.27]

>  <Ligand effiencies>  (42) 
[-0.21205128205128204]

>  <Interactions>  (42) 
["V-B:TYR:539:CE2:9848, V-B:TYR:539:CZ:9849, H-B:TYR:531:OH:9767, V-B:GLU:543:CD:9880, V-B:GLU:543:CB:9878, V-A:GLU:543:CB:4906, H-B:TYR:484:OH:9319, V-A:HIS:456:CE1:4069, V-B:HIS:456:CE1:9041, V-B:ARG:545:CZ:9898, V-B:GLU:543:CG:9879, H-B:GLU:543:OE2:9882, V-B:GLU:543:C:9874, V-A:ASP:366:C:3207, V-A:ASP:366:CB:3211, V-A:ASP:366:CA:3209, V-B:GLU:543:CA:9876, V-B:ASP:366:CB:8183, V-B:ASP:366:CA:8181, V-A:TYR:539:CE1:4875, V-B:ASP:366:CG:8184, V-B:TYR:531:CZ:9766, V-B:ARG:545:CG:9894, V-B:LEU:475:CD1:9229, H-B:GLU:543:OE1:9881, H-B:TYR:539:OH:9850, H-A:HIS:456:NE2:4070, H-B:GLU:543:O:9875, V-A:ASN:370:CB:3244, H-A:ASP:366:O:3208"]

$$$$
RR16_Rahimova_2017
     RDKit          3D

 44 49  0  0  0  0  0  0  0  0999 V2000
  126.3380  131.4230   59.9970 O   0  0  0  0  0  0  0  0  0  0  0  0
  127.4850  130.5400   60.2370 S   0  0  0  0  0  0  0  0  0  0  0  0
  128.1680  130.5290   61.5360 O   0  0  0  0  0  0  0  0  0  0  0  0
  128.6860  130.8750   58.9890 N   0  0  0  0  0  0  0  0  0  0  0  0
  130.1150  130.5420   59.1980 C   0  0  0  0  0  0  0  0  0  0  0  0
  130.8650  130.6490   57.8450 C   0  0  0  0  0  0  0  0  0  0  0  0
  132.2700  131.2810   57.8640 C   0  0  0  0  0  0  0  0  0  0  0  0
  133.2650  130.5660   58.7950 C   0  0  0  0  0  0  0  0  0  0  0  0
  133.2520  131.0190   60.2680 C   0  0  0  0  0  0  0  0  0  0  0  0
  131.9230  130.8780   61.0360 C   0  0  0  0  0  0  0  0  0  0  0  0
  130.6630  131.4280   60.3400 C   0  0  0  0  0  0  0  0  0  0  0  0
  126.9360  128.8730   59.8910 C   0  0  0  0  0  0  0  0  0  0  0  0
  127.4490  127.7960   60.6180 C   0  0  0  0  0  0  0  0  0  0  0  0
  127.1080  126.4960   60.2570 C   0  0  0  0  0  0  0  0  0  0  0  0
  126.2550  126.2780   59.1730 C   0  0  0  0  0  0  0  0  0  0  0  0
  125.9260  124.6060   58.6200 S   0  0  0  0  0  0  0  0  0  0  0  0
  125.9480  124.6170   57.1510 O   0  0  0  0  0  0  0  0  0  0  0  0
  124.7380  124.1300   59.3390 O   0  0  0  0  0  0  0  0  0  0  0  0
  127.3260  123.6770   59.1900 N   0  0  0  0  0  0  0  0  0  0  0  0
  127.2550  123.2720   60.6180 C   0  0  0  0  0  0  0  0  0  0  0  0
  128.6260  122.7550   61.1010 C   0  0  0  0  0  0  0  0  0  0  0  0
  129.1740  121.6360   60.1820 C   0  0  0  0  0  0  0  0  0  0  0  0
  130.5560  121.1410   60.6170 C   0  0  0  0  0  0  0  0  0  0  0  0
  130.8270  119.7650   60.6400 C   0  0  0  0  0  0  0  0  0  0  0  0
  132.0750  119.2710   61.0220 C   0  0  0  0  0  0  0  0  0  0  0  0
  132.3230  117.9220   61.0340 O   0  0  0  0  0  0  0  0  0  0  0  0
  133.0680  120.1910   61.3880 C   0  0  0  0  0  0  0  0  0  0  0  0
  134.3620  120.0050   61.7810 N   0  0  0  0  0  0  0  0  0  0  0  0
  134.9140  121.2490   61.9940 N   0  0  0  0  0  0  0  0  0  0  0  0
  133.9640  122.1790   61.7780 N   0  0  0  0  0  0  0  0  0  0  0  0
  134.2950  123.5960   61.8490 C   0  0  0  0  0  0  0  0  0  0  0  0
  133.2080  124.4210   62.5230 C   0  0  0  0  0  0  0  0  0  0  0  0
  132.9610  124.2710   63.8920 C   0  0  0  0  0  0  0  0  0  0  0  0
  131.9790  125.0420   64.5170 C   0  0  0  0  0  0  0  0  0  0  0  0
  131.2410  125.9670   63.7770 C   0  0  0  0  0  0  0  0  0  0  0  0
  131.4840  126.1220   62.4120 C   0  0  0  0  0  0  0  0  0  0  0  0
  130.5800  127.2720   61.4960 Cl  0  0  0  0  0  0  0  0  0  0  0  0
  132.4630  125.3480   61.7860 C   0  0  0  0  0  0  0  0  0  0  0  0
  132.7850  121.5770   61.3700 C   0  0  0  0  0  0  0  0  0  0  0  0
  131.5330  122.0740   60.9910 C   0  0  0  0  0  0  0  0  0  0  0  0
  129.1220  122.0280   58.6820 C   0  0  0  0  0  0  0  0  0  0  0  0
  127.7390  122.5780   58.2790 C   0  0  0  0  0  0  0  0  0  0  0  0
  125.7090  127.3570   58.4740 C   0  0  0  0  0  0  0  0  0  0  0  0
  126.0540  128.6560   58.8320 C   0  0  0  0  0  0  0  0  0  0  0  0
  1  2  2  0
  2  3  2  0
  2  4  1  0
  4  5  1  0
  5  6  1  0
  6  7  1  0
  7  8  1  0
  8  9  1  0
  9 10  1  0
 10 11  1  0
  2 12  1  0
 12 13  2  0
 13 14  1  0
 14 15  2  0
 15 16  1  0
 16 17  2  0
 16 18  2  0
 16 19  1  0
 19 20  1  0
 20 21  1  0
 21 22  1  0
 22 23  1  0
 23 24  2  0
 24 25  1  0
 25 26  1  0
 25 27  2  0
 27 28  1  0
 28 29  2  0
 29 30  1  0
 30 31  1  0
 31 32  1  0
 32 33  2  0
 33 34  1  0
 34 35  2  0
 35 36  1  0
 36 37  1  0
 36 38  2  0
 30 39  1  0
 39 40  2  0
 22 41  1  0
 41 42  1  0
 15 43  1  0
 43 44  2  0
 11  5  1  0
 44 12  1  0
 42 19  1  0
 40 23  1  0
 39 27  1  0
 38 32  1  0
M  END
>  <Binding energies>  (43) 
[-9.87]

>  <Ligand effiencies>  (43) 
[-0.20562499999999997]

>  <Interactions>  (43) 
["V-A:ILE:369:CG2:3236, V-B:TYR:539:CE2:9848, V-B:PRO:540:N:9856, V-B:TYR:539:CZ:9849, V-B:TYR:539:CD2:9846, V-B:PRO:540:CA:9855, V-A:LEU:475:CD1:4257, H-B:TYR:531:OH:9767, V-B:TYR:539:C:9839, V-A:GLY:454:CA:4048, H-A:GLY:454:N:4049, V-A:ASP:366:CG:3212, V-A:ILE:369:CD1:3238, V-A:ASP:366:CB:3211, V-B:ASP:366:CB:8183, V-B:ASP:366:CG:8184, V-A:PRO:540:CA:4883, V-B:TYR:539:CG:9844, V-B:TYR:531:CZ:9766, V-A:PRO:540:CB:4885, V-A:PRO:540:C:4881, V-A:ASN:362:C:3171, V-A:LEU:363:CD1:3188, V-A:ASN:362:CB:3175, V-A:LEU:363:CA:3184, H-A:HIS:383:NE2:3393, H-A:SER:385:OG:3409, H-A:SER:385:O:3405"]

$$$$
RR18_Rahimova_2017
     RDKit          3D

 36 41  0  0  0  0  0  0  0  0999 V2000
  134.7430  124.1880   61.9030 C   0  0  0  0  0  0  0  0  0  0  0  0
  133.6130  124.3290   60.9140 C   0  0  0  0  0  0  0  0  0  0  0  0
  133.5220  124.2470   59.5340 C   0  0  0  0  0  0  0  0  0  0  0  0
  132.1860  124.4740   59.2040 C   0  0  0  0  0  0  0  0  0  0  0  0
  131.5090  124.6850   60.3940 C   0  0  0  0  0  0  0  0  0  0  0  0
  130.0520  124.9750   60.7450 C   0  0  1  0  0  0  0  0  0  0  0  0
  129.5560  124.0760   61.9170 C   0  0  0  0  0  0  0  0  0  0  0  0
  129.4620  122.6290   61.7480 C   0  0  0  0  0  0  0  0  0  0  0  0
  128.3760  122.0470   61.7230 O   0  0  0  0  0  0  0  0  0  0  0  0
  130.6560  122.0080   61.6100 N   0  0  0  0  0  0  0  0  0  0  0  0
  130.9590  120.6390   61.4510 C   0  0  0  0  0  0  0  0  0  0  0  0
  129.9870  119.6220   61.4600 C   0  0  0  0  0  0  0  0  0  0  0  0
  130.3540  118.2870   61.3040 C   0  0  0  0  0  0  0  0  0  0  0  0
  131.6930  117.9450   61.1420 C   0  0  0  0  0  0  0  0  0  0  0  0
  132.6680  118.9390   61.1430 C   0  0  0  0  0  0  0  0  0  0  0  0
  132.3150  120.2840   61.2980 C   0  0  0  0  0  0  0  0  0  0  0  0
  133.4230  121.3340   61.2950 C   0  0  0  0  0  0  0  0  0  0  0  0
  129.3160  124.6570   63.1210 C   0  0  0  0  0  0  0  0  0  0  0  0
  129.3600  125.9970   63.3600 N   0  0  0  0  0  0  0  0  0  0  0  0
  129.5640  126.8050   62.3860 C   0  0  0  0  0  0  0  0  0  0  0  0
  129.4980  128.5470   62.5120 S   0  0  0  0  0  0  0  0  0  0  0  0
  129.8480  128.7380   60.7650 C   0  0  0  0  0  0  0  0  0  0  0  0
  129.9600  129.9190   60.0620 C   0  0  0  0  0  0  0  0  0  0  0  0
  129.7050  131.2050   60.7270 C   0  0  0  0  0  0  0  0  0  0  0  0
  129.4090  131.4470   61.8970 O   0  0  0  0  0  0  0  0  0  0  0  0
  129.8310  132.1630   59.8040 N   0  0  0  0  0  0  0  0  0  0  0  0
  130.1800  131.6790   58.5800 C   0  0  0  0  0  0  0  0  0  0  0  0
  130.4060  132.4000   57.4080 C   0  0  0  0  0  0  0  0  0  0  0  0
  130.7880  131.7130   56.2590 C   0  0  0  0  0  0  0  0  0  0  0  0
  130.9460  130.3290   56.3040 C   0  0  0  0  0  0  0  0  0  0  0  0
  130.7130  129.6280   57.4900 C   0  0  0  0  0  0  0  0  0  0  0  0
  130.3030  130.3020   58.6560 C   0  0  0  0  0  0  0  0  0  0  0  0
  129.9860  127.4030   60.1830 C   0  0  0  0  0  0  0  0  0  0  0  0
  130.1760  127.1390   58.9990 O   0  0  0  0  0  0  0  0  0  0  0  0
  129.8550  126.4220   61.1170 N   0  0  0  0  0  0  0  0  0  0  0  0
  132.3850  124.5960   61.4300 O   0  0  0  0  0  0  0  0  0  0  0  0
  1  2  1  0
  2  3  2  0
  3  4  1  0
  4  5  2  0
  6  5  1  1
  6  7  1  0
  7  8  1  0
  8  9  2  0
  8 10  1  0
 10 11  1  0
 11 12  2  0
 12 13  1  0
 13 14  2  0
 14 15  1  0
 15 16  2  0
 16 17  1  0
  7 18  2  0
 18 19  1  0
 19 20  2  0
 20 21  1  0
 21 22  1  0
 22 23  2  0
 23 24  1  0
 24 25  2  0
 24 26  1  0
 26 27  1  0
 27 28  2  0
 28 29  1  0
 29 30  2  0
 30 31  1  0
 31 32  2  0
 22 33  1  0
 33 34  2  0
 33 35  1  0
  5 36  1  0
 36  2  1  0
 35  6  1  0
 16 11  1  0
 35 20  1  0
 32 23  1  0
 32 27  1  0
M  END
>  <Binding energies>  (44) 
[-8.85]

>  <Ligand effiencies>  (44) 
[-0.23289473684210527]

>  <Interactions>  (44) 
["V-A:ILE:369:CG2:3236, V-A:PRO:482:CG:4326, V-B:PRO:540:C:9853, V-A:PRO:482:CB:4325, V-A:LEU:475:CD1:4257, H-B:ALA:541:N:9863, V-B:ALA:541:CA:9862, V-B:ALA:541:CB:9864, V-B:GLU:543:CD:9880, V-A:GLY:453:CA:4043, V-A:GLY:453:C:4041, H-A:ALA:541:N:4891, V-A:GLU:543:CD:4908, V-A:ASP:366:CG:3212, V-A:ILE:369:CD1:3238, V-A:ASP:366:CB:3211, V-A:ASP:366:CA:3209, V-A:TYR:539:C:4867, V-A:PRO:540:CA:4883, V-A:PRO:540:CB:4885, V-A:PRO:540:N:4884, V-A:PRO:540:C:4881, H-A:TYR:539:O:4868, V-A:PRO:540:CD:4887, V-A:TYR:539:CA:4869"]

$$$$
RR20_Rahimova_2017
     RDKit          3D

 38 43  0  0  0  0  0  0  0  0999 V2000
  126.2320  131.4110   74.6730 C   0  0  0  0  0  0  0  0  0  0  0  0
  127.1620  130.6020   73.7870 C   0  0  0  0  0  0  0  0  0  0  0  0
  127.4920  131.0710   72.5150 C   0  0  0  0  0  0  0  0  0  0  0  0
  128.3520  130.3350   71.7040 C   0  0  0  0  0  0  0  0  0  0  0  0
  128.8780  129.1180   72.1530 C   0  0  0  0  0  0  0  0  0  0  0  0
  129.8260  128.3440   71.2640 C   0  0  0  0  0  0  0  0  0  0  0  0
  131.0060  128.2690   71.6170 O   0  0  0  0  0  0  0  0  0  0  0  0
  129.3490  127.7530   70.1300 N   0  0  0  0  0  0  0  0  0  0  0  0
  128.9720  126.3310   70.1000 C   0  0  0  0  0  0  0  0  0  0  0  0
  128.3500  126.0810   68.7370 C   0  0  0  0  0  0  0  0  0  0  0  0
  128.0780  127.4660   68.2350 C   0  0  0  0  0  0  0  0  0  0  0  0
  127.4330  127.8660   67.0640 C   0  0  0  0  0  0  0  0  0  0  0  0
  127.4180  129.2130   66.6830 C   0  0  0  0  0  0  0  0  0  0  0  0
  126.7150  129.6460   65.4260 C   0  0  0  0  0  0  0  0  0  0  0  0
  127.4440  130.1230   64.4300 N   0  0  0  0  0  0  0  0  0  0  0  0
  126.7320  130.4490   63.3810 C   0  0  0  0  0  0  0  0  0  0  0  0
  127.1760  130.9680   62.1750 N   0  0  0  0  0  0  0  0  0  0  0  0
  127.2950  132.2780   61.8460 C   0  0  0  0  0  0  0  0  0  0  0  0
  127.0340  133.2070   62.6130 O   0  0  0  0  0  0  0  0  0  0  0  0
  127.8150  132.6280   60.4320 C   0  0  0  0  0  0  0  0  0  0  0  0
  129.2460  132.3170   60.2510 N   0  0  0  0  0  0  0  0  0  0  0  0
  129.7720  131.4520   61.3170 C   0  0  0  0  0  0  0  0  0  0  0  0
  131.3130  131.3780   61.2310 C   0  0  0  0  0  0  0  0  0  0  0  0
  131.8210  131.1450   59.8080 C   0  0  0  0  0  0  0  0  0  0  0  0
  133.1520  130.7840   59.5680 C   0  0  0  0  0  0  0  0  0  0  0  0
  133.6240  130.6090   58.2690 C   0  0  0  0  0  0  0  0  0  0  0  0
  132.7650  130.7910   57.1900 C   0  0  0  0  0  0  0  0  0  0  0  0
  131.4360  131.1410   57.4160 C   0  0  0  0  0  0  0  0  0  0  0  0
  130.9480  131.3210   58.7150 C   0  0  0  0  0  0  0  0  0  0  0  0
  129.4760  131.6490   58.9640 C   0  0  0  0  0  0  0  0  0  0  0  0
  125.0410  130.1920   63.5620 S   0  0  0  0  0  0  0  0  0  0  0  0
  125.3250  129.6060   65.1840 C   0  0  0  0  0  0  0  0  0  0  0  0
  124.1650  129.1900   66.0630 C   0  0  0  0  0  0  0  0  0  0  0  0
  128.1130  130.1410   67.4740 C   0  0  0  0  0  0  0  0  0  0  0  0
  128.7750  129.7410   68.6340 C   0  0  0  0  0  0  0  0  0  0  0  0
  128.7100  128.4050   69.0500 C   0  0  0  0  0  0  0  0  0  0  0  0
  128.5650  128.6680   73.4420 C   0  0  0  0  0  0  0  0  0  0  0  0
  127.7050  129.4040   74.2540 C   0  0  0  0  0  0  0  0  0  0  0  0
  1  2  1  0
  2  3  2  0
  3  4  1  0
  4  5  2  0
  5  6  1  0
  6  7  2  0
  6  8  1  0
  8  9  1  0
  9 10  1  0
 10 11  1  0
 11 12  2  0
 12 13  1  0
 13 14  1  0
 14 15  1  0
 15 16  2  0
 16 17  1  0
 17 18  1  0
 18 19  2  0
 18 20  1  0
 20 21  1  0
 21 22  1  0
 22 23  1  0
 23 24  1  0
 24 25  2  0
 25 26  1  0
 26 27  2  0
 27 28  1  0
 28 29  2  0
 29 30  1  0
 16 31  1  0
 31 32  1  0
 32 33  1  0
 13 34  2  0
 34 35  1  0
 35 36  2  0
  5 37  1  0
 37 38  2  0
 38  2  1  0
 36  8  1  0
 36 11  1  0
 32 14  2  0
 30 21  1  0
 29 24  1  0
M  END
>  <Binding energies>  (45) 
[-10.05]

>  <Ligand effiencies>  (45) 
[-0.2576923076923077]

>  <Interactions>  (45) 
["V-B:GLU:543:CB:9878, V-A:GLU:543:CB:4906, V-A:HIS:456:CE1:4069, V-B:HIS:456:CE1:9041, V-B:ARG:545:CZ:9898, H-A:ALA:541:N:4891, V-B:TYR:484:CZ:9318, V-A:ALA:541:CB:4892, V-A:GLU:543:C:4902, V-B:TYR:484:CE2:9317, V-A:GLU:543:CD:4908, V-A:GLU:543:CG:4907, V-A:ASP:366:CG:3212, V-B:GLU:543:C:9874, V-B:HIS:456:CD2:9039, V-A:ASP:366:CB:3211, V-B:TYR:484:CD2:9315, V-B:TYR:484:CG:9313, V-B:HIS:456:CG:9037, H-A:HIS:456:ND1:4066, V-B:GLU:543:CA:9876, V-A:TYR:539:C:4867, V-A:PRO:540:CA:4883, V-A:TYR:539:CD1:4873, V-A:PRO:540:CB:4885, V-A:PRO:540:N:4884, V-A:PRO:540:C:4881, V-B:ARG:545:CD:9895, V-A:LEU:363:CD1:3188, V-A:LEU:363:CA:3184, V-B:ARG:545:CG:9894, V-A:LEU:363:CB:3186, V-A:GLU:543:CA:4904, V-B:HIS:456:CB:9036, V-B:ASP:473:CB:9210, V-B:ASP:473:CG:9211"]

$$$$
RR21_Rahimova_2017
     RDKit          3D

 40 45  0  0  0  0  0  0  0  0999 V2000
  124.5680  130.0420   62.6820 C   0  0  0  0  0  0  0  0  0  0  0  0
  124.5790  130.3150   64.0800 O   0  0  0  0  0  0  0  0  0  0  0  0
  125.4890  129.6600   64.8890 C   0  0  0  0  0  0  0  0  0  0  0  0
  126.8650  129.5680   64.6170 C   0  0  0  0  0  0  0  0  0  0  0  0
  127.7170  128.8900   65.4880 C   0  0  0  0  0  0  0  0  0  0  0  0
  127.2190  128.2920   66.6520 C   0  0  0  0  0  0  0  0  0  0  0  0
  128.1380  127.5680   67.5880 C   0  0  0  0  0  0  0  0  0  0  0  0
  128.2180  127.9460   68.8490 N   0  0  0  0  0  0  0  0  0  0  0  0
  129.1030  127.1290   69.4400 N   0  0  0  0  0  0  0  0  0  0  0  0
  129.4150  127.2470   70.8200 C   0  0  0  0  0  0  0  0  0  0  0  0
  129.0030  126.2660   71.7350 C   0  0  0  0  0  0  0  0  0  0  0  0
  129.3190  126.3910   73.0850 C   0  0  0  0  0  0  0  0  0  0  0  0
  130.0460  127.4950   73.5250 C   0  0  0  0  0  0  0  0  0  0  0  0
  130.4580  128.4770   72.6270 C   0  0  0  0  0  0  0  0  0  0  0  0
  130.1430  128.3550   71.2770 C   0  0  0  0  0  0  0  0  0  0  0  0
  129.5760  126.2100   68.5370 C   0  0  0  0  0  0  0  0  0  0  0  0
  128.9830  126.4700   67.3110 C   0  0  0  0  0  0  0  0  0  0  0  0
  129.1370  125.7350   66.0650 C   0  0  0  0  0  0  0  0  0  0  0  0
  130.2750  125.4740   65.3810 C   0  0  0  0  0  0  0  0  0  0  0  0
  131.9330  125.9620   65.7950 S   0  0  0  0  0  0  0  0  0  0  0  0
  132.5210  125.1270   64.3650 C   0  0  0  0  0  0  0  0  0  0  0  0
  133.7480  125.0100   63.9590 N   0  0  0  0  0  0  0  0  0  0  0  0
  134.0920  124.2930   62.7810 C   0  0  0  0  0  0  0  0  0  0  0  0
  135.2280  124.1190   62.3420 O   0  0  0  0  0  0  0  0  0  0  0  0
  132.9090  123.7100   62.0570 C   0  0  0  0  0  0  0  0  0  0  0  0
  133.1550  122.9300   60.7590 C   0  0  0  0  0  0  0  0  0  0  0  0
  132.5980  121.5080   60.7640 C   0  0  0  0  0  0  0  0  0  0  0  0
  131.2170  121.2970   60.7560 C   0  0  0  0  0  0  0  0  0  0  0  0
  130.7090  120.0010   60.7430 C   0  0  0  0  0  0  0  0  0  0  0  0
  131.5820  118.9110   60.7370 C   0  0  0  0  0  0  0  0  0  0  0  0
  131.0240  117.4990   60.7120 C   0  0  0  0  0  0  0  0  0  0  0  0
  132.9630  119.1190   60.7340 C   0  0  0  0  0  0  0  0  0  0  0  0
  133.4700  120.4150   60.7470 C   0  0  0  0  0  0  0  0  0  0  0  0
  131.6900  123.8390   62.4700 N   0  0  0  0  0  0  0  0  0  0  0  0
  131.4950  124.5620   63.6540 N   0  0  0  0  0  0  0  0  0  0  0  0
  130.2390  124.7120   64.1400 C   0  0  0  0  0  0  0  0  0  0  0  0
  129.2180  124.2600   63.6080 O   0  0  0  0  0  0  0  0  0  0  0  0
  125.8490  128.3770   66.9190 C   0  0  0  0  0  0  0  0  0  0  0  0
  124.9950  129.0550   66.0490 C   0  0  0  0  0  0  0  0  0  0  0  0
  123.6740  129.1200   66.3370 F   0  0  0  0  0  0  0  0  0  0  0  0
  1  2  1  0
  2  3  1  0
  3  4  2  0
  4  5  1  0
  5  6  2  0
  6  7  1  0
  7  8  2  0
  8  9  1  0
  9 10  1  0
 10 11  2  0
 11 12  1  0
 12 13  2  0
 13 14  1  0
 14 15  2  0
  9 16  1  0
 16 17  2  0
 17 18  1  0
 18 19  2  0
 19 20  1  0
 20 21  1  0
 21 22  2  0
 22 23  1  0
 23 24  2  0
 23 25  1  0
 25 26  1  0
 26 27  1  0
 27 28  2  0
 28 29  1  0
 29 30  2  0
 30 31  1  0
 30 32  1  0
 32 33  2  0
 25 34  2  0
 34 35  1  0
 35 36  1  0
 36 37  2  0
  6 38  1  0
 38 39  2  0
 39 40  1  0
 39  3  1  0
 17  7  1  0
 36 19  1  0
 15 10  1  0
 35 21  1  0
 33 27  1  0
M  END
>  <Binding energies>  (46) 
[-10.9]

>  <Ligand effiencies>  (46) 
[-0.2725]

>  <Interactions>  (46) 
["V-A:ILE:369:CG2:3236, V-B:TYR:539:CE2:9848, V-B:TYR:539:CD2:9846, V-A:PRO:482:CG:4326, V-A:PRO:482:CB:4325, V-A:LEU:475:CD1:4257, V-B:GLU:543:CD:9880, V-A:ARG:545:CZ:4926, V-A:GLY:453:CA:4043, V-B:GLU:543:CB:9878, V-A:GLY:453:C:4041, V-A:HIS:456:CE1:4069, V-B:HIS:456:CE1:9041, V-B:ARG:545:CZ:9898, H-B:GLY:454:N:9021, V-A:HIS:383:CE1:3392, H-A:GLY:454:N:4049, V-A:GLU:543:C:4902, V-B:GLU:543:CG:9879, V-A:GLU:543:CD:4908, V-A:GLU:543:CG:4907, H-A:ARG:545:NH1:4927, V-B:HIS:456:CD2:9039, V-A:LYS:547:CE:4950, V-A:GLY:544:CA:4914, V-B:ASP:366:CG:8184, H-A:ARG:545:NH2:4928, V-A:GLY:544:C:4912, V-B:ARG:545:CD:9895, V-B:ARG:545:CG:9894"]

$$$$
RR23_Rahimova_2017
     RDKit          3D

 39 44  0  0  0  0  0  0  0  0999 V2000
  132.7290  123.8740   75.7480 C   0  0  0  0  0  0  0  0  0  0  0  0
  131.5930  124.3620   74.8680 C   0  0  0  0  0  0  0  0  0  0  0  0
  130.7690  123.4430   74.2170 C   0  0  0  0  0  0  0  0  0  0  0  0
  129.7210  123.8920   73.4170 C   0  0  0  0  0  0  0  0  0  0  0  0
  129.4970  125.2640   73.2520 C   0  0  0  0  0  0  0  0  0  0  0  0
  128.3410  125.7310   72.3960 C   0  0  0  0  0  0  0  0  0  0  0  0
  127.2250  125.2690   72.6420 O   0  0  0  0  0  0  0  0  0  0  0  0
  128.5680  126.6440   71.4050 N   0  0  0  0  0  0  0  0  0  0  0  0
  128.7560  128.0730   71.7030 C   0  0  0  0  0  0  0  0  0  0  0  0
  129.1250  128.7390   70.3870 C   0  0  0  0  0  0  0  0  0  0  0  0
  129.4870  127.5760   69.5140 C   0  0  0  0  0  0  0  0  0  0  0  0
  129.9910  127.5760   68.2140 C   0  0  0  0  0  0  0  0  0  0  0  0
  130.1160  126.3740   67.5010 C   0  0  0  0  0  0  0  0  0  0  0  0
  130.6670  126.3300   66.0670 C   0  0  2  0  0  0  0  0  0  0  0  0
  130.1900  125.1770   65.3340 N   0  0  0  0  0  0  0  0  0  0  0  0
  131.0480  124.7630   64.4910 C   0  0  0  0  0  0  0  0  0  0  0  0
  130.9540  123.6950   63.6540 N   0  0  0  0  0  0  0  0  0  0  0  0
  129.9940  122.7400   63.6130 C   0  0  0  0  0  0  0  0  0  0  0  0
  128.9890  122.7020   64.3270 O   0  0  0  0  0  0  0  0  0  0  0  0
  130.2140  121.6240   62.5790 C   0  0  0  0  0  0  0  0  0  0  0  0
  129.5870  122.0190   61.2970 N   0  0  0  0  0  0  0  0  0  0  0  0
  130.4210  121.9750   60.1870 N   0  0  0  0  0  0  0  0  0  0  0  0
  129.9940  122.2990   59.0080 N   0  0  0  0  0  0  0  0  0  0  0  0
  128.6670  122.7000   58.8360 C   0  0  0  0  0  0  0  0  0  0  0  0
  128.2390  123.0440   57.5510 C   0  0  0  0  0  0  0  0  0  0  0  0
  126.9190  123.4490   57.3470 C   0  0  0  0  0  0  0  0  0  0  0  0
  126.0290  123.5120   58.4220 C   0  0  0  0  0  0  0  0  0  0  0  0
  126.4560  123.1700   59.7070 C   0  0  0  0  0  0  0  0  0  0  0  0
  127.7790  122.7610   59.9110 C   0  0  0  0  0  0  0  0  0  0  0  0
  128.2610  122.3900   61.2940 C   0  0  0  0  0  0  0  0  0  0  0  0
  127.5490  122.4270   62.3020 O   0  0  0  0  0  0  0  0  0  0  0  0
  132.5840  125.6710   64.3860 S   0  0  0  0  0  0  0  0  0  0  0  0
  132.2070  126.4360   65.9730 C   0  0  2  0  0  0  0  0  0  0  0  0
  133.0180  125.7280   67.0780 C   0  0  0  0  0  0  0  0  0  0  0  0
  129.6810  125.1860   68.0990 C   0  0  0  0  0  0  0  0  0  0  0  0
  129.1570  125.1870   69.3920 C   0  0  0  0  0  0  0  0  0  0  0  0
  129.1100  126.3790   70.1270 C   0  0  0  0  0  0  0  0  0  0  0  0
  130.3110  126.1800   73.9300 C   0  0  0  0  0  0  0  0  0  0  0  0
  131.3580  125.7310   74.7310 C   0  0  0  0  0  0  0  0  0  0  0  0
  1  2  1  0
  2  3  2  0
  3  4  1  0
  4  5  2  0
  5  6  1  0
  6  7  2  0
  6  8  1  0
  8  9  1  0
  9 10  1  0
 10 11  1  0
 11 12  2  0
 12 13  1  0
 14 13  1  1
 14 15  1  0
 15 16  2  0
 16 17  1  0
 17 18  1  0
 18 19  2  0
 18 20  1  0
 20 21  1  0
 21 22  1  0
 22 23  2  0
 23 24  1  0
 24 25  2  0
 25 26  1  0
 26 27  2  0
 27 28  1  0
 28 29  2  0
 29 30  1  0
 30 31  2  0
 16 32  1  0
 32 33  1  0
 33 34  1  1
 13 35  2  0
 35 36  1  0
 36 37  2  0
  5 38  1  0
 38 39  2  0
 39  2  1  0
 37  8  1  0
 37 11  1  0
 33 14  1  0
 30 21  1  0
 29 24  1  0
M  END
>  <Binding energies>  (47) 
[-9.07]

>  <Ligand effiencies>  (47) 
[-0.22675]

>  <Interactions>  (47) 
["V-B:PRO:540:CB:9857, V-B:TYR:539:CE2:9848, V-B:TYR:539:CZ:9849, V-B:PRO:540:CA:9855, V-B:PRO:540:C:9853, V-B:MET:535:CE:9807, V-A:LEU:475:CD1:4257, H-B:ALA:541:N:9863, V-B:TYR:539:C:9839, V-B:ALA:541:CB:9864, V-A:ARG:545:CD:4923, V-A:ARG:545:CZ:4926, V-B:GLU:543:CB:9878, V-A:GLU:543:CB:4906, V-A:HIS:456:CE1:4069, V-A:ARG:545:CG:4922, V-B:HIS:456:CE1:9041, H-A:TYR:484:OH:4347, V-A:GLU:543:C:4902, V-A:GLU:543:CD:4908, V-B:GLU:543:C:9874, V-B:HIS:456:CD2:9039, V-A:TYR:484:CE2:4345, V-B:GLU:543:CA:9876, V-A:TYR:484:CZ:4346, H-A:ARG:545:NH2:4928, H-A:ARG:545:NE:4924, V-A:ASP:473:CG:4239, V-A:HIS:456:CG:4065, V-A:HIS:456:CB:4064, V-A:HIS:456:CD2:4067"]

$$$$
RR26_Rahimova_2017
     RDKit          3D

 38 44  0  0  0  0  0  0  0  0999 V2000
  133.6720  121.3980   61.6820 C   0  0  0  0  0  0  0  0  0  0  0  0
  132.5690  120.4010   61.3480 C   0  0  0  0  0  0  0  0  0  0  0  0
  132.9030  119.2720   60.5910 C   0  0  0  0  0  0  0  0  0  0  0  0
  131.9440  118.3080   60.2900 C   0  0  0  0  0  0  0  0  0  0  0  0
  130.6400  118.4600   60.7510 C   0  0  0  0  0  0  0  0  0  0  0  0
  130.2950  119.5790   61.5060 C   0  0  0  0  0  0  0  0  0  0  0  0
  131.2450  120.5650   61.8120 C   0  0  0  0  0  0  0  0  0  0  0  0
  130.7870  121.7470   62.6180 C   0  0  0  0  0  0  0  0  0  0  0  0
  130.6050  121.6820   63.9340 N   0  0  0  0  0  0  0  0  0  0  0  0
  130.2290  122.9010   64.2150 C   0  0  0  0  0  0  0  0  0  0  0  0
  129.7720  123.7570   65.6400 S   0  0  0  0  0  0  0  0  0  0  0  0
  129.5310  125.2410   64.6440 C   0  0  0  0  0  0  0  0  0  0  0  0
  129.1280  126.4620   65.0620 C   0  0  0  0  0  0  0  0  0  0  0  0
  128.7970  126.8820   66.4140 C   0  0  0  0  0  0  0  0  0  0  0  0
  129.4410  126.5510   67.5960 C   0  0  0  0  0  0  0  0  0  0  0  0
  128.8090  127.2090   68.6200 N   0  0  0  0  0  0  0  0  0  0  0  0
  129.1180  127.1820   70.0050 C   0  0  0  0  0  0  0  0  0  0  0  0
  128.7270  126.1000   70.8070 C   0  0  0  0  0  0  0  0  0  0  0  0
  129.0340  126.0880   72.1650 C   0  0  0  0  0  0  0  0  0  0  0  0
  129.7360  127.1530   72.7240 C   0  0  0  0  0  0  0  0  0  0  0  0
  130.1330  128.2320   71.9380 C   0  0  0  0  0  0  0  0  0  0  0  0
  129.8250  128.2490   70.5800 C   0  0  0  0  0  0  0  0  0  0  0  0
  127.8110  127.9670   68.1400 N   0  0  0  0  0  0  0  0  0  0  0  0
  127.7890  127.7780   66.8360 C   0  0  0  0  0  0  0  0  0  0  0  0
  126.7680  128.4840   65.9970 C   0  0  0  0  0  0  0  0  0  0  0  0
  125.4890  128.7510   66.5100 C   0  0  0  0  0  0  0  0  0  0  0  0
  124.5300  129.4050   65.7350 C   0  0  0  0  0  0  0  0  0  0  0  0
  124.8440  129.7980   64.4360 C   0  0  0  0  0  0  0  0  0  0  0  0
  126.1250  129.5550   63.9190 C   0  0  0  0  0  0  0  0  0  0  0  0
  127.0790  128.8960   64.6920 C   0  0  0  0  0  0  0  0  0  0  0  0
  126.4660  129.8870   62.6220 O   0  0  0  0  0  0  0  0  0  0  0  0
  125.6060  130.8610   62.0220 C   0  0  0  0  0  0  0  0  0  0  0  0
  124.1220  130.5270   62.3110 C   0  0  0  0  0  0  0  0  0  0  0  0
  123.8820  130.4850   63.7220 O   0  0  0  0  0  0  0  0  0  0  0  0
  129.8110  125.0120   63.2300 C   0  0  0  0  0  0  0  0  0  0  0  0
  129.7430  125.8010   62.2860 O   0  0  0  0  0  0  0  0  0  0  0  0
  130.1950  123.6670   63.1090 N   0  0  0  0  0  0  0  0  0  0  0  0
  130.5620  122.9260   62.0600 N   0  0  0  0  0  0  0  0  0  0  0  0
  1  2  1  0
  2  3  2  0
  3  4  1  0
  4  5  2  0
  5  6  1  0
  6  7  2  0
  7  8  1  0
  8  9  1  0
  9 10  2  0
 10 11  1  0
 11 12  1  0
 12 13  2  0
 13 14  1  0
 14 15  2  0
 15 16  1  0
 16 17  1  0
 17 18  2  0
 18 19  1  0
 19 20  2  0
 20 21  1  0
 21 22  2  0
 16 23  1  0
 23 24  2  0
 24 25  1  0
 25 26  2  0
 26 27  1  0
 27 28  2  0
 28 29  1  0
 29 30  2  0
 29 31  1  0
 31 32  1  0
 32 33  1  0
 33 34  1  0
 12 35  1  0
 35 36  2  0
 35 37  1  0
 37 38  1  0
  7  2  1  0
 38  8  2  0
 37 10  1  0
 24 14  1  0
 30 25  1  0
 22 17  1  0
 34 28  1  0
M  END
>  <Binding energies>  (48) 
[-9.73]

>  <Ligand effiencies>  (48) 
[-0.25605263157894737]

>  <Interactions>  (48) 
["V-A:ILE:369:CG2:3236, V-B:TYR:539:CD2:9846, V-A:PRO:482:CG:4326, V-A:LEU:475:CD1:4257, V-B:TYR:539:C:9839, V-B:ALA:541:CB:9864, V-B:GLU:543:CD:9880, V-B:GLU:543:CB:9878, V-A:HIS:456:CE1:4069, V-B:HIS:456:CE1:9041, V-B:ARG:545:CZ:9898, H-B:GLY:454:N:9021, H-A:TYR:484:OH:4347, V-A:GLU:543:C:4902, V-B:GLU:543:CG:9879, V-A:GLU:543:CD:4908, V-B:GLU:543:C:9874, V-A:ILE:369:CD1:3238, V-B:HIS:456:CD2:9039, V-A:TYR:484:CE2:4345, V-A:TYR:484:CZ:4346, V-B:ASP:366:CG:8184, V-B:ARG:545:CD:9895, V-B:ARG:545:CG:9894, V-B:ILE:369:CD1:8210"]

$$$$
RR2_Rahimova_2017
     RDKit          3D

 46 50  0  0  0  0  0  0  0  0999 V2000
  130.1720  121.9400   62.4850 C   0  0  0  0  0  0  0  0  0  0  0  0
  128.8400  122.0030   61.9890 O   0  0  0  0  0  0  0  0  0  0  0  0
  128.2030  123.2280   61.9180 C   0  0  0  0  0  0  0  0  0  0  0  0
  126.8950  123.4140   61.4490 C   0  0  0  0  0  0  0  0  0  0  0  0
  126.3370  124.6890   61.4110 C   0  0  0  0  0  0  0  0  0  0  0  0
  127.0710  125.8050   61.8360 C   0  0  0  0  0  0  0  0  0  0  0  0
  126.4420  127.1840   61.7770 C   0  0  0  0  0  0  0  0  0  0  0  0
  126.1960  127.8010   62.8200 O   0  0  0  0  0  0  0  0  0  0  0  0
  126.1700  127.6560   60.5390 N   0  0  0  0  0  0  0  0  0  0  0  0
  125.5090  128.8750   60.4320 N   0  0  0  0  0  0  0  0  0  0  0  0
  125.0350  129.2400   59.2230 C   0  0  0  0  0  0  0  0  0  0  0  0
  125.2940  128.6660   58.1620 O   0  0  0  0  0  0  0  0  0  0  0  0
  124.0920  130.4500   59.2200 C   0  0  0  0  0  0  0  0  0  0  0  0
  124.6930  131.9030   60.1580 S   0  0  0  0  0  0  0  0  0  0  0  0
  124.7480  131.2350   61.7930 C   0  0  0  0  0  0  0  0  0  0  0  0
  123.6730  130.9610   62.4880 N   0  0  0  0  0  0  0  0  0  0  0  0
  124.0860  130.5270   63.7400 N   0  0  0  0  0  0  0  0  0  0  0  0
  125.3980  130.5270   63.7450 C   0  0  0  0  0  0  0  0  0  0  0  0
  126.2150  130.1010   64.9210 C   0  0  0  0  0  0  0  0  0  0  0  0
  127.2250  130.9370   65.4040 C   0  0  0  0  0  0  0  0  0  0  0  0
  127.9970  130.5460   66.4940 C   0  0  0  0  0  0  0  0  0  0  0  0
  127.7530  129.3210   67.1240 C   0  0  0  0  0  0  0  0  0  0  0  0
  128.5060  128.8710   68.2190 N   0  0  0  0  0  0  0  0  0  0  0  0
  128.8060  127.1620   68.6080 S   0  0  0  0  0  0  0  0  0  0  0  0
  127.5340  126.4670   68.3770 O   0  0  0  0  0  0  0  0  0  0  0  0
  129.4690  127.1030   69.9160 O   0  0  0  0  0  0  0  0  0  0  0  0
  129.9440  126.5880   67.3500 C   0  0  0  0  0  0  0  0  0  0  0  0
  129.4830  125.8550   66.2550 C   0  0  0  0  0  0  0  0  0  0  0  0
  130.3860  125.4040   65.2960 C   0  0  0  0  0  0  0  0  0  0  0  0
  131.7470  125.6910   65.4290 C   0  0  0  0  0  0  0  0  0  0  0  0
  132.7320  125.1860   64.3910 C   0  0  0  0  0  0  0  0  0  0  0  0
  132.2050  126.4210   66.5280 C   0  0  0  0  0  0  0  0  0  0  0  0
  131.3040  126.8710   67.4880 C   0  0  0  0  0  0  0  0  0  0  0  0
  126.7420  128.4880   66.6430 C   0  0  0  0  0  0  0  0  0  0  0  0
  125.9750  128.8750   65.5490 C   0  0  0  0  0  0  0  0  0  0  0  0
  125.8890  130.9740   62.5290 N   0  0  0  0  0  0  0  0  0  0  0  0
  127.2320  131.1630   62.1430 C   0  0  0  0  0  0  0  0  0  0  0  0
  127.6080  132.3330   61.4810 C   0  0  0  0  0  0  0  0  0  0  0  0
  128.9360  132.5160   61.1060 C   0  0  0  0  0  0  0  0  0  0  0  0
  129.8940  131.5400   61.3850 C   0  0  0  0  0  0  0  0  0  0  0  0
  131.1840  131.8100   60.9740 O   0  0  0  0  0  0  0  0  0  0  0  0
  132.1800  130.7990   61.0960 C   0  0  0  0  0  0  0  0  0  0  0  0
  129.5060  130.3660   62.0520 C   0  0  0  0  0  0  0  0  0  0  0  0
  128.1800  130.1790   62.4300 C   0  0  0  0  0  0  0  0  0  0  0  0
  128.3780  125.6100   62.3090 C   0  0  0  0  0  0  0  0  0  0  0  0
  128.9330  124.3340   62.3480 C   0  0  0  0  0  0  0  0  0  0  0  0
  1  2  1  0
  2  3  1  0
  3  4  2  0
  4  5  1  0
  5  6  2  0
  6  7  1  0
  7  8  2  0
  7  9  1  0
  9 10  1  0
 10 11  1  0
 11 12  2  0
 11 13  1  0
 13 14  1  0
 14 15  1  0
 15 16  2  0
 16 17  1  0
 17 18  2  0
 18 19  1  0
 19 20  2  0
 20 21  1  0
 21 22  2  0
 22 23  1  0
 23 24  1  0
 24 25  2  0
 24 26  2  0
 24 27  1  0
 27 28  2  0
 28 29  1  0
 29 30  2  0
 30 31  1  0
 30 32  1  0
 32 33  2  0
 22 34  1  0
 34 35  2  0
 18 36  1  0
 36 37  1  0
 37 38  2  0
 38 39  1  0
 39 40  2  0
 40 41  1  0
 41 42  1  0
 40 43  1  0
 43 44  2  0
  6 45  1  0
 45 46  2  0
 46  3  1  0
 36 15  1  0
 44 37  1  0
 35 19  1  0
 33 27  1  0
M  END
>  <Binding energies>  (49) 
[-10.57]

>  <Ligand effiencies>  (49) 
[-0.21571428571428572]

>  <Interactions>  (49) 
["V-B:PRO:540:CA:9855, H-B:ALA:541:N:9863, H-B:TYR:531:OH:9767, V-B:ALA:541:CB:9864, V-B:GLU:543:CD:9880, V-A:ARG:545:CZ:4926, V-B:GLU:543:CB:9878, V-A:GLU:543:CB:4906, V-A:HIS:456:CE1:4069, V-A:ARG:545:CG:4922, V-B:HIS:456:CE1:9041, H-B:ARG:545:NH2:9900, V-B:ARG:545:CZ:9898, H-B:GLY:454:N:9021, H-A:ALA:541:N:4891, V-B:TYR:484:CZ:9318, V-A:ALA:541:CB:4892, V-B:TYR:484:CE2:9317, V-B:GLU:543:CG:9879, V-A:GLU:543:CD:4908, V-A:GLU:543:CG:4907, V-B:ASP:366:CB:8183, V-B:ASP:366:CA:8181, V-A:TYR:539:CE1:4875, V-B:ASP:366:CG:8184, V-B:ILE:369:CG2:8208, V-A:PRO:540:CA:4883, V-A:PRO:540:CB:4885, V-A:PRO:540:C:4881, V-A:ALA:541:CA:4890, H-B:ASP:366:OD1:8185, H-B:ASP:366:OD2:8186, V-B:ASP:366:C:8179, H-A:GLU:543:O:4903, V-B:ILE:369:CD1:8210, V-B:ILE:369:CB:8207, H-B:HIS:456:NE2:9042"]

$$$$
RR33_Rahimova_2017
     RDKit          3D

 18 19  0  0  0  0  0  0  0  0999 V2000
  133.2630  118.8900   59.2380 C   0  0  0  0  0  0  0  0  0  0  0  0
  133.4520  118.9830   60.7550 C   0  0  0  0  0  0  0  0  0  0  0  0
  133.2220  120.3290   61.1630 O   0  0  0  0  0  0  0  0  0  0  0  0
  132.0110  120.9280   60.8750 C   0  0  0  0  0  0  0  0  0  0  0  0
  130.8880  120.3930   61.5050 C   0  0  0  0  0  0  0  0  0  0  0  0
  129.6240  120.9280   61.2740 C   0  0  0  0  0  0  0  0  0  0  0  0
  129.4640  122.0110   60.4040 C   0  0  0  0  0  0  0  0  0  0  0  0
  128.1050  122.5840   60.1560 C   0  0  0  0  0  0  0  0  0  0  0  0
  127.6620  123.1480   59.0550 N   0  0  0  0  0  0  0  0  0  0  0  0
  126.4110  123.4930   59.3180 C   0  0  0  0  0  0  0  0  0  0  0  0
  125.5530  124.1700   58.2700 C   0  0  0  0  0  0  0  0  0  0  0  0
  126.1140  123.9720   56.9420 N   0  0  0  0  0  0  0  0  0  0  0  0
  125.4740  122.8490   56.2770 C   0  0  0  0  0  0  0  0  0  0  0  0
  126.0900  123.1260   60.6190 C   0  0  0  0  0  0  0  0  0  0  0  0
  124.8630  123.2310   61.4920 C   0  0  0  0  0  0  0  0  0  0  0  0
  127.1860  122.5410   61.1550 O   0  0  0  0  0  0  0  0  0  0  0  0
  130.5880  122.5530   59.7730 C   0  0  0  0  0  0  0  0  0  0  0  0
  131.8530  122.0170   60.0040 C   0  0  0  0  0  0  0  0  0  0  0  0
  1  2  1  0
  2  3  1  0
  3  4  1  0
  4  5  2  0
  5  6  1  0
  6  7  2  0
  7  8  1  0
  8  9  2  0
  9 10  1  0
 10 11  1  0
 11 12  1  0
 12 13  1  0
 10 14  2  0
 14 15  1  0
 14 16  1  0
  7 17  1  0
 17 18  2  0
 18  4  1  0
 16  8  1  0
M  END
>  <Binding energies>  (50) 
[-5.24]

>  <Ligand effiencies>  (50) 
[-0.27578947368421053]

>  <Interactions>  (50) 
["V-B:PRO:540:CB:9857, V-A:ILE:369:CG2:3236, V-B:TYR:539:CE2:9848, V-B:TYR:539:CD2:9846, V-B:PRO:540:CA:9855, V-B:PRO:540:C:9853, V-B:MET:535:CE:9807, V-A:LEU:475:CD1:4257, H-B:ALA:541:N:9863, V-A:SER:385:CB:3408, H-B:TYR:531:OH:9767, V-B:ALA:541:CA:9862, V-A:SER:385:CA:3406, V-A:SER:385:C:3404, V-B:ALA:541:CB:9864, V-A:HIS:383:CD2:3391, V-B:ASN:362:CB:8147, V-B:TYR:531:CE2:9765, V-B:LEU:363:CD1:8160"]

$$$$
RR3_Rahimova_2017
     RDKit          3D

 38 44  0  0  0  0  0  0  0  0999 V2000
  133.7560  122.8930   62.3290 C   0  0  0  0  0  0  0  0  0  0  0  0
  134.1640  124.2020   62.5620 C   0  0  0  0  0  0  0  0  0  0  0  0
  133.4920  124.9770   63.5030 C   0  0  0  0  0  0  0  0  0  0  0  0
  132.4070  124.4550   64.2230 C   0  0  0  0  0  0  0  0  0  0  0  0
  131.6870  125.2900   65.2360 C   0  0  0  0  0  0  0  0  0  0  0  0
  130.2860  125.3170   65.2810 C   0  0  0  0  0  0  0  0  0  0  0  0
  129.6160  126.0960   66.2210 C   0  0  0  0  0  0  0  0  0  0  0  0
  130.3340  126.8730   67.1340 C   0  0  0  0  0  0  0  0  0  0  0  0
  129.6200  127.7170   68.1430 C   0  0  0  0  0  0  0  0  0  0  0  0
  129.8830  127.5710   69.4370 N   0  0  0  0  0  0  0  0  0  0  0  0
  129.1550  128.4580   70.0700 C   0  0  0  0  0  0  0  0  0  0  0  0
  129.1310  128.6500   71.5180 C   0  0  0  0  0  0  0  0  0  0  0  0
  129.6980  127.8040   72.4560 C   0  0  0  0  0  0  0  0  0  0  0  0
  129.4940  128.2950   73.7190 N   0  0  0  0  0  0  0  0  0  0  0  0
  128.7870  129.4750   73.6550 C   0  0  0  0  0  0  0  0  0  0  0  0
  128.3470  130.3320   74.6700 C   0  0  0  0  0  0  0  0  0  0  0  0
  127.6410  131.4680   74.2760 C   0  0  0  0  0  0  0  0  0  0  0  0
  127.3820  131.7440   72.9380 C   0  0  0  0  0  0  0  0  0  0  0  0
  127.8200  130.8910   71.9270 C   0  0  0  0  0  0  0  0  0  0  0  0
  128.5370  129.7300   72.2700 C   0  0  0  0  0  0  0  0  0  0  0  0
  128.4020  129.1890   69.1930 N   0  0  0  0  0  0  0  0  0  0  0  0
  128.6600  128.7210   67.9300 C   0  0  0  0  0  0  0  0  0  0  0  0
  127.9680  129.2450   66.7140 C   0  0  0  0  0  0  0  0  0  0  0  0
  128.0030  130.6090   66.4220 C   0  0  0  0  0  0  0  0  0  0  0  0
  127.3500  131.1020   65.2970 C   0  0  0  0  0  0  0  0  0  0  0  0
  126.6500  130.2440   64.4360 C   0  0  0  0  0  0  0  0  0  0  0  0
  125.9320  130.7810   63.2380 C   0  0  0  0  0  0  0  0  0  0  0  0
  124.6580  130.3060   62.8900 C   0  0  0  0  0  0  0  0  0  0  0  0
  123.9870  130.8090   61.7780 C   0  0  0  0  0  0  0  0  0  0  0  0
  124.5860  131.7960   61.0000 C   0  0  0  0  0  0  0  0  0  0  0  0
  125.8470  132.2820   61.3270 C   0  0  0  0  0  0  0  0  0  0  0  0
  126.5150  131.7760   62.4390 C   0  0  0  0  0  0  0  0  0  0  0  0
  126.6370  128.8740   64.7310 C   0  0  0  0  0  0  0  0  0  0  0  0
  127.2900  128.3770   65.8560 C   0  0  0  0  0  0  0  0  0  0  0  0
  131.7300  126.8430   67.1050 C   0  0  0  0  0  0  0  0  0  0  0  0
  132.3970  126.0630   66.1640 C   0  0  0  0  0  0  0  0  0  0  0  0
  132.0130  123.1330   63.9710 C   0  0  0  0  0  0  0  0  0  0  0  0
  132.6820  122.3550   63.0310 C   0  0  0  0  0  0  0  0  0  0  0  0
  1  2  2  0
  2  3  1  0
  3  4  2  0
  4  5  1  0
  5  6  2  0
  6  7  1  0
  7  8  2  0
  8  9  1  0
  9 10  1  0
 10 11  2  0
 11 12  1  0
 12 13  2  0
 13 14  1  0
 14 15  1  0
 15 16  2  0
 16 17  1  0
 17 18  2  0
 18 19  1  0
 19 20  2  0
 11 21  1  0
 21 22  1  0
 22 23  1  0
 23 24  2  0
 24 25  1  0
 25 26  2  0
 26 27  1  0
 27 28  2  0
 28 29  1  0
 29 30  2  0
 30 31  1  0
 31 32  2  0
 26 33  1  0
 33 34  2  0
  8 35  1  0
 35 36  2  0
  4 37  1  0
 37 38  2  0
 38  1  1  0
 36  5  1  0
 22  9  2  0
 34 23  1  0
 20 12  1  0
 32 27  1  0
 20 15  1  0
M  END
>  <Binding energies>  (51) 
[-9.67]

>  <Ligand effiencies>  (51) 
[-0.24175]

>  <Interactions>  (51) 
["V-A:LEU:475:CD1:4257, V-A:ARG:545:CZ:4926, V-A:GLY:453:CA:4043, V-A:GLY:453:C:4041, V-A:GLU:543:CB:4906, H-B:TYR:484:OH:9319, V-A:HIS:456:CE1:4069, V-A:ARG:545:CG:4922, V-B:HIS:456:CE1:9041, V-A:GLY:454:CA:4048, V-B:TYR:484:CZ:9318, V-A:GLU:543:C:4902, V-B:TYR:484:CE2:9317, V-B:GLU:543:CG:9879, V-A:GLU:543:CD:4908, V-A:GLU:543:CG:4907, V-B:HIS:456:CD2:9039, V-B:TYR:484:CB:9312, V-B:TYR:484:CD2:9315, V-B:TYR:484:CG:9313, V-B:HIS:456:CG:9037, V-B:ASP:366:CG:8184, V-B:ILE:369:CG2:8208, H-A:GLU:543:O:4903, V-B:ILE:369:CD1:8210, H-B:HIS:456:NE2:9042, V-B:HIS:456:CB:9036, V-B:TYR:484:CD1:9314"]

$$$$
RR4_Rahimova_2017
     RDKit          3D

 40 44  0  0  0  0  0  0  0  0999 V2000
  128.2110  126.9180   75.1560 C   0  0  0  0  0  0  0  0  0  0  0  0
  129.3890  127.1900   74.4050 O   0  0  0  0  0  0  0  0  0  0  0  0
  129.3110  127.2460   73.0260 C   0  0  0  0  0  0  0  0  0  0  0  0
  128.8180  126.1140   72.3810 C   0  0  0  0  0  0  0  0  0  0  0  0
  128.7030  126.0800   70.9950 C   0  0  0  0  0  0  0  0  0  0  0  0
  129.0810  127.1790   70.2100 C   0  0  0  0  0  0  0  0  0  0  0  0
  128.9570  127.1390   68.7140 C   0  0  0  0  0  0  0  0  0  0  0  0
  128.1370  128.0170   67.9980 C   0  0  0  0  0  0  0  0  0  0  0  0
  128.0590  127.9420   66.6010 C   0  0  0  0  0  0  0  0  0  0  0  0
  127.1840  128.9310   65.9020 C   0  0  0  0  0  0  0  0  0  0  0  0
  125.8350  128.6410   65.6790 C   0  0  0  0  0  0  0  0  0  0  0  0
  125.0100  129.5630   65.0390 C   0  0  0  0  0  0  0  0  0  0  0  0
  125.5150  130.7920   64.6160 C   0  0  0  0  0  0  0  0  0  0  0  0
  124.6230  131.6420   63.9910 O   0  0  0  0  0  0  0  0  0  0  0  0
  124.2140  131.3610   62.6570 C   0  0  0  0  0  0  0  0  0  0  0  0
  126.8670  131.0900   64.8430 C   0  0  0  0  0  0  0  0  0  0  0  0
  127.6900  130.1670   65.4840 C   0  0  0  0  0  0  0  0  0  0  0  0
  128.8050  126.9380   65.9360 C   0  0  0  0  0  0  0  0  0  0  0  0
  128.7590  126.8160   64.4760 C   0  0  0  0  0  0  0  0  0  0  0  0
  128.7240  126.7190   63.3240 N   0  0  0  0  0  0  0  0  0  0  0  0
  129.5890  126.0650   66.7240 C   0  0  0  0  0  0  0  0  0  0  0  0
  130.5790  124.7420   66.0620 S   0  0  0  0  0  0  0  0  0  0  0  0
  131.7550  125.4690   64.8720 C   0  0  0  0  0  0  0  0  0  0  0  0
  132.0410  124.5950   63.6430 C   0  0  0  0  0  0  0  0  0  0  0  0
  132.2210  125.1100   62.5370 O   0  0  0  0  0  0  0  0  0  0  0  0
  132.0590  123.2640   63.8870 N   0  0  0  0  0  0  0  0  0  0  0  0
  132.2910  122.2200   62.9890 C   0  0  0  0  0  0  0  0  0  0  0  0
  133.8840  121.5980   62.6480 S   0  0  0  0  0  0  0  0  0  0  0  0
  133.2510  120.4380   61.5210 C   0  0  0  0  0  0  0  0  0  0  0  0
  131.8550  120.5330   61.4110 C   0  0  0  0  0  0  0  0  0  0  0  0
  131.3120  121.5330   62.2550 C   0  0  0  0  0  0  0  0  0  0  0  0
  129.8830  121.8210   62.3440 C   0  0  0  0  0  0  0  0  0  0  0  0
  128.7510  122.0500   62.4130 N   0  0  0  0  0  0  0  0  0  0  0  0
  131.0540  119.5900   60.5060 C   0  0  0  0  0  0  0  0  0  0  0  0
  131.9050  118.3610   60.1110 C   0  0  0  0  0  0  0  0  0  0  0  0
  133.3250  118.7570   59.6690 C   0  0  0  0  0  0  0  0  0  0  0  0
  134.1270  119.4120   60.8140 C   0  0  0  0  0  0  0  0  0  0  0  0
  129.6720  126.1810   68.0710 N   0  0  0  0  0  0  0  0  0  0  0  0
  129.5730  128.3170   70.8690 C   0  0  0  0  0  0  0  0  0  0  0  0
  129.6900  128.3540   72.2560 C   0  0  0  0  0  0  0  0  0  0  0  0
  1  2  1  0
  2  3  1  0
  3  4  2  0
  4  5  1  0
  5  6  2  0
  6  7  1  0
  7  8  2  0
  8  9  1  0
  9 10  1  0
 10 11  2  0
 11 12  1  0
 12 13  2  0
 13 14  1  0
 14 15  1  0
 13 16  1  0
 16 17  2  0
  9 18  2  0
 18 19  1  0
 19 20  3  0
 18 21  1  0
 21 22  1  0
 22 23  1  0
 23 24  1  0
 24 25  2  0
 24 26  1  0
 26 27  1  0
 27 28  1  0
 28 29  1  0
 29 30  2  0
 30 31  1  0
 31 32  1  0
 32 33  3  0
 30 34  1  0
 34 35  1  0
 35 36  1  0
 36 37  1  0
 21 38  2  0
  6 39  1  0
 39 40  2  0
 40  3  1  0
 38  7  1  0
 17 10  1  0
 31 27  2  0
 37 29  1  0
M  END
>  <Binding energies>  (52) 
[-9.87]

>  <Ligand effiencies>  (52) 
[-0.24073170731707316]

>  <Interactions>  (52) 
["V-A:ILE:369:CG2:3236, V-B:TYR:539:CD2:9846, V-A:LEU:475:CD1:4257, H-B:ALA:541:N:9863, V-A:SER:385:CA:3406, V-A:SER:385:C:3404, V-B:ALA:541:CB:9864, V-B:GLU:543:CD:9880, V-B:GLU:543:CB:9878, H-B:TYR:484:OH:9319, V-A:HIS:456:CE1:4069, V-B:HIS:456:CE1:9041, V-B:ARG:545:CZ:9898, V-A:GLY:454:CA:4048, H-B:GLY:454:N:9021, H-A:TYR:484:OH:4347, V-A:GLU:543:C:4902, V-B:TYR:484:CE2:9317, V-A:GLU:543:CD:4908, V-A:GLU:543:CG:4907, V-B:GLU:543:C:9874, V-B:HIS:456:CD2:9039, H-A:ARG:545:NH2:4928, V-A:HIS:383:CD2:3391, V-B:GLY:454:CA:9020, V-B:ILE:369:CD1:8210"]

$$$$
RR6_Rahimova_2017
     RDKit          3D

 38 41  0  0  0  0  0  0  0  0999 V2000
  125.0600  124.1220   57.3240 C   0  0  0  0  0  0  0  0  0  0  0  0
  126.3580  123.8740   56.8020 O   0  0  0  0  0  0  0  0  0  0  0  0
  127.0580  122.7690   57.1650 C   0  0  0  0  0  0  0  0  0  0  0  0
  126.7200  121.6200   56.8600 O   0  0  0  0  0  0  0  0  0  0  0  0
  128.2840  123.0810   57.9730 C   0  0  0  0  0  0  0  0  0  0  0  0
  128.9310  124.3230   57.8930 C   0  0  0  0  0  0  0  0  0  0  0  0
  130.0720  124.5790   58.6500 C   0  0  0  0  0  0  0  0  0  0  0  0
  130.5890  123.5910   59.5000 C   0  0  0  0  0  0  0  0  0  0  0  0
  131.7480  123.7330   60.2860 N   0  0  0  0  0  0  0  0  0  0  0  0
  132.1770  124.8030   60.9920 C   0  0  0  0  0  0  0  0  0  0  0  0
  131.5910  125.8820   61.0800 O   0  0  0  0  0  0  0  0  0  0  0  0
  133.5390  124.6400   61.6760 C   0  0  0  0  0  0  0  0  0  0  0  0
  133.4310  124.0020   63.3810 S   0  0  0  0  0  0  0  0  0  0  0  0
  131.8990  124.6060   64.0600 C   0  0  0  0  0  0  0  0  0  0  0  0
  130.8170  124.3890   63.2740 N   0  0  0  0  0  0  0  0  0  0  0  0
  129.5890  124.7790   63.6970 C   0  0  0  0  0  0  0  0  0  0  0  0
  128.4360  124.4470   62.7960 C   0  0  0  0  0  0  0  0  0  0  0  0
  127.6960  125.4610   62.1660 C   0  0  0  0  0  0  0  0  0  0  0  0
  126.6180  125.1530   61.3400 C   0  0  0  0  0  0  0  0  0  0  0  0
  126.2620  123.8230   61.1240 C   0  0  0  0  0  0  0  0  0  0  0  0
  125.0810  123.4930   60.2300 C   0  0  0  0  0  0  0  0  0  0  0  0
  126.9850  122.8020   61.7380 C   0  0  0  0  0  0  0  0  0  0  0  0
  128.0610  123.1150   62.5610 C   0  0  0  0  0  0  0  0  0  0  0  0
  129.4270  125.4150   64.9330 C   0  0  0  0  0  0  0  0  0  0  0  0
  130.5310  125.6540   65.7620 C   0  0  0  0  0  0  0  0  0  0  0  0
  130.2840  126.3210   67.0750 C   0  0  0  0  0  0  0  0  0  0  0  0
  131.1120  127.3640   67.5000 C   0  0  0  0  0  0  0  0  0  0  0  0
  130.8790  128.0020   68.7160 C   0  0  0  0  0  0  0  0  0  0  0  0
  129.8130  127.6140   69.5270 C   0  0  0  0  0  0  0  0  0  0  0  0
  129.6580  128.3030   70.7130 O   0  0  0  0  0  0  0  0  0  0  0  0
  129.5460  127.5730   71.9300 C   0  0  0  0  0  0  0  0  0  0  0  0
  128.9760  126.5700   69.1020 C   0  0  0  0  0  0  0  0  0  0  0  0
  129.2120  125.9350   67.8860 C   0  0  0  0  0  0  0  0  0  0  0  0
  131.8110  125.2440   65.3130 C   0  0  0  0  0  0  0  0  0  0  0  0
  133.0120  125.4890   66.1180 C   0  0  0  0  0  0  0  0  0  0  0  0
  133.9600  125.6820   66.7540 N   0  0  0  0  0  0  0  0  0  0  0  0
  129.9380  122.3600   59.5950 C   0  0  0  0  0  0  0  0  0  0  0  0
  128.8000  122.1050   58.8350 C   0  0  0  0  0  0  0  0  0  0  0  0
  1  2  1  0
  2  3  1  0
  3  4  2  0
  3  5  1  0
  5  6  2  0
  6  7  1  0
  7  8  2  0
  8  9  1  0
  9 10  1  0
 10 11  2  0
 10 12  1  0
 12 13  1  0
 13 14  1  0
 14 15  2  0
 15 16  1  0
 16 17  1  0
 17 18  2  0
 18 19  1  0
 19 20  2  0
 20 21  1  0
 20 22  1  0
 22 23  2  0
 16 24  2  0
 24 25  1  0
 25 26  1  0
 26 27  2  0
 27 28  1  0
 28 29  2  0
 29 30  1  0
 30 31  1  0
 29 32  1  0
 32 33  2  0
 25 34  2  0
 34 35  1  0
 35 36  3  0
  8 37  1  0
 37 38  2  0
 38  5  1  0
 34 14  1  0
 23 17  1  0
 33 26  1  0
M  END
>  <Binding energies>  (53) 
[-8.59]

>  <Ligand effiencies>  (53) 
[-0.22025641025641024]

>  <Interactions>  (53) 
["V-B:PRO:540:CB:9857, V-B:TYR:539:CE2:9848, V-B:PRO:540:N:9856, V-B:TYR:539:CD2:9846, V-B:PRO:540:CA:9855, V-B:PRO:540:C:9853, V-B:MET:535:CE:9807, H-B:TYR:539:N:9842, H-B:TYR:531:OH:9767, V-B:TYR:539:C:9839, V-B:ALA:541:CB:9864, V-B:GLU:543:CD:9880, V-A:ARG:545:CD:4923, V-A:ARG:545:CZ:4926, V-B:GLU:543:CB:9878, V-A:GLU:543:CB:4906, V-A:HIS:456:CE1:4069, V-B:HIS:456:CE1:9041, H-A:TYR:484:OH:4347, H-A:GLY:454:N:4049, V-A:GLU:543:C:4902, V-B:GLU:543:CG:9879, V-A:GLU:543:CD:4908, V-A:ASP:366:CG:3212, V-A:TYR:484:CZ:4346, H-A:ARG:545:NE:4924, V-B:TYR:531:CZ:9766, V-B:TYR:531:CE2:9765, V-B:LEU:363:CD1:8160, V-A:GLU:543:CA:4904"]

$$$$
RR7_Rahimova_2017
     RDKit          3D

 47 53  0  0  0  0  0  0  0  0999 V2000
  131.7490  117.0160   61.5800 C   0  0  0  0  0  0  0  0  0  0  0  0
  132.5570  117.9010   60.8100 O   0  0  0  0  0  0  0  0  0  0  0  0
  132.1180  119.1920   60.5890 C   0  0  0  0  0  0  0  0  0  0  0  0
  130.7830  119.4560   60.8900 C   0  0  0  0  0  0  0  0  0  0  0  0
  130.2530  120.7290   60.7050 C   0  0  0  0  0  0  0  0  0  0  0  0
  131.0460  121.7700   60.2000 C   0  0  0  0  0  0  0  0  0  0  0  0
  130.4860  123.2150   60.0140 C   0  0  0  0  0  0  0  0  0  0  0  0
  130.7820  123.9270   61.2370 O   0  0  0  0  0  0  0  0  0  0  0  0
  131.4330  125.2000   61.1850 C   0  0  0  0  0  0  0  0  0  0  0  0
  132.8800  125.0420   61.6790 C   0  0  1  0  0  0  0  0  0  0  0  0
  132.9800  125.7650   62.9030 O   0  0  0  0  0  0  0  0  0  0  0  0
  133.3720  124.9440   63.9650 C   0  0  1  0  0  0  0  0  0  0  0  0
  132.7580  125.3950   65.1990 N   0  0  0  0  0  0  0  0  0  0  0  0
  133.3410  125.5130   66.4480 C   0  0  0  0  0  0  0  0  0  0  0  0
  132.5390  125.9050   67.4070 N   0  0  0  0  0  0  0  0  0  0  0  0
  131.3230  126.0190   66.7900 C   0  0  0  0  0  0  0  0  0  0  0  0
  130.0510  126.3850   67.2720 C   0  0  0  0  0  0  0  0  0  0  0  0
  129.9170  126.7270   68.6310 N   0  0  0  0  0  0  0  0  0  0  0  0
  128.8850  126.4830   69.4730 C   0  0  0  0  0  0  0  0  0  0  0  0
  127.8440  125.9080   69.1470 O   0  0  0  0  0  0  0  0  0  0  0  0
  129.0580  126.9970   70.8870 C   0  0  0  0  0  0  0  0  0  0  0  0
  128.7400  126.1650   71.9710 C   0  0  0  0  0  0  0  0  0  0  0  0
  128.8960  126.6150   73.2790 C   0  0  0  0  0  0  0  0  0  0  0  0
  129.3760  127.8990   73.5140 C   0  0  0  0  0  0  0  0  0  0  0  0
  129.7010  128.7390   72.4520 C   0  0  0  0  0  0  0  0  0  0  0  0
  129.5440  128.2900   71.1430 C   0  0  0  0  0  0  0  0  0  0  0  0
  128.9890  126.3950   66.4120 N   0  0  0  0  0  0  0  0  0  0  0  0
  129.2160  126.0450   65.1190 C   0  0  0  0  0  0  0  0  0  0  0  0
  130.3960  125.6810   64.5500 N   0  0  0  0  0  0  0  0  0  0  0  0
  131.4200  125.6870   65.4140 C   0  0  0  0  0  0  0  0  0  0  0  0
  132.9950  123.5300   63.5390 C   0  0  0  0  0  0  0  0  0  0  0  0
  133.2870  123.6090   62.0500 C   0  0  2  0  0  0  0  0  0  0  0  0
  134.6480  123.3410   61.7600 O   0  0  0  0  0  0  0  0  0  0  0  0
  131.1950  123.9780   58.8630 C   0  0  0  0  0  0  0  0  0  0  0  0
  130.4450  124.7330   57.9470 C   0  0  0  0  0  0  0  0  0  0  0  0
  131.0670  125.4100   56.9030 C   0  0  0  0  0  0  0  0  0  0  0  0
  132.4500  125.3380   56.7640 C   0  0  0  0  0  0  0  0  0  0  0  0
  133.2130  124.5960   57.6600 C   0  0  0  0  0  0  0  0  0  0  0  0
  132.5890  123.9180   58.7030 C   0  0  0  0  0  0  0  0  0  0  0  0
  128.9650  123.3170   59.7080 C   0  0  0  0  0  0  0  0  0  0  0  0
  128.1270  124.0940   60.5240 C   0  0  0  0  0  0  0  0  0  0  0  0
  126.7630  124.1850   60.2650 C   0  0  0  0  0  0  0  0  0  0  0  0
  126.2190  123.4900   59.1890 C   0  0  0  0  0  0  0  0  0  0  0  0
  127.0280  122.7030   58.3750 C   0  0  0  0  0  0  0  0  0  0  0  0
  128.3920  122.6140   58.6360 C   0  0  0  0  0  0  0  0  0  0  0  0
  132.3920  121.5020   59.9120 C   0  0  0  0  0  0  0  0  0  0  0  0
  132.9230  120.2290   60.0980 C   0  0  0  0  0  0  0  0  0  0  0  0
  1  2  1  0
  2  3  1  0
  3  4  2  0
  4  5  1  0
  5  6  2  0
  6  7  1  0
  7  8  1  0
  8  9  1  0
 10  9  1  1
 10 11  1  0
 11 12  1  0
 12 13  1  1
 13 14  1  0
 14 15  2  0
 15 16  1  0
 16 17  2  0
 17 18  1  0
 18 19  1  0
 19 20  2  0
 19 21  1  0
 21 22  2  0
 22 23  1  0
 23 24  2  0
 24 25  1  0
 25 26  2  0
 17 27  1  0
 27 28  2  0
 28 29  1  0
 29 30  2  0
 12 31  1  0
 31 32  1  0
 32 33  1  1
  7 34  1  0
 34 35  2  0
 35 36  1  0
 36 37  2  0
 37 38  1  0
 38 39  2  0
  7 40  1  0
 40 41  2  0
 41 42  1  0
 42 43  2  0
 43 44  1  0
 44 45  2  0
  6 46  1  0
 46 47  2  0
 47  3  1  0
 32 10  1  0
 39 34  1  0
 45 40  1  0
 30 13  1  0
 30 16  1  0
 26 21  1  0
M  END
>  <Binding energies>  (54) 
[-9.74]

>  <Ligand effiencies>  (54) 
[-0.19877551020408163]

>  <Interactions>  (54) 
["V-B:PRO:540:CB:9857, V-A:ILE:369:CG2:3236, V-B:TYR:539:CE2:9848, V-B:PRO:540:N:9856, V-B:TYR:539:CZ:9849, V-B:TYR:539:CD2:9846, V-B:PRO:540:CA:9855, V-A:PRO:482:CG:4326, V-A:PRO:482:CB:4325, V-A:LEU:475:CD1:4257, V-B:TYR:539:C:9839, V-B:GLU:543:CD:9880, V-A:ARG:545:CD:4923, V-A:ARG:545:CZ:4926, V-A:HIS:456:CE1:4069, V-A:ARG:545:CG:4922, V-B:HIS:456:CE1:9041, V-A:GLY:454:CA:4048, V-A:HIS:383:CE1:3392, H-A:TYR:484:OH:4347, H-A:GLY:454:N:4049, V-B:GLU:543:CG:9879, V-A:ASP:366:CG:3212, H-A:ARG:545:NH1:4927, V-B:HIS:456:CD2:9039, V-A:ASP:366:C:3207, V-A:ASP:366:CB:3211, V-A:ASP:366:CA:3209, V-A:TYR:484:CZ:4346, H-A:ARG:545:NH2:4928, H-A:HIS:383:NE2:3393, H-A:SER:385:OG:3409, H-A:HIS:456:NE2:4070, H-A:ASP:366:OD1:3213"]

$$$$
RR8_A_Rahimova_2017
     RDKit          3D

 42 46  0  0  0  0  0  0  0  0999 V2000
  127.9890  122.7270   59.4340 O   0  0  0  0  0  0  0  0  0  0  0  0
  128.3470  122.2530   60.5180 C   0  0  0  0  0  0  0  0  0  0  0  0
  127.6430  122.3770   61.6860 O   0  0  0  0  0  0  0  0  0  0  0  0
  128.1450  123.2550   62.6550 C   0  0  1  0  0  0  0  0  0  0  0  0
  128.8220  122.5720   63.6690 O   0  0  0  0  0  0  0  0  0  0  0  0
  129.9770  123.2830   64.1070 C   0  0  2  0  0  0  0  0  0  0  0  0
  129.8720  123.4990   65.6270 C   0  0  0  0  0  0  0  0  0  0  0  0
  129.7200  124.8890   65.8820 O   0  0  0  0  0  0  0  0  0  0  0  0
  129.8180  125.2380   67.2570 C   0  0  0  0  0  0  0  0  0  0  0  0
  129.2600  126.6370   67.4750 C   0  0  0  0  0  0  0  0  0  0  0  0
  129.6290  127.3650   68.6090 C   0  0  0  0  0  0  0  0  0  0  0  0
  129.1250  128.6480   68.8080 C   0  0  0  0  0  0  0  0  0  0  0  0
  128.2550  129.2010   67.8700 C   0  0  0  0  0  0  0  0  0  0  0  0
  127.8870  128.4840   66.7330 C   0  0  0  0  0  0  0  0  0  0  0  0
  128.3920  127.2020   66.5340 C   0  0  0  0  0  0  0  0  0  0  0  0
  129.9650  124.5590   63.2560 C   0  0  1  0  0  0  0  0  0  0  0  0
  131.2660  124.9680   62.8390 O   0  0  0  0  0  0  0  0  0  0  0  0
  131.3190  125.7230   61.6340 C   0  0  0  0  0  0  0  0  0  0  0  0
  132.1140  124.9640   60.5800 C   0  0  0  0  0  0  0  0  0  0  0  0
  133.2630  124.2600   60.9520 C   0  0  0  0  0  0  0  0  0  0  0  0
  134.0000  123.5710   59.9930 C   0  0  0  0  0  0  0  0  0  0  0  0
  133.5880  123.5910   58.6610 C   0  0  0  0  0  0  0  0  0  0  0  0
  132.4490  124.2950   58.2810 C   0  0  0  0  0  0  0  0  0  0  0  0
  131.7120  124.9850   59.2400 C   0  0  0  0  0  0  0  0  0  0  0  0
  129.2020  124.1430   62.0120 C   0  0  2  0  0  0  0  0  0  0  0  0
  128.6650  125.2830   61.3460 O   0  0  0  0  0  0  0  0  0  0  0  0
  127.3220  125.6160   61.6790 C   0  0  0  0  0  0  0  0  0  0  0  0
  126.3690  125.0010   60.6650 C   0  0  0  0  0  0  0  0  0  0  0  0
  126.4430  125.3680   59.3180 C   0  0  0  0  0  0  0  0  0  0  0  0
  125.5750  124.7950   58.3920 C   0  0  0  0  0  0  0  0  0  0  0  0
  124.6390  123.8540   58.8140 C   0  0  0  0  0  0  0  0  0  0  0  0
  124.5620  123.4790   60.1530 C   0  0  0  0  0  0  0  0  0  0  0  0
  125.4300  124.0520   61.0800 C   0  0  0  0  0  0  0  0  0  0  0  0
  129.6110  121.4610   60.6850 C   0  0  0  0  0  0  0  0  0  0  0  0
  130.8050  121.8250   60.0430 C   0  0  0  0  0  0  0  0  0  0  0  0
  131.9610  121.0700   60.2180 C   0  0  0  0  0  0  0  0  0  0  0  0
  131.9540  119.9320   61.0350 C   0  0  0  0  0  0  0  0  0  0  0  0
  133.1870  119.1280   61.2210 N   0  0  0  0  0  0  0  0  0  0  0  0
  133.9450  119.4190   62.1410 O   0  0  0  0  0  0  0  0  0  0  0  0
  133.4060  118.2000   60.4490 O   0  0  0  0  0  0  0  0  0  0  0  0
  130.7620  119.5680   61.6720 C   0  0  0  0  0  0  0  0  0  0  0  0
  129.6050  120.3220   61.5000 C   0  0  0  0  0  0  0  0  0  0  0  0
  1  2  2  0
  2  3  1  0
  4  3  1  6
  4  5  1  0
  5  6  1  0
  6  7  1  1
  7  8  1  0
  8  9  1  0
  9 10  1  0
 10 11  2  0
 11 12  1  0
 12 13  2  0
 13 14  1  0
 14 15  2  0
  6 16  1  0
 16 17  1  6
 17 18  1  0
 18 19  1  0
 19 20  2  0
 20 21  1  0
 21 22  2  0
 22 23  1  0
 23 24  2  0
 16 25  1  0
 25 26  1  1
 26 27  1  0
 27 28  1  0
 28 29  2  0
 29 30  1  0
 30 31  2  0
 31 32  1  0
 32 33  2  0
  2 34  1  0
 34 35  2  0
 35 36  1  0
 36 37  2  0
 37 38  1  0
 38 39  2  0
 38 40  1  0
 37 41  1  0
 41 42  2  0
 25  4  1  0
 33 28  1  0
 42 34  1  0
 15 10  1  0
 24 19  1  0
M  CHG  2  38   1  40  -1
M  END
>  <Binding energies>  (55) 
[-9.21]

>  <Ligand effiencies>  (55) 
[-0.2192857142857143]

>  <Interactions>  (55) 
["V-B:PRO:540:CB:9857, V-A:ILE:369:CG2:3236, V-B:TYR:539:CE2:9848, V-B:TYR:539:CZ:9849, V-B:TYR:539:CD2:9846, V-B:PRO:540:CA:9855, V-B:PRO:540:C:9853, V-A:LEU:475:CD1:4257, H-B:ALA:541:N:9863, V-B:ALA:541:CA:9862, V-A:SER:385:CA:3406, V-B:ALA:541:CB:9864, V-B:GLU:543:CD:9880, V-B:GLU:543:CB:9878, V-A:GLU:543:CB:4906, V-A:HIS:456:CE1:4069, V-B:HIS:456:CE1:9041, H-A:TYR:484:OH:4347, V-A:GLU:543:C:4902, V-B:TYR:484:CE2:9317, V-B:GLU:543:CG:9879, V-A:GLU:543:CG:4907, V-A:ASP:366:CG:3212, V-A:ILE:369:CD1:3238, V-A:ASP:366:C:3207, V-A:TYR:484:CE2:4345, V-A:ASP:366:CB:3211, V-A:ASP:366:CA:3209, V-A:TYR:484:CZ:4346, V-A:ILE:369:CB:3235, V-B:LEU:363:CA:8156, V-B:LEU:363:CD1:8160, H-A:HIS:383:NE2:3393, H-A:SER:385:OG:3409"]

$$$$
RR8_B_Rahimova_2017
     RDKit          3D

 42 46  0  0  0  0  0  0  0  0999 V2000
  128.9870  126.8330   63.3010 O   0  0  0  0  0  0  0  0  0  0  0  0
  129.6720  125.8100   63.3960 C   0  0  0  0  0  0  0  0  0  0  0  0
  129.4050  124.6380   62.7420 O   0  0  0  0  0  0  0  0  0  0  0  0
  129.1080  123.5000   63.5140 C   0  0  2  0  0  0  0  0  0  0  0  0
  130.2600  122.9310   64.0690 O   0  0  0  0  0  0  0  0  0  0  0  0
  130.8100  121.9280   63.2160 C   0  0  2  0  0  0  0  0  0  0  0  0
  132.2600  122.2980   62.8570 C   0  0  0  0  0  0  0  0  0  0  0  0
  132.4040  122.3070   61.4420 O   0  0  0  0  0  0  0  0  0  0  0  0
  133.3200  123.2690   60.9410 C   0  0  0  0  0  0  0  0  0  0  0  0
  132.7160  123.9480   59.7210 C   0  0  0  0  0  0  0  0  0  0  0  0
  133.4050  123.9330   58.5050 C   0  0  0  0  0  0  0  0  0  0  0  0
  132.8700  124.5740   57.3910 C   0  0  0  0  0  0  0  0  0  0  0  0
  131.6430  125.2260   57.4960 C   0  0  0  0  0  0  0  0  0  0  0  0
  130.9460  125.2400   58.7030 C   0  0  0  0  0  0  0  0  0  0  0  0
  131.4840  124.6020   59.8180 C   0  0  0  0  0  0  0  0  0  0  0  0
  129.8350  121.8580   62.0350 C   0  0  1  0  0  0  0  0  0  0  0  0
  129.7250  120.5080   61.5750 O   0  0  0  0  0  0  0  0  0  0  0  0
  130.6310  119.5540   62.1370 C   0  0  0  0  0  0  0  0  0  0  0  0
  131.7680  119.2050   61.1810 C   0  0  0  0  0  0  0  0  0  0  0  0
  131.4910  118.5810   59.9610 C   0  0  0  0  0  0  0  0  0  0  0  0
  132.5270  118.2920   59.0770 C   0  0  0  0  0  0  0  0  0  0  0  0
  133.8370  118.6250   59.4180 C   0  0  0  0  0  0  0  0  0  0  0  0
  134.1200  119.2430   60.6340 C   0  0  0  0  0  0  0  0  0  0  0  0
  133.0830  119.5350   61.5170 C   0  0  0  0  0  0  0  0  0  0  0  0
  128.5350  122.4080   62.6110 C   0  0  2  0  0  0  0  0  0  0  0  0
  127.7000  122.9040   61.5680 O   0  0  0  0  0  0  0  0  0  0  0  0
  128.3750  123.3860   60.4170 C   0  0  0  0  0  0  0  0  0  0  0  0
  127.5410  123.0400   59.1960 C   0  0  0  0  0  0  0  0  0  0  0  0
  128.1050  122.3250   58.1350 C   0  0  0  0  0  0  0  0  0  0  0  0
  127.3360  122.0300   57.0120 C   0  0  0  0  0  0  0  0  0  0  0  0
  126.0090  122.4500   56.9530 C   0  0  0  0  0  0  0  0  0  0  0  0
  125.4400  123.1610   58.0090 C   0  0  0  0  0  0  0  0  0  0  0  0
  126.2080  123.4560   59.1310 C   0  0  0  0  0  0  0  0  0  0  0  0
  130.8810  125.7090   64.2810 C   0  0  0  0  0  0  0  0  0  0  0  0
  132.1520  125.4170   63.7650 C   0  0  0  0  0  0  0  0  0  0  0  0
  133.2530  125.3210   64.6100 C   0  0  0  0  0  0  0  0  0  0  0  0
  133.1100  125.5050   65.9910 C   0  0  0  0  0  0  0  0  0  0  0  0
  134.2810  125.3760   66.8930 N   0  0  0  0  0  0  0  0  0  0  0  0
  134.0840  125.2730   68.1010 O   0  0  0  0  0  0  0  0  0  0  0  0
  135.4060  125.3720   66.4000 O   0  0  0  0  0  0  0  0  0  0  0  0
  131.8410  125.8030   66.5040 C   0  0  0  0  0  0  0  0  0  0  0  0
  130.7410  125.9060   65.6600 C   0  0  0  0  0  0  0  0  0  0  0  0
  1  2  2  0
  2  3  1  0
  4  3  1  6
  4  5  1  0
  5  6  1  0
  6  7  1  6
  7  8  1  0
  8  9  1  0
  9 10  1  0
 10 11  2  0
 11 12  1  0
 12 13  2  0
 13 14  1  0
 14 15  2  0
  6 16  1  0
 16 17  1  1
 17 18  1  0
 18 19  1  0
 19 20  2  0
 20 21  1  0
 21 22  2  0
 22 23  1  0
 23 24  2  0
 16 25  1  0
 25 26  1  6
 26 27  1  0
 27 28  1  0
 28 29  2  0
 29 30  1  0
 30 31  2  0
 31 32  1  0
 32 33  2  0
  2 34  1  0
 34 35  2  0
 35 36  1  0
 36 37  2  0
 37 38  1  0
 38 39  2  0
 38 40  1  0
 37 41  1  0
 41 42  2  0
 25  4  1  0
 33 28  1  0
 42 34  1  0
 15 10  1  0
 24 19  1  0
M  CHG  2  38   1  40  -1
M  END
>  <Binding energies>  (56) 
[-10.18]

>  <Ligand effiencies>  (56) 
[-0.24238095238095236]

>  <Interactions>  (56) 
["V-B:PRO:540:CB:9857, V-A:ILE:369:CG2:3236, V-B:TYR:539:CE2:9848, V-B:PRO:540:N:9856, V-B:TYR:539:CZ:9849, V-B:TYR:539:CD2:9846, V-B:PRO:540:CA:9855, V-B:MET:535:CE:9807, V-A:LEU:475:CD1:4257, H-B:ALA:541:N:9863, V-A:SER:385:CB:3408, V-B:ALA:541:CA:9862, V-A:SER:385:CA:3406, V-A:SER:385:C:3404, V-B:TYR:539:C:9839, V-B:ALA:541:CB:9864, V-B:GLU:543:CD:9880, V-A:ARG:545:CD:4923, V-A:ARG:545:CZ:4926, V-A:HIS:456:CE1:4069, V-A:ARG:545:CG:4922, H-A:TYR:484:OH:4347, H-A:GLY:454:N:4049, V-B:GLU:543:CG:9879, V-A:ASP:366:CG:3212, V-A:ASP:366:C:3207, V-A:ASP:366:CB:3211, V-A:ASP:366:CA:3209, H-A:HIS:456:ND1:4066, V-A:TYR:484:CZ:4346, V-A:ILE:369:CB:3235, V-B:TYR:539:CA:9841, V-A:HIS:383:CD2:3391, V-A:ILE:455:C:4051, V-B:PRO:540:CD:9859, H-A:ARG:545:NE:4924, V-B:TYR:539:CG:9844, V-B:LEU:363:CD1:8160, H-A:ILE:455:N:4054"]

$$$$
RR9_Rahimova_2017
     RDKit          3D

 36 40  0  0  0  0  0  0  0  0999 V2000
  130.9790  127.8660   73.1560 C   0  0  0  0  0  0  0  0  0  0  0  0
  129.9440  128.2980   72.1120 C   0  0  0  0  0  0  0  0  0  0  0  0
  129.7380  127.2230   71.2000 O   0  0  0  0  0  0  0  0  0  0  0  0
  129.1310  127.4720   69.9850 C   0  0  0  0  0  0  0  0  0  0  0  0
  129.1290  128.7950   69.5480 C   0  0  0  0  0  0  0  0  0  0  0  0
  128.5380  129.1410   68.3370 C   0  0  0  0  0  0  0  0  0  0  0  0
  127.9300  128.1710   67.5270 C   0  0  0  0  0  0  0  0  0  0  0  0
  127.2860  128.5390   66.2230 C   0  0  0  0  0  0  0  0  0  0  0  0
  127.7320  128.0020   65.0050 C   0  0  0  0  0  0  0  0  0  0  0  0
  127.1180  128.3410   63.7860 C   0  0  0  0  0  0  0  0  0  0  0  0
  127.5760  127.6550   62.5270 C   0  0  0  0  0  0  0  0  0  0  0  0
  128.3280  128.2320   61.7420 O   0  0  0  0  0  0  0  0  0  0  0  0
  127.0910  126.4130   62.3280 N   0  0  0  0  0  0  0  0  0  0  0  0
  127.2850  125.5980   61.1240 C   0  0  0  0  0  0  0  0  0  0  0  0
  126.2260  124.4810   60.9720 C   0  0  0  0  0  0  0  0  0  0  0  0
  126.1580  123.8530   59.5850 C   0  0  0  0  0  0  0  0  0  0  0  0
  125.0390  124.0630   58.7730 C   0  0  0  0  0  0  0  0  0  0  0  0
  124.9950  123.5160   57.4930 C   0  0  0  0  0  0  0  0  0  0  0  0
  126.0680  122.7570   57.0310 C   0  0  0  0  0  0  0  0  0  0  0  0
  127.1850  122.5400   57.8350 C   0  0  0  0  0  0  0  0  0  0  0  0
  127.2290  123.0880   59.1150 C   0  0  0  0  0  0  0  0  0  0  0  0
  126.0540  129.2730   63.8580 C   0  0  0  0  0  0  0  0  0  0  0  0
  125.1490  129.9600   62.9660 C   0  0  0  0  0  0  0  0  0  0  0  0
  125.0960  129.9500   61.4740 C   0  0  0  0  0  0  0  0  0  0  0  0
  124.4040  130.9510   60.7870 C   0  0  0  0  0  0  0  0  0  0  0  0
  124.3430  130.9310   59.3960 C   0  0  0  0  0  0  0  0  0  0  0  0
  124.9780  129.9100   58.6870 C   0  0  0  0  0  0  0  0  0  0  0  0
  124.8960  129.8770   57.1710 C   0  0  0  0  0  0  0  0  0  0  0  0
  125.6680  128.9070   59.3690 C   0  0  0  0  0  0  0  0  0  0  0  0
  125.7300  128.9310   60.7590 C   0  0  0  0  0  0  0  0  0  0  0  0
  124.2980  130.6940   63.6490 N   0  0  0  0  0  0  0  0  0  0  0  0
  124.6120  130.5880   64.9500 N   0  0  0  0  0  0  0  0  0  0  0  0
  125.6810  129.7450   65.1390 C   0  0  0  0  0  0  0  0  0  0  0  0
  126.2510  129.4220   66.2990 N   0  0  0  0  0  0  0  0  0  0  0  0
  127.9330  126.8420   67.9740 C   0  0  0  0  0  0  0  0  0  0  0  0
  128.5250  126.4930   69.1860 C   0  0  0  0  0  0  0  0  0  0  0  0
  1  2  1  0
  2  3  1  0
  3  4  1  0
  4  5  2  0
  5  6  1  0
  6  7  2  0
  7  8  1  0
  8  9  2  0
  9 10  1  0
 10 11  1  0
 11 12  2  0
 11 13  1  0
 13 14  1  0
 14 15  1  0
 15 16  1  0
 16 17  2  0
 17 18  1  0
 18 19  2  0
 19 20  1  0
 20 21  2  0
 10 22  2  0
 22 23  1  0
 23 24  1  0
 24 25  2  0
 25 26  1  0
 26 27  2  0
 27 28  1  0
 27 29  1  0
 29 30  2  0
 23 31  2  0
 31 32  1  0
 32 33  1  0
 33 34  2  0
  7 35  1  0
 35 36  2  0
 36  4  1  0
 34  8  1  0
 21 16  1  0
 33 22  1  0
 30 24  1  0
M  END
>  <Binding energies>  (57) 
[-9.34]

>  <Ligand effiencies>  (57) 
[-0.24578947368421053]

>  <Interactions>  (57) 
["V-B:PRO:540:CB:9857, V-B:PRO:540:N:9856, V-B:PRO:540:CA:9855, V-B:MET:535:CE:9807, V-B:TYR:539:C:9839, V-B:GLU:543:CD:9880, V-B:GLU:543:CB:9878, V-A:GLU:543:CB:4906, H-B:TYR:484:OH:9319, V-A:HIS:456:CE1:4069, V-B:HIS:456:CE1:9041, H-B:GLY:454:N:9021, V-A:GLU:543:C:4902, V-B:TYR:484:CE2:9317, V-A:GLU:543:CD:4908, V-A:GLU:543:CG:4907, H-B:GLU:543:OE2:9882, V-A:LYS:547:CE:4950, H-A:HIS:456:ND1:4066, V-B:ASP:366:CB:8183, V-B:ASP:366:CA:8181, V-A:TYR:539:CE1:4875, V-B:ASP:366:CG:8184, V-B:ILE:369:CG2:8208, V-B:TYR:531:CZ:9766, V-B:TYR:531:CE2:9765, V-A:TYR:539:CZ:4877, V-B:LEU:363:CD1:8160, H-B:GLU:543:OE1:9881, H-B:ASP:366:OD1:8185, V-B:GLY:454:CA:9020, V-B:TYR:531:CE1:9764, V-B:ILE:369:CD1:8210, V-B:ILE:369:CB:8207"]

$$$$
