1a_Ghoteimi_2023
     RDKit          3D

 67 70  0  0  0  0  0  0  0  0999 V2000
  128.8530  131.4880   62.0690 C   0  0  0  0  0  0  0  0  0  0  0  0
  128.4590  132.3380   60.8580 C   0  0  0  0  0  0  0  0  0  0  0  0
  129.3930  132.1230   59.8070 O   0  0  0  0  0  0  0  0  0  0  0  0
  128.9960  131.6370   58.6030 C   0  0  0  0  0  0  0  0  0  0  0  0
  129.2690  132.1780   57.5270 O   0  0  0  0  0  0  0  0  0  0  0  0
  128.1930  130.3730   58.7100 C   0  0  0  0  0  0  0  0  0  0  0  0
  126.9020  130.2650   58.1720 C   0  0  0  0  0  0  0  0  0  0  0  0
  126.1800  129.0810   58.2900 C   0  0  0  0  0  0  0  0  0  0  0  0
  126.7410  127.9760   58.9470 C   0  0  0  0  0  0  0  0  0  0  0  0
  126.1010  126.7340   59.1280 N   0  0  0  0  0  0  0  0  0  0  0  0
  126.5700  125.4830   58.9330 C   0  0  0  0  0  0  0  0  0  0  0  0
  127.7060  125.1940   58.5560 O   0  0  0  0  0  0  0  0  0  0  0  0
  125.5770  124.3570   59.2210 C   0  0  0  0  0  0  0  0  0  0  0  0
  125.5950  123.8770   60.9740 S   0  0  0  0  0  0  0  0  0  0  0  0
  126.6530  125.0460   61.7960 C   0  0  0  0  0  0  0  0  0  0  0  0
  126.1320  126.2930   61.8830 N   0  0  0  0  0  0  0  0  0  0  0  0
  126.8400  127.2790   62.4940 C   0  0  0  0  0  0  0  0  0  0  0  0
  126.1860  128.6290   62.5690 C   0  0  0  0  0  0  0  0  0  0  0  0
  125.3770  129.1060   61.5250 C   0  0  0  0  0  0  0  0  0  0  0  0
  124.7710  130.3570   61.5970 C   0  0  0  0  0  0  0  0  0  0  0  0
  124.9560  131.1710   62.7110 C   0  0  0  0  0  0  0  0  0  0  0  0
  124.3150  132.3950   62.6980 O   0  0  0  0  0  0  0  0  0  0  0  0
  124.6400  133.3380   61.6830 C   0  0  0  0  0  0  0  0  0  0  0  0
  125.7640  130.7110   63.7600 C   0  0  0  0  0  0  0  0  0  0  0  0
  126.3680  129.4600   63.6850 C   0  0  0  0  0  0  0  0  0  0  0  0
  128.1050  127.0180   63.0350 C   0  0  0  0  0  0  0  0  0  0  0  0
  128.6750  125.7420   62.9350 C   0  0  0  0  0  0  0  0  0  0  0  0
  130.0420  125.5450   63.5060 C   0  0  0  0  0  0  0  0  0  0  0  0
  131.1380  125.2980   62.6730 C   0  0  0  0  0  0  0  0  0  0  0  0
  132.4110  125.1300   63.2120 C   0  0  0  0  0  0  0  0  0  0  0  0
  132.6140  125.2130   64.5900 C   0  0  0  0  0  0  0  0  0  0  0  0
  133.9100  125.0340   65.0320 O   0  0  0  0  0  0  0  0  0  0  0  0
  134.2310  125.3470   66.3830 C   0  0  0  0  0  0  0  0  0  0  0  0
  131.5180  125.4680   65.4270 C   0  0  0  0  0  0  0  0  0  0  0  0
  130.2460  125.6350   64.8860 C   0  0  0  0  0  0  0  0  0  0  0  0
  127.9300  124.7180   62.3010 C   0  0  0  0  0  0  0  0  0  0  0  0
  128.4670  123.3590   62.1800 C   0  0  0  0  0  0  0  0  0  0  0  0
  128.8920  122.2870   62.0850 N   0  0  0  0  0  0  0  0  0  0  0  0
  128.0230  128.0800   59.4870 C   0  0  0  0  0  0  0  0  0  0  0  0
  128.7440  129.2660   59.3690 C   0  0  0  0  0  0  0  0  0  0  0  0
  128.6024  132.0287   62.9936 H   0  0  0  0  0  0  0  0  0  0  0  0
  128.3050  130.5346   62.0417 H   0  0  0  0  0  0  0  0  0  0  0  0
  129.9347  131.2900   62.0417 H   0  0  0  0  0  0  0  0  0  0  0  0
  127.4527  132.0505   60.5194 H   0  0  0  0  0  0  0  0  0  0  0  0
  128.4600  133.4015   61.1391 H   0  0  0  0  0  0  0  0  0  0  0  0
  126.4556  131.1251   57.6514 H   0  0  0  0  0  0  0  0  0  0  0  0
  125.1670  129.0116   57.8670 H   0  0  0  0  0  0  0  0  0  0  0  0
  125.1610  126.8050   59.4880 H   0  0  0  0  0  0  0  0  0  0  0  0
  124.5653  124.6971   58.9549 H   0  0  0  0  0  0  0  0  0  0  0  0
  125.8685  123.4812   58.6226 H   0  0  0  0  0  0  0  0  0  0  0  0
  125.2194  128.4799   60.6344 H   0  0  0  0  0  0  0  0  0  0  0  0
  124.1401  130.7056   60.7660 H   0  0  0  0  0  0  0  0  0  0  0  0
  124.9648  134.2803   62.1484 H   0  0  0  0  0  0  0  0  0  0  0  0
  125.4524  132.9387   61.0580 H   0  0  0  0  0  0  0  0  0  0  0  0
  123.7541  133.5240   61.0580 H   0  0  0  0  0  0  0  0  0  0  0  0
  125.9213  131.3423   64.6469 H   0  0  0  0  0  0  0  0  0  0  0  0
  127.0004  129.1156   64.5165 H   0  0  0  0  0  0  0  0  0  0  0  0
  128.6565  127.8226   63.5434 H   0  0  0  0  0  0  0  0  0  0  0  0
  130.9934  125.2360   61.5843 H   0  0  0  0  0  0  0  0  0  0  0  0
  133.2634  124.9302   62.5460 H   0  0  0  0  0  0  0  0  0  0  0  0
  133.6089  124.7405   67.0577 H   0  0  0  0  0  0  0  0  0  0  0  0
  135.2931  125.1282   66.5677 H   0  0  0  0  0  0  0  0  0  0  0  0
  134.0390  126.4143   66.5677 H   0  0  0  0  0  0  0  0  0  0  0  0
  131.6639  125.5363   66.5151 H   0  0  0  0  0  0  0  0  0  0  0  0
  129.3937  125.8396   65.5506 H   0  0  0  0  0  0  0  0  0  0  0  0
  128.4674  127.2200   60.0093 H   0  0  0  0  0  0  0  0  0  0  0  0
  129.7550  129.3341   59.7970 H   0  0  0  0  0  0  0  0  0  0  0  0
  1  2  1  0
  2  3  1  0
  3  4  1  0
  4  5  2  0
  4  6  1  0
  6  7  2  0
  7  8  1  0
  8  9  2  0
  9 10  1  0
 10 11  1  0
 11 12  2  0
 11 13  1  0
 13 14  1  0
 14 15  1  0
 15 16  2  0
 16 17  1  0
 17 18  1  0
 18 19  2  0
 19 20  1  0
 20 21  2  0
 21 22  1  0
 22 23  1  0
 21 24  1  0
 24 25  2  0
 17 26  2  0
 26 27  1  0
 27 28  1  0
 28 29  2  0
 29 30  1  0
 30 31  2  0
 31 32  1  0
 32 33  1  0
 31 34  1  0
 34 35  2  0
 27 36  2  0
 36 37  1  0
 37 38  3  0
  9 39  1  0
 39 40  2  0
 40  6  1  0
 36 15  1  0
 25 18  1  0
 35 28  1  0
  1 41  1  0
  1 42  1  0
  1 43  1  0
  2 44  1  0
  2 45  1  0
  7 46  1  0
  8 47  1  0
 10 48  1  0
 13 49  1  0
 13 50  1  0
 19 51  1  0
 20 52  1  0
 23 53  1  0
 23 54  1  0
 23 55  1  0
 24 56  1  0
 25 57  1  0
 26 58  1  0
 29 59  1  0
 30 60  1  0
 33 61  1  0
 33 62  1  0
 33 63  1  0
 34 64  1  0
 35 65  1  0
 39 66  1  0
 40 67  1  0
M  END
>  <Binding energies>  (1) 
[-7.41]

>  <Ligand effiencies>  (1) 
[-0.18073170731707316]

>  <Interactions>  (1) 
["H-B:ALA:541:N:9863, V-B:GLU:543:CD:9880, V-A:ARG:545:CD:4923, V-A:ARG:545:CZ:4926, V-A:GLY:453:CA:4043, V-A:ARG:545:CG:4922, H-B:ARG:545:NH2:9900, H-B:GLY:454:N:9021, H-A:TYR:484:OH:4347, H-A:ALA:541:N:4891, H-A:GLY:454:N:4049, V-A:ALA:541:CB:4892, V-B:ASP:366:CB:8183, V-A:TYR:539:CE1:4875, V-B:ASP:366:CG:8184, V-B:ILE:369:CG2:8208, V-A:TYR:539:C:4867, H-A:ARG:545:NH2:4928, V-A:TYR:539:CD1:4873, H-A:ARG:545:NE:4924, V-B:LEU:475:CD1:9229, H-B:ASP:366:OD1:8185, H-B:ASP:366:OD2:8186, V-B:ILE:369:CD1:8210"]

$$$$
1a_Grossjean_2025
     RDKit          3D

 45 46  0  0  0  0  0  0  0  0999 V2000
  128.2380  128.7000   67.3690 C   0  0  0  0  0  0  0  0  0  0  0  0
  129.1570  128.5750   68.5870 C   0  0  0  0  0  0  0  0  0  0  0  0
  130.1450  127.5840   68.3360 O   0  0  0  0  0  0  0  0  0  0  0  0
  129.7990  126.2870   68.1270 C   0  0  0  0  0  0  0  0  0  0  0  0
  129.0870  125.6400   68.9010 O   0  0  0  0  0  0  0  0  0  0  0  0
  130.3850  125.7120   66.8700 C   0  0  0  0  0  0  0  0  0  0  0  0
  131.6600  126.1220   66.4590 C   0  0  0  0  0  0  0  0  0  0  0  0
  132.2280  125.6110   65.2960 C   0  0  0  0  0  0  0  0  0  0  0  0
  131.5340  124.6830   64.5180 C   0  0  0  0  0  0  0  0  0  0  0  0
  132.2020  124.2350   63.3620 N   0  0  0  0  0  0  0  0  0  0  0  0
  133.4880  124.3980   62.9840 C   0  0  0  0  0  0  0  0  0  0  0  0
  134.3500  125.0010   63.6230 O   0  0  0  0  0  0  0  0  0  0  0  0
  133.8620  123.7660   61.6420 C   0  0  0  0  0  0  0  0  0  0  0  0
  134.0970  121.9680   61.7730 S   0  0  0  0  0  0  0  0  0  0  0  0
  132.4980  121.2070   61.6030 C   0  0  0  0  0  0  0  0  0  0  0  0
  131.4690  122.0010   61.9910 N   0  0  0  0  0  0  0  0  0  0  0  0
  130.2070  121.5180   61.9070 C   0  0  0  0  0  0  0  0  0  0  0  0
  129.1090  122.4580   62.3710 C   0  0  0  0  0  0  0  0  0  0  0  0
  129.9200  120.2420   61.4290 C   0  0  0  0  0  0  0  0  0  0  0  0
  130.9720  119.4220   61.0070 C   0  0  0  0  0  0  0  0  0  0  0  0
  130.6330  118.0320   60.4720 C   0  0  0  0  0  0  0  0  0  0  0  0
  132.2990  119.9060   61.0810 C   0  0  0  0  0  0  0  0  0  0  0  0
  133.4120  119.0840   60.5990 C   0  0  0  0  0  0  0  0  0  0  0  0
  134.2890  118.4330   60.2180 N   0  0  0  0  0  0  0  0  0  0  0  0
  130.2600  124.2600   64.9260 C   0  0  0  0  0  0  0  0  0  0  0  0
  129.6930  124.7720   66.0890 C   0  0  0  0  0  0  0  0  0  0  0  0
  127.2003  128.8411   67.7056 H   0  0  0  0  0  0  0  0  0  0  0  0
  128.5477  129.5643   66.7631 H   0  0  0  0  0  0  0  0  0  0  0  0
  128.3056  127.7844   66.7631 H   0  0  0  0  0  0  0  0  0  0  0  0
  129.6470  129.5413   68.7772 H   0  0  0  0  0  0  0  0  0  0  0  0
  128.5628  128.2856   69.4663 H   0  0  0  0  0  0  0  0  0  0  0  0
  132.2173  126.8547   67.0612 H   0  0  0  0  0  0  0  0  0  0  0  0
  133.2311  125.9408   64.9876 H   0  0  0  0  0  0  0  0  0  0  0  0
  131.6260  123.6830   62.7440 H   0  0  0  0  0  0  0  0  0  0  0  0
  133.0574  123.9666   60.9192 H   0  0  0  0  0  0  0  0  0  0  0  0
  134.8140  124.2085   61.3134 H   0  0  0  0  0  0  0  0  0  0  0  0
  129.0846  122.4789   63.4705 H   0  0  0  0  0  0  0  0  0  0  0  0
  129.3075  123.4704   61.9893 H   0  0  0  0  0  0  0  0  0  0  0  0
  128.1393  122.1058   61.9893 H   0  0  0  0  0  0  0  0  0  0  0  0
  128.8809  119.8839   61.3839 H   0  0  0  0  0  0  0  0  0  0  0  0
  130.4656  117.3454   61.3150 H   0  0  0  0  0  0  0  0  0  0  0  0
  129.7221  118.0876   59.8579 H   0  0  0  0  0  0  0  0  0  0  0  0
  131.4672  117.6620   59.8579 H   0  0  0  0  0  0  0  0  0  0  0  0
  129.7082  123.5220   64.3252 H   0  0  0  0  0  0  0  0  0  0  0  0
  128.6924  124.4370   66.3999 H   0  0  0  0  0  0  0  0  0  0  0  0
  1  2  1  0
  2  3  1  0
  3  4  1  0
  4  5  2  0
  4  6  1  0
  6  7  2  0
  7  8  1  0
  8  9  2  0
  9 10  1  0
 10 11  1  0
 11 12  2  0
 11 13  1  0
 13 14  1  0
 14 15  1  0
 15 16  2  0
 16 17  1  0
 17 18  1  0
 17 19  2  0
 19 20  1  0
 20 21  1  0
 20 22  2  0
 22 23  1  0
 23 24  3  0
  9 25  1  0
 25 26  2  0
 26  6  1  0
 22 15  1  0
  1 27  1  0
  1 28  1  0
  1 29  1  0
  2 30  1  0
  2 31  1  0
  7 32  1  0
  8 33  1  0
 10 34  1  0
 13 35  1  0
 13 36  1  0
 18 37  1  0
 18 38  1  0
 18 39  1  0
 19 40  1  0
 21 41  1  0
 21 42  1  0
 21 43  1  0
 25 44  1  0
 26 45  1  0
M  END
>  <Binding energies>  (1) 
[-7.34]

>  <Ligand effiencies>  (1) 
[-0.27185185185185184]

>  <Interactions>  (1) 
["V-A:ILE:369:CG2:3236, V-B:TYR:539:CD2:9846, V-A:PRO:482:CG:4326, V-B:PRO:540:C:9853, V-A:LEU:475:CD1:4257, V-B:ALA:541:CA:9862, V-A:SER:385:CA:3406, V-B:TYR:539:C:9839, V-B:ALA:541:CB:9864, V-B:GLU:543:CD:9880, V-A:ARG:545:CZ:4926, V-B:GLU:543:CB:9878, V-A:GLU:543:CB:4906, V-A:HIS:456:CE1:4069, V-B:HIS:456:CE1:9041, H-A:GLY:454:N:4049, V-A:GLU:543:C:4902, V-B:GLU:543:CG:9879, V-A:GLU:543:CD:4908, V-A:GLU:543:CG:4907, H-A:ARG:545:NH1:4927, V-A:ILE:369:CD1:3238, V-A:TYR:484:CE2:4345, V-A:TYR:484:CZ:4346, H-A:ARG:545:NH2:4928, H-A:HIS:383:NE2:3393, H-A:SER:385:OG:3409"]

$$$$
1aa_Ghoteimi_2023
     RDKit          3D

 67 70  0  0  0  0  0  0  0  0999 V2000
  133.5670  130.6220   58.8570 C   0  0  0  0  0  0  0  0  0  0  0  0
  132.6760  130.9010   57.6430 C   0  0  0  0  0  0  0  0  0  0  0  0
  131.6460  131.8100   58.0100 O   0  0  0  0  0  0  0  0  0  0  0  0
  130.4990  131.8990   57.2890 C   0  0  0  0  0  0  0  0  0  0  0  0
  130.2530  132.8270   56.5130 O   0  0  0  0  0  0  0  0  0  0  0  0
  129.5570  130.7540   57.5290 C   0  0  0  0  0  0  0  0  0  0  0  0
  128.8300  130.6280   58.7220 C   0  0  0  0  0  0  0  0  0  0  0  0
  127.9630  129.5550   58.9160 C   0  0  0  0  0  0  0  0  0  0  0  0
  127.8050  128.5880   57.9130 C   0  0  0  0  0  0  0  0  0  0  0  0
  126.9610  127.4650   57.9980 N   0  0  0  0  0  0  0  0  0  0  0  0
  125.6130  127.3850   58.0790 C   0  0  0  0  0  0  0  0  0  0  0  0
  124.8510  128.3520   58.0870 O   0  0  0  0  0  0  0  0  0  0  0  0
  124.9940  125.9810   58.1640 C   0  0  0  0  0  0  0  0  0  0  0  0
  126.0170  124.9780   58.1130 O   0  0  0  0  0  0  0  0  0  0  0  0
  126.8920  124.8120   59.1780 C   0  0  0  0  0  0  0  0  0  0  0  0
  126.8660  125.7360   60.1780 N   0  0  0  0  0  0  0  0  0  0  0  0
  127.7170  125.6160   61.2310 C   0  0  0  0  0  0  0  0  0  0  0  0
  127.6240  126.6730   62.2930 C   0  0  0  0  0  0  0  0  0  0  0  0
  126.6970  127.7210   62.1890 C   0  0  0  0  0  0  0  0  0  0  0  0
  126.6100  128.7040   63.1710 C   0  0  0  0  0  0  0  0  0  0  0  0
  127.4440  128.6700   64.2870 C   0  0  0  0  0  0  0  0  0  0  0  0
  127.2870  129.6870   65.2090 O   0  0  0  0  0  0  0  0  0  0  0  0
  127.5560  129.4260   66.5820 C   0  0  0  0  0  0  0  0  0  0  0  0
  128.3720  127.6260   64.4070 C   0  0  0  0  0  0  0  0  0  0  0  0
  128.4560  126.6450   63.4240 C   0  0  0  0  0  0  0  0  0  0  0  0
  128.6080  124.5390   61.3080 C   0  0  0  0  0  0  0  0  0  0  0  0
  128.6480  123.5690   60.2980 C   0  0  0  0  0  0  0  0  0  0  0  0
  129.6140  122.4390   60.4440 C   0  0  0  0  0  0  0  0  0  0  0  0
  129.2390  121.2770   61.1260 C   0  0  0  0  0  0  0  0  0  0  0  0
  130.1300  120.2160   61.2580 C   0  0  0  0  0  0  0  0  0  0  0  0
  131.4100  120.2920   60.7090 C   0  0  0  0  0  0  0  0  0  0  0  0
  132.2260  119.1910   60.8900 O   0  0  0  0  0  0  0  0  0  0  0  0
  133.6260  119.3230   60.6770 C   0  0  0  0  0  0  0  0  0  0  0  0
  131.7870  121.4520   60.0170 C   0  0  0  0  0  0  0  0  0  0  0  0
  130.8950  122.5130   59.8860 C   0  0  0  0  0  0  0  0  0  0  0  0
  127.7700  123.7160   59.1980 C   0  0  0  0  0  0  0  0  0  0  0  0
  127.7700  122.7770   58.0750 C   0  0  0  0  0  0  0  0  0  0  0  0
  127.7680  122.0360   57.1860 N   0  0  0  0  0  0  0  0  0  0  0  0
  128.5280  128.7090   56.7260 C   0  0  0  0  0  0  0  0  0  0  0  0
  129.3950  129.7810   56.5340 C   0  0  0  0  0  0  0  0  0  0  0  0
  132.9958  130.8009   59.7799 H   0  0  0  0  0  0  0  0  0  0  0  0
  133.9042  129.5753   58.8315 H   0  0  0  0  0  0  0  0  0  0  0  0
  134.4410  131.2895   58.8315 H   0  0  0  0  0  0  0  0  0  0  0  0
  133.2819  131.3396   56.8365 H   0  0  0  0  0  0  0  0  0  0  0  0
  132.2269  129.9596   57.2936 H   0  0  0  0  0  0  0  0  0  0  0  0
  128.9457  131.3842   59.5124 H   0  0  0  0  0  0  0  0  0  0  0  0
  127.4014  129.4662   59.8577 H   0  0  0  0  0  0  0  0  0  0  0  0
  127.4520  126.5810   57.9900 H   0  0  0  0  0  0  0  0  0  0  0  0
  124.4405  125.8859   59.1098 H   0  0  0  0  0  0  0  0  0  0  0  0
  124.3139  125.8395   57.3111 H   0  0  0  0  0  0  0  0  0  0  0  0
  126.0279  127.7667   61.3171 H   0  0  0  0  0  0  0  0  0  0  0  0
  125.8754  129.5159   63.0649 H   0  0  0  0  0  0  0  0  0  0  0  0
  126.9073  130.0554   67.2088 H   0  0  0  0  0  0  0  0  0  0  0  0
  127.3589  128.3658   66.7992 H   0  0  0  0  0  0  0  0  0  0  0  0
  128.6098  129.6550   66.7992 H   0  0  0  0  0  0  0  0  0  0  0  0
  129.0367  127.5823   65.2823 H   0  0  0  0  0  0  0  0  0  0  0  0
  129.1883  125.8317   63.5349 H   0  0  0  0  0  0  0  0  0  0  0  0
  129.2843  124.4534   62.1713 H   0  0  0  0  0  0  0  0  0  0  0  0
  128.2318  121.2010   61.5616 H   0  0  0  0  0  0  0  0  0  0  0  0
  129.8221  119.3096   61.8000 H   0  0  0  0  0  0  0  0  0  0  0  0
  134.1416  119.3716   61.6475 H   0  0  0  0  0  0  0  0  0  0  0  0
  133.9939  118.4556   60.1094 H   0  0  0  0  0  0  0  0  0  0  0  0
  133.8253  120.2439   60.1094 H   0  0  0  0  0  0  0  0  0  0  0  0
  132.7920  121.5240   59.5757 H   0  0  0  0  0  0  0  0  0  0  0  0
  131.2000  123.4173   59.3390 H   0  0  0  0  0  0  0  0  0  0  0  0
  128.4121  127.9520   55.9363 H   0  0  0  0  0  0  0  0  0  0  0  0
  129.9579  129.8649   55.5927 H   0  0  0  0  0  0  0  0  0  0  0  0
  1  2  1  0
  2  3  1  0
  3  4  1  0
  4  5  2  0
  4  6  1  0
  6  7  2  0
  7  8  1  0
  8  9  2  0
  9 10  1  0
 10 11  1  0
 11 12  2  0
 11 13  1  0
 13 14  1  0
 14 15  1  0
 15 16  2  0
 16 17  1  0
 17 18  1  0
 18 19  2  0
 19 20  1  0
 20 21  2  0
 21 22  1  0
 22 23  1  0
 21 24  1  0
 24 25  2  0
 17 26  2  0
 26 27  1  0
 27 28  1  0
 28 29  2  0
 29 30  1  0
 30 31  2  0
 31 32  1  0
 32 33  1  0
 31 34  1  0
 34 35  2  0
 27 36  2  0
 36 37  1  0
 37 38  3  0
  9 39  1  0
 39 40  2  0
 40  6  1  0
 36 15  1  0
 25 18  1  0
 35 28  1  0
  1 41  1  0
  1 42  1  0
  1 43  1  0
  2 44  1  0
  2 45  1  0
  7 46  1  0
  8 47  1  0
 10 48  1  0
 13 49  1  0
 13 50  1  0
 19 51  1  0
 20 52  1  0
 23 53  1  0
 23 54  1  0
 23 55  1  0
 24 56  1  0
 25 57  1  0
 26 58  1  0
 29 59  1  0
 30 60  1  0
 33 61  1  0
 33 62  1  0
 33 63  1  0
 34 64  1  0
 35 65  1  0
 39 66  1  0
 40 67  1  0
M  END
>  <Binding energies>  (1) 
[-6.67]

>  <Ligand effiencies>  (1) 
[-0.1626829268292683]

>  <Interactions>  (1) 
["V-A:ILE:369:CG2:3236, V-B:TYR:539:CE2:9848, V-B:PRO:540:N:9856, V-B:TYR:539:CD2:9846, V-B:PRO:540:CA:9855, V-B:PRO:540:C:9853, V-B:MET:535:CE:9807, H-B:TYR:539:N:9842, H-B:TYR:531:OH:9767, V-B:ALA:541:CA:9862, V-A:SER:385:CA:3406, V-A:SER:385:C:3404, V-B:TYR:539:C:9839, V-B:ALA:541:CB:9864, V-B:GLU:543:CD:9880, V-B:HIS:456:CE1:9041, V-B:TYR:484:CE2:9317, V-A:GLU:543:CD:4908, V-A:GLU:543:CG:4907, V-A:ASP:366:CG:3212, V-A:ASP:366:CB:3211, V-B:ASP:366:CB:8183, V-B:ASP:366:CG:8184, V-A:TYR:539:C:4867, H-A:TYR:539:N:4870, V-A:PRO:540:CA:4883, V-B:TYR:531:CZ:9766, V-B:TYR:531:CE2:9765, V-A:PRO:540:CB:4885, V-A:PRO:540:N:4884, V-A:ASN:362:C:3171, V-A:LEU:363:CD1:3188, V-A:LEU:363:CA:3184, V-A:LEU:363:CB:3186"]

$$$$
1b_Ghoteimi_2023
     RDKit          3D

 54 57  0  0  0  0  0  0  0  0999 V2000
  125.7770  123.2520   57.8590 C   0  0  0  0  0  0  0  0  0  0  0  0
  126.7860  122.3680   58.3330 O   0  0  0  0  0  0  0  0  0  0  0  0
  127.6300  122.7880   59.3420 C   0  0  0  0  0  0  0  0  0  0  0  0
  128.9910  122.8180   59.0470 C   0  0  0  0  0  0  0  0  0  0  0  0
  129.9170  123.2270   60.0020 C   0  0  0  0  0  0  0  0  0  0  0  0
  129.5080  123.6220   61.2850 C   0  0  0  0  0  0  0  0  0  0  0  0
  130.5100  124.0610   62.3150 C   0  0  0  0  0  0  0  0  0  0  0  0
  130.1440  124.5430   63.5770 C   0  0  0  0  0  0  0  0  0  0  0  0
  131.1190  124.9350   64.5030 C   0  0  0  0  0  0  0  0  0  0  0  0
  130.6550  125.4450   65.8280 C   0  0  0  0  0  0  0  0  0  0  0  0
  131.3270  126.4980   66.4530 C   0  0  0  0  0  0  0  0  0  0  0  0
  130.9040  126.9710   67.6920 C   0  0  0  0  0  0  0  0  0  0  0  0
  129.8050  126.3980   68.3320 C   0  0  0  0  0  0  0  0  0  0  0  0
  129.4570  126.9310   69.5590 O   0  0  0  0  0  0  0  0  0  0  0  0
  129.2780  128.3380   69.6780 C   0  0  0  0  0  0  0  0  0  0  0  0
  129.1320  125.3350   67.7120 C   0  0  0  0  0  0  0  0  0  0  0  0
  129.5580  124.8640   66.4730 C   0  0  0  0  0  0  0  0  0  0  0  0
  132.4820  124.8210   64.1360 C   0  0  0  0  0  0  0  0  0  0  0  0
  133.5410  125.1280   65.1030 C   0  0  0  0  0  0  0  0  0  0  0  0
  134.3760  125.3700   65.8670 N   0  0  0  0  0  0  0  0  0  0  0  0
  132.7830  124.3470   62.8400 C   0  0  0  0  0  0  0  0  0  0  0  0
  134.4350  124.1470   62.2060 S   0  0  0  0  0  0  0  0  0  0  0  0
  134.3900  122.8510   60.9220 C   0  0  0  0  0  0  0  0  0  0  0  0
  133.8250  121.5000   61.3810 C   0  0  0  0  0  0  0  0  0  0  0  0
  134.1930  120.9910   62.4430 O   0  0  0  0  0  0  0  0  0  0  0  0
  132.9240  120.9490   60.5370 N   0  0  0  0  0  0  0  0  0  0  0  0
  132.2520  119.7420   60.6940 C   0  0  0  0  0  0  0  0  0  0  0  0
  130.9200  119.6600   61.0950 C   0  0  0  0  0  0  0  0  0  0  0  0
  130.6390  118.3130   61.1270 C   0  0  0  0  0  0  0  0  0  0  0  0
  131.7450  117.6210   60.7620 O   0  0  0  0  0  0  0  0  0  0  0  0
  132.7600  118.5380   60.4890 N   0  0  0  0  0  0  0  0  0  0  0  0
  131.8200  123.9610   61.9680 N   0  0  0  0  0  0  0  0  0  0  0  0
  128.1340  123.5870   61.5730 C   0  0  0  0  0  0  0  0  0  0  0  0
  127.2060  123.1770   60.6200 C   0  0  0  0  0  0  0  0  0  0  0  0
  125.2571  123.7075   58.7147 H   0  0  0  0  0  0  0  0  0  0  0  0
  126.2388  124.0415   57.2479 H   0  0  0  0  0  0  0  0  0  0  0  0
  125.0550  122.6904   57.2479 H   0  0  0  0  0  0  0  0  0  0  0  0
  129.3377  122.5150   58.0480 H   0  0  0  0  0  0  0  0  0  0  0  0
  130.9869  123.2409   59.7470 H   0  0  0  0  0  0  0  0  0  0  0  0
  129.0794  124.6147   63.8444 H   0  0  0  0  0  0  0  0  0  0  0  0
  132.1977  126.9573   65.9621 H   0  0  0  0  0  0  0  0  0  0  0  0
  131.4408  127.8035   68.1703 H   0  0  0  0  0  0  0  0  0  0  0  0
  129.2428  128.6144   70.7421 H   0  0  0  0  0  0  0  0  0  0  0  0
  130.1174  128.8568   69.1919 H   0  0  0  0  0  0  0  0  0  0  0  0
  128.3355  128.6301   69.1919 H   0  0  0  0  0  0  0  0  0  0  0  0
  128.2651  124.8721   68.2061 H   0  0  0  0  0  0  0  0  0  0  0  0
  129.0268  124.0268   65.9966 H   0  0  0  0  0  0  0  0  0  0  0  0
  133.7684  123.2159   60.0910 H   0  0  0  0  0  0  0  0  0  0  0  0
  135.4361  122.6650   60.6373 H   0  0  0  0  0  0  0  0  0  0  0  0
  132.6960  121.4680   59.7020 H   0  0  0  0  0  0  0  0  0  0  0  0
  130.2405  120.4914   61.3341 H   0  0  0  0  0  0  0  0  0  0  0  0
  129.6714  117.8694   61.4045 H   0  0  0  0  0  0  0  0  0  0  0  0
  127.7843  123.8895   62.5711 H   0  0  0  0  0  0  0  0  0  0  0  0
  126.1352  123.1582   60.8710 H   0  0  0  0  0  0  0  0  0  0  0  0
  1  2  1  0
  2  3  1  0
  3  4  2  0
  4  5  1  0
  5  6  2  0
  6  7  1  0
  7  8  2  0
  8  9  1  0
  9 10  1  0
 10 11  2  0
 11 12  1  0
 12 13  2  0
 13 14  1  0
 14 15  1  0
 13 16  1  0
 16 17  2  0
  9 18  2  0
 18 19  1  0
 19 20  3  0
 18 21  1  0
 21 22  1  0
 22 23  1  0
 23 24  1  0
 24 25  2  0
 24 26  1  0
 26 27  1  0
 27 28  1  0
 28 29  2  0
 29 30  1  0
 30 31  1  0
 21 32  2  0
  6 33  1  0
 33 34  2  0
 34  3  1  0
 32  7  1  0
 17 10  1  0
 31 27  2  0
  1 35  1  0
  1 36  1  0
  1 37  1  0
  4 38  1  0
  5 39  1  0
  8 40  1  0
 11 41  1  0
 12 42  1  0
 15 43  1  0
 15 44  1  0
 15 45  1  0
 16 46  1  0
 17 47  1  0
 23 48  1  0
 23 49  1  0
 26 50  1  0
 28 51  1  0
 29 52  1  0
 33 53  1  0
 34 54  1  0
M  END
>  <Binding energies>  (1) 
[-8.62]

>  <Ligand effiencies>  (1) 
[-0.24628571428571427]

>  <Interactions>  (1) 
["V-B:PRO:540:CB:9857, V-A:ILE:369:CG2:3236, V-B:TYR:539:CE2:9848, V-B:PRO:540:N:9856, V-B:TYR:539:CD2:9846, V-B:PRO:540:CA:9855, V-A:PRO:482:CG:4326, V-A:PRO:482:CB:4325, V-A:LEU:475:CD1:4257, V-B:TYR:539:C:9839, V-B:GLU:543:CD:9880, V-A:ARG:545:CZ:4926, V-B:GLU:543:CB:9878, V-A:GLU:543:CB:4906, V-A:HIS:456:CE1:4069, V-B:HIS:456:CE1:9041, H-A:TYR:484:OH:4347, H-A:GLY:454:N:4049, V-A:GLU:543:C:4902, V-B:GLU:543:CG:9879, V-A:GLU:543:CD:4908, H-A:ARG:545:NH1:4927, V-A:ILE:369:CD1:3238, V-A:TYR:484:CE2:4345, V-B:GLU:543:CA:9876, V-A:TYR:484:CZ:4346, V-A:ILE:369:CB:3235, H-A:ARG:545:NE:4924, V-B:LEU:363:CD1:8160, H-A:HIS:383:NE2:3393, H-A:SER:385:OG:3409, V-A:ILE:369:CG1:3237"]

$$$$
1b_Grossjean_2025
     RDKit          3D

 42 43  0  0  0  0  0  0  0  0999 V2000
  125.1090  124.0980   57.9600 C   0  0  0  0  0  0  0  0  0  0  0  0
  126.1340  123.8610   57.0040 O   0  0  0  0  0  0  0  0  0  0  0  0
  126.9040  122.7450   57.0690 C   0  0  0  0  0  0  0  0  0  0  0  0
  126.5590  121.6520   56.6080 O   0  0  0  0  0  0  0  0  0  0  0  0
  128.2230  122.9720   57.7510 C   0  0  0  0  0  0  0  0  0  0  0  0
  128.5710  122.3070   58.9360 C   0  0  0  0  0  0  0  0  0  0  0  0
  129.8010  122.5420   59.5430 C   0  0  0  0  0  0  0  0  0  0  0  0
  130.7080  123.4400   58.9820 C   0  0  0  0  0  0  0  0  0  0  0  0
  131.9190  123.6000   59.6820 N   0  0  0  0  0  0  0  0  0  0  0  0
  133.1890  123.6530   59.2230 C   0  0  0  0  0  0  0  0  0  0  0  0
  133.5270  123.5730   58.0430 O   0  0  0  0  0  0  0  0  0  0  0  0
  134.2650  123.8410   60.2940 C   0  0  0  0  0  0  0  0  0  0  0  0
  134.3770  122.4110   61.4120 S   0  0  0  0  0  0  0  0  0  0  0  0
  132.7730  122.1900   62.1530 C   0  0  0  0  0  0  0  0  0  0  0  0
  132.0420  121.1980   61.5860 N   0  0  0  0  0  0  0  0  0  0  0  0
  130.8050  120.9430   62.0740 C   0  0  0  0  0  0  0  0  0  0  0  0
  130.0520  119.8100   61.4020 C   0  0  0  0  0  0  0  0  0  0  0  0
  130.2490  121.6650   63.1270 C   0  0  0  0  0  0  0  0  0  0  0  0
  130.9860  122.7040   63.7030 C   0  0  0  0  0  0  0  0  0  0  0  0
  130.3490  123.4930   64.8460 C   0  0  0  0  0  0  0  0  0  0  0  0
  132.2800  122.9890   63.2110 C   0  0  0  0  0  0  0  0  0  0  0  0
  133.0540  124.1010   63.7680 C   0  0  0  0  0  0  0  0  0  0  0  0
  133.6620  124.9800   64.2110 N   0  0  0  0  0  0  0  0  0  0  0  0
  130.3680  124.1090   57.7960 C   0  0  0  0  0  0  0  0  0  0  0  0
  129.1380  123.8740   57.1900 C   0  0  0  0  0  0  0  0  0  0  0  0
  125.5241  124.0020   58.9741 H   0  0  0  0  0  0  0  0  0  0  0  0
  124.7072  125.1128   57.8228 H   0  0  0  0  0  0  0  0  0  0  0  0
  124.3025  123.3626   57.8228 H   0  0  0  0  0  0  0  0  0  0  0  0
  127.8662  121.5942   59.3890 H   0  0  0  0  0  0  0  0  0  0  0  0
  130.0598  122.0149   60.4731 H   0  0  0  0  0  0  0  0  0  0  0  0
  131.8070  123.6720   60.6830 H   0  0  0  0  0  0  0  0  0  0  0  0
  135.2373  123.9808   59.7989 H   0  0  0  0  0  0  0  0  0  0  0  0
  133.9928  124.7204   60.8961 H   0  0  0  0  0  0  0  0  0  0  0  0
  129.6158  119.1537   62.1694 H   0  0  0  0  0  0  0  0  0  0  0  0
  129.2491  120.2246   60.7747 H   0  0  0  0  0  0  0  0  0  0  0  0
  130.7452  119.2303   60.7747 H   0  0  0  0  0  0  0  0  0  0  0  0
  129.2435  121.4211   63.5005 H   0  0  0  0  0  0  0  0  0  0  0  0
  130.6835  123.0787   65.8085 H   0  0  0  0  0  0  0  0  0  0  0  0
  130.6513  124.5483   64.7762 H   0  0  0  0  0  0  0  0  0  0  0  0
  129.2537  123.4200   64.7762 H   0  0  0  0  0  0  0  0  0  0  0  0
  131.0753  124.8204   57.3448 H   0  0  0  0  0  0  0  0  0  0  0  0
  128.8804  124.4020   56.2600 H   0  0  0  0  0  0  0  0  0  0  0  0
  1  2  1  0
  2  3  1  0
  3  4  2  0
  3  5  1  0
  5  6  2  0
  6  7  1  0
  7  8  2  0
  8  9  1  0
  9 10  1  0
 10 11  2  0
 10 12  1  0
 12 13  1  0
 13 14  1  0
 14 15  2  0
 15 16  1  0
 16 17  1  0
 16 18  2  0
 18 19  1  0
 19 20  1  0
 19 21  2  0
 21 22  1  0
 22 23  3  0
  8 24  1  0
 24 25  2  0
 25  5  1  0
 21 14  1  0
  1 26  1  0
  1 27  1  0
  1 28  1  0
  6 29  1  0
  7 30  1  0
  9 31  1  0
 12 32  1  0
 12 33  1  0
 17 34  1  0
 17 35  1  0
 17 36  1  0
 18 37  1  0
 20 38  1  0
 20 39  1  0
 20 40  1  0
 24 41  1  0
 25 42  1  0
M  END
>  <Binding energies>  (1) 
[-7.69]

>  <Ligand effiencies>  (1) 
[-0.2957692307692308]

>  <Interactions>  (1) 
["V-A:ILE:369:CG2:3236, V-B:TYR:539:CE2:9848, V-B:PRO:540:N:9856, V-B:TYR:539:CZ:9849, V-B:TYR:539:CD2:9846, V-B:PRO:540:CA:9855, V-B:PRO:540:C:9853, V-B:MET:535:CE:9807, H-B:TYR:539:N:9842, V-A:LEU:475:CD1:4257, H-B:TYR:531:OH:9767, V-B:ALA:541:CA:9862, V-B:TYR:539:C:9839, V-B:ALA:541:CB:9864, V-A:GLY:454:CA:4048, H-A:TYR:484:OH:4347, H-A:GLY:454:N:4049, V-B:GLU:543:CG:9879, V-A:ASP:366:CG:3212, H-A:ARG:545:NH1:4927, V-A:ILE:369:CD1:3238, V-A:TYR:484:CE2:4345, V-A:ASP:366:CB:3211, V-A:ASP:366:CA:3209, V-A:TYR:484:CZ:4346, V-A:ILE:369:CB:3235, H-A:ARG:545:NH2:4928, V-B:TYR:531:CE2:9765, V-B:LEU:363:CD1:8160, H-B:TYR:539:OH:9850"]

$$$$
1c_Ghoteimi_2023
     RDKit          3D

 54 57  0  0  0  0  0  0  0  0999 V2000
  125.3870  122.5420   56.4030 C   0  0  0  0  0  0  0  0  0  0  0  0
  126.6070  121.8550   56.6590 O   0  0  0  0  0  0  0  0  0  0  0  0
  127.4150  122.2780   57.6980 C   0  0  0  0  0  0  0  0  0  0  0  0
  128.7860  122.2970   57.4550 C   0  0  0  0  0  0  0  0  0  0  0  0
  129.6740  122.7060   58.4460 C   0  0  0  0  0  0  0  0  0  0  0  0
  129.2170  123.1070   59.7110 C   0  0  0  0  0  0  0  0  0  0  0  0
  130.1730  123.5440   60.7840 C   0  0  0  0  0  0  0  0  0  0  0  0
  129.7460  124.0580   62.0130 C   0  0  0  0  0  0  0  0  0  0  0  0
  130.6740  124.4270   62.9940 C   0  0  0  0  0  0  0  0  0  0  0  0
  130.1470  124.9030   64.3070 C   0  0  0  0  0  0  0  0  0  0  0  0
  129.5650  126.1690   64.4230 C   0  0  0  0  0  0  0  0  0  0  0  0
  129.0940  126.6200   65.6520 C   0  0  0  0  0  0  0  0  0  0  0  0
  129.1990  125.8180   66.7880 C   0  0  0  0  0  0  0  0  0  0  0  0
  128.7040  126.3470   67.9650 O   0  0  0  0  0  0  0  0  0  0  0  0
  127.3650  126.8300   68.0010 C   0  0  0  0  0  0  0  0  0  0  0  0
  129.7880  124.5490   66.6770 C   0  0  0  0  0  0  0  0  0  0  0  0
  130.2590  124.1000   65.4460 C   0  0  0  0  0  0  0  0  0  0  0  0
  132.0520  124.2970   62.7000 C   0  0  0  0  0  0  0  0  0  0  0  0
  133.0750  124.6980   63.6720 C   0  0  0  0  0  0  0  0  0  0  0  0
  133.8800  125.0140   64.4400 N   0  0  0  0  0  0  0  0  0  0  0  0
  132.4120  123.7560   61.4480 C   0  0  0  0  0  0  0  0  0  0  0  0
  134.0960  123.3790   61.0120 S   0  0  0  0  0  0  0  0  0  0  0  0
  134.5170  121.9110   62.0060 C   0  0  0  0  0  0  0  0  0  0  0  0
  133.9350  120.6240   61.4120 C   0  0  0  0  0  0  0  0  0  0  0  0
  134.6880  119.6900   61.1290 O   0  0  0  0  0  0  0  0  0  0  0  0
  132.5900  120.6060   61.2830 N   0  0  0  0  0  0  0  0  0  0  0  0
  131.8070  119.5210   60.9220 C   0  0  0  0  0  0  0  0  0  0  0  0
  132.1490  118.4890   60.1810 N   0  0  0  0  0  0  0  0  0  0  0  0
  131.1610  117.6220   60.0760 C   0  0  0  0  0  0  0  0  0  0  0  0
  129.9850  117.9440   60.7450 C   0  0  0  0  0  0  0  0  0  0  0  0
  130.1920  119.4710   61.5500 S   0  0  0  0  0  0  0  0  0  0  0  0
  131.4960  123.3840   60.5220 N   0  0  0  0  0  0  0  0  0  0  0  0
  127.8340  123.0900   59.9420 C   0  0  0  0  0  0  0  0  0  0  0  0
  126.9420  122.6800   58.9550 C   0  0  0  0  0  0  0  0  0  0  0  0
  124.9102  122.8105   57.3572 H   0  0  0  0  0  0  0  0  0  0  0  0
  125.5947  123.4558   55.8270 H   0  0  0  0  0  0  0  0  0  0  0  0
  124.7133  121.8906   55.8270 H   0  0  0  0  0  0  0  0  0  0  0  0
  129.1704  121.9864   56.4723 H   0  0  0  0  0  0  0  0  0  0  0  0
  130.7533  122.7151   58.2338 H   0  0  0  0  0  0  0  0  0  0  0  0
  128.6701  124.1734   62.2106 H   0  0  0  0  0  0  0  0  0  0  0  0
  129.4788  126.8134   63.5357 H   0  0  0  0  0  0  0  0  0  0  0  0
  128.6353  127.6169   65.7282 H   0  0  0  0  0  0  0  0  0  0  0  0
  127.0449  126.9455   69.0470 H   0  0  0  0  0  0  0  0  0  0  0  0
  127.3126  127.8037   67.4919 H   0  0  0  0  0  0  0  0  0  0  0  0
  126.7031  126.1140   67.4919 H   0  0  0  0  0  0  0  0  0  0  0  0
  129.8779  123.9068   67.5656 H   0  0  0  0  0  0  0  0  0  0  0  0
  130.7229  123.1056   65.3690 H   0  0  0  0  0  0  0  0  0  0  0  0
  135.6120  121.8164   62.0521 H   0  0  0  0  0  0  0  0  0  0  0  0
  134.0845  122.0463   63.0083 H   0  0  0  0  0  0  0  0  0  0  0  0
  132.0880  121.4410   61.5440 H   0  0  0  0  0  0  0  0  0  0  0  0
  131.2614  116.6955   59.4917 H   0  0  0  0  0  0  0  0  0  0  0  0
  129.0715  117.3315   60.7621 H   0  0  0  0  0  0  0  0  0  0  0  0
  127.4466  123.4066   60.9216 H   0  0  0  0  0  0  0  0  0  0  0  0
  125.8617  122.6714   59.1622 H   0  0  0  0  0  0  0  0  0  0  0  0
  1  2  1  0
  2  3  1  0
  3  4  2  0
  4  5  1  0
  5  6  2  0
  6  7  1  0
  7  8  2  0
  8  9  1  0
  9 10  1  0
 10 11  2  0
 11 12  1  0
 12 13  2  0
 13 14  1  0
 14 15  1  0
 13 16  1  0
 16 17  2  0
  9 18  2  0
 18 19  1  0
 19 20  3  0
 18 21  1  0
 21 22  1  0
 22 23  1  0
 23 24  1  0
 24 25  2  0
 24 26  1  0
 26 27  1  0
 27 28  2  0
 28 29  1  0
 29 30  2  0
 30 31  1  0
 21 32  2  0
  6 33  1  0
 33 34  2  0
 34  3  1  0
 32  7  1  0
 17 10  1  0
 31 27  1  0
  1 35  1  0
  1 36  1  0
  1 37  1  0
  4 38  1  0
  5 39  1  0
  8 40  1  0
 11 41  1  0
 12 42  1  0
 15 43  1  0
 15 44  1  0
 15 45  1  0
 16 46  1  0
 17 47  1  0
 23 48  1  0
 23 49  1  0
 26 50  1  0
 29 51  1  0
 30 52  1  0
 33 53  1  0
 34 54  1  0
M  END
>  <Binding energies>  (1) 
[-7.97]

>  <Ligand effiencies>  (1) 
[-0.2277142857142857]

>  <Interactions>  (1) 
["V-B:PRO:540:CB:9857, V-A:ILE:369:CG2:3236, V-B:TYR:539:CE2:9848, V-B:PRO:540:N:9856, V-B:TYR:539:CZ:9849, V-B:TYR:539:CD2:9846, V-B:PRO:540:CA:9855, V-A:PRO:482:CG:4326, V-A:PRO:482:CB:4325, V-B:MET:535:CE:9807, H-B:TYR:539:N:9842, V-A:LEU:475:CD1:4257, V-B:ALA:541:CA:9862, V-B:TYR:539:C:9839, V-B:ALA:541:CB:9864, V-B:GLU:543:CD:9880, V-A:ARG:545:CZ:4926, V-B:GLU:543:CB:9878, V-B:HIS:456:CE1:9041, V-A:GLY:454:CA:4048, V-A:HIS:383:CE1:3392, H-A:TYR:484:OH:4347, H-A:GLY:454:N:4049, V-B:GLU:543:CG:9879, V-A:GLU:543:CD:4908, H-A:ARG:545:NH1:4927, V-A:ILE:369:CD1:3238, V-A:TYR:484:CE2:4345, V-A:TYR:484:CZ:4346, H-A:ARG:545:NH2:4928, V-B:TYR:539:CB:9843, V-B:PRO:540:CD:9859, H-A:ARG:545:NE:4924, V-B:TYR:539:CG:9844, V-B:TYR:531:CE2:9765, V-B:TYR:539:CD1:9845, V-B:LEU:363:CD1:8160, H-A:HIS:383:NE2:3393, H-A:SER:385:OG:3409, V-B:TYR:539:CE1:9847"]

$$$$
1c_Grossjean_2025
     RDKit          3D

 40 41  0  0  0  0  0  0  0  0999 V2000
  128.5600  126.6370   68.3030 C   0  0  0  0  0  0  0  0  0  0  0  0
  129.9610  126.3880   68.2640 O   0  0  0  0  0  0  0  0  0  0  0  0
  130.5340  125.9520   67.0840 C   0  0  0  0  0  0  0  0  0  0  0  0
  129.7290  125.1750   66.2510 C   0  0  0  0  0  0  0  0  0  0  0  0
  130.2160  124.6900   65.0410 C   0  0  0  0  0  0  0  0  0  0  0  0
  131.5280  124.9870   64.6440 C   0  0  0  0  0  0  0  0  0  0  0  0
  132.1240  124.5400   63.4480 N   0  0  0  0  0  0  0  0  0  0  0  0
  133.4190  124.5790   63.0700 C   0  0  0  0  0  0  0  0  0  0  0  0
  134.3490  125.0180   63.7470 O   0  0  0  0  0  0  0  0  0  0  0  0
  133.7130  124.0140   61.6780 C   0  0  0  0  0  0  0  0  0  0  0  0
  134.0020  122.2200   61.7240 S   0  0  0  0  0  0  0  0  0  0  0  0
  132.4310  121.3930   61.5880 C   0  0  0  0  0  0  0  0  0  0  0  0
  131.3910  122.1310   62.0550 N   0  0  0  0  0  0  0  0  0  0  0  0
  130.1450  121.6050   62.0050 C   0  0  0  0  0  0  0  0  0  0  0  0
  129.0330  122.4910   62.5350 C   0  0  0  0  0  0  0  0  0  0  0  0
  129.8860  120.3320   61.5020 C   0  0  0  0  0  0  0  0  0  0  0  0
  130.9520  119.5540   61.0410 C   0  0  0  0  0  0  0  0  0  0  0  0
  130.6450  118.1540   60.5110 C   0  0  0  0  0  0  0  0  0  0  0  0
  132.2640  120.0810   61.0860 C   0  0  0  0  0  0  0  0  0  0  0  0
  133.4000  119.2600   60.6590 C   0  0  0  0  0  0  0  0  0  0  0  0
  134.2960  118.6120   60.3210 N   0  0  0  0  0  0  0  0  0  0  0  0
  132.3410  125.7550   65.4800 C   0  0  0  0  0  0  0  0  0  0  0  0
  131.8500  126.2370   66.6900 C   0  0  0  0  0  0  0  0  0  0  0  0
  128.2271  126.6962   69.3497 H   0  0  0  0  0  0  0  0  0  0  0  0
  128.3423  127.5879   67.7947 H   0  0  0  0  0  0  0  0  0  0  0  0
  128.0280  125.8193   67.7947 H   0  0  0  0  0  0  0  0  0  0  0  0
  128.6973  124.9430   66.5540 H   0  0  0  0  0  0  0  0  0  0  0  0
  129.5722  124.0739   64.3961 H   0  0  0  0  0  0  0  0  0  0  0  0
  131.4870  124.0850   62.8120 H   0  0  0  0  0  0  0  0  0  0  0  0
  132.8544  124.2195   61.0218 H   0  0  0  0  0  0  0  0  0  0  0  0
  134.6254  124.4974   61.2988 H   0  0  0  0  0  0  0  0  0  0  0  0
  129.0476  122.4794   63.6348 H   0  0  0  0  0  0  0  0  0  0  0  0
  129.1823  123.5204   62.1772 H   0  0  0  0  0  0  0  0  0  0  0  0
  128.0630  122.1155   62.1772 H   0  0  0  0  0  0  0  0  0  0  0  0
  128.8571  119.9444   61.4680 H   0  0  0  0  0  0  0  0  0  0  0  0
  130.4943  117.4667   61.3565 H   0  0  0  0  0  0  0  0  0  0  0  0
  129.7326  118.1861   59.8975 H   0  0  0  0  0  0  0  0  0  0  0  0
  131.4872  117.8014   59.8975 H   0  0  0  0  0  0  0  0  0  0  0  0
  133.3752  125.9804   65.1807 H   0  0  0  0  0  0  0  0  0  0  0  0
  132.4968  126.8442   67.3403 H   0  0  0  0  0  0  0  0  0  0  0  0
  1  2  1  0
  2  3  1  0
  3  4  2  0
  4  5  1  0
  5  6  2  0
  6  7  1  0
  7  8  1  0
  8  9  2  0
  8 10  1  0
 10 11  1  0
 11 12  1  0
 12 13  2  0
 13 14  1  0
 14 15  1  0
 14 16  2  0
 16 17  1  0
 17 18  1  0
 17 19  2  0
 19 20  1  0
 20 21  3  0
  6 22  1  0
 22 23  2  0
 23  3  1  0
 19 12  1  0
  1 24  1  0
  1 25  1  0
  1 26  1  0
  4 27  1  0
  5 28  1  0
  7 29  1  0
 10 30  1  0
 10 31  1  0
 15 32  1  0
 15 33  1  0
 15 34  1  0
 16 35  1  0
 18 36  1  0
 18 37  1  0
 18 38  1  0
 22 39  1  0
 23 40  1  0
M  END
>  <Binding energies>  (1) 
[-6.87]

>  <Ligand effiencies>  (1) 
[-0.28625]

>  <Interactions>  (1) 
["V-A:ILE:369:CG2:3236, V-B:TYR:539:CD2:9846, V-A:PRO:482:CG:4326, V-B:PRO:540:C:9853, V-A:LEU:475:CD1:4257, V-B:ALA:541:CA:9862, V-A:SER:385:CA:3406, V-B:TYR:539:C:9839, V-B:ALA:541:CB:9864, V-B:GLU:543:CD:9880, V-A:ARG:545:CZ:4926, V-B:GLU:543:CB:9878, V-A:HIS:456:CE1:4069, V-B:HIS:456:CE1:9041, H-A:GLY:454:N:4049, V-B:GLU:543:CG:9879, V-A:ASP:366:CG:3212, H-A:ARG:545:NH1:4927, V-A:TYR:484:CE2:4345, H-A:ARG:545:NH2:4928, H-A:HIS:383:NE2:3393, H-A:SER:385:OG:3409"]

$$$$
1d_Ghoteimi_2023
     RDKit          3D

 50 52  0  0  0  0  0  0  0  0999 V2000
  124.8940  124.4540   57.7510 C   0  0  0  0  0  0  0  0  0  0  0  0
  125.9800  123.9390   56.9960 O   0  0  0  0  0  0  0  0  0  0  0  0
  126.5200  122.7410   57.3020 C   0  0  0  0  0  0  0  0  0  0  0  0
  126.2970  121.6740   56.7290 O   0  0  0  0  0  0  0  0  0  0  0  0
  127.4800  122.8230   58.4860 C   0  0  0  0  0  0  0  0  0  0  0  0
  126.4840  123.1180   59.9780 S   0  0  0  0  0  0  0  0  0  0  0  0
  127.3080  124.3900   60.9110 C   0  0  0  0  0  0  0  0  0  0  0  0
  126.6790  125.5890   60.8720 N   0  0  0  0  0  0  0  0  0  0  0  0
  127.2010  126.6500   61.5380 C   0  0  0  0  0  0  0  0  0  0  0  0
  126.4400  127.9410   61.4480 C   0  0  0  0  0  0  0  0  0  0  0  0
  126.1150  128.5100   60.2070 C   0  0  0  0  0  0  0  0  0  0  0  0
  125.4150  129.7100   60.1260 C   0  0  0  0  0  0  0  0  0  0  0  0
  125.0190  130.3800   61.2810 C   0  0  0  0  0  0  0  0  0  0  0  0
  124.3320  131.5650   61.1050 O   0  0  0  0  0  0  0  0  0  0  0  0
  125.0540  132.7920   61.1080 C   0  0  0  0  0  0  0  0  0  0  0  0
  125.3370  129.8240   62.5290 C   0  0  0  0  0  0  0  0  0  0  0  0
  126.0370  128.6230   62.6050 C   0  0  0  0  0  0  0  0  0  0  0  0
  128.3830  126.5160   62.2770 C   0  0  0  0  0  0  0  0  0  0  0  0
  129.0620  125.2920   62.3220 C   0  0  0  0  0  0  0  0  0  0  0  0
  130.3210  125.2210   63.1240 C   0  0  0  0  0  0  0  0  0  0  0  0
  131.5520  125.0320   62.4870 C   0  0  0  0  0  0  0  0  0  0  0  0
  132.7290  124.9660   63.2280 C   0  0  0  0  0  0  0  0  0  0  0  0
  132.7010  125.0920   64.6160 C   0  0  0  0  0  0  0  0  0  0  0  0
  133.9160  125.0060   65.2680 O   0  0  0  0  0  0  0  0  0  0  0  0
  133.9940  125.3700   66.6420 C   0  0  0  0  0  0  0  0  0  0  0  0
  131.4700  125.2940   65.2590 C   0  0  0  0  0  0  0  0  0  0  0  0
  130.2950  125.3610   64.5160 C   0  0  0  0  0  0  0  0  0  0  0  0
  128.5250  124.1960   61.6030 C   0  0  0  0  0  0  0  0  0  0  0  0
  129.2470  122.9220   61.5300 C   0  0  0  0  0  0  0  0  0  0  0  0
  129.8180  121.9170   61.4740 N   0  0  0  0  0  0  0  0  0  0  0  0
  125.1119  124.3507   58.8242 H   0  0  0  0  0  0  0  0  0  0  0  0
  124.7491  125.5167   57.5069 H   0  0  0  0  0  0  0  0  0  0  0  0
  123.9794  123.8937   57.5069 H   0  0  0  0  0  0  0  0  0  0  0  0
  128.0349  121.8785   58.5856 H   0  0  0  0  0  0  0  0  0  0  0  0
  128.2076  123.6348   58.3392 H   0  0  0  0  0  0  0  0  0  0  0  0
  126.4190  127.9984   59.2819 H   0  0  0  0  0  0  0  0  0  0  0  0
  125.1721  130.1335   59.1403 H   0  0  0  0  0  0  0  0  0  0  0  0
  125.2388  133.1061   62.1459 H   0  0  0  0  0  0  0  0  0  0  0  0
  126.0146  132.6535   60.5902 H   0  0  0  0  0  0  0  0  0  0  0  0
  124.4664  133.5644   60.5902 H   0  0  0  0  0  0  0  0  0  0  0  0
  125.0319  130.3393   63.4517 H   0  0  0  0  0  0  0  0  0  0  0  0
  126.2786  128.2010   63.5917 H   0  0  0  0  0  0  0  0  0  0  0  0
  128.7820  127.3807   62.8275 H   0  0  0  0  0  0  0  0  0  0  0  0
  131.5905  124.9347   61.3920 H   0  0  0  0  0  0  0  0  0  0  0  0
  133.6893  124.8131   62.7137 H   0  0  0  0  0  0  0  0  0  0  0  0
  133.8044  124.4850   67.2671 H   0  0  0  0  0  0  0  0  0  0  0  0
  134.9972  125.7650   66.8603 H   0  0  0  0  0  0  0  0  0  0  0  0
  133.2408  126.1413   66.8603 H   0  0  0  0  0  0  0  0  0  0  0  0
  131.4337  125.3997   66.3533 H   0  0  0  0  0  0  0  0  0  0  0  0
  129.3357  125.5258   65.0285 H   0  0  0  0  0  0  0  0  0  0  0  0
  1  2  1  0
  2  3  1  0
  3  4  2  0
  3  5  1  0
  5  6  1  0
  6  7  1  0
  7  8  2  0
  8  9  1  0
  9 10  1  0
 10 11  2  0
 11 12  1  0
 12 13  2  0
 13 14  1  0
 14 15  1  0
 13 16  1  0
 16 17  2  0
  9 18  2  0
 18 19  1  0
 19 20  1  0
 20 21  2  0
 21 22  1  0
 22 23  2  0
 23 24  1  0
 24 25  1  0
 23 26  1  0
 26 27  2  0
 19 28  2  0
 28 29  1  0
 29 30  3  0
 28  7  1  0
 17 10  1  0
 27 20  1  0
  1 31  1  0
  1 32  1  0
  1 33  1  0
  5 34  1  0
  5 35  1  0
 11 36  1  0
 12 37  1  0
 15 38  1  0
 15 39  1  0
 15 40  1  0
 16 41  1  0
 17 42  1  0
 18 43  1  0
 21 44  1  0
 22 45  1  0
 25 46  1  0
 25 47  1  0
 25 48  1  0
 26 49  1  0
 27 50  1  0
M  END
>  <Binding energies>  (1) 
[-6.96]

>  <Ligand effiencies>  (1) 
[-0.232]

>  <Interactions>  (1) 
["V-B:PRO:540:CB:9857, V-B:PRO:540:N:9856, V-B:PRO:540:CA:9855, V-B:MET:535:CE:9807, H-B:TYR:539:N:9842, H-B:TYR:531:OH:9767, V-B:TYR:539:C:9839, V-A:ARG:545:CD:4923, V-A:ARG:545:CZ:4926, V-A:ARG:545:CG:4922, H-A:TYR:484:OH:4347, H-A:GLY:454:N:4049, V-A:TYR:484:CZ:4346, V-B:ASP:366:CB:8183, V-B:ASP:366:CG:8184, V-B:ILE:369:CG2:8208, H-A:ARG:545:NE:4924, V-B:TYR:531:CZ:9766, V-B:TYR:531:CE2:9765, V-B:LEU:363:CD1:8160"]

$$$$
1d_Grossjean_2025
     RDKit          3D

 36 37  0  0  0  0  0  0  0  0999 V2000
  128.5010  126.5580   67.9060 C   0  0  0  0  0  0  0  0  0  0  0  0
  129.6730  126.1700   67.0250 C   0  0  0  0  0  0  0  0  0  0  0  0
  130.9840  126.2120   67.4940 C   0  0  0  0  0  0  0  0  0  0  0  0
  132.0250  125.8330   66.6400 C   0  0  0  0  0  0  0  0  0  0  0  0
  133.4520  125.8710   67.1820 C   0  0  0  0  0  0  0  0  0  0  0  0
  131.7220  125.4260   65.3200 C   0  0  0  0  0  0  0  0  0  0  0  0
  132.7900  124.9800   64.4230 C   0  0  0  0  0  0  0  0  0  0  0  0
  133.6370  124.6280   63.7170 N   0  0  0  0  0  0  0  0  0  0  0  0
  130.3650  125.4390   64.9210 C   0  0  0  0  0  0  0  0  0  0  0  0
  129.8050  124.9610   63.3010 S   0  0  0  0  0  0  0  0  0  0  0  0
  129.0660  123.3060   63.4480 C   0  0  0  0  0  0  0  0  0  0  0  0
  128.1770  122.9640   62.2520 C   0  0  0  0  0  0  0  0  0  0  0  0
  128.4550  121.9850   61.5580 O   0  0  0  0  0  0  0  0  0  0  0  0
  127.1150  123.7780   62.0680 N   0  0  0  0  0  0  0  0  0  0  0  0
  126.1240  123.7560   61.0700 C   0  0  0  0  0  0  0  0  0  0  0  0
  126.5710  123.9890   59.7660 C   0  0  0  0  0  0  0  0  0  0  0  0
  125.6730  123.9840   58.7030 C   0  0  0  0  0  0  0  0  0  0  0  0
  124.3230  123.7380   58.9410 C   0  0  0  0  0  0  0  0  0  0  0  0
  123.8650  123.4960   60.2340 C   0  0  0  0  0  0  0  0  0  0  0  0
  124.7610  123.5020   61.3000 C   0  0  0  0  0  0  0  0  0  0  0  0
  129.3610  125.7880   65.7640 N   0  0  0  0  0  0  0  0  0  0  0  0
  128.7896  126.4625   68.9632 H   0  0  0  0  0  0  0  0  0  0  0  0
  128.2140  127.5991   67.6969 H   0  0  0  0  0  0  0  0  0  0  0  0
  127.6494  125.8938   67.6969 H   0  0  0  0  0  0  0  0  0  0  0  0
  131.1978  126.5389   68.5223 H   0  0  0  0  0  0  0  0  0  0  0  0
  133.4267  125.8703   68.2817 H   0  0  0  0  0  0  0  0  0  0  0  0
  134.0026  124.9872   66.8274 H   0  0  0  0  0  0  0  0  0  0  0  0
  133.9548  126.7829   66.8274 H   0  0  0  0  0  0  0  0  0  0  0  0
  129.8733  122.5618   63.5140 H   0  0  0  0  0  0  0  0  0  0  0  0
  128.4377  123.2949   64.3508 H   0  0  0  0  0  0  0  0  0  0  0  0
  126.9950  124.5110   62.7520 H   0  0  0  0  0  0  0  0  0  0  0  0
  127.6385  124.1773   59.5792 H   0  0  0  0  0  0  0  0  0  0  0  0
  126.0279  124.1735   57.6792 H   0  0  0  0  0  0  0  0  0  0  0  0
  123.6127  123.7348   58.1011 H   0  0  0  0  0  0  0  0  0  0  0  0
  122.7974  123.3005   60.4127 H   0  0  0  0  0  0  0  0  0  0  0  0
  124.4021  123.3080   62.3216 H   0  0  0  0  0  0  0  0  0  0  0  0
  1  2  1  0
  2  3  2  0
  3  4  1  0
  4  5  1  0
  4  6  2  0
  6  7  1  0
  7  8  3  0
  6  9  1  0
  9 10  1  0
 10 11  1  0
 11 12  1  0
 12 13  2  0
 12 14  1  0
 14 15  1  0
 15 16  2  0
 16 17  1  0
 17 18  2  0
 18 19  1  0
 19 20  2  0
  9 21  2  0
 21  2  1  0
 20 15  1  0
  1 22  1  0
  1 23  1  0
  1 24  1  0
  3 25  1  0
  5 26  1  0
  5 27  1  0
  5 28  1  0
 11 29  1  0
 11 30  1  0
 14 31  1  0
 16 32  1  0
 17 33  1  0
 18 34  1  0
 19 35  1  0
 20 36  1  0
M  END
>  <Binding energies>  (1) 
[-7.3]

>  <Ligand effiencies>  (1) 
[-0.3318181818181818]

>  <Interactions>  (1) 
["V-B:PRO:540:CB:9857, V-B:PRO:540:CA:9855, H-B:ALA:541:N:9863, V-B:ALA:541:CB:9864, V-B:GLU:543:CD:9880, V-A:ARG:545:CD:4923, V-A:ARG:545:CZ:4926, V-B:GLU:543:CB:9878, V-A:HIS:456:CE1:4069, V-A:ARG:545:CG:4922, H-A:GLY:454:N:4049, V-B:GLU:543:CG:9879, H-B:GLU:543:OE2:9882, V-A:TYR:484:CZ:4346, V-B:ASP:366:CG:8184, H-A:ARG:545:NH2:4928, V-B:LEU:363:CA:8156, V-B:ASN:362:C:8143, V-B:ASN:362:CB:8147, V-B:LEU:363:CB:8158, V-B:LEU:363:CD1:8160, H-B:GLU:543:OE1:9881"]

$$$$
1e_Grossjean_2025
     RDKit          3D

 38 39  0  0  0  0  0  0  0  0999 V2000
  134.7640  125.3650   66.8020 C   0  0  0  0  0  0  0  0  0  0  0  0
  133.5460  125.3930   65.8970 C   0  0  0  0  0  0  0  0  0  0  0  0
  132.3080  125.8570   66.3510 C   0  0  0  0  0  0  0  0  0  0  0  0
  131.2320  125.8510   65.4640 C   0  0  0  0  0  0  0  0  0  0  0  0
  131.4140  125.3850   64.1600 C   0  0  0  0  0  0  0  0  0  0  0  0
  132.6820  124.9380   63.7680 C   0  0  0  0  0  0  0  0  0  0  0  0
  132.8010  124.4700   62.4480 N   0  0  0  0  0  0  0  0  0  0  0  0
  133.9240  124.1470   61.7690 C   0  0  0  0  0  0  0  0  0  0  0  0
  135.0690  124.2260   62.2170 O   0  0  0  0  0  0  0  0  0  0  0  0
  133.7170  123.6790   60.3270 C   0  0  0  0  0  0  0  0  0  0  0  0
  132.0020  123.1620   60.0180 S   0  0  0  0  0  0  0  0  0  0  0  0
  131.8610  121.4190   60.3600 C   0  0  0  0  0  0  0  0  0  0  0  0
  132.9960  120.7230   60.0930 N   0  0  0  0  0  0  0  0  0  0  0  0
  133.0100  119.3880   60.3110 C   0  0  0  0  0  0  0  0  0  0  0  0
  134.3140  118.6800   59.9980 C   0  0  0  0  0  0  0  0  0  0  0  0
  131.9010  118.6930   60.7880 C   0  0  0  0  0  0  0  0  0  0  0  0
  130.7180  119.3950   61.0430 C   0  0  0  0  0  0  0  0  0  0  0  0
  129.5100  118.6070   61.5480 C   0  0  0  0  0  0  0  0  0  0  0  0
  130.6790  120.7900   60.8190 C   0  0  0  0  0  0  0  0  0  0  0  0
  129.4320  121.5290   61.0260 C   0  0  0  0  0  0  0  0  0  0  0  0
  128.4450  122.1120   61.1890 N   0  0  0  0  0  0  0  0  0  0  0  0
  133.7390  124.9380   64.6340 N   0  0  0  0  0  0  0  0  0  0  0  0
  134.4400  125.3724   67.8532 H   0  0  0  0  0  0  0  0  0  0  0  0
  135.3468  124.4532   66.6044 H   0  0  0  0  0  0  0  0  0  0  0  0
  135.3880  126.2490   66.6044 H   0  0  0  0  0  0  0  0  0  0  0  0
  132.1856  126.2181   67.3828 H   0  0  0  0  0  0  0  0  0  0  0  0
  130.2450  126.2114   65.7896 H   0  0  0  0  0  0  0  0  0  0  0  0
  130.5732  125.3693   63.4509 H   0  0  0  0  0  0  0  0  0  0  0  0
  131.9320  124.4230   61.9360 H   0  0  0  0  0  0  0  0  0  0  0  0
  133.9667  124.5060   59.6460 H   0  0  0  0  0  0  0  0  0  0  0  0
  134.3698  122.8105   60.1548 H   0  0  0  0  0  0  0  0  0  0  0  0
  134.8174  118.4067   60.9371 H   0  0  0  0  0  0  0  0  0  0  0  0
  134.1067  117.7706   59.4149 H   0  0  0  0  0  0  0  0  0  0  0  0
  134.9638  119.3492   59.4149 H   0  0  0  0  0  0  0  0  0  0  0  0
  131.9546  117.6081   60.9616 H   0  0  0  0  0  0  0  0  0  0  0  0
  129.5072  118.6052   62.6480 H   0  0  0  0  0  0  0  0  0  0  0  0
  128.5859  119.0765   61.1798 H   0  0  0  0  0  0  0  0  0  0  0  0
  129.5673  117.5721   61.1798 H   0  0  0  0  0  0  0  0  0  0  0  0
  1  2  1  0
  2  3  2  0
  3  4  1  0
  4  5  2  0
  5  6  1  0
  6  7  1  0
  7  8  1  0
  8  9  2  0
  8 10  1  0
 10 11  1  0
 11 12  1  0
 12 13  2  0
 13 14  1  0
 14 15  1  0
 14 16  2  0
 16 17  1  0
 17 18  1  0
 17 19  2  0
 19 20  1  0
 20 21  3  0
  6 22  2  0
 22  2  1  0
 19 12  1  0
  1 23  1  0
  1 24  1  0
  1 25  1  0
  3 26  1  0
  4 27  1  0
  5 28  1  0
  7 29  1  0
 10 30  1  0
 10 31  1  0
 15 32  1  0
 15 33  1  0
 15 34  1  0
 16 35  1  0
 18 36  1  0
 18 37  1  0
 18 38  1  0
M  END
>  <Binding energies>  (1) 
[-7.65]

>  <Ligand effiencies>  (1) 
[-0.33260869565217394]

>  <Interactions>  (1) 
["V-A:ILE:369:CG2:3236, V-B:TYR:539:CE2:9848, V-B:TYR:539:CD2:9846, V-B:PRO:540:CA:9855, V-A:PRO:482:CG:4326, V-B:PRO:540:C:9853, V-A:PRO:482:CB:4325, V-A:LEU:475:CD1:4257, H-B:ALA:541:N:9863, V-A:SER:385:CB:3408, V-B:ALA:541:CA:9862, V-A:SER:385:CA:3406, V-A:SER:385:C:3404, V-B:TYR:539:C:9839, V-B:ALA:541:CB:9864, V-A:ARG:545:CD:4923, V-A:ARG:545:CZ:4926, V-A:GLY:453:CA:4043, V-A:GLY:453:C:4041, V-A:ARG:545:CG:4922, V-A:GLY:454:CA:4048, H-A:TYR:484:OH:4347, H-A:GLY:454:N:4049, V-A:ASP:366:CG:3212, V-A:ILE:369:CD1:3238, V-A:ASP:366:CA:3209, V-A:TYR:484:CZ:4346, H-A:ARG:545:NH2:4928, V-A:HIS:383:CD2:3391, V-A:ILE:455:C:4051, H-A:ARG:545:NE:4924"]

$$$$
1f_Grossjean_2025
     RDKit          3D

 35 36  0  0  0  0  0  0  0  0999 V2000
  130.7650  118.9790   60.7990 C   0  0  0  0  0  0  0  0  0  0  0  0
  131.3720  120.1600   61.5320 C   0  0  0  0  0  0  0  0  0  0  0  0
  132.7390  120.4190   61.4920 C   0  0  0  0  0  0  0  0  0  0  0  0
  133.2430  121.5170   62.1990 C   0  0  0  0  0  0  0  0  0  0  0  0
  134.7490  121.7690   62.1550 C   0  0  0  0  0  0  0  0  0  0  0  0
  132.3530  122.3390   62.9260 C   0  0  0  0  0  0  0  0  0  0  0  0
  132.8690  123.4600   63.7170 C   0  0  0  0  0  0  0  0  0  0  0  0
  133.2780  124.3440   64.3410 N   0  0  0  0  0  0  0  0  0  0  0  0
  130.9760  122.0180   62.8870 C   0  0  0  0  0  0  0  0  0  0  0  0
  129.7090  122.9360   63.7390 S   0  0  0  0  0  0  0  0  0  0  0  0
  128.8370  123.9800   62.5220 C   0  0  0  0  0  0  0  0  0  0  0  0
  128.1980  123.2150   61.3540 C   0  0  0  0  0  0  0  0  0  0  0  0
  127.9960  122.0030   61.4370 O   0  0  0  0  0  0  0  0  0  0  0  0
  127.9200  123.9730   60.2720 N   0  0  0  0  0  0  0  0  0  0  0  0
  127.3340  123.6070   59.0450 C   0  0  0  0  0  0  0  0  0  0  0  0
  127.6430  122.4530   58.3010 C   0  0  0  0  0  0  0  0  0  0  0  0
  126.9790  122.2100   57.0950 C   0  0  0  0  0  0  0  0  0  0  0  0
  126.0190  123.1250   56.6640 C   0  0  0  0  0  0  0  0  0  0  0  0
  125.6990  124.2420   57.3650 N   0  0  0  0  0  0  0  0  0  0  0  0
  126.3530  124.4650   58.5340 C   0  0  0  0  0  0  0  0  0  0  0  0
  130.5010  120.9370   62.2190 N   0  0  0  0  0  0  0  0  0  0  0  0
  130.3892  118.2477   61.5297 H   0  0  0  0  0  0  0  0  0  0  0  0
  129.9340  119.3269   60.1678 H   0  0  0  0  0  0  0  0  0  0  0  0
  131.5316  118.5058   60.1678 H   0  0  0  0  0  0  0  0  0  0  0  0
  133.4133  119.7705   60.9134 H   0  0  0  0  0  0  0  0  0  0  0  0
  135.1399  121.8344   63.1811 H   0  0  0  0  0  0  0  0  0  0  0  0
  135.2440  120.9412   61.6261 H   0  0  0  0  0  0  0  0  0  0  0  0
  134.9475  122.7129   61.6261 H   0  0  0  0  0  0  0  0  0  0  0  0
  128.0409  124.5265   63.0488 H   0  0  0  0  0  0  0  0  0  0  0  0
  129.5983  124.6392   62.0793 H   0  0  0  0  0  0  0  0  0  0  0  0
  128.1800  124.9470   60.3330 H   0  0  0  0  0  0  0  0  0  0  0  0
  128.4026  121.7463   58.6663 H   0  0  0  0  0  0  0  0  0  0  0  0
  127.2091  121.3151   56.4981 H   0  0  0  0  0  0  0  0  0  0  0  0
  125.4984  122.9329   55.7142 H   0  0  0  0  0  0  0  0  0  0  0  0
  126.0986  125.3672   59.1096 H   0  0  0  0  0  0  0  0  0  0  0  0
  1  2  1  0
  2  3  2  0
  3  4  1  0
  4  5  1  0
  4  6  2  0
  6  7  1  0
  7  8  3  0
  6  9  1  0
  9 10  1  0
 10 11  1  0
 11 12  1  0
 12 13  2  0
 12 14  1  0
 14 15  1  0
 15 16  2  0
 16 17  1  0
 17 18  2  0
 18 19  1  0
 19 20  2  0
  9 21  2  0
 21  2  1  0
 20 15  1  0
  1 22  1  0
  1 23  1  0
  1 24  1  0
  3 25  1  0
  5 26  1  0
  5 27  1  0
  5 28  1  0
 11 29  1  0
 11 30  1  0
 14 31  1  0
 16 32  1  0
 17 33  1  0
 18 34  1  0
 20 35  1  0
M  END
>  <Binding energies>  (1) 
[-7.15]

>  <Ligand effiencies>  (1) 
[-0.325]

>  <Interactions>  (1) 
["V-B:PRO:540:CB:9857, V-A:ILE:369:CG2:3236, V-B:PRO:540:N:9856, V-B:TYR:539:CD2:9846, V-B:PRO:540:CA:9855, V-B:MET:535:CE:9807, V-A:LEU:475:CD1:4257, H-B:ALA:541:N:9863, H-B:TYR:531:OH:9767, V-B:TYR:539:C:9839, V-B:ALA:541:CB:9864, V-B:GLU:543:CD:9880, V-A:GLY:453:C:4041, V-A:GLY:454:CA:4048, H-A:TYR:484:OH:4347, H-A:GLY:454:N:4049, V-A:ILE:369:CD1:3238, V-B:PRO:540:CD:9859, V-B:TYR:531:CE2:9765, V-B:LEU:363:CD1:8160"]

$$$$
1g_Grossjean_2025
     RDKit          3D

 39 40  0  0  0  0  0  0  0  0999 V2000
  129.2360  126.1020   62.9200 C   0  0  0  0  0  0  0  0  0  0  0  0
  130.5350  125.8820   63.6710 C   0  0  0  0  0  0  0  0  0  0  0  0
  131.7170  125.5610   63.0070 C   0  0  0  0  0  0  0  0  0  0  0  0
  132.8820  125.3540   63.7540 C   0  0  0  0  0  0  0  0  0  0  0  0
  134.1620  124.9880   63.0040 C   0  0  0  0  0  0  0  0  0  0  0  0
  132.8340  125.4850   65.1600 C   0  0  0  0  0  0  0  0  0  0  0  0
  134.0280  125.2220   65.9670 C   0  0  0  0  0  0  0  0  0  0  0  0
  134.9730  125.0130   66.6010 N   0  0  0  0  0  0  0  0  0  0  0  0
  131.5970  125.8390   65.7480 C   0  0  0  0  0  0  0  0  0  0  0  0
  131.3600  126.0550   67.4970 S   0  0  0  0  0  0  0  0  0  0  0  0
  129.6790  125.4830   67.8890 C   0  0  0  0  0  0  0  0  0  0  0  0
  128.6930  126.6460   68.0130 C   0  0  0  0  0  0  0  0  0  0  0  0
  127.8700  126.6620   68.9290 O   0  0  0  0  0  0  0  0  0  0  0  0
  128.7870  127.6080   67.0790 N   0  0  0  0  0  0  0  0  0  0  0  0
  127.9880  128.8320   67.0380 C   0  0  0  0  0  0  0  0  0  0  0  0
  127.0860  128.9530   65.8140 C   0  0  0  0  0  0  0  0  0  0  0  0
  125.7690  129.4010   65.9580 C   0  0  0  0  0  0  0  0  0  0  0  0
  124.9460  129.5120   64.8410 C   0  0  0  0  0  0  0  0  0  0  0  0
  125.4430  129.1790   63.5820 C   0  0  0  0  0  0  0  0  0  0  0  0
  126.7550  128.7370   63.4310 C   0  0  0  0  0  0  0  0  0  0  0  0
  127.5790  128.6240   64.5480 C   0  0  0  0  0  0  0  0  0  0  0  0
  130.4670  126.0150   65.0170 N   0  0  0  0  0  0  0  0  0  0  0  0
  128.4156  126.2410   63.6394 H   0  0  0  0  0  0  0  0  0  0  0  0
  129.3251  126.9978   62.2879 H   0  0  0  0  0  0  0  0  0  0  0  0
  129.0251  125.2268   62.2879 H   0  0  0  0  0  0  0  0  0  0  0  0
  131.7342  125.4715   61.9108 H   0  0  0  0  0  0  0  0  0  0  0  0
  134.9586  124.7602   63.7276 H   0  0  0  0  0  0  0  0  0  0  0  0
  133.9775  124.1066   62.3722 H   0  0  0  0  0  0  0  0  0  0  0  0
  134.4714  125.8337   62.3722 H   0  0  0  0  0  0  0  0  0  0  0  0
  129.3367  124.8109   67.0883 H   0  0  0  0  0  0  0  0  0  0  0  0
  129.7141  124.9623   68.8573 H   0  0  0  0  0  0  0  0  0  0  0  0
  129.5070  127.5250   66.3750 H   0  0  0  0  0  0  0  0  0  0  0  0
  127.3544  128.8599   67.9368 H   0  0  0  0  0  0  0  0  0  0  0  0
  128.6987  129.6702   66.9892 H   0  0  0  0  0  0  0  0  0  0  0  0
  125.3837  129.6656   66.9537 H   0  0  0  0  0  0  0  0  0  0  0  0
  123.9086  129.8608   64.9512 H   0  0  0  0  0  0  0  0  0  0  0  0
  124.7926  129.2662   62.6992 H   0  0  0  0  0  0  0  0  0  0  0  0
  127.1390  128.4781   62.4332 H   0  0  0  0  0  0  0  0  0  0  0  0
  128.6164  128.2763   64.4342 H   0  0  0  0  0  0  0  0  0  0  0  0
  1  2  1  0
  2  3  2  0
  3  4  1  0
  4  5  1  0
  4  6  2  0
  6  7  1  0
  7  8  3  0
  6  9  1  0
  9 10  1  0
 10 11  1  0
 11 12  1  0
 12 13  2  0
 12 14  1  0
 14 15  1  0
 15 16  1  0
 16 17  2  0
 17 18  1  0
 18 19  2  0
 19 20  1  0
 20 21  2  0
  9 22  2  0
 22  2  1  0
 21 16  1  0
  1 23  1  0
  1 24  1  0
  1 25  1  0
  3 26  1  0
  5 27  1  0
  5 28  1  0
  5 29  1  0
 11 30  1  0
 11 31  1  0
 14 32  1  0
 15 33  1  0
 15 34  1  0
 17 35  1  0
 18 36  1  0
 19 37  1  0
 20 38  1  0
 21 39  1  0
M  END
>  <Binding energies>  (1) 
[-6.55]

>  <Ligand effiencies>  (1) 
[-0.28478260869565214]

>  <Interactions>  (1) 
["V-A:ARG:545:CD:4923, V-A:ARG:545:CZ:4926, V-A:GLY:453:CA:4043, V-B:GLU:543:CB:9878, V-A:GLY:453:C:4041, V-A:GLU:543:CB:4906, V-A:HIS:456:CE1:4069, V-A:ARG:545:CG:4922, V-B:HIS:456:CE1:9041, V-B:ARG:545:CZ:9898, V-A:GLY:454:CA:4048, H-A:TYR:484:OH:4347, H-A:GLY:454:N:4049, H-A:GLU:543:OE1:4909, V-A:GLU:543:CD:4908, V-A:GLU:543:CG:4907, V-A:ASP:366:CG:3212, V-A:TYR:484:CE2:4345, V-A:TYR:484:CZ:4346, H-A:ARG:545:NE:4924, H-A:ILE:455:N:4054"]

$$$$
1h_Grossjean_2025
     RDKit          3D

 51 52  0  0  0  0  0  0  0  0999 V2000
  134.3120  124.6110   62.5890 C   0  0  0  0  0  0  0  0  0  0  0  0
  133.9720  124.7370   63.9650 O   0  0  0  0  0  0  0  0  0  0  0  0
  132.6450  124.6590   64.3470 C   0  0  0  0  0  0  0  0  0  0  0  0
  131.6790  123.8960   63.6720 C   0  0  0  0  0  0  0  0  0  0  0  0
  130.3530  123.8750   64.1060 C   0  0  0  0  0  0  0  0  0  0  0  0
  129.3190  123.0230   63.3760 C   0  0  0  0  0  0  0  0  0  0  0  0
  129.6310  122.7840   61.9680 N   0  0  0  0  0  0  0  0  0  0  0  0
  129.9160  121.5850   61.4270 C   0  0  0  0  0  0  0  0  0  0  0  0
  129.9190  120.5320   62.0650 O   0  0  0  0  0  0  0  0  0  0  0  0
  130.2540  121.5720   59.9370 C   0  0  0  0  0  0  0  0  0  0  0  0
  130.0140  123.2040   59.1710 S   0  0  0  0  0  0  0  0  0  0  0  0
  128.3240  123.7050   59.4540 C   0  0  0  0  0  0  0  0  0  0  0  0
  128.1280  124.5550   60.4960 N   0  0  0  0  0  0  0  0  0  0  0  0
  126.8710  124.9780   60.7640 C   0  0  0  0  0  0  0  0  0  0  0  0
  126.7320  125.9270   61.9390 C   0  0  0  0  0  0  0  0  0  0  0  0
  125.7660  124.5770   60.0160 C   0  0  0  0  0  0  0  0  0  0  0  0
  125.9550  123.7010   58.9410 C   0  0  0  0  0  0  0  0  0  0  0  0
  124.7320  123.2760   58.1330 C   0  0  0  0  0  0  0  0  0  0  0  0
  127.2600  123.2470   58.6430 C   0  0  0  0  0  0  0  0  0  0  0  0
  127.4880  122.3270   57.5260 C   0  0  0  0  0  0  0  0  0  0  0  0
  127.6670  121.6000   56.6430 N   0  0  0  0  0  0  0  0  0  0  0  0
  129.9900  124.5920   65.2460 C   0  0  0  0  0  0  0  0  0  0  0  0
  130.9370  125.3590   65.9440 C   0  0  0  0  0  0  0  0  0  0  0  0
  130.6480  126.0960   67.0790 O   0  0  0  0  0  0  0  0  0  0  0  0
  129.3260  126.5870   67.2770 C   0  0  0  0  0  0  0  0  0  0  0  0
  132.2590  125.3930   65.4780 C   0  0  0  0  0  0  0  0  0  0  0  0
  133.1970  126.1350   66.1540 O   0  0  0  0  0  0  0  0  0  0  0  0
  133.9580  125.3870   67.0920 C   0  0  0  0  0  0  0  0  0  0  0  0
  135.3400  124.2300   62.4987 H   0  0  0  0  0  0  0  0  0  0  0  0
  133.6173  123.9106   62.1023 H   0  0  0  0  0  0  0  0  0  0  0  0
  134.2415  125.5950   62.1023 H   0  0  0  0  0  0  0  0  0  0  0  0
  131.9711  123.3073   62.7899 H   0  0  0  0  0  0  0  0  0  0  0  0
  129.2512  122.0502   63.8850 H   0  0  0  0  0  0  0  0  0  0  0  0
  128.3719  123.5819   63.4011 H   0  0  0  0  0  0  0  0  0  0  0  0
  129.6640  123.6000   61.3740 H   0  0  0  0  0  0  0  0  0  0  0  0
  131.3053  121.2727   59.8137 H   0  0  0  0  0  0  0  0  0  0  0  0
  129.5775  120.8605   59.4409 H   0  0  0  0  0  0  0  0  0  0  0  0
  126.8148  125.3615   62.8789 H   0  0  0  0  0  0  0  0  0  0  0  0
  127.5288  126.6840   61.8951 H   0  0  0  0  0  0  0  0  0  0  0  0
  125.7515  126.4237   61.8951 H   0  0  0  0  0  0  0  0  0  0  0  0
  124.7597  124.9436   60.2667 H   0  0  0  0  0  0  0  0  0  0  0  0
  123.9195  122.9937   58.8187 H   0  0  0  0  0  0  0  0  0  0  0  0
  124.4027  124.1124   57.4990 H   0  0  0  0  0  0  0  0  0  0  0  0
  124.9923  122.4156   57.4990 H   0  0  0  0  0  0  0  0  0  0  0  0
  128.9500  124.5563   65.6025 H   0  0  0  0  0  0  0  0  0  0  0  0
  129.1208  126.6632   68.3550 H   0  0  0  0  0  0  0  0  0  0  0  0
  129.2307  127.5805   66.8145 H   0  0  0  0  0  0  0  0  0  0  0  0
  128.6053  125.8966   66.8145 H   0  0  0  0  0  0  0  0  0  0  0  0
  133.6661  125.6739   68.1130 H   0  0  0  0  0  0  0  0  0  0  0  0
  133.7690  124.3134   66.9446 H   0  0  0  0  0  0  0  0  0  0  0  0
  135.0282  125.5945   66.9446 H   0  0  0  0  0  0  0  0  0  0  0  0
  1  2  1  0
  2  3  1  0
  3  4  2  0
  4  5  1  0
  5  6  1  0
  6  7  1  0
  7  8  1  0
  8  9  2  0
  8 10  1  0
 10 11  1  0
 11 12  1  0
 12 13  2  0
 13 14  1  0
 14 15  1  0
 14 16  2  0
 16 17  1  0
 17 18  1  0
 17 19  2  0
 19 20  1  0
 20 21  3  0
  5 22  2  0
 22 23  1  0
 23 24  1  0
 24 25  1  0
 23 26  2  0
 26 27  1  0
 27 28  1  0
 26  3  1  0
 19 12  1  0
  1 29  1  0
  1 30  1  0
  1 31  1  0
  4 32  1  0
  6 33  1  0
  6 34  1  0
  7 35  1  0
 10 36  1  0
 10 37  1  0
 15 38  1  0
 15 39  1  0
 15 40  1  0
 16 41  1  0
 18 42  1  0
 18 43  1  0
 18 44  1  0
 22 45  1  0
 25 46  1  0
 25 47  1  0
 25 48  1  0
 28 49  1  0
 28 50  1  0
 28 51  1  0
M  END
>  <Binding energies>  (1) 
[-6.29]

>  <Ligand effiencies>  (1) 
[-0.21689655172413794]

>  <Interactions>  (1) 
["V-B:PRO:540:CB:9857, V-B:TYR:539:CE2:9848, V-B:PRO:540:N:9856, V-B:TYR:539:CD2:9846, V-B:PRO:540:CA:9855, V-B:MET:535:CE:9807, H-B:TYR:539:N:9842, H-B:ALA:541:N:9863, V-B:TYR:539:C:9839, V-B:ALA:541:CB:9864, V-B:GLU:543:CD:9880, V-A:ARG:545:CD:4923, V-A:ARG:545:CZ:4926, V-A:GLY:453:CA:4043, V-A:GLY:453:C:4041, V-A:HIS:456:CE1:4069, V-A:ARG:545:CG:4922, H-A:TYR:484:OH:4347, H-A:GLY:454:N:4049, V-B:GLU:543:CG:9879, V-A:ASP:366:CG:3212, H-A:ARG:545:NH1:4927, V-A:TYR:484:CZ:4346, V-B:ASP:366:CG:8184, H-A:ARG:545:NH2:4928, H-A:ARG:545:NE:4924, V-B:LEU:363:CB:8158, V-B:LEU:363:CD1:8160"]

$$$$
1i_Grossjean_2025
     RDKit          3D

 32 33  0  0  0  0  0  0  0  0999 V2000
  134.2650  118.9300   60.0130 C   0  0  0  0  0  0  0  0  0  0  0  0
  132.9470  119.5800   60.3910 C   0  0  0  0  0  0  0  0  0  0  0  0
  131.8410  118.8210   60.7660 C   0  0  0  0  0  0  0  0  0  0  0  0
  130.6540  119.4750   61.1130 C   0  0  0  0  0  0  0  0  0  0  0  0
  129.4590  118.6220   61.5370 C   0  0  0  0  0  0  0  0  0  0  0  0
  130.6040  120.8880   61.0690 C   0  0  0  0  0  0  0  0  0  0  0  0
  129.3880  121.5950   61.4770 C   0  0  0  0  0  0  0  0  0  0  0  0
  128.4260  122.1510   61.8020 N   0  0  0  0  0  0  0  0  0  0  0  0
  131.7690  121.5760   60.6530 C   0  0  0  0  0  0  0  0  0  0  0  0
  131.8830  123.3480   60.5390 S   0  0  0  0  0  0  0  0  0  0  0  0
  131.1770  123.8420   58.9390 C   0  0  0  0  0  0  0  0  0  0  0  0
  129.6750  123.5580   58.8590 C   0  0  0  0  0  0  0  0  0  0  0  0
  128.9550  123.8460   59.8160 O   0  0  0  0  0  0  0  0  0  0  0  0
  129.2480  122.9990   57.7060 N   0  0  0  0  0  0  0  0  0  0  0  0
  127.9500  122.6380   57.3770 C   0  0  0  0  0  0  0  0  0  0  0  0
  126.8300  123.3440   57.8130 C   0  0  0  0  0  0  0  0  0  0  0  0
  125.7540  122.6740   57.2780 C   0  0  0  0  0  0  0  0  0  0  0  0
  126.2020  121.6180   56.5590 O   0  0  0  0  0  0  0  0  0  0  0  0
  127.5960  121.6050   56.6300 N   0  0  0  0  0  0  0  0  0  0  0  0
  132.9210  120.9330   60.3380 N   0  0  0  0  0  0  0  0  0  0  0  0
  134.8152  118.6587   60.9261 H   0  0  0  0  0  0  0  0  0  0  0  0
  134.0704  118.0246   59.4195 H   0  0  0  0  0  0  0  0  0  0  0  0
  134.8649  119.6356   59.4195 H   0  0  0  0  0  0  0  0  0  0  0  0
  131.9000  117.7228   60.7890 H   0  0  0  0  0  0  0  0  0  0  0  0
  129.4065  118.5845   62.6351 H   0  0  0  0  0  0  0  0  0  0  0  0
  128.5334  119.0648   61.1405 H   0  0  0  0  0  0  0  0  0  0  0  0
  129.5770  117.6027   61.1405 H   0  0  0  0  0  0  0  0  0  0  0  0
  131.3420  124.9202   58.7964 H   0  0  0  0  0  0  0  0  0  0  0  0
  131.6748  123.2543   58.1536 H   0  0  0  0  0  0  0  0  0  0  0  0
  129.9470  122.7850   57.0090 H   0  0  0  0  0  0  0  0  0  0  0  0
  126.8106  124.2424   58.4475 H   0  0  0  0  0  0  0  0  0  0  0  0
  124.6983  122.9520   57.4129 H   0  0  0  0  0  0  0  0  0  0  0  0
  1  2  1  0
  2  3  2  0
  3  4  1  0
  4  5  1  0
  4  6  2  0
  6  7  1  0
  7  8  3  0
  6  9  1  0
  9 10  1  0
 10 11  1  0
 11 12  1  0
 12 13  2  0
 12 14  1  0
 14 15  1  0
 15 16  1  0
 16 17  2  0
 17 18  1  0
 18 19  1  0
  9 20  2  0
 20  2  1  0
 19 15  2  0
  1 21  1  0
  1 22  1  0
  1 23  1  0
  3 24  1  0
  5 25  1  0
  5 26  1  0
  5 27  1  0
 11 28  1  0
 11 29  1  0
 14 30  1  0
 16 31  1  0
 17 32  1  0
M  END
>  <Binding energies>  (1) 
[-6.97]

>  <Ligand effiencies>  (1) 
[-0.33190476190476187]

>  <Interactions>  (1) 
["V-B:PRO:540:CB:9857, V-A:ILE:369:CG2:3236, V-B:TYR:539:CE2:9848, V-B:PRO:540:N:9856, V-B:TYR:539:CZ:9849, V-B:TYR:539:CD2:9846, V-B:PRO:540:CA:9855, V-A:PRO:482:CG:4326, V-B:PRO:540:C:9853, V-A:PRO:482:CB:4325, V-B:MET:535:CE:9807, H-B:TYR:539:N:9842, V-A:LEU:475:CD1:4257, H-B:ALA:541:N:9863, V-A:SER:385:CB:3408, V-B:ALA:541:CA:9862, V-A:SER:385:CA:3406, V-A:SER:385:C:3404, V-B:TYR:539:C:9839, V-B:ALA:541:CB:9864, V-A:HIS:383:CD2:3391, V-B:PRO:540:CD:9859, V-B:LEU:363:CD1:8160, H-B:TYR:539:OH:9850, V-B:TYR:539:CE1:9847"]

$$$$
1j_Grossjean_2025
     RDKit          3D

 32 33  0  0  0  0  0  0  0  0999 V2000
  129.3630  122.3750   62.5860 C   0  0  0  0  0  0  0  0  0  0  0  0
  130.3930  121.4130   62.0240 C   0  0  0  0  0  0  0  0  0  0  0  0
  130.0380  120.1390   61.5860 C   0  0  0  0  0  0  0  0  0  0  0  0
  131.0280  119.3000   61.0650 C   0  0  0  0  0  0  0  0  0  0  0  0
  130.6120  117.9140   60.5740 C   0  0  0  0  0  0  0  0  0  0  0  0
  132.3630  119.7610   61.0040 C   0  0  0  0  0  0  0  0  0  0  0  0
  133.4060  118.9190   60.4130 C   0  0  0  0  0  0  0  0  0  0  0  0
  134.2280  118.2520   59.9450 N   0  0  0  0  0  0  0  0  0  0  0  0
  132.6360  121.0590   61.4950 C   0  0  0  0  0  0  0  0  0  0  0  0
  134.2560  121.7980   61.4980 S   0  0  0  0  0  0  0  0  0  0  0  0
  134.0500  123.5830   61.2260 C   0  0  0  0  0  0  0  0  0  0  0  0
  134.1110  124.3740   62.5340 C   0  0  0  0  0  0  0  0  0  0  0  0
  135.1210  125.0270   62.7970 O   0  0  0  0  0  0  0  0  0  0  0  0
  133.0150  124.2890   63.3180 N   0  0  0  0  0  0  0  0  0  0  0  0
  132.8260  124.9030   64.5480 C   0  0  0  0  0  0  0  0  0  0  0  0
  133.7160  125.0960   65.4990 N   0  0  0  0  0  0  0  0  0  0  0  0
  133.1890  125.7150   66.5360 C   0  0  0  0  0  0  0  0  0  0  0  0
  131.8400  126.0410   66.4390 C   0  0  0  0  0  0  0  0  0  0  0  0
  131.2380  125.5030   64.8990 S   0  0  0  0  0  0  0  0  0  0  0  0
  131.6650  121.8740   61.9790 N   0  0  0  0  0  0  0  0  0  0  0  0
  129.3948  122.3453   63.6851 H   0  0  0  0  0  0  0  0  0  0  0  0
  129.5868  123.3950   62.2401 H   0  0  0  0  0  0  0  0  0  0  0  0
  128.3607  122.0822   62.2401 H   0  0  0  0  0  0  0  0  0  0  0  0
  128.9941  119.7980   61.6491 H   0  0  0  0  0  0  0  0  0  0  0  0
  130.4164  117.2623   61.4383 H   0  0  0  0  0  0  0  0  0  0  0  0
  129.6998  117.9992   59.9651 H   0  0  0  0  0  0  0  0  0  0  0  0
  131.4203  117.4828   59.9651 H   0  0  0  0  0  0  0  0  0  0  0  0
  134.8517  123.9354   60.5604 H   0  0  0  0  0  0  0  0  0  0  0  0
  133.0590  123.7456   60.7771 H   0  0  0  0  0  0  0  0  0  0  0  0
  132.2590  123.6990   63.0030 H   0  0  0  0  0  0  0  0  0  0  0  0
  133.7828  125.9604   67.4289 H   0  0  0  0  0  0  0  0  0  0  0  0
  131.2498  126.5558   67.2115 H   0  0  0  0  0  0  0  0  0  0  0  0
  1  2  1  0
  2  3  2  0
  3  4  1  0
  4  5  1  0
  4  6  2  0
  6  7  1  0
  7  8  3  0
  6  9  1  0
  9 10  1  0
 10 11  1  0
 11 12  1  0
 12 13  2  0
 12 14  1  0
 14 15  1  0
 15 16  2  0
 16 17  1  0
 17 18  2  0
 18 19  1  0
  9 20  2  0
 20  2  1  0
 19 15  1  0
  1 21  1  0
  1 22  1  0
  1 23  1  0
  3 24  1  0
  5 25  1  0
  5 26  1  0
  5 27  1  0
 11 28  1  0
 11 29  1  0
 14 30  1  0
 17 31  1  0
 18 32  1  0
M  END
>  <Binding energies>  (1) 
[-6.59]

>  <Ligand effiencies>  (1) 
[-0.3138095238095238]

>  <Interactions>  (1) 
["V-A:ILE:369:CG2:3236, V-B:TYR:539:CD2:9846, V-A:PRO:482:CG:4326, V-A:LEU:475:CD1:4257, V-B:ALA:541:CA:9862, V-A:SER:385:CA:3406, V-B:TYR:539:C:9839, V-B:ALA:541:CB:9864, V-A:ARG:545:CD:4923, V-A:ARG:545:CZ:4926, V-A:GLY:453:CA:4043, V-A:GLY:453:C:4041, V-A:ARG:545:CG:4922, H-A:TYR:484:OH:4347, H-A:GLY:454:N:4049, V-A:ASP:366:CG:3212, H-A:ARG:545:NH1:4927, V-A:ILE:369:CD1:3238, V-A:TYR:484:CZ:4346, H-A:ARG:545:NH2:4928, V-A:HIS:383:CD2:3391, H-A:ARG:545:NE:4924, H-A:HIS:383:NE2:3393, H-A:SER:385:OG:3409"]

$$$$
1k_Grossjean_2025
     RDKit          3D

 50 50  0  0  0  0  0  0  0  0999 V2000
  126.0990  122.8560   56.9640 C   0  0  0  0  0  0  0  0  0  0  0  0
  125.6740  124.2070   57.0460 O   0  0  0  0  0  0  0  0  0  0  0  0
  124.9670  124.5070   58.2420 C   0  0  0  0  0  0  0  0  0  0  0  0
  125.9360  124.4810   59.4310 C   0  0  0  0  0  0  0  0  0  0  0  0
  125.8850  123.2040   60.0550 O   0  0  0  0  0  0  0  0  0  0  0  0
  125.8390  123.2640   61.4740 C   0  0  0  0  0  0  0  0  0  0  0  0
  127.2600  123.1290   62.0360 C   0  0  0  0  0  0  0  0  0  0  0  0
  127.9920  122.1940   61.2540 O   0  0  0  0  0  0  0  0  0  0  0  0
  129.3590  122.0830   61.6270 C   0  0  0  0  0  0  0  0  0  0  0  0
  130.0450  121.0060   60.7650 C   0  0  0  0  0  0  0  0  0  0  0  0
  131.5050  121.0960   60.7500 N   0  0  0  0  0  0  0  0  0  0  0  0
  132.3440  120.1680   61.2430 C   0  0  0  0  0  0  0  0  0  0  0  0
  131.9570  119.1200   61.7630 O   0  0  0  0  0  0  0  0  0  0  0  0
  133.8410  120.4960   61.1220 C   0  0  0  0  0  0  0  0  0  0  0  0
  134.3670  122.0740   61.8770 S   0  0  0  0  0  0  0  0  0  0  0  0
  133.3250  123.3930   61.2680 C   0  0  0  0  0  0  0  0  0  0  0  0
  133.0820  123.3880   59.9320 N   0  0  0  0  0  0  0  0  0  0  0  0
  132.3080  124.3640   59.4040 C   0  0  0  0  0  0  0  0  0  0  0  0
  132.0910  124.2950   57.9050 C   0  0  0  0  0  0  0  0  0  0  0  0
  131.7410  125.3740   60.1780 C   0  0  0  0  0  0  0  0  0  0  0  0
  131.9770  125.3860   61.5570 C   0  0  0  0  0  0  0  0  0  0  0  0
  131.3460  126.5020   62.3870 C   0  0  0  0  0  0  0  0  0  0  0  0
  132.7860  124.3780   62.1270 C   0  0  0  0  0  0  0  0  0  0  0  0
  133.0530  124.3680   63.5680 C   0  0  0  0  0  0  0  0  0  0  0  0
  133.2640  124.3620   64.7070 N   0  0  0  0  0  0  0  0  0  0  0  0
  126.2268  122.4496   57.9782 H   0  0  0  0  0  0  0  0  0  0  0  0
  125.3431  122.2659   56.4251 H   0  0  0  0  0  0  0  0  0  0  0  0
  127.0566  122.8049   56.4251 H   0  0  0  0  0  0  0  0  0  0  0  0
  124.5150  125.5064   58.1595 H   0  0  0  0  0  0  0  0  0  0  0  0
  124.1766  123.7580   58.3976 H   0  0  0  0  0  0  0  0  0  0  0  0
  126.9586  124.6749   59.0751 H   0  0  0  0  0  0  0  0  0  0  0  0
  125.6477  125.2559   60.1565 H   0  0  0  0  0  0  0  0  0  0  0  0
  125.4106  124.2276   61.7869 H   0  0  0  0  0  0  0  0  0  0  0  0
  125.2132  122.4441   61.8563 H   0  0  0  0  0  0  0  0  0  0  0  0
  127.7619  124.1073   62.0029 H   0  0  0  0  0  0  0  0  0  0  0  0
  127.2107  122.7773   63.0771 H   0  0  0  0  0  0  0  0  0  0  0  0
  129.8603  123.0498   61.4720 H   0  0  0  0  0  0  0  0  0  0  0  0
  129.4260  121.7989   62.6876 H   0  0  0  0  0  0  0  0  0  0  0  0
  129.7635  120.0178   61.1577 H   0  0  0  0  0  0  0  0  0  0  0  0
  129.7061  121.1633   59.7304 H   0  0  0  0  0  0  0  0  0  0  0  0
  131.8960  121.9310   60.3390 H   0  0  0  0  0  0  0  0  0  0  0  0
  134.4053  119.6849   61.6054 H   0  0  0  0  0  0  0  0  0  0  0  0
  134.0409  120.5964   60.0450 H   0  0  0  0  0  0  0  0  0  0  0  0
  131.0614  123.9676   57.6982 H   0  0  0  0  0  0  0  0  0  0  0  0
  132.2549  125.2896   57.4646 H   0  0  0  0  0  0  0  0  0  0  0  0
  132.7992  123.5777   57.4646 H   0  0  0  0  0  0  0  0  0  0  0  0
  131.1169  126.1507   59.7118 H   0  0  0  0  0  0  0  0  0  0  0  0
  131.4719  126.2793   63.4568 H   0  0  0  0  0  0  0  0  0  0  0  0
  131.8376  127.4573   62.1510 H   0  0  0  0  0  0  0  0  0  0  0  0
  130.2740  126.5732   62.1510 H   0  0  0  0  0  0  0  0  0  0  0  0
  1  2  1  0
  2  3  1  0
  3  4  1  0
  4  5  1  0
  5  6  1  0
  6  7  1  0
  7  8  1  0
  8  9  1  0
  9 10  1  0
 10 11  1  0
 11 12  1  0
 12 13  2  0
 12 14  1  0
 14 15  1  0
 15 16  1  0
 16 17  2  0
 17 18  1  0
 18 19  1  0
 18 20  2  0
 20 21  1  0
 21 22  1  0
 21 23  2  0
 23 24  1  0
 24 25  3  0
 23 16  1  0
  1 26  1  0
  1 27  1  0
  1 28  1  0
  3 29  1  0
  3 30  1  0
  4 31  1  0
  4 32  1  0
  6 33  1  0
  6 34  1  0
  7 35  1  0
  7 36  1  0
  9 37  1  0
  9 38  1  0
 10 39  1  0
 10 40  1  0
 11 41  1  0
 14 42  1  0
 14 43  1  0
 19 44  1  0
 19 45  1  0
 19 46  1  0
 20 47  1  0
 22 48  1  0
 22 49  1  0
 22 50  1  0
M  END
>  <Binding energies>  (1) 
[-5.51]

>  <Ligand effiencies>  (1) 
[-0.2119230769230769]

>  <Interactions>  (1) 
["V-B:PRO:540:CB:9857, V-A:ILE:369:CG2:3236, V-B:TYR:539:CE2:9848, V-B:TYR:539:CZ:9849, V-B:TYR:539:CD2:9846, V-B:PRO:540:CA:9855, V-B:MET:535:CE:9807, V-A:LEU:475:CD1:4257, H-B:ALA:541:N:9863, H-B:TYR:531:OH:9767, V-B:ALA:541:CB:9864, V-B:GLU:543:CD:9880, H-A:TYR:484:OH:4347, H-A:GLY:454:N:4049, V-A:ASP:366:CG:3212, V-A:ASP:366:CB:3211, V-B:TYR:531:CE2:9765, V-B:LEU:363:CD1:8160, H-A:SER:385:OG:3409"]

$$$$
1l_Grossjean_2025
     RDKit          3D

 30 30  0  0  0  0  0  0  0  0999 V2000
  132.9380  125.3890   64.8850 C   0  0  0  0  0  0  0  0  0  0  0  0
  134.0650  125.0080   64.1080 O   0  0  0  0  0  0  0  0  0  0  0  0
  133.7160  124.9560   62.7590 N   0  0  0  0  0  0  0  0  0  0  0  0
  133.6150  123.7560   62.1550 C   0  0  0  0  0  0  0  0  0  0  0  0
  133.5880  122.6840   62.7660 O   0  0  0  0  0  0  0  0  0  0  0  0
  133.5170  123.8030   60.6240 C   0  0  0  0  0  0  0  0  0  0  0  0
  131.9610  123.1500   59.9300 S   0  0  0  0  0  0  0  0  0  0  0  0
  131.8830  121.4030   60.2870 C   0  0  0  0  0  0  0  0  0  0  0  0
  133.0220  120.7010   60.0510 N   0  0  0  0  0  0  0  0  0  0  0  0
  133.0330  119.3700   60.2990 C   0  0  0  0  0  0  0  0  0  0  0  0
  134.3400  118.6560   60.0110 C   0  0  0  0  0  0  0  0  0  0  0  0
  131.9220  118.6880   60.7900 C   0  0  0  0  0  0  0  0  0  0  0  0
  130.7440  119.4000   61.0390 C   0  0  0  0  0  0  0  0  0  0  0  0
  129.5380  118.6320   61.5780 C   0  0  0  0  0  0  0  0  0  0  0  0
  130.7110  120.7890   60.7860 C   0  0  0  0  0  0  0  0  0  0  0  0
  129.4890  121.5600   61.0380 C   0  0  0  0  0  0  0  0  0  0  0  0
  128.5250  122.1670   61.2370 N   0  0  0  0  0  0  0  0  0  0  0  0
  133.1844  125.3057   65.9538 H   0  0  0  0  0  0  0  0  0  0  0  0
  132.6662  126.4290   64.6514 H   0  0  0  0  0  0  0  0  0  0  0  0
  132.0909  124.7273   64.6514 H   0  0  0  0  0  0  0  0  0  0  0  0
  133.9440  125.8120   62.2730 H   0  0  0  0  0  0  0  0  0  0  0  0
  133.6180  124.8517   60.3077 H   0  0  0  0  0  0  0  0  0  0  0  0
  134.3192  123.1530   60.2447 H   0  0  0  0  0  0  0  0  0  0  0  0
  134.8287  118.3890   60.9596 H   0  0  0  0  0  0  0  0  0  0  0  0
  134.1389  117.7424   59.4323 H   0  0  0  0  0  0  0  0  0  0  0  0
  135.0001  119.3188   59.4323 H   0  0  0  0  0  0  0  0  0  0  0  0
  131.9704  117.6055   60.9791 H   0  0  0  0  0  0  0  0  0  0  0  0
  129.5572  118.6442   62.6778 H   0  0  0  0  0  0  0  0  0  0  0  0
  128.6119  119.1070   61.2221 H   0  0  0  0  0  0  0  0  0  0  0  0
  129.5767  117.5919   61.2221 H   0  0  0  0  0  0  0  0  0  0  0  0
  1  2  1  0
  2  3  1  0
  3  4  1  0
  4  5  2  0
  4  6  1  0
  6  7  1  0
  7  8  1  0
  8  9  2  0
  9 10  1  0
 10 11  1  0
 10 12  2  0
 12 13  1  0
 13 14  1  0
 13 15  2  0
 15 16  1  0
 16 17  3  0
 15  8  1  0
  1 18  1  0
  1 19  1  0
  1 20  1  0
  3 21  1  0
  6 22  1  0
  6 23  1  0
 11 24  1  0
 11 25  1  0
 11 26  1  0
 12 27  1  0
 14 28  1  0
 14 29  1  0
 14 30  1  0
M  END
>  <Binding energies>  (1) 
[-6.07]

>  <Ligand effiencies>  (1) 
[-0.33722222222222226]

>  <Interactions>  (1) 
["V-A:ILE:369:CG2:3236, V-B:TYR:539:CE2:9848, V-B:TYR:539:CD2:9846, V-A:PRO:482:CG:4326, V-B:PRO:540:C:9853, V-A:PRO:482:CB:4325, V-A:LEU:475:CD1:4257, H-B:ALA:541:N:9863, V-A:SER:385:CB:3408, V-B:ALA:541:CA:9862, V-A:SER:385:CA:3406, V-A:SER:385:C:3404, V-B:TYR:539:C:9839, V-B:ALA:541:CB:9864, V-A:ARG:545:CZ:4926, H-A:GLY:454:N:4049, V-A:ASP:366:CG:3212, H-A:ARG:545:NH1:4927, H-A:ARG:545:NH2:4928, V-A:HIS:383:CD2:3391, H-A:ARG:545:NE:4924, H-A:ASP:366:OD2:3214, H-A:ASP:366:OD1:3213"]

$$$$
1m_Grossjean_2025
     RDKit          3D

 35 35  0  0  0  0  0  0  0  0999 V2000
  125.8300  123.0370   56.6070 C   0  0  0  0  0  0  0  0  0  0  0  0
  125.7510  124.2540   57.3360 O   0  0  0  0  0  0  0  0  0  0  0  0
  124.7910  124.4340   58.2670 C   0  0  0  0  0  0  0  0  0  0  0  0
  123.7110  125.0030   58.0820 O   0  0  0  0  0  0  0  0  0  0  0  0
  125.1980  123.8250   59.6250 C   0  0  0  0  0  0  0  0  0  0  0  0
  126.6040  123.3970   59.6590 N   0  0  0  0  0  0  0  0  0  0  0  0
  127.2460  122.8930   60.7300 C   0  0  0  0  0  0  0  0  0  0  0  0
  126.7080  122.7490   61.8300 O   0  0  0  0  0  0  0  0  0  0  0  0
  128.7140  122.5080   60.5010 C   0  0  0  0  0  0  0  0  0  0  0  0
  129.5850  121.9060   61.9880 S   0  0  0  0  0  0  0  0  0  0  0  0
  130.8320  120.7490   61.4640 C   0  0  0  0  0  0  0  0  0  0  0  0
  130.3250  119.5790   60.9980 N   0  0  0  0  0  0  0  0  0  0  0  0
  131.1810  118.6250   60.5650 C   0  0  0  0  0  0  0  0  0  0  0  0
  130.5410  117.3540   60.0400 C   0  0  0  0  0  0  0  0  0  0  0  0
  132.5640  118.7880   60.5900 C   0  0  0  0  0  0  0  0  0  0  0  0
  133.0990  119.9790   61.0930 C   0  0  0  0  0  0  0  0  0  0  0  0
  134.6180  120.1290   61.1260 C   0  0  0  0  0  0  0  0  0  0  0  0
  132.2240  120.9900   61.5520 C   0  0  0  0  0  0  0  0  0  0  0  0
  132.7640  122.2240   62.1290 C   0  0  0  0  0  0  0  0  0  0  0  0
  133.1900  123.1980   62.5830 N   0  0  0  0  0  0  0  0  0  0  0  0
  125.8849  122.1919   57.3091 H   0  0  0  0  0  0  0  0  0  0  0  0
  124.9369  122.9303   55.9738 H   0  0  0  0  0  0  0  0  0  0  0  0
  126.7294  123.0466   55.9738 H   0  0  0  0  0  0  0  0  0  0  0  0
  125.0413  124.5797   60.4097 H   0  0  0  0  0  0  0  0  0  0  0  0
  124.5761  122.9323   59.7873 H   0  0  0  0  0  0  0  0  0  0  0  0
  127.1220  123.5080   58.7990 H   0  0  0  0  0  0  0  0  0  0  0  0
  128.7454  121.7140   59.7404 H   0  0  0  0  0  0  0  0  0  0  0  0
  129.2313  123.4271   60.1884 H   0  0  0  0  0  0  0  0  0  0  0  0
  130.2248  116.7261   60.8861 H   0  0  0  0  0  0  0  0  0  0  0  0
  129.6648  117.6110   59.4266 H   0  0  0  0  0  0  0  0  0  0  0  0
  131.2692  116.8031   59.4266 H   0  0  0  0  0  0  0  0  0  0  0  0
  133.2263  117.9917   60.2195 H   0  0  0  0  0  0  0  0  0  0  0  0
  134.9605  120.1628   62.1708 H   0  0  0  0  0  0  0  0  0  0  0  0
  135.0822  119.2723   60.6155 H   0  0  0  0  0  0  0  0  0  0  0  0
  134.9057  121.0599   60.6155 H   0  0  0  0  0  0  0  0  0  0  0  0
  1  2  1  0
  2  3  1  0
  3  4  2  0
  3  5  1  0
  5  6  1  0
  6  7  1  0
  7  8  2  0
  7  9  1  0
  9 10  1  0
 10 11  1  0
 11 12  2  0
 12 13  1  0
 13 14  1  0
 13 15  2  0
 15 16  1  0
 16 17  1  0
 16 18  2  0
 18 19  1  0
 19 20  3  0
 18 11  1  0
  1 21  1  0
  1 22  1  0
  1 23  1  0
  5 24  1  0
  5 25  1  0
  6 26  1  0
  9 27  1  0
  9 28  1  0
 14 29  1  0
 14 30  1  0
 14 31  1  0
 15 32  1  0
 17 33  1  0
 17 34  1  0
 17 35  1  0
M  END
>  <Binding energies>  (1) 
[-5.88]

>  <Ligand effiencies>  (1) 
[-0.27999999999999997]

>  <Interactions>  (1) 
["V-B:PRO:540:CB:9857, V-A:ILE:369:CG2:3236, V-B:TYR:539:CD2:9846, V-B:PRO:540:CA:9855, V-A:PRO:482:CG:4326, V-B:PRO:540:C:9853, V-B:MET:535:CE:9807, V-A:LEU:475:CD1:4257, H-B:ALA:541:N:9863, H-B:TYR:531:OH:9767, V-A:SER:385:CA:3406, V-A:SER:385:C:3404, V-B:TYR:539:C:9839, V-B:ALA:541:CB:9864, V-A:HIS:383:CE1:3392, H-A:GLY:454:N:4049, V-A:ILE:369:CD1:3238, V-B:ASP:366:CB:8183, V-B:TYR:539:CB:9843, V-B:TYR:531:CE2:9765, V-B:LEU:363:CD1:8160"]

$$$$
1n_Grossjean_2025
     RDKit          3D

 48 49  0  0  0  0  0  0  0  0999 V2000
  124.3870  123.6680   58.9600 C   0  0  0  0  0  0  0  0  0  0  0  0
  125.3830  124.5420   58.1920 C   0  0  0  0  0  0  0  0  0  0  0  0
  125.7520  123.8890   56.9840 O   0  0  0  0  0  0  0  0  0  0  0  0
  126.5130  122.7640   57.0000 C   0  0  0  0  0  0  0  0  0  0  0  0
  126.1230  121.6730   56.5710 O   0  0  0  0  0  0  0  0  0  0  0  0
  127.8810  122.9810   57.5790 C   0  0  0  0  0  0  0  0  0  0  0  0
  128.3980  122.1590   58.5930 C   0  0  0  0  0  0  0  0  0  0  0  0
  129.6690  122.3900   59.1100 C   0  0  0  0  0  0  0  0  0  0  0  0
  130.4460  123.4470   58.6340 C   0  0  0  0  0  0  0  0  0  0  0  0
  131.7130  123.5920   59.2310 N   0  0  0  0  0  0  0  0  0  0  0  0
  132.8180  124.2180   58.7700 C   0  0  0  0  0  0  0  0  0  0  0  0
  132.9080  124.8060   57.6930 O   0  0  0  0  0  0  0  0  0  0  0  0
  134.0400  124.1720   59.6970 C   0  0  0  0  0  0  0  0  0  0  0  0
  133.6960  123.7160   61.1310 C   0  0  0  0  0  0  0  0  0  0  0  0
  133.9780  121.9480   61.4480 S   0  0  0  0  0  0  0  0  0  0  0  0
  132.3920  121.1400   61.4400 C   0  0  0  0  0  0  0  0  0  0  0  0
  131.3840  121.9170   61.9090 N   0  0  0  0  0  0  0  0  0  0  0  0
  130.1290  121.4100   61.9330 C   0  0  0  0  0  0  0  0  0  0  0  0
  129.0520  122.3400   62.4600 C   0  0  0  0  0  0  0  0  0  0  0  0
  129.8310  120.1190   61.5020 C   0  0  0  0  0  0  0  0  0  0  0  0
  130.8670  119.3030   61.0360 C   0  0  0  0  0  0  0  0  0  0  0  0
  130.5180  117.8870   60.5810 C   0  0  0  0  0  0  0  0  0  0  0  0
  132.1860  119.8090   61.0060 C   0  0  0  0  0  0  0  0  0  0  0  0
  133.2930  118.9550   60.5710 C   0  0  0  0  0  0  0  0  0  0  0  0
  134.1660  118.2780   60.2280 N   0  0  0  0  0  0  0  0  0  0  0  0
  129.9400  124.2660   57.6140 C   0  0  0  0  0  0  0  0  0  0  0  0
  128.6700  124.0320   57.0950 C   0  0  0  0  0  0  0  0  0  0  0  0
  124.5394  123.8018   60.0411 H   0  0  0  0  0  0  0  0  0  0  0  0
  123.3607  123.9623   58.6952 H   0  0  0  0  0  0  0  0  0  0  0  0
  124.5455  122.6122   58.6952 H   0  0  0  0  0  0  0  0  0  0  0  0
  124.9168  125.5104   57.9579 H   0  0  0  0  0  0  0  0  0  0  0  0
  126.2788  124.7064   58.8088 H   0  0  0  0  0  0  0  0  0  0  0  0
  127.7937  121.3261   58.9817 H   0  0  0  0  0  0  0  0  0  0  0  0
  130.0644  121.7345   59.8999 H   0  0  0  0  0  0  0  0  0  0  0  0
  131.7800  123.1970   60.1570 H   0  0  0  0  0  0  0  0  0  0  0  0
  134.7744  123.4710   59.2735 H   0  0  0  0  0  0  0  0  0  0  0  0
  134.4385  125.1950   59.7651 H   0  0  0  0  0  0  0  0  0  0  0  0
  134.3149  124.2939   61.8331 H   0  0  0  0  0  0  0  0  0  0  0  0
  132.6180  123.8897   61.2644 H   0  0  0  0  0  0  0  0  0  0  0  0
  129.0644  122.3293   63.5599 H   0  0  0  0  0  0  0  0  0  0  0  0
  129.2424  123.3622   62.1011 H   0  0  0  0  0  0  0  0  0  0  0  0
  128.0685  122.0026   62.1011 H   0  0  0  0  0  0  0  0  0  0  0  0
  128.7961  119.7470   61.5278 H   0  0  0  0  0  0  0  0  0  0  0  0
  130.3603  117.2472   61.4618 H   0  0  0  0  0  0  0  0  0  0  0  0
  129.5991  117.9120   59.9768 H   0  0  0  0  0  0  0  0  0  0  0  0
  131.3432  117.4822   59.9768 H   0  0  0  0  0  0  0  0  0  0  0  0
  130.5483  125.0951   57.2234 H   0  0  0  0  0  0  0  0  0  0  0  0
  128.2815  124.6800   56.2955 H   0  0  0  0  0  0  0  0  0  0  0  0
  1  2  1  0
  2  3  1  0
  3  4  1  0
  4  5  2  0
  4  6  1  0
  6  7  2  0
  7  8  1  0
  8  9  2  0
  9 10  1  0
 10 11  1  0
 11 12  2  0
 11 13  1  0
 13 14  1  0
 14 15  1  0
 15 16  1  0
 16 17  2  0
 17 18  1  0
 18 19  1  0
 18 20  2  0
 20 21  1  0
 21 22  1  0
 21 23  2  0
 23 24  1  0
 24 25  3  0
  9 26  1  0
 26 27  2  0
 27  6  1  0
 23 16  1  0
  1 28  1  0
  1 29  1  0
  1 30  1  0
  2 31  1  0
  2 32  1  0
  7 33  1  0
  8 34  1  0
 10 35  1  0
 13 36  1  0
 13 37  1  0
 14 38  1  0
 14 39  1  0
 19 40  1  0
 19 41  1  0
 19 42  1  0
 20 43  1  0
 22 44  1  0
 22 45  1  0
 22 46  1  0
 26 47  1  0
 27 48  1  0
M  END
>  <Binding energies>  (1) 
[-8.21]

>  <Ligand effiencies>  (1) 
[-0.29321428571428576]

>  <Interactions>  (1) 
["V-B:PRO:540:CB:9857, V-A:ILE:369:CG2:3236, V-B:TYR:539:CE2:9848, V-B:PRO:540:N:9856, V-B:TYR:539:CZ:9849, V-B:TYR:539:CD2:9846, V-B:PRO:540:CA:9855, V-A:PRO:482:CG:4326, V-B:PRO:540:C:9853, V-B:MET:535:CE:9807, H-B:TYR:539:N:9842, V-A:LEU:475:CD1:4257, H-B:TYR:531:OH:9767, V-B:ALA:541:CA:9862, V-A:SER:385:CA:3406, V-B:TYR:539:C:9839, V-B:ALA:541:CB:9864, V-A:ASP:366:CG:3212, V-A:ILE:369:CD1:3238, V-A:ASP:366:C:3207, V-A:ASP:366:CB:3211, V-A:ASP:366:CA:3209, V-A:ILE:369:CB:3235, V-B:LEU:363:CA:8156, V-B:LEU:363:CB:8158, V-B:TYR:531:CE2:9765, V-B:LEU:363:CD1:8160, H-A:HIS:383:NE2:3393, H-A:SER:385:OG:3409, H-B:TYR:539:OH:9850"]

$$$$
1o_Grossjean_2025
     RDKit          3D

 45 46  0  0  0  0  0  0  0  0999 V2000
  124.2940  123.8040   59.2100 C   0  0  0  0  0  0  0  0  0  0  0  0
  125.2010  122.9830   58.4890 O   0  0  0  0  0  0  0  0  0  0  0  0
  125.9560  123.4930   57.4810 C   0  0  0  0  0  0  0  0  0  0  0  0
  125.4820  123.8960   56.4140 O   0  0  0  0  0  0  0  0  0  0  0  0
  127.4240  123.5200   57.7930 C   0  0  0  0  0  0  0  0  0  0  0  0
  128.0250  122.5630   58.6230 C   0  0  0  0  0  0  0  0  0  0  0  0
  129.3900  122.6150   58.8910 C   0  0  0  0  0  0  0  0  0  0  0  0
  130.1810  123.6250   58.3420 C   0  0  0  0  0  0  0  0  0  0  0  0
  131.5500  123.5790   58.6700 N   0  0  0  0  0  0  0  0  0  0  0  0
  132.1900  124.0220   59.7750 C   0  0  0  0  0  0  0  0  0  0  0  0
  131.6460  124.5320   60.7540 O   0  0  0  0  0  0  0  0  0  0  0  0
  133.7140  123.8280   59.7780 C   0  0  0  0  0  0  0  0  0  0  0  0
  134.2950  123.5810   61.1840 C   0  0  0  0  0  0  0  0  0  0  0  0
  134.3750  121.8270   61.6520 S   0  0  0  0  0  0  0  0  0  0  0  0
  132.7310  121.1460   61.5700 C   0  0  0  0  0  0  0  0  0  0  0  0
  131.7890  121.9350   62.1470 N   0  0  0  0  0  0  0  0  0  0  0  0
  130.5000  121.5230   62.1370 C   0  0  0  0  0  0  0  0  0  0  0  0
  129.5030  122.4640   62.7880 C   0  0  0  0  0  0  0  0  0  0  0  0
  130.1000  120.3160   61.5690 C   0  0  0  0  0  0  0  0  0  0  0  0
  131.0660  119.4830   60.9940 C   0  0  0  0  0  0  0  0  0  0  0  0
  130.6040  118.1570   60.3910 C   0  0  0  0  0  0  0  0  0  0  0  0
  132.4200  119.8890   60.9960 C   0  0  0  0  0  0  0  0  0  0  0  0
  133.4520  119.0040   60.4520 C   0  0  0  0  0  0  0  0  0  0  0  0
  134.2650  118.3030   60.0200 N   0  0  0  0  0  0  0  0  0  0  0  0
  129.5880  124.5840   57.5060 C   0  0  0  0  0  0  0  0  0  0  0  0
  128.2230  124.5290   57.2390 C   0  0  0  0  0  0  0  0  0  0  0  0
  124.4502  123.6626   60.2896 H   0  0  0  0  0  0  0  0  0  0  0  0
  124.4673  124.8585   58.9494 H   0  0  0  0  0  0  0  0  0  0  0  0
  123.2619  123.5268   58.9494 H   0  0  0  0  0  0  0  0  0  0  0  0
  127.4125  121.7641   59.0663 H   0  0  0  0  0  0  0  0  0  0  0  0
  129.8484  121.8545   59.5402 H   0  0  0  0  0  0  0  0  0  0  0  0
  132.1250  123.1220   57.9780 H   0  0  0  0  0  0  0  0  0  0  0  0
  133.9570  122.9632   59.1431 H   0  0  0  0  0  0  0  0  0  0  0  0
  134.1614  124.7590   59.3999 H   0  0  0  0  0  0  0  0  0  0  0  0
  135.3140  123.9942   61.2148 H   0  0  0  0  0  0  0  0  0  0  0  0
  133.6178  124.0710   61.8991 H   0  0  0  0  0  0  0  0  0  0  0  0
  129.5856  122.3860   63.8821 H   0  0  0  0  0  0  0  0  0  0  0  0
  129.7168  123.4972   62.4769 H   0  0  0  0  0  0  0  0  0  0  0  0
  128.4839  122.1909   62.4769 H   0  0  0  0  0  0  0  0  0  0  0  0
  129.0401  120.0218   61.5724 H   0  0  0  0  0  0  0  0  0  0  0  0
  130.3585  117.4524   61.1993 H   0  0  0  0  0  0  0  0  0  0  0  0
  129.7123  118.3276   59.7698 H   0  0  0  0  0  0  0  0  0  0  0  0
  131.4086  117.7366   59.7698 H   0  0  0  0  0  0  0  0  0  0  0  0
  130.2029  125.3802   57.0612 H   0  0  0  0  0  0  0  0  0  0  0  0
  127.7661  125.2866   56.5853 H   0  0  0  0  0  0  0  0  0  0  0  0
  1  2  1  0
  2  3  1  0
  3  4  2  0
  3  5  1  0
  5  6  2  0
  6  7  1  0
  7  8  2  0
  8  9  1  0
  9 10  1  0
 10 11  2  0
 10 12  1  0
 12 13  1  0
 13 14  1  0
 14 15  1  0
 15 16  2  0
 16 17  1  0
 17 18  1  0
 17 19  2  0
 19 20  1  0
 20 21  1  0
 20 22  2  0
 22 23  1  0
 23 24  3  0
  8 25  1  0
 25 26  2  0
 26  5  1  0
 22 15  1  0
  1 27  1  0
  1 28  1  0
  1 29  1  0
  6 30  1  0
  7 31  1  0
  9 32  1  0
 12 33  1  0
 12 34  1  0
 13 35  1  0
 13 36  1  0
 18 37  1  0
 18 38  1  0
 18 39  1  0
 19 40  1  0
 21 41  1  0
 21 42  1  0
 21 43  1  0
 25 44  1  0
 26 45  1  0
M  END
>  <Binding energies>  (1) 
[-6.97]

>  <Ligand effiencies>  (1) 
[-0.2581481481481481]

>  <Interactions>  (1) 
["V-B:PRO:540:CB:9857, V-A:ILE:369:CG2:3236, V-B:TYR:539:CE2:9848, V-B:PRO:540:N:9856, V-B:TYR:539:CZ:9849, V-B:TYR:539:CD2:9846, V-B:PRO:540:CA:9855, V-A:PRO:482:CG:4326, V-B:MET:535:CE:9807, V-A:LEU:475:CD1:4257, H-B:TYR:531:OH:9767, V-B:ALA:541:CA:9862, V-A:SER:385:CA:3406, V-B:TYR:539:C:9839, V-B:ALA:541:CB:9864, V-A:ASP:366:CG:3212, V-A:ILE:369:CD1:3238, V-A:ASP:366:CB:3211, V-A:ASP:366:CA:3209, V-A:ILE:369:CB:3235, V-B:ASP:366:CG:8184, V-B:LEU:363:CA:8156, V-B:LEU:363:CB:8158, V-B:LEU:363:CD1:8160, H-A:HIS:383:NE2:3393, H-A:SER:385:OG:3409, H-B:TYR:539:OH:9850"]

$$$$
1p_Grossjean_2025
     RDKit          3D

 35 36  0  0  0  0  0  0  0  0999 V2000
  129.3550  125.5940   63.0080 C   0  0  0  0  0  0  0  0  0  0  0  0
  130.5970  125.5270   63.8750 C   0  0  0  0  0  0  0  0  0  0  0  0
  130.5490  125.8070   65.2400 C   0  0  0  0  0  0  0  0  0  0  0  0
  131.7290  125.7430   65.9890 C   0  0  0  0  0  0  0  0  0  0  0  0
  131.6560  126.0680   67.4790 C   0  0  0  0  0  0  0  0  0  0  0  0
  132.9370  125.3880   65.3470 C   0  0  0  0  0  0  0  0  0  0  0  0
  134.1920  125.3600   66.0980 C   0  0  0  0  0  0  0  0  0  0  0  0
  135.1850  125.3380   66.6940 N   0  0  0  0  0  0  0  0  0  0  0  0
  132.8880  125.0970   63.9620 C   0  0  0  0  0  0  0  0  0  0  0  0
  134.3100  124.6260   63.0050 S   0  0  0  0  0  0  0  0  0  0  0  0
  133.7170  124.2580   61.3270 C   0  0  0  0  0  0  0  0  0  0  0  0
  134.3660  123.0110   60.6980 C   0  0  0  0  0  0  0  0  0  0  0  0
  133.8050  121.6870   61.2390 C   0  0  0  0  0  0  0  0  0  0  0  0
  134.0600  121.3470   62.3960 O   0  0  0  0  0  0  0  0  0  0  0  0
  133.0380  120.9820   60.3780 N   0  0  0  0  0  0  0  0  0  0  0  0
  132.4130  119.7640   60.6120 C   0  0  0  0  0  0  0  0  0  0  0  0
  131.0900  119.6570   61.0430 C   0  0  0  0  0  0  0  0  0  0  0  0
  130.8580  118.3050   61.1530 C   0  0  0  0  0  0  0  0  0  0  0  0
  131.9820  117.6330   60.8090 O   0  0  0  0  0  0  0  0  0  0  0  0
  132.9610  118.5690   60.4690 N   0  0  0  0  0  0  0  0  0  0  0  0
  131.7420  125.1830   63.2400 N   0  0  0  0  0  0  0  0  0  0  0  0
  128.4625  125.6421   63.6491 H   0  0  0  0  0  0  0  0  0  0  0  0
  129.3991  126.4911   62.3729 H   0  0  0  0  0  0  0  0  0  0  0  0
  129.3023  124.6974   62.3729 H   0  0  0  0  0  0  0  0  0  0  0  0
  129.5967  126.0745   65.7213 H   0  0  0  0  0  0  0  0  0  0  0  0
  131.8603  125.1585   68.0631 H   0  0  0  0  0  0  0  0  0  0  0  0
  132.4039  126.8366   67.7237 H   0  0  0  0  0  0  0  0  0  0  0  0
  130.6513  126.4430   67.7237 H   0  0  0  0  0  0  0  0  0  0  0  0
  132.6295  124.0983   61.3707 H   0  0  0  0  0  0  0  0  0  0  0  0
  133.9915  125.1154   60.6949 H   0  0  0  0  0  0  0  0  0  0  0  0
  134.1977  123.0419   59.6114 H   0  0  0  0  0  0  0  0  0  0  0  0
  135.4348  123.0383   60.9565 H   0  0  0  0  0  0  0  0  0  0  0  0
  132.9040  121.3680   59.4550 H   0  0  0  0  0  0  0  0  0  0  0  0
  130.3853  120.4759   61.2500 H   0  0  0  0  0  0  0  0  0  0  0  0
  129.9108  117.8440   61.4698 H   0  0  0  0  0  0  0  0  0  0  0  0
  1  2  1  0
  2  3  2  0
  3  4  1  0
  4  5  1  0
  4  6  2  0
  6  7  1  0
  7  8  3  0
  6  9  1  0
  9 10  1  0
 10 11  1  0
 11 12  1  0
 12 13  1  0
 13 14  2  0
 13 15  1  0
 15 16  1  0
 16 17  1  0
 17 18  2  0
 18 19  1  0
 19 20  1  0
  9 21  2  0
 21  2  1  0
 20 16  2  0
  1 22  1  0
  1 23  1  0
  1 24  1  0
  3 25  1  0
  5 26  1  0
  5 27  1  0
  5 28  1  0
 11 29  1  0
 11 30  1  0
 12 31  1  0
 12 32  1  0
 15 33  1  0
 17 34  1  0
 18 35  1  0
M  END
>  <Binding energies>  (1) 
[-6.94]

>  <Ligand effiencies>  (1) 
[-0.3154545454545455]

>  <Interactions>  (1) 
["V-A:ILE:369:CG2:3236, V-B:TYR:539:CE2:9848, V-B:TYR:539:CD2:9846, V-A:PRO:482:CG:4326, V-A:PRO:482:CB:4325, V-A:LEU:475:CD1:4257, V-A:ARG:545:CD:4923, V-A:ARG:545:CZ:4926, V-A:GLY:453:CA:4043, V-A:GLY:453:C:4041, V-A:HIS:456:CE1:4069, V-A:ARG:545:CG:4922, V-A:GLY:454:CA:4048, H-A:GLY:454:N:4049, V-A:ASP:366:CG:3212, H-A:ARG:545:NH1:4927, V-A:ILE:369:CD1:3238, V-A:TYR:484:CZ:4346, V-A:ILE:369:CB:3235, H-A:ARG:545:NH2:4928, H-A:ARG:545:NE:4924, H-A:HIS:383:NE2:3393, H-A:SER:385:OG:3409, H-A:ILE:455:N:4054, V-A:ILE:369:CG1:3237"]

$$$$
1q_Grossjean_2025
     RDKit          3D

 38 38  0  0  0  0  0  0  0  0999 V2000
  125.1370  124.0660   57.9070 C   0  0  0  0  0  0  0  0  0  0  0  0
  126.1670  123.7680   56.9740 O   0  0  0  0  0  0  0  0  0  0  0  0
  126.6610  122.5100   56.8740 C   0  0  0  0  0  0  0  0  0  0  0  0
  126.1270  121.5760   56.2720 O   0  0  0  0  0  0  0  0  0  0  0  0
  127.9910  122.2960   57.6270 C   0  0  0  0  0  0  0  0  0  0  0  0
  127.8880  122.5760   59.0670 N   0  0  0  0  0  0  0  0  0  0  0  0
  128.2370  123.7260   59.6740 C   0  0  0  0  0  0  0  0  0  0  0  0
  128.6930  124.6970   59.0670 O   0  0  0  0  0  0  0  0  0  0  0  0
  128.0200  123.7780   61.1940 C   0  0  0  0  0  0  0  0  0  0  0  0
  128.9420  122.8400   61.9980 C   0  0  0  0  0  0  0  0  0  0  0  0
  129.3250  121.2840   61.1400 S   0  0  0  0  0  0  0  0  0  0  0  0
  131.0950  121.0930   61.0740 C   0  0  0  0  0  0  0  0  0  0  0  0
  131.7710  122.2090   61.4460 N   0  0  0  0  0  0  0  0  0  0  0  0
  133.1240  122.1860   61.4340 C   0  0  0  0  0  0  0  0  0  0  0  0
  133.8090  123.4750   61.8470 C   0  0  0  0  0  0  0  0  0  0  0  0
  133.8540  121.0580   61.0650 C   0  0  0  0  0  0  0  0  0  0  0  0
  133.1680  119.8940   60.7040 C   0  0  0  0  0  0  0  0  0  0  0  0
  133.9900  118.6640   60.3210 C   0  0  0  0  0  0  0  0  0  0  0  0
  131.7540  119.8930   60.7110 C   0  0  0  0  0  0  0  0  0  0  0  0
  131.0200  118.6670   60.3910 C   0  0  0  0  0  0  0  0  0  0  0  0
  130.4440  117.6960   60.1380 N   0  0  0  0  0  0  0  0  0  0  0  0
  125.5252  123.9537   58.9301 H   0  0  0  0  0  0  0  0  0  0  0  0
  124.7939  125.1002   57.7565 H   0  0  0  0  0  0  0  0  0  0  0  0
  124.2947  123.3747   57.7565 H   0  0  0  0  0  0  0  0  0  0  0  0
  128.3041  121.2498   57.4949 H   0  0  0  0  0  0  0  0  0  0  0  0
  128.7239  123.0004   57.2066 H   0  0  0  0  0  0  0  0  0  0  0  0
  127.5450  121.8190   59.6420 H   0  0  0  0  0  0  0  0  0  0  0  0
  128.1979  124.8094   61.5325 H   0  0  0  0  0  0  0  0  0  0  0  0
  126.9893  123.4402   61.3772 H   0  0  0  0  0  0  0  0  0  0  0  0
  129.8860  123.3681   62.1982 H   0  0  0  0  0  0  0  0  0  0  0  0
  128.4063  122.5754   62.9216 H   0  0  0  0  0  0  0  0  0  0  0  0
  133.8421  123.5372   62.9447 H   0  0  0  0  0  0  0  0  0  0  0  0
  134.8339  123.4897   61.4479 H   0  0  0  0  0  0  0  0  0  0  0  0
  133.2477  124.3327   61.4479 H   0  0  0  0  0  0  0  0  0  0  0  0
  134.9537  121.0827   61.0577 H   0  0  0  0  0  0  0  0  0  0  0  0
  134.3317  118.1528   61.2331 H   0  0  0  0  0  0  0  0  0  0  0  0
  133.3683  117.9779   59.7271 H   0  0  0  0  0  0  0  0  0  0  0  0
  134.8618  118.9760   59.7271 H   0  0  0  0  0  0  0  0  0  0  0  0
  1  2  1  0
  2  3  1  0
  3  4  2  0
  3  5  1  0
  5  6  1  0
  6  7  1  0
  7  8  2  0
  7  9  1  0
  9 10  1  0
 10 11  1  0
 11 12  1  0
 12 13  2  0
 13 14  1  0
 14 15  1  0
 14 16  2  0
 16 17  1  0
 17 18  1  0
 17 19  2  0
 19 20  1  0
 20 21  3  0
 19 12  1  0
  1 22  1  0
  1 23  1  0
  1 24  1  0
  5 25  1  0
  5 26  1  0
  6 27  1  0
  9 28  1  0
  9 29  1  0
 10 30  1  0
 10 31  1  0
 15 32  1  0
 15 33  1  0
 15 34  1  0
 16 35  1  0
 18 36  1  0
 18 37  1  0
 18 38  1  0
M  END
>  <Binding energies>  (1) 
[-5.99]

>  <Ligand effiencies>  (1) 
[-0.2722727272727273]

>  <Interactions>  (1) 
["V-A:ILE:369:CG2:3236, V-B:TYR:539:CE2:9848, V-B:PRO:540:N:9856, V-B:TYR:539:CD2:9846, V-B:PRO:540:CA:9855, V-B:MET:535:CE:9807, H-B:TYR:539:N:9842, V-A:LEU:475:CD1:4257, H-B:ALA:541:N:9863, V-A:SER:385:CB:3408, H-B:TYR:531:OH:9767, V-A:SER:385:CA:3406, V-A:SER:385:C:3404, V-B:TYR:539:C:9839, V-B:ALA:541:CB:9864, V-A:ILE:369:CD1:3238, V-A:HIS:383:CD2:3391, V-B:TYR:539:CG:9844, V-B:TYR:531:CE2:9765, V-B:LEU:363:CD1:8160, H-B:TYR:539:O:9840, H-A:HIS:383:NE2:3393"]

$$$$
2a_Ghoteimi_2023
     RDKit          3D

 85 90  0  0  0  0  0  0  0  0999 V2000
  133.4410  131.0230   60.1810 C   0  0  0  0  0  0  0  0  0  0  0  0
  133.2920  130.9920   58.6570 C   0  0  0  0  0  0  0  0  0  0  0  0
  131.9620  130.6180   58.3200 O   0  0  0  0  0  0  0  0  0  0  0  0
  131.0020  131.5540   58.1090 C   0  0  0  0  0  0  0  0  0  0  0  0
  130.9720  132.2860   57.1150 O   0  0  0  0  0  0  0  0  0  0  0  0
  129.9740  131.6060   59.2040 C   0  0  0  0  0  0  0  0  0  0  0  0
  130.2060  131.0450   60.4680 C   0  0  0  0  0  0  0  0  0  0  0  0
  129.2330  131.1120   61.4600 C   0  0  0  0  0  0  0  0  0  0  0  0
  128.0120  131.7430   61.2140 C   0  0  0  0  0  0  0  0  0  0  0  0
  127.1000  131.7480   62.2870 N   0  0  0  0  0  0  0  0  0  0  0  0
  125.7500  131.8040   62.2750 C   0  0  0  0  0  0  0  0  0  0  0  0
  125.0550  131.9120   61.2640 O   0  0  0  0  0  0  0  0  0  0  0  0
  125.0840  131.7650   63.6560 C   0  0  0  0  0  0  0  0  0  0  0  0
  124.5770  130.1030   64.2020 S   0  0  0  0  0  0  0  0  0  0  0  0
  126.0660  129.1320   64.2330 C   0  0  0  0  0  0  0  0  0  0  0  0
  126.5320  128.8830   65.4780 N   0  0  0  0  0  0  0  0  0  0  0  0
  127.6690  128.1580   65.6320 C   0  0  0  0  0  0  0  0  0  0  0  0
  128.1290  127.9300   67.0360 C   0  0  0  0  0  0  0  0  0  0  0  0
  128.7050  128.9620   67.7880 C   0  0  0  0  0  0  0  0  0  0  0  0
  129.1420  128.7410   69.0900 C   0  0  0  0  0  0  0  0  0  0  0  0
  129.0140  127.4820   69.6940 C   0  0  0  0  0  0  0  0  0  0  0  0
  129.4860  127.2670   70.9940 N   0  0  0  0  0  0  0  0  0  0  0  0
  128.8330  126.3010   71.9000 C   0  0  0  0  0  0  0  0  0  0  0  0
  129.6840  125.9300   73.1330 C   0  0  0  0  0  0  0  0  0  0  0  0
  130.0640  127.1050   73.8320 O   0  0  0  0  0  0  0  0  0  0  0  0
  130.8400  127.9650   73.0140 C   0  0  0  0  0  0  0  0  0  0  0  0
  130.0270  128.3990   71.7760 C   0  0  0  0  0  0  0  0  0  0  0  0
  128.4470  126.4480   68.9320 C   0  0  0  0  0  0  0  0  0  0  0  0
  128.0080  126.6700   67.6310 C   0  0  0  0  0  0  0  0  0  0  0  0
  128.3600  127.6540   64.5270 C   0  0  0  0  0  0  0  0  0  0  0  0
  127.8960  127.9000   63.2270 C   0  0  0  0  0  0  0  0  0  0  0  0
  128.6860  127.3370   62.0910 C   0  0  0  0  0  0  0  0  0  0  0  0
  128.2840  126.1480   61.4760 C   0  0  0  0  0  0  0  0  0  0  0  0
  129.0240  125.6050   60.4300 C   0  0  0  0  0  0  0  0  0  0  0  0
  130.1880  126.2360   59.9660 C   0  0  0  0  0  0  0  0  0  0  0  0
  130.9560  125.6970   58.9290 N   0  0  0  0  0  0  0  0  0  0  0  0
  132.1220  124.8520   59.2570 C   0  0  0  0  0  0  0  0  0  0  0  0
  132.6290  124.0220   58.0580 C   0  0  0  0  0  0  0  0  0  0  0  0
  132.9180  124.8760   56.9630 O   0  0  0  0  0  0  0  0  0  0  0  0
  131.7700  125.5970   56.5420 C   0  0  0  0  0  0  0  0  0  0  0  0
  131.2370  126.4650   57.7000 C   0  0  0  0  0  0  0  0  0  0  0  0
  130.5920  127.4210   60.5970 C   0  0  0  0  0  0  0  0  0  0  0  0
  129.8530  127.9640   61.6440 C   0  0  0  0  0  0  0  0  0  0  0  0
  126.7100  128.6570   63.0680 C   0  0  0  0  0  0  0  0  0  0  0  0
  126.1450  128.8990   61.7370 C   0  0  0  0  0  0  0  0  0  0  0  0
  125.7020  129.0900   60.6850 N   0  0  0  0  0  0  0  0  0  0  0  0
  127.7700  132.3000   59.9500 C   0  0  0  0  0  0  0  0  0  0  0  0
  128.7450  132.2330   58.9580 C   0  0  0  0  0  0  0  0  0  0  0  0
  132.4663  130.8202   60.6489 H   0  0  0  0  0  0  0  0  0  0  0  0
  134.1648  130.2562   60.4943 H   0  0  0  0  0  0  0  0  0  0  0  0
  133.7989  132.0148   60.4943 H   0  0  0  0  0  0  0  0  0  0  0  0
  133.5078  131.9896   58.2468 H   0  0  0  0  0  0  0  0  0  0  0  0
  133.9975  130.2619   58.2336 H   0  0  0  0  0  0  0  0  0  0  0  0
  131.1649  130.5480   60.6768 H   0  0  0  0  0  0  0  0  0  0  0  0
  129.4271  130.6644   62.4459 H   0  0  0  0  0  0  0  0  0  0  0  0
  127.5350  131.7330   63.1970 H   0  0  0  0  0  0  0  0  0  0  0  0
  125.7957  132.1665   64.3924 H   0  0  0  0  0  0  0  0  0  0  0  0
  124.1642  132.3631   63.5772 H   0  0  0  0  0  0  0  0  0  0  0  0
  128.8133  129.9618   67.3424 H   0  0  0  0  0  0  0  0  0  0  0  0
  129.5958  129.5682   69.6555 H   0  0  0  0  0  0  0  0  0  0  0  0
  127.8870  126.7393   72.2507 H   0  0  0  0  0  0  0  0  0  0  0  0
  128.6808  125.3754   71.3255 H   0  0  0  0  0  0  0  0  0  0  0  0
  129.0956  125.2833   73.8005 H   0  0  0  0  0  0  0  0  0  0  0  0
  130.5884  125.3991   72.8010 H   0  0  0  0  0  0  0  0  0  0  0  0
  131.1257  128.8563   73.5920 H   0  0  0  0  0  0  0  0  0  0  0  0
  131.7410  127.4284   72.6819 H   0  0  0  0  0  0  0  0  0  0  0  0
  129.1853  129.0214   72.1139 H   0  0  0  0  0  0  0  0  0  0  0  0
  130.7150  128.9467   71.1152 H   0  0  0  0  0  0  0  0  0  0  0  0
  128.3482  125.4446   69.3717 H   0  0  0  0  0  0  0  0  0  0  0  0
  127.5591  125.8426   67.0618 H   0  0  0  0  0  0  0  0  0  0  0  0
  129.2738  127.0605   64.6780 H   0  0  0  0  0  0  0  0  0  0  0  0
  127.3738  125.6365   61.8222 H   0  0  0  0  0  0  0  0  0  0  0  0
  128.6915  124.6676   59.9602 H   0  0  0  0  0  0  0  0  0  0  0  0
  132.9391  125.5026   59.6021 H   0  0  0  0  0  0  0  0  0  0  0  0
  131.8025  124.1419   60.0340 H   0  0  0  0  0  0  0  0  0  0  0  0
  133.5419  123.4818   58.3492 H   0  0  0  0  0  0  0  0  0  0  0  0
  131.8495  123.3052   57.7603 H   0  0  0  0  0  0  0  0  0  0  0  0
  132.0377  126.2451   55.6945 H   0  0  0  0  0  0  0  0  0  0  0  0
  130.9892  124.8852   56.2359 H   0  0  0  0  0  0  0  0  0  0  0  0
  131.9884  127.2337   57.9337 H   0  0  0  0  0  0  0  0  0  0  0  0
  130.2843  126.9017   57.3658 H   0  0  0  0  0  0  0  0  0  0  0  0
  131.5072  127.9294   60.2594 H   0  0  0  0  0  0  0  0  0  0  0  0
  130.1900  128.8946   62.1240 H   0  0  0  0  0  0  0  0  0  0  0  0
  126.8079  132.7909   59.7417 H   0  0  0  0  0  0  0  0  0  0  0  0
  128.5485  132.6769   57.9709 H   0  0  0  0  0  0  0  0  0  0  0  0
  1  2  1  0
  2  3  1  0
  3  4  1  0
  4  5  2  0
  4  6  1  0
  6  7  2  0
  7  8  1  0
  8  9  2  0
  9 10  1  0
 10 11  1  0
 11 12  2  0
 11 13  1  0
 13 14  1  0
 14 15  1  0
 15 16  2  0
 16 17  1  0
 17 18  1  0
 18 19  2  0
 19 20  1  0
 20 21  2  0
 21 22  1  0
 22 23  1  0
 23 24  1  0
 24 25  1  0
 25 26  1  0
 26 27  1  0
 21 28  1  0
 28 29  2  0
 17 30  2  0
 30 31  1  0
 31 32  1  0
 32 33  2  0
 33 34  1  0
 34 35  2  0
 35 36  1  0
 36 37  1  0
 37 38  1  0
 38 39  1  0
 39 40  1  0
 40 41  1  0
 35 42  1  0
 42 43  2  0
 31 44  2  0
 44 45  1  0
 45 46  3  0
  9 47  1  0
 47 48  2  0
 48  6  1  0
 44 15  1  0
 29 18  1  0
 43 32  1  0
 27 22  1  0
 41 36  1  0
  1 49  1  0
  1 50  1  0
  1 51  1  0
  2 52  1  0
  2 53  1  0
  7 54  1  0
  8 55  1  0
 10 56  1  0
 13 57  1  0
 13 58  1  0
 19 59  1  0
 20 60  1  0
 23 61  1  0
 23 62  1  0
 24 63  1  0
 24 64  1  0
 26 65  1  0
 26 66  1  0
 27 67  1  0
 27 68  1  0
 28 69  1  0
 29 70  1  0
 30 71  1  0
 33 72  1  0
 34 73  1  0
 37 74  1  0
 37 75  1  0
 38 76  1  0
 38 77  1  0
 40 78  1  0
 40 79  1  0
 41 80  1  0
 41 81  1  0
 42 82  1  0
 43 83  1  0
 47 84  1  0
 48 85  1  0
M  END
>  <Binding energies>  (1) 
[-8.72]

>  <Ligand effiencies>  (1) 
[-0.1779591836734694]

>  <Interactions>  (1) 
["V-B:TYR:539:CE2:9848, V-B:TYR:539:CZ:9849, V-B:GLU:543:CD:9880, V-B:GLU:543:CB:9878, V-A:GLU:543:CB:4906, V-A:HIS:456:CE1:4069, V-B:HIS:456:CE1:9041, V-B:ARG:545:CZ:9898, H-B:GLY:454:N:9021, V-A:GLU:543:C:4902, V-B:GLU:543:CG:9879, V-A:GLU:543:CD:4908, V-A:GLU:543:CG:4907, V-A:ASP:366:CG:3212, V-B:HIS:456:CD2:9039, V-A:ASP:366:CB:3211, V-A:LYS:547:CE:4950, V-A:TYR:539:CE1:4875, V-B:ASP:366:CG:8184, V-A:TYR:539:C:4867, H-A:TYR:539:N:4870, V-A:PRO:540:CA:4883, V-A:TYR:539:CD1:4873, V-A:HIS:456:CD2:4067, V-A:PRO:540:CB:4885, V-A:PRO:540:N:4884, V-A:ASN:362:C:3171, V-A:LEU:363:CD1:3188, V-A:ASN:362:CB:3175, V-A:LEU:363:CA:3184, V-A:LEU:363:CB:3186, V-B:LEU:475:CD1:9229, V-B:GLY:454:CA:9020, H-B:TYR:539:OH:9850"]

$$$$
2a_Grossjean_2025
     RDKit          3D

 45 46  0  0  0  0  0  0  0  0999 V2000
  128.3830  129.4070   67.5970 C   0  0  0  0  0  0  0  0  0  0  0  0
  128.2310  127.8860   67.5020 C   0  0  0  0  0  0  0  0  0  0  0  0
  129.2040  127.2630   68.3320 O   0  0  0  0  0  0  0  0  0  0  0  0
  129.4870  125.9410   68.2100 C   0  0  0  0  0  0  0  0  0  0  0  0
  129.1730  125.0960   69.0530 O   0  0  0  0  0  0  0  0  0  0  0  0
  130.2010  125.6060   66.9310 C   0  0  0  0  0  0  0  0  0  0  0  0
  129.6180  124.7950   65.9460 C   0  0  0  0  0  0  0  0  0  0  0  0
  130.3080  124.5030   64.7730 C   0  0  0  0  0  0  0  0  0  0  0  0
  131.5930  125.0050   64.5640 C   0  0  0  0  0  0  0  0  0  0  0  0
  132.2010  124.6340   63.3500 N   0  0  0  0  0  0  0  0  0  0  0  0
  133.5060  124.6230   63.0000 C   0  0  0  0  0  0  0  0  0  0  0  0
  134.4410  124.9810   63.7170 O   0  0  0  0  0  0  0  0  0  0  0  0
  133.8050  124.1190   61.5840 C   0  0  0  0  0  0  0  0  0  0  0  0
  134.0290  122.3110   61.4930 S   0  0  0  0  0  0  0  0  0  0  0  0
  132.4310  121.5060   61.4690 C   0  0  0  0  0  0  0  0  0  0  0  0
  131.3760  122.2790   61.8340 N   0  0  0  0  0  0  0  0  0  0  0  0
  130.1400  121.7320   61.8510 C   0  0  0  0  0  0  0  0  0  0  0  0
  129.0170  122.6510   62.2950 C   0  0  0  0  0  0  0  0  0  0  0  0
  129.9000  120.4070   61.5010 C   0  0  0  0  0  0  0  0  0  0  0  0
  130.9740  119.5910   61.1120 C   0  0  0  0  0  0  0  0  0  0  0  0
  130.6920  118.1270   60.7260 C   0  0  0  0  0  0  0  0  0  0  0  0
  131.3990  117.3050   61.5020 F   0  0  0  0  0  0  0  0  0  0  0  0
  129.3940  117.8580   60.8780 F   0  0  0  0  0  0  0  0  0  0  0  0
  131.0120  117.8570   59.4580 F   0  0  0  0  0  0  0  0  0  0  0  0
  132.2770  120.1510   61.0930 C   0  0  0  0  0  0  0  0  0  0  0  0
  133.4360  119.3440   60.6980 C   0  0  0  0  0  0  0  0  0  0  0  0
  134.3500  118.7060   60.3870 N   0  0  0  0  0  0  0  0  0  0  0  0
  132.1790  125.8220   65.5410 C   0  0  0  0  0  0  0  0  0  0  0  0
  131.4860  126.1180   66.7110 C   0  0  0  0  0  0  0  0  0  0  0  0
  128.4130  129.7071   68.6548 H   0  0  0  0  0  0  0  0  0  0  0  0
  129.3163  129.7138   67.1022 H   0  0  0  0  0  0  0  0  0  0  0  0
  127.5289  129.8925   67.1022 H   0  0  0  0  0  0  0  0  0  0  0  0
  127.2237  127.5959   67.8355 H   0  0  0  0  0  0  0  0  0  0  0  0
  128.3766  127.5657   66.4598 H   0  0  0  0  0  0  0  0  0  0  0  0
  128.6084  124.3870   66.1017 H   0  0  0  0  0  0  0  0  0  0  0  0
  129.8368  123.8719   64.0051 H   0  0  0  0  0  0  0  0  0  0  0  0
  131.5570  124.2820   62.6590 H   0  0  0  0  0  0  0  0  0  0  0  0
  132.9670  124.4002   60.9292 H   0  0  0  0  0  0  0  0  0  0  0  0
  134.7519  124.5806   61.2674 H   0  0  0  0  0  0  0  0  0  0  0  0
  128.9805  122.6809   63.3940 H   0  0  0  0  0  0  0  0  0  0  0  0
  129.1970  123.6642   61.9064 H   0  0  0  0  0  0  0  0  0  0  0  0
  128.0594  122.2741   61.9064 H   0  0  0  0  0  0  0  0  0  0  0  0
  128.8775  120.0023   61.5289 H   0  0  0  0  0  0  0  0  0  0  0  0
  133.1883  126.2298   65.3825 H   0  0  0  0  0  0  0  0  0  0  0  0
  131.9527  126.7613   67.4715 H   0  0  0  0  0  0  0  0  0  0  0  0
  1  2  1  0
  2  3  1  0
  3  4  1  0
  4  5  2  0
  4  6  1  0
  6  7  2  0
  7  8  1  0
  8  9  2  0
  9 10  1  0
 10 11  1  0
 11 12  2  0
 11 13  1  0
 13 14  1  0
 14 15  1  0
 15 16  2  0
 16 17  1  0
 17 18  1  0
 17 19  2  0
 19 20  1  0
 20 21  1  0
 21 22  1  0
 21 23  1  0
 21 24  1  0
 20 25  2  0
 25 26  1  0
 26 27  3  0
  9 28  1  0
 28 29  2  0
 29  6  1  0
 25 15  1  0
  1 30  1  0
  1 31  1  0
  1 32  1  0
  2 33  1  0
  2 34  1  0
  7 35  1  0
  8 36  1  0
 10 37  1  0
 13 38  1  0
 13 39  1  0
 18 40  1  0
 18 41  1  0
 18 42  1  0
 19 43  1  0
 28 44  1  0
 29 45  1  0
M  END
>  <Binding energies>  (1) 
[-7.26]

>  <Ligand effiencies>  (1) 
[-0.242]

>  <Interactions>  (1) 
["V-A:ILE:369:CG2:3236, V-B:TYR:539:CD2:9846, V-A:PRO:482:CG:4326, V-B:PRO:540:C:9853, V-A:PRO:482:CB:4325, V-A:LEU:475:CD1:4257, V-B:ALA:541:CA:9862, V-A:SER:385:CA:3406, V-B:TYR:539:C:9839, V-B:ALA:541:CB:9864, V-B:GLU:543:CD:9880, V-A:ARG:545:CZ:4926, V-B:GLU:543:CB:9878, V-A:GLU:543:CB:4906, V-A:HIS:456:CE1:4069, V-B:HIS:456:CE1:9041, V-A:HIS:383:CE1:3392, H-A:GLY:454:N:4049, V-B:TYR:484:CE2:9317, V-B:GLU:543:CG:9879, V-A:GLU:543:CD:4908, V-A:GLU:543:CG:4907, V-A:ASP:366:CG:3212, H-A:ARG:545:NH1:4927, V-A:TYR:484:CE2:4345, V-A:TYR:484:CZ:4346, H-A:ARG:545:NH2:4928, V-B:TYR:539:CB:9843, V-B:TYR:539:CG:9844, H-A:HIS:383:NE2:3393, H-A:SER:385:OG:3409, V-A:PRO:482:CD:4327"]

$$$$
2aa_Ghoteimi_2023
     RDKit          3D

 85 90  0  0  0  0  0  0  0  0999 V2000
  125.0290  123.8230   57.3970 C   0  0  0  0  0  0  0  0  0  0  0  0
  125.8360  122.8000   56.5900 C   0  0  0  0  0  0  0  0  0  0  0  0
  126.5340  121.9420   57.4830 O   0  0  0  0  0  0  0  0  0  0  0  0
  127.6740  122.3480   58.1000 C   0  0  0  0  0  0  0  0  0  0  0  0
  128.7980  121.9350   57.7940 O   0  0  0  0  0  0  0  0  0  0  0  0
  127.4340  123.3620   59.1820 C   0  0  0  0  0  0  0  0  0  0  0  0
  128.0770  124.6090   59.1840 C   0  0  0  0  0  0  0  0  0  0  0  0
  127.8310  125.5290   60.1980 C   0  0  0  0  0  0  0  0  0  0  0  0
  126.9470  125.2210   61.2340 C   0  0  0  0  0  0  0  0  0  0  0  0
  126.7700  126.2260   62.2050 N   0  0  0  0  0  0  0  0  0  0  0  0
  126.4390  127.5260   62.0540 C   0  0  0  0  0  0  0  0  0  0  0  0
  126.1970  128.0750   60.9770 O   0  0  0  0  0  0  0  0  0  0  0  0
  126.3540  128.3200   63.3640 C   0  0  0  0  0  0  0  0  0  0  0  0
  127.6720  128.5490   63.8750 O   0  0  0  0  0  0  0  0  0  0  0  0
  128.2780  127.6010   64.6890 C   0  0  0  0  0  0  0  0  0  0  0  0
  128.7730  126.4750   64.1030 N   0  0  0  0  0  0  0  0  0  0  0  0
  129.3750  125.5320   64.8690 C   0  0  0  0  0  0  0  0  0  0  0  0
  129.8900  124.3210   64.1570 C   0  0  0  0  0  0  0  0  0  0  0  0
  131.2390  123.9630   64.2400 C   0  0  0  0  0  0  0  0  0  0  0  0
  131.7230  122.8330   63.5850 C   0  0  0  0  0  0  0  0  0  0  0  0
  130.8700  122.0100   62.8330 C   0  0  0  0  0  0  0  0  0  0  0  0
  131.3420  120.8790   62.1580 N   0  0  0  0  0  0  0  0  0  0  0  0
  130.4200  119.9560   61.4640 C   0  0  0  0  0  0  0  0  0  0  0  0
  131.0580  118.6020   61.0900 C   0  0  0  0  0  0  0  0  0  0  0  0
  132.2350  118.8140   60.3260 O   0  0  0  0  0  0  0  0  0  0  0  0
  133.1980  119.5620   61.0520 C   0  0  0  0  0  0  0  0  0  0  0  0
  132.6230  120.9450   61.4240 C   0  0  0  0  0  0  0  0  0  0  0  0
  129.5230  122.3850   62.7350 C   0  0  0  0  0  0  0  0  0  0  0  0
  129.0410  123.5160   63.3880 C   0  0  0  0  0  0  0  0  0  0  0  0
  129.4820  125.6860   66.2550 C   0  0  0  0  0  0  0  0  0  0  0  0
  128.9720  126.8280   66.8830 C   0  0  0  0  0  0  0  0  0  0  0  0
  129.0930  126.9250   68.3700 C   0  0  0  0  0  0  0  0  0  0  0  0
  128.4100  126.0270   69.1940 C   0  0  0  0  0  0  0  0  0  0  0  0
  128.5030  126.1240   70.5790 C   0  0  0  0  0  0  0  0  0  0  0  0
  129.2710  127.1320   71.1820 C   0  0  0  0  0  0  0  0  0  0  0  0
  129.3810  127.2460   72.5710 N   0  0  0  0  0  0  0  0  0  0  0  0
  128.6790  128.3100   73.3130 C   0  0  0  0  0  0  0  0  0  0  0  0
  128.6300  128.0680   74.8370 C   0  0  0  0  0  0  0  0  0  0  0  0
  129.9440  127.8820   75.3410 O   0  0  0  0  0  0  0  0  0  0  0  0
  130.5820  126.7660   74.7380 C   0  0  0  0  0  0  0  0  0  0  0  0
  130.6830  126.9750   73.2130 C   0  0  0  0  0  0  0  0  0  0  0  0
  129.9580  128.0240   70.3480 C   0  0  0  0  0  0  0  0  0  0  0  0
  129.8660  127.9270   68.9630 C   0  0  0  0  0  0  0  0  0  0  0  0
  128.3660  127.8190   66.0760 C   0  0  0  0  0  0  0  0  0  0  0  0
  127.8500  129.0680   66.6400 C   0  0  0  0  0  0  0  0  0  0  0  0
  127.4420  130.0550   67.0870 N   0  0  0  0  0  0  0  0  0  0  0  0
  126.2950  123.9800   61.2350 C   0  0  0  0  0  0  0  0  0  0  0  0
  126.5400  123.0620   60.2170 C   0  0  0  0  0  0  0  0  0  0  0  0
  125.1741  123.6390   58.4717 H   0  0  0  0  0  0  0  0  0  0  0  0
  125.3720  124.8384   57.1492 H   0  0  0  0  0  0  0  0  0  0  0  0
  123.9617  123.7258   57.1492 H   0  0  0  0  0  0  0  0  0  0  0  0
  125.1540  122.2041   55.9656 H   0  0  0  0  0  0  0  0  0  0  0  0
  126.5561  123.3249   55.9450 H   0  0  0  0  0  0  0  0  0  0  0  0
  128.7812  124.8612   58.3774 H   0  0  0  0  0  0  0  0  0  0  0  0
  128.3364  126.5059   60.1836 H   0  0  0  0  0  0  0  0  0  0  0  0
  126.8700  125.9010   63.1560 H   0  0  0  0  0  0  0  0  0  0  0  0
  125.8620  129.2855   63.1753 H   0  0  0  0  0  0  0  0  0  0  0  0
  125.7718  127.7469   64.1006 H   0  0  0  0  0  0  0  0  0  0  0  0
  131.9286  124.5831   64.8315 H   0  0  0  0  0  0  0  0  0  0  0  0
  132.7913  122.5814   63.6582 H   0  0  0  0  0  0  0  0  0  0  0  0
  129.5605  119.7640   62.1231 H   0  0  0  0  0  0  0  0  0  0  0  0
  130.1281  120.4434   60.5221 H   0  0  0  0  0  0  0  0  0  0  0  0
  131.3140  118.0539   62.0087 H   0  0  0  0  0  0  0  0  0  0  0  0
  130.3414  118.0178   60.4941 H   0  0  0  0  0  0  0  0  0  0  0  0
  133.4635  119.0189   61.9710 H   0  0  0  0  0  0  0  0  0  0  0  0
  134.0931  119.6998   60.4276 H   0  0  0  0  0  0  0  0  0  0  0  0
  133.3574  121.4682   62.0540 H   0  0  0  0  0  0  0  0  0  0  0  0
  132.4254  121.4749   60.4805 H   0  0  0  0  0  0  0  0  0  0  0  0
  128.8347  121.7749   62.1316 H   0  0  0  0  0  0  0  0  0  0  0  0
  127.9772  123.7812   63.2985 H   0  0  0  0  0  0  0  0  0  0  0  0
  129.9703  124.9043   66.8555 H   0  0  0  0  0  0  0  0  0  0  0  0
  127.7928  125.2357   68.7436 H   0  0  0  0  0  0  0  0  0  0  0  0
  127.9668  125.4002   71.2103 H   0  0  0  0  0  0  0  0  0  0  0  0
  129.1964  129.2630   73.1282 H   0  0  0  0  0  0  0  0  0  0  0  0
  127.6394  128.3234   72.9538 H   0  0  0  0  0  0  0  0  0  0  0  0
  128.1706  128.9377   75.3295 H   0  0  0  0  0  0  0  0  0  0  0  0
  128.0339  127.1663   75.0407 H   0  0  0  0  0  0  0  0  0  0  0  0
  131.5925  126.6537   75.1578 H   0  0  0  0  0  0  0  0  0  0  0  0
  129.9909  125.8604   74.9395 H   0  0  0  0  0  0  0  0  0  0  0  0
  131.3506  127.8280   73.0214 H   0  0  0  0  0  0  0  0  0  0  0  0
  131.0694  126.0397   72.7818 H   0  0  0  0  0  0  0  0  0  0  0  0
  130.5799  128.8134   70.7952 H   0  0  0  0  0  0  0  0  0  0  0  0
  130.4065  128.6454   68.3292 H   0  0  0  0  0  0  0  0  0  0  0  0
  125.5890  123.7311   62.0410 H   0  0  0  0  0  0  0  0  0  0  0  0
  126.0252  122.0899   60.2261 H   0  0  0  0  0  0  0  0  0  0  0  0
  1  2  1  0
  2  3  1  0
  3  4  1  0
  4  5  2  0
  4  6  1  0
  6  7  2  0
  7  8  1  0
  8  9  2  0
  9 10  1  0
 10 11  1  0
 11 12  2  0
 11 13  1  0
 13 14  1  0
 14 15  1  0
 15 16  2  0
 16 17  1  0
 17 18  1  0
 18 19  2  0
 19 20  1  0
 20 21  2  0
 21 22  1  0
 22 23  1  0
 23 24  1  0
 24 25  1  0
 25 26  1  0
 26 27  1  0
 21 28  1  0
 28 29  2  0
 17 30  2  0
 30 31  1  0
 31 32  1  0
 32 33  2  0
 33 34  1  0
 34 35  2  0
 35 36  1  0
 36 37  1  0
 37 38  1  0
 38 39  1  0
 39 40  1  0
 40 41  1  0
 35 42  1  0
 42 43  2  0
 31 44  2  0
 44 45  1  0
 45 46  3  0
  9 47  1  0
 47 48  2  0
 48  6  1  0
 44 15  1  0
 29 18  1  0
 43 32  1  0
 27 22  1  0
 41 36  1  0
  1 49  1  0
  1 50  1  0
  1 51  1  0
  2 52  1  0
  2 53  1  0
  7 54  1  0
  8 55  1  0
 10 56  1  0
 13 57  1  0
 13 58  1  0
 19 59  1  0
 20 60  1  0
 23 61  1  0
 23 62  1  0
 24 63  1  0
 24 64  1  0
 26 65  1  0
 26 66  1  0
 27 67  1  0
 27 68  1  0
 28 69  1  0
 29 70  1  0
 30 71  1  0
 33 72  1  0
 34 73  1  0
 37 74  1  0
 37 75  1  0
 38 76  1  0
 38 77  1  0
 40 78  1  0
 40 79  1  0
 41 80  1  0
 41 81  1  0
 42 82  1  0
 43 83  1  0
 47 84  1  0
 48 85  1  0
M  END
>  <Binding energies>  (1) 
[-9.39]

>  <Ligand effiencies>  (1) 
[-0.1916326530612245]

>  <Interactions>  (1) 
["V-B:PRO:540:CB:9857, V-A:ILE:369:CG2:3236, V-B:PRO:540:N:9856, V-B:PRO:540:CA:9855, V-A:PRO:482:CG:4326, V-B:MET:535:CE:9807, H-B:TYR:539:N:9842, V-A:LEU:475:CD1:4257, V-B:TYR:539:C:9839, V-B:ALA:541:CB:9864, V-B:GLU:543:CD:9880, V-B:GLU:543:CB:9878, V-A:GLU:543:CB:4906, H-B:TYR:484:OH:9319, V-A:HIS:456:CE1:4069, V-B:HIS:456:CE1:9041, V-B:ARG:545:CZ:9898, V-A:GLU:543:C:4902, V-B:GLU:543:CG:9879, V-A:GLU:543:CD:4908, V-A:GLU:543:CG:4907, H-B:GLU:543:OE2:9882, V-B:GLU:543:C:9874, V-B:HIS:456:CD2:9039, V-B:ASP:366:CG:8184, V-A:HIS:456:CG:4065, V-A:HIS:456:CD2:4067, V-B:TYR:531:CZ:9766, V-B:TYR:531:CE2:9765, V-B:LEU:363:CD1:8160, H-B:GLU:543:OE1:9881, H-A:HIS:383:NE2:3393, H-A:LYS:547:NZ:4951"]

$$$$
2b_Ghoteimi_2023
     RDKit          3D

 72 77  0  0  0  0  0  0  0  0999 V2000
  128.7170  126.2060   60.0800 N   0  0  0  0  0  0  0  0  0  0  0  0
  128.7660  126.2770   61.2340 C   0  0  0  0  0  0  0  0  0  0  0  0
  128.8320  126.3620   62.6960 C   0  0  0  0  0  0  0  0  0  0  0  0
  129.3640  125.2900   63.4560 C   0  0  0  0  0  0  0  0  0  0  0  0
  129.8870  124.0260   62.8570 C   0  0  0  0  0  0  0  0  0  0  0  0
  131.2620  123.7900   62.8010 C   0  0  0  0  0  0  0  0  0  0  0  0
  131.7550  122.6140   62.2420 C   0  0  0  0  0  0  0  0  0  0  0  0
  130.8860  121.6490   61.7080 C   0  0  0  0  0  0  0  0  0  0  0  0
  131.3550  120.4570   61.1550 N   0  0  0  0  0  0  0  0  0  0  0  0
  132.8100  120.2080   61.1120 C   0  0  0  0  0  0  0  0  0  0  0  0
  133.2070  119.0640   60.1550 C   0  0  0  0  0  0  0  0  0  0  0  0
  132.4960  117.8810   60.4870 O   0  0  0  0  0  0  0  0  0  0  0  0
  131.0920  118.0680   60.3900 C   0  0  0  0  0  0  0  0  0  0  0  0
  130.6430  119.1800   61.3600 C   0  0  0  0  0  0  0  0  0  0  0  0
  129.5070  121.8980   61.7660 C   0  0  0  0  0  0  0  0  0  0  0  0
  129.0140  123.0710   62.3280 C   0  0  0  0  0  0  0  0  0  0  0  0
  129.4100  125.4190   64.8490 C   0  0  0  0  0  0  0  0  0  0  0  0
  128.9710  126.5940   65.4660 C   0  0  0  0  0  0  0  0  0  0  0  0
  129.0270  126.7930   66.9480 C   0  0  0  0  0  0  0  0  0  0  0  0
  129.0130  128.0810   67.4950 C   0  0  0  0  0  0  0  0  0  0  0  0
  129.0480  128.2740   68.8730 C   0  0  0  0  0  0  0  0  0  0  0  0
  129.1130  127.1850   69.7570 C   0  0  0  0  0  0  0  0  0  0  0  0
  129.1190  127.3630   71.1460 N   0  0  0  0  0  0  0  0  0  0  0  0
  128.8990  126.2050   72.0360 C   0  0  0  0  0  0  0  0  0  0  0  0
  128.5450  126.5990   73.4870 C   0  0  0  0  0  0  0  0  0  0  0  0
  129.5410  127.4630   74.0120 O   0  0  0  0  0  0  0  0  0  0  0  0
  129.6460  128.6570   73.2540 C   0  0  0  0  0  0  0  0  0  0  0  0
  130.0290  128.3260   71.7960 C   0  0  0  0  0  0  0  0  0  0  0  0
  129.1200  125.8970   69.2050 C   0  0  0  0  0  0  0  0  0  0  0  0
  129.0810  125.7050   67.8260 C   0  0  0  0  0  0  0  0  0  0  0  0
  128.4630  127.6190   64.7370 N   0  0  0  0  0  0  0  0  0  0  0  0
  128.3770  127.5050   63.3900 C   0  0  0  0  0  0  0  0  0  0  0  0
  127.6830  128.9390   62.5960 S   0  0  0  0  0  0  0  0  0  0  0  0
  128.5780  130.3950   63.2150 C   0  0  0  0  0  0  0  0  0  0  0  0
  129.4890  131.0070   62.1500 C   0  0  0  0  0  0  0  0  0  0  0  0
  129.1870  132.0900   61.6460 O   0  0  0  0  0  0  0  0  0  0  0  0
  130.5830  130.2810   61.8340 N   0  0  0  0  0  0  0  0  0  0  0  0
  131.5730  130.6040   60.9160 C   0  0  0  0  0  0  0  0  0  0  0  0
  131.4520  130.3590   59.5490 C   0  0  0  0  0  0  0  0  0  0  0  0
  132.6250  130.8180   58.9980 C   0  0  0  0  0  0  0  0  0  0  0  0
  133.4120  131.3140   59.9820 O   0  0  0  0  0  0  0  0  0  0  0  0
  132.7330  131.1750   61.1950 N   0  0  0  0  0  0  0  0  0  0  0  0
  131.9611  124.5389   63.2016 H   0  0  0  0  0  0  0  0  0  0  0  0
  132.8406  122.4384   62.2184 H   0  0  0  0  0  0  0  0  0  0  0  0
  133.3120  121.1293   60.7816 H   0  0  0  0  0  0  0  0  0  0  0  0
  133.1185  119.9071   62.1241 H   0  0  0  0  0  0  0  0  0  0  0  0
  132.9673  119.3546   59.1215 H   0  0  0  0  0  0  0  0  0  0  0  0
  134.2863  118.8738   60.2497 H   0  0  0  0  0  0  0  0  0  0  0  0
  130.8324  118.3552   59.3604 H   0  0  0  0  0  0  0  0  0  0  0  0
  130.5823  117.1295   60.6536 H   0  0  0  0  0  0  0  0  0  0  0  0
  129.5663  119.3539   61.2173 H   0  0  0  0  0  0  0  0  0  0  0  0
  130.8763  118.8371   62.3788 H   0  0  0  0  0  0  0  0  0  0  0  0
  128.8047  121.1545   61.3610 H   0  0  0  0  0  0  0  0  0  0  0  0
  127.9288  123.2485   62.3564 H   0  0  0  0  0  0  0  0  0  0  0  0
  129.7941  124.5904   65.4621 H   0  0  0  0  0  0  0  0  0  0  0  0
  128.9738  128.9535   66.8263 H   0  0  0  0  0  0  0  0  0  0  0  0
  129.0243  129.2971   69.2764 H   0  0  0  0  0  0  0  0  0  0  0  0
  128.0731  125.6043   71.6274 H   0  0  0  0  0  0  0  0  0  0  0  0
  129.8445  125.6442   72.0755 H   0  0  0  0  0  0  0  0  0  0  0  0
  127.5732  127.1143   73.4978 H   0  0  0  0  0  0  0  0  0  0  0  0
  128.4925  125.6907   74.1053 H   0  0  0  0  0  0  0  0  0  0  0  0
  128.6796  129.1822   73.2663 H   0  0  0  0  0  0  0  0  0  0  0  0
  130.4246  129.2968   73.6950 H   0  0  0  0  0  0  0  0  0  0  0  0
  130.0194  129.2595   71.2142 H   0  0  0  0  0  0  0  0  0  0  0  0
  131.0242  127.8582   71.8241 H   0  0  0  0  0  0  0  0  0  0  0  0
  129.1569  125.0230   69.8719 H   0  0  0  0  0  0  0  0  0  0  0  0
  129.0928  124.6823   67.4210 H   0  0  0  0  0  0  0  0  0  0  0  0
  127.8462  131.1521   63.5332 H   0  0  0  0  0  0  0  0  0  0  0  0
  129.2097  130.0718   64.0555 H   0  0  0  0  0  0  0  0  0  0  0  0
  130.7230  129.4140   62.3320 H   0  0  0  0  0  0  0  0  0  0  0  0
  130.6019  129.8981   59.0246 H   0  0  0  0  0  0  0  0  0  0  0  0
  132.8829  130.7872   57.9291 H   0  0  0  0  0  0  0  0  0  0  0  0
  1  2  3  0
  2  3  1  0
  3  4  2  0
  4  5  1  0
  5  6  2  0
  6  7  1  0
  7  8  2  0
  8  9  1  0
  9 10  1  0
 10 11  1  0
 11 12  1  0
 12 13  1  0
 13 14  1  0
  8 15  1  0
 15 16  2  0
  4 17  1  0
 17 18  2  0
 18 19  1  0
 19 20  2  0
 20 21  1  0
 21 22  2  0
 22 23  1  0
 23 24  1  0
 24 25  1  0
 25 26  1  0
 26 27  1  0
 27 28  1  0
 22 29  1  0
 29 30  2  0
 18 31  1  0
 31 32  2  0
 32 33  1  0
 33 34  1  0
 34 35  1  0
 35 36  2  0
 35 37  1  0
 37 38  1  0
 38 39  1  0
 39 40  2  0
 40 41  1  0
 41 42  1  0
 32  3  1  0
 42 38  2  0
 16  5  1  0
 30 19  1  0
 14  9  1  0
 28 23  1  0
  6 43  1  0
  7 44  1  0
 10 45  1  0
 10 46  1  0
 11 47  1  0
 11 48  1  0
 13 49  1  0
 13 50  1  0
 14 51  1  0
 14 52  1  0
 15 53  1  0
 16 54  1  0
 17 55  1  0
 20 56  1  0
 21 57  1  0
 24 58  1  0
 24 59  1  0
 25 60  1  0
 25 61  1  0
 27 62  1  0
 27 63  1  0
 28 64  1  0
 28 65  1  0
 29 66  1  0
 30 67  1  0
 34 68  1  0
 34 69  1  0
 37 70  1  0
 39 71  1  0
 40 72  1  0
M  END
>  <Binding energies>  (1) 
[-9.43]

>  <Ligand effiencies>  (1) 
[-0.21930232558139534]

>  <Interactions>  (1) 
["V-A:ILE:369:CG2:3236, V-B:TYR:539:CD2:9846, V-A:PRO:482:CG:4326, V-A:LEU:475:CD1:4257, V-B:ALA:541:CB:9864, V-B:GLU:543:CD:9880, V-B:GLU:543:CB:9878, V-A:GLU:543:CB:4906, V-A:HIS:456:CE1:4069, V-B:HIS:456:CE1:9041, H-A:ALA:541:N:4891, V-A:ALA:541:CB:4892, H-A:GLU:543:OE1:4909, V-B:GLU:543:CG:9879, V-A:GLU:543:CD:4908, V-A:GLU:543:CG:4907, V-A:ASP:366:CG:3212, V-B:GLU:543:C:9874, V-B:HIS:456:CD2:9039, V-A:LYS:547:CE:4950, V-A:PRO:540:CA:4883, H-A:GLU:543:OE2:4910, H-A:ASP:366:OD2:3214, V-A:PRO:540:CB:4885, H-A:HIS:383:NE2:3393, H-A:SER:385:OG:3409, H-A:LEU:363:N:3185"]

$$$$
2b_Grossjean_2025
     RDKit          3D

 42 43  0  0  0  0  0  0  0  0999 V2000
  125.0940  124.1620   58.0130 C   0  0  0  0  0  0  0  0  0  0  0  0
  126.0860  123.9760   57.0130 O   0  0  0  0  0  0  0  0  0  0  0  0
  126.8440  122.8510   56.9810 C   0  0  0  0  0  0  0  0  0  0  0  0
  126.4850  121.8040   56.4330 O   0  0  0  0  0  0  0  0  0  0  0  0
  128.1630  123.0040   57.6820 C   0  0  0  0  0  0  0  0  0  0  0  0
  128.4620  122.3060   58.8620 C   0  0  0  0  0  0  0  0  0  0  0  0
  129.6940  122.4720   59.4890 C   0  0  0  0  0  0  0  0  0  0  0  0
  130.6520  123.3290   58.9490 C   0  0  0  0  0  0  0  0  0  0  0  0
  131.8600  123.4270   59.6660 N   0  0  0  0  0  0  0  0  0  0  0  0
  133.1320  123.4410   59.2140 C   0  0  0  0  0  0  0  0  0  0  0  0
  133.4700  123.3390   58.0340 O   0  0  0  0  0  0  0  0  0  0  0  0
  134.2080  123.5780   60.2960 C   0  0  0  0  0  0  0  0  0  0  0  0
  134.3580  122.0980   61.3500 S   0  0  0  0  0  0  0  0  0  0  0  0
  132.7620  121.3120   61.5280 C   0  0  0  0  0  0  0  0  0  0  0  0
  131.8150  122.0390   62.1730 N   0  0  0  0  0  0  0  0  0  0  0  0
  130.5870  121.5040   62.3490 C   0  0  0  0  0  0  0  0  0  0  0  0
  129.5910  122.3750   63.0900 C   0  0  0  0  0  0  0  0  0  0  0  0
  130.2470  120.2360   61.8860 C   0  0  0  0  0  0  0  0  0  0  0  0
  131.2070  119.4690   61.2090 C   0  0  0  0  0  0  0  0  0  0  0  0
  130.8130  118.0700   60.6990 C   0  0  0  0  0  0  0  0  0  0  0  0
  131.4850  117.1340   61.3710 F   0  0  0  0  0  0  0  0  0  0  0  0
  129.5060  117.8700   60.8710 F   0  0  0  0  0  0  0  0  0  0  0  0
  131.0770  117.9000   59.4010 F   0  0  0  0  0  0  0  0  0  0  0  0
  132.5030  120.0150   61.0240 C   0  0  0  0  0  0  0  0  0  0  0  0
  133.5470  119.2550   60.3300 C   0  0  0  0  0  0  0  0  0  0  0  0
  134.3710  118.6560   59.7810 N   0  0  0  0  0  0  0  0  0  0  0  0
  130.3590  124.0370   57.7740 C   0  0  0  0  0  0  0  0  0  0  0  0
  129.1260  123.8710   57.1490 C   0  0  0  0  0  0  0  0  0  0  0  0
  125.5554  124.0755   59.0078 H   0  0  0  0  0  0  0  0  0  0  0  0
  124.6448  125.1600   57.9027 H   0  0  0  0  0  0  0  0  0  0  0  0
  124.3138  123.3945   57.9027 H   0  0  0  0  0  0  0  0  0  0  0  0
  127.7171  121.6222   59.2951 H   0  0  0  0  0  0  0  0  0  0  0  0
  129.9130  121.9232   60.4168 H   0  0  0  0  0  0  0  0  0  0  0  0
  131.7460  123.4410   60.6690 H   0  0  0  0  0  0  0  0  0  0  0  0
  135.1761  123.7578   59.8057 H   0  0  0  0  0  0  0  0  0  0  0  0
  133.9131  124.4145   60.9466 H   0  0  0  0  0  0  0  0  0  0  0  0
  129.7316  122.2520   64.1740 H   0  0  0  0  0  0  0  0  0  0  0  0
  129.7507  123.4285   62.8167 H   0  0  0  0  0  0  0  0  0  0  0  0
  128.5682  122.0763   62.8167 H   0  0  0  0  0  0  0  0  0  0  0  0
  129.2343  119.8388   62.0495 H   0  0  0  0  0  0  0  0  0  0  0  0
  131.1040  124.7239   57.3460 H   0  0  0  0  0  0  0  0  0  0  0  0
  128.9053  124.4271   56.2259 H   0  0  0  0  0  0  0  0  0  0  0  0
  1  2  1  0
  2  3  1  0
  3  4  2  0
  3  5  1  0
  5  6  2  0
  6  7  1  0
  7  8  2  0
  8  9  1  0
  9 10  1  0
 10 11  2  0
 10 12  1  0
 12 13  1  0
 13 14  1  0
 14 15  2  0
 15 16  1  0
 16 17  1  0
 16 18  2  0
 18 19  1  0
 19 20  1  0
 20 21  1  0
 20 22  1  0
 20 23  1  0
 19 24  2  0
 24 25  1  0
 25 26  3  0
  8 27  1  0
 27 28  2  0
 28  5  1  0
 24 14  1  0
  1 29  1  0
  1 30  1  0
  1 31  1  0
  6 32  1  0
  7 33  1  0
  9 34  1  0
 12 35  1  0
 12 36  1  0
 17 37  1  0
 17 38  1  0
 17 39  1  0
 18 40  1  0
 27 41  1  0
 28 42  1  0
M  END
>  <Binding energies>  (1) 
[-7.62]

>  <Ligand effiencies>  (1) 
[-0.26275862068965516]

>  <Interactions>  (1) 
["V-A:ILE:369:CG2:3236, V-B:TYR:539:CE2:9848, V-B:PRO:540:N:9856, V-B:TYR:539:CZ:9849, V-B:TYR:539:CD2:9846, V-B:PRO:540:CA:9855, V-A:PRO:482:CG:4326, V-B:PRO:540:C:9853, V-A:PRO:482:CB:4325, V-B:MET:535:CE:9807, H-B:TYR:539:N:9842, V-A:LEU:475:CD1:4257, H-B:TYR:531:OH:9767, V-B:ALA:541:CA:9862, V-A:SER:385:CA:3406, V-B:TYR:539:C:9839, V-B:ALA:541:CB:9864, V-A:HIS:383:CE1:3392, V-A:ASP:366:CG:3212, V-A:ILE:369:CD1:3238, V-A:ASP:366:CA:3209, V-A:ILE:369:CB:3235, V-B:TYR:539:CB:9843, V-B:TYR:539:CG:9844, V-B:TYR:531:CE2:9765, V-B:LEU:363:CD1:8160, H-A:HIS:383:NE2:3393, H-A:SER:385:OG:3409, H-B:TYR:539:OH:9850, V-A:PRO:482:CD:4327"]

$$$$
2c_Ghoteimi_2023
     RDKit          3D

 72 77  0  0  0  0  0  0  0  0999 V2000
  127.2930  129.7680   65.7620 N   0  0  0  0  0  0  0  0  0  0  0  0
  127.7660  128.7940   65.3550 C   0  0  0  0  0  0  0  0  0  0  0  0
  128.3650  127.5570   64.8440 C   0  0  0  0  0  0  0  0  0  0  0  0
  128.9630  126.6250   65.7290 C   0  0  0  0  0  0  0  0  0  0  0  0
  129.0360  126.8140   67.2090 C   0  0  0  0  0  0  0  0  0  0  0  0
  128.7570  125.7490   68.0670 C   0  0  0  0  0  0  0  0  0  0  0  0
  128.8280  125.9150   69.4480 C   0  0  0  0  0  0  0  0  0  0  0  0
  129.1670  127.1560   70.0100 C   0  0  0  0  0  0  0  0  0  0  0  0
  129.2640  127.3390   71.3910 N   0  0  0  0  0  0  0  0  0  0  0  0
  129.1260  126.1730   72.2860 C   0  0  0  0  0  0  0  0  0  0  0  0
  128.8660  126.5620   73.7570 C   0  0  0  0  0  0  0  0  0  0  0  0
  129.8850  127.4360   74.2170 O   0  0  0  0  0  0  0  0  0  0  0  0
  129.9370  128.6310   73.4520 C   0  0  0  0  0  0  0  0  0  0  0  0
  130.2240  128.2970   71.9730 C   0  0  0  0  0  0  0  0  0  0  0  0
  129.4420  128.2200   69.1390 C   0  0  0  0  0  0  0  0  0  0  0  0
  129.3730  128.0530   67.7590 C   0  0  0  0  0  0  0  0  0  0  0  0
  129.5180  125.4570   65.1920 C   0  0  0  0  0  0  0  0  0  0  0  0
  129.4570  125.2110   63.8170 C   0  0  0  0  0  0  0  0  0  0  0  0
  130.0200  123.9720   63.1970 C   0  0  0  0  0  0  0  0  0  0  0  0
  131.2780  123.4920   63.5750 C   0  0  0  0  0  0  0  0  0  0  0  0
  131.8050  122.3360   63.0050 C   0  0  0  0  0  0  0  0  0  0  0  0
  131.0970  121.6220   62.0260 C   0  0  0  0  0  0  0  0  0  0  0  0
  131.6010  120.4450   61.4620 N   0  0  0  0  0  0  0  0  0  0  0  0
  133.0570  120.2000   61.4500 C   0  0  0  0  0  0  0  0  0  0  0  0
  133.4890  119.0830   60.4770 C   0  0  0  0  0  0  0  0  0  0  0  0
  132.7800  117.8890   60.7620 O   0  0  0  0  0  0  0  0  0  0  0  0
  131.3800  118.0690   60.6180 C   0  0  0  0  0  0  0  0  0  0  0  0
  130.8840  119.1590   61.5910 C   0  0  0  0  0  0  0  0  0  0  0  0
  129.8300  122.1000   61.6590 C   0  0  0  0  0  0  0  0  0  0  0  0
  129.3040  123.2550   62.2310 C   0  0  0  0  0  0  0  0  0  0  0  0
  128.8820  126.1040   62.9710 N   0  0  0  0  0  0  0  0  0  0  0  0
  128.3660  127.2550   63.4630 C   0  0  0  0  0  0  0  0  0  0  0  0
  127.6640  128.3110   62.2150 S   0  0  0  0  0  0  0  0  0  0  0  0
  126.3880  127.3520   61.3440 C   0  0  0  0  0  0  0  0  0  0  0  0
  126.9950  126.3410   60.3700 C   0  0  0  0  0  0  0  0  0  0  0  0
  128.2170  126.3100   60.2140 O   0  0  0  0  0  0  0  0  0  0  0  0
  126.1120  125.5400   59.7370 N   0  0  0  0  0  0  0  0  0  0  0  0
  126.4070  124.5370   58.8250 C   0  0  0  0  0  0  0  0  0  0  0  0
  126.0770  124.4790   57.5530 N   0  0  0  0  0  0  0  0  0  0  0  0
  126.5300  123.3800   56.9840 C   0  0  0  0  0  0  0  0  0  0  0  0
  127.2480  122.5140   57.8030 C   0  0  0  0  0  0  0  0  0  0  0  0
  127.3270  123.1860   59.4040 S   0  0  0  0  0  0  0  0  0  0  0  0
  128.4787  124.7703   67.6489 H   0  0  0  0  0  0  0  0  0  0  0  0
  128.6153  125.0612   70.1081 H   0  0  0  0  0  0  0  0  0  0  0  0
  128.2843  125.5591   71.9329 H   0  0  0  0  0  0  0  0  0  0  0  0
  130.0790  125.6244   72.2568 H   0  0  0  0  0  0  0  0  0  0  0  0
  127.8917  127.0669   73.8332 H   0  0  0  0  0  0  0  0  0  0  0  0
  128.8652  125.6524   74.3755 H   0  0  0  0  0  0  0  0  0  0  0  0
  128.9723  129.1541   73.5270 H   0  0  0  0  0  0  0  0  0  0  0  0
  130.7405  129.2742   73.8401 H   0  0  0  0  0  0  0  0  0  0  0  0
  130.1825  129.2293   71.3907 H   0  0  0  0  0  0  0  0  0  0  0  0
  131.2171  127.8257   71.9336 H   0  0  0  0  0  0  0  0  0  0  0  0
  129.7164  129.2016   69.5527 H   0  0  0  0  0  0  0  0  0  0  0  0
  129.5857  128.9042   67.0956 H   0  0  0  0  0  0  0  0  0  0  0  0
  130.0052  124.7281   65.8563 H   0  0  0  0  0  0  0  0  0  0  0  0
  131.8598  124.0357   64.3339 H   0  0  0  0  0  0  0  0  0  0  0  0
  132.7932  121.9763   63.3276 H   0  0  0  0  0  0  0  0  0  0  0  0
  133.5637  121.1313   61.1568 H   0  0  0  0  0  0  0  0  0  0  0  0
  133.3365  119.8714   62.4619 H   0  0  0  0  0  0  0  0  0  0  0  0
  133.2742  119.3963   59.4447 H   0  0  0  0  0  0  0  0  0  0  0  0
  134.5671  118.8990   60.5951 H   0  0  0  0  0  0  0  0  0  0  0  0
  131.1565  118.3740   59.5850 H   0  0  0  0  0  0  0  0  0  0  0  0
  130.8693  117.1220   60.8468 H   0  0  0  0  0  0  0  0  0  0  0  0
  129.8158  119.3366   61.3975 H   0  0  0  0  0  0  0  0  0  0  0  0
  131.0715  118.7885   62.6096 H   0  0  0  0  0  0  0  0  0  0  0  0
  129.2426  121.5530   60.9068 H   0  0  0  0  0  0  0  0  0  0  0  0
  128.3106  123.6097   61.9192 H   0  0  0  0  0  0  0  0  0  0  0  0
  125.7825  126.8107   62.0859 H   0  0  0  0  0  0  0  0  0  0  0  0
  125.7722  128.0549   60.7636 H   0  0  0  0  0  0  0  0  0  0  0  0
  125.1330  125.6560   59.9580 H   0  0  0  0  0  0  0  0  0  0  0  0
  126.3506  123.1597   55.9213 H   0  0  0  0  0  0  0  0  0  0  0  0
  127.6935  121.5588   57.4882 H   0  0  0  0  0  0  0  0  0  0  0  0
  1  2  3  0
  2  3  1  0
  3  4  2  0
  4  5  1  0
  5  6  2  0
  6  7  1  0
  7  8  2  0
  8  9  1  0
  9 10  1  0
 10 11  1  0
 11 12  1  0
 12 13  1  0
 13 14  1  0
  8 15  1  0
 15 16  2  0
  4 17  1  0
 17 18  2  0
 18 19  1  0
 19 20  2  0
 20 21  1  0
 21 22  2  0
 22 23  1  0
 23 24  1  0
 24 25  1  0
 25 26  1  0
 26 27  1  0
 27 28  1  0
 22 29  1  0
 29 30  2  0
 18 31  1  0
 31 32  2  0
 32 33  1  0
 33 34  1  0
 34 35  1  0
 35 36  2  0
 35 37  1  0
 37 38  1  0
 38 39  2  0
 39 40  1  0
 40 41  2  0
 41 42  1  0
 32  3  1  0
 42 38  1  0
 16  5  1  0
 30 19  1  0
 14  9  1  0
 28 23  1  0
  6 43  1  0
  7 44  1  0
 10 45  1  0
 10 46  1  0
 11 47  1  0
 11 48  1  0
 13 49  1  0
 13 50  1  0
 14 51  1  0
 14 52  1  0
 15 53  1  0
 16 54  1  0
 17 55  1  0
 20 56  1  0
 21 57  1  0
 24 58  1  0
 24 59  1  0
 25 60  1  0
 25 61  1  0
 27 62  1  0
 27 63  1  0
 28 64  1  0
 28 65  1  0
 29 66  1  0
 30 67  1  0
 34 68  1  0
 34 69  1  0
 37 70  1  0
 40 71  1  0
 41 72  1  0
M  END
>  <Binding energies>  (1) 
[-9.68]

>  <Ligand effiencies>  (1) 
[-0.22511627906976744]

>  <Interactions>  (1) 
["V-B:PRO:540:CB:9857, V-A:ILE:369:CG2:3236, V-B:PRO:540:N:9856, V-B:TYR:539:CD2:9846, V-B:PRO:540:CA:9855, V-A:PRO:482:CG:4326, V-B:MET:535:CE:9807, V-A:LEU:475:CD1:4257, H-B:TYR:531:OH:9767, V-A:SER:385:CA:3406, V-B:TYR:539:C:9839, V-B:ALA:541:CB:9864, V-B:GLU:543:CD:9880, V-B:GLU:543:CB:9878, V-A:GLU:543:CB:4906, H-B:TYR:484:OH:9319, V-A:HIS:456:CE1:4069, V-B:HIS:456:CE1:9041, V-A:GLU:543:C:4902, V-B:GLU:543:CG:9879, V-A:GLU:543:CD:4908, V-A:GLU:543:CG:4907, V-B:GLU:543:C:9874, V-B:HIS:456:CD2:9039, V-A:LYS:547:CE:4950, V-B:GLU:543:CA:9876, V-B:ASP:366:CG:8184, H-B:ASP:366:OD1:8185, H-A:HIS:383:NE2:3393, H-A:SER:385:OG:3409, H-A:LYS:547:NZ:4951"]

$$$$
2c_Grossjean_2025
     RDKit          3D

 40 41  0  0  0  0  0  0  0  0999 V2000
  128.7470  126.7900   68.1830 C   0  0  0  0  0  0  0  0  0  0  0  0
  129.8530  125.8930   68.1890 O   0  0  0  0  0  0  0  0  0  0  0  0
  130.4240  125.5200   66.9880 C   0  0  0  0  0  0  0  0  0  0  0  0
  131.6720  126.0670   66.6950 C   0  0  0  0  0  0  0  0  0  0  0  0
  132.3270  125.7520   65.5070 C   0  0  0  0  0  0  0  0  0  0  0  0
  131.7240  124.8830   64.5860 C   0  0  0  0  0  0  0  0  0  0  0  0
  132.3150  124.4920   63.3700 N   0  0  0  0  0  0  0  0  0  0  0  0
  133.6170  124.5370   63.0130 C   0  0  0  0  0  0  0  0  0  0  0  0
  134.5200  125.0000   63.7120 O   0  0  0  0  0  0  0  0  0  0  0  0
  133.9210  123.9930   61.6090 C   0  0  0  0  0  0  0  0  0  0  0  0
  134.1210  122.1800   61.4950 S   0  0  0  0  0  0  0  0  0  0  0  0
  132.5090  121.4060   61.4550 C   0  0  0  0  0  0  0  0  0  0  0  0
  131.4710  122.1880   61.8500 N   0  0  0  0  0  0  0  0  0  0  0  0
  130.2250  121.6660   61.8540 C   0  0  0  0  0  0  0  0  0  0  0  0
  129.1240  122.5970   62.3240 C   0  0  0  0  0  0  0  0  0  0  0  0
  129.9580  120.3570   61.4590 C   0  0  0  0  0  0  0  0  0  0  0  0
  131.0120  119.5340   61.0400 C   0  0  0  0  0  0  0  0  0  0  0  0
  130.7000  118.0890   60.6050 C   0  0  0  0  0  0  0  0  0  0  0  0
  129.4000  117.8360   60.7630 F   0  0  0  0  0  0  0  0  0  0  0  0
  131.0220  117.9180   59.3220 F   0  0  0  0  0  0  0  0  0  0  0  0
  131.3750  117.1810   61.3130 F   0  0  0  0  0  0  0  0  0  0  0  0
  132.3260  120.0670   61.0360 C   0  0  0  0  0  0  0  0  0  0  0  0
  133.4680  119.2510   60.6090 C   0  0  0  0  0  0  0  0  0  0  0  0
  134.3680  118.6060   60.2720 N   0  0  0  0  0  0  0  0  0  0  0  0
  130.4820  124.3190   64.8810 C   0  0  0  0  0  0  0  0  0  0  0  0
  129.8320  124.6370   66.0700 C   0  0  0  0  0  0  0  0  0  0  0  0
  128.4588  127.0237   69.2185 H   0  0  0  0  0  0  0  0  0  0  0  0
  129.0297  127.7172   67.6629 H   0  0  0  0  0  0  0  0  0  0  0  0
  127.8982  126.3220   67.6629 H   0  0  0  0  0  0  0  0  0  0  0  0
  132.1452  126.7556   67.4105 H   0  0  0  0  0  0  0  0  0  0  0  0
  133.3154  126.1839   65.2914 H   0  0  0  0  0  0  0  0  0  0  0  0
  131.6620  124.1980   62.6590 H   0  0  0  0  0  0  0  0  0  0  0  0
  133.0936  124.2852   60.9457 H   0  0  0  0  0  0  0  0  0  0  0  0
  134.8919  124.4229   61.3219 H   0  0  0  0  0  0  0  0  0  0  0  0
  129.1032  122.6146   63.4237 H   0  0  0  0  0  0  0  0  0  0  0  0
  129.3150  123.6117   61.9446 H   0  0  0  0  0  0  0  0  0  0  0  0
  128.1552  122.2400   61.9446 H   0  0  0  0  0  0  0  0  0  0  0  0
  128.9276  119.9723   61.4759 H   0  0  0  0  0  0  0  0  0  0  0  0
  130.0150  123.6205   64.1711 H   0  0  0  0  0  0  0  0  0  0  0  0
  128.8497  124.1945   66.2919 H   0  0  0  0  0  0  0  0  0  0  0  0
  1  2  1  0
  2  3  1  0
  3  4  2  0
  4  5  1  0
  5  6  2  0
  6  7  1  0
  7  8  1  0
  8  9  2  0
  8 10  1  0
 10 11  1  0
 11 12  1  0
 12 13  2  0
 13 14  1  0
 14 15  1  0
 14 16  2  0
 16 17  1  0
 17 18  1  0
 18 19  1  0
 18 20  1  0
 18 21  1  0
 17 22  2  0
 22 23  1  0
 23 24  3  0
  6 25  1  0
 25 26  2  0
 26  3  1  0
 22 12  1  0
  1 27  1  0
  1 28  1  0
  1 29  1  0
  4 30  1  0
  5 31  1  0
  7 32  1  0
 10 33  1  0
 10 34  1  0
 15 35  1  0
 15 36  1  0
 15 37  1  0
 16 38  1  0
 25 39  1  0
 26 40  1  0
M  END
>  <Binding energies>  (1) 
[-6.7]

>  <Ligand effiencies>  (1) 
[-0.24814814814814815]

>  <Interactions>  (1) 
["V-A:ILE:369:CG2:3236, V-B:PRO:540:N:9856, V-B:TYR:539:CD2:9846, V-A:PRO:482:CG:4326, V-B:PRO:540:C:9853, V-A:PRO:482:CB:4325, V-A:LEU:475:CD1:4257, V-B:ALA:541:CA:9862, V-A:SER:385:CA:3406, V-B:TYR:539:C:9839, V-B:ALA:541:CB:9864, V-B:GLU:543:CD:9880, V-A:ARG:545:CZ:4926, V-B:GLU:543:CB:9878, V-A:HIS:456:CE1:4069, V-B:HIS:456:CE1:9041, V-A:HIS:383:CE1:3392, H-A:GLY:454:N:4049, V-B:GLU:543:CG:9879, V-A:ASP:366:CG:3212, H-A:ARG:545:NH1:4927, V-A:TYR:484:CE2:4345, V-A:TYR:484:CZ:4346, H-A:ARG:545:NH2:4928, V-B:TYR:539:CB:9843, V-B:TYR:539:CG:9844, H-A:HIS:383:NE2:3393, H-A:SER:385:OG:3409, V-A:PRO:482:CD:4327"]

$$$$
2d_Ghoteimi_2023
     RDKit          3D

 68 72  0  0  0  0  0  0  0  0999 V2000
  124.3330  130.1940   63.2510 C   0  0  0  0  0  0  0  0  0  0  0  0
  124.3130  129.8580   64.6290 O   0  0  0  0  0  0  0  0  0  0  0  0
  125.4000  129.3180   65.2190 C   0  0  0  0  0  0  0  0  0  0  0  0
  125.3820  128.4480   66.0940 O   0  0  0  0  0  0  0  0  0  0  0  0
  126.6960  129.9220   64.6580 C   0  0  0  0  0  0  0  0  0  0  0  0
  127.4170  128.8530   63.3650 S   0  0  0  0  0  0  0  0  0  0  0  0
  128.2540  127.4980   64.1620 C   0  0  0  0  0  0  0  0  0  0  0  0
  128.3380  127.6370   65.5070 N   0  0  0  0  0  0  0  0  0  0  0  0
  128.9580  126.6810   66.2440 C   0  0  0  0  0  0  0  0  0  0  0  0
  129.0280  126.9120   67.7190 C   0  0  0  0  0  0  0  0  0  0  0  0
  129.5080  128.1240   68.2280 C   0  0  0  0  0  0  0  0  0  0  0  0
  129.5750  128.3460   69.6010 C   0  0  0  0  0  0  0  0  0  0  0  0
  129.1540  127.3680   70.5150 C   0  0  0  0  0  0  0  0  0  0  0  0
  129.2320  127.5680   71.8980 N   0  0  0  0  0  0  0  0  0  0  0  0
  130.1370  126.7660   72.7440 C   0  0  0  0  0  0  0  0  0  0  0  0
  129.8210  126.8610   74.2510 C   0  0  0  0  0  0  0  0  0  0  0  0
  129.8180  128.2200   74.6600 O   0  0  0  0  0  0  0  0  0  0  0  0
  128.8390  128.9720   73.9630 C   0  0  0  0  0  0  0  0  0  0  0  0
  129.1220  128.9350   72.4460 C   0  0  0  0  0  0  0  0  0  0  0  0
  128.6860  126.1500   70.0000 C   0  0  0  0  0  0  0  0  0  0  0  0
  128.6210  125.9270   68.6280 C   0  0  0  0  0  0  0  0  0  0  0  0
  129.5100  125.5490   65.6370 C   0  0  0  0  0  0  0  0  0  0  0  0
  129.4070  125.3640   64.2530 C   0  0  0  0  0  0  0  0  0  0  0  0
  129.9950  124.1170   63.6780 C   0  0  0  0  0  0  0  0  0  0  0  0
  131.3530  123.8420   63.8400 C   0  0  0  0  0  0  0  0  0  0  0  0
  131.9090  122.6770   63.3190 C   0  0  0  0  0  0  0  0  0  0  0  0
  131.1180  121.7530   62.6160 C   0  0  0  0  0  0  0  0  0  0  0  0
  131.6510  120.5710   62.0950 N   0  0  0  0  0  0  0  0  0  0  0  0
  132.8210  120.5860   61.1950 C   0  0  0  0  0  0  0  0  0  0  0  0
  133.4780  119.2000   61.0160 C   0  0  0  0  0  0  0  0  0  0  0  0
  132.5110  118.2580   60.5770 O   0  0  0  0  0  0  0  0  0  0  0  0
  131.4480  118.1250   61.5080 C   0  0  0  0  0  0  0  0  0  0  0  0
  130.7370  119.4830   61.6950 C   0  0  0  0  0  0  0  0  0  0  0  0
  129.7520  122.0300   62.4730 C   0  0  0  0  0  0  0  0  0  0  0  0
  129.1970  123.1950   62.9950 C   0  0  0  0  0  0  0  0  0  0  0  0
  128.7560  126.3620   63.4850 C   0  0  0  0  0  0  0  0  0  0  0  0
  128.6070  126.2050   62.0360 C   0  0  0  0  0  0  0  0  0  0  0  0
  128.4910  126.0770   60.8910 N   0  0  0  0  0  0  0  0  0  0  0  0
  124.3980  131.2865   63.1409 H   0  0  0  0  0  0  0  0  0  0  0  0
  125.2048  129.7246   62.7718 H   0  0  0  0  0  0  0  0  0  0  0  0
  123.4117  129.8314   62.7718 H   0  0  0  0  0  0  0  0  0  0  0  0
  126.4741  130.9087   64.2253 H   0  0  0  0  0  0  0  0  0  0  0  0
  127.4219  130.0131   65.4794 H   0  0  0  0  0  0  0  0  0  0  0  0
  129.8367  128.9118   67.5342 H   0  0  0  0  0  0  0  0  0  0  0  0
  129.9645  129.3042   69.9755 H   0  0  0  0  0  0  0  0  0  0  0  0
  130.0566  125.7126   72.4377 H   0  0  0  0  0  0  0  0  0  0  0  0
  131.1512  127.1673   72.6015 H   0  0  0  0  0  0  0  0  0  0  0  0
  128.8321  126.4198   74.4447 H   0  0  0  0  0  0  0  0  0  0  0  0
  130.5898  126.3145   74.8170 H   0  0  0  0  0  0  0  0  0  0  0  0
  127.8446  128.5440   74.1581 H   0  0  0  0  0  0  0  0  0  0  0  0
  128.8722  130.0153   74.3100 H   0  0  0  0  0  0  0  0  0  0  0  0
  128.3022  129.4529   71.9266 H   0  0  0  0  0  0  0  0  0  0  0  0
  130.0938  129.4252   72.2872 H   0  0  0  0  0  0  0  0  0  0  0  0
  128.3650  125.3578   70.6924 H   0  0  0  0  0  0  0  0  0  0  0  0
  128.2449  124.9641   68.2521 H   0  0  0  0  0  0  0  0  0  0  0  0
  130.0289  124.7983   66.2511 H   0  0  0  0  0  0  0  0  0  0  0  0
  131.9911  124.5531   64.3851 H   0  0  0  0  0  0  0  0  0  0  0  0
  132.9816  122.4773   63.4596 H   0  0  0  0  0  0  0  0  0  0  0  0
  132.4966  120.9476   60.2081 H   0  0  0  0  0  0  0  0  0  0  0  0
  133.5737  121.2441   61.6536 H   0  0  0  0  0  0  0  0  0  0  0  0
  134.2822  119.2717   60.2689 H   0  0  0  0  0  0  0  0  0  0  0  0
  133.8928  118.8696   61.9797 H   0  0  0  0  0  0  0  0  0  0  0  0
  130.7261  117.3844   61.1334 H   0  0  0  0  0  0  0  0  0  0  0  0
  131.8542  117.7938   62.4751 H   0  0  0  0  0  0  0  0  0  0  0  0
  130.2590  119.7606   60.7440 H   0  0  0  0  0  0  0  0  0  0  0  0
  130.0048  119.3581   62.5063 H   0  0  0  0  0  0  0  0  0  0  0  0
  129.1078  121.3154   61.9397 H   0  0  0  0  0  0  0  0  0  0  0  0
  128.1221  123.3915   62.8690 H   0  0  0  0  0  0  0  0  0  0  0  0
  1  2  1  0
  2  3  1  0
  3  4  2  0
  3  5  1  0
  5  6  1  0
  6  7  1  0
  7  8  2  0
  8  9  1  0
  9 10  1  0
 10 11  2  0
 11 12  1  0
 12 13  2  0
 13 14  1  0
 14 15  1  0
 15 16  1  0
 16 17  1  0
 17 18  1  0
 18 19  1  0
 13 20  1  0
 20 21  2  0
  9 22  2  0
 22 23  1  0
 23 24  1  0
 24 25  2  0
 25 26  1  0
 26 27  2  0
 27 28  1  0
 28 29  1  0
 29 30  1  0
 30 31  1  0
 31 32  1  0
 32 33  1  0
 27 34  1  0
 34 35  2  0
 23 36  2  0
 36 37  1  0
 37 38  3  0
 36  7  1  0
 21 10  1  0
 35 24  1  0
 19 14  1  0
 33 28  1  0
  1 39  1  0
  1 40  1  0
  1 41  1  0
  5 42  1  0
  5 43  1  0
 11 44  1  0
 12 45  1  0
 15 46  1  0
 15 47  1  0
 16 48  1  0
 16 49  1  0
 18 50  1  0
 18 51  1  0
 19 52  1  0
 19 53  1  0
 20 54  1  0
 21 55  1  0
 22 56  1  0
 25 57  1  0
 26 58  1  0
 29 59  1  0
 29 60  1  0
 30 61  1  0
 30 62  1  0
 32 63  1  0
 32 64  1  0
 33 65  1  0
 33 66  1  0
 34 67  1  0
 35 68  1  0
M  END
>  <Binding energies>  (1) 
[-8.33]

>  <Ligand effiencies>  (1) 
[-0.21921052631578947]

>  <Interactions>  (1) 
["V-A:ILE:369:CG2:3236, V-A:PRO:482:CG:4326, V-A:PRO:482:CB:4325, V-A:LEU:475:CD1:4257, V-A:SER:385:CA:3406, V-A:SER:385:C:3404, V-B:ALA:541:CB:9864, V-B:GLU:543:CD:9880, H-B:ARG:545:NE:9896, V-B:GLU:543:CB:9878, V-A:GLU:543:CB:4906, H-B:TYR:484:OH:9319, V-A:HIS:456:CE1:4069, V-B:HIS:456:CE1:9041, H-B:ARG:545:NH2:9900, V-B:ARG:545:CZ:9898, H-B:GLY:454:N:9021, V-A:GLU:543:C:4902, V-B:GLU:543:CG:9879, V-A:GLU:543:CD:4908, V-B:GLU:543:C:9874, V-B:HIS:456:CD2:9039, V-B:GLU:543:CA:9876, V-A:HIS:456:CD2:4067, H-A:HIS:383:NE2:3393, H-A:SER:385:OG:3409, H-A:LYS:547:NZ:4951"]

$$$$
2d_Grossjean_2025
     RDKit          3D

 36 37  0  0  0  0  0  0  0  0999 V2000
  129.0630  122.5570   62.3460 C   0  0  0  0  0  0  0  0  0  0  0  0
  130.1700  121.6320   61.8780 C   0  0  0  0  0  0  0  0  0  0  0  0
  129.9080  120.3230   61.4800 C   0  0  0  0  0  0  0  0  0  0  0  0
  130.9660  119.5080   61.0500 C   0  0  0  0  0  0  0  0  0  0  0  0
  130.6560  118.0660   60.6040 C   0  0  0  0  0  0  0  0  0  0  0  0
  131.3530  117.2010   61.3400 F   0  0  0  0  0  0  0  0  0  0  0  0
  129.3550  117.8110   60.7540 F   0  0  0  0  0  0  0  0  0  0  0  0
  130.9620  117.8440   59.3240 F   0  0  0  0  0  0  0  0  0  0  0  0
  132.2780  120.0470   61.0430 C   0  0  0  0  0  0  0  0  0  0  0  0
  133.4100  119.2530   60.5600 C   0  0  0  0  0  0  0  0  0  0  0  0
  134.3030  118.6240   60.1760 N   0  0  0  0  0  0  0  0  0  0  0  0
  132.4520  121.3790   61.4890 C   0  0  0  0  0  0  0  0  0  0  0  0
  134.0320  122.2010   61.5750 S   0  0  0  0  0  0  0  0  0  0  0  0
  133.7550  124.0030   61.5770 C   0  0  0  0  0  0  0  0  0  0  0  0
  133.5490  124.5760   62.9820 C   0  0  0  0  0  0  0  0  0  0  0  0
  134.5220  125.0090   63.6000 O   0  0  0  0  0  0  0  0  0  0  0  0
  132.2850  124.5300   63.4520 N   0  0  0  0  0  0  0  0  0  0  0  0
  131.7790  124.9750   64.6880 C   0  0  0  0  0  0  0  0  0  0  0  0
  130.4560  124.6270   64.9700 C   0  0  0  0  0  0  0  0  0  0  0  0
  129.8650  125.0260   66.1650 C   0  0  0  0  0  0  0  0  0  0  0  0
  130.5960  125.7840   67.0770 C   0  0  0  0  0  0  0  0  0  0  0  0
  131.9110  126.1490   66.8010 C   0  0  0  0  0  0  0  0  0  0  0  0
  132.5060  125.7500   65.6080 C   0  0  0  0  0  0  0  0  0  0  0  0
  131.4160  122.1590   61.8810 N   0  0  0  0  0  0  0  0  0  0  0  0
  129.0409  122.5754   63.4456 H   0  0  0  0  0  0  0  0  0  0  0  0
  129.2485  123.5724   61.9659 H   0  0  0  0  0  0  0  0  0  0  0  0
  128.0967  122.1940   61.9659 H   0  0  0  0  0  0  0  0  0  0  0  0
  128.8802  119.9316   61.5027 H   0  0  0  0  0  0  0  0  0  0  0  0
  134.6297  124.4924   61.1238 H   0  0  0  0  0  0  0  0  0  0  0  0
  132.8347  124.1947   61.0057 H   0  0  0  0  0  0  0  0  0  0  0  0
  131.6060  124.0640   62.8670 H   0  0  0  0  0  0  0  0  0  0  0  0
  129.8788  124.0350   64.2444 H   0  0  0  0  0  0  0  0  0  0  0  0
  128.8255  124.7442   66.3884 H   0  0  0  0  0  0  0  0  0  0  0  0
  130.1304  126.0968   68.0232 H   0  0  0  0  0  0  0  0  0  0  0  0
  132.4788  126.7519   67.5250 H   0  0  0  0  0  0  0  0  0  0  0  0
  133.5433  126.0406   65.3854 H   0  0  0  0  0  0  0  0  0  0  0  0
  1  2  1  0
  2  3  2  0
  3  4  1  0
  4  5  1  0
  5  6  1  0
  5  7  1  0
  5  8  1  0
  4  9  2  0
  9 10  1  0
 10 11  3  0
  9 12  1  0
 12 13  1  0
 13 14  1  0
 14 15  1  0
 15 16  2  0
 15 17  1  0
 17 18  1  0
 18 19  2  0
 19 20  1  0
 20 21  2  0
 21 22  1  0
 22 23  2  0
 12 24  2  0
 24  2  1  0
 23 18  1  0
  1 25  1  0
  1 26  1  0
  1 27  1  0
  3 28  1  0
 14 29  1  0
 14 30  1  0
 17 31  1  0
 19 32  1  0
 20 33  1  0
 21 34  1  0
 22 35  1  0
 23 36  1  0
M  END
>  <Binding energies>  (1) 
[-6.78]

>  <Ligand effiencies>  (1) 
[-0.2712]

>  <Interactions>  (1) 
["V-A:ILE:369:CG2:3236, V-B:PRO:540:N:9856, V-B:TYR:539:CD2:9846, V-A:PRO:482:CG:4326, V-B:PRO:540:C:9853, V-A:PRO:482:CB:4325, V-A:LEU:475:CD1:4257, V-B:ALA:541:CA:9862, V-A:SER:385:CA:3406, V-B:TYR:539:C:9839, V-B:ALA:541:CB:9864, V-B:GLU:543:CD:9880, V-A:ARG:545:CZ:4926, V-B:GLU:543:CB:9878, V-A:HIS:456:CE1:4069, V-A:HIS:383:CE1:3392, H-A:GLY:454:N:4049, V-B:GLU:543:CG:9879, V-A:ASP:366:CG:3212, H-A:ARG:545:NH1:4927, V-A:TYR:484:CE2:4345, V-A:TYR:484:CZ:4346, H-A:ARG:545:NH2:4928, V-B:TYR:539:CB:9843, V-B:TYR:539:CA:9841, V-B:TYR:539:CG:9844, H-A:HIS:383:NE2:3393, H-A:SER:385:OG:3409, V-A:PRO:482:CD:4327"]

$$$$
2e_Grossjean_2025
     RDKit          3D

 38 39  0  0  0  0  0  0  0  0999 V2000
  134.3680  125.7080   67.5160 C   0  0  0  0  0  0  0  0  0  0  0  0
  133.2630  125.5340   66.4920 C   0  0  0  0  0  0  0  0  0  0  0  0
  131.9660  125.9970   66.7290 C   0  0  0  0  0  0  0  0  0  0  0  0
  131.0030  125.8120   65.7360 C   0  0  0  0  0  0  0  0  0  0  0  0
  131.3550  125.1750   64.5430 C   0  0  0  0  0  0  0  0  0  0  0  0
  132.6700  124.7270   64.3750 C   0  0  0  0  0  0  0  0  0  0  0  0
  132.9800  124.1320   63.1400 N   0  0  0  0  0  0  0  0  0  0  0  0
  134.0950  124.2930   62.3940 C   0  0  0  0  0  0  0  0  0  0  0  0
  135.0790  124.9560   62.7270 O   0  0  0  0  0  0  0  0  0  0  0  0
  134.0780  123.6220   61.0170 C   0  0  0  0  0  0  0  0  0  0  0  0
  134.3270  121.8220   61.1300 S   0  0  0  0  0  0  0  0  0  0  0  0
  132.6940  121.1180   61.1730 C   0  0  0  0  0  0  0  0  0  0  0  0
  131.7390  121.9360   61.6830 N   0  0  0  0  0  0  0  0  0  0  0  0
  130.4770  121.4630   61.7940 C   0  0  0  0  0  0  0  0  0  0  0  0
  129.4600  122.4300   62.3700 C   0  0  0  0  0  0  0  0  0  0  0  0
  130.1210  120.1710   61.4120 C   0  0  0  0  0  0  0  0  0  0  0  0
  131.0980  119.3100   60.8920 C   0  0  0  0  0  0  0  0  0  0  0  0
  130.6930  117.8780   60.4950 C   0  0  0  0  0  0  0  0  0  0  0  0
  131.3850  116.9910   61.2120 F   0  0  0  0  0  0  0  0  0  0  0  0
  129.3920  117.6940   60.7180 F   0  0  0  0  0  0  0  0  0  0  0  0
  130.9220  117.6170   59.2060 F   0  0  0  0  0  0  0  0  0  0  0  0
  132.4250  119.7920   60.7650 C   0  0  0  0  0  0  0  0  0  0  0  0
  133.4980  118.9310   60.2560 C   0  0  0  0  0  0  0  0  0  0  0  0
  134.3450  118.2520   59.8550 N   0  0  0  0  0  0  0  0  0  0  0  0
  133.6190  124.9110   65.3390 N   0  0  0  0  0  0  0  0  0  0  0  0
  133.9434  125.6411   68.5286 H   0  0  0  0  0  0  0  0  0  0  0  0
  135.1207  124.9173   67.3811 H   0  0  0  0  0  0  0  0  0  0  0  0
  134.8413  126.6917   67.3811 H   0  0  0  0  0  0  0  0  0  0  0  0
  131.7102  126.4954   67.6757 H   0  0  0  0  0  0  0  0  0  0  0  0
  129.9730  126.1655   65.8914 H   0  0  0  0  0  0  0  0  0  0  0  0
  130.6094  125.0279   63.7478 H   0  0  0  0  0  0  0  0  0  0  0  0
  132.2930  123.4760   62.7980 H   0  0  0  0  0  0  0  0  0  0  0  0
  133.1063  123.8165   60.5395 H   0  0  0  0  0  0  0  0  0  0  0  0
  134.9045  124.0421   60.4250 H   0  0  0  0  0  0  0  0  0  0  0  0
  129.4996  122.3924   63.4686 H   0  0  0  0  0  0  0  0  0  0  0  0
  129.6904  123.4503   62.0295 H   0  0  0  0  0  0  0  0  0  0  0  0
  128.4526  122.1485   62.0295 H   0  0  0  0  0  0  0  0  0  0  0  0
  129.0809  119.8290   61.5176 H   0  0  0  0  0  0  0  0  0  0  0  0
  1  2  1  0
  2  3  2  0
  3  4  1  0
  4  5  2  0
  5  6  1  0
  6  7  1  0
  7  8  1  0
  8  9  2  0
  8 10  1  0
 10 11  1  0
 11 12  1  0
 12 13  2  0
 13 14  1  0
 14 15  1  0
 14 16  2  0
 16 17  1  0
 17 18  1  0
 18 19  1  0
 18 20  1  0
 18 21  1  0
 17 22  2  0
 22 23  1  0
 23 24  3  0
  6 25  2  0
 25  2  1  0
 22 12  1  0
  1 26  1  0
  1 27  1  0
  1 28  1  0
  3 29  1  0
  4 30  1  0
  5 31  1  0
  7 32  1  0
 10 33  1  0
 10 34  1  0
 15 35  1  0
 15 36  1  0
 15 37  1  0
 16 38  1  0
M  END
>  <Binding energies>  (1) 
[-7.0]

>  <Ligand effiencies>  (1) 
[-0.2692307692307692]

>  <Interactions>  (1) 
["V-A:ILE:369:CG2:3236, V-B:TYR:539:CD2:9846, V-A:PRO:482:CG:4326, V-B:PRO:540:C:9853, V-A:PRO:482:CB:4325, V-A:LEU:475:CD1:4257, V-A:SER:385:CA:3406, V-B:TYR:539:C:9839, V-B:ALA:541:CB:9864, V-A:ARG:545:CD:4923, V-A:ARG:545:CZ:4926, V-A:GLY:453:CA:4043, V-A:ARG:545:CB:4921, V-A:GLY:453:C:4041, V-A:HIS:456:CE1:4069, V-A:ARG:545:CG:4922, V-A:HIS:383:CE1:3392, H-A:TYR:484:OH:4347, H-A:GLY:454:N:4049, V-A:ASP:366:CG:3212, H-A:ARG:545:NH1:4927, V-A:ILE:369:CD1:3238, V-A:TYR:484:CZ:4346, H-A:ARG:545:NH2:4928, V-B:TYR:539:CB:9843, V-B:TYR:539:CA:9841, V-A:HIS:383:CD2:3391, V-A:ILE:455:C:4051, H-A:ARG:545:NE:4924, V-B:TYR:539:CG:9844, H-A:HIS:383:NE2:3393, H-A:SER:385:OG:3409, V-A:PRO:482:CD:4327"]

$$$$
2f_Grossjean_2025
     RDKit          3D

 35 36  0  0  0  0  0  0  0  0999 V2000
  133.5690  125.6190   66.9500 C   0  0  0  0  0  0  0  0  0  0  0  0
  133.0690  125.3930   65.5360 C   0  0  0  0  0  0  0  0  0  0  0  0
  131.7190  125.5050   65.2120 C   0  0  0  0  0  0  0  0  0  0  0  0
  131.3050  125.2780   63.8900 C   0  0  0  0  0  0  0  0  0  0  0  0
  129.8060  125.3940   63.5550 C   0  0  0  0  0  0  0  0  0  0  0  0
  129.1210  125.7640   64.6390 F   0  0  0  0  0  0  0  0  0  0  0  0
  129.6240  126.3040   62.5970 F   0  0  0  0  0  0  0  0  0  0  0  0
  129.2810  124.2450   63.1230 F   0  0  0  0  0  0  0  0  0  0  0  0
  132.2860  124.9470   62.9200 C   0  0  0  0  0  0  0  0  0  0  0  0
  131.8970  124.6450   61.5400 C   0  0  0  0  0  0  0  0  0  0  0  0
  131.5890  124.4080   60.4490 N   0  0  0  0  0  0  0  0  0  0  0  0
  133.6380  124.8820   63.3350 C   0  0  0  0  0  0  0  0  0  0  0  0
  134.9970  124.4930   62.2520 S   0  0  0  0  0  0  0  0  0  0  0  0
  134.3510  123.4920   60.8690 C   0  0  0  0  0  0  0  0  0  0  0  0
  133.9660  122.0500   61.2330 C   0  0  0  0  0  0  0  0  0  0  0  0
  134.7430  121.3330   61.8650 O   0  0  0  0  0  0  0  0  0  0  0  0
  132.7500  121.6670   60.7890 N   0  0  0  0  0  0  0  0  0  0  0  0
  132.0860  120.4350   60.9490 C   0  0  0  0  0  0  0  0  0  0  0  0
  130.7770  120.2710   61.4380 C   0  0  0  0  0  0  0  0  0  0  0  0
  130.2340  118.9900   61.5430 C   0  0  0  0  0  0  0  0  0  0  0  0
  131.0130  117.9000   61.1520 C   0  0  0  0  0  0  0  0  0  0  0  0
  132.2750  118.0320   60.6700 N   0  0  0  0  0  0  0  0  0  0  0  0
  132.7880  119.2850   60.5740 C   0  0  0  0  0  0  0  0  0  0  0  0
  134.0150  125.0820   64.6210 N   0  0  0  0  0  0  0  0  0  0  0  0
  132.8088  125.2754   67.6670 H   0  0  0  0  0  0  0  0  0  0  0  0
  134.5003  125.0543   67.1042 H   0  0  0  0  0  0  0  0  0  0  0  0
  133.7605  126.6912   67.1042 H   0  0  0  0  0  0  0  0  0  0  0  0
  130.9832  125.7692   65.9858 H   0  0  0  0  0  0  0  0  0  0  0  0
  133.4558  123.9943   60.4737 H   0  0  0  0  0  0  0  0  0  0  0  0
  135.1691  123.4155   60.1376 H   0  0  0  0  0  0  0  0  0  0  0  0
  132.2450  122.3410   60.2310 H   0  0  0  0  0  0  0  0  0  0  0  0
  130.1845  121.1485   61.7361 H   0  0  0  0  0  0  0  0  0  0  0  0
  129.2134  118.8423   61.9259 H   0  0  0  0  0  0  0  0  0  0  0  0
  130.5857  116.8901   61.2382 H   0  0  0  0  0  0  0  0  0  0  0  0
  133.8087  119.4020   60.1809 H   0  0  0  0  0  0  0  0  0  0  0  0
  1  2  1  0
  2  3  2  0
  3  4  1  0
  4  5  1  0
  5  6  1  0
  5  7  1  0
  5  8  1  0
  4  9  2  0
  9 10  1  0
 10 11  3  0
  9 12  1  0
 12 13  1  0
 13 14  1  0
 14 15  1  0
 15 16  2  0
 15 17  1  0
 17 18  1  0
 18 19  2  0
 19 20  1  0
 20 21  2  0
 21 22  1  0
 22 23  2  0
 12 24  2  0
 24  2  1  0
 23 18  1  0
  1 25  1  0
  1 26  1  0
  1 27  1  0
  3 28  1  0
 14 29  1  0
 14 30  1  0
 17 31  1  0
 19 32  1  0
 20 33  1  0
 21 34  1  0
 23 35  1  0
M  END
>  <Binding energies>  (1) 
[-6.4]

>  <Ligand effiencies>  (1) 
[-0.256]

>  <Interactions>  (1) 
["V-A:ILE:369:CG2:3236, V-B:TYR:539:CD2:9846, V-A:PRO:482:CG:4326, V-A:PRO:482:CB:4325, V-A:LEU:475:CD1:4257, V-B:ALA:541:CA:9862, V-B:ALA:541:CB:9864, V-B:GLU:543:CD:9880, V-A:ARG:545:CD:4923, V-A:ARG:545:CZ:4926, V-A:GLY:453:CA:4043, V-A:HIS:456:CE1:4069, V-A:ARG:545:CG:4922, H-A:TYR:484:OH:4347, H-A:GLY:454:N:4049, V-B:GLU:543:CG:9879, H-A:ARG:545:NH1:4927, V-A:ILE:369:CD1:3238, V-A:TYR:484:CZ:4346, V-A:ILE:369:CB:3235, H-A:ARG:545:NH2:4928, H-A:ARG:545:NE:4924, H-A:HIS:383:NE2:3393, H-A:SER:385:OG:3409"]

$$$$
2g_Grossjean_2025
     RDKit          3D

 39 40  0  0  0  0  0  0  0  0999 V2000
  128.8260  122.7820   62.0530 C   0  0  0  0  0  0  0  0  0  0  0  0
  129.9590  121.8800   61.6020 C   0  0  0  0  0  0  0  0  0  0  0  0
  129.7810  120.5080   61.4450 C   0  0  0  0  0  0  0  0  0  0  0  0
  130.8630  119.7150   61.0320 C   0  0  0  0  0  0  0  0  0  0  0  0
  130.6490  118.1970   60.8730 C   0  0  0  0  0  0  0  0  0  0  0  0
  129.3660  117.8880   61.0680 F   0  0  0  0  0  0  0  0  0  0  0  0
  131.0040  117.8170   59.6450 F   0  0  0  0  0  0  0  0  0  0  0  0
  131.3680  117.4810   61.7410 F   0  0  0  0  0  0  0  0  0  0  0  0
  132.1080  120.3450   60.7780 C   0  0  0  0  0  0  0  0  0  0  0  0
  133.2830  119.5560   60.3990 C   0  0  0  0  0  0  0  0  0  0  0  0
  134.2110  118.9320   60.1000 N   0  0  0  0  0  0  0  0  0  0  0  0
  132.1870  121.7500   60.9340 C   0  0  0  0  0  0  0  0  0  0  0  0
  133.6610  122.7010   60.6330 S   0  0  0  0  0  0  0  0  0  0  0  0
  134.3750  123.1320   62.2560 C   0  0  0  0  0  0  0  0  0  0  0  0
  133.7340  124.3490   62.9370 C   0  0  0  0  0  0  0  0  0  0  0  0
  134.3360  124.9950   63.7980 O   0  0  0  0  0  0  0  0  0  0  0  0
  132.4850  124.6460   62.5340 N   0  0  0  0  0  0  0  0  0  0  0  0
  131.6740  125.7590   63.0290 C   0  0  0  0  0  0  0  0  0  0  0  0
  131.2960  125.6560   64.5020 C   0  0  0  0  0  0  0  0  0  0  0  0
  130.1000  125.0320   64.8720 C   0  0  0  0  0  0  0  0  0  0  0  0
  129.7710  124.9030   66.2190 C   0  0  0  0  0  0  0  0  0  0  0  0
  130.6420  125.3870   67.1920 C   0  0  0  0  0  0  0  0  0  0  0  0
  131.8410  125.9980   66.8300 C   0  0  0  0  0  0  0  0  0  0  0  0
  132.1710  126.1270   65.4840 C   0  0  0  0  0  0  0  0  0  0  0  0
  131.1370  122.4970   61.3560 N   0  0  0  0  0  0  0  0  0  0  0  0
  128.7934  122.8080   63.1522 H   0  0  0  0  0  0  0  0  0  0  0  0
  128.9909  123.7987   61.6669 H   0  0  0  0  0  0  0  0  0  0  0  0
  127.8721  122.3934   61.6669 H   0  0  0  0  0  0  0  0  0  0  0  0
  128.8009  120.0495   61.6429 H   0  0  0  0  0  0  0  0  0  0  0  0
  134.2576  122.2651   62.9229 H   0  0  0  0  0  0  0  0  0  0  0  0
  135.4264  123.3977   62.0717 H   0  0  0  0  0  0  0  0  0  0  0  0
  132.0690  124.0830   61.8060 H   0  0  0  0  0  0  0  0  0  0  0  0
  132.2419  126.6898   62.8838 H   0  0  0  0  0  0  0  0  0  0  0  0
  130.7323  125.7383   62.4609 H   0  0  0  0  0  0  0  0  0  0  0  0
  129.4199  124.6435   64.0996 H   0  0  0  0  0  0  0  0  0  0  0  0
  128.8271  124.4208   66.5133 H   0  0  0  0  0  0  0  0  0  0  0  0
  130.3812  125.2861   68.2558 H   0  0  0  0  0  0  0  0  0  0  0  0
  132.5238  126.3768   67.6048 H   0  0  0  0  0  0  0  0  0  0  0  0
  133.1208  126.5998   65.1934 H   0  0  0  0  0  0  0  0  0  0  0  0
  1  2  1  0
  2  3  2  0
  3  4  1  0
  4  5  1  0
  5  6  1  0
  5  7  1  0
  5  8  1  0
  4  9  2  0
  9 10  1  0
 10 11  3  0
  9 12  1  0
 12 13  1  0
 13 14  1  0
 14 15  1  0
 15 16  2  0
 15 17  1  0
 17 18  1  0
 18 19  1  0
 19 20  2  0
 20 21  1  0
 21 22  2  0
 22 23  1  0
 23 24  2  0
 12 25  2  0
 25  2  1  0
 24 19  1  0
  1 26  1  0
  1 27  1  0
  1 28  1  0
  3 29  1  0
 14 30  1  0
 14 31  1  0
 17 32  1  0
 18 33  1  0
 18 34  1  0
 20 35  1  0
 21 36  1  0
 22 37  1  0
 23 38  1  0
 24 39  1  0
M  END
>  <Binding energies>  (1) 
[-6.35]

>  <Ligand effiencies>  (1) 
[-0.24423076923076922]

>  <Interactions>  (1) 
["V-A:ILE:369:CG2:3236, V-B:TYR:539:CD2:9846, V-A:PRO:482:CG:4326, V-B:PRO:540:C:9853, V-A:PRO:482:CB:4325, V-A:LEU:475:CD1:4257, V-B:ALA:541:CA:9862, V-B:TYR:539:C:9839, V-B:ALA:541:CB:9864, V-B:GLU:543:CD:9880, V-A:ARG:545:CZ:4926, V-B:GLU:543:CB:9878, V-A:GLY:453:C:4041, V-A:HIS:456:CE1:4069, V-A:GLY:454:CA:4048, V-A:HIS:383:CE1:3392, H-A:GLY:454:N:4049, V-B:GLU:543:CG:9879, V-A:GLU:543:CD:4908, H-A:ARG:545:NH1:4927, V-A:ILE:369:CD1:3238, V-A:TYR:484:CE2:4345, V-A:TYR:484:CZ:4346, H-A:ARG:545:NH2:4928, V-B:TYR:539:CB:9843, V-B:TYR:539:CG:9844, H-A:HIS:383:NE2:3393, H-A:SER:385:OG:3409, V-A:PRO:482:CD:4327"]

$$$$
2h_Grossjean_2025
     RDKit          3D

 51 52  0  0  0  0  0  0  0  0999 V2000
  124.5310  123.5020   58.5340 C   0  0  0  0  0  0  0  0  0  0  0  0
  125.7990  124.1170   58.3360 O   0  0  0  0  0  0  0  0  0  0  0  0
  126.9470  123.4360   58.6970 C   0  0  0  0  0  0  0  0  0  0  0  0
  127.9650  123.0820   57.7970 C   0  0  0  0  0  0  0  0  0  0  0  0
  129.0980  122.4030   58.2370 C   0  0  0  0  0  0  0  0  0  0  0  0
  129.2410  122.0620   59.5830 C   0  0  0  0  0  0  0  0  0  0  0  0
  130.5030  121.3350   60.0460 C   0  0  0  0  0  0  0  0  0  0  0  0
  131.1340  121.9420   61.2170 N   0  0  0  0  0  0  0  0  0  0  0  0
  132.4600  121.9990   61.4360 C   0  0  0  0  0  0  0  0  0  0  0  0
  133.2890  121.4640   60.6980 O   0  0  0  0  0  0  0  0  0  0  0  0
  132.8930  122.7920   62.6770 C   0  0  0  0  0  0  0  0  0  0  0  0
  132.3990  124.5480   62.6810 S   0  0  0  0  0  0  0  0  0  0  0  0
  132.4410  125.0890   64.3760 C   0  0  0  0  0  0  0  0  0  0  0  0
  133.6790  125.0610   64.9270 N   0  0  0  0  0  0  0  0  0  0  0  0
  133.8230  125.4350   66.2180 C   0  0  0  0  0  0  0  0  0  0  0  0
  135.2340  125.3710   66.7700 C   0  0  0  0  0  0  0  0  0  0  0  0
  132.7510  125.8540   67.0040 C   0  0  0  0  0  0  0  0  0  0  0  0
  131.4650  125.9090   66.4450 C   0  0  0  0  0  0  0  0  0  0  0  0
  130.2930  126.3830   67.3270 C   0  0  0  0  0  0  0  0  0  0  0  0
  130.7270  127.2750   68.2170 F   0  0  0  0  0  0  0  0  0  0  0  0
  129.3180  126.9620   66.6220 F   0  0  0  0  0  0  0  0  0  0  0  0
  129.7600  125.3470   67.9750 F   0  0  0  0  0  0  0  0  0  0  0  0
  131.2990  125.5270   65.0890 C   0  0  0  0  0  0  0  0  0  0  0  0
  129.9880  125.6230   64.4410 C   0  0  0  0  0  0  0  0  0  0  0  0
  128.9530  125.7020   63.9320 N   0  0  0  0  0  0  0  0  0  0  0  0
  128.2220  122.3880   60.4900 C   0  0  0  0  0  0  0  0  0  0  0  0
  128.3540  122.0530   61.8170 O   0  0  0  0  0  0  0  0  0  0  0  0
  128.4820  123.1660   62.6930 C   0  0  0  0  0  0  0  0  0  0  0  0
  127.0880  123.0910   60.0480 C   0  0  0  0  0  0  0  0  0  0  0  0
  126.0960  123.4290   60.9370 O   0  0  0  0  0  0  0  0  0  0  0  0
  126.1290  124.7860   61.3570 C   0  0  0  0  0  0  0  0  0  0  0  0
  124.3341  123.4065   59.6120 H   0  0  0  0  0  0  0  0  0  0  0  0
  123.7474  124.1202   58.0715 H   0  0  0  0  0  0  0  0  0  0  0  0
  124.5313  122.5039   58.0715 H   0  0  0  0  0  0  0  0  0  0  0  0
  127.8663  123.3439   56.7332 H   0  0  0  0  0  0  0  0  0  0  0  0
  129.8862  122.1333   57.5187 H   0  0  0  0  0  0  0  0  0  0  0  0
  130.2349  120.2975   60.2945 H   0  0  0  0  0  0  0  0  0  0  0  0
  131.2293  121.3946   59.2220 H   0  0  0  0  0  0  0  0  0  0  0  0
  130.5190  122.4340   61.8500 H   0  0  0  0  0  0  0  0  0  0  0  0
  132.4497  122.3108   63.5612 H   0  0  0  0  0  0  0  0  0  0  0  0
  133.9930  122.7821   62.6797 H   0  0  0  0  0  0  0  0  0  0  0  0
  135.1980  125.3726   67.8694 H   0  0  0  0  0  0  0  0  0  0  0  0
  135.7230  124.4498   66.4205 H   0  0  0  0  0  0  0  0  0  0  0  0
  135.8044  126.2442   66.4205 H   0  0  0  0  0  0  0  0  0  0  0  0
  132.9117  126.1393   68.0541 H   0  0  0  0  0  0  0  0  0  0  0  0
  128.4420  122.8183   63.7358 H   0  0  0  0  0  0  0  0  0  0  0  0
  129.4438  123.6677   62.5104 H   0  0  0  0  0  0  0  0  0  0  0  0
  127.6592  123.8729   62.5104 H   0  0  0  0  0  0  0  0  0  0  0  0
  126.1301  124.8297   62.4561 H   0  0  0  0  0  0  0  0  0  0  0  0
  127.0391  125.2676   60.9700 H   0  0  0  0  0  0  0  0  0  0  0  0
  125.2434  125.3112   60.9700 H   0  0  0  0  0  0  0  0  0  0  0  0
  1  2  1  0
  2  3  1  0
  3  4  2  0
  4  5  1  0
  5  6  2  0
  6  7  1  0
  7  8  1  0
  8  9  1  0
  9 10  2  0
  9 11  1  0
 11 12  1  0
 12 13  1  0
 13 14  2  0
 14 15  1  0
 15 16  1  0
 15 17  2  0
 17 18  1  0
 18 19  1  0
 19 20  1  0
 19 21  1  0
 19 22  1  0
 18 23  2  0
 23 24  1  0
 24 25  3  0
  6 26  1  0
 26 27  1  0
 27 28  1  0
 26 29  2  0
 29 30  1  0
 30 31  1  0
 29  3  1  0
 23 13  1  0
  1 32  1  0
  1 33  1  0
  1 34  1  0
  4 35  1  0
  5 36  1  0
  7 37  1  0
  7 38  1  0
  8 39  1  0
 11 40  1  0
 11 41  1  0
 16 42  1  0
 16 43  1  0
 16 44  1  0
 17 45  1  0
 28 46  1  0
 28 47  1  0
 28 48  1  0
 31 49  1  0
 31 50  1  0
 31 51  1  0
M  END
>  <Binding energies>  (1) 
[-6.22]

>  <Ligand effiencies>  (1) 
[-0.194375]

>  <Interactions>  (1) 
["V-B:PRO:540:CB:9857, V-B:TYR:539:CE2:9848, V-B:TYR:539:CZ:9849, V-B:TYR:539:CD2:9846, V-B:PRO:540:CA:9855, V-B:PRO:540:C:9853, V-B:MET:535:CE:9807, V-A:LEU:475:CD1:4257, H-B:ALA:541:N:9863, V-B:TYR:539:C:9839, V-B:ALA:541:CB:9864, V-B:GLU:543:CD:9880, V-A:ARG:545:CD:4923, V-A:ARG:545:CZ:4926, V-A:GLY:453:CA:4043, V-B:GLU:543:CB:9878, V-A:GLY:453:C:4041, V-A:GLU:543:CB:4906, V-A:HIS:456:CE1:4069, V-A:ARG:545:CG:4922, V-A:GLY:454:CA:4048, H-A:TYR:484:OH:4347, H-A:GLY:454:N:4049, V-B:GLU:543:CG:9879, V-A:GLU:543:CD:4908, V-A:TYR:484:CE2:4345, V-A:TYR:484:CZ:4346, H-A:ARG:545:NH2:4928, V-A:ILE:455:C:4051, H-A:ARG:545:NE:4924, V-B:LEU:363:CA:8156, V-B:TYR:539:CG:9844, V-B:LEU:363:CB:8158, V-B:LEU:363:CD1:8160, V-A:GLY:454:C:4046"]

$$$$
2i_Grossjean_2025
     RDKit          3D

 32 33  0  0  0  0  0  0  0  0999 V2000
  129.3280  122.3030   62.5290 C   0  0  0  0  0  0  0  0  0  0  0  0
  130.3780  121.3630   61.9660 C   0  0  0  0  0  0  0  0  0  0  0  0
  130.0470  120.0930   61.5000 C   0  0  0  0  0  0  0  0  0  0  0  0
  131.0540  119.2630   60.9860 C   0  0  0  0  0  0  0  0  0  0  0  0
  130.6700  117.8610   60.4770 C   0  0  0  0  0  0  0  0  0  0  0  0
  129.3740  117.6340   60.6980 F   0  0  0  0  0  0  0  0  0  0  0  0
  130.9070  117.7690   59.1680 F   0  0  0  0  0  0  0  0  0  0  0  0
  131.3570  116.8860   61.0780 F   0  0  0  0  0  0  0  0  0  0  0  0
  132.3850  119.7500   60.9590 C   0  0  0  0  0  0  0  0  0  0  0  0
  133.4760  118.9250   60.4310 C   0  0  0  0  0  0  0  0  0  0  0  0
  134.3380  118.2740   60.0150 N   0  0  0  0  0  0  0  0  0  0  0  0
  132.6330  121.0520   61.4540 C   0  0  0  0  0  0  0  0  0  0  0  0
  134.2690  121.7670   61.4770 S   0  0  0  0  0  0  0  0  0  0  0  0
  134.1090  123.5530   61.1760 C   0  0  0  0  0  0  0  0  0  0  0  0
  134.1100  124.3620   62.4740 C   0  0  0  0  0  0  0  0  0  0  0  0
  135.1140  125.0090   62.7760 O   0  0  0  0  0  0  0  0  0  0  0  0
  132.9870  124.2790   63.2200 N   0  0  0  0  0  0  0  0  0  0  0  0
  132.7540  124.9010   64.4350 C   0  0  0  0  0  0  0  0  0  0  0  0
  131.5760  125.4620   64.9520 C   0  0  0  0  0  0  0  0  0  0  0  0
  131.9290  125.9320   66.1960 C   0  0  0  0  0  0  0  0  0  0  0  0
  133.2380  125.6620   66.4170 O   0  0  0  0  0  0  0  0  0  0  0  0
  133.7440  125.0040   65.2940 N   0  0  0  0  0  0  0  0  0  0  0  0
  131.6430  121.8400   61.9460 N   0  0  0  0  0  0  0  0  0  0  0  0
  129.3610  122.2735   63.6281 H   0  0  0  0  0  0  0  0  0  0  0  0
  129.5300  123.3276   62.1835 H   0  0  0  0  0  0  0  0  0  0  0  0
  128.3319  121.9893   62.1835 H   0  0  0  0  0  0  0  0  0  0  0  0
  129.0045  119.7438   61.5348 H   0  0  0  0  0  0  0  0  0  0  0  0
  134.9525  123.8837   60.5522 H   0  0  0  0  0  0  0  0  0  0  0  0
  133.1461  123.7248   60.6727 H   0  0  0  0  0  0  0  0  0  0  0  0
  132.2450  123.6830   62.8850 H   0  0  0  0  0  0  0  0  0  0  0  0
  130.5889  125.5144   64.4694 H   0  0  0  0  0  0  0  0  0  0  0  0
  131.2559  126.4450   66.8987 H   0  0  0  0  0  0  0  0  0  0  0  0
  1  2  1  0
  2  3  2  0
  3  4  1  0
  4  5  1  0
  5  6  1  0
  5  7  1  0
  5  8  1  0
  4  9  2  0
  9 10  1  0
 10 11  3  0
  9 12  1  0
 12 13  1  0
 13 14  1  0
 14 15  1  0
 15 16  2  0
 15 17  1  0
 17 18  1  0
 18 19  1  0
 19 20  2  0
 20 21  1  0
 21 22  1  0
 12 23  2  0
 23  2  1  0
 22 18  2  0
  1 24  1  0
  1 25  1  0
  1 26  1  0
  3 27  1  0
 14 28  1  0
 14 29  1  0
 17 30  1  0
 19 31  1  0
 20 32  1  0
M  END
>  <Binding energies>  (1) 
[-6.49]

>  <Ligand effiencies>  (1) 
[-0.2704166666666667]

>  <Interactions>  (1) 
["V-A:ILE:369:CG2:3236, V-B:TYR:539:CD2:9846, V-A:PRO:482:CG:4326, V-B:PRO:540:C:9853, V-A:PRO:482:CB:4325, V-A:LEU:475:CD1:4257, V-B:ALA:541:CA:9862, V-A:SER:385:CA:3406, V-B:TYR:539:C:9839, V-B:ALA:541:CB:9864, V-A:ARG:545:CZ:4926, V-A:GLY:453:CA:4043, V-A:GLY:453:C:4041, V-A:HIS:383:CE1:3392, H-A:TYR:484:OH:4347, H-A:GLY:454:N:4049, V-A:ASP:366:CG:3212, H-A:ARG:545:NH1:4927, V-A:ILE:369:CD1:3238, H-A:ARG:545:NH2:4928, V-B:TYR:539:CB:9843, V-B:TYR:539:CA:9841, V-A:HIS:383:CD2:3391, H-A:ARG:545:NE:4924, V-B:TYR:539:CG:9844, H-A:HIS:383:NE2:3393, H-A:SER:385:OG:3409, V-A:PRO:482:CD:4327"]

$$$$
2j_Grossjean_2025
     RDKit          3D

 32 33  0  0  0  0  0  0  0  0999 V2000
  129.3480  122.3130   62.6060 C   0  0  0  0  0  0  0  0  0  0  0  0
  130.3830  121.3680   62.0230 C   0  0  0  0  0  0  0  0  0  0  0  0
  130.0360  120.1010   61.5620 C   0  0  0  0  0  0  0  0  0  0  0  0
  131.0270  119.2650   61.0290 C   0  0  0  0  0  0  0  0  0  0  0  0
  130.6260  117.8660   60.5230 C   0  0  0  0  0  0  0  0  0  0  0  0
  131.3270  116.9300   61.1650 F   0  0  0  0  0  0  0  0  0  0  0  0
  129.3260  117.6570   60.7400 F   0  0  0  0  0  0  0  0  0  0  0  0
  130.8450  117.7070   59.2160 F   0  0  0  0  0  0  0  0  0  0  0  0
  132.3610  119.7430   60.9780 C   0  0  0  0  0  0  0  0  0  0  0  0
  133.4370  118.9120   60.4300 C   0  0  0  0  0  0  0  0  0  0  0  0
  134.2870  118.2560   59.9970 N   0  0  0  0  0  0  0  0  0  0  0  0
  132.6240  121.0450   61.4680 C   0  0  0  0  0  0  0  0  0  0  0  0
  134.2650  121.7510   61.4520 S   0  0  0  0  0  0  0  0  0  0  0  0
  134.1120  123.5560   61.2240 C   0  0  0  0  0  0  0  0  0  0  0  0
  134.1540  124.3760   62.5220 C   0  0  0  0  0  0  0  0  0  0  0  0
  135.1270  125.0860   62.7870 O   0  0  0  0  0  0  0  0  0  0  0  0
  133.0680  124.2370   63.3150 N   0  0  0  0  0  0  0  0  0  0  0  0
  132.8470  124.8610   64.5360 C   0  0  0  0  0  0  0  0  0  0  0  0
  133.7200  125.0940   65.4930 N   0  0  0  0  0  0  0  0  0  0  0  0
  133.1640  125.7110   66.5170 C   0  0  0  0  0  0  0  0  0  0  0  0
  131.8050  125.9920   66.4030 C   0  0  0  0  0  0  0  0  0  0  0  0
  131.2360  125.4120   64.8660 S   0  0  0  0  0  0  0  0  0  0  0  0
  131.6490  121.8390   61.9790 N   0  0  0  0  0  0  0  0  0  0  0  0
  129.3921  122.2727   63.7044 H   0  0  0  0  0  0  0  0  0  0  0  0
  129.5565  123.3388   62.2681 H   0  0  0  0  0  0  0  0  0  0  0  0
  128.3453  122.0123   62.2681 H   0  0  0  0  0  0  0  0  0  0  0  0
  128.9921  119.7585   61.6156 H   0  0  0  0  0  0  0  0  0  0  0  0
  134.9393  123.8908   60.5810 H   0  0  0  0  0  0  0  0  0  0  0  0
  133.1200  123.7287   60.7811 H   0  0  0  0  0  0  0  0  0  0  0  0
  132.3360  123.6180   63.0000 H   0  0  0  0  0  0  0  0  0  0  0  0
  133.7414  125.9882   67.4113 H   0  0  0  0  0  0  0  0  0  0  0  0
  131.1911  126.4987   67.1622 H   0  0  0  0  0  0  0  0  0  0  0  0
  1  2  1  0
  2  3  2  0
  3  4  1  0
  4  5  1  0
  5  6  1  0
  5  7  1  0
  5  8  1  0
  4  9  2  0
  9 10  1  0
 10 11  3  0
  9 12  1  0
 12 13  1  0
 13 14  1  0
 14 15  1  0
 15 16  2  0
 15 17  1  0
 17 18  1  0
 18 19  2  0
 19 20  1  0
 20 21  2  0
 21 22  1  0
 12 23  2  0
 23  2  1  0
 22 18  1  0
  1 24  1  0
  1 25  1  0
  1 26  1  0
  3 27  1  0
 14 28  1  0
 14 29  1  0
 17 30  1  0
 20 31  1  0
 21 32  1  0
M  END
>  <Binding energies>  (1) 
[-6.37]

>  <Ligand effiencies>  (1) 
[-0.2654166666666667]

>  <Interactions>  (1) 
["V-A:ILE:369:CG2:3236, V-B:PRO:540:N:9856, V-B:TYR:539:CD2:9846, V-A:PRO:482:CG:4326, V-B:PRO:540:C:9853, V-A:PRO:482:CB:4325, V-A:LEU:475:CD1:4257, V-B:ALA:541:CA:9862, V-A:SER:385:CA:3406, V-B:TYR:539:C:9839, V-B:ALA:541:CB:9864, V-A:ARG:545:CD:4923, V-A:ARG:545:CZ:4926, V-A:GLY:453:CA:4043, V-A:GLY:453:C:4041, V-A:ARG:545:CG:4922, V-A:HIS:383:CE1:3392, H-A:TYR:484:OH:4347, H-A:GLY:454:N:4049, V-A:ASP:366:CG:3212, H-A:ARG:545:NH1:4927, V-A:ILE:369:CD1:3238, V-A:TYR:484:CZ:4346, H-A:ARG:545:NH2:4928, V-B:TYR:539:CB:9843, V-B:TYR:539:CA:9841, V-A:HIS:383:CD2:3391, H-A:ARG:545:NE:4924, V-B:TYR:539:CG:9844, H-A:HIS:383:NE2:3393, H-A:SER:385:OG:3409, V-A:PRO:482:CD:4327"]

$$$$
2k_Grossjean_2025
     RDKit          3D

 50 50  0  0  0  0  0  0  0  0999 V2000
  124.9990  124.0990   58.1090 C   0  0  0  0  0  0  0  0  0  0  0  0
  126.0370  124.2570   57.1540 O   0  0  0  0  0  0  0  0  0  0  0  0
  127.1760  123.4480   57.4160 C   0  0  0  0  0  0  0  0  0  0  0  0
  128.3800  124.3390   57.7490 C   0  0  0  0  0  0  0  0  0  0  0  0
  129.5390  123.5280   57.8650 O   0  0  0  0  0  0  0  0  0  0  0  0
  130.7600  124.2570   57.9140 C   0  0  0  0  0  0  0  0  0  0  0  0
  130.5630  125.4720   58.8300 C   0  0  0  0  0  0  0  0  0  0  0  0
  130.7860  125.0500   60.1660 O   0  0  0  0  0  0  0  0  0  0  0  0
  130.6220  126.0570   61.1530 C   0  0  0  0  0  0  0  0  0  0  0  0
  131.6300  125.8100   62.2910 C   0  0  0  0  0  0  0  0  0  0  0  0
  132.4990  124.6570   62.0450 N   0  0  0  0  0  0  0  0  0  0  0  0
  133.5890  124.3290   62.7660 C   0  0  0  0  0  0  0  0  0  0  0  0
  133.9660  124.9650   63.7520 O   0  0  0  0  0  0  0  0  0  0  0  0
  134.3720  123.1040   62.2700 C   0  0  0  0  0  0  0  0  0  0  0  0
  133.8450  122.4410   60.6520 S   0  0  0  0  0  0  0  0  0  0  0  0
  132.2820  121.5940   60.8380 C   0  0  0  0  0  0  0  0  0  0  0  0
  131.2190  122.3800   61.1460 N   0  0  0  0  0  0  0  0  0  0  0  0
  130.0060  121.8050   61.3060 C   0  0  0  0  0  0  0  0  0  0  0  0
  128.8730  122.7480   61.6600 C   0  0  0  0  0  0  0  0  0  0  0  0
  129.7970  120.4370   61.1550 C   0  0  0  0  0  0  0  0  0  0  0  0
  130.8800  119.6060   60.8290 C   0  0  0  0  0  0  0  0  0  0  0  0
  130.6300  118.0950   60.6610 C   0  0  0  0  0  0  0  0  0  0  0  0
  130.9980  117.6400   59.4620 F   0  0  0  0  0  0  0  0  0  0  0  0
  131.3210  117.4130   61.5770 F   0  0  0  0  0  0  0  0  0  0  0  0
  129.3330  117.8270   60.8110 F   0  0  0  0  0  0  0  0  0  0  0  0
  132.1600  120.1940   60.6660 C   0  0  0  0  0  0  0  0  0  0  0  0
  133.3270  119.3730   60.3280 C   0  0  0  0  0  0  0  0  0  0  0  0
  134.2480  118.7250   60.0610 N   0  0  0  0  0  0  0  0  0  0  0  0
  125.4207  124.1632   59.1229 H   0  0  0  0  0  0  0  0  0  0  0  0
  124.2507  124.8936   57.9721 H   0  0  0  0  0  0  0  0  0  0  0  0
  124.5211  123.1178   57.9721 H   0  0  0  0  0  0  0  0  0  0  0  0
  126.9651  122.7853   58.2683 H   0  0  0  0  0  0  0  0  0  0  0  0
  127.4057  122.8444   56.5256 H   0  0  0  0  0  0  0  0  0  0  0  0
  128.5255  125.0770   56.9464 H   0  0  0  0  0  0  0  0  0  0  0  0
  128.2000  124.8666   58.6973 H   0  0  0  0  0  0  0  0  0  0  0  0
  131.5594  123.6160   58.3141 H   0  0  0  0  0  0  0  0  0  0  0  0
  131.0433  124.5876   56.9038 H   0  0  0  0  0  0  0  0  0  0  0  0
  131.2802  126.2621   58.5627 H   0  0  0  0  0  0  0  0  0  0  0  0
  129.5454  125.8748   58.7196 H   0  0  0  0  0  0  0  0  0  0  0  0
  130.8049  127.0453   60.7060 H   0  0  0  0  0  0  0  0  0  0  0  0
  129.5967  126.0256   61.5503 H   0  0  0  0  0  0  0  0  0  0  0  0
  132.2589  126.7055   62.4028 H   0  0  0  0  0  0  0  0  0  0  0  0
  131.0520  125.5980   63.2026 H   0  0  0  0  0  0  0  0  0  0  0  0
  132.2510  124.0730   61.2600 H   0  0  0  0  0  0  0  0  0  0  0  0
  135.4320  123.3875   62.1918 H   0  0  0  0  0  0  0  0  0  0  0  0
  134.1812  122.3053   63.0019 H   0  0  0  0  0  0  0  0  0  0  0  0
  128.7851  122.8212   62.7540 H   0  0  0  0  0  0  0  0  0  0  0  0
  129.0805  123.7439   61.2414 H   0  0  0  0  0  0  0  0  0  0  0  0
  127.9313  122.3632   61.2414 H   0  0  0  0  0  0  0  0  0  0  0  0
  128.7918  120.0111   61.2900 H   0  0  0  0  0  0  0  0  0  0  0  0
  1  2  1  0
  2  3  1  0
  3  4  1  0
  4  5  1  0
  5  6  1  0
  6  7  1  0
  7  8  1  0
  8  9  1  0
  9 10  1  0
 10 11  1  0
 11 12  1  0
 12 13  2  0
 12 14  1  0
 14 15  1  0
 15 16  1  0
 16 17  2  0
 17 18  1  0
 18 19  1  0
 18 20  2  0
 20 21  1  0
 21 22  1  0
 22 23  1  0
 22 24  1  0
 22 25  1  0
 21 26  2  0
 26 27  1  0
 27 28  3  0
 26 16  1  0
  1 29  1  0
  1 30  1  0
  1 31  1  0
  3 32  1  0
  3 33  1  0
  4 34  1  0
  4 35  1  0
  6 36  1  0
  6 37  1  0
  7 38  1  0
  7 39  1  0
  9 40  1  0
  9 41  1  0
 10 42  1  0
 10 43  1  0
 11 44  1  0
 14 45  1  0
 14 46  1  0
 19 47  1  0
 19 48  1  0
 19 49  1  0
 20 50  1  0
M  END
>  <Binding energies>  (1) 
[-4.69]

>  <Ligand effiencies>  (1) 
[-0.1617241379310345]

>  <Interactions>  (1) 
["V-A:ILE:369:CG2:3236, V-B:TYR:539:CE2:9848, V-B:PRO:540:N:9856, V-B:TYR:539:CZ:9849, V-B:TYR:539:CD2:9846, V-A:PRO:482:CG:4326, V-B:PRO:540:C:9853, V-A:PRO:482:CB:4325, V-B:MET:535:CE:9807, V-A:LEU:475:CD1:4257, H-B:TYR:531:OH:9767, V-B:ALA:541:CA:9862, V-B:TYR:539:C:9839, V-B:ALA:541:CB:9864, V-A:GLY:453:C:4041, V-A:GLY:454:CA:4048, V-A:HIS:383:CE1:3392, H-A:GLY:454:N:4049, V-A:ASP:366:CG:3212, H-A:ARG:545:NH1:4927, V-A:ILE:369:CD1:3238, H-A:ARG:545:NH2:4928, V-B:TYR:539:CB:9843, V-B:TYR:539:CG:9844, V-B:TYR:531:CE2:9765, V-B:LEU:363:CD1:8160, H-A:HIS:383:NE2:3393, H-A:SER:385:OG:3409, H-B:TYR:539:OH:9850, V-A:PRO:482:CD:4327"]

$$$$
3aa_Grossjean_2025
     RDKit          3D

 52 54  0  0  0  0  0  0  0  0999 V2000
  133.9920  125.3680   67.6260 C   0  0  0  0  0  0  0  0  0  0  0  0
  132.6380  125.9370   67.1930 C   0  0  0  0  0  0  0  0  0  0  0  0
  132.7240  126.3970   65.8500 O   0  0  0  0  0  0  0  0  0  0  0  0
  132.9430  125.5320   64.8280 C   0  0  0  0  0  0  0  0  0  0  0  0
  134.0470  125.0350   64.5810 O   0  0  0  0  0  0  0  0  0  0  0  0
  131.7120  125.2490   64.0140 C   0  0  0  0  0  0  0  0  0  0  0  0
  130.5310  124.7650   64.5970 C   0  0  0  0  0  0  0  0  0  0  0  0
  129.4060  124.5190   63.8140 C   0  0  0  0  0  0  0  0  0  0  0  0
  129.4360  124.7560   62.4390 C   0  0  0  0  0  0  0  0  0  0  0  0
  128.2440  124.4770   61.7410 N   0  0  0  0  0  0  0  0  0  0  0  0
  127.4430  123.3910   61.8040 C   0  0  0  0  0  0  0  0  0  0  0  0
  127.6410  122.3970   62.5040 O   0  0  0  0  0  0  0  0  0  0  0  0
  126.2040  123.4320   60.9090 C   0  0  0  0  0  0  0  0  0  0  0  0
  126.6430  123.3760   59.1450 S   0  0  0  0  0  0  0  0  0  0  0  0
  128.4200  123.3730   59.0500 C   0  0  0  0  0  0  0  0  0  0  0  0
  128.9930  122.2950   59.6370 N   0  0  0  0  0  0  0  0  0  0  0  0
  130.3450  122.1690   59.6380 C   0  0  0  0  0  0  0  0  0  0  0  0
  130.9030  120.9420   60.2930 C   0  0  0  0  0  0  0  0  0  0  0  0
  130.1180  120.1850   61.1780 C   0  0  0  0  0  0  0  0  0  0  0  0
  130.6290  119.0430   61.7900 C   0  0  0  0  0  0  0  0  0  0  0  0
  131.9340  118.6430   61.5250 C   0  0  0  0  0  0  0  0  0  0  0  0
  132.7310  119.3740   60.6500 C   0  0  0  0  0  0  0  0  0  0  0  0
  132.2170  120.5140   60.0380 C   0  0  0  0  0  0  0  0  0  0  0  0
  131.1570  123.1350   59.0340 C   0  0  0  0  0  0  0  0  0  0  0  0
  130.5870  124.2690   58.4350 C   0  0  0  0  0  0  0  0  0  0  0  0
  131.5150  125.3150   57.7910 C   0  0  0  0  0  0  0  0  0  0  0  0
  132.8040  124.9710   57.8500 F   0  0  0  0  0  0  0  0  0  0  0  0
  131.2050  125.4750   56.5040 F   0  0  0  0  0  0  0  0  0  0  0  0
  131.3820  126.4860   58.4150 F   0  0  0  0  0  0  0  0  0  0  0  0
  129.1770  124.4040   58.4520 C   0  0  0  0  0  0  0  0  0  0  0  0
  128.5300  125.5940   57.8930 C   0  0  0  0  0  0  0  0  0  0  0  0
  128.0190  126.5350   57.4530 N   0  0  0  0  0  0  0  0  0  0  0  0
  130.6170  125.2270   61.8470 C   0  0  0  0  0  0  0  0  0  0  0  0
  131.7410  125.4710   62.6310 C   0  0  0  0  0  0  0  0  0  0  0  0
  134.0459  125.3454   68.7244 H   0  0  0  0  0  0  0  0  0  0  0  0
  134.1035  124.3469   67.2323 H   0  0  0  0  0  0  0  0  0  0  0  0
  134.7994  126.0029   67.2323 H   0  0  0  0  0  0  0  0  0  0  0  0
  131.8710  125.1516   67.2630 H   0  0  0  0  0  0  0  0  0  0  0  0
  132.3657  126.7756   67.8508 H   0  0  0  0  0  0  0  0  0  0  0  0
  130.4935  124.5785   65.6804 H   0  0  0  0  0  0  0  0  0  0  0  0
  128.4876  124.1353   64.2824 H   0  0  0  0  0  0  0  0  0  0  0  0
  127.9860  125.1810   61.0630 H   0  0  0  0  0  0  0  0  0  0  0  0
  125.5657  122.5677   61.1447 H   0  0  0  0  0  0  0  0  0  0  0  0
  125.6754  124.3776   61.1000 H   0  0  0  0  0  0  0  0  0  0  0  0
  129.0853  120.4984   61.3907 H   0  0  0  0  0  0  0  0  0  0  0  0
  130.0023  118.4596   62.4806 H   0  0  0  0  0  0  0  0  0  0  0  0
  132.3388  117.7427   62.0104 H   0  0  0  0  0  0  0  0  0  0  0  0
  133.7624  119.0528   60.4426 H   0  0  0  0  0  0  0  0  0  0  0  0
  132.8489  121.0883   59.3445 H   0  0  0  0  0  0  0  0  0  0  0  0
  132.2493  123.0049   59.0286 H   0  0  0  0  0  0  0  0  0  0  0  0
  130.6551  125.4038   60.7620 H   0  0  0  0  0  0  0  0  0  0  0  0
  132.6627  125.8424   62.1592 H   0  0  0  0  0  0  0  0  0  0  0  0
  1  2  1  0
  2  3  1  0
  3  4  1  0
  4  5  2  0
  4  6  1  0
  6  7  2  0
  7  8  1  0
  8  9  2  0
  9 10  1  0
 10 11  1  0
 11 12  2  0
 11 13  1  0
 13 14  1  0
 14 15  1  0
 15 16  2  0
 16 17  1  0
 17 18  1  0
 18 19  2  0
 19 20  1  0
 20 21  2  0
 21 22  1  0
 22 23  2  0
 17 24  2  0
 24 25  1  0
 25 26  1  0
 26 27  1  0
 26 28  1  0
 26 29  1  0
 25 30  2  0
 30 31  1  0
 31 32  3  0
  9 33  1  0
 33 34  2  0
 34  6  1  0
 30 15  1  0
 23 18  1  0
  1 35  1  0
  1 36  1  0
  1 37  1  0
  2 38  1  0
  2 39  1  0
  7 40  1  0
  8 41  1  0
 10 42  1  0
 13 43  1  0
 13 44  1  0
 19 45  1  0
 20 46  1  0
 21 47  1  0
 22 48  1  0
 23 49  1  0
 24 50  1  0
 33 51  1  0
 34 52  1  0
M  END
>  <Binding energies>  (1) 
[-7.45]

>  <Ligand effiencies>  (1) 
[-0.21285714285714286]

>  <Interactions>  (1) 
["V-B:PRO:540:CB:9857, V-A:ILE:369:CG2:3236, V-B:TYR:539:CE2:9848, V-B:TYR:539:CZ:9849, V-B:TYR:539:CD2:9846, V-B:PRO:540:CA:9855, V-A:PRO:482:CG:4326, V-A:PRO:482:CB:4325, V-A:LEU:475:CD1:4257, H-B:ALA:541:N:9863, H-B:TYR:531:OH:9767, V-B:ALA:541:CB:9864, V-B:GLU:543:CD:9880, V-A:ARG:545:CD:4923, V-A:ARG:545:CZ:4926, V-A:HIS:456:CE1:4069, V-A:ARG:545:CG:4922, H-A:TYR:484:OH:4347, H-A:GLY:454:N:4049, V-B:GLU:543:CG:9879, V-A:ASP:366:CG:3212, H-A:ARG:545:NH1:4927, V-A:ASP:366:C:3207, V-A:ASP:366:CB:3211, V-A:ASP:366:CA:3209, V-A:TYR:484:CZ:4346, H-A:ARG:545:NH2:4928, V-A:ILE:455:C:4051, H-A:ARG:545:NE:4924, V-A:TYR:484:CE1:4344"]

$$$$
3ab_Grossjean_2025
     RDKit          3D

 49 51  0  0  0  0  0  0  0  0999 V2000
  131.4110  126.1250   66.9070 C   0  0  0  0  0  0  0  0  0  0  0  0
  132.5970  126.2790   66.1390 O   0  0  0  0  0  0  0  0  0  0  0  0
  132.8730  125.4440   65.1050 C   0  0  0  0  0  0  0  0  0  0  0  0
  133.9970  124.9880   64.8790 O   0  0  0  0  0  0  0  0  0  0  0  0
  131.6710  125.1260   64.2630 C   0  0  0  0  0  0  0  0  0  0  0  0
  130.9160  123.9580   64.4550 C   0  0  0  0  0  0  0  0  0  0  0  0
  129.8060  123.6890   63.6600 C   0  0  0  0  0  0  0  0  0  0  0  0
  129.4290  124.5890   62.6510 C   0  0  0  0  0  0  0  0  0  0  0  0
  128.3240  124.4230   61.7950 N   0  0  0  0  0  0  0  0  0  0  0  0
  127.4380  123.4080   61.7110 C   0  0  0  0  0  0  0  0  0  0  0  0
  127.4510  122.3880   62.3990 O   0  0  0  0  0  0  0  0  0  0  0  0
  126.3420  123.5800   60.6560 C   0  0  0  0  0  0  0  0  0  0  0  0
  126.9330  123.1780   58.9840 S   0  0  0  0  0  0  0  0  0  0  0  0
  128.7130  123.1430   59.0400 C   0  0  0  0  0  0  0  0  0  0  0  0
  129.2130  122.0310   59.6290 N   0  0  0  0  0  0  0  0  0  0  0  0
  130.5580  121.8690   59.7360 C   0  0  0  0  0  0  0  0  0  0  0  0
  131.0310  120.6100   60.3980 C   0  0  0  0  0  0  0  0  0  0  0  0
  132.3270  120.1200   60.1680 C   0  0  0  0  0  0  0  0  0  0  0  0
  132.7720  118.9520   60.7810 C   0  0  0  0  0  0  0  0  0  0  0  0
  131.9240  118.2540   61.6340 C   0  0  0  0  0  0  0  0  0  0  0  0
  130.6340  118.7140   61.8760 C   0  0  0  0  0  0  0  0  0  0  0  0
  130.1930  119.8830   61.2610 C   0  0  0  0  0  0  0  0  0  0  0  0
  131.4360  122.8500   59.2620 C   0  0  0  0  0  0  0  0  0  0  0  0
  130.9420  124.0190   58.6660 C   0  0  0  0  0  0  0  0  0  0  0  0
  131.9430  125.0770   58.1630 C   0  0  0  0  0  0  0  0  0  0  0  0
  131.8160  125.3300   56.8580 F   0  0  0  0  0  0  0  0  0  0  0  0
  131.7610  126.2280   58.8110 F   0  0  0  0  0  0  0  0  0  0  0  0
  133.1920  124.6570   58.3710 F   0  0  0  0  0  0  0  0  0  0  0  0
  129.5380  124.1820   58.5550 C   0  0  0  0  0  0  0  0  0  0  0  0
  128.9680  125.4080   57.9920 C   0  0  0  0  0  0  0  0  0  0  0  0
  128.5200  126.3780   57.5480 N   0  0  0  0  0  0  0  0  0  0  0  0
  130.1730  125.7540   62.4610 C   0  0  0  0  0  0  0  0  0  0  0  0
  131.2840  126.0200   63.2560 C   0  0  0  0  0  0  0  0  0  0  0  0
  131.6608  126.1574   67.9778 H   0  0  0  0  0  0  0  0  0  0  0  0
  130.7115  126.9399   66.6688 H   0  0  0  0  0  0  0  0  0  0  0  0
  130.9428  125.1585   66.6688 H   0  0  0  0  0  0  0  0  0  0  0  0
  131.2053  123.2472   65.2431 H   0  0  0  0  0  0  0  0  0  0  0  0
  129.2235  122.7702   63.8225 H   0  0  0  0  0  0  0  0  0  0  0  0
  128.2090  125.1690   61.1240 H   0  0  0  0  0  0  0  0  0  0  0  0
  125.5024  122.9144   60.9050 H   0  0  0  0  0  0  0  0  0  0  0  0
  126.0300  124.6348   60.6605 H   0  0  0  0  0  0  0  0  0  0  0  0
  133.0010  120.6677   59.4929 H   0  0  0  0  0  0  0  0  0  0  0  0
  133.7906  118.5826   60.5914 H   0  0  0  0  0  0  0  0  0  0  0  0
  132.2758  117.3322   62.1204 H   0  0  0  0  0  0  0  0  0  0  0  0
  129.9657  118.1575   62.5495 H   0  0  0  0  0  0  0  0  0  0  0  0
  129.1718  120.2434   61.4538 H   0  0  0  0  0  0  0  0  0  0  0  0
  132.5219  122.7030   59.3577 H   0  0  0  0  0  0  0  0  0  0  0  0
  129.8793  126.4675   61.6770 H   0  0  0  0  0  0  0  0  0  0  0  0
  131.8635  126.9405   63.0922 H   0  0  0  0  0  0  0  0  0  0  0  0
  1  2  1  0
  2  3  1  0
  3  4  2  0
  3  5  1  0
  5  6  2  0
  6  7  1  0
  7  8  2  0
  8  9  1  0
  9 10  1  0
 10 11  2  0
 10 12  1  0
 12 13  1  0
 13 14  1  0
 14 15  2  0
 15 16  1  0
 16 17  1  0
 17 18  2  0
 18 19  1  0
 19 20  2  0
 20 21  1  0
 21 22  2  0
 16 23  2  0
 23 24  1  0
 24 25  1  0
 25 26  1  0
 25 27  1  0
 25 28  1  0
 24 29  2  0
 29 30  1  0
 30 31  3  0
  8 32  1  0
 32 33  2  0
 33  5  1  0
 29 14  1  0
 22 17  1  0
  1 34  1  0
  1 35  1  0
  1 36  1  0
  6 37  1  0
  7 38  1  0
  9 39  1  0
 12 40  1  0
 12 41  1  0
 18 42  1  0
 19 43  1  0
 20 44  1  0
 21 45  1  0
 22 46  1  0
 23 47  1  0
 32 48  1  0
 33 49  1  0
M  END
>  <Binding energies>  (1) 
[-7.38]

>  <Ligand effiencies>  (1) 
[-0.21705882352941175]

>  <Interactions>  (1) 
["V-B:PRO:540:CB:9857, V-A:ILE:369:CG2:3236, V-B:TYR:539:CE2:9848, V-B:TYR:539:CZ:9849, V-B:TYR:539:CD2:9846, V-B:PRO:540:CA:9855, V-A:PRO:482:CG:4326, V-A:PRO:482:CB:4325, V-A:LEU:475:CD1:4257, H-B:ALA:541:N:9863, H-B:TYR:531:OH:9767, V-B:ALA:541:CB:9864, V-B:GLU:543:CD:9880, V-A:ARG:545:CZ:4926, V-A:HIS:456:CE1:4069, H-A:TYR:484:OH:4347, H-A:GLY:454:N:4049, V-B:GLU:543:CG:9879, V-A:ASP:366:CG:3212, H-A:ARG:545:NH1:4927, V-A:ASP:366:C:3207, V-A:ASP:366:CB:3211, V-A:ASP:366:CA:3209, H-A:ARG:545:NH2:4928, H-A:ARG:545:NE:4924"]

$$$$
3ac_Grossjean_2025
     RDKit          3D

 47 49  0  0  0  0  0  0  0  0999 V2000
  128.5810  126.4940   68.3860 C   0  0  0  0  0  0  0  0  0  0  0  0
  129.5780  125.4830   68.2710 O   0  0  0  0  0  0  0  0  0  0  0  0
  130.2830  125.3610   67.0890 C   0  0  0  0  0  0  0  0  0  0  0  0
  129.7270  124.5310   66.1160 C   0  0  0  0  0  0  0  0  0  0  0  0
  130.3630  124.3500   64.8920 C   0  0  0  0  0  0  0  0  0  0  0  0
  131.5730  124.9920   64.6250 C   0  0  0  0  0  0  0  0  0  0  0  0
  132.1290  124.7640   63.3530 N   0  0  0  0  0  0  0  0  0  0  0  0
  133.4250  124.7950   62.9720 C   0  0  0  0  0  0  0  0  0  0  0  0
  134.3820  124.9960   63.7210 O   0  0  0  0  0  0  0  0  0  0  0  0
  133.6800  124.5520   61.4840 C   0  0  0  0  0  0  0  0  0  0  0  0
  133.9720  122.7950   61.1140 S   0  0  0  0  0  0  0  0  0  0  0  0
  132.4090  121.9380   61.1410 C   0  0  0  0  0  0  0  0  0  0  0  0
  131.3490  122.7670   61.2990 N   0  0  0  0  0  0  0  0  0  0  0  0
  130.0910  122.2580   61.3330 C   0  0  0  0  0  0  0  0  0  0  0  0
  128.9740  123.2420   61.5180 C   0  0  0  0  0  0  0  0  0  0  0  0
  129.2430  124.5740   61.8730 C   0  0  0  0  0  0  0  0  0  0  0  0
  128.2120  125.4940   62.0410 C   0  0  0  0  0  0  0  0  0  0  0  0
  126.8920  125.0930   61.8570 C   0  0  0  0  0  0  0  0  0  0  0  0
  126.5980  123.7790   61.5100 C   0  0  0  0  0  0  0  0  0  0  0  0
  127.6330  122.8620   61.3430 C   0  0  0  0  0  0  0  0  0  0  0  0
  129.8720  120.8810   61.2240 C   0  0  0  0  0  0  0  0  0  0  0  0
  130.9530  119.9990   61.0820 C   0  0  0  0  0  0  0  0  0  0  0  0
  130.6670  118.4880   60.9720 C   0  0  0  0  0  0  0  0  0  0  0  0
  131.0060  117.9830   59.7840 F   0  0  0  0  0  0  0  0  0  0  0  0
  131.3550  117.8190   61.8980 F   0  0  0  0  0  0  0  0  0  0  0  0
  129.3660  118.2600   61.1510 F   0  0  0  0  0  0  0  0  0  0  0  0
  132.2650  120.5340   61.0540 C   0  0  0  0  0  0  0  0  0  0  0  0
  133.4280  119.6470   60.9850 C   0  0  0  0  0  0  0  0  0  0  0  0
  134.3480  118.9460   60.9320 N   0  0  0  0  0  0  0  0  0  0  0  0
  132.1350  125.8350   65.5960 C   0  0  0  0  0  0  0  0  0  0  0  0
  131.4960  126.0150   66.8200 C   0  0  0  0  0  0  0  0  0  0  0  0
  128.3832  126.6946   69.4493 H   0  0  0  0  0  0  0  0  0  0  0  0
  128.9345  127.4147   67.8987 H   0  0  0  0  0  0  0  0  0  0  0  0
  127.6555  126.1534   67.8987 H   0  0  0  0  0  0  0  0  0  0  0  0
  128.7769  124.0147   66.3181 H   0  0  0  0  0  0  0  0  0  0  0  0
  129.9099  123.6977   64.1310 H   0  0  0  0  0  0  0  0  0  0  0  0
  131.4610  124.4940   62.6470 H   0  0  0  0  0  0  0  0  0  0  0  0
  132.8030  124.8929   60.9141 H   0  0  0  0  0  0  0  0  0  0  0  0
  134.5840  125.1112   61.2009 H   0  0  0  0  0  0  0  0  0  0  0  0
  130.2847  124.8952   62.0206 H   0  0  0  0  0  0  0  0  0  0  0  0
  128.4396  126.5339   62.3181 H   0  0  0  0  0  0  0  0  0  0  0  0
  126.0766  125.8198   61.9868 H   0  0  0  0  0  0  0  0  0  0  0  0
  125.5533  123.4653   61.3681 H   0  0  0  0  0  0  0  0  0  0  0  0
  127.3964  121.8231   61.0696 H   0  0  0  0  0  0  0  0  0  0  0  0
  128.8452  120.4872   61.2498 H   0  0  0  0  0  0  0  0  0  0  0  0
  133.0823  126.3547   65.3898 H   0  0  0  0  0  0  0  0  0  0  0  0
  131.9436  126.6726   67.5797 H   0  0  0  0  0  0  0  0  0  0  0  0
  1  2  1  0
  2  3  1  0
  3  4  2  0
  4  5  1  0
  5  6  2  0
  6  7  1  0
  7  8  1  0
  8  9  2  0
  8 10  1  0
 10 11  1  0
 11 12  1  0
 12 13  2  0
 13 14  1  0
 14 15  1  0
 15 16  2  0
 16 17  1  0
 17 18  2  0
 18 19  1  0
 19 20  2  0
 14 21  2  0
 21 22  1  0
 22 23  1  0
 23 24  1  0
 23 25  1  0
 23 26  1  0
 22 27  2  0
 27 28  1  0
 28 29  3  0
  6 30  1  0
 30 31  2  0
 31  3  1  0
 27 12  1  0
 20 15  1  0
  1 32  1  0
  1 33  1  0
  1 34  1  0
  4 35  1  0
  5 36  1  0
  7 37  1  0
 10 38  1  0
 10 39  1  0
 16 40  1  0
 17 41  1  0
 18 42  1  0
 19 43  1  0
 20 44  1  0
 21 45  1  0
 30 46  1  0
 31 47  1  0
M  END
>  <Binding energies>  (1) 
[-7.25]

>  <Ligand effiencies>  (1) 
[-0.2265625]

>  <Interactions>  (1) 
["V-A:ILE:369:CG2:3236, V-B:TYR:539:CD2:9846, V-B:PRO:540:CA:9855, V-A:PRO:482:CG:4326, V-B:PRO:540:C:9853, V-A:PRO:482:CB:4325, V-A:LEU:475:CD1:4257, V-B:ALA:541:CA:9862, V-B:TYR:539:C:9839, V-B:ALA:541:CB:9864, V-B:GLU:543:CD:9880, V-A:ARG:545:CZ:4926, V-B:GLU:543:CB:9878, V-A:HIS:456:CE1:4069, V-B:HIS:456:CE1:9041, H-A:GLY:454:N:4049, V-B:GLU:543:CG:9879, V-A:ASP:366:CG:3212, H-A:ARG:545:NH1:4927, V-A:TYR:484:CE2:4345, V-A:TYR:484:CZ:4346, H-A:ARG:545:NH2:4928, V-B:TYR:539:CB:9843, V-B:TYR:539:CG:9844, H-A:SER:385:OG:3409, V-A:PRO:482:CD:4327"]

$$$$
3ad_Grossjean_2025
     RDKit          3D

 43 45  0  0  0  0  0  0  0  0999 V2000
  134.3080  118.7720   60.7390 N   0  0  0  0  0  0  0  0  0  0  0  0
  133.4020  119.4730   60.9030 C   0  0  0  0  0  0  0  0  0  0  0  0
  132.2510  120.3570   61.1100 C   0  0  0  0  0  0  0  0  0  0  0  0
  130.9310  119.8450   61.0940 C   0  0  0  0  0  0  0  0  0  0  0  0
  130.6230  118.3470   60.9060 C   0  0  0  0  0  0  0  0  0  0  0  0
  130.8840  117.9150   59.6720 F   0  0  0  0  0  0  0  0  0  0  0  0
  131.3580  117.6220   61.7510 F   0  0  0  0  0  0  0  0  0  0  0  0
  129.3320  118.1120   61.1460 F   0  0  0  0  0  0  0  0  0  0  0  0
  129.8630  120.7410   61.2510 C   0  0  0  0  0  0  0  0  0  0  0  0
  130.1050  122.1090   61.4160 C   0  0  0  0  0  0  0  0  0  0  0  0
  129.0000  123.1110   61.5720 C   0  0  0  0  0  0  0  0  0  0  0  0
  127.6660  122.7540   61.3200 C   0  0  0  0  0  0  0  0  0  0  0  0
  126.6360  123.6790   61.4640 C   0  0  0  0  0  0  0  0  0  0  0  0
  126.9280  124.9800   61.8650 C   0  0  0  0  0  0  0  0  0  0  0  0
  128.2400  125.3580   62.1240 C   0  0  0  0  0  0  0  0  0  0  0  0
  129.2680  124.4290   61.9790 C   0  0  0  0  0  0  0  0  0  0  0  0
  131.3710  122.5960   61.4240 N   0  0  0  0  0  0  0  0  0  0  0  0
  132.4190  121.7480   61.2960 C   0  0  0  0  0  0  0  0  0  0  0  0
  134.0020  122.5580   61.3420 S   0  0  0  0  0  0  0  0  0  0  0  0
  133.6930  124.3360   61.5660 C   0  0  0  0  0  0  0  0  0  0  0  0
  133.4350  124.6970   63.0310 C   0  0  0  0  0  0  0  0  0  0  0  0
  134.3880  125.0010   63.7490 O   0  0  0  0  0  0  0  0  0  0  0  0
  132.1430  124.6500   63.4200 N   0  0  0  0  0  0  0  0  0  0  0  0
  131.5690  124.9320   64.6740 C   0  0  0  0  0  0  0  0  0  0  0  0
  132.3160  125.7700   65.5070 C   0  0  0  0  0  0  0  0  0  0  0  0
  131.8410  126.1090   66.7710 C   0  0  0  0  0  0  0  0  0  0  0  0
  130.6190  125.6070   67.2070 C   0  0  0  0  0  0  0  0  0  0  0  0
  129.8680  124.7650   66.3910 C   0  0  0  0  0  0  0  0  0  0  0  0
  130.3390  124.4230   65.1260 C   0  0  0  0  0  0  0  0  0  0  0  0
  128.8290  120.3657   61.2443 H   0  0  0  0  0  0  0  0  0  0  0  0
  127.4310  121.7270   61.0037 H   0  0  0  0  0  0  0  0  0  0  0  0
  125.5959  123.3835   61.2619 H   0  0  0  0  0  0  0  0  0  0  0  0
  126.1155  125.7129   61.9774 H   0  0  0  0  0  0  0  0  0  0  0  0
  128.4659  126.3865   62.4422 H   0  0  0  0  0  0  0  0  0  0  0  0
  130.3050  124.7318   62.1862 H   0  0  0  0  0  0  0  0  0  0  0  0
  134.5715  124.8957   61.2125 H   0  0  0  0  0  0  0  0  0  0  0  0
  132.7934  124.5981   60.9897 H   0  0  0  0  0  0  0  0  0  0  0  0
  131.4810  124.3310   62.7280 H   0  0  0  0  0  0  0  0  0  0  0  0
  133.2836  126.1634   65.1622 H   0  0  0  0  0  0  0  0  0  0  0  0
  132.4298  126.7714   67.4226 H   0  0  0  0  0  0  0  0  0  0  0  0
  130.2429  125.8775   68.2047 H   0  0  0  0  0  0  0  0  0  0  0  0
  128.9041  124.3706   66.7451 H   0  0  0  0  0  0  0  0  0  0  0  0
  129.7492  123.7552   64.4810 H   0  0  0  0  0  0  0  0  0  0  0  0
  1  2  3  0
  2  3  1  0
  3  4  2  0
  4  5  1  0
  5  6  1  0
  5  7  1  0
  5  8  1  0
  4  9  1  0
  9 10  2  0
 10 11  1  0
 11 12  2  0
 12 13  1  0
 13 14  2  0
 14 15  1  0
 15 16  2  0
 10 17  1  0
 17 18  2  0
 18 19  1  0
 19 20  1  0
 20 21  1  0
 21 22  2  0
 21 23  1  0
 23 24  1  0
 24 25  2  0
 25 26  1  0
 26 27  2  0
 27 28  1  0
 28 29  2  0
 18  3  1  0
 29 24  1  0
 16 11  1  0
  9 30  1  0
 12 31  1  0
 13 32  1  0
 14 33  1  0
 15 34  1  0
 16 35  1  0
 20 36  1  0
 20 37  1  0
 23 38  1  0
 25 39  1  0
 26 40  1  0
 27 41  1  0
 28 42  1  0
 29 43  1  0
M  END
>  <Binding energies>  (1) 
[-7.44]

>  <Ligand effiencies>  (1) 
[-0.24800000000000003]

>  <Interactions>  (1) 
["V-A:ILE:369:CG2:3236, V-B:TYR:539:CD2:9846, V-B:PRO:540:CA:9855, V-A:PRO:482:CG:4326, V-B:PRO:540:C:9853, V-A:PRO:482:CB:4325, V-A:LEU:475:CD1:4257, V-B:ALA:541:CA:9862, V-A:SER:385:CA:3406, V-B:TYR:539:C:9839, V-B:ALA:541:CB:9864, V-B:GLU:543:CD:9880, V-A:ARG:545:CZ:4926, V-B:GLU:543:CB:9878, V-A:HIS:456:CE1:4069, H-A:GLY:454:N:4049, V-B:GLU:543:CG:9879, V-A:ASP:366:CG:3212, H-A:ARG:545:NH1:4927, V-A:TYR:484:CE2:4345, V-A:TYR:484:CZ:4346, H-A:ARG:545:NH2:4928, V-B:TYR:539:CB:9843, V-B:TYR:539:CG:9844, H-A:HIS:383:NE2:3393, H-A:SER:385:OG:3409, V-A:PRO:482:CD:4327"]

$$$$
3af_Grossjean_2025
     RDKit          3D

 42 44  0  0  0  0  0  0  0  0999 V2000
  132.1440  121.3660   60.0290 N   0  0  0  0  0  0  0  0  0  0  0  0
  131.9990  122.0810   60.9280 C   0  0  0  0  0  0  0  0  0  0  0  0
  131.8170  122.9860   62.0650 C   0  0  0  0  0  0  0  0  0  0  0  0
  132.8830  123.8000   62.5190 C   0  0  0  0  0  0  0  0  0  0  0  0
  134.2610  123.8260   61.8300 C   0  0  0  0  0  0  0  0  0  0  0  0
  135.1350  124.6240   62.4490 F   0  0  0  0  0  0  0  0  0  0  0  0
  134.7820  122.5990   61.8080 F   0  0  0  0  0  0  0  0  0  0  0  0
  134.1390  124.2670   60.5770 F   0  0  0  0  0  0  0  0  0  0  0  0
  132.6760  124.6100   63.6460 C   0  0  0  0  0  0  0  0  0  0  0  0
  131.4410  124.6050   64.3030 C   0  0  0  0  0  0  0  0  0  0  0  0
  131.1720  125.4360   65.5220 C   0  0  0  0  0  0  0  0  0  0  0  0
  129.8700  125.5600   66.0320 C   0  0  0  0  0  0  0  0  0  0  0  0
  129.6140  126.3280   67.1650 C   0  0  0  0  0  0  0  0  0  0  0  0
  130.6610  126.9830   67.8050 C   0  0  0  0  0  0  0  0  0  0  0  0
  131.9610  126.8740   67.3220 C   0  0  0  0  0  0  0  0  0  0  0  0
  132.2120  126.1050   66.1890 C   0  0  0  0  0  0  0  0  0  0  0  0
  130.4230  123.8200   63.8670 N   0  0  0  0  0  0  0  0  0  0  0  0
  130.5910  123.0470   62.7670 C   0  0  0  0  0  0  0  0  0  0  0  0
  129.1430  122.1010   62.3420 S   0  0  0  0  0  0  0  0  0  0  0  0
  127.6940  123.1870   62.5070 C   0  0  0  0  0  0  0  0  0  0  0  0
  126.7800  123.1060   61.2850 C   0  0  0  0  0  0  0  0  0  0  0  0
  125.5660  122.9940   61.4510 O   0  0  0  0  0  0  0  0  0  0  0  0
  127.4070  123.1600   60.0890 N   0  0  0  0  0  0  0  0  0  0  0  0
  126.8690  123.1040   58.7890 C   0  0  0  0  0  0  0  0  0  0  0  0
  127.1080  122.0900   57.8440 C   0  0  0  0  0  0  0  0  0  0  0  0
  126.5070  122.1620   56.5850 C   0  0  0  0  0  0  0  0  0  0  0  0
  125.6800  123.2490   56.3010 C   0  0  0  0  0  0  0  0  0  0  0  0
  125.4320  124.2390   57.1950 N   0  0  0  0  0  0  0  0  0  0  0  0
  126.0240  124.1540   58.4130 C   0  0  0  0  0  0  0  0  0  0  0  0
  133.4892  125.2524   64.0148 H   0  0  0  0  0  0  0  0  0  0  0  0
  129.0396  125.0428   65.5291 H   0  0  0  0  0  0  0  0  0  0  0  0
  128.5882  126.4163   67.5522 H   0  0  0  0  0  0  0  0  0  0  0  0
  130.4596  127.5913   68.6991 H   0  0  0  0  0  0  0  0  0  0  0  0
  132.7860  127.3925   67.8324 H   0  0  0  0  0  0  0  0  0  0  0  0
  133.2411  126.0198   65.8099 H   0  0  0  0  0  0  0  0  0  0  0  0
  127.1238  122.8864   63.3983 H   0  0  0  0  0  0  0  0  0  0  0  0
  128.0525  124.2230   62.5969 H   0  0  0  0  0  0  0  0  0  0  0  0
  128.4110  123.2610   60.1180 H   0  0  0  0  0  0  0  0  0  0  0  0
  127.7650  121.2443   58.0951 H   0  0  0  0  0  0  0  0  0  0  0  0
  126.6822  121.3781   55.8334 H   0  0  0  0  0  0  0  0  0  0  0  0
  125.2084  123.3060   55.3089 H   0  0  0  0  0  0  0  0  0  0  0  0
  125.8293  124.9530   59.1436 H   0  0  0  0  0  0  0  0  0  0  0  0
  1  2  3  0
  2  3  1  0
  3  4  2  0
  4  5  1  0
  5  6  1  0
  5  7  1  0
  5  8  1  0
  4  9  1  0
  9 10  2  0
 10 11  1  0
 11 12  2  0
 12 13  1  0
 13 14  2  0
 14 15  1  0
 15 16  2  0
 10 17  1  0
 17 18  2  0
 18 19  1  0
 19 20  1  0
 20 21  1  0
 21 22  2  0
 21 23  1  0
 23 24  1  0
 24 25  2  0
 25 26  1  0
 26 27  2  0
 27 28  1  0
 28 29  2  0
 18  3  1  0
 29 24  1  0
 16 11  1  0
  9 30  1  0
 12 31  1  0
 13 32  1  0
 14 33  1  0
 15 34  1  0
 16 35  1  0
 20 36  1  0
 20 37  1  0
 23 38  1  0
 25 39  1  0
 26 40  1  0
 27 41  1  0
 29 42  1  0
M  END
>  <Binding energies>  (1) 
[-7.16]

>  <Ligand effiencies>  (1) 
[-0.23866666666666667]

>  <Interactions>  (1) 
["V-B:PRO:540:CB:9857, V-A:ILE:369:CG2:3236, V-B:PRO:540:N:9856, V-B:PRO:540:CA:9855, V-B:MET:535:CE:9807, H-B:ALA:541:N:9863, H-B:TYR:531:OH:9767, V-B:TYR:539:C:9839, V-B:ALA:541:CB:9864, V-B:GLU:543:CD:9880, V-A:ARG:545:CZ:4926, V-A:GLY:453:CA:4043, V-A:GLY:453:C:4041, V-A:GLU:543:CB:4906, V-A:HIS:456:CE1:4069, V-A:ARG:545:CG:4922, V-A:GLY:454:CA:4048, H-A:TYR:484:OH:4347, V-B:GLU:543:CG:9879, V-A:GLU:543:CD:4908, V-A:ASP:366:CG:3212, V-A:ILE:369:CD1:3238, V-A:ASP:366:CB:3211, V-A:ASP:366:CA:3209, V-B:PRO:540:CD:9859, V-B:TYR:531:CZ:9766, V-B:TYR:531:CE2:9765, V-B:LEU:363:CD1:8160, V-B:MET:535:CG:9805"]

$$$$
3ag_Grossjean_2025
     RDKit          3D

 46 48  0  0  0  0  0  0  0  0999 V2000
  126.6440  126.4680   62.3700 N   0  0  0  0  0  0  0  0  0  0  0  0
  127.3070  125.5320   62.2140 C   0  0  0  0  0  0  0  0  0  0  0  0
  128.1500  124.3500   62.0170 C   0  0  0  0  0  0  0  0  0  0  0  0
  129.5460  124.4090   62.2490 C   0  0  0  0  0  0  0  0  0  0  0  0
  130.2500  125.6770   62.7700 C   0  0  0  0  0  0  0  0  0  0  0  0
  130.0410  126.7420   61.9930 F   0  0  0  0  0  0  0  0  0  0  0  0
  129.8010  125.9760   63.9900 F   0  0  0  0  0  0  0  0  0  0  0  0
  131.5670  125.4800   62.8300 F   0  0  0  0  0  0  0  0  0  0  0  0
  130.3180  123.2650   61.9950 C   0  0  0  0  0  0  0  0  0  0  0  0
  129.7160  122.0990   61.5110 C   0  0  0  0  0  0  0  0  0  0  0  0
  130.4910  120.8500   61.2200 C   0  0  0  0  0  0  0  0  0  0  0  0
  129.9460  119.5870   61.4960 C   0  0  0  0  0  0  0  0  0  0  0  0
  130.6610  118.4220   61.2290 C   0  0  0  0  0  0  0  0  0  0  0  0
  131.9360  118.5070   60.6790 C   0  0  0  0  0  0  0  0  0  0  0  0
  132.5010  119.7470   60.3980 C   0  0  0  0  0  0  0  0  0  0  0  0
  131.7830  120.9080   60.6680 C   0  0  0  0  0  0  0  0  0  0  0  0
  128.3750  122.0420   61.3010 N   0  0  0  0  0  0  0  0  0  0  0  0
  127.6070  123.1280   61.5590 C   0  0  0  0  0  0  0  0  0  0  0  0
  125.8780  122.8710   61.2300 S   0  0  0  0  0  0  0  0  0  0  0  0
  125.3890  124.0570   59.9420 C   0  0  0  0  0  0  0  0  0  0  0  0
  126.2280  123.9100   58.6730 C   0  0  0  0  0  0  0  0  0  0  0  0
  126.0110  124.6400   57.7040 O   0  0  0  0  0  0  0  0  0  0  0  0
  127.1860  122.9670   58.6960 N   0  0  0  0  0  0  0  0  0  0  0  0
  128.1230  122.6820   57.6100 C   0  0  0  0  0  0  0  0  0  0  0  0
  129.3570  123.5780   57.6010 C   0  0  0  0  0  0  0  0  0  0  0  0
  129.4880  124.5690   56.6250 C   0  0  0  0  0  0  0  0  0  0  0  0
  130.5990  125.4090   56.6310 C   0  0  0  0  0  0  0  0  0  0  0  0
  131.5710  125.2600   57.6200 C   0  0  0  0  0  0  0  0  0  0  0  0
  131.4380  124.2830   58.6040 C   0  0  0  0  0  0  0  0  0  0  0  0
  130.3270  123.4440   58.5990 C   0  0  0  0  0  0  0  0  0  0  0  0
  131.4026  123.2854   62.1776 H   0  0  0  0  0  0  0  0  0  0  0  0
  128.9378  119.5157   61.9302 H   0  0  0  0  0  0  0  0  0  0  0  0
  130.2197  117.4394   61.4519 H   0  0  0  0  0  0  0  0  0  0  0  0
  132.5011  117.5879   60.4649 H   0  0  0  0  0  0  0  0  0  0  0  0
  133.5101  119.8093   59.9646 H   0  0  0  0  0  0  0  0  0  0  0  0
  132.2333  121.8868   60.4461 H   0  0  0  0  0  0  0  0  0  0  0  0
  124.3317  123.8892   59.6890 H   0  0  0  0  0  0  0  0  0  0  0  0
  125.5501  125.0706   60.3377 H   0  0  0  0  0  0  0  0  0  0  0  0
  127.3020  122.4190   59.5360 H   0  0  0  0  0  0  0  0  0  0  0  0
  128.4551  121.6377   57.7054 H   0  0  0  0  0  0  0  0  0  0  0  0
  127.5857  122.8727   56.6693 H   0  0  0  0  0  0  0  0  0  0  0  0
  128.7140  124.6858   55.8521 H   0  0  0  0  0  0  0  0  0  0  0  0
  130.7092  126.1857   55.8599 H   0  0  0  0  0  0  0  0  0  0  0  0
  132.4509  125.9201   57.6230 H   0  0  0  0  0  0  0  0  0  0  0  0
  132.2080  124.1748   59.3821 H   0  0  0  0  0  0  0  0  0  0  0  0
  130.2125  122.6769   59.3790 H   0  0  0  0  0  0  0  0  0  0  0  0
  1  2  3  0
  2  3  1  0
  3  4  2  0
  4  5  1  0
  5  6  1  0
  5  7  1  0
  5  8  1  0
  4  9  1  0
  9 10  2  0
 10 11  1  0
 11 12  2  0
 12 13  1  0
 13 14  2  0
 14 15  1  0
 15 16  2  0
 10 17  1  0
 17 18  2  0
 18 19  1  0
 19 20  1  0
 20 21  1  0
 21 22  2  0
 21 23  1  0
 23 24  1  0
 24 25  1  0
 25 26  2  0
 26 27  1  0
 27 28  2  0
 28 29  1  0
 29 30  2  0
 18  3  1  0
 30 25  1  0
 16 11  1  0
  9 31  1  0
 12 32  1  0
 13 33  1  0
 14 34  1  0
 15 35  1  0
 16 36  1  0
 20 37  1  0
 20 38  1  0
 23 39  1  0
 24 40  1  0
 24 41  1  0
 26 42  1  0
 27 43  1  0
 28 44  1  0
 29 45  1  0
 30 46  1  0
M  END
>  <Binding energies>  (1) 
[-7.11]

>  <Ligand effiencies>  (1) 
[-0.22935483870967743]

>  <Interactions>  (1) 
["V-B:PRO:540:CB:9857, V-A:ILE:369:CG2:3236, V-B:TYR:539:CE2:9848, V-B:PRO:540:N:9856, V-B:TYR:539:CZ:9849, V-B:TYR:539:CD2:9846, V-B:PRO:540:CA:9855, V-A:PRO:482:CG:4326, V-B:PRO:540:C:9853, V-A:PRO:482:CB:4325, V-B:MET:535:CE:9807, H-B:ALA:541:N:9863, H-B:TYR:531:OH:9767, V-B:ALA:541:CA:9862, V-B:TYR:539:C:9839, V-B:ALA:541:CB:9864, V-B:GLU:543:CD:9880, H-B:ARG:545:NH2:9900, V-A:ASP:366:CB:3211, H-B:TYR:539:O:9840"]

$$$$
3ai_Grossjean_2025
     RDKit          3D

 39 41  0  0  0  0  0  0  0  0999 V2000
  131.8530  122.6400   64.1640 N   0  0  0  0  0  0  0  0  0  0  0  0
  131.0710  122.6540   63.3110 C   0  0  0  0  0  0  0  0  0  0  0  0
  130.0800  122.6690   62.2300 C   0  0  0  0  0  0  0  0  0  0  0  0
  129.9830  121.5880   61.3220 C   0  0  0  0  0  0  0  0  0  0  0  0
  130.8620  120.3270   61.4320 C   0  0  0  0  0  0  0  0  0  0  0  0
  130.6630  119.4670   60.4310 F   0  0  0  0  0  0  0  0  0  0  0  0
  132.1510  120.6690   61.4180 F   0  0  0  0  0  0  0  0  0  0  0  0
  130.5980  119.6820   62.5690 F   0  0  0  0  0  0  0  0  0  0  0  0
  129.0510  121.6720   60.2760 C   0  0  0  0  0  0  0  0  0  0  0  0
  128.2410  122.8040   60.1400 C   0  0  0  0  0  0  0  0  0  0  0  0
  127.2370  122.9530   59.0360 C   0  0  0  0  0  0  0  0  0  0  0  0
  126.0670  123.7030   59.2290 C   0  0  0  0  0  0  0  0  0  0  0  0
  125.1320  123.8490   58.2080 C   0  0  0  0  0  0  0  0  0  0  0  0
  125.3570  123.2450   56.9750 C   0  0  0  0  0  0  0  0  0  0  0  0
  126.5100  122.4980   56.7580 C   0  0  0  0  0  0  0  0  0  0  0  0
  127.4420  122.3550   57.7810 C   0  0  0  0  0  0  0  0  0  0  0  0
  128.3440  123.8430   61.0080 N   0  0  0  0  0  0  0  0  0  0  0  0
  129.2190  123.7740   62.0400 C   0  0  0  0  0  0  0  0  0  0  0  0
  129.1980  125.2160   63.0850 S   0  0  0  0  0  0  0  0  0  0  0  0
  130.7030  126.1850   62.7320 C   0  0  0  0  0  0  0  0  0  0  0  0
  131.9600  125.7300   63.4890 C   0  0  0  0  0  0  0  0  0  0  0  0
  132.8920  125.1850   62.8930 O   0  0  0  0  0  0  0  0  0  0  0  0
  131.9390  125.9770   64.8180 N   0  0  0  0  0  0  0  0  0  0  0  0
  132.9310  125.6840   65.7440 C   0  0  0  0  0  0  0  0  0  0  0  0
  132.8320  126.0090   67.0960 C   0  0  0  0  0  0  0  0  0  0  0  0
  134.0020  125.5580   67.6610 C   0  0  0  0  0  0  0  0  0  0  0  0
  134.7670  124.9890   66.6990 O   0  0  0  0  0  0  0  0  0  0  0  0
  134.0770  125.0740   65.4880 N   0  0  0  0  0  0  0  0  0  0  0  0
  128.9571  120.8429   59.5592 H   0  0  0  0  0  0  0  0  0  0  0  0
  125.8858  124.1830   60.2020 H   0  0  0  0  0  0  0  0  0  0  0  0
  124.2191  124.4394   58.3754 H   0  0  0  0  0  0  0  0  0  0  0  0
  124.6190  123.3589   56.1673 H   0  0  0  0  0  0  0  0  0  0  0  0
  126.6843  122.0223   55.7816 H   0  0  0  0  0  0  0  0  0  0  0  0
  128.3533  121.7648   57.6047 H   0  0  0  0  0  0  0  0  0  0  0  0
  130.9095  126.1142   61.6539 H   0  0  0  0  0  0  0  0  0  0  0  0
  130.4947  127.2108   63.0701 H   0  0  0  0  0  0  0  0  0  0  0  0
  131.1170  126.4290   65.1920 H   0  0  0  0  0  0  0  0  0  0  0  0
  131.9977  126.5168   67.6020 H   0  0  0  0  0  0  0  0  0  0  0  0
  134.2730  125.6454   68.7235 H   0  0  0  0  0  0  0  0  0  0  0  0
  1  2  3  0
  2  3  1  0
  3  4  2  0
  4  5  1  0
  5  6  1  0
  5  7  1  0
  5  8  1  0
  4  9  1  0
  9 10  2  0
 10 11  1  0
 11 12  2  0
 12 13  1  0
 13 14  2  0
 14 15  1  0
 15 16  2  0
 10 17  1  0
 17 18  2  0
 18 19  1  0
 19 20  1  0
 20 21  1  0
 21 22  2  0
 21 23  1  0
 23 24  1  0
 24 25  1  0
 25 26  2  0
 26 27  1  0
 27 28  1  0
 18  3  1  0
 28 24  2  0
 16 11  1  0
  9 29  1  0
 12 30  1  0
 13 31  1  0
 14 32  1  0
 15 33  1  0
 16 34  1  0
 20 35  1  0
 20 36  1  0
 23 37  1  0
 25 38  1  0
 26 39  1  0
M  END
>  <Binding energies>  (1) 
[-7.73]

>  <Ligand effiencies>  (1) 
[-0.26655172413793105]

>  <Interactions>  (1) 
["V-B:PRO:540:CB:9857, V-B:PRO:540:N:9856, V-B:TYR:539:CD2:9846, V-B:PRO:540:CA:9855, V-B:PRO:540:C:9853, V-A:PRO:482:CB:4325, V-B:MET:535:CE:9807, V-A:LEU:475:CD1:4257, V-B:ALA:541:CA:9862, V-B:TYR:539:C:9839, V-B:ALA:541:CB:9864, V-A:ARG:545:CD:4923, V-A:ARG:545:CZ:4926, V-A:ARG:545:CB:4921, V-A:HIS:456:CE1:4069, V-A:ARG:545:CG:4922, H-A:TYR:484:OH:4347, H-A:GLY:454:N:4049, H-A:GLU:543:OE1:4909, V-A:GLU:543:CD:4908, V-A:TYR:484:CZ:4346, H-A:ARG:545:NH2:4928, V-A:ILE:455:C:4051, H-A:ARG:545:NE:4924, V-B:TYR:531:CE2:9765, V-B:LEU:363:CD1:8160, H-A:ILE:455:N:4054"]

$$$$
3aj_Grossjean_2025
     RDKit          3D

 39 41  0  0  0  0  0  0  0  0999 V2000
  134.2230  118.6410   60.6720 N   0  0  0  0  0  0  0  0  0  0  0  0
  133.3340  119.3660   60.8230 C   0  0  0  0  0  0  0  0  0  0  0  0
  132.2050  120.2820   61.0140 C   0  0  0  0  0  0  0  0  0  0  0  0
  130.8730  119.8040   60.9940 C   0  0  0  0  0  0  0  0  0  0  0  0
  130.5270  118.3120   60.8170 C   0  0  0  0  0  0  0  0  0  0  0  0
  129.2470  118.0430   61.0830 F   0  0  0  0  0  0  0  0  0  0  0  0
  130.7660  117.9340   59.5620 F   0  0  0  0  0  0  0  0  0  0  0  0
  131.2690  117.5710   61.6410 F   0  0  0  0  0  0  0  0  0  0  0  0
  129.8260  120.7290   61.1340 C   0  0  0  0  0  0  0  0  0  0  0  0
  130.1020  122.0910   61.2850 C   0  0  0  0  0  0  0  0  0  0  0  0
  129.0240  123.1210   61.4290 C   0  0  0  0  0  0  0  0  0  0  0  0
  127.6730  122.7660   61.2980 C   0  0  0  0  0  0  0  0  0  0  0  0
  126.6640  123.7180   61.4340 C   0  0  0  0  0  0  0  0  0  0  0  0
  126.9970  125.0420   61.7030 C   0  0  0  0  0  0  0  0  0  0  0  0
  128.3290  125.4190   61.8380 C   0  0  0  0  0  0  0  0  0  0  0  0
  129.3330  124.4640   61.7030 C   0  0  0  0  0  0  0  0  0  0  0  0
  131.3810  122.5460   61.2960 N   0  0  0  0  0  0  0  0  0  0  0  0
  132.4090  121.6710   61.1870 C   0  0  0  0  0  0  0  0  0  0  0  0
  134.0100  122.4450   61.2450 S   0  0  0  0  0  0  0  0  0  0  0  0
  133.7570  124.2360   61.4930 C   0  0  0  0  0  0  0  0  0  0  0  0
  133.4390  124.6520   62.9370 C   0  0  0  0  0  0  0  0  0  0  0  0
  134.3370  125.0060   63.7040 O   0  0  0  0  0  0  0  0  0  0  0  0
  132.1290  124.5940   63.2650 N   0  0  0  0  0  0  0  0  0  0  0  0
  131.5670  124.9190   64.4920 C   0  0  0  0  0  0  0  0  0  0  0  0
  132.0030  125.7920   65.3750 N   0  0  0  0  0  0  0  0  0  0  0  0
  131.2170  125.8490   66.4320 C   0  0  0  0  0  0  0  0  0  0  0  0
  130.1100  125.0040   66.4210 C   0  0  0  0  0  0  0  0  0  0  0  0
  130.1100  124.0910   64.9420 S   0  0  0  0  0  0  0  0  0  0  0  0
  128.7829  120.3800   61.1248 H   0  0  0  0  0  0  0  0  0  0  0  0
  127.4060  121.7204   61.0847 H   0  0  0  0  0  0  0  0  0  0  0  0
  125.6092  123.4240   61.3291 H   0  0  0  0  0  0  0  0  0  0  0  0
  126.2022  125.7949   61.8095 H   0  0  0  0  0  0  0  0  0  0  0  0
  128.5879  126.4668   62.0504 H   0  0  0  0  0  0  0  0  0  0  0  0
  130.3851  124.7657   61.8126 H   0  0  0  0  0  0  0  0  0  0  0  0
  134.6747  124.7567   61.1819 H   0  0  0  0  0  0  0  0  0  0  0  0
  132.8761  124.5084   60.8931 H   0  0  0  0  0  0  0  0  0  0  0  0
  131.4820  124.2940   62.5510 H   0  0  0  0  0  0  0  0  0  0  0  0
  131.4238  126.5254   67.2745 H   0  0  0  0  0  0  0  0  0  0  0  0
  129.3572  124.9269   67.2194 H   0  0  0  0  0  0  0  0  0  0  0  0
  1  2  3  0
  2  3  1  0
  3  4  2  0
  4  5  1  0
  5  6  1  0
  5  7  1  0
  5  8  1  0
  4  9  1  0
  9 10  2  0
 10 11  1  0
 11 12  2  0
 12 13  1  0
 13 14  2  0
 14 15  1  0
 15 16  2  0
 10 17  1  0
 17 18  2  0
 18 19  1  0
 19 20  1  0
 20 21  1  0
 21 22  2  0
 21 23  1  0
 23 24  1  0
 24 25  2  0
 25 26  1  0
 26 27  2  0
 27 28  1  0
 18  3  1  0
 28 24  1  0
 16 11  1  0
  9 29  1  0
 12 30  1  0
 13 31  1  0
 14 32  1  0
 15 33  1  0
 16 34  1  0
 20 35  1  0
 20 36  1  0
 23 37  1  0
 26 38  1  0
 27 39  1  0
M  END
>  <Binding energies>  (1) 
[-6.68]

>  <Ligand effiencies>  (1) 
[-0.2303448275862069]

>  <Interactions>  (1) 
["V-A:ILE:369:CG2:3236, V-B:PRO:540:N:9856, V-B:TYR:539:CD2:9846, V-B:PRO:540:CA:9855, V-A:PRO:482:CG:4326, V-B:PRO:540:C:9853, V-A:PRO:482:CB:4325, V-A:LEU:475:CD1:4257, V-B:ALA:541:CA:9862, V-B:TYR:539:C:9839, V-B:ALA:541:CB:9864, V-B:GLU:543:CD:9880, V-A:ARG:545:CZ:4926, V-B:GLU:543:CB:9878, H-A:TYR:484:OH:4347, H-A:GLY:454:N:4049, V-B:GLU:543:CG:9879, V-A:ASP:366:CG:3212, H-A:ARG:545:NH1:4927, V-A:TYR:484:CE2:4345, V-A:TYR:484:CZ:4346, H-A:ARG:545:NH2:4928, V-B:TYR:539:CB:9843, V-B:TYR:539:CA:9841, V-B:TYR:539:CG:9844, H-A:HIS:383:NE2:3393, H-A:SER:385:OG:3409, V-A:PRO:482:CD:4327"]

$$$$
3ak_Grossjean_2025
     RDKit          3D

 57 58  0  0  0  0  0  0  0  0999 V2000
  132.9050  125.2080   64.9100 C   0  0  0  0  0  0  0  0  0  0  0  0
  133.9420  124.7450   64.0580 O   0  0  0  0  0  0  0  0  0  0  0  0
  133.4780  123.9100   63.0070 C   0  0  0  0  0  0  0  0  0  0  0  0
  134.2790  124.2160   61.7350 C   0  0  0  0  0  0  0  0  0  0  0  0
  133.6510  123.5780   60.6280 O   0  0  0  0  0  0  0  0  0  0  0  0
  132.5880  124.3080   60.0200 C   0  0  0  0  0  0  0  0  0  0  0  0
  131.9040  123.5570   58.8630 C   0  0  0  0  0  0  0  0  0  0  0  0
  130.4980  123.7390   58.9560 O   0  0  0  0  0  0  0  0  0  0  0  0
  129.8760  124.0650   57.7200 C   0  0  0  0  0  0  0  0  0  0  0  0
  128.5790  123.2550   57.5470 C   0  0  0  0  0  0  0  0  0  0  0  0
  127.6000  123.4810   58.6130 N   0  0  0  0  0  0  0  0  0  0  0  0
  126.3560  123.9700   58.4520 C   0  0  0  0  0  0  0  0  0  0  0  0
  125.8950  124.2710   57.3500 O   0  0  0  0  0  0  0  0  0  0  0  0
  125.4690  124.1640   59.6940 C   0  0  0  0  0  0  0  0  0  0  0  0
  125.8560  123.1180   61.1450 S   0  0  0  0  0  0  0  0  0  0  0  0
  127.5780  123.3370   61.5670 C   0  0  0  0  0  0  0  0  0  0  0  0
  128.3650  122.2440   61.4090 N   0  0  0  0  0  0  0  0  0  0  0  0
  129.6860  122.3100   61.7090 C   0  0  0  0  0  0  0  0  0  0  0  0
  130.4810  121.0550   61.5030 C   0  0  0  0  0  0  0  0  0  0  0  0
  131.8680  121.1100   61.2960 C   0  0  0  0  0  0  0  0  0  0  0  0
  132.6120  119.9480   61.1070 C   0  0  0  0  0  0  0  0  0  0  0  0
  131.9760  118.7110   61.1260 C   0  0  0  0  0  0  0  0  0  0  0  0
  130.6030  118.6280   61.3320 C   0  0  0  0  0  0  0  0  0  0  0  0
  129.8630  119.7920   61.5210 C   0  0  0  0  0  0  0  0  0  0  0  0
  130.2590  123.5010   62.1680 C   0  0  0  0  0  0  0  0  0  0  0  0
  129.4690  124.6470   62.3400 C   0  0  0  0  0  0  0  0  0  0  0  0
  130.1340  125.9400   62.8500 C   0  0  0  0  0  0  0  0  0  0  0  0
  130.0120  126.0250   64.1740 F   0  0  0  0  0  0  0  0  0  0  0  0
  131.4310  125.9420   62.5340 F   0  0  0  0  0  0  0  0  0  0  0  0
  129.5940  127.0430   62.3250 F   0  0  0  0  0  0  0  0  0  0  0  0
  128.0880  124.5690   62.0340 C   0  0  0  0  0  0  0  0  0  0  0  0
  127.2130  125.7350   62.1940 C   0  0  0  0  0  0  0  0  0  0  0  0
  126.5220  126.6550   62.3220 N   0  0  0  0  0  0  0  0  0  0  0  0
  133.2055  125.0738   65.9596 H   0  0  0  0  0  0  0  0  0  0  0  0
  132.7192  126.2746   64.7152 H   0  0  0  0  0  0  0  0  0  0  0  0
  131.9869  124.6343   64.7152 H   0  0  0  0  0  0  0  0  0  0  0  0
  133.6171  122.8550   63.2855 H   0  0  0  0  0  0  0  0  0  0  0  0
  132.4092  124.0982   62.8273 H   0  0  0  0  0  0  0  0  0  0  0  0
  134.3053  125.3029   61.5681 H   0  0  0  0  0  0  0  0  0  0  0  0
  135.3080  123.8430   61.8446 H   0  0  0  0  0  0  0  0  0  0  0  0
  131.8315  124.5248   60.7886 H   0  0  0  0  0  0  0  0  0  0  0  0
  133.0279  125.2220   59.5945 H   0  0  0  0  0  0  0  0  0  0  0  0
  132.2639  123.9543   57.9025 H   0  0  0  0  0  0  0  0  0  0  0  0
  132.1433  122.4851   58.9248 H   0  0  0  0  0  0  0  0  0  0  0  0
  129.6383  125.1389   57.7051 H   0  0  0  0  0  0  0  0  0  0  0  0
  130.5638  123.8208   56.8970 H   0  0  0  0  0  0  0  0  0  0  0  0
  128.1194  123.5350   56.5876 H   0  0  0  0  0  0  0  0  0  0  0  0
  128.8558  122.1910   57.5834 H   0  0  0  0  0  0  0  0  0  0  0  0
  127.8980  123.2390   59.5470 H   0  0  0  0  0  0  0  0  0  0  0  0
  125.5569  125.2150   60.0066 H   0  0  0  0  0  0  0  0  0  0  0  0
  124.4584  123.8638   59.3799 H   0  0  0  0  0  0  0  0  0  0  0  0
  132.3753  122.0860   61.2828 H   0  0  0  0  0  0  0  0  0  0  0  0
  133.6981  120.0081   60.9434 H   0  0  0  0  0  0  0  0  0  0  0  0
  132.5627  117.7925   60.9771 H   0  0  0  0  0  0  0  0  0  0  0  0
  130.1043  117.6476   61.3455 H   0  0  0  0  0  0  0  0  0  0  0  0
  128.7778  119.7226   61.6870 H   0  0  0  0  0  0  0  0  0  0  0  0
  131.3346  123.5388   62.3951 H   0  0  0  0  0  0  0  0  0  0  0  0
  1  2  1  0
  2  3  1  0
  3  4  1  0
  4  5  1  0
  5  6  1  0
  6  7  1  0
  7  8  1  0
  8  9  1  0
  9 10  1  0
 10 11  1  0
 11 12  1  0
 12 13  2  0
 12 14  1  0
 14 15  1  0
 15 16  1  0
 16 17  2  0
 17 18  1  0
 18 19  1  0
 19 20  2  0
 20 21  1  0
 21 22  2  0
 22 23  1  0
 23 24  2  0
 18 25  2  0
 25 26  1  0
 26 27  1  0
 27 28  1  0
 27 29  1  0
 27 30  1  0
 26 31  2  0
 31 32  1  0
 32 33  3  0
 31 16  1  0
 24 19  1  0
  1 34  1  0
  1 35  1  0
  1 36  1  0
  3 37  1  0
  3 38  1  0
  4 39  1  0
  4 40  1  0
  6 41  1  0
  6 42  1  0
  7 43  1  0
  7 44  1  0
  9 45  1  0
  9 46  1  0
 10 47  1  0
 10 48  1  0
 11 49  1  0
 14 50  1  0
 14 51  1  0
 20 52  1  0
 21 53  1  0
 22 54  1  0
 23 55  1  0
 24 56  1  0
 25 57  1  0
M  END
>  <Binding energies>  (1) 
[-6.23]

>  <Ligand effiencies>  (1) 
[-0.18323529411764708]

>  <Interactions>  (1) 
["V-B:PRO:540:CB:9857, V-B:TYR:539:CE2:9848, V-B:TYR:539:CZ:9849, V-A:PRO:482:CG:4326, V-B:PRO:540:C:9853, V-A:PRO:482:CB:4325, V-B:MET:535:CE:9807, V-A:LEU:475:CD1:4257, H-B:ALA:541:N:9863, H-B:TYR:531:OH:9767, V-B:ALA:541:CA:9862, V-B:ALA:541:CB:9864, V-B:GLU:543:CD:9880, V-A:ARG:545:CZ:4926, H-B:ARG:545:NH2:9900, V-A:GLY:454:CA:4048, H-A:GLY:454:N:4049, V-A:ASP:366:CG:3212, H-A:ARG:545:NH1:4927, V-A:ILE:369:CD1:3238, V-A:ASP:366:CB:3211, H-A:ARG:545:NH2:4928"]

$$$$
3bc_Grossjean_2025
     RDKit          3D

 47 49  0  0  0  0  0  0  0  0999 V2000
  129.6320  126.8160   67.9710 C   0  0  0  0  0  0  0  0  0  0  0  0
  130.9670  126.3340   67.8650 O   0  0  0  0  0  0  0  0  0  0  0  0
  131.4530  125.9640   66.6250 C   0  0  0  0  0  0  0  0  0  0  0  0
  132.8330  125.7880   66.5260 C   0  0  0  0  0  0  0  0  0  0  0  0
  133.4150  125.4160   65.3170 C   0  0  0  0  0  0  0  0  0  0  0  0
  132.6210  125.2210   64.1850 C   0  0  0  0  0  0  0  0  0  0  0  0
  133.2970  124.8340   63.0120 N   0  0  0  0  0  0  0  0  0  0  0  0
  133.6300  123.5960   62.5910 C   0  0  0  0  0  0  0  0  0  0  0  0
  133.3460  122.5520   63.1830 O   0  0  0  0  0  0  0  0  0  0  0  0
  134.3820  123.5540   61.2530 C   0  0  0  0  0  0  0  0  0  0  0  0
  133.3630  123.1170   59.8040 S   0  0  0  0  0  0  0  0  0  0  0  0
  132.0660  122.0330   60.3580 C   0  0  0  0  0  0  0  0  0  0  0  0
  130.8220  122.5500   60.2050 N   0  0  0  0  0  0  0  0  0  0  0  0
  129.7370  121.8250   60.5860 C   0  0  0  0  0  0  0  0  0  0  0  0
  128.3980  122.4760   60.4030 C   0  0  0  0  0  0  0  0  0  0  0  0
  127.8870  122.7150   59.1190 C   0  0  0  0  0  0  0  0  0  0  0  0
  126.6440  123.3190   58.9410 C   0  0  0  0  0  0  0  0  0  0  0  0
  125.8960  123.6940   60.0520 C   0  0  0  0  0  0  0  0  0  0  0  0
  126.3810  123.4710   61.3360 C   0  0  0  0  0  0  0  0  0  0  0  0
  127.6240  122.8680   61.5090 C   0  0  0  0  0  0  0  0  0  0  0  0
  129.8830  120.5480   61.1360 C   0  0  0  0  0  0  0  0  0  0  0  0
  131.1590  119.9910   61.2790 C   0  0  0  0  0  0  0  0  0  0  0  0
  131.2710  118.5860   61.8700 C   0  0  0  0  0  0  0  0  0  0  0  0
  132.2880  120.7370   60.8750 C   0  0  0  0  0  0  0  0  0  0  0  0
  133.6280  120.1550   60.9690 C   0  0  0  0  0  0  0  0  0  0  0  0
  134.6870  119.6940   61.0460 N   0  0  0  0  0  0  0  0  0  0  0  0
  131.2310  125.3830   64.2800 C   0  0  0  0  0  0  0  0  0  0  0  0
  130.6530  125.7550   65.4910 C   0  0  0  0  0  0  0  0  0  0  0  0
  129.3607  126.9139   69.0325 H   0  0  0  0  0  0  0  0  0  0  0  0
  129.5568  127.7981   67.4812 H   0  0  0  0  0  0  0  0  0  0  0  0
  128.9468  126.1085   67.4812 H   0  0  0  0  0  0  0  0  0  0  0  0
  133.4673  125.9445   67.4110 H   0  0  0  0  0  0  0  0  0  0  0  0
  134.5041  125.2752   65.2534 H   0  0  0  0  0  0  0  0  0  0  0  0
  133.5040  125.5940   62.3800 H   0  0  0  0  0  0  0  0  0  0  0  0
  134.8173  124.5485   61.0757 H   0  0  0  0  0  0  0  0  0  0  0  0
  135.1338  122.7568   61.3497 H   0  0  0  0  0  0  0  0  0  0  0  0
  128.4769  122.4209   58.2384 H   0  0  0  0  0  0  0  0  0  0  0  0
  126.2564  123.4983   57.9273 H   0  0  0  0  0  0  0  0  0  0  0  0
  124.9141  124.1702   59.9140 H   0  0  0  0  0  0  0  0  0  0  0  0
  125.7853  123.7697   62.2112 H   0  0  0  0  0  0  0  0  0  0  0  0
  128.0060  122.6958   62.5261 H   0  0  0  0  0  0  0  0  0  0  0  0
  128.9960  119.9816   61.4560 H   0  0  0  0  0  0  0  0  0  0  0  0
  131.2660  118.6487   62.9682 H   0  0  0  0  0  0  0  0  0  0  0  0
  130.4185  117.9777   61.5336 H   0  0  0  0  0  0  0  0  0  0  0  0
  132.2091  118.1204   61.5336 H   0  0  0  0  0  0  0  0  0  0  0  0
  130.5968  125.2160   63.3969 H   0  0  0  0  0  0  0  0  0  0  0  0
  129.5629  125.8858   65.5592 H   0  0  0  0  0  0  0  0  0  0  0  0
  1  2  1  0
  2  3  1  0
  3  4  2  0
  4  5  1  0
  5  6  2  0
  6  7  1  0
  7  8  1  0
  8  9  2  0
  8 10  1  0
 10 11  1  0
 11 12  1  0
 12 13  2  0
 13 14  1  0
 14 15  1  0
 15 16  2  0
 16 17  1  0
 17 18  2  0
 18 19  1  0
 19 20  2  0
 14 21  2  0
 21 22  1  0
 22 23  1  0
 22 24  2  0
 24 25  1  0
 25 26  3  0
  6 27  1  0
 27 28  2  0
 28  3  1  0
 24 12  1  0
 20 15  1  0
  1 29  1  0
  1 30  1  0
  1 31  1  0
  4 32  1  0
  5 33  1  0
  7 34  1  0
 10 35  1  0
 10 36  1  0
 16 37  1  0
 17 38  1  0
 18 39  1  0
 19 40  1  0
 20 41  1  0
 21 42  1  0
 23 43  1  0
 23 44  1  0
 23 45  1  0
 27 46  1  0
 28 47  1  0
M  END
>  <Binding energies>  (1) 
[-7.74]

>  <Ligand effiencies>  (1) 
[-0.26689655172413795]

>  <Interactions>  (1) 
["V-B:PRO:540:CB:9857, V-A:ILE:369:CG2:3236, V-B:TYR:539:CE2:9848, V-B:PRO:540:N:9856, V-B:PRO:540:CA:9855, V-A:PRO:482:CG:4326, V-B:PRO:540:C:9853, V-A:PRO:482:CB:4325, V-A:LEU:475:CD1:4257, V-B:TYR:539:C:9839, V-B:ALA:541:CB:9864, V-B:GLU:543:CD:9880, V-A:ARG:545:CD:4923, V-A:ARG:545:CZ:4926, V-A:HIS:456:CE1:4069, V-A:ARG:545:CG:4922, V-A:GLY:454:CA:4048, H-A:GLY:454:N:4049, V-A:ILE:369:CD1:3238, V-A:TYR:484:CZ:4346, H-A:ASP:366:OD2:3214, H-A:SER:385:OG:3409, H-A:ASP:366:OD1:3213"]

$$$$
3bd_Grossjean_2025
     RDKit          3D

 43 45  0  0  0  0  0  0  0  0999 V2000
  126.8570  133.6120   60.7570 C   0  0  0  0  0  0  0  0  0  0  0  0
  127.6240  132.2910   60.7630 C   0  0  0  0  0  0  0  0  0  0  0  0
  129.0010  132.3240   60.5150 C   0  0  0  0  0  0  0  0  0  0  0  0
  129.7380  131.1350   60.5080 C   0  0  0  0  0  0  0  0  0  0  0  0
  131.2160  131.1000   60.2540 C   0  0  0  0  0  0  0  0  0  0  0  0
  132.1290  131.3680   61.2880 C   0  0  0  0  0  0  0  0  0  0  0  0
  133.5020  131.3380   61.0580 C   0  0  0  0  0  0  0  0  0  0  0  0
  133.9830  131.0400   59.7870 C   0  0  0  0  0  0  0  0  0  0  0  0
  133.1000  130.7730   58.7460 C   0  0  0  0  0  0  0  0  0  0  0  0
  131.7290  130.8040   58.9790 C   0  0  0  0  0  0  0  0  0  0  0  0
  129.1360  129.9420   60.7540 N   0  0  0  0  0  0  0  0  0  0  0  0
  127.8020  129.8910   60.9960 C   0  0  0  0  0  0  0  0  0  0  0  0
  127.1310  128.2630   61.2910 S   0  0  0  0  0  0  0  0  0  0  0  0
  126.0780  127.8220   59.8760 C   0  0  0  0  0  0  0  0  0  0  0  0
  126.6810  126.6890   59.0450 C   0  0  0  0  0  0  0  0  0  0  0  0
  127.7950  126.8420   58.5430 O   0  0  0  0  0  0  0  0  0  0  0  0
  125.9120  125.5850   58.9160 N   0  0  0  0  0  0  0  0  0  0  0  0
  126.1970  124.3820   58.2440 C   0  0  0  0  0  0  0  0  0  0  0  0
  125.2060  123.9110   57.3790 C   0  0  0  0  0  0  0  0  0  0  0  0
  125.3940  122.7230   56.6770 C   0  0  0  0  0  0  0  0  0  0  0  0
  126.5720  122.0000   56.8470 C   0  0  0  0  0  0  0  0  0  0  0  0
  127.5620  122.4520   57.7160 C   0  0  0  0  0  0  0  0  0  0  0  0
  127.3770  123.6400   58.4190 C   0  0  0  0  0  0  0  0  0  0  0  0
  126.9970  131.0510   61.0090 C   0  0  0  0  0  0  0  0  0  0  0  0
  125.5570  130.9830   61.2730 C   0  0  0  0  0  0  0  0  0  0  0  0
  124.4200  130.9310   61.4820 N   0  0  0  0  0  0  0  0  0  0  0  0
  126.6708  133.9326   61.7926 H   0  0  0  0  0  0  0  0  0  0  0  0
  127.4506  134.3783   60.2370 H   0  0  0  0  0  0  0  0  0  0  0  0
  125.8972  133.4764   60.2370 H   0  0  0  0  0  0  0  0  0  0  0  0
  129.5034  133.2841   60.3257 H   0  0  0  0  0  0  0  0  0  0  0  0
  131.7534  131.6051   62.2943 H   0  0  0  0  0  0  0  0  0  0  0  0
  134.2038  131.5492   61.8783 H   0  0  0  0  0  0  0  0  0  0  0  0
  135.0675  131.0154   59.6044 H   0  0  0  0  0  0  0  0  0  0  0  0
  133.4844  130.5383   57.7424 H   0  0  0  0  0  0  0  0  0  0  0  0
  131.0348  130.5935   58.1521 H   0  0  0  0  0  0  0  0  0  0  0  0
  125.0944  127.5028   60.2510 H   0  0  0  0  0  0  0  0  0  0  0  0
  125.9889  128.7075   59.2295 H   0  0  0  0  0  0  0  0  0  0  0  0
  124.9830  125.6380   59.3050 H   0  0  0  0  0  0  0  0  0  0  0  0
  124.2737  124.4808   57.2520 H   0  0  0  0  0  0  0  0  0  0  0  0
  124.6155  122.3574   55.9913 H   0  0  0  0  0  0  0  0  0  0  0  0
  126.7219  121.0634   56.2899 H   0  0  0  0  0  0  0  0  0  0  0  0
  128.4876  121.8723   57.8468 H   0  0  0  0  0  0  0  0  0  0  0  0
  128.1542  123.9970   59.1107 H   0  0  0  0  0  0  0  0  0  0  0  0
  1  2  1  0
  2  3  2  0
  3  4  1  0
  4  5  1  0
  5  6  2  0
  6  7  1  0
  7  8  2  0
  8  9  1  0
  9 10  2  0
  4 11  2  0
 11 12  1  0
 12 13  1  0
 13 14  1  0
 14 15  1  0
 15 16  2  0
 15 17  1  0
 17 18  1  0
 18 19  2  0
 19 20  1  0
 20 21  2  0
 21 22  1  0
 22 23  2  0
 12 24  2  0
 24 25  1  0
 25 26  3  0
 24  2  1  0
 10  5  1  0
 23 18  1  0
  1 27  1  0
  1 28  1  0
  1 29  1  0
  3 30  1  0
  6 31  1  0
  7 32  1  0
  8 33  1  0
  9 34  1  0
 10 35  1  0
 14 36  1  0
 14 37  1  0
 17 38  1  0
 19 39  1  0
 20 40  1  0
 21 41  1  0
 22 42  1  0
 23 43  1  0
M  END
>  <Binding energies>  (1) 
[-7.5]

>  <Ligand effiencies>  (1) 
[-0.2777777777777778]

>  <Interactions>  (1) 
["V-B:PRO:540:CB:9857, V-B:PRO:540:N:9856, V-B:PRO:540:CA:9855, V-B:MET:535:CE:9807, H-B:TYR:531:OH:9767, V-B:TYR:539:C:9839, V-A:ASP:366:CG:3212, V-A:ASP:366:CB:3211, V-B:ASP:366:CB:8183, V-A:TYR:539:CE1:4875, V-B:ASP:366:CG:8184, V-A:TYR:539:C:4867, V-A:PRO:540:CA:4883, V-A:TYR:539:CD1:4873, V-B:TYR:539:CA:9841, V-B:PRO:540:CD:9859, V-B:TYR:531:CZ:9766, V-B:TYR:531:CE2:9765, V-A:PRO:540:CB:4885, V-B:LEU:363:CD1:8160, V-A:PRO:540:C:4881, V-A:ASN:362:C:3171, V-A:LEU:363:CD1:3188, V-A:ASN:362:CB:3175, V-A:LEU:363:CA:3184, V-A:LEU:363:CB:3186, H-B:ASP:366:OD1:8185"]

$$$$
3be_Grossjean_2025
     RDKit          3D

 45 47  0  0  0  0  0  0  0  0999 V2000
  134.3620  125.3540   67.2020 C   0  0  0  0  0  0  0  0  0  0  0  0
  133.3830  125.4070   66.0460 C   0  0  0  0  0  0  0  0  0  0  0  0
  132.0400  125.7420   66.2380 C   0  0  0  0  0  0  0  0  0  0  0  0
  131.1960  125.7680   65.1280 C   0  0  0  0  0  0  0  0  0  0  0  0
  131.7090  125.4630   63.8640 C   0  0  0  0  0  0  0  0  0  0  0  0
  133.0650  125.1390   63.7410 C   0  0  0  0  0  0  0  0  0  0  0  0
  133.5180  124.8310   62.4440 N   0  0  0  0  0  0  0  0  0  0  0  0
  133.7150  123.6180   61.8840 C   0  0  0  0  0  0  0  0  0  0  0  0
  133.5250  122.5430   62.4560 O   0  0  0  0  0  0  0  0  0  0  0  0
  134.2110  123.6560   60.4300 C   0  0  0  0  0  0  0  0  0  0  0  0
  133.2350  122.6610   59.2510 S   0  0  0  0  0  0  0  0  0  0  0  0
  131.9120  121.8810   60.1500 C   0  0  0  0  0  0  0  0  0  0  0  0
  130.8450  122.6910   60.3590 N   0  0  0  0  0  0  0  0  0  0  0  0
  129.7600  122.2220   61.0300 C   0  0  0  0  0  0  0  0  0  0  0  0
  128.6280  123.1860   61.2310 C   0  0  0  0  0  0  0  0  0  0  0  0
  127.3080  122.8170   60.9260 C   0  0  0  0  0  0  0  0  0  0  0  0
  126.2540  123.7070   61.1080 C   0  0  0  0  0  0  0  0  0  0  0  0
  126.5050  124.9840   61.5970 C   0  0  0  0  0  0  0  0  0  0  0  0
  127.8040  125.3760   61.9050 C   0  0  0  0  0  0  0  0  0  0  0  0
  128.8560  124.4830   61.7210 C   0  0  0  0  0  0  0  0  0  0  0  0
  129.7280  120.9100   61.5150 C   0  0  0  0  0  0  0  0  0  0  0  0
  130.8100  120.0540   61.2870 C   0  0  0  0  0  0  0  0  0  0  0  0
  130.7230  118.6250   61.8190 C   0  0  0  0  0  0  0  0  0  0  0  0
  131.9330  120.5340   60.5780 C   0  0  0  0  0  0  0  0  0  0  0  0
  133.0530  119.6390   60.2810 C   0  0  0  0  0  0  0  0  0  0  0  0
  133.9370  118.9290   60.0470 N   0  0  0  0  0  0  0  0  0  0  0  0
  133.8950  125.1090   64.8250 N   0  0  0  0  0  0  0  0  0  0  0  0
  133.8090  125.3839   68.1524 H   0  0  0  0  0  0  0  0  0  0  0  0
  134.9452  124.4230   67.1462 H   0  0  0  0  0  0  0  0  0  0  0  0
  135.0423  126.2166   67.1462 H   0  0  0  0  0  0  0  0  0  0  0  0
  131.6573  125.9797   67.2415 H   0  0  0  0  0  0  0  0  0  0  0  0
  130.1335  126.0269   65.2465 H   0  0  0  0  0  0  0  0  0  0  0  0
  131.0563  125.4774   62.9787 H   0  0  0  0  0  0  0  0  0  0  0  0
  133.7460  125.6340   61.8770 H   0  0  0  0  0  0  0  0  0  0  0  0
  134.1912  124.7022   60.0907 H   0  0  0  0  0  0  0  0  0  0  0  0
  135.2194  123.2167   60.4394 H   0  0  0  0  0  0  0  0  0  0  0  0
  127.1039  121.8085   60.5371 H   0  0  0  0  0  0  0  0  0  0  0  0
  125.2255  123.4012   60.8658 H   0  0  0  0  0  0  0  0  0  0  0  0
  125.6723  125.6881   61.7412 H   0  0  0  0  0  0  0  0  0  0  0  0
  127.9989  126.3870   62.2922 H   0  0  0  0  0  0  0  0  0  0  0  0
  129.8819  124.7977   61.9630 H   0  0  0  0  0  0  0  0  0  0  0  0
  128.8519  120.5519   62.0755 H   0  0  0  0  0  0  0  0  0  0  0  0
  130.7241  118.6425   62.9189 H   0  0  0  0  0  0  0  0  0  0  0  0
  129.7947  118.1562   61.4607 H   0  0  0  0  0  0  0  0  0  0  0  0
  131.5876  118.0471   61.4607 H   0  0  0  0  0  0  0  0  0  0  0  0
  1  2  1  0
  2  3  2  0
  3  4  1  0
  4  5  2  0
  5  6  1  0
  6  7  1  0
  7  8  1  0
  8  9  2  0
  8 10  1  0
 10 11  1  0
 11 12  1  0
 12 13  2  0
 13 14  1  0
 14 15  1  0
 15 16  2  0
 16 17  1  0
 17 18  2  0
 18 19  1  0
 19 20  2  0
 14 21  2  0
 21 22  1  0
 22 23  1  0
 22 24  2  0
 24 25  1  0
 25 26  3  0
  6 27  2  0
 27  2  1  0
 24 12  1  0
 20 15  1  0
  1 28  1  0
  1 29  1  0
  1 30  1  0
  3 31  1  0
  4 32  1  0
  5 33  1  0
  7 34  1  0
 10 35  1  0
 10 36  1  0
 16 37  1  0
 17 38  1  0
 18 39  1  0
 19 40  1  0
 20 41  1  0
 21 42  1  0
 23 43  1  0
 23 44  1  0
 23 45  1  0
M  END
>  <Binding energies>  (1) 
[-8.39]

>  <Ligand effiencies>  (1) 
[-0.29964285714285716]

>  <Interactions>  (1) 
["V-B:PRO:540:CB:9857, V-A:ILE:369:CG2:3236, V-B:TYR:539:CE2:9848, V-B:TYR:539:CD2:9846, V-B:PRO:540:CA:9855, V-A:PRO:482:CG:4326, V-B:PRO:540:C:9853, V-A:PRO:482:CB:4325, V-A:LEU:475:CD1:4257, V-B:ALA:541:CA:9862, V-B:ALA:541:CB:9864, V-B:GLU:543:CD:9880, V-A:ARG:545:CD:4923, V-A:ARG:545:CZ:4926, V-A:HIS:456:CE1:4069, V-A:ARG:545:CG:4922, H-A:TYR:484:OH:4347, H-A:GLY:454:N:4049, V-A:ASP:366:CG:3212, H-A:ARG:545:NH1:4927, V-A:ILE:369:CD1:3238, V-A:ASP:366:CA:3209, V-A:TYR:484:CZ:4346, V-A:ILE:369:CB:3235, H-A:ARG:545:NH2:4928, V-A:ILE:455:C:4051, H-A:ARG:545:NE:4924, H-A:ASP:366:OD2:3214, H-A:HIS:383:NE2:3393, H-A:SER:385:OG:3409, H-A:ASP:366:OD1:3213"]

$$$$
3bf_Grossjean_2025
     RDKit          3D

 42 44  0  0  0  0  0  0  0  0999 V2000
  129.7810  123.0070   64.5900 C   0  0  0  0  0  0  0  0  0  0  0  0
  130.1340  123.2450   63.1230 C   0  0  0  0  0  0  0  0  0  0  0  0
  129.1540  122.9860   62.1590 C   0  0  0  0  0  0  0  0  0  0  0  0
  129.4300  123.2050   60.8050 C   0  0  0  0  0  0  0  0  0  0  0  0
  128.4160  122.9680   59.7260 C   0  0  0  0  0  0  0  0  0  0  0  0
  128.7890  122.3680   58.5130 C   0  0  0  0  0  0  0  0  0  0  0  0
  127.8540  122.1450   57.5060 C   0  0  0  0  0  0  0  0  0  0  0  0
  126.5290  122.5210   57.6990 C   0  0  0  0  0  0  0  0  0  0  0  0
  126.1340  123.1190   58.8910 C   0  0  0  0  0  0  0  0  0  0  0  0
  127.0730  123.3410   59.8960 C   0  0  0  0  0  0  0  0  0  0  0  0
  130.6440  123.6690   60.4070 N   0  0  0  0  0  0  0  0  0  0  0  0
  131.6130  123.9010   61.3270 C   0  0  0  0  0  0  0  0  0  0  0  0
  133.1350  124.4970   60.6240 S   0  0  0  0  0  0  0  0  0  0  0  0
  134.4790  123.3820   61.1540 C   0  0  0  0  0  0  0  0  0  0  0  0
  134.0540  121.9290   61.4180 C   0  0  0  0  0  0  0  0  0  0  0  0
  134.6970  121.2170   62.1920 O   0  0  0  0  0  0  0  0  0  0  0  0
  132.9360  121.5420   60.7670 N   0  0  0  0  0  0  0  0  0  0  0  0
  132.2940  120.2900   60.7820 C   0  0  0  0  0  0  0  0  0  0  0  0
  130.9730  120.2550   61.2430 C   0  0  0  0  0  0  0  0  0  0  0  0
  130.2780  119.0440   61.2690 C   0  0  0  0  0  0  0  0  0  0  0  0
  130.9270  117.8930   60.8240 C   0  0  0  0  0  0  0  0  0  0  0  0
  132.2030  117.8990   60.3620 N   0  0  0  0  0  0  0  0  0  0  0  0
  132.8670  119.0840   60.3430 C   0  0  0  0  0  0  0  0  0  0  0  0
  131.3980  123.7200   62.7120 C   0  0  0  0  0  0  0  0  0  0  0  0
  132.4220  124.0450   63.7080 C   0  0  0  0  0  0  0  0  0  0  0  0
  133.2300  124.3010   64.4970 N   0  0  0  0  0  0  0  0  0  0  0  0
  130.5221  123.5067   65.2312 H   0  0  0  0  0  0  0  0  0  0  0  0
  128.7813  123.4162   64.7976 H   0  0  0  0  0  0  0  0  0  0  0  0
  129.7854  121.9268   64.7976 H   0  0  0  0  0  0  0  0  0  0  0  0
  128.1666  122.6102   62.4654 H   0  0  0  0  0  0  0  0  0  0  0  0
  129.8360  122.0695   58.3558 H   0  0  0  0  0  0  0  0  0  0  0  0
  128.1620  121.6732   56.5613 H   0  0  0  0  0  0  0  0  0  0  0  0
  125.7892  122.3444   56.9044 H   0  0  0  0  0  0  0  0  0  0  0  0
  125.0851  123.4153   59.0395 H   0  0  0  0  0  0  0  0  0  0  0  0
  126.7575  123.8156   60.8369 H   0  0  0  0  0  0  0  0  0  0  0  0
  135.2466  123.3748   60.3661 H   0  0  0  0  0  0  0  0  0  0  0  0
  134.8419  123.7747   62.1153 H   0  0  0  0  0  0  0  0  0  0  0  0
  132.4600  122.2510   60.2280 H   0  0  0  0  0  0  0  0  0  0  0  0
  130.4834  121.1791   61.5840 H   0  0  0  0  0  0  0  0  0  0  0  0
  129.2408  118.9991   61.6327 H   0  0  0  0  0  0  0  0  0  0  0  0
  130.3809  116.9384   60.8485 H   0  0  0  0  0  0  0  0  0  0  0  0
  133.9005  119.1004   59.9668 H   0  0  0  0  0  0  0  0  0  0  0  0
  1  2  1  0
  2  3  2  0
  3  4  1  0
  4  5  1  0
  5  6  2  0
  6  7  1  0
  7  8  2  0
  8  9  1  0
  9 10  2  0
  4 11  2  0
 11 12  1  0
 12 13  1  0
 13 14  1  0
 14 15  1  0
 15 16  2  0
 15 17  1  0
 17 18  1  0
 18 19  2  0
 19 20  1  0
 20 21  2  0
 21 22  1  0
 22 23  2  0
 12 24  2  0
 24 25  1  0
 25 26  3  0
 24  2  1  0
 10  5  1  0
 23 18  1  0
  1 27  1  0
  1 28  1  0
  1 29  1  0
  3 30  1  0
  6 31  1  0
  7 32  1  0
  8 33  1  0
  9 34  1  0
 10 35  1  0
 14 36  1  0
 14 37  1  0
 17 38  1  0
 19 39  1  0
 20 40  1  0
 21 41  1  0
 23 42  1  0
M  END
>  <Binding energies>  (1) 
[-7.73]

>  <Ligand effiencies>  (1) 
[-0.2862962962962963]

>  <Interactions>  (1) 
["V-B:PRO:540:CB:9857, V-A:ILE:369:CG2:3236, V-B:TYR:539:CE2:9848, V-B:PRO:540:N:9856, V-B:TYR:539:CZ:9849, V-B:TYR:539:CD2:9846, V-B:PRO:540:CA:9855, V-A:PRO:482:CG:4326, V-A:PRO:482:CB:4325, V-B:MET:535:CE:9807, V-A:LEU:475:CD1:4257, V-B:TYR:539:C:9839, V-B:ALA:541:CB:9864, V-B:GLU:543:CD:9880, H-A:TYR:484:OH:4347, H-A:GLY:454:N:4049, V-B:GLU:543:CG:9879, V-A:ILE:369:CD1:3238, V-A:TYR:484:CE2:4345, V-B:TYR:539:CA:9841, V-B:PRO:540:CD:9859, V-B:TYR:539:CG:9844, H-A:HIS:383:NE2:3393, H-A:SER:385:OG:3409"]

$$$$
3bg_Grossjean_2025
     RDKit          3D

 46 48  0  0  0  0  0  0  0  0999 V2000
  135.1810  124.1930   61.6890 C   0  0  0  0  0  0  0  0  0  0  0  0
  133.6790  124.3030   61.9430 C   0  0  0  0  0  0  0  0  0  0  0  0
  133.2490  124.6260   63.2330 C   0  0  0  0  0  0  0  0  0  0  0  0
  131.8800  124.7450   63.5090 C   0  0  0  0  0  0  0  0  0  0  0  0
  131.3510  125.1000   64.8710 C   0  0  0  0  0  0  0  0  0  0  0  0
  130.0560  124.7250   65.2660 C   0  0  0  0  0  0  0  0  0  0  0  0
  129.5700  125.0360   66.5320 C   0  0  0  0  0  0  0  0  0  0  0  0
  130.3730  125.7350   67.4280 C   0  0  0  0  0  0  0  0  0  0  0  0
  131.6530  126.1300   67.0600 C   0  0  0  0  0  0  0  0  0  0  0  0
  132.1350  125.8180   65.7920 C   0  0  0  0  0  0  0  0  0  0  0  0
  130.9590  124.5650   62.5240 N   0  0  0  0  0  0  0  0  0  0  0  0
  131.3600  124.2540   61.2640 C   0  0  0  0  0  0  0  0  0  0  0  0
  130.0550  124.0790   60.0580 S   0  0  0  0  0  0  0  0  0  0  0  0
  128.6720  123.1840   60.8380 C   0  0  0  0  0  0  0  0  0  0  0  0
  129.1600  121.9910   61.6650 C   0  0  0  0  0  0  0  0  0  0  0  0
  129.2800  122.0990   62.8850 O   0  0  0  0  0  0  0  0  0  0  0  0
  129.4580  120.8720   60.9820 N   0  0  0  0  0  0  0  0  0  0  0  0
  130.1070  119.6840   61.5390 C   0  0  0  0  0  0  0  0  0  0  0  0
  131.6220  119.7410   61.3830 C   0  0  0  0  0  0  0  0  0  0  0  0
  132.2980  118.7060   60.7280 C   0  0  0  0  0  0  0  0  0  0  0  0
  133.6820  118.7530   60.5940 C   0  0  0  0  0  0  0  0  0  0  0  0
  134.3880  119.8420   61.1040 C   0  0  0  0  0  0  0  0  0  0  0  0
  133.7200  120.8860   61.7390 C   0  0  0  0  0  0  0  0  0  0  0  0
  132.3340  120.8390   61.8740 C   0  0  0  0  0  0  0  0  0  0  0  0
  132.7210  124.1030   60.9260 C   0  0  0  0  0  0  0  0  0  0  0  0
  133.1420  123.7710   59.5630 C   0  0  0  0  0  0  0  0  0  0  0  0
  133.4750  123.5090   58.4860 N   0  0  0  0  0  0  0  0  0  0  0  0
  135.7136  124.1540   62.6507 H   0  0  0  0  0  0  0  0  0  0  0  0
  135.3900  123.2771   61.1167 H   0  0  0  0  0  0  0  0  0  0  0  0
  135.5212  125.0686   61.1167 H   0  0  0  0  0  0  0  0  0  0  0  0
  133.9864  124.7871   64.0332 H   0  0  0  0  0  0  0  0  0  0  0  0
  129.4145  124.1754   64.5614 H   0  0  0  0  0  0  0  0  0  0  0  0
  128.5544  124.7303   66.8237 H   0  0  0  0  0  0  0  0  0  0  0  0
  129.9927  125.9758   68.4317 H   0  0  0  0  0  0  0  0  0  0  0  0
  132.2835  126.6875   67.7683 H   0  0  0  0  0  0  0  0  0  0  0  0
  133.1473  126.1387   65.5050 H   0  0  0  0  0  0  0  0  0  0  0  0
  128.1275  123.8755   61.4978 H   0  0  0  0  0  0  0  0  0  0  0  0
  128.0188  122.8019   60.0397 H   0  0  0  0  0  0  0  0  0  0  0  0
  129.3330  120.8770   59.9810 H   0  0  0  0  0  0  0  0  0  0  0  0
  129.8617  119.6129   62.6089 H   0  0  0  0  0  0  0  0  0  0  0  0
  129.7396  118.8046   60.9898 H   0  0  0  0  0  0  0  0  0  0  0  0
  131.7348  117.8544   60.3186 H   0  0  0  0  0  0  0  0  0  0  0  0
  134.2166  117.9353   60.0884 H   0  0  0  0  0  0  0  0  0  0  0  0
  135.4829  119.8767   61.0038 H   0  0  0  0  0  0  0  0  0  0  0  0
  134.2843  121.7443   62.1324 H   0  0  0  0  0  0  0  0  0  0  0  0
  131.8006  121.6653   62.3666 H   0  0  0  0  0  0  0  0  0  0  0  0
  1  2  1  0
  2  3  2  0
  3  4  1  0
  4  5  1  0
  5  6  2  0
  6  7  1  0
  7  8  2  0
  8  9  1  0
  9 10  2  0
  4 11  2  0
 11 12  1  0
 12 13  1  0
 13 14  1  0
 14 15  1  0
 15 16  2  0
 15 17  1  0
 17 18  1  0
 18 19  1  0
 19 20  2  0
 20 21  1  0
 21 22  2  0
 22 23  1  0
 23 24  2  0
 12 25  2  0
 25 26  1  0
 26 27  3  0
 25  2  1  0
 10  5  1  0
 24 19  1  0
  1 28  1  0
  1 29  1  0
  1 30  1  0
  3 31  1  0
  6 32  1  0
  7 33  1  0
  8 34  1  0
  9 35  1  0
 10 36  1  0
 14 37  1  0
 14 38  1  0
 17 39  1  0
 18 40  1  0
 18 41  1  0
 20 42  1  0
 21 43  1  0
 22 44  1  0
 23 45  1  0
 24 46  1  0
M  END
>  <Binding energies>  (1) 
[-7.55]

>  <Ligand effiencies>  (1) 
[-0.26964285714285713]

>  <Interactions>  (1) 
["V-A:ILE:369:CG2:3236, V-B:PRO:540:CA:9855, V-B:PRO:540:C:9853, V-A:LEU:475:CD1:4257, H-B:ALA:541:N:9863, V-A:SER:385:CB:3408, V-B:ALA:541:CA:9862, V-A:SER:385:CA:3406, V-A:SER:385:C:3404, V-B:TYR:539:C:9839, V-B:ALA:541:CB:9864, V-B:GLU:543:CD:9880, V-A:ARG:545:CZ:4926, V-A:GLY:453:CA:4043, V-B:GLU:543:CB:9878, V-A:GLY:453:C:4041, V-A:HIS:456:CE1:4069, V-B:GLU:543:CG:9879, V-A:ASP:366:CG:3212, V-A:ILE:369:CD1:3238, V-A:TYR:484:CE2:4345, V-A:ASP:366:CB:3211, V-A:ASP:366:CA:3209, V-A:TYR:484:CZ:4346, V-A:HIS:383:CD2:3391, H-B:TYR:539:O:9840, H-B:TYR:539:OH:9850"]

$$$$
3bk_Grossjean_2025
     RDKit          3D

 57 58  0  0  0  0  0  0  0  0999 V2000
  133.0990  118.9700   60.4620 C   0  0  0  0  0  0  0  0  0  0  0  0
  132.1190  117.9680   60.6900 O   0  0  0  0  0  0  0  0  0  0  0  0
  130.8030  118.4860   60.8270 C   0  0  0  0  0  0  0  0  0  0  0  0
  130.8690  119.9490   61.2850 C   0  0  0  0  0  0  0  0  0  0  0  0
  129.5740  120.5280   61.2020 O   0  0  0  0  0  0  0  0  0  0  0  0
  129.5170  121.6950   60.3920 C   0  0  0  0  0  0  0  0  0  0  0  0
  128.5710  122.7150   61.0390 C   0  0  0  0  0  0  0  0  0  0  0  0
  128.5850  123.9170   60.2820 O   0  0  0  0  0  0  0  0  0  0  0  0
  128.3170  125.0840   61.0500 C   0  0  0  0  0  0  0  0  0  0  0  0
  127.1330  124.8160   61.9900 C   0  0  0  0  0  0  0  0  0  0  0  0
  125.8860  124.5770   61.2610 N   0  0  0  0  0  0  0  0  0  0  0  0
  125.2140  123.4140   61.2240 C   0  0  0  0  0  0  0  0  0  0  0  0
  125.5690  122.4000   61.8260 O   0  0  0  0  0  0  0  0  0  0  0  0
  123.9260  123.3960   60.3980 C   0  0  0  0  0  0  0  0  0  0  0  0
  124.2630  123.4420   58.6090 S   0  0  0  0  0  0  0  0  0  0  0  0
  125.6200  124.5610   58.3020 C   0  0  0  0  0  0  0  0  0  0  0  0
  125.4240  125.8490   58.6790 N   0  0  0  0  0  0  0  0  0  0  0  0
  126.4020  126.7730   58.4820 C   0  0  0  0  0  0  0  0  0  0  0  0
  126.1110  128.1670   58.9470 C   0  0  0  0  0  0  0  0  0  0  0  0
  125.3680  129.0510   58.1470 C   0  0  0  0  0  0  0  0  0  0  0  0
  125.1000  130.3500   58.5720 C   0  0  0  0  0  0  0  0  0  0  0  0
  125.5710  130.7840   59.8060 C   0  0  0  0  0  0  0  0  0  0  0  0
  126.3060  129.9270   60.6200 C   0  0  0  0  0  0  0  0  0  0  0  0
  126.5710  128.6290   60.1920 C   0  0  0  0  0  0  0  0  0  0  0  0
  127.6200  126.4120   57.8950 C   0  0  0  0  0  0  0  0  0  0  0  0
  127.8390  125.0880   57.4990 C   0  0  0  0  0  0  0  0  0  0  0  0
  129.1840  124.7380   56.8630 C   0  0  0  0  0  0  0  0  0  0  0  0
  126.8230  124.1310   57.7010 C   0  0  0  0  0  0  0  0  0  0  0  0
  127.0250  122.7360   57.2980 C   0  0  0  0  0  0  0  0  0  0  0  0
  127.1850  121.6350   56.9790 N   0  0  0  0  0  0  0  0  0  0  0  0
  133.4685  119.3478   61.4268 H   0  0  0  0  0  0  0  0  0  0  0  0
  133.9359  118.5412   59.8913 H   0  0  0  0  0  0  0  0  0  0  0  0
  132.6517  119.7972   59.8913 H   0  0  0  0  0  0  0  0  0  0  0  0
  130.2848  118.4290   59.8584 H   0  0  0  0  0  0  0  0  0  0  0  0
  130.2542  117.8943   61.5745 H   0  0  0  0  0  0  0  0  0  0  0  0
  131.2245  119.9924   62.3251 H   0  0  0  0  0  0  0  0  0  0  0  0
  131.5628  120.5058   60.6380 H   0  0  0  0  0  0  0  0  0  0  0  0
  130.5231  122.1310   60.3042 H   0  0  0  0  0  0  0  0  0  0  0  0
  129.1456  121.4311   59.3908 H   0  0  0  0  0  0  0  0  0  0  0  0
  127.5499  122.3065   61.0605 H   0  0  0  0  0  0  0  0  0  0  0  0
  128.9028  122.9238   62.0668 H   0  0  0  0  0  0  0  0  0  0  0  0
  129.2055  125.3443   61.6441 H   0  0  0  0  0  0  0  0  0  0  0  0
  128.0697  125.9179   60.3766 H   0  0  0  0  0  0  0  0  0  0  0  0
  127.3604  123.9302   62.6013 H   0  0  0  0  0  0  0  0  0  0  0  0
  126.9909  125.7103   62.6145 H   0  0  0  0  0  0  0  0  0  0  0  0
  125.4920  125.3770   60.7870 H   0  0  0  0  0  0  0  0  0  0  0  0
  123.3675  122.4774   60.6308 H   0  0  0  0  0  0  0  0  0  0  0  0
  123.3432  124.2921   60.6574 H   0  0  0  0  0  0  0  0  0  0  0  0
  124.9922  128.7122   57.1703 H   0  0  0  0  0  0  0  0  0  0  0  0
  124.5176  131.0304   57.9334 H   0  0  0  0  0  0  0  0  0  0  0  0
  125.3616  131.8106   60.1410 H   0  0  0  0  0  0  0  0  0  0  0  0
  126.6756  130.2735   61.5964 H   0  0  0  0  0  0  0  0  0  0  0  0
  127.1501  127.9538   60.8391 H   0  0  0  0  0  0  0  0  0  0  0  0
  128.4045  127.1684   57.7451 H   0  0  0  0  0  0  0  0  0  0  0  0
  129.9243  124.5454   57.6535 H   0  0  0  0  0  0  0  0  0  0  0  0
  129.0717  123.8392   56.2389 H   0  0  0  0  0  0  0  0  0  0  0  0
  129.5240  125.5776   56.2389 H   0  0  0  0  0  0  0  0  0  0  0  0
  1  2  1  0
  2  3  1  0
  3  4  1  0
  4  5  1  0
  5  6  1  0
  6  7  1  0
  7  8  1  0
  8  9  1  0
  9 10  1  0
 10 11  1  0
 11 12  1  0
 12 13  2  0
 12 14  1  0
 14 15  1  0
 15 16  1  0
 16 17  2  0
 17 18  1  0
 18 19  1  0
 19 20  2  0
 20 21  1  0
 21 22  2  0
 22 23  1  0
 23 24  2  0
 18 25  2  0
 25 26  1  0
 26 27  1  0
 26 28  2  0
 28 29  1  0
 29 30  3  0
 28 16  1  0
 24 19  1  0
  1 31  1  0
  1 32  1  0
  1 33  1  0
  3 34  1  0
  3 35  1  0
  4 36  1  0
  4 37  1  0
  6 38  1  0
  6 39  1  0
  7 40  1  0
  7 41  1  0
  9 42  1  0
  9 43  1  0
 10 44  1  0
 10 45  1  0
 11 46  1  0
 14 47  1  0
 14 48  1  0
 20 49  1  0
 21 50  1  0
 22 51  1  0
 23 52  1  0
 24 53  1  0
 25 54  1  0
 27 55  1  0
 27 56  1  0
 27 57  1  0
M  END
>  <Binding energies>  (1) 
[-6.5]

>  <Ligand effiencies>  (1) 
[-0.20967741935483872]

>  <Interactions>  (1) 
["V-B:PRO:540:CB:9857, V-A:ILE:369:CG2:3236, V-B:PRO:540:N:9856, V-B:TYR:539:CZ:9849, V-B:TYR:539:CD2:9846, V-B:PRO:540:CA:9855, V-A:PRO:482:CG:4326, V-B:MET:535:CE:9807, H-B:TYR:539:N:9842, V-A:LEU:475:CD1:4257, H-B:ALA:541:N:9863, H-B:TYR:531:OH:9767, V-B:TYR:539:C:9839, V-B:GLU:543:CD:9880, V-B:ASP:366:CB:8183, V-A:TYR:539:CE1:4875, V-B:ASP:366:CG:8184, V-B:LEU:363:CA:8156, V-B:ASN:362:C:8143, V-B:ASN:362:CB:8147, V-B:LEU:363:CB:8158, H-B:GLU:543:OE1:9881, H-B:ASP:366:OD1:8185, H-A:HIS:383:NE2:3393, H-A:SER:385:OG:3409"]

$$$$
3ca_Grossjean_2025
     RDKit          3D

 52 54  0  0  0  0  0  0  0  0999 V2000
  126.7340  121.9830   56.6450 C   0  0  0  0  0  0  0  0  0  0  0  0
  125.4750  122.7840   56.3030 C   0  0  0  0  0  0  0  0  0  0  0  0
  125.5070  124.0300   56.9890 O   0  0  0  0  0  0  0  0  0  0  0  0
  125.2800  124.1020   58.3250 C   0  0  0  0  0  0  0  0  0  0  0  0
  124.1550  124.2310   58.8180 O   0  0  0  0  0  0  0  0  0  0  0  0
  126.5330  124.0020   59.1460 C   0  0  0  0  0  0  0  0  0  0  0  0
  127.7560  124.3790   58.5770 C   0  0  0  0  0  0  0  0  0  0  0  0
  128.9350  124.2970   59.3130 C   0  0  0  0  0  0  0  0  0  0  0  0
  128.9170  123.8310   60.6280 C   0  0  0  0  0  0  0  0  0  0  0  0
  130.1640  123.7890   61.2810 N   0  0  0  0  0  0  0  0  0  0  0  0
  130.8080  122.7440   61.8440 C   0  0  0  0  0  0  0  0  0  0  0  0
  130.4000  121.5830   61.8640 O   0  0  0  0  0  0  0  0  0  0  0  0
  132.1640  123.0750   62.4760 C   0  0  0  0  0  0  0  0  0  0  0  0
  132.4460  124.8650   62.6760 S   0  0  0  0  0  0  0  0  0  0  0  0
  132.5960  125.2670   64.4120 C   0  0  0  0  0  0  0  0  0  0  0  0
  133.8470  125.1750   64.9290 N   0  0  0  0  0  0  0  0  0  0  0  0
  134.0390  125.4830   66.2300 C   0  0  0  0  0  0  0  0  0  0  0  0
  135.4670  125.3740   66.7290 C   0  0  0  0  0  0  0  0  0  0  0  0
  132.9990  125.8780   67.0680 C   0  0  0  0  0  0  0  0  0  0  0  0
  131.6960  125.9630   66.5620 C   0  0  0  0  0  0  0  0  0  0  0  0
  130.6100  126.3780   67.5010 C   0  0  0  0  0  0  0  0  0  0  0  0
  129.5800  125.4860   67.8220 C   0  0  0  0  0  0  0  0  0  0  0  0
  128.5580  125.8660   68.6880 C   0  0  0  0  0  0  0  0  0  0  0  0
  128.5620  127.1470   69.2360 C   0  0  0  0  0  0  0  0  0  0  0  0
  129.5760  128.0490   68.9230 C   0  0  0  0  0  0  0  0  0  0  0  0
  130.5950  127.6640   68.0550 C   0  0  0  0  0  0  0  0  0  0  0  0
  131.4830  125.6580   65.1930 C   0  0  0  0  0  0  0  0  0  0  0  0
  130.1500  125.7790   64.5950 C   0  0  0  0  0  0  0  0  0  0  0  0
  129.0970  125.8740   64.1230 N   0  0  0  0  0  0  0  0  0  0  0  0
  127.6950  123.4580   61.2090 C   0  0  0  0  0  0  0  0  0  0  0  0
  126.5170  123.5420   60.4720 C   0  0  0  0  0  0  0  0  0  0  0  0
  126.8401  121.9155   57.7378 H   0  0  0  0  0  0  0  0  0  0  0  0
  126.6512  120.9712   56.2215 H   0  0  0  0  0  0  0  0  0  0  0  0
  127.6154  122.4867   56.2215 H   0  0  0  0  0  0  0  0  0  0  0  0
  125.4373  122.9631   55.2183 H   0  0  0  0  0  0  0  0  0  0  0  0
  124.5839  122.2175   56.6113 H   0  0  0  0  0  0  0  0  0  0  0  0
  127.7853  124.7431   57.5394 H   0  0  0  0  0  0  0  0  0  0  0  0
  129.8873  124.6017   58.8545 H   0  0  0  0  0  0  0  0  0  0  0  0
  130.6600  124.6680   61.2800 H   0  0  0  0  0  0  0  0  0  0  0  0
  132.2127  122.6006   63.4672 H   0  0  0  0  0  0  0  0  0  0  0  0
  132.9421  122.6955   61.7973 H   0  0  0  0  0  0  0  0  0  0  0  0
  135.4720  125.3736   67.8290 H   0  0  0  0  0  0  0  0  0  0  0  0
  135.9140  124.4391   66.3600 H   0  0  0  0  0  0  0  0  0  0  0  0
  136.0507  126.2302   66.3600 H   0  0  0  0  0  0  0  0  0  0  0  0
  133.2000  126.1219   68.1216 H   0  0  0  0  0  0  0  0  0  0  0  0
  129.5780  124.4760   67.3863 H   0  0  0  0  0  0  0  0  0  0  0  0
  127.7528  125.1595   68.9378 H   0  0  0  0  0  0  0  0  0  0  0  0
  127.7569  127.4487   69.9221 H   0  0  0  0  0  0  0  0  0  0  0  0
  129.5721  129.0591   69.3586 H   0  0  0  0  0  0  0  0  0  0  0  0
  131.3946  128.3760   67.8026 H   0  0  0  0  0  0  0  0  0  0  0  0
  127.6681  123.0987   62.2483 H   0  0  0  0  0  0  0  0  0  0  0  0
  125.5638  123.2448   60.9336 H   0  0  0  0  0  0  0  0  0  0  0  0
  1  2  1  0
  2  3  1  0
  3  4  1  0
  4  5  2  0
  4  6  1  0
  6  7  2  0
  7  8  1  0
  8  9  2  0
  9 10  1  0
 10 11  1  0
 11 12  2  0
 11 13  1  0
 13 14  1  0
 14 15  1  0
 15 16  2  0
 16 17  1  0
 17 18  1  0
 17 19  2  0
 19 20  1  0
 20 21  1  0
 21 22  2  0
 22 23  1  0
 23 24  2  0
 24 25  1  0
 25 26  2  0
 20 27  2  0
 27 28  1  0
 28 29  3  0
  9 30  1  0
 30 31  2  0
 31  6  1  0
 27 15  1  0
 26 21  1  0
  1 32  1  0
  1 33  1  0
  1 34  1  0
  2 35  1  0
  2 36  1  0
  7 37  1  0
  8 38  1  0
 10 39  1  0
 13 40  1  0
 13 41  1  0
 18 42  1  0
 18 43  1  0
 18 44  1  0
 19 45  1  0
 22 46  1  0
 23 47  1  0
 24 48  1  0
 25 49  1  0
 26 50  1  0
 30 51  1  0
 31 52  1  0
M  END
>  <Binding energies>  (1) 
[-8.23]

>  <Ligand effiencies>  (1) 
[-0.2571875]

>  <Interactions>  (1) 
["V-B:PRO:540:CB:9857, V-B:PRO:540:N:9856, V-B:PRO:540:CA:9855, V-B:MET:535:CE:9807, H-B:TYR:531:OH:9767, V-B:TYR:539:C:9839, V-A:ARG:545:CD:4923, V-A:ARG:545:CZ:4926, V-A:GLY:453:CA:4043, V-B:GLU:543:CB:9878, V-A:ARG:545:CB:4921, V-A:GLY:453:C:4041, V-A:GLU:543:CB:4906, V-A:HIS:456:CE1:4069, V-A:ARG:545:CG:4922, V-B:HIS:456:CE1:9041, V-A:GLY:454:CA:4048, H-A:TYR:484:OH:4347, H-A:GLY:454:N:4049, V-B:GLU:543:CG:9879, V-A:GLU:543:CD:4908, H-A:ARG:545:NH1:4927, V-B:GLU:543:C:9874, V-A:TYR:484:CE2:4345, V-B:GLU:543:CA:9876, V-A:TYR:484:CZ:4346, H-A:ARG:545:NH2:4928, V-B:TYR:539:CA:9841, V-A:ILE:455:C:4051, V-B:PRO:540:CD:9859, H-A:ARG:545:NE:4924, V-B:TYR:531:CE2:9765, V-B:LEU:363:CD1:8160, V-A:GLY:454:C:4046, V-A:ILE:455:CA:4053"]

$$$$
3cb_Grossjean_2025
     RDKit          3D

 49 51  0  0  0  0  0  0  0  0999 V2000
  128.7130  126.1270   70.8010 C   0  0  0  0  0  0  0  0  0  0  0  0
  128.9010  126.0080   69.3980 O   0  0  0  0  0  0  0  0  0  0  0  0
  129.5020  126.9960   68.6870 C   0  0  0  0  0  0  0  0  0  0  0  0
  129.5410  128.1730   69.0570 O   0  0  0  0  0  0  0  0  0  0  0  0
  130.1140  126.5150   67.4020 C   0  0  0  0  0  0  0  0  0  0  0  0
  129.3360  125.9870   66.3600 C   0  0  0  0  0  0  0  0  0  0  0  0
  129.9340  125.5520   65.1810 C   0  0  0  0  0  0  0  0  0  0  0  0
  131.3180  125.6300   65.0180 C   0  0  0  0  0  0  0  0  0  0  0  0
  131.8160  125.1650   63.7840 N   0  0  0  0  0  0  0  0  0  0  0  0
  133.0860  124.9040   63.4040 C   0  0  0  0  0  0  0  0  0  0  0  0
  134.0770  125.0200   64.1270 O   0  0  0  0  0  0  0  0  0  0  0  0
  133.2280  124.4130   61.9550 C   0  0  0  0  0  0  0  0  0  0  0  0
  132.1190  123.0370   61.4960 S   0  0  0  0  0  0  0  0  0  0  0  0
  131.2970  123.4820   59.9810 C   0  0  0  0  0  0  0  0  0  0  0  0
  132.0860  124.1720   59.1220 N   0  0  0  0  0  0  0  0  0  0  0  0
  131.5670  124.5630   57.9370 C   0  0  0  0  0  0  0  0  0  0  0  0
  132.5100  125.3190   57.0210 C   0  0  0  0  0  0  0  0  0  0  0  0
  130.2530  124.2900   57.5670 C   0  0  0  0  0  0  0  0  0  0  0  0
  129.4140  123.5920   58.4450 C   0  0  0  0  0  0  0  0  0  0  0  0
  128.0100  123.3290   58.0050 C   0  0  0  0  0  0  0  0  0  0  0  0
  127.7340  122.2700   57.1300 C   0  0  0  0  0  0  0  0  0  0  0  0
  126.4280  122.0100   56.7230 C   0  0  0  0  0  0  0  0  0  0  0  0
  125.3890  122.8090   57.1920 C   0  0  0  0  0  0  0  0  0  0  0  0
  125.6440  123.8600   58.0680 C   0  0  0  0  0  0  0  0  0  0  0  0
  126.9510  124.1160   58.4750 C   0  0  0  0  0  0  0  0  0  0  0  0
  129.9400  123.1860   59.6990 C   0  0  0  0  0  0  0  0  0  0  0  0
  129.0820  122.5360   60.6950 C   0  0  0  0  0  0  0  0  0  0  0  0
  128.4050  122.0230   61.4800 N   0  0  0  0  0  0  0  0  0  0  0  0
  132.1020  126.1610   66.0530 C   0  0  0  0  0  0  0  0  0  0  0  0
  131.5030  126.5960   67.2320 C   0  0  0  0  0  0  0  0  0  0  0  0
  129.5300  125.6099   71.3256 H   0  0  0  0  0  0  0  0  0  0  0  0
  128.7121  127.1905   71.0819 H   0  0  0  0  0  0  0  0  0  0  0  0
  127.7514  125.6727   71.0819 H   0  0  0  0  0  0  0  0  0  0  0  0
  128.2444  125.9164   66.4762 H   0  0  0  0  0  0  0  0  0  0  0  0
  129.3112  125.1436   64.3715 H   0  0  0  0  0  0  0  0  0  0  0  0
  131.1000  124.9790   63.0960 H   0  0  0  0  0  0  0  0  0  0  0  0
  133.0169  125.2597   61.2853 H   0  0  0  0  0  0  0  0  0  0  0  0
  134.2536  124.0269   61.8597 H   0  0  0  0  0  0  0  0  0  0  0  0
  133.2267  125.8936   57.6261 H   0  0  0  0  0  0  0  0  0  0  0  0
  133.0554  124.6051   56.3863 H   0  0  0  0  0  0  0  0  0  0  0  0
  131.9318  126.0066   56.3863 H   0  0  0  0  0  0  0  0  0  0  0  0
  129.8749  124.6213   56.5886 H   0  0  0  0  0  0  0  0  0  0  0  0
  128.5560  121.6387   56.7615 H   0  0  0  0  0  0  0  0  0  0  0  0
  126.2185  121.1779   56.0347 H   0  0  0  0  0  0  0  0  0  0  0  0
  124.3574  122.6079   56.8674 H   0  0  0  0  0  0  0  0  0  0  0  0
  124.8175  124.4852   58.4369 H   0  0  0  0  0  0  0  0  0  0  0  0
  127.1533  124.9431   59.1714 H   0  0  0  0  0  0  0  0  0  0  0  0
  133.1930  126.2339   65.9327 H   0  0  0  0  0  0  0  0  0  0  0  0
  132.1266  127.0078   68.0391 H   0  0  0  0  0  0  0  0  0  0  0  0
  1  2  1  0
  2  3  1  0
  3  4  2  0
  3  5  1  0
  5  6  2  0
  6  7  1  0
  7  8  2  0
  8  9  1  0
  9 10  1  0
 10 11  2  0
 10 12  1  0
 12 13  1  0
 13 14  1  0
 14 15  2  0
 15 16  1  0
 16 17  1  0
 16 18  2  0
 18 19  1  0
 19 20  1  0
 20 21  2  0
 21 22  1  0
 22 23  2  0
 23 24  1  0
 24 25  2  0
 19 26  2  0
 26 27  1  0
 27 28  3  0
  8 29  1  0
 29 30  2  0
 30  5  1  0
 26 14  1  0
 25 20  1  0
  1 31  1  0
  1 32  1  0
  1 33  1  0
  6 34  1  0
  7 35  1  0
  9 36  1  0
 12 37  1  0
 12 38  1  0
 17 39  1  0
 17 40  1  0
 17 41  1  0
 18 42  1  0
 21 43  1  0
 22 44  1  0
 23 45  1  0
 24 46  1  0
 25 47  1  0
 29 48  1  0
 30 49  1  0
M  END
>  <Binding energies>  (1) 
[-8.72]

>  <Ligand effiencies>  (1) 
[-0.2812903225806452]

>  <Interactions>  (1) 
["V-B:PRO:540:CB:9857, V-B:TYR:539:CE2:9848, V-B:PRO:540:N:9856, V-B:TYR:539:CZ:9849, V-B:PRO:540:CA:9855, V-B:MET:535:CE:9807, H-B:ALA:541:N:9863, V-B:TYR:539:C:9839, V-B:GLU:543:CD:9880, V-A:ARG:545:CZ:4926, V-B:GLU:543:CB:9878, V-A:HIS:456:CE1:4069, H-A:GLY:454:N:4049, V-B:GLU:543:CG:9879, V-A:GLU:543:CD:4908, V-A:ASP:366:CG:3212, H-A:ARG:545:NH1:4927, V-B:GLU:543:C:9874, V-B:HIS:456:CD2:9039, V-A:ASP:366:C:3207, V-A:ASP:366:CB:3211, V-A:ASP:366:CA:3209, H-A:ARG:545:NH2:4928, V-B:PRO:540:CD:9859, H-A:ARG:545:NE:4924, V-B:TYR:539:CG:9844, V-B:LEU:363:CD1:8160"]

$$$$
3ce_Grossjean_2025
     RDKit          3D

 45 47  0  0  0  0  0  0  0  0999 V2000
  134.1180  125.3730   67.4820 C   0  0  0  0  0  0  0  0  0  0  0  0
  133.2740  125.4210   66.2220 C   0  0  0  0  0  0  0  0  0  0  0  0
  131.9150  125.7420   66.2650 C   0  0  0  0  0  0  0  0  0  0  0  0
  131.2040  125.7770   65.0660 C   0  0  0  0  0  0  0  0  0  0  0  0
  131.8600  125.4950   63.8650 C   0  0  0  0  0  0  0  0  0  0  0  0
  133.2210  125.1710   63.8950 C   0  0  0  0  0  0  0  0  0  0  0  0
  133.8330  124.9150   62.6560 N   0  0  0  0  0  0  0  0  0  0  0  0
  134.0400  123.7220   62.0570 C   0  0  0  0  0  0  0  0  0  0  0  0
  133.7050  122.6300   62.5210 O   0  0  0  0  0  0  0  0  0  0  0  0
  134.7380  123.7740   60.6980 C   0  0  0  0  0  0  0  0  0  0  0  0
  133.5850  124.2010   59.3590 S   0  0  0  0  0  0  0  0  0  0  0  0
  132.1750  123.1420   59.5800 C   0  0  0  0  0  0  0  0  0  0  0  0
  132.4470  121.9920   60.2440 N   0  0  0  0  0  0  0  0  0  0  0  0
  131.4360  121.1250   60.4770 C   0  0  0  0  0  0  0  0  0  0  0  0
  131.8070  119.8660   61.2360 C   0  0  0  0  0  0  0  0  0  0  0  0
  130.1310  121.3620   60.0510 C   0  0  0  0  0  0  0  0  0  0  0  0
  129.8350  122.5320   59.3400 C   0  0  0  0  0  0  0  0  0  0  0  0
  128.4270  122.7300   58.8820 C   0  0  0  0  0  0  0  0  0  0  0  0
  128.0510  122.3550   57.5860 C   0  0  0  0  0  0  0  0  0  0  0  0
  126.7420  122.5420   57.1500 C   0  0  0  0  0  0  0  0  0  0  0  0
  125.8030  123.1120   58.0060 C   0  0  0  0  0  0  0  0  0  0  0  0
  126.1640  123.5000   59.2940 C   0  0  0  0  0  0  0  0  0  0  0  0
  127.4740  123.3110   59.7280 C   0  0  0  0  0  0  0  0  0  0  0  0
  130.8820  123.4570   59.0970 C   0  0  0  0  0  0  0  0  0  0  0  0
  130.6290  124.7060   58.3720 C   0  0  0  0  0  0  0  0  0  0  0  0
  130.4280  125.6920   57.8010 N   0  0  0  0  0  0  0  0  0  0  0  0
  133.9250  125.1420   65.0650 N   0  0  0  0  0  0  0  0  0  0  0  0
  133.4621  125.4103   68.3643 H   0  0  0  0  0  0  0  0  0  0  0  0
  134.7009  124.4403   67.4976 H   0  0  0  0  0  0  0  0  0  0  0  0
  134.8029  126.2336   67.4976 H   0  0  0  0  0  0  0  0  0  0  0  0
  131.4180  125.9618   67.2214 H   0  0  0  0  0  0  0  0  0  0  0  0
  130.1324  126.0253   65.0657 H   0  0  0  0  0  0  0  0  0  0  0  0
  131.3148  125.5272   62.9102 H   0  0  0  0  0  0  0  0  0  0  0  0
  134.0630  125.7380   62.1180 H   0  0  0  0  0  0  0  0  0  0  0  0
  135.5347  124.5315   60.7362 H   0  0  0  0  0  0  0  0  0  0  0  0
  135.1494  122.7757   60.4879 H   0  0  0  0  0  0  0  0  0  0  0  0
  131.7500  120.0595   62.3173 H   0  0  0  0  0  0  0  0  0  0  0  0
  131.1086  119.0587   60.9707 H   0  0  0  0  0  0  0  0  0  0  0  0
  132.8316  119.5664   60.9707 H   0  0  0  0  0  0  0  0  0  0  0  0
  129.3367  120.6338   60.2719 H   0  0  0  0  0  0  0  0  0  0  0  0
  128.7945  121.9100   56.9084 H   0  0  0  0  0  0  0  0  0  0  0  0
  126.4506  122.2406   56.1330 H   0  0  0  0  0  0  0  0  0  0  0  0
  124.7682  123.2569   57.6622 H   0  0  0  0  0  0  0  0  0  0  0  0
  125.4190  123.9530   59.9646 H   0  0  0  0  0  0  0  0  0  0  0  0
  127.7624  123.6206   60.7434 H   0  0  0  0  0  0  0  0  0  0  0  0
  1  2  1  0
  2  3  2  0
  3  4  1  0
  4  5  2  0
  5  6  1  0
  6  7  1  0
  7  8  1  0
  8  9  2  0
  8 10  1  0
 10 11  1  0
 11 12  1  0
 12 13  2  0
 13 14  1  0
 14 15  1  0
 14 16  2  0
 16 17  1  0
 17 18  1  0
 18 19  2  0
 19 20  1  0
 20 21  2  0
 21 22  1  0
 22 23  2  0
 17 24  2  0
 24 25  1  0
 25 26  3  0
  6 27  2  0
 27  2  1  0
 24 12  1  0
 23 18  1  0
  1 28  1  0
  1 29  1  0
  1 30  1  0
  3 31  1  0
  4 32  1  0
  5 33  1  0
  7 34  1  0
 10 35  1  0
 10 36  1  0
 15 37  1  0
 15 38  1  0
 15 39  1  0
 16 40  1  0
 19 41  1  0
 20 42  1  0
 21 43  1  0
 22 44  1  0
 23 45  1  0
M  END
>  <Binding energies>  (1) 
[-8.6]

>  <Ligand effiencies>  (1) 
[-0.3071428571428571]

>  <Interactions>  (1) 
["V-B:PRO:540:CB:9857, V-A:ILE:369:CG2:3236, V-B:TYR:539:CE2:9848, V-B:PRO:540:N:9856, V-B:TYR:539:CZ:9849, V-B:TYR:539:CD2:9846, V-B:PRO:540:CA:9855, V-B:MET:535:CE:9807, V-A:LEU:475:CD1:4257, V-B:TYR:539:C:9839, V-A:ARG:545:CD:4923, V-A:ARG:545:CZ:4926, V-A:HIS:456:CE1:4069, V-A:ARG:545:CG:4922, H-A:TYR:484:OH:4347, H-A:GLY:454:N:4049, V-A:ASP:366:CG:3212, H-A:ARG:545:NH1:4927, V-A:ILE:369:CD1:3238, V-A:ASP:366:CA:3209, V-A:TYR:484:CZ:4346, V-A:ILE:369:CB:3235, H-A:ARG:545:NH2:4928, V-A:ILE:455:C:4051, H-A:ARG:545:NE:4924, V-B:TYR:539:CG:9844, H-A:ASP:366:OD2:3214, V-B:LEU:363:CD1:8160, H-A:ASP:366:OD1:3213, V-A:ILE:369:CG1:3237"]

$$$$
3ch_Grossjean_2025
     RDKit          3D

 55 57  0  0  0  0  0  0  0  0999 V2000
  132.3240  125.4290   56.9010 C   0  0  0  0  0  0  0  0  0  0  0  0
  130.9790  125.8390   57.1230 O   0  0  0  0  0  0  0  0  0  0  0  0
  130.0460  124.9150   57.5570 C   0  0  0  0  0  0  0  0  0  0  0  0
  130.3500  123.8220   58.3850 C   0  0  0  0  0  0  0  0  0  0  0  0
  129.3490  122.9290   58.7930 C   0  0  0  0  0  0  0  0  0  0  0  0
  129.5550  121.8110   59.6240 N   0  0  0  0  0  0  0  0  0  0  0  0
  129.1410  121.5890   60.8910 C   0  0  0  0  0  0  0  0  0  0  0  0
  128.4640  122.3640   61.5670 O   0  0  0  0  0  0  0  0  0  0  0  0
  129.5290  120.2350   61.4840 C   0  0  0  0  0  0  0  0  0  0  0  0
  131.3220  120.0880   61.7430 S   0  0  0  0  0  0  0  0  0  0  0  0
  131.9280  121.7480   61.9560 C   0  0  0  0  0  0  0  0  0  0  0  0
  132.6030  122.2290   60.8820 N   0  0  0  0  0  0  0  0  0  0  0  0
  133.1110  123.4800   60.9460 C   0  0  0  0  0  0  0  0  0  0  0  0
  133.8580  123.9530   59.7140 C   0  0  0  0  0  0  0  0  0  0  0  0
  132.9700  124.2910   62.0690 C   0  0  0  0  0  0  0  0  0  0  0  0
  132.2690  123.8150   63.1860 C   0  0  0  0  0  0  0  0  0  0  0  0
  132.1510  124.7170   64.3730 C   0  0  0  0  0  0  0  0  0  0  0  0
  133.2920  125.0710   65.1030 C   0  0  0  0  0  0  0  0  0  0  0  0
  133.1890  125.9040   66.2140 C   0  0  0  0  0  0  0  0  0  0  0  0
  131.9410  126.3840   66.6020 C   0  0  0  0  0  0  0  0  0  0  0  0
  130.7960  126.0360   65.8910 C   0  0  0  0  0  0  0  0  0  0  0  0
  130.9030  125.2020   64.7800 C   0  0  0  0  0  0  0  0  0  0  0  0
  131.7130  122.5120   63.1270 C   0  0  0  0  0  0  0  0  0  0  0  0
  130.8910  121.9990   64.2280 C   0  0  0  0  0  0  0  0  0  0  0  0
  130.2430  121.5920   65.0960 N   0  0  0  0  0  0  0  0  0  0  0  0
  128.0400  123.1260   58.3500 C   0  0  0  0  0  0  0  0  0  0  0  0
  127.7120  124.2100   57.5200 C   0  0  0  0  0  0  0  0  0  0  0  0
  126.4340  124.4660   57.0530 O   0  0  0  0  0  0  0  0  0  0  0  0
  125.3150  124.2060   57.8940 C   0  0  0  0  0  0  0  0  0  0  0  0
  128.7240  125.0950   57.1290 C   0  0  0  0  0  0  0  0  0  0  0  0
  128.4120  126.1700   56.3320 O   0  0  0  0  0  0  0  0  0  0  0  0
  128.4180  127.4180   57.0120 C   0  0  0  0  0  0  0  0  0  0  0  0
  132.8251  125.2762   57.8682 H   0  0  0  0  0  0  0  0  0  0  0  0
  132.3312  124.4879   56.3316 H   0  0  0  0  0  0  0  0  0  0  0  0
  132.8550  126.2061   56.3316 H   0  0  0  0  0  0  0  0  0  0  0  0
  131.3866  123.6646   58.7176 H   0  0  0  0  0  0  0  0  0  0  0  0
  130.0540  121.0530   59.1810 H   0  0  0  0  0  0  0  0  0  0  0  0
  129.0200  120.1129   62.4515 H   0  0  0  0  0  0  0  0  0  0  0  0
  129.2255  119.4543   60.7710 H   0  0  0  0  0  0  0  0  0  0  0  0
  134.7505  124.5181   60.0208 H   0  0  0  0  0  0  0  0  0  0  0  0
  134.1632  123.0832   59.1138 H   0  0  0  0  0  0  0  0  0  0  0  0
  133.2022  124.6008   59.1138 H   0  0  0  0  0  0  0  0  0  0  0  0
  133.4066  125.3006   62.0798 H   0  0  0  0  0  0  0  0  0  0  0  0
  134.2768  124.6884   64.7967 H   0  0  0  0  0  0  0  0  0  0  0  0
  134.0891  126.1814   66.7823 H   0  0  0  0  0  0  0  0  0  0  0  0
  131.8591  127.0441   67.4781 H   0  0  0  0  0  0  0  0  0  0  0  0
  129.8128  126.4171   66.2043 H   0  0  0  0  0  0  0  0  0  0  0  0
  129.9994  124.9226   64.2184 H   0  0  0  0  0  0  0  0  0  0  0  0
  127.2531  122.4209   58.6560 H   0  0  0  0  0  0  0  0  0  0  0  0
  125.6235  124.2777   58.9474 H   0  0  0  0  0  0  0  0  0  0  0  0
  124.5252  124.9446   57.6922 H   0  0  0  0  0  0  0  0  0  0  0  0
  124.9317  123.1949   57.6922 H   0  0  0  0  0  0  0  0  0  0  0  0
  128.4172  127.2438   58.0981 H   0  0  0  0  0  0  0  0  0  0  0  0
  129.3189  127.9838   56.7321 H   0  0  0  0  0  0  0  0  0  0  0  0
  127.5226  127.9924   56.7321 H   0  0  0  0  0  0  0  0  0  0  0  0
  1  2  1  0
  2  3  1  0
  3  4  2  0
  4  5  1  0
  5  6  1  0
  6  7  1  0
  7  8  2  0
  7  9  1  0
  9 10  1  0
 10 11  1  0
 11 12  2  0
 12 13  1  0
 13 14  1  0
 13 15  2  0
 15 16  1  0
 16 17  1  0
 17 18  2  0
 18 19  1  0
 19 20  2  0
 20 21  1  0
 21 22  2  0
 16 23  2  0
 23 24  1  0
 24 25  3  0
  5 26  2  0
 26 27  1  0
 27 28  1  0
 28 29  1  0
 27 30  2  0
 30 31  1  0
 31 32  1  0
 30  3  1  0
 23 11  1  0
 22 17  1  0
  1 33  1  0
  1 34  1  0
  1 35  1  0
  4 36  1  0
  6 37  1  0
  9 38  1  0
  9 39  1  0
 14 40  1  0
 14 41  1  0
 14 42  1  0
 15 43  1  0
 18 44  1  0
 19 45  1  0
 20 46  1  0
 21 47  1  0
 22 48  1  0
 26 49  1  0
 29 50  1  0
 29 51  1  0
 29 52  1  0
 32 53  1  0
 32 54  1  0
 32 55  1  0
M  END
>  <Binding energies>  (1) 
[-7.22]

>  <Ligand effiencies>  (1) 
[-0.21878787878787878]

>  <Interactions>  (1) 
["V-A:ILE:369:CG2:3236, V-B:TYR:539:CE2:9848, V-B:TYR:539:CZ:9849, V-B:TYR:539:CD2:9846, V-B:PRO:540:CA:9855, V-B:PRO:540:C:9853, V-B:MET:535:CE:9807, V-A:LEU:475:CD1:4257, H-B:ALA:541:N:9863, H-B:TYR:531:OH:9767, V-B:ALA:541:CA:9862, V-B:TYR:539:C:9839, V-B:ALA:541:CB:9864, V-A:ARG:545:CD:4923, V-A:ARG:545:CZ:4926, V-A:HIS:456:CE1:4069, V-A:ARG:545:CG:4922, H-A:TYR:484:OH:4347, V-A:GLU:543:CD:4908, V-A:ASP:366:CG:3212, V-A:ASP:366:C:3207, V-A:ASP:366:CB:3211, V-A:ASP:366:CA:3209, V-A:TYR:484:CZ:4346, V-A:ILE:369:CB:3235, V-B:TYR:531:CE2:9765, V-B:LEU:363:CD1:8160, H-B:TYR:539:O:9840, H-B:TYR:539:OH:9850, V-A:LEU:475:CG:4256, V-A:LEU:475:CD2:4258"]

$$$$
3ci_Grossjean_2025
     RDKit          3D

 39 41  0  0  0  0  0  0  0  0999 V2000
  134.5010  124.4830   62.3110 C   0  0  0  0  0  0  0  0  0  0  0  0
  133.0980  123.9490   62.0880 C   0  0  0  0  0  0  0  0  0  0  0  0
  132.8670  122.6150   61.7650 C   0  0  0  0  0  0  0  0  0  0  0  0
  131.5520  122.1640   61.5850 C   0  0  0  0  0  0  0  0  0  0  0  0
  131.3520  120.7210   61.2540 C   0  0  0  0  0  0  0  0  0  0  0  0
  130.3210  119.9850   61.8540 C   0  0  0  0  0  0  0  0  0  0  0  0
  130.1440  118.6380   61.5490 C   0  0  0  0  0  0  0  0  0  0  0  0
  131.0020  118.0180   60.6450 C   0  0  0  0  0  0  0  0  0  0  0  0
  132.0360  118.7330   60.0470 C   0  0  0  0  0  0  0  0  0  0  0  0
  132.2110  120.0790   60.3540 C   0  0  0  0  0  0  0  0  0  0  0  0
  130.4940  123.0970   61.7290 C   0  0  0  0  0  0  0  0  0  0  0  0
  129.1010  122.6930   61.5100 C   0  0  0  0  0  0  0  0  0  0  0  0
  128.0020  122.3720   61.3380 N   0  0  0  0  0  0  0  0  0  0  0  0
  130.8180  124.4340   62.0640 C   0  0  0  0  0  0  0  0  0  0  0  0
  129.5620  125.6870   62.2920 S   0  0  0  0  0  0  0  0  0  0  0  0
  129.2220  125.8910   64.0710 C   0  0  0  0  0  0  0  0  0  0  0  0
  130.3100  125.2940   64.9700 C   0  0  0  0  0  0  0  0  0  0  0  0
  130.0820  124.2450   65.5750 O   0  0  0  0  0  0  0  0  0  0  0  0
  131.4630  125.9970   65.0420 N   0  0  0  0  0  0  0  0  0  0  0  0
  132.6060  125.6650   65.7560 C   0  0  0  0  0  0  0  0  0  0  0  0
  132.7610  125.9400   67.1140 C   0  0  0  0  0  0  0  0  0  0  0  0
  134.0130  125.4640   67.4350 C   0  0  0  0  0  0  0  0  0  0  0  0
  134.5800  124.9290   66.3270 O   0  0  0  0  0  0  0  0  0  0  0  0
  133.6790  125.0640   65.2690 N   0  0  0  0  0  0  0  0  0  0  0  0
  132.0990  124.8470   62.2330 N   0  0  0  0  0  0  0  0  0  0  0  0
  134.6975  124.5578   63.3907 H   0  0  0  0  0  0  0  0  0  0  0  0
  135.2307  123.7997   61.8520 H   0  0  0  0  0  0  0  0  0  0  0  0
  134.5917  125.4785   61.8520 H   0  0  0  0  0  0  0  0  0  0  0  0
  133.7112  121.9189   61.6517 H   0  0  0  0  0  0  0  0  0  0  0  0
  129.6465  120.4753   62.5714 H   0  0  0  0  0  0  0  0  0  0  0  0
  129.3304  118.0668   62.0199 H   0  0  0  0  0  0  0  0  0  0  0  0
  130.8618  116.9546   60.4012 H   0  0  0  0  0  0  0  0  0  0  0  0
  132.7116  118.2363   59.3351 H   0  0  0  0  0  0  0  0  0  0  0  0
  133.0310  120.6432   59.8857 H   0  0  0  0  0  0  0  0  0  0  0  0
  129.1400  126.9660   64.2895 H   0  0  0  0  0  0  0  0  0  0  0  0
  128.2886  125.3508   64.2877 H   0  0  0  0  0  0  0  0  0  0  0  0
  131.5200  126.8460   64.5020 H   0  0  0  0  0  0  0  0  0  0  0  0
  132.0397  126.4308   67.7839 H   0  0  0  0  0  0  0  0  0  0  0  0
  134.4778  125.5107   68.4309 H   0  0  0  0  0  0  0  0  0  0  0  0
  1  2  1  0
  2  3  2  0
  3  4  1  0
  4  5  1  0
  5  6  2  0
  6  7  1  0
  7  8  2  0
  8  9  1  0
  9 10  2  0
  4 11  2  0
 11 12  1  0
 12 13  3  0
 11 14  1  0
 14 15  1  0
 15 16  1  0
 16 17  1  0
 17 18  2  0
 17 19  1  0
 19 20  1  0
 20 21  1  0
 21 22  2  0
 22 23  1  0
 23 24  1  0
 14 25  2  0
 25  2  1  0
 10  5  1  0
 24 20  2  0
  1 26  1  0
  1 27  1  0
  1 28  1  0
  3 29  1  0
  6 30  1  0
  7 31  1  0
  8 32  1  0
  9 33  1  0
 10 34  1  0
 16 35  1  0
 16 36  1  0
 19 37  1  0
 21 38  1  0
 22 39  1  0
M  END
>  <Binding energies>  (1) 
[-8.28]

>  <Ligand effiencies>  (1) 
[-0.31846153846153846]

>  <Interactions>  (1) 
["V-B:TYR:539:CE2:9848, V-B:TYR:539:CD2:9846, V-A:PRO:482:CG:4326, V-A:PRO:482:CB:4325, V-A:LEU:475:CD1:4257, H-B:ALA:541:N:9863, V-B:ALA:541:CA:9862, V-B:ALA:541:CB:9864, V-B:GLU:543:CD:9880, V-A:ARG:545:CD:4923, V-A:ARG:545:CZ:4926, V-A:GLY:453:CA:4043, V-A:GLY:453:C:4041, V-A:HIS:456:CE1:4069, V-A:ARG:545:CG:4922, H-A:TYR:484:OH:4347, H-A:GLY:454:N:4049, H-A:GLU:543:OE1:4909, V-A:GLU:543:CD:4908, V-A:ASP:366:CG:3212, V-A:TYR:484:CZ:4346, H-A:GLU:543:OE2:4910, V-A:ILE:455:C:4051, H-A:ARG:545:NE:4924, H-A:ILE:455:N:4054"]

$$$$
3cj_Grossjean_2025
     RDKit          3D

 39 41  0  0  0  0  0  0  0  0999 V2000
  130.6220  120.6720   62.1810 C   0  0  0  0  0  0  0  0  0  0  0  0
  130.4630  121.6100   61.0010 C   0  0  0  0  0  0  0  0  0  0  0  0
  129.2720  121.6820   60.2830 C   0  0  0  0  0  0  0  0  0  0  0  0
  129.1610  122.5810   59.2130 C   0  0  0  0  0  0  0  0  0  0  0  0
  127.8460  122.6700   58.5130 C   0  0  0  0  0  0  0  0  0  0  0  0
  127.6450  122.0170   57.2910 C   0  0  0  0  0  0  0  0  0  0  0  0
  126.4220  122.1120   56.6330 C   0  0  0  0  0  0  0  0  0  0  0  0
  125.3950  122.8670   57.1930 C   0  0  0  0  0  0  0  0  0  0  0  0
  125.5830  123.5300   58.4030 C   0  0  0  0  0  0  0  0  0  0  0  0
  126.8080  123.4330   59.0600 C   0  0  0  0  0  0  0  0  0  0  0  0
  130.2890  123.3690   58.8750 C   0  0  0  0  0  0  0  0  0  0  0  0
  130.2450  124.3070   57.7490 C   0  0  0  0  0  0  0  0  0  0  0  0
  130.2080  125.0480   56.8600 N   0  0  0  0  0  0  0  0  0  0  0  0
  131.4550  123.2350   59.6610 C   0  0  0  0  0  0  0  0  0  0  0  0
  132.8930  124.2590   59.4310 S   0  0  0  0  0  0  0  0  0  0  0  0
  134.1640  123.5300   60.5130 C   0  0  0  0  0  0  0  0  0  0  0  0
  133.7420  123.5550   61.9860 C   0  0  0  0  0  0  0  0  0  0  0  0
  133.7120  122.5020   62.6270 O   0  0  0  0  0  0  0  0  0  0  0  0
  133.4620  124.7770   62.4870 N   0  0  0  0  0  0  0  0  0  0  0  0
  133.1900  125.0870   63.8100 C   0  0  0  0  0  0  0  0  0  0  0  0
  134.0000  125.0040   64.8420 N   0  0  0  0  0  0  0  0  0  0  0  0
  133.4140  125.4110   65.9500 C   0  0  0  0  0  0  0  0  0  0  0  0
  132.0940  125.8360   65.8300 C   0  0  0  0  0  0  0  0  0  0  0  0
  131.6030  125.6900   64.1680 S   0  0  0  0  0  0  0  0  0  0  0  0
  131.5370  122.3790   60.7110 N   0  0  0  0  0  0  0  0  0  0  0  0
  130.5255  121.2411   63.1174 H   0  0  0  0  0  0  0  0  0  0  0  0
  129.8424  119.8970   62.1410 H   0  0  0  0  0  0  0  0  0  0  0  0
  131.6134  120.1972   62.1410 H   0  0  0  0  0  0  0  0  0  0  0  0
  128.4230  121.0371   60.5539 H   0  0  0  0  0  0  0  0  0  0  0  0
  128.4591  121.4248   56.8478 H   0  0  0  0  0  0  0  0  0  0  0  0
  126.2678  121.5932   55.6754 H   0  0  0  0  0  0  0  0  0  0  0  0
  124.4272  122.9404   56.6754 H   0  0  0  0  0  0  0  0  0  0  0  0
  124.7683  124.1275   58.8381 H   0  0  0  0  0  0  0  0  0  0  0  0
  126.9601  123.9591   60.0140 H   0  0  0  0  0  0  0  0  0  0  0  0
  134.3340  122.4865   60.2092 H   0  0  0  0  0  0  0  0  0  0  0  0
  135.0823  124.1268   60.4109 H   0  0  0  0  0  0  0  0  0  0  0  0
  133.5400  125.5650   61.8590 H   0  0  0  0  0  0  0  0  0  0  0  0
  133.9392  125.4147   66.9165 H   0  0  0  0  0  0  0  0  0  0  0  0
  131.4637  126.2044   66.6528 H   0  0  0  0  0  0  0  0  0  0  0  0
  1  2  1  0
  2  3  2  0
  3  4  1  0
  4  5  1  0
  5  6  2  0
  6  7  1  0
  7  8  2  0
  8  9  1  0
  9 10  2  0
  4 11  2  0
 11 12  1  0
 12 13  3  0
 11 14  1  0
 14 15  1  0
 15 16  1  0
 16 17  1  0
 17 18  2  0
 17 19  1  0
 19 20  1  0
 20 21  2  0
 21 22  1  0
 22 23  2  0
 23 24  1  0
 14 25  2  0
 25  2  1  0
 10  5  1  0
 24 20  1  0
  1 26  1  0
  1 27  1  0
  1 28  1  0
  3 29  1  0
  6 30  1  0
  7 31  1  0
  8 32  1  0
  9 33  1  0
 10 34  1  0
 16 35  1  0
 16 36  1  0
 19 37  1  0
 22 38  1  0
 23 39  1  0
M  END
>  <Binding energies>  (1) 
[-7.85]

>  <Ligand effiencies>  (1) 
[-0.3019230769230769]

>  <Interactions>  (1) 
["V-B:PRO:540:CB:9857, V-A:ILE:369:CG2:3236, V-B:TYR:539:CE2:9848, V-B:PRO:540:N:9856, V-B:TYR:539:CZ:9849, V-B:TYR:539:CD2:9846, V-B:PRO:540:CA:9855, V-B:MET:535:CE:9807, V-A:LEU:475:CD1:4257, V-B:TYR:539:C:9839, V-B:ALA:541:CB:9864, V-A:ARG:545:CD:4923, V-A:ARG:545:CZ:4926, V-A:ARG:545:CG:4922, H-A:TYR:484:OH:4347, H-A:GLY:454:N:4049, V-A:ASP:366:CG:3212, H-A:ARG:545:NH1:4927, V-A:ILE:369:CD1:3238, V-A:ASP:366:CA:3209, V-A:ILE:369:CB:3235, H-A:ARG:545:NH2:4928, V-B:TYR:539:CA:9841, V-B:PRO:540:CD:9859, H-A:ARG:545:NE:4924, V-B:TYR:539:CG:9844, H-A:ASP:366:OD2:3214, V-B:LEU:363:CD1:8160, H-B:TYR:539:OH:9850, H-A:ASP:366:OD1:3213"]

$$$$
3ck_Grossjean_2025
     RDKit          3D

 57 58  0  0  0  0  0  0  0  0999 V2000
  125.7840  122.1350   56.3530 C   0  0  0  0  0  0  0  0  0  0  0  0
  126.9920  121.6260   56.8960 O   0  0  0  0  0  0  0  0  0  0  0  0
  127.8990  122.6400   57.3070 C   0  0  0  0  0  0  0  0  0  0  0  0
  128.2660  122.4330   58.7830 C   0  0  0  0  0  0  0  0  0  0  0  0
  129.6770  122.3120   58.9040 O   0  0  0  0  0  0  0  0  0  0  0  0
  130.3110  123.4640   59.4450 C   0  0  0  0  0  0  0  0  0  0  0  0
  131.5920  123.0360   60.1710 C   0  0  0  0  0  0  0  0  0  0  0  0
  132.5310  124.0980   60.0850 O   0  0  0  0  0  0  0  0  0  0  0  0
  133.8710  123.7330   60.3750 C   0  0  0  0  0  0  0  0  0  0  0  0
  134.1720  124.0140   61.8600 C   0  0  0  0  0  0  0  0  0  0  0  0
  133.0120  124.5000   62.6150 N   0  0  0  0  0  0  0  0  0  0  0  0
  133.0420  124.9970   63.8640 C   0  0  0  0  0  0  0  0  0  0  0  0
  134.0810  125.1260   64.5160 O   0  0  0  0  0  0  0  0  0  0  0  0
  131.6810  125.4120   64.4440 C   0  0  0  0  0  0  0  0  0  0  0  0
  130.2960  124.2800   64.0770 S   0  0  0  0  0  0  0  0  0  0  0  0
  129.0200  125.1790   63.2070 C   0  0  0  0  0  0  0  0  0  0  0  0
  128.9550  126.5080   63.4730 N   0  0  0  0  0  0  0  0  0  0  0  0
  128.0100  127.2500   62.8520 C   0  0  0  0  0  0  0  0  0  0  0  0
  127.9970  128.7250   63.2020 C   0  0  0  0  0  0  0  0  0  0  0  0
  127.1000  126.7040   61.9510 C   0  0  0  0  0  0  0  0  0  0  0  0
  127.1440  125.3330   61.6660 C   0  0  0  0  0  0  0  0  0  0  0  0
  126.1340  124.7880   60.7110 C   0  0  0  0  0  0  0  0  0  0  0  0
  126.1400  125.1950   59.3720 C   0  0  0  0  0  0  0  0  0  0  0  0
  125.1930  124.6980   58.4780 C   0  0  0  0  0  0  0  0  0  0  0  0
  124.2330  123.7950   58.9230 C   0  0  0  0  0  0  0  0  0  0  0  0
  124.2080  123.3860   60.2550 C   0  0  0  0  0  0  0  0  0  0  0  0
  125.1550  123.8840   61.1450 C   0  0  0  0  0  0  0  0  0  0  0  0
  128.1390  124.5450   62.3000 C   0  0  0  0  0  0  0  0  0  0  0  0
  128.2600  123.1120   62.0080 C   0  0  0  0  0  0  0  0  0  0  0  0
  128.3550  121.9820   61.7770 N   0  0  0  0  0  0  0  0  0  0  0  0
  125.1061  122.4206   57.1708 H   0  0  0  0  0  0  0  0  0  0  0  0
  126.0034  123.0172   55.7336 H   0  0  0  0  0  0  0  0  0  0  0  0
  125.3060  121.3618   55.7336 H   0  0  0  0  0  0  0  0  0  0  0  0
  128.8097  122.5880   56.6923 H   0  0  0  0  0  0  0  0  0  0  0  0
  127.4270  123.6257   57.1820 H   0  0  0  0  0  0  0  0  0  0  0  0
  127.9193  123.2948   59.3721 H   0  0  0  0  0  0  0  0  0  0  0  0
  127.7843  121.5177   59.1575 H   0  0  0  0  0  0  0  0  0  0  0  0
  130.5633  124.1615   58.6327 H   0  0  0  0  0  0  0  0  0  0  0  0
  129.6326  123.9630   60.1526 H   0  0  0  0  0  0  0  0  0  0  0  0
  131.3675  122.8229   61.2266 H   0  0  0  0  0  0  0  0  0  0  0  0
  132.0044  122.1278   59.7071 H   0  0  0  0  0  0  0  0  0  0  0  0
  134.0116  122.6616   60.1691 H   0  0  0  0  0  0  0  0  0  0  0  0
  134.5549  124.3211   59.7454 H   0  0  0  0  0  0  0  0  0  0  0  0
  134.5235  123.0815   62.3256 H   0  0  0  0  0  0  0  0  0  0  0  0
  134.9310  124.8097   61.8892 H   0  0  0  0  0  0  0  0  0  0  0  0
  132.1210  124.4430   62.1440 H   0  0  0  0  0  0  0  0  0  0  0  0
  131.7840  125.4791   65.5371 H   0  0  0  0  0  0  0  0  0  0  0  0
  131.4260  126.3687   63.9647 H   0  0  0  0  0  0  0  0  0  0  0  0
  127.9960  128.8423   64.2957 H   0  0  0  0  0  0  0  0  0  0  0  0
  128.8909  129.2094   62.7821 H   0  0  0  0  0  0  0  0  0  0  0  0
  127.0947  129.1935   62.7821 H   0  0  0  0  0  0  0  0  0  0  0  0
  126.3502  127.3458   61.4653 H   0  0  0  0  0  0  0  0  0  0  0  0
  126.8974  125.9122   59.0226 H   0  0  0  0  0  0  0  0  0  0  0  0
  125.2048  125.0183   57.4257 H   0  0  0  0  0  0  0  0  0  0  0  0
  123.4871  123.4003   58.2174 H   0  0  0  0  0  0  0  0  0  0  0  0
  123.4443  122.6738   60.6009 H   0  0  0  0  0  0  0  0  0  0  0  0
  125.1349  123.5655   62.1977 H   0  0  0  0  0  0  0  0  0  0  0  0
  1  2  1  0
  2  3  1  0
  3  4  1  0
  4  5  1  0
  5  6  1  0
  6  7  1  0
  7  8  1  0
  8  9  1  0
  9 10  1  0
 10 11  1  0
 11 12  1  0
 12 13  2  0
 12 14  1  0
 14 15  1  0
 15 16  1  0
 16 17  2  0
 17 18  1  0
 18 19  1  0
 18 20  2  0
 20 21  1  0
 21 22  1  0
 22 23  2  0
 23 24  1  0
 24 25  2  0
 25 26  1  0
 26 27  2  0
 21 28  2  0
 28 29  1  0
 29 30  3  0
 28 16  1  0
 27 22  1  0
  1 31  1  0
  1 32  1  0
  1 33  1  0
  3 34  1  0
  3 35  1  0
  4 36  1  0
  4 37  1  0
  6 38  1  0
  6 39  1  0
  7 40  1  0
  7 41  1  0
  9 42  1  0
  9 43  1  0
 10 44  1  0
 10 45  1  0
 11 46  1  0
 14 47  1  0
 14 48  1  0
 19 49  1  0
 19 50  1  0
 19 51  1  0
 20 52  1  0
 23 53  1  0
 24 54  1  0
 25 55  1  0
 26 56  1  0
 27 57  1  0
M  END
>  <Binding energies>  (1) 
[-6.38]

>  <Ligand effiencies>  (1) 
[-0.20580645161290323]

>  <Interactions>  (1) 
["V-B:PRO:540:CB:9857, V-A:ILE:369:CG2:3236, V-B:TYR:539:CE2:9848, V-B:PRO:540:N:9856, V-B:TYR:539:CZ:9849, V-B:PRO:540:CA:9855, V-B:MET:535:CE:9807, H-B:TYR:539:N:9842, H-B:ALA:541:N:9863, V-B:TYR:539:C:9839, V-B:ALA:541:CB:9864, V-B:GLU:543:CD:9880, V-A:ARG:545:CZ:4926, H-A:TYR:484:OH:4347, H-A:GLY:454:N:4049, V-A:GLU:543:CD:4908, V-A:ASP:366:CG:3212, H-A:ARG:545:NH1:4927, V-A:ILE:369:CD1:3238, V-A:ASP:366:CA:3209, V-B:ASP:366:CB:8183, H-A:ARG:545:NH2:4928, V-B:PRO:540:CD:9859, H-A:ARG:545:NE:4924, V-B:LEU:363:CA:8156, V-B:ASN:362:C:8143, V-B:LEU:363:CB:8158, V-B:TYR:531:CE2:9765, V-B:LEU:363:CD1:8160"]

$$$$
4aa_Grossjean_2025
     RDKit          3D

 45 47  0  0  0  0  0  0  0  0999 V2000
  130.2500  116.9310   59.9910 C   0  0  0  0  0  0  0  0  0  0  0  0
  131.3700  117.8860   59.5680 C   0  0  0  0  0  0  0  0  0  0  0  0
  132.3910  117.8840   60.5580 O   0  0  0  0  0  0  0  0  0  0  0  0
  132.7350  119.0230   61.2130 C   0  0  0  0  0  0  0  0  0  0  0  0
  133.7720  119.1410   61.8750 O   0  0  0  0  0  0  0  0  0  0  0  0
  131.7260  120.1240   61.0580 C   0  0  0  0  0  0  0  0  0  0  0  0
  132.0210  121.2080   60.2200 C   0  0  0  0  0  0  0  0  0  0  0  0
  131.1090  122.2480   60.0590 C   0  0  0  0  0  0  0  0  0  0  0  0
  129.8810  122.2210   60.7230 C   0  0  0  0  0  0  0  0  0  0  0  0
  129.0390  123.3260   60.4950 N   0  0  0  0  0  0  0  0  0  0  0  0
  127.7680  123.5540   60.9060 C   0  0  0  0  0  0  0  0  0  0  0  0
  127.0940  122.7510   61.5530 O   0  0  0  0  0  0  0  0  0  0  0  0
  127.2040  124.8450   60.5050 C   0  0  0  0  0  0  0  0  0  0  0  0
  126.6500  125.0970   58.8480 S   0  0  0  0  0  0  0  0  0  0  0  0
  126.2180  126.7560   59.1960 C   0  0  0  0  0  0  0  0  0  0  0  0
  125.6950  127.5590   58.2670 N   0  0  0  0  0  0  0  0  0  0  0  0
  125.4090  128.8220   58.6660 C   0  0  0  0  0  0  0  0  0  0  0  0
  124.8190  129.7200   57.5940 C   0  0  0  0  0  0  0  0  0  0  0  0
  125.6290  129.2960   59.9580 C   0  0  0  0  0  0  0  0  0  0  0  0
  126.1770  128.4510   60.9290 C   0  0  0  0  0  0  0  0  0  0  0  0
  126.3980  129.0130   62.3260 C   0  0  0  0  0  0  0  0  0  0  0  0
  126.4940  127.1190   60.5480 C   0  0  0  0  0  0  0  0  0  0  0  0
  127.0600  126.0110   61.2710 C   0  0  0  0  0  0  0  0  0  0  0  0
  127.4160  126.1070   62.5930 N   0  0  0  0  0  0  0  0  0  0  0  0
  129.5800  121.1430   61.5680 C   0  0  0  0  0  0  0  0  0  0  0  0
  130.4950  120.1050   61.7310 C   0  0  0  0  0  0  0  0  0  0  0  0
  130.1998  116.8882   61.0890 H   0  0  0  0  0  0  0  0  0  0  0  0
  129.2901  117.2928   59.5939 H   0  0  0  0  0  0  0  0  0  0  0  0
  130.4556  115.9260   59.5939 H   0  0  0  0  0  0  0  0  0  0  0  0
  131.7903  117.5559   58.6066 H   0  0  0  0  0  0  0  0  0  0  0  0
  130.9647  118.9029   59.4599 H   0  0  0  0  0  0  0  0  0  0  0  0
  132.9815  121.2375   59.6847 H   0  0  0  0  0  0  0  0  0  0  0  0
  131.3577  123.0963   59.4044 H   0  0  0  0  0  0  0  0  0  0  0  0
  129.4530  124.0490   59.9240 H   0  0  0  0  0  0  0  0  0  0  0  0
  124.2743  130.5491   58.0692 H   0  0  0  0  0  0  0  0  0  0  0  0
  125.6282  130.1240   56.9679 H   0  0  0  0  0  0  0  0  0  0  0  0
  124.1269  129.1377   56.9679 H   0  0  0  0  0  0  0  0  0  0  0  0
  125.3718  130.3344   60.2142 H   0  0  0  0  0  0  0  0  0  0  0  0
  126.1029  128.2625   63.0741 H   0  0  0  0  0  0  0  0  0  0  0  0
  127.4613  129.2627   62.4568 H   0  0  0  0  0  0  0  0  0  0  0  0
  125.7896  129.9200   62.4568 H   0  0  0  0  0  0  0  0  0  0  0  0
  128.3820  126.1750   62.8810 H   0  0  0  0  0  0  0  0  0  0  0  0
  126.7210  126.1100   63.3260 H   0  0  0  0  0  0  0  0  0  0  0  0
  128.6194  121.1169   62.1033 H   0  0  0  0  0  0  0  0  0  0  0  0
  130.2499  119.2622   62.3940 H   0  0  0  0  0  0  0  0  0  0  0  0
  1  2  1  0
  2  3  1  0
  3  4  1  0
  4  5  2  0
  4  6  1  0
  6  7  2  0
  7  8  1  0
  8  9  2  0
  9 10  1  0
 10 11  1  0
 11 12  2  0
 11 13  1  0
 13 14  1  0
 14 15  1  0
 15 16  2  0
 16 17  1  0
 17 18  1  0
 17 19  2  0
 19 20  1  0
 20 21  1  0
 20 22  2  0
 22 23  1  0
 23 24  1  0
  9 25  1  0
 25 26  2  0
 26  6  1  0
 23 13  2  0
 22 15  1  0
  1 27  1  0
  1 28  1  0
  1 29  1  0
  2 30  1  0
  2 31  1  0
  7 32  1  0
  8 33  1  0
 10 34  1  0
 18 35  1  0
 18 36  1  0
 18 37  1  0
 19 38  1  0
 21 39  1  0
 21 40  1  0
 21 41  1  0
 24 42  1  0
 24 43  1  0
 25 44  1  0
 26 45  1  0
M  END
>  <Binding energies>  (1) 
[-6.62]

>  <Ligand effiencies>  (1) 
[-0.22827586206896552]

>  <Interactions>  (1) 
["V-B:TYR:539:CE2:9848, V-B:TYR:539:CD2:9846, V-A:PRO:482:CG:4326, V-B:PRO:540:C:9853, V-A:LEU:475:CD1:4257, H-B:ALA:541:N:9863, H-B:TYR:531:OH:9767, V-B:ALA:541:CA:9862, V-B:TYR:539:C:9839, V-B:ALA:541:CB:9864, V-B:GLU:543:CD:9880, V-A:HIS:383:CE1:3392, H-B:GLU:543:OE2:9882, V-B:ASP:366:CB:8183, V-B:ASP:366:CA:8181, V-A:TYR:539:CE1:4875, V-B:ASP:366:CG:8184, V-B:VAL:344:CG1:7972, V-B:TYR:539:CB:9843, V-A:HIS:383:CD2:3391, V-B:TYR:539:CG:9844, H-B:GLU:543:OE1:9881, V-B:ASP:366:C:8179, H-A:HIS:383:NE2:3393, H-A:SER:385:OG:3409"]

$$$$
4ab_Grossjean_2025
     RDKit          3D

 42 44  0  0  0  0  0  0  0  0999 V2000
  124.6470  124.3780   57.5550 C   0  0  0  0  0  0  0  0  0  0  0  0
  125.4270  123.7020   56.5790 O   0  0  0  0  0  0  0  0  0  0  0  0
  126.3400  122.7650   56.9410 C   0  0  0  0  0  0  0  0  0  0  0  0
  126.4050  121.6440   56.4270 O   0  0  0  0  0  0  0  0  0  0  0  0
  127.2610  123.2260   58.0340 C   0  0  0  0  0  0  0  0  0  0  0  0
  126.8830  123.0340   59.3700 C   0  0  0  0  0  0  0  0  0  0  0  0
  127.7140  123.4520   60.4070 C   0  0  0  0  0  0  0  0  0  0  0  0
  128.9390  124.0590   60.1310 C   0  0  0  0  0  0  0  0  0  0  0  0
  129.6940  124.4480   61.2540 N   0  0  0  0  0  0  0  0  0  0  0  0
  129.3610  125.2470   62.2960 C   0  0  0  0  0  0  0  0  0  0  0  0
  128.2810  125.8290   62.4060 O   0  0  0  0  0  0  0  0  0  0  0  0
  130.4010  125.4100   63.3140 C   0  0  0  0  0  0  0  0  0  0  0  0
  132.0380  124.8200   63.0180 S   0  0  0  0  0  0  0  0  0  0  0  0
  132.5620  125.3320   64.6060 C   0  0  0  0  0  0  0  0  0  0  0  0
  133.8130  125.1500   65.0300 N   0  0  0  0  0  0  0  0  0  0  0  0
  134.0870  125.5900   66.2820 C   0  0  0  0  0  0  0  0  0  0  0  0
  135.5150  125.3690   66.7460 C   0  0  0  0  0  0  0  0  0  0  0  0
  133.1510  126.2050   67.1100 C   0  0  0  0  0  0  0  0  0  0  0  0
  131.8380  126.3930   66.6630 C   0  0  0  0  0  0  0  0  0  0  0  0
  130.8520  127.0680   67.6050 C   0  0  0  0  0  0  0  0  0  0  0  0
  131.5110  125.9410   65.3560 C   0  0  0  0  0  0  0  0  0  0  0  0
  130.2890  125.9670   64.5980 C   0  0  0  0  0  0  0  0  0  0  0  0
  129.1270  126.4970   65.1010 N   0  0  0  0  0  0  0  0  0  0  0  0
  129.3230  124.2600   58.7970 C   0  0  0  0  0  0  0  0  0  0  0  0
  128.4900  123.8440   57.7610 C   0  0  0  0  0  0  0  0  0  0  0  0
  124.9841  124.0858   58.5605 H   0  0  0  0  0  0  0  0  0  0  0  0
  124.7647  125.4645   57.4301 H   0  0  0  0  0  0  0  0  0  0  0  0
  123.5882  124.1071   57.4301 H   0  0  0  0  0  0  0  0  0  0  0  0
  125.9229  122.5496   59.6014 H   0  0  0  0  0  0  0  0  0  0  0  0
  127.4018  123.3022   61.4511 H   0  0  0  0  0  0  0  0  0  0  0  0
  130.6320  124.0770   61.2670 H   0  0  0  0  0  0  0  0  0  0  0  0
  135.5467  125.3641   67.8455 H   0  0  0  0  0  0  0  0  0  0  0  0
  135.8793  124.4038   66.3644 H   0  0  0  0  0  0  0  0  0  0  0  0
  136.1540  126.1789   66.3644 H   0  0  0  0  0  0  0  0  0  0  0  0
  133.4436  126.5429   68.1151 H   0  0  0  0  0  0  0  0  0  0  0  0
  131.1442  126.8680   68.6464 H   0  0  0  0  0  0  0  0  0  0  0  0
  130.8568  128.1531   67.4248 H   0  0  0  0  0  0  0  0  0  0  0  0
  129.8421  126.6709   67.4248 H   0  0  0  0  0  0  0  0  0  0  0  0
  128.2210  126.1350   64.8450 H   0  0  0  0  0  0  0  0  0  0  0  0
  129.1420  127.2760   65.7460 H   0  0  0  0  0  0  0  0  0  0  0  0
  130.2828  124.7466   58.5688 H   0  0  0  0  0  0  0  0  0  0  0  0
  128.7995  124.0019   56.7173 H   0  0  0  0  0  0  0  0  0  0  0  0
  1  2  1  0
  2  3  1  0
  3  4  2  0
  3  5  1  0
  5  6  2  0
  6  7  1  0
  7  8  2  0
  8  9  1  0
  9 10  1  0
 10 11  2  0
 10 12  1  0
 12 13  1  0
 13 14  1  0
 14 15  2  0
 15 16  1  0
 16 17  1  0
 16 18  2  0
 18 19  1  0
 19 20  1  0
 19 21  2  0
 21 22  1  0
 22 23  1  0
  8 24  1  0
 24 25  2  0
 25  5  1  0
 22 12  2  0
 21 14  1  0
  1 26  1  0
  1 27  1  0
  1 28  1  0
  6 29  1  0
  7 30  1  0
  9 31  1  0
 17 32  1  0
 17 33  1  0
 17 34  1  0
 18 35  1  0
 20 36  1  0
 20 37  1  0
 20 38  1  0
 23 39  1  0
 23 40  1  0
 24 41  1  0
 25 42  1  0
M  END
>  <Binding energies>  (1) 
[-7.35]

>  <Ligand effiencies>  (1) 
[-0.2625]

>  <Interactions>  (1) 
["V-B:PRO:540:CB:9857, V-B:PRO:540:N:9856, V-B:PRO:540:CA:9855, V-B:MET:535:CE:9807, H-B:TYR:539:N:9842, H-B:TYR:531:OH:9767, V-B:GLU:543:CD:9880, V-A:ARG:545:CD:4923, V-A:ARG:545:CZ:4926, V-A:GLY:453:CA:4043, V-A:ARG:545:CB:4921, V-A:GLY:453:C:4041, V-A:GLU:543:CB:4906, V-A:HIS:456:CE1:4069, V-A:ARG:545:CG:4922, V-A:GLY:454:CA:4048, H-A:TYR:484:OH:4347, H-A:GLY:454:N:4049, H-A:GLU:543:OE1:4909, V-A:GLU:543:CD:4908, H-B:GLU:543:OE2:9882, H-A:ARG:545:NH1:4927, H-A:ARG:545:NH2:4928, V-A:ILE:455:C:4051, H-A:ARG:545:NE:4924, V-B:TYR:531:CZ:9766, V-B:TYR:531:CE2:9765, V-B:LEU:363:CD1:8160, H-B:GLU:543:OE1:9881, V-A:GLY:454:C:4046, V-A:ILE:455:CA:4053"]

$$$$
4ac_Grossjean_2025
     RDKit          3D

 40 42  0  0  0  0  0  0  0  0999 V2000
  125.4520  122.0090   56.4400 C   0  0  0  0  0  0  0  0  0  0  0  0
  126.8630  121.9450   56.6170 O   0  0  0  0  0  0  0  0  0  0  0  0
  127.4210  122.4560   57.7720 C   0  0  0  0  0  0  0  0  0  0  0  0
  128.8060  122.3450   57.8960 C   0  0  0  0  0  0  0  0  0  0  0  0
  129.4580  122.8330   59.0250 C   0  0  0  0  0  0  0  0  0  0  0  0
  128.7310  123.4490   60.0450 C   0  0  0  0  0  0  0  0  0  0  0  0
  129.4730  123.8990   61.1530 N   0  0  0  0  0  0  0  0  0  0  0  0
  129.1740  124.8720   62.0470 C   0  0  0  0  0  0  0  0  0  0  0  0
  128.1580  125.5680   61.9930 O   0  0  0  0  0  0  0  0  0  0  0  0
  130.1580  125.0680   63.1150 C   0  0  0  0  0  0  0  0  0  0  0  0
  131.8340  124.5660   62.8870 S   0  0  0  0  0  0  0  0  0  0  0  0
  132.2650  125.1100   64.4920 C   0  0  0  0  0  0  0  0  0  0  0  0
  133.5070  124.9990   64.9650 N   0  0  0  0  0  0  0  0  0  0  0  0
  133.7080  125.4580   66.2240 C   0  0  0  0  0  0  0  0  0  0  0  0
  135.1270  125.3230   66.7430 C   0  0  0  0  0  0  0  0  0  0  0  0
  132.7050  126.0190   67.0140 C   0  0  0  0  0  0  0  0  0  0  0  0
  131.4020  126.1330   66.5140 C   0  0  0  0  0  0  0  0  0  0  0  0
  130.3430  126.7520   67.4140 C   0  0  0  0  0  0  0  0  0  0  0  0
  131.1550  125.6640   65.1960 C   0  0  0  0  0  0  0  0  0  0  0  0
  129.9660  125.6290   64.3870 C   0  0  0  0  0  0  0  0  0  0  0  0
  128.7610  126.1060   64.8370 N   0  0  0  0  0  0  0  0  0  0  0  0
  127.3370  123.5540   59.9340 C   0  0  0  0  0  0  0  0  0  0  0  0
  126.6880  123.0640   58.8030 C   0  0  0  0  0  0  0  0  0  0  0  0
  124.9597  122.0313   57.4235 H   0  0  0  0  0  0  0  0  0  0  0  0
  125.1937  122.9198   55.8799 H   0  0  0  0  0  0  0  0  0  0  0  0
  125.1123  121.1253   55.8799 H   0  0  0  0  0  0  0  0  0  0  0  0
  129.3883  121.8674   57.0942 H   0  0  0  0  0  0  0  0  0  0  0  0
  130.5498  122.7328   59.1136 H   0  0  0  0  0  0  0  0  0  0  0  0
  130.3690  123.4470   61.2690 H   0  0  0  0  0  0  0  0  0  0  0  0
  135.1168  125.3240   67.8430 H   0  0  0  0  0  0  0  0  0  0  0  0
  135.5615  124.3795   66.3812 H   0  0  0  0  0  0  0  0  0  0  0  0
  135.7317  126.1677   66.3812 H   0  0  0  0  0  0  0  0  0  0  0  0
  132.9374  126.3719   68.0296 H   0  0  0  0  0  0  0  0  0  0  0  0
  130.6174  126.5916   68.4671 H   0  0  0  0  0  0  0  0  0  0  0  0
  130.2762  127.8314   67.2128 H   0  0  0  0  0  0  0  0  0  0  0  0
  129.3697  126.2806   67.2128 H   0  0  0  0  0  0  0  0  0  0  0  0
  128.5420  126.1600   65.8210 H   0  0  0  0  0  0  0  0  0  0  0  0
  128.0490  126.4240   64.1930 H   0  0  0  0  0  0  0  0  0  0  0  0
  126.7554  124.0238   60.7409 H   0  0  0  0  0  0  0  0  0  0  0  0
  125.5950  123.1541   58.7175 H   0  0  0  0  0  0  0  0  0  0  0  0
  1  2  1  0
  2  3  1  0
  3  4  2  0
  4  5  1  0
  5  6  2  0
  6  7  1  0
  7  8  1  0
  8  9  2  0
  8 10  1  0
 10 11  1  0
 11 12  1  0
 12 13  2  0
 13 14  1  0
 14 15  1  0
 14 16  2  0
 16 17  1  0
 17 18  1  0
 17 19  2  0
 19 20  1  0
 20 21  1  0
  6 22  1  0
 22 23  2  0
 23  3  1  0
 20 10  2  0
 19 12  1  0
  1 24  1  0
  1 25  1  0
  1 26  1  0
  4 27  1  0
  5 28  1  0
  7 29  1  0
 15 30  1  0
 15 31  1  0
 15 32  1  0
 16 33  1  0
 18 34  1  0
 18 35  1  0
 18 36  1  0
 21 37  1  0
 21 38  1  0
 22 39  1  0
 23 40  1  0
M  END
>  <Binding energies>  (1) 
[-6.68]

>  <Ligand effiencies>  (1) 
[-0.2569230769230769]

>  <Interactions>  (1) 
["V-B:PRO:540:CB:9857, V-B:TYR:539:CE2:9848, V-B:PRO:540:N:9856, V-B:TYR:539:CZ:9849, V-B:TYR:539:CD2:9846, V-B:PRO:540:CA:9855, V-B:MET:535:CE:9807, H-B:TYR:539:N:9842, V-B:TYR:539:C:9839, V-B:GLU:543:CD:9880, V-A:ARG:545:CD:4923, V-A:ARG:545:CZ:4926, V-A:GLY:453:CA:4043, V-A:GLY:453:C:4041, V-A:HIS:456:CE1:4069, V-A:ARG:545:CG:4922, V-A:GLY:454:CA:4048, H-A:TYR:484:OH:4347, H-A:GLY:454:N:4049, H-A:GLU:543:OE1:4909, V-B:GLU:543:CG:9879, H-B:GLU:543:OE2:9882, V-A:TYR:484:CZ:4346, H-A:ARG:545:NH2:4928, V-A:ILE:455:C:4051, V-B:PRO:540:CD:9859, H-A:ARG:545:NE:4924, V-B:TYR:539:CG:9844, V-B:LEU:363:CD1:8160, H-B:GLU:543:OE1:9881, V-A:GLY:454:C:4046"]

$$$$
4ad_Grossjean_2025
     RDKit          3D

 36 38  0  0  0  0  0  0  0  0999 V2000
  124.8240  129.6960   58.5710 C   0  0  0  0  0  0  0  0  0  0  0  0
  124.9980  130.1290   60.0150 C   0  0  0  0  0  0  0  0  0  0  0  0
  124.4400  131.3170   60.4810 C   0  0  0  0  0  0  0  0  0  0  0  0
  124.6160  131.6970   61.8170 C   0  0  0  0  0  0  0  0  0  0  0  0
  123.9890  133.0040   62.2780 C   0  0  0  0  0  0  0  0  0  0  0  0
  125.3730  130.8370   62.6570 C   0  0  0  0  0  0  0  0  0  0  0  0
  125.7420  130.9140   64.0440 C   0  0  0  0  0  0  0  0  0  0  0  0
  125.3590  131.9610   64.8460 N   0  0  0  0  0  0  0  0  0  0  0  0
  126.5180  129.8320   64.4900 C   0  0  0  0  0  0  0  0  0  0  0  0
  127.0760  129.5990   65.8240 C   0  0  0  0  0  0  0  0  0  0  0  0
  127.2870  130.5410   66.5900 O   0  0  0  0  0  0  0  0  0  0  0  0
  127.3170  128.3010   66.1330 N   0  0  0  0  0  0  0  0  0  0  0  0
  127.8820  127.7480   67.2990 C   0  0  0  0  0  0  0  0  0  0  0  0
  128.9580  128.4510   67.8500 C   0  0  0  0  0  0  0  0  0  0  0  0
  129.5770  127.9920   69.0080 C   0  0  0  0  0  0  0  0  0  0  0  0
  129.1160  126.8310   69.6240 C   0  0  0  0  0  0  0  0  0  0  0  0
  128.0360  126.1290   69.0930 C   0  0  0  0  0  0  0  0  0  0  0  0
  127.4150  126.5860   67.9340 C   0  0  0  0  0  0  0  0  0  0  0  0
  126.8080  128.6780   63.1880 S   0  0  0  0  0  0  0  0  0  0  0  0
  125.8930  129.6490   62.0580 C   0  0  0  0  0  0  0  0  0  0  0  0
  125.7260  129.2840   60.7860 N   0  0  0  0  0  0  0  0  0  0  0  0
  124.4140  128.6757   58.5410 H   0  0  0  0  0  0  0  0  0  0  0  0
  124.1326  130.3841   58.0626 H   0  0  0  0  0  0  0  0  0  0  0  0
  125.7993  129.7143   58.0626 H   0  0  0  0  0  0  0  0  0  0  0  0
  123.8608  131.9570   59.7991 H   0  0  0  0  0  0  0  0  0  0  0  0
  123.9738  133.0357   63.3774 H   0  0  0  0  0  0  0  0  0  0  0  0
  124.5797  133.8492   61.8950 H   0  0  0  0  0  0  0  0  0  0  0  0
  122.9601  133.0723   61.8950 H   0  0  0  0  0  0  0  0  0  0  0  0
  124.7120  132.6680   64.5280 H   0  0  0  0  0  0  0  0  0  0  0  0
  125.7110  132.0550   65.7890 H   0  0  0  0  0  0  0  0  0  0  0  0
  127.0420  127.6200   65.4410 H   0  0  0  0  0  0  0  0  0  0  0  0
  129.3165  129.3712   67.3654 H   0  0  0  0  0  0  0  0  0  0  0  0
  130.4272  128.5437   69.4355 H   0  0  0  0  0  0  0  0  0  0  0  0
  129.6086  126.4654   70.5371 H   0  0  0  0  0  0  0  0  0  0  0  0
  127.6749  125.2157   69.5885 H   0  0  0  0  0  0  0  0  0  0  0  0
  126.5586  126.0369   67.5157 H   0  0  0  0  0  0  0  0  0  0  0  0
  1  2  1  0
  2  3  2  0
  3  4  1  0
  4  5  1  0
  4  6  2  0
  6  7  1  0
  7  8  1  0
  7  9  2  0
  9 10  1  0
 10 11  2  0
 10 12  1  0
 12 13  1  0
 13 14  2  0
 14 15  1  0
 15 16  2  0
 16 17  1  0
 17 18  2  0
  9 19  1  0
 19 20  1  0
 20 21  2  0
 21  2  1  0
 20  6  1  0
 18 13  1  0
  1 22  1  0
  1 23  1  0
  1 24  1  0
  3 25  1  0
  5 26  1  0
  5 27  1  0
  5 28  1  0
  8 29  1  0
  8 30  1  0
 12 31  1  0
 14 32  1  0
 15 33  1  0
 16 34  1  0
 17 35  1  0
 18 36  1  0
M  END
>  <Binding energies>  (1) 
[-6.05]

>  <Ligand effiencies>  (1) 
[-0.2520833333333333]

>  <Interactions>  (1) 
["V-B:GLU:543:CD:9880, V-B:GLU:543:CB:9878, V-A:GLU:543:CB:4906, H-B:TYR:484:OH:9319, V-A:HIS:456:CE1:4069, V-B:HIS:456:CE1:9041, V-B:TYR:484:CZ:9318, V-B:GLU:543:CG:9879, V-A:GLU:543:CD:4908, V-A:GLU:543:CG:4907, H-B:GLU:543:OE2:9882, V-B:GLU:543:C:9874, V-B:GLU:543:CA:9876, V-B:ASP:366:CB:8183, V-B:ASP:366:CA:8181, V-A:TYR:539:CE1:4875, V-B:ASP:366:CG:8184, V-B:ILE:369:CG2:8208, V-B:LEU:475:CD1:9229, V-B:GLY:454:CA:9020, V-B:ASP:366:C:8179, V-B:LEU:475:CG:9228, V-B:ILE:369:CD1:8210"]

$$$$
4ae_Grossjean_2025
     RDKit          3D

 38 40  0  0  0  0  0  0  0  0999 V2000
  127.4430  122.5510   57.6170 C   0  0  0  0  0  0  0  0  0  0  0  0
  127.0560  123.1220   58.9670 C   0  0  0  0  0  0  0  0  0  0  0  0
  125.7180  123.3150   59.3220 C   0  0  0  0  0  0  0  0  0  0  0  0
  125.4370  123.8530   60.5790 C   0  0  0  0  0  0  0  0  0  0  0  0
  126.4870  124.1820   61.4390 C   0  0  0  0  0  0  0  0  0  0  0  0
  127.8030  123.9560   61.0230 C   0  0  0  0  0  0  0  0  0  0  0  0
  128.8160  124.3260   61.9240 N   0  0  0  0  0  0  0  0  0  0  0  0
  129.6200  125.4190   61.8940 C   0  0  0  0  0  0  0  0  0  0  0  0
  129.5710  126.2820   61.0160 O   0  0  0  0  0  0  0  0  0  0  0  0
  130.5830  125.5190   62.9930 C   0  0  0  0  0  0  0  0  0  0  0  0
  132.2710  125.0710   62.7420 S   0  0  0  0  0  0  0  0  0  0  0  0
  132.6610  125.4190   64.4100 C   0  0  0  0  0  0  0  0  0  0  0  0
  133.8940  125.2610   64.8940 N   0  0  0  0  0  0  0  0  0  0  0  0
  134.0620  125.5600   66.2040 C   0  0  0  0  0  0  0  0  0  0  0  0
  135.4700  125.3670   66.7360 C   0  0  0  0  0  0  0  0  0  0  0  0
  133.0370  126.0120   67.0340 C   0  0  0  0  0  0  0  0  0  0  0  0
  131.7440  126.1770   66.5230 C   0  0  0  0  0  0  0  0  0  0  0  0
  130.6580  126.6690   67.4680 C   0  0  0  0  0  0  0  0  0  0  0  0
  131.5290  125.8710   65.1520 C   0  0  0  0  0  0  0  0  0  0  0  0
  130.3570  125.9220   64.3200 C   0  0  0  0  0  0  0  0  0  0  0  0
  129.1360  126.3270   64.7960 N   0  0  0  0  0  0  0  0  0  0  0  0
  128.0860  123.4360   59.7930 N   0  0  0  0  0  0  0  0  0  0  0  0
  128.0547  121.6484   57.7624 H   0  0  0  0  0  0  0  0  0  0  0  0
  126.5341  122.2912   57.0545 H   0  0  0  0  0  0  0  0  0  0  0  0
  128.0210  123.2990   57.0545 H   0  0  0  0  0  0  0  0  0  0  0  0
  124.9067  123.0496   58.6282 H   0  0  0  0  0  0  0  0  0  0  0  0
  124.3948  124.0168   60.8903 H   0  0  0  0  0  0  0  0  0  0  0  0
  126.2818  124.6130   62.4300 H   0  0  0  0  0  0  0  0  0  0  0  0
  128.9940  123.6580   62.6590 H   0  0  0  0  0  0  0  0  0  0  0  0
  135.4500  125.3697   67.8358 H   0  0  0  0  0  0  0  0  0  0  0  0
  135.8684  124.4059   66.3789 H   0  0  0  0  0  0  0  0  0  0  0  0
  136.1123  126.1855   66.3789 H   0  0  0  0  0  0  0  0  0  0  0  0
  133.2442  126.2390   68.0902 H   0  0  0  0  0  0  0  0  0  0  0  0
  130.9831  126.5217   68.5085 H   0  0  0  0  0  0  0  0  0  0  0  0
  130.4735  127.7386   67.2894 H   0  0  0  0  0  0  0  0  0  0  0  0
  129.7322  126.1024   67.2894 H   0  0  0  0  0  0  0  0  0  0  0  0
  128.3520  125.6930   64.8640 H   0  0  0  0  0  0  0  0  0  0  0  0
  128.9800  127.2790   65.0980 H   0  0  0  0  0  0  0  0  0  0  0  0
  1  2  1  0
  2  3  2  0
  3  4  1  0
  4  5  2  0
  5  6  1  0
  6  7  1  0
  7  8  1  0
  8  9  2  0
  8 10  1  0
 10 11  1  0
 11 12  1  0
 12 13  2  0
 13 14  1  0
 14 15  1  0
 14 16  2  0
 16 17  1  0
 17 18  1  0
 17 19  2  0
 19 20  1  0
 20 21  1  0
  6 22  2  0
 22  2  1  0
 20 10  2  0
 19 12  1  0
  1 23  1  0
  1 24  1  0
  1 25  1  0
  3 26  1  0
  4 27  1  0
  5 28  1  0
  7 29  1  0
 15 30  1  0
 15 31  1  0
 15 32  1  0
 16 33  1  0
 18 34  1  0
 18 35  1  0
 18 36  1  0
 21 37  1  0
 21 38  1  0
M  END
>  <Binding energies>  (1) 
[-6.39]

>  <Ligand effiencies>  (1) 
[-0.2556]

>  <Interactions>  (1) 
["V-B:PRO:540:CB:9857, V-B:PRO:540:N:9856, V-B:PRO:540:CA:9855, V-B:MET:535:CE:9807, V-B:TYR:539:C:9839, V-B:GLU:543:CD:9880, V-A:ARG:545:CD:4923, V-A:ARG:545:CZ:4926, V-A:GLY:453:CA:4043, V-A:ARG:545:CB:4921, V-A:GLY:453:C:4041, V-A:HIS:456:CE1:4069, V-A:ARG:545:CG:4922, V-A:GLY:454:CA:4048, H-A:TYR:484:OH:4347, H-A:GLY:454:N:4049, H-A:GLU:543:OE1:4909, V-A:GLU:543:CD:4908, H-B:GLU:543:OE2:9882, H-A:ARG:545:NH1:4927, H-A:ARG:545:NH2:4928, V-A:ILE:455:C:4051, H-A:ARG:545:NE:4924, H-B:GLU:543:OE1:9881, V-A:GLY:454:C:4046, V-A:ILE:455:CA:4053"]

$$$$
4af_Grossjean_2025
     RDKit          3D

 35 37  0  0  0  0  0  0  0  0999 V2000
  133.6970  125.3760   65.6800 C   0  0  0  0  0  0  0  0  0  0  0  0
  133.0580  124.8630   64.4020 C   0  0  0  0  0  0  0  0  0  0  0  0
  133.8170  124.6590   63.2520 C   0  0  0  0  0  0  0  0  0  0  0  0
  133.2050  124.1880   62.0840 C   0  0  0  0  0  0  0  0  0  0  0  0
  134.0750  123.9830   60.8540 C   0  0  0  0  0  0  0  0  0  0  0  0
  131.8080  123.9330   62.1240 C   0  0  0  0  0  0  0  0  0  0  0  0
  130.8800  123.4580   61.1320 C   0  0  0  0  0  0  0  0  0  0  0  0
  131.2720  123.1450   59.8550 N   0  0  0  0  0  0  0  0  0  0  0  0
  129.5590  123.3460   61.5930 C   0  0  0  0  0  0  0  0  0  0  0  0
  128.3680  122.9280   60.8530 C   0  0  0  0  0  0  0  0  0  0  0  0
  127.4310  122.3760   61.4320 O   0  0  0  0  0  0  0  0  0  0  0  0
  128.3810  123.2090   59.5270 N   0  0  0  0  0  0  0  0  0  0  0  0
  127.4280  122.9030   58.5370 C   0  0  0  0  0  0  0  0  0  0  0  0
  126.1100  123.3930   58.4950 C   0  0  0  0  0  0  0  0  0  0  0  0
  125.2580  122.9950   57.4630 C   0  0  0  0  0  0  0  0  0  0  0  0
  125.7430  122.1120   56.4970 C   0  0  0  0  0  0  0  0  0  0  0  0
  127.0070  121.6190   56.5200 N   0  0  0  0  0  0  0  0  0  0  0  0
  127.8230  122.0150   57.5290 C   0  0  0  0  0  0  0  0  0  0  0  0
  129.4320  123.8370   63.2850 S   0  0  0  0  0  0  0  0  0  0  0  0
  131.1450  124.1820   63.3630 C   0  0  0  0  0  0  0  0  0  0  0  0
  131.7240  124.6300   64.4770 N   0  0  0  0  0  0  0  0  0  0  0  0
  133.1705  124.9533   66.5484 H   0  0  0  0  0  0  0  0  0  0  0  0
  134.7540  125.0728   65.7088 H   0  0  0  0  0  0  0  0  0  0  0  0
  133.6295  126.4735   65.7088 H   0  0  0  0  0  0  0  0  0  0  0  0
  134.8969  124.8679   63.2614 H   0  0  0  0  0  0  0  0  0  0  0  0
  135.1014  123.7411   61.1671 H   0  0  0  0  0  0  0  0  0  0  0  0
  133.6705  123.1556   60.2525 H   0  0  0  0  0  0  0  0  0  0  0  0
  134.0825  124.9040   60.2525 H   0  0  0  0  0  0  0  0  0  0  0  0
  131.3340  123.8440   59.1280 H   0  0  0  0  0  0  0  0  0  0  0  0
  131.5160  122.1980   59.5980 H   0  0  0  0  0  0  0  0  0  0  0  0
  129.1850  123.7160   59.1880 H   0  0  0  0  0  0  0  0  0  0  0  0
  125.7526  124.0859   59.2710 H   0  0  0  0  0  0  0  0  0  0  0  0
  124.2251  123.3699   57.4123 H   0  0  0  0  0  0  0  0  0  0  0  0
  125.0719  121.8025   55.6822 H   0  0  0  0  0  0  0  0  0  0  0  0
  128.8484  121.6177   57.5566 H   0  0  0  0  0  0  0  0  0  0  0  0
  1  2  1  0
  2  3  2  0
  3  4  1  0
  4  5  1  0
  4  6  2  0
  6  7  1  0
  7  8  1  0
  7  9  2  0
  9 10  1  0
 10 11  2  0
 10 12  1  0
 12 13  1  0
 13 14  2  0
 14 15  1  0
 15 16  2  0
 16 17  1  0
 17 18  2  0
  9 19  1  0
 19 20  1  0
 20 21  2  0
 21  2  1  0
 20  6  1  0
 18 13  1  0
  1 22  1  0
  1 23  1  0
  1 24  1  0
  3 25  1  0
  5 26  1  0
  5 27  1  0
  5 28  1  0
  8 29  1  0
  8 30  1  0
 12 31  1  0
 14 32  1  0
 15 33  1  0
 16 34  1  0
 18 35  1  0
M  END
>  <Binding energies>  (1) 
[-6.29]

>  <Ligand effiencies>  (1) 
[-0.26208333333333333]

>  <Interactions>  (1) 
["V-B:PRO:540:CB:9857, V-B:TYR:539:CE2:9848, V-B:PRO:540:N:9856, V-B:TYR:539:CD2:9846, V-B:PRO:540:CA:9855, V-B:MET:535:CE:9807, H-B:TYR:539:N:9842, H-B:ALA:541:N:9863, V-B:TYR:539:C:9839, V-B:GLU:543:CD:9880, V-A:ARG:545:CD:4923, V-A:ARG:545:CZ:4926, V-A:GLY:453:CA:4043, V-A:GLY:453:C:4041, H-A:TYR:484:OH:4347, V-B:GLU:543:CG:9879, V-A:ASP:366:CG:3212, V-A:ILE:369:CD1:3238, V-A:ASP:366:CA:3209, V-B:TYR:539:CA:9841, V-B:PRO:540:CD:9859, V-B:TYR:539:CG:9844, V-B:LEU:363:CD1:8160"]

$$$$
4ag_Grossjean_2025
     RDKit          3D

 39 41  0  0  0  0  0  0  0  0999 V2000
  134.0430  122.7890   62.5130 C   0  0  0  0  0  0  0  0  0  0  0  0
  133.0510  123.6280   63.2980 C   0  0  0  0  0  0  0  0  0  0  0  0
  131.7170  123.7170   62.9020 C   0  0  0  0  0  0  0  0  0  0  0  0
  130.8190  124.4950   63.6410 C   0  0  0  0  0  0  0  0  0  0  0  0
  129.3740  124.5620   63.1700 C   0  0  0  0  0  0  0  0  0  0  0  0
  131.3150  125.1740   64.7860 C   0  0  0  0  0  0  0  0  0  0  0  0
  130.6870  126.0370   65.7490 C   0  0  0  0  0  0  0  0  0  0  0  0
  129.3540  126.3610   65.6850 N   0  0  0  0  0  0  0  0  0  0  0  0
  131.5560  126.5090   66.7430 C   0  0  0  0  0  0  0  0  0  0  0  0
  131.2540  127.3880   67.8720 C   0  0  0  0  0  0  0  0  0  0  0  0
  132.1450  127.9950   68.4710 O   0  0  0  0  0  0  0  0  0  0  0  0
  129.9540  127.4760   68.2250 N   0  0  0  0  0  0  0  0  0  0  0  0
  129.4230  128.3100   69.3020 C   0  0  0  0  0  0  0  0  0  0  0  0
  129.3900  127.6210   70.6610 C   0  0  0  0  0  0  0  0  0  0  0  0
  128.7600  126.3800   70.7970 C   0  0  0  0  0  0  0  0  0  0  0  0
  128.7510  125.7360   72.0320 C   0  0  0  0  0  0  0  0  0  0  0  0
  129.3810  126.3290   73.1240 C   0  0  0  0  0  0  0  0  0  0  0  0
  130.0240  127.5580   72.9920 C   0  0  0  0  0  0  0  0  0  0  0  0
  130.0340  128.2010   71.7570 C   0  0  0  0  0  0  0  0  0  0  0  0
  133.1890  125.8820   66.5150 S   0  0  0  0  0  0  0  0  0  0  0  0
  132.7000  125.0000   65.0850 C   0  0  0  0  0  0  0  0  0  0  0  0
  133.5590  124.2590   64.3840 N   0  0  0  0  0  0  0  0  0  0  0  0
  134.6921  122.2400   63.2110 H   0  0  0  0  0  0  0  0  0  0  0  0
  133.4979  122.0737   61.8796 H   0  0  0  0  0  0  0  0  0  0  0  0
  134.6579  123.4453   61.8796 H   0  0  0  0  0  0  0  0  0  0  0  0
  131.3708  123.1759   62.0091 H   0  0  0  0  0  0  0  0  0  0  0  0
  128.7050  124.5930   64.0426 H   0  0  0  0  0  0  0  0  0  0  0  0
  129.2277  125.4679   62.5634 H   0  0  0  0  0  0  0  0  0  0  0  0
  129.1445  123.6735   62.5634 H   0  0  0  0  0  0  0  0  0  0  0  0
  128.6330  125.6550   65.7110 H   0  0  0  0  0  0  0  0  0  0  0  0
  129.0510  127.3230   65.6140 H   0  0  0  0  0  0  0  0  0  0  0  0
  129.2720  126.9970   67.6560 H   0  0  0  0  0  0  0  0  0  0  0  0
  130.0514  129.2090   69.3852 H   0  0  0  0  0  0  0  0  0  0  0  0
  128.3810  128.5443   69.0387 H   0  0  0  0  0  0  0  0  0  0  0  0
  128.2718  125.9126   69.9291 H   0  0  0  0  0  0  0  0  0  0  0  0
  128.2489  124.7638   72.1446 H   0  0  0  0  0  0  0  0  0  0  0  0
  129.3707  125.8219   74.1001 H   0  0  0  0  0  0  0  0  0  0  0  0
  130.5211  128.0179   73.8588 H   0  0  0  0  0  0  0  0  0  0  0  0
  130.5493  129.1663   71.6441 H   0  0  0  0  0  0  0  0  0  0  0  0
  1  2  1  0
  2  3  2  0
  3  4  1  0
  4  5  1  0
  4  6  2  0
  6  7  1  0
  7  8  1  0
  7  9  2  0
  9 10  1  0
 10 11  2  0
 10 12  1  0
 12 13  1  0
 13 14  1  0
 14 15  2  0
 15 16  1  0
 16 17  2  0
 17 18  1  0
 18 19  2  0
  9 20  1  0
 20 21  1  0
 21 22  2  0
 22  2  1  0
 21  6  1  0
 19 14  1  0
  1 23  1  0
  1 24  1  0
  1 25  1  0
  3 26  1  0
  5 27  1  0
  5 28  1  0
  5 29  1  0
  8 30  1  0
  8 31  1  0
 12 32  1  0
 13 33  1  0
 13 34  1  0
 15 35  1  0
 16 36  1  0
 17 37  1  0
 18 38  1  0
 19 39  1  0
M  END
>  <Binding energies>  (1) 
[-6.65]

>  <Ligand effiencies>  (1) 
[-0.266]

>  <Interactions>  (1) 
["V-B:GLU:543:CD:9880, V-A:ARG:545:CD:4923, V-A:ARG:545:CZ:4926, V-A:GLY:453:C:4041, V-A:GLU:543:CB:4906, V-A:HIS:456:CE1:4069, V-A:ARG:545:CG:4922, V-B:HIS:456:CE1:9041, V-A:GLY:454:CA:4048, H-A:TYR:484:OH:4347, H-A:GLY:454:N:4049, V-A:GLU:543:C:4902, H-A:GLU:543:OE1:4909, V-A:GLU:543:CD:4908, H-B:GLU:543:OE2:9882, V-A:ILE:369:CD1:3238, V-B:HIS:456:CD2:9039, H-A:HIS:456:ND1:4066"]

$$$$
4ah_Grossjean_2025
     RDKit          3D

 51 53  0  0  0  0  0  0  0  0999 V2000
  132.6500  127.2530   74.3330 C   0  0  0  0  0  0  0  0  0  0  0  0
  131.2910  127.6730   74.2960 O   0  0  0  0  0  0  0  0  0  0  0  0
  130.4600  127.1960   73.2980 C   0  0  0  0  0  0  0  0  0  0  0  0
  130.2260  127.8650   72.0860 C   0  0  0  0  0  0  0  0  0  0  0  0
  129.3720  127.3230   71.1240 C   0  0  0  0  0  0  0  0  0  0  0  0
  129.1660  128.0410   69.7950 C   0  0  0  0  0  0  0  0  0  0  0  0
  129.7210  127.3220   68.6490 N   0  0  0  0  0  0  0  0  0  0  0  0
  130.9890  127.4280   68.1990 C   0  0  0  0  0  0  0  0  0  0  0  0
  131.8120  128.1930   68.7040 O   0  0  0  0  0  0  0  0  0  0  0  0
  131.3270  126.6060   67.0370 C   0  0  0  0  0  0  0  0  0  0  0  0
  132.9940  126.0910   66.7700 S   0  0  0  0  0  0  0  0  0  0  0  0
  132.5510  125.2760   65.2870 C   0  0  0  0  0  0  0  0  0  0  0  0
  133.4470  124.6260   64.5440 N   0  0  0  0  0  0  0  0  0  0  0  0
  132.9740  124.0360   63.4200 C   0  0  0  0  0  0  0  0  0  0  0  0
  134.0110  123.3040   62.5880 C   0  0  0  0  0  0  0  0  0  0  0  0
  131.6390  124.0800   63.0260 C   0  0  0  0  0  0  0  0  0  0  0  0
  130.7000  124.7650   63.8060 C   0  0  0  0  0  0  0  0  0  0  0  0
  129.2540  124.7850   63.3340 C   0  0  0  0  0  0  0  0  0  0  0  0
  131.1590  125.3990   64.9920 C   0  0  0  0  0  0  0  0  0  0  0  0
  130.4870  126.1730   66.0010 C   0  0  0  0  0  0  0  0  0  0  0  0
  129.1440  126.4450   65.9440 N   0  0  0  0  0  0  0  0  0  0  0  0
  128.7660  126.0890   71.3590 C   0  0  0  0  0  0  0  0  0  0  0  0
  128.9770  125.4000   72.5630 C   0  0  0  0  0  0  0  0  0  0  0  0
  128.3980  124.1810   72.8680 O   0  0  0  0  0  0  0  0  0  0  0  0
  129.1670  122.9900   72.7370 C   0  0  0  0  0  0  0  0  0  0  0  0
  129.8220  125.9680   73.5270 C   0  0  0  0  0  0  0  0  0  0  0  0
  130.0530  125.2960   74.7040 O   0  0  0  0  0  0  0  0  0  0  0  0
  131.2000  124.4580   74.6760 C   0  0  0  0  0  0  0  0  0  0  0  0
  132.9744  127.1527   75.3793 H   0  0  0  0  0  0  0  0  0  0  0  0
  132.7479  126.2827   73.8242 H   0  0  0  0  0  0  0  0  0  0  0  0
  133.2783  127.9989   73.8242 H   0  0  0  0  0  0  0  0  0  0  0  0
  130.7216  128.8277   71.8922 H   0  0  0  0  0  0  0  0  0  0  0  0
  128.0857  128.1712   69.6339 H   0  0  0  0  0  0  0  0  0  0  0  0
  129.6978  129.0016   69.8615 H   0  0  0  0  0  0  0  0  0  0  0  0
  129.1280  126.6160   68.2390 H   0  0  0  0  0  0  0  0  0  0  0  0
  134.7260  122.7993   63.2544 H   0  0  0  0  0  0  0  0  0  0  0  0
  133.5114  122.5573   61.9533 H   0  0  0  0  0  0  0  0  0  0  0  0
  134.5472  124.0248   61.9533 H   0  0  0  0  0  0  0  0  0  0  0  0
  131.3221  123.5760   62.1010 H   0  0  0  0  0  0  0  0  0  0  0  0
  128.5837  124.7943   64.2061 H   0  0  0  0  0  0  0  0  0  0  0  0
  129.0788  125.6857   62.7273 H   0  0  0  0  0  0  0  0  0  0  0  0
  129.0539  123.8895   62.7273 H   0  0  0  0  0  0  0  0  0  0  0  0
  128.4480  125.7330   66.1090 H   0  0  0  0  0  0  0  0  0  0  0  0
  128.8060  127.3730   65.7280 H   0  0  0  0  0  0  0  0  0  0  0  0
  128.1136  125.6498   70.5899 H   0  0  0  0  0  0  0  0  0  0  0  0
  129.4168  122.6031   73.7360 H   0  0  0  0  0  0  0  0  0  0  0  0
  128.5846  122.2362   72.1869 H   0  0  0  0  0  0  0  0  0  0  0  0
  130.0937  123.2105   72.1869 H   0  0  0  0  0  0  0  0  0  0  0  0
  131.5125  124.2297   75.7057 H   0  0  0  0  0  0  0  0  0  0  0  0
  130.9579  123.5226   74.1503 H   0  0  0  0  0  0  0  0  0  0  0  0
  132.0176  124.9730   74.1503 H   0  0  0  0  0  0  0  0  0  0  0  0
  1  2  1  0
  2  3  1  0
  3  4  2  0
  4  5  1  0
  5  6  1  0
  6  7  1  0
  7  8  1  0
  8  9  2  0
  8 10  1  0
 10 11  1  0
 11 12  1  0
 12 13  2  0
 13 14  1  0
 14 15  1  0
 14 16  2  0
 16 17  1  0
 17 18  1  0
 17 19  2  0
 19 20  1  0
 20 21  1  0
  5 22  2  0
 22 23  1  0
 23 24  1  0
 24 25  1  0
 23 26  2  0
 26 27  1  0
 27 28  1  0
 26  3  1  0
 20 10  2  0
 19 12  1  0
  1 29  1  0
  1 30  1  0
  1 31  1  0
  4 32  1  0
  6 33  1  0
  6 34  1  0
  7 35  1  0
 15 36  1  0
 15 37  1  0
 15 38  1  0
 16 39  1  0
 18 40  1  0
 18 41  1  0
 18 42  1  0
 21 43  1  0
 21 44  1  0
 22 45  1  0
 25 46  1  0
 25 47  1  0
 25 48  1  0
 28 49  1  0
 28 50  1  0
 28 51  1  0
M  END
>  <Binding energies>  (1) 
[-6.51]

>  <Ligand effiencies>  (1) 
[-0.21]

>  <Interactions>  (1) 
["V-B:GLU:543:CD:9880, V-A:ARG:545:CD:4923, V-A:ARG:545:CZ:4926, V-A:GLY:453:C:4041, V-A:GLU:543:CB:4906, V-A:HIS:456:CE1:4069, V-A:ARG:545:CG:4922, V-B:HIS:456:CE1:9041, V-A:GLY:454:CA:4048, H-A:TYR:484:OH:4347, H-A:GLY:454:N:4049, H-A:GLU:543:OE1:4909, V-B:GLU:543:CG:9879, V-A:GLU:543:CD:4908, H-B:GLU:543:OE2:9882, V-B:GLU:543:C:9874, V-B:HIS:456:CD2:9039, V-A:LYS:547:CE:4950, H-A:HIS:456:ND1:4066, V-A:TYR:484:CB:4340, V-A:LYS:547:CD:4949, V-A:TYR:484:CG:4341, V-A:TYR:484:CD2:4343, V-A:HIS:456:CG:4065, V-A:HIS:456:CB:4064, V-A:HIS:456:CD2:4067, H-B:LYS:547:NZ:9923, H-A:LYS:547:NZ:4951"]

$$$$
4ai_Grossjean_2025
     RDKit          3D

 32 34  0  0  0  0  0  0  0  0999 V2000
  135.6000  124.2710   61.8700 C   0  0  0  0  0  0  0  0  0  0  0  0
  134.3610  123.4660   61.5200 C   0  0  0  0  0  0  0  0  0  0  0  0
  134.3380  122.0810   61.6780 C   0  0  0  0  0  0  0  0  0  0  0  0
  133.1840  121.3590   61.3540 C   0  0  0  0  0  0  0  0  0  0  0  0
  133.2070  119.8500   61.5460 C   0  0  0  0  0  0  0  0  0  0  0  0
  132.0620  122.0850   60.8680 C   0  0  0  0  0  0  0  0  0  0  0  0
  130.7490  121.6740   60.4510 C   0  0  0  0  0  0  0  0  0  0  0  0
  130.3550  120.3590   60.4620 N   0  0  0  0  0  0  0  0  0  0  0  0
  129.9210  122.7320   60.0450 C   0  0  0  0  0  0  0  0  0  0  0  0
  128.5430  122.6750   59.5560 C   0  0  0  0  0  0  0  0  0  0  0  0
  127.6340  122.2680   60.2810 O   0  0  0  0  0  0  0  0  0  0  0  0
  128.3590  123.1110   58.2840 N   0  0  0  0  0  0  0  0  0  0  0  0
  127.1650  123.1760   57.5780 C   0  0  0  0  0  0  0  0  0  0  0  0
  126.5670  122.0630   56.9890 C   0  0  0  0  0  0  0  0  0  0  0  0
  125.4230  122.5430   56.3930 C   0  0  0  0  0  0  0  0  0  0  0  0
  125.3360  123.8760   56.6130 O   0  0  0  0  0  0  0  0  0  0  0  0
  126.4450  124.2660   57.3660 N   0  0  0  0  0  0  0  0  0  0  0  0
  130.7690  124.2780   60.1470 S   0  0  0  0  0  0  0  0  0  0  0  0
  132.2140  123.4990   60.7520 C   0  0  0  0  0  0  0  0  0  0  0  0
  133.3130  124.1900   61.0580 N   0  0  0  0  0  0  0  0  0  0  0  0
  135.6987  124.3351   62.9637 H   0  0  0  0  0  0  0  0  0  0  0  0
  136.4887  123.7774   61.4499 H   0  0  0  0  0  0  0  0  0  0  0  0
  135.5101  125.2837   61.4499 H   0  0  0  0  0  0  0  0  0  0  0  0
  135.2270  121.5558   62.0573 H   0  0  0  0  0  0  0  0  0  0  0  0
  133.2105  119.6172   62.6211 H   0  0  0  0  0  0  0  0  0  0  0  0
  132.3155  119.4072   61.0779 H   0  0  0  0  0  0  0  0  0  0  0  0
  134.1116  119.4346   61.0779 H   0  0  0  0  0  0  0  0  0  0  0  0
  129.3830  120.0930   60.4050 H   0  0  0  0  0  0  0  0  0  0  0  0
  131.0300  119.6100   60.5340 H   0  0  0  0  0  0  0  0  0  0  0  0
  129.1750  123.4360   57.7870 H   0  0  0  0  0  0  0  0  0  0  0  0
  126.9309  121.0250   56.9985 H   0  0  0  0  0  0  0  0  0  0  0  0
  124.6962  121.9404   55.8286 H   0  0  0  0  0  0  0  0  0  0  0  0
  1  2  1  0
  2  3  2  0
  3  4  1  0
  4  5  1  0
  4  6  2  0
  6  7  1  0
  7  8  1  0
  7  9  2  0
  9 10  1  0
 10 11  2  0
 10 12  1  0
 12 13  1  0
 13 14  1  0
 14 15  2  0
 15 16  1  0
 16 17  1  0
  9 18  1  0
 18 19  1  0
 19 20  2  0
 20  2  1  0
 19  6  1  0
 17 13  2  0
  1 21  1  0
  1 22  1  0
  1 23  1  0
  3 24  1  0
  5 25  1  0
  5 26  1  0
  5 27  1  0
  8 28  1  0
  8 29  1  0
 12 30  1  0
 14 31  1  0
 15 32  1  0
M  END
>  <Binding energies>  (1) 
[-6.27]

>  <Ligand effiencies>  (1) 
[-0.2726086956521739]

>  <Interactions>  (1) 
["V-B:PRO:540:CB:9857, V-A:ILE:369:CG2:3236, V-B:TYR:539:CE2:9848, V-B:PRO:540:N:9856, V-B:TYR:539:CD2:9846, V-B:PRO:540:CA:9855, V-B:MET:535:CE:9807, V-A:LEU:475:CD1:4257, H-B:ALA:541:N:9863, H-B:TYR:531:OH:9767, V-B:TYR:539:C:9839, V-A:GLY:453:CA:4043, V-A:GLY:453:C:4041, V-A:GLY:454:CA:4048, V-A:ASP:366:CG:3212, V-A:ILE:369:CD1:3238, V-B:PRO:540:CD:9859, V-B:TYR:531:CE2:9765, V-B:LEU:363:CD1:8160, H-B:TYR:539:O:9840, H-B:TYR:539:OH:9850"]

$$$$
4aj_Grossjean_2025
     RDKit          3D

 32 34  0  0  0  0  0  0  0  0999 V2000
  135.5940  124.2610   61.8780 C   0  0  0  0  0  0  0  0  0  0  0  0
  134.4010  123.3940   61.5200 C   0  0  0  0  0  0  0  0  0  0  0  0
  134.4690  122.0060   61.6160 C   0  0  0  0  0  0  0  0  0  0  0  0
  133.3580  121.2250   61.2760 C   0  0  0  0  0  0  0  0  0  0  0  0
  133.4830  119.7140   61.3960 C   0  0  0  0  0  0  0  0  0  0  0  0
  132.1840  121.8960   60.8400 C   0  0  0  0  0  0  0  0  0  0  0  0
  130.8930  121.4180   60.4220 C   0  0  0  0  0  0  0  0  0  0  0  0
  130.5860  120.0830   60.3790 N   0  0  0  0  0  0  0  0  0  0  0  0
  129.9950  122.4380   60.0730 C   0  0  0  0  0  0  0  0  0  0  0  0
  128.6150  122.3130   59.5980 C   0  0  0  0  0  0  0  0  0  0  0  0
  127.7040  122.0260   60.3780 O   0  0  0  0  0  0  0  0  0  0  0  0
  128.4310  122.5460   58.2750 N   0  0  0  0  0  0  0  0  0  0  0  0
  127.2300  122.5050   57.5800 C   0  0  0  0  0  0  0  0  0  0  0  0
  126.7890  121.5520   56.7870 N   0  0  0  0  0  0  0  0  0  0  0  0
  125.6000  121.8430   56.2960 C   0  0  0  0  0  0  0  0  0  0  0  0
  125.0520  123.0610   56.6900 C   0  0  0  0  0  0  0  0  0  0  0  0
  126.1620  123.8580   57.7650 S   0  0  0  0  0  0  0  0  0  0  0  0
  130.7390  124.0290   60.2410 S   0  0  0  0  0  0  0  0  0  0  0  0
  132.2420  123.3220   60.7890 C   0  0  0  0  0  0  0  0  0  0  0  0
  133.2980  124.0690   61.1110 N   0  0  0  0  0  0  0  0  0  0  0  0
  135.6843  124.3266   62.9723 H   0  0  0  0  0  0  0  0  0  0  0  0
  136.5092  123.8158   61.4606 H   0  0  0  0  0  0  0  0  0  0  0  0
  135.4532  125.2689   61.4606 H   0  0  0  0  0  0  0  0  0  0  0  0
  135.3960  121.5234   61.9591 H   0  0  0  0  0  0  0  0  0  0  0  0
  133.5064  119.4313   62.4588 H   0  0  0  0  0  0  0  0  0  0  0  0
  132.6214  119.2349   60.9080 H   0  0  0  0  0  0  0  0  0  0  0  0
  134.4116  119.3830   60.9080 H   0  0  0  0  0  0  0  0  0  0  0  0
  131.2910  119.3770   60.2240 H   0  0  0  0  0  0  0  0  0  0  0  0
  129.6360  119.7580   60.5010 H   0  0  0  0  0  0  0  0  0  0  0  0
  129.2470  122.7800   57.7290 H   0  0  0  0  0  0  0  0  0  0  0  0
  125.0709  121.1617   55.6135 H   0  0  0  0  0  0  0  0  0  0  0  0
  124.0753  123.4550   56.3726 H   0  0  0  0  0  0  0  0  0  0  0  0
  1  2  1  0
  2  3  2  0
  3  4  1  0
  4  5  1  0
  4  6  2  0
  6  7  1  0
  7  8  1  0
  7  9  2  0
  9 10  1  0
 10 11  2  0
 10 12  1  0
 12 13  1  0
 13 14  2  0
 14 15  1  0
 15 16  2  0
 16 17  1  0
  9 18  1  0
 18 19  1  0
 19 20  2  0
 20  2  1  0
 19  6  1  0
 17 13  1  0
  1 21  1  0
  1 22  1  0
  1 23  1  0
  3 24  1  0
  5 25  1  0
  5 26  1  0
  5 27  1  0
  8 28  1  0
  8 29  1  0
 12 30  1  0
 15 31  1  0
 16 32  1  0
M  END
>  <Binding energies>  (1) 
[-6.17]

>  <Ligand effiencies>  (1) 
[-0.2682608695652174]

>  <Interactions>  (1) 
["V-B:PRO:540:CB:9857, V-A:ILE:369:CG2:3236, V-B:TYR:539:CE2:9848, V-B:PRO:540:N:9856, V-B:TYR:539:CD2:9846, V-B:PRO:540:CA:9855, V-B:MET:535:CE:9807, H-B:TYR:539:N:9842, V-A:LEU:475:CD1:4257, H-B:ALA:541:N:9863, V-A:SER:385:C:3404, V-B:TYR:539:C:9839, V-A:GLY:453:CA:4043, V-A:GLY:453:C:4041, V-A:ASP:366:CG:3212, V-A:ILE:369:CD1:3238, V-B:PRO:540:CD:9859, V-B:TYR:531:CE2:9765, V-B:LEU:363:CD1:8160, H-B:TYR:539:O:9840, H-B:TYR:539:OH:9850, V-B:ILE:538:CG2:9835"]

$$$$
4ak_Grossjean_2025
     RDKit          3D

 50 51  0  0  0  0  0  0  0  0999 V2000
  127.8910  123.3830   62.5660 C   0  0  0  0  0  0  0  0  0  0  0  0
  127.1120  122.4580   61.8240 O   0  0  0  0  0  0  0  0  0  0  0  0
  125.7200  122.7510   61.8370 C   0  0  0  0  0  0  0  0  0  0  0  0
  125.3960  123.7420   60.7120 C   0  0  0  0  0  0  0  0  0  0  0  0
  126.5540  123.9410   59.9120 O   0  0  0  0  0  0  0  0  0  0  0  0
  126.6460  125.2430   59.3490 C   0  0  0  0  0  0  0  0  0  0  0  0
  125.6480  125.3670   58.1920 C   0  0  0  0  0  0  0  0  0  0  0  0
  126.0050  124.4540   57.1630 O   0  0  0  0  0  0  0  0  0  0  0  0
  125.3950  123.1770   57.2910 C   0  0  0  0  0  0  0  0  0  0  0  0
  126.4830  122.0870   57.2530 C   0  0  0  0  0  0  0  0  0  0  0  0
  127.6040  122.3470   58.1550 N   0  0  0  0  0  0  0  0  0  0  0  0
  128.8060  122.8330   57.7860 C   0  0  0  0  0  0  0  0  0  0  0  0
  129.0680  123.1320   56.6200 O   0  0  0  0  0  0  0  0  0  0  0  0
  129.7900  122.9970   58.8550 C   0  0  0  0  0  0  0  0  0  0  0  0
  131.0760  124.1940   58.7060 S   0  0  0  0  0  0  0  0  0  0  0  0
  131.7180  123.7680   60.2760 C   0  0  0  0  0  0  0  0  0  0  0  0
  132.7960  124.3680   60.7840 N   0  0  0  0  0  0  0  0  0  0  0  0
  133.1910  123.9420   62.0090 C   0  0  0  0  0  0  0  0  0  0  0  0
  134.4180  124.6370   62.5700 C   0  0  0  0  0  0  0  0  0  0  0  0
  132.5410  122.9420   62.7290 C   0  0  0  0  0  0  0  0  0  0  0  0
  131.4100  122.3150   62.1930 C   0  0  0  0  0  0  0  0  0  0  0  0
  130.7370  121.2270   63.0160 C   0  0  0  0  0  0  0  0  0  0  0  0
  130.9660  122.7340   60.9100 C   0  0  0  0  0  0  0  0  0  0  0  0
  129.8680  122.3170   60.0810 C   0  0  0  0  0  0  0  0  0  0  0  0
  128.9870  121.3380   60.4670 N   0  0  0  0  0  0  0  0  0  0  0  0
  127.7429  123.2072   63.6417 H   0  0  0  0  0  0  0  0  0  0  0  0
  128.9540  123.2509   62.3158 H   0  0  0  0  0  0  0  0  0  0  0  0
  127.5800  124.4080   62.3158 H   0  0  0  0  0  0  0  0  0  0  0  0
  125.1486  121.8235   61.6846 H   0  0  0  0  0  0  0  0  0  0  0  0
  125.4475  123.1943   62.8061 H   0  0  0  0  0  0  0  0  0  0  0  0
  124.5843  123.3380   60.0892 H   0  0  0  0  0  0  0  0  0  0  0  0
  125.0796  124.7017   61.1467 H   0  0  0  0  0  0  0  0  0  0  0  0
  126.4115  125.9933   60.1184 H   0  0  0  0  0  0  0  0  0  0  0  0
  127.6666  125.4110   58.9746 H   0  0  0  0  0  0  0  0  0  0  0  0
  124.6355  125.1350   58.5539 H   0  0  0  0  0  0  0  0  0  0  0  0
  125.6681  126.3934   57.7968 H   0  0  0  0  0  0  0  0  0  0  0  0
  124.8536  123.1226   58.2470 H   0  0  0  0  0  0  0  0  0  0  0  0
  124.6884  123.0214   56.4624 H   0  0  0  0  0  0  0  0  0  0  0  0
  126.0244  121.1279   57.5357 H   0  0  0  0  0  0  0  0  0  0  0  0
  126.8886  122.0716   56.2306 H   0  0  0  0  0  0  0  0  0  0  0  0
  127.4520  122.1280   59.1300 H   0  0  0  0  0  0  0  0  0  0  0  0
  134.3809  124.6160   63.6692 H   0  0  0  0  0  0  0  0  0  0  0  0
  135.3239  124.1179   62.2237 H   0  0  0  0  0  0  0  0  0  0  0  0
  134.4386  125.6809   62.2237 H   0  0  0  0  0  0  0  0  0  0  0  0
  132.9167  122.6450   63.7192 H   0  0  0  0  0  0  0  0  0  0  0  0
  130.8699  121.4419   64.0866 H   0  0  0  0  0  0  0  0  0  0  0  0
  129.6634  121.1986   62.7783 H   0  0  0  0  0  0  0  0  0  0  0  0
  131.1910  120.2537   62.7783 H   0  0  0  0  0  0  0  0  0  0  0  0
  128.0750  121.5580   60.8400 H   0  0  0  0  0  0  0  0  0  0  0  0
  129.2230  120.3590   60.3860 H   0  0  0  0  0  0  0  0  0  0  0  0
  1  2  1  0
  2  3  1  0
  3  4  1  0
  4  5  1  0
  5  6  1  0
  6  7  1  0
  7  8  1  0
  8  9  1  0
  9 10  1  0
 10 11  1  0
 11 12  1  0
 12 13  2  0
 12 14  1  0
 14 15  1  0
 15 16  1  0
 16 17  2  0
 17 18  1  0
 18 19  1  0
 18 20  2  0
 20 21  1  0
 21 22  1  0
 21 23  2  0
 23 24  1  0
 24 25  1  0
 24 14  2  0
 23 16  1  0
  1 26  1  0
  1 27  1  0
  1 28  1  0
  3 29  1  0
  3 30  1  0
  4 31  1  0
  4 32  1  0
  6 33  1  0
  6 34  1  0
  7 35  1  0
  7 36  1  0
  9 37  1  0
  9 38  1  0
 10 39  1  0
 10 40  1  0
 11 41  1  0
 19 42  1  0
 19 43  1  0
 19 44  1  0
 20 45  1  0
 22 46  1  0
 22 47  1  0
 22 48  1  0
 25 49  1  0
 25 50  1  0
M  END
>  <Binding energies>  (1) 
[-4.87]

>  <Ligand effiencies>  (1) 
[-0.17392857142857143]

>  <Interactions>  (1) 
["V-B:PRO:540:CB:9857, V-B:TYR:539:CE2:9848, V-B:PRO:540:N:9856, V-B:TYR:539:CZ:9849, V-B:TYR:539:CD2:9846, V-B:PRO:540:CA:9855, V-B:PRO:540:C:9853, V-B:MET:535:CE:9807, V-A:LEU:475:CD1:4257, H-B:ALA:541:N:9863, H-B:TYR:531:OH:9767, V-B:TYR:539:C:9839, V-B:ALA:541:CB:9864, V-B:GLU:543:CD:9880, V-A:ARG:545:CZ:4926, V-A:GLY:453:CA:4043, V-A:GLY:453:C:4041, V-B:GLU:543:CG:9879, V-A:ASP:366:CG:3212, V-B:ASP:366:CB:8183, V-B:PRO:540:CD:9859, V-B:TYR:531:CZ:9766, V-B:TYR:531:CE2:9765, V-B:LEU:363:CD1:8160, H-B:TYR:539:O:9840, H-B:TYR:539:OH:9850"]

$$$$
4al_Grossjean_2025
     RDKit          3D

 28 29  0  0  0  0  0  0  0  0999 V2000
  130.9990  117.3560   60.3850 C   0  0  0  0  0  0  0  0  0  0  0  0
  131.8640  118.2500   59.7010 O   0  0  0  0  0  0  0  0  0  0  0  0
  132.9710  118.7500   60.3080 C   0  0  0  0  0  0  0  0  0  0  0  0
  134.0930  118.2460   60.2180 O   0  0  0  0  0  0  0  0  0  0  0  0
  132.6950  119.9710   61.0960 C   0  0  0  0  0  0  0  0  0  0  0  0
  134.0110  120.7940   61.9370 S   0  0  0  0  0  0  0  0  0  0  0  0
  132.9130  122.0080   62.5520 C   0  0  0  0  0  0  0  0  0  0  0  0
  133.3310  123.0080   63.3290 N   0  0  0  0  0  0  0  0  0  0  0  0
  132.3790  123.8830   63.7390 C   0  0  0  0  0  0  0  0  0  0  0  0
  132.8770  125.0120   64.6230 C   0  0  0  0  0  0  0  0  0  0  0  0
  131.0340  123.7810   63.3920 C   0  0  0  0  0  0  0  0  0  0  0  0
  130.5980  122.7320   62.5760 C   0  0  0  0  0  0  0  0  0  0  0  0
  129.1200  122.6640   62.2250 C   0  0  0  0  0  0  0  0  0  0  0  0
  131.5680  121.7950   62.1270 C   0  0  0  0  0  0  0  0  0  0  0  0
  131.4740  120.6260   61.2980 C   0  0  0  0  0  0  0  0  0  0  0  0
  130.2890  120.1970   60.7580 N   0  0  0  0  0  0  0  0  0  0  0  0
  131.1230  117.4842   61.4704 H   0  0  0  0  0  0  0  0  0  0  0  0
  129.9564  117.5701   60.1073 H   0  0  0  0  0  0  0  0  0  0  0  0
  131.2473  116.3210   60.1073 H   0  0  0  0  0  0  0  0  0  0  0  0
  132.7535  124.7321   65.6796 H   0  0  0  0  0  0  0  0  0  0  0  0
  133.9409  125.1985   64.4150 H   0  0  0  0  0  0  0  0  0  0  0  0
  132.2974  125.9235   64.4150 H   0  0  0  0  0  0  0  0  0  0  0  0
  130.3137  124.5264   63.7602 H   0  0  0  0  0  0  0  0  0  0  0  0
  128.5245  122.6366   63.1494 H   0  0  0  0  0  0  0  0  0  0  0  0
  128.8419  123.5503   61.6358 H   0  0  0  0  0  0  0  0  0  0  0  0
  128.9245  121.7559   61.6358 H   0  0  0  0  0  0  0  0  0  0  0  0
  130.2530  119.6780   59.8920 H   0  0  0  0  0  0  0  0  0  0  0  0
  129.4050  120.3870   61.2110 H   0  0  0  0  0  0  0  0  0  0  0  0
  1  2  1  0
  2  3  1  0
  3  4  2  0
  3  5  1  0
  5  6  1  0
  6  7  1  0
  7  8  2  0
  8  9  1  0
  9 10  1  0
  9 11  2  0
 11 12  1  0
 12 13  1  0
 12 14  2  0
 14 15  1  0
 15 16  1  0
 15  5  2  0
 14  7  1  0
  1 17  1  0
  1 18  1  0
  1 19  1  0
 10 20  1  0
 10 21  1  0
 10 22  1  0
 11 23  1  0
 13 24  1  0
 13 25  1  0
 13 26  1  0
 16 27  1  0
 16 28  1  0
M  END
>  <Binding energies>  (1) 
[-5.15]

>  <Ligand effiencies>  (1) 
[-0.28611111111111115]

>  <Interactions>  (1) 
["V-A:ILE:369:CG2:3236, V-B:TYR:539:CD2:9846, V-A:PRO:482:CG:4326, V-A:LEU:475:CD1:4257, V-A:SER:385:C:3404, V-B:TYR:539:C:9839, V-B:ALA:541:CB:9864, V-A:ARG:545:CZ:4926, V-A:GLY:454:CA:4048, V-A:HIS:383:CE1:3392, H-A:TYR:484:OH:4347, H-A:GLY:454:N:4049, V-A:ILE:369:CD1:3238, V-A:HIS:383:CD2:3391, H-B:TYR:539:O:9840, H-A:HIS:383:NE2:3393, H-A:SER:385:OG:3409"]

$$$$
4ba_Grossjean_2025
     RDKit          3D

 44 46  0  0  0  0  0  0  0  0999 V2000
  134.4080  120.6620   61.8250 C   0  0  0  0  0  0  0  0  0  0  0  0
  134.0830  119.3580   61.0730 C   0  0  0  0  0  0  0  0  0  0  0  0
  132.5860  118.9900   61.0160 C   0  0  0  0  0  0  0  0  0  0  0  0
  132.2490  117.8060   61.0750 O   0  0  0  0  0  0  0  0  0  0  0  0
  131.5970  120.1130   60.8960 C   0  0  0  0  0  0  0  0  0  0  0  0
  131.8820  121.1940   60.0520 C   0  0  0  0  0  0  0  0  0  0  0  0
  130.9830  122.2480   59.9230 C   0  0  0  0  0  0  0  0  0  0  0  0
  129.7800  122.2430   60.6300 C   0  0  0  0  0  0  0  0  0  0  0  0
  128.9490  123.3630   60.4320 N   0  0  0  0  0  0  0  0  0  0  0  0
  127.6790  123.5910   60.8480 C   0  0  0  0  0  0  0  0  0  0  0  0
  126.9990  122.7750   61.4720 O   0  0  0  0  0  0  0  0  0  0  0  0
  127.1260  124.8970   60.4820 C   0  0  0  0  0  0  0  0  0  0  0  0
  126.5360  125.1830   58.8470 S   0  0  0  0  0  0  0  0  0  0  0  0
  126.1470  126.8440   59.2280 C   0  0  0  0  0  0  0  0  0  0  0  0
  125.6210  127.6600   58.3160 N   0  0  0  0  0  0  0  0  0  0  0  0
  125.3630  128.9220   58.7280 C   0  0  0  0  0  0  0  0  0  0  0  0
  124.7720  129.8380   57.6710 C   0  0  0  0  0  0  0  0  0  0  0  0
  125.6120  129.3820   60.0180 C   0  0  0  0  0  0  0  0  0  0  0  0
  126.1660  128.5260   60.9840 C   0  0  0  0  0  0  0  0  0  0  0  0
  126.4200  129.0770   62.3910 C   0  0  0  0  0  0  0  0  0  0  0  0
  125.8060  128.3740   63.3450 F   0  0  0  0  0  0  0  0  0  0  0  0
  127.7260  129.0550   62.6570 F   0  0  0  0  0  0  0  0  0  0  0  0
  125.9750  130.3320   62.4710 F   0  0  0  0  0  0  0  0  0  0  0  0
  126.4550  127.1890   60.5790 C   0  0  0  0  0  0  0  0  0  0  0  0
  127.0240  126.0560   61.2690 C   0  0  0  0  0  0  0  0  0  0  0  0
  127.4240  126.1130   62.5800 N   0  0  0  0  0  0  0  0  0  0  0  0
  129.4890  121.1670   61.4820 C   0  0  0  0  0  0  0  0  0  0  0  0
  130.3900  120.1130   61.6110 C   0  0  0  0  0  0  0  0  0  0  0  0
  134.3629  120.4811   62.9091 H   0  0  0  0  0  0  0  0  0  0  0  0
  135.4181  121.0010   61.5515 H   0  0  0  0  0  0  0  0  0  0  0  0
  133.6751  121.4354   61.5515 H   0  0  0  0  0  0  0  0  0  0  0  0
  134.4481  119.4603   60.0404 H   0  0  0  0  0  0  0  0  0  0  0  0
  134.5754  118.5503   61.6344 H   0  0  0  0  0  0  0  0  0  0  0  0
  132.8251  121.2097   59.4861 H   0  0  0  0  0  0  0  0  0  0  0  0
  131.2223  123.0915   59.2588 H   0  0  0  0  0  0  0  0  0  0  0  0
  129.3710  124.0960   59.8820 H   0  0  0  0  0  0  0  0  0  0  0  0
  124.2379  130.6658   58.1603 H   0  0  0  0  0  0  0  0  0  0  0  0
  125.5797  130.2428   57.0435 H   0  0  0  0  0  0  0  0  0  0  0  0
  124.0703  129.2690   57.0435 H   0  0  0  0  0  0  0  0  0  0  0  0
  125.3733  130.4227   60.2826 H   0  0  0  0  0  0  0  0  0  0  0  0
  126.7950  125.9030   63.3410 H   0  0  0  0  0  0  0  0  0  0  0  0
  128.3670  126.3760   62.8300 H   0  0  0  0  0  0  0  0  0  0  0  0
  128.5468  121.1559   62.0495 H   0  0  0  0  0  0  0  0  0  0  0  0
  130.1530  119.2725   62.2799 H   0  0  0  0  0  0  0  0  0  0  0  0
  1  2  1  0
  2  3  1  0
  3  4  2  0
  3  5  1  0
  5  6  2  0
  6  7  1  0
  7  8  2  0
  8  9  1  0
  9 10  1  0
 10 11  2  0
 10 12  1  0
 12 13  1  0
 13 14  1  0
 14 15  2  0
 15 16  1  0
 16 17  1  0
 16 18  2  0
 18 19  1  0
 19 20  1  0
 20 21  1  0
 20 22  1  0
 20 23  1  0
 19 24  2  0
 24 25  1  0
 25 26  1  0
  8 27  1  0
 27 28  2  0
 28  5  1  0
 25 12  2  0
 24 14  1  0
  1 29  1  0
  1 30  1  0
  1 31  1  0
  2 32  1  0
  2 33  1  0
  6 34  1  0
  7 35  1  0
  9 36  1  0
 17 37  1  0
 17 38  1  0
 17 39  1  0
 18 40  1  0
 26 41  1  0
 26 42  1  0
 27 43  1  0
 28 44  1  0
M  END
>  <Binding energies>  (1) 
[-6.36]

>  <Ligand effiencies>  (1) 
[-0.20516129032258065]

>  <Interactions>  (1) 
["V-A:ILE:369:CG2:3236, V-B:TYR:539:CE2:9848, V-B:TYR:539:CD2:9846, V-B:PRO:540:C:9853, V-A:LEU:475:CD1:4257, H-B:ALA:541:N:9863, V-A:SER:385:CB:3408, H-B:TYR:531:OH:9767, V-B:ALA:541:CA:9862, V-A:SER:385:CA:3406, V-A:SER:385:C:3404, V-B:ALA:541:CB:9864, V-B:GLU:543:CD:9880, V-B:ARG:545:CZ:9898, V-A:GLY:454:CA:4048, H-B:GLU:543:OE2:9882, V-A:ILE:369:CD1:3238, V-B:ASP:366:CB:8183, V-B:ASP:366:CA:8181, V-A:TYR:539:CE1:4875, V-B:ASP:366:CG:8184, V-A:TYR:539:CZ:4877, H-B:GLU:543:OE1:9881, V-B:ASP:366:C:8179, H-A:HIS:383:NE2:3393, H-A:SER:385:OG:3409"]

$$$$
4bb_Grossjean_2025
     RDKit          3D

 41 43  0  0  0  0  0  0  0  0999 V2000
  125.1410  123.4790   56.5610 C   0  0  0  0  0  0  0  0  0  0  0  0
  126.3220  122.5990   56.9780 C   0  0  0  0  0  0  0  0  0  0  0  0
  126.5700  121.6010   56.2990 O   0  0  0  0  0  0  0  0  0  0  0  0
  127.1060  122.9920   58.1940 C   0  0  0  0  0  0  0  0  0  0  0  0
  128.3930  122.4720   58.3790 C   0  0  0  0  0  0  0  0  0  0  0  0
  129.1420  122.8190   59.5000 C   0  0  0  0  0  0  0  0  0  0  0  0
  128.6230  123.6980   60.4520 C   0  0  0  0  0  0  0  0  0  0  0  0
  129.4630  123.9800   61.5470 N   0  0  0  0  0  0  0  0  0  0  0  0
  129.5860  123.3430   62.7380 C   0  0  0  0  0  0  0  0  0  0  0  0
  128.9120  122.3700   63.0740 O   0  0  0  0  0  0  0  0  0  0  0  0
  130.5790  123.9130   63.6510 C   0  0  0  0  0  0  0  0  0  0  0  0
  132.2930  123.5700   63.4250 S   0  0  0  0  0  0  0  0  0  0  0  0
  132.7160  124.5120   64.8360 C   0  0  0  0  0  0  0  0  0  0  0  0
  133.9830  124.6520   65.2230 N   0  0  0  0  0  0  0  0  0  0  0  0
  134.1850  125.4030   66.3300 C   0  0  0  0  0  0  0  0  0  0  0  0
  135.6350  125.5520   66.7540 C   0  0  0  0  0  0  0  0  0  0  0  0
  133.1610  126.0110   67.0520 C   0  0  0  0  0  0  0  0  0  0  0  0
  131.8250  125.8660   66.6480 C   0  0  0  0  0  0  0  0  0  0  0  0
  130.7330  126.5540   67.4750 C   0  0  0  0  0  0  0  0  0  0  0  0
  129.7730  127.0970   66.7220 F   0  0  0  0  0  0  0  0  0  0  0  0
  130.1520  125.6650   68.2810 F   0  0  0  0  0  0  0  0  0  0  0  0
  131.2670  127.5300   68.2070 F   0  0  0  0  0  0  0  0  0  0  0  0
  131.5760  125.0800   65.4840 C   0  0  0  0  0  0  0  0  0  0  0  0
  130.3690  124.7150   64.7850 C   0  0  0  0  0  0  0  0  0  0  0  0
  129.1250  125.1250   65.1930 N   0  0  0  0  0  0  0  0  0  0  0  0
  127.3310  124.2180   60.2770 C   0  0  0  0  0  0  0  0  0  0  0  0
  126.5830  123.8670   59.1560 C   0  0  0  0  0  0  0  0  0  0  0  0
  124.6316  123.8586   57.4590 H   0  0  0  0  0  0  0  0  0  0  0  0
  125.5080  124.3256   55.9622 H   0  0  0  0  0  0  0  0  0  0  0  0
  124.4347  122.8852   55.9622 H   0  0  0  0  0  0  0  0  0  0  0  0
  128.8157  121.7836   57.6323 H   0  0  0  0  0  0  0  0  0  0  0  0
  130.1490  122.3979   59.6364 H   0  0  0  0  0  0  0  0  0  0  0  0
  130.0440  124.7960   61.4220 H   0  0  0  0  0  0  0  0  0  0  0  0
  135.6971  125.5584   67.8522 H   0  0  0  0  0  0  0  0  0  0  0  0
  136.2211  124.7094   66.3585 H   0  0  0  0  0  0  0  0  0  0  0  0
  136.0375  126.4962   66.3585 H   0  0  0  0  0  0  0  0  0  0  0  0
  133.4008  126.6083   67.9440 H   0  0  0  0  0  0  0  0  0  0  0  0
  128.6530  124.7020   65.9810 H   0  0  0  0  0  0  0  0  0  0  0  0
  128.6340  125.8700   64.7170 H   0  0  0  0  0  0  0  0  0  0  0  0
  126.9088  124.9037   61.0264 H   0  0  0  0  0  0  0  0  0  0  0  0
  125.5722  124.2804   59.0243 H   0  0  0  0  0  0  0  0  0  0  0  0
  1  2  1  0
  2  3  2  0
  2  4  1  0
  4  5  2  0
  5  6  1  0
  6  7  2  0
  7  8  1  0
  8  9  1  0
  9 10  2  0
  9 11  1  0
 11 12  1  0
 12 13  1  0
 13 14  2  0
 14 15  1  0
 15 16  1  0
 15 17  2  0
 17 18  1  0
 18 19  1  0
 19 20  1  0
 19 21  1  0
 19 22  1  0
 18 23  2  0
 23 24  1  0
 24 25  1  0
  7 26  1  0
 26 27  2  0
 27  4  1  0
 24 11  2  0
 23 13  1  0
  1 28  1  0
  1 29  1  0
  1 30  1  0
  5 31  1  0
  6 32  1  0
  8 33  1  0
 16 34  1  0
 16 35  1  0
 16 36  1  0
 17 37  1  0
 25 38  1  0
 25 39  1  0
 26 40  1  0
 27 41  1  0
M  END
>  <Binding energies>  (1) 
[-6.43]

>  <Ligand effiencies>  (1) 
[-0.21433333333333332]

>  <Interactions>  (1) 
["V-B:PRO:540:CB:9857, V-B:TYR:539:CE2:9848, V-B:PRO:540:N:9856, V-B:TYR:539:CD2:9846, V-B:PRO:540:CA:9855, V-B:MET:535:CE:9807, H-B:TYR:539:N:9842, H-B:ALA:541:N:9863, V-B:TYR:539:C:9839, V-B:GLU:543:CD:9880, V-A:ARG:545:CD:4923, V-A:ARG:545:CZ:4926, V-A:GLY:453:CA:4043, V-B:GLU:543:CB:9878, V-A:ARG:545:CB:4921, V-A:GLY:453:C:4041, V-A:GLU:543:CB:4906, V-A:HIS:456:CE1:4069, V-A:ARG:545:CG:4922, H-A:TYR:484:OH:4347, H-A:GLY:454:N:4049, H-A:GLU:543:OE1:4909, V-B:GLU:543:CG:9879, V-A:GLU:543:CD:4908, H-B:GLU:543:OE2:9882, V-A:TYR:484:CE2:4345, V-A:TYR:484:CZ:4346, V-A:ILE:455:C:4051, V-B:TYR:531:CZ:9766, V-B:TYR:531:CE2:9765, V-B:LEU:363:CD1:8160, V-A:ILE:455:CA:4053, V-A:VAL:452:CG2:4039"]

$$$$
4bc_Grossjean_2025
     RDKit          3D

 40 42  0  0  0  0  0  0  0  0999 V2000
  125.4680  122.0400   56.4250 C   0  0  0  0  0  0  0  0  0  0  0  0
  126.8730  121.9310   56.6260 O   0  0  0  0  0  0  0  0  0  0  0  0
  127.4310  122.4480   57.7800 C   0  0  0  0  0  0  0  0  0  0  0  0
  128.8190  122.3730   57.8870 C   0  0  0  0  0  0  0  0  0  0  0  0
  129.4710  122.8680   59.0140 C   0  0  0  0  0  0  0  0  0  0  0  0
  128.7400  123.4530   60.0480 C   0  0  0  0  0  0  0  0  0  0  0  0
  129.4820  123.9100   61.1530 N   0  0  0  0  0  0  0  0  0  0  0  0
  129.2260  124.9460   61.9890 C   0  0  0  0  0  0  0  0  0  0  0  0
  128.2610  125.7030   61.8690 O   0  0  0  0  0  0  0  0  0  0  0  0
  130.1920  125.1320   63.0760 C   0  0  0  0  0  0  0  0  0  0  0  0
  131.8770  124.6670   62.8540 S   0  0  0  0  0  0  0  0  0  0  0  0
  132.2790  125.1770   64.4760 C   0  0  0  0  0  0  0  0  0  0  0  0
  133.5210  125.0730   64.9500 N   0  0  0  0  0  0  0  0  0  0  0  0
  133.7090  125.4990   66.2200 C   0  0  0  0  0  0  0  0  0  0  0  0
  135.1310  125.3770   66.7390 C   0  0  0  0  0  0  0  0  0  0  0  0
  132.6960  126.0210   67.0210 C   0  0  0  0  0  0  0  0  0  0  0  0
  131.3870  126.1320   66.5270 C   0  0  0  0  0  0  0  0  0  0  0  0
  130.3050  126.7100   67.4470 C   0  0  0  0  0  0  0  0  0  0  0  0
  129.3510  127.3650   66.7820 F   0  0  0  0  0  0  0  0  0  0  0  0
  129.7160  125.7240   68.1230 F   0  0  0  0  0  0  0  0  0  0  0  0
  130.8540  127.5680   68.3070 F   0  0  0  0  0  0  0  0  0  0  0  0
  131.1540  125.6930   65.1900 C   0  0  0  0  0  0  0  0  0  0  0  0
  129.9740  125.6570   64.3590 C   0  0  0  0  0  0  0  0  0  0  0  0
  128.7500  126.0980   64.7930 N   0  0  0  0  0  0  0  0  0  0  0  0
  127.3410  123.5200   59.9540 C   0  0  0  0  0  0  0  0  0  0  0  0
  126.6930  123.0240   58.8260 C   0  0  0  0  0  0  0  0  0  0  0  0
  124.9601  122.0794   57.3999 H   0  0  0  0  0  0  0  0  0  0  0  0
  125.2486  122.9579   55.8599 H   0  0  0  0  0  0  0  0  0  0  0  0
  125.1096  121.1670   55.8599 H   0  0  0  0  0  0  0  0  0  0  0  0
  129.4046  121.9188   57.0741 H   0  0  0  0  0  0  0  0  0  0  0  0
  130.5662  122.7973   59.0889 H   0  0  0  0  0  0  0  0  0  0  0  0
  130.3410  123.4060   61.3170 H   0  0  0  0  0  0  0  0  0  0  0  0
  135.1212  125.3778   67.8390 H   0  0  0  0  0  0  0  0  0  0  0  0
  135.5741  124.4375   66.3770 H   0  0  0  0  0  0  0  0  0  0  0  0
  135.7277  126.2273   66.3770 H   0  0  0  0  0  0  0  0  0  0  0  0
  132.9232  126.3480   68.0464 H   0  0  0  0  0  0  0  0  0  0  0  0
  128.4820  126.0610   65.7660 H   0  0  0  0  0  0  0  0  0  0  0  0
  128.0720  126.4800   64.1480 H   0  0  0  0  0  0  0  0  0  0  0  0
  126.7561  123.9649   60.7725 H   0  0  0  0  0  0  0  0  0  0  0  0
  125.5970  123.0838   58.7540 H   0  0  0  0  0  0  0  0  0  0  0  0
  1  2  1  0
  2  3  1  0
  3  4  2  0
  4  5  1  0
  5  6  2  0
  6  7  1  0
  7  8  1  0
  8  9  2  0
  8 10  1  0
 10 11  1  0
 11 12  1  0
 12 13  2  0
 13 14  1  0
 14 15  1  0
 14 16  2  0
 16 17  1  0
 17 18  1  0
 18 19  1  0
 18 20  1  0
 18 21  1  0
 17 22  2  0
 22 23  1  0
 23 24  1  0
  6 25  1  0
 25 26  2  0
 26  3  1  0
 23 10  2  0
 22 12  1  0
  1 27  1  0
  1 28  1  0
  1 29  1  0
  4 30  1  0
  5 31  1  0
  7 32  1  0
 15 33  1  0
 15 34  1  0
 15 35  1  0
 16 36  1  0
 24 37  1  0
 24 38  1  0
 25 39  1  0
 26 40  1  0
M  END
>  <Binding energies>  (1) 
[-6.42]

>  <Ligand effiencies>  (1) 
[-0.22137931034482758]

>  <Interactions>  (1) 
["V-B:PRO:540:CB:9857, V-B:TYR:539:CE2:9848, V-B:PRO:540:N:9856, V-B:TYR:539:CZ:9849, V-B:TYR:539:CD2:9846, V-B:PRO:540:CA:9855, V-B:MET:535:CE:9807, H-B:TYR:539:N:9842, V-B:TYR:539:C:9839, V-B:GLU:543:CD:9880, V-A:ARG:545:CD:4923, V-A:ARG:545:CZ:4926, V-A:GLY:453:CA:4043, V-B:GLU:543:CB:9878, V-A:GLY:453:C:4041, V-A:GLU:543:CB:4906, V-A:HIS:456:CE1:4069, V-A:ARG:545:CG:4922, V-A:GLY:454:CA:4048, H-A:TYR:484:OH:4347, H-A:GLY:454:N:4049, H-A:GLU:543:OE1:4909, V-B:GLU:543:CG:9879, V-A:GLU:543:CD:4908, H-B:GLU:543:OE2:9882, V-A:TYR:484:CE2:4345, V-A:TYR:484:CZ:4346, H-A:ARG:545:NH2:4928, V-A:ILE:455:C:4051, V-B:PRO:540:CD:9859, H-A:ARG:545:NE:4924, V-B:TYR:539:CG:9844, V-B:LEU:363:CD1:8160, H-B:GLU:543:OE1:9881, V-B:TYR:539:CE1:9847"]

$$$$
4bd_Grossjean_2025
     RDKit          3D

 36 38  0  0  0  0  0  0  0  0999 V2000
  133.7280  125.3870   65.7540 C   0  0  0  0  0  0  0  0  0  0  0  0
  133.0730  124.8720   64.4860 C   0  0  0  0  0  0  0  0  0  0  0  0
  133.8230  124.6210   63.3400 C   0  0  0  0  0  0  0  0  0  0  0  0
  133.2030  124.1470   62.1730 C   0  0  0  0  0  0  0  0  0  0  0  0
  134.0700  123.8890   60.9360 C   0  0  0  0  0  0  0  0  0  0  0  0
  133.6520  124.5560   59.8580 F   0  0  0  0  0  0  0  0  0  0  0  0
  135.3250  124.2660   61.1770 F   0  0  0  0  0  0  0  0  0  0  0  0
  134.0490  122.5910   60.6340 F   0  0  0  0  0  0  0  0  0  0  0  0
  131.7930  123.9380   62.2220 C   0  0  0  0  0  0  0  0  0  0  0  0
  130.8350  123.4720   61.2500 C   0  0  0  0  0  0  0  0  0  0  0  0
  131.1910  123.1110   59.9760 N   0  0  0  0  0  0  0  0  0  0  0  0
  129.5130  123.4230   61.7230 C   0  0  0  0  0  0  0  0  0  0  0  0
  128.3000  123.0190   61.0060 C   0  0  0  0  0  0  0  0  0  0  0  0
  127.4000  122.4100   61.5860 O   0  0  0  0  0  0  0  0  0  0  0  0
  128.2530  123.3740   59.6980 N   0  0  0  0  0  0  0  0  0  0  0  0
  127.2640  123.1060   58.7330 C   0  0  0  0  0  0  0  0  0  0  0  0
  127.6680  122.3330   57.6410 C   0  0  0  0  0  0  0  0  0  0  0  0
  126.7600  122.0050   56.6380 C   0  0  0  0  0  0  0  0  0  0  0  0
  125.4420  122.4440   56.7300 C   0  0  0  0  0  0  0  0  0  0  0  0
  125.0230  123.2030   57.8200 C   0  0  0  0  0  0  0  0  0  0  0  0
  125.9290  123.5330   58.8250 C   0  0  0  0  0  0  0  0  0  0  0  0
  129.4170  123.9500   63.4020 S   0  0  0  0  0  0  0  0  0  0  0  0
  131.1410  124.2350   63.4590 C   0  0  0  0  0  0  0  0  0  0  0  0
  131.7350  124.6840   64.5630 N   0  0  0  0  0  0  0  0  0  0  0  0
  133.2050  124.9758   66.6300 H   0  0  0  0  0  0  0  0  0  0  0  0
  134.7821  125.0733   65.7757 H   0  0  0  0  0  0  0  0  0  0  0  0
  133.6718  126.4854   65.7757 H   0  0  0  0  0  0  0  0  0  0  0  0
  134.9091  124.7954   63.3491 H   0  0  0  0  0  0  0  0  0  0  0  0
  131.7250  123.7230   59.3760 H   0  0  0  0  0  0  0  0  0  0  0  0
  130.9340  122.2110   59.5930 H   0  0  0  0  0  0  0  0  0  0  0  0
  129.0270  123.9250   59.3590 H   0  0  0  0  0  0  0  0  0  0  0  0
  128.7084  121.9821   57.5737 H   0  0  0  0  0  0  0  0  0  0  0  0
  127.0825  121.4017   55.7766 H   0  0  0  0  0  0  0  0  0  0  0  0
  124.7256  122.1893   55.9351 H   0  0  0  0  0  0  0  0  0  0  0  0
  123.9784  123.5412   57.8870 H   0  0  0  0  0  0  0  0  0  0  0  0
  125.5994  124.1274   59.6899 H   0  0  0  0  0  0  0  0  0  0  0  0
  1  2  1  0
  2  3  2  0
  3  4  1  0
  4  5  1  0
  5  6  1  0
  5  7  1  0
  5  8  1  0
  4  9  2  0
  9 10  1  0
 10 11  1  0
 10 12  2  0
 12 13  1  0
 13 14  2  0
 13 15  1  0
 15 16  1  0
 16 17  2  0
 17 18  1  0
 18 19  2  0
 19 20  1  0
 20 21  2  0
 12 22  1  0
 22 23  1  0
 23 24  2  0
 24  2  1  0
 23  9  1  0
 21 16  1  0
  1 25  1  0
  1 26  1  0
  1 27  1  0
  3 28  1  0
 11 29  1  0
 11 30  1  0
 15 31  1  0
 17 32  1  0
 18 33  1  0
 19 34  1  0
 20 35  1  0
 21 36  1  0
M  END
>  <Binding energies>  (1) 
[-5.79]

>  <Ligand effiencies>  (1) 
[-0.21444444444444444]

>  <Interactions>  (1) 
["V-B:PRO:540:CB:9857, V-A:ILE:369:CG2:3236, V-B:TYR:539:CE2:9848, V-B:PRO:540:N:9856, V-B:PRO:540:CA:9855, V-B:MET:535:CE:9807, H-B:ALA:541:N:9863, V-B:TYR:539:C:9839, V-B:GLU:543:CD:9880, V-A:ARG:545:CD:4923, V-A:ARG:545:CZ:4926, V-A:GLY:453:CA:4043, V-A:GLY:453:C:4041, V-A:ARG:545:CG:4922, H-A:TYR:484:OH:4347, V-B:GLU:543:CG:9879, V-A:ASP:366:CG:3212, V-A:ILE:369:CD1:3238, V-A:ASP:366:CB:3211, V-A:ASP:366:CA:3209, V-A:ILE:369:CB:3235, V-B:TYR:539:CA:9841, V-B:PRO:540:CD:9859, V-B:LEU:363:CD1:8160"]

$$$$
4be_Grossjean_2025
     RDKit          3D

 38 40  0  0  0  0  0  0  0  0999 V2000
  124.9260  123.5310   58.4860 C   0  0  0  0  0  0  0  0  0  0  0  0
  126.4060  123.2000   58.4380 C   0  0  0  0  0  0  0  0  0  0  0  0
  126.9820  122.5880   57.3220 C   0  0  0  0  0  0  0  0  0  0  0  0
  128.3490  122.3110   57.3490 C   0  0  0  0  0  0  0  0  0  0  0  0
  129.0990  122.6470   58.4780 C   0  0  0  0  0  0  0  0  0  0  0  0
  128.4600  123.2640   59.5600 C   0  0  0  0  0  0  0  0  0  0  0  0
  129.2690  123.5710   60.6680 N   0  0  0  0  0  0  0  0  0  0  0  0
  129.5840  122.7930   61.7340 C   0  0  0  0  0  0  0  0  0  0  0  0
  129.1830  121.6370   61.8830 O   0  0  0  0  0  0  0  0  0  0  0  0
  130.4360  123.4260   62.7450 C   0  0  0  0  0  0  0  0  0  0  0  0
  132.1800  123.1690   62.7200 S   0  0  0  0  0  0  0  0  0  0  0  0
  132.3910  124.1550   64.1480 C   0  0  0  0  0  0  0  0  0  0  0  0
  133.5970  124.3670   64.6730 N   0  0  0  0  0  0  0  0  0  0  0  0
  133.6340  125.1490   65.7770 C   0  0  0  0  0  0  0  0  0  0  0  0
  135.0160  125.3760   66.3620 C   0  0  0  0  0  0  0  0  0  0  0  0
  132.5060  125.7200   66.3590 C   0  0  0  0  0  0  0  0  0  0  0  0
  131.2330  125.5010   65.8100 C   0  0  0  0  0  0  0  0  0  0  0  0
  130.0220  126.1530   66.4850 C   0  0  0  0  0  0  0  0  0  0  0  0
  129.2690  125.2810   67.1600 F   0  0  0  0  0  0  0  0  0  0  0  0
  130.4310  127.0790   67.3510 F   0  0  0  0  0  0  0  0  0  0  0  0
  129.2450  126.7230   65.5640 F   0  0  0  0  0  0  0  0  0  0  0  0
  131.1580  124.6760   64.6480 C   0  0  0  0  0  0  0  0  0  0  0  0
  130.0560  124.2320   63.8290 C   0  0  0  0  0  0  0  0  0  0  0  0
  128.7550  124.5770   64.0890 N   0  0  0  0  0  0  0  0  0  0  0  0
  127.1220  123.5340   59.5430 N   0  0  0  0  0  0  0  0  0  0  0  0
  124.6004  123.6038   59.5342 H   0  0  0  0  0  0  0  0  0  0  0  0
  124.7484  124.4911   57.9793 H   0  0  0  0  0  0  0  0  0  0  0  0
  124.3563  122.7381   57.9793 H   0  0  0  0  0  0  0  0  0  0  0  0
  126.3724  122.3308   56.4433 H   0  0  0  0  0  0  0  0  0  0  0  0
  128.8333  121.8307   56.4860 H   0  0  0  0  0  0  0  0  0  0  0  0
  130.1767  122.4299   58.5166 H   0  0  0  0  0  0  0  0  0  0  0  0
  129.6260  124.5150   60.6800 H   0  0  0  0  0  0  0  0  0  0  0  0
  134.9554  125.3660   67.4603 H   0  0  0  0  0  0  0  0  0  0  0  0
  135.6927  124.5770   66.0248 H   0  0  0  0  0  0  0  0  0  0  0  0
  135.4015  126.3495   66.0248 H   0  0  0  0  0  0  0  0  0  0  0  0
  132.6130  126.3476   67.2560 H   0  0  0  0  0  0  0  0  0  0  0  0
  128.4810  125.0260   64.9510 H   0  0  0  0  0  0  0  0  0  0  0  0
  128.0180  124.3840   63.4240 H   0  0  0  0  0  0  0  0  0  0  0  0
  1  2  1  0
  2  3  2  0
  3  4  1  0
  4  5  2  0
  5  6  1  0
  6  7  1  0
  7  8  1  0
  8  9  2  0
  8 10  1  0
 10 11  1  0
 11 12  1  0
 12 13  2  0
 13 14  1  0
 14 15  1  0
 14 16  2  0
 16 17  1  0
 17 18  1  0
 18 19  1  0
 18 20  1  0
 18 21  1  0
 17 22  2  0
 22 23  1  0
 23 24  1  0
  6 25  2  0
 25  2  1  0
 23 10  2  0
 22 12  1  0
  1 26  1  0
  1 27  1  0
  1 28  1  0
  3 29  1  0
  4 30  1  0
  5 31  1  0
  7 32  1  0
 15 33  1  0
 15 34  1  0
 15 35  1  0
 16 36  1  0
 24 37  1  0
 24 38  1  0
M  END
>  <Binding energies>  (1) 
[-6.02]

>  <Ligand effiencies>  (1) 
[-0.215]

>  <Interactions>  (1) 
["V-B:PRO:540:CB:9857, V-B:TYR:539:CE2:9848, V-B:PRO:540:N:9856, V-B:TYR:539:CZ:9849, V-B:TYR:539:CD2:9846, V-B:PRO:540:CA:9855, V-B:MET:535:CE:9807, H-B:ALA:541:N:9863, V-B:TYR:539:C:9839, V-B:GLU:543:CD:9880, V-A:ARG:545:CD:4923, V-A:ARG:545:CZ:4926, V-A:GLY:453:CA:4043, V-B:GLU:543:CB:9878, V-A:GLY:453:C:4041, V-A:GLU:543:CB:4906, V-A:HIS:456:CE1:4069, V-A:ARG:545:CG:4922, V-A:GLY:454:CA:4048, H-A:TYR:484:OH:4347, H-A:GLY:454:N:4049, V-B:GLU:543:CG:9879, V-A:GLU:543:CD:4908, H-B:GLU:543:OE2:9882, V-A:TYR:484:CE2:4345, V-A:TYR:484:CZ:4346, V-B:TYR:539:CG:9844, V-B:TYR:539:CD1:9845, V-B:LEU:363:CD1:8160, H-B:GLU:543:OE1:9881, V-B:TYR:539:CE1:9847"]

$$$$
4bf_Grossjean_2025
     RDKit          3D

 35 37  0  0  0  0  0  0  0  0999 V2000
  133.6370  125.4000   65.5230 C   0  0  0  0  0  0  0  0  0  0  0  0
  133.0070  124.8640   64.2490 C   0  0  0  0  0  0  0  0  0  0  0  0
  133.7780  124.6190   63.1170 C   0  0  0  0  0  0  0  0  0  0  0  0
  133.1820  124.1270   61.9450 C   0  0  0  0  0  0  0  0  0  0  0  0
  134.0700  123.8750   60.7220 C   0  0  0  0  0  0  0  0  0  0  0  0
  135.3320  124.2730   60.9020 F   0  0  0  0  0  0  0  0  0  0  0  0
  134.0980  122.5710   60.4450 F   0  0  0  0  0  0  0  0  0  0  0  0
  133.5890  124.5390   59.6700 F   0  0  0  0  0  0  0  0  0  0  0  0
  131.7740  123.8960   61.9750 C   0  0  0  0  0  0  0  0  0  0  0  0
  130.8380  123.4100   60.9920 C   0  0  0  0  0  0  0  0  0  0  0  0
  131.2180  123.0500   59.7240 N   0  0  0  0  0  0  0  0  0  0  0  0
  129.5120  123.3360   61.4490 C   0  0  0  0  0  0  0  0  0  0  0  0
  128.3130  122.9210   60.7130 C   0  0  0  0  0  0  0  0  0  0  0  0
  127.3750  122.3780   61.2970 O   0  0  0  0  0  0  0  0  0  0  0  0
  128.3250  123.1930   59.3850 N   0  0  0  0  0  0  0  0  0  0  0  0
  127.3680  122.8860   58.3990 C   0  0  0  0  0  0  0  0  0  0  0  0
  126.0440  123.3590   58.3730 C   0  0  0  0  0  0  0  0  0  0  0  0
  125.1890  122.9640   57.3420 C   0  0  0  0  0  0  0  0  0  0  0  0
  125.6790  122.1010   56.3620 C   0  0  0  0  0  0  0  0  0  0  0  0
  126.9490  121.6250   56.3670 N   0  0  0  0  0  0  0  0  0  0  0  0
  127.7680  122.0170   57.3770 C   0  0  0  0  0  0  0  0  0  0  0  0
  129.3830  123.8740   63.1220 S   0  0  0  0  0  0  0  0  0  0  0  0
  131.1010  124.1890   63.2020 C   0  0  0  0  0  0  0  0  0  0  0  0
  131.6710  124.6550   64.3120 N   0  0  0  0  0  0  0  0  0  0  0  0
  133.1266  124.9657   66.3953 H   0  0  0  0  0  0  0  0  0  0  0  0
  134.7023  125.1271   65.5482 H   0  0  0  0  0  0  0  0  0  0  0  0
  133.5383  126.4953   65.5482 H   0  0  0  0  0  0  0  0  0  0  0  0
  134.8607  124.8119   63.1405 H   0  0  0  0  0  0  0  0  0  0  0  0
  131.0660  122.1180   59.3660 H   0  0  0  0  0  0  0  0  0  0  0  0
  131.6630  123.7100   59.1020 H   0  0  0  0  0  0  0  0  0  0  0  0
  129.1300  123.6950   59.0410 H   0  0  0  0  0  0  0  0  0  0  0  0
  125.6836  124.0368   59.1609 H   0  0  0  0  0  0  0  0  0  0  0  0
  124.1509  123.3259   57.3036 H   0  0  0  0  0  0  0  0  0  0  0  0
  125.0054  121.7927   55.5488 H   0  0  0  0  0  0  0  0  0  0  0  0
  128.7983  121.6320   57.3928 H   0  0  0  0  0  0  0  0  0  0  0  0
  1  2  1  0
  2  3  2  0
  3  4  1  0
  4  5  1  0
  5  6  1  0
  5  7  1  0
  5  8  1  0
  4  9  2  0
  9 10  1  0
 10 11  1  0
 10 12  2  0
 12 13  1  0
 13 14  2  0
 13 15  1  0
 15 16  1  0
 16 17  2  0
 17 18  1  0
 18 19  2  0
 19 20  1  0
 20 21  2  0
 12 22  1  0
 22 23  1  0
 23 24  2  0
 24  2  1  0
 23  9  1  0
 21 16  1  0
  1 25  1  0
  1 26  1  0
  1 27  1  0
  3 28  1  0
 11 29  1  0
 11 30  1  0
 15 31  1  0
 17 32  1  0
 18 33  1  0
 19 34  1  0
 21 35  1  0
M  END
>  <Binding energies>  (1) 
[-6.1]

>  <Ligand effiencies>  (1) 
[-0.22592592592592592]

>  <Interactions>  (1) 
["V-B:PRO:540:CB:9857, V-A:ILE:369:CG2:3236, V-B:TYR:539:CE2:9848, V-B:PRO:540:N:9856, V-B:TYR:539:CD2:9846, V-B:PRO:540:CA:9855, V-B:MET:535:CE:9807, H-B:TYR:539:N:9842, H-B:ALA:541:N:9863, V-B:TYR:539:C:9839, V-B:GLU:543:CD:9880, V-A:ARG:545:CD:4923, V-A:ARG:545:CZ:4926, V-A:GLY:453:CA:4043, V-A:GLY:453:C:4041, H-A:TYR:484:OH:4347, V-B:GLU:543:CG:9879, V-A:ASP:366:CG:3212, V-A:ILE:369:CD1:3238, V-A:ASP:366:CB:3211, V-A:ASP:366:CA:3209, V-A:ILE:369:CB:3235, V-B:TYR:539:CA:9841, V-B:PRO:540:CD:9859, V-B:TYR:539:CG:9844, V-B:TYR:539:CD1:9845, V-B:LEU:363:CD1:8160, V-A:ILE:369:CG1:3237, V-A:CYS:365:C:3203"]

$$$$
4bg_Grossjean_2025
     RDKit          3D

 39 41  0  0  0  0  0  0  0  0999 V2000
  133.5970  123.5420   57.6860 C   0  0  0  0  0  0  0  0  0  0  0  0
  133.0640  124.1570   58.9670 C   0  0  0  0  0  0  0  0  0  0  0  0
  131.8900  124.9060   58.9690 C   0  0  0  0  0  0  0  0  0  0  0  0
  131.4110  125.4740   60.1600 C   0  0  0  0  0  0  0  0  0  0  0  0
  130.1150  126.2910   60.1130 C   0  0  0  0  0  0  0  0  0  0  0  0
  130.2680  127.5380   60.5610 F   0  0  0  0  0  0  0  0  0  0  0  0
  129.6780  126.3690   58.8560 F   0  0  0  0  0  0  0  0  0  0  0  0
  129.1850  125.7070   60.8670 F   0  0  0  0  0  0  0  0  0  0  0  0
  132.1730  125.2450   61.3440 C   0  0  0  0  0  0  0  0  0  0  0  0
  132.0050  125.6610   62.7150 C   0  0  0  0  0  0  0  0  0  0  0  0
  130.9600  126.4460   63.1310 N   0  0  0  0  0  0  0  0  0  0  0  0
  132.9990  125.1840   63.5830 C   0  0  0  0  0  0  0  0  0  0  0  0
  133.1550  125.4330   65.0160 C   0  0  0  0  0  0  0  0  0  0  0  0
  133.9280  124.7660   65.7050 O   0  0  0  0  0  0  0  0  0  0  0  0
  132.4340  126.4560   65.5190 N   0  0  0  0  0  0  0  0  0  0  0  0
  132.4190  126.8770   66.9200 C   0  0  0  0  0  0  0  0  0  0  0  0
  131.0620  126.7120   67.5920 C   0  0  0  0  0  0  0  0  0  0  0  0
  130.4680  127.7940   68.2480 C   0  0  0  0  0  0  0  0  0  0  0  0
  129.2110  127.6510   68.8280 C   0  0  0  0  0  0  0  0  0  0  0  0
  128.5430  126.4320   68.7380 C   0  0  0  0  0  0  0  0  0  0  0  0
  129.1210  125.3540   68.0710 C   0  0  0  0  0  0  0  0  0  0  0  0
  130.3800  125.4960   67.4920 C   0  0  0  0  0  0  0  0  0  0  0  0
  134.2030  124.2320   62.7190 S   0  0  0  0  0  0  0  0  0  0  0  0
  133.3540  124.4530   61.2070 C   0  0  0  0  0  0  0  0  0  0  0  0
  133.8060  123.9180   60.0720 N   0  0  0  0  0  0  0  0  0  0  0  0
  134.2991  122.7319   57.9326 H   0  0  0  0  0  0  0  0  0  0  0  0
  132.7604  123.1359   57.0984 H   0  0  0  0  0  0  0  0  0  0  0  0
  134.1178  124.3124   57.0984 H   0  0  0  0  0  0  0  0  0  0  0  0
  131.3344  125.0535   58.0312 H   0  0  0  0  0  0  0  0  0  0  0  0
  131.0970  127.2450   63.7330 H   0  0  0  0  0  0  0  0  0  0  0  0
  130.0090  126.2440   62.8530 H   0  0  0  0  0  0  0  0  0  0  0  0
  131.7620  126.9070   64.9150 H   0  0  0  0  0  0  0  0  0  0  0  0
  133.1558  126.2749   67.4719 H   0  0  0  0  0  0  0  0  0  0  0  0
  132.6588  127.9504   66.9368 H   0  0  0  0  0  0  0  0  0  0  0  0
  130.9940  128.7584   68.3058 H   0  0  0  0  0  0  0  0  0  0  0  0
  128.7468  128.4973   69.3555 H   0  0  0  0  0  0  0  0  0  0  0  0
  127.5500  126.3195   69.1978 H   0  0  0  0  0  0  0  0  0  0  0  0
  128.5858  124.3955   68.0019 H   0  0  0  0  0  0  0  0  0  0  0  0
  130.8374  124.6512   66.9561 H   0  0  0  0  0  0  0  0  0  0  0  0
  1  2  1  0
  2  3  2  0
  3  4  1  0
  4  5  1  0
  5  6  1  0
  5  7  1  0
  5  8  1  0
  4  9  2  0
  9 10  1  0
 10 11  1  0
 10 12  2  0
 12 13  1  0
 13 14  2  0
 13 15  1  0
 15 16  1  0
 16 17  1  0
 17 18  2  0
 18 19  1  0
 19 20  2  0
 20 21  1  0
 21 22  2  0
 12 23  1  0
 23 24  1  0
 24 25  2  0
 25  2  1  0
 24  9  1  0
 22 17  1  0
  1 26  1  0
  1 27  1  0
  1 28  1  0
  3 29  1  0
 11 30  1  0
 11 31  1  0
 15 32  1  0
 16 33  1  0
 16 34  1  0
 18 35  1  0
 19 36  1  0
 20 37  1  0
 21 38  1  0
 22 39  1  0
M  END
>  <Binding energies>  (1) 
[-6.66]

>  <Ligand effiencies>  (1) 
[-0.23785714285714285]

>  <Interactions>  (1) 
["V-A:ILE:369:CG2:3236, V-B:TYR:539:CE2:9848, V-B:TYR:539:CZ:9849, V-A:ARG:545:CD:4923, V-A:ARG:545:CZ:4926, V-A:GLY:453:CA:4043, V-B:GLU:543:CB:9878, V-A:GLY:453:C:4041, V-A:GLU:543:CB:4906, V-A:HIS:456:CE1:4069, V-A:ARG:545:CG:4922, V-B:HIS:456:CE1:9041, V-A:GLY:454:CA:4048, H-A:TYR:484:OH:4347, H-A:GLY:454:N:4049, H-A:GLU:543:OE1:4909, V-B:GLU:543:CG:9879, V-A:GLU:543:CD:4908, V-A:ASP:366:CG:3212, V-B:GLU:543:C:9874, V-A:ASP:366:C:3207, V-A:TYR:484:CE2:4345, V-A:ASP:366:CB:3211, V-A:ASP:366:CA:3209, V-B:GLU:543:CA:9876, V-A:TYR:484:CZ:4346, V-A:ILE:369:CB:3235, H-A:GLU:543:OE2:4910"]

$$$$
4bh_Grossjean_2025
     RDKit          3D

 51 53  0  0  0  0  0  0  0  0999 V2000
  132.6650  127.2150   74.2990 C   0  0  0  0  0  0  0  0  0  0  0  0
  131.4040  127.8140   74.0200 O   0  0  0  0  0  0  0  0  0  0  0  0
  130.5200  127.1720   73.1720 C   0  0  0  0  0  0  0  0  0  0  0  0
  130.0810  127.7020   71.9490 C   0  0  0  0  0  0  0  0  0  0  0  0
  129.1850  126.9990   71.1440 C   0  0  0  0  0  0  0  0  0  0  0  0
  128.7550  127.5700   69.7980 C   0  0  0  0  0  0  0  0  0  0  0  0
  129.4290  126.9480   68.6580 N   0  0  0  0  0  0  0  0  0  0  0  0
  130.6660  127.2550   68.2180 C   0  0  0  0  0  0  0  0  0  0  0  0
  131.3500  128.1440   68.7290 O   0  0  0  0  0  0  0  0  0  0  0  0
  131.1430  126.4980   67.0590 C   0  0  0  0  0  0  0  0  0  0  0  0
  132.8710  126.3170   66.7750 S   0  0  0  0  0  0  0  0  0  0  0  0
  132.5780  125.4130   65.3080 C   0  0  0  0  0  0  0  0  0  0  0  0
  133.5830  124.9460   64.5670 N   0  0  0  0  0  0  0  0  0  0  0  0
  133.2310  124.2590   63.4560 C   0  0  0  0  0  0  0  0  0  0  0  0
  134.3910  123.7380   62.6250 C   0  0  0  0  0  0  0  0  0  0  0  0
  131.9130  124.0270   63.0720 C   0  0  0  0  0  0  0  0  0  0  0  0
  130.8510  124.5170   63.8480 C   0  0  0  0  0  0  0  0  0  0  0  0
  129.4170  124.2350   63.3880 C   0  0  0  0  0  0  0  0  0  0  0  0
  128.8040  123.3070   64.1250 F   0  0  0  0  0  0  0  0  0  0  0  0
  128.6900  125.3490   63.4660 F   0  0  0  0  0  0  0  0  0  0  0  0
  129.4250  123.8030   62.1270 F   0  0  0  0  0  0  0  0  0  0  0  0
  131.1870  125.2490   65.0250 C   0  0  0  0  0  0  0  0  0  0  0  0
  130.3900  125.8940   66.0400 C   0  0  0  0  0  0  0  0  0  0  0  0
  129.0200  125.9070   66.0120 N   0  0  0  0  0  0  0  0  0  0  0  0
  128.7410  125.7390   71.5480 C   0  0  0  0  0  0  0  0  0  0  0  0
  129.1570  125.1870   72.7700 C   0  0  0  0  0  0  0  0  0  0  0  0
  128.7460  123.9510   73.2390 O   0  0  0  0  0  0  0  0  0  0  0  0
  129.2880  122.7700   72.6580 C   0  0  0  0  0  0  0  0  0  0  0  0
  130.0420  125.9170   73.5760 C   0  0  0  0  0  0  0  0  0  0  0  0
  130.4720  125.3800   74.7670 O   0  0  0  0  0  0  0  0  0  0  0  0
  131.3710  124.2900   74.6170 C   0  0  0  0  0  0  0  0  0  0  0  0
  132.8062  127.1479   75.3878 H   0  0  0  0  0  0  0  0  0  0  0  0
  132.6962  126.2059   73.8624 H   0  0  0  0  0  0  0  0  0  0  0  0
  133.4669  127.8284   73.8624 H   0  0  0  0  0  0  0  0  0  0  0  0
  130.4486  128.6854   71.6208 H   0  0  0  0  0  0  0  0  0  0  0  0
  127.6711  127.4195   69.6862 H   0  0  0  0  0  0  0  0  0  0  0  0
  129.0308  128.6349   69.7953 H   0  0  0  0  0  0  0  0  0  0  0  0
  128.9600  126.1530   68.2460 H   0  0  0  0  0  0  0  0  0  0  0  0
  135.1885  123.3798   63.2926 H   0  0  0  0  0  0  0  0  0  0  0  0
  134.0443  122.9092   61.9903 H   0  0  0  0  0  0  0  0  0  0  0  0
  134.7802  124.5478   61.9903 H   0  0  0  0  0  0  0  0  0  0  0  0
  131.7028  123.4565   62.1553 H   0  0  0  0  0  0  0  0  0  0  0  0
  128.4710  125.1290   66.3530 H   0  0  0  0  0  0  0  0  0  0  0  0
  128.5080  126.6950   65.6410 H   0  0  0  0  0  0  0  0  0  0  0  0
  128.0564  125.1712   70.9007 H   0  0  0  0  0  0  0  0  0  0  0  0
  129.6042  122.0810   73.4551 H   0  0  0  0  0  0  0  0  0  0  0  0
  128.5230  122.2835   72.0350 H   0  0  0  0  0  0  0  0  0  0  0  0
  130.1556  123.0328   72.0350 H   0  0  0  0  0  0  0  0  0  0  0  0
  131.6727  123.9243   75.6096 H   0  0  0  0  0  0  0  0  0  0  0  0
  130.8753  123.4795   74.0626 H   0  0  0  0  0  0  0  0  0  0  0  0
  132.2611  124.6224   74.0626 H   0  0  0  0  0  0  0  0  0  0  0  0
  1  2  1  0
  2  3  1  0
  3  4  2  0
  4  5  1  0
  5  6  1  0
  6  7  1  0
  7  8  1  0
  8  9  2  0
  8 10  1  0
 10 11  1  0
 11 12  1  0
 12 13  2  0
 13 14  1  0
 14 15  1  0
 14 16  2  0
 16 17  1  0
 17 18  1  0
 18 19  1  0
 18 20  1  0
 18 21  1  0
 17 22  2  0
 22 23  1  0
 23 24  1  0
  5 25  2  0
 25 26  1  0
 26 27  1  0
 27 28  1  0
 26 29  2  0
 29 30  1  0
 30 31  1  0
 29  3  1  0
 23 10  2  0
 22 12  1  0
  1 32  1  0
  1 33  1  0
  1 34  1  0
  4 35  1  0
  6 36  1  0
  6 37  1  0
  7 38  1  0
 15 39  1  0
 15 40  1  0
 15 41  1  0
 16 42  1  0
 24 43  1  0
 24 44  1  0
 25 45  1  0
 28 46  1  0
 28 47  1  0
 28 48  1  0
 31 49  1  0
 31 50  1  0
 31 51  1  0
M  END
>  <Binding energies>  (1) 
[-6.0]

>  <Ligand effiencies>  (1) 
[-0.17647058823529413]

>  <Interactions>  (1) 
["V-B:ALA:541:CB:9864, V-B:GLU:543:CD:9880, V-A:ARG:545:CD:4923, V-A:ARG:545:CZ:4926, V-A:GLY:453:CA:4043, V-B:GLU:543:CB:9878, V-A:GLY:453:C:4041, V-A:GLU:543:CB:4906, V-A:HIS:456:CE1:4069, V-A:ARG:545:CG:4922, V-B:HIS:456:CE1:9041, V-A:GLY:454:CA:4048, H-A:TYR:484:OH:4347, H-A:GLY:454:N:4049, H-A:GLU:543:OE1:4909, V-B:GLU:543:CG:9879, V-A:GLU:543:CD:4908, H-B:GLU:543:OE2:9882, V-B:GLU:543:C:9874, V-A:ILE:369:CD1:3238, V-B:HIS:456:CD2:9039, V-A:LYS:547:CE:4950, H-A:HIS:456:ND1:4066, H-A:ARG:545:NH2:4928, V-A:TYR:484:CB:4340, V-A:LYS:547:CD:4949, V-A:TYR:484:CG:4341, V-A:TYR:484:CD2:4343, V-A:HIS:456:CG:4065, V-A:HIS:456:CB:4064, V-A:HIS:456:CD2:4067, H-B:LYS:547:NZ:9923, H-A:LYS:547:NZ:4951"]

$$$$
4bi_Grossjean_2025
     RDKit          3D

 32 34  0  0  0  0  0  0  0  0999 V2000
  135.4770  124.2290   61.9150 C   0  0  0  0  0  0  0  0  0  0  0  0
  134.2050  123.4750   61.5710 C   0  0  0  0  0  0  0  0  0  0  0  0
  134.2050  122.0880   61.4450 C   0  0  0  0  0  0  0  0  0  0  0  0
  133.0190  121.4030   61.1310 C   0  0  0  0  0  0  0  0  0  0  0  0
  133.0670  119.8760   61.0120 C   0  0  0  0  0  0  0  0  0  0  0  0
  132.8000  119.4400   59.7790 F   0  0  0  0  0  0  0  0  0  0  0  0
  134.2820  119.4350   61.3360 F   0  0  0  0  0  0  0  0  0  0  0  0
  132.1670  119.3310   61.8310 F   0  0  0  0  0  0  0  0  0  0  0  0
  131.8420  122.1880   60.9460 C   0  0  0  0  0  0  0  0  0  0  0  0
  130.4790  121.8480   60.6200 C   0  0  0  0  0  0  0  0  0  0  0  0
  130.0670  120.5580   60.4050 N   0  0  0  0  0  0  0  0  0  0  0  0
  129.6130  122.9530   60.5480 C   0  0  0  0  0  0  0  0  0  0  0  0
  128.1830  122.9740   60.2310 C   0  0  0  0  0  0  0  0  0  0  0  0
  127.3720  122.3750   60.9390 O   0  0  0  0  0  0  0  0  0  0  0  0
  127.8400  123.7010   59.1380 N   0  0  0  0  0  0  0  0  0  0  0  0
  126.5660  123.9000   58.6210 C   0  0  0  0  0  0  0  0  0  0  0  0
  125.4060  123.7630   59.3810 C   0  0  0  0  0  0  0  0  0  0  0  0
  124.3740  124.0400   58.5130 C   0  0  0  0  0  0  0  0  0  0  0  0
  124.8880  124.3300   57.2930 O   0  0  0  0  0  0  0  0  0  0  0  0
  126.2790  124.2370   57.3750 N   0  0  0  0  0  0  0  0  0  0  0  0
  130.4750  124.4580   60.8610 S   0  0  0  0  0  0  0  0  0  0  0  0
  131.9790  123.6010   61.1040 C   0  0  0  0  0  0  0  0  0  0  0  0
  133.1060  124.2460   61.4040 N   0  0  0  0  0  0  0  0  0  0  0  0
  135.5821  124.2913   63.0082 H   0  0  0  0  0  0  0  0  0  0  0  0
  136.3433  123.6984   61.4930 H   0  0  0  0  0  0  0  0  0  0  0  0
  135.4273  125.2436   61.4930 H   0  0  0  0  0  0  0  0  0  0  0  0
  135.1388  121.5255   61.5921 H   0  0  0  0  0  0  0  0  0  0  0  0
  130.6290  119.8970   59.8870 H   0  0  0  0  0  0  0  0  0  0  0  0
  129.1800  120.2240   60.7550 H   0  0  0  0  0  0  0  0  0  0  0  0
  128.5870  124.1620   58.6400 H   0  0  0  0  0  0  0  0  0  0  0  0
  125.3311  123.4921   60.4445 H   0  0  0  0  0  0  0  0  0  0  0  0
  123.3042  124.0279   58.7686 H   0  0  0  0  0  0  0  0  0  0  0  0
  1  2  1  0
  2  3  2  0
  3  4  1  0
  4  5  1  0
  5  6  1  0
  5  7  1  0
  5  8  1  0
  4  9  2  0
  9 10  1  0
 10 11  1  0
 10 12  2  0
 12 13  1  0
 13 14  2  0
 13 15  1  0
 15 16  1  0
 16 17  1  0
 17 18  2  0
 18 19  1  0
 19 20  1  0
 12 21  1  0
 21 22  1  0
 22 23  2  0
 23  2  1  0
 22  9  1  0
 20 16  2  0
  1 24  1  0
  1 25  1  0
  1 26  1  0
  3 27  1  0
 11 28  1  0
 11 29  1  0
 15 30  1  0
 17 31  1  0
 18 32  1  0
M  END
>  <Binding energies>  (1) 
[-6.05]

>  <Ligand effiencies>  (1) 
[-0.2326923076923077]

>  <Interactions>  (1) 
["V-B:PRO:540:CB:9857, V-A:ILE:369:CG2:3236, V-B:TYR:539:CE2:9848, V-B:TYR:539:CD2:9846, V-B:PRO:540:CA:9855, V-A:LEU:475:CD1:4257, H-B:ALA:541:N:9863, V-A:SER:385:CB:3408, H-B:TYR:531:OH:9767, V-A:SER:385:CA:3406, V-A:SER:385:C:3404, V-B:TYR:539:C:9839, V-A:GLY:453:CA:4043, V-A:GLY:453:C:4041, V-A:ASP:366:CG:3212, V-A:ILE:369:CD1:3238, V-B:LEU:363:CA:8156, V-B:LEU:363:CB:8158, V-B:LEU:363:CD1:8160, H-B:TYR:539:O:9840"]

$$$$
4bj_Grossjean_2025
     RDKit          3D

 32 34  0  0  0  0  0  0  0  0999 V2000
  135.5160  124.2680   61.8710 C   0  0  0  0  0  0  0  0  0  0  0  0
  134.2530  123.4900   61.5490 C   0  0  0  0  0  0  0  0  0  0  0  0
  134.2840  122.1070   61.3880 C   0  0  0  0  0  0  0  0  0  0  0  0
  133.1100  121.4010   61.0840 C   0  0  0  0  0  0  0  0  0  0  0  0
  133.1940  119.8800   60.9130 C   0  0  0  0  0  0  0  0  0  0  0  0
  132.4020  119.2150   61.7570 F   0  0  0  0  0  0  0  0  0  0  0  0
  132.8320  119.5440   59.6750 F   0  0  0  0  0  0  0  0  0  0  0  0
  134.4440  119.4710   61.1330 F   0  0  0  0  0  0  0  0  0  0  0  0
  131.9080  122.1580   60.9540 C   0  0  0  0  0  0  0  0  0  0  0  0
  130.5450  121.7930   60.6520 C   0  0  0  0  0  0  0  0  0  0  0  0
  130.1610  120.4980   60.4120 N   0  0  0  0  0  0  0  0  0  0  0  0
  129.6520  122.8760   60.6340 C   0  0  0  0  0  0  0  0  0  0  0  0
  128.2140  122.8680   60.3560 C   0  0  0  0  0  0  0  0  0  0  0  0
  127.4560  122.1110   60.9690 O   0  0  0  0  0  0  0  0  0  0  0  0
  127.7980  123.7450   59.4100 N   0  0  0  0  0  0  0  0  0  0  0  0
  126.4960  123.9440   58.9710 C   0  0  0  0  0  0  0  0  0  0  0  0
  126.0920  124.2830   57.7660 N   0  0  0  0  0  0  0  0  0  0  0  0
  124.7790  124.3790   57.7040 C   0  0  0  0  0  0  0  0  0  0  0  0
  124.0860  124.1150   58.8810 C   0  0  0  0  0  0  0  0  0  0  0  0
  125.2270  123.7230   60.1330 S   0  0  0  0  0  0  0  0  0  0  0  0
  130.4810  124.3940   60.9700 S   0  0  0  0  0  0  0  0  0  0  0  0
  132.0130  123.5700   61.1480 C   0  0  0  0  0  0  0  0  0  0  0  0
  133.1300  124.2370   61.4340 N   0  0  0  0  0  0  0  0  0  0  0  0
  135.6338  124.3405   62.9623 H   0  0  0  0  0  0  0  0  0  0  0  0
  136.3858  123.7489   61.4420 H   0  0  0  0  0  0  0  0  0  0  0  0
  135.4437  125.2783   61.4420 H   0  0  0  0  0  0  0  0  0  0  0  0
  135.2345  121.5648   61.4998 H   0  0  0  0  0  0  0  0  0  0  0  0
  130.7370  119.8580   59.8850 H   0  0  0  0  0  0  0  0  0  0  0  0
  129.2790  120.1410   60.7530 H   0  0  0  0  0  0  0  0  0  0  0  0
  128.5000  124.3260   58.9760 H   0  0  0  0  0  0  0  0  0  0  0  0
  124.2601  124.6526   56.7735 H   0  0  0  0  0  0  0  0  0  0  0  0
  122.9930  124.1488   59.0003 H   0  0  0  0  0  0  0  0  0  0  0  0
  1  2  1  0
  2  3  2  0
  3  4  1  0
  4  5  1  0
  5  6  1  0
  5  7  1  0
  5  8  1  0
  4  9  2  0
  9 10  1  0
 10 11  1  0
 10 12  2  0
 12 13  1  0
 13 14  2  0
 13 15  1  0
 15 16  1  0
 16 17  2  0
 17 18  1  0
 18 19  2  0
 19 20  1  0
 12 21  1  0
 21 22  1  0
 22 23  2  0
 23  2  1  0
 22  9  1  0
 20 16  1  0
  1 24  1  0
  1 25  1  0
  1 26  1  0
  3 27  1  0
 11 28  1  0
 11 29  1  0
 15 30  1  0
 18 31  1  0
 19 32  1  0
M  END
>  <Binding energies>  (1) 
[-5.59]

>  <Ligand effiencies>  (1) 
[-0.215]

>  <Interactions>  (1) 
["V-B:PRO:540:CB:9857, V-A:ILE:369:CG2:3236, V-B:TYR:539:CE2:9848, V-B:TYR:539:CD2:9846, V-B:PRO:540:CA:9855, V-A:LEU:475:CD1:4257, H-B:ALA:541:N:9863, V-A:SER:385:CB:3408, H-B:TYR:531:OH:9767, V-A:SER:385:CA:3406, V-A:SER:385:C:3404, V-B:TYR:539:C:9839, V-A:GLY:453:CA:4043, V-A:GLY:453:C:4041, V-A:ASP:366:CG:3212, V-A:ILE:369:CD1:3238, V-B:ASP:366:CB:8183, V-B:ASP:366:CG:8184, V-B:LEU:363:CA:8156, V-B:TYR:531:CZ:9766, V-B:LEU:363:CB:8158, V-B:TYR:531:CE2:9765, V-B:LEU:363:CD1:8160, H-B:TYR:539:O:9840"]

$$$$
4bk_Grossjean_2025
     RDKit          3D

 50 51  0  0  0  0  0  0  0  0999 V2000
  129.2110  122.2120   62.2440 C   0  0  0  0  0  0  0  0  0  0  0  0
  128.1290  122.2010   61.3250 O   0  0  0  0  0  0  0  0  0  0  0  0
  126.9380  122.7750   61.8480 C   0  0  0  0  0  0  0  0  0  0  0  0
  126.4240  123.8530   60.8840 C   0  0  0  0  0  0  0  0  0  0  0  0
  125.5400  123.2610   59.9420 O   0  0  0  0  0  0  0  0  0  0  0  0
  124.5730  124.1610   59.4180 C   0  0  0  0  0  0  0  0  0  0  0  0
  124.5670  124.0680   57.8870 C   0  0  0  0  0  0  0  0  0  0  0  0
  125.8490  124.4220   57.3890 O   0  0  0  0  0  0  0  0  0  0  0  0
  126.5220  123.3590   56.7250 C   0  0  0  0  0  0  0  0  0  0  0  0
  126.8280  122.2390   57.7350 C   0  0  0  0  0  0  0  0  0  0  0  0
  128.1220  122.3860   58.4020 N   0  0  0  0  0  0  0  0  0  0  0  0
  129.0840  123.2650   58.0510 C   0  0  0  0  0  0  0  0  0  0  0  0
  128.9450  124.0590   57.1200 O   0  0  0  0  0  0  0  0  0  0  0  0
  130.3110  123.2300   58.8500 C   0  0  0  0  0  0  0  0  0  0  0  0
  131.3180  124.6680   58.9850 S   0  0  0  0  0  0  0  0  0  0  0  0
  132.4400  123.8370   60.0360 C   0  0  0  0  0  0  0  0  0  0  0  0
  133.5200  124.4470   60.5230 N   0  0  0  0  0  0  0  0  0  0  0  0
  134.3130  123.7010   61.3270 C   0  0  0  0  0  0  0  0  0  0  0  0
  135.5350  124.4180   61.8720 C   0  0  0  0  0  0  0  0  0  0  0  0
  134.0540  122.3730   61.6530 C   0  0  0  0  0  0  0  0  0  0  0  0
  132.9190  121.7230   61.1420 C   0  0  0  0  0  0  0  0  0  0  0  0
  132.6780  120.2590   61.5250 C   0  0  0  0  0  0  0  0  0  0  0  0
  133.6740  119.7370   62.2450 F   0  0  0  0  0  0  0  0  0  0  0  0
  131.5650  120.1600   62.2510 F   0  0  0  0  0  0  0  0  0  0  0  0
  132.5520  119.5190   60.4240 F   0  0  0  0  0  0  0  0  0  0  0  0
  132.0610  122.4820   60.2910 C   0  0  0  0  0  0  0  0  0  0  0  0
  130.8340  122.1670   59.6010 C   0  0  0  0  0  0  0  0  0  0  0  0
  130.2380  120.9340   59.6730 N   0  0  0  0  0  0  0  0  0  0  0  0
  128.8191  122.2080   63.2718 H   0  0  0  0  0  0  0  0  0  0  0  0
  129.8352  121.3202   62.0861 H   0  0  0  0  0  0  0  0  0  0  0  0
  129.8170  123.1164   62.0861 H   0  0  0  0  0  0  0  0  0  0  0  0
  126.1739  121.9923   61.9640 H   0  0  0  0  0  0  0  0  0  0  0  0
  127.1490  123.2292   62.8274 H   0  0  0  0  0  0  0  0  0  0  0  0
  125.8893  124.6285   61.4520 H   0  0  0  0  0  0  0  0  0  0  0  0
  127.2741  124.3081   60.3546 H   0  0  0  0  0  0  0  0  0  0  0  0
  123.5780  123.8970   59.8056 H   0  0  0  0  0  0  0  0  0  0  0  0
  124.8237  125.1878   59.7227 H   0  0  0  0  0  0  0  0  0  0  0  0
  124.3262  123.0388   57.5826 H   0  0  0  0  0  0  0  0  0  0  0  0
  123.8113  124.7557   57.4796 H   0  0  0  0  0  0  0  0  0  0  0  0
  125.8824  122.9644   55.9218 H   0  0  0  0  0  0  0  0  0  0  0  0
  127.4625  123.7319   56.2932 H   0  0  0  0  0  0  0  0  0  0  0  0
  126.0398  122.2384   58.5023 H   0  0  0  0  0  0  0  0  0  0  0  0
  126.8633  121.2965   57.1690 H   0  0  0  0  0  0  0  0  0  0  0  0
  128.2980  121.7630   59.1760 H   0  0  0  0  0  0  0  0  0  0  0  0
  135.5090  124.4028   62.9716 H   0  0  0  0  0  0  0  0  0  0  0  0
  136.4453  123.9108   61.5197 H   0  0  0  0  0  0  0  0  0  0  0  0
  135.5362  125.4600   61.5197 H   0  0  0  0  0  0  0  0  0  0  0  0
  134.7431  121.8288   62.3155 H   0  0  0  0  0  0  0  0  0  0  0  0
  130.6710  120.1070   59.2850 H   0  0  0  0  0  0  0  0  0  0  0  0
  129.3420  120.8090   60.1240 H   0  0  0  0  0  0  0  0  0  0  0  0
  1  2  1  0
  2  3  1  0
  3  4  1  0
  4  5  1  0
  5  6  1  0
  6  7  1  0
  7  8  1  0
  8  9  1  0
  9 10  1  0
 10 11  1  0
 11 12  1  0
 12 13  2  0
 12 14  1  0
 14 15  1  0
 15 16  1  0
 16 17  2  0
 17 18  1  0
 18 19  1  0
 18 20  2  0
 20 21  1  0
 21 22  1  0
 22 23  1  0
 22 24  1  0
 22 25  1  0
 21 26  2  0
 26 27  1  0
 27 28  1  0
 27 14  2  0
 26 16  1  0
  1 29  1  0
  1 30  1  0
  1 31  1  0
  3 32  1  0
  3 33  1  0
  4 34  1  0
  4 35  1  0
  6 36  1  0
  6 37  1  0
  7 38  1  0
  7 39  1  0
  9 40  1  0
  9 41  1  0
 10 42  1  0
 10 43  1  0
 11 44  1  0
 19 45  1  0
 19 46  1  0
 19 47  1  0
 20 48  1  0
 28 49  1  0
 28 50  1  0
M  END
>  <Binding energies>  (1) 
[-4.63]

>  <Ligand effiencies>  (1) 
[-0.14935483870967742]

>  <Interactions>  (1) 
["V-B:PRO:540:CB:9857, V-A:ILE:369:CG2:3236, V-B:TYR:539:CE2:9848, V-B:PRO:540:N:9856, V-B:TYR:539:CZ:9849, V-B:TYR:539:CD2:9846, V-B:PRO:540:CA:9855, V-B:PRO:540:C:9853, V-B:MET:535:CE:9807, V-A:LEU:475:CD1:4257, H-B:ALA:541:N:9863, H-B:TYR:531:OH:9767, V-B:ALA:541:CA:9862, V-A:SER:385:CA:3406, V-A:SER:385:C:3404, V-B:TYR:539:C:9839, V-B:ALA:541:CB:9864, V-B:GLU:543:CD:9880, V-A:GLY:453:CA:4043, V-A:GLY:453:C:4041, V-A:ASP:366:CG:3212, V-A:ILE:369:CD1:3238, V-A:ASP:366:CA:3209, V-B:ASP:366:CB:8183, V-B:ASP:366:CG:8184, V-B:PRO:540:CD:9859, V-B:LEU:363:CA:8156, V-B:TYR:539:CG:9844, V-B:TYR:531:CE2:9765, V-B:LEU:363:CD1:8160, H-B:TYR:539:O:9840, H-B:TYR:539:OH:9850"]

$$$$
4ca_Grossjean_2025
     RDKit          3D

 52 55  0  0  0  0  0  0  0  0999 V2000
  129.1550  125.0110   72.8300 C   0  0  0  0  0  0  0  0  0  0  0  0
  129.0620  126.4950   73.1990 C   0  0  0  0  0  0  0  0  0  0  0  0
  129.9600  127.2410   72.3880 O   0  0  0  0  0  0  0  0  0  0  0  0
  129.5010  128.0850   71.4270 C   0  0  0  0  0  0  0  0  0  0  0  0
  129.1290  129.2400   71.6580 O   0  0  0  0  0  0  0  0  0  0  0  0
  129.4970  127.4750   70.0560 C   0  0  0  0  0  0  0  0  0  0  0  0
  128.7450  126.3150   69.8260 C   0  0  0  0  0  0  0  0  0  0  0  0
  128.7170  125.7280   68.5640 C   0  0  0  0  0  0  0  0  0  0  0  0
  129.4440  126.2820   67.5100 C   0  0  0  0  0  0  0  0  0  0  0  0
  129.3370  125.6130   66.2750 N   0  0  0  0  0  0  0  0  0  0  0  0
  130.3050  125.2020   65.4180 C   0  0  0  0  0  0  0  0  0  0  0  0
  131.5120  125.3220   65.6300 O   0  0  0  0  0  0  0  0  0  0  0  0
  129.8230  124.5690   64.1890 C   0  0  0  0  0  0  0  0  0  0  0  0
  128.5450  125.3280   63.2430 S   0  0  0  0  0  0  0  0  0  0  0  0
  128.6170  124.0590   62.0440 C   0  0  0  0  0  0  0  0  0  0  0  0
  127.8230  124.0680   60.9760 N   0  0  0  0  0  0  0  0  0  0  0  0
  127.9610  123.0470   60.0900 C   0  0  0  0  0  0  0  0  0  0  0  0
  127.0580  123.0910   58.8910 C   0  0  0  0  0  0  0  0  0  0  0  0
  127.3370  122.3180   57.7530 C   0  0  0  0  0  0  0  0  0  0  0  0
  126.5070  122.3580   56.6360 C   0  0  0  0  0  0  0  0  0  0  0  0
  125.3820  123.1760   56.6400 C   0  0  0  0  0  0  0  0  0  0  0  0
  125.0840  123.9550   57.7540 C   0  0  0  0  0  0  0  0  0  0  0  0
  125.9160  123.9120   58.8690 C   0  0  0  0  0  0  0  0  0  0  0  0
  128.8790  122.0110   60.2940 C   0  0  0  0  0  0  0  0  0  0  0  0
  129.7170  121.9900   61.4190 C   0  0  0  0  0  0  0  0  0  0  0  0
  130.7020  120.8260   61.5780 C   0  0  0  0  0  0  0  0  0  0  0  0
  131.9580  121.2280   61.7810 F   0  0  0  0  0  0  0  0  0  0  0  0
  130.3500  120.0750   62.6210 F   0  0  0  0  0  0  0  0  0  0  0  0
  130.6980  120.0780   60.4750 F   0  0  0  0  0  0  0  0  0  0  0  0
  129.5930  123.0650   62.3450 C   0  0  0  0  0  0  0  0  0  0  0  0
  130.2700  123.3850   63.5780 C   0  0  0  0  0  0  0  0  0  0  0  0
  131.2610  122.5960   64.1050 N   0  0  0  0  0  0  0  0  0  0  0  0
  130.1950  127.4460   67.7290 C   0  0  0  0  0  0  0  0  0  0  0  0
  130.2200  128.0330   68.9910 C   0  0  0  0  0  0  0  0  0  0  0  0
  129.1929  124.4065   73.7482 H   0  0  0  0  0  0  0  0  0  0  0  0
  128.2731  124.7243   72.2384 H   0  0  0  0  0  0  0  0  0  0  0  0
  130.0658  124.8367   72.2384 H   0  0  0  0  0  0  0  0  0  0  0  0
  128.0347  126.8509   73.0319 H   0  0  0  0  0  0  0  0  0  0  0  0
  129.3276  126.6273   74.2582 H   0  0  0  0  0  0  0  0  0  0  0  0
  128.1719  125.8644   70.6498 H   0  0  0  0  0  0  0  0  0  0  0  0
  128.1175  124.8210   68.3967 H   0  0  0  0  0  0  0  0  0  0  0  0
  128.3890  125.4010   66.0020 H   0  0  0  0  0  0  0  0  0  0  0  0
  128.2259  121.6701   57.7436 H   0  0  0  0  0  0  0  0  0  0  0  0
  126.7401  121.7447   55.7531 H   0  0  0  0  0  0  0  0  0  0  0  0
  124.7248  123.2073   55.7585 H   0  0  0  0  0  0  0  0  0  0  0  0
  124.1945  124.6021   57.7534 H   0  0  0  0  0  0  0  0  0  0  0  0
  125.6767  124.5299   59.7470 H   0  0  0  0  0  0  0  0  0  0  0  0
  128.9450  121.1966   59.5575 H   0  0  0  0  0  0  0  0  0  0  0  0
  131.7800  122.8690   64.9280 H   0  0  0  0  0  0  0  0  0  0  0  0
  131.5060  121.7090   63.6870 H   0  0  0  0  0  0  0  0  0  0  0  0
  130.7650  127.8957   66.9026 H   0  0  0  0  0  0  0  0  0  0  0  0
  130.8133  128.9446   69.1551 H   0  0  0  0  0  0  0  0  0  0  0  0
  1  2  1  0
  2  3  1  0
  3  4  1  0
  4  5  2  0
  4  6  1  0
  6  7  2  0
  7  8  1  0
  8  9  2  0
  9 10  1  0
 10 11  1  0
 11 12  2  0
 11 13  1  0
 13 14  1  0
 14 15  1  0
 15 16  2  0
 16 17  1  0
 17 18  1  0
 18 19  2  0
 19 20  1  0
 20 21  2  0
 21 22  1  0
 22 23  2  0
 17 24  2  0
 24 25  1  0
 25 26  1  0
 26 27  1  0
 26 28  1  0
 26 29  1  0
 25 30  2  0
 30 31  1  0
 31 32  1  0
  9 33  1  0
 33 34  2  0
 34  6  1  0
 31 13  2  0
 30 15  1  0
 23 18  1  0
  1 35  1  0
  1 36  1  0
  1 37  1  0
  2 38  1  0
  2 39  1  0
  7 40  1  0
  8 41  1  0
 10 42  1  0
 19 43  1  0
 20 44  1  0
 21 45  1  0
 22 46  1  0
 23 47  1  0
 24 48  1  0
 32 49  1  0
 32 50  1  0
 33 51  1  0
 34 52  1  0
M  END
>  <Binding energies>  (1) 
[-7.73]

>  <Ligand effiencies>  (1) 
[-0.20891891891891892]

>  <Interactions>  (1) 
["V-B:PRO:540:CB:9857, V-B:TYR:539:CE2:9848, V-B:PRO:540:N:9856, V-B:TYR:539:CD2:9846, V-B:PRO:540:CA:9855, V-B:MET:535:CE:9807, V-A:LEU:475:CD1:4257, V-B:ALA:541:CA:9862, V-B:TYR:539:C:9839, V-B:ALA:541:CB:9864, V-B:GLU:543:CD:9880, V-B:GLU:543:CB:9878, V-A:GLU:543:CB:4906, V-A:HIS:456:CE1:4069, V-B:HIS:456:CE1:9041, H-A:TYR:484:OH:4347, V-A:GLU:543:C:4902, V-B:GLU:543:CG:9879, V-A:GLU:543:CD:4908, H-B:GLU:543:OE2:9882, V-B:GLU:543:C:9874, V-B:HIS:456:CD2:9039, H-A:HIS:456:ND1:4066, V-B:GLU:543:CA:9876, V-A:TYR:484:CZ:4346, V-B:PRO:540:CD:9859, V-A:HIS:456:CD2:4067, V-B:TYR:531:CE2:9765, V-B:LEU:363:CD1:8160"]

$$$$
4cb_Grossjean_2025
     RDKit          3D

 49 52  0  0  0  0  0  0  0  0999 V2000
  131.1600  127.9260   73.0880 C   0  0  0  0  0  0  0  0  0  0  0  0
  130.0180  127.4370   72.3990 O   0  0  0  0  0  0  0  0  0  0  0  0
  129.3850  128.1950   71.4680 C   0  0  0  0  0  0  0  0  0  0  0  0
  128.8580  129.2830   71.7200 O   0  0  0  0  0  0  0  0  0  0  0  0
  129.3900  127.5800   70.0980 C   0  0  0  0  0  0  0  0  0  0  0  0
  128.7700  126.3380   69.9040 C   0  0  0  0  0  0  0  0  0  0  0  0
  128.7500  125.7460   68.6440 C   0  0  0  0  0  0  0  0  0  0  0  0
  129.3550  126.3770   67.5560 C   0  0  0  0  0  0  0  0  0  0  0  0
  129.2630  125.6960   66.3270 N   0  0  0  0  0  0  0  0  0  0  0  0
  130.2400  125.2480   65.5020 C   0  0  0  0  0  0  0  0  0  0  0  0
  131.4450  125.3360   65.7450 O   0  0  0  0  0  0  0  0  0  0  0  0
  129.7740  124.6110   64.2670 C   0  0  0  0  0  0  0  0  0  0  0  0
  128.5000  125.3630   63.3090 S   0  0  0  0  0  0  0  0  0  0  0  0
  128.5900  124.0940   62.1100 C   0  0  0  0  0  0  0  0  0  0  0  0
  127.8060  124.0960   61.0350 N   0  0  0  0  0  0  0  0  0  0  0  0
  127.9570  123.0730   60.1540 C   0  0  0  0  0  0  0  0  0  0  0  0
  127.0620  123.1070   58.9480 C   0  0  0  0  0  0  0  0  0  0  0  0
  125.8900  123.8800   58.9450 C   0  0  0  0  0  0  0  0  0  0  0  0
  125.0540  123.9120   57.8320 C   0  0  0  0  0  0  0  0  0  0  0  0
  125.3800  123.1690   56.7020 C   0  0  0  0  0  0  0  0  0  0  0  0
  126.5340  122.3920   56.6800 C   0  0  0  0  0  0  0  0  0  0  0  0
  127.3650  122.3610   57.7950 C   0  0  0  0  0  0  0  0  0  0  0  0
  128.8780  122.0430   60.3680 C   0  0  0  0  0  0  0  0  0  0  0  0
  129.7070  122.0290   61.5000 C   0  0  0  0  0  0  0  0  0  0  0  0
  130.6960  120.8700   61.6720 C   0  0  0  0  0  0  0  0  0  0  0  0
  130.5810  120.2550   62.8510 F   0  0  0  0  0  0  0  0  0  0  0  0
  130.4880  119.9560   60.7240 F   0  0  0  0  0  0  0  0  0  0  0  0
  131.9460  121.3250   61.5790 F   0  0  0  0  0  0  0  0  0  0  0  0
  129.5690  123.1060   62.4230 C   0  0  0  0  0  0  0  0  0  0  0  0
  130.2350  123.4310   63.6610 C   0  0  0  0  0  0  0  0  0  0  0  0
  131.2290  122.6510   64.1950 N   0  0  0  0  0  0  0  0  0  0  0  0
  129.9750  127.6210   67.7410 C   0  0  0  0  0  0  0  0  0  0  0  0
  129.9920  128.2130   69.0010 C   0  0  0  0  0  0  0  0  0  0  0  0
  130.9924  127.8542   74.1728 H   0  0  0  0  0  0  0  0  0  0  0  0
  132.0395  127.3256   72.8124 H   0  0  0  0  0  0  0  0  0  0  0  0
  131.3324  128.9769   72.8124 H   0  0  0  0  0  0  0  0  0  0  0  0
  128.2952  125.8267   70.7544 H   0  0  0  0  0  0  0  0  0  0  0  0
  128.2539  124.7741   68.5050 H   0  0  0  0  0  0  0  0  0  0  0  0
  128.3160  125.5100   66.0290 H   0  0  0  0  0  0  0  0  0  0  0  0
  125.6281  124.4696   59.8359 H   0  0  0  0  0  0  0  0  0  0  0  0
  124.1391  124.5226   57.8462 H   0  0  0  0  0  0  0  0  0  0  0  0
  124.7218  123.1959   55.8210 H   0  0  0  0  0  0  0  0  0  0  0  0
  126.7880  121.8050   55.7851 H   0  0  0  0  0  0  0  0  0  0  0  0
  128.2745  121.7426   57.7746 H   0  0  0  0  0  0  0  0  0  0  0  0
  128.9542  121.2272   59.6341 H   0  0  0  0  0  0  0  0  0  0  0  0
  131.5030  121.7740   63.7740 H   0  0  0  0  0  0  0  0  0  0  0  0
  131.7250  122.9300   65.0290 H   0  0  0  0  0  0  0  0  0  0  0  0
  130.4489  128.1302   66.8889 H   0  0  0  0  0  0  0  0  0  0  0  0
  130.4830  129.1878   69.1375 H   0  0  0  0  0  0  0  0  0  0  0  0
  1  2  1  0
  2  3  1  0
  3  4  2  0
  3  5  1  0
  5  6  2  0
  6  7  1  0
  7  8  2  0
  8  9  1  0
  9 10  1  0
 10 11  2  0
 10 12  1  0
 12 13  1  0
 13 14  1  0
 14 15  2  0
 15 16  1  0
 16 17  1  0
 17 18  2  0
 18 19  1  0
 19 20  2  0
 20 21  1  0
 21 22  2  0
 16 23  2  0
 23 24  1  0
 24 25  1  0
 25 26  1  0
 25 27  1  0
 25 28  1  0
 24 29  2  0
 29 30  1  0
 30 31  1  0
  8 32  1  0
 32 33  2  0
 33  5  1  0
 30 12  2  0
 29 14  1  0
 22 17  1  0
  1 34  1  0
  1 35  1  0
  1 36  1  0
  6 37  1  0
  7 38  1  0
  9 39  1  0
 18 40  1  0
 19 41  1  0
 20 42  1  0
 21 43  1  0
 22 44  1  0
 23 45  1  0
 31 46  1  0
 31 47  1  0
 32 48  1  0
 33 49  1  0
M  END
>  <Binding energies>  (1) 
[-7.59]

>  <Ligand effiencies>  (1) 
[-0.21083333333333332]

>  <Interactions>  (1) 
["V-B:PRO:540:CB:9857, V-B:PRO:540:N:9856, V-B:TYR:539:CD2:9846, V-B:PRO:540:CA:9855, V-B:MET:535:CE:9807, V-A:LEU:475:CD1:4257, V-B:ALA:541:CA:9862, V-B:TYR:539:C:9839, V-B:ALA:541:CB:9864, V-B:GLU:543:CD:9880, V-B:GLU:543:CB:9878, V-A:GLU:543:CB:4906, V-A:HIS:456:CE1:4069, V-B:HIS:456:CE1:9041, H-A:TYR:484:OH:4347, V-A:GLU:543:C:4902, V-B:GLU:543:CG:9879, V-A:GLU:543:CD:4908, H-B:GLU:543:OE2:9882, V-B:GLU:543:C:9874, V-B:HIS:456:CD2:9039, V-A:LYS:547:CE:4950, V-B:GLU:543:CA:9876, V-A:TYR:484:CZ:4346, V-A:GLY:544:C:4912, V-B:TYR:531:CE2:9765, V-B:LEU:363:CD1:8160"]

$$$$
4cc_Grossjean_2025
     RDKit          3D

 47 50  0  0  0  0  0  0  0  0999 V2000
  130.6500  128.3780   72.0280 C   0  0  0  0  0  0  0  0  0  0  0  0
  129.4210  128.1610   71.3440 O   0  0  0  0  0  0  0  0  0  0  0  0
  129.4440  127.6230   70.0720 C   0  0  0  0  0  0  0  0  0  0  0  0
  128.7360  126.4360   69.8850 C   0  0  0  0  0  0  0  0  0  0  0  0
  128.7000  125.8200   68.6370 C   0  0  0  0  0  0  0  0  0  0  0  0
  129.3830  126.3810   67.5560 C   0  0  0  0  0  0  0  0  0  0  0  0
  129.2750  125.6970   66.3310 N   0  0  0  0  0  0  0  0  0  0  0  0
  130.2560  125.2240   65.5250 C   0  0  0  0  0  0  0  0  0  0  0  0
  131.4580  125.2980   65.7870 O   0  0  0  0  0  0  0  0  0  0  0  0
  129.8010  124.5960   64.2810 C   0  0  0  0  0  0  0  0  0  0  0  0
  128.5390  125.3560   63.3130 S   0  0  0  0  0  0  0  0  0  0  0  0
  128.6150  124.0730   62.1280 C   0  0  0  0  0  0  0  0  0  0  0  0
  127.8310  124.0750   61.0520 N   0  0  0  0  0  0  0  0  0  0  0  0
  127.9680  123.0410   60.1820 C   0  0  0  0  0  0  0  0  0  0  0  0
  127.0700  123.0690   58.9790 C   0  0  0  0  0  0  0  0  0  0  0  0
  125.8710  123.8000   58.9950 C   0  0  0  0  0  0  0  0  0  0  0  0
  125.0320  123.8280   57.8840 C   0  0  0  0  0  0  0  0  0  0  0  0
  125.3810  123.1230   56.7380 C   0  0  0  0  0  0  0  0  0  0  0  0
  126.5610  122.3870   56.6960 C   0  0  0  0  0  0  0  0  0  0  0  0
  127.3960  122.3610   57.8100 C   0  0  0  0  0  0  0  0  0  0  0  0
  128.8780  122.0030   60.4050 C   0  0  0  0  0  0  0  0  0  0  0  0
  129.7080  121.9910   61.5380 C   0  0  0  0  0  0  0  0  0  0  0  0
  130.6870  120.8250   61.7160 C   0  0  0  0  0  0  0  0  0  0  0  0
  130.6140  120.2580   62.9230 F   0  0  0  0  0  0  0  0  0  0  0  0
  130.4300  119.8780   60.8150 F   0  0  0  0  0  0  0  0  0  0  0  0
  131.9380  121.2570   61.5540 F   0  0  0  0  0  0  0  0  0  0  0  0
  129.5790  123.0750   62.4520 C   0  0  0  0  0  0  0  0  0  0  0  0
  130.2400  123.3990   63.6930 C   0  0  0  0  0  0  0  0  0  0  0  0
  131.2130  122.6040   64.2440 N   0  0  0  0  0  0  0  0  0  0  0  0
  130.0870  127.5820   67.7330 C   0  0  0  0  0  0  0  0  0  0  0  0
  130.1190  128.1940   68.9820 C   0  0  0  0  0  0  0  0  0  0  0  0
  130.4758  128.3472   73.1137 H   0  0  0  0  0  0  0  0  0  0  0  0
  131.3682  127.5928   71.7495 H   0  0  0  0  0  0  0  0  0  0  0  0
  131.0559  129.3617   71.7495 H   0  0  0  0  0  0  0  0  0  0  0  0
  128.2007  125.9820   70.7320 H   0  0  0  0  0  0  0  0  0  0  0  0
  128.1315  124.8880   68.5020 H   0  0  0  0  0  0  0  0  0  0  0  0
  128.3280  125.5150   66.0350 H   0  0  0  0  0  0  0  0  0  0  0  0
  125.5902  124.3594   59.8996 H   0  0  0  0  0  0  0  0  0  0  0  0
  124.0965  124.4059   57.9132 H   0  0  0  0  0  0  0  0  0  0  0  0
  124.7202  123.1471   55.8589 H   0  0  0  0  0  0  0  0  0  0  0  0
  126.8327  121.8288   55.7879 H   0  0  0  0  0  0  0  0  0  0  0  0
  128.3269  121.7761   57.7742 H   0  0  0  0  0  0  0  0  0  0  0  0
  128.9452  121.1796   59.6787 H   0  0  0  0  0  0  0  0  0  0  0  0
  131.4770  121.7200   63.8330 H   0  0  0  0  0  0  0  0  0  0  0  0
  131.7000  122.8780   65.0850 H   0  0  0  0  0  0  0  0  0  0  0  0
  130.6142  128.0401   66.8832 H   0  0  0  0  0  0  0  0  0  0  0  0
  130.6774  129.1322   69.1162 H   0  0  0  0  0  0  0  0  0  0  0  0
  1  2  1  0
  2  3  1  0
  3  4  2  0
  4  5  1  0
  5  6  2  0
  6  7  1  0
  7  8  1  0
  8  9  2  0
  8 10  1  0
 10 11  1  0
 11 12  1  0
 12 13  2  0
 13 14  1  0
 14 15  1  0
 15 16  2  0
 16 17  1  0
 17 18  2  0
 18 19  1  0
 19 20  2  0
 14 21  2  0
 21 22  1  0
 22 23  1  0
 23 24  1  0
 23 25  1  0
 23 26  1  0
 22 27  2  0
 27 28  1  0
 28 29  1  0
  6 30  1  0
 30 31  2  0
 31  3  1  0
 28 10  2  0
 27 12  1  0
 20 15  1  0
  1 32  1  0
  1 33  1  0
  1 34  1  0
  4 35  1  0
  5 36  1  0
  7 37  1  0
 16 38  1  0
 17 39  1  0
 18 40  1  0
 19 41  1  0
 20 42  1  0
 21 43  1  0
 29 44  1  0
 29 45  1  0
 30 46  1  0
 31 47  1  0
M  END
>  <Binding energies>  (1) 
[-7.34]

>  <Ligand effiencies>  (1) 
[-0.21588235294117647]

>  <Interactions>  (1) 
["V-B:PRO:540:CB:9857, V-B:PRO:540:N:9856, V-B:TYR:539:CD2:9846, V-B:PRO:540:CA:9855, V-B:MET:535:CE:9807, V-A:LEU:475:CD1:4257, V-B:ALA:541:CA:9862, V-B:TYR:539:C:9839, V-B:ALA:541:CB:9864, V-B:GLU:543:CD:9880, V-B:GLU:543:CB:9878, V-A:GLU:543:CB:4906, V-A:HIS:456:CE1:4069, V-B:HIS:456:CE1:9041, H-A:TYR:484:OH:4347, V-A:GLU:543:C:4902, V-B:GLU:543:CG:9879, V-A:GLU:543:CD:4908, H-B:GLU:543:OE2:9882, V-B:GLU:543:C:9874, V-A:GLY:544:CA:4914, V-B:GLU:543:CA:9876, V-A:TYR:484:CZ:4346, V-A:GLY:544:C:4912, V-B:TYR:531:CE2:9765, V-B:LEU:363:CD1:8160, V-A:LEU:475:CG:4256, V-A:LEU:475:CD2:4258"]

$$$$
4cd_Grossjean_2025
     RDKit          3D

 43 46  0  0  0  0  0  0  0  0999 V2000
  131.2440  122.6950   64.2380 N   0  0  0  0  0  0  0  0  0  0  0  0
  130.2800  123.4890   63.6710 C   0  0  0  0  0  0  0  0  0  0  0  0
  129.8550  124.7040   64.2330 C   0  0  0  0  0  0  0  0  0  0  0  0
  130.3020  125.3420   65.4750 C   0  0  0  0  0  0  0  0  0  0  0  0
  131.5010  125.4410   65.7330 O   0  0  0  0  0  0  0  0  0  0  0  0
  129.3130  125.8020   66.2790 N   0  0  0  0  0  0  0  0  0  0  0  0
  129.3970  126.4090   67.5460 C   0  0  0  0  0  0  0  0  0  0  0  0
  128.7020  125.7710   68.5780 C   0  0  0  0  0  0  0  0  0  0  0  0
  128.7350  126.2860   69.8700 C   0  0  0  0  0  0  0  0  0  0  0  0
  129.4700  127.4380   70.1350 C   0  0  0  0  0  0  0  0  0  0  0  0
  130.1790  128.0760   69.1200 C   0  0  0  0  0  0  0  0  0  0  0  0
  130.1480  127.5640   67.8250 C   0  0  0  0  0  0  0  0  0  0  0  0
  128.6150  125.4650   63.2380 S   0  0  0  0  0  0  0  0  0  0  0  0
  128.6680  124.1520   62.0870 C   0  0  0  0  0  0  0  0  0  0  0  0
  127.8860  124.1400   61.0100 N   0  0  0  0  0  0  0  0  0  0  0  0
  127.9890  123.0690   60.1800 C   0  0  0  0  0  0  0  0  0  0  0  0
  127.0930  123.0830   58.9750 C   0  0  0  0  0  0  0  0  0  0  0  0
  125.9110  123.8420   58.9670 C   0  0  0  0  0  0  0  0  0  0  0  0
  125.0760  123.8590   57.8530 C   0  0  0  0  0  0  0  0  0  0  0  0
  125.4130  123.1160   56.7270 C   0  0  0  0  0  0  0  0  0  0  0  0
  126.5780  122.3590   56.7070 C   0  0  0  0  0  0  0  0  0  0  0  0
  127.4110  122.3450   57.8220 C   0  0  0  0  0  0  0  0  0  0  0  0
  128.8880  122.0270   60.4240 C   0  0  0  0  0  0  0  0  0  0  0  0
  129.7200  122.0320   61.5560 C   0  0  0  0  0  0  0  0  0  0  0  0
  130.6800  120.8550   61.7650 C   0  0  0  0  0  0  0  0  0  0  0  0
  130.6280  120.3490   62.9990 F   0  0  0  0  0  0  0  0  0  0  0  0
  130.3810  119.8720   60.9170 F   0  0  0  0  0  0  0  0  0  0  0  0
  131.9340  121.2540   61.5520 F   0  0  0  0  0  0  0  0  0  0  0  0
  129.6120  123.1430   62.4400 C   0  0  0  0  0  0  0  0  0  0  0  0
  131.6610  121.9230   63.7390 H   0  0  0  0  0  0  0  0  0  0  0  0
  131.5730  122.8590   65.1790 H   0  0  0  0  0  0  0  0  0  0  0  0
  128.3720  125.7160   65.9220 H   0  0  0  0  0  0  0  0  0  0  0  0
  128.1264  124.8576   68.3674 H   0  0  0  0  0  0  0  0  0  0  0  0
  128.1826  125.7850   70.6786 H   0  0  0  0  0  0  0  0  0  0  0  0
  129.4911  127.8483   71.1554 H   0  0  0  0  0  0  0  0  0  0  0  0
  130.7622  128.9822   69.3406 H   0  0  0  0  0  0  0  0  0  0  0  0
  130.7104  128.0627   67.0219 H   0  0  0  0  0  0  0  0  0  0  0  0
  125.6408  124.4323   59.8550 H   0  0  0  0  0  0  0  0  0  0  0  0
  124.1534  124.4578   57.8636 H   0  0  0  0  0  0  0  0  0  0  0  0
  124.7534  123.1276   55.8468 H   0  0  0  0  0  0  0  0  0  0  0  0
  126.8408  121.7733   55.8138 H   0  0  0  0  0  0  0  0  0  0  0  0
  128.3336  121.7463   57.8004 H   0  0  0  0  0  0  0  0  0  0  0  0
  128.9452  121.1869   59.7162 H   0  0  0  0  0  0  0  0  0  0  0  0
  1  2  1  0
  2  3  2  0
  3  4  1  0
  4  5  2  0
  4  6  1  0
  6  7  1  0
  7  8  2  0
  8  9  1  0
  9 10  2  0
 10 11  1  0
 11 12  2  0
  3 13  1  0
 13 14  1  0
 14 15  2  0
 15 16  1  0
 16 17  1  0
 17 18  2  0
 18 19  1  0
 19 20  2  0
 20 21  1  0
 21 22  2  0
 16 23  2  0
 23 24  1  0
 24 25  1  0
 25 26  1  0
 25 27  1  0
 25 28  1  0
 24 29  2  0
 29  2  1  0
 12  7  1  0
 29 14  1  0
 22 17  1  0
  1 30  1  0
  1 31  1  0
  6 32  1  0
  8 33  1  0
  9 34  1  0
 10 35  1  0
 11 36  1  0
 12 37  1  0
 18 38  1  0
 19 39  1  0
 20 40  1  0
 21 41  1  0
 22 42  1  0
 23 43  1  0
M  END
>  <Binding energies>  (1) 
[-7.5]

>  <Ligand effiencies>  (1) 
[-0.234375]

>  <Interactions>  (1) 
["V-B:PRO:540:CB:9857, V-B:PRO:540:N:9856, V-B:TYR:539:CD2:9846, V-B:PRO:540:CA:9855, V-B:MET:535:CE:9807, V-A:LEU:475:CD1:4257, V-B:ALA:541:CA:9862, V-B:TYR:539:C:9839, V-B:ALA:541:CB:9864, V-B:GLU:543:CD:9880, V-B:GLU:543:CB:9878, V-A:GLU:543:CB:4906, V-A:HIS:456:CE1:4069, V-B:HIS:456:CE1:9041, H-A:TYR:484:OH:4347, V-A:GLU:543:C:4902, V-B:GLU:543:CG:9879, V-A:GLU:543:CD:4908, H-B:GLU:543:OE2:9882, V-B:GLU:543:C:9874, V-B:GLU:543:CA:9876, V-A:TYR:484:CZ:4346, V-B:PRO:540:CD:9859, V-B:TYR:531:CE2:9765, V-B:LEU:363:CD1:8160, V-A:LEU:475:CG:4256, V-A:LEU:475:CD2:4258"]

$$$$
4ce_Grossjean_2025
     RDKit          3D

 45 48  0  0  0  0  0  0  0  0999 V2000
  128.7390  125.7790   71.2040 C   0  0  0  0  0  0  0  0  0  0  0  0
  128.9790  126.5330   69.9100 C   0  0  0  0  0  0  0  0  0  0  0  0
  129.2790  127.8980   69.9040 C   0  0  0  0  0  0  0  0  0  0  0  0
  129.4950  128.5240   68.6760 C   0  0  0  0  0  0  0  0  0  0  0  0
  129.4090  127.7810   67.4970 C   0  0  0  0  0  0  0  0  0  0  0  0
  129.0990  126.4180   67.5750 C   0  0  0  0  0  0  0  0  0  0  0  0
  129.0510  125.7180   66.3560 N   0  0  0  0  0  0  0  0  0  0  0  0
  130.0790  125.2540   65.6020 C   0  0  0  0  0  0  0  0  0  0  0  0
  131.2650  125.3770   65.9120 O   0  0  0  0  0  0  0  0  0  0  0  0
  129.6940  124.5760   64.3620 C   0  0  0  0  0  0  0  0  0  0  0  0
  128.4290  125.2520   63.3370 S   0  0  0  0  0  0  0  0  0  0  0  0
  128.6270  123.9680   62.1700 C   0  0  0  0  0  0  0  0  0  0  0  0
  127.8900  123.9170   61.0630 N   0  0  0  0  0  0  0  0  0  0  0  0
  128.1260  122.8890   60.2060 C   0  0  0  0  0  0  0  0  0  0  0  0
  127.2830  122.8640   58.9660 C   0  0  0  0  0  0  0  0  0  0  0  0
  127.6690  122.1000   57.8520 C   0  0  0  0  0  0  0  0  0  0  0  0
  126.8950  122.0780   56.6950 C   0  0  0  0  0  0  0  0  0  0  0  0
  125.7200  122.8190   56.6350 C   0  0  0  0  0  0  0  0  0  0  0  0
  125.3160  123.5850   57.7230 C   0  0  0  0  0  0  0  0  0  0  0  0
  126.0930  123.6070   58.8780 C   0  0  0  0  0  0  0  0  0  0  0  0
  129.0830  121.9050   60.4760 C   0  0  0  0  0  0  0  0  0  0  0  0
  129.8620  121.9460   61.6440 C   0  0  0  0  0  0  0  0  0  0  0  0
  130.8940  120.8380   61.8760 C   0  0  0  0  0  0  0  0  0  0  0  0
  130.9300  119.9400   60.8900 F   0  0  0  0  0  0  0  0  0  0  0  0
  132.1130  121.3710   61.9740 F   0  0  0  0  0  0  0  0  0  0  0  0
  130.6090  120.1850   63.0020 F   0  0  0  0  0  0  0  0  0  0  0  0
  129.6340  123.0290   62.5410 C   0  0  0  0  0  0  0  0  0  0  0  0
  130.2270  123.4030   63.8020 C   0  0  0  0  0  0  0  0  0  0  0  0
  131.2240  122.6740   64.3980 N   0  0  0  0  0  0  0  0  0  0  0  0
  128.8900  125.7970   68.7720 N   0  0  0  0  0  0  0  0  0  0  0  0
  128.9493  126.4398   72.0579 H   0  0  0  0  0  0  0  0  0  0  0  0
  127.6910  125.4476   71.2463 H   0  0  0  0  0  0  0  0  0  0  0  0
  129.4026  124.9028   71.2463 H   0  0  0  0  0  0  0  0  0  0  0  0
  129.3432  128.4649   70.8445 H   0  0  0  0  0  0  0  0  0  0  0  0
  129.7319  129.5975   68.6369 H   0  0  0  0  0  0  0  0  0  0  0  0
  129.5822  128.2593   66.5217 H   0  0  0  0  0  0  0  0  0  0  0  0
  128.1200  125.5060   66.0280 H   0  0  0  0  0  0  0  0  0  0  0  0
  128.5966  121.5104   57.8946 H   0  0  0  0  0  0  0  0  0  0  0  0
  127.2121  121.4760   55.8307 H   0  0  0  0  0  0  0  0  0  0  0  0
  125.1067  122.7992   55.7220 H   0  0  0  0  0  0  0  0  0  0  0  0
  124.3865  124.1710   57.6713 H   0  0  0  0  0  0  0  0  0  0  0  0
  125.7705  124.2157   59.7356 H   0  0  0  0  0  0  0  0  0  0  0  0
  129.2283  121.0831   59.7595 H   0  0  0  0  0  0  0  0  0  0  0  0
  131.5230  121.7800   64.0350 H   0  0  0  0  0  0  0  0  0  0  0  0
  131.6950  123.0080   65.2270 H   0  0  0  0  0  0  0  0  0  0  0  0
  1  2  1  0
  2  3  2  0
  3  4  1  0
  4  5  2  0
  5  6  1  0
  6  7  1  0
  7  8  1  0
  8  9  2  0
  8 10  1  0
 10 11  1  0
 11 12  1  0
 12 13  2  0
 13 14  1  0
 14 15  1  0
 15 16  2  0
 16 17  1  0
 17 18  2  0
 18 19  1  0
 19 20  2  0
 14 21  2  0
 21 22  1  0
 22 23  1  0
 23 24  1  0
 23 25  1  0
 23 26  1  0
 22 27  2  0
 27 28  1  0
 28 29  1  0
  6 30  2  0
 30  2  1  0
 28 10  2  0
 27 12  1  0
 20 15  1  0
  1 31  1  0
  1 32  1  0
  1 33  1  0
  3 34  1  0
  4 35  1  0
  5 36  1  0
  7 37  1  0
 16 38  1  0
 17 39  1  0
 18 40  1  0
 19 41  1  0
 20 42  1  0
 21 43  1  0
 29 44  1  0
 29 45  1  0
M  END
>  <Binding energies>  (1) 
[-7.25]

>  <Ligand effiencies>  (1) 
[-0.2196969696969697]

>  <Interactions>  (1) 
["V-B:PRO:540:CB:9857, V-B:PRO:540:N:9856, V-B:TYR:539:CD2:9846, V-B:PRO:540:CA:9855, V-B:MET:535:CE:9807, V-A:LEU:475:CD1:4257, V-B:ALA:541:CA:9862, V-B:TYR:539:C:9839, V-B:ALA:541:CB:9864, V-B:GLU:543:CD:9880, V-B:GLU:543:CB:9878, V-A:GLU:543:CB:4906, V-A:HIS:456:CE1:4069, V-B:HIS:456:CE1:9041, H-A:TYR:484:OH:4347, V-A:GLU:543:C:4902, V-B:GLU:543:CG:9879, V-A:GLU:543:CD:4908, V-A:GLU:543:CG:4907, H-B:GLU:543:OE2:9882, V-B:GLU:543:C:9874, V-A:TYR:484:CZ:4346, V-B:TYR:539:CA:9841, V-B:PRO:540:CD:9859, V-B:TYR:531:CE2:9765, V-B:LEU:363:CD1:8160, H-B:GLU:543:OE1:9881, V-A:LEU:475:CG:4256, V-A:LEU:475:CD2:4258, V-A:GLU:543:CA:4904"]

$$$$
4cf_Grossjean_2025
     RDKit          3D

 42 45  0  0  0  0  0  0  0  0999 V2000
  125.9950  125.7000   59.1210 N   0  0  0  0  0  0  0  0  0  0  0  0
  126.8590  125.3140   60.1130 C   0  0  0  0  0  0  0  0  0  0  0  0
  127.0700  126.0600   61.2840 C   0  0  0  0  0  0  0  0  0  0  0  0
  126.4840  127.3490   61.6640 C   0  0  0  0  0  0  0  0  0  0  0  0
  125.9890  128.0880   60.8120 O   0  0  0  0  0  0  0  0  0  0  0  0
  126.5240  127.6370   62.9870 N   0  0  0  0  0  0  0  0  0  0  0  0
  126.1000  128.7940   63.6680 C   0  0  0  0  0  0  0  0  0  0  0  0
  126.8770  129.5380   64.5770 C   0  0  0  0  0  0  0  0  0  0  0  0
  126.3280  130.6620   65.1960 C   0  0  0  0  0  0  0  0  0  0  0  0
  125.0130  131.0160   64.8940 C   0  0  0  0  0  0  0  0  0  0  0  0
  124.2400  130.3130   64.0280 N   0  0  0  0  0  0  0  0  0  0  0  0
  124.7880  129.2210   63.4340 C   0  0  0  0  0  0  0  0  0  0  0  0
  128.2370  125.2690   62.3410 S   0  0  0  0  0  0  0  0  0  0  0  0
  128.4390  123.9530   61.2080 C   0  0  0  0  0  0  0  0  0  0  0  0
  129.2740  122.9460   61.4540 N   0  0  0  0  0  0  0  0  0  0  0  0
  129.3760  121.9780   60.5060 C   0  0  0  0  0  0  0  0  0  0  0  0
  130.3300  120.8600   60.8070 C   0  0  0  0  0  0  0  0  0  0  0  0
  129.8990  119.7130   61.4920 C   0  0  0  0  0  0  0  0  0  0  0  0
  130.7770  118.6710   61.7760 C   0  0  0  0  0  0  0  0  0  0  0  0
  132.1050  118.7610   61.3720 C   0  0  0  0  0  0  0  0  0  0  0  0
  132.5600  119.8840   60.6880 C   0  0  0  0  0  0  0  0  0  0  0  0
  131.6770  120.9230   60.4080 C   0  0  0  0  0  0  0  0  0  0  0  0
  128.6220  122.0140   59.3290 C   0  0  0  0  0  0  0  0  0  0  0  0
  127.7350  123.0690   59.0620 C   0  0  0  0  0  0  0  0  0  0  0  0
  126.9430  123.0470   57.7500 C   0  0  0  0  0  0  0  0  0  0  0  0
  127.2380  122.0000   56.9760 F   0  0  0  0  0  0  0  0  0  0  0  0
  125.6370  122.9940   58.0120 F   0  0  0  0  0  0  0  0  0  0  0  0
  127.2060  124.1480   57.0450 F   0  0  0  0  0  0  0  0  0  0  0  0
  127.6340  124.0990   60.0410 C   0  0  0  0  0  0  0  0  0  0  0  0
  126.3080  125.8650   58.1740 H   0  0  0  0  0  0  0  0  0  0  0  0
  125.0090  125.8330   59.3040 H   0  0  0  0  0  0  0  0  0  0  0  0
  126.9090  126.9210   63.5860 H   0  0  0  0  0  0  0  0  0  0  0  0
  127.9111  129.2348   64.7979 H   0  0  0  0  0  0  0  0  0  0  0  0
  126.9201  131.2565   65.9074 H   0  0  0  0  0  0  0  0  0  0  0  0
  124.5834  131.9047   65.3795 H   0  0  0  0  0  0  0  0  0  0  0  0
  124.1684  128.6426   62.7329 H   0  0  0  0  0  0  0  0  0  0  0  0
  128.8487  119.6363   61.8100 H   0  0  0  0  0  0  0  0  0  0  0  0
  130.4226  117.7812   62.3170 H   0  0  0  0  0  0  0  0  0  0  0  0
  132.8005  117.9384   61.5949 H   0  0  0  0  0  0  0  0  0  0  0  0
  133.6111  119.9503   60.3705 H   0  0  0  0  0  0  0  0  0  0  0  0
  132.0391  121.8086   59.8653 H   0  0  0  0  0  0  0  0  0  0  0  0
  128.7259  121.1992   58.5974 H   0  0  0  0  0  0  0  0  0  0  0  0
  1  2  1  0
  2  3  2  0
  3  4  1  0
  4  5  2  0
  4  6  1  0
  6  7  1  0
  7  8  2  0
  8  9  1  0
  9 10  2  0
 10 11  1  0
 11 12  2  0
  3 13  1  0
 13 14  1  0
 14 15  2  0
 15 16  1  0
 16 17  1  0
 17 18  2  0
 18 19  1  0
 19 20  2  0
 20 21  1  0
 21 22  2  0
 16 23  2  0
 23 24  1  0
 24 25  1  0
 25 26  1  0
 25 27  1  0
 25 28  1  0
 24 29  2  0
 29  2  1  0
 12  7  1  0
 29 14  1  0
 22 17  1  0
  1 30  1  0
  1 31  1  0
  6 32  1  0
  8 33  1  0
  9 34  1  0
 10 35  1  0
 12 36  1  0
 18 37  1  0
 19 38  1  0
 20 39  1  0
 21 40  1  0
 22 41  1  0
 23 42  1  0
M  END
>  <Binding energies>  (1) 
[-7.15]

>  <Ligand effiencies>  (1) 
[-0.2234375]

>  <Interactions>  (1) 
["V-B:PRO:540:CB:9857, V-A:ILE:369:CG2:3236, V-B:TYR:539:CE2:9848, V-B:PRO:540:N:9856, V-B:TYR:539:CD2:9846, V-B:PRO:540:CA:9855, V-A:PRO:482:CG:4326, V-B:PRO:540:C:9853, V-A:PRO:482:CB:4325, V-B:MET:535:CE:9807, V-A:LEU:475:CD1:4257, H-B:TYR:531:OH:9767, V-B:ALA:541:CA:9862, V-B:TYR:539:C:9839, V-B:ALA:541:CB:9864, V-B:GLU:543:CD:9880, V-B:ARG:545:CZ:9898, H-B:GLY:454:N:9021, V-B:TYR:484:CZ:9318, V-B:TYR:484:CE2:9317, H-B:GLU:543:OE2:9882, V-B:ASP:366:CB:8183, V-B:ASP:366:CG:8184, V-B:TYR:539:CA:9841, V-B:PRO:540:CD:9859, V-B:LEU:363:CD1:8160, V-B:LEU:475:CD1:9229, H-B:GLU:543:OE1:9881, H-B:ASP:366:OD1:8185, V-B:GLY:454:CA:9020"]

$$$$
4cg_Grossjean_2025
     RDKit          3D

 46 49  0  0  0  0  0  0  0  0999 V2000
  131.9260  126.0810   64.7680 N   0  0  0  0  0  0  0  0  0  0  0  0
  131.2360  124.8960   64.7390 C   0  0  0  0  0  0  0  0  0  0  0  0
  130.2080  124.5850   65.6400 C   0  0  0  0  0  0  0  0  0  0  0  0
  129.6460  125.4140   66.7050 C   0  0  0  0  0  0  0  0  0  0  0  0
  129.4960  124.9770   67.8480 O   0  0  0  0  0  0  0  0  0  0  0  0
  129.2700  126.6610   66.3490 N   0  0  0  0  0  0  0  0  0  0  0  0
  128.7070  127.6660   67.2490 C   0  0  0  0  0  0  0  0  0  0  0  0
  127.5750  128.4740   66.6240 C   0  0  0  0  0  0  0  0  0  0  0  0
  127.8700  129.6190   65.8780 C   0  0  0  0  0  0  0  0  0  0  0  0
  126.8410  130.3420   65.2790 C   0  0  0  0  0  0  0  0  0  0  0  0
  125.5240  129.9120   65.4200 C   0  0  0  0  0  0  0  0  0  0  0  0
  125.2250  128.7630   66.1490 C   0  0  0  0  0  0  0  0  0  0  0  0
  126.2530  128.0380   66.7460 C   0  0  0  0  0  0  0  0  0  0  0  0
  129.5230  122.9960   65.3080 S   0  0  0  0  0  0  0  0  0  0  0  0
  130.6330  122.7500   63.9800 C   0  0  0  0  0  0  0  0  0  0  0  0
  130.6170  121.6310   63.2610 N   0  0  0  0  0  0  0  0  0  0  0  0
  131.5140  121.5300   62.2460 C   0  0  0  0  0  0  0  0  0  0  0  0
  131.4720  120.2540   61.4540 C   0  0  0  0  0  0  0  0  0  0  0  0
  130.3510  119.4100   61.5060 C   0  0  0  0  0  0  0  0  0  0  0  0
  130.3070  118.2260   60.7760 C   0  0  0  0  0  0  0  0  0  0  0  0
  131.3900  117.8660   59.9800 C   0  0  0  0  0  0  0  0  0  0  0  0
  132.5140  118.6820   59.9110 C   0  0  0  0  0  0  0  0  0  0  0  0
  132.5530  119.8640   60.6440 C   0  0  0  0  0  0  0  0  0  0  0  0
  132.4350  122.5480   61.9700 C   0  0  0  0  0  0  0  0  0  0  0  0
  132.4600  123.7320   62.7230 C   0  0  0  0  0  0  0  0  0  0  0  0
  133.4950  124.8060   62.3680 C   0  0  0  0  0  0  0  0  0  0  0  0
  134.3370  125.0730   63.3690 F   0  0  0  0  0  0  0  0  0  0  0  0
  134.2260  124.4020   61.3280 F   0  0  0  0  0  0  0  0  0  0  0  0
  132.8760  125.9430   62.0550 F   0  0  0  0  0  0  0  0  0  0  0  0
  131.5140  123.8540   63.7810 C   0  0  0  0  0  0  0  0  0  0  0  0
  131.4550  126.9740   64.7960 H   0  0  0  0  0  0  0  0  0  0  0  0
  132.9370  126.1000   64.7720 H   0  0  0  0  0  0  0  0  0  0  0  0
  129.4900  126.9750   65.4150 H   0  0  0  0  0  0  0  0  0  0  0  0
  128.3185  127.1552   68.1424 H   0  0  0  0  0  0  0  0  0  0  0  0
  129.5143  128.3727   67.4915 H   0  0  0  0  0  0  0  0  0  0  0  0
  128.9133  129.9485   65.7642 H   0  0  0  0  0  0  0  0  0  0  0  0
  127.0675  131.2479   64.6976 H   0  0  0  0  0  0  0  0  0  0  0  0
  124.7111  130.4856   64.9508 H   0  0  0  0  0  0  0  0  0  0  0  0
  124.1817  128.4301   66.2525 H   0  0  0  0  0  0  0  0  0  0  0  0
  126.0248  127.1233   67.3129 H   0  0  0  0  0  0  0  0  0  0  0  0
  129.4927  119.6895   62.1347 H   0  0  0  0  0  0  0  0  0  0  0  0
  129.4200  117.5776   60.8280 H   0  0  0  0  0  0  0  0  0  0  0  0
  131.3569  116.9307   59.4020 H   0  0  0  0  0  0  0  0  0  0  0  0
  133.3680  118.3944   59.2801 H   0  0  0  0  0  0  0  0  0  0  0  0
  133.4454  120.5047   60.5888 H   0  0  0  0  0  0  0  0  0  0  0  0
  133.1529  122.4171   61.1469 H   0  0  0  0  0  0  0  0  0  0  0  0
  1  2  1  0
  2  3  2  0
  3  4  1  0
  4  5  2  0
  4  6  1  0
  6  7  1  0
  7  8  1  0
  8  9  2  0
  9 10  1  0
 10 11  2  0
 11 12  1  0
 12 13  2  0
  3 14  1  0
 14 15  1  0
 15 16  2  0
 16 17  1  0
 17 18  1  0
 18 19  2  0
 19 20  1  0
 20 21  2  0
 21 22  1  0
 22 23  2  0
 17 24  2  0
 24 25  1  0
 25 26  1  0
 26 27  1  0
 26 28  1  0
 26 29  1  0
 25 30  2  0
 30  2  1  0
 13  8  1  0
 30 15  1  0
 23 18  1  0
  1 31  1  0
  1 32  1  0
  6 33  1  0
  7 34  1  0
  7 35  1  0
  9 36  1  0
 10 37  1  0
 11 38  1  0
 12 39  1  0
 13 40  1  0
 19 41  1  0
 20 42  1  0
 21 43  1  0
 22 44  1  0
 23 45  1  0
 24 46  1  0
M  END
>  <Binding energies>  (1) 
[-7.84]

>  <Ligand effiencies>  (1) 
[-0.23757575757575758]

>  <Interactions>  (1) 
["V-A:ILE:369:CG2:3236, V-B:TYR:539:CD2:9846, V-A:PRO:482:CG:4326, V-A:PRO:482:CB:4325, V-A:LEU:475:CD1:4257, V-B:TYR:539:C:9839, V-B:ALA:541:CB:9864, V-B:GLU:543:CD:9880, V-A:ARG:545:CZ:4926, V-A:GLY:453:CA:4043, V-B:GLU:543:CB:9878, V-A:GLY:453:C:4041, V-B:HIS:456:CE1:9041, V-B:ARG:545:CZ:9898, V-A:HIS:383:CE1:3392, H-A:TYR:484:OH:4347, H-A:GLU:543:OE1:4909, V-B:GLU:543:CG:9879, V-A:GLU:543:CD:4908, V-A:GLU:543:CG:4907, V-A:ASP:366:CG:3212, H-B:GLU:543:OE2:9882, V-A:ILE:369:CD1:3238, V-A:TYR:484:CE2:4345, V-A:ASP:366:CB:3211, V-A:ASP:366:CA:3209, V-A:TYR:484:CZ:4346, H-A:GLU:543:OE2:4910, V-B:TYR:539:CB:9843, V-A:HIS:383:CD2:3391, V-B:ARG:545:CD:9895, V-B:ARG:545:CG:9894"]

$$$$
4ch_Grossjean_2025
     RDKit          3D

 58 61  0  0  0  0  0  0  0  0999 V2000
  132.7520  126.9130   75.3330 C   0  0  0  0  0  0  0  0  0  0  0  0
  131.3650  127.2350   75.3410 O   0  0  0  0  0  0  0  0  0  0  0  0
  130.5750  126.8580   74.2710 C   0  0  0  0  0  0  0  0  0  0  0  0
  130.2740  127.6960   73.1850 C   0  0  0  0  0  0  0  0  0  0  0  0
  129.4700  127.2480   72.1360 C   0  0  0  0  0  0  0  0  0  0  0  0
  129.1310  128.1810   70.9800 C   0  0  0  0  0  0  0  0  0  0  0  0
  129.4850  127.6560   69.6600 N   0  0  0  0  0  0  0  0  0  0  0  0
  128.7310  126.8150   68.9230 C   0  0  0  0  0  0  0  0  0  0  0  0
  127.6230  126.4190   69.2940 O   0  0  0  0  0  0  0  0  0  0  0  0
  129.2870  126.4220   67.6280 C   0  0  0  0  0  0  0  0  0  0  0  0
  130.6470  125.3050   67.5540 S   0  0  0  0  0  0  0  0  0  0  0  0
  130.6490  125.3550   65.8080 C   0  0  0  0  0  0  0  0  0  0  0  0
  131.5300  124.6600   65.0940 N   0  0  0  0  0  0  0  0  0  0  0  0
  131.4510  124.7570   63.7410 C   0  0  0  0  0  0  0  0  0  0  0  0
  132.4650  123.9650   62.9650 C   0  0  0  0  0  0  0  0  0  0  0  0
  133.4420  124.6120   62.1900 C   0  0  0  0  0  0  0  0  0  0  0  0
  134.3840  123.8840   61.4670 C   0  0  0  0  0  0  0  0  0  0  0  0
  134.3620  122.4940   61.5090 C   0  0  0  0  0  0  0  0  0  0  0  0
  133.4030  121.8280   62.2660 C   0  0  0  0  0  0  0  0  0  0  0  0
  132.4610  122.5600   62.9850 C   0  0  0  0  0  0  0  0  0  0  0  0
  130.4980  125.5640   63.1130 C   0  0  0  0  0  0  0  0  0  0  0  0
  129.5630  126.3040   63.8560 C   0  0  0  0  0  0  0  0  0  0  0  0
  128.5460  127.1690   63.1040 C   0  0  0  0  0  0  0  0  0  0  0  0
  128.2960  128.3310   63.7120 F   0  0  0  0  0  0  0  0  0  0  0  0
  129.0030  127.4460   61.8840 F   0  0  0  0  0  0  0  0  0  0  0  0
  127.3880  126.5160   63.0010 F   0  0  0  0  0  0  0  0  0  0  0  0
  129.6290  126.1990   65.2750 C   0  0  0  0  0  0  0  0  0  0  0  0
  128.8580  126.7880   66.3430 C   0  0  0  0  0  0  0  0  0  0  0  0
  127.8040  127.6370   66.1180 N   0  0  0  0  0  0  0  0  0  0  0  0
  128.9440  125.9560   72.1750 C   0  0  0  0  0  0  0  0  0  0  0  0
  129.2280  125.0960   73.2490 C   0  0  0  0  0  0  0  0  0  0  0  0
  128.7430  123.8050   73.3530 O   0  0  0  0  0  0  0  0  0  0  0  0
  129.4510  122.7410   72.7250 C   0  0  0  0  0  0  0  0  0  0  0  0
  130.0500  125.5580   74.2880 C   0  0  0  0  0  0  0  0  0  0  0  0
  130.3230  124.7330   75.3520 O   0  0  0  0  0  0  0  0  0  0  0  0
  131.4480  123.8880   75.1550 C   0  0  0  0  0  0  0  0  0  0  0  0
  133.1148  126.8288   76.3680 H   0  0  0  0  0  0  0  0  0  0  0  0
  132.9032  125.9559   74.8124 H   0  0  0  0  0  0  0  0  0  0  0  0
  133.3094  127.7056   74.8124 H   0  0  0  0  0  0  0  0  0  0  0  0
  130.6773  128.7191   73.1609 H   0  0  0  0  0  0  0  0  0  0  0  0
  128.0476  128.3707   70.9964 H   0  0  0  0  0  0  0  0  0  0  0  0
  129.7264  129.0942   71.1265 H   0  0  0  0  0  0  0  0  0  0  0  0
  130.4040  127.8970   69.3190 H   0  0  0  0  0  0  0  0  0  0  0  0
  133.4634  125.7112   62.1536 H   0  0  0  0  0  0  0  0  0  0  0  0
  135.1423  124.4063   60.8652 H   0  0  0  0  0  0  0  0  0  0  0  0
  135.1069  121.9178   60.9406 H   0  0  0  0  0  0  0  0  0  0  0  0
  133.3889  120.7285   62.2965 H   0  0  0  0  0  0  0  0  0  0  0  0
  131.7015  122.0295   63.5782 H   0  0  0  0  0  0  0  0  0  0  0  0
  130.4797  125.6208   62.0146 H   0  0  0  0  0  0  0  0  0  0  0  0
  127.9400  128.6260   65.9600 H   0  0  0  0  0  0  0  0  0  0  0  0
  126.8520  127.2990   66.0970 H   0  0  0  0  0  0  0  0  0  0  0  0
  128.2993  125.6068   71.3550 H   0  0  0  0  0  0  0  0  0  0  0  0
  129.8867  122.0863   73.4941 H   0  0  0  0  0  0  0  0  0  0  0  0
  128.7589  122.1599   72.0979 H   0  0  0  0  0  0  0  0  0  0  0  0
  130.2544  123.1550   72.0979 H   0  0  0  0  0  0  0  0  0  0  0  0
  131.8533  123.5836   76.1312 H   0  0  0  0  0  0  0  0  0  0  0  0
  131.1415  122.9950   74.5906 H   0  0  0  0  0  0  0  0  0  0  0  0
  132.2203  124.4312   74.5906 H   0  0  0  0  0  0  0  0  0  0  0  0
  1  2  1  0
  2  3  1  0
  3  4  2  0
  4  5  1  0
  5  6  1  0
  6  7  1  0
  7  8  1  0
  8  9  2  0
  8 10  1  0
 10 11  1  0
 11 12  1  0
 12 13  2  0
 13 14  1  0
 14 15  1  0
 15 16  2  0
 16 17  1  0
 17 18  2  0
 18 19  1  0
 19 20  2  0
 14 21  2  0
 21 22  1  0
 22 23  1  0
 23 24  1  0
 23 25  1  0
 23 26  1  0
 22 27  2  0
 27 28  1  0
 28 29  1  0
  5 30  2  0
 30 31  1  0
 31 32  1  0
 32 33  1  0
 31 34  2  0
 34 35  1  0
 35 36  1  0
 34  3  1  0
 28 10  2  0
 27 12  1  0
 20 15  1  0
  1 37  1  0
  1 38  1  0
  1 39  1  0
  4 40  1  0
  6 41  1  0
  6 42  1  0
  7 43  1  0
 16 44  1  0
 17 45  1  0
 18 46  1  0
 19 47  1  0
 20 48  1  0
 21 49  1  0
 29 50  1  0
 29 51  1  0
 30 52  1  0
 33 53  1  0
 33 54  1  0
 33 55  1  0
 36 56  1  0
 36 57  1  0
 36 58  1  0
M  END
>  <Binding energies>  (1) 
[-6.47]

>  <Ligand effiencies>  (1) 
[-0.16589743589743589]

>  <Interactions>  (1) 
["V-A:ILE:369:CG2:3236, V-A:LEU:475:CD1:4257, V-B:GLU:543:CD:9880, V-B:GLU:543:CB:9878, V-A:HIS:456:CE1:4069, V-B:HIS:456:CE1:9041, V-A:GLY:454:CA:4048, H-A:TYR:484:OH:4347, H-A:GLU:543:OE1:4909, V-A:GLU:543:CD:4908, V-A:ASP:366:CG:3212, H-B:GLU:543:OE2:9882, V-A:ILE:369:CD1:3238, V-B:HIS:456:CD2:9039, V-A:TYR:484:CE2:4345, V-A:LYS:547:CE:4950, V-A:TYR:484:CZ:4346, V-A:TYR:484:CB:4340, V-A:LYS:547:CD:4949, V-A:TYR:484:CG:4341, V-A:TYR:484:CD2:4343, V-A:HIS:456:CB:4064, V-A:HIS:456:CD2:4067, H-B:LYS:547:NZ:9923, H-A:GLU:543:O:4903, H-A:LYS:547:NZ:4951"]

$$$$
4ci_Grossjean_2025
     RDKit          3D

 39 42  0  0  0  0  0  0  0  0999 V2000
  128.5600  127.2470   65.5030 N   0  0  0  0  0  0  0  0  0  0  0  0
  128.6700  127.1350   64.1410 C   0  0  0  0  0  0  0  0  0  0  0  0
  129.6730  126.3820   63.5100 C   0  0  0  0  0  0  0  0  0  0  0  0
  130.7440  125.5910   64.1230 C   0  0  0  0  0  0  0  0  0  0  0  0
  130.8590  124.3880   63.8740 O   0  0  0  0  0  0  0  0  0  0  0  0
  131.5600  126.2690   64.9680 N   0  0  0  0  0  0  0  0  0  0  0  0
  132.6420  125.7690   65.6810 C   0  0  0  0  0  0  0  0  0  0  0  0
  132.8450  126.0230   67.0370 C   0  0  0  0  0  0  0  0  0  0  0  0
  134.0070  125.3610   67.3560 C   0  0  0  0  0  0  0  0  0  0  0  0
  134.4810  124.7400   66.2490 O   0  0  0  0  0  0  0  0  0  0  0  0
  133.6070  125.0070   65.1940 N   0  0  0  0  0  0  0  0  0  0  0  0
  129.5110  126.4490   61.7570 S   0  0  0  0  0  0  0  0  0  0  0  0
  128.1120  127.4900   61.8800 C   0  0  0  0  0  0  0  0  0  0  0  0
  127.4750  127.9310   60.7980 N   0  0  0  0  0  0  0  0  0  0  0  0
  126.3960  128.7320   60.9930 C   0  0  0  0  0  0  0  0  0  0  0  0
  125.7020  129.2170   59.7530 C   0  0  0  0  0  0  0  0  0  0  0  0
  124.7300  130.2290   59.8210 C   0  0  0  0  0  0  0  0  0  0  0  0
  124.0830  130.6830   58.6740 C   0  0  0  0  0  0  0  0  0  0  0  0
  124.3990  130.1280   57.4390 C   0  0  0  0  0  0  0  0  0  0  0  0
  125.3530  129.1220   57.3430 C   0  0  0  0  0  0  0  0  0  0  0  0
  125.9970  128.6700   58.4920 C   0  0  0  0  0  0  0  0  0  0  0  0
  125.9740  129.1000   62.2750 C   0  0  0  0  0  0  0  0  0  0  0  0
  126.6380  128.6420   63.4240 C   0  0  0  0  0  0  0  0  0  0  0  0
  126.1210  129.0850   64.7970 C   0  0  0  0  0  0  0  0  0  0  0  0
  125.7630  128.0630   65.5770 F   0  0  0  0  0  0  0  0  0  0  0  0
  127.0730  129.7620   65.4390 F   0  0  0  0  0  0  0  0  0  0  0  0
  125.0510  129.8670   64.6460 F   0  0  0  0  0  0  0  0  0  0  0  0
  127.7630  127.7900   63.2300 C   0  0  0  0  0  0  0  0  0  0  0  0
  129.2340  127.7600   66.0550 H   0  0  0  0  0  0  0  0  0  0  0  0
  127.7910  126.8230   66.0050 H   0  0  0  0  0  0  0  0  0  0  0  0
  131.3670  127.2500   65.1050 H   0  0  0  0  0  0  0  0  0  0  0  0
  132.2120  126.6235   67.7069 H   0  0  0  0  0  0  0  0  0  0  0  0
  134.4766  125.3390   68.3505 H   0  0  0  0  0  0  0  0  0  0  0  0
  124.4757  130.6701   60.7960 H   0  0  0  0  0  0  0  0  0  0  0  0
  123.3253  131.4772   58.7450 H   0  0  0  0  0  0  0  0  0  0  0  0
  123.8907  130.4875   56.5321 H   0  0  0  0  0  0  0  0  0  0  0  0
  125.5983  128.6848   56.3639 H   0  0  0  0  0  0  0  0  0  0  0  0
  126.7492  127.8715   58.4116 H   0  0  0  0  0  0  0  0  0  0  0  0
  125.1029  129.7627   62.3852 H   0  0  0  0  0  0  0  0  0  0  0  0
  1  2  1  0
  2  3  2  0
  3  4  1  0
  4  5  2  0
  4  6  1  0
  6  7  1  0
  7  8  1  0
  8  9  2  0
  9 10  1  0
 10 11  1  0
  3 12  1  0
 12 13  1  0
 13 14  2  0
 14 15  1  0
 15 16  1  0
 16 17  2  0
 17 18  1  0
 18 19  2  0
 19 20  1  0
 20 21  2  0
 15 22  2  0
 22 23  1  0
 23 24  1  0
 24 25  1  0
 24 26  1  0
 24 27  1  0
 23 28  2  0
 28  2  1  0
 11  7  2  0
 28 13  1  0
 21 16  1  0
  1 29  1  0
  1 30  1  0
  6 31  1  0
  8 32  1  0
  9 33  1  0
 17 34  1  0
 18 35  1  0
 19 36  1  0
 20 37  1  0
 21 38  1  0
 22 39  1  0
M  END
>  <Binding energies>  (1) 
[-7.43]

>  <Ligand effiencies>  (1) 
[-0.2396774193548387]

>  <Interactions>  (1) 
["V-B:GLU:543:CD:9880, V-A:ARG:545:CD:4923, V-A:ARG:545:CZ:4926, V-A:HIS:456:CE1:4069, V-A:ARG:545:CG:4922, V-B:ARG:545:CZ:9898, H-A:TYR:484:OH:4347, H-A:GLY:454:N:4049, H-A:GLU:543:OE1:4909, V-A:GLU:543:CD:4908, H-B:GLU:543:OE2:9882, V-A:TYR:484:CZ:4346, V-B:ASP:366:CB:8183, V-B:ASP:366:CA:8181, V-A:TYR:539:CE1:4875, V-B:ASP:366:CG:8184, V-B:ILE:369:CG2:8208, H-A:GLU:543:OE2:4910, V-A:ILE:455:C:4051, H-A:ARG:545:NE:4924, V-B:TYR:531:CZ:9766, V-A:TYR:539:CZ:4877, V-B:ARG:545:CD:9895, V-B:TYR:531:CE1:9764, V-B:ASP:366:C:8179, H-A:ILE:455:N:4054, V-B:ILE:369:CB:8207"]

$$$$
4cj_Grossjean_2025
     RDKit          3D

 39 42  0  0  0  0  0  0  0  0999 V2000
  131.2970  122.7410   64.0910 N   0  0  0  0  0  0  0  0  0  0  0  0
  130.2810  123.4880   63.5510 C   0  0  0  0  0  0  0  0  0  0  0  0
  129.8060  124.6750   64.1320 C   0  0  0  0  0  0  0  0  0  0  0  0
  130.2630  125.3400   65.3550 C   0  0  0  0  0  0  0  0  0  0  0  0
  131.4500  125.3020   65.6880 O   0  0  0  0  0  0  0  0  0  0  0  0
  129.2990  125.9720   66.0690 N   0  0  0  0  0  0  0  0  0  0  0  0
  129.4660  126.6720   67.2560 C   0  0  0  0  0  0  0  0  0  0  0  0
  130.4630  127.4610   67.5950 N   0  0  0  0  0  0  0  0  0  0  0  0
  130.2930  127.9670   68.8000 C   0  0  0  0  0  0  0  0  0  0  0  0
  129.1320  127.5890   69.4690 C   0  0  0  0  0  0  0  0  0  0  0  0
  128.2200  126.5120   68.4530 S   0  0  0  0  0  0  0  0  0  0  0  0
  128.5090  125.3810   63.1700 S   0  0  0  0  0  0  0  0  0  0  0  0
  128.6100  124.0840   62.0030 C   0  0  0  0  0  0  0  0  0  0  0  0
  127.8150  124.0470   60.9360 N   0  0  0  0  0  0  0  0  0  0  0  0
  127.9710  123.0050   60.0800 C   0  0  0  0  0  0  0  0  0  0  0  0
  127.0680  123.0010   58.8800 C   0  0  0  0  0  0  0  0  0  0  0  0
  127.3660  122.2090   57.7590 C   0  0  0  0  0  0  0  0  0  0  0  0
  126.5370  122.2050   56.6400 C   0  0  0  0  0  0  0  0  0  0  0  0
  125.3940  122.9980   56.6260 C   0  0  0  0  0  0  0  0  0  0  0  0
  125.0760  123.7930   57.7220 C   0  0  0  0  0  0  0  0  0  0  0  0
  125.9080  123.7930   58.8380 C   0  0  0  0  0  0  0  0  0  0  0  0
  128.9070  121.9910   60.3130 C   0  0  0  0  0  0  0  0  0  0  0  0
  129.7480  122.0190   61.4360 C   0  0  0  0  0  0  0  0  0  0  0  0
  130.7540  120.8770   61.6280 C   0  0  0  0  0  0  0  0  0  0  0  0
  132.0230  121.2730   61.5180 F   0  0  0  0  0  0  0  0  0  0  0  0
  130.6050  120.3470   62.8420 F   0  0  0  0  0  0  0  0  0  0  0  0
  130.5480  119.9350   60.7080 F   0  0  0  0  0  0  0  0  0  0  0  0
  129.6060  123.1180   62.3300 C   0  0  0  0  0  0  0  0  0  0  0  0
  131.7810  123.0250   64.9310 H   0  0  0  0  0  0  0  0  0  0  0  0
  131.5930  121.8730   63.6670 H   0  0  0  0  0  0  0  0  0  0  0  0
  128.3550  125.9270   65.7150 H   0  0  0  0  0  0  0  0  0  0  0  0
  131.0274  128.6499   69.2520 H   0  0  0  0  0  0  0  0  0  0  0  0
  128.8391  127.9182   70.4769 H   0  0  0  0  0  0  0  0  0  0  0  0
  128.2693  121.5814   57.7650 H   0  0  0  0  0  0  0  0  0  0  0  0
  126.7848  121.5776   55.7711 H   0  0  0  0  0  0  0  0  0  0  0  0
  124.7380  122.9962   55.7430 H   0  0  0  0  0  0  0  0  0  0  0  0
  124.1714  124.4187   57.7070 H   0  0  0  0  0  0  0  0  0  0  0  0
  125.6530  124.4240   59.7022 H   0  0  0  0  0  0  0  0  0  0  0  0
  128.9850  121.1555   59.6018 H   0  0  0  0  0  0  0  0  0  0  0  0
  1  2  1  0
  2  3  2  0
  3  4  1  0
  4  5  2  0
  4  6  1  0
  6  7  1  0
  7  8  2  0
  8  9  1  0
  9 10  2  0
 10 11  1  0
  3 12  1  0
 12 13  1  0
 13 14  2  0
 14 15  1  0
 15 16  1  0
 16 17  2  0
 17 18  1  0
 18 19  2  0
 19 20  1  0
 20 21  2  0
 15 22  2  0
 22 23  1  0
 23 24  1  0
 24 25  1  0
 24 26  1  0
 24 27  1  0
 23 28  2  0
 28  2  1  0
 11  7  1  0
 28 13  1  0
 21 16  1  0
  1 29  1  0
  1 30  1  0
  6 31  1  0
  9 32  1  0
 10 33  1  0
 17 34  1  0
 18 35  1  0
 19 36  1  0
 20 37  1  0
 21 38  1  0
 22 39  1  0
M  END
>  <Binding energies>  (1) 
[-6.82]

>  <Ligand effiencies>  (1) 
[-0.22]

>  <Interactions>  (1) 
["V-B:PRO:540:CB:9857, V-B:PRO:540:N:9856, V-B:TYR:539:CD2:9846, V-B:PRO:540:CA:9855, V-B:MET:535:CE:9807, V-A:LEU:475:CD1:4257, V-B:TYR:539:C:9839, V-B:ALA:541:CB:9864, V-B:GLU:543:CD:9880, V-B:GLU:543:CB:9878, V-A:GLU:543:CB:4906, V-A:HIS:456:CE1:4069, V-B:HIS:456:CE1:9041, H-A:TYR:484:OH:4347, V-A:GLU:543:C:4902, H-A:GLU:543:OE1:4909, V-B:GLU:543:CG:9879, H-B:GLU:543:OE2:9882, V-A:TYR:484:CZ:4346, V-B:PRO:540:CD:9859, V-B:TYR:531:CE2:9765, V-B:LEU:363:CD1:8160"]

$$$$
4ck_Grossjean_2025
     RDKit          3D

 57 59  0  0  0  0  0  0  0  0999 V2000
  130.4550  121.9830   73.8780 C   0  0  0  0  0  0  0  0  0  0  0  0
  129.1550  122.3810   73.4710 O   0  0  0  0  0  0  0  0  0  0  0  0
  129.1290  123.6410   72.8160 C   0  0  0  0  0  0  0  0  0  0  0  0
  129.8060  124.6860   73.7130 C   0  0  0  0  0  0  0  0  0  0  0  0
  129.6740  125.9670   73.1140 O   0  0  0  0  0  0  0  0  0  0  0  0
  128.7810  125.9870   72.0080 C   0  0  0  0  0  0  0  0  0  0  0  0
  129.1210  127.1820   71.1080 C   0  0  0  0  0  0  0  0  0  0  0  0
  128.9010  126.8130   69.7540 O   0  0  0  0  0  0  0  0  0  0  0  0
  129.6060  127.6170   68.8170 C   0  0  0  0  0  0  0  0  0  0  0  0
  128.8600  127.6150   67.4730 C   0  0  0  0  0  0  0  0  0  0  0  0
  129.3940  126.6140   66.5500 N   0  0  0  0  0  0  0  0  0  0  0  0
  129.5830  125.3070   66.8250 C   0  0  0  0  0  0  0  0  0  0  0  0
  129.2900  124.8060   67.9120 O   0  0  0  0  0  0  0  0  0  0  0  0
  130.1540  124.5020   65.7440 C   0  0  0  0  0  0  0  0  0  0  0  0
  129.5010  122.9040   65.3920 S   0  0  0  0  0  0  0  0  0  0  0  0
  130.6100  122.6980   64.0570 C   0  0  0  0  0  0  0  0  0  0  0  0
  130.6120  121.5910   63.3200 N   0  0  0  0  0  0  0  0  0  0  0  0
  131.5110  121.5200   62.3030 C   0  0  0  0  0  0  0  0  0  0  0  0
  131.4750  120.2660   61.4790 C   0  0  0  0  0  0  0  0  0  0  0  0
  130.3910  119.3770   61.5690 C   0  0  0  0  0  0  0  0  0  0  0  0
  130.3530  118.2100   60.8090 C   0  0  0  0  0  0  0  0  0  0  0  0
  131.4010  117.9150   59.9450 C   0  0  0  0  0  0  0  0  0  0  0  0
  132.4850  118.7800   59.8330 C   0  0  0  0  0  0  0  0  0  0  0  0
  132.5190  119.9460   60.5940 C   0  0  0  0  0  0  0  0  0  0  0  0
  132.3970  122.5670   62.0270 C   0  0  0  0  0  0  0  0  0  0  0  0
  132.4050  123.7390   62.7990 C   0  0  0  0  0  0  0  0  0  0  0  0
  133.4060  124.8450   62.4440 C   0  0  0  0  0  0  0  0  0  0  0  0
  132.8220  126.0160   62.1840 F   0  0  0  0  0  0  0  0  0  0  0  0
  134.2470  125.0350   63.4600 F   0  0  0  0  0  0  0  0  0  0  0  0
  134.0980  124.4940   61.3600 F   0  0  0  0  0  0  0  0  0  0  0  0
  131.4680  123.8220   63.8690 C   0  0  0  0  0  0  0  0  0  0  0  0
  131.1780  124.8440   64.8460 C   0  0  0  0  0  0  0  0  0  0  0  0
  131.8480  126.0390   64.8930 N   0  0  0  0  0  0  0  0  0  0  0  0
  130.5065  121.9672   74.9767 H   0  0  0  0  0  0  0  0  0  0  0  0
  130.6702  120.9778   73.4864 H   0  0  0  0  0  0  0  0  0  0  0  0
  131.1960  122.6954   73.4864 H   0  0  0  0  0  0  0  0  0  0  0  0
  129.6687  123.5707   71.8601 H   0  0  0  0  0  0  0  0  0  0  0  0
  128.0875  123.9371   72.6223 H   0  0  0  0  0  0  0  0  0  0  0  0
  129.3244  124.6903   74.7020 H   0  0  0  0  0  0  0  0  0  0  0  0
  130.8716  124.4395   73.8305 H   0  0  0  0  0  0  0  0  0  0  0  0
  128.8838  125.0537   71.4350 H   0  0  0  0  0  0  0  0  0  0  0  0
  127.7462  126.0788   72.3696 H   0  0  0  0  0  0  0  0  0  0  0  0
  128.4773  128.0353   71.3678 H   0  0  0  0  0  0  0  0  0  0  0  0
  130.1731  127.4697   71.2506 H   0  0  0  0  0  0  0  0  0  0  0  0
  129.6742  128.6472   69.1965 H   0  0  0  0  0  0  0  0  0  0  0  0
  130.6179  127.2100   68.6742 H   0  0  0  0  0  0  0  0  0  0  0  0
  127.7976  127.3970   67.6571 H   0  0  0  0  0  0  0  0  0  0  0  0
  128.9896  128.6051   67.0117 H   0  0  0  0  0  0  0  0  0  0  0  0
  129.5750  126.9320   65.6090 H   0  0  0  0  0  0  0  0  0  0  0  0
  129.5586  119.6060   62.2507 H   0  0  0  0  0  0  0  0  0  0  0  0
  129.4967  117.5246   60.8924 H   0  0  0  0  0  0  0  0  0  0  0  0
  131.3732  116.9925   59.3464 H   0  0  0  0  0  0  0  0  0  0  0  0
  133.3115  118.5440   59.1465 H   0  0  0  0  0  0  0  0  0  0  0  0
  133.3772  120.6278   60.5009 H   0  0  0  0  0  0  0  0  0  0  0  0
  133.1016  122.4696   61.1879 H   0  0  0  0  0  0  0  0  0  0  0  0
  132.8550  126.0870   64.9600 H   0  0  0  0  0  0  0  0  0  0  0  0
  131.3530  126.9200   64.8570 H   0  0  0  0  0  0  0  0  0  0  0  0
  1  2  1  0
  2  3  1  0
  3  4  1  0
  4  5  1  0
  5  6  1  0
  6  7  1  0
  7  8  1  0
  8  9  1  0
  9 10  1  0
 10 11  1  0
 11 12  1  0
 12 13  2  0
 12 14  1  0
 14 15  1  0
 15 16  1  0
 16 17  2  0
 17 18  1  0
 18 19  1  0
 19 20  2  0
 20 21  1  0
 21 22  2  0
 22 23  1  0
 23 24  2  0
 18 25  2  0
 25 26  1  0
 26 27  1  0
 27 28  1  0
 27 29  1  0
 27 30  1  0
 26 31  2  0
 31 32  1  0
 32 33  1  0
 32 14  2  0
 31 16  1  0
 24 19  1  0
  1 34  1  0
  1 35  1  0
  1 36  1  0
  3 37  1  0
  3 38  1  0
  4 39  1  0
  4 40  1  0
  6 41  1  0
  6 42  1  0
  7 43  1  0
  7 44  1  0
  9 45  1  0
  9 46  1  0
 10 47  1  0
 10 48  1  0
 11 49  1  0
 20 50  1  0
 21 51  1  0
 22 52  1  0
 23 53  1  0
 24 54  1  0
 25 55  1  0
 33 56  1  0
 33 57  1  0
M  END
>  <Binding energies>  (1) 
[-6.62]

>  <Ligand effiencies>  (1) 
[-0.18388888888888888]

>  <Interactions>  (1) 
["V-A:ILE:369:CG2:3236, V-B:TYR:539:CE2:9848, V-B:TYR:539:CD2:9846, V-A:PRO:482:CG:4326, V-A:PRO:482:CB:4325, V-A:LEU:475:CD1:4257, V-B:TYR:539:C:9839, V-B:ALA:541:CB:9864, V-B:GLU:543:CD:9880, V-A:ARG:545:CZ:4926, V-A:GLY:453:CA:4043, V-B:GLU:543:CB:9878, V-A:GLY:453:C:4041, V-A:GLU:543:CB:4906, V-A:HIS:456:CE1:4069, V-B:HIS:456:CE1:9041, V-A:HIS:383:CE1:3392, H-A:TYR:484:OH:4347, H-A:GLU:543:OE1:4909, V-B:GLU:543:CG:9879, V-A:GLU:543:CD:4908, V-A:ASP:366:CG:3212, H-B:GLU:543:OE2:9882, V-B:GLU:543:C:9874, V-B:HIS:456:CD2:9039, V-A:TYR:484:CE2:4345, V-A:ASP:366:CB:3211, V-A:ASP:366:CA:3209, V-A:TYR:484:CZ:4346, H-A:GLU:543:OE2:4910, V-B:TYR:539:CB:9843, V-A:HIS:383:CD2:3391, V-A:TYR:484:CB:4340, V-A:TYR:484:CG:4341, V-A:HIS:456:CD2:4067, H-B:LYS:547:NZ:9923"]

$$$$
4dd_Grossjean_2025
     RDKit          3D

 43 46  0  0  0  0  0  0  0  0999 V2000
  130.6260  120.6730   62.1030 C   0  0  0  0  0  0  0  0  0  0  0  0
  129.7060  121.8410   61.7810 C   0  0  0  0  0  0  0  0  0  0  0  0
  128.9490  121.7790   60.6040 C   0  0  0  0  0  0  0  0  0  0  0  0
  128.0830  122.8210   60.2500 C   0  0  0  0  0  0  0  0  0  0  0  0
  127.2650  122.7850   58.9930 C   0  0  0  0  0  0  0  0  0  0  0  0
  126.0670  123.5100   58.8930 C   0  0  0  0  0  0  0  0  0  0  0  0
  125.3040  123.4830   57.7280 C   0  0  0  0  0  0  0  0  0  0  0  0
  125.7310  122.7260   56.6430 C   0  0  0  0  0  0  0  0  0  0  0  0
  126.9140  121.9990   56.7130 C   0  0  0  0  0  0  0  0  0  0  0  0
  127.6750  122.0300   57.8800 C   0  0  0  0  0  0  0  0  0  0  0  0
  127.9470  123.9350   61.0200 N   0  0  0  0  0  0  0  0  0  0  0  0
  128.6610  123.9920   62.1440 C   0  0  0  0  0  0  0  0  0  0  0  0
  128.5680  125.3560   63.2350 S   0  0  0  0  0  0  0  0  0  0  0  0
  129.7360  124.6170   64.3330 C   0  0  0  0  0  0  0  0  0  0  0  0
  130.1240  125.2990   65.5690 C   0  0  0  0  0  0  0  0  0  0  0  0
  131.3100  125.3830   65.8930 O   0  0  0  0  0  0  0  0  0  0  0  0
  129.1020  125.8160   66.2930 N   0  0  0  0  0  0  0  0  0  0  0  0
  129.1270  126.4740   67.5360 C   0  0  0  0  0  0  0  0  0  0  0  0
  128.7710  125.7000   68.6450 C   0  0  0  0  0  0  0  0  0  0  0  0
  128.7790  126.2560   69.9210 C   0  0  0  0  0  0  0  0  0  0  0  0
  129.1500  127.5870   70.0910 C   0  0  0  0  0  0  0  0  0  0  0  0
  129.5180  128.3660   68.9980 C   0  0  0  0  0  0  0  0  0  0  0  0
  129.5120  127.8130   67.7200 C   0  0  0  0  0  0  0  0  0  0  0  0
  130.1660  123.3720   63.8490 C   0  0  0  0  0  0  0  0  0  0  0  0
  131.0780  122.5750   64.4970 N   0  0  0  0  0  0  0  0  0  0  0  0
  129.5630  122.9900   62.6000 C   0  0  0  0  0  0  0  0  0  0  0  0
  130.7119  120.5639   63.1942 H   0  0  0  0  0  0  0  0  0  0  0  0
  130.2101  119.7495   61.6738 H   0  0  0  0  0  0  0  0  0  0  0  0
  131.6212  120.8610   61.6738 H   0  0  0  0  0  0  0  0  0  0  0  0
  129.0360  120.8997   59.9488 H   0  0  0  0  0  0  0  0  0  0  0  0
  125.7250  124.1097   59.7494 H   0  0  0  0  0  0  0  0  0  0  0  0
  124.3682  124.0578   57.6668 H   0  0  0  0  0  0  0  0  0  0  0  0
  125.1288  122.7021   55.7228 H   0  0  0  0  0  0  0  0  0  0  0  0
  127.2477  121.4022   55.8513 H   0  0  0  0  0  0  0  0  0  0  0  0
  128.6112  121.4547   57.9312 H   0  0  0  0  0  0  0  0  0  0  0  0
  128.1830  125.7340   65.8840 H   0  0  0  0  0  0  0  0  0  0  0  0
  128.4834  124.6471   68.5083 H   0  0  0  0  0  0  0  0  0  0  0  0
  128.4935  125.6465   70.7911 H   0  0  0  0  0  0  0  0  0  0  0  0
  129.1523  128.0273   71.0990 H   0  0  0  0  0  0  0  0  0  0  0  0
  129.8128  129.4158   69.1433 H   0  0  0  0  0  0  0  0  0  0  0  0
  129.8085  128.4241   66.8547 H   0  0  0  0  0  0  0  0  0  0  0  0
  131.1920  121.5980   64.2650 H   0  0  0  0  0  0  0  0  0  0  0  0
  131.6700  122.9430   65.2270 H   0  0  0  0  0  0  0  0  0  0  0  0
  1  2  1  0
  2  3  2  0
  3  4  1  0
  4  5  1  0
  5  6  2  0
  6  7  1  0
  7  8  2  0
  8  9  1  0
  9 10  2  0
  4 11  2  0
 11 12  1  0
 12 13  1  0
 13 14  1  0
 14 15  1  0
 15 16  2  0
 15 17  1  0
 17 18  1  0
 18 19  2  0
 19 20  1  0
 20 21  2  0
 21 22  1  0
 22 23  2  0
 14 24  2  0
 24 25  1  0
 24 26  1  0
 26  2  1  0
 10  5  1  0
 26 12  2  0
 23 18  1  0
  1 27  1  0
  1 28  1  0
  1 29  1  0
  3 30  1  0
  6 31  1  0
  7 32  1  0
  8 33  1  0
  9 34  1  0
 10 35  1  0
 17 36  1  0
 19 37  1  0
 20 38  1  0
 21 39  1  0
 22 40  1  0
 23 41  1  0
 25 42  1  0
 25 43  1  0
M  END
>  <Binding energies>  (1) 
[-7.91]

>  <Ligand effiencies>  (1) 
[-0.2727586206896552]

>  <Interactions>  (1) 
["V-B:PRO:540:CB:9857, V-B:PRO:540:N:9856, V-B:TYR:539:CD2:9846, V-B:PRO:540:CA:9855, V-B:PRO:540:C:9853, V-B:MET:535:CE:9807, V-A:LEU:475:CD1:4257, V-B:TYR:539:C:9839, V-B:ALA:541:CB:9864, V-B:GLU:543:CD:9880, V-B:GLU:543:CB:9878, V-A:GLU:543:CB:4906, V-A:HIS:456:CE1:4069, V-B:HIS:456:CE1:9041, H-A:TYR:484:OH:4347, V-A:GLU:543:C:4902, V-B:GLU:543:CG:9879, V-A:GLU:543:CD:4908, H-B:GLU:543:OE2:9882, V-B:GLU:543:C:9874, V-A:TYR:484:CE2:4345, V-B:GLU:543:CA:9876, V-A:TYR:484:CZ:4346, V-B:TYR:539:CA:9841, V-B:PRO:540:CD:9859, V-B:TYR:531:CE2:9765, V-B:LEU:363:CD1:8160, H-B:GLU:543:OE1:9881"]

$$$$
4dg_Grossjean_2025
     RDKit          3D

 46 49  0  0  0  0  0  0  0  0999 V2000
  133.9100  125.0030   62.9940 C   0  0  0  0  0  0  0  0  0  0  0  0
  132.7980  123.9760   63.1440 C   0  0  0  0  0  0  0  0  0  0  0  0
  132.8400  122.8350   62.3340 C   0  0  0  0  0  0  0  0  0  0  0  0
  131.8460  121.8520   62.4230 C   0  0  0  0  0  0  0  0  0  0  0  0
  131.8650  120.6160   61.5680 C   0  0  0  0  0  0  0  0  0  0  0  0
  130.7500  119.7640   61.5090 C   0  0  0  0  0  0  0  0  0  0  0  0
  130.7640  118.6150   60.7210 C   0  0  0  0  0  0  0  0  0  0  0  0
  131.8960  118.3010   59.9790 C   0  0  0  0  0  0  0  0  0  0  0  0
  133.0170  119.1250   60.0220 C   0  0  0  0  0  0  0  0  0  0  0  0
  132.9990  120.2710   60.8110 C   0  0  0  0  0  0  0  0  0  0  0  0
  130.8150  121.9510   63.3060 N   0  0  0  0  0  0  0  0  0  0  0  0
  130.7740  123.0370   64.0770 C   0  0  0  0  0  0  0  0  0  0  0  0
  129.5010  123.2930   65.2480 S   0  0  0  0  0  0  0  0  0  0  0  0
  130.2090  124.8290   65.7460 C   0  0  0  0  0  0  0  0  0  0  0  0
  129.5480  125.6480   66.7610 C   0  0  0  0  0  0  0  0  0  0  0  0
  129.3670  125.2300   67.9060 O   0  0  0  0  0  0  0  0  0  0  0  0
  129.1210  126.8620   66.3520 N   0  0  0  0  0  0  0  0  0  0  0  0
  128.4570  127.8540   67.1970 C   0  0  0  0  0  0  0  0  0  0  0  0
  127.3380  128.6050   66.4830 C   0  0  0  0  0  0  0  0  0  0  0  0
  126.0050  128.2810   66.7500 C   0  0  0  0  0  0  0  0  0  0  0  0
  124.9800  128.9860   66.1240 C   0  0  0  0  0  0  0  0  0  0  0  0
  125.2920  130.0190   65.2430 C   0  0  0  0  0  0  0  0  0  0  0  0
  126.6180  130.3580   64.9850 C   0  0  0  0  0  0  0  0  0  0  0  0
  127.6430  129.6540   65.6120 C   0  0  0  0  0  0  0  0  0  0  0  0
  131.3700  125.1180   65.0130 C   0  0  0  0  0  0  0  0  0  0  0  0
  132.1170  126.2550   65.1830 N   0  0  0  0  0  0  0  0  0  0  0  0
  131.7210  124.1000   64.0590 C   0  0  0  0  0  0  0  0  0  0  0  0
  134.2532  125.3199   63.9899 H   0  0  0  0  0  0  0  0  0  0  0  0
  134.7499  124.5561   62.4418 H   0  0  0  0  0  0  0  0  0  0  0  0
  133.5311  125.8757   62.4418 H   0  0  0  0  0  0  0  0  0  0  0  0
  133.6651  122.7086   61.6176 H   0  0  0  0  0  0  0  0  0  0  0  0
  129.8512  120.0078   62.0944 H   0  0  0  0  0  0  0  0  0  0  0  0
  129.8819  117.9587   60.6864 H   0  0  0  0  0  0  0  0  0  0  0  0
  131.9063  117.3959   59.3539 H   0  0  0  0  0  0  0  0  0  0  0  0
  133.9123  118.8716   59.4354 H   0  0  0  0  0  0  0  0  0  0  0  0
  133.8875  120.9187   60.8432 H   0  0  0  0  0  0  0  0  0  0  0  0
  129.3740  127.1680   65.4240 H   0  0  0  0  0  0  0  0  0  0  0  0
  128.0297  127.3387   68.0699 H   0  0  0  0  0  0  0  0  0  0  0  0
  129.2158  128.5970   67.4836 H   0  0  0  0  0  0  0  0  0  0  0  0
  125.7657  127.4701   67.4537 H   0  0  0  0  0  0  0  0  0  0  0  0
  123.9295  128.7285   66.3242 H   0  0  0  0  0  0  0  0  0  0  0  0
  124.4822  130.5730   64.7457 H   0  0  0  0  0  0  0  0  0  0  0  0
  126.8543  131.1772   64.2899 H   0  0  0  0  0  0  0  0  0  0  0  0
  128.6923  129.9237   65.4216 H   0  0  0  0  0  0  0  0  0  0  0  0
  133.0950  126.2200   65.4330 H   0  0  0  0  0  0  0  0  0  0  0  0
  131.7110  127.1720   65.0550 H   0  0  0  0  0  0  0  0  0  0  0  0
  1  2  1  0
  2  3  2  0
  3  4  1  0
  4  5  1  0
  5  6  2  0
  6  7  1  0
  7  8  2  0
  8  9  1  0
  9 10  2  0
  4 11  2  0
 11 12  1  0
 12 13  1  0
 13 14  1  0
 14 15  1  0
 15 16  2  0
 15 17  1  0
 17 18  1  0
 18 19  1  0
 19 20  2  0
 20 21  1  0
 21 22  2  0
 22 23  1  0
 23 24  2  0
 14 25  2  0
 25 26  1  0
 25 27  1  0
 27  2  1  0
 10  5  1  0
 27 12  2  0
 24 19  1  0
  1 28  1  0
  1 29  1  0
  1 30  1  0
  3 31  1  0
  6 32  1  0
  7 33  1  0
  8 34  1  0
  9 35  1  0
 10 36  1  0
 17 37  1  0
 18 38  1  0
 18 39  1  0
 20 40  1  0
 21 41  1  0
 22 42  1  0
 23 43  1  0
 24 44  1  0
 26 45  1  0
 26 46  1  0
M  END
>  <Binding energies>  (1) 
[-8.23]

>  <Ligand effiencies>  (1) 
[-0.2743333333333334]

>  <Interactions>  (1) 
["V-A:ILE:369:CG2:3236, V-B:TYR:539:CD2:9846, V-A:PRO:482:CG:4326, V-A:LEU:475:CD1:4257, V-B:ALA:541:CB:9864, V-B:GLU:543:CD:9880, V-A:ARG:545:CZ:4926, V-A:GLY:453:CA:4043, V-B:GLU:543:CB:9878, V-B:HIS:456:CE1:9041, V-B:ARG:545:CZ:9898, H-A:TYR:484:OH:4347, H-A:GLU:543:OE1:4909, V-B:GLU:543:CG:9879, V-A:GLU:543:CD:4908, V-A:GLU:543:CG:4907, V-A:ASP:366:CG:3212, H-B:GLU:543:OE2:9882, V-A:TYR:484:CE2:4345, V-A:TYR:484:CZ:4346, H-A:GLU:543:OE2:4910, V-A:HIS:383:CD2:3391, V-B:ARG:545:CD:9895, V-B:ARG:545:CG:9894"]

$$$$
4dj_Grossjean_2025
     RDKit          3D

 39 42  0  0  0  0  0  0  0  0999 V2000
  130.6280  120.6390   62.1230 C   0  0  0  0  0  0  0  0  0  0  0  0
  129.7400  121.8300   61.7970 C   0  0  0  0  0  0  0  0  0  0  0  0
  128.9750  121.7820   60.6260 C   0  0  0  0  0  0  0  0  0  0  0  0
  128.1390  122.8460   60.2680 C   0  0  0  0  0  0  0  0  0  0  0  0
  127.3030  122.8200   59.0200 C   0  0  0  0  0  0  0  0  0  0  0  0
  126.1010  123.5440   58.9430 C   0  0  0  0  0  0  0  0  0  0  0  0
  125.3220  123.5240   57.7890 C   0  0  0  0  0  0  0  0  0  0  0  0
  125.7330  122.7740   56.6920 C   0  0  0  0  0  0  0  0  0  0  0  0
  126.9160  122.0450   56.7420 C   0  0  0  0  0  0  0  0  0  0  0  0
  127.6920  122.0680   57.8970 C   0  0  0  0  0  0  0  0  0  0  0  0
  128.0190  123.9570   61.0440 N   0  0  0  0  0  0  0  0  0  0  0  0
  128.7460  124.0050   62.1590 C   0  0  0  0  0  0  0  0  0  0  0  0
  128.6940  125.3760   63.2440 S   0  0  0  0  0  0  0  0  0  0  0  0
  129.8600  124.6200   64.3320 C   0  0  0  0  0  0  0  0  0  0  0  0
  130.2960  125.3120   65.5460 C   0  0  0  0  0  0  0  0  0  0  0  0
  131.4910  125.3580   65.8500 O   0  0  0  0  0  0  0  0  0  0  0  0
  129.3080  125.8700   66.2870 N   0  0  0  0  0  0  0  0  0  0  0  0
  129.4510  126.5740   67.4740 C   0  0  0  0  0  0  0  0  0  0  0  0
  130.3170  127.5260   67.7490 N   0  0  0  0  0  0  0  0  0  0  0  0
  130.1680  127.9760   68.9800 C   0  0  0  0  0  0  0  0  0  0  0  0
  129.1580  127.3850   69.7330 C   0  0  0  0  0  0  0  0  0  0  0  0
  128.3680  126.1750   68.7680 S   0  0  0  0  0  0  0  0  0  0  0  0
  130.2580  123.3630   63.8510 C   0  0  0  0  0  0  0  0  0  0  0  0
  131.1600  122.5510   64.4930 N   0  0  0  0  0  0  0  0  0  0  0  0
  129.6340  122.9870   62.6120 C   0  0  0  0  0  0  0  0  0  0  0  0
  130.7092  120.5301   63.2146 H   0  0  0  0  0  0  0  0  0  0  0  0
  130.1885  119.7259   61.6951 H   0  0  0  0  0  0  0  0  0  0  0  0
  131.6285  120.7996   61.6951 H   0  0  0  0  0  0  0  0  0  0  0  0
  129.0316  120.8952   59.9776 H   0  0  0  0  0  0  0  0  0  0  0  0
  125.7700  124.1364   59.8088 H   0  0  0  0  0  0  0  0  0  0  0  0
  124.3853  124.0990   57.7451 H   0  0  0  0  0  0  0  0  0  0  0  0
  125.1186  122.7575   55.7797 H   0  0  0  0  0  0  0  0  0  0  0  0
  127.2371  121.4527   55.8725 H   0  0  0  0  0  0  0  0  0  0  0  0
  128.6259  121.4879   57.9322 H   0  0  0  0  0  0  0  0  0  0  0  0
  128.3610  125.7650   65.9510 H   0  0  0  0  0  0  0  0  0  0  0  0
  130.8062  128.7735   69.3883 H   0  0  0  0  0  0  0  0  0  0  0  0
  128.9012  127.6422   70.7712 H   0  0  0  0  0  0  0  0  0  0  0  0
  131.7510  122.8920   65.2350 H   0  0  0  0  0  0  0  0  0  0  0  0
  131.2620  121.5780   64.2390 H   0  0  0  0  0  0  0  0  0  0  0  0
  1  2  1  0
  2  3  2  0
  3  4  1  0
  4  5  1  0
  5  6  2  0
  6  7  1  0
  7  8  2  0
  8  9  1  0
  9 10  2  0
  4 11  2  0
 11 12  1  0
 12 13  1  0
 13 14  1  0
 14 15  1  0
 15 16  2  0
 15 17  1  0
 17 18  1  0
 18 19  2  0
 19 20  1  0
 20 21  2  0
 21 22  1  0
 14 23  2  0
 23 24  1  0
 23 25  1  0
 25  2  1  0
 10  5  1  0
 25 12  2  0
 22 18  1  0
  1 26  1  0
  1 27  1  0
  1 28  1  0
  3 29  1  0
  6 30  1  0
  7 31  1  0
  8 32  1  0
  9 33  1  0
 10 34  1  0
 17 35  1  0
 20 36  1  0
 21 37  1  0
 24 38  1  0
 24 39  1  0
M  END
>  <Binding energies>  (1) 
[-7.33]

>  <Ligand effiencies>  (1) 
[-0.2617857142857143]

>  <Interactions>  (1) 
["V-B:PRO:540:CB:9857, V-B:PRO:540:N:9856, V-B:TYR:539:CD2:9846, V-B:PRO:540:CA:9855, V-B:PRO:540:C:9853, V-B:MET:535:CE:9807, V-A:LEU:475:CD1:4257, V-B:TYR:539:C:9839, V-B:ALA:541:CB:9864, V-B:GLU:543:CD:9880, V-B:GLU:543:CB:9878, V-A:GLU:543:CB:4906, V-A:HIS:456:CE1:4069, V-B:HIS:456:CE1:9041, H-A:TYR:484:OH:4347, V-A:GLU:543:C:4902, V-B:GLU:543:CG:9879, H-B:GLU:543:OE2:9882, V-B:GLU:543:C:9874, V-A:TYR:484:CE2:4345, V-A:TYR:484:CZ:4346, V-B:TYR:539:CA:9841, V-B:PRO:540:CD:9859, V-B:TYR:531:CE2:9765, V-B:LEU:363:CD1:8160"]

$$$$
4ea_Grossjean_2025
     RDKit          3D

 52 55  0  0  0  0  0  0  0  0999 V2000
  130.6110  117.2290   60.1300 C   0  0  0  0  0  0  0  0  0  0  0  0
  131.6900  118.2540   59.7660 C   0  0  0  0  0  0  0  0  0  0  0  0
  132.6670  118.2960   60.7970 O   0  0  0  0  0  0  0  0  0  0  0  0
  133.4340  119.4000   60.9930 C   0  0  0  0  0  0  0  0  0  0  0  0
  134.5700  119.5290   60.5270 O   0  0  0  0  0  0  0  0  0  0  0  0
  132.7620  120.4470   61.8330 C   0  0  0  0  0  0  0  0  0  0  0  0
  133.5480  121.3090   62.6080 C   0  0  0  0  0  0  0  0  0  0  0  0
  132.9550  122.2910   63.3980 C   0  0  0  0  0  0  0  0  0  0  0  0
  131.5680  122.4320   63.4280 C   0  0  0  0  0  0  0  0  0  0  0  0
  131.0810  123.4580   64.2620 N   0  0  0  0  0  0  0  0  0  0  0  0
  130.4170  124.5990   63.9530 C   0  0  0  0  0  0  0  0  0  0  0  0
  130.1160  124.9390   62.8080 O   0  0  0  0  0  0  0  0  0  0  0  0
  130.0620  125.4430   65.0970 C   0  0  0  0  0  0  0  0  0  0  0  0
  130.8680  125.2250   66.6530 S   0  0  0  0  0  0  0  0  0  0  0  0
  129.9310  126.5120   67.3740 C   0  0  0  0  0  0  0  0  0  0  0  0
  130.0870  126.8690   68.6500 N   0  0  0  0  0  0  0  0  0  0  0  0
  129.2990  127.8810   69.0870 C   0  0  0  0  0  0  0  0  0  0  0  0
  129.4930  128.2700   70.5410 C   0  0  0  0  0  0  0  0  0  0  0  0
  128.3680  128.5400   68.2860 C   0  0  0  0  0  0  0  0  0  0  0  0
  128.2080  128.1630   66.9490 C   0  0  0  0  0  0  0  0  0  0  0  0
  127.2150  128.8720   66.1110 C   0  0  0  0  0  0  0  0  0  0  0  0
  125.8490  128.6220   66.2750 C   0  0  0  0  0  0  0  0  0  0  0  0
  124.9140  129.2900   65.4890 C   0  0  0  0  0  0  0  0  0  0  0  0
  125.3460  130.2070   64.5340 C   0  0  0  0  0  0  0  0  0  0  0  0
  126.7040  130.4610   64.3590 C   0  0  0  0  0  0  0  0  0  0  0  0
  127.6380  129.7920   65.1460 C   0  0  0  0  0  0  0  0  0  0  0  0
  129.0160  127.1040   66.4510 C   0  0  0  0  0  0  0  0  0  0  0  0
  129.1120  126.4750   65.1600 C   0  0  0  0  0  0  0  0  0  0  0  0
  128.3360  126.8630   64.0980 N   0  0  0  0  0  0  0  0  0  0  0  0
  130.7720  121.5720   62.6550 C   0  0  0  0  0  0  0  0  0  0  0  0
  131.3660  120.5920   61.8660 C   0  0  0  0  0  0  0  0  0  0  0  0
  130.5314  117.1534   61.2245 H   0  0  0  0  0  0  0  0  0  0  0  0
  129.6449  117.5500   59.7134 H   0  0  0  0  0  0  0  0  0  0  0  0
  130.8820  116.2477   59.7134 H   0  0  0  0  0  0  0  0  0  0  0  0
  132.1680  117.9633   58.8189 H   0  0  0  0  0  0  0  0  0  0  0  0
  131.2308  119.2473   59.6538 H   0  0  0  0  0  0  0  0  0  0  0  0
  134.6434  121.2096   62.5927 H   0  0  0  0  0  0  0  0  0  0  0  0
  133.5852  122.9600   64.0024 H   0  0  0  0  0  0  0  0  0  0  0  0
  131.2610  123.3070   65.2430 H   0  0  0  0  0  0  0  0  0  0  0  0
  129.0964  127.4748   71.1894 H   0  0  0  0  0  0  0  0  0  0  0  0
  130.5653  128.4077   70.7438 H   0  0  0  0  0  0  0  0  0  0  0  0
  128.9579  129.2094   70.7438 H   0  0  0  0  0  0  0  0  0  0  0  0
  127.7600  129.3554   68.7049 H   0  0  0  0  0  0  0  0  0  0  0  0
  125.5118  127.8946   67.0281 H   0  0  0  0  0  0  0  0  0  0  0  0
  123.8397  129.0945   65.6216 H   0  0  0  0  0  0  0  0  0  0  0  0
  124.6080  130.7353   63.9125 H   0  0  0  0  0  0  0  0  0  0  0  0
  127.0374  131.1867   63.6026 H   0  0  0  0  0  0  0  0  0  0  0  0
  128.7117  129.9876   65.0084 H   0  0  0  0  0  0  0  0  0  0  0  0
  128.6570  126.7790   63.1430 H   0  0  0  0  0  0  0  0  0  0  0  0
  127.4100  127.2470   64.2340 H   0  0  0  0  0  0  0  0  0  0  0  0
  129.6768  121.6731   62.6731 H   0  0  0  0  0  0  0  0  0  0  0  0
  130.7351  119.9237   61.2616 H   0  0  0  0  0  0  0  0  0  0  0  0
  1  2  1  0
  2  3  1  0
  3  4  1  0
  4  5  2  0
  4  6  1  0
  6  7  2  0
  7  8  1  0
  8  9  2  0
  9 10  1  0
 10 11  1  0
 11 12  2  0
 11 13  1  0
 13 14  1  0
 14 15  1  0
 15 16  2  0
 16 17  1  0
 17 18  1  0
 17 19  2  0
 19 20  1  0
 20 21  1  0
 21 22  2  0
 22 23  1  0
 23 24  2  0
 24 25  1  0
 25 26  2  0
 20 27  2  0
 27 28  1  0
 28 29  1  0
  9 30  1  0
 30 31  2  0
 31  6  1  0
 28 13  2  0
 27 15  1  0
 26 21  1  0
  1 32  1  0
  1 33  1  0
  1 34  1  0
  2 35  1  0
  2 36  1  0
  7 37  1  0
  8 38  1  0
 10 39  1  0
 18 40  1  0
 18 41  1  0
 18 42  1  0
 19 43  1  0
 22 44  1  0
 23 45  1  0
 24 46  1  0
 25 47  1  0
 26 48  1  0
 29 49  1  0
 29 50  1  0
 30 51  1  0
 31 52  1  0
M  END
>  <Binding energies>  (1) 
[-7.31]

>  <Ligand effiencies>  (1) 
[-0.215]

>  <Interactions>  (1) 
["V-A:ILE:369:CG2:3236, V-B:TYR:539:CD2:9846, V-A:PRO:482:CG:4326, V-A:LEU:475:CD1:4257, V-A:SER:385:CA:3406, V-B:TYR:539:C:9839, V-B:ALA:541:CB:9864, V-B:GLU:543:CD:9880, V-A:GLU:543:CB:4906, V-A:HIS:456:CE1:4069, V-B:HIS:456:CE1:9041, V-B:ARG:545:CZ:9898, V-A:GLY:454:CA:4048, V-A:HIS:383:CE1:3392, H-A:TYR:484:OH:4347, V-A:GLU:543:C:4902, H-A:GLU:543:OE1:4909, V-A:GLU:543:CD:4908, V-A:GLU:543:CG:4907, H-B:GLU:543:OE2:9882, V-A:TYR:484:CE2:4345, V-A:TYR:484:CZ:4346, V-B:TYR:539:CB:9843, H-A:HIS:383:NE2:3393, H-A:SER:385:OG:3409"]

$$$$
4eb_Grossjean_2025
     RDKit          3D

 49 52  0  0  0  0  0  0  0  0999 V2000
  124.5640  124.5740   57.7310 C   0  0  0  0  0  0  0  0  0  0  0  0
  125.1450  123.6870   56.7870 O   0  0  0  0  0  0  0  0  0  0  0  0
  126.0210  122.7250   57.1790 C   0  0  0  0  0  0  0  0  0  0  0  0
  126.1210  121.6290   56.6210 O   0  0  0  0  0  0  0  0  0  0  0  0
  126.8550  123.1290   58.3610 C   0  0  0  0  0  0  0  0  0  0  0  0
  128.1870  123.5140   58.1570 C   0  0  0  0  0  0  0  0  0  0  0  0
  128.9860  123.8930   59.2320 C   0  0  0  0  0  0  0  0  0  0  0  0
  128.4730  123.8970   60.5290 C   0  0  0  0  0  0  0  0  0  0  0  0
  129.3720  124.2990   61.5370 N   0  0  0  0  0  0  0  0  0  0  0  0
  129.7980  125.5360   61.8900 C   0  0  0  0  0  0  0  0  0  0  0  0
  129.4370  126.5780   61.3410 O   0  0  0  0  0  0  0  0  0  0  0  0
  130.7500  125.5750   63.0030 C   0  0  0  0  0  0  0  0  0  0  0  0
  132.4580  125.2250   62.7290 S   0  0  0  0  0  0  0  0  0  0  0  0
  132.8300  125.4720   64.4200 C   0  0  0  0  0  0  0  0  0  0  0  0
  134.0700  125.3430   64.8950 N   0  0  0  0  0  0  0  0  0  0  0  0
  134.2250  125.5610   66.2230 C   0  0  0  0  0  0  0  0  0  0  0  0
  135.6430  125.4090   66.7430 C   0  0  0  0  0  0  0  0  0  0  0  0
  133.1800  125.9030   67.0790 C   0  0  0  0  0  0  0  0  0  0  0  0
  131.8810  126.0380   66.5760 C   0  0  0  0  0  0  0  0  0  0  0  0
  130.7810  126.4010   67.4990 C   0  0  0  0  0  0  0  0  0  0  0  0
  129.8230  125.4490   67.8590 C   0  0  0  0  0  0  0  0  0  0  0  0
  128.7890  125.7900   68.7280 C   0  0  0  0  0  0  0  0  0  0  0  0
  128.7120  127.0850   69.2340 C   0  0  0  0  0  0  0  0  0  0  0  0
  129.6610  128.0420   68.8790 C   0  0  0  0  0  0  0  0  0  0  0  0
  130.6940  127.7000   68.0100 C   0  0  0  0  0  0  0  0  0  0  0  0
  131.6770  125.8170   65.1870 C   0  0  0  0  0  0  0  0  0  0  0  0
  130.5050  125.8680   64.3540 C   0  0  0  0  0  0  0  0  0  0  0  0
  129.2650  126.1780   64.8530 N   0  0  0  0  0  0  0  0  0  0  0  0
  127.1400  123.5130   60.7430 C   0  0  0  0  0  0  0  0  0  0  0  0
  126.3430  123.1340   59.6670 C   0  0  0  0  0  0  0  0  0  0  0  0
  124.7918  124.2262   58.7494 H   0  0  0  0  0  0  0  0  0  0  0  0
  124.9763  125.5837   57.5875 H   0  0  0  0  0  0  0  0  0  0  0  0
  123.4737  124.5994   57.5875 H   0  0  0  0  0  0  0  0  0  0  0  0
  128.6044  123.5167   57.1393 H   0  0  0  0  0  0  0  0  0  0  0  0
  130.0301  124.1917   59.0572 H   0  0  0  0  0  0  0  0  0  0  0  0
  129.7520  123.5350   62.0740 H   0  0  0  0  0  0  0  0  0  0  0  0
  135.6323  125.4102   67.8429 H   0  0  0  0  0  0  0  0  0  0  0  0
  136.0664  124.4603   66.3814 H   0  0  0  0  0  0  0  0  0  0  0  0
  136.2579  126.2464   66.3814 H   0  0  0  0  0  0  0  0  0  0  0  0
  133.3759  126.0667   68.1490 H   0  0  0  0  0  0  0  0  0  0  0  0
  129.8857  124.4278   67.4550 H   0  0  0  0  0  0  0  0  0  0  0  0
  128.0368  125.0397   69.0132 H   0  0  0  0  0  0  0  0  0  0  0  0
  127.8953  127.3550   69.9197 H   0  0  0  0  0  0  0  0  0  0  0  0
  129.5943  129.0628   69.2834 H   0  0  0  0  0  0  0  0  0  0  0  0
  131.4432  128.4532   67.7248 H   0  0  0  0  0  0  0  0  0  0  0  0
  129.0340  127.1130   65.1580 H   0  0  0  0  0  0  0  0  0  0  0  0
  128.5380  125.4790   64.9330 H   0  0  0  0  0  0  0  0  0  0  0  0
  126.7251  123.5116   61.7618 H   0  0  0  0  0  0  0  0  0  0  0  0
  125.2992  122.8348   59.8427 H   0  0  0  0  0  0  0  0  0  0  0  0
  1  2  1  0
  2  3  1  0
  3  4  2  0
  3  5  1  0
  5  6  2  0
  6  7  1  0
  7  8  2  0
  8  9  1  0
  9 10  1  0
 10 11  2  0
 10 12  1  0
 12 13  1  0
 13 14  1  0
 14 15  2  0
 15 16  1  0
 16 17  1  0
 16 18  2  0
 18 19  1  0
 19 20  1  0
 20 21  2  0
 21 22  1  0
 22 23  2  0
 23 24  1  0
 24 25  2  0
 19 26  2  0
 26 27  1  0
 27 28  1  0
  8 29  1  0
 29 30  2  0
 30  5  1  0
 27 12  2  0
 26 14  1  0
 25 20  1  0
  1 31  1  0
  1 32  1  0
  1 33  1  0
  6 34  1  0
  7 35  1  0
  9 36  1  0
 17 37  1  0
 17 38  1  0
 17 39  1  0
 18 40  1  0
 21 41  1  0
 22 42  1  0
 23 43  1  0
 24 44  1  0
 25 45  1  0
 28 46  1  0
 28 47  1  0
 29 48  1  0
 30 49  1  0
M  END
>  <Binding energies>  (1) 
[-8.87]

>  <Ligand effiencies>  (1) 
[-0.26878787878787874]

>  <Interactions>  (1) 
["V-B:PRO:540:CB:9857, V-B:PRO:540:N:9856, V-B:PRO:540:CA:9855, V-B:MET:535:CE:9807, H-B:TYR:539:N:9842, H-B:TYR:531:OH:9767, V-B:GLU:543:CD:9880, V-A:ARG:545:CD:4923, V-A:ARG:545:CZ:4926, V-A:GLY:453:CA:4043, V-B:GLU:543:CB:9878, V-A:ARG:545:CB:4921, V-A:GLY:453:C:4041, V-A:GLU:543:CB:4906, V-A:HIS:456:CE1:4069, V-A:ARG:545:CG:4922, V-B:HIS:456:CE1:9041, V-A:GLY:454:CA:4048, H-A:TYR:484:OH:4347, H-A:GLY:454:N:4049, H-A:GLU:543:OE1:4909, V-B:GLU:543:CG:9879, V-A:GLU:543:CD:4908, V-A:GLU:543:CG:4907, V-A:ASP:366:CG:3212, H-B:GLU:543:OE2:9882, H-A:ARG:545:NH1:4927, V-B:GLU:543:C:9874, V-A:TYR:484:CE2:4345, V-B:GLU:543:CA:9876, V-A:TYR:484:CZ:4346, V-B:ASP:366:CB:8183, H-A:ARG:545:NH2:4928, V-A:ILE:455:C:4051, H-A:ARG:545:NE:4924, V-B:TYR:531:CZ:9766, V-B:TYR:531:CE2:9765, V-B:LEU:363:CD1:8160, H-B:GLU:543:OE1:9881, V-A:GLY:454:C:4046, V-A:ILE:455:CA:4053, V-A:VAL:452:CG2:4039"]

$$$$
8a_Ghoteimi_2023
     RDKit          3D

 67 71  0  0  0  0  0  0  0  0999 V2000
  130.6540  117.4120   59.8930 C   0  0  0  0  0  0  0  0  0  0  0  0
  131.4960  117.6340   61.1530 C   0  0  0  0  0  0  0  0  0  0  0  0
  132.7510  118.1950   60.7900 O   0  0  0  0  0  0  0  0  0  0  0  0
  132.8390  119.4600   60.3010 C   0  0  0  0  0  0  0  0  0  0  0  0
  133.2100  119.7200   59.1520 O   0  0  0  0  0  0  0  0  0  0  0  0
  132.4440  120.5100   61.2980 C   0  0  0  0  0  0  0  0  0  0  0  0
  131.0860  120.7570   61.5310 C   0  0  0  0  0  0  0  0  0  0  0  0
  130.6880  121.7250   62.4480 C   0  0  0  0  0  0  0  0  0  0  0  0
  131.6380  122.4680   63.1520 C   0  0  0  0  0  0  0  0  0  0  0  0
  131.1190  123.4220   64.0490 N   0  0  0  0  0  0  0  0  0  0  0  0
  130.5300  124.6200   63.8120 C   0  0  0  0  0  0  0  0  0  0  0  0
  130.3480  125.0930   62.6900 O   0  0  0  0  0  0  0  0  0  0  0  0
  130.0990  125.3510   65.0070 C   0  0  0  0  0  0  0  0  0  0  0  0
  130.8310  125.0090   66.5740 S   0  0  0  0  0  0  0  0  0  0  0  0
  129.8180  126.1980   67.3600 C   0  0  0  0  0  0  0  0  0  0  0  0
  129.8850  126.4170   68.6730 N   0  0  0  0  0  0  0  0  0  0  0  0
  129.0490  127.3600   69.1840 C   0  0  0  0  0  0  0  0  0  0  0  0
  129.1260  127.5740   70.6620 C   0  0  0  0  0  0  0  0  0  0  0  0
  129.1810  126.4890   71.5480 C   0  0  0  0  0  0  0  0  0  0  0  0
  129.2410  126.6950   72.9230 C   0  0  0  0  0  0  0  0  0  0  0  0
  129.2500  127.9860   73.4470 C   0  0  0  0  0  0  0  0  0  0  0  0
  129.3090  128.0950   74.8230 O   0  0  0  0  0  0  0  0  0  0  0  0
  128.2010  127.6550   75.6010 C   0  0  0  0  0  0  0  0  0  0  0  0
  129.2010  129.0780   72.5690 C   0  0  0  0  0  0  0  0  0  0  0  0
  129.1390  128.8690   71.1930 C   0  0  0  0  0  0  0  0  0  0  0  0
  128.1610  128.0820   68.3840 C   0  0  0  0  0  0  0  0  0  0  0  0
  128.0990  127.8670   67.0030 C   0  0  0  0  0  0  0  0  0  0  0  0
  127.1590  128.6850   66.1950 C   0  0  0  0  0  0  0  0  0  0  0  0
  125.7830  128.4660   66.2820 C   0  0  0  0  0  0  0  0  0  0  0  0
  124.8970  129.2440   65.5420 C   0  0  0  0  0  0  0  0  0  0  0  0
  125.3700  130.2570   64.7070 C   0  0  0  0  0  0  0  0  0  0  0  0
  124.4190  130.9780   64.0120 O   0  0  0  0  0  0  0  0  0  0  0  0
  124.0280  130.5420   62.7150 C   0  0  0  0  0  0  0  0  0  0  0  0
  126.7530  130.4850   64.6240 C   0  0  0  0  0  0  0  0  0  0  0  0
  127.6370  129.7060   65.3680 C   0  0  0  0  0  0  0  0  0  0  0  0
  128.9490  126.8690   66.4490 C   0  0  0  0  0  0  0  0  0  0  0  0
  129.1180  126.3510   65.1140 C   0  0  0  0  0  0  0  0  0  0  0  0
  128.3690  126.7920   64.0520 N   0  0  0  0  0  0  0  0  0  0  0  0
  133.0010  122.2240   62.9290 C   0  0  0  0  0  0  0  0  0  0  0  0
  133.3970  121.2550   62.0100 C   0  0  0  0  0  0  0  0  0  0  0  0
  129.6274  117.1413   60.1810 H   0  0  0  0  0  0  0  0  0  0  0  0
  130.6359  118.3361   59.2965 H   0  0  0  0  0  0  0  0  0  0  0  0
  131.0939  116.5991   59.2965 H   0  0  0  0  0  0  0  0  0  0  0  0
  130.9687  118.3220   61.8302 H   0  0  0  0  0  0  0  0  0  0  0  0
  131.6570  116.6719   61.6613 H   0  0  0  0  0  0  0  0  0  0  0  0
  130.3259  120.1801   60.9838 H   0  0  0  0  0  0  0  0  0  0  0  0
  129.6167  121.9064   62.6197 H   0  0  0  0  0  0  0  0  0  0  0  0
  131.1940  123.1560   65.0200 H   0  0  0  0  0  0  0  0  0  0  0  0
  129.1767  125.4629   71.1518 H   0  0  0  0  0  0  0  0  0  0  0  0
  129.2817  125.8308   73.6023 H   0  0  0  0  0  0  0  0  0  0  0  0
  128.4424  127.7509   76.6699 H   0  0  0  0  0  0  0  0  0  0  0  0
  127.3207  128.2718   75.3671 H   0  0  0  0  0  0  0  0  0  0  0  0
  127.9837  126.6023   75.3671 H   0  0  0  0  0  0  0  0  0  0  0  0
  129.2115  130.1031   72.9679 H   0  0  0  0  0  0  0  0  0  0  0  0
  129.0997  129.7338   70.5144 H   0  0  0  0  0  0  0  0  0  0  0  0
  127.5007  128.8306   68.8463 H   0  0  0  0  0  0  0  0  0  0  0  0
  125.3964  127.6735   66.9396 H   0  0  0  0  0  0  0  0  0  0  0  0
  123.8153  129.0587   65.6161 H   0  0  0  0  0  0  0  0  0  0  0  0
  123.2962  129.7260   62.8076 H   0  0  0  0  0  0  0  0  0  0  0  0
  123.5741  131.3811   62.1674 H   0  0  0  0  0  0  0  0  0  0  0  0
  124.9114  130.1819   62.1674 H   0  0  0  0  0  0  0  0  0  0  0  0
  127.1396  131.2805   63.9700 H   0  0  0  0  0  0  0  0  0  0  0  0
  128.7186  129.8957   65.3042 H   0  0  0  0  0  0  0  0  0  0  0  0
  128.7110  126.7260   63.1030 H   0  0  0  0  0  0  0  0  0  0  0  0
  127.4510  127.1930   64.1790 H   0  0  0  0  0  0  0  0  0  0  0  0
  133.7590  122.7991   63.4810 H   0  0  0  0  0  0  0  0  0  0  0  0
  134.4683  121.0716   61.8404 H   0  0  0  0  0  0  0  0  0  0  0  0
  1  2  1  0
  2  3  1  0
  3  4  1  0
  4  5  2  0
  4  6  1  0
  6  7  2  0
  7  8  1  0
  8  9  2  0
  9 10  1  0
 10 11  1  0
 11 12  2  0
 11 13  1  0
 13 14  1  0
 14 15  1  0
 15 16  2  0
 16 17  1  0
 17 18  1  0
 18 19  2  0
 19 20  1  0
 20 21  2  0
 21 22  1  0
 22 23  1  0
 21 24  1  0
 24 25  2  0
 17 26  2  0
 26 27  1  0
 27 28  1  0
 28 29  2  0
 29 30  1  0
 30 31  2  0
 31 32  1  0
 32 33  1  0
 31 34  1  0
 34 35  2  0
 27 36  2  0
 36 37  1  0
 37 38  1  0
  9 39  1  0
 39 40  2  0
 40  6  1  0
 37 13  2  0
 36 15  1  0
 25 18  1  0
 35 28  1  0
  1 41  1  0
  1 42  1  0
  1 43  1  0
  2 44  1  0
  2 45  1  0
  7 46  1  0
  8 47  1  0
 10 48  1  0
 19 49  1  0
 20 50  1  0
 23 51  1  0
 23 52  1  0
 23 53  1  0
 24 54  1  0
 25 55  1  0
 26 56  1  0
 29 57  1  0
 30 58  1  0
 33 59  1  0
 33 60  1  0
 33 61  1  0
 34 62  1  0
 35 63  1  0
 38 64  1  0
 38 65  1  0
 39 66  1  0
 40 67  1  0
M  END
>  <Binding energies>  (1) 
[-8.7]

>  <Ligand effiencies>  (1) 
[-0.2023255813953488]

>  <Interactions>  (1) 
["V-A:ILE:369:CG2:3236, V-B:TYR:539:CD2:9846, V-A:PRO:482:CG:4326, V-A:PRO:482:CB:4325, V-A:LEU:475:CD1:4257, V-B:TYR:539:C:9839, V-B:ALA:541:CB:9864, V-B:GLU:543:CD:9880, V-A:HIS:456:CE1:4069, V-B:HIS:456:CE1:9041, V-B:ARG:545:CZ:9898, V-A:GLY:454:CA:4048, H-B:GLY:454:N:9021, V-A:HIS:383:CE1:3392, H-A:TYR:484:OH:4347, V-A:GLU:543:C:4902, H-A:GLU:543:OE1:4909, V-B:GLU:543:CG:9879, V-A:GLU:543:CD:4908, V-A:GLU:543:CG:4907, H-B:GLU:543:OE2:9882, V-B:HIS:456:CD2:9039, V-A:TYR:484:CE2:4345, V-A:TYR:484:CZ:4346, V-B:TYR:539:CB:9843, V-B:ARG:545:CD:9895, V-B:ARG:545:CG:9894, H-A:HIS:383:NE2:3393, H-A:SER:385:OG:3409, V-B:ILE:369:CD1:8210, H-A:LYS:547:NZ:4951"]

$$$$
8b_Ghoteimi_2023
     RDKit          3D

 54 58  0  0  0  0  0  0  0  0999 V2000
  130.4940  116.6320   59.6550 C   0  0  0  0  0  0  0  0  0  0  0  0
  131.3950  117.2910   60.5390 O   0  0  0  0  0  0  0  0  0  0  0  0
  131.2280  118.6400   60.7890 C   0  0  0  0  0  0  0  0  0  0  0  0
  132.2100  119.4920   60.2890 C   0  0  0  0  0  0  0  0  0  0  0  0
  132.1250  120.8660   60.4930 C   0  0  0  0  0  0  0  0  0  0  0  0
  131.0530  121.4240   61.2040 C   0  0  0  0  0  0  0  0  0  0  0  0
  130.9580  122.9000   61.4280 C   0  0  0  0  0  0  0  0  0  0  0  0
  131.0070  123.4550   62.7110 C   0  0  0  0  0  0  0  0  0  0  0  0
  130.9170  124.8380   62.8940 C   0  0  0  0  0  0  0  0  0  0  0  0
  130.9620  125.3930   64.2660 C   0  0  0  0  0  0  0  0  0  0  0  0
  129.7810  125.5970   64.9820 C   0  0  0  0  0  0  0  0  0  0  0  0
  129.8260  126.1100   66.2750 C   0  0  0  0  0  0  0  0  0  0  0  0
  131.0480  126.4280   66.8710 C   0  0  0  0  0  0  0  0  0  0  0  0
  130.9960  126.9290   68.1570 O   0  0  0  0  0  0  0  0  0  0  0  0
  129.8820  127.7240   68.5480 C   0  0  0  0  0  0  0  0  0  0  0  0
  132.2330  126.2250   66.1470 C   0  0  0  0  0  0  0  0  0  0  0  0
  132.1870  125.7120   64.8540 C   0  0  0  0  0  0  0  0  0  0  0  0
  130.7820  125.6570   61.7410 C   0  0  0  0  0  0  0  0  0  0  0  0
  130.6710  127.0820   61.5620 C   0  0  0  0  0  0  0  0  0  0  0  0
  130.6820  127.9570   62.6180 N   0  0  0  0  0  0  0  0  0  0  0  0
  130.5540  127.4790   60.2210 C   0  0  0  0  0  0  0  0  0  0  0  0
  130.4280  128.8340   59.6800 C   0  0  0  0  0  0  0  0  0  0  0  0
  129.5170  129.5780   60.0510 O   0  0  0  0  0  0  0  0  0  0  0  0
  131.3680  129.1850   58.7660 N   0  0  0  0  0  0  0  0  0  0  0  0
  131.4890  130.3980   58.1010 C   0  0  0  0  0  0  0  0  0  0  0  0
  132.6810  130.8340   57.5250 C   0  0  0  0  0  0  0  0  0  0  0  0
  132.3860  132.0630   56.9790 C   0  0  0  0  0  0  0  0  0  0  0  0
  131.0840  132.3500   57.2120 O   0  0  0  0  0  0  0  0  0  0  0  0
  130.5250  131.2860   57.9230 N   0  0  0  0  0  0  0  0  0  0  0  0
  130.5820  126.0860   59.1390 S   0  0  0  0  0  0  0  0  0  0  0  0
  130.7480  124.9840   60.4860 C   0  0  0  0  0  0  0  0  0  0  0  0
  130.8320  123.6650   60.3110 N   0  0  0  0  0  0  0  0  0  0  0  0
  130.0670  120.5610   61.7020 C   0  0  0  0  0  0  0  0  0  0  0  0
  130.1500  119.1860   61.5010 C   0  0  0  0  0  0  0  0  0  0  0  0
  129.7423  116.0822   60.2404 H   0  0  0  0  0  0  0  0  0  0  0  0
  129.9916  117.3773   59.0208 H   0  0  0  0  0  0  0  0  0  0  0  0
  131.0520  115.9274   59.0208 H   0  0  0  0  0  0  0  0  0  0  0  0
  133.0597  119.0753   59.7283 H   0  0  0  0  0  0  0  0  0  0  0  0
  132.9098  121.5235   60.0908 H   0  0  0  0  0  0  0  0  0  0  0  0
  131.1175  122.7964   63.5851 H   0  0  0  0  0  0  0  0  0  0  0  0
  128.8120  125.3516   64.5229 H   0  0  0  0  0  0  0  0  0  0  0  0
  128.8906  126.2663   66.8323 H   0  0  0  0  0  0  0  0  0  0  0  0
  129.8269  127.7633   69.6459 H   0  0  0  0  0  0  0  0  0  0  0  0
  130.0008  128.7426   68.1501 H   0  0  0  0  0  0  0  0  0  0  0  0
  128.9573  127.2805   68.1501 H   0  0  0  0  0  0  0  0  0  0  0  0
  133.2027  126.4725   66.6036 H   0  0  0  0  0  0  0  0  0  0  0  0
  133.1204  125.5572   64.2929 H   0  0  0  0  0  0  0  0  0  0  0  0
  131.0620  128.8880   62.5250 H   0  0  0  0  0  0  0  0  0  0  0  0
  130.3150  127.7010   63.5240 H   0  0  0  0  0  0  0  0  0  0  0  0
  132.0670  128.4930   58.5390 H   0  0  0  0  0  0  0  0  0  0  0  0
  133.6479  130.3098   57.5099 H   0  0  0  0  0  0  0  0  0  0  0  0
  133.0950  132.7084   56.4397 H   0  0  0  0  0  0  0  0  0  0  0  0
  129.2149  120.9765   62.2600 H   0  0  0  0  0  0  0  0  0  0  0  0
  129.3673  118.5253   61.9020 H   0  0  0  0  0  0  0  0  0  0  0  0
  1  2  1  0
  2  3  1  0
  3  4  2  0
  4  5  1  0
  5  6  2  0
  6  7  1  0
  7  8  2  0
  8  9  1  0
  9 10  1  0
 10 11  2  0
 11 12  1  0
 12 13  2  0
 13 14  1  0
 14 15  1  0
 13 16  1  0
 16 17  2  0
  9 18  2  0
 18 19  1  0
 19 20  1  0
 19 21  2  0
 21 22  1  0
 22 23  2  0
 22 24  1  0
 24 25  1  0
 25 26  1  0
 26 27  2  0
 27 28  1  0
 28 29  1  0
 21 30  1  0
 30 31  1  0
 31 32  2  0
  6 33  1  0
 33 34  2  0
 34  3  1  0
 32  7  1  0
 17 10  1  0
 31 18  1  0
 29 25  2  0
  1 35  1  0
  1 36  1  0
  1 37  1  0
  4 38  1  0
  5 39  1  0
  8 40  1  0
 11 41  1  0
 12 42  1  0
 15 43  1  0
 15 44  1  0
 15 45  1  0
 16 46  1  0
 17 47  1  0
 20 48  1  0
 20 49  1  0
 24 50  1  0
 26 51  1  0
 27 52  1  0
 33 53  1  0
 34 54  1  0
M  END
>  <Binding energies>  (1) 
[-7.85]

>  <Ligand effiencies>  (1) 
[-0.21216216216216216]

>  <Interactions>  (1) 
["V-B:TYR:539:CE2:9848, V-B:TYR:539:CD2:9846, V-A:PRO:482:CG:4326, V-B:PRO:540:C:9853, V-A:PRO:482:CB:4325, V-A:LEU:475:CD1:4257, V-B:ALA:541:CA:9862, V-B:TYR:539:C:9839, V-B:ALA:541:CB:9864, V-B:GLU:543:CD:9880, V-A:ARG:545:CZ:4926, V-A:GLU:543:CB:4906, V-A:HIS:456:CE1:4069, V-A:HIS:383:CE1:3392, H-A:GLU:543:OE1:4909, V-B:GLU:543:CG:9879, V-A:GLU:543:CD:4908, V-A:ASP:366:CG:3212, V-A:ASP:366:CB:3211, H-A:TYR:539:N:4870, V-A:PRO:540:CA:4883, H-A:GLU:543:OE2:4910, V-B:VAL:344:CG1:7972, V-B:TYR:539:CB:9843, H-A:ASP:366:OD2:3214, V-A:PRO:540:CB:4885, V-A:PRO:540:N:4884, V-A:LEU:363:CD1:3188, H-A:HIS:383:NE2:3393, H-A:SER:385:OG:3409, V-A:PRO:540:CD:4887, V-A:PRO:540:CG:4886"]

$$$$
8c_Ghoteimi_2023
     RDKit          3D

 54 58  0  0  0  0  0  0  0  0999 V2000
  130.6130  116.5100   59.8780 C   0  0  0  0  0  0  0  0  0  0  0  0
  131.5270  117.1270   60.7780 O   0  0  0  0  0  0  0  0  0  0  0  0
  131.4860  118.4980   60.9440 C   0  0  0  0  0  0  0  0  0  0  0  0
  130.2690  119.0400   61.3540 C   0  0  0  0  0  0  0  0  0  0  0  0
  130.1350  120.4120   61.5450 C   0  0  0  0  0  0  0  0  0  0  0  0
  131.2160  121.2790   61.3310 C   0  0  0  0  0  0  0  0  0  0  0  0
  131.0770  122.7550   61.5310 C   0  0  0  0  0  0  0  0  0  0  0  0
  131.1160  123.3340   62.8030 C   0  0  0  0  0  0  0  0  0  0  0  0
  130.9860  124.7180   62.9620 C   0  0  0  0  0  0  0  0  0  0  0  0
  131.0220  125.2980   64.3230 C   0  0  0  0  0  0  0  0  0  0  0  0
  129.8380  125.4850   65.0410 C   0  0  0  0  0  0  0  0  0  0  0  0
  129.8750  126.0210   66.3240 C   0  0  0  0  0  0  0  0  0  0  0  0
  131.0910  126.3820   66.9080 C   0  0  0  0  0  0  0  0  0  0  0  0
  131.0310  126.9040   68.1860 O   0  0  0  0  0  0  0  0  0  0  0  0
  129.8830  127.6460   68.5800 C   0  0  0  0  0  0  0  0  0  0  0  0
  132.2790  126.1970   66.1840 C   0  0  0  0  0  0  0  0  0  0  0  0
  132.2410  125.6600   64.9000 C   0  0  0  0  0  0  0  0  0  0  0  0
  130.8200  125.5120   61.7960 C   0  0  0  0  0  0  0  0  0  0  0  0
  130.6640  126.9280   61.5930 C   0  0  0  0  0  0  0  0  0  0  0  0
  130.6520  127.8220   62.6340 N   0  0  0  0  0  0  0  0  0  0  0  0
  130.5270  127.2990   60.2460 C   0  0  0  0  0  0  0  0  0  0  0  0
  130.3550  128.6390   59.6820 C   0  0  0  0  0  0  0  0  0  0  0  0
  129.4110  129.3530   60.0280 O   0  0  0  0  0  0  0  0  0  0  0  0
  131.2920  129.0120   58.7750 N   0  0  0  0  0  0  0  0  0  0  0  0
  131.3620  130.2220   58.0990 C   0  0  0  0  0  0  0  0  0  0  0  0
  130.3970  131.0920   57.8970 N   0  0  0  0  0  0  0  0  0  0  0  0
  130.8210  132.1370   57.2140 C   0  0  0  0  0  0  0  0  0  0  0  0
  132.1620  132.1280   56.8440 C   0  0  0  0  0  0  0  0  0  0  0  0
  132.8990  130.6640   57.4270 S   0  0  0  0  0  0  0  0  0  0  0  0
  130.5930  125.8890   59.1880 S   0  0  0  0  0  0  0  0  0  0  0  0
  130.8010  124.8160   60.5520 C   0  0  0  0  0  0  0  0  0  0  0  0
  130.9230  123.4970   60.4000 N   0  0  0  0  0  0  0  0  0  0  0  0
  132.4370  120.7260   60.9210 C   0  0  0  0  0  0  0  0  0  0  0  0
  132.5750  119.3550   60.7290 C   0  0  0  0  0  0  0  0  0  0  0  0
  129.8341  115.9842   60.4496 H   0  0  0  0  0  0  0  0  0  0  0  0
  130.1468  117.2789   59.2444 H   0  0  0  0  0  0  0  0  0  0  0  0
  131.1518  115.7901   59.2444 H   0  0  0  0  0  0  0  0  0  0  0  0
  129.4078  118.3781   61.5279 H   0  0  0  0  0  0  0  0  0  0  0  0
  129.1670  120.8222   61.8685 H   0  0  0  0  0  0  0  0  0  0  0  0
  131.2503  122.6947   63.6881 H   0  0  0  0  0  0  0  0  0  0  0  0
  128.8737  125.2075   64.5903 H   0  0  0  0  0  0  0  0  0  0  0  0
  128.9384  126.1617   66.8834 H   0  0  0  0  0  0  0  0  0  0  0  0
  129.8283  127.6813   69.6781 H   0  0  0  0  0  0  0  0  0  0  0  0
  129.9540  128.6695   68.1833 H   0  0  0  0  0  0  0  0  0  0  0  0
  128.9789  127.1609   68.1833 H   0  0  0  0  0  0  0  0  0  0  0  0
  133.2435  126.4772   66.6326 H   0  0  0  0  0  0  0  0  0  0  0  0
  133.1758  125.5202   64.3373 H   0  0  0  0  0  0  0  0  0  0  0  0
  131.0470  128.7480   62.5380 H   0  0  0  0  0  0  0  0  0  0  0  0
  130.2520  127.5880   63.5310 H   0  0  0  0  0  0  0  0  0  0  0  0
  132.0240  128.3490   58.5660 H   0  0  0  0  0  0  0  0  0  0  0  0
  130.1517  132.9695   56.9514 H   0  0  0  0  0  0  0  0  0  0  0  0
  132.6734  132.9184   56.2751 H   0  0  0  0  0  0  0  0  0  0  0  0
  133.2996  121.3864   60.7483 H   0  0  0  0  0  0  0  0  0  0  0  0
  133.5422  118.9416   60.4072 H   0  0  0  0  0  0  0  0  0  0  0  0
  1  2  1  0
  2  3  1  0
  3  4  2  0
  4  5  1  0
  5  6  2  0
  6  7  1  0
  7  8  2  0
  8  9  1  0
  9 10  1  0
 10 11  2  0
 11 12  1  0
 12 13  2  0
 13 14  1  0
 14 15  1  0
 13 16  1  0
 16 17  2  0
  9 18  2  0
 18 19  1  0
 19 20  1  0
 19 21  2  0
 21 22  1  0
 22 23  2  0
 22 24  1  0
 24 25  1  0
 25 26  2  0
 26 27  1  0
 27 28  2  0
 28 29  1  0
 21 30  1  0
 30 31  1  0
 31 32  2  0
  6 33  1  0
 33 34  2  0
 34  3  1  0
 32  7  1  0
 17 10  1  0
 31 18  1  0
 29 25  1  0
  1 35  1  0
  1 36  1  0
  1 37  1  0
  4 38  1  0
  5 39  1  0
  8 40  1  0
 11 41  1  0
 12 42  1  0
 15 43  1  0
 15 44  1  0
 15 45  1  0
 16 46  1  0
 17 47  1  0
 20 48  1  0
 20 49  1  0
 24 50  1  0
 27 51  1  0
 28 52  1  0
 33 53  1  0
 34 54  1  0
M  END
>  <Binding energies>  (1) 
[-7.93]

>  <Ligand effiencies>  (1) 
[-0.21432432432432433]

>  <Interactions>  (1) 
["V-B:TYR:539:CD2:9846, V-A:PRO:482:CG:4326, V-A:PRO:482:CB:4325, V-A:LEU:475:CD1:4257, V-B:ALA:541:CB:9864, V-B:GLU:543:CD:9880, V-A:ARG:545:CZ:4926, V-A:GLU:543:CB:4906, V-A:HIS:456:CE1:4069, V-A:ARG:545:CG:4922, V-A:HIS:383:CE1:3392, H-A:GLU:543:OE1:4909, V-B:GLU:543:CG:9879, V-A:GLU:543:CD:4908, V-A:ASP:366:CG:3212, V-A:ASP:366:CB:3211, V-A:TYR:539:C:4867, V-A:PRO:540:CA:4883, H-A:GLU:543:OE2:4910, V-B:VAL:344:CG1:7972, V-B:TYR:539:CB:9843, H-A:ASP:366:OD2:3214, V-A:PRO:540:CB:4885, V-A:PRO:540:N:4884, V-A:LEU:363:CD1:3188, H-A:HIS:383:NE2:3393, H-A:SER:385:OG:3409, V-A:PRO:540:CD:4887, V-A:PRO:540:CG:4886"]

$$$$
8d_Ghoteimi_2023
     RDKit          3D

 50 53  0  0  0  0  0  0  0  0999 V2000
  125.9620  122.3340   56.8650 C   0  0  0  0  0  0  0  0  0  0  0  0
  126.6430  122.5020   58.1010 O   0  0  0  0  0  0  0  0  0  0  0  0
  126.1160  123.2720   59.0870 C   0  0  0  0  0  0  0  0  0  0  0  0
  124.9820  123.7550   59.0540 O   0  0  0  0  0  0  0  0  0  0  0  0
  127.0480  123.4770   60.2180 C   0  0  0  0  0  0  0  0  0  0  0  0
  126.7920  124.8170   61.3380 S   0  0  0  0  0  0  0  0  0  0  0  0
  128.2040  124.3640   62.2640 C   0  0  0  0  0  0  0  0  0  0  0  0
  128.5880  125.0480   63.3420 N   0  0  0  0  0  0  0  0  0  0  0  0
  129.7000  124.6090   63.9900 C   0  0  0  0  0  0  0  0  0  0  0  0
  130.1110  125.3970   65.1930 C   0  0  0  0  0  0  0  0  0  0  0  0
  129.1620  125.8630   66.1140 C   0  0  0  0  0  0  0  0  0  0  0  0
  129.5500  126.5960   67.2310 C   0  0  0  0  0  0  0  0  0  0  0  0
  130.8950  126.8840   67.4580 C   0  0  0  0  0  0  0  0  0  0  0  0
  131.1880  127.6160   68.5920 O   0  0  0  0  0  0  0  0  0  0  0  0
  130.1240  128.0420   69.4380 C   0  0  0  0  0  0  0  0  0  0  0  0
  131.8530  126.4220   66.5450 C   0  0  0  0  0  0  0  0  0  0  0  0
  131.4610  125.6880   65.4290 C   0  0  0  0  0  0  0  0  0  0  0  0
  130.4270  123.4970   63.5560 C   0  0  0  0  0  0  0  0  0  0  0  0
  130.0220  122.7770   62.4270 C   0  0  0  0  0  0  0  0  0  0  0  0
  130.8080  121.5970   61.9970 C   0  0  0  0  0  0  0  0  0  0  0  0
  132.0960  121.7610   61.4830 C   0  0  0  0  0  0  0  0  0  0  0  0
  132.8310  120.6530   61.0700 C   0  0  0  0  0  0  0  0  0  0  0  0
  132.2940  119.3690   61.1700 C   0  0  0  0  0  0  0  0  0  0  0  0
  133.0950  118.3310   60.7360 O   0  0  0  0  0  0  0  0  0  0  0  0
  134.2590  118.6230   59.9720 C   0  0  0  0  0  0  0  0  0  0  0  0
  131.0000  119.2070   61.6920 C   0  0  0  0  0  0  0  0  0  0  0  0
  130.2660  120.3160   62.1020 C   0  0  0  0  0  0  0  0  0  0  0  0
  128.8620  123.2160   61.7360 C   0  0  0  0  0  0  0  0  0  0  0  0
  128.1800  122.7320   60.5680 C   0  0  0  0  0  0  0  0  0  0  0  0
  128.6100  121.6370   59.8610 N   0  0  0  0  0  0  0  0  0  0  0  0
  124.9106  122.0746   57.0580 H   0  0  0  0  0  0  0  0  0  0  0  0
  126.0090  123.2707   56.2902 H   0  0  0  0  0  0  0  0  0  0  0  0
  126.4393  121.5267   56.2902 H   0  0  0  0  0  0  0  0  0  0  0  0
  128.0960  125.6460   65.9511 H   0  0  0  0  0  0  0  0  0  0  0  0
  128.7889  126.9514   67.9412 H   0  0  0  0  0  0  0  0  0  0  0  0
  130.4219  127.9227   70.4901 H   0  0  0  0  0  0  0  0  0  0  0  0
  129.8981  129.0999   69.2386 H   0  0  0  0  0  0  0  0  0  0  0  0
  129.2304  127.4323   69.2386 H   0  0  0  0  0  0  0  0  0  0  0  0
  132.9183  126.6402   66.7109 H   0  0  0  0  0  0  0  0  0  0  0  0
  132.2234  125.3308   64.7211 H   0  0  0  0  0  0  0  0  0  0  0  0
  131.3262  123.1850   64.1074 H   0  0  0  0  0  0  0  0  0  0  0  0
  132.5310  122.7682   61.4042 H   0  0  0  0  0  0  0  0  0  0  0  0
  133.8430  120.7909   60.6616 H   0  0  0  0  0  0  0  0  0  0  0  0
  135.0992  118.8338   60.6499 H   0  0  0  0  0  0  0  0  0  0  0  0
  134.5074  117.7593   59.3377 H   0  0  0  0  0  0  0  0  0  0  0  0
  134.0704  119.5017   59.3377 H   0  0  0  0  0  0  0  0  0  0  0  0
  130.5654  118.2001   61.7770 H   0  0  0  0  0  0  0  0  0  0  0  0
  129.2536  120.1818   62.5108 H   0  0  0  0  0  0  0  0  0  0  0  0
  129.0980  120.8760   60.3130 H   0  0  0  0  0  0  0  0  0  0  0  0
  128.4500  121.5510   58.8680 H   0  0  0  0  0  0  0  0  0  0  0  0
  1  2  1  0
  2  3  1  0
  3  4  2  0
  3  5  1  0
  5  6  1  0
  6  7  1  0
  7  8  2  0
  8  9  1  0
  9 10  1  0
 10 11  2  0
 11 12  1  0
 12 13  2  0
 13 14  1  0
 14 15  1  0
 13 16  1  0
 16 17  2  0
  9 18  2  0
 18 19  1  0
 19 20  1  0
 20 21  2  0
 21 22  1  0
 22 23  2  0
 23 24  1  0
 24 25  1  0
 23 26  1  0
 26 27  2  0
 19 28  2  0
 28 29  1  0
 29 30  1  0
 29  5  2  0
 28  7  1  0
 17 10  1  0
 27 20  1  0
  1 31  1  0
  1 32  1  0
  1 33  1  0
 11 34  1  0
 12 35  1  0
 15 36  1  0
 15 37  1  0
 15 38  1  0
 16 39  1  0
 17 40  1  0
 18 41  1  0
 21 42  1  0
 22 43  1  0
 25 44  1  0
 25 45  1  0
 25 46  1  0
 26 47  1  0
 27 48  1  0
 30 49  1  0
 30 50  1  0
M  END
>  <Binding energies>  (1) 
[-6.85]

>  <Ligand effiencies>  (1) 
[-0.2140625]

>  <Interactions>  (1) 
["V-B:PRO:540:CB:9857, V-A:ILE:369:CG2:3236, V-B:PRO:540:N:9856, V-B:TYR:539:CD2:9846, V-B:PRO:540:CA:9855, V-A:PRO:482:CG:4326, V-B:PRO:540:C:9853, V-B:MET:535:CE:9807, V-A:LEU:475:CD1:4257, V-A:SER:385:CB:3408, V-B:ALA:541:CA:9862, V-A:SER:385:CA:3406, V-A:SER:385:C:3404, V-B:TYR:539:C:9839, V-B:ALA:541:CB:9864, V-B:GLU:543:CD:9880, V-B:GLU:543:CB:9878, V-A:GLU:543:CB:4906, V-A:HIS:456:CE1:4069, V-A:GLU:543:C:4902, V-B:GLU:543:CG:9879, V-A:GLU:543:CD:4908, H-A:HIS:456:ND1:4066, V-A:HIS:383:CD2:3391, V-B:PRO:540:CD:9859, V-B:LEU:363:CD1:8160, H-B:TYR:539:O:9840, H-A:HIS:383:NE2:3393, H-A:SER:385:OG:3409"]

$$$$
9a_Ghoteimi_2023
     RDKit          3D

 85 91  0  0  0  0  0  0  0  0999 V2000
  129.7510  133.6200   72.5900 C   0  0  0  0  0  0  0  0  0  0  0  0
  130.4190  132.6750   73.5930 C   0  0  0  0  0  0  0  0  0  0  0  0
  129.5200  132.4060   74.6630 O   0  0  0  0  0  0  0  0  0  0  0  0
  128.7520  131.2870   74.6680 C   0  0  0  0  0  0  0  0  0  0  0  0
  128.0870  130.9230   75.6440 O   0  0  0  0  0  0  0  0  0  0  0  0
  128.7950  130.5300   73.3720 C   0  0  0  0  0  0  0  0  0  0  0  0
  129.5450  129.3500   73.2930 C   0  0  0  0  0  0  0  0  0  0  0  0
  129.6070  128.6270   72.1050 C   0  0  0  0  0  0  0  0  0  0  0  0
  128.9200  129.0650   70.9730 C   0  0  0  0  0  0  0  0  0  0  0  0
  129.0540  128.2550   69.8290 N   0  0  0  0  0  0  0  0  0  0  0  0
  128.6420  126.9840   69.6000 C   0  0  0  0  0  0  0  0  0  0  0  0
  128.0390  126.2930   70.4210 O   0  0  0  0  0  0  0  0  0  0  0  0
  128.9560  126.4550   68.2690 C   0  0  0  0  0  0  0  0  0  0  0  0
  129.9830  125.0310   68.0960 S   0  0  0  0  0  0  0  0  0  0  0  0
  129.8360  125.0810   66.3550 C   0  0  0  0  0  0  0  0  0  0  0  0
  130.4230  124.1710   65.5780 N   0  0  0  0  0  0  0  0  0  0  0  0
  130.2360  124.2920   64.2370 C   0  0  0  0  0  0  0  0  0  0  0  0
  130.8950  123.2550   63.3860 C   0  0  0  0  0  0  0  0  0  0  0  0
  130.4550  121.9270   63.4170 C   0  0  0  0  0  0  0  0  0  0  0  0
  131.0620  120.9540   62.6270 C   0  0  0  0  0  0  0  0  0  0  0  0
  132.1230  121.2760   61.7650 C   0  0  0  0  0  0  0  0  0  0  0  0
  132.7540  120.3070   60.9800 N   0  0  0  0  0  0  0  0  0  0  0  0
  132.2320  119.9300   59.6500 C   0  0  0  0  0  0  0  0  0  0  0  0
  132.8260  118.6170   59.0980 C   0  0  0  0  0  0  0  0  0  0  0  0
  134.2420  118.6900   59.0870 O   0  0  0  0  0  0  0  0  0  0  0  0
  134.7620  118.8880   60.3920 C   0  0  0  0  0  0  0  0  0  0  0  0
  134.2290  120.2110   60.9770 C   0  0  0  0  0  0  0  0  0  0  0  0
  132.5680  122.6060   61.7490 C   0  0  0  0  0  0  0  0  0  0  0  0
  131.9630  123.5770   62.5410 C   0  0  0  0  0  0  0  0  0  0  0  0
  129.4910  125.3340   63.6790 C   0  0  0  0  0  0  0  0  0  0  0  0
  128.8900  126.3020   64.4900 C   0  0  0  0  0  0  0  0  0  0  0  0
  128.1400  127.4090   63.8430 C   0  0  0  0  0  0  0  0  0  0  0  0
  128.3230  128.7310   64.2570 C   0  0  0  0  0  0  0  0  0  0  0  0
  127.6290  129.7670   63.6400 C   0  0  0  0  0  0  0  0  0  0  0  0
  126.7450  129.5120   62.5790 C   0  0  0  0  0  0  0  0  0  0  0  0
  126.0290  130.5350   61.9520 N   0  0  0  0  0  0  0  0  0  0  0  0
  125.6370  131.7230   62.7360 C   0  0  0  0  0  0  0  0  0  0  0  0
  125.2030  132.9170   61.8590 C   0  0  0  0  0  0  0  0  0  0  0  0
  124.1600  132.5210   60.9820 O   0  0  0  0  0  0  0  0  0  0  0  0
  124.5690  131.4720   60.1190 C   0  0  0  0  0  0  0  0  0  0  0  0
  124.9860  130.2390   60.9500 C   0  0  0  0  0  0  0  0  0  0  0  0
  126.5710  128.1820   62.1700 C   0  0  0  0  0  0  0  0  0  0  0  0
  127.2620  127.1450   62.7900 C   0  0  0  0  0  0  0  0  0  0  0  0
  129.0420  126.1740   65.9000 C   0  0  0  0  0  0  0  0  0  0  0  0
  128.5320  126.9290   67.0180 C   0  0  0  0  0  0  0  0  0  0  0  0
  127.6960  128.0050   66.8610 N   0  0  0  0  0  0  0  0  0  0  0  0
  128.1630  130.2460   71.0440 C   0  0  0  0  0  0  0  0  0  0  0  0
  128.1030  130.9680   72.2320 C   0  0  0  0  0  0  0  0  0  0  0  0
  129.1990  134.4009   73.1336 H   0  0  0  0  0  0  0  0  0  0  0  0
  130.5205  134.0874   71.9580 H   0  0  0  0  0  0  0  0  0  0  0  0
  129.0537  133.0505   71.9580 H   0  0  0  0  0  0  0  0  0  0  0  0
  130.6824  131.7330   73.0898 H   0  0  0  0  0  0  0  0  0  0  0  0
  131.3304  133.1462   73.9897 H   0  0  0  0  0  0  0  0  0  0  0  0
  130.0904  128.9910   74.1782 H   0  0  0  0  0  0  0  0  0  0  0  0
  130.2024  127.7032   72.0587 H   0  0  0  0  0  0  0  0  0  0  0  0
  129.5330  128.7050   69.0630 H   0  0  0  0  0  0  0  0  0  0  0  0
  129.6183  121.6479   64.0743 H   0  0  0  0  0  0  0  0  0  0  0  0
  130.7042  119.9151   62.6790 H   0  0  0  0  0  0  0  0  0  0  0  0
  131.1410  119.8122   59.7261 H   0  0  0  0  0  0  0  0  0  0  0  0
  132.5210  120.7306   58.9533 H   0  0  0  0  0  0  0  0  0  0  0  0
  132.5098  117.7782   59.7355 H   0  0  0  0  0  0  0  0  0  0  0  0
  132.4653  118.4625   58.0704 H   0  0  0  0  0  0  0  0  0  0  0  0
  134.4524  118.0532   61.0380 H   0  0  0  0  0  0  0  0  0  0  0  0
  135.8599  118.9325   60.3402 H   0  0  0  0  0  0  0  0  0  0  0  0
  134.5851  120.3008   62.0139 H   0  0  0  0  0  0  0  0  0  0  0  0
  134.6029  121.0211   60.3336 H   0  0  0  0  0  0  0  0  0  0  0  0
  133.4100  122.8864   61.0990 H   0  0  0  0  0  0  0  0  0  0  0  0
  132.3297  124.6133   62.5023 H   0  0  0  0  0  0  0  0  0  0  0  0
  129.3756  125.3938   62.5867 H   0  0  0  0  0  0  0  0  0  0  0  0
  129.0212  128.9543   65.0771 H   0  0  0  0  0  0  0  0  0  0  0  0
  127.7747  130.8002   63.9881 H   0  0  0  0  0  0  0  0  0  0  0  0
  124.7974  131.4476   63.3912 H   0  0  0  0  0  0  0  0  0  0  0  0
  126.5209  132.0426   63.3074 H   0  0  0  0  0  0  0  0  0  0  0  0
  124.8459  133.7326   62.5049 H   0  0  0  0  0  0  0  0  0  0  0  0
  126.0630  133.2606   61.2654 H   0  0  0  0  0  0  0  0  0  0  0  0
  123.7349  131.1995   59.4557 H   0  0  0  0  0  0  0  0  0  0  0  0
  125.4264  131.8107   59.5189 H   0  0  0  0  0  0  0  0  0  0  0  0
  124.0983  129.8544   61.4734 H   0  0  0  0  0  0  0  0  0  0  0  0
  125.4067  129.5019   60.2502 H   0  0  0  0  0  0  0  0  0  0  0  0
  125.8778  127.9548   61.3466 H   0  0  0  0  0  0  0  0  0  0  0  0
  127.1153  126.1099   62.4479 H   0  0  0  0  0  0  0  0  0  0  0  0
  126.8680  127.9570   66.2830 H   0  0  0  0  0  0  0  0  0  0  0  0
  127.8800  128.8860   67.3210 H   0  0  0  0  0  0  0  0  0  0  0  0
  127.6161  130.6011   70.1581 H   0  0  0  0  0  0  0  0  0  0  0  0
  127.5072  131.8915   72.2782 H   0  0  0  0  0  0  0  0  0  0  0  0
  1  2  1  0
  2  3  1  0
  3  4  1  0
  4  5  2  0
  4  6  1  0
  6  7  2  0
  7  8  1  0
  8  9  2  0
  9 10  1  0
 10 11  1  0
 11 12  2  0
 11 13  1  0
 13 14  1  0
 14 15  1  0
 15 16  2  0
 16 17  1  0
 17 18  1  0
 18 19  2  0
 19 20  1  0
 20 21  2  0
 21 22  1  0
 22 23  1  0
 23 24  1  0
 24 25  1  0
 25 26  1  0
 26 27  1  0
 21 28  1  0
 28 29  2  0
 17 30  2  0
 30 31  1  0
 31 32  1  0
 32 33  2  0
 33 34  1  0
 34 35  2  0
 35 36  1  0
 36 37  1  0
 37 38  1  0
 38 39  1  0
 39 40  1  0
 40 41  1  0
 35 42  1  0
 42 43  2  0
 31 44  2  0
 44 45  1  0
 45 46  1  0
  9 47  1  0
 47 48  2  0
 48  6  1  0
 45 13  2  0
 44 15  1  0
 29 18  1  0
 43 32  1  0
 27 22  1  0
 41 36  1  0
  1 49  1  0
  1 50  1  0
  1 51  1  0
  2 52  1  0
  2 53  1  0
  7 54  1  0
  8 55  1  0
 10 56  1  0
 19 57  1  0
 20 58  1  0
 23 59  1  0
 23 60  1  0
 24 61  1  0
 24 62  1  0
 26 63  1  0
 26 64  1  0
 27 65  1  0
 27 66  1  0
 28 67  1  0
 29 68  1  0
 30 69  1  0
 33 70  1  0
 34 71  1  0
 37 72  1  0
 37 73  1  0
 38 74  1  0
 38 75  1  0
 40 76  1  0
 40 77  1  0
 41 78  1  0
 41 79  1  0
 42 80  1  0
 43 81  1  0
 46 82  1  0
 46 83  1  0
 47 84  1  0
 48 85  1  0
M  END
>  <Binding energies>  (1) 
[-4.57]

>  <Ligand effiencies>  (1) 
[-0.08960784313725491]

>  <Interactions>  (1) 
["V-A:ILE:369:CG2:3236, V-B:TYR:539:CE2:9848, V-B:TYR:539:CD2:9846, V-A:LEU:475:CD1:4257, V-A:SER:385:CB:3408, V-A:SER:385:CA:3406, V-A:SER:385:C:3404, V-B:ALA:541:CB:9864, V-B:GLU:543:CD:9880, V-B:GLU:543:CB:9878, V-A:HIS:456:CE1:4069, V-B:HIS:456:CE1:9041, H-A:TYR:484:OH:4347, V-A:GLU:543:C:4902, H-A:GLU:543:OE1:4909, V-B:TYR:484:CE2:9317, V-B:GLU:543:CG:9879, V-A:GLU:543:CD:4908, V-A:GLU:543:CG:4907, H-B:GLU:543:OE2:9882, V-A:ILE:369:CD1:3238, V-B:HIS:456:CD2:9039, V-A:TYR:484:CE2:4345, V-B:TYR:484:CB:9312, V-B:TYR:484:CD2:9315, V-B:TYR:484:CG:9313, V-A:LYS:547:CE:4950, V-A:GLY:544:CA:4914, V-B:HIS:456:CG:9037, V-A:TYR:484:CZ:4346, V-A:TYR:539:CE1:4875, V-B:ASP:366:CG:8184, V-B:ILE:369:CG2:8208, V-A:HIS:383:CD2:3391, V-B:LEU:475:CD1:9229, H-A:HIS:383:NE2:3393, H-A:GLU:543:O:4903, H-A:LYS:547:NZ:4951, V-B:TYR:484:CA:9310"]

$$$$
9b_Ghoteimi_2023
     RDKit          3D

 72 78  0  0  0  0  0  0  0  0999 V2000
  129.2420  124.3680   61.1770 N   0  0  0  0  0  0  0  0  0  0  0  0
  129.4570  123.9380   62.4620 C   0  0  0  0  0  0  0  0  0  0  0  0
  129.7300  122.6020   62.7950 C   0  0  0  0  0  0  0  0  0  0  0  0
  129.8650  121.4480   61.9030 C   0  0  0  0  0  0  0  0  0  0  0  0
  129.0530  121.2570   60.9950 O   0  0  0  0  0  0  0  0  0  0  0  0
  130.9180  120.6330   62.1590 N   0  0  0  0  0  0  0  0  0  0  0  0
  131.2740  119.4710   61.4850 C   0  0  0  0  0  0  0  0  0  0  0  0
  130.3540  118.4900   61.1210 C   0  0  0  0  0  0  0  0  0  0  0  0
  131.0950  117.5230   60.4820 C   0  0  0  0  0  0  0  0  0  0  0  0
  132.3950  117.9040   60.4630 O   0  0  0  0  0  0  0  0  0  0  0  0
  132.4960  119.1390   61.1020 N   0  0  0  0  0  0  0  0  0  0  0  0
  129.9200  122.4050   64.5370 S   0  0  0  0  0  0  0  0  0  0  0  0
  129.6150  124.1040   64.8080 C   0  0  0  0  0  0  0  0  0  0  0  0
  129.5920  124.6220   66.0350 N   0  0  0  0  0  0  0  0  0  0  0  0
  129.3280  125.9510   66.1380 C   0  0  0  0  0  0  0  0  0  0  0  0
  129.2870  126.5030   67.5270 C   0  0  0  0  0  0  0  0  0  0  0  0
  128.9680  125.6890   68.6200 C   0  0  0  0  0  0  0  0  0  0  0  0
  128.9180  126.2110   69.9090 C   0  0  0  0  0  0  0  0  0  0  0  0
  129.1710  127.5700   70.1500 C   0  0  0  0  0  0  0  0  0  0  0  0
  129.1270  128.1090   71.4410 N   0  0  0  0  0  0  0  0  0  0  0  0
  128.7680  129.5230   71.6730 C   0  0  0  0  0  0  0  0  0  0  0  0
  128.4340  129.8480   73.1430 C   0  0  0  0  0  0  0  0  0  0  0  0
  129.5070  129.4530   73.9830 O   0  0  0  0  0  0  0  0  0  0  0  0
  129.7500  128.0590   73.8950 C   0  0  0  0  0  0  0  0  0  0  0  0
  130.1210  127.6750   72.4460 C   0  0  0  0  0  0  0  0  0  0  0  0
  129.5100  128.3760   69.0540 C   0  0  0  0  0  0  0  0  0  0  0  0
  129.5640  127.8530   67.7660 C   0  0  0  0  0  0  0  0  0  0  0  0
  129.1150  126.7590   65.0190 C   0  0  0  0  0  0  0  0  0  0  0  0
  129.1580  126.2230   63.7270 C   0  0  0  0  0  0  0  0  0  0  0  0
  128.9550  127.1300   62.5680 C   0  0  0  0  0  0  0  0  0  0  0  0
  130.0250  127.8570   62.0470 C   0  0  0  0  0  0  0  0  0  0  0  0
  129.8430  128.6930   60.9500 C   0  0  0  0  0  0  0  0  0  0  0  0
  128.5830  128.8250   60.3440 C   0  0  0  0  0  0  0  0  0  0  0  0
  128.3800  129.6470   59.2320 N   0  0  0  0  0  0  0  0  0  0  0  0
  129.3720  130.6940   58.9180 C   0  0  0  0  0  0  0  0  0  0  0  0
  128.8390  131.7600   57.9370 C   0  0  0  0  0  0  0  0  0  0  0  0
  128.3720  131.1380   56.7490 O   0  0  0  0  0  0  0  0  0  0  0  0
  127.3220  130.2200   57.0140 C   0  0  0  0  0  0  0  0  0  0  0  0
  127.8130  129.1170   57.9760 C   0  0  0  0  0  0  0  0  0  0  0  0
  127.5190  128.0750   60.8660 C   0  0  0  0  0  0  0  0  0  0  0  0
  127.7020  127.2390   61.9630 C   0  0  0  0  0  0  0  0  0  0  0  0
  129.3990  124.8260   63.5970 C   0  0  0  0  0  0  0  0  0  0  0  0
  129.2780  125.3480   60.9300 H   0  0  0  0  0  0  0  0  0  0  0  0
  129.0400  123.7170   60.4310 H   0  0  0  0  0  0  0  0  0  0  0  0
  131.5230  120.8920   62.9250 H   0  0  0  0  0  0  0  0  0  0  0  0
  129.2695  118.4889   61.3048 H   0  0  0  0  0  0  0  0  0  0  0  0
  130.6963  116.5908   60.0553 H   0  0  0  0  0  0  0  0  0  0  0  0
  128.7539  124.6223   68.4579 H   0  0  0  0  0  0  0  0  0  0  0  0
  128.6763  125.5476   70.7525 H   0  0  0  0  0  0  0  0  0  0  0  0
  129.6160  130.1513   71.3631 H   0  0  0  0  0  0  0  0  0  0  0  0
  127.8591  129.7228   71.0866 H   0  0  0  0  0  0  0  0  0  0  0  0
  128.2683  130.9304   73.2482 H   0  0  0  0  0  0  0  0  0  0  0  0
  127.5256  129.3014   73.4363 H   0  0  0  0  0  0  0  0  0  0  0  0
  130.5795  127.7913   74.5660 H   0  0  0  0  0  0  0  0  0  0  0  0
  128.8399  127.5158   74.1894 H   0  0  0  0  0  0  0  0  0  0  0  0
  131.0876  128.1392   72.2008 H   0  0  0  0  0  0  0  0  0  0  0  0
  130.1594  126.5764   72.4053 H   0  0  0  0  0  0  0  0  0  0  0  0
  129.7372  129.4401   69.2153 H   0  0  0  0  0  0  0  0  0  0  0  0
  129.8281  128.5100   66.9242 H   0  0  0  0  0  0  0  0  0  0  0  0
  128.9107  127.8313   65.1550 H   0  0  0  0  0  0  0  0  0  0  0  0
  131.0203  127.7688   62.5069 H   0  0  0  0  0  0  0  0  0  0  0  0
  130.6982  129.2587   60.5516 H   0  0  0  0  0  0  0  0  0  0  0  0
  129.6616  131.1937   59.8542 H   0  0  0  0  0  0  0  0  0  0  0  0
  130.2267  130.2003   58.4325 H   0  0  0  0  0  0  0  0  0  0  0  0
  128.0114  132.3088   58.4101 H   0  0  0  0  0  0  0  0  0  0  0  0
  129.6524  132.4559   57.6839 H   0  0  0  0  0  0  0  0  0  0  0  0
  126.4782  130.7551   57.4741 H   0  0  0  0  0  0  0  0  0  0  0  0
  127.0008  129.7573   56.0691 H   0  0  0  0  0  0  0  0  0  0  0  0
  126.9617  128.4663   58.2246 H   0  0  0  0  0  0  0  0  0  0  0  0
  128.6166  128.5700   57.4612 H   0  0  0  0  0  0  0  0  0  0  0  0
  126.5248  128.1488   60.4011 H   0  0  0  0  0  0  0  0  0  0  0  0
  126.8534  126.6600   62.3562 H   0  0  0  0  0  0  0  0  0  0  0  0
  1  2  1  0
  2  3  2  0
  3  4  1  0
  4  5  2  0
  4  6  1  0
  6  7  1  0
  7  8  1  0
  8  9  2  0
  9 10  1  0
 10 11  1  0
  3 12  1  0
 12 13  1  0
 13 14  2  0
 14 15  1  0
 15 16  1  0
 16 17  2  0
 17 18  1  0
 18 19  2  0
 19 20  1  0
 20 21  1  0
 21 22  1  0
 22 23  1  0
 23 24  1  0
 24 25  1  0
 19 26  1  0
 26 27  2  0
 15 28  2  0
 28 29  1  0
 29 30  1  0
 30 31  2  0
 31 32  1  0
 32 33  2  0
 33 34  1  0
 34 35  1  0
 35 36  1  0
 36 37  1  0
 37 38  1  0
 38 39  1  0
 33 40  1  0
 40 41  2  0
 29 42  2  0
 42  2  1  0
 11  7  2  0
 42 13  1  0
 27 16  1  0
 41 30  1  0
 25 20  1  0
 39 34  1  0
  1 43  1  0
  1 44  1  0
  6 45  1  0
  8 46  1  0
  9 47  1  0
 17 48  1  0
 18 49  1  0
 21 50  1  0
 21 51  1  0
 22 52  1  0
 22 53  1  0
 24 54  1  0
 24 55  1  0
 25 56  1  0
 25 57  1  0
 26 58  1  0
 27 59  1  0
 28 60  1  0
 31 61  1  0
 32 62  1  0
 35 63  1  0
 35 64  1  0
 36 65  1  0
 36 66  1  0
 38 67  1  0
 38 68  1  0
 39 69  1  0
 39 70  1  0
 40 71  1  0
 41 72  1  0
M  END
>  <Binding energies>  (1) 
[-8.38]

>  <Ligand effiencies>  (1) 
[-0.18622222222222223]

>  <Interactions>  (1) 
["V-A:PRO:482:CG:4326, V-A:PRO:482:CB:4325, V-A:LEU:475:CD1:4257, H-B:ALA:541:N:9863, V-B:ALA:541:CB:9864, V-B:GLU:543:CD:9880, V-B:GLU:543:CB:9878, V-A:GLU:543:CB:4906, V-A:HIS:456:CE1:4069, V-B:HIS:456:CE1:9041, V-A:HIS:383:CE1:3392, H-A:TYR:484:OH:4347, V-A:GLU:543:C:4902, V-B:GLU:543:CG:9879, V-A:GLU:543:CD:4908, V-A:GLU:543:CG:4907, V-B:GLU:543:C:9874, V-B:HIS:456:CD2:9039, V-A:TYR:484:CE2:4345, V-A:LYS:547:CE:4950, V-B:GLU:543:CA:9876, V-A:TYR:539:CE1:4875, V-A:TYR:539:C:4867, V-A:TYR:539:CD1:4873, V-A:TYR:539:CZ:4877, H-A:HIS:383:NE2:3393, H-A:SER:385:OG:3409, H-A:LYS:547:NZ:4951"]

$$$$
9c_Ghoteimi_2023
     RDKit          3D

 72 78  0  0  0  0  0  0  0  0999 V2000
  128.2840  128.6040   67.1140 N   0  0  0  0  0  0  0  0  0  0  0  0
  128.7880  127.3330   67.2190 C   0  0  0  0  0  0  0  0  0  0  0  0
  129.1380  126.7390   68.4410 C   0  0  0  0  0  0  0  0  0  0  0  0
  129.0330  127.2980   69.7920 C   0  0  0  0  0  0  0  0  0  0  0  0
  129.1150  128.5140   69.9800 O   0  0  0  0  0  0  0  0  0  0  0  0
  128.8510  126.3920   70.7840 N   0  0  0  0  0  0  0  0  0  0  0  0
  128.7360  126.6540   72.1430 C   0  0  0  0  0  0  0  0  0  0  0  0
  127.8920  126.1210   73.0000 N   0  0  0  0  0  0  0  0  0  0  0  0
  128.0620  126.6090   74.2140 C   0  0  0  0  0  0  0  0  0  0  0  0
  129.0660  127.5630   74.3590 C   0  0  0  0  0  0  0  0  0  0  0  0
  129.8220  127.8270   72.8160 S   0  0  0  0  0  0  0  0  0  0  0  0
  129.7770  125.1130   68.2000 S   0  0  0  0  0  0  0  0  0  0  0  0
  129.5880  125.2460   66.4680 C   0  0  0  0  0  0  0  0  0  0  0  0
  129.9520  124.2610   65.6490 N   0  0  0  0  0  0  0  0  0  0  0  0
  129.7790  124.4720   64.3180 C   0  0  0  0  0  0  0  0  0  0  0  0
  130.2150  123.3600   63.4200 C   0  0  0  0  0  0  0  0  0  0  0  0
  131.5320  122.8850   63.4400 C   0  0  0  0  0  0  0  0  0  0  0  0
  131.9360  121.8560   62.5960 C   0  0  0  0  0  0  0  0  0  0  0  0
  131.0380  121.2700   61.6880 C   0  0  0  0  0  0  0  0  0  0  0  0
  131.4260  120.2290   60.8370 N   0  0  0  0  0  0  0  0  0  0  0  0
  130.7860  118.8990   60.9070 C   0  0  0  0  0  0  0  0  0  0  0  0
  131.0820  118.0000   59.6880 C   0  0  0  0  0  0  0  0  0  0  0  0
  132.4830  117.8790   59.5040 O   0  0  0  0  0  0  0  0  0  0  0  0
  133.0860  119.1410   59.2660 C   0  0  0  0  0  0  0  0  0  0  0  0
  132.8500  120.0790   60.4690 C   0  0  0  0  0  0  0  0  0  0  0  0
  129.7160  121.7360   61.6850 C   0  0  0  0  0  0  0  0  0  0  0  0
  129.3120  122.7640   62.5330 C   0  0  0  0  0  0  0  0  0  0  0  0
  129.2200  125.6490   63.8140 C   0  0  0  0  0  0  0  0  0  0  0  0
  128.8170  126.6770   64.6730 C   0  0  0  0  0  0  0  0  0  0  0  0
  128.2000  127.8950   64.0920 C   0  0  0  0  0  0  0  0  0  0  0  0
  128.7990  128.5410   63.0100 C   0  0  0  0  0  0  0  0  0  0  0  0
  128.2150  129.6740   62.4510 C   0  0  0  0  0  0  0  0  0  0  0  0
  127.0140  130.1930   62.9610 C   0  0  0  0  0  0  0  0  0  0  0  0
  126.4030  131.3220   62.4080 N   0  0  0  0  0  0  0  0  0  0  0  0
  127.1200  132.0950   61.3740 C   0  0  0  0  0  0  0  0  0  0  0  0
  126.5240  133.5000   61.1420 C   0  0  0  0  0  0  0  0  0  0  0  0
  125.1440  133.3970   60.8260 O   0  0  0  0  0  0  0  0  0  0  0  0
  124.4120  132.7760   61.8710 C   0  0  0  0  0  0  0  0  0  0  0  0
  124.9550  131.3530   62.1270 C   0  0  0  0  0  0  0  0  0  0  0  0
  126.4100  129.5230   64.0350 C   0  0  0  0  0  0  0  0  0  0  0  0
  126.9950  128.3900   64.5940 C   0  0  0  0  0  0  0  0  0  0  0  0
  129.0210  126.4930   66.0710 C   0  0  0  0  0  0  0  0  0  0  0  0
  127.5360  128.9330   67.7090 H   0  0  0  0  0  0  0  0  0  0  0  0
  128.6450  129.2580   66.4340 H   0  0  0  0  0  0  0  0  0  0  0  0
  128.7880  125.4200   70.5190 H   0  0  0  0  0  0  0  0  0  0  0  0
  127.4454  126.2807   75.0637 H   0  0  0  0  0  0  0  0  0  0  0  0
  129.3369  128.0679   75.2980 H   0  0  0  0  0  0  0  0  0  0  0  0
  132.2585  123.3327   64.1341 H   0  0  0  0  0  0  0  0  0  0  0  0
  132.9743  121.4955   62.6400 H   0  0  0  0  0  0  0  0  0  0  0  0
  131.1476  118.3873   61.8111 H   0  0  0  0  0  0  0  0  0  0  0  0
  129.6991  119.0672   60.9244 H   0  0  0  0  0  0  0  0  0  0  0  0
  130.6492  117.0029   59.8569 H   0  0  0  0  0  0  0  0  0  0  0  0
  130.6372  118.4520   58.7892 H   0  0  0  0  0  0  0  0  0  0  0  0
  134.1674  119.0050   59.1178 H   0  0  0  0  0  0  0  0  0  0  0  0
  132.6377  119.5896   58.3673 H   0  0  0  0  0  0  0  0  0  0  0  0
  133.3918  119.6739   61.3364 H   0  0  0  0  0  0  0  0  0  0  0  0
  133.2120  121.0752   60.1749 H   0  0  0  0  0  0  0  0  0  0  0  0
  128.9846  121.2815   61.0005 H   0  0  0  0  0  0  0  0  0  0  0  0
  128.2689  123.1121   62.5051 H   0  0  0  0  0  0  0  0  0  0  0  0
  129.0951  125.7690   62.7277 H   0  0  0  0  0  0  0  0  0  0  0  0
  129.7405  128.1516   62.5954 H   0  0  0  0  0  0  0  0  0  0  0  0
  128.7010  130.1698   61.5978 H   0  0  0  0  0  0  0  0  0  0  0  0
  128.1688  132.2074   61.6861 H   0  0  0  0  0  0  0  0  0  0  0  0
  127.0272  131.5405   60.4285 H   0  0  0  0  0  0  0  0  0  0  0  0
  126.6445  134.1019   62.0548 H   0  0  0  0  0  0  0  0  0  0  0  0
  127.0507  133.9814   60.3048 H   0  0  0  0  0  0  0  0  0  0  0  0
  124.5107  133.3736   62.7892 H   0  0  0  0  0  0  0  0  0  0  0  0
  123.3535  132.7101   61.5790 H   0  0  0  0  0  0  0  0  0  0  0  0
  124.4228  130.9264   62.9900 H   0  0  0  0  0  0  0  0  0  0  0  0
  124.7892  130.7712   61.2083 H   0  0  0  0  0  0  0  0  0  0  0  0
  125.4595  129.8985   64.4419 H   0  0  0  0  0  0  0  0  0  0  0  0
  126.5044  127.8814   65.4370 H   0  0  0  0  0  0  0  0  0  0  0  0
  1  2  1  0
  2  3  2  0
  3  4  1  0
  4  5  2  0
  4  6  1  0
  6  7  1  0
  7  8  2  0
  8  9  1  0
  9 10  2  0
 10 11  1  0
  3 12  1  0
 12 13  1  0
 13 14  2  0
 14 15  1  0
 15 16  1  0
 16 17  2  0
 17 18  1  0
 18 19  2  0
 19 20  1  0
 20 21  1  0
 21 22  1  0
 22 23  1  0
 23 24  1  0
 24 25  1  0
 19 26  1  0
 26 27  2  0
 15 28  2  0
 28 29  1  0
 29 30  1  0
 30 31  2  0
 31 32  1  0
 32 33  2  0
 33 34  1  0
 34 35  1  0
 35 36  1  0
 36 37  1  0
 37 38  1  0
 38 39  1  0
 33 40  1  0
 40 41  2  0
 29 42  2  0
 42  2  1  0
 11  7  1  0
 42 13  1  0
 27 16  1  0
 41 30  1  0
 25 20  1  0
 39 34  1  0
  1 43  1  0
  1 44  1  0
  6 45  1  0
  9 46  1  0
 10 47  1  0
 17 48  1  0
 18 49  1  0
 21 50  1  0
 21 51  1  0
 22 52  1  0
 22 53  1  0
 24 54  1  0
 24 55  1  0
 25 56  1  0
 25 57  1  0
 26 58  1  0
 27 59  1  0
 28 60  1  0
 31 61  1  0
 32 62  1  0
 35 63  1  0
 35 64  1  0
 36 65  1  0
 36 66  1  0
 38 67  1  0
 38 68  1  0
 39 69  1  0
 39 70  1  0
 40 71  1  0
 41 72  1  0
M  END
>  <Binding energies>  (1) 
[-8.68]

>  <Ligand effiencies>  (1) 
[-0.1928888888888889]

>  <Interactions>  (1) 
["V-A:ILE:369:CG2:3236, V-B:TYR:539:CE2:9848, V-B:TYR:539:CD2:9846, V-A:PRO:482:CG:4326, V-A:LEU:475:CD1:4257, V-B:TYR:539:C:9839, V-B:ALA:541:CB:9864, V-B:GLU:543:CD:9880, V-B:GLU:543:CB:9878, V-A:GLU:543:CB:4906, H-B:TYR:484:OH:9319, V-A:HIS:456:CE1:4069, V-B:HIS:456:CE1:9041, H-A:TYR:484:OH:4347, H-A:GLU:543:OE1:4909, V-B:GLU:543:CG:9879, V-A:GLU:543:CD:4908, V-A:GLU:543:CG:4907, V-B:HIS:456:CD2:9039, V-A:TYR:484:CE2:4345, V-A:TYR:484:CZ:4346, V-B:ILE:369:CG2:8208, V-A:TYR:539:CD1:4873, V-B:TYR:539:CB:9843, V-A:HIS:383:CD2:3391, V-B:TYR:539:CG:9844, V-B:LEU:475:CD1:9229, H-A:HIS:383:NE2:3393, H-A:HIS:456:NE2:4070, V-B:ILE:369:CD1:8210, H-B:GLU:543:O:9875, H-B:HIS:456:NE2:9042"]

$$$$
9d_Ghoteimi_2023
     RDKit          3D

 68 73  0  0  0  0  0  0  0  0999 V2000
  124.5280  129.5020   65.4040 C   0  0  0  0  0  0  0  0  0  0  0  0
  125.1170  130.6630   64.8360 O   0  0  0  0  0  0  0  0  0  0  0  0
  126.4670  130.7900   64.7530 C   0  0  0  0  0  0  0  0  0  0  0  0
  127.0500  131.8640   64.5850 O   0  0  0  0  0  0  0  0  0  0  0  0
  127.1760  129.4980   64.8810 C   0  0  0  0  0  0  0  0  0  0  0  0
  127.4620  128.5080   63.4500 S   0  0  0  0  0  0  0  0  0  0  0  0
  128.2980  127.3040   64.4010 C   0  0  0  0  0  0  0  0  0  0  0  0
  128.8330  126.2200   63.8410 N   0  0  0  0  0  0  0  0  0  0  0  0
  129.4770  125.3530   64.6650 C   0  0  0  0  0  0  0  0  0  0  0  0
  130.0910  124.1570   64.0110 C   0  0  0  0  0  0  0  0  0  0  0  0
  129.3030  123.2690   63.2700 C   0  0  0  0  0  0  0  0  0  0  0  0
  129.8650  122.1520   62.6590 C   0  0  0  0  0  0  0  0  0  0  0  0
  131.2400  121.8870   62.7560 C   0  0  0  0  0  0  0  0  0  0  0  0
  131.8160  120.7590   62.1620 N   0  0  0  0  0  0  0  0  0  0  0  0
  130.9840  119.6990   61.5580 C   0  0  0  0  0  0  0  0  0  0  0  0
  131.7500  118.3910   61.2690 C   0  0  0  0  0  0  0  0  0  0  0  0
  132.8880  118.6620   60.4690 O   0  0  0  0  0  0  0  0  0  0  0  0
  133.7810  119.5510   61.1190 C   0  0  0  0  0  0  0  0  0  0  0  0
  133.0790  120.8960   61.4050 C   0  0  0  0  0  0  0  0  0  0  0  0
  132.0230  122.7720   63.5120 C   0  0  0  0  0  0  0  0  0  0  0  0
  131.4600  123.8880   64.1260 C   0  0  0  0  0  0  0  0  0  0  0  0
  129.5550  125.5540   66.0450 C   0  0  0  0  0  0  0  0  0  0  0  0
  128.9780  126.6810   66.6410 C   0  0  0  0  0  0  0  0  0  0  0  0
  129.0660  126.8330   68.1180 C   0  0  0  0  0  0  0  0  0  0  0  0
  129.8380  127.8490   68.6850 C   0  0  0  0  0  0  0  0  0  0  0  0
  129.9020  127.9980   70.0680 C   0  0  0  0  0  0  0  0  0  0  0  0
  129.1830  127.1450   70.9200 C   0  0  0  0  0  0  0  0  0  0  0  0
  129.2380  127.2680   72.3100 N   0  0  0  0  0  0  0  0  0  0  0  0
  128.9620  128.5810   72.9250 C   0  0  0  0  0  0  0  0  0  0  0  0
  128.6730  128.4950   74.4390 C   0  0  0  0  0  0  0  0  0  0  0  0
  129.7430  127.8390   75.1030 O   0  0  0  0  0  0  0  0  0  0  0  0
  129.9320  126.5190   74.6150 C   0  0  0  0  0  0  0  0  0  0  0  0
  130.2570  126.5580   73.1060 C   0  0  0  0  0  0  0  0  0  0  0  0
  128.4120  126.1270   70.3380 C   0  0  0  0  0  0  0  0  0  0  0  0
  128.3490  125.9780   68.9560 C   0  0  0  0  0  0  0  0  0  0  0  0
  128.3350  127.6230   65.7910 C   0  0  0  0  0  0  0  0  0  0  0  0
  127.7020  128.8940   66.0300 C   0  0  0  0  0  0  0  0  0  0  0  0
  127.6390  129.4730   67.2710 N   0  0  0  0  0  0  0  0  0  0  0  0
  124.5636  129.5721   66.5012 H   0  0  0  0  0  0  0  0  0  0  0  0
  123.4812  129.4237   65.0753 H   0  0  0  0  0  0  0  0  0  0  0  0
  125.0831  128.6110   65.0753 H   0  0  0  0  0  0  0  0  0  0  0  0
  128.2238  123.4566   63.1690 H   0  0  0  0  0  0  0  0  0  0  0  0
  129.2208  121.4652   62.0904 H   0  0  0  0  0  0  0  0  0  0  0  0
  130.1582  119.4715   62.2482 H   0  0  0  0  0  0  0  0  0  0  0  0
  130.6314  120.0830   60.5894 H   0  0  0  0  0  0  0  0  0  0  0  0
  132.0718  117.9399   62.2192 H   0  0  0  0  0  0  0  0  0  0  0  0
  131.0880  117.6963   60.7313 H   0  0  0  0  0  0  0  0  0  0  0  0
  134.1117  119.1045   62.0683 H   0  0  0  0  0  0  0  0  0  0  0  0
  134.6483  119.7300   60.4664 H   0  0  0  0  0  0  0  0  0  0  0  0
  133.7653  121.5290   61.9865 H   0  0  0  0  0  0  0  0  0  0  0  0
  132.8232  121.3383   60.4309 H   0  0  0  0  0  0  0  0  0  0  0  0
  133.1007  122.5811   63.6218 H   0  0  0  0  0  0  0  0  0  0  0  0
  132.0995  124.5671   64.7090 H   0  0  0  0  0  0  0  0  0  0  0  0
  130.0772  124.8163   66.6720 H   0  0  0  0  0  0  0  0  0  0  0  0
  130.3993  128.5362   68.0349 H   0  0  0  0  0  0  0  0  0  0  0  0
  130.5249  128.7956   70.4991 H   0  0  0  0  0  0  0  0  0  0  0  0
  129.8374  129.2294   72.7725 H   0  0  0  0  0  0  0  0  0  0  0  0
  128.0596  128.9846   72.4425 H   0  0  0  0  0  0  0  0  0  0  0  0
  128.5600  129.5106   74.8462 H   0  0  0  0  0  0  0  0  0  0  0  0
  127.7465  127.9235   74.5970 H   0  0  0  0  0  0  0  0  0  0  0  0
  130.7653  126.0462   75.1554 H   0  0  0  0  0  0  0  0  0  0  0  0
  129.0104  125.9394   74.7721 H   0  0  0  0  0  0  0  0  0  0  0  0
  131.2233  127.0656   72.9695 H   0  0  0  0  0  0  0  0  0  0  0  0
  130.2829  125.5174   72.7503 H   0  0  0  0  0  0  0  0  0  0  0  0
  127.8493  125.4368   70.9838 H   0  0  0  0  0  0  0  0  0  0  0  0
  127.7293  125.1802   68.5207 H   0  0  0  0  0  0  0  0  0  0  0  0
  128.3310  129.2840   67.9820 H   0  0  0  0  0  0  0  0  0  0  0  0
  126.8980  130.1150   67.5170 H   0  0  0  0  0  0  0  0  0  0  0  0
  1  2  1  0
  2  3  1  0
  3  4  2  0
  3  5  1  0
  5  6  1  0
  6  7  1  0
  7  8  2  0
  8  9  1  0
  9 10  1  0
 10 11  2  0
 11 12  1  0
 12 13  2  0
 13 14  1  0
 14 15  1  0
 15 16  1  0
 16 17  1  0
 17 18  1  0
 18 19  1  0
 13 20  1  0
 20 21  2  0
  9 22  2  0
 22 23  1  0
 23 24  1  0
 24 25  2  0
 25 26  1  0
 26 27  2  0
 27 28  1  0
 28 29  1  0
 29 30  1  0
 30 31  1  0
 31 32  1  0
 32 33  1  0
 27 34  1  0
 34 35  2  0
 23 36  2  0
 36 37  1  0
 37 38  1  0
 37  5  2  0
 36  7  1  0
 21 10  1  0
 35 24  1  0
 19 14  1  0
 33 28  1  0
  1 39  1  0
  1 40  1  0
  1 41  1  0
 11 42  1  0
 12 43  1  0
 15 44  1  0
 15 45  1  0
 16 46  1  0
 16 47  1  0
 18 48  1  0
 18 49  1  0
 19 50  1  0
 19 51  1  0
 20 52  1  0
 21 53  1  0
 22 54  1  0
 25 55  1  0
 26 56  1  0
 29 57  1  0
 29 58  1  0
 30 59  1  0
 30 60  1  0
 32 61  1  0
 32 62  1  0
 33 63  1  0
 33 64  1  0
 34 65  1  0
 35 66  1  0
 38 67  1  0
 38 68  1  0
M  END
>  <Binding energies>  (1) 
[-8.03]

>  <Ligand effiencies>  (1) 
[-0.20074999999999998]

>  <Interactions>  (1) 
["V-A:ILE:369:CG2:3236, V-A:PRO:482:CG:4326, V-A:LEU:475:CD1:4257, V-A:SER:385:CA:3406, V-A:SER:385:C:3404, V-B:ALA:541:CB:9864, V-B:GLU:543:CD:9880, V-B:GLU:543:CB:9878, V-A:GLU:543:CB:4906, H-B:TYR:484:OH:9319, V-A:HIS:456:CE1:4069, V-B:HIS:456:CE1:9041, V-B:ARG:545:CZ:9898, H-B:GLY:454:N:9021, V-B:TYR:484:CZ:9318, V-A:GLU:543:C:4902, H-A:GLU:543:OE1:4909, V-B:TYR:484:CE2:9317, V-B:GLU:543:CG:9879, V-A:GLU:543:CD:4908, V-A:GLU:543:CG:4907, V-B:GLU:543:C:9874, V-B:HIS:456:CD2:9039, V-B:GLU:543:CA:9876, V-A:HIS:456:CG:4065, V-A:HIS:456:CD2:4067, H-A:HIS:383:NE2:3393, H-A:SER:385:OG:3409, H-A:GLU:543:O:4903, H-A:LYS:547:NZ:4951"]

$$$$
RR10_Rahimova_2017
     RDKit          3D

 66 70  0  0  0  0  0  0  0  0999 V2000
  132.3770  126.1030   66.0600 C   0  0  0  0  0  0  0  0  0  0  0  0
  131.3900  126.1140   67.2400 C   0  0  1  0  0  0  0  0  0  0  0  0
  130.8520  127.5350   67.5270 C   0  0  0  0  0  0  0  0  0  0  0  0
  129.8900  127.5280   68.7370 C   0  0  0  0  0  0  0  0  0  0  0  0
  128.6940  126.5640   68.5290 C   0  0  1  0  0  0  0  0  0  0  0  0
  127.8040  127.0600   67.4700 N   0  0  0  0  0  0  0  0  0  0  0  0
  127.5450  128.3550   67.2120 C   0  0  0  0  0  0  0  0  0  0  0  0
  128.0600  129.2810   67.8420 O   0  0  0  0  0  0  0  0  0  0  0  0
  126.5420  128.6490   66.0770 C   0  0  1  0  0  0  0  0  0  0  0  0
  125.1950  129.1150   66.6890 C   0  0  0  0  0  0  0  0  0  0  0  0
  124.2160  129.4990   65.5540 C   0  0  0  0  0  0  0  0  0  0  0  0
  124.8340  130.5050   64.5550 C   0  0  0  0  0  0  0  0  0  0  0  0
  126.1510  130.0160   64.0640 N   0  0  0  0  0  0  0  0  0  0  0  0
  126.8110  130.9310   62.6980 S   0  0  0  0  0  0  0  0  0  0  0  0
  128.2620  131.0480   62.8860 O   0  0  0  0  0  0  0  0  0  0  0  0
  125.9890  132.1350   62.5230 O   0  0  0  0  0  0  0  0  0  0  0  0
  126.5590  129.8790   61.2680 C   0  0  0  0  0  0  0  0  0  0  0  0
  126.0920  130.4430   60.0770 C   0  0  0  0  0  0  0  0  0  0  0  0
  125.8730  129.6780   58.9270 C   0  0  0  0  0  0  0  0  0  0  0  0
  126.1480  128.3130   59.0250 C   0  0  0  0  0  0  0  0  0  0  0  0
  126.0600  127.2580   58.1480 N   0  0  0  0  0  0  0  0  0  0  0  0
  126.4700  126.1190   58.8100 C   0  0  0  0  0  0  0  0  0  0  0  0
  126.5040  124.7570   58.1780 C   0  0  0  0  0  0  0  0  0  0  0  0
  127.7220  124.0850   58.0050 C   0  0  0  0  0  0  0  0  0  0  0  0
  127.7540  122.8210   57.4220 C   0  0  0  0  0  0  0  0  0  0  0  0
  126.5670  122.2220   57.0080 C   0  0  0  0  0  0  0  0  0  0  0  0
  125.3500  122.8750   57.1730 C   0  0  0  0  0  0  0  0  0  0  0  0
  125.3190  124.1400   57.7560 C   0  0  0  0  0  0  0  0  0  0  0  0
  126.8220  126.3710   60.0510 N   0  0  0  0  0  0  0  0  0  0  0  0
  126.6320  127.7180   60.2150 C   0  0  0  0  0  0  0  0  0  0  0  0
  126.8440  128.5110   61.3520 C   0  0  0  0  0  0  0  0  0  0  0  0
  127.1250  129.7450   65.1520 C   0  0  0  0  0  0  0  0  0  0  0  0
  129.2500  125.1460   68.2240 C   0  0  0  0  0  0  0  0  0  0  0  0
  130.2060  125.1470   67.0100 C   0  0  0  0  0  0  0  0  0  0  0  0
  133.4077  126.0915   66.4442 H   0  0  0  0  0  0  0  0  0  0  0  0
  132.2045  125.2067   65.4460 H   0  0  0  0  0  0  0  0  0  0  0  0
  132.2245  127.0029   65.4460 H   0  0  0  0  0  0  0  0  0  0  0  0
  131.9574  125.7700   68.1173 H   0  0  0  0  0  0  0  0  0  0  0  0
  131.6984  128.2033   67.7439 H   0  0  0  0  0  0  0  0  0  0  0  0
  130.3008  127.8868   66.6425 H   0  0  0  0  0  0  0  0  0  0  0  0
  130.4478  127.2126   69.6311 H   0  0  0  0  0  0  0  0  0  0  0  0
  129.4875  128.5450   68.8541 H   0  0  0  0  0  0  0  0  0  0  0  0
  128.0830  126.5097   69.4421 H   0  0  0  0  0  0  0  0  0  0  0  0
  127.2650  126.3590   66.9830 H   0  0  0  0  0  0  0  0  0  0  0  0
  126.3659  127.7391   65.4844 H   0  0  0  0  0  0  0  0  0  0  0  0
  124.7619  128.2987   67.2858 H   0  0  0  0  0  0  0  0  0  0  0  0
  125.3690  129.9893   67.3335 H   0  0  0  0  0  0  0  0  0  0  0  0
  123.9341  128.5869   65.0075 H   0  0  0  0  0  0  0  0  0  0  0  0
  123.3411  129.9803   66.0154 H   0  0  0  0  0  0  0  0  0  0  0  0
  124.1533  130.6294   63.7000 H   0  0  0  0  0  0  0  0  0  0  0  0
  124.9823  131.4670   65.0675 H   0  0  0  0  0  0  0  0  0  0  0  0
  125.8902  131.5238   60.0434 H   0  0  0  0  0  0  0  0  0  0  0  0
  125.5034  130.1284   57.9940 H   0  0  0  0  0  0  0  0  0  0  0  0
  125.7520  127.2600   57.1860 H   0  0  0  0  0  0  0  0  0  0  0  0
  128.6589  124.5595   58.3321 H   0  0  0  0  0  0  0  0  0  0  0  0
  128.7125  122.2980   57.2890 H   0  0  0  0  0  0  0  0  0  0  0  0
  126.5920  121.2238   56.5465 H   0  0  0  0  0  0  0  0  0  0  0  0
  124.4164  122.3949   56.8447 H   0  0  0  0  0  0  0  0  0  0  0  0
  124.3573  124.6580   57.8859 H   0  0  0  0  0  0  0  0  0  0  0  0
  127.2242  128.0698   62.2852 H   0  0  0  0  0  0  0  0  0  0  0  0
  128.0755  129.3982   64.7203 H   0  0  0  0  0  0  0  0  0  0  0  0
  127.3089  130.6637   65.7284 H   0  0  0  0  0  0  0  0  0  0  0  0
  129.7969  124.7818   69.1062 H   0  0  0  0  0  0  0  0  0  0  0  0
  128.3986  124.4917   67.9851 H   0  0  0  0  0  0  0  0  0  0  0  0
  130.5962  124.1298   66.8582 H   0  0  0  0  0  0  0  0  0  0  0  0
  129.6472  125.4808   66.1233 H   0  0  0  0  0  0  0  0  0  0  0  0
  1  2  1  0
  2  3  1  0
  3  4  1  0
  4  5  1  0
  5  6  1  0
  6  7  1  0
  7  8  2  0
  7  9  1  0
  9 10  1  0
 10 11  1  0
 11 12  1  0
 12 13  1  0
 13 14  1  0
 14 15  2  0
 14 16  2  0
 14 17  1  0
 17 18  2  0
 18 19  1  0
 19 20  2  0
 20 21  1  0
 21 22  1  0
 22 23  1  0
 23 24  2  0
 24 25  1  0
 25 26  2  0
 26 27  1  0
 27 28  2  0
 22 29  2  0
 29 30  1  0
 30 31  2  0
 13 32  1  0
  5 33  1  0
 33 34  1  0
 34  2  1  0
 32  9  1  0
 31 17  1  0
 30 20  1  0
 28 23  1  0
  1 35  1  0
  1 36  1  0
  1 37  1  0
  2 38  1  1
  3 39  1  0
  3 40  1  0
  4 41  1  0
  4 42  1  0
  5 43  1  1
  6 44  1  0
  9 45  1  6
 10 46  1  0
 10 47  1  0
 11 48  1  0
 11 49  1  0
 12 50  1  0
 12 51  1  0
 18 52  1  0
 19 53  1  0
 21 54  1  0
 24 55  1  0
 25 56  1  0
 26 57  1  0
 27 58  1  0
 28 59  1  0
 31 60  1  0
 32 61  1  0
 32 62  1  0
 33 63  1  0
 33 64  1  0
 34 65  1  0
 34 66  1  0
M  END
>  <Binding energies>  (1) 
[-10.25]

>  <Ligand effiencies>  (1) 
[-0.2847222222222222]

>  <Interactions>  (1) 
["V-B:PRO:540:CB:9857, V-B:PRO:540:N:9856, V-B:PRO:540:CA:9855, V-B:MET:535:CE:9807, H-B:TYR:531:OH:9767, V-B:TYR:539:C:9839, V-B:GLU:543:CD:9880, V-A:ARG:545:CZ:4926, V-B:GLU:543:CB:9878, V-A:GLU:543:CB:4906, V-A:HIS:456:CE1:4069, V-B:HIS:456:CE1:9041, V-B:ARG:545:CZ:9898, V-B:TYR:484:CZ:9318, V-B:GLU:543:CG:9879, V-A:GLU:543:CD:4908, V-A:GLU:543:CG:4907, H-B:GLU:543:OE2:9882, V-B:GLU:543:C:9874, V-A:TYR:484:CE2:4345, V-B:GLU:543:CA:9876, V-A:TYR:484:CZ:4346, V-B:ASP:366:CB:8183, V-A:TYR:539:CE1:4875, V-B:ASP:366:CG:8184, V-B:PRO:540:CD:9859, V-B:TYR:531:CZ:9766, V-B:TYR:531:CE2:9765, V-B:LEU:363:CD1:8160, V-B:ARG:545:CD:9895, V-B:ARG:545:CG:9894, V-B:GLY:454:CA:9020"]

$$$$
RR11_Rahimova_2017
     RDKit          3D

 55 60  0  0  0  0  0  0  0  0999 V2000
  133.2840  124.2580   56.9060 N   0  0  0  0  0  0  0  0  0  0  0  0
  132.1640  125.0130   57.2490 C   0  0  0  0  0  0  0  0  0  0  0  0
  131.4330  124.6900   58.3910 C   0  0  0  0  0  0  0  0  0  0  0  0
  130.3160  125.4470   58.7330 C   0  0  0  0  0  0  0  0  0  0  0  0
  129.9200  126.5310   57.9400 C   0  0  0  0  0  0  0  0  0  0  0  0
  128.7190  127.3490   58.3140 C   0  0  0  0  0  0  0  0  0  0  0  0
  128.4930  127.8290   59.5180 N   0  0  0  0  0  0  0  0  0  0  0  0
  127.3110  128.5150   59.4170 C   0  0  0  0  0  0  0  0  0  0  0  0
  126.6130  129.2270   60.4030 C   0  0  0  0  0  0  0  0  0  0  0  0
  125.4210  129.8660   60.0440 C   0  0  0  0  0  0  0  0  0  0  0  0
  124.6380  130.6420   61.0950 C   0  0  0  0  0  0  0  0  0  0  0  0
  125.2630  130.5620   62.4800 C   0  0  0  0  0  0  0  0  0  0  0  0
  125.5290  131.7410   63.1850 C   0  0  0  0  0  0  0  0  0  0  0  0
  126.0940  131.7190   64.4620 C   0  0  0  0  0  0  0  0  0  0  0  0
  126.3870  130.4730   65.0330 C   0  0  0  0  0  0  0  0  0  0  0  0
  126.9420  130.1860   66.2530 N   0  0  0  0  0  0  0  0  0  0  0  0
  127.0090  128.8730   66.3040 C   0  0  0  0  0  0  0  0  0  0  0  0
  127.5710  128.0960   67.4590 C   0  0  0  0  0  0  0  0  0  0  0  0
  127.0380  126.8470   67.8010 C   0  0  0  0  0  0  0  0  0  0  0  0
  127.5510  126.1300   68.8790 C   0  0  0  0  0  0  0  0  0  0  0  0
  128.6030  126.6590   69.6240 C   0  0  0  0  0  0  0  0  0  0  0  0
  129.1150  125.9450   70.7070 N   0  0  0  0  0  0  0  0  0  0  0  0
  129.1450  127.8980   69.2930 C   0  0  0  0  0  0  0  0  0  0  0  0
  128.6310  128.6140   68.2150 C   0  0  0  0  0  0  0  0  0  0  0  0
  126.5100  128.2860   65.1600 N   0  0  0  0  0  0  0  0  0  0  0  0
  126.1000  129.2890   64.3140 C   0  0  0  0  0  0  0  0  0  0  0  0
  125.5300  129.3040   63.0380 C   0  0  0  0  0  0  0  0  0  0  0  0
  124.9270  129.7730   58.7380 C   0  0  0  0  0  0  0  0  0  0  0  0
  125.5960  129.0680   57.7350 C   0  0  0  0  0  0  0  0  0  0  0  0
  126.7930  128.4480   58.1020 C   0  0  0  0  0  0  0  0  0  0  0  0
  127.7200  127.6910   57.4260 N   0  0  0  0  0  0  0  0  0  0  0  0
  130.6640  126.8440   56.7940 C   0  0  0  0  0  0  0  0  0  0  0  0
  131.7820  126.0890   56.4490 C   0  0  0  0  0  0  0  0  0  0  0  0
  134.1790  124.4810   57.3180 H   0  0  0  0  0  0  0  0  0  0  0  0
  133.1800  123.4720   56.2810 H   0  0  0  0  0  0  0  0  0  0  0  0
  131.7376  123.8402   59.0195 H   0  0  0  0  0  0  0  0  0  0  0  0
  129.7393  125.1914   59.6342 H   0  0  0  0  0  0  0  0  0  0  0  0
  126.9933  129.2819   61.4337 H   0  0  0  0  0  0  0  0  0  0  0  0
  124.5939  131.6981   60.7906 H   0  0  0  0  0  0  0  0  0  0  0  0
  123.6365  130.1914   61.1590 H   0  0  0  0  0  0  0  0  0  0  0  0
  125.2871  132.7091   62.7220 H   0  0  0  0  0  0  0  0  0  0  0  0
  126.3031  132.6530   65.0042 H   0  0  0  0  0  0  0  0  0  0  0  0
  126.2074  126.4289   67.2134 H   0  0  0  0  0  0  0  0  0  0  0  0
  127.1272  125.1494   69.1415 H   0  0  0  0  0  0  0  0  0  0  0  0
  128.9200  124.9570   70.7880 H   0  0  0  0  0  0  0  0  0  0  0  0
  129.7030  126.4170   71.3790 H   0  0  0  0  0  0  0  0  0  0  0  0
  129.9776  128.3104   69.8819 H   0  0  0  0  0  0  0  0  0  0  0  0
  129.0600  129.5930   67.9551 H   0  0  0  0  0  0  0  0  0  0  0  0
  126.4790  127.2870   65.0170 H   0  0  0  0  0  0  0  0  0  0  0  0
  125.3019  128.3735   62.4976 H   0  0  0  0  0  0  0  0  0  0  0  0
  123.9783  130.2728   58.4927 H   0  0  0  0  0  0  0  0  0  0  0  0
  125.2013  129.0043   56.7102 H   0  0  0  0  0  0  0  0  0  0  0  0
  127.7200  127.4120   56.4560 H   0  0  0  0  0  0  0  0  0  0  0  0
  130.3624  127.6926   56.1624 H   0  0  0  0  0  0  0  0  0  0  0  0
  132.3616  126.3406   55.5486 H   0  0  0  0  0  0  0  0  0  0  0  0
  1  2  1  0
  2  3  2  0
  3  4  1  0
  4  5  2  0
  5  6  1  0
  6  7  2  0
  7  8  1  0
  8  9  2  0
  9 10  1  0
 10 11  1  0
 11 12  1  0
 12 13  2  0
 13 14  1  0
 14 15  2  0
 15 16  1  0
 16 17  2  0
 17 18  1  0
 18 19  2  0
 19 20  1  0
 20 21  2  0
 21 22  1  0
 21 23  1  0
 23 24  2  0
 17 25  1  0
 25 26  1  0
 26 27  2  0
 10 28  2  0
 28 29  1  0
 29 30  2  0
 30 31  1  0
  5 32  1  0
 32 33  2  0
 33  2  1  0
 31  6  1  0
 30  8  1  0
 27 12  1  0
 26 15  1  0
 24 18  1  0
  1 34  1  0
  1 35  1  0
  3 36  1  0
  4 37  1  0
  9 38  1  0
 11 39  1  0
 11 40  1  0
 13 41  1  0
 14 42  1  0
 19 43  1  0
 20 44  1  0
 22 45  1  0
 22 46  1  0
 23 47  1  0
 24 48  1  0
 25 49  1  0
 27 50  1  0
 28 51  1  0
 29 52  1  0
 31 53  1  0
 32 54  1  0
 33 55  1  0
M  END
>  <Binding energies>  (1) 
[-8.27]

>  <Ligand effiencies>  (1) 
[-0.21205128205128204]

>  <Interactions>  (1) 
["V-B:TYR:539:CE2:9848, V-B:TYR:539:CZ:9849, H-B:TYR:531:OH:9767, V-B:GLU:543:CD:9880, V-B:GLU:543:CB:9878, V-A:GLU:543:CB:4906, H-B:TYR:484:OH:9319, V-A:HIS:456:CE1:4069, V-B:HIS:456:CE1:9041, V-B:ARG:545:CZ:9898, V-B:GLU:543:CG:9879, H-B:GLU:543:OE2:9882, V-B:GLU:543:C:9874, V-A:ASP:366:C:3207, V-A:ASP:366:CB:3211, V-A:ASP:366:CA:3209, V-B:GLU:543:CA:9876, V-B:ASP:366:CB:8183, V-B:ASP:366:CA:8181, V-A:TYR:539:CE1:4875, V-B:ASP:366:CG:8184, V-B:TYR:531:CZ:9766, V-B:ARG:545:CG:9894, V-B:LEU:475:CD1:9229, H-B:GLU:543:OE1:9881, H-B:TYR:539:OH:9850, H-A:HIS:456:NE2:4070, H-B:GLU:543:O:9875, V-A:ASN:370:CB:3244, H-A:ASP:366:O:3208"]

$$$$
RR11_Rahimova_2017-again1
     RDKit          3D

 56 61  0  0  0  0  0  0  0  0999 V2000
  133.5950  123.9080   57.0750 N   0  0  0  0  0  0  0  0  0  0  0  0
  132.4940  124.7250   57.3290 C   0  0  0  0  0  0  0  0  0  0  0  0
  132.2120  125.7930   56.4790 C   0  0  0  0  0  0  0  0  0  0  0  0
  131.1130  126.6100   56.7360 C   0  0  0  0  0  0  0  0  0  0  0  0
  130.2900  126.3670   57.8430 C   0  0  0  0  0  0  0  0  0  0  0  0
  129.1110  127.2530   58.1230 C   0  0  0  0  0  0  0  0  0  0  0  0
  128.5880  128.0890   57.2540 N   0  0  0  0  0  0  0  0  0  0  0  0
  127.5590  128.7060   57.9180 C   0  0  0  0  0  0  0  0  0  0  0  0
  126.6720  129.6900   57.4630 C   0  0  0  0  0  0  0  0  0  0  0  0
  125.7100  130.1700   58.3520 C   0  0  0  0  0  0  0  0  0  0  0  0
  125.6210  129.6950   59.6650 C   0  0  0  0  0  0  0  0  0  0  0  0
  124.5550  130.2570   60.5940 C   0  0  0  0  0  0  0  0  0  0  0  0
  124.9800  130.2360   62.0560 C   0  0  0  0  0  0  0  0  0  0  0  0
  124.7730  131.3690   62.8520 C   0  0  0  0  0  0  0  0  0  0  0  0
  125.1450  131.4100   64.1980 C   0  0  0  0  0  0  0  0  0  0  0  0
  125.7340  130.2550   64.7200 C   0  0  0  0  0  0  0  0  0  0  0  0
  126.2240  129.9560   65.9850 N   0  0  0  0  0  0  0  0  0  0  0  0
  126.7210  128.6730   66.0080 C   0  0  0  0  0  0  0  0  0  0  0  0
  127.3520  127.9750   67.1690 C   0  0  0  0  0  0  0  0  0  0  0  0
  126.7130  126.8790   67.7610 C   0  0  0  0  0  0  0  0  0  0  0  0
  127.3000  126.2190   68.8380 C   0  0  0  0  0  0  0  0  0  0  0  0
  128.5300  126.6540   69.3280 C   0  0  0  0  0  0  0  0  0  0  0  0
  129.1190  125.9900   70.4030 N   0  0  0  0  0  0  0  0  0  0  0  0
  129.1740  127.7450   68.7470 C   0  0  0  0  0  0  0  0  0  0  0  0
  128.5870  128.4040   67.6710 C   0  0  0  0  0  0  0  0  0  0  0  0
  126.5310  128.1610   64.7460 N   0  0  0  0  0  0  0  0  0  0  0  0
  125.9310  129.1100   63.9300 C   0  0  0  0  0  0  0  0  0  0  0  0
  125.5520  129.0720   62.5860 C   0  0  0  0  0  0  0  0  0  0  0  0
  126.4820  128.6940   60.1360 C   0  0  0  0  0  0  0  0  0  0  0  0
  127.4480  128.2230   59.2440 C   0  0  0  0  0  0  0  0  0  0  0  0
  128.4540  127.2900   59.3350 N   0  0  0  0  0  0  0  0  0  0  0  0
  130.5850  125.2890   58.6880 C   0  0  0  0  0  0  0  0  0  0  0  0
  131.6820  124.4700   58.4320 C   0  0  0  0  0  0  0  0  0  0  0  0
  133.4890  123.1050   56.4730 H   0  0  0  0  0  0  0  0  0  0  0  0
  134.4750  124.1060   57.5290 H   0  0  0  0  0  0  0  0  0  0  0  0
  132.8548  125.9902   55.6084 H   0  0  0  0  0  0  0  0  0  0  0  0
  130.8900  127.4522   56.0644 H   0  0  0  0  0  0  0  0  0  0  0  0
  126.7323  130.0734   56.4338 H   0  0  0  0  0  0  0  0  0  0  0  0
  125.0035  130.9415   58.0120 H   0  0  0  0  0  0  0  0  0  0  0  0
  124.3471  131.2972   60.3028 H   0  0  0  0  0  0  0  0  0  0  0  0
  123.6621  129.6218   60.4982 H   0  0  0  0  0  0  0  0  0  0  0  0
  124.3021  132.2559   62.4029 H   0  0  0  0  0  0  0  0  0  0  0  0
  124.9826  132.3057   64.8155 H   0  0  0  0  0  0  0  0  0  0  0  0
  126.2420  130.5590   66.7950 H   0  0  0  0  0  0  0  0  0  0  0  0
  125.7419  126.5372   67.3734 H   0  0  0  0  0  0  0  0  0  0  0  0
  126.7948  125.3579   69.2999 H   0  0  0  0  0  0  0  0  0  0  0  0
  129.0560  124.9830   70.4610 H   0  0  0  0  0  0  0  0  0  0  0  0
  129.5780  126.5240   71.1260 H   0  0  0  0  0  0  0  0  0  0  0  0
  130.1444  128.0845   69.1382 H   0  0  0  0  0  0  0  0  0  0  0  0
  129.0951  129.2654   67.2129 H   0  0  0  0  0  0  0  0  0  0  0  0
  126.8120  127.2250   64.4960 H   0  0  0  0  0  0  0  0  0  0  0  0
  125.6959  128.1704   61.9725 H   0  0  0  0  0  0  0  0  0  0  0  0
  126.4007  128.2984   61.1592 H   0  0  0  0  0  0  0  0  0  0  0  0
  128.7140  126.7170   60.1250 H   0  0  0  0  0  0  0  0  0  0  0  0
  129.9454  125.0880   59.5601 H   0  0  0  0  0  0  0  0  0  0  0  0
  131.9066  123.6244   59.0987 H   0  0  0  0  0  0  0  0  0  0  0  0
  1  2  1  0
  2  3  2  0
  3  4  1  0
  4  5  2  0
  5  6  1  0
  6  7  2  0
  7  8  1  0
  8  9  2  0
  9 10  1  0
 10 11  2  0
 11 12  1  0
 12 13  1  0
 13 14  2  0
 14 15  1  0
 15 16  2  0
 16 17  1  0
 17 18  1  0
 18 19  1  0
 19 20  2  0
 20 21  1  0
 21 22  2  0
 22 23  1  0
 22 24  1  0
 24 25  2  0
 18 26  2  0
 26 27  1  0
 27 28  2  0
 11 29  1  0
 29 30  2  0
 30 31  1  0
  5 32  1  0
 32 33  2  0
 33  2  1  0
 31  6  1  0
 30  8  1  0
 28 13  1  0
 27 16  1  0
 25 19  1  0
  1 34  1  0
  1 35  1  0
  3 36  1  0
  4 37  1  0
  9 38  1  0
 10 39  1  0
 12 40  1  0
 12 41  1  0
 14 42  1  0
 15 43  1  0
 17 44  1  0
 20 45  1  0
 21 46  1  0
 23 47  1  0
 23 48  1  0
 24 49  1  0
 25 50  1  0
 26 51  1  0
 28 52  1  0
 29 53  1  0
 31 54  1  0
 32 55  1  0
 33 56  1  0
M  CHG  1  26   1
M  END
>  <Binding energies>  (1) 
[-9.09]

>  <Ligand effiencies>  (1) 
[-0.22725]

>  <Interactions>  (1) 
["V-A:ILE:369:CG2:3236, V-B:TYR:539:CE2:9848, V-B:TYR:539:CZ:9849, H-B:TYR:531:OH:9767, V-B:GLU:543:CD:9880, V-B:GLU:543:CB:9878, V-A:GLU:543:CB:4906, H-B:TYR:484:OH:9319, V-A:HIS:456:CE1:4069, V-B:HIS:456:CE1:9041, V-B:ARG:545:CZ:9898, V-B:TYR:484:CZ:9318, V-B:TYR:484:CE2:9317, V-B:GLU:543:CG:9879, H-B:GLU:543:OE2:9882, V-B:GLU:543:C:9874, V-A:ASP:366:C:3207, V-A:ASP:366:CB:3211, V-A:ASP:366:CA:3209, V-B:GLU:543:CA:9876, V-A:ILE:369:CB:3235, V-B:ASP:366:CB:8183, V-B:ASP:366:CA:8181, V-A:TYR:539:CE1:4875, V-B:ASP:366:CG:8184, V-B:ARG:545:CG:9894, V-B:LEU:475:CD1:9229, H-B:GLU:543:OE1:9881, V-B:GLY:454:CA:9020, H-B:TYR:539:OH:9850, H-A:HIS:456:NE2:4070, H-B:GLU:543:O:9875, V-A:ASN:370:CB:3244, H-B:HIS:456:NE2:9042, H-A:ASP:366:O:3208, V-A:ASN:370:CA:3242"]

$$$$
RR11_Rahimova_2017-again2
     RDKit          3D

 57 62  0  0  0  0  0  0  0  0999 V2000
  133.2750  124.2950   56.9300 N   0  0  0  0  0  0  0  0  0  0  0  0
  132.1500  125.0500   57.2570 C   0  0  0  0  0  0  0  0  0  0  0  0
  131.3630  124.6860   58.3470 C   0  0  0  0  0  0  0  0  0  0  0  0
  130.2360  125.4370   58.6700 C   0  0  0  0  0  0  0  0  0  0  0  0
  129.8890  126.5570   57.9030 C   0  0  0  0  0  0  0  0  0  0  0  0
  128.6740  127.3570   58.2430 C   0  0  0  0  0  0  0  0  0  0  0  0
  128.3360  127.8560   59.4800 N   0  0  0  0  0  0  0  0  0  0  0  0
  127.1450  128.5650   59.3990 C   0  0  0  0  0  0  0  0  0  0  0  0
  126.4070  129.2560   60.3640 C   0  0  0  0  0  0  0  0  0  0  0  0
  125.2360  129.8920   59.9320 C   0  0  0  0  0  0  0  0  0  0  0  0
  124.3920  130.6640   60.9360 C   0  0  0  0  0  0  0  0  0  0  0  0
  124.9420  130.5850   62.3540 C   0  0  0  0  0  0  0  0  0  0  0  0
  124.9870  131.7400   63.1430 C   0  0  0  0  0  0  0  0  0  0  0  0
  125.4800  131.7290   64.4500 C   0  0  0  0  0  0  0  0  0  0  0  0
  125.9270  130.4990   64.9400 C   0  0  0  0  0  0  0  0  0  0  0  0
  126.4750  130.1360   66.1630 N   0  0  0  0  0  0  0  0  0  0  0  0
  126.7650  128.7910   66.1700 C   0  0  0  0  0  0  0  0  0  0  0  0
  127.3800  128.0120   67.2880 C   0  0  0  0  0  0  0  0  0  0  0  0
  128.5990  128.4170   67.8420 C   0  0  0  0  0  0  0  0  0  0  0  0
  129.1680  127.6970   68.8910 C   0  0  0  0  0  0  0  0  0  0  0  0
  128.5190  126.5690   69.3890 C   0  0  0  0  0  0  0  0  0  0  0  0
  129.0840  125.8520   70.4420 N   0  0  0  0  0  0  0  0  0  0  0  0
  127.3060  126.1550   68.8410 C   0  0  0  0  0  0  0  0  0  0  0  0
  126.7380  126.8750   67.7930 C   0  0  0  0  0  0  0  0  0  0  0  0
  126.3860  128.3060   64.9400 N   0  0  0  0  0  0  0  0  0  0  0  0
  125.8710  129.3330   64.1590 C   0  0  0  0  0  0  0  0  0  0  0  0
  125.3710  129.3480   62.8550 C   0  0  0  0  0  0  0  0  0  0  0  0
  124.8160  129.8080   58.5990 C   0  0  0  0  0  0  0  0  0  0  0  0
  125.5460  129.1140   57.6310 C   0  0  0  0  0  0  0  0  0  0  0  0
  126.7250  128.4970   58.0610 C   0  0  0  0  0  0  0  0  0  0  0  0
  127.6780  127.7510   57.3800 N   0  0  0  0  0  0  0  0  0  0  0  0
  130.6900  126.9150   56.8120 C   0  0  0  0  0  0  0  0  0  0  0  0
  131.8170  126.1640   56.4890 C   0  0  0  0  0  0  0  0  0  0  0  0
  133.1780  123.5000   56.3150 H   0  0  0  0  0  0  0  0  0  0  0  0
  134.1620  124.5090   57.3630 H   0  0  0  0  0  0  0  0  0  0  0  0
  131.6313  123.8070   58.9514 H   0  0  0  0  0  0  0  0  0  0  0  0
  129.6151  125.1497   59.5314 H   0  0  0  0  0  0  0  0  0  0  0  0
  128.9090  127.7070   60.2980 H   0  0  0  0  0  0  0  0  0  0  0  0
  126.7308  129.2985   61.4144 H   0  0  0  0  0  0  0  0  0  0  0  0
  124.3600  131.7200   60.6298 H   0  0  0  0  0  0  0  0  0  0  0  0
  123.3897  130.2108   60.9439 H   0  0  0  0  0  0  0  0  0  0  0  0
  124.6222  132.6876   62.7201 H   0  0  0  0  0  0  0  0  0  0  0  0
  125.5146  132.6421   65.0624 H   0  0  0  0  0  0  0  0  0  0  0  0
  126.6590  130.7330   66.9560 H   0  0  0  0  0  0  0  0  0  0  0  0
  129.1107  129.3075   67.4480 H   0  0  0  0  0  0  0  0  0  0  0  0
  130.1266  128.0183   69.3245 H   0  0  0  0  0  0  0  0  0  0  0  0
  129.0420  124.8440   70.4370 H   0  0  0  0  0  0  0  0  0  0  0  0
  129.4720  126.3500   71.2300 H   0  0  0  0  0  0  0  0  0  0  0  0
  126.7988  125.2621   69.2353 H   0  0  0  0  0  0  0  0  0  0  0  0
  125.7808  126.5489   67.3601 H   0  0  0  0  0  0  0  0  0  0  0  0
  126.4930  127.3350   64.6860 H   0  0  0  0  0  0  0  0  0  0  0  0
  125.3164  128.4315   62.2491 H   0  0  0  0  0  0  0  0  0  0  0  0
  123.8800  130.3050   58.3041 H   0  0  0  0  0  0  0  0  0  0  0  0
  125.2108  129.0559   56.5849 H   0  0  0  0  0  0  0  0  0  0  0  0
  127.6870  127.5120   56.4000 H   0  0  0  0  0  0  0  0  0  0  0  0
  130.4274  127.7949   56.2064 H   0  0  0  0  0  0  0  0  0  0  0  0
  132.4425  126.4491   55.6303 H   0  0  0  0  0  0  0  0  0  0  0  0
  1  2  1  0
  2  3  2  0
  3  4  1  0
  4  5  2  0
  5  6  1  0
  6  7  1  0
  7  8  1  0
  8  9  2  0
  9 10  1  0
 10 11  1  0
 11 12  1  0
 12 13  2  0
 13 14  1  0
 14 15  2  0
 15 16  1  0
 16 17  1  0
 17 18  1  0
 18 19  2  0
 19 20  1  0
 20 21  2  0
 21 22  1  0
 21 23  1  0
 23 24  2  0
 17 25  2  0
 25 26  1  0
 26 27  2  0
 10 28  2  0
 28 29  1  0
 29 30  2  0
 30 31  1  0
  5 32  1  0
 32 33  2  0
 33  2  1  0
 31  6  2  0
 30  8  1  0
 27 12  1  0
 26 15  1  0
 24 18  1  0
  1 34  1  0
  1 35  1  0
  3 36  1  0
  4 37  1  0
  7 38  1  0
  9 39  1  0
 11 40  1  0
 11 41  1  0
 13 42  1  0
 14 43  1  0
 16 44  1  0
 19 45  1  0
 20 46  1  0
 22 47  1  0
 22 48  1  0
 23 49  1  0
 24 50  1  0
 25 51  1  0
 27 52  1  0
 28 53  1  0
 29 54  1  0
 31 55  1  0
 32 56  1  0
 33 57  1  0
M  CHG  2  25   1  31   1
M  END
>  <Binding energies>  (1) 
[-10.02]

>  <Ligand effiencies>  (1) 
[-0.24439024390243902]

>  <Interactions>  (1) 
["V-B:TYR:539:CE2:9848, V-B:TYR:539:CZ:9849, H-B:TYR:531:OH:9767, V-B:GLU:543:CD:9880, V-B:GLU:543:CB:9878, V-A:GLU:543:CB:4906, H-B:TYR:484:OH:9319, V-A:HIS:456:CE1:4069, V-B:HIS:456:CE1:9041, V-B:ARG:545:CZ:9898, V-B:TYR:484:CZ:9318, V-B:TYR:484:CE2:9317, V-B:GLU:543:CG:9879, H-B:GLU:543:OE2:9882, V-B:GLU:543:C:9874, V-A:ASP:366:C:3207, V-A:ASP:366:CB:3211, V-A:ASP:366:CA:3209, V-B:GLU:543:CA:9876, V-B:ASP:366:CB:8183, V-B:ASP:366:CA:8181, V-A:TYR:539:CE1:4875, V-B:ASP:366:CG:8184, V-B:TYR:531:CZ:9766, V-B:ARG:545:CG:9894, V-B:LEU:475:CD1:9229, H-B:GLU:543:OE1:9881, V-B:GLY:454:CA:9020, H-B:TYR:539:OH:9850, H-A:HIS:456:NE2:4070, V-B:ILE:369:CD1:8210, H-B:GLU:543:O:9875, V-A:ASN:370:CB:3244, H-B:HIS:456:NE2:9042, H-A:ASP:366:O:3208"]

$$$$
RR12_Rahimova_2017
     RDKit          3D

 51 53  0  0  0  0  0  0  0  0999 V2000
  134.3510  123.7660   60.1390 C   0  0  0  0  0  0  0  0  0  0  0  0
  133.7510  123.9690   61.5370 C   0  0  0  0  0  0  0  0  0  0  0  0
  133.8470  122.7050   62.4110 C   0  0  0  0  0  0  0  0  0  0  0  0
  132.6200  121.9180   62.3210 N   0  0  0  0  0  0  0  0  0  0  0  0
  131.3920  122.2020   62.8990 C   0  0  0  0  0  0  0  0  0  0  0  0
  131.1320  123.4030   63.7900 C   0  0  0  0  0  0  0  0  0  0  0  0
  130.6330  124.6260   62.9980 C   0  0  0  0  0  0  0  0  0  0  0  0
  131.5480  125.8550   63.1620 C   0  0  0  0  0  0  0  0  0  0  0  0
  131.8940  126.1520   64.5510 N   0  0  0  0  0  0  0  0  0  0  0  0
  132.8920  125.5690   65.2400 C   0  0  0  0  0  0  0  0  0  0  0  0
  133.6300  124.7060   64.7590 O   0  0  0  0  0  0  0  0  0  0  0  0
  133.0720  126.0520   66.6850 C   0  0  0  0  0  0  0  0  0  0  0  0
  132.2120  127.1660   66.9260 O   0  0  0  0  0  0  0  0  0  0  0  0
  130.9890  126.9580   67.5350 C   0  0  0  0  0  0  0  0  0  0  0  0
  130.4480  125.6760   67.4190 C   0  0  0  0  0  0  0  0  0  0  0  0
  129.2210  125.3700   68.0020 C   0  0  0  0  0  0  0  0  0  0  0  0
  128.5300  126.3510   68.7080 C   0  0  0  0  0  0  0  0  0  0  0  0
  129.0540  127.6360   68.8320 C   0  0  0  0  0  0  0  0  0  0  0  0
  130.2800  127.9410   68.2470 C   0  0  0  0  0  0  0  0  0  0  0  0
  130.4680  121.3170   62.6150 N   0  0  0  0  0  0  0  0  0  0  0  0
  131.0860  120.4150   61.7940 C   0  0  0  0  0  0  0  0  0  0  0  0
  130.5550  119.2680   61.1840 C   0  0  0  0  0  0  0  0  0  0  0  0
  131.3970  118.5040   60.3760 C   0  0  0  0  0  0  0  0  0  0  0  0
  132.7300  118.8630   60.1750 C   0  0  0  0  0  0  0  0  0  0  0  0
  133.2880  119.9970   60.7690 C   0  0  0  0  0  0  0  0  0  0  0  0
  132.4430  120.7630   61.5810 C   0  0  0  0  0  0  0  0  0  0  0  0
  135.3892  123.4148   60.2330 H   0  0  0  0  0  0  0  0  0  0  0  0
  133.7591  123.0181   59.5910 H   0  0  0  0  0  0  0  0  0  0  0  0
  134.3348  124.7196   59.5910 H   0  0  0  0  0  0  0  0  0  0  0  0
  134.2920  124.7855   62.0376 H   0  0  0  0  0  0  0  0  0  0  0  0
  132.6845  124.2070   61.4108 H   0  0  0  0  0  0  0  0  0  0  0  0
  134.6941  122.0928   62.0680 H   0  0  0  0  0  0  0  0  0  0  0  0
  133.9942  123.0102   63.4575 H   0  0  0  0  0  0  0  0  0  0  0  0
  130.3708  123.1309   64.5360 H   0  0  0  0  0  0  0  0  0  0  0  0
  132.0842  123.6786   64.2669 H   0  0  0  0  0  0  0  0  0  0  0  0
  130.5886  124.3603   61.9315 H   0  0  0  0  0  0  0  0  0  0  0  0
  129.6419  124.8950   63.3921 H   0  0  0  0  0  0  0  0  0  0  0  0
  132.4783  125.6716   62.6045 H   0  0  0  0  0  0  0  0  0  0  0  0
  130.9911  126.7225   62.7781 H   0  0  0  0  0  0  0  0  0  0  0  0
  131.3330  126.8540   65.0120 H   0  0  0  0  0  0  0  0  0  0  0  0
  132.8184  125.2365   67.3783 H   0  0  0  0  0  0  0  0  0  0  0  0
  134.1175  126.3557   66.8421 H   0  0  0  0  0  0  0  0  0  0  0  0
  130.9957  124.9012   66.8624 H   0  0  0  0  0  0  0  0  0  0  0  0
  128.7999  124.3584   67.9052 H   0  0  0  0  0  0  0  0  0  0  0  0
  127.5622  126.1095   69.1718 H   0  0  0  0  0  0  0  0  0  0  0  0
  128.5013  128.4064   69.3898 H   0  0  0  0  0  0  0  0  0  0  0  0
  130.6954  128.9551   68.3423 H   0  0  0  0  0  0  0  0  0  0  0  0
  129.5048  118.9797   61.3387 H   0  0  0  0  0  0  0  0  0  0  0  0
  131.0023  117.6008   59.8877 H   0  0  0  0  0  0  0  0  0  0  0  0
  133.3604  118.2340   59.5293 H   0  0  0  0  0  0  0  0  0  0  0  0
  134.3399  120.2748   60.6069 H   0  0  0  0  0  0  0  0  0  0  0  0
  1  2  1  0
  2  3  1  0
  3  4  1  0
  4  5  1  0
  5  6  1  0
  6  7  1  0
  7  8  1  0
  8  9  1  0
  9 10  1  0
 10 11  2  0
 10 12  1  0
 12 13  1  0
 13 14  1  0
 14 15  2  0
 15 16  1  0
 16 17  2  0
 17 18  1  0
 18 19  2  0
  5 20  2  0
 20 21  1  0
 21 22  2  0
 22 23  1  0
 23 24  2  0
 24 25  1  0
 25 26  2  0
 26  4  1  0
 19 14  1  0
 26 21  1  0
  1 27  1  0
  1 28  1  0
  1 29  1  0
  2 30  1  0
  2 31  1  0
  3 32  1  0
  3 33  1  0
  6 34  1  0
  6 35  1  0
  7 36  1  0
  7 37  1  0
  8 38  1  0
  8 39  1  0
  9 40  1  0
 12 41  1  0
 12 42  1  0
 15 43  1  0
 16 44  1  0
 17 45  1  0
 18 46  1  0
 19 47  1  0
 22 48  1  0
 23 49  1  0
 24 50  1  0
 25 51  1  0
M  END
>  <Binding energies>  (1) 
[-7.16]

>  <Ligand effiencies>  (1) 
[-0.2651851851851852]

>  <Interactions>  (1) 
["V-A:ILE:369:CG2:3236, V-B:TYR:539:CD2:9846, V-A:LEU:475:CD1:4257, V-B:ALA:541:CB:9864, V-A:ARG:545:CD:4923, V-A:ARG:545:CZ:4926, V-B:GLU:543:CB:9878, V-A:GLU:543:CB:4906, V-A:HIS:456:CE1:4069, V-A:ARG:545:CG:4922, V-B:HIS:456:CE1:9041, V-A:GLY:454:CA:4048, H-A:TYR:484:OH:4347, H-A:GLY:454:N:4049, H-A:GLU:543:OE1:4909, V-B:GLU:543:CG:9879, V-A:GLU:543:CD:4908, V-A:GLU:543:CG:4907, V-A:ASP:366:CG:3212, V-A:ILE:369:CD1:3238, V-A:TYR:484:CE2:4345, V-A:ASP:366:CB:3211, V-A:ASP:366:CA:3209, V-B:GLU:543:CA:9876, V-A:TYR:484:CZ:4346, V-A:ILE:369:CB:3235, H-A:GLU:543:OE2:4910, H-A:ARG:545:NE:4924"]

$$$$
RR13_Rahimova_2017
     RDKit          3D

 84 90  0  0  0  0  0  0  0  0999 V2000
  128.9180  130.8680   57.3090 Cl  0  0  0  0  0  0  0  0  0  0  0  0
  127.7490  129.8360   58.0600 C   0  0  0  0  0  0  0  0  0  0  0  0
  126.4370  129.8830   57.5820 C   0  0  0  0  0  0  0  0  0  0  0  0
  125.4460  129.0930   58.1580 C   0  0  0  0  0  0  0  0  0  0  0  0
  125.7610  128.2500   59.2200 C   0  0  0  0  0  0  0  0  0  0  0  0
  127.0670  128.1970   59.7020 C   0  0  0  0  0  0  0  0  0  0  0  0
  128.0830  128.9770   59.1270 C   0  0  0  0  0  0  0  0  0  0  0  0
  129.5180  128.9190   59.6960 C   0  0  1  0  0  0  0  0  0  0  0  0
  129.8890  130.2370   60.3930 C   0  0  0  0  0  0  0  0  0  0  0  0
  130.8490  131.0650   60.0460 N   0  0  0  0  0  0  0  0  0  0  0  0
  130.8200  132.0950   60.9820 N   0  0  0  0  0  0  0  0  0  0  0  0
  129.8310  131.8590   61.9160 N   0  0  0  0  0  0  0  0  0  0  0  0
  129.2870  130.6950   61.5450 N   0  0  0  0  0  0  0  0  0  0  0  0
  128.1640  130.1360   62.2880 C   0  0  0  0  0  0  0  0  0  0  0  0
  128.0160  130.8460   63.6470 C   0  0  0  0  0  0  0  0  0  0  0  0
  127.0860  130.0970   64.5890 C   0  0  0  0  0  0  0  0  0  0  0  0
  127.6180  129.2870   65.5960 C   0  0  0  0  0  0  0  0  0  0  0  0
  126.7660  128.5950   66.4530 C   0  0  0  0  0  0  0  0  0  0  0  0
  125.3860  128.7160   66.3000 C   0  0  0  0  0  0  0  0  0  0  0  0
  124.8500  129.5210   65.2970 C   0  0  0  0  0  0  0  0  0  0  0  0
  125.7020  130.2130   64.4390 C   0  0  0  0  0  0  0  0  0  0  0  0
  129.7650  127.7360   60.5550 N   0  0  0  0  0  0  0  0  0  0  0  0
  130.6930  128.0760   61.6490 C   0  0  0  0  0  0  0  0  0  0  0  0
  130.8510  126.8870   62.6250 C   0  0  0  0  0  0  0  0  0  0  0  0
  131.4050  125.7140   61.9290 N   0  0  0  0  0  0  0  0  0  0  0  0
  131.6500  124.5750   62.8440 C   0  0  1  0  0  0  0  0  0  0  0  0
  132.2970  123.3300   62.1990 C   0  0  0  0  0  0  0  0  0  0  0  0
  133.6480  123.4240   61.8390 C   0  0  0  0  0  0  0  0  0  0  0  0
  134.3190  122.3440   61.2670 C   0  0  0  0  0  0  0  0  0  0  0  0
  133.6420  121.1490   61.0390 C   0  0  0  0  0  0  0  0  0  0  0  0
  132.2950  121.0400   61.3740 C   0  0  0  0  0  0  0  0  0  0  0  0
  131.6130  122.1180   61.9450 C   0  0  0  0  0  0  0  0  0  0  0  0
  129.9240  121.9050   62.2620 Cl  0  0  0  0  0  0  0  0  0  0  0  0
  132.4190  124.9730   64.1060 C   0  0  0  0  0  0  0  0  0  0  0  0
  133.7200  124.8870   64.2640 N   0  0  0  0  0  0  0  0  0  0  0  0
  133.9820  125.3680   65.5430 N   0  0  0  0  0  0  0  0  0  0  0  0
  132.8070  125.7620   66.1500 N   0  0  0  0  0  0  0  0  0  0  0  0
  131.8580  125.5290   65.2360 N   0  0  0  0  0  0  0  0  0  0  0  0
  130.4610  125.8120   65.5460 C   0  0  0  0  0  0  0  0  0  0  0  0
  130.0390  125.0890   66.8380 C   0  0  0  0  0  0  0  0  0  0  0  0
  129.7640  126.0590   67.9760 C   0  0  0  0  0  0  0  0  0  0  0  0
  130.2360  127.3730   67.9020 C   0  0  0  0  0  0  0  0  0  0  0  0
  129.9780  128.2630   68.9410 C   0  0  0  0  0  0  0  0  0  0  0  0
  129.2490  127.8370   70.0510 C   0  0  0  0  0  0  0  0  0  0  0  0
  128.7750  126.5280   70.1290 C   0  0  0  0  0  0  0  0  0  0  0  0
  129.0320  125.6380   69.0900 C   0  0  0  0  0  0  0  0  0  0  0  0
  130.4710  125.3740   60.8400 C   0  0  0  0  0  0  0  0  0  0  0  0
  130.3260  126.5630   59.8620 C   0  0  0  0  0  0  0  0  0  0  0  0
  126.1851  130.5495   56.7439 H   0  0  0  0  0  0  0  0  0  0  0  0
  124.4158  129.1348   57.7746 H   0  0  0  0  0  0  0  0  0  0  0  0
  124.9794  127.6262   59.6782 H   0  0  0  0  0  0  0  0  0  0  0  0
  127.3060  127.5337   60.5463 H   0  0  0  0  0  0  0  0  0  0  0  0
  130.1920  128.7928   58.8359 H   0  0  0  0  0  0  0  0  0  0  0  0
  127.2405  130.2707   61.7057 H   0  0  0  0  0  0  0  0  0  0  0  0
  128.3471  129.0653   62.4616 H   0  0  0  0  0  0  0  0  0  0  0  0
  129.0080  130.9233   64.1160 H   0  0  0  0  0  0  0  0  0  0  0  0
  127.5813  131.8396   63.4630 H   0  0  0  0  0  0  0  0  0  0  0  0
  128.7081  129.1962   65.7115 H   0  0  0  0  0  0  0  0  0  0  0  0
  127.1801  127.9560   67.2468 H   0  0  0  0  0  0  0  0  0  0  0  0
  124.7132  128.1704   66.9780 H   0  0  0  0  0  0  0  0  0  0  0  0
  123.7595  129.6097   65.1832 H   0  0  0  0  0  0  0  0  0  0  0  0
  125.2855  130.8498   63.6446 H   0  0  0  0  0  0  0  0  0  0  0  0
  131.6760  128.3262   61.2233 H   0  0  0  0  0  0  0  0  0  0  0  0
  130.2856  128.9347   62.2027 H   0  0  0  0  0  0  0  0  0  0  0  0
  131.5296  127.1769   63.4408 H   0  0  0  0  0  0  0  0  0  0  0  0
  129.8613  126.6252   63.0274 H   0  0  0  0  0  0  0  0  0  0  0  0
  130.6306  124.2748   63.1282 H   0  0  0  0  0  0  0  0  0  0  0  0
  134.1886  124.3665   62.0107 H   0  0  0  0  0  0  0  0  0  0  0  0
  135.3812  122.4359   60.9964 H   0  0  0  0  0  0  0  0  0  0  0  0
  134.1704  120.2925   60.5950 H   0  0  0  0  0  0  0  0  0  0  0  0
  131.7622  120.0959   61.1874 H   0  0  0  0  0  0  0  0  0  0  0  0
  130.3321  126.8963   65.6792 H   0  0  0  0  0  0  0  0  0  0  0  0
  129.8328  125.4548   64.7167 H   0  0  0  0  0  0  0  0  0  0  0  0
  129.1254  124.5100   66.6376 H   0  0  0  0  0  0  0  0  0  0  0  0
  130.8685  124.4350   67.1450 H   0  0  0  0  0  0  0  0  0  0  0  0
  130.8105  127.7032   67.0239 H   0  0  0  0  0  0  0  0  0  0  0  0
  130.3475  129.2977   68.8867 H   0  0  0  0  0  0  0  0  0  0  0  0
  129.0461  128.5400   70.8724 H   0  0  0  0  0  0  0  0  0  0  0  0
  128.2004  126.2000   71.0078 H   0  0  0  0  0  0  0  0  0  0  0  0
  128.6595  124.6045   69.1455 H   0  0  0  0  0  0  0  0  0  0  0  0
  130.8547  124.5000   60.2933 H   0  0  0  0  0  0  0  0  0  0  0  0
  129.4858  125.1468   61.2734 H   0  0  0  0  0  0  0  0  0  0  0  0
  131.3155  126.8210   59.4567 H   0  0  0  0  0  0  0  0  0  0  0  0
  129.6464  126.2725   59.0473 H   0  0  0  0  0  0  0  0  0  0  0  0
  1  2  1  0
  2  3  2  0
  3  4  1  0
  4  5  2  0
  5  6  1  0
  6  7  2  0
  7  8  1  0
  8  9  1  0
  9 10  2  0
 10 11  1  0
 11 12  2  0
 12 13  1  0
 13 14  1  0
 14 15  1  0
 15 16  1  0
 16 17  2  0
 17 18  1  0
 18 19  2  0
 19 20  1  0
 20 21  2  0
  8 22  1  0
 22 23  1  0
 23 24  1  0
 24 25  1  0
 25 26  1  0
 26 27  1  0
 27 28  2  0
 28 29  1  0
 29 30  2  0
 30 31  1  0
 31 32  2  0
 32 33  1  0
 26 34  1  0
 34 35  2  0
 35 36  1  0
 36 37  2  0
 37 38  1  0
 38 39  1  0
 39 40  1  0
 40 41  1  0
 41 42  2  0
 42 43  1  0
 43 44  2  0
 44 45  1  0
 45 46  2  0
 25 47  1  0
 47 48  1  0
  7  2  1  0
 13  9  1  0
 21 16  1  0
 48 22  1  0
 32 27  1  0
 38 34  1  0
 46 41  1  0
  3 49  1  0
  4 50  1  0
  5 51  1  0
  6 52  1  0
  8 53  1  6
 14 54  1  0
 14 55  1  0
 15 56  1  0
 15 57  1  0
 17 58  1  0
 18 59  1  0
 19 60  1  0
 20 61  1  0
 21 62  1  0
 23 63  1  0
 23 64  1  0
 24 65  1  0
 24 66  1  0
 26 67  1  1
 28 68  1  0
 29 69  1  0
 30 70  1  0
 31 71  1  0
 39 72  1  0
 39 73  1  0
 40 74  1  0
 40 75  1  0
 42 76  1  0
 43 77  1  0
 44 78  1  0
 45 79  1  0
 46 80  1  0
 47 81  1  0
 47 82  1  0
 48 83  1  0
 48 84  1  0
M  END
>  <Binding energies>  (1) 
[-12.26]

>  <Ligand effiencies>  (1) 
[-0.2554166666666667]

>  <Interactions>  (1) 
["V-A:ILE:369:CG2:3236, V-A:LEU:475:CD1:4257, V-B:ALA:541:CB:9864, V-A:ARG:545:CZ:4926, V-B:GLU:543:CB:9878, V-A:GLU:543:CB:4906, V-A:HIS:456:CE1:4069, V-B:HIS:456:CE1:9041, V-B:ARG:545:CZ:9898, H-A:TYR:484:OH:4347, H-A:ALA:541:N:4891, H-A:GLY:454:N:4049, V-A:ALA:541:CB:4892, V-A:GLU:543:C:4902, V-B:GLU:543:CG:9879, V-A:GLU:543:CD:4908, V-A:GLU:543:CG:4907, V-B:GLU:543:C:9874, V-A:ILE:369:CD1:3238, V-A:TYR:484:CE2:4345, V-A:TYR:484:CZ:4346, V-B:ASP:366:CB:8183, V-A:TYR:539:CE1:4875, V-B:ASP:366:CG:8184, H-A:ARG:545:NH2:4928, H-A:ARG:545:NE:4924, V-A:TYR:539:CZ:4877, V-B:ARG:545:CD:9895, V-B:ARG:545:CG:9894"]

$$$$
RR14_Rahimova_2017
     RDKit          3D

 76 80  0  0  0  0  0  0  0  0999 V2000
  131.0040  117.5950   60.3800 C   0  0  0  0  0  0  0  0  0  0  0  0
  132.3360  117.9870   60.6970 O   0  0  0  0  0  0  0  0  0  0  0  0
  132.6090  119.3220   60.9200 C   0  0  0  0  0  0  0  0  0  0  0  0
  131.6250  120.2330   60.5320 C   0  0  0  0  0  0  0  0  0  0  0  0
  131.8220  121.6000   60.6950 C   0  0  0  0  0  0  0  0  0  0  0  0
  133.0150  122.0730   61.2470 C   0  0  0  0  0  0  0  0  0  0  0  0
  133.2610  123.5720   61.3670 C   0  0  0  0  0  0  0  0  0  0  0  0
  133.0980  124.0790   62.7290 N   0  0  0  0  0  0  0  0  0  0  0  0
  134.1170  124.6790   63.3540 N   0  0  0  0  0  0  0  0  0  0  0  0
  133.6250  124.9940   64.6060 N   0  0  0  0  0  0  0  0  0  0  0  0
  132.3050  124.5690   64.7210 N   0  0  0  0  0  0  0  0  0  0  0  0
  132.0090  124.0100   63.5720 C   0  0  0  0  0  0  0  0  0  0  0  0
  130.6720  123.3690   63.2270 C   0  0  0  0  0  0  0  0  0  0  0  0
  129.7210  124.3310   62.6450 N   0  0  0  0  0  0  0  0  0  0  0  0
  128.4530  123.6910   62.2700 C   0  0  0  0  0  0  0  0  0  0  0  0
  128.6340  122.4650   61.3480 C   0  0  0  0  0  0  0  0  0  0  0  0
  128.7600  122.8270   59.8540 C   0  0  0  0  0  0  0  0  0  0  0  0
  127.4650  123.0020   59.1870 N   0  0  0  0  0  0  0  0  0  0  0  0
  127.5950  122.7530   57.7460 C   0  0  0  0  0  0  0  0  0  0  0  0
  126.2600  122.9790   57.0060 C   0  0  0  0  0  0  0  0  0  0  0  0
  125.7600  124.2830   57.2860 O   0  0  0  0  0  0  0  0  0  0  0  0
  125.5270  124.4840   58.6750 C   0  0  0  0  0  0  0  0  0  0  0  0
  126.8410  124.3050   59.4660 C   0  0  0  0  0  0  0  0  0  0  0  0
  129.4810  125.4360   63.5840 C   0  0  0  0  0  0  0  0  0  0  0  0
  129.6170  126.8450   63.0110 C   0  0  0  0  0  0  0  0  0  0  0  0
  128.6640  127.7840   63.2300 C   0  0  0  0  0  0  0  0  0  0  0  0
  128.7510  129.1410   62.6540 C   0  0  0  0  0  0  0  0  0  0  0  0
  127.7930  130.1450   62.8770 C   0  0  0  0  0  0  0  0  0  0  0  0
  126.5680  129.8990   63.7490 C   0  0  0  0  0  0  0  0  0  0  0  0
  127.9710  131.3980   62.2860 C   0  0  0  0  0  0  0  0  0  0  0  0
  129.0830  131.6560   61.4860 C   0  0  0  0  0  0  0  0  0  0  0  0
  130.0430  130.6650   61.2600 C   0  0  0  0  0  0  0  0  0  0  0  0
  131.2480  130.9790   60.3820 C   0  0  0  0  0  0  0  0  0  0  0  0
  129.8740  129.4030   61.8480 C   0  0  0  0  0  0  0  0  0  0  0  0
  130.8150  128.3710   61.6460 N   0  0  0  0  0  0  0  0  0  0  0  0
  130.7750  127.1140   62.1530 C   0  0  0  0  0  0  0  0  0  0  0  0
  131.6620  126.3040   61.8820 O   0  0  0  0  0  0  0  0  0  0  0  0
  133.9930  121.1690   61.6660 C   0  0  0  0  0  0  0  0  0  0  0  0
  133.7950  119.8010   61.5010 C   0  0  0  0  0  0  0  0  0  0  0  0
  130.4396  117.4289   61.3095 H   0  0  0  0  0  0  0  0  0  0  0  0
  130.5182  118.3883   59.7928 H   0  0  0  0  0  0  0  0  0  0  0  0
  131.0254  116.6651   59.7928 H   0  0  0  0  0  0  0  0  0  0  0  0
  130.6853  119.8663   60.0934 H   0  0  0  0  0  0  0  0  0  0  0  0
  131.0384  122.3089   60.3893 H   0  0  0  0  0  0  0  0  0  0  0  0
  134.2883  123.7845   61.0362 H   0  0  0  0  0  0  0  0  0  0  0  0
  132.5104  124.0759   60.7404 H   0  0  0  0  0  0  0  0  0  0  0  0
  130.8448  122.5604   62.5015 H   0  0  0  0  0  0  0  0  0  0  0  0
  130.2329  122.9867   64.1603 H   0  0  0  0  0  0  0  0  0  0  0  0
  127.9423  123.3646   63.1879 H   0  0  0  0  0  0  0  0  0  0  0  0
  127.8669  124.4347   61.7102 H   0  0  0  0  0  0  0  0  0  0  0  0
  129.5459  121.9315   61.6543 H   0  0  0  0  0  0  0  0  0  0  0  0
  127.7307  121.8464   61.4542 H   0  0  0  0  0  0  0  0  0  0  0  0
  129.3260  123.7664   59.7691 H   0  0  0  0  0  0  0  0  0  0  0  0
  129.2707  121.9884   59.3580 H   0  0  0  0  0  0  0  0  0  0  0  0
  128.3518  123.4360   57.3329 H   0  0  0  0  0  0  0  0  0  0  0  0
  127.8926  121.7035   57.6044 H   0  0  0  0  0  0  0  0  0  0  0  0
  126.4224  122.8764   55.9229 H   0  0  0  0  0  0  0  0  0  0  0  0
  125.5283  122.2318   57.3471 H   0  0  0  0  0  0  0  0  0  0  0  0
  125.1417  125.5017   58.8355 H   0  0  0  0  0  0  0  0  0  0  0  0
  124.7920  123.7451   59.0269 H   0  0  0  0  0  0  0  0  0  0  0  0
  127.5409  125.1047   59.1820 H   0  0  0  0  0  0  0  0  0  0  0  0
  126.6068  124.3527   60.5397 H   0  0  0  0  0  0  0  0  0  0  0  0
  128.4583  125.3292   63.9746 H   0  0  0  0  0  0  0  0  0  0  0  0
  130.2671  125.3505   64.3487 H   0  0  0  0  0  0  0  0  0  0  0  0
  127.7977  127.5267   63.8572 H   0  0  0  0  0  0  0  0  0  0  0  0
  126.8551  129.9567   64.8093 H   0  0  0  0  0  0  0  0  0  0  0  0
  125.8054  130.6619   63.5336 H   0  0  0  0  0  0  0  0  0  0  0  0
  126.1591  128.9008   63.5336 H   0  0  0  0  0  0  0  0  0  0  0  0
  127.2258  132.1896   62.4536 H   0  0  0  0  0  0  0  0  0  0  0  0
  129.2064  132.6486   61.0282 H   0  0  0  0  0  0  0  0  0  0  0  0
  132.1163  131.2053   61.0183 H   0  0  0  0  0  0  0  0  0  0  0  0
  131.4753  130.1101   59.7469 H   0  0  0  0  0  0  0  0  0  0  0  0
  131.0224  131.8483   59.7469 H   0  0  0  0  0  0  0  0  0  0  0  0
  131.6120  128.5620   61.0590 H   0  0  0  0  0  0  0  0  0  0  0  0
  134.9210  121.5381   62.1270 H   0  0  0  0  0  0  0  0  0  0  0  0
  134.5704  119.0921   61.8269 H   0  0  0  0  0  0  0  0  0  0  0  0
  1  2  1  0
  2  3  1  0
  3  4  2  0
  4  5  1  0
  5  6  2  0
  6  7  1  0
  7  8  1  0
  8  9  1  0
  9 10  2  0
 10 11  1  0
 11 12  2  0
 12 13  1  0
 13 14  1  0
 14 15  1  0
 15 16  1  0
 16 17  1  0
 17 18  1  0
 18 19  1  0
 19 20  1  0
 20 21  1  0
 21 22  1  0
 22 23  1  0
 14 24  1  0
 24 25  1  0
 25 26  2  0
 26 27  1  0
 27 28  2  0
 28 29  1  0
 28 30  1  0
 30 31  2  0
 31 32  1  0
 32 33  1  0
 32 34  2  0
 34 35  1  0
 35 36  1  0
 36 37  2  0
  6 38  1  0
 38 39  2  0
 39  3  1  0
 12  8  1  0
 23 18  1  0
 36 25  1  0
 34 27  1  0
  1 40  1  0
  1 41  1  0
  1 42  1  0
  4 43  1  0
  5 44  1  0
  7 45  1  0
  7 46  1  0
 13 47  1  0
 13 48  1  0
 15 49  1  0
 15 50  1  0
 16 51  1  0
 16 52  1  0
 17 53  1  0
 17 54  1  0
 19 55  1  0
 19 56  1  0
 20 57  1  0
 20 58  1  0
 22 59  1  0
 22 60  1  0
 23 61  1  0
 23 62  1  0
 24 63  1  0
 24 64  1  0
 26 65  1  0
 29 66  1  0
 29 67  1  0
 29 68  1  0
 30 69  1  0
 31 70  1  0
 33 71  1  0
 33 72  1  0
 33 73  1  0
 35 74  1  0
 38 75  1  0
 39 76  1  0
M  END
>  <Binding energies>  (1) 
[-10.31]

>  <Ligand effiencies>  (1) 
[-0.25775000000000003]

>  <Interactions>  (1) 
["V-A:ILE:369:CG2:3236, V-B:TYR:539:CE2:9848, V-B:PRO:540:N:9856, V-B:TYR:539:CD2:9846, V-B:PRO:540:CA:9855, V-A:PRO:482:CG:4326, V-B:MET:535:CE:9807, V-A:LEU:475:CD1:4257, H-B:TYR:531:OH:9767, V-A:SER:385:CA:3406, V-A:SER:385:C:3404, V-B:TYR:539:C:9839, V-B:ALA:541:CB:9864, V-B:GLU:543:CD:9880, V-A:HIS:383:CE1:3392, H-A:TYR:484:OH:4347, H-A:GLY:454:N:4049, V-A:ALA:541:CB:4892, V-A:GLU:543:CD:4908, H-A:ARG:545:NH1:4927, V-A:ILE:369:CD1:3238, V-A:PRO:540:CA:4883, H-A:GLU:543:OE2:4910, H-A:ARG:545:NH2:4928, H-A:ARG:545:NE:4924, H-A:ASP:366:OD2:3214, V-A:PRO:540:CB:4885, H-A:HIS:383:NE2:3393, H-A:SER:385:OG:3409"]

$$$$
RR15_Rahimova_2017
     RDKit          3D

 85 89  0  0  0  0  0  0  0  0999 V2000
  126.8140  127.4000   75.7370 C   0  0  0  0  0  0  0  0  0  0  0  0
  128.1340  127.7220   75.3100 O   0  0  0  0  0  0  0  0  0  0  0  0
  128.4580  127.6250   73.9680 C   0  0  0  0  0  0  0  0  0  0  0  0
  128.3890  126.4290   73.2360 C   0  0  0  0  0  0  0  0  0  0  0  0
  128.7330  126.4000   71.8860 C   0  0  0  0  0  0  0  0  0  0  0  0
  129.1560  127.5600   71.2300 C   0  0  0  0  0  0  0  0  0  0  0  0
  129.5330  127.5270   69.7750 C   0  0  0  0  0  0  0  0  0  0  0  0
  130.4840  128.2940   69.2590 N   0  0  0  0  0  0  0  0  0  0  0  0
  130.5320  127.9900   67.9140 N   0  0  0  0  0  0  0  0  0  0  0  0
  129.6180  127.0300   67.7760 N   0  0  0  0  0  0  0  0  0  0  0  0
  129.2200  126.5220   66.4640 C   0  0  0  0  0  0  0  0  0  0  0  0
  129.6380  125.0570   66.1810 C   0  0  0  0  0  0  0  0  0  0  0  0
  129.4890  124.2250   67.0790 O   0  0  0  0  0  0  0  0  0  0  0  0
  130.1260  124.7180   64.9490 N   0  0  0  0  0  0  0  0  0  0  0  0
  130.1910  123.3100   64.5100 C   0  0  0  0  0  0  0  0  0  0  0  0
  128.9380  122.8450   63.7360 C   0  0  0  0  0  0  0  0  0  0  0  0
  129.2190  122.2770   62.3260 C   0  0  0  0  0  0  0  0  0  0  0  0
  128.0710  122.3540   61.4180 N   0  0  0  0  0  0  0  0  0  0  0  0
  127.0180  123.2720   61.8790 C   0  0  0  0  0  0  0  0  0  0  0  0
  125.8740  123.3820   60.8480 C   0  0  0  0  0  0  0  0  0  0  0  0
  126.3930  123.7520   59.5750 O   0  0  0  0  0  0  0  0  0  0  0  0
  127.3370  122.8090   59.0790 C   0  0  0  0  0  0  0  0  0  0  0  0
  128.5230  122.6860   60.0600 C   0  0  0  0  0  0  0  0  0  0  0  0
  130.4450  125.7210   63.8860 C   0  0  2  0  0  0  0  0  0  0  0  0
  129.1900  126.3270   63.1860 C   0  0  0  0  0  0  0  0  0  0  0  0
  128.6400  125.7450   62.2510 O   0  0  0  0  0  0  0  0  0  0  0  0
  128.7410  127.4870   63.6980 N   0  0  0  0  0  0  0  0  0  0  0  0
  127.5320  128.1840   63.2760 C   0  0  0  0  0  0  0  0  0  0  0  0
  126.7330  128.6960   64.4890 C   0  0  2  0  0  0  0  0  0  0  0  0
  126.3300  130.1810   64.4350 C   0  0  0  0  0  0  0  0  0  0  0  0
  127.3240  130.8760   65.3330 C   0  0  0  0  0  0  0  0  0  0  0  0
  127.5700  129.8110   66.3870 C   0  0  0  0  0  0  0  0  0  0  0  0
  127.6200  128.6170   65.6130 O   0  0  0  0  0  0  0  0  0  0  0  0
  131.5730  125.2170   62.9930 C   0  0  0  0  0  0  0  0  0  0  0  0
  132.8390  125.0400   63.5640 C   0  0  0  0  0  0  0  0  0  0  0  0
  133.9060  124.5840   62.7970 C   0  0  0  0  0  0  0  0  0  0  0  0
  133.7140  124.2980   61.4480 C   0  0  0  0  0  0  0  0  0  0  0  0
  134.7510  123.8530   60.7020 F   0  0  0  0  0  0  0  0  0  0  0  0
  132.4620  124.4660   60.8620 C   0  0  0  0  0  0  0  0  0  0  0  0
  131.3960  124.9240   61.6310 C   0  0  0  0  0  0  0  0  0  0  0  0
  128.9450  126.7380   68.8950 N   0  0  0  0  0  0  0  0  0  0  0  0
  129.2210  128.7530   71.9630 C   0  0  0  0  0  0  0  0  0  0  0  0
  128.8750  128.7990   73.3240 C   0  0  0  0  0  0  0  0  0  0  0  0
  128.9200  129.9520   74.0880 O   0  0  0  0  0  0  0  0  0  0  0  0
  128.2080  131.1080   73.6600 C   0  0  0  0  0  0  0  0  0  0  0  0
  126.7762  127.3908   76.8363 H   0  0  0  0  0  0  0  0  0  0  0  0
  126.1103  128.1528   75.3522 H   0  0  0  0  0  0  0  0  0  0  0  0
  126.5360  126.4077   75.3522 H   0  0  0  0  0  0  0  0  0  0  0  0
  128.0598  125.5048   73.7335 H   0  0  0  0  0  0  0  0  0  0  0  0
  128.6710  125.4531   71.3297 H   0  0  0  0  0  0  0  0  0  0  0  0
  128.1243  126.5857   66.3902 H   0  0  0  0  0  0  0  0  0  0  0  0
  129.7415  127.1423   65.7202 H   0  0  0  0  0  0  0  0  0  0  0  0
  131.0678  123.1896   63.8568 H   0  0  0  0  0  0  0  0  0  0  0  0
  130.2573  122.6920   65.4175 H   0  0  0  0  0  0  0  0  0  0  0  0
  128.4418  122.0615   64.3276 H   0  0  0  0  0  0  0  0  0  0  0  0
  128.3151  123.7398   63.5902 H   0  0  0  0  0  0  0  0  0  0  0  0
  130.0505  122.8446   61.8828 H   0  0  0  0  0  0  0  0  0  0  0  0
  129.4573  121.2105   62.4517 H   0  0  0  0  0  0  0  0  0  0  0  0
  126.6085  122.8984   62.8291 H   0  0  0  0  0  0  0  0  0  0  0  0
  127.4623  124.2697   62.0102 H   0  0  0  0  0  0  0  0  0  0  0  0
  125.3655  122.4102   60.7645 H   0  0  0  0  0  0  0  0  0  0  0  0
  125.1621  124.1510   61.1826 H   0  0  0  0  0  0  0  0  0  0  0  0
  126.8504  121.8285   58.9705 H   0  0  0  0  0  0  0  0  0  0  0  0
  127.7096  123.1497   58.1017 H   0  0  0  0  0  0  0  0  0  0  0  0
  129.1987  121.8938   59.7053 H   0  0  0  0  0  0  0  0  0  0  0  0
  129.0398  123.6563   60.0976 H   0  0  0  0  0  0  0  0  0  0  0  0
  130.8546  126.6234   64.3634 H   0  0  0  0  0  0  0  0  0  0  0  0
  129.2320  127.8870   64.4850 H   0  0  0  0  0  0  0  0  0  0  0  0
  127.8129  129.0395   62.6442 H   0  0  0  0  0  0  0  0  0  0  0  0
  126.9008  127.4789   62.7153 H   0  0  0  0  0  0  0  0  0  0  0  0
  125.8151  128.0912   64.5297 H   0  0  0  0  0  0  0  0  0  0  0  0
  126.3999  130.5656   63.4068 H   0  0  0  0  0  0  0  0  0  0  0  0
  125.2908  130.3440   64.7567 H   0  0  0  0  0  0  0  0  0  0  0  0
  128.2480  131.1277   64.7918 H   0  0  0  0  0  0  0  0  0  0  0  0
  126.9707  131.8361   65.7373 H   0  0  0  0  0  0  0  0  0  0  0  0
  128.5207  129.9841   66.9126 H   0  0  0  0  0  0  0  0  0  0  0  0
  126.8041  129.7901   67.1763 H   0  0  0  0  0  0  0  0  0  0  0  0
  132.9914  125.2639   64.6301 H   0  0  0  0  0  0  0  0  0  0  0  0
  134.8974  124.4499   63.2543 H   0  0  0  0  0  0  0  0  0  0  0  0
  132.3160  124.2377   59.7959 H   0  0  0  0  0  0  0  0  0  0  0  0
  130.4071  125.0575   61.1682 H   0  0  0  0  0  0  0  0  0  0  0  0
  129.5506  129.6746   71.4610 H   0  0  0  0  0  0  0  0  0  0  0  0
  127.8611  131.6712   74.5389 H   0  0  0  0  0  0  0  0  0  0  0  0
  128.8711  131.7440   73.0552 H   0  0  0  0  0  0  0  0  0  0  0  0
  127.3416  130.8020   73.0552 H   0  0  0  0  0  0  0  0  0  0  0  0
  1  2  1  0
  2  3  1  0
  3  4  2  0
  4  5  1  0
  5  6  2  0
  6  7  1  0
  7  8  1  0
  8  9  2  0
  9 10  1  0
 10 11  1  0
 11 12  1  0
 12 13  2  0
 12 14  1  0
 14 15  1  0
 15 16  1  0
 16 17  1  0
 17 18  1  0
 18 19  1  0
 19 20  1  0
 20 21  1  0
 21 22  1  0
 22 23  1  0
 14 24  1  0
 24 25  1  0
 25 26  2  0
 25 27  1  0
 27 28  1  0
 28 29  1  0
 29 30  1  0
 30 31  1  0
 31 32  1  0
 32 33  1  0
 24 34  1  0
 34 35  2  0
 35 36  1  0
 36 37  2  0
 37 38  1  0
 37 39  1  0
 39 40  2  0
 10 41  1  0
  6 42  1  0
 42 43  2  0
 43 44  1  0
 44 45  1  0
 43  3  1  0
 41  7  2  0
 23 18  1  0
 33 29  1  0
 40 34  1  0
  1 46  1  0
  1 47  1  0
  1 48  1  0
  4 49  1  0
  5 50  1  0
 11 51  1  0
 11 52  1  0
 15 53  1  0
 15 54  1  0
 16 55  1  0
 16 56  1  0
 17 57  1  0
 17 58  1  0
 19 59  1  0
 19 60  1  0
 20 61  1  0
 20 62  1  0
 22 63  1  0
 22 64  1  0
 23 65  1  0
 23 66  1  0
 24 67  1  1
 27 68  1  0
 28 69  1  0
 28 70  1  0
 29 71  1  1
 30 72  1  0
 30 73  1  0
 31 74  1  0
 31 75  1  0
 32 76  1  0
 32 77  1  0
 35 78  1  0
 36 79  1  0
 39 80  1  0
 40 81  1  0
 42 82  1  0
 45 83  1  0
 45 84  1  0
 45 85  1  0
M  END
>  <Binding energies>  (1) 
[-8.29]

>  <Ligand effiencies>  (1) 
[-0.1802173913043478]

>  <Interactions>  (1) 
["V-B:PRO:540:CB:9857, V-A:ILE:369:CG2:3236, V-B:PRO:540:N:9856, V-B:PRO:540:CA:9855, H-B:ALA:541:N:9863, V-B:TYR:539:C:9839, V-B:ALA:541:CB:9864, V-B:GLU:543:CD:9880, V-A:ARG:545:CZ:4926, V-A:GLY:453:CA:4043, V-B:GLU:543:CB:9878, V-A:GLY:453:C:4041, V-A:HIS:456:CE1:4069, V-B:HIS:456:CE1:9041, H-A:TYR:484:OH:4347, V-B:TYR:484:CZ:9318, H-A:GLU:543:OE1:4909, V-B:TYR:484:CE2:9317, V-B:GLU:543:CG:9879, V-A:GLU:543:CD:4908, V-A:GLU:543:CG:4907, V-A:ASP:366:CG:3212, H-B:GLU:543:OE2:9882, V-A:ILE:369:CD1:3238, V-B:HIS:456:CD2:9039, V-A:TYR:484:CE2:4345, V-A:ASP:366:CB:3211, V-A:ASP:366:CA:3209, V-A:ILE:369:CB:3235, H-A:GLU:543:OE2:4910, H-A:LYS:547:NZ:4951"]

$$$$
RR16_Rahimova_2017
     RDKit          3D

 80 85  0  0  0  0  0  0  0  0999 V2000
  126.3380  131.4230   59.9970 O   0  0  0  0  0  0  0  0  0  0  0  0
  127.4850  130.5400   60.2370 S   0  0  0  0  0  0  0  0  0  0  0  0
  128.1680  130.5290   61.5360 O   0  0  0  0  0  0  0  0  0  0  0  0
  128.6860  130.8750   58.9890 N   0  0  0  0  0  0  0  0  0  0  0  0
  130.1150  130.5420   59.1980 C   0  0  0  0  0  0  0  0  0  0  0  0
  130.8650  130.6490   57.8450 C   0  0  0  0  0  0  0  0  0  0  0  0
  132.2700  131.2810   57.8640 C   0  0  0  0  0  0  0  0  0  0  0  0
  133.2650  130.5660   58.7950 C   0  0  0  0  0  0  0  0  0  0  0  0
  133.2520  131.0190   60.2680 C   0  0  0  0  0  0  0  0  0  0  0  0
  131.9230  130.8780   61.0360 C   0  0  0  0  0  0  0  0  0  0  0  0
  130.6630  131.4280   60.3400 C   0  0  0  0  0  0  0  0  0  0  0  0
  126.9360  128.8730   59.8910 C   0  0  0  0  0  0  0  0  0  0  0  0
  127.4490  127.7960   60.6180 C   0  0  0  0  0  0  0  0  0  0  0  0
  127.1080  126.4960   60.2570 C   0  0  0  0  0  0  0  0  0  0  0  0
  126.2550  126.2780   59.1730 C   0  0  0  0  0  0  0  0  0  0  0  0
  125.9260  124.6060   58.6200 S   0  0  0  0  0  0  0  0  0  0  0  0
  125.9480  124.6170   57.1510 O   0  0  0  0  0  0  0  0  0  0  0  0
  124.7380  124.1300   59.3390 O   0  0  0  0  0  0  0  0  0  0  0  0
  127.3260  123.6770   59.1900 N   0  0  0  0  0  0  0  0  0  0  0  0
  127.2550  123.2720   60.6180 C   0  0  0  0  0  0  0  0  0  0  0  0
  128.6260  122.7550   61.1010 C   0  0  0  0  0  0  0  0  0  0  0  0
  129.1740  121.6360   60.1820 C   0  0  0  0  0  0  0  0  0  0  0  0
  130.5560  121.1410   60.6170 C   0  0  0  0  0  0  0  0  0  0  0  0
  130.8270  119.7650   60.6400 C   0  0  0  0  0  0  0  0  0  0  0  0
  132.0750  119.2710   61.0220 C   0  0  0  0  0  0  0  0  0  0  0  0
  132.3230  117.9220   61.0340 O   0  0  0  0  0  0  0  0  0  0  0  0
  133.0680  120.1910   61.3880 C   0  0  0  0  0  0  0  0  0  0  0  0
  134.3620  120.0050   61.7810 N   0  0  0  0  0  0  0  0  0  0  0  0
  134.9140  121.2490   61.9940 N   0  0  0  0  0  0  0  0  0  0  0  0
  133.9640  122.1790   61.7780 N   0  0  0  0  0  0  0  0  0  0  0  0
  134.2950  123.5960   61.8490 C   0  0  0  0  0  0  0  0  0  0  0  0
  133.2080  124.4210   62.5230 C   0  0  0  0  0  0  0  0  0  0  0  0
  132.9610  124.2710   63.8920 C   0  0  0  0  0  0  0  0  0  0  0  0
  131.9790  125.0420   64.5170 C   0  0  0  0  0  0  0  0  0  0  0  0
  131.2410  125.9670   63.7770 C   0  0  0  0  0  0  0  0  0  0  0  0
  131.4840  126.1220   62.4120 C   0  0  0  0  0  0  0  0  0  0  0  0
  130.5800  127.2720   61.4960 Cl  0  0  0  0  0  0  0  0  0  0  0  0
  132.4630  125.3480   61.7860 C   0  0  0  0  0  0  0  0  0  0  0  0
  132.7850  121.5770   61.3700 C   0  0  0  0  0  0  0  0  0  0  0  0
  131.5330  122.0740   60.9910 C   0  0  0  0  0  0  0  0  0  0  0  0
  129.1220  122.0280   58.6820 C   0  0  0  0  0  0  0  0  0  0  0  0
  127.7390  122.5780   58.2790 C   0  0  0  0  0  0  0  0  0  0  0  0
  125.7090  127.3570   58.4740 C   0  0  0  0  0  0  0  0  0  0  0  0
  126.0540  128.6560   58.8320 C   0  0  0  0  0  0  0  0  0  0  0  0
  128.3580  130.8930   58.0200 H   0  0  0  0  0  0  0  0  0  0  0  0
  130.2660  129.5033   59.5272 H   0  0  0  0  0  0  0  0  0  0  0  0
  130.9662  129.6306   57.4419 H   0  0  0  0  0  0  0  0  0  0  0  0
  130.2554  131.3341   57.2376 H   0  0  0  0  0  0  0  0  0  0  0  0
  132.6743  131.2565   56.8413 H   0  0  0  0  0  0  0  0  0  0  0  0
  132.1534  132.3049   58.2487 H   0  0  0  0  0  0  0  0  0  0  0  0
  133.0360  129.4904   58.7710 H   0  0  0  0  0  0  0  0  0  0  0  0
  134.2651  130.8200   58.4139 H   0  0  0  0  0  0  0  0  0  0  0  0
  134.0082  130.4261   60.8034 H   0  0  0  0  0  0  0  0  0  0  0  0
  133.4467  132.1011   60.2339 H   0  0  0  0  0  0  0  0  0  0  0  0
  131.7590  129.8070   61.2257 H   0  0  0  0  0  0  0  0  0  0  0  0
  132.0448  131.4900   61.9419 H   0  0  0  0  0  0  0  0  0  0  0  0
  129.8732  131.5368   61.0979 H   0  0  0  0  0  0  0  0  0  0  0  0
  130.9557  132.3826   59.8784 H   0  0  0  0  0  0  0  0  0  0  0  0
  128.1193  127.9747   61.4717 H   0  0  0  0  0  0  0  0  0  0  0  0
  127.5091  125.6428   60.8237 H   0  0  0  0  0  0  0  0  0  0  0  0
  126.9604  124.1398   61.2263 H   0  0  0  0  0  0  0  0  0  0  0  0
  126.5134  122.4664   60.7232 H   0  0  0  0  0  0  0  0  0  0  0  0
  129.3399  123.5918   61.1079 H   0  0  0  0  0  0  0  0  0  0  0  0
  128.4978  122.3368   62.1103 H   0  0  0  0  0  0  0  0  0  0  0  0
  128.4960  120.7778   60.2995 H   0  0  0  0  0  0  0  0  0  0  0  0
  130.0362  119.0577   60.3497 H   0  0  0  0  0  0  0  0  0  0  0  0
  133.2170  117.7040   61.3080 H   0  0  0  0  0  0  0  0  0  0  0  0
  135.2285  123.7110   62.4194 H   0  0  0  0  0  0  0  0  0  0  0  0
  134.3998  123.9644   60.8178 H   0  0  0  0  0  0  0  0  0  0  0  0
  133.5422  123.5435   64.4776 H   0  0  0  0  0  0  0  0  0  0  0  0
  131.7869  124.9203   65.5932 H   0  0  0  0  0  0  0  0  0  0  0  0
  130.4675  126.5740   64.2702 H   0  0  0  0  0  0  0  0  0  0  0  0
  132.6494  125.4676   60.7085 H   0  0  0  0  0  0  0  0  0  0  0  0
  131.3238  123.1539   60.9867 H   0  0  0  0  0  0  0  0  0  0  0  0
  129.8816  122.8001   58.4897 H   0  0  0  0  0  0  0  0  0  0  0  0
  129.3160  121.1237   58.0864 H   0  0  0  0  0  0  0  0  0  0  0  0
  127.7889  122.9618   57.2493 H   0  0  0  0  0  0  0  0  0  0  0  0
  127.0010  121.7652   58.3475 H   0  0  0  0  0  0  0  0  0  0  0  0
  125.0092  127.1802   57.6440 H   0  0  0  0  0  0  0  0  0  0  0  0
  125.6325  129.5100   58.2816 H   0  0  0  0  0  0  0  0  0  0  0  0
  1  2  2  0
  2  3  2  0
  2  4  1  0
  4  5  1  0
  5  6  1  0
  6  7  1  0
  7  8  1  0
  8  9  1  0
  9 10  1  0
 10 11  1  0
  2 12  1  0
 12 13  2  0
 13 14  1  0
 14 15  2  0
 15 16  1  0
 16 17  2  0
 16 18  2  0
 16 19  1  0
 19 20  1  0
 20 21  1  0
 21 22  1  0
 22 23  1  0
 23 24  2  0
 24 25  1  0
 25 26  1  0
 25 27  2  0
 27 28  1  0
 28 29  2  0
 29 30  1  0
 30 31  1  0
 31 32  1  0
 32 33  2  0
 33 34  1  0
 34 35  2  0
 35 36  1  0
 36 37  1  0
 36 38  2  0
 30 39  1  0
 39 40  2  0
 22 41  1  0
 41 42  1  0
 15 43  1  0
 43 44  2  0
 11  5  1  0
 44 12  1  0
 42 19  1  0
 40 23  1  0
 39 27  1  0
 38 32  1  0
  4 45  1  0
  5 46  1  0
  6 47  1  0
  6 48  1  0
  7 49  1  0
  7 50  1  0
  8 51  1  0
  8 52  1  0
  9 53  1  0
  9 54  1  0
 10 55  1  0
 10 56  1  0
 11 57  1  0
 11 58  1  0
 13 59  1  0
 14 60  1  0
 20 61  1  0
 20 62  1  0
 21 63  1  0
 21 64  1  0
 22 65  1  0
 24 66  1  0
 26 67  1  0
 31 68  1  0
 31 69  1  0
 33 70  1  0
 34 71  1  0
 35 72  1  0
 38 73  1  0
 40 74  1  0
 41 75  1  0
 41 76  1  0
 42 77  1  0
 42 78  1  0
 43 79  1  0
 44 80  1  0
M  END
>  <Binding energies>  (1) 
[-9.87]

>  <Ligand effiencies>  (1) 
[-0.20562499999999997]

>  <Interactions>  (1) 
["V-A:ILE:369:CG2:3236, V-B:TYR:539:CE2:9848, V-B:PRO:540:N:9856, V-B:TYR:539:CZ:9849, V-B:TYR:539:CD2:9846, V-B:PRO:540:CA:9855, V-A:LEU:475:CD1:4257, H-B:TYR:531:OH:9767, V-B:TYR:539:C:9839, V-A:GLY:454:CA:4048, H-A:GLY:454:N:4049, V-A:ASP:366:CG:3212, V-A:ILE:369:CD1:3238, V-A:ASP:366:CB:3211, V-B:ASP:366:CB:8183, V-B:ASP:366:CG:8184, V-A:PRO:540:CA:4883, V-B:TYR:539:CG:9844, V-B:TYR:531:CZ:9766, V-A:PRO:540:CB:4885, V-A:PRO:540:C:4881, V-A:ASN:362:C:3171, V-A:LEU:363:CD1:3188, V-A:ASN:362:CB:3175, V-A:LEU:363:CA:3184, H-A:HIS:383:NE2:3393, H-A:SER:385:OG:3409, H-A:SER:385:O:3405"]

$$$$
RR17_Rahimova_2017
     RDKit          3D

 63 66  0  0  0  0  0  0  0  0999 V2000
  125.1320  123.1190   57.7620 C   0  0  0  0  0  0  0  0  0  0  0  0
  125.6850  122.2960   56.5950 C   0  0  0  0  0  0  0  0  0  0  0  0
  126.9250  121.7150   56.9910 O   0  0  0  0  0  0  0  0  0  0  0  0
  127.9280  122.5290   57.4850 C   0  0  0  0  0  0  0  0  0  0  0  0
  128.7070  122.0020   58.5130 C   0  0  0  0  0  0  0  0  0  0  0  0
  129.7390  122.7480   59.0740 C   0  0  0  0  0  0  0  0  0  0  0  0
  130.0130  124.0440   58.6150 C   0  0  0  0  0  0  0  0  0  0  0  0
  131.1340  124.8250   59.2380 C   0  0  0  0  0  0  0  0  0  0  0  0
  131.0040  125.4290   60.3070 O   0  0  0  0  0  0  0  0  0  0  0  0
  132.4750  124.8600   58.4730 C   0  0  0  0  0  0  0  0  0  0  0  0
  133.6320  123.5670   59.0510 S   0  0  0  0  0  0  0  0  0  0  0  0
  133.3670  123.6800   60.7980 C   0  0  0  0  0  0  0  0  0  0  0  0
  133.5760  124.7480   61.5310 N   0  0  0  0  0  0  0  0  0  0  0  0
  133.2430  124.4360   62.8440 N   0  0  0  0  0  0  0  0  0  0  0  0
  132.8400  123.1900   62.8530 C   0  0  0  0  0  0  0  0  0  0  0  0
  132.3680  122.4450   64.0930 C   0  0  0  0  0  0  0  0  0  0  0  0
  131.0180  122.8040   64.5190 N   0  0  0  0  0  0  0  0  0  0  0  0
  130.0170  123.2580   63.6410 C   0  0  0  0  0  0  0  0  0  0  0  0
  129.9130  124.6340   63.4420 C   0  0  0  0  0  0  0  0  0  0  0  0
  128.9410  125.1510   62.5900 C   0  0  0  0  0  0  0  0  0  0  0  0
  128.0610  124.2930   61.9220 C   0  0  0  0  0  0  0  0  0  0  0  0
  126.9950  124.8770   60.9960 C   0  0  0  0  0  0  0  0  0  0  0  0
  126.2090  125.7560   61.6200 F   0  0  0  0  0  0  0  0  0  0  0  0
  127.5670  125.4980   59.9620 F   0  0  0  0  0  0  0  0  0  0  0  0
  126.2320  123.8880   60.5310 F   0  0  0  0  0  0  0  0  0  0  0  0
  128.1690  122.9120   62.1150 C   0  0  0  0  0  0  0  0  0  0  0  0
  129.1420  122.3960   62.9660 C   0  0  0  0  0  0  0  0  0  0  0  0
  132.9050  122.6460   61.5870 N   0  0  0  0  0  0  0  0  0  0  0  0
  132.5520  121.3470   61.1900 C   0  0  0  0  0  0  0  0  0  0  0  0
  131.2080  120.9730   61.1830 C   0  0  0  0  0  0  0  0  0  0  0  0
  130.8580  119.6840   60.7920 C   0  0  0  0  0  0  0  0  0  0  0  0
  131.8490  118.7660   60.4080 C   0  0  0  0  0  0  0  0  0  0  0  0
  131.5950  117.4690   60.0070 O   0  0  0  0  0  0  0  0  0  0  0  0
  130.2630  117.0920   59.6760 C   0  0  0  0  0  0  0  0  0  0  0  0
  133.1900  119.1580   60.4240 C   0  0  0  0  0  0  0  0  0  0  0  0
  133.5470  120.4460   60.8130 C   0  0  0  0  0  0  0  0  0  0  0  0
  129.2290  124.5730   57.5790 C   0  0  0  0  0  0  0  0  0  0  0  0
  128.1970  123.8240   57.0190 C   0  0  0  0  0  0  0  0  0  0  0  0
  125.4404  122.6601   58.7129 H   0  0  0  0  0  0  0  0  0  0  0  0
  125.5247  124.1450   57.7057 H   0  0  0  0  0  0  0  0  0  0  0  0
  124.0337  123.1431   57.7057 H   0  0  0  0  0  0  0  0  0  0  0  0
  124.9714  121.5013   56.3319 H   0  0  0  0  0  0  0  0  0  0  0  0
  125.8380  122.9440   55.7194 H   0  0  0  0  0  0  0  0  0  0  0  0
  128.5043  120.9867   58.8846 H   0  0  0  0  0  0  0  0  0  0  0  0
  130.3450  122.3171   59.8846 H   0  0  0  0  0  0  0  0  0  0  0  0
  132.2764  124.7051   57.4022 H   0  0  0  0  0  0  0  0  0  0  0  0
  132.9430  125.8387   58.6551 H   0  0  0  0  0  0  0  0  0  0  0  0
  132.3884  121.3664   63.8781 H   0  0  0  0  0  0  0  0  0  0  0  0
  133.0470  122.7244   64.9121 H   0  0  0  0  0  0  0  0  0  0  0  0
  130.8620  122.9280   65.5080 H   0  0  0  0  0  0  0  0  0  0  0  0
  130.6031  125.3152   63.9613 H   0  0  0  0  0  0  0  0  0  0  0  0
  128.8647  126.2383   62.4415 H   0  0  0  0  0  0  0  0  0  0  0  0
  127.4819  122.2306   61.5919 H   0  0  0  0  0  0  0  0  0  0  0  0
  129.2245  121.3085   63.1092 H   0  0  0  0  0  0  0  0  0  0  0  0
  130.4311  121.6912   61.4841 H   0  0  0  0  0  0  0  0  0  0  0  0
  129.8001  119.3828   60.7837 H   0  0  0  0  0  0  0  0  0  0  0  0
  129.6878  116.9292   60.5994 H   0  0  0  0  0  0  0  0  0  0  0  0
  129.7913  117.8919   59.0864 H   0  0  0  0  0  0  0  0  0  0  0  0
  130.2805  116.1635   59.0864 H   0  0  0  0  0  0  0  0  0  0  0  0
  133.9706  118.4424   60.1265 H   0  0  0  0  0  0  0  0  0  0  0  0
  134.6041  120.7501   60.8229 H   0  0  0  0  0  0  0  0  0  0  0  0
  129.4310  125.5879   57.2058 H   0  0  0  0  0  0  0  0  0  0  0  0
  127.5898  124.2504   56.2070 H   0  0  0  0  0  0  0  0  0  0  0  0
  1  2  1  0
  2  3  1  0
  3  4  1  0
  4  5  2  0
  5  6  1  0
  6  7  2  0
  7  8  1  0
  8  9  2  0
  8 10  1  0
 10 11  1  0
 11 12  1  0
 12 13  2  0
 13 14  1  0
 14 15  2  0
 15 16  1  0
 16 17  1  0
 17 18  1  0
 18 19  2  0
 19 20  1  0
 20 21  2  0
 21 22  1  0
 22 23  1  0
 22 24  1  0
 22 25  1  0
 21 26  1  0
 26 27  2  0
 15 28  1  0
 28 29  1  0
 29 30  2  0
 30 31  1  0
 31 32  2  0
 32 33  1  0
 33 34  1  0
 32 35  1  0
 35 36  2  0
  7 37  1  0
 37 38  2  0
 38  4  1  0
 28 12  1  0
 36 29  1  0
 27 18  1  0
  1 39  1  0
  1 40  1  0
  1 41  1  0
  2 42  1  0
  2 43  1  0
  5 44  1  0
  6 45  1  0
 10 46  1  0
 10 47  1  0
 16 48  1  0
 16 49  1  0
 17 50  1  0
 19 51  1  0
 20 52  1  0
 26 53  1  0
 27 54  1  0
 30 55  1  0
 31 56  1  0
 34 57  1  0
 34 58  1  0
 34 59  1  0
 35 60  1  0
 36 61  1  0
 37 62  1  0
 38 63  1  0
M  END
>  <Binding energies>  (1) 
[-7.61]

>  <Ligand effiencies>  (1) 
[-0.19512820512820514]

>  <Interactions>  (1) 
["V-B:PRO:540:CB:9857, V-A:ILE:369:CG2:3236, V-B:TYR:539:CE2:9848, V-B:PRO:540:N:9856, V-B:TYR:539:CZ:9849, V-B:TYR:539:CD2:9846, V-B:PRO:540:CA:9855, V-A:PRO:482:CG:4326, V-B:MET:535:CE:9807, H-B:TYR:539:N:9842, V-A:LEU:475:CD1:4257, V-B:ALA:541:CA:9862, V-B:TYR:539:C:9839, V-B:ALA:541:CB:9864, V-B:GLU:543:CD:9880, V-A:GLY:454:CA:4048, V-A:HIS:383:CE1:3392, H-A:TYR:484:OH:4347, H-A:GLY:454:N:4049, V-B:GLU:543:CG:9879, V-A:ASP:366:CG:3212, V-A:TYR:484:CE2:4345, V-A:ASP:366:CB:3211, V-A:ASP:366:CA:3209, V-A:TYR:484:CZ:4346, V-B:ASP:366:CG:8184, V-B:VAL:344:CG1:7972, V-B:TYR:539:CB:9843, V-B:TYR:539:CA:9841, V-B:PRO:540:CD:9859, V-B:TYR:539:CG:9844, V-B:LEU:363:CD1:8160, H-A:HIS:383:NE2:3393"]

$$$$
RR18_Rahimova_2017
     RDKit          3D

 56 61  0  0  0  0  0  0  0  0999 V2000
  134.7430  124.1880   61.9030 C   0  0  0  0  0  0  0  0  0  0  0  0
  133.6130  124.3290   60.9140 C   0  0  0  0  0  0  0  0  0  0  0  0
  133.5220  124.2470   59.5340 C   0  0  0  0  0  0  0  0  0  0  0  0
  132.1860  124.4740   59.2040 C   0  0  0  0  0  0  0  0  0  0  0  0
  131.5090  124.6850   60.3940 C   0  0  0  0  0  0  0  0  0  0  0  0
  130.0520  124.9750   60.7450 C   0  0  1  0  0  0  0  0  0  0  0  0
  129.5560  124.0760   61.9170 C   0  0  0  0  0  0  0  0  0  0  0  0
  129.4620  122.6290   61.7480 C   0  0  0  0  0  0  0  0  0  0  0  0
  128.3760  122.0470   61.7230 O   0  0  0  0  0  0  0  0  0  0  0  0
  130.6560  122.0080   61.6100 N   0  0  0  0  0  0  0  0  0  0  0  0
  130.9590  120.6390   61.4510 C   0  0  0  0  0  0  0  0  0  0  0  0
  129.9870  119.6220   61.4600 C   0  0  0  0  0  0  0  0  0  0  0  0
  130.3540  118.2870   61.3040 C   0  0  0  0  0  0  0  0  0  0  0  0
  131.6930  117.9450   61.1420 C   0  0  0  0  0  0  0  0  0  0  0  0
  132.6680  118.9390   61.1430 C   0  0  0  0  0  0  0  0  0  0  0  0
  132.3150  120.2840   61.2980 C   0  0  0  0  0  0  0  0  0  0  0  0
  133.4230  121.3340   61.2950 C   0  0  0  0  0  0  0  0  0  0  0  0
  129.3160  124.6570   63.1210 C   0  0  0  0  0  0  0  0  0  0  0  0
  129.3600  125.9970   63.3600 N   0  0  0  0  0  0  0  0  0  0  0  0
  129.5640  126.8050   62.3860 C   0  0  0  0  0  0  0  0  0  0  0  0
  129.4980  128.5470   62.5120 S   0  0  0  0  0  0  0  0  0  0  0  0
  129.8480  128.7380   60.7650 C   0  0  0  0  0  0  0  0  0  0  0  0
  129.9600  129.9190   60.0620 C   0  0  0  0  0  0  0  0  0  0  0  0
  129.7050  131.2050   60.7270 C   0  0  0  0  0  0  0  0  0  0  0  0
  129.4090  131.4470   61.8970 O   0  0  0  0  0  0  0  0  0  0  0  0
  129.8310  132.1630   59.8040 N   0  0  0  0  0  0  0  0  0  0  0  0
  130.1800  131.6790   58.5800 C   0  0  0  0  0  0  0  0  0  0  0  0
  130.4060  132.4000   57.4080 C   0  0  0  0  0  0  0  0  0  0  0  0
  130.7880  131.7130   56.2590 C   0  0  0  0  0  0  0  0  0  0  0  0
  130.9460  130.3290   56.3040 C   0  0  0  0  0  0  0  0  0  0  0  0
  130.7130  129.6280   57.4900 C   0  0  0  0  0  0  0  0  0  0  0  0
  130.3030  130.3020   58.6560 C   0  0  0  0  0  0  0  0  0  0  0  0
  129.9860  127.4030   60.1830 C   0  0  0  0  0  0  0  0  0  0  0  0
  130.1760  127.1390   58.9990 O   0  0  0  0  0  0  0  0  0  0  0  0
  129.8550  126.4220   61.1170 N   0  0  0  0  0  0  0  0  0  0  0  0
  132.3850  124.5960   61.4300 O   0  0  0  0  0  0  0  0  0  0  0  0
  134.3429  124.2379   62.9264 H   0  0  0  0  0  0  0  0  0  0  0  0
  135.2439  123.2204   61.7519 H   0  0  0  0  0  0  0  0  0  0  0  0
  135.4663  125.0029   61.7519 H   0  0  0  0  0  0  0  0  0  0  0  0
  134.3450  124.0423   58.8334 H   0  0  0  0  0  0  0  0  0  0  0  0
  131.7530  124.4836   58.1928 H   0  0  0  0  0  0  0  0  0  0  0  0
  129.4608  124.7489   59.8454 H   0  0  0  0  0  0  0  0  0  0  0  0
  131.4620  122.6120   61.5650 H   0  0  0  0  0  0  0  0  0  0  0  0
  128.9266  119.8834   61.5915 H   0  0  0  0  0  0  0  0  0  0  0  0
  129.5837  117.5018   61.3089 H   0  0  0  0  0  0  0  0  0  0  0  0
  131.9808  116.8911   61.0134 H   0  0  0  0  0  0  0  0  0  0  0  0
  133.7261  118.6642   61.0207 H   0  0  0  0  0  0  0  0  0  0  0  0
  133.6906  121.5876   62.3314 H   0  0  0  0  0  0  0  0  0  0  0  0
  134.3062  120.9336   60.7757 H   0  0  0  0  0  0  0  0  0  0  0  0
  133.0706  122.2374   60.7757 H   0  0  0  0  0  0  0  0  0  0  0  0
  129.0679  123.9967   63.9651 H   0  0  0  0  0  0  0  0  0  0  0  0
  129.7020  133.1440   60.0050 H   0  0  0  0  0  0  0  0  0  0  0  0
  130.2845  133.4931   57.3916 H   0  0  0  0  0  0  0  0  0  0  0  0
  130.9642  132.2595   55.3208 H   0  0  0  0  0  0  0  0  0  0  0  0
  131.2562  129.7849   55.3997 H   0  0  0  0  0  0  0  0  0  0  0  0
  130.8515  128.5370   57.5129 H   0  0  0  0  0  0  0  0  0  0  0  0
  1  2  1  0
  2  3  2  0
  3  4  1  0
  4  5  2  0
  5  6  1  0
  6  7  1  0
  7  8  1  0
  8  9  2  0
  8 10  1  0
 10 11  1  0
 11 12  2  0
 12 13  1  0
 13 14  2  0
 14 15  1  0
 15 16  2  0
 16 17  1  0
  7 18  2  0
 18 19  1  0
 19 20  2  0
 20 21  1  0
 21 22  1  0
 22 23  2  0
 23 24  1  0
 24 25  2  0
 24 26  1  0
 26 27  1  0
 27 28  2  0
 28 29  1  0
 29 30  2  0
 30 31  1  0
 31 32  2  0
 22 33  1  0
 33 34  2  0
 33 35  1  0
  5 36  1  0
 36  2  1  0
 35  6  1  0
 16 11  1  0
 35 20  1  0
 32 23  1  0
 32 27  1  0
  1 37  1  0
  1 38  1  0
  1 39  1  0
  3 40  1  0
  4 41  1  0
  6 42  1  6
 10 43  1  0
 12 44  1  0
 13 45  1  0
 14 46  1  0
 15 47  1  0
 17 48  1  0
 17 49  1  0
 17 50  1  0
 18 51  1  0
 26 52  1  0
 28 53  1  0
 29 54  1  0
 30 55  1  0
 31 56  1  0
M  END
>  <Binding energies>  (1) 
[-8.85]

>  <Ligand effiencies>  (1) 
[-0.23289473684210527]

>  <Interactions>  (1) 
["V-A:ILE:369:CG2:3236, V-A:PRO:482:CG:4326, V-B:PRO:540:C:9853, V-A:PRO:482:CB:4325, V-A:LEU:475:CD1:4257, H-B:ALA:541:N:9863, V-B:ALA:541:CA:9862, V-B:ALA:541:CB:9864, V-B:GLU:543:CD:9880, V-A:GLY:453:CA:4043, V-A:GLY:453:C:4041, H-A:ALA:541:N:4891, V-A:GLU:543:CD:4908, V-A:ASP:366:CG:3212, V-A:ILE:369:CD1:3238, V-A:ASP:366:CB:3211, V-A:ASP:366:CA:3209, V-A:TYR:539:C:4867, V-A:PRO:540:CA:4883, V-A:PRO:540:CB:4885, V-A:PRO:540:N:4884, V-A:PRO:540:C:4881, H-A:TYR:539:O:4868, V-A:PRO:540:CD:4887, V-A:TYR:539:CA:4869"]

$$$$
RR19_Rahimova_2017
     RDKit          3D

 72 77  0  0  0  0  0  0  0  0999 V2000
  132.1290  127.9150   68.3980 O   0  0  0  0  0  0  0  0  0  0  0  0
  131.1560  127.3750   67.8640 C   0  0  0  0  0  0  0  0  0  0  0  0
  131.1980  126.5140   66.8160 N   0  0  0  0  0  0  0  0  0  0  0  0
  132.2230  125.8360   66.2030 C   0  0  0  0  0  0  0  0  0  0  0  0
  133.8070  125.7070   66.7860 S   0  0  0  0  0  0  0  0  0  0  0  0
  131.7490  125.2800   65.0410 N   0  0  0  0  0  0  0  0  0  0  0  0
  132.2840  124.4120   64.1450 C   0  0  0  0  0  0  0  0  0  0  0  0
  133.3210  123.7600   64.2890 O   0  0  0  0  0  0  0  0  0  0  0  0
  131.4780  124.2910   62.8280 C   0  0  2  0  0  0  0  0  0  0  0  0
  130.0090  124.7980   62.9120 C   0  0  0  0  0  0  0  0  0  0  0  0
  129.0750  124.2570   61.8420 C   0  0  0  0  0  0  0  0  0  0  0  0
  129.4670  124.2290   60.4860 C   0  0  0  0  0  0  0  0  0  0  0  0
  128.6330  123.6590   59.5330 C   0  0  0  0  0  0  0  0  0  0  0  0
  127.4190  123.0980   59.9100 C   0  0  0  0  0  0  0  0  0  0  0  0
  127.0340  123.0920   61.2450 C   0  0  0  0  0  0  0  0  0  0  0  0
  127.8540  123.6540   62.2130 C   0  0  0  0  0  0  0  0  0  0  0  0
  131.5500  122.9110   62.2750 N   0  0  0  0  0  0  0  0  0  0  0  0
  130.7880  121.9020   62.7860 C   0  0  0  0  0  0  0  0  0  0  0  0
  130.0020  121.9660   63.7330 O   0  0  0  0  0  0  0  0  0  0  0  0
  131.0990  120.7110   61.9570 C   0  0  0  0  0  0  0  0  0  0  0  0
  130.6230  119.4020   62.0230 C   0  0  0  0  0  0  0  0  0  0  0  0
  131.0930  118.4700   61.0910 C   0  0  0  0  0  0  0  0  0  0  0  0
  132.0230  118.8550   60.1150 C   0  0  0  0  0  0  0  0  0  0  0  0
  132.4880  120.1740   60.0660 C   0  0  0  0  0  0  0  0  0  0  0  0
  132.0070  121.0870   61.0050 C   0  0  0  0  0  0  0  0  0  0  0  0
  132.3000  122.5290   61.1980 C   0  0  0  0  0  0  0  0  0  0  0  0
  133.0530  123.2310   60.5220 O   0  0  0  0  0  0  0  0  0  0  0  0
  129.7270  127.6830   68.3860 C   0  0  2  0  0  0  0  0  0  0  0  0
  129.0980  126.5280   69.2180 C   0  0  0  0  0  0  0  0  0  0  0  0
  129.0760  126.7870   70.7140 C   0  0  0  0  0  0  0  0  0  0  0  0
  128.7220  125.7530   71.6060 C   0  0  0  0  0  0  0  0  0  0  0  0
  128.8010  125.9620   72.9780 C   0  0  0  0  0  0  0  0  0  0  0  0
  129.2530  127.1770   73.4760 C   0  0  0  0  0  0  0  0  0  0  0  0
  129.6410  128.1910   72.6090 C   0  0  0  0  0  0  0  0  0  0  0  0
  129.5690  128.0020   71.2350 C   0  0  0  0  0  0  0  0  0  0  0  0
  128.7980  128.1580   67.3210 N   0  0  0  0  0  0  0  0  0  0  0  0
  128.2640  129.4110   67.3420 C   0  0  0  0  0  0  0  0  0  0  0  0
  128.4390  130.2820   68.1950 O   0  0  0  0  0  0  0  0  0  0  0  0
  127.4290  129.5030   66.1190 C   0  0  0  0  0  0  0  0  0  0  0  0
  126.6440  130.5460   65.6250 C   0  0  0  0  0  0  0  0  0  0  0  0
  125.9530  130.3530   64.4230 C   0  0  0  0  0  0  0  0  0  0  0  0
  126.0560  129.1350   63.7370 C   0  0  0  0  0  0  0  0  0  0  0  0
  126.8500  128.1030   64.2480 C   0  0  0  0  0  0  0  0  0  0  0  0
  127.5290  128.3150   65.4500 C   0  0  0  0  0  0  0  0  0  0  0  0
  128.4310  127.4290   66.2250 C   0  0  0  0  0  0  0  0  0  0  0  0
  128.7770  126.2820   65.9400 O   0  0  0  0  0  0  0  0  0  0  0  0
  130.2840  126.2480   66.4810 H   0  0  0  0  0  0  0  0  0  0  0  0
  130.8630  125.6620   64.7430 H   0  0  0  0  0  0  0  0  0  0  0  0
  131.9718  124.9798   62.1267 H   0  0  0  0  0  0  0  0  0  0  0  0
  129.6051  124.5095   63.8936 H   0  0  0  0  0  0  0  0  0  0  0  0
  130.0526  125.8862   62.7571 H   0  0  0  0  0  0  0  0  0  0  0  0
  130.4335  124.6589   60.1842 H   0  0  0  0  0  0  0  0  0  0  0  0
  128.9348  123.6516   58.4752 H   0  0  0  0  0  0  0  0  0  0  0  0
  126.7597  122.6566   59.1481 H   0  0  0  0  0  0  0  0  0  0  0  0
  126.0745  122.6395   61.5359 H   0  0  0  0  0  0  0  0  0  0  0  0
  127.5522  123.6296   63.2705 H   0  0  0  0  0  0  0  0  0  0  0  0
  129.8932  119.1081   62.7918 H   0  0  0  0  0  0  0  0  0  0  0  0
  130.7315  117.4316   61.1242 H   0  0  0  0  0  0  0  0  0  0  0  0
  132.3885  118.1176   59.3851 H   0  0  0  0  0  0  0  0  0  0  0  0
  133.2173  120.4844   59.3033 H   0  0  0  0  0  0  0  0  0  0  0  0
  129.8709  128.5223   69.0823 H   0  0  0  0  0  0  0  0  0  0  0  0
  128.0627  126.3799   68.8771 H   0  0  0  0  0  0  0  0  0  0  0  0
  129.7273  125.6402   69.0574 H   0  0  0  0  0  0  0  0  0  0  0  0
  128.3836  124.7817   71.2160 H   0  0  0  0  0  0  0  0  0  0  0  0
  128.5043  125.1618   73.6720 H   0  0  0  0  0  0  0  0  0  0  0  0
  129.3041  127.3375   74.5630 H   0  0  0  0  0  0  0  0  0  0  0  0
  130.0065  129.1469   73.0123 H   0  0  0  0  0  0  0  0  0  0  0  0
  129.8965  128.8001   70.5525 H   0  0  0  0  0  0  0  0  0  0  0  0
  126.5699  131.4994   66.1687 H   0  0  0  0  0  0  0  0  0  0  0  0
  125.3268  131.1602   64.0153 H   0  0  0  0  0  0  0  0  0  0  0  0
  125.5102  128.9901   62.7930 H   0  0  0  0  0  0  0  0  0  0  0  0
  126.9378  127.1450   63.7146 H   0  0  0  0  0  0  0  0  0  0  0  0
  1  2  2  0
  2  3  1  0
  3  4  1  0
  4  5  2  0
  4  6  1  0
  6  7  1  0
  7  8  2  0
  7  9  1  0
  9 10  1  0
 10 11  1  0
 11 12  2  0
 12 13  1  0
 13 14  2  0
 14 15  1  0
 15 16  2  0
  9 17  1  0
 17 18  1  0
 18 19  2  0
 18 20  1  0
 20 21  2  0
 21 22  1  0
 22 23  2  0
 23 24  1  0
 24 25  2  0
 25 26  1  0
 26 27  2  0
  2 28  1  0
 28 29  1  0
 29 30  1  0
 30 31  2  0
 31 32  1  0
 32 33  2  0
 33 34  1  0
 34 35  2  0
 28 36  1  0
 36 37  1  0
 37 38  2  0
 37 39  1  0
 39 40  2  0
 40 41  1  0
 41 42  2  0
 42 43  1  0
 43 44  2  0
 44 45  1  0
 45 46  2  0
 16 11  1  0
 26 17  1  0
 35 30  1  0
 45 36  1  0
 25 20  1  0
 44 39  1  0
  3 47  1  0
  6 48  1  0
  9 49  1  6
 10 50  1  0
 10 51  1  0
 12 52  1  0
 13 53  1  0
 14 54  1  0
 15 55  1  0
 16 56  1  0
 21 57  1  0
 22 58  1  0
 23 59  1  0
 24 60  1  0
 28 61  1  1
 29 62  1  0
 29 63  1  0
 31 64  1  0
 32 65  1  0
 33 66  1  0
 34 67  1  0
 35 68  1  0
 40 69  1  0
 41 70  1  0
 42 71  1  0
 43 72  1  0
M  END
>  <Binding energies>  (1) 
[-10.85]

>  <Ligand effiencies>  (1) 
[-0.22604166666666667]

>  <Interactions>  (1) 
["V-B:PRO:540:CB:9857, V-A:ILE:369:CG2:3236, V-B:TYR:539:CE2:9848, V-B:TYR:539:CD2:9846, V-B:PRO:540:CA:9855, V-A:PRO:482:CG:4326, V-A:PRO:482:CB:4325, V-A:LEU:475:CD1:4257, V-B:ALA:541:CB:9864, V-B:GLU:543:CD:9880, V-A:ARG:545:CD:4923, V-A:ARG:545:CZ:4926, V-A:GLU:543:CB:4906, H-B:TYR:484:OH:9319, V-A:HIS:456:CE1:4069, V-A:ARG:545:CG:4922, V-B:HIS:456:CE1:9041, V-B:ARG:545:CZ:9898, H-A:TYR:484:OH:4347, H-A:GLY:454:N:4049, V-B:TYR:484:CZ:9318, H-A:GLU:543:OE1:4909, V-B:TYR:484:CE2:9317, V-B:GLU:543:CG:9879, V-A:GLU:543:CD:4908, V-A:GLU:543:CG:4907, V-B:GLU:543:C:9874, V-B:HIS:456:CD2:9039, H-A:HIS:456:ND1:4066"]

$$$$
RR19_Rahimova_2017-again1
     RDKit          3D

 71 76  0  0  0  0  0  0  0  0999 V2000
  128.4420  125.8110   58.1320 O   0  0  0  0  0  0  0  0  0  0  0  0
  128.6340  125.5210   59.3160 C   0  0  0  0  0  0  0  0  0  0  0  0
  129.7990  125.0760   59.8440 N   0  0  0  0  0  0  0  0  0  0  0  0
  131.0620  124.9550   59.3360 C   0  0  0  0  0  0  0  0  0  0  0  0
  131.6350  125.2180   57.7780 S   0  0  0  0  0  0  0  0  0  0  0  0
  131.8870  124.6300   60.3980 N   0  0  0  0  0  0  0  0  0  0  0  0
  132.7780  123.6970   60.4860 C   0  0  0  0  0  0  0  0  0  0  0  0
  133.1960  122.8960   59.6270 O   0  0  0  0  0  0  0  0  0  0  0  0
  133.4320  123.5240   61.8980 C   0  0  2  0  0  0  0  0  0  0  0  0
  133.9140  122.0530   62.1270 C   0  0  0  0  0  0  0  0  0  0  0  0
  132.9610  120.9830   61.5990 C   0  0  0  0  0  0  0  0  0  0  0  0
  131.6140  121.0060   61.9700 C   0  0  0  0  0  0  0  0  0  0  0  0
  130.7400  120.0400   61.4770 C   0  0  0  0  0  0  0  0  0  0  0  0
  131.2180  119.0530   60.6160 C   0  0  0  0  0  0  0  0  0  0  0  0
  132.5610  119.0220   60.2460 C   0  0  0  0  0  0  0  0  0  0  0  0
  133.4340  119.9870   60.7400 C   0  0  0  0  0  0  0  0  0  0  0  0
  132.6080  124.0920   63.0150 N   0  0  0  0  0  0  0  0  0  0  0  0
  133.1790  124.7730   64.0490 C   0  0  0  0  0  0  0  0  0  0  0  0
  134.3760  125.0020   64.2230 O   0  0  0  0  0  0  0  0  0  0  0  0
  132.0490  125.1810   64.9240 C   0  0  0  0  0  0  0  0  0  0  0  0
  132.0340  125.8950   66.1230 C   0  0  0  0  0  0  0  0  0  0  0  0
  130.8020  126.1380   66.7400 C   0  0  0  0  0  0  0  0  0  0  0  0
  129.6150  125.6730   66.1590 C   0  0  0  0  0  0  0  0  0  0  0  0
  129.6520  124.9590   64.9560 C   0  0  0  0  0  0  0  0  0  0  0  0
  130.8910  124.7250   64.3570 C   0  0  0  0  0  0  0  0  0  0  0  0
  131.2440  124.0160   63.1040 C   0  0  0  0  0  0  0  0  0  0  0  0
  130.4710  123.4740   62.3150 O   0  0  0  0  0  0  0  0  0  0  0  0
  127.4690  125.6570   60.3400 C   0  0  2  0  0  0  0  0  0  0  0  0
  126.4140  124.5170   60.2440 C   0  0  0  0  0  0  0  0  0  0  0  0
  126.4540  123.7490   58.9350 C   0  0  0  0  0  0  0  0  0  0  0  0
  127.4460  122.7700   58.7190 C   0  0  0  0  0  0  0  0  0  0  0  0
  127.4220  121.9990   57.5640 C   0  0  0  0  0  0  0  0  0  0  0  0
  126.4080  122.1690   56.6290 C   0  0  0  0  0  0  0  0  0  0  0  0
  125.4030  123.1040   56.8470 C   0  0  0  0  0  0  0  0  0  0  0  0
  125.4090  123.8840   57.9950 C   0  0  0  0  0  0  0  0  0  0  0  0
  126.8330  127.0090   60.3630 N   0  0  0  0  0  0  0  0  0  0  0  0
  126.2460  127.5420   59.2550 C   0  0  0  0  0  0  0  0  0  0  0  0
  126.2210  127.0640   58.1200 O   0  0  0  0  0  0  0  0  0  0  0  0
  125.6320  128.8150   59.7050 C   0  0  0  0  0  0  0  0  0  0  0  0
  124.8930  129.7710   59.0070 C   0  0  0  0  0  0  0  0  0  0  0  0
  124.4120  130.8850   59.7040 C   0  0  0  0  0  0  0  0  0  0  0  0
  124.6740  131.0300   61.0730 C   0  0  0  0  0  0  0  0  0  0  0  0
  125.4200  130.0620   61.7550 C   0  0  0  0  0  0  0  0  0  0  0  0
  125.8890  128.9570   61.0420 C   0  0  0  0  0  0  0  0  0  0  0  0
  126.6660  127.7730   61.4840 C   0  0  0  0  0  0  0  0  0  0  0  0
  127.0650  127.5280   62.6230 O   0  0  0  0  0  0  0  0  0  0  0  0
  129.7470  124.8710   60.8300 H   0  0  0  0  0  0  0  0  0  0  0  0
  134.3398  124.1450   61.9128 H   0  0  0  0  0  0  0  0  0  0  0  0
  134.8840  121.9273   61.6236 H   0  0  0  0  0  0  0  0  0  0  0  0
  133.9717  121.9095   63.2161 H   0  0  0  0  0  0  0  0  0  0  0  0
  131.2441  121.7866   62.6510 H   0  0  0  0  0  0  0  0  0  0  0  0
  129.6786  120.0557   61.7653 H   0  0  0  0  0  0  0  0  0  0  0  0
  130.5278  118.2910   60.2248 H   0  0  0  0  0  0  0  0  0  0  0  0
  132.9294  118.2389   59.5670 H   0  0  0  0  0  0  0  0  0  0  0  0
  134.4961  119.9658   60.4544 H   0  0  0  0  0  0  0  0  0  0  0  0
  132.9697  126.2585   66.5728 H   0  0  0  0  0  0  0  0  0  0  0  0
  130.7652  126.6972   67.6865 H   0  0  0  0  0  0  0  0  0  0  0  0
  128.6506  125.8698   66.6501 H   0  0  0  0  0  0  0  0  0  0  0  0
  128.7251  124.5902   64.4925 H   0  0  0  0  0  0  0  0  0  0  0  0
  127.9618  125.5393   61.3164 H   0  0  0  0  0  0  0  0  0  0  0  0
  126.5937  123.8089   61.0664 H   0  0  0  0  0  0  0  0  0  0  0  0
  125.4241  124.9928   60.3044 H   0  0  0  0  0  0  0  0  0  0  0  0
  128.2391  122.6170   59.4657 H   0  0  0  0  0  0  0  0  0  0  0  0
  128.2089  121.2507   57.3886 H   0  0  0  0  0  0  0  0  0  0  0  0
  126.4008  121.5609   55.7124 H   0  0  0  0  0  0  0  0  0  0  0  0
  124.5991  123.2264   56.1062 H   0  0  0  0  0  0  0  0  0  0  0  0
  124.5996  124.6074   58.1726 H   0  0  0  0  0  0  0  0  0  0  0  0
  124.6929  129.6515   57.9320 H   0  0  0  0  0  0  0  0  0  0  0  0
  123.8255  131.6505   59.1748 H   0  0  0  0  0  0  0  0  0  0  0  0
  124.2917  131.9083   61.6138 H   0  0  0  0  0  0  0  0  0  0  0  0
  125.6321  130.1694   62.8290 H   0  0  0  0  0  0  0  0  0  0  0  0
  1  2  2  0
  2  3  1  0
  3  4  1  0
  4  5  2  0
  4  6  1  0
  6  7  2  0
  7  8  1  0
  7  9  1  0
  9 10  1  0
 10 11  1  0
 11 12  2  0
 12 13  1  0
 13 14  2  0
 14 15  1  0
 15 16  2  0
  9 17  1  0
 17 18  1  0
 18 19  2  0
 18 20  1  0
 20 21  2  0
 21 22  1  0
 22 23  2  0
 23 24  1  0
 24 25  2  0
 25 26  1  0
 26 27  2  0
  2 28  1  0
 28 29  1  0
 29 30  1  0
 30 31  2  0
 31 32  1  0
 32 33  2  0
 33 34  1  0
 34 35  2  0
 28 36  1  0
 36 37  1  0
 37 38  2  0
 37 39  1  0
 39 40  2  0
 40 41  1  0
 41 42  2  0
 42 43  1  0
 43 44  2  0
 44 45  1  0
 45 46  2  0
 16 11  1  0
 26 17  1  0
 35 30  1  0
 45 36  1  0
 25 20  1  0
 44 39  1  0
  3 47  1  0
  9 48  1  6
 10 49  1  0
 10 50  1  0
 12 51  1  0
 13 52  1  0
 14 53  1  0
 15 54  1  0
 16 55  1  0
 21 56  1  0
 22 57  1  0
 23 58  1  0
 24 59  1  0
 28 60  1  1
 29 61  1  0
 29 62  1  0
 31 63  1  0
 32 64  1  0
 33 65  1  0
 34 66  1  0
 35 67  1  0
 40 68  1  0
 41 69  1  0
 42 70  1  0
 43 71  1  0
M  CHG  1   8  -1
M  END
>  <Binding energies>  (1) 
[-10.21]

>  <Ligand effiencies>  (1) 
[-0.2172340425531915]

>  <Interactions>  (1) 
["V-B:PRO:540:CB:9857, V-A:ILE:369:CG2:3236, V-B:PRO:540:N:9856, V-B:TYR:539:CD2:9846, V-B:PRO:540:CA:9855, V-B:MET:535:CE:9807, V-A:LEU:475:CD1:4257, H-B:TYR:531:OH:9767, V-B:TYR:539:C:9839, V-B:ALA:541:CB:9864, V-B:GLU:543:CD:9880, V-A:ARG:545:CZ:4926, V-B:GLU:543:CB:9878, V-A:HIS:456:CE1:4069, H-B:ARG:545:NH2:9900, V-A:GLY:454:CA:4048, H-A:GLY:454:N:4049, V-B:GLU:543:CG:9879, H-A:ARG:545:NH1:4927, V-A:ILE:369:CD1:3238, V-A:ASP:366:CB:3211, V-B:ASP:366:CB:8183, V-B:ASP:366:CA:8181, V-A:TYR:539:CE1:4875, V-B:ASP:366:CG:8184, V-B:ILE:369:CG2:8208, H-A:ARG:545:NH2:4928, V-B:TYR:539:CA:9841, V-B:PRO:540:CD:9859, H-A:ARG:545:NE:4924, V-B:TYR:531:CE2:9765, V-B:LEU:363:CD1:8160"]

$$$$
RR1_Rahimova_2017
     RDKit          3D

 68 71  0  0  0  0  0  0  0  0999 V2000
  133.7010  125.3950   66.1760 C   0  0  0  0  0  0  0  0  0  0  0  0
  133.9490  124.9710   64.8400 O   0  0  0  0  0  0  0  0  0  0  0  0
  132.9500  125.1020   63.8950 C   0  0  0  0  0  0  0  0  0  0  0  0
  131.8260  125.9300   64.0420 C   0  0  0  0  0  0  0  0  0  0  0  0
  130.8640  125.9920   63.0370 C   0  0  0  0  0  0  0  0  0  0  0  0
  131.0110  125.2380   61.8720 C   0  0  0  0  0  0  0  0  0  0  0  0
  129.9640  125.3330   60.9350 N   0  0  0  0  0  0  0  0  0  0  0  0
  130.0220  125.3560   59.5870 C   0  0  0  0  0  0  0  0  0  0  0  0
  131.0630  125.3660   58.9290 O   0  0  0  0  0  0  0  0  0  0  0  0
  128.6530  125.3770   58.8880 C   0  0  0  0  0  0  0  0  0  0  0  0
  128.1430  123.8020   58.1160 S   0  0  0  0  0  0  0  0  0  0  0  0
  128.8210  122.7120   59.3230 C   0  0  0  0  0  0  0  0  0  0  0  0
  129.9480  122.0630   59.1780 N   0  0  0  0  0  0  0  0  0  0  0  0
  130.0730  121.3860   60.3150 C   0  0  0  0  0  0  0  0  0  0  0  0
  131.2520  120.4980   60.5960 C   0  0  0  0  0  0  0  0  0  0  0  0
  132.4990  121.0280   60.9660 C   0  0  0  0  0  0  0  0  0  0  0  0
  133.5770  120.1780   61.2180 C   0  0  0  0  0  0  0  0  0  0  0  0
  133.3830  118.8040   61.0940 C   0  0  0  0  0  0  0  0  0  0  0  0
  132.1930  118.2580   60.7390 N   0  0  0  0  0  0  0  0  0  0  0  0
  131.1570  119.1010   60.4990 C   0  0  0  0  0  0  0  0  0  0  0  0
  129.0920  121.5490   61.1820 N   0  0  0  0  0  0  0  0  0  0  0  0
  128.2830  122.4020   60.5450 N   0  0  0  0  0  0  0  0  0  0  0  0
  127.0550  122.8770   61.1820 C   0  0  0  0  0  0  0  0  0  0  0  0
  127.2110  124.1580   62.0200 C   0  0  0  0  0  0  0  0  0  0  0  0
  128.0810  124.2400   62.8950 O   0  0  0  0  0  0  0  0  0  0  0  0
  126.3390  125.1410   61.7240 N   0  0  0  0  0  0  0  0  0  0  0  0
  126.5130  126.3750   62.3340 N   0  0  0  0  0  0  0  0  0  0  0  0
  126.6880  127.4530   61.5390 C   0  0  0  0  0  0  0  0  0  0  0  0
  126.6010  127.4260   60.3070 O   0  0  0  0  0  0  0  0  0  0  0  0
  126.9810  128.7560   62.2550 C   0  0  0  0  0  0  0  0  0  0  0  0
  126.1800  129.1580   63.3290 C   0  0  0  0  0  0  0  0  0  0  0  0
  126.4230  130.3560   63.9930 C   0  0  0  0  0  0  0  0  0  0  0  0
  127.4760  131.1950   63.5970 C   0  0  0  0  0  0  0  0  0  0  0  0
  127.7640  132.4040   64.2050 O   0  0  0  0  0  0  0  0  0  0  0  0
  127.9800  132.4480   65.6110 C   0  0  0  0  0  0  0  0  0  0  0  0
  128.2860  130.8140   62.5190 C   0  0  0  0  0  0  0  0  0  0  0  0
  129.2990  131.6860   62.1550 O   0  0  0  0  0  0  0  0  0  0  0  0
  130.5160  131.1710   61.6260 C   0  0  0  0  0  0  0  0  0  0  0  0
  128.0340  129.5970   61.8600 C   0  0  0  0  0  0  0  0  0  0  0  0
  132.1340  124.4100   61.7210 C   0  0  0  0  0  0  0  0  0  0  0  0
  133.0930  124.3510   62.7280 C   0  0  0  0  0  0  0  0  0  0  0  0
  134.1286  124.6640   66.8780 H   0  0  0  0  0  0  0  0  0  0  0  0
  134.1667  126.3778   66.3412 H   0  0  0  0  0  0  0  0  0  0  0  0
  132.6161  125.4709   66.3412 H   0  0  0  0  0  0  0  0  0  0  0  0
  131.7046  126.5322   64.9545 H   0  0  0  0  0  0  0  0  0  0  0  0
  129.9832  126.6390   63.1622 H   0  0  0  0  0  0  0  0  0  0  0  0
  129.0460  125.4310   61.3460 H   0  0  0  0  0  0  0  0  0  0  0  0
  127.8941  125.6496   59.6362 H   0  0  0  0  0  0  0  0  0  0  0  0
  128.7437  126.1021   58.0658 H   0  0  0  0  0  0  0  0  0  0  0  0
  132.6265  122.1168   61.0575 H   0  0  0  0  0  0  0  0  0  0  0  0
  134.5575  120.5838   61.5079 H   0  0  0  0  0  0  0  0  0  0  0  0
  134.2315  118.1328   61.2926 H   0  0  0  0  0  0  0  0  0  0  0  0
  130.1886  118.6651   60.2124 H   0  0  0  0  0  0  0  0  0  0  0  0
  126.3150  123.0738   60.3923 H   0  0  0  0  0  0  0  0  0  0  0  0
  126.7464  122.0870   61.8824 H   0  0  0  0  0  0  0  0  0  0  0  0
  125.7700  125.1760   60.8890 H   0  0  0  0  0  0  0  0  0  0  0  0
  127.0020  126.2870   63.2130 H   0  0  0  0  0  0  0  0  0  0  0  0
  125.3462  128.5178   63.6531 H   0  0  0  0  0  0  0  0  0  0  0  0
  125.7826  130.6490   64.8380 H   0  0  0  0  0  0  0  0  0  0  0  0
  127.0317  132.2548   66.1339 H   0  0  0  0  0  0  0  0  0  0  0  0
  128.7169  131.6815   65.8929 H   0  0  0  0  0  0  0  0  0  0  0  0
  128.3584  133.4417   65.8929 H   0  0  0  0  0  0  0  0  0  0  0  0
  131.1844  130.8881   62.4525 H   0  0  0  0  0  0  0  0  0  0  0  0
  130.3020  130.2863   61.0083 H   0  0  0  0  0  0  0  0  0  0  0  0
  131.0020  131.9406   61.0083 H   0  0  0  0  0  0  0  0  0  0  0  0
  128.6751  129.2979   61.0177 H   0  0  0  0  0  0  0  0  0  0  0  0
  132.2561  123.8085   60.8081 H   0  0  0  0  0  0  0  0  0  0  0  0
  133.9741  123.7046   62.6022 H   0  0  0  0  0  0  0  0  0  0  0  0
  1  2  1  0
  2  3  1  0
  3  4  2  0
  4  5  1  0
  5  6  2  0
  6  7  1  0
  7  8  1  0
  8  9  2  0
  8 10  1  0
 10 11  1  0
 11 12  1  0
 12 13  2  0
 13 14  1  0
 14 15  1  0
 15 16  2  0
 16 17  1  0
 17 18  2  0
 18 19  1  0
 19 20  2  0
 14 21  2  0
 21 22  1  0
 22 23  1  0
 23 24  1  0
 24 25  2  0
 24 26  1  0
 26 27  1  0
 27 28  1  0
 28 29  2  0
 28 30  1  0
 30 31  2  0
 31 32  1  0
 32 33  2  0
 33 34  1  0
 34 35  1  0
 33 36  1  0
 36 37  1  0
 37 38  1  0
 36 39  2  0
  6 40  1  0
 40 41  2  0
 41  3  1  0
 22 12  1  0
 39 30  1  0
 20 15  1  0
  1 42  1  0
  1 43  1  0
  1 44  1  0
  4 45  1  0
  5 46  1  0
  7 47  1  0
 10 48  1  0
 10 49  1  0
 16 50  1  0
 17 51  1  0
 18 52  1  0
 20 53  1  0
 23 54  1  0
 23 55  1  0
 26 56  1  0
 27 57  1  0
 31 58  1  0
 32 59  1  0
 35 60  1  0
 35 61  1  0
 35 62  1  0
 38 63  1  0
 38 64  1  0
 38 65  1  0
 39 66  1  0
 40 67  1  0
 41 68  1  0
M  END
>  <Binding energies>  (1) 
[-7.57]

>  <Ligand effiencies>  (1) 
[-0.17204545454545456]

>  <Interactions>  (1) 
["V-B:PRO:540:CB:9857, V-A:ILE:369:CG2:3236, V-B:TYR:539:CE2:9848, V-B:TYR:539:CD2:9846, V-B:PRO:540:CA:9855, V-B:PRO:540:C:9853, V-A:LEU:475:CD1:4257, H-B:ALA:541:N:9863, V-A:SER:385:CB:3408, V-A:SER:385:CA:3406, V-A:SER:385:C:3404, V-B:GLU:543:CD:9880, V-A:ARG:545:CD:4923, V-A:ARG:545:CZ:4926, V-A:ARG:545:CG:4922, H-A:TYR:484:OH:4347, H-A:ALA:541:N:4891, H-A:GLY:454:N:4049, V-B:TYR:484:CZ:9318, V-A:ALA:541:CB:4892, V-B:TYR:484:CE2:9317, V-A:GLU:543:CD:4908, V-A:GLU:543:CG:4907, H-B:GLU:543:OE2:9882, H-A:ARG:545:NH1:4927, V-B:ASP:366:CG:8184, H-A:ARG:545:NH2:4928, H-A:ARG:545:NE:4924, V-B:LEU:475:CD1:9229, H-B:GLU:543:OE1:9881, H-B:ASP:366:OD1:8185, H-A:HIS:383:NE2:3393, H-A:SER:385:OG:3409, V-B:LEU:475:CD2:9230"]

$$$$
RR20_Rahimova_2017
     RDKit          3D

 68 73  0  0  0  0  0  0  0  0999 V2000
  126.2320  131.4110   74.6730 C   0  0  0  0  0  0  0  0  0  0  0  0
  127.1620  130.6020   73.7870 C   0  0  0  0  0  0  0  0  0  0  0  0
  127.4920  131.0710   72.5150 C   0  0  0  0  0  0  0  0  0  0  0  0
  128.3520  130.3350   71.7040 C   0  0  0  0  0  0  0  0  0  0  0  0
  128.8780  129.1180   72.1530 C   0  0  0  0  0  0  0  0  0  0  0  0
  129.8260  128.3440   71.2640 C   0  0  0  0  0  0  0  0  0  0  0  0
  131.0060  128.2690   71.6170 O   0  0  0  0  0  0  0  0  0  0  0  0
  129.3490  127.7530   70.1300 N   0  0  0  0  0  0  0  0  0  0  0  0
  128.9720  126.3310   70.1000 C   0  0  0  0  0  0  0  0  0  0  0  0
  128.3500  126.0810   68.7370 C   0  0  0  0  0  0  0  0  0  0  0  0
  128.0780  127.4660   68.2350 C   0  0  0  0  0  0  0  0  0  0  0  0
  127.4330  127.8660   67.0640 C   0  0  0  0  0  0  0  0  0  0  0  0
  127.4180  129.2130   66.6830 C   0  0  0  0  0  0  0  0  0  0  0  0
  126.7150  129.6460   65.4260 C   0  0  0  0  0  0  0  0  0  0  0  0
  127.4440  130.1230   64.4300 N   0  0  0  0  0  0  0  0  0  0  0  0
  126.7320  130.4490   63.3810 C   0  0  0  0  0  0  0  0  0  0  0  0
  127.1760  130.9680   62.1750 N   0  0  0  0  0  0  0  0  0  0  0  0
  127.2950  132.2780   61.8460 C   0  0  0  0  0  0  0  0  0  0  0  0
  127.0340  133.2070   62.6130 O   0  0  0  0  0  0  0  0  0  0  0  0
  127.8150  132.6280   60.4320 C   0  0  0  0  0  0  0  0  0  0  0  0
  129.2460  132.3170   60.2510 N   0  0  0  0  0  0  0  0  0  0  0  0
  129.7720  131.4520   61.3170 C   0  0  0  0  0  0  0  0  0  0  0  0
  131.3130  131.3780   61.2310 C   0  0  0  0  0  0  0  0  0  0  0  0
  131.8210  131.1450   59.8080 C   0  0  0  0  0  0  0  0  0  0  0  0
  133.1520  130.7840   59.5680 C   0  0  0  0  0  0  0  0  0  0  0  0
  133.6240  130.6090   58.2690 C   0  0  0  0  0  0  0  0  0  0  0  0
  132.7650  130.7910   57.1900 C   0  0  0  0  0  0  0  0  0  0  0  0
  131.4360  131.1410   57.4160 C   0  0  0  0  0  0  0  0  0  0  0  0
  130.9480  131.3210   58.7150 C   0  0  0  0  0  0  0  0  0  0  0  0
  129.4760  131.6490   58.9640 C   0  0  0  0  0  0  0  0  0  0  0  0
  125.0410  130.1920   63.5620 S   0  0  0  0  0  0  0  0  0  0  0  0
  125.3250  129.6060   65.1840 C   0  0  0  0  0  0  0  0  0  0  0  0
  124.1650  129.1900   66.0630 C   0  0  0  0  0  0  0  0  0  0  0  0
  128.1130  130.1410   67.4740 C   0  0  0  0  0  0  0  0  0  0  0  0
  128.7750  129.7410   68.6340 C   0  0  0  0  0  0  0  0  0  0  0  0
  128.7100  128.4050   69.0500 C   0  0  0  0  0  0  0  0  0  0  0  0
  128.5650  128.6680   73.4420 C   0  0  0  0  0  0  0  0  0  0  0  0
  127.7050  129.4040   74.2540 C   0  0  0  0  0  0  0  0  0  0  0  0
  126.4641  131.2091   75.7291 H   0  0  0  0  0  0  0  0  0  0  0  0
  126.3685  132.4827   74.4659 H   0  0  0  0  0  0  0  0  0  0  0  0
  125.1895  131.1274   74.4659 H   0  0  0  0  0  0  0  0  0  0  0  0
  127.0731  132.0215   72.1531 H   0  0  0  0  0  0  0  0  0  0  0  0
  128.6193  130.7118   70.7057 H   0  0  0  0  0  0  0  0  0  0  0  0
  129.8620  125.6985   70.2338 H   0  0  0  0  0  0  0  0  0  0  0  0
  128.2687  126.0877   70.9100 H   0  0  0  0  0  0  0  0  0  0  0  0
  129.0490  125.5499   68.0742 H   0  0  0  0  0  0  0  0  0  0  0  0
  127.4504  125.4493   68.7789 H   0  0  0  0  0  0  0  0  0  0  0  0
  126.9317  127.1160   66.4345 H   0  0  0  0  0  0  0  0  0  0  0  0
  127.4300  130.2930   61.4680 H   0  0  0  0  0  0  0  0  0  0  0  0
  127.2355  132.0547   59.6935 H   0  0  0  0  0  0  0  0  0  0  0  0
  127.6941  133.7128   60.2960 H   0  0  0  0  0  0  0  0  0  0  0  0
  129.4818  131.8631   62.2951 H   0  0  0  0  0  0  0  0  0  0  0  0
  129.3564  130.4406   61.1970 H   0  0  0  0  0  0  0  0  0  0  0  0
  131.7307  132.3257   61.6016 H   0  0  0  0  0  0  0  0  0  0  0  0
  131.6359  130.5210   61.8403 H   0  0  0  0  0  0  0  0  0  0  0  0
  133.8352  130.6364   60.4174 H   0  0  0  0  0  0  0  0  0  0  0  0
  134.6734  130.3276   58.0969 H   0  0  0  0  0  0  0  0  0  0  0  0
  133.1340  130.6590   56.1622 H   0  0  0  0  0  0  0  0  0  0  0  0
  130.7593  131.2781   56.5597 H   0  0  0  0  0  0  0  0  0  0  0  0
  129.1231  132.3096   58.1584 H   0  0  0  0  0  0  0  0  0  0  0  0
  128.9261  130.6966   58.9852 H   0  0  0  0  0  0  0  0  0  0  0  0
  124.4509  129.2925   67.1202 H   0  0  0  0  0  0  0  0  0  0  0  0
  123.2974  129.8330   65.8538 H   0  0  0  0  0  0  0  0  0  0  0  0
  123.9038  128.1422   65.8538 H   0  0  0  0  0  0  0  0  0  0  0  0
  128.1357  131.1992   67.1744 H   0  0  0  0  0  0  0  0  0  0  0  0
  129.3476  130.4736   69.2218 H   0  0  0  0  0  0  0  0  0  0  0  0
  129.0003  127.7291   73.8148 H   0  0  0  0  0  0  0  0  0  0  0  0
  127.4542  129.0415   75.2618 H   0  0  0  0  0  0  0  0  0  0  0  0
  1  2  1  0
  2  3  2  0
  3  4  1  0
  4  5  2  0
  5  6  1  0
  6  7  2  0
  6  8  1  0
  8  9  1  0
  9 10  1  0
 10 11  1  0
 11 12  2  0
 12 13  1  0
 13 14  1  0
 14 15  1  0
 15 16  2  0
 16 17  1  0
 17 18  1  0
 18 19  2  0
 18 20  1  0
 20 21  1  0
 21 22  1  0
 22 23  1  0
 23 24  1  0
 24 25  2  0
 25 26  1  0
 26 27  2  0
 27 28  1  0
 28 29  2  0
 29 30  1  0
 16 31  1  0
 31 32  1  0
 32 33  1  0
 13 34  2  0
 34 35  1  0
 35 36  2  0
  5 37  1  0
 37 38  2  0
 38  2  1  0
 36  8  1  0
 36 11  1  0
 32 14  2  0
 30 21  1  0
 29 24  1  0
  1 39  1  0
  1 40  1  0
  1 41  1  0
  3 42  1  0
  4 43  1  0
  9 44  1  0
  9 45  1  0
 10 46  1  0
 10 47  1  0
 12 48  1  0
 17 49  1  0
 20 50  1  0
 20 51  1  0
 22 52  1  0
 22 53  1  0
 23 54  1  0
 23 55  1  0
 25 56  1  0
 26 57  1  0
 27 58  1  0
 28 59  1  0
 30 60  1  0
 30 61  1  0
 33 62  1  0
 33 63  1  0
 33 64  1  0
 34 65  1  0
 35 66  1  0
 37 67  1  0
 38 68  1  0
M  END
>  <Binding energies>  (1) 
[-10.05]

>  <Ligand effiencies>  (1) 
[-0.2576923076923077]

>  <Interactions>  (1) 
["V-B:GLU:543:CB:9878, V-A:GLU:543:CB:4906, V-A:HIS:456:CE1:4069, V-B:HIS:456:CE1:9041, V-B:ARG:545:CZ:9898, H-A:ALA:541:N:4891, V-B:TYR:484:CZ:9318, V-A:ALA:541:CB:4892, V-A:GLU:543:C:4902, V-B:TYR:484:CE2:9317, V-A:GLU:543:CD:4908, V-A:GLU:543:CG:4907, V-A:ASP:366:CG:3212, V-B:GLU:543:C:9874, V-B:HIS:456:CD2:9039, V-A:ASP:366:CB:3211, V-B:TYR:484:CD2:9315, V-B:TYR:484:CG:9313, V-B:HIS:456:CG:9037, H-A:HIS:456:ND1:4066, V-B:GLU:543:CA:9876, V-A:TYR:539:C:4867, V-A:PRO:540:CA:4883, V-A:TYR:539:CD1:4873, V-A:PRO:540:CB:4885, V-A:PRO:540:N:4884, V-A:PRO:540:C:4881, V-B:ARG:545:CD:9895, V-A:LEU:363:CD1:3188, V-A:LEU:363:CA:3184, V-B:ARG:545:CG:9894, V-A:LEU:363:CB:3186, V-A:GLU:543:CA:4904, V-B:HIS:456:CB:9036, V-B:ASP:473:CB:9210, V-B:ASP:473:CG:9211"]

$$$$
RR20_Rahimova_2017-again1
     RDKit          3D

 68 73  0  0  0  0  0  0  0  0999 V2000
  133.6310  130.7000   58.3150 C   0  0  0  0  0  0  0  0  0  0  0  0
  132.3260  130.9190   59.0590 C   0  0  0  0  0  0  0  0  0  0  0  0
  132.3390  131.1420   60.4370 C   0  0  0  0  0  0  0  0  0  0  0  0
  131.1440  131.3500   61.1190 C   0  0  0  0  0  0  0  0  0  0  0  0
  129.9250  131.3260   60.4320 C   0  0  0  0  0  0  0  0  0  0  0  0
  128.6370  131.5720   61.1870 C   0  0  0  0  0  0  0  0  0  0  0  0
  127.8750  132.4380   60.7530 O   0  0  0  0  0  0  0  0  0  0  0  0
  128.3570  130.8180   62.2910 N   0  0  0  0  0  0  0  0  0  0  0  0
  127.2090  131.1250   63.1590 C   0  0  0  0  0  0  0  0  0  0  0  0
  127.1290  129.9990   64.1780 C   0  0  0  0  0  0  0  0  0  0  0  0
  128.0110  128.9450   63.5770 C   0  0  0  0  0  0  0  0  0  0  0  0
  128.2610  127.6490   64.0280 C   0  0  0  0  0  0  0  0  0  0  0  0
  129.2510  126.8600   63.4230 C   0  0  0  0  0  0  0  0  0  0  0  0
  129.5250  125.4660   63.9120 C   0  0  0  0  0  0  0  0  0  0  0  0
  129.7660  124.5240   63.0130 N   0  0  0  0  0  0  0  0  0  0  0  0
  129.9850  123.3380   63.5280 C   0  0  0  0  0  0  0  0  0  0  0  0
  130.2200  122.1500   62.8870 N   0  0  0  0  0  0  0  0  0  0  0  0
  129.4410  121.6180   62.0060 C   0  0  0  0  0  0  0  0  0  0  0  0
  128.3920  122.0280   61.4750 O   0  0  0  0  0  0  0  0  0  0  0  0
  129.9050  120.2300   61.5190 C   0  0  0  0  0  0  0  0  0  0  0  0
  130.8110  120.3830   60.2630 N   0  0  2  0  0  0  0  0  0  0  0  0
  132.0700  119.4950   60.3280 C   0  0  0  0  0  0  0  0  0  0  0  0
  132.9840  119.9620   61.4770 C   0  0  0  0  0  0  0  0  0  0  0  0
  133.2370  121.4670   61.4700 C   0  0  0  0  0  0  0  0  0  0  0  0
  134.3390  121.9890   62.1560 C   0  0  0  0  0  0  0  0  0  0  0  0
  134.5740  123.3600   62.2120 C   0  0  0  0  0  0  0  0  0  0  0  0
  133.7030  124.2330   61.5730 C   0  0  0  0  0  0  0  0  0  0  0  0
  132.6090  123.7290   60.8750 C   0  0  0  0  0  0  0  0  0  0  0  0
  132.3600  122.3540   60.8010 C   0  0  0  0  0  0  0  0  0  0  0  0
  131.1680  121.8610   59.9710 C   0  0  0  0  0  0  0  0  0  0  0  0
  129.8770  123.3130   65.2480 S   0  0  0  0  0  0  0  0  0  0  0  0
  129.5580  125.0300   65.2510 C   0  0  0  0  0  0  0  0  0  0  0  0
  129.3930  125.7790   66.5570 C   0  0  0  0  0  0  0  0  0  0  0  0
  130.0110  127.4210   62.3890 C   0  0  0  0  0  0  0  0  0  0  0  0
  129.7760  128.7240   61.9480 C   0  0  0  0  0  0  0  0  0  0  0  0
  128.7320  129.4730   62.5070 C   0  0  0  0  0  0  0  0  0  0  0  0
  129.9220  131.1320   59.0450 C   0  0  0  0  0  0  0  0  0  0  0  0
  131.1170  130.9240   58.3620 C   0  0  0  0  0  0  0  0  0  0  0  0
  134.4475  130.5630   59.0393 H   0  0  0  0  0  0  0  0  0  0  0  0
  133.5469  129.8034   57.6833 H   0  0  0  0  0  0  0  0  0  0  0  0
  133.8442  131.5749   57.6833 H   0  0  0  0  0  0  0  0  0  0  0  0
  133.2936  131.1533   60.9835 H   0  0  0  0  0  0  0  0  0  0  0  0
  131.1576  131.5342   62.2034 H   0  0  0  0  0  0  0  0  0  0  0  0
  127.3632  132.0882   63.6675 H   0  0  0  0  0  0  0  0  0  0  0  0
  126.2787  131.2037   62.5774 H   0  0  0  0  0  0  0  0  0  0  0  0
  127.5099  130.3232   65.1577 H   0  0  0  0  0  0  0  0  0  0  0  0
  126.1018  129.6529   64.3654 H   0  0  0  0  0  0  0  0  0  0  0  0
  127.6764  127.2416   64.8660 H   0  0  0  0  0  0  0  0  0  0  0  0
  130.4730  119.7339   62.3198 H   0  0  0  0  0  0  0  0  0  0  0  0
  129.0239  119.6256   61.2576 H   0  0  0  0  0  0  0  0  0  0  0  0
  130.2630  120.0450   59.4820 H   0  0  0  0  0  0  0  0  0  0  0  0
  131.7709  118.4508   60.5016 H   0  0  0  0  0  0  0  0  0  0  0  0
  132.6168  119.5727   59.3767 H   0  0  0  0  0  0  0  0  0  0  0  0
  132.5106  119.6915   62.4324 H   0  0  0  0  0  0  0  0  0  0  0  0
  133.9568  119.4663   61.3430 H   0  0  0  0  0  0  0  0  0  0  0  0
  135.0338  121.3021   62.6614 H   0  0  0  0  0  0  0  0  0  0  0  0
  135.4449  123.7498   62.7594 H   0  0  0  0  0  0  0  0  0  0  0  0
  133.8769  125.3182   61.6183 H   0  0  0  0  0  0  0  0  0  0  0  0
  131.9250  124.4272   60.3704 H   0  0  0  0  0  0  0  0  0  0  0  0
  130.2939  122.4872   60.2030 H   0  0  0  0  0  0  0  0  0  0  0  0
  131.4479  121.9331   58.9097 H   0  0  0  0  0  0  0  0  0  0  0  0
  129.5454  125.0870   67.3984 H   0  0  0  0  0  0  0  0  0  0  0  0
  130.1340  126.5902   66.6106 H   0  0  0  0  0  0  0  0  0  0  0  0
  128.3797  126.2038   66.6106 H   0  0  0  0  0  0  0  0  0  0  0  0
  130.8059  126.8250   61.9169 H   0  0  0  0  0  0  0  0  0  0  0  0
  130.4094  129.1624   61.1627 H   0  0  0  0  0  0  0  0  0  0  0  0
  128.9708  131.1440   58.4927 H   0  0  0  0  0  0  0  0  0  0  0  0
  131.1083  130.7637   57.2738 H   0  0  0  0  0  0  0  0  0  0  0  0
  1  2  1  0
  2  3  2  0
  3  4  1  0
  4  5  2  0
  5  6  1  0
  6  7  2  0
  6  8  1  0
  8  9  1  0
  9 10  1  0
 10 11  1  0
 11 12  2  0
 12 13  1  0
 13 14  1  0
 14 15  1  0
 15 16  2  0
 16 17  1  0
 17 18  2  0
 18 19  1  0
 18 20  1  0
 20 21  1  0
 21 22  1  0
 22 23  1  0
 23 24  1  0
 24 25  2  0
 25 26  1  0
 26 27  2  0
 27 28  1  0
 28 29  2  0
 29 30  1  0
 16 31  1  0
 31 32  1  0
 32 33  1  0
 13 34  2  0
 34 35  1  0
 35 36  2  0
  5 37  1  0
 37 38  2  0
 38  2  1  0
 36  8  1  0
 36 11  1  0
 32 14  2  0
 30 21  1  0
 29 24  1  0
  1 39  1  0
  1 40  1  0
  1 41  1  0
  3 42  1  0
  4 43  1  0
  9 44  1  0
  9 45  1  0
 10 46  1  0
 10 47  1  0
 12 48  1  0
 20 49  1  0
 20 50  1  0
 21 51  1  6
 22 52  1  0
 22 53  1  0
 23 54  1  0
 23 55  1  0
 25 56  1  0
 26 57  1  0
 27 58  1  0
 28 59  1  0
 30 60  1  0
 30 61  1  0
 33 62  1  0
 33 63  1  0
 33 64  1  0
 34 65  1  0
 35 66  1  0
 37 67  1  0
 38 68  1  0
M  CHG  2  19  -1  21   1
M  END
>  <Binding energies>  (1) 
[-9.14]

>  <Ligand effiencies>  (1) 
[-0.23435897435897438]

>  <Interactions>  (1) 
["V-A:ILE:369:CG2:3236, V-B:TYR:539:CE2:9848, V-B:TYR:539:CD2:9846, V-B:PRO:540:C:9853, V-A:LEU:475:CD1:4257, H-B:ALA:541:N:9863, V-B:ALA:541:CA:9862, V-B:ALA:541:CB:9864, V-B:GLU:543:CD:9880, V-A:GLY:453:CA:4043, V-B:GLU:543:CB:9878, V-A:GLY:453:C:4041, V-A:GLY:454:CA:4048, V-B:GLU:543:CG:9879, V-A:GLU:543:CD:4908, V-A:ASP:366:CG:3212, V-A:ILE:369:CD1:3238, V-A:TYR:484:CE2:4345, V-A:ASP:366:CB:3211, V-A:TYR:484:CZ:4346, V-A:PRO:540:CA:4883, V-A:PRO:540:CB:4885, V-A:PRO:540:C:4881, V-A:LEU:363:CD1:3188, V-A:LEU:363:CA:3184, V-A:LEU:363:CB:3186, H-B:TYR:539:O:9840"]

$$$$
RR21_Rahimova_2017
     RDKit          3D

 62 67  0  0  0  0  0  0  0  0999 V2000
  124.5680  130.0420   62.6820 C   0  0  0  0  0  0  0  0  0  0  0  0
  124.5790  130.3150   64.0800 O   0  0  0  0  0  0  0  0  0  0  0  0
  125.4890  129.6600   64.8890 C   0  0  0  0  0  0  0  0  0  0  0  0
  126.8650  129.5680   64.6170 C   0  0  0  0  0  0  0  0  0  0  0  0
  127.7170  128.8900   65.4880 C   0  0  0  0  0  0  0  0  0  0  0  0
  127.2190  128.2920   66.6520 C   0  0  0  0  0  0  0  0  0  0  0  0
  128.1380  127.5680   67.5880 C   0  0  0  0  0  0  0  0  0  0  0  0
  128.2180  127.9460   68.8490 N   0  0  0  0  0  0  0  0  0  0  0  0
  129.1030  127.1290   69.4400 N   0  0  0  0  0  0  0  0  0  0  0  0
  129.4150  127.2470   70.8200 C   0  0  0  0  0  0  0  0  0  0  0  0
  129.0030  126.2660   71.7350 C   0  0  0  0  0  0  0  0  0  0  0  0
  129.3190  126.3910   73.0850 C   0  0  0  0  0  0  0  0  0  0  0  0
  130.0460  127.4950   73.5250 C   0  0  0  0  0  0  0  0  0  0  0  0
  130.4580  128.4770   72.6270 C   0  0  0  0  0  0  0  0  0  0  0  0
  130.1430  128.3550   71.2770 C   0  0  0  0  0  0  0  0  0  0  0  0
  129.5760  126.2100   68.5370 C   0  0  0  0  0  0  0  0  0  0  0  0
  128.9830  126.4700   67.3110 C   0  0  0  0  0  0  0  0  0  0  0  0
  129.1370  125.7350   66.0650 C   0  0  0  0  0  0  0  0  0  0  0  0
  130.2750  125.4740   65.3810 C   0  0  0  0  0  0  0  0  0  0  0  0
  131.9330  125.9620   65.7950 S   0  0  0  0  0  0  0  0  0  0  0  0
  132.5210  125.1270   64.3650 C   0  0  0  0  0  0  0  0  0  0  0  0
  133.7480  125.0100   63.9590 N   0  0  0  0  0  0  0  0  0  0  0  0
  134.0920  124.2930   62.7810 C   0  0  0  0  0  0  0  0  0  0  0  0
  135.2280  124.1190   62.3420 O   0  0  0  0  0  0  0  0  0  0  0  0
  132.9090  123.7100   62.0570 C   0  0  0  0  0  0  0  0  0  0  0  0
  133.1550  122.9300   60.7590 C   0  0  0  0  0  0  0  0  0  0  0  0
  132.5980  121.5080   60.7640 C   0  0  0  0  0  0  0  0  0  0  0  0
  131.2170  121.2970   60.7560 C   0  0  0  0  0  0  0  0  0  0  0  0
  130.7090  120.0010   60.7430 C   0  0  0  0  0  0  0  0  0  0  0  0
  131.5820  118.9110   60.7370 C   0  0  0  0  0  0  0  0  0  0  0  0
  131.0240  117.4990   60.7120 C   0  0  0  0  0  0  0  0  0  0  0  0
  132.9630  119.1190   60.7340 C   0  0  0  0  0  0  0  0  0  0  0  0
  133.4700  120.4150   60.7470 C   0  0  0  0  0  0  0  0  0  0  0  0
  131.6900  123.8390   62.4700 N   0  0  0  0  0  0  0  0  0  0  0  0
  131.4950  124.5620   63.6540 N   0  0  0  0  0  0  0  0  0  0  0  0
  130.2390  124.7120   64.1400 C   0  0  0  0  0  0  0  0  0  0  0  0
  129.2180  124.2600   63.6080 O   0  0  0  0  0  0  0  0  0  0  0  0
  125.8490  128.3770   66.9190 C   0  0  0  0  0  0  0  0  0  0  0  0
  124.9950  129.0550   66.0490 C   0  0  0  0  0  0  0  0  0  0  0  0
  123.6740  129.1200   66.3370 F   0  0  0  0  0  0  0  0  0  0  0  0
  124.5242  128.9547   62.5211 H   0  0  0  0  0  0  0  0  0  0  0  0
  123.6882  130.5164   62.2227 H   0  0  0  0  0  0  0  0  0  0  0  0
  125.4831  130.4441   62.2227 H   0  0  0  0  0  0  0  0  0  0  0  0
  127.2734  130.0351   63.7087 H   0  0  0  0  0  0  0  0  0  0  0  0
  128.7908  128.8243   65.2585 H   0  0  0  0  0  0  0  0  0  0  0  0
  128.4287  125.3958   71.3845 H   0  0  0  0  0  0  0  0  0  0  0  0
  128.9960  125.6213   73.8014 H   0  0  0  0  0  0  0  0  0  0  0  0
  130.2970  127.5921   74.5916 H   0  0  0  0  0  0  0  0  0  0  0  0
  131.0304  129.3459   72.9838 H   0  0  0  0  0  0  0  0  0  0  0  0
  130.4660  129.1300   70.5663 H   0  0  0  0  0  0  0  0  0  0  0  0
  130.2986  125.4081   68.7487 H   0  0  0  0  0  0  0  0  0  0  0  0
  128.2101  125.3412   65.6225 H   0  0  0  0  0  0  0  0  0  0  0  0
  132.6843  123.4812   59.9316 H   0  0  0  0  0  0  0  0  0  0  0  0
  134.2457  122.8402   60.6478 H   0  0  0  0  0  0  0  0  0  0  0  0
  130.5301  122.1562   60.7600 H   0  0  0  0  0  0  0  0  0  0  0  0
  129.6215  119.8357   60.7375 H   0  0  0  0  0  0  0  0  0  0  0  0
  130.8830  117.1422   61.7429 H   0  0  0  0  0  0  0  0  0  0  0  0
  130.0571  117.4961   60.1875 H   0  0  0  0  0  0  0  0  0  0  0  0
  131.7277  116.8359   60.1875 H   0  0  0  0  0  0  0  0  0  0  0  0
  133.6493  118.2594   60.7214 H   0  0  0  0  0  0  0  0  0  0  0  0
  134.5576  120.5797   60.7439 H   0  0  0  0  0  0  0  0  0  0  0  0
  125.4405  127.9044   67.8244 H   0  0  0  0  0  0  0  0  0  0  0  0
  1  2  1  0
  2  3  1  0
  3  4  2  0
  4  5  1  0
  5  6  2  0
  6  7  1  0
  7  8  2  0
  8  9  1  0
  9 10  1  0
 10 11  2  0
 11 12  1  0
 12 13  2  0
 13 14  1  0
 14 15  2  0
  9 16  1  0
 16 17  2  0
 17 18  1  0
 18 19  2  0
 19 20  1  0
 20 21  1  0
 21 22  2  0
 22 23  1  0
 23 24  2  0
 23 25  1  0
 25 26  1  0
 26 27  1  0
 27 28  2  0
 28 29  1  0
 29 30  2  0
 30 31  1  0
 30 32  1  0
 32 33  2  0
 25 34  2  0
 34 35  1  0
 35 36  1  0
 36 37  2  0
  6 38  1  0
 38 39  2  0
 39 40  1  0
 39  3  1  0
 17  7  1  0
 36 19  1  0
 15 10  1  0
 35 21  1  0
 33 27  1  0
  1 41  1  0
  1 42  1  0
  1 43  1  0
  4 44  1  0
  5 45  1  0
 11 46  1  0
 12 47  1  0
 13 48  1  0
 14 49  1  0
 15 50  1  0
 16 51  1  0
 18 52  1  0
 26 53  1  0
 26 54  1  0
 28 55  1  0
 29 56  1  0
 31 57  1  0
 31 58  1  0
 31 59  1  0
 32 60  1  0
 33 61  1  0
 38 62  1  0
M  END
>  <Binding energies>  (1) 
[-10.9]

>  <Ligand effiencies>  (1) 
[-0.2725]

>  <Interactions>  (1) 
["V-A:ILE:369:CG2:3236, V-B:TYR:539:CE2:9848, V-B:TYR:539:CD2:9846, V-A:PRO:482:CG:4326, V-A:PRO:482:CB:4325, V-A:LEU:475:CD1:4257, V-B:GLU:543:CD:9880, V-A:ARG:545:CZ:4926, V-A:GLY:453:CA:4043, V-B:GLU:543:CB:9878, V-A:GLY:453:C:4041, V-A:HIS:456:CE1:4069, V-B:HIS:456:CE1:9041, V-B:ARG:545:CZ:9898, H-B:GLY:454:N:9021, V-A:HIS:383:CE1:3392, H-A:GLY:454:N:4049, V-A:GLU:543:C:4902, V-B:GLU:543:CG:9879, V-A:GLU:543:CD:4908, V-A:GLU:543:CG:4907, H-A:ARG:545:NH1:4927, V-B:HIS:456:CD2:9039, V-A:LYS:547:CE:4950, V-A:GLY:544:CA:4914, V-B:ASP:366:CG:8184, H-A:ARG:545:NH2:4928, V-A:GLY:544:C:4912, V-B:ARG:545:CD:9895, V-B:ARG:545:CG:9894"]

$$$$
RR22_Rahimova_2017
     RDKit          3D

 49 54  0  0  0  0  0  0  0  0999 V2000
  123.8810  129.5720   56.2570 O   0  0  0  0  0  0  0  0  0  0  0  0
  124.7600  129.6890   57.1070 C   0  0  0  0  0  0  0  0  0  0  0  0
  124.6170  129.6320   58.4830 N   0  0  0  0  0  0  0  0  0  0  0  0
  125.7600  129.7280   59.3380 C   0  0  1  0  0  0  0  0  0  0  0  0
  125.4760  130.8160   60.2220 O   0  0  0  0  0  0  0  0  0  0  0  0
  125.4370  130.5630   61.5940 C   0  0  0  0  0  0  0  0  0  0  0  0
  124.8090  131.5230   62.3860 C   0  0  0  0  0  0  0  0  0  0  0  0
  124.7660  131.3600   63.7710 C   0  0  0  0  0  0  0  0  0  0  0  0
  125.3570  130.2420   64.3610 C   0  0  0  0  0  0  0  0  0  0  0  0
  125.9870  129.2810   63.5680 C   0  0  0  0  0  0  0  0  0  0  0  0
  126.0160  129.4190   62.1770 C   0  0  0  0  0  0  0  0  0  0  0  0
  126.7080  128.4590   61.2360 C   0  0  1  0  0  0  0  0  0  0  0  0
  126.8130  126.9740   61.5200 C   0  0  0  0  0  0  0  0  0  0  0  0
  126.8300  126.4340   60.0870 C   0  0  0  0  0  0  0  0  0  0  0  0
  127.3050  125.0770   59.7510 C   0  0  0  0  0  0  0  0  0  0  0  0
  127.5220  124.7080   58.4150 C   0  0  0  0  0  0  0  0  0  0  0  0
  127.9700  123.4270   58.1040 C   0  0  0  0  0  0  0  0  0  0  0  0
  128.2040  122.5090   59.1240 C   0  0  0  0  0  0  0  0  0  0  0  0
  127.9940  122.8600   60.4550 C   0  0  0  0  0  0  0  0  0  0  0  0
  127.5470  124.1410   60.7680 C   0  0  0  0  0  0  0  0  0  0  0  0
  126.3650  127.2960   59.2630 N   0  0  0  0  0  0  0  0  0  0  0  0
  125.9890  128.4330   59.9980 N   0  0  0  0  0  0  0  0  0  0  0  0
  126.9260  130.1580   58.4600 C   0  0  0  0  0  0  0  0  0  0  0  0
  128.0730  130.6760   58.9590 C   0  0  0  0  0  0  0  0  0  0  0  0
  129.2790  131.1120   58.2300 C   0  0  0  0  0  0  0  0  0  0  0  0
  130.5690  130.6620   58.5420 C   0  0  0  0  0  0  0  0  0  0  0  0
  131.6650  131.1190   57.8080 C   0  0  0  0  0  0  0  0  0  0  0  0
  131.4400  132.0280   56.7740 C   0  0  0  0  0  0  0  0  0  0  0  0
  130.2040  132.4870   56.4540 N   0  0  0  0  0  0  0  0  0  0  0  0
  129.1510  132.0300   57.1800 C   0  0  0  0  0  0  0  0  0  0  0  0
  126.5190  129.9780   56.7470 S   0  0  0  0  0  0  0  0  0  0  0  0
  123.7030  129.5660   58.9050 H   0  0  0  0  0  0  0  0  0  0  0  0
  124.3485  132.4068   61.9202 H   0  0  0  0  0  0  0  0  0  0  0  0
  124.2661  132.1130   64.3980 H   0  0  0  0  0  0  0  0  0  0  0  0
  125.3264  130.1176   65.4535 H   0  0  0  0  0  0  0  0  0  0  0  0
  126.4637  128.4096   64.0407 H   0  0  0  0  0  0  0  0  0  0  0  0
  127.7250  128.8736   61.2986 H   0  0  0  0  0  0  0  0  0  0  0  0
  127.7377  126.7256   62.0616 H   0  0  0  0  0  0  0  0  0  0  0  0
  126.0177  126.5660   62.1611 H   0  0  0  0  0  0  0  0  0  0  0  0
  127.3374  125.4340   57.6095 H   0  0  0  0  0  0  0  0  0  0  0  0
  128.1386  123.1411   57.0553 H   0  0  0  0  0  0  0  0  0  0  0  0
  128.5579  121.4974   58.8763 H   0  0  0  0  0  0  0  0  0  0  0  0
  128.1803  122.1288   61.2554 H   0  0  0  0  0  0  0  0  0  0  0  0
  127.3826  124.4210   61.8190 H   0  0  0  0  0  0  0  0  0  0  0  0
  128.1106  130.7863   60.0528 H   0  0  0  0  0  0  0  0  0  0  0  0
  130.7180  129.9483   59.3657 H   0  0  0  0  0  0  0  0  0  0  0  0
  132.6823  130.7705   58.0396 H   0  0  0  0  0  0  0  0  0  0  0  0
  132.3019  132.3882   56.1931 H   0  0  0  0  0  0  0  0  0  0  0  0
  128.1456  132.4000   56.9304 H   0  0  0  0  0  0  0  0  0  0  0  0
  1  2  2  0
  2  3  1  0
  3  4  1  0
  4  5  1  1
  5  6  1  0
  6  7  2  0
  7  8  1  0
  8  9  2  0
  9 10  1  0
 10 11  2  0
 11 12  1  0
 12 13  1  0
 13 14  1  0
 14 15  1  0
 15 16  2  0
 16 17  1  0
 17 18  2  0
 18 19  1  0
 19 20  2  0
 14 21  2  0
 21 22  1  0
  4 23  1  0
 23 24  2  0
 24 25  1  0
 25 26  2  0
 26 27  1  0
 27 28  2  0
 28 29  1  0
 29 30  2  0
 23 31  1  0
 31  2  1  0
 22  4  1  0
 30 25  1  0
 11  6  1  0
 22 12  1  0
 20 15  1  0
  3 32  1  0
  7 33  1  0
  8 34  1  0
  9 35  1  0
 10 36  1  0
 12 37  1  6
 13 38  1  0
 13 39  1  0
 16 40  1  0
 17 41  1  0
 18 42  1  0
 19 43  1  0
 20 44  1  0
 24 45  1  0
 26 46  1  0
 27 47  1  0
 28 48  1  0
 30 49  1  0
M  END
>  <Binding energies>  (1) 
[-8.62]

>  <Ligand effiencies>  (1) 
[-0.269375]

>  <Interactions>  (1) 
["V-B:PRO:540:N:9856, V-B:PRO:540:CA:9855, V-B:MET:535:CE:9807, H-B:TYR:531:OH:9767, V-B:TYR:539:C:9839, V-B:ASP:366:CB:8183, V-B:ASP:366:CA:8181, V-A:TYR:539:CE1:4875, V-B:ASP:366:CG:8184, V-A:TYR:539:C:4867, H-A:TYR:539:N:4870, V-A:PRO:540:CA:4883, V-A:TYR:539:CD1:4873, V-B:TYR:531:CZ:9766, V-A:PRO:540:CB:4885, V-A:TYR:539:CG:4872, V-A:TYR:539:CZ:4877, V-A:PRO:540:N:4884, V-B:LEU:475:CD1:9229, V-B:GLY:454:CA:9020, V-B:TYR:531:CE1:9764, H-B:ASP:366:OD2:8186, V-B:ASP:366:C:8179, V-A:PRO:540:CD:4887, H-A:TYR:539:OH:4878, H-B:ASP:366:O:8180"]

$$$$
RR23_Rahimova_2017
     RDKit          3D

 65 70  0  0  0  0  0  0  0  0999 V2000
  132.7290  123.8740   75.7480 C   0  0  0  0  0  0  0  0  0  0  0  0
  131.5930  124.3620   74.8680 C   0  0  0  0  0  0  0  0  0  0  0  0
  130.7690  123.4430   74.2170 C   0  0  0  0  0  0  0  0  0  0  0  0
  129.7210  123.8920   73.4170 C   0  0  0  0  0  0  0  0  0  0  0  0
  129.4970  125.2640   73.2520 C   0  0  0  0  0  0  0  0  0  0  0  0
  128.3410  125.7310   72.3960 C   0  0  0  0  0  0  0  0  0  0  0  0
  127.2250  125.2690   72.6420 O   0  0  0  0  0  0  0  0  0  0  0  0
  128.5680  126.6440   71.4050 N   0  0  0  0  0  0  0  0  0  0  0  0
  128.7560  128.0730   71.7030 C   0  0  0  0  0  0  0  0  0  0  0  0
  129.1250  128.7390   70.3870 C   0  0  0  0  0  0  0  0  0  0  0  0
  129.4870  127.5760   69.5140 C   0  0  0  0  0  0  0  0  0  0  0  0
  129.9910  127.5760   68.2140 C   0  0  0  0  0  0  0  0  0  0  0  0
  130.1160  126.3740   67.5010 C   0  0  0  0  0  0  0  0  0  0  0  0
  130.6670  126.3300   66.0670 C   0  0  2  0  0  0  0  0  0  0  0  0
  130.1900  125.1770   65.3340 N   0  0  0  0  0  0  0  0  0  0  0  0
  131.0480  124.7630   64.4910 C   0  0  0  0  0  0  0  0  0  0  0  0
  130.9540  123.6950   63.6540 N   0  0  0  0  0  0  0  0  0  0  0  0
  129.9940  122.7400   63.6130 C   0  0  0  0  0  0  0  0  0  0  0  0
  128.9890  122.7020   64.3270 O   0  0  0  0  0  0  0  0  0  0  0  0
  130.2140  121.6240   62.5790 C   0  0  0  0  0  0  0  0  0  0  0  0
  129.5870  122.0190   61.2970 N   0  0  0  0  0  0  0  0  0  0  0  0
  130.4210  121.9750   60.1870 N   0  0  0  0  0  0  0  0  0  0  0  0
  129.9940  122.2990   59.0080 N   0  0  0  0  0  0  0  0  0  0  0  0
  128.6670  122.7000   58.8360 C   0  0  0  0  0  0  0  0  0  0  0  0
  128.2390  123.0440   57.5510 C   0  0  0  0  0  0  0  0  0  0  0  0
  126.9190  123.4490   57.3470 C   0  0  0  0  0  0  0  0  0  0  0  0
  126.0290  123.5120   58.4220 C   0  0  0  0  0  0  0  0  0  0  0  0
  126.4560  123.1700   59.7070 C   0  0  0  0  0  0  0  0  0  0  0  0
  127.7790  122.7610   59.9110 C   0  0  0  0  0  0  0  0  0  0  0  0
  128.2610  122.3900   61.2940 C   0  0  0  0  0  0  0  0  0  0  0  0
  127.5490  122.4270   62.3020 O   0  0  0  0  0  0  0  0  0  0  0  0
  132.5840  125.6710   64.3860 S   0  0  0  0  0  0  0  0  0  0  0  0
  132.2070  126.4360   65.9730 C   0  0  2  0  0  0  0  0  0  0  0  0
  133.0180  125.7280   67.0780 C   0  0  0  0  0  0  0  0  0  0  0  0
  129.6810  125.1860   68.0990 C   0  0  0  0  0  0  0  0  0  0  0  0
  129.1570  125.1870   69.3920 C   0  0  0  0  0  0  0  0  0  0  0  0
  129.1100  126.3790   70.1270 C   0  0  0  0  0  0  0  0  0  0  0  0
  130.3110  126.1800   73.9300 C   0  0  0  0  0  0  0  0  0  0  0  0
  131.3580  125.7310   74.7310 C   0  0  0  0  0  0  0  0  0  0  0  0
  132.4509  123.9935   76.8055 H   0  0  0  0  0  0  0  0  0  0  0  0
  132.9253  122.8122   75.5382 H   0  0  0  0  0  0  0  0  0  0  0  0
  133.6342  124.4626   75.5382 H   0  0  0  0  0  0  0  0  0  0  0  0
  130.9471  122.3640   74.3357 H   0  0  0  0  0  0  0  0  0  0  0  0
  129.0667  123.1656   72.9128 H   0  0  0  0  0  0  0  0  0  0  0  0
  127.8256  128.5047   72.1005 H   0  0  0  0  0  0  0  0  0  0  0  0
  129.5393  128.2235   72.4604 H   0  0  0  0  0  0  0  0  0  0  0  0
  128.2716  129.2951   69.9718 H   0  0  0  0  0  0  0  0  0  0  0  0
  129.9345  129.4772   70.4854 H   0  0  0  0  0  0  0  0  0  0  0  0
  130.2924  128.5240   67.7445 H   0  0  0  0  0  0  0  0  0  0  0  0
  130.2676  127.2383   65.5921 H   0  0  0  0  0  0  0  0  0  0  0  0
  131.7210  123.5690   63.0100 H   0  0  0  0  0  0  0  0  0  0  0  0
  131.2926  121.4687   62.4288 H   0  0  0  0  0  0  0  0  0  0  0  0
  129.7598  120.6897   62.9407 H   0  0  0  0  0  0  0  0  0  0  0  0
  128.9393  122.9958   56.7041 H   0  0  0  0  0  0  0  0  0  0  0  0
  126.5784  123.7194   56.3366 H   0  0  0  0  0  0  0  0  0  0  0  0
  124.9896  123.8317   58.2560 H   0  0  0  0  0  0  0  0  0  0  0  0
  125.7564  123.2218   60.5542 H   0  0  0  0  0  0  0  0  0  0  0  0
  132.4961  127.4911   66.0880 H   0  0  0  0  0  0  0  0  0  0  0  0
  132.6512  126.0483   68.0643 H   0  0  0  0  0  0  0  0  0  0  0  0
  132.8999  124.6389   66.9788 H   0  0  0  0  0  0  0  0  0  0  0  0
  134.0812  125.9921   66.9788 H   0  0  0  0  0  0  0  0  0  0  0  0
  129.7531  124.2397   67.5428 H   0  0  0  0  0  0  0  0  0  0  0  0
  128.7810  124.2526   69.8342 H   0  0  0  0  0  0  0  0  0  0  0  0
  130.1225  127.2590   73.8294 H   0  0  0  0  0  0  0  0  0  0  0  0
  131.9993  126.4547   75.2553 H   0  0  0  0  0  0  0  0  0  0  0  0
  1  2  1  0
  2  3  2  0
  3  4  1  0
  4  5  2  0
  5  6  1  0
  6  7  2  0
  6  8  1  0
  8  9  1  0
  9 10  1  0
 10 11  1  0
 11 12  2  0
 12 13  1  0
 13 14  1  0
 14 15  1  0
 15 16  2  0
 16 17  1  0
 17 18  1  0
 18 19  2  0
 18 20  1  0
 20 21  1  0
 21 22  1  0
 22 23  2  0
 23 24  1  0
 24 25  2  0
 25 26  1  0
 26 27  2  0
 27 28  1  0
 28 29  2  0
 29 30  1  0
 30 31  2  0
 16 32  1  0
 32 33  1  0
 33 34  1  0
 13 35  2  0
 35 36  1  0
 36 37  2  0
  5 38  1  0
 38 39  2  0
 39  2  1  0
 37  8  1  0
 37 11  1  0
 33 14  1  0
 30 21  1  0
 29 24  1  0
  1 40  1  0
  1 41  1  0
  1 42  1  0
  3 43  1  0
  4 44  1  0
  9 45  1  0
  9 46  1  0
 10 47  1  0
 10 48  1  0
 12 49  1  0
 14 50  1  6
 17 51  1  0
 20 52  1  0
 20 53  1  0
 25 54  1  0
 26 55  1  0
 27 56  1  0
 28 57  1  0
 33 58  1  6
 34 59  1  0
 34 60  1  0
 34 61  1  0
 35 62  1  0
 36 63  1  0
 38 64  1  0
 39 65  1  0
M  END
>  <Binding energies>  (1) 
[-9.07]

>  <Ligand effiencies>  (1) 
[-0.22675]

>  <Interactions>  (1) 
["V-B:PRO:540:CB:9857, V-B:TYR:539:CE2:9848, V-B:TYR:539:CZ:9849, V-B:PRO:540:CA:9855, V-B:PRO:540:C:9853, V-B:MET:535:CE:9807, V-A:LEU:475:CD1:4257, H-B:ALA:541:N:9863, V-B:TYR:539:C:9839, V-B:ALA:541:CB:9864, V-A:ARG:545:CD:4923, V-A:ARG:545:CZ:4926, V-B:GLU:543:CB:9878, V-A:GLU:543:CB:4906, V-A:HIS:456:CE1:4069, V-A:ARG:545:CG:4922, V-B:HIS:456:CE1:9041, H-A:TYR:484:OH:4347, V-A:GLU:543:C:4902, V-A:GLU:543:CD:4908, V-B:GLU:543:C:9874, V-B:HIS:456:CD2:9039, V-A:TYR:484:CE2:4345, V-B:GLU:543:CA:9876, V-A:TYR:484:CZ:4346, H-A:ARG:545:NH2:4928, H-A:ARG:545:NE:4924, V-A:ASP:473:CG:4239, V-A:HIS:456:CG:4065, V-A:HIS:456:CB:4064, V-A:HIS:456:CD2:4067"]

$$$$
RR24_Rahimova_2017
     RDKit          3D

 65 71  0  0  0  0  0  0  0  0999 V2000
  127.1770  121.9700   57.0470 C   0  0  0  0  0  0  0  0  0  0  0  0
  127.1960  123.0190   58.1690 C   0  0  2  0  0  0  0  0  0  0  0  0
  126.6800  124.4150   57.7120 C   0  0  0  0  0  0  0  0  0  0  0  0
  125.4910  124.7380   57.8050 O   0  0  0  0  0  0  0  0  0  0  0  0
  127.6720  125.1940   57.1900 O   0  0  0  0  0  0  0  0  0  0  0  0
  127.9280  126.4290   57.7410 C   0  0  0  0  0  0  0  0  0  0  0  0
  127.7810  126.6080   59.1180 C   0  0  0  0  0  0  0  0  0  0  0  0
  128.0460  127.8490   59.6880 C   0  0  0  0  0  0  0  0  0  0  0  0
  128.4680  128.9140   58.8870 C   0  0  0  0  0  0  0  0  0  0  0  0
  128.7400  130.2850   59.5190 C   0  0  1  0  0  0  0  0  0  0  0  0
  127.8460  130.5400   60.7540 C   0  0  0  0  0  0  0  0  0  0  0  0
  128.3390  130.9380   61.9410 C   0  0  0  0  0  0  0  0  0  0  0  0
  129.6810  131.1470   62.1430 N   0  0  0  0  0  0  0  0  0  0  0  0
  130.5940  130.9560   61.1330 C   0  0  0  0  0  0  0  0  0  0  0  0
  131.8780  131.2130   61.4930 N   0  0  0  0  0  0  0  0  0  0  0  0
  132.9260  131.0040   60.6500 C   0  0  0  0  0  0  0  0  0  0  0  0
  134.0670  130.9440   61.1110 O   0  0  0  0  0  0  0  0  0  0  0  0
  132.5540  130.7110   59.3470 N   0  0  0  0  0  0  0  0  0  0  0  0
  133.6530  130.5650   58.3700 C   0  0  0  0  0  0  0  0  0  0  0  0
  131.2830  130.4290   58.8740 C   0  0  0  0  0  0  0  0  0  0  0  0
  131.0310  130.1230   57.7050 O   0  0  0  0  0  0  0  0  0  0  0  0
  130.2310  130.5480   59.8890 C   0  0  0  0  0  0  0  0  0  0  0  0
  127.2740  131.0990   62.9170 C   0  0  0  0  0  0  0  0  0  0  0  0
  127.2630  131.4800   64.2590 C   0  0  0  0  0  0  0  0  0  0  0  0
  126.0450  131.5390   64.9410 C   0  0  0  0  0  0  0  0  0  0  0  0
  124.8530  131.2210   64.2820 C   0  0  0  0  0  0  0  0  0  0  0  0
  124.8710  130.8400   62.9380 C   0  0  0  0  0  0  0  0  0  0  0  0
  126.0910  130.7810   62.2620 C   0  0  0  0  0  0  0  0  0  0  0  0
  126.3960  130.4190   60.8620 C   0  0  0  0  0  0  0  0  0  0  0  0
  125.6380  130.0840   59.9530 O   0  0  0  0  0  0  0  0  0  0  0  0
  128.6330  128.7270   57.5110 C   0  0  0  0  0  0  0  0  0  0  0  0
  128.3690  127.4850   56.9400 C   0  0  0  0  0  0  0  0  0  0  0  0
  128.5250  123.0970   58.8420 N   0  0  0  0  0  0  0  0  0  0  0  0
  128.6850  122.7450   60.1490 C   0  0  0  0  0  0  0  0  0  0  0  0
  127.8160  122.3450   60.9270 O   0  0  0  0  0  0  0  0  0  0  0  0
  130.1260  122.9470   60.4400 C   0  0  0  0  0  0  0  0  0  0  0  0
  130.8580  122.7500   61.6120 C   0  0  0  0  0  0  0  0  0  0  0  0
  132.2300  123.0240   61.5970 C   0  0  0  0  0  0  0  0  0  0  0  0
  132.8470  123.4820   60.4270 C   0  0  0  0  0  0  0  0  0  0  0  0
  132.0960  123.6720   59.2610 C   0  0  0  0  0  0  0  0  0  0  0  0
  130.7290  123.3950   59.2960 C   0  0  0  0  0  0  0  0  0  0  0  0
  129.6890  123.4930   58.2410 C   0  0  0  0  0  0  0  0  0  0  0  0
  129.8440  123.8510   57.0730 O   0  0  0  0  0  0  0  0  0  0  0  0
  127.1587  120.9622   57.4875 H   0  0  0  0  0  0  0  0  0  0  0  0
  126.2813  122.1146   56.4250 H   0  0  0  0  0  0  0  0  0  0  0  0
  128.0773  122.0820   56.4250 H   0  0  0  0  0  0  0  0  0  0  0  0
  126.4758  122.6688   58.9230 H   0  0  0  0  0  0  0  0  0  0  0  0
  127.4562  125.7691   59.7510 H   0  0  0  0  0  0  0  0  0  0  0  0
  127.9232  127.9926   60.7717 H   0  0  0  0  0  0  0  0  0  0  0  0
  128.4837  130.9993   58.7227 H   0  0  0  0  0  0  0  0  0  0  0  0
  130.0080  131.4490   63.0500 H   0  0  0  0  0  0  0  0  0  0  0  0
  132.0990  131.5470   62.4190 H   0  0  0  0  0  0  0  0  0  0  0  0
  134.6054  130.4385   58.9057 H   0  0  0  0  0  0  0  0  0  0  0  0
  133.4676  129.6836   57.7385 H   0  0  0  0  0  0  0  0  0  0  0  0
  133.7041  131.4642   57.7385 H   0  0  0  0  0  0  0  0  0  0  0  0
  128.2020  131.7310   64.7740 H   0  0  0  0  0  0  0  0  0  0  0  0
  126.0235  131.8365   65.9998 H   0  0  0  0  0  0  0  0  0  0  0  0
  123.8973  131.2711   64.8243 H   0  0  0  0  0  0  0  0  0  0  0  0
  123.9345  130.5893   62.4183 H   0  0  0  0  0  0  0  0  0  0  0  0
  128.9715  129.5616   56.8795 H   0  0  0  0  0  0  0  0  0  0  0  0
  128.5076  127.3354   55.8591 H   0  0  0  0  0  0  0  0  0  0  0  0
  130.3671  122.3874   62.5272 H   0  0  0  0  0  0  0  0  0  0  0  0
  132.8269  122.8787   62.5095 H   0  0  0  0  0  0  0  0  0  0  0  0
  133.9265  123.6935   60.4238 H   0  0  0  0  0  0  0  0  0  0  0  0
  132.5731  124.0318   58.3375 H   0  0  0  0  0  0  0  0  0  0  0  0
  1  2  1  0
  2  3  1  0
  3  4  2  0
  3  5  1  0
  5  6  1  0
  6  7  2  0
  7  8  1  0
  8  9  2  0
  9 10  1  0
 10 11  1  0
 11 12  2  0
 12 13  1  0
 13 14  1  0
 14 15  1  0
 15 16  1  0
 16 17  2  0
 16 18  1  0
 18 19  1  0
 18 20  1  0
 20 21  2  0
 20 22  1  0
 12 23  1  0
 23 24  2  0
 24 25  1  0
 25 26  2  0
 26 27  1  0
 27 28  2  0
 28 29  1  0
 29 30  2  0
  9 31  1  0
 31 32  2  0
  2 33  1  0
 33 34  1  0
 34 35  2  0
 34 36  1  0
 36 37  2  0
 37 38  1  0
 38 39  2  0
 39 40  1  0
 40 41  2  0
 41 42  1  0
 42 43  2  0
 32  6  1  0
 42 33  1  0
 22 10  1  0
 28 23  1  0
 41 36  1  0
 29 11  1  0
 22 14  2  0
  1 44  1  0
  1 45  1  0
  1 46  1  0
  2 47  1  1
  7 48  1  0
  8 49  1  0
 10 50  1  6
 13 51  1  0
 15 52  1  0
 19 53  1  0
 19 54  1  0
 19 55  1  0
 24 56  1  0
 25 57  1  0
 26 58  1  0
 27 59  1  0
 31 60  1  0
 32 61  1  0
 37 62  1  0
 38 63  1  0
 39 64  1  0
 40 65  1  0
M  END
>  <Binding energies>  (1) 
[-9.71]

>  <Ligand effiencies>  (1) 
[-0.2157777777777778]

>  <Interactions>  (1) 
["V-B:TYR:539:CE2:9848, V-B:PRO:540:N:9856, V-B:TYR:539:CZ:9849, V-B:TYR:539:CD2:9846, V-B:PRO:540:CA:9855, V-B:MET:535:CE:9807, H-B:ALA:541:N:9863, H-B:TYR:531:OH:9767, V-B:TYR:539:C:9839, V-B:TYR:484:CZ:9318, V-A:ALA:541:CB:4892, H-A:GLU:543:OE1:4909, V-B:TYR:484:CE2:9317, V-A:GLU:543:CD:4908, V-A:GLU:543:CG:4907, V-A:ASP:366:CG:3212, V-A:ASP:366:CB:3211, V-A:PRO:540:CA:4883, H-A:GLU:543:OE2:4910, H-A:ARG:545:NH2:4928, V-B:TYR:539:CA:9841, V-B:PRO:540:CD:9859, V-A:PRO:540:CB:4885, V-A:LEU:363:CD1:3188, V-A:ASN:362:CB:3175, V-A:LEU:363:CA:3184, V-A:LEU:363:CB:3186, V-B:LEU:475:CD1:9229, V-B:GLY:454:CA:9020, H-B:TYR:539:OH:9850, H-A:ALA:541:O:4889, H-A:LEU:363:N:3185"]

$$$$
RR24_Rahimova_2017-again1
     RDKit          3D

 63 69  0  0  0  0  0  0  0  0999 V2000
  127.2950  132.0040   61.0560 C   0  0  0  0  0  0  0  0  0  0  0  0
  127.9340  130.7630   60.4210 C   0  0  2  0  0  0  0  0  0  0  0  0
  127.4610  129.4270   61.0650 C   0  0  0  0  0  0  0  0  0  0  0  0
  126.6520  129.4010   62.0000 O   0  0  0  0  0  0  0  0  0  0  0  0
  128.0540  128.3320   60.5030 O   0  0  0  0  0  0  0  0  0  0  0  0
  128.5660  127.3450   61.3140 C   0  0  0  0  0  0  0  0  0  0  0  0
  127.7950  126.2150   61.5910 C   0  0  0  0  0  0  0  0  0  0  0  0
  128.3120  125.2020   62.3940 C   0  0  0  0  0  0  0  0  0  0  0  0
  129.6050  125.3100   62.9170 C   0  0  0  0  0  0  0  0  0  0  0  0
  130.1800  124.1950   63.8020 C   0  0  1  0  0  0  0  0  0  0  0  0
  130.6350  122.9830   62.9570 C   0  0  0  0  0  0  0  0  0  0  0  0
  129.9570  122.1170   62.1720 C   0  0  0  0  0  0  0  0  0  0  0  0
  128.6790  122.1230   61.9960 O   0  0  0  0  0  0  0  0  0  0  0  0
  130.8820  121.1870   61.5260 C   0  0  0  0  0  0  0  0  0  0  0  0
  130.6860  120.1300   60.6280 C   0  0  0  0  0  0  0  0  0  0  0  0
  131.7860  119.4050   60.1650 C   0  0  0  0  0  0  0  0  0  0  0  0
  133.0720  119.7330   60.5970 C   0  0  0  0  0  0  0  0  0  0  0  0
  133.2630  120.7870   61.4940 C   0  0  0  0  0  0  0  0  0  0  0  0
  132.1610  121.5130   61.9530 C   0  0  0  0  0  0  0  0  0  0  0  0
  132.0410  122.6240   62.8800 C   0  0  0  0  0  0  0  0  0  0  0  0
  132.9420  123.2310   63.5570 N   0  0  0  0  0  0  0  0  0  0  0  0
  132.6240  124.1830   64.4790 C   0  0  0  0  0  0  0  0  0  0  0  0
  133.6990  124.5980   65.2130 N   0  0  0  0  0  0  0  0  0  0  0  0
  133.5380  125.5070   66.1070 C   0  0  0  0  0  0  0  0  0  0  0  0
  134.5820  125.8090   66.7080 O   0  0  0  0  0  0  0  0  0  0  0  0
  132.2970  126.0870   66.3670 N   0  0  0  0  0  0  0  0  0  0  0  0
  132.0800  127.1380   67.3890 C   0  0  0  0  0  0  0  0  0  0  0  0
  131.1530  125.7180   65.6870 C   0  0  0  0  0  0  0  0  0  0  0  0
  130.0310  126.1880   65.9020 O   0  0  0  0  0  0  0  0  0  0  0  0
  131.3650  124.6890   64.6640 C   0  0  0  0  0  0  0  0  0  0  0  0
  130.3780  126.4380   62.6260 C   0  0  0  0  0  0  0  0  0  0  0  0
  129.8630  127.4500   61.8220 C   0  0  0  0  0  0  0  0  0  0  0  0
  129.4220  130.8670   60.3600 N   0  0  0  0  0  0  0  0  0  0  0  0
  130.1160  130.5110   59.2430 C   0  0  0  0  0  0  0  0  0  0  0  0
  129.6610  130.0740   58.1850 O   0  0  0  0  0  0  0  0  0  0  0  0
  131.5430  130.7590   59.5700 C   0  0  0  0  0  0  0  0  0  0  0  0
  132.7010  130.5730   58.8130 C   0  0  0  0  0  0  0  0  0  0  0  0
  133.9350  130.8970   59.3860 C   0  0  0  0  0  0  0  0  0  0  0  0
  133.9980  131.3980   60.6930 C   0  0  0  0  0  0  0  0  0  0  0  0
  132.8260  131.5790   61.4360 C   0  0  0  0  0  0  0  0  0  0  0  0
  131.6050  131.2480   60.8470 C   0  0  0  0  0  0  0  0  0  0  0  0
  130.2190  131.3290   61.3720 C   0  0  0  0  0  0  0  0  0  0  0  0
  129.8630  131.7300   62.4800 O   0  0  0  0  0  0  0  0  0  0  0  0
  127.3388  131.9189   62.1518 H   0  0  0  0  0  0  0  0  0  0  0  0
  127.8424  132.9028   60.7358 H   0  0  0  0  0  0  0  0  0  0  0  0
  126.2454  132.0805   60.7358 H   0  0  0  0  0  0  0  0  0  0  0  0
  127.5698  130.7357   59.3834 H   0  0  0  0  0  0  0  0  0  0  0  0
  126.7805  126.1249   61.1755 H   0  0  0  0  0  0  0  0  0  0  0  0
  127.7021  124.3143   62.6178 H   0  0  0  0  0  0  0  0  0  0  0  0
  129.3658  123.8844   64.4732 H   0  0  0  0  0  0  0  0  0  0  0  0
  129.6715  119.8726   60.2895 H   0  0  0  0  0  0  0  0  0  0  0  0
  131.6388  118.5744   59.4590 H   0  0  0  0  0  0  0  0  0  0  0  0
  133.9369  119.1605   60.2305 H   0  0  0  0  0  0  0  0  0  0  0  0
  134.2760  121.0440   61.8372 H   0  0  0  0  0  0  0  0  0  0  0  0
  132.1709  126.6976   68.3929 H   0  0  0  0  0  0  0  0  0  0  0  0
  132.8336  127.9299   67.2664 H   0  0  0  0  0  0  0  0  0  0  0  0
  131.0744  127.5667   67.2664 H   0  0  0  0  0  0  0  0  0  0  0  0
  131.3959  126.5256   63.0337 H   0  0  0  0  0  0  0  0  0  0  0  0
  130.4767  128.3320   61.5866 H   0  0  0  0  0  0  0  0  0  0  0  0
  132.6442  130.1798   57.7872 H   0  0  0  0  0  0  0  0  0  0  0  0
  134.8604  130.7579   58.8079 H   0  0  0  0  0  0  0  0  0  0  0  0
  134.9725  131.6500   61.1368 H   0  0  0  0  0  0  0  0  0  0  0  0
  132.8664  131.9736   62.4620 H   0  0  0  0  0  0  0  0  0  0  0  0
  1  2  1  0
  2  3  1  0
  3  4  2  0
  3  5  1  0
  5  6  1  0
  6  7  2  0
  7  8  1  0
  8  9  2  0
  9 10  1  0
 10 11  1  0
 11 12  2  0
 12 13  1  0
 12 14  1  0
 14 15  2  0
 15 16  1  0
 16 17  2  0
 17 18  1  0
 18 19  2  0
 19 20  1  0
 20 21  2  0
 21 22  1  0
 22 23  1  0
 23 24  2  0
 24 25  1  0
 24 26  1  0
 26 27  1  0
 26 28  1  0
 28 29  2  0
 28 30  1  0
  9 31  1  0
 31 32  2  0
  2 33  1  0
 33 34  1  0
 34 35  2  0
 34 36  1  0
 36 37  2  0
 37 38  1  0
 38 39  2  0
 39 40  1  0
 40 41  2  0
 41 42  1  0
 42 43  2  0
 32  6  1  0
 42 33  1  0
 30 10  1  0
 41 36  1  0
 20 11  1  0
 30 22  2  0
 19 14  1  0
  1 44  1  0
  1 45  1  0
  1 46  1  0
  2 47  1  6
  7 48  1  0
  8 49  1  0
 10 50  1  1
 15 51  1  0
 16 52  1  0
 17 53  1  0
 18 54  1  0
 27 55  1  0
 27 56  1  0
 27 57  1  0
 31 58  1  0
 32 59  1  0
 37 60  1  0
 38 61  1  0
 39 62  1  0
 40 63  1  0
M  CHG  2  13  -1  25  -1
M  END
>  <Binding energies>  (1) 
[-9.45]

>  <Ligand effiencies>  (1) 
[-0.2197674418604651]

>  <Interactions>  (1) 
["V-A:ILE:369:CG2:3236, V-B:TYR:539:CE2:9848, V-B:TYR:539:CD2:9846, V-A:LEU:475:CD1:4257, H-B:ALA:541:N:9863, V-B:ALA:541:CB:9864, V-B:GLU:543:CD:9880, V-A:ARG:545:CD:4923, V-A:ARG:545:CZ:4926, V-A:GLU:543:CB:4906, V-A:HIS:456:CE1:4069, V-A:ARG:545:CG:4922, V-A:GLY:454:CA:4048, H-A:TYR:484:OH:4347, H-A:ALA:541:N:4891, H-A:GLY:454:N:4049, V-A:GLU:543:CD:4908, V-A:ASP:366:CG:3212, V-A:ASP:366:CB:3211, V-A:PRO:540:CA:4883, H-A:ARG:545:NE:4924, V-A:PRO:540:CB:4885, V-A:PRO:540:C:4881, V-A:ASN:362:C:3171, V-A:ASN:362:CB:3175, V-A:LEU:363:CA:3184, V-A:LEU:363:CB:3186, V-A:ASN:362:CA:3173"]

$$$$
RR25_Rahimova_2017
     RDKit          3D

 63 68  0  0  0  0  0  0  0  0999 V2000
  126.9730  122.4190   60.8690 O   0  0  0  0  0  0  0  0  0  0  0  0
  127.8680  123.1310   61.3260 C   0  0  0  0  0  0  0  0  0  0  0  0
  128.5860  122.6060   62.3720 O   0  0  0  0  0  0  0  0  0  0  0  0
  129.7630  123.1900   62.8050 C   0  0  0  0  0  0  0  0  0  0  0  0
  130.6810  122.3550   63.4400 C   0  0  0  0  0  0  0  0  0  0  0  0
  131.8840  122.8790   63.9090 C   0  0  0  0  0  0  0  0  0  0  0  0
  132.1840  124.2400   63.7540 C   0  0  0  0  0  0  0  0  0  0  0  0
  133.4690  124.7930   64.2470 N   0  0  0  0  0  0  0  0  0  0  0  0
  134.3550  125.0380   63.4320 O   0  0  0  0  0  0  0  0  0  0  0  0
  133.6020  124.9870   65.4520 O   0  0  0  0  0  0  0  0  0  0  0  0
  131.2410  125.0670   63.1230 C   0  0  0  0  0  0  0  0  0  0  0  0
  130.0260  124.5590   62.6540 C   0  0  0  0  0  0  0  0  0  0  0  0
  128.9790  125.4080   61.9560 C   0  0  0  0  0  0  0  0  0  0  0  0
  128.2630  124.5640   60.8640 C   0  0  2  0  0  0  0  0  0  0  0  0
  127.1150  125.3730   60.1940 C   0  0  0  0  0  0  0  0  0  0  0  0
  126.1190  124.7250   59.8580 O   0  0  0  0  0  0  0  0  0  0  0  0
  127.1460  126.7360   60.0960 N   0  0  0  0  0  0  0  0  0  0  0  0
  128.3980  127.5170   60.1850 C   0  0  0  0  0  0  0  0  0  0  0  0
  128.1130  128.8390   60.9280 C   0  0  0  0  0  0  0  0  0  0  0  0
  127.0220  129.5850   60.2940 N   0  0  0  0  0  0  0  0  0  0  0  0
  126.8370  130.9020   60.9180 C   0  0  0  0  0  0  0  0  0  0  0  0
  127.5640  132.0390   60.1510 C   0  0  0  0  0  0  0  0  0  0  0  0
  128.9870  131.7770   59.7840 N   0  0  0  0  0  0  0  0  0  0  0  0
  129.8710  131.7430   60.8410 C   0  0  0  0  0  0  0  0  0  0  0  0
  129.5340  131.9500   62.0130 O   0  0  0  0  0  0  0  0  0  0  0  0
  131.3000  131.4110   60.4580 C   0  0  0  0  0  0  0  0  0  0  0  0
  132.2780  131.3250   61.4580 C   0  0  0  0  0  0  0  0  0  0  0  0
  133.6000  131.0140   61.1430 C   0  0  0  0  0  0  0  0  0  0  0  0
  133.9850  130.7760   59.8250 C   0  0  0  0  0  0  0  0  0  0  0  0
  133.0320  130.8520   58.7810 C   0  0  0  0  0  0  0  0  0  0  0  0
  133.3540  130.6220   57.4230 C   0  0  0  0  0  0  0  0  0  0  0  0
  132.3660  130.7100   56.4440 C   0  0  0  0  0  0  0  0  0  0  0  0
  131.0510  131.0250   56.7810 C   0  0  0  0  0  0  0  0  0  0  0  0
  130.6860  131.2610   58.1130 C   0  0  0  0  0  0  0  0  0  0  0  0
  131.6860  131.1730   59.1140 C   0  0  0  0  0  0  0  0  0  0  0  0
  129.2420  131.5930   58.4400 C   0  0  0  0  0  0  0  0  0  0  0  0
  128.3730  131.6730   57.5660 O   0  0  0  0  0  0  0  0  0  0  0  0
  125.7910  128.7920   60.3310 C   0  0  0  0  0  0  0  0  0  0  0  0
  125.9540  127.4490   59.5800 C   0  0  0  0  0  0  0  0  0  0  0  0
  130.4565  121.2861   63.5704 H   0  0  0  0  0  0  0  0  0  0  0  0
  132.6074  122.2167   64.4071 H   0  0  0  0  0  0  0  0  0  0  0  0
  131.4628  126.1368   62.9950 H   0  0  0  0  0  0  0  0  0  0  0  0
  128.2397  125.7557   62.6926 H   0  0  0  0  0  0  0  0  0  0  0  0
  129.4670  126.2742   61.4853 H   0  0  0  0  0  0  0  0  0  0  0  0
  129.0016  124.3663   60.0732 H   0  0  0  0  0  0  0  0  0  0  0  0
  129.1546  126.9396   60.7365 H   0  0  0  0  0  0  0  0  0  0  0  0
  128.7747  127.7323   59.1742 H   0  0  0  0  0  0  0  0  0  0  0  0
  127.8345  128.6122   61.9677 H   0  0  0  0  0  0  0  0  0  0  0  0
  129.0215  129.4582   60.8932 H   0  0  0  0  0  0  0  0  0  0  0  0
  125.7611  131.1294   60.9464 H   0  0  0  0  0  0  0  0  0  0  0  0
  127.2709  130.8538   61.9277 H   0  0  0  0  0  0  0  0  0  0  0  0
  127.0064  132.2278   59.2218 H   0  0  0  0  0  0  0  0  0  0  0  0
  127.5895  132.8935   60.8432 H   0  0  0  0  0  0  0  0  0  0  0  0
  131.9986  131.5055   62.5065 H   0  0  0  0  0  0  0  0  0  0  0  0
  134.3496  130.9557   61.9460 H   0  0  0  0  0  0  0  0  0  0  0  0
  135.0319  130.5285   59.5953 H   0  0  0  0  0  0  0  0  0  0  0  0
  134.3871  130.3730   57.1388 H   0  0  0  0  0  0  0  0  0  0  0  0
  132.6277  130.5284   55.3911 H   0  0  0  0  0  0  0  0  0  0  0  0
  130.2890  131.0893   55.9903 H   0  0  0  0  0  0  0  0  0  0  0  0
  125.5314  128.5850   61.3797 H   0  0  0  0  0  0  0  0  0  0  0  0
  124.9961  129.3685   59.8351 H   0  0  0  0  0  0  0  0  0  0  0  0
  125.0590  126.8294   59.7384 H   0  0  0  0  0  0  0  0  0  0  0  0
  126.0799  127.6432   58.5046 H   0  0  0  0  0  0  0  0  0  0  0  0
  1  2  2  0
  2  3  1  0
  3  4  1  0
  4  5  2  0
  5  6  1  0
  6  7  2  0
  7  8  1  0
  8  9  2  0
  8 10  1  0
  7 11  1  0
 11 12  2  0
 12 13  1  0
 13 14  1  0
 14 15  1  0
 15 16  2  0
 15 17  1  0
 17 18  1  0
 18 19  1  0
 19 20  1  0
 20 21  1  0
 21 22  1  0
 22 23  1  0
 23 24  1  0
 24 25  2  0
 24 26  1  0
 26 27  2  0
 27 28  1  0
 28 29  2  0
 29 30  1  0
 30 31  2  0
 31 32  1  0
 32 33  2  0
 33 34  1  0
 34 35  2  0
 34 36  1  0
 36 37  2  0
 20 38  1  0
 38 39  1  0
 14  2  1  0
 39 17  1  0
 12  4  1  0
 36 23  1  0
 35 26  1  0
 35 30  1  0
  5 40  1  0
  6 41  1  0
 11 42  1  0
 13 43  1  0
 13 44  1  0
 14 45  1  6
 18 46  1  0
 18 47  1  0
 19 48  1  0
 19 49  1  0
 21 50  1  0
 21 51  1  0
 22 52  1  0
 22 53  1  0
 27 54  1  0
 28 55  1  0
 29 56  1  0
 31 57  1  0
 32 58  1  0
 33 59  1  0
 38 60  1  0
 38 61  1  0
 39 62  1  0
 39 63  1  0
M  CHG  2   8   1  10  -1
M  END
>  <Binding energies>  (1) 
[-10.46]

>  <Ligand effiencies>  (1) 
[-0.2682051282051282]

>  <Interactions>  (1) 
["V-B:PRO:540:CA:9855, V-A:LEU:475:CD1:4257, H-B:ALA:541:N:9863, V-B:ALA:541:CB:9864, V-A:ARG:545:CZ:4926, V-A:GLY:454:CA:4048, H-A:TYR:484:OH:4347, H-A:ALA:541:N:4891, H-A:GLY:454:N:4049, V-A:GLU:543:CD:4908, V-A:ASP:366:CG:3212, H-A:ARG:545:NH1:4927, V-A:ASP:366:CB:3211, V-B:ASP:366:CB:8183, V-A:TYR:539:CE1:4875, V-B:ASP:366:CG:8184, V-A:TYR:539:C:4867, V-A:PRO:540:CA:4883, H-A:ARG:545:NH2:4928, V-A:TYR:539:CD1:4873, H-A:ARG:545:NE:4924, V-A:PRO:540:CB:4885, V-A:PRO:540:N:4884, V-A:PRO:540:C:4881, V-A:ASN:362:C:3171, V-A:LEU:363:CD1:3188, V-A:ASN:362:CB:3175, V-A:LEU:363:CA:3184, V-A:LEU:363:CB:3186, V-A:ASN:362:CA:3173, V-A:TYR:531:CZ:4794, V-A:TYR:531:CE2:4793"]

$$$$
RR26_Rahimova_2017
     RDKit          3D

 59 65  0  0  0  0  0  0  0  0999 V2000
  133.6720  121.3980   61.6820 C   0  0  0  0  0  0  0  0  0  0  0  0
  132.5690  120.4010   61.3480 C   0  0  0  0  0  0  0  0  0  0  0  0
  132.9030  119.2720   60.5910 C   0  0  0  0  0  0  0  0  0  0  0  0
  131.9440  118.3080   60.2900 C   0  0  0  0  0  0  0  0  0  0  0  0
  130.6400  118.4600   60.7510 C   0  0  0  0  0  0  0  0  0  0  0  0
  130.2950  119.5790   61.5060 C   0  0  0  0  0  0  0  0  0  0  0  0
  131.2450  120.5650   61.8120 C   0  0  0  0  0  0  0  0  0  0  0  0
  130.7870  121.7470   62.6180 C   0  0  0  0  0  0  0  0  0  0  0  0
  130.6050  121.6820   63.9340 N   0  0  0  0  0  0  0  0  0  0  0  0
  130.2290  122.9010   64.2150 C   0  0  0  0  0  0  0  0  0  0  0  0
  129.7720  123.7570   65.6400 S   0  0  0  0  0  0  0  0  0  0  0  0
  129.5310  125.2410   64.6440 C   0  0  0  0  0  0  0  0  0  0  0  0
  129.1280  126.4620   65.0620 C   0  0  0  0  0  0  0  0  0  0  0  0
  128.7970  126.8820   66.4140 C   0  0  0  0  0  0  0  0  0  0  0  0
  129.4410  126.5510   67.5960 C   0  0  0  0  0  0  0  0  0  0  0  0
  128.8090  127.2090   68.6200 N   0  0  0  0  0  0  0  0  0  0  0  0
  129.1180  127.1820   70.0050 C   0  0  0  0  0  0  0  0  0  0  0  0
  128.7270  126.1000   70.8070 C   0  0  0  0  0  0  0  0  0  0  0  0
  129.0340  126.0880   72.1650 C   0  0  0  0  0  0  0  0  0  0  0  0
  129.7360  127.1530   72.7240 C   0  0  0  0  0  0  0  0  0  0  0  0
  130.1330  128.2320   71.9380 C   0  0  0  0  0  0  0  0  0  0  0  0
  129.8250  128.2490   70.5800 C   0  0  0  0  0  0  0  0  0  0  0  0
  127.8110  127.9670   68.1400 N   0  0  0  0  0  0  0  0  0  0  0  0
  127.7890  127.7780   66.8360 C   0  0  0  0  0  0  0  0  0  0  0  0
  126.7680  128.4840   65.9970 C   0  0  0  0  0  0  0  0  0  0  0  0
  125.4890  128.7510   66.5100 C   0  0  0  0  0  0  0  0  0  0  0  0
  124.5300  129.4050   65.7350 C   0  0  0  0  0  0  0  0  0  0  0  0
  124.8440  129.7980   64.4360 C   0  0  0  0  0  0  0  0  0  0  0  0
  126.1250  129.5550   63.9190 C   0  0  0  0  0  0  0  0  0  0  0  0
  127.0790  128.8960   64.6920 C   0  0  0  0  0  0  0  0  0  0  0  0
  126.4660  129.8870   62.6220 O   0  0  0  0  0  0  0  0  0  0  0  0
  125.6060  130.8610   62.0220 C   0  0  0  0  0  0  0  0  0  0  0  0
  124.1220  130.5270   62.3110 C   0  0  0  0  0  0  0  0  0  0  0  0
  123.8820  130.4850   63.7220 O   0  0  0  0  0  0  0  0  0  0  0  0
  129.8110  125.0120   63.2300 C   0  0  0  0  0  0  0  0  0  0  0  0
  129.7430  125.8010   62.2860 O   0  0  0  0  0  0  0  0  0  0  0  0
  130.1950  123.6670   63.1090 N   0  0  0  0  0  0  0  0  0  0  0  0
  130.5620  122.9260   62.0600 N   0  0  0  0  0  0  0  0  0  0  0  0
  133.7688  121.4855   62.7742 H   0  0  0  0  0  0  0  0  0  0  0  0
  134.6240  121.0478   61.2564 H   0  0  0  0  0  0  0  0  0  0  0  0
  133.4195  122.3804   61.2564 H   0  0  0  0  0  0  0  0  0  0  0  0
  133.9342  119.1448   60.2299 H   0  0  0  0  0  0  0  0  0  0  0  0
  132.2169  117.4281   59.6889 H   0  0  0  0  0  0  0  0  0  0  0  0
  129.8820  117.6972   60.5195 H   0  0  0  0  0  0  0  0  0  0  0  0
  129.2622  119.6911   61.8676 H   0  0  0  0  0  0  0  0  0  0  0  0
  129.0396  127.2332   64.2826 H   0  0  0  0  0  0  0  0  0  0  0  0
  130.3063  125.8791   67.6952 H   0  0  0  0  0  0  0  0  0  0  0  0
  128.1761  125.2583   70.3619 H   0  0  0  0  0  0  0  0  0  0  0  0
  128.7233  125.2407   72.7939 H   0  0  0  0  0  0  0  0  0  0  0  0
  129.9793  127.1419   73.7967 H   0  0  0  0  0  0  0  0  0  0  0  0
  130.6881  129.0681   72.3884 H   0  0  0  0  0  0  0  0  0  0  0  0
  130.1365  129.1004   69.9570 H   0  0  0  0  0  0  0  0  0  0  0  0
  125.2394  128.4410   67.5355 H   0  0  0  0  0  0  0  0  0  0  0  0
  123.5311  129.6091   66.1480 H   0  0  0  0  0  0  0  0  0  0  0  0
  128.0788  128.6982   64.2781 H   0  0  0  0  0  0  0  0  0  0  0  0
  125.8404  131.8535   62.4342 H   0  0  0  0  0  0  0  0  0  0  0  0
  125.7663  130.8543   60.9338 H   0  0  0  0  0  0  0  0  0  0  0  0
  123.4826  131.2990   61.8581 H   0  0  0  0  0  0  0  0  0  0  0  0
  123.8895  129.5414   61.8815 H   0  0  0  0  0  0  0  0  0  0  0  0
  1  2  1  0
  2  3  2  0
  3  4  1  0
  4  5  2  0
  5  6  1  0
  6  7  2  0
  7  8  1  0
  8  9  1  0
  9 10  2  0
 10 11  1  0
 11 12  1  0
 12 13  2  0
 13 14  1  0
 14 15  2  0
 15 16  1  0
 16 17  1  0
 17 18  2  0
 18 19  1  0
 19 20  2  0
 20 21  1  0
 21 22  2  0
 16 23  1  0
 23 24  2  0
 24 25  1  0
 25 26  2  0
 26 27  1  0
 27 28  2  0
 28 29  1  0
 29 30  2  0
 29 31  1  0
 31 32  1  0
 32 33  1  0
 33 34  1  0
 12 35  1  0
 35 36  2  0
 35 37  1  0
 37 38  1  0
  7  2  1  0
 38  8  2  0
 37 10  1  0
 24 14  1  0
 30 25  1  0
 22 17  1  0
 34 28  1  0
  1 39  1  0
  1 40  1  0
  1 41  1  0
  3 42  1  0
  4 43  1  0
  5 44  1  0
  6 45  1  0
 13 46  1  0
 15 47  1  0
 18 48  1  0
 19 49  1  0
 20 50  1  0
 21 51  1  0
 22 52  1  0
 26 53  1  0
 27 54  1  0
 30 55  1  0
 32 56  1  0
 32 57  1  0
 33 58  1  0
 33 59  1  0
M  END
>  <Binding energies>  (1) 
[-9.73]

>  <Ligand effiencies>  (1) 
[-0.25605263157894737]

>  <Interactions>  (1) 
["V-A:ILE:369:CG2:3236, V-B:TYR:539:CD2:9846, V-A:PRO:482:CG:4326, V-A:LEU:475:CD1:4257, V-B:TYR:539:C:9839, V-B:ALA:541:CB:9864, V-B:GLU:543:CD:9880, V-B:GLU:543:CB:9878, V-A:HIS:456:CE1:4069, V-B:HIS:456:CE1:9041, V-B:ARG:545:CZ:9898, H-B:GLY:454:N:9021, H-A:TYR:484:OH:4347, V-A:GLU:543:C:4902, V-B:GLU:543:CG:9879, V-A:GLU:543:CD:4908, V-B:GLU:543:C:9874, V-A:ILE:369:CD1:3238, V-B:HIS:456:CD2:9039, V-A:TYR:484:CE2:4345, V-A:TYR:484:CZ:4346, V-B:ASP:366:CG:8184, V-B:ARG:545:CD:9895, V-B:ARG:545:CG:9894, V-B:ILE:369:CD1:8210"]

$$$$
RR27_Rahimova_2017
     RDKit          3D

 66 71  0  0  0  0  0  0  0  0999 V2000
  128.4690  121.9940   61.9850 O   0  0  0  0  0  0  0  0  0  0  0  0
  129.1060  122.6580   61.1620 C   0  0  0  0  0  0  0  0  0  0  0  0
  130.6410  122.4240   61.0550 C   0  0  0  0  0  0  0  0  0  0  0  0
  131.0210  120.9350   60.9550 C   0  0  0  0  0  0  0  0  0  0  0  0
  132.2100  120.5130   60.3410 C   0  0  0  0  0  0  0  0  0  0  0  0
  132.5230  119.1590   60.2700 C   0  0  0  0  0  0  0  0  0  0  0  0
  131.6500  118.2200   60.8120 C   0  0  0  0  0  0  0  0  0  0  0  0
  130.4650  118.6230   61.4220 C   0  0  0  0  0  0  0  0  0  0  0  0
  130.1520  119.9770   61.4930 C   0  0  0  0  0  0  0  0  0  0  0  0
  131.4170  123.2210   62.1220 C   0  0  0  0  0  0  0  0  0  0  0  0
  130.7860  123.7260   63.2670 C   0  0  0  0  0  0  0  0  0  0  0  0
  131.5150  124.4530   64.2060 C   0  0  0  0  0  0  0  0  0  0  0  0
  132.8730  124.6800   64.0010 C   0  0  0  0  0  0  0  0  0  0  0  0
  133.5090  124.1930   62.8630 C   0  0  0  0  0  0  0  0  0  0  0  0
  132.7810  123.4690   61.9250 C   0  0  0  0  0  0  0  0  0  0  0  0
  128.4830  123.4660   60.2580 N   0  0  0  0  0  0  0  0  0  0  0  0
  129.1890  124.4600   59.4370 C   0  0  0  0  0  0  0  0  0  0  0  0
  129.2570  125.7600   60.2680 C   0  0  0  0  0  0  0  0  0  0  0  0
  127.8510  126.2440   60.7470 C   0  0  0  0  0  0  0  0  0  0  0  0
  127.8730  127.4740   61.6730 C   0  0  0  0  0  0  0  0  0  0  0  0
  127.4100  127.2860   62.9440 N   0  0  0  0  0  0  0  0  0  0  0  0
  127.4330  128.3350   63.8120 C   0  0  0  0  0  0  0  0  0  0  0  0
  127.0010  128.2680   65.1100 O   0  0  0  0  0  0  0  0  0  0  0  0
  127.9310  129.5730   63.3620 C   0  0  0  0  0  0  0  0  0  0  0  0
  128.0970  130.7910   63.9530 N   0  0  0  0  0  0  0  0  0  0  0  0
  128.6330  131.6390   63.0020 N   0  0  0  0  0  0  0  0  0  0  0  0
  128.8010  130.9540   61.8520 N   0  0  0  0  0  0  0  0  0  0  0  0
  129.3320  131.6180   60.6640 C   0  0  0  0  0  0  0  0  0  0  0  0
  130.8210  131.3840   60.4460 C   0  0  0  0  0  0  0  0  0  0  0  0
  131.7220  131.5470   61.5030 C   0  0  0  0  0  0  0  0  0  0  0  0
  133.0850  131.3220   61.3050 C   0  0  0  0  0  0  0  0  0  0  0  0
  133.5540  130.9280   60.0530 C   0  0  0  0  0  0  0  0  0  0  0  0
  132.6590  130.7530   58.9960 C   0  0  0  0  0  0  0  0  0  0  0  0
  133.2330  130.2390   57.4510 Cl  0  0  0  0  0  0  0  0  0  0  0  0
  131.2970  130.9860   59.1910 C   0  0  0  0  0  0  0  0  0  0  0  0
  128.3710  129.6490   62.0230 C   0  0  0  0  0  0  0  0  0  0  0  0
  128.3530  128.6390   61.1490 N   0  0  0  0  0  0  0  0  0  0  0  0
  126.9880  125.0690   61.3000 C   0  0  0  0  0  0  0  0  0  0  0  0
  127.0580  123.7950   60.4200 C   0  0  0  0  0  0  0  0  0  0  0  0
  130.9682  122.8391   60.0903 H   0  0  0  0  0  0  0  0  0  0  0  0
  132.8985  121.2567   59.9134 H   0  0  0  0  0  0  0  0  0  0  0  0
  133.4561  118.8322   59.7878 H   0  0  0  0  0  0  0  0  0  0  0  0
  131.8986  117.1498   60.7579 H   0  0  0  0  0  0  0  0  0  0  0  0
  129.7794  117.8745   61.8458 H   0  0  0  0  0  0  0  0  0  0  0  0
  129.2163  120.2971   61.9746 H   0  0  0  0  0  0  0  0  0  0  0  0
  129.7121  123.5479   63.4249 H   0  0  0  0  0  0  0  0  0  0  0  0
  131.0192  124.8460   65.1059 H   0  0  0  0  0  0  0  0  0  0  0  0
  133.4487  125.2496   64.7454 H   0  0  0  0  0  0  0  0  0  0  0  0
  134.5817  124.3797   62.7063 H   0  0  0  0  0  0  0  0  0  0  0  0
  133.2803  123.0884   61.0218 H   0  0  0  0  0  0  0  0  0  0  0  0
  130.2042  124.1062   59.2041 H   0  0  0  0  0  0  0  0  0  0  0  0
  128.6652  124.6281   58.4844 H   0  0  0  0  0  0  0  0  0  0  0  0
  129.8871  125.5802   61.1516 H   0  0  0  0  0  0  0  0  0  0  0  0
  129.6763  126.5455   59.6221 H   0  0  0  0  0  0  0  0  0  0  0  0
  127.3477  126.6130   59.8412 H   0  0  0  0  0  0  0  0  0  0  0  0
  126.8180  127.3700   65.3940 H   0  0  0  0  0  0  0  0  0  0  0  0
  128.7890  131.2423   59.7842 H   0  0  0  0  0  0  0  0  0  0  0  0
  129.1947  132.6994   60.8117 H   0  0  0  0  0  0  0  0  0  0  0  0
  131.3552  131.8536   62.4937 H   0  0  0  0  0  0  0  0  0  0  0  0
  133.7904  131.4558   62.1384 H   0  0  0  0  0  0  0  0  0  0  0  0
  134.6292  130.7550   59.8978 H   0  0  0  0  0  0  0  0  0  0  0  0
  130.5942  130.8564   58.3548 H   0  0  0  0  0  0  0  0  0  0  0  0
  127.3456  124.8171   62.3093 H   0  0  0  0  0  0  0  0  0  0  0  0
  125.9409  125.4061   61.3055 H   0  0  0  0  0  0  0  0  0  0  0  0
  126.5317  122.9647   60.9137 H   0  0  0  0  0  0  0  0  0  0  0  0
  126.5791  123.9634   59.4441 H   0  0  0  0  0  0  0  0  0  0  0  0
  1  2  2  0
  2  3  1  0
  3  4  1  0
  4  5  2  0
  5  6  1  0
  6  7  2  0
  7  8  1  0
  8  9  2  0
  3 10  1  0
 10 11  2  0
 11 12  1  0
 12 13  2  0
 13 14  1  0
 14 15  2  0
  2 16  1  0
 16 17  1  0
 17 18  1  0
 18 19  1  0
 19 20  1  0
 20 21  2  0
 21 22  1  0
 22 23  1  0
 22 24  2  0
 24 25  1  0
 25 26  2  0
 26 27  1  0
 27 28  1  0
 28 29  1  0
 29 30  2  0
 30 31  1  0
 31 32  2  0
 32 33  1  0
 33 34  1  0
 33 35  2  0
 27 36  1  0
 36 37  2  0
 19 38  1  0
 38 39  1  0
  9  4  1  0
 15 10  1  0
 39 16  1  0
 37 20  1  0
 36 24  1  0
 35 29  1  0
  3 40  1  0
  5 41  1  0
  6 42  1  0
  7 43  1  0
  8 44  1  0
  9 45  1  0
 11 46  1  0
 12 47  1  0
 13 48  1  0
 14 49  1  0
 15 50  1  0
 17 51  1  0
 17 52  1  0
 18 53  1  0
 18 54  1  0
 19 55  1  0
 23 56  1  0
 28 57  1  0
 28 58  1  0
 30 59  1  0
 31 60  1  0
 32 61  1  0
 35 62  1  0
 38 63  1  0
 38 64  1  0
 39 65  1  0
 39 66  1  0
M  END
>  <Binding energies>  (1) 
[-10.18]

>  <Ligand effiencies>  (1) 
[-0.2545]

>  <Interactions>  (1) 
["V-A:ILE:369:CG2:3236, V-B:TYR:539:CE2:9848, V-B:TYR:539:CD2:9846, V-A:PRO:482:CG:4326, V-A:PRO:482:CB:4325, V-A:LEU:475:CD1:4257, H-B:ALA:541:N:9863, V-B:ALA:541:CA:9862, V-B:ALA:541:CB:9864, V-B:GLU:543:CD:9880, V-A:ARG:545:CZ:4926, H-B:ARG:545:NH2:9900, V-A:GLU:543:CD:4908, V-A:ASP:366:CG:3212, H-B:GLU:543:OE2:9882, V-A:ASP:366:CB:3211, V-A:PRO:540:CA:4883, V-A:PRO:540:CB:4885, V-A:PRO:540:C:4881, V-A:ASN:362:C:3171, V-A:ALA:541:CA:4890, V-A:LEU:363:CD1:3188, V-A:ASN:362:CB:3175, V-A:LEU:363:CA:3184"]

$$$$
RR27_Rahimova_2017-again1
     RDKit          3D

 66 71  0  0  0  0  0  0  0  0999 V2000
  130.9370  122.7420   59.6560 O   0  0  0  0  0  0  0  0  0  0  0  0
  129.8010  123.0260   60.0480 C   0  0  0  0  0  0  0  0  0  0  0  0
  129.0470  124.1890   59.3370 C   0  0  0  0  0  0  0  0  0  0  0  0
  127.8470  123.6940   58.5070 C   0  0  0  0  0  0  0  0  0  0  0  0
  126.6240  124.3830   58.4820 C   0  0  0  0  0  0  0  0  0  0  0  0
  125.5630  123.9050   57.7180 C   0  0  0  0  0  0  0  0  0  0  0  0
  125.7170  122.7370   56.9770 C   0  0  0  0  0  0  0  0  0  0  0  0
  126.9230  122.0440   56.9910 C   0  0  0  0  0  0  0  0  0  0  0  0
  127.9850  122.5220   57.7540 C   0  0  0  0  0  0  0  0  0  0  0  0
  130.0050  125.1060   58.5540 C   0  0  0  0  0  0  0  0  0  0  0  0
  130.2510  126.4260   58.9600 C   0  0  0  0  0  0  0  0  0  0  0  0
  131.1060  127.2430   58.2240 C   0  0  0  0  0  0  0  0  0  0  0  0
  131.7210  126.7440   57.0800 C   0  0  0  0  0  0  0  0  0  0  0  0
  131.4850  125.4370   56.6630 C   0  0  0  0  0  0  0  0  0  0  0  0
  130.6250  124.6220   57.3940 C   0  0  0  0  0  0  0  0  0  0  0  0
  129.1530  122.2470   60.9630 N   0  0  0  0  0  0  0  0  0  0  0  0
  127.9370  122.6650   61.6740 C   0  0  0  0  0  0  0  0  0  0  0  0
  128.3740  123.4810   62.9140 C   0  0  0  0  0  0  0  0  0  0  0  0
  129.5670  122.8840   63.7320 C   0  0  0  0  0  0  0  0  0  0  0  0
  130.3540  123.9370   64.5190 C   0  0  0  0  0  0  0  0  0  0  0  0
  129.7800  124.6260   65.4550 N   0  0  0  0  0  0  0  0  0  0  0  0
  130.5730  125.5370   66.0830 C   0  0  0  0  0  0  0  0  0  0  0  0
  131.9100  125.7890   65.8110 C   0  0  0  0  0  0  0  0  0  0  0  0
  132.3680  126.7440   66.6020 N   0  0  0  0  0  0  0  0  0  0  0  0
  131.3200  127.1430   67.4250 N   0  0  0  0  0  0  0  0  0  0  0  0
  130.2530  126.3900   67.1060 N   0  0  0  0  0  0  0  0  0  0  0  0
  128.9750  126.5800   67.7810 C   0  0  0  0  0  0  0  0  0  0  0  0
  129.1150  126.8730   69.2670 C   0  0  0  0  0  0  0  0  0  0  0  0
  129.6220  128.1050   69.6950 C   0  0  0  0  0  0  0  0  0  0  0  0
  129.7600  128.3730   71.0580 C   0  0  0  0  0  0  0  0  0  0  0  0
  129.3890  127.4130   71.9990 C   0  0  0  0  0  0  0  0  0  0  0  0
  128.8780  126.1840   71.5790 C   0  0  0  0  0  0  0  0  0  0  0  0
  128.4240  124.9960   72.7440 Cl  0  0  0  0  0  0  0  0  0  0  0  0
  128.7380  125.9160   70.2170 C   0  0  0  0  0  0  0  0  0  0  0  0
  132.5830  125.0210   64.7640 C   0  0  0  0  0  0  0  0  0  0  0  0
  133.7500  125.0980   64.3870 O   0  0  0  0  0  0  0  0  0  0  0  0
  131.6950  124.1290   64.2000 N   0  0  0  0  0  0  0  0  0  0  0  0
  130.5030  121.9010   62.9610 C   0  0  0  0  0  0  0  0  0  0  0  0
  129.8950  121.2210   61.7090 C   0  0  0  0  0  0  0  0  0  0  0  0
  128.6102  124.8196   60.1254 H   0  0  0  0  0  0  0  0  0  0  0  0
  126.5035  125.3053   59.0692 H   0  0  0  0  0  0  0  0  0  0  0  0
  124.6067  124.4483   57.7000 H   0  0  0  0  0  0  0  0  0  0  0  0
  124.8777  122.3586   56.3750 H   0  0  0  0  0  0  0  0  0  0  0  0
  127.0372  121.1222   56.4017 H   0  0  0  0  0  0  0  0  0  0  0  0
  128.9392  121.9749   57.7652 H   0  0  0  0  0  0  0  0  0  0  0  0
  129.7655  126.8185   59.8656 H   0  0  0  0  0  0  0  0  0  0  0  0
  131.2941  128.2779   58.5457 H   0  0  0  0  0  0  0  0  0  0  0  0
  132.3992  127.3875   56.5004 H   0  0  0  0  0  0  0  0  0  0  0  0
  131.9766  125.0493   55.7585 H   0  0  0  0  0  0  0  0  0  0  0  0
  130.4310  123.5923   57.0592 H   0  0  0  0  0  0  0  0  0  0  0  0
  127.3138  123.2884   61.0159 H   0  0  0  0  0  0  0  0  0  0  0  0
  127.3478  121.7874   61.9784 H   0  0  0  0  0  0  0  0  0  0  0  0
  128.6670  124.4847   62.5722 H   0  0  0  0  0  0  0  0  0  0  0  0
  127.5107  123.4769   63.5957 H   0  0  0  0  0  0  0  0  0  0  0  0
  129.0553  122.2437   64.4656 H   0  0  0  0  0  0  0  0  0  0  0  0
  128.4522  127.4237   67.3069 H   0  0  0  0  0  0  0  0  0  0  0  0
  128.4146  125.6382   67.6869 H   0  0  0  0  0  0  0  0  0  0  0  0
  129.9128  128.8650   68.9548 H   0  0  0  0  0  0  0  0  0  0  0  0
  130.1615  129.3418   71.3899 H   0  0  0  0  0  0  0  0  0  0  0  0
  129.4992  127.6245   73.0728 H   0  0  0  0  0  0  0  0  0  0  0  0
  128.3298  124.9489   69.8881 H   0  0  0  0  0  0  0  0  0  0  0  0
  132.0810  123.5590   63.4620 H   0  0  0  0  0  0  0  0  0  0  0  0
  131.3907  122.4652   62.6391 H   0  0  0  0  0  0  0  0  0  0  0  0
  130.7179  121.0841   63.6656 H   0  0  0  0  0  0  0  0  0  0  0  0
  130.6970  120.8065   61.0804 H   0  0  0  0  0  0  0  0  0  0  0  0
  129.2272  120.3976   62.0023 H   0  0  0  0  0  0  0  0  0  0  0  0
  1  2  2  0
  2  3  1  0
  3  4  1  0
  4  5  2  0
  5  6  1  0
  6  7  2  0
  7  8  1  0
  8  9  2  0
  3 10  1  0
 10 11  2  0
 11 12  1  0
 12 13  2  0
 13 14  1  0
 14 15  2  0
  2 16  1  0
 16 17  1  0
 17 18  1  0
 18 19  1  0
 19 20  1  0
 20 21  2  0
 21 22  1  0
 22 23  2  0
 23 24  1  0
 24 25  2  0
 25 26  1  0
 26 27  1  0
 27 28  1  0
 28 29  2  0
 29 30  1  0
 30 31  2  0
 31 32  1  0
 32 33  1  0
 32 34  2  0
 23 35  1  0
 35 36  2  0
 35 37  1  0
 19 38  1  0
 38 39  1  0
  9  4  1  0
 15 10  1  0
 39 16  1  0
 37 20  1  0
 26 22  1  0
 34 28  1  0
  3 40  1  0
  5 41  1  0
  6 42  1  0
  7 43  1  0
  8 44  1  0
  9 45  1  0
 11 46  1  0
 12 47  1  0
 13 48  1  0
 14 49  1  0
 15 50  1  0
 17 51  1  0
 17 52  1  0
 18 53  1  0
 18 54  1  0
 19 55  1  0
 27 56  1  0
 27 57  1  0
 29 58  1  0
 30 59  1  0
 31 60  1  0
 34 61  1  0
 37 62  1  0
 38 63  1  0
 38 64  1  0
 39 65  1  0
 39 66  1  0
M  END
>  <Binding energies>  (1) 
[-10.73]

>  <Ligand effiencies>  (1) 
[-0.26825]

>  <Interactions>  (1) 
["V-B:PRO:540:CB:9857, V-B:TYR:539:CE2:9848, V-B:PRO:540:N:9856, V-B:TYR:539:CZ:9849, V-B:PRO:540:CA:9855, V-B:PRO:540:C:9853, V-B:MET:535:CE:9807, V-A:LEU:475:CD1:4257, V-B:TYR:539:C:9839, V-B:ALA:541:CB:9864, V-B:GLU:543:CD:9880, V-A:ARG:545:CZ:4926, V-B:GLU:543:CB:9878, V-A:HIS:456:CE1:4069, V-B:HIS:456:CE1:9041, V-B:GLY:544:CA:9886, H-A:TYR:484:OH:4347, H-A:GLY:454:N:4049, V-A:GLU:543:C:4902, V-B:GLU:543:CG:9879, V-A:ASP:366:CG:3212, H-A:ARG:545:NH1:4927, V-B:GLU:543:C:9874, V-B:HIS:456:CD2:9039, V-A:ASP:366:CB:3211, H-A:ARG:545:NH2:4928, V-B:TYR:539:CA:9841, V-B:PRO:540:CD:9859, H-A:ARG:545:NE:4924, V-B:TYR:531:CE2:9765, V-B:LEU:363:CD1:8160"]

$$$$
RR28_Rahimova_2017
     RDKit          3D

 82 85  0  0  0  0  0  0  0  0999 V2000
  131.1240  118.0330   60.8260 C   0  0  0  0  0  0  0  0  0  0  0  0
  130.6010  119.4310   61.1350 C   0  0  0  0  0  0  0  0  0  0  0  0
  129.5080  119.5640   61.6820 O   0  0  0  0  0  0  0  0  0  0  0  0
  131.3970  120.4600   60.7770 N   0  0  0  0  0  0  0  0  0  0  0  0
  131.1490  121.9100   60.9430 C   0  0  0  0  0  0  0  0  0  0  0  0
  129.7940  122.2530   60.2610 C   0  0  0  0  0  0  0  0  0  0  0  0
  129.7370  122.3760   58.8640 C   0  0  0  0  0  0  0  0  0  0  0  0
  128.5430  122.6870   58.2210 C   0  0  0  0  0  0  0  0  0  0  0  0
  127.3760  122.8820   58.9610 C   0  0  0  0  0  0  0  0  0  0  0  0
  126.0750  123.2270   58.2370 C   0  0  0  0  0  0  0  0  0  0  0  0
  125.6760  122.2510   57.4190 F   0  0  0  0  0  0  0  0  0  0  0  0
  125.1000  123.4480   59.1190 F   0  0  0  0  0  0  0  0  0  0  0  0
  126.2560  124.3310   57.5120 F   0  0  0  0  0  0  0  0  0  0  0  0
  127.4190  122.7640   60.3530 C   0  0  0  0  0  0  0  0  0  0  0  0
  128.6140  122.4540   60.9950 C   0  0  0  0  0  0  0  0  0  0  0  0
  132.3620  122.7410   60.3910 C   0  0  0  0  0  0  0  0  0  0  0  0
  133.6680  122.5320   61.2000 C   0  0  0  0  0  0  0  0  0  0  0  0
  133.3670  122.9260   62.5860 N   0  0  0  0  0  0  0  0  0  0  0  0
  133.6220  124.1930   63.0120 C   0  0  0  0  0  0  0  0  0  0  0  0
  134.2570  124.9980   62.3260 O   0  0  0  0  0  0  0  0  0  0  0  0
  133.2480  124.5840   64.4620 C   0  0  0  0  0  0  0  0  0  0  0  0
  132.1370  125.6600   64.6100 C   0  0  0  0  0  0  0  0  0  0  0  0
  130.8250  125.1630   65.2610 C   0  0  0  0  0  0  0  0  0  0  0  0
  129.9770  124.6440   64.5290 O   0  0  0  0  0  0  0  0  0  0  0  0
  130.6950  125.1810   66.6170 N   0  0  0  0  0  0  0  0  0  0  0  0
  131.4950  126.0440   67.4940 C   0  0  0  0  0  0  0  0  0  0  0  0
  130.7740  127.4090   67.5480 C   0  0  0  0  0  0  0  0  0  0  0  0
  129.2820  127.3430   68.0280 C   0  0  0  0  0  0  0  0  0  0  0  0
  128.5990  128.6020   67.6600 N   0  0  0  0  0  0  0  0  0  0  0  0
  128.0010  128.9130   66.4920 C   0  0  0  0  0  0  0  0  0  0  0  0
  127.3900  130.3070   66.3960 C   0  0  0  0  0  0  0  0  0  0  0  0
  127.9290  128.1500   65.5300 O   0  0  0  0  0  0  0  0  0  0  0  0
  129.2960  127.2530   69.5880 C   0  0  0  0  0  0  0  0  0  0  0  0
  129.8400  128.2590   70.4040 C   0  0  0  0  0  0  0  0  0  0  0  0
  129.8320  128.1410   71.7910 C   0  0  0  0  0  0  0  0  0  0  0  0
  129.2810  127.0110   72.4000 C   0  0  0  0  0  0  0  0  0  0  0  0
  129.2600  126.8670   73.9210 C   0  0  0  0  0  0  0  0  0  0  0  0
  128.8210  127.9900   74.4930 F   0  0  0  0  0  0  0  0  0  0  0  0
  128.4420  125.8700   74.2550 F   0  0  0  0  0  0  0  0  0  0  0  0
  130.4700  126.6010   74.4170 F   0  0  0  0  0  0  0  0  0  0  0  0
  128.7440  125.9990   71.6020 C   0  0  0  0  0  0  0  0  0  0  0  0
  128.7540  126.1200   70.2170 C   0  0  0  0  0  0  0  0  0  0  0  0
  128.5740  126.1120   67.3410 C   0  0  0  0  0  0  0  0  0  0  0  0
  129.4170  124.8120   67.2400 C   0  0  0  0  0  0  0  0  0  0  0  0
  132.3780  122.0550   63.2370 C   0  0  0  0  0  0  0  0  0  0  0  0
  131.0420  122.2300   62.4700 C   0  0  0  0  0  0  0  0  0  0  0  0
  131.3235  117.4998   61.7672 H   0  0  0  0  0  0  0  0  0  0  0  0
  130.3718  117.4805   60.2439 H   0  0  0  0  0  0  0  0  0  0  0  0
  132.0542  118.1099   60.2439 H   0  0  0  0  0  0  0  0  0  0  0  0
  132.2640  120.2290   60.3150 H   0  0  0  0  0  0  0  0  0  0  0  0
  130.6496  122.2243   58.2689 H   0  0  0  0  0  0  0  0  0  0  0  0
  128.5188  122.7795   57.1252 H   0  0  0  0  0  0  0  0  0  0  0  0
  126.5038  122.9169   60.9438 H   0  0  0  0  0  0  0  0  0  0  0  0
  128.6345  122.3653   62.0912 H   0  0  0  0  0  0  0  0  0  0  0  0
  132.5452  122.4409   59.3487 H   0  0  0  0  0  0  0  0  0  0  0  0
  132.0934  123.8044   60.4753 H   0  0  0  0  0  0  0  0  0  0  0  0
  133.9735  121.4759   61.1627 H   0  0  0  0  0  0  0  0  0  0  0  0
  134.4931  123.1302   60.7860 H   0  0  0  0  0  0  0  0  0  0  0  0
  132.9075  123.6747   64.9790 H   0  0  0  0  0  0  0  0  0  0  0  0
  134.1555  125.0322   64.8927 H   0  0  0  0  0  0  0  0  0  0  0  0
  132.5353  126.4783   65.2278 H   0  0  0  0  0  0  0  0  0  0  0  0
  131.8735  125.9708   63.5883 H   0  0  0  0  0  0  0  0  0  0  0  0
  131.5571  125.6076   68.5018 H   0  0  0  0  0  0  0  0  0  0  0  0
  132.5216  126.1526   67.1141 H   0  0  0  0  0  0  0  0  0  0  0  0
  131.3277  128.0620   68.2387 H   0  0  0  0  0  0  0  0  0  0  0  0
  130.7522  127.7902   66.5164 H   0  0  0  0  0  0  0  0  0  0  0  0
  128.6240  129.3200   68.3680 H   0  0  0  0  0  0  0  0  0  0  0  0
  127.2169  130.7019   67.4080 H   0  0  0  0  0  0  0  0  0  0  0  0
  128.0788  130.9728   65.8554 H   0  0  0  0  0  0  0  0  0  0  0  0
  126.4336  130.2517   65.8554 H   0  0  0  0  0  0  0  0  0  0  0  0
  130.2792  129.1541   69.9395 H   0  0  0  0  0  0  0  0  0  0  0  0
  130.2618  128.9418   72.4107 H   0  0  0  0  0  0  0  0  0  0  0  0
  128.3115  125.1028   72.0707 H   0  0  0  0  0  0  0  0  0  0  0  0
  128.3293  125.3130   69.6019 H   0  0  0  0  0  0  0  0  0  0  0  0
  127.6664  125.8807   67.9178 H   0  0  0  0  0  0  0  0  0  0  0  0
  128.3808  126.4218   66.3034 H   0  0  0  0  0  0  0  0  0  0  0  0
  129.5913  124.3950   68.2429 H   0  0  0  0  0  0  0  0  0  0  0  0
  128.8944  124.0484   66.6452 H   0  0  0  0  0  0  0  0  0  0  0  0
  132.7074  121.0067   63.1869 H   0  0  0  0  0  0  0  0  0  0  0  0
  132.2587  122.3220   64.2974 H   0  0  0  0  0  0  0  0  0  0  0  0
  130.2950  121.5561   62.9148 H   0  0  0  0  0  0  0  0  0  0  0  0
  130.7563  123.2886   62.5580 H   0  0  0  0  0  0  0  0  0  0  0  0
  1  2  1  0
  2  3  2  0
  2  4  1  0
  4  5  1  0
  5  6  1  0
  6  7  2  0
  7  8  1  0
  8  9  2  0
  9 10  1  0
 10 11  1  0
 10 12  1  0
 10 13  1  0
  9 14  1  0
 14 15  2  0
  5 16  1  0
 16 17  1  0
 17 18  1  0
 18 19  1  0
 19 20  2  0
 19 21  1  0
 21 22  1  0
 22 23  1  0
 23 24  2  0
 23 25  1  0
 25 26  1  0
 26 27  1  0
 27 28  1  0
 28 29  1  0
 29 30  1  0
 30 31  1  0
 30 32  2  0
 28 33  1  0
 33 34  2  0
 34 35  1  0
 35 36  2  0
 36 37  1  0
 37 38  1  0
 37 39  1  0
 37 40  1  0
 36 41  1  0
 41 42  2  0
 28 43  1  0
 43 44  1  0
 18 45  1  0
 45 46  1  0
 46  5  1  0
 15  6  1  0
 44 25  1  0
 42 33  1  0
  1 47  1  0
  1 48  1  0
  1 49  1  0
  4 50  1  0
  7 51  1  0
  8 52  1  0
 14 53  1  0
 15 54  1  0
 16 55  1  0
 16 56  1  0
 17 57  1  0
 17 58  1  0
 21 59  1  0
 21 60  1  0
 22 61  1  0
 22 62  1  0
 26 63  1  0
 26 64  1  0
 27 65  1  0
 27 66  1  0
 29 67  1  0
 31 68  1  0
 31 69  1  0
 31 70  1  0
 34 71  1  0
 35 72  1  0
 41 73  1  0
 42 74  1  0
 43 75  1  0
 43 76  1  0
 44 77  1  0
 44 78  1  0
 45 79  1  0
 45 80  1  0
 46 81  1  0
 46 82  1  0
M  END
>  <Binding energies>  (1) 
[-8.82]

>  <Ligand effiencies>  (1) 
[-0.18375]

>  <Interactions>  (1) 
["V-B:PRO:540:CB:9857, V-A:ILE:369:CG2:3236, V-B:TYR:539:CE2:9848, V-B:PRO:540:N:9856, V-B:TYR:539:CZ:9849, V-B:TYR:539:CD2:9846, V-B:PRO:540:CA:9855, V-A:PRO:482:CG:4326, V-B:PRO:540:C:9853, V-B:MET:535:CE:9807, V-A:LEU:475:CD1:4257, H-B:ALA:541:N:9863, V-B:TYR:539:C:9839, V-B:ALA:541:CB:9864, V-B:GLU:543:CD:9880, V-A:ARG:545:CZ:4926, V-B:GLU:543:CB:9878, V-A:GLU:543:CB:4906, V-A:HIS:456:CE1:4069, V-B:HIS:456:CE1:9041, V-A:GLY:454:CA:4048, H-A:GLY:454:N:4049, V-B:TYR:484:CZ:9318, V-B:LYS:547:CE:9922, V-A:GLU:543:C:4902, V-B:TYR:484:CE2:9317, V-B:GLU:543:CG:9879, V-A:GLU:543:CD:4908, V-A:GLU:543:CG:4907, H-A:ARG:545:NH1:4927, V-B:GLU:543:C:9874, V-A:ILE:369:CD1:3238, V-B:HIS:456:CD2:9039, V-A:TYR:484:CE2:4345, V-B:GLU:543:CA:9876, V-A:TYR:484:CZ:4346, H-A:ARG:545:NH2:4928, V-B:PRO:540:CD:9859, V-B:TYR:531:CZ:9766, V-B:TYR:531:CE2:9765, V-B:LEU:363:CD1:8160, H-A:GLU:543:O:4903, V-B:PRO:540:CG:9858, H-B:HIS:456:NE2:9042"]

$$$$
RR29_Rahimova_2017
     RDKit          3D

 35 36  0  0  0  0  0  0  0  0999 V2000
  134.3640  125.2370   66.7770 C   0  0  0  0  0  0  0  0  0  0  0  0
  133.0080  125.7860   66.3610 C   0  0  0  0  0  0  0  0  0  0  0  0
  132.7730  125.7220   64.8350 C   0  0  0  0  0  0  0  0  0  0  0  0
  132.9580  124.2910   64.2890 C   0  0  0  0  0  0  0  0  0  0  0  0
  131.6690  123.7190   63.7200 C   0  0  0  0  0  0  0  0  0  0  0  0
  131.5680  122.3390   63.4540 C   0  0  0  0  0  0  0  0  0  0  0  0
  130.3880  121.7910   62.9310 C   0  0  0  0  0  0  0  0  0  0  0  0
  129.3340  122.6600   62.6750 C   0  0  0  0  0  0  0  0  0  0  0  0
  129.4270  124.0000   62.9290 C   0  0  0  0  0  0  0  0  0  0  0  0
  130.5800  124.5690   63.4570 C   0  0  0  0  0  0  0  0  0  0  0  0
  128.2470  124.5990   62.6190 O   0  0  0  0  0  0  0  0  0  0  0  0
  127.4860  123.6200   61.9620 C   0  0  0  0  0  0  0  0  0  0  0  0
  128.0920  122.3770   62.2000 O   0  0  0  0  0  0  0  0  0  0  0  0
  132.2240  126.2390   67.2680 N   0  0  0  0  0  0  0  0  0  0  0  0
  131.0320  126.8150   66.8860 N   0  0  0  0  0  0  0  0  0  0  0  0
  129.9100  126.1220   66.6320 C   0  0  0  0  0  0  0  0  0  0  0  0
  129.7940  124.7970   66.7310 N   0  0  0  0  0  0  0  0  0  0  0  0
  128.8380  126.8020   66.2540 N   0  0  0  0  0  0  0  0  0  0  0  0
  134.4280  125.2111   67.8748 H   0  0  0  0  0  0  0  0  0  0  0  0
  134.4853  124.2189   66.3785 H   0  0  0  0  0  0  0  0  0  0  0  0
  135.1594  125.8839   66.3785 H   0  0  0  0  0  0  0  0  0  0  0  0
  131.7479  126.0567   64.6178 H   0  0  0  0  0  0  0  0  0  0  0  0
  133.5122  126.3738   64.3464 H   0  0  0  0  0  0  0  0  0  0  0  0
  133.7174  124.3114   63.4934 H   0  0  0  0  0  0  0  0  0  0  0  0
  133.2701  123.6493   65.1261 H   0  0  0  0  0  0  0  0  0  0  0  0
  132.4265  121.6826   63.6594 H   0  0  0  0  0  0  0  0  0  0  0  0
  130.2998  120.7130   62.7307 H   0  0  0  0  0  0  0  0  0  0  0  0
  130.6387  125.6481   63.6623 H   0  0  0  0  0  0  0  0  0  0  0  0
  126.4588  123.6174   62.3556 H   0  0  0  0  0  0  0  0  0  0  0  0
  127.4422  123.8266   60.8825 H   0  0  0  0  0  0  0  0  0  0  0  0
  131.0310  127.8180   66.7690 H   0  0  0  0  0  0  0  0  0  0  0  0
  128.8830  124.3740   66.8360 H   0  0  0  0  0  0  0  0  0  0  0  0
  130.6240  124.2220   66.7120 H   0  0  0  0  0  0  0  0  0  0  0  0
  128.9390  127.7260   65.8590 H   0  0  0  0  0  0  0  0  0  0  0  0
  127.9210  126.3920   66.3560 H   0  0  0  0  0  0  0  0  0  0  0  0
  1  2  1  0
  2  3  1  0
  3  4  1  0
  4  5  1  0
  5  6  2  0
  6  7  1  0
  7  8  2  0
  8  9  1  0
  9 10  2  0
  9 11  1  0
 11 12  1  0
 12 13  1  0
  2 14  2  0
 14 15  1  0
 15 16  1  0
 16 17  1  0
 16 18  2  0
 10  5  1  0
 13  8  1  0
  1 19  1  0
  1 20  1  0
  1 21  1  0
  3 22  1  0
  3 23  1  0
  4 24  1  0
  4 25  1  0
  6 26  1  0
  7 27  1  0
 10 28  1  0
 12 29  1  0
 12 30  1  0
 15 31  1  0
 17 32  1  0
 17 33  1  0
 18 34  1  0
 18 35  1  0
M  CHG  1  18   1
M  END
>  <Binding energies>  (1) 
[-7.15]

>  <Ligand effiencies>  (1) 
[-0.31086956521739134]

>  <Interactions>  (1) 
["V-A:LEU:475:CD1:4257, H-B:ALA:541:N:9863, V-B:ALA:541:CB:9864, V-B:GLU:543:CD:9880, V-A:ARG:545:CD:4923, V-A:ARG:545:CZ:4926, V-B:GLU:543:CB:9878, V-A:GLU:543:CB:4906, V-A:HIS:456:CE1:4069, V-A:ARG:545:CG:4922, V-A:GLY:454:CA:4048, H-A:TYR:484:OH:4347, H-A:GLU:543:OE1:4909, V-B:GLU:543:CG:9879, V-A:GLU:543:CD:4908, H-B:GLU:543:OE2:9882, V-A:TYR:484:CE2:4345, V-A:TYR:484:CZ:4346, H-A:GLU:543:OE2:4910, V-A:ILE:455:C:4051"]

$$$$
RR29_Rahimova_2017-again1
     RDKit          3D

 34 35  0  0  0  0  0  0  0  0999 V2000
  134.1090  124.5720   62.0840 C   0  0  0  0  0  0  0  0  0  0  0  0
  133.5710  124.3840   63.4940 C   0  0  0  0  0  0  0  0  0  0  0  0
  132.4200  123.3630   63.5810 C   0  0  0  0  0  0  0  0  0  0  0  0
  131.7350  123.1650   62.2130 C   0  0  0  0  0  0  0  0  0  0  0  0
  131.8990  121.7470   61.6870 C   0  0  0  0  0  0  0  0  0  0  0  0
  133.1510  121.3170   61.2030 C   0  0  0  0  0  0  0  0  0  0  0  0
  133.3250  120.0150   60.7150 C   0  0  0  0  0  0  0  0  0  0  0  0
  132.2190  119.1720   60.7200 C   0  0  0  0  0  0  0  0  0  0  0  0
  131.0020  119.5850   61.1860 C   0  0  0  0  0  0  0  0  0  0  0  0
  130.8030  120.8670   61.6840 C   0  0  0  0  0  0  0  0  0  0  0  0
  130.1180  118.5560   61.1030 O   0  0  0  0  0  0  0  0  0  0  0  0
  130.7700  117.5550   60.3690 C   0  0  0  0  0  0  0  0  0  0  0  0
  132.1350  117.8730   60.3310 O   0  0  0  0  0  0  0  0  0  0  0  0
  134.0790  125.0710   64.4570 N   0  0  0  0  0  0  0  0  0  0  0  0
  133.5730  124.9030   65.6360 N   0  0  0  0  0  0  0  0  0  0  0  0
  134.3290  125.1480   66.6430 C   0  0  0  0  0  0  0  0  0  0  0  0
  135.6820  125.5880   66.6350 N   0  0  0  0  0  0  0  0  0  0  0  0
  133.8600  124.9980   67.9650 N   0  0  0  0  0  0  0  0  0  0  0  0
  135.1464  124.9345   62.1327 H   0  0  0  0  0  0  0  0  0  0  0  0
  134.0811  123.6109   61.5497 H   0  0  0  0  0  0  0  0  0  0  0  0
  133.4886  125.3066   61.5497 H   0  0  0  0  0  0  0  0  0  0  0  0
  132.8233  122.3980   63.9218 H   0  0  0  0  0  0  0  0  0  0  0  0
  131.6712  123.7468   64.2895 H   0  0  0  0  0  0  0  0  0  0  0  0
  130.6617  123.3811   62.3199 H   0  0  0  0  0  0  0  0  0  0  0  0
  132.2119  123.8483   61.4950 H   0  0  0  0  0  0  0  0  0  0  0  0
  134.0029  122.0128   61.2084 H   0  0  0  0  0  0  0  0  0  0  0  0
  134.3012  119.6721   60.3415 H   0  0  0  0  0  0  0  0  0  0  0  0
  129.8200  121.1827   62.0634 H   0  0  0  0  0  0  0  0  0  0  0  0
  130.6263  116.5795   60.8566 H   0  0  0  0  0  0  0  0  0  0  0  0
  130.3601  117.4965   59.3499 H   0  0  0  0  0  0  0  0  0  0  0  0
  136.1900  125.7460   65.7760 H   0  0  0  0  0  0  0  0  0  0  0  0
  136.2040  125.7540   67.4830 H   0  0  0  0  0  0  0  0  0  0  0  0
  132.9210  124.6880   68.1690 H   0  0  0  0  0  0  0  0  0  0  0  0
  134.4400  125.1820   68.7700 H   0  0  0  0  0  0  0  0  0  0  0  0
  1  2  1  0
  2  3  1  0
  3  4  1  0
  4  5  1  0
  5  6  2  0
  6  7  1  0
  7  8  2  0
  8  9  1  0
  9 10  2  0
  9 11  1  0
 11 12  1  0
 12 13  1  0
  2 14  2  0
 14 15  1  0
 15 16  2  0
 16 17  1  0
 16 18  1  0
 10  5  1  0
 13  8  1  0
  1 19  1  0
  1 20  1  0
  1 21  1  0
  3 22  1  0
  3 23  1  0
  4 24  1  0
  4 25  1  0
  6 26  1  0
  7 27  1  0
 10 28  1  0
 12 29  1  0
 12 30  1  0
 17 31  1  0
 17 32  1  0
 18 33  1  0
 18 34  1  0
M  END
>  <Binding energies>  (1) 
[-6.77]

>  <Ligand effiencies>  (1) 
[-0.3077272727272727]

>  <Interactions>  (1) 
["V-A:ILE:369:CG2:3236, V-B:TYR:539:CD2:9846, V-A:PRO:482:CG:4326, V-A:LEU:475:CD1:4257, V-B:ALA:541:CB:9864, V-A:ARG:545:CD:4923, V-A:ARG:545:CZ:4926, V-A:GLY:453:CA:4043, V-A:ARG:545:CB:4921, V-A:GLY:453:C:4041, V-A:HIS:456:CE1:4069, V-A:ARG:545:CG:4922, V-A:GLY:454:CA:4048, V-A:HIS:383:CE1:3392, H-A:TYR:484:OH:4347, H-A:GLY:454:N:4049, V-A:ASP:366:CG:3212, H-A:ARG:545:NH1:4927, V-A:TYR:484:CZ:4346, H-A:ARG:545:NH2:4928, V-A:ILE:455:C:4051, H-A:ARG:545:NE:4924, H-A:ILE:455:O:4052, V-A:HIS:456:CG:4065, V-A:HIS:456:CD2:4067, H-A:HIS:383:NE2:3393, H-A:SER:385:OG:3409, H-A:HIS:456:NE2:4070, V-A:TYR:484:CE1:4344, V-A:VAL:452:CG2:4039, V-A:VAL:452:C:4033, H-A:VAL:452:O:4034"]

$$$$
RR2_Rahimova_2017
     RDKit          3D

 76 80  0  0  0  0  0  0  0  0999 V2000
  130.1720  121.9400   62.4850 C   0  0  0  0  0  0  0  0  0  0  0  0
  128.8400  122.0030   61.9890 O   0  0  0  0  0  0  0  0  0  0  0  0
  128.2030  123.2280   61.9180 C   0  0  0  0  0  0  0  0  0  0  0  0
  126.8950  123.4140   61.4490 C   0  0  0  0  0  0  0  0  0  0  0  0
  126.3370  124.6890   61.4110 C   0  0  0  0  0  0  0  0  0  0  0  0
  127.0710  125.8050   61.8360 C   0  0  0  0  0  0  0  0  0  0  0  0
  126.4420  127.1840   61.7770 C   0  0  0  0  0  0  0  0  0  0  0  0
  126.1960  127.8010   62.8200 O   0  0  0  0  0  0  0  0  0  0  0  0
  126.1700  127.6560   60.5390 N   0  0  0  0  0  0  0  0  0  0  0  0
  125.5090  128.8750   60.4320 N   0  0  0  0  0  0  0  0  0  0  0  0
  125.0350  129.2400   59.2230 C   0  0  0  0  0  0  0  0  0  0  0  0
  125.2940  128.6660   58.1620 O   0  0  0  0  0  0  0  0  0  0  0  0
  124.0920  130.4500   59.2200 C   0  0  0  0  0  0  0  0  0  0  0  0
  124.6930  131.9030   60.1580 S   0  0  0  0  0  0  0  0  0  0  0  0
  124.7480  131.2350   61.7930 C   0  0  0  0  0  0  0  0  0  0  0  0
  123.6730  130.9610   62.4880 N   0  0  0  0  0  0  0  0  0  0  0  0
  124.0860  130.5270   63.7400 N   0  0  0  0  0  0  0  0  0  0  0  0
  125.3980  130.5270   63.7450 C   0  0  0  0  0  0  0  0  0  0  0  0
  126.2150  130.1010   64.9210 C   0  0  0  0  0  0  0  0  0  0  0  0
  127.2250  130.9370   65.4040 C   0  0  0  0  0  0  0  0  0  0  0  0
  127.9970  130.5460   66.4940 C   0  0  0  0  0  0  0  0  0  0  0  0
  127.7530  129.3210   67.1240 C   0  0  0  0  0  0  0  0  0  0  0  0
  128.5060  128.8710   68.2190 N   0  0  0  0  0  0  0  0  0  0  0  0
  128.8060  127.1620   68.6080 S   0  0  0  0  0  0  0  0  0  0  0  0
  127.5340  126.4670   68.3770 O   0  0  0  0  0  0  0  0  0  0  0  0
  129.4690  127.1030   69.9160 O   0  0  0  0  0  0  0  0  0  0  0  0
  129.9440  126.5880   67.3500 C   0  0  0  0  0  0  0  0  0  0  0  0
  129.4830  125.8550   66.2550 C   0  0  0  0  0  0  0  0  0  0  0  0
  130.3860  125.4040   65.2960 C   0  0  0  0  0  0  0  0  0  0  0  0
  131.7470  125.6910   65.4290 C   0  0  0  0  0  0  0  0  0  0  0  0
  132.7320  125.1860   64.3910 C   0  0  0  0  0  0  0  0  0  0  0  0
  132.2050  126.4210   66.5280 C   0  0  0  0  0  0  0  0  0  0  0  0
  131.3040  126.8710   67.4880 C   0  0  0  0  0  0  0  0  0  0  0  0
  126.7420  128.4880   66.6430 C   0  0  0  0  0  0  0  0  0  0  0  0
  125.9750  128.8750   65.5490 C   0  0  0  0  0  0  0  0  0  0  0  0
  125.8890  130.9740   62.5290 N   0  0  0  0  0  0  0  0  0  0  0  0
  127.2320  131.1630   62.1430 C   0  0  0  0  0  0  0  0  0  0  0  0
  127.6080  132.3330   61.4810 C   0  0  0  0  0  0  0  0  0  0  0  0
  128.9360  132.5160   61.1060 C   0  0  0  0  0  0  0  0  0  0  0  0
  129.8940  131.5400   61.3850 C   0  0  0  0  0  0  0  0  0  0  0  0
  131.1840  131.8100   60.9740 O   0  0  0  0  0  0  0  0  0  0  0  0
  132.1800  130.7990   61.0960 C   0  0  0  0  0  0  0  0  0  0  0  0
  129.5060  130.3660   62.0520 C   0  0  0  0  0  0  0  0  0  0  0  0
  128.1800  130.1790   62.4300 C   0  0  0  0  0  0  0  0  0  0  0  0
  128.3780  125.6100   62.3090 C   0  0  0  0  0  0  0  0  0  0  0  0
  128.9330  124.3340   62.3480 C   0  0  0  0  0  0  0  0  0  0  0  0
  130.1541  121.9408   63.5849 H   0  0  0  0  0  0  0  0  0  0  0  0
  130.6534  121.0181   62.1268 H   0  0  0  0  0  0  0  0  0  0  0  0
  130.7383  122.8124   62.1268 H   0  0  0  0  0  0  0  0  0  0  0  0
  126.3069  122.5486   61.1095 H   0  0  0  0  0  0  0  0  0  0  0  0
  125.3088  124.8220   61.0434 H   0  0  0  0  0  0  0  0  0  0  0  0
  125.9360  127.0360   59.7770 H   0  0  0  0  0  0  0  0  0  0  0  0
  125.1090  129.1910   61.3050 H   0  0  0  0  0  0  0  0  0  0  0  0
  123.9365  130.7587   58.1757 H   0  0  0  0  0  0  0  0  0  0  0  0
  123.1693  130.1215   59.7208 H   0  0  0  0  0  0  0  0  0  0  0  0
  127.4106  131.9077   64.9210 H   0  0  0  0  0  0  0  0  0  0  0  0
  128.8006  131.2015   66.8609 H   0  0  0  0  0  0  0  0  0  0  0  0
  128.9290  129.5670   68.8150 H   0  0  0  0  0  0  0  0  0  0  0  0
  128.4104  125.6346   66.1502 H   0  0  0  0  0  0  0  0  0  0  0  0
  130.0281  124.8220   64.4339 H   0  0  0  0  0  0  0  0  0  0  0  0
  133.6013  124.7403   64.8967 H   0  0  0  0  0  0  0  0  0  0  0  0
  132.2446  124.4266   63.7619 H   0  0  0  0  0  0  0  0  0  0  0  0
  133.0641  126.0250   63.7619 H   0  0  0  0  0  0  0  0  0  0  0  0
  133.2777  126.6401   66.6346 H   0  0  0  0  0  0  0  0  0  0  0  0
  131.6623  127.4481   68.3532 H   0  0  0  0  0  0  0  0  0  0  0  0
  126.5508  127.5210   67.1312 H   0  0  0  0  0  0  0  0  0  0  0  0
  125.1776  128.2149   65.1770 H   0  0  0  0  0  0  0  0  0  0  0  0
  126.8587  133.1065   61.2568 H   0  0  0  0  0  0  0  0  0  0  0  0
  129.2331  133.4381   60.5851 H   0  0  0  0  0  0  0  0  0  0  0  0
  132.3740  130.6020   62.1607 H   0  0  0  0  0  0  0  0  0  0  0  0
  131.8277  129.8768   60.6108 H   0  0  0  0  0  0  0  0  0  0  0  0
  133.1074  131.1374   60.6108 H   0  0  0  0  0  0  0  0  0  0  0  0
  130.2538  129.5911   62.2764 H   0  0  0  0  0  0  0  0  0  0  0  0
  127.8797  129.2591   62.9531 H   0  0  0  0  0  0  0  0  0  0  0  0
  128.9685  126.4725   62.6517 H   0  0  0  0  0  0  0  0  0  0  0  0
  129.9584  124.1975   62.7221 H   0  0  0  0  0  0  0  0  0  0  0  0
  1  2  1  0
  2  3  1  0
  3  4  2  0
  4  5  1  0
  5  6  2  0
  6  7  1  0
  7  8  2  0
  7  9  1  0
  9 10  1  0
 10 11  1  0
 11 12  2  0
 11 13  1  0
 13 14  1  0
 14 15  1  0
 15 16  2  0
 16 17  1  0
 17 18  2  0
 18 19  1  0
 19 20  2  0
 20 21  1  0
 21 22  2  0
 22 23  1  0
 23 24  1  0
 24 25  2  0
 24 26  2  0
 24 27  1  0
 27 28  2  0
 28 29  1  0
 29 30  2  0
 30 31  1  0
 30 32  1  0
 32 33  2  0
 22 34  1  0
 34 35  2  0
 18 36  1  0
 36 37  1  0
 37 38  2  0
 38 39  1  0
 39 40  2  0
 40 41  1  0
 41 42  1  0
 40 43  1  0
 43 44  2  0
  6 45  1  0
 45 46  2  0
 46  3  1  0
 36 15  1  0
 44 37  1  0
 35 19  1  0
 33 27  1  0
  1 47  1  0
  1 48  1  0
  1 49  1  0
  4 50  1  0
  5 51  1  0
  9 52  1  0
 10 53  1  0
 13 54  1  0
 13 55  1  0
 20 56  1  0
 21 57  1  0
 23 58  1  0
 28 59  1  0
 29 60  1  0
 31 61  1  0
 31 62  1  0
 31 63  1  0
 32 64  1  0
 33 65  1  0
 34 66  1  0
 35 67  1  0
 38 68  1  0
 39 69  1  0
 42 70  1  0
 42 71  1  0
 42 72  1  0
 43 73  1  0
 44 74  1  0
 45 75  1  0
 46 76  1  0
M  END
>  <Binding energies>  (1) 
[-10.57]

>  <Ligand effiencies>  (1) 
[-0.21571428571428572]

>  <Interactions>  (1) 
["V-B:PRO:540:CA:9855, H-B:ALA:541:N:9863, H-B:TYR:531:OH:9767, V-B:ALA:541:CB:9864, V-B:GLU:543:CD:9880, V-A:ARG:545:CZ:4926, V-B:GLU:543:CB:9878, V-A:GLU:543:CB:4906, V-A:HIS:456:CE1:4069, V-A:ARG:545:CG:4922, V-B:HIS:456:CE1:9041, H-B:ARG:545:NH2:9900, V-B:ARG:545:CZ:9898, H-B:GLY:454:N:9021, H-A:ALA:541:N:4891, V-B:TYR:484:CZ:9318, V-A:ALA:541:CB:4892, V-B:TYR:484:CE2:9317, V-B:GLU:543:CG:9879, V-A:GLU:543:CD:4908, V-A:GLU:543:CG:4907, V-B:ASP:366:CB:8183, V-B:ASP:366:CA:8181, V-A:TYR:539:CE1:4875, V-B:ASP:366:CG:8184, V-B:ILE:369:CG2:8208, V-A:PRO:540:CA:4883, V-A:PRO:540:CB:4885, V-A:PRO:540:C:4881, V-A:ALA:541:CA:4890, H-B:ASP:366:OD1:8185, H-B:ASP:366:OD2:8186, V-B:ASP:366:C:8179, H-A:GLU:543:O:4903, V-B:ILE:369:CD1:8210, V-B:ILE:369:CB:8207, H-B:HIS:456:NE2:9042"]

$$$$
RR30_Rahimova_2017
     RDKit          3D

 29 30  0  0  0  0  0  0  0  0999 V2000
  133.9890  123.5280   60.0750 C   0  0  0  0  0  0  0  0  0  0  0  0
  134.7810  124.1940   61.2100 C   0  0  0  0  0  0  0  0  0  0  0  0
  133.9970  124.2450   62.5030 C   0  0  0  0  0  0  0  0  0  0  0  0
  134.3060  124.8680   63.6130 N   0  0  0  0  0  0  0  0  0  0  0  0
  133.2700  124.5980   64.5030 N   0  0  0  0  0  0  0  0  0  0  0  0
  132.4300  123.8280   63.8580 C   0  0  0  0  0  0  0  0  0  0  0  0
  130.9090  123.1600   64.4520 S   0  0  0  0  0  0  0  0  0  0  0  0
  129.9000  123.2910   62.9420 C   0  0  0  0  0  0  0  0  0  0  0  0
  129.8760  121.9820   62.1470 C   0  0  0  0  0  0  0  0  0  0  0  0
  128.8280  121.6260   61.6040 O   0  0  0  0  0  0  0  0  0  0  0  0
  131.0320  121.2800   62.1300 N   0  0  0  0  0  0  0  0  0  0  0  0
  131.2520  120.0720   61.4850 C   0  0  0  0  0  0  0  0  0  0  0  0
  132.3630  119.6330   60.9380 N   0  0  0  0  0  0  0  0  0  0  0  0
  132.2120  118.3700   60.3780 N   0  0  0  0  0  0  0  0  0  0  0  0
  131.0000  117.8820   60.5110 C   0  0  0  0  0  0  0  0  0  0  0  0
  130.5900  116.5270   59.9820 C   0  0  0  0  0  0  0  0  0  0  0  0
  129.9240  118.9600   61.3580 S   0  0  0  0  0  0  0  0  0  0  0  0
  132.8250  123.5670   62.5860 O   0  0  0  0  0  0  0  0  0  0  0  0
  133.2134  122.8758   60.5028 H   0  0  0  0  0  0  0  0  0  0  0  0
  133.5152  124.3030   59.4547 H   0  0  0  0  0  0  0  0  0  0  0  0
  134.6713  122.9282   59.4547 H   0  0  0  0  0  0  0  0  0  0  0  0
  135.7056  123.6226   61.3790 H   0  0  0  0  0  0  0  0  0  0  0  0
  134.9986  125.2288   60.9069 H   0  0  0  0  0  0  0  0  0  0  0  0
  128.8698  123.5521   63.2258 H   0  0  0  0  0  0  0  0  0  0  0  0
  130.3477  124.0662   62.3028 H   0  0  0  0  0  0  0  0  0  0  0  0
  131.8180  121.6590   62.6380 H   0  0  0  0  0  0  0  0  0  0  0  0
  130.3854  115.8508   60.8251 H   0  0  0  0  0  0  0  0  0  0  0  0
  129.6834  116.6321   59.3679 H   0  0  0  0  0  0  0  0  0  0  0  0
  131.4027  116.1119   59.3679 H   0  0  0  0  0  0  0  0  0  0  0  0
  1  2  1  0
  2  3  1  0
  3  4  2  0
  4  5  1  0
  5  6  2  0
  6  7  1  0
  7  8  1  0
  8  9  1  0
  9 10  2  0
  9 11  1  0
 11 12  1  0
 12 13  2  0
 13 14  1  0
 14 15  2  0
 15 16  1  0
 15 17  1  0
  6 18  1  0
 18  3  1  0
 17 12  1  0
  1 19  1  0
  1 20  1  0
  1 21  1  0
  2 22  1  0
  2 23  1  0
  8 24  1  0
  8 25  1  0
 11 26  1  0
 16 27  1  0
 16 28  1  0
 16 29  1  0
M  END
>  <Binding energies>  (1) 
[-6.02]

>  <Ligand effiencies>  (1) 
[-0.31684210526315787]

>  <Interactions>  (1) 
["V-A:ILE:369:CG2:3236, V-B:TYR:539:CD2:9846, V-A:PRO:482:CG:4326, V-B:PRO:540:C:9853, V-A:PRO:482:CB:4325, V-A:LEU:475:CD1:4257, H-B:ALA:541:N:9863, V-B:ALA:541:CA:9862, V-B:TYR:539:C:9839, V-B:ALA:541:CB:9864, V-A:GLY:453:CA:4043, V-A:GLY:453:C:4041, V-A:HIS:383:CE1:3392, H-A:TYR:484:OH:4347, H-A:GLY:454:N:4049, V-A:ASP:366:CG:3212, H-A:ARG:545:NH1:4927, V-A:ILE:369:CD1:3238, V-A:ASP:366:CA:3209, V-A:ILE:369:CB:3235, H-A:ARG:545:NH2:4928, V-B:VAL:344:CG1:7972, V-B:TYR:539:CB:9843, H-A:HIS:383:NE2:3393, H-A:SER:385:OG:3409"]

$$$$
RR31_Rahimova_2017
     RDKit          3D

 44 45  0  0  0  0  0  0  0  0999 V2000
  130.9760  117.1630   59.6210 C   0  0  0  0  0  0  0  0  0  0  0  0
  131.1460  118.4610   60.3980 C   0  0  0  0  0  0  0  0  0  0  0  0
  130.0700  118.9600   61.1340 C   0  0  0  0  0  0  0  0  0  0  0  0
  130.1950  120.1440   61.8590 C   0  0  0  0  0  0  0  0  0  0  0  0
  131.4020  120.8610   61.8760 C   0  0  0  0  0  0  0  0  0  0  0  0
  131.5390  122.0540   62.5890 N   0  0  0  0  0  0  0  0  0  0  0  0
  130.4720  122.5660   63.4700 C   0  0  0  0  0  0  0  0  0  0  0  0
  130.6210  124.0610   63.8390 C   0  0  0  0  0  0  0  0  0  0  0  0
  131.9270  124.3200   64.4500 N   0  0  0  0  0  0  0  0  0  0  0  0
  132.0850  125.7240   64.8440 C   0  0  0  0  0  0  0  0  0  0  0  0
  131.4770  126.0340   66.2260 C   0  0  0  0  0  0  0  0  0  0  0  0
  129.9850  125.6700   66.3020 C   0  0  0  0  0  0  0  0  0  0  0  0
  129.1380  126.8090   65.7240 N   0  0  0  0  0  0  0  0  0  0  0  0
  132.9490  123.9670   63.4650 C   0  0  0  0  0  0  0  0  0  0  0  0
  132.8620  122.4690   63.0970 C   0  0  0  0  0  0  0  0  0  0  0  0
  132.4720  120.3530   61.1250 C   0  0  0  0  0  0  0  0  0  0  0  0
  132.3600  119.1660   60.3920 C   0  0  0  0  0  0  0  0  0  0  0  0
  133.5590  118.6690   59.5940 C   0  0  0  0  0  0  0  0  0  0  0  0
  130.8663  116.3255   60.3257 H   0  0  0  0  0  0  0  0  0  0  0  0
  130.0789  117.2294   58.9879 H   0  0  0  0  0  0  0  0  0  0  0  0
  131.8600  116.9962   58.9879 H   0  0  0  0  0  0  0  0  0  0  0  0
  129.1150  118.4141   61.1419 H   0  0  0  0  0  0  0  0  0  0  0  0
  129.3331  120.5231   62.4276 H   0  0  0  0  0  0  0  0  0  0  0  0
  129.5074  122.4308   62.9589 H   0  0  0  0  0  0  0  0  0  0  0  0
  130.5376  121.9990   64.4103 H   0  0  0  0  0  0  0  0  0  0  0  0
  130.5228  124.6687   62.9274 H   0  0  0  0  0  0  0  0  0  0  0  0
  129.8355  124.3248   64.5625 H   0  0  0  0  0  0  0  0  0  0  0  0
  133.1587  125.9614   64.8722 H   0  0  0  0  0  0  0  0  0  0  0  0
  131.5484  126.3357   64.1038 H   0  0  0  0  0  0  0  0  0  0  0  0
  132.0210  125.4580   66.9891 H   0  0  0  0  0  0  0  0  0  0  0  0
  131.5686  127.1165   66.3988 H   0  0  0  0  0  0  0  0  0  0  0  0
  129.8041  124.7518   65.7239 H   0  0  0  0  0  0  0  0  0  0  0  0
  129.7054  125.5096   67.3537 H   0  0  0  0  0  0  0  0  0  0  0  0
  128.1810  126.5050   65.6070 H   0  0  0  0  0  0  0  0  0  0  0  0
  129.5010  127.0910   64.8240 H   0  0  0  0  0  0  0  0  0  0  0  0
  129.1530  127.6050   66.3450 H   0  0  0  0  0  0  0  0  0  0  0  0
  132.7991  124.5706   62.5577 H   0  0  0  0  0  0  0  0  0  0  0  0
  133.9402  124.1667   63.8983 H   0  0  0  0  0  0  0  0  0  0  0  0
  133.6126  122.2588   62.3209 H   0  0  0  0  0  0  0  0  0  0  0  0
  133.0413  121.9018   64.0223 H   0  0  0  0  0  0  0  0  0  0  0  0
  133.4249  120.9023   61.1117 H   0  0  0  0  0  0  0  0  0  0  0  0
  134.3493  118.3414   60.2854 H   0  0  0  0  0  0  0  0  0  0  0  0
  133.2527  117.8237   58.9602 H   0  0  0  0  0  0  0  0  0  0  0  0
  133.9406  119.4831   58.9602 H   0  0  0  0  0  0  0  0  0  0  0  0
  1  2  1  0
  2  3  2  0
  3  4  1  0
  4  5  2  0
  5  6  1  0
  6  7  1  0
  7  8  1  0
  8  9  1  0
  9 10  1  0
 10 11  1  0
 11 12  1  0
 12 13  1  0
  9 14  1  0
 14 15  1  0
  5 16  1  0
 16 17  2  0
 17 18  1  0
 17  2  1  0
 15  6  1  0
  1 19  1  0
  1 20  1  0
  1 21  1  0
  3 22  1  0
  4 23  1  0
  7 24  1  0
  7 25  1  0
  8 26  1  0
  8 27  1  0
 10 28  1  0
 10 29  1  0
 11 30  1  0
 11 31  1  0
 12 32  1  0
 12 33  1  0
 13 34  1  0
 13 35  1  0
 13 36  1  0
 14 37  1  0
 14 38  1  0
 15 39  1  0
 15 40  1  0
 16 41  1  0
 18 42  1  0
 18 43  1  0
 18 44  1  0
M  CHG  1  13   1
M  END
>  <Binding energies>  (1) 
[-7.23]

>  <Ligand effiencies>  (1) 
[-0.3442857142857143]

>  <Interactions>  (1) 
["V-A:ILE:369:CG2:3236, V-B:TYR:539:CD2:9846, V-A:PRO:482:CG:4326, V-B:PRO:540:C:9853, V-A:LEU:475:CD1:4257, V-B:ALA:541:CA:9862, V-A:SER:385:CA:3406, V-B:TYR:539:C:9839, V-B:ALA:541:CB:9864, V-B:GLU:543:CD:9880, V-A:ARG:545:CZ:4926, V-A:GLY:454:CA:4048, V-A:HIS:383:CE1:3392, H-A:TYR:484:OH:4347, H-A:GLU:543:OE1:4909, V-A:GLU:543:CD:4908, H-B:GLU:543:OE2:9882, V-B:TYR:539:CB:9843, V-A:HIS:383:CD2:3391"]

$$$$
RR32_Rahimova_2017
     RDKit          3D

 37 39  0  0  0  0  0  0  0  0999 V2000
  130.2020  131.6240   56.5530 C   0  0  0  0  0  0  0  0  0  0  0  0
  130.2120  131.6250   58.0780 C   0  0  0  0  0  0  0  0  0  0  0  0
  129.0130  131.8800   58.7460 C   0  0  0  0  0  0  0  0  0  0  0  0
  128.9830  131.8850   60.1370 C   0  0  0  0  0  0  0  0  0  0  0  0
  127.7920  132.1390   60.7950 N   0  0  0  0  0  0  0  0  0  0  0  0
  127.6010  133.4920   61.3480 C   0  0  0  0  0  0  0  0  0  0  0  0
  126.3270  133.6220   62.2170 C   0  0  0  0  0  0  0  0  0  0  0  0
  125.1440  133.2660   61.4340 N   0  0  0  0  0  0  0  0  0  0  0  0
  123.9400  133.4190   62.2440 C   0  0  0  0  0  0  0  0  0  0  0  0
  125.2900  131.8770   61.0020 C   0  0  0  0  0  0  0  0  0  0  0  0
  126.5500  131.7200   60.1180 C   0  0  0  0  0  0  0  0  0  0  0  0
  130.0870  131.6530   60.8940 N   0  0  0  0  0  0  0  0  0  0  0  0
  131.2710  131.4040   60.2720 C   0  0  0  0  0  0  0  0  0  0  0  0
  132.4060  131.1670   61.0860 C   0  0  0  0  0  0  0  0  0  0  0  0
  133.6420  130.9070   60.5060 C   0  0  0  0  0  0  0  0  0  0  0  0
  133.7790  130.8760   59.1240 C   0  0  0  0  0  0  0  0  0  0  0  0
  132.6850  131.1050   58.2950 C   0  0  0  0  0  0  0  0  0  0  0  0
  131.3980  131.3760   58.8450 C   0  0  0  0  0  0  0  0  0  0  0  0
  129.1677  131.5206   56.1932 H   0  0  0  0  0  0  0  0  0  0  0  0
  130.6262  132.5690   56.1829 H   0  0  0  0  0  0  0  0  0  0  0  0
  130.8049  130.7817   56.1829 H   0  0  0  0  0  0  0  0  0  0  0  0
  128.0942  132.0765   58.1740 H   0  0  0  0  0  0  0  0  0  0  0  0
  128.4742  133.7425   61.9683 H   0  0  0  0  0  0  0  0  0  0  0  0
  127.4873  134.1796   60.4969 H   0  0  0  0  0  0  0  0  0  0  0  0
  126.4068  132.9474   63.0822 H   0  0  0  0  0  0  0  0  0  0  0  0
  126.2309  134.6626   62.5603 H   0  0  0  0  0  0  0  0  0  0  0  0
  124.2086  133.3849   63.3102 H   0  0  0  0  0  0  0  0  0  0  0  0
  123.4651  134.3847   62.0162 H   0  0  0  0  0  0  0  0  0  0  0  0
  123.2387  132.6028   62.0162 H   0  0  0  0  0  0  0  0  0  0  0  0
  125.3841  131.2298   61.8864 H   0  0  0  0  0  0  0  0  0  0  0  0
  124.4040  131.5888   60.4172 H   0  0  0  0  0  0  0  0  0  0  0  0
  126.6472  130.6620   59.8330 H   0  0  0  0  0  0  0  0  0  0  0  0
  126.4185  132.3738   59.2432 H   0  0  0  0  0  0  0  0  0  0  0  0
  132.3087  131.1888   62.1815 H   0  0  0  0  0  0  0  0  0  0  0  0
  134.5179  130.7245   61.1458 H   0  0  0  0  0  0  0  0  0  0  0  0
  134.7636  130.6680   58.6798 H   0  0  0  0  0  0  0  0  0  0  0  0
  132.8148  131.0766   57.2030 H   0  0  0  0  0  0  0  0  0  0  0  0
  1  2  1  0
  2  3  2  0
  3  4  1  0
  4  5  1  0
  5  6  1  0
  6  7  1  0
  7  8  1  0
  8  9  1  0
  8 10  1  0
 10 11  1  0
  4 12  2  0
 12 13  1  0
 13 14  2  0
 14 15  1  0
 15 16  2  0
 16 17  1  0
 17 18  2  0
 18  2  1  0
 11  5  1  0
 18 13  1  0
  1 19  1  0
  1 20  1  0
  1 21  1  0
  3 22  1  0
  6 23  1  0
  6 24  1  0
  7 25  1  0
  7 26  1  0
  9 27  1  0
  9 28  1  0
  9 29  1  0
 10 30  1  0
 10 31  1  0
 11 32  1  0
 11 33  1  0
 14 34  1  0
 15 35  1  0
 16 36  1  0
 17 37  1  0
M  END
>  <Binding energies>  (1) 
[-6.46]

>  <Ligand effiencies>  (1) 
[-0.35888888888888887]

>  <Interactions>  (1) 
["H-A:ALA:541:N:4891, V-A:ALA:541:CB:4892, V-A:ASP:366:CG:3212, V-A:ASP:366:CB:3211, V-A:TYR:539:CE1:4875, V-B:ILE:369:CG2:8208, V-A:TYR:539:C:4867, V-A:PRO:540:CA:4883, V-A:TYR:539:CD1:4873, V-A:PRO:540:CB:4885, V-A:PRO:540:N:4884, V-A:PRO:540:C:4881, V-A:ASN:362:C:3171, V-A:LEU:363:CD1:3188, V-A:ASN:362:CB:3175, V-A:LEU:363:CA:3184, V-A:LEU:363:CB:3186, V-B:LEU:475:CD1:9229, V-B:GLY:454:CA:9020, V-B:ILE:369:CD1:8210"]

$$$$
RR32_Rahimova_2017-again1
     RDKit          3D

 38 40  0  0  0  0  0  0  0  0999 V2000
  129.0370  123.0010   58.0850 C   0  0  0  0  0  0  0  0  0  0  0  0
  128.5220  122.9230   59.5160 C   0  0  0  0  0  0  0  0  0  0  0  0
  129.3990  122.6480   60.5650 C   0  0  0  0  0  0  0  0  0  0  0  0
  128.9240  122.5820   61.8790 C   0  0  0  0  0  0  0  0  0  0  0  0
  129.7830  122.2970   62.9460 N   0  0  0  0  0  0  0  0  0  0  0  0
  131.2440  122.4310   62.7830 C   0  0  0  0  0  0  0  0  0  0  0  0
  131.7430  123.8700   63.0530 C   0  0  0  0  0  0  0  0  0  0  0  0
  131.4000  124.2430   64.5090 N   0  0  0  0  0  0  0  0  0  0  0  0
  131.8610  125.6780   64.8290 C   0  0  0  0  0  0  0  0  0  0  0  0
  129.8780  124.1020   64.7100 C   0  0  0  0  0  0  0  0  0  0  0  0
  129.4640  122.6570   64.3440 C   0  0  0  0  0  0  0  0  0  0  0  0
  127.6040  122.7540   62.1650 N   0  0  0  0  0  0  0  0  0  0  0  0
  126.7250  123.0270   61.1620 C   0  0  0  0  0  0  0  0  0  0  0  0
  125.3620  123.2160   61.4980 C   0  0  0  0  0  0  0  0  0  0  0  0
  124.4300  123.4990   60.5040 C   0  0  0  0  0  0  0  0  0  0  0  0
  124.8230  123.5990   59.1730 C   0  0  0  0  0  0  0  0  0  0  0  0
  126.1550  123.4160   58.8120 C   0  0  0  0  0  0  0  0  0  0  0  0
  127.1370  123.1260   59.7990 C   0  0  0  0  0  0  0  0  0  0  0  0
  130.1245  123.1657   58.0952 H   0  0  0  0  0  0  0  0  0  0  0  0
  128.8137  122.0588   57.5631 H   0  0  0  0  0  0  0  0  0  0  0  0
  128.5447  123.8348   57.5631 H   0  0  0  0  0  0  0  0  0  0  0  0
  130.4667  122.4826   60.3585 H   0  0  0  0  0  0  0  0  0  0  0  0
  131.7412  121.7477   63.4872 H   0  0  0  0  0  0  0  0  0  0  0  0
  131.4868  122.1845   61.7388 H   0  0  0  0  0  0  0  0  0  0  0  0
  132.8318  123.9189   62.9043 H   0  0  0  0  0  0  0  0  0  0  0  0
  131.2575  124.5729   62.3601 H   0  0  0  0  0  0  0  0  0  0  0  0
  131.8670  123.5930   65.1250 H   0  0  0  0  0  0  0  0  0  0  0  0
  131.9048  125.8144   65.9196 H   0  0  0  0  0  0  0  0  0  0  0  0
  132.8587  125.8473   64.3979 H   0  0  0  0  0  0  0  0  0  0  0  0
  131.1485  126.3967   64.3979 H   0  0  0  0  0  0  0  0  0  0  0  0
  129.6224  124.3061   65.7602 H   0  0  0  0  0  0  0  0  0  0  0  0
  129.3459  124.8195   64.0681 H   0  0  0  0  0  0  0  0  0  0  0  0
  129.9918  121.9618   65.0134 H   0  0  0  0  0  0  0  0  0  0  0  0
  128.3719  122.5907   64.4580 H   0  0  0  0  0  0  0  0  0  0  0  0
  125.0395  123.1389   62.5468 H   0  0  0  0  0  0  0  0  0  0  0  0
  123.3734  123.6449   60.7729 H   0  0  0  0  0  0  0  0  0  0  0  0
  124.0745  123.8247   58.3991 H   0  0  0  0  0  0  0  0  0  0  0  0
  126.4502  123.4963   57.7554 H   0  0  0  0  0  0  0  0  0  0  0  0
  1  2  1  0
  2  3  2  0
  3  4  1  0
  4  5  1  0
  5  6  1  0
  6  7  1  0
  7  8  1  0
  8  9  1  0
  8 10  1  0
 10 11  1  0
  4 12  2  0
 12 13  1  0
 13 14  2  0
 14 15  1  0
 15 16  2  0
 16 17  1  0
 17 18  2  0
 18  2  1  0
 11  5  1  0
 18 13  1  0
  1 19  1  0
  1 20  1  0
  1 21  1  0
  3 22  1  0
  6 23  1  0
  6 24  1  0
  7 25  1  0
  7 26  1  0
  8 27  1  0
  9 28  1  0
  9 29  1  0
  9 30  1  0
 10 31  1  0
 10 32  1  0
 11 33  1  0
 11 34  1  0
 14 35  1  0
 15 36  1  0
 16 37  1  0
 17 38  1  0
M  CHG  1   8   1
M  END
>  <Binding energies>  (1) 
[-6.7]

>  <Ligand effiencies>  (1) 
[-0.3526315789473684]

>  <Interactions>  (1) 
["V-B:PRO:540:CB:9857, V-B:TYR:539:CE2:9848, V-B:TYR:539:CZ:9849, V-B:TYR:539:CD2:9846, V-B:PRO:540:CA:9855, V-B:PRO:540:C:9853, V-A:LEU:475:CD1:4257, H-B:ALA:541:N:9863, V-B:ALA:541:CB:9864, V-B:GLU:543:CD:9880, V-A:ARG:545:CZ:4926, H-A:TYR:484:OH:4347, V-B:GLU:543:CG:9879, V-B:LEU:363:CA:8156, V-B:LEU:363:CD1:8160"]

$$$$
RR32_Rahimova_2017-again2
     RDKit          3D

 39 41  0  0  0  0  0  0  0  0999 V2000
  133.2470  126.0160   67.1190 C   0  0  0  0  0  0  0  0  0  0  0  0
  131.7900  126.0390   66.6770 C   0  0  0  0  0  0  0  0  0  0  0  0
  130.8370  126.7310   67.4310 C   0  0  0  0  0  0  0  0  0  0  0  0
  129.4910  126.7590   67.0430 C   0  0  0  0  0  0  0  0  0  0  0  0
  128.4740  127.4680   67.7770 N   0  0  0  0  0  0  0  0  0  0  0  0
  128.7010  128.8630   68.2400 C   0  0  0  0  0  0  0  0  0  0  0  0
  128.3490  129.8780   67.1200 C   0  0  0  0  0  0  0  0  0  0  0  0
  126.8650  129.7070   66.7170 N   0  0  0  0  0  0  0  0  0  0  0  0
  126.4930  130.6610   65.5660 C   0  0  0  0  0  0  0  0  0  0  0  0
  126.5830  128.2360   66.3300 C   0  0  0  0  0  0  0  0  0  0  0  0
  127.0250  127.3080   67.4930 C   0  0  0  0  0  0  0  0  0  0  0  0
  129.1460  126.1050   65.9150 N   0  0  0  0  0  0  0  0  0  0  0  0
  130.0110  125.4010   65.1100 C   0  0  0  0  0  0  0  0  0  0  0  0
  129.5440  124.7490   63.9470 C   0  0  0  0  0  0  0  0  0  0  0  0
  130.4490  124.0480   63.1540 C   0  0  0  0  0  0  0  0  0  0  0  0
  131.7970  123.9880   63.4990 C   0  0  0  0  0  0  0  0  0  0  0  0
  132.2720  124.6260   64.6440 C   0  0  0  0  0  0  0  0  0  0  0  0
  131.3860  125.3550   65.4880 C   0  0  0  0  0  0  0  0  0  0  0  0
  133.2968  126.0152   68.2179 H   0  0  0  0  0  0  0  0  0  0  0  0
  133.7342  125.1101   66.7292 H   0  0  0  0  0  0  0  0  0  0  0  0
  133.7625  126.9061   66.7292 H   0  0  0  0  0  0  0  0  0  0  0  0
  131.1489  127.2615   68.3427 H   0  0  0  0  0  0  0  0  0  0  0  0
  128.0674  129.0596   69.1174 H   0  0  0  0  0  0  0  0  0  0  0  0
  129.7630  128.9799   68.5016 H   0  0  0  0  0  0  0  0  0  0  0  0
  128.5135  130.9016   67.4878 H   0  0  0  0  0  0  0  0  0  0  0  0
  128.9900  129.6954   66.2449 H   0  0  0  0  0  0  0  0  0  0  0  0
  126.2980  129.9270   67.5250 H   0  0  0  0  0  0  0  0  0  0  0  0
  126.1230  131.6100   65.9814 H   0  0  0  0  0  0  0  0  0  0  0  0
  127.3820  130.8534   64.9474 H   0  0  0  0  0  0  0  0  0  0  0  0
  125.7084  130.2008   64.9474 H   0  0  0  0  0  0  0  0  0  0  0  0
  125.5070  128.1046   66.1432 H   0  0  0  0  0  0  0  0  0  0  0  0
  127.1441  127.9796   65.4193 H   0  0  0  0  0  0  0  0  0  0  0  0
  126.4507  127.5634   68.3957 H   0  0  0  0  0  0  0  0  0  0  0  0
  126.8372  126.2643   67.2007 H   0  0  0  0  0  0  0  0  0  0  0  0
  128.1770  126.1410   65.6380 H   0  0  0  0  0  0  0  0  0  0  0  0
  128.4800  124.7944   63.6716 H   0  0  0  0  0  0  0  0  0  0  0  0
  130.0958  123.5367   62.2463 H   0  0  0  0  0  0  0  0  0  0  0  0
  132.4964  123.4296   62.8594 H   0  0  0  0  0  0  0  0  0  0  0  0
  133.3406  124.5659   64.8979 H   0  0  0  0  0  0  0  0  0  0  0  0
  1  2  1  0
  2  3  2  0
  3  4  1  0
  4  5  1  0
  5  6  1  0
  6  7  1  0
  7  8  1  0
  8  9  1  0
  8 10  1  0
 10 11  1  0
  4 12  2  0
 12 13  1  0
 13 14  2  0
 14 15  1  0
 15 16  2  0
 16 17  1  0
 17 18  2  0
 18  2  1  0
 11  5  1  0
 18 13  1  0
  1 19  1  0
  1 20  1  0
  1 21  1  0
  3 22  1  0
  6 23  1  0
  6 24  1  0
  7 25  1  0
  7 26  1  0
  8 27  1  0
  9 28  1  0
  9 29  1  0
  9 30  1  0
 10 31  1  0
 10 32  1  0
 11 33  1  0
 11 34  1  0
 12 35  1  0
 14 36  1  0
 15 37  1  0
 16 38  1  0
 17 39  1  0
M  CHG  2   8   1  12   1
M  END
>  <Binding energies>  (1) 
[-7.1]

>  <Ligand effiencies>  (1) 
[-0.355]

>  <Interactions>  (1) 
["V-B:GLU:543:CD:9880, V-A:ARG:545:CD:4923, V-B:GLU:543:CB:9878, V-A:GLU:543:CB:4906, H-B:TYR:484:OH:9319, V-A:HIS:456:CE1:4069, V-A:ARG:545:CG:4922, V-B:HIS:456:CE1:9041, V-B:TYR:484:CZ:9318, H-A:GLU:543:OE1:4909, V-B:TYR:484:CE2:9317, V-B:GLU:543:CG:9879, V-A:GLU:543:CD:4908, V-A:GLU:543:CG:4907, H-B:GLU:543:OE2:9882, V-A:GLU:543:CA:4904"]

$$$$
RR33_Rahimova_2017
     RDKit          3D

 36 37  0  0  0  0  0  0  0  0999 V2000
  133.2630  118.8900   59.2380 C   0  0  0  0  0  0  0  0  0  0  0  0
  133.4520  118.9830   60.7550 C   0  0  0  0  0  0  0  0  0  0  0  0
  133.2220  120.3290   61.1630 O   0  0  0  0  0  0  0  0  0  0  0  0
  132.0110  120.9280   60.8750 C   0  0  0  0  0  0  0  0  0  0  0  0
  130.8880  120.3930   61.5050 C   0  0  0  0  0  0  0  0  0  0  0  0
  129.6240  120.9280   61.2740 C   0  0  0  0  0  0  0  0  0  0  0  0
  129.4640  122.0110   60.4040 C   0  0  0  0  0  0  0  0  0  0  0  0
  128.1050  122.5840   60.1560 C   0  0  0  0  0  0  0  0  0  0  0  0
  127.6620  123.1480   59.0550 N   0  0  0  0  0  0  0  0  0  0  0  0
  126.4110  123.4930   59.3180 C   0  0  0  0  0  0  0  0  0  0  0  0
  125.5530  124.1700   58.2700 C   0  0  0  0  0  0  0  0  0  0  0  0
  126.1140  123.9720   56.9420 N   0  0  0  0  0  0  0  0  0  0  0  0
  125.4740  122.8490   56.2770 C   0  0  0  0  0  0  0  0  0  0  0  0
  126.0900  123.1260   60.6190 C   0  0  0  0  0  0  0  0  0  0  0  0
  124.8630  123.2310   61.4920 C   0  0  0  0  0  0  0  0  0  0  0  0
  127.1860  122.5410   61.1550 O   0  0  0  0  0  0  0  0  0  0  0  0
  130.5880  122.5530   59.7730 C   0  0  0  0  0  0  0  0  0  0  0  0
  131.8530  122.0170   60.0040 C   0  0  0  0  0  0  0  0  0  0  0  0
  132.2961  118.4142   59.0175 H   0  0  0  0  0  0  0  0  0  0  0  0
  133.2821  119.9004   58.8035 H   0  0  0  0  0  0  0  0  0  0  0  0
  134.0751  118.2886   58.8035 H   0  0  0  0  0  0  0  0  0  0  0  0
  132.7365  118.3163   61.2586 H   0  0  0  0  0  0  0  0  0  0  0  0
  134.4744  118.6795   61.0244 H   0  0  0  0  0  0  0  0  0  0  0  0
  131.0020  119.5405   62.1907 H   0  0  0  0  0  0  0  0  0  0  0  0
  128.7466  120.4968   61.7783 H   0  0  0  0  0  0  0  0  0  0  0  0
  124.5397  123.7431   58.3016 H   0  0  0  0  0  0  0  0  0  0  0  0
  125.5186  125.2486   58.4830 H   0  0  0  0  0  0  0  0  0  0  0  0
  127.1040  123.7840   57.0230 H   0  0  0  0  0  0  0  0  0  0  0  0
  125.0776  122.1535   57.0315 H   0  0  0  0  0  0  0  0  0  0  0  0
  124.6497  123.2165   55.6482 H   0  0  0  0  0  0  0  0  0  0  0  0
  126.2103  122.3271   55.6482 H   0  0  0  0  0  0  0  0  0  0  0  0
  125.1626  123.2054   62.5501 H   0  0  0  0  0  0  0  0  0  0  0  0
  124.3427  124.1769   61.2810 H   0  0  0  0  0  0  0  0  0  0  0  0
  124.1896  122.3872   61.2810 H   0  0  0  0  0  0  0  0  0  0  0  0
  130.4727  123.4077   59.0902 H   0  0  0  0  0  0  0  0  0  0  0  0
  132.7312  122.4490   59.5018 H   0  0  0  0  0  0  0  0  0  0  0  0
  1  2  1  0
  2  3  1  0
  3  4  1  0
  4  5  2  0
  5  6  1  0
  6  7  2  0
  7  8  1  0
  8  9  2  0
  9 10  1  0
 10 11  1  0
 11 12  1  0
 12 13  1  0
 10 14  2  0
 14 15  1  0
 14 16  1  0
  7 17  1  0
 17 18  2  0
 18  4  1  0
 16  8  1  0
  1 19  1  0
  1 20  1  0
  1 21  1  0
  2 22  1  0
  2 23  1  0
  5 24  1  0
  6 25  1  0
 11 26  1  0
 11 27  1  0
 12 28  1  0
 13 29  1  0
 13 30  1  0
 13 31  1  0
 15 32  1  0
 15 33  1  0
 15 34  1  0
 17 35  1  0
 18 36  1  0
M  END
>  <Binding energies>  (1) 
[-5.24]

>  <Ligand effiencies>  (1) 
[-0.27578947368421053]

>  <Interactions>  (1) 
["V-B:PRO:540:CB:9857, V-A:ILE:369:CG2:3236, V-B:TYR:539:CE2:9848, V-B:TYR:539:CD2:9846, V-B:PRO:540:CA:9855, V-B:PRO:540:C:9853, V-B:MET:535:CE:9807, V-A:LEU:475:CD1:4257, H-B:ALA:541:N:9863, V-A:SER:385:CB:3408, H-B:TYR:531:OH:9767, V-B:ALA:541:CA:9862, V-A:SER:385:CA:3406, V-A:SER:385:C:3404, V-B:ALA:541:CB:9864, V-A:HIS:383:CD2:3391, V-B:ASN:362:CB:8147, V-B:TYR:531:CE2:9765, V-B:LEU:363:CD1:8160"]

$$$$
RR33_Rahimova_2017-again1
     RDKit          3D

 37 38  0  0  0  0  0  0  0  0999 V2000
  132.0010  125.3360   57.3830 C   0  0  0  0  0  0  0  0  0  0  0  0
  133.2390  124.4700   57.6340 C   0  0  0  0  0  0  0  0  0  0  0  0
  132.9340  123.5150   58.6450 O   0  0  0  0  0  0  0  0  0  0  0  0
  132.8460  123.9260   59.9620 C   0  0  0  0  0  0  0  0  0  0  0  0
  134.0180  123.8570   60.7150 C   0  0  0  0  0  0  0  0  0  0  0  0
  134.0280  124.2500   62.0510 C   0  0  0  0  0  0  0  0  0  0  0  0
  132.8570  124.7190   62.6560 C   0  0  0  0  0  0  0  0  0  0  0  0
  132.8630  125.1420   64.0890 C   0  0  0  0  0  0  0  0  0  0  0  0
  131.8820  125.6960   64.7670 N   0  0  0  0  0  0  0  0  0  0  0  0
  132.3590  125.8850   65.9880 C   0  0  0  0  0  0  0  0  0  0  0  0
  131.5110  126.5240   67.0710 C   0  0  0  0  0  0  0  0  0  0  0  0
  130.0930  126.7610   66.5260 N   0  0  0  0  0  0  0  0  0  0  0  0
  129.0560  125.7620   67.0600 C   0  0  0  0  0  0  0  0  0  0  0  0
  133.6740  125.4380   66.0460 C   0  0  0  0  0  0  0  0  0  0  0  0
  134.7420  125.3790   67.1100 C   0  0  0  0  0  0  0  0  0  0  0  0
  133.9920  124.9590   64.8210 O   0  0  0  0  0  0  0  0  0  0  0  0
  131.6790  124.7890   61.9040 C   0  0  0  0  0  0  0  0  0  0  0  0
  131.6710  124.3960   60.5680 C   0  0  0  0  0  0  0  0  0  0  0  0
  131.5653  125.6408   58.3460 H   0  0  0  0  0  0  0  0  0  0  0  0
  132.2891  126.2306   56.8114 H   0  0  0  0  0  0  0  0  0  0  0  0
  131.2594  124.7587   56.8114 H   0  0  0  0  0  0  0  0  0  0  0  0
  133.5202  123.9495   56.7066 H   0  0  0  0  0  0  0  0  0  0  0  0
  134.0780  125.1029   57.9588 H   0  0  0  0  0  0  0  0  0  0  0  0
  134.9437  123.4885   60.2489 H   0  0  0  0  0  0  0  0  0  0  0  0
  134.9598  124.1915   62.6326 H   0  0  0  0  0  0  0  0  0  0  0  0
  131.4633  125.8559   67.9436 H   0  0  0  0  0  0  0  0  0  0  0  0
  131.9569  127.4832   67.3729 H   0  0  0  0  0  0  0  0  0  0  0  0
  129.8020  127.6970   66.7680 H   0  0  0  0  0  0  0  0  0  0  0  0
  130.1200  126.6950   65.5180 H   0  0  0  0  0  0  0  0  0  0  0  0
  129.0681  125.7737   68.1599 H   0  0  0  0  0  0  0  0  0  0  0  0
  128.0554  126.0452   66.7013 H   0  0  0  0  0  0  0  0  0  0  0  0
  129.3017  124.7516   66.7013 H   0  0  0  0  0  0  0  0  0  0  0  0
  134.2713  125.4050   68.1039 H   0  0  0  0  0  0  0  0  0  0  0  0
  135.3172  124.4477   67.0010 H   0  0  0  0  0  0  0  0  0  0  0  0
  135.4162  126.2413   67.0010 H   0  0  0  0  0  0  0  0  0  0  0  0
  130.7535  125.1568   62.3711 H   0  0  0  0  0  0  0  0  0  0  0  0
  130.7397  124.4543   59.9854 H   0  0  0  0  0  0  0  0  0  0  0  0
  1  2  1  0
  2  3  1  0
  3  4  1  0
  4  5  2  0
  5  6  1  0
  6  7  2  0
  7  8  1  0
  8  9  2  0
  9 10  1  0
 10 11  1  0
 11 12  1  0
 12 13  1  0
 10 14  2  0
 14 15  1  0
 14 16  1  0
  7 17  1  0
 17 18  2  0
 18  4  1  0
 16  8  1  0
  1 19  1  0
  1 20  1  0
  1 21  1  0
  2 22  1  0
  2 23  1  0
  5 24  1  0
  6 25  1  0
 11 26  1  0
 11 27  1  0
 12 28  1  0
 12 29  1  0
 13 30  1  0
 13 31  1  0
 13 32  1  0
 15 33  1  0
 15 34  1  0
 15 35  1  0
 17 36  1  0
 18 37  1  0
M  CHG  1  12   1
M  END
>  <Binding energies>  (1) 
[-6.3]

>  <Ligand effiencies>  (1) 
[-0.315]

>  <Interactions>  (1) 
["V-B:TYR:539:CE2:9848, V-B:TYR:539:CZ:9849, V-B:GLU:543:CD:9880, V-A:ARG:545:CD:4923, V-A:ARG:545:CZ:4926, V-B:GLU:543:CB:9878, V-A:HIS:456:CE1:4069, V-A:ARG:545:CG:4922, H-A:TYR:484:OH:4347, H-A:GLY:454:N:4049, H-A:GLU:543:OE1:4909, V-B:GLU:543:CG:9879, V-A:GLU:543:CD:4908, V-A:ASP:366:CG:3212, H-A:ARG:545:NH1:4927, V-A:ILE:369:CD1:3238, V-A:ASP:366:C:3207, V-A:ASP:366:CB:3211, V-A:ASP:366:CA:3209, H-A:ARG:545:NH2:4928, V-A:ILE:455:C:4051, H-A:ARG:545:NE:4924, H-B:TYR:539:OH:9850"]

$$$$
RR3_Rahimova_2017
     RDKit          3D

 63 69  0  0  0  0  0  0  0  0999 V2000
  133.7560  122.8930   62.3290 C   0  0  0  0  0  0  0  0  0  0  0  0
  134.1640  124.2020   62.5620 C   0  0  0  0  0  0  0  0  0  0  0  0
  133.4920  124.9770   63.5030 C   0  0  0  0  0  0  0  0  0  0  0  0
  132.4070  124.4550   64.2230 C   0  0  0  0  0  0  0  0  0  0  0  0
  131.6870  125.2900   65.2360 C   0  0  0  0  0  0  0  0  0  0  0  0
  130.2860  125.3170   65.2810 C   0  0  0  0  0  0  0  0  0  0  0  0
  129.6160  126.0960   66.2210 C   0  0  0  0  0  0  0  0  0  0  0  0
  130.3340  126.8730   67.1340 C   0  0  0  0  0  0  0  0  0  0  0  0
  129.6200  127.7170   68.1430 C   0  0  0  0  0  0  0  0  0  0  0  0
  129.8830  127.5710   69.4370 N   0  0  0  0  0  0  0  0  0  0  0  0
  129.1550  128.4580   70.0700 C   0  0  0  0  0  0  0  0  0  0  0  0
  129.1310  128.6500   71.5180 C   0  0  0  0  0  0  0  0  0  0  0  0
  129.6980  127.8040   72.4560 C   0  0  0  0  0  0  0  0  0  0  0  0
  129.4940  128.2950   73.7190 N   0  0  0  0  0  0  0  0  0  0  0  0
  128.7870  129.4750   73.6550 C   0  0  0  0  0  0  0  0  0  0  0  0
  128.3470  130.3320   74.6700 C   0  0  0  0  0  0  0  0  0  0  0  0
  127.6410  131.4680   74.2760 C   0  0  0  0  0  0  0  0  0  0  0  0
  127.3820  131.7440   72.9380 C   0  0  0  0  0  0  0  0  0  0  0  0
  127.8200  130.8910   71.9270 C   0  0  0  0  0  0  0  0  0  0  0  0
  128.5370  129.7300   72.2700 C   0  0  0  0  0  0  0  0  0  0  0  0
  128.4020  129.1890   69.1930 N   0  0  0  0  0  0  0  0  0  0  0  0
  128.6600  128.7210   67.9300 C   0  0  0  0  0  0  0  0  0  0  0  0
  127.9680  129.2450   66.7140 C   0  0  0  0  0  0  0  0  0  0  0  0
  128.0030  130.6090   66.4220 C   0  0  0  0  0  0  0  0  0  0  0  0
  127.3500  131.1020   65.2970 C   0  0  0  0  0  0  0  0  0  0  0  0
  126.6500  130.2440   64.4360 C   0  0  0  0  0  0  0  0  0  0  0  0
  125.9320  130.7810   63.2380 C   0  0  0  0  0  0  0  0  0  0  0  0
  124.6580  130.3060   62.8900 C   0  0  0  0  0  0  0  0  0  0  0  0
  123.9870  130.8090   61.7780 C   0  0  0  0  0  0  0  0  0  0  0  0
  124.5860  131.7960   61.0000 C   0  0  0  0  0  0  0  0  0  0  0  0
  125.8470  132.2820   61.3270 C   0  0  0  0  0  0  0  0  0  0  0  0
  126.5150  131.7760   62.4390 C   0  0  0  0  0  0  0  0  0  0  0  0
  126.6370  128.8740   64.7310 C   0  0  0  0  0  0  0  0  0  0  0  0
  127.2900  128.3770   65.8560 C   0  0  0  0  0  0  0  0  0  0  0  0
  131.7300  126.8430   67.1050 C   0  0  0  0  0  0  0  0  0  0  0  0
  132.3970  126.0630   66.1640 C   0  0  0  0  0  0  0  0  0  0  0  0
  132.0130  123.1330   63.9710 C   0  0  0  0  0  0  0  0  0  0  0  0
  132.6820  122.3550   63.0310 C   0  0  0  0  0  0  0  0  0  0  0  0
  134.2856  122.2794   61.5853 H   0  0  0  0  0  0  0  0  0  0  0  0
  135.0140  124.6231   62.0051 H   0  0  0  0  0  0  0  0  0  0  0  0
  133.8160  126.0124   63.6845 H   0  0  0  0  0  0  0  0  0  0  0  0
  129.7083  124.7149   64.5643 H   0  0  0  0  0  0  0  0  0  0  0  0
  128.5163  126.0997   66.2449 H   0  0  0  0  0  0  0  0  0  0  0  0
  130.2344  126.8728   72.2214 H   0  0  0  0  0  0  0  0  0  0  0  0
  129.8330  127.8240   74.5450 H   0  0  0  0  0  0  0  0  0  0  0  0
  128.5489  130.1192   75.7302 H   0  0  0  0  0  0  0  0  0  0  0  0
  127.2787  132.1656   75.0454 H   0  0  0  0  0  0  0  0  0  0  0  0
  126.8211  132.6523   72.6728 H   0  0  0  0  0  0  0  0  0  0  0  0
  127.6077  131.1226   70.8728 H   0  0  0  0  0  0  0  0  0  0  0  0
  127.7510  129.9230   69.4340 H   0  0  0  0  0  0  0  0  0  0  0  0
  128.5491  131.2971   67.0840 H   0  0  0  0  0  0  0  0  0  0  0  0
  127.3831  132.1798   65.0796 H   0  0  0  0  0  0  0  0  0  0  0  0
  124.1832  129.5262   63.5036 H   0  0  0  0  0  0  0  0  0  0  0  0
  122.9888  130.4284   61.5158 H   0  0  0  0  0  0  0  0  0  0  0  0
  124.0582  132.1940   60.1208 H   0  0  0  0  0  0  0  0  0  0  0  0
  126.3150  133.0630   60.7098 H   0  0  0  0  0  0  0  0  0  0  0  0
  127.5131  132.1615   62.6944 H   0  0  0  0  0  0  0  0  0  0  0  0
  126.1031  128.1811   64.0640 H   0  0  0  0  0  0  0  0  0  0  0  0
  127.2716  127.2980   66.0692 H   0  0  0  0  0  0  0  0  0  0  0  0
  132.3054  127.4385   67.8291 H   0  0  0  0  0  0  0  0  0  0  0  0
  133.4969  126.0536   66.1490 H   0  0  0  0  0  0  0  0  0  0  0  0
  131.1637  122.7052   64.5238 H   0  0  0  0  0  0  0  0  0  0  0  0
  132.3630  121.3190   62.8438 H   0  0  0  0  0  0  0  0  0  0  0  0
  1  2  2  0
  2  3  1  0
  3  4  2  0
  4  5  1  0
  5  6  2  0
  6  7  1  0
  7  8  2  0
  8  9  1  0
  9 10  1  0
 10 11  2  0
 11 12  1  0
 12 13  2  0
 13 14  1  0
 14 15  1  0
 15 16  2  0
 16 17  1  0
 17 18  2  0
 18 19  1  0
 19 20  2  0
 11 21  1  0
 21 22  1  0
 22 23  1  0
 23 24  2  0
 24 25  1  0
 25 26  2  0
 26 27  1  0
 27 28  2  0
 28 29  1  0
 29 30  2  0
 30 31  1  0
 31 32  2  0
 26 33  1  0
 33 34  2  0
  8 35  1  0
 35 36  2  0
  4 37  1  0
 37 38  2  0
 38  1  1  0
 36  5  1  0
 22  9  2  0
 34 23  1  0
 20 12  1  0
 32 27  1  0
 20 15  1  0
  1 39  1  0
  2 40  1  0
  3 41  1  0
  6 42  1  0
  7 43  1  0
 13 44  1  0
 14 45  1  0
 16 46  1  0
 17 47  1  0
 18 48  1  0
 19 49  1  0
 21 50  1  0
 24 51  1  0
 25 52  1  0
 28 53  1  0
 29 54  1  0
 30 55  1  0
 31 56  1  0
 32 57  1  0
 33 58  1  0
 34 59  1  0
 35 60  1  0
 36 61  1  0
 37 62  1  0
 38 63  1  0
M  END
>  <Binding energies>  (1) 
[-9.67]

>  <Ligand effiencies>  (1) 
[-0.24175]

>  <Interactions>  (1) 
["V-A:LEU:475:CD1:4257, V-A:ARG:545:CZ:4926, V-A:GLY:453:CA:4043, V-A:GLY:453:C:4041, V-A:GLU:543:CB:4906, H-B:TYR:484:OH:9319, V-A:HIS:456:CE1:4069, V-A:ARG:545:CG:4922, V-B:HIS:456:CE1:9041, V-A:GLY:454:CA:4048, V-B:TYR:484:CZ:9318, V-A:GLU:543:C:4902, V-B:TYR:484:CE2:9317, V-B:GLU:543:CG:9879, V-A:GLU:543:CD:4908, V-A:GLU:543:CG:4907, V-B:HIS:456:CD2:9039, V-B:TYR:484:CB:9312, V-B:TYR:484:CD2:9315, V-B:TYR:484:CG:9313, V-B:HIS:456:CG:9037, V-B:ASP:366:CG:8184, V-B:ILE:369:CG2:8208, H-A:GLU:543:O:4903, V-B:ILE:369:CD1:8210, H-B:HIS:456:NE2:9042, V-B:HIS:456:CB:9036, V-B:TYR:484:CD1:9314"]

$$$$
RR4_Rahimova_2017
     RDKit          3D

 66 70  0  0  0  0  0  0  0  0999 V2000
  128.2110  126.9180   75.1560 C   0  0  0  0  0  0  0  0  0  0  0  0
  129.3890  127.1900   74.4050 O   0  0  0  0  0  0  0  0  0  0  0  0
  129.3110  127.2460   73.0260 C   0  0  0  0  0  0  0  0  0  0  0  0
  128.8180  126.1140   72.3810 C   0  0  0  0  0  0  0  0  0  0  0  0
  128.7030  126.0800   70.9950 C   0  0  0  0  0  0  0  0  0  0  0  0
  129.0810  127.1790   70.2100 C   0  0  0  0  0  0  0  0  0  0  0  0
  128.9570  127.1390   68.7140 C   0  0  0  0  0  0  0  0  0  0  0  0
  128.1370  128.0170   67.9980 C   0  0  0  0  0  0  0  0  0  0  0  0
  128.0590  127.9420   66.6010 C   0  0  0  0  0  0  0  0  0  0  0  0
  127.1840  128.9310   65.9020 C   0  0  0  0  0  0  0  0  0  0  0  0
  125.8350  128.6410   65.6790 C   0  0  0  0  0  0  0  0  0  0  0  0
  125.0100  129.5630   65.0390 C   0  0  0  0  0  0  0  0  0  0  0  0
  125.5150  130.7920   64.6160 C   0  0  0  0  0  0  0  0  0  0  0  0
  124.6230  131.6420   63.9910 O   0  0  0  0  0  0  0  0  0  0  0  0
  124.2140  131.3610   62.6570 C   0  0  0  0  0  0  0  0  0  0  0  0
  126.8670  131.0900   64.8430 C   0  0  0  0  0  0  0  0  0  0  0  0
  127.6900  130.1670   65.4840 C   0  0  0  0  0  0  0  0  0  0  0  0
  128.8050  126.9380   65.9360 C   0  0  0  0  0  0  0  0  0  0  0  0
  128.7590  126.8160   64.4760 C   0  0  0  0  0  0  0  0  0  0  0  0
  128.7240  126.7190   63.3240 N   0  0  0  0  0  0  0  0  0  0  0  0
  129.5890  126.0650   66.7240 C   0  0  0  0  0  0  0  0  0  0  0  0
  130.5790  124.7420   66.0620 S   0  0  0  0  0  0  0  0  0  0  0  0
  131.7550  125.4690   64.8720 C   0  0  0  0  0  0  0  0  0  0  0  0
  132.0410  124.5950   63.6430 C   0  0  0  0  0  0  0  0  0  0  0  0
  132.2210  125.1100   62.5370 O   0  0  0  0  0  0  0  0  0  0  0  0
  132.0590  123.2640   63.8870 N   0  0  0  0  0  0  0  0  0  0  0  0
  132.2910  122.2200   62.9890 C   0  0  0  0  0  0  0  0  0  0  0  0
  133.8840  121.5980   62.6480 S   0  0  0  0  0  0  0  0  0  0  0  0
  133.2510  120.4380   61.5210 C   0  0  0  0  0  0  0  0  0  0  0  0
  131.8550  120.5330   61.4110 C   0  0  0  0  0  0  0  0  0  0  0  0
  131.3120  121.5330   62.2550 C   0  0  0  0  0  0  0  0  0  0  0  0
  129.8830  121.8210   62.3440 C   0  0  0  0  0  0  0  0  0  0  0  0
  128.7510  122.0500   62.4130 N   0  0  0  0  0  0  0  0  0  0  0  0
  131.0540  119.5900   60.5060 C   0  0  0  0  0  0  0  0  0  0  0  0
  131.9050  118.3610   60.1110 C   0  0  0  0  0  0  0  0  0  0  0  0
  133.3250  118.7570   59.6690 C   0  0  0  0  0  0  0  0  0  0  0  0
  134.1270  119.4120   60.8140 C   0  0  0  0  0  0  0  0  0  0  0  0
  129.6720  126.1810   68.0710 N   0  0  0  0  0  0  0  0  0  0  0  0
  129.5730  128.3170   70.8690 C   0  0  0  0  0  0  0  0  0  0  0  0
  129.6900  128.3540   72.2560 C   0  0  0  0  0  0  0  0  0  0  0  0
  128.4407  126.9710   76.2304 H   0  0  0  0  0  0  0  0  0  0  0  0
  127.4388  127.6615   74.9090 H   0  0  0  0  0  0  0  0  0  0  0  0
  127.8430  125.9112   74.9090 H   0  0  0  0  0  0  0  0  0  0  0  0
  128.5165  125.2378   72.9738 H   0  0  0  0  0  0  0  0  0  0  0  0
  128.3092  125.1764   70.5068 H   0  0  0  0  0  0  0  0  0  0  0  0
  127.5477  128.7736   68.5367 H   0  0  0  0  0  0  0  0  0  0  0  0
  125.4217  127.6773   66.0114 H   0  0  0  0  0  0  0  0  0  0  0  0
  123.9513  129.3196   64.8658 H   0  0  0  0  0  0  0  0  0  0  0  0
  123.3075  130.7382   62.6749 H   0  0  0  0  0  0  0  0  0  0  0  0
  124.0006  132.3041   62.1325 H   0  0  0  0  0  0  0  0  0  0  0  0
  125.0178  130.8236   62.1325 H   0  0  0  0  0  0  0  0  0  0  0  0
  127.2784  132.0556   64.5137 H   0  0  0  0  0  0  0  0  0  0  0  0
  128.7473  130.4118   65.6633 H   0  0  0  0  0  0  0  0  0  0  0  0
  131.3424  126.4272   64.5233 H   0  0  0  0  0  0  0  0  0  0  0  0
  132.7106  125.5800   65.4054 H   0  0  0  0  0  0  0  0  0  0  0  0
  131.8960  122.9770   64.8410 H   0  0  0  0  0  0  0  0  0  0  0  0
  130.1559  119.2503   61.0426 H   0  0  0  0  0  0  0  0  0  0  0  0
  130.7693  120.1324   59.5924 H   0  0  0  0  0  0  0  0  0  0  0  0
  131.9783  117.6872   60.9774 H   0  0  0  0  0  0  0  0  0  0  0  0
  131.4116  117.8667   59.2612 H   0  0  0  0  0  0  0  0  0  0  0  0
  133.8571  117.8544   59.3341 H   0  0  0  0  0  0  0  0  0  0  0  0
  133.2345  119.4913   58.8550 H   0  0  0  0  0  0  0  0  0  0  0  0
  134.4400  118.6395   61.5318 H   0  0  0  0  0  0  0  0  0  0  0  0
  135.0172  119.9097   60.4019 H   0  0  0  0  0  0  0  0  0  0  0  0
  129.8716  129.1957   70.2785 H   0  0  0  0  0  0  0  0  0  0  0  0
  130.0813  129.2561   72.7491 H   0  0  0  0  0  0  0  0  0  0  0  0
  1  2  1  0
  2  3  1  0
  3  4  2  0
  4  5  1  0
  5  6  2  0
  6  7  1  0
  7  8  2  0
  8  9  1  0
  9 10  1  0
 10 11  2  0
 11 12  1  0
 12 13  2  0
 13 14  1  0
 14 15  1  0
 13 16  1  0
 16 17  2  0
  9 18  2  0
 18 19  1  0
 19 20  3  0
 18 21  1  0
 21 22  1  0
 22 23  1  0
 23 24  1  0
 24 25  2  0
 24 26  1  0
 26 27  1  0
 27 28  1  0
 28 29  1  0
 29 30  2  0
 30 31  1  0
 31 32  1  0
 32 33  3  0
 30 34  1  0
 34 35  1  0
 35 36  1  0
 36 37  1  0
 21 38  2  0
  6 39  1  0
 39 40  2  0
 40  3  1  0
 38  7  1  0
 17 10  1  0
 31 27  2  0
 37 29  1  0
  1 41  1  0
  1 42  1  0
  1 43  1  0
  4 44  1  0
  5 45  1  0
  8 46  1  0
 11 47  1  0
 12 48  1  0
 15 49  1  0
 15 50  1  0
 15 51  1  0
 16 52  1  0
 17 53  1  0
 23 54  1  0
 23 55  1  0
 26 56  1  0
 34 57  1  0
 34 58  1  0
 35 59  1  0
 35 60  1  0
 36 61  1  0
 36 62  1  0
 37 63  1  0
 37 64  1  0
 39 65  1  0
 40 66  1  0
M  END
>  <Binding energies>  (1) 
[-9.87]

>  <Ligand effiencies>  (1) 
[-0.24073170731707316]

>  <Interactions>  (1) 
["V-A:ILE:369:CG2:3236, V-B:TYR:539:CD2:9846, V-A:LEU:475:CD1:4257, H-B:ALA:541:N:9863, V-A:SER:385:CA:3406, V-A:SER:385:C:3404, V-B:ALA:541:CB:9864, V-B:GLU:543:CD:9880, V-B:GLU:543:CB:9878, H-B:TYR:484:OH:9319, V-A:HIS:456:CE1:4069, V-B:HIS:456:CE1:9041, V-B:ARG:545:CZ:9898, V-A:GLY:454:CA:4048, H-B:GLY:454:N:9021, H-A:TYR:484:OH:4347, V-A:GLU:543:C:4902, V-B:TYR:484:CE2:9317, V-A:GLU:543:CD:4908, V-A:GLU:543:CG:4907, V-B:GLU:543:C:9874, V-B:HIS:456:CD2:9039, H-A:ARG:545:NH2:4928, V-A:HIS:383:CD2:3391, V-B:GLY:454:CA:9020, V-B:ILE:369:CD1:8210"]

$$$$
RR5_Rahimova_2017
     RDKit          3D

 77 82  0  0  0  0  0  0  0  0999 V2000
  127.7030  122.7200   61.9710 O   0  0  0  0  0  0  0  0  0  0  0  0
  128.0120  122.6590   60.7820 C   0  0  0  0  0  0  0  0  0  0  0  0
  126.9240  122.8030   59.7010 C   0  0  0  0  0  0  0  0  0  0  0  0
  126.5900  124.2910   59.3250 C   0  0  2  0  0  0  0  0  0  0  0  0
  126.2610  125.1640   60.4700 N   0  0  0  0  0  0  0  0  0  0  0  0
  127.2400  125.8880   61.1370 C   0  0  0  0  0  0  0  0  0  0  0  0
  128.4400  125.9390   60.8540 O   0  0  0  0  0  0  0  0  0  0  0  0
  126.6640  126.5280   62.1690 O   0  0  0  0  0  0  0  0  0  0  0  0
  127.4280  127.3270   63.0680 C   0  0  0  0  0  0  0  0  0  0  0  0
  126.5140  128.0010   64.1160 C   0  0  0  0  0  0  0  0  0  0  0  0
  127.2400  128.4020   65.3880 C   0  0  0  0  0  0  0  0  0  0  0  0
  127.9680  127.6130   66.2830 C   0  0  0  0  0  0  0  0  0  0  0  0
  128.5790  128.2020   67.3910 C   0  0  0  0  0  0  0  0  0  0  0  0
  128.4640  129.5770   67.6070 C   0  0  0  0  0  0  0  0  0  0  0  0
  127.7350  130.3660   66.7150 C   0  0  0  0  0  0  0  0  0  0  0  0
  127.1240  129.7740   65.6080 C   0  0  0  0  0  0  0  0  0  0  0  0
  126.3040  130.3520   64.5310 C   0  0  0  0  0  0  0  0  0  0  0  0
  125.8840  131.6630   64.2980 C   0  0  0  0  0  0  0  0  0  0  0  0
  125.0790  131.9440   63.1940 C   0  0  0  0  0  0  0  0  0  0  0  0
  124.6970  130.9180   62.3260 C   0  0  0  0  0  0  0  0  0  0  0  0
  125.1220  129.6100   62.5610 C   0  0  0  0  0  0  0  0  0  0  0  0
  125.9310  129.3250   63.6630 C   0  0  0  0  0  0  0  0  0  0  0  0
  125.4500  124.3510   58.2790 C   0  0  0  0  0  0  0  0  0  0  0  0
  125.6030  124.2260   57.0800 O   0  0  0  0  0  0  0  0  0  0  0  0
  124.2560  124.5440   58.9120 O   0  0  0  0  0  0  0  0  0  0  0  0
  129.2730  122.5000   60.3200 N   0  0  0  0  0  0  0  0  0  0  0  0
  130.5980  122.3300   60.9890 C   0  0  0  0  0  0  0  0  0  0  0  0
  130.7580  120.7720   61.0050 C   0  0  0  0  0  0  0  0  0  0  0  0
  129.7440  119.9360   61.5010 C   0  0  0  0  0  0  0  0  0  0  0  0
  129.8970  118.5520   61.5090 C   0  0  0  0  0  0  0  0  0  0  0  0
  131.0710  117.9810   61.0300 C   0  0  0  0  0  0  0  0  0  0  0  0
  132.0900  118.7840   60.5320 C   0  0  0  0  0  0  0  0  0  0  0  0
  131.9320  120.1670   60.5150 C   0  0  0  0  0  0  0  0  0  0  0  0
  131.6680  123.0360   60.0910 C   0  0  0  0  0  0  0  0  0  0  0  0
  131.3260  123.6370   58.8690 C   0  0  0  0  0  0  0  0  0  0  0  0
  132.2990  124.2420   58.0770 C   0  0  0  0  0  0  0  0  0  0  0  0
  133.6260  124.2520   58.4950 C   0  0  0  0  0  0  0  0  0  0  0  0
  133.9880  123.6660   59.7030 C   0  0  0  0  0  0  0  0  0  0  0  0
  133.0140  123.0700   60.4970 C   0  0  0  0  0  0  0  0  0  0  0  0
  130.4430  122.9400   62.4230 C   0  0  0  0  0  0  0  0  0  0  0  0
  130.3840  124.3330   62.6140 C   0  0  0  0  0  0  0  0  0  0  0  0
  130.2550  124.8810   63.8870 C   0  0  0  0  0  0  0  0  0  0  0  0
  130.1760  124.0450   64.9940 C   0  0  0  0  0  0  0  0  0  0  0  0
  130.2170  122.6650   64.8360 C   0  0  0  0  0  0  0  0  0  0  0  0
  130.3470  122.1200   63.5610 C   0  0  0  0  0  0  0  0  0  0  0  0
  127.2678  122.2856   58.7932 H   0  0  0  0  0  0  0  0  0  0  0  0
  126.0038  122.3652   60.1153 H   0  0  0  0  0  0  0  0  0  0  0  0
  127.5239  124.6883   58.9008 H   0  0  0  0  0  0  0  0  0  0  0  0
  125.3390  125.0950   60.8740 H   0  0  0  0  0  0  0  0  0  0  0  0
  128.1597  126.6887   63.5850 H   0  0  0  0  0  0  0  0  0  0  0  0
  127.9424  128.1109   62.4928 H   0  0  0  0  0  0  0  0  0  0  0  0
  125.7530  127.2219   64.2708 H   0  0  0  0  0  0  0  0  0  0  0  0
  128.0592  126.5298   66.1144 H   0  0  0  0  0  0  0  0  0  0  0  0
  129.1524  127.5819   68.0957 H   0  0  0  0  0  0  0  0  0  0  0  0
  128.9480  130.0386   68.4803 H   0  0  0  0  0  0  0  0  0  0  0  0
  127.6425  131.4490   66.8837 H   0  0  0  0  0  0  0  0  0  0  0  0
  126.1863  132.4701   64.9815 H   0  0  0  0  0  0  0  0  0  0  0  0
  124.7444  132.9750   63.0065 H   0  0  0  0  0  0  0  0  0  0  0  0
  124.0609  131.1415   61.4569 H   0  0  0  0  0  0  0  0  0  0  0  0
  124.8196  128.8027   61.8777 H   0  0  0  0  0  0  0  0  0  0  0  0
  124.2910  125.2680   59.5410 H   0  0  0  0  0  0  0  0  0  0  0  0
  129.3320  122.3720   59.3210 H   0  0  0  0  0  0  0  0  0  0  0  0
  128.8157  120.3810   61.8887 H   0  0  0  0  0  0  0  0  0  0  0  0
  129.0901  117.9111   61.8938 H   0  0  0  0  0  0  0  0  0  0  0  0
  131.1937  116.8880   61.0454 H   0  0  0  0  0  0  0  0  0  0  0  0
  133.0170  118.3290   60.1530 H   0  0  0  0  0  0  0  0  0  0  0  0
  132.7377  120.7982   60.1120 H   0  0  0  0  0  0  0  0  0  0  0  0
  130.2784  123.6300   58.5335 H   0  0  0  0  0  0  0  0  0  0  0  0
  132.0187  124.7112   57.1224 H   0  0  0  0  0  0  0  0  0  0  0  0
  134.3936  124.7264   57.8660 H   0  0  0  0  0  0  0  0  0  0  0  0
  135.0386  123.6738   60.0287 H   0  0  0  0  0  0  0  0  0  0  0  0
  133.3011  122.6180   61.4579 H   0  0  0  0  0  0  0  0  0  0  0  0
  130.4408  125.0007   61.7417 H   0  0  0  0  0  0  0  0  0  0  0  0
  130.2157  125.9727   64.0162 H   0  0  0  0  0  0  0  0  0  0  0  0
  130.0805  124.4778   66.0008 H   0  0  0  0  0  0  0  0  0  0  0  0
  130.1471  122.0061   65.7140 H   0  0  0  0  0  0  0  0  0  0  0  0
  130.3751  121.0268   63.4420 H   0  0  0  0  0  0  0  0  0  0  0  0
  1  2  2  0
  2  3  1  0
  3  4  1  0
  4  5  1  0
  5  6  1  0
  6  7  2  0
  6  8  1  0
  8  9  1  0
  9 10  1  0
 10 11  1  0
 11 12  2  0
 12 13  1  0
 13 14  2  0
 14 15  1  0
 15 16  2  0
 16 17  1  0
 17 18  2  0
 18 19  1  0
 19 20  2  0
 20 21  1  0
 21 22  2  0
  4 23  1  0
 23 24  2  0
 23 25  1  0
  2 26  1  0
 26 27  1  0
 27 28  1  0
 28 29  2  0
 29 30  1  0
 30 31  2  0
 31 32  1  0
 32 33  2  0
 27 34  1  0
 34 35  2  0
 35 36  1  0
 36 37  2  0
 37 38  1  0
 38 39  2  0
 27 40  1  0
 40 41  2  0
 41 42  1  0
 42 43  2  0
 43 44  1  0
 44 45  2  0
 22 10  1  0
 33 28  1  0
 39 34  1  0
 45 40  1  0
 16 11  1  0
 22 17  1  0
  3 46  1  0
  3 47  1  0
  4 48  1  6
  5 49  1  0
  9 50  1  0
  9 51  1  0
 10 52  1  0
 12 53  1  0
 13 54  1  0
 14 55  1  0
 15 56  1  0
 18 57  1  0
 19 58  1  0
 20 59  1  0
 21 60  1  0
 25 61  1  0
 26 62  1  0
 29 63  1  0
 30 64  1  0
 31 65  1  0
 32 66  1  0
 33 67  1  0
 35 68  1  0
 36 69  1  0
 37 70  1  0
 38 71  1  0
 39 72  1  0
 41 73  1  0
 42 74  1  0
 43 75  1  0
 44 76  1  0
 45 77  1  0
M  END
>  <Binding energies>  (1) 
[-11.1]

>  <Ligand effiencies>  (1) 
[-0.23124999999999998]

>  <Interactions>  (1) 
["V-B:PRO:540:CB:9857, V-A:ILE:369:CG2:3236, V-B:TYR:539:CE2:9848, V-B:PRO:540:N:9856, V-B:TYR:539:CZ:9849, V-B:TYR:539:CD2:9846, V-B:PRO:540:CA:9855, V-A:PRO:482:CG:4326, V-B:PRO:540:C:9853, V-A:PRO:482:CB:4325, V-A:LEU:475:CD1:4257, H-B:ALA:541:N:9863, H-B:TYR:531:OH:9767, V-B:ALA:541:CA:9862, V-B:ALA:541:CB:9864, V-B:GLU:543:CD:9880, V-A:GLU:543:CB:4906, V-B:HIS:456:CE1:9041, H-B:ARG:545:NH2:9900, V-B:ARG:545:CZ:9898, V-B:TYR:484:CZ:9318, V-B:TYR:484:CE2:9317, V-B:GLU:543:CG:9879, V-A:GLU:543:CD:4908, V-A:GLU:543:CG:4907, V-A:ASP:366:CG:3212, V-A:ILE:369:CD1:3238, V-A:ASP:366:C:3207, V-A:TYR:484:CE2:4345, V-A:ASP:366:CB:3211, V-A:ASP:366:CA:3209, V-A:TYR:484:CZ:4346, V-A:ILE:369:CB:3235, V-B:ASP:366:CG:8184, H-B:TYR:539:O:9840, V-B:LEU:475:CD1:9229, H-B:GLU:543:OE1:9881, H-B:ASP:366:OD1:8185, V-B:GLY:454:CA:9020, V-A:GLU:543:CA:4904"]

$$$$
RR5_Rahimova_2017-again1
     RDKit          3D

 76 81  0  0  0  0  0  0  0  0999 V2000
  127.8820  122.3780   61.8360 O   0  0  0  0  0  0  0  0  0  0  0  0
  128.2400  122.5710   60.6740 C   0  0  0  0  0  0  0  0  0  0  0  0
  127.1750  122.9300   59.6180 C   0  0  0  0  0  0  0  0  0  0  0  0
  127.7000  123.4500   58.2400 C   0  0  2  0  0  0  0  0  0  0  0  0
  127.8680  124.9170   58.3080 N   0  0  0  0  0  0  0  0  0  0  0  0
  129.0340  125.4970   58.7960 C   0  0  0  0  0  0  0  0  0  0  0  0
  130.0220  124.9010   59.2350 O   0  0  0  0  0  0  0  0  0  0  0  0
  128.9170  126.8360   58.7140 O   0  0  0  0  0  0  0  0  0  0  0  0
  127.8480  127.4340   57.9900 C   0  0  0  0  0  0  0  0  0  0  0  0
  126.5590  127.4150   58.8340 C   0  0  0  0  0  0  0  0  0  0  0  0
  126.8130  127.5050   60.3290 C   0  0  0  0  0  0  0  0  0  0  0  0
  127.5420  126.6530   61.1620 C   0  0  0  0  0  0  0  0  0  0  0  0
  127.6580  126.9410   62.5240 C   0  0  0  0  0  0  0  0  0  0  0  0
  127.0420  128.0760   63.0550 C   0  0  0  0  0  0  0  0  0  0  0  0
  126.3090  128.9270   62.2260 C   0  0  0  0  0  0  0  0  0  0  0  0
  126.1950  128.6370   60.8640 C   0  0  0  0  0  0  0  0  0  0  0  0
  125.4880  129.3380   59.7820 C   0  0  0  0  0  0  0  0  0  0  0  0
  124.7170  130.5020   59.7910 C   0  0  0  0  0  0  0  0  0  0  0  0
  124.1340  130.9540   58.6060 C   0  0  0  0  0  0  0  0  0  0  0  0
  124.3230  130.2450   57.4180 C   0  0  0  0  0  0  0  0  0  0  0  0
  125.0970  129.0830   57.4110 C   0  0  0  0  0  0  0  0  0  0  0  0
  125.6840  128.6290   58.5960 C   0  0  0  0  0  0  0  0  0  0  0  0
  126.7570  123.0200   57.0450 C   0  0  0  0  0  0  0  0  0  0  0  0
  126.0310  123.9420   56.6030 O   0  0  0  0  0  0  0  0  0  0  0  0
  126.8560  121.8360   56.6420 O   0  0  0  0  0  0  0  0  0  0  0  0
  129.5380  122.6060   60.3030 N   0  0  0  0  0  0  0  0  0  0  0  0
  130.7580  122.3270   61.1030 C   0  0  0  0  0  0  0  0  0  0  0  0
  131.0050  120.7870   61.1850 C   0  0  0  0  0  0  0  0  0  0  0  0
  132.2990  120.2540   61.0450 C   0  0  0  0  0  0  0  0  0  0  0  0
  132.5240  118.8830   61.1310 C   0  0  0  0  0  0  0  0  0  0  0  0
  131.4550  118.0230   61.3630 C   0  0  0  0  0  0  0  0  0  0  0  0
  130.1660  118.5240   61.5090 C   0  0  0  0  0  0  0  0  0  0  0  0
  129.9430  119.8960   61.4220 C   0  0  0  0  0  0  0  0  0  0  0  0
  132.0900  122.8810   60.5020 C   0  0  0  0  0  0  0  0  0  0  0  0
  133.1600  123.2490   61.3360 C   0  0  0  0  0  0  0  0  0  0  0  0
  134.3470  123.7440   60.8040 C   0  0  0  0  0  0  0  0  0  0  0  0
  134.4840  123.8720   59.4250 C   0  0  0  0  0  0  0  0  0  0  0  0
  133.4440  123.5040   58.5770 C   0  0  0  0  0  0  0  0  0  0  0  0
  132.2580  123.0100   59.1130 C   0  0  0  0  0  0  0  0  0  0  0  0
  130.4300  122.9100   62.5210 C   0  0  0  0  0  0  0  0  0  0  0  0
  130.3540  122.0880   63.6590 C   0  0  0  0  0  0  0  0  0  0  0  0
  130.0790  122.6230   64.9130 C   0  0  0  0  0  0  0  0  0  0  0  0
  129.8900  123.9930   65.0530 C   0  0  0  0  0  0  0  0  0  0  0  0
  129.9830  124.8330   63.9480 C   0  0  0  0  0  0  0  0  0  0  0  0
  130.2560  124.2940   62.6940 C   0  0  0  0  0  0  0  0  0  0  0  0
  126.5768  122.0268   59.4275 H   0  0  0  0  0  0  0  0  0  0  0  0
  126.6124  123.7712   60.0491 H   0  0  0  0  0  0  0  0  0  0  0  0
  128.6765  122.9869   58.0349 H   0  0  0  0  0  0  0  0  0  0  0  0
  127.1400  125.5060   57.9290 H   0  0  0  0  0  0  0  0  0  0  0  0
  128.1095  128.4750   57.7491 H   0  0  0  0  0  0  0  0  0  0  0  0
  127.6793  126.8657   57.0634 H   0  0  0  0  0  0  0  0  0  0  0  0
  126.0950  126.4651   58.5300 H   0  0  0  0  0  0  0  0  0  0  0  0
  128.0243  125.7562   60.7459 H   0  0  0  0  0  0  0  0  0  0  0  0
  128.2356  126.2725   63.1793 H   0  0  0  0  0  0  0  0  0  0  0  0
  127.1344  128.2999   64.1280 H   0  0  0  0  0  0  0  0  0  0  0  0
  125.8235  129.8216   62.6431 H   0  0  0  0  0  0  0  0  0  0  0  0
  124.5697  131.0601   60.7274 H   0  0  0  0  0  0  0  0  0  0  0  0
  123.5249  131.8699   58.6080 H   0  0  0  0  0  0  0  0  0  0  0  0
  123.8612  130.6026   56.4859 H   0  0  0  0  0  0  0  0  0  0  0  0
  125.2448  128.5254   56.4744 H   0  0  0  0  0  0  0  0  0  0  0  0
  129.7120  122.7090   59.3140 H   0  0  0  0  0  0  0  0  0  0  0  0
  133.1468  120.9313   60.8647 H   0  0  0  0  0  0  0  0  0  0  0  0
  133.5417  118.4815   61.0161 H   0  0  0  0  0  0  0  0  0  0  0  0
  131.6308  116.9393   61.4314 H   0  0  0  0  0  0  0  0  0  0  0  0
  129.3252  117.8389   61.6926 H   0  0  0  0  0  0  0  0  0  0  0  0
  128.9221  120.2882   61.5403 H   0  0  0  0  0  0  0  0  0  0  0  0
  133.0576  123.1441   62.4262 H   0  0  0  0  0  0  0  0  0  0  0  0
  135.1731  124.0327   61.4705 H   0  0  0  0  0  0  0  0  0  0  0  0
  135.4201  124.2665   59.0029 H   0  0  0  0  0  0  0  0  0  0  0  0
  133.5585  123.6030   57.4875 H   0  0  0  0  0  0  0  0  0  0  0  0
  131.4399  122.7162   58.4389 H   0  0  0  0  0  0  0  0  0  0  0  0
  130.5146  121.0047   63.5560 H   0  0  0  0  0  0  0  0  0  0  0  0
  130.0113  121.9641   65.7912 H   0  0  0  0  0  0  0  0  0  0  0  0
  129.6655  124.4155   66.0435 H   0  0  0  0  0  0  0  0  0  0  0  0
  129.8415  125.9176   64.0646 H   0  0  0  0  0  0  0  0  0  0  0  0
  130.3369  124.9622   61.8240 H   0  0  0  0  0  0  0  0  0  0  0  0
  1  2  2  0
  2  3  1  0
  3  4  1  0
  4  5  1  0
  5  6  1  0
  6  7  2  0
  6  8  1  0
  8  9  1  0
  9 10  1  0
 10 11  1  0
 11 12  2  0
 12 13  1  0
 13 14  2  0
 14 15  1  0
 15 16  2  0
 16 17  1  0
 17 18  2  0
 18 19  1  0
 19 20  2  0
 20 21  1  0
 21 22  2  0
  4 23  1  0
 23 24  2  0
 23 25  1  0
  2 26  1  0
 26 27  1  0
 27 28  1  0
 28 29  2  0
 29 30  1  0
 30 31  2  0
 31 32  1  0
 32 33  2  0
 27 34  1  0
 34 35  2  0
 35 36  1  0
 36 37  2  0
 37 38  1  0
 38 39  2  0
 27 40  1  0
 40 41  2  0
 41 42  1  0
 42 43  2  0
 43 44  1  0
 44 45  2  0
 22 10  1  0
 33 28  1  0
 39 34  1  0
 45 40  1  0
 16 11  1  0
 22 17  1  0
  3 46  1  0
  3 47  1  0
  4 48  1  6
  5 49  1  0
  9 50  1  0
  9 51  1  0
 10 52  1  0
 12 53  1  0
 13 54  1  0
 14 55  1  0
 15 56  1  0
 18 57  1  0
 19 58  1  0
 20 59  1  0
 21 60  1  0
 26 61  1  0
 29 62  1  0
 30 63  1  0
 31 64  1  0
 32 65  1  0
 33 66  1  0
 35 67  1  0
 36 68  1  0
 37 69  1  0
 38 70  1  0
 39 71  1  0
 41 72  1  0
 42 73  1  0
 43 74  1  0
 44 75  1  0
 45 76  1  0
M  CHG  1  25  -1
M  END
>  <Binding energies>  (1) 
[-10.34]

>  <Ligand effiencies>  (1) 
[-0.22]

>  <Interactions>  (1) 
["V-B:PRO:540:CB:9857, V-A:ILE:369:CG2:3236, V-B:TYR:539:CE2:9848, V-B:PRO:540:N:9856, V-B:TYR:539:CZ:9849, V-B:TYR:539:CD2:9846, V-B:PRO:540:CA:9855, V-A:PRO:482:CG:4326, V-B:PRO:540:C:9853, V-A:PRO:482:CB:4325, V-B:MET:535:CE:9807, H-B:TYR:539:N:9842, V-A:LEU:475:CD1:4257, H-B:ALA:541:N:9863, H-B:TYR:531:OH:9767, V-B:ALA:541:CA:9862, V-B:ALA:541:CB:9864, V-B:GLU:543:CD:9880, V-B:GLU:543:CG:9879, V-A:ASP:366:CG:3212, V-A:ILE:369:CD1:3238, V-A:ASP:366:C:3207, V-A:TYR:484:CE2:4345, V-A:ASP:366:CB:3211, V-A:ASP:366:CA:3209, V-A:TYR:484:CZ:4346, V-A:ILE:369:CB:3235, V-B:ASP:366:CB:8183, V-B:ASP:366:CA:8181, V-A:TYR:539:CE1:4875, V-B:ASP:366:CG:8184, V-B:ILE:369:CG2:8208, V-B:TYR:531:CZ:9766, V-A:TYR:539:CZ:4877, H-B:TYR:539:O:9840, V-B:TYR:531:CE1:9764, V-B:ASP:366:C:8179, V-B:ILE:369:CB:8207, V-A:ILE:369:CG1:3237"]

$$$$
RR6_Rahimova_2017
     RDKit          3D

 63 66  0  0  0  0  0  0  0  0999 V2000
  125.0600  124.1220   57.3240 C   0  0  0  0  0  0  0  0  0  0  0  0
  126.3580  123.8740   56.8020 O   0  0  0  0  0  0  0  0  0  0  0  0
  127.0580  122.7690   57.1650 C   0  0  0  0  0  0  0  0  0  0  0  0
  126.7200  121.6200   56.8600 O   0  0  0  0  0  0  0  0  0  0  0  0
  128.2840  123.0810   57.9730 C   0  0  0  0  0  0  0  0  0  0  0  0
  128.9310  124.3230   57.8930 C   0  0  0  0  0  0  0  0  0  0  0  0
  130.0720  124.5790   58.6500 C   0  0  0  0  0  0  0  0  0  0  0  0
  130.5890  123.5910   59.5000 C   0  0  0  0  0  0  0  0  0  0  0  0
  131.7480  123.7330   60.2860 N   0  0  0  0  0  0  0  0  0  0  0  0
  132.1770  124.8030   60.9920 C   0  0  0  0  0  0  0  0  0  0  0  0
  131.5910  125.8820   61.0800 O   0  0  0  0  0  0  0  0  0  0  0  0
  133.5390  124.6400   61.6760 C   0  0  0  0  0  0  0  0  0  0  0  0
  133.4310  124.0020   63.3810 S   0  0  0  0  0  0  0  0  0  0  0  0
  131.8990  124.6060   64.0600 C   0  0  0  0  0  0  0  0  0  0  0  0
  130.8170  124.3890   63.2740 N   0  0  0  0  0  0  0  0  0  0  0  0
  129.5890  124.7790   63.6970 C   0  0  0  0  0  0  0  0  0  0  0  0
  128.4360  124.4470   62.7960 C   0  0  0  0  0  0  0  0  0  0  0  0
  127.6960  125.4610   62.1660 C   0  0  0  0  0  0  0  0  0  0  0  0
  126.6180  125.1530   61.3400 C   0  0  0  0  0  0  0  0  0  0  0  0
  126.2620  123.8230   61.1240 C   0  0  0  0  0  0  0  0  0  0  0  0
  125.0810  123.4930   60.2300 C   0  0  0  0  0  0  0  0  0  0  0  0
  126.9850  122.8020   61.7380 C   0  0  0  0  0  0  0  0  0  0  0  0
  128.0610  123.1150   62.5610 C   0  0  0  0  0  0  0  0  0  0  0  0
  129.4270  125.4150   64.9330 C   0  0  0  0  0  0  0  0  0  0  0  0
  130.5310  125.6540   65.7620 C   0  0  0  0  0  0  0  0  0  0  0  0
  130.2840  126.3210   67.0750 C   0  0  0  0  0  0  0  0  0  0  0  0
  131.1120  127.3640   67.5000 C   0  0  0  0  0  0  0  0  0  0  0  0
  130.8790  128.0020   68.7160 C   0  0  0  0  0  0  0  0  0  0  0  0
  129.8130  127.6140   69.5270 C   0  0  0  0  0  0  0  0  0  0  0  0
  129.6580  128.3030   70.7130 O   0  0  0  0  0  0  0  0  0  0  0  0
  129.5460  127.5730   71.9300 C   0  0  0  0  0  0  0  0  0  0  0  0
  128.9760  126.5700   69.1020 C   0  0  0  0  0  0  0  0  0  0  0  0
  129.2120  125.9350   67.8860 C   0  0  0  0  0  0  0  0  0  0  0  0
  131.8110  125.2440   65.3130 C   0  0  0  0  0  0  0  0  0  0  0  0
  133.0120  125.4890   66.1180 C   0  0  0  0  0  0  0  0  0  0  0  0
  133.9600  125.6820   66.7540 N   0  0  0  0  0  0  0  0  0  0  0  0
  129.9380  122.3600   59.5950 C   0  0  0  0  0  0  0  0  0  0  0  0
  128.8000  122.1050   58.8350 C   0  0  0  0  0  0  0  0  0  0  0  0
  125.0993  124.1145   58.4233 H   0  0  0  0  0  0  0  0  0  0  0  0
  124.7065  125.1039   56.9764 H   0  0  0  0  0  0  0  0  0  0  0  0
  124.3694  123.3396   56.9764 H   0  0  0  0  0  0  0  0  0  0  0  0
  128.5336  125.1023   57.2261 H   0  0  0  0  0  0  0  0  0  0  0  0
  130.5684  125.5582   58.5808 H   0  0  0  0  0  0  0  0  0  0  0  0
  132.3800  122.9480   60.2400 H   0  0  0  0  0  0  0  0  0  0  0  0
  134.1449  123.9407   61.0812 H   0  0  0  0  0  0  0  0  0  0  0  0
  133.9910  125.6411   61.7353 H   0  0  0  0  0  0  0  0  0  0  0  0
  127.9719  126.5135   62.3274 H   0  0  0  0  0  0  0  0  0  0  0  0
  126.0470  125.9601   60.8577 H   0  0  0  0  0  0  0  0  0  0  0  0
  124.2072  123.2488   60.8520 H   0  0  0  0  0  0  0  0  0  0  0  0
  124.8482  124.3605   59.5950 H   0  0  0  0  0  0  0  0  0  0  0  0
  125.3316  122.6305   59.5950 H   0  0  0  0  0  0  0  0  0  0  0  0
  126.7051  121.7512   61.5719 H   0  0  0  0  0  0  0  0  0  0  0  0
  128.6296  122.3027   63.0373 H   0  0  0  0  0  0  0  0  0  0  0  0
  128.4240  125.7301   65.2566 H   0  0  0  0  0  0  0  0  0  0  0  0
  131.9544  127.6835   66.8689 H   0  0  0  0  0  0  0  0  0  0  0  0
  131.5413  128.8186   69.0393 H   0  0  0  0  0  0  0  0  0  0  0  0
  129.6516  128.2613   72.7815 H   0  0  0  0  0  0  0  0  0  0  0  0
  128.5622  127.0830   71.9744 H   0  0  0  0  0  0  0  0  0  0  0  0
  130.3377  126.8106   71.9744 H   0  0  0  0  0  0  0  0  0  0  0  0
  128.1315  126.2530   69.7316 H   0  0  0  0  0  0  0  0  0  0  0  0
  128.5482  125.1209   67.5594 H   0  0  0  0  0  0  0  0  0  0  0  0
  130.3265  121.5869   60.2743 H   0  0  0  0  0  0  0  0  0  0  0  0
  128.3012  121.1276   58.9121 H   0  0  0  0  0  0  0  0  0  0  0  0
  1  2  1  0
  2  3  1  0
  3  4  2  0
  3  5  1  0
  5  6  2  0
  6  7  1  0
  7  8  2  0
  8  9  1  0
  9 10  1  0
 10 11  2  0
 10 12  1  0
 12 13  1  0
 13 14  1  0
 14 15  2  0
 15 16  1  0
 16 17  1  0
 17 18  2  0
 18 19  1  0
 19 20  2  0
 20 21  1  0
 20 22  1  0
 22 23  2  0
 16 24  2  0
 24 25  1  0
 25 26  1  0
 26 27  2  0
 27 28  1  0
 28 29  2  0
 29 30  1  0
 30 31  1  0
 29 32  1  0
 32 33  2  0
 25 34  2  0
 34 35  1  0
 35 36  3  0
  8 37  1  0
 37 38  2  0
 38  5  1  0
 34 14  1  0
 23 17  1  0
 33 26  1  0
  1 39  1  0
  1 40  1  0
  1 41  1  0
  6 42  1  0
  7 43  1  0
  9 44  1  0
 12 45  1  0
 12 46  1  0
 18 47  1  0
 19 48  1  0
 21 49  1  0
 21 50  1  0
 21 51  1  0
 22 52  1  0
 23 53  1  0
 24 54  1  0
 27 55  1  0
 28 56  1  0
 31 57  1  0
 31 58  1  0
 31 59  1  0
 32 60  1  0
 33 61  1  0
 37 62  1  0
 38 63  1  0
M  END
>  <Binding energies>  (1) 
[-8.59]

>  <Ligand effiencies>  (1) 
[-0.22025641025641024]

>  <Interactions>  (1) 
["V-B:PRO:540:CB:9857, V-B:TYR:539:CE2:9848, V-B:PRO:540:N:9856, V-B:TYR:539:CD2:9846, V-B:PRO:540:CA:9855, V-B:PRO:540:C:9853, V-B:MET:535:CE:9807, H-B:TYR:539:N:9842, H-B:TYR:531:OH:9767, V-B:TYR:539:C:9839, V-B:ALA:541:CB:9864, V-B:GLU:543:CD:9880, V-A:ARG:545:CD:4923, V-A:ARG:545:CZ:4926, V-B:GLU:543:CB:9878, V-A:GLU:543:CB:4906, V-A:HIS:456:CE1:4069, V-B:HIS:456:CE1:9041, H-A:TYR:484:OH:4347, H-A:GLY:454:N:4049, V-A:GLU:543:C:4902, V-B:GLU:543:CG:9879, V-A:GLU:543:CD:4908, V-A:ASP:366:CG:3212, V-A:TYR:484:CZ:4346, H-A:ARG:545:NE:4924, V-B:TYR:531:CZ:9766, V-B:TYR:531:CE2:9765, V-B:LEU:363:CD1:8160, V-A:GLU:543:CA:4904"]

$$$$
RR7_Rahimova_2017
     RDKit          3D

 80 86  0  0  0  0  0  0  0  0999 V2000
  131.7490  117.0160   61.5800 C   0  0  0  0  0  0  0  0  0  0  0  0
  132.5570  117.9010   60.8100 O   0  0  0  0  0  0  0  0  0  0  0  0
  132.1180  119.1920   60.5890 C   0  0  0  0  0  0  0  0  0  0  0  0
  130.7830  119.4560   60.8900 C   0  0  0  0  0  0  0  0  0  0  0  0
  130.2530  120.7290   60.7050 C   0  0  0  0  0  0  0  0  0  0  0  0
  131.0460  121.7700   60.2000 C   0  0  0  0  0  0  0  0  0  0  0  0
  130.4860  123.2150   60.0140 C   0  0  0  0  0  0  0  0  0  0  0  0
  130.7820  123.9270   61.2370 O   0  0  0  0  0  0  0  0  0  0  0  0
  131.4330  125.2000   61.1850 C   0  0  0  0  0  0  0  0  0  0  0  0
  132.8800  125.0420   61.6790 C   0  0  1  0  0  0  0  0  0  0  0  0
  132.9800  125.7650   62.9030 O   0  0  0  0  0  0  0  0  0  0  0  0
  133.3720  124.9440   63.9650 C   0  0  1  0  0  0  0  0  0  0  0  0
  132.7580  125.3950   65.1990 N   0  0  0  0  0  0  0  0  0  0  0  0
  133.3410  125.5130   66.4480 C   0  0  0  0  0  0  0  0  0  0  0  0
  132.5390  125.9050   67.4070 N   0  0  0  0  0  0  0  0  0  0  0  0
  131.3230  126.0190   66.7900 C   0  0  0  0  0  0  0  0  0  0  0  0
  130.0510  126.3850   67.2720 C   0  0  0  0  0  0  0  0  0  0  0  0
  129.9170  126.7270   68.6310 N   0  0  0  0  0  0  0  0  0  0  0  0
  128.8850  126.4830   69.4730 C   0  0  0  0  0  0  0  0  0  0  0  0
  127.8440  125.9080   69.1470 O   0  0  0  0  0  0  0  0  0  0  0  0
  129.0580  126.9970   70.8870 C   0  0  0  0  0  0  0  0  0  0  0  0
  128.7400  126.1650   71.9710 C   0  0  0  0  0  0  0  0  0  0  0  0
  128.8960  126.6150   73.2790 C   0  0  0  0  0  0  0  0  0  0  0  0
  129.3760  127.8990   73.5140 C   0  0  0  0  0  0  0  0  0  0  0  0
  129.7010  128.7390   72.4520 C   0  0  0  0  0  0  0  0  0  0  0  0
  129.5440  128.2900   71.1430 C   0  0  0  0  0  0  0  0  0  0  0  0
  128.9890  126.3950   66.4120 N   0  0  0  0  0  0  0  0  0  0  0  0
  129.2160  126.0450   65.1190 C   0  0  0  0  0  0  0  0  0  0  0  0
  130.3960  125.6810   64.5500 N   0  0  0  0  0  0  0  0  0  0  0  0
  131.4200  125.6870   65.4140 C   0  0  0  0  0  0  0  0  0  0  0  0
  132.9950  123.5300   63.5390 C   0  0  0  0  0  0  0  0  0  0  0  0
  133.2870  123.6090   62.0500 C   0  0  2  0  0  0  0  0  0  0  0  0
  134.6480  123.3410   61.7600 O   0  0  0  0  0  0  0  0  0  0  0  0
  131.1950  123.9780   58.8630 C   0  0  0  0  0  0  0  0  0  0  0  0
  130.4450  124.7330   57.9470 C   0  0  0  0  0  0  0  0  0  0  0  0
  131.0670  125.4100   56.9030 C   0  0  0  0  0  0  0  0  0  0  0  0
  132.4500  125.3380   56.7640 C   0  0  0  0  0  0  0  0  0  0  0  0
  133.2130  124.5960   57.6600 C   0  0  0  0  0  0  0  0  0  0  0  0
  132.5890  123.9180   58.7030 C   0  0  0  0  0  0  0  0  0  0  0  0
  128.9650  123.3170   59.7080 C   0  0  0  0  0  0  0  0  0  0  0  0
  128.1270  124.0940   60.5240 C   0  0  0  0  0  0  0  0  0  0  0  0
  126.7630  124.1850   60.2650 C   0  0  0  0  0  0  0  0  0  0  0  0
  126.2190  123.4900   59.1890 C   0  0  0  0  0  0  0  0  0  0  0  0
  127.0280  122.7030   58.3750 C   0  0  0  0  0  0  0  0  0  0  0  0
  128.3920  122.6140   58.6360 C   0  0  0  0  0  0  0  0  0  0  0  0
  132.3920  121.5020   59.9120 C   0  0  0  0  0  0  0  0  0  0  0  0
  132.9230  120.2290   60.0980 C   0  0  0  0  0  0  0  0  0  0  0  0
  131.9190  117.2022   62.6507 H   0  0  0  0  0  0  0  0  0  0  0  0
  130.6887  117.1868   61.3420 H   0  0  0  0  0  0  0  0  0  0  0  0
  132.0153  115.9756   61.3420 H   0  0  0  0  0  0  0  0  0  0  0  0
  130.1423  118.6502   61.2775 H   0  0  0  0  0  0  0  0  0  0  0  0
  129.1998  120.9214   60.9577 H   0  0  0  0  0  0  0  0  0  0  0  0
  131.4352  125.5712   60.1495 H   0  0  0  0  0  0  0  0  0  0  0  0
  130.8980  125.9176   61.8244 H   0  0  0  0  0  0  0  0  0  0  0  0
  133.5218  125.3844   60.8539 H   0  0  0  0  0  0  0  0  0  0  0  0
  134.4506  124.9776   64.1783 H   0  0  0  0  0  0  0  0  0  0  0  0
  134.4043  125.2929   66.6238 H   0  0  0  0  0  0  0  0  0  0  0  0
  130.7060  127.2250   69.0170 H   0  0  0  0  0  0  0  0  0  0  0  0
  128.3640  125.1480   71.7856 H   0  0  0  0  0  0  0  0  0  0  0  0
  128.6407  125.9577   74.1233 H   0  0  0  0  0  0  0  0  0  0  0  0
  129.5000  128.2541   74.5477 H   0  0  0  0  0  0  0  0  0  0  0  0
  130.0802  129.7531   72.6462 H   0  0  0  0  0  0  0  0  0  0  0  0
  129.8024  128.9524   70.3037 H   0  0  0  0  0  0  0  0  0  0  0  0
  128.3406  126.0576   64.4530 H   0  0  0  0  0  0  0  0  0  0  0  0
  133.6204  122.7744   64.0370 H   0  0  0  0  0  0  0  0  0  0  0  0
  131.9669  123.2314   63.7917 H   0  0  0  0  0  0  0  0  0  0  0  0
  132.7383  122.8539   61.4680 H   0  0  0  0  0  0  0  0  0  0  0  0
  135.0950  124.1740   61.5900 H   0  0  0  0  0  0  0  0  0  0  0  0
  129.3519  124.7898   58.0563 H   0  0  0  0  0  0  0  0  0  0  0  0
  130.4694  125.9988   56.1915 H   0  0  0  0  0  0  0  0  0  0  0  0
  132.9438  125.8722   55.9389 H   0  0  0  0  0  0  0  0  0  0  0  0
  134.3057  124.5454   57.5445 H   0  0  0  0  0  0  0  0  0  0  0  0
  133.1935  123.3294   59.4089 H   0  0  0  0  0  0  0  0  0  0  0  0
  128.5545  124.6379   61.3792 H   0  0  0  0  0  0  0  0  0  0  0  0
  126.1182  124.8029   60.9072 H   0  0  0  0  0  0  0  0  0  0  0  0
  125.1415  123.5633   58.9804 H   0  0  0  0  0  0  0  0  0  0  0  0
  126.5909  122.1533   57.5284 H   0  0  0  0  0  0  0  0  0  0  0  0
  129.0284  121.9859   57.9954 H   0  0  0  0  0  0  0  0  0  0  0  0
  133.0370  122.3089   59.5339 H   0  0  0  0  0  0  0  0  0  0  0  0
  133.9791  120.0359   59.8586 H   0  0  0  0  0  0  0  0  0  0  0  0
  1  2  1  0
  2  3  1  0
  3  4  2  0
  4  5  1  0
  5  6  2  0
  6  7  1  0
  7  8  1  0
  8  9  1  0
  9 10  1  0
 10 11  1  0
 11 12  1  0
 12 13  1  0
 13 14  1  0
 14 15  2  0
 15 16  1  0
 16 17  2  0
 17 18  1  0
 18 19  1  0
 19 20  2  0
 19 21  1  0
 21 22  2  0
 22 23  1  0
 23 24  2  0
 24 25  1  0
 25 26  2  0
 17 27  1  0
 27 28  2  0
 28 29  1  0
 29 30  2  0
 12 31  1  0
 31 32  1  0
 32 33  1  0
  7 34  1  0
 34 35  2  0
 35 36  1  0
 36 37  2  0
 37 38  1  0
 38 39  2  0
  7 40  1  0
 40 41  2  0
 41 42  1  0
 42 43  2  0
 43 44  1  0
 44 45  2  0
  6 46  1  0
 46 47  2  0
 47  3  1  0
 32 10  1  0
 39 34  1  0
 45 40  1  0
 30 13  1  0
 30 16  1  0
 26 21  1  0
  1 48  1  0
  1 49  1  0
  1 50  1  0
  4 51  1  0
  5 52  1  0
  9 53  1  0
  9 54  1  0
 10 55  1  6
 12 56  1  1
 14 57  1  0
 18 58  1  0
 22 59  1  0
 23 60  1  0
 24 61  1  0
 25 62  1  0
 26 63  1  0
 28 64  1  0
 31 65  1  0
 31 66  1  0
 32 67  1  6
 33 68  1  0
 35 69  1  0
 36 70  1  0
 37 71  1  0
 38 72  1  0
 39 73  1  0
 41 74  1  0
 42 75  1  0
 43 76  1  0
 44 77  1  0
 45 78  1  0
 46 79  1  0
 47 80  1  0
M  END
>  <Binding energies>  (1) 
[-9.74]

>  <Ligand effiencies>  (1) 
[-0.19877551020408163]

>  <Interactions>  (1) 
["V-B:PRO:540:CB:9857, V-A:ILE:369:CG2:3236, V-B:TYR:539:CE2:9848, V-B:PRO:540:N:9856, V-B:TYR:539:CZ:9849, V-B:TYR:539:CD2:9846, V-B:PRO:540:CA:9855, V-A:PRO:482:CG:4326, V-A:PRO:482:CB:4325, V-A:LEU:475:CD1:4257, V-B:TYR:539:C:9839, V-B:GLU:543:CD:9880, V-A:ARG:545:CD:4923, V-A:ARG:545:CZ:4926, V-A:HIS:456:CE1:4069, V-A:ARG:545:CG:4922, V-B:HIS:456:CE1:9041, V-A:GLY:454:CA:4048, V-A:HIS:383:CE1:3392, H-A:TYR:484:OH:4347, H-A:GLY:454:N:4049, V-B:GLU:543:CG:9879, V-A:ASP:366:CG:3212, H-A:ARG:545:NH1:4927, V-B:HIS:456:CD2:9039, V-A:ASP:366:C:3207, V-A:ASP:366:CB:3211, V-A:ASP:366:CA:3209, V-A:TYR:484:CZ:4346, H-A:ARG:545:NH2:4928, H-A:HIS:383:NE2:3393, H-A:SER:385:OG:3409, H-A:HIS:456:NE2:4070, H-A:ASP:366:OD1:3213"]

$$$$
RR8_A_Rahimova_2017
     RDKit          3D

 73 77  0  0  0  0  0  0  0  0999 V2000
  127.9890  122.7270   59.4340 O   0  0  0  0  0  0  0  0  0  0  0  0
  128.3470  122.2530   60.5180 C   0  0  0  0  0  0  0  0  0  0  0  0
  127.6430  122.3770   61.6860 O   0  0  0  0  0  0  0  0  0  0  0  0
  128.1450  123.2550   62.6550 C   0  0  1  0  0  0  0  0  0  0  0  0
  128.8220  122.5720   63.6690 O   0  0  0  0  0  0  0  0  0  0  0  0
  129.9770  123.2830   64.1070 C   0  0  2  0  0  0  0  0  0  0  0  0
  129.8720  123.4990   65.6270 C   0  0  0  0  0  0  0  0  0  0  0  0
  129.7200  124.8890   65.8820 O   0  0  0  0  0  0  0  0  0  0  0  0
  129.8180  125.2380   67.2570 C   0  0  0  0  0  0  0  0  0  0  0  0
  129.2600  126.6370   67.4750 C   0  0  0  0  0  0  0  0  0  0  0  0
  129.6290  127.3650   68.6090 C   0  0  0  0  0  0  0  0  0  0  0  0
  129.1250  128.6480   68.8080 C   0  0  0  0  0  0  0  0  0  0  0  0
  128.2550  129.2010   67.8700 C   0  0  0  0  0  0  0  0  0  0  0  0
  127.8870  128.4840   66.7330 C   0  0  0  0  0  0  0  0  0  0  0  0
  128.3920  127.2020   66.5340 C   0  0  0  0  0  0  0  0  0  0  0  0
  129.9650  124.5590   63.2560 C   0  0  1  0  0  0  0  0  0  0  0  0
  131.2660  124.9680   62.8390 O   0  0  0  0  0  0  0  0  0  0  0  0
  131.3190  125.7230   61.6340 C   0  0  0  0  0  0  0  0  0  0  0  0
  132.1140  124.9640   60.5800 C   0  0  0  0  0  0  0  0  0  0  0  0
  133.2630  124.2600   60.9520 C   0  0  0  0  0  0  0  0  0  0  0  0
  134.0000  123.5710   59.9930 C   0  0  0  0  0  0  0  0  0  0  0  0
  133.5880  123.5910   58.6610 C   0  0  0  0  0  0  0  0  0  0  0  0
  132.4490  124.2950   58.2810 C   0  0  0  0  0  0  0  0  0  0  0  0
  131.7120  124.9850   59.2400 C   0  0  0  0  0  0  0  0  0  0  0  0
  129.2020  124.1430   62.0120 C   0  0  2  0  0  0  0  0  0  0  0  0
  128.6650  125.2830   61.3460 O   0  0  0  0  0  0  0  0  0  0  0  0
  127.3220  125.6160   61.6790 C   0  0  0  0  0  0  0  0  0  0  0  0
  126.3690  125.0010   60.6650 C   0  0  0  0  0  0  0  0  0  0  0  0
  126.4430  125.3680   59.3180 C   0  0  0  0  0  0  0  0  0  0  0  0
  125.5750  124.7950   58.3920 C   0  0  0  0  0  0  0  0  0  0  0  0
  124.6390  123.8540   58.8140 C   0  0  0  0  0  0  0  0  0  0  0  0
  124.5620  123.4790   60.1530 C   0  0  0  0  0  0  0  0  0  0  0  0
  125.4300  124.0520   61.0800 C   0  0  0  0  0  0  0  0  0  0  0  0
  129.6110  121.4610   60.6850 C   0  0  0  0  0  0  0  0  0  0  0  0
  130.8050  121.8250   60.0430 C   0  0  0  0  0  0  0  0  0  0  0  0
  131.9610  121.0700   60.2180 C   0  0  0  0  0  0  0  0  0  0  0  0
  131.9540  119.9320   61.0350 C   0  0  0  0  0  0  0  0  0  0  0  0
  133.1870  119.1280   61.2210 N   0  0  0  0  0  0  0  0  0  0  0  0
  133.9450  119.4190   62.1410 O   0  0  0  0  0  0  0  0  0  0  0  0
  133.4060  118.2000   60.4490 O   0  0  0  0  0  0  0  0  0  0  0  0
  130.7620  119.5680   61.6720 C   0  0  0  0  0  0  0  0  0  0  0  0
  129.6050  120.3220   61.5000 C   0  0  0  0  0  0  0  0  0  0  0  0
  127.2876  123.8117   63.0611 H   0  0  0  0  0  0  0  0  0  0  0  0
  130.9398  122.7688   63.9706 H   0  0  0  0  0  0  0  0  0  0  0  0
  129.0007  122.9537   66.0187 H   0  0  0  0  0  0  0  0  0  0  0  0
  130.7806  123.1251   66.1216 H   0  0  0  0  0  0  0  0  0  0  0  0
  129.2436  124.5180   67.8583 H   0  0  0  0  0  0  0  0  0  0  0  0
  130.8745  125.2168   67.5626 H   0  0  0  0  0  0  0  0  0  0  0  0
  130.3179  126.9247   69.3449 H   0  0  0  0  0  0  0  0  0  0  0  0
  129.4122  129.2222   69.7012 H   0  0  0  0  0  0  0  0  0  0  0  0
  127.8549  130.2133   68.0287 H   0  0  0  0  0  0  0  0  0  0  0  0
  127.2012  128.9286   65.9968 H   0  0  0  0  0  0  0  0  0  0  0  0
  128.1085  126.6328   65.6364 H   0  0  0  0  0  0  0  0  0  0  0  0
  129.5381  125.3972   63.8262 H   0  0  0  0  0  0  0  0  0  0  0  0
  130.2967  125.8945   61.2660 H   0  0  0  0  0  0  0  0  0  0  0  0
  131.8100  126.6871   61.8326 H   0  0  0  0  0  0  0  0  0  0  0  0
  133.5851  124.2505   62.0038 H   0  0  0  0  0  0  0  0  0  0  0  0
  134.9025  123.0138   60.2843 H   0  0  0  0  0  0  0  0  0  0  0  0
  134.1689  123.0450   57.9031 H   0  0  0  0  0  0  0  0  0  0  0  0
  132.1324  124.3062   57.2276 H   0  0  0  0  0  0  0  0  0  0  0  0
  130.8137  125.5466   58.9441 H   0  0  0  0  0  0  0  0  0  0  0  0
  129.7812  123.6425   61.2220 H   0  0  0  0  0  0  0  0  0  0  0  0
  127.0879  125.2281   62.6814 H   0  0  0  0  0  0  0  0  0  0  0  0
  127.2067  126.7099   61.6671 H   0  0  0  0  0  0  0  0  0  0  0  0
  127.1866  126.1091   58.9897 H   0  0  0  0  0  0  0  0  0  0  0  0
  125.6284  125.0843   57.3321 H   0  0  0  0  0  0  0  0  0  0  0  0
  123.9534  123.4022   58.0820 H   0  0  0  0  0  0  0  0  0  0  0  0
  123.8199  122.7345   60.4770 H   0  0  0  0  0  0  0  0  0  0  0  0
  125.3765  123.7577   62.1385 H   0  0  0  0  0  0  0  0  0  0  0  0
  130.8272  122.7144   59.3962 H   0  0  0  0  0  0  0  0  0  0  0  0
  132.8894  121.3698   59.7098 H   0  0  0  0  0  0  0  0  0  0  0  0
  130.7395  118.6762   62.3156 H   0  0  0  0  0  0  0  0  0  0  0  0
  128.6774  120.0207   62.0087 H   0  0  0  0  0  0  0  0  0  0  0  0
  1  2  2  0
  2  3  1  0
  3  4  1  0
  4  5  1  0
  5  6  1  0
  6  7  1  0
  7  8  1  0
  8  9  1  0
  9 10  1  0
 10 11  2  0
 11 12  1  0
 12 13  2  0
 13 14  1  0
 14 15  2  0
  6 16  1  0
 16 17  1  0
 17 18  1  0
 18 19  1  0
 19 20  2  0
 20 21  1  0
 21 22  2  0
 22 23  1  0
 23 24  2  0
 16 25  1  0
 25 26  1  0
 26 27  1  0
 27 28  1  0
 28 29  2  0
 29 30  1  0
 30 31  2  0
 31 32  1  0
 32 33  2  0
  2 34  1  0
 34 35  2  0
 35 36  1  0
 36 37  2  0
 37 38  1  0
 38 39  2  0
 38 40  1  0
 37 41  1  0
 41 42  2  0
 25  4  1  0
 33 28  1  0
 42 34  1  0
 15 10  1  0
 24 19  1  0
  4 43  1  1
  6 44  1  1
  7 45  1  0
  7 46  1  0
  9 47  1  0
  9 48  1  0
 11 49  1  0
 12 50  1  0
 13 51  1  0
 14 52  1  0
 15 53  1  0
 16 54  1  1
 18 55  1  0
 18 56  1  0
 20 57  1  0
 21 58  1  0
 22 59  1  0
 23 60  1  0
 24 61  1  0
 25 62  1  6
 27 63  1  0
 27 64  1  0
 29 65  1  0
 30 66  1  0
 31 67  1  0
 32 68  1  0
 33 69  1  0
 35 70  1  0
 36 71  1  0
 41 72  1  0
 42 73  1  0
M  CHG  2  38   1  40  -1
M  END
>  <Binding energies>  (1) 
[-9.21]

>  <Ligand effiencies>  (1) 
[-0.2192857142857143]

>  <Interactions>  (1) 
["V-B:PRO:540:CB:9857, V-A:ILE:369:CG2:3236, V-B:TYR:539:CE2:9848, V-B:TYR:539:CZ:9849, V-B:TYR:539:CD2:9846, V-B:PRO:540:CA:9855, V-B:PRO:540:C:9853, V-A:LEU:475:CD1:4257, H-B:ALA:541:N:9863, V-B:ALA:541:CA:9862, V-A:SER:385:CA:3406, V-B:ALA:541:CB:9864, V-B:GLU:543:CD:9880, V-B:GLU:543:CB:9878, V-A:GLU:543:CB:4906, V-A:HIS:456:CE1:4069, V-B:HIS:456:CE1:9041, H-A:TYR:484:OH:4347, V-A:GLU:543:C:4902, V-B:TYR:484:CE2:9317, V-B:GLU:543:CG:9879, V-A:GLU:543:CG:4907, V-A:ASP:366:CG:3212, V-A:ILE:369:CD1:3238, V-A:ASP:366:C:3207, V-A:TYR:484:CE2:4345, V-A:ASP:366:CB:3211, V-A:ASP:366:CA:3209, V-A:TYR:484:CZ:4346, V-A:ILE:369:CB:3235, V-B:LEU:363:CA:8156, V-B:LEU:363:CD1:8160, H-A:HIS:383:NE2:3393, H-A:SER:385:OG:3409"]

$$$$
RR8_B_Rahimova_2017
     RDKit          3D

 73 77  0  0  0  0  0  0  0  0999 V2000
  128.9870  126.8330   63.3010 O   0  0  0  0  0  0  0  0  0  0  0  0
  129.6720  125.8100   63.3960 C   0  0  0  0  0  0  0  0  0  0  0  0
  129.4050  124.6380   62.7420 O   0  0  0  0  0  0  0  0  0  0  0  0
  129.1080  123.5000   63.5140 C   0  0  2  0  0  0  0  0  0  0  0  0
  130.2600  122.9310   64.0690 O   0  0  0  0  0  0  0  0  0  0  0  0
  130.8100  121.9280   63.2160 C   0  0  2  0  0  0  0  0  0  0  0  0
  132.2600  122.2980   62.8570 C   0  0  0  0  0  0  0  0  0  0  0  0
  132.4040  122.3070   61.4420 O   0  0  0  0  0  0  0  0  0  0  0  0
  133.3200  123.2690   60.9410 C   0  0  0  0  0  0  0  0  0  0  0  0
  132.7160  123.9480   59.7210 C   0  0  0  0  0  0  0  0  0  0  0  0
  133.4050  123.9330   58.5050 C   0  0  0  0  0  0  0  0  0  0  0  0
  132.8700  124.5740   57.3910 C   0  0  0  0  0  0  0  0  0  0  0  0
  131.6430  125.2260   57.4960 C   0  0  0  0  0  0  0  0  0  0  0  0
  130.9460  125.2400   58.7030 C   0  0  0  0  0  0  0  0  0  0  0  0
  131.4840  124.6020   59.8180 C   0  0  0  0  0  0  0  0  0  0  0  0
  129.8350  121.8580   62.0350 C   0  0  1  0  0  0  0  0  0  0  0  0
  129.7250  120.5080   61.5750 O   0  0  0  0  0  0  0  0  0  0  0  0
  130.6310  119.5540   62.1370 C   0  0  0  0  0  0  0  0  0  0  0  0
  131.7680  119.2050   61.1810 C   0  0  0  0  0  0  0  0  0  0  0  0
  131.4910  118.5810   59.9610 C   0  0  0  0  0  0  0  0  0  0  0  0
  132.5270  118.2920   59.0770 C   0  0  0  0  0  0  0  0  0  0  0  0
  133.8370  118.6250   59.4180 C   0  0  0  0  0  0  0  0  0  0  0  0
  134.1200  119.2430   60.6340 C   0  0  0  0  0  0  0  0  0  0  0  0
  133.0830  119.5350   61.5170 C   0  0  0  0  0  0  0  0  0  0  0  0
  128.5350  122.4080   62.6110 C   0  0  2  0  0  0  0  0  0  0  0  0
  127.7000  122.9040   61.5680 O   0  0  0  0  0  0  0  0  0  0  0  0
  128.3750  123.3860   60.4170 C   0  0  0  0  0  0  0  0  0  0  0  0
  127.5410  123.0400   59.1960 C   0  0  0  0  0  0  0  0  0  0  0  0
  128.1050  122.3250   58.1350 C   0  0  0  0  0  0  0  0  0  0  0  0
  127.3360  122.0300   57.0120 C   0  0  0  0  0  0  0  0  0  0  0  0
  126.0090  122.4500   56.9530 C   0  0  0  0  0  0  0  0  0  0  0  0
  125.4400  123.1610   58.0090 C   0  0  0  0  0  0  0  0  0  0  0  0
  126.2080  123.4560   59.1310 C   0  0  0  0  0  0  0  0  0  0  0  0
  130.8810  125.7090   64.2810 C   0  0  0  0  0  0  0  0  0  0  0  0
  132.1520  125.4170   63.7650 C   0  0  0  0  0  0  0  0  0  0  0  0
  133.2530  125.3210   64.6100 C   0  0  0  0  0  0  0  0  0  0  0  0
  133.1100  125.5050   65.9910 C   0  0  0  0  0  0  0  0  0  0  0  0
  134.2810  125.3760   66.8930 N   0  0  0  0  0  0  0  0  0  0  0  0
  134.0840  125.2730   68.1010 O   0  0  0  0  0  0  0  0  0  0  0  0
  135.4060  125.3720   66.4000 O   0  0  0  0  0  0  0  0  0  0  0  0
  131.8410  125.8030   66.5040 C   0  0  0  0  0  0  0  0  0  0  0  0
  130.7410  125.9060   65.6600 C   0  0  0  0  0  0  0  0  0  0  0  0
  128.4115  123.8297   64.2989 H   0  0  0  0  0  0  0  0  0  0  0  0
  130.8982  120.9289   63.6677 H   0  0  0  0  0  0  0  0  0  0  0  0
  132.4950  123.2954   63.2570 H   0  0  0  0  0  0  0  0  0  0  0  0
  132.9486  121.5597   63.2937 H   0  0  0  0  0  0  0  0  0  0  0  0
  133.5244  124.0213   61.7171 H   0  0  0  0  0  0  0  0  0  0  0  0
  134.2601  122.7721   60.6595 H   0  0  0  0  0  0  0  0  0  0  0  0
  134.3717  123.4138   58.4281 H   0  0  0  0  0  0  0  0  0  0  0  0
  133.4124  124.5658   56.4341 H   0  0  0  0  0  0  0  0  0  0  0  0
  131.2201  125.7349   56.6173 H   0  0  0  0  0  0  0  0  0  0  0  0
  129.9754  125.7526   58.7746 H   0  0  0  0  0  0  0  0  0  0  0  0
  130.9402  124.6126   60.7741 H   0  0  0  0  0  0  0  0  0  0  0  0
  130.1490  122.4326   61.1511 H   0  0  0  0  0  0  0  0  0  0  0  0
  131.0598  119.9734   63.0591 H   0  0  0  0  0  0  0  0  0  0  0  0
  130.0666  118.6321   62.3407 H   0  0  0  0  0  0  0  0  0  0  0  0
  130.4552  118.3185   59.6997 H   0  0  0  0  0  0  0  0  0  0  0  0
  132.3130  117.8036   58.1149 H   0  0  0  0  0  0  0  0  0  0  0  0
  134.6558  118.3974   58.7196 H   0  0  0  0  0  0  0  0  0  0  0  0
  135.1573  119.4991   60.8956 H   0  0  0  0  0  0  0  0  0  0  0  0
  133.2994  120.0249   62.4778 H   0  0  0  0  0  0  0  0  0  0  0  0
  127.8834  121.6954   63.1379 H   0  0  0  0  0  0  0  0  0  0  0  0
  128.4974  124.4769   60.4870 H   0  0  0  0  0  0  0  0  0  0  0  0
  129.3703  122.9240   60.3398 H   0  0  0  0  0  0  0  0  0  0  0  0
  129.1535  121.9963   58.1872 H   0  0  0  0  0  0  0  0  0  0  0  0
  127.7747  121.4675   56.1747 H   0  0  0  0  0  0  0  0  0  0  0  0
  125.4038  122.2183   56.0641 H   0  0  0  0  0  0  0  0  0  0  0  0
  124.3907  123.4866   57.9553 H   0  0  0  0  0  0  0  0  0  0  0  0
  125.7659  124.0170   59.9676 H   0  0  0  0  0  0  0  0  0  0  0  0
  132.2794  125.2626   62.6834 H   0  0  0  0  0  0  0  0  0  0  0  0
  134.2449  125.0986   64.1896 H   0  0  0  0  0  0  0  0  0  0  0  0
  131.7135  125.9571   67.5857 H   0  0  0  0  0  0  0  0  0  0  0  0
  129.7523  126.1443   66.0793 H   0  0  0  0  0  0  0  0  0  0  0  0
  1  2  2  0
  2  3  1  0
  3  4  1  0
  4  5  1  0
  5  6  1  0
  6  7  1  0
  7  8  1  0
  8  9  1  0
  9 10  1  0
 10 11  2  0
 11 12  1  0
 12 13  2  0
 13 14  1  0
 14 15  2  0
  6 16  1  0
 16 17  1  0
 17 18  1  0
 18 19  1  0
 19 20  2  0
 20 21  1  0
 21 22  2  0
 22 23  1  0
 23 24  2  0
 16 25  1  0
 25 26  1  0
 26 27  1  0
 27 28  1  0
 28 29  2  0
 29 30  1  0
 30 31  2  0
 31 32  1  0
 32 33  2  0
  2 34  1  0
 34 35  2  0
 35 36  1  0
 36 37  2  0
 37 38  1  0
 38 39  2  0
 38 40  1  0
 37 41  1  0
 41 42  2  0
 25  4  1  0
 33 28  1  0
 42 34  1  0
 15 10  1  0
 24 19  1  0
  4 43  1  1
  6 44  1  1
  7 45  1  0
  7 46  1  0
  9 47  1  0
  9 48  1  0
 11 49  1  0
 12 50  1  0
 13 51  1  0
 14 52  1  0
 15 53  1  0
 16 54  1  6
 18 55  1  0
 18 56  1  0
 20 57  1  0
 21 58  1  0
 22 59  1  0
 23 60  1  0
 24 61  1  0
 25 62  1  1
 27 63  1  0
 27 64  1  0
 29 65  1  0
 30 66  1  0
 31 67  1  0
 32 68  1  0
 33 69  1  0
 35 70  1  0
 36 71  1  0
 41 72  1  0
 42 73  1  0
M  CHG  2  38   1  40  -1
M  END
>  <Binding energies>  (1) 
[-10.18]

>  <Ligand effiencies>  (1) 
[-0.24238095238095236]

>  <Interactions>  (1) 
["V-B:PRO:540:CB:9857, V-A:ILE:369:CG2:3236, V-B:TYR:539:CE2:9848, V-B:PRO:540:N:9856, V-B:TYR:539:CZ:9849, V-B:TYR:539:CD2:9846, V-B:PRO:540:CA:9855, V-B:MET:535:CE:9807, V-A:LEU:475:CD1:4257, H-B:ALA:541:N:9863, V-A:SER:385:CB:3408, V-B:ALA:541:CA:9862, V-A:SER:385:CA:3406, V-A:SER:385:C:3404, V-B:TYR:539:C:9839, V-B:ALA:541:CB:9864, V-B:GLU:543:CD:9880, V-A:ARG:545:CD:4923, V-A:ARG:545:CZ:4926, V-A:HIS:456:CE1:4069, V-A:ARG:545:CG:4922, H-A:TYR:484:OH:4347, H-A:GLY:454:N:4049, V-B:GLU:543:CG:9879, V-A:ASP:366:CG:3212, V-A:ASP:366:C:3207, V-A:ASP:366:CB:3211, V-A:ASP:366:CA:3209, H-A:HIS:456:ND1:4066, V-A:TYR:484:CZ:4346, V-A:ILE:369:CB:3235, V-B:TYR:539:CA:9841, V-A:HIS:383:CD2:3391, V-A:ILE:455:C:4051, V-B:PRO:540:CD:9859, H-A:ARG:545:NE:4924, V-B:TYR:539:CG:9844, V-B:LEU:363:CD1:8160, H-A:ILE:455:N:4054"]

$$$$
RR9_Rahimova_2017
     RDKit          3D

 64 68  0  0  0  0  0  0  0  0999 V2000
  130.9790  127.8660   73.1560 C   0  0  0  0  0  0  0  0  0  0  0  0
  129.9440  128.2980   72.1120 C   0  0  0  0  0  0  0  0  0  0  0  0
  129.7380  127.2230   71.2000 O   0  0  0  0  0  0  0  0  0  0  0  0
  129.1310  127.4720   69.9850 C   0  0  0  0  0  0  0  0  0  0  0  0
  129.1290  128.7950   69.5480 C   0  0  0  0  0  0  0  0  0  0  0  0
  128.5380  129.1410   68.3370 C   0  0  0  0  0  0  0  0  0  0  0  0
  127.9300  128.1710   67.5270 C   0  0  0  0  0  0  0  0  0  0  0  0
  127.2860  128.5390   66.2230 C   0  0  0  0  0  0  0  0  0  0  0  0
  127.7320  128.0020   65.0050 C   0  0  0  0  0  0  0  0  0  0  0  0
  127.1180  128.3410   63.7860 C   0  0  0  0  0  0  0  0  0  0  0  0
  127.5760  127.6550   62.5270 C   0  0  0  0  0  0  0  0  0  0  0  0
  128.3280  128.2320   61.7420 O   0  0  0  0  0  0  0  0  0  0  0  0
  127.0910  126.4130   62.3280 N   0  0  0  0  0  0  0  0  0  0  0  0
  127.2850  125.5980   61.1240 C   0  0  0  0  0  0  0  0  0  0  0  0
  126.2260  124.4810   60.9720 C   0  0  0  0  0  0  0  0  0  0  0  0
  126.1580  123.8530   59.5850 C   0  0  0  0  0  0  0  0  0  0  0  0
  125.0390  124.0630   58.7730 C   0  0  0  0  0  0  0  0  0  0  0  0
  124.9950  123.5160   57.4930 C   0  0  0  0  0  0  0  0  0  0  0  0
  126.0680  122.7570   57.0310 C   0  0  0  0  0  0  0  0  0  0  0  0
  127.1850  122.5400   57.8350 C   0  0  0  0  0  0  0  0  0  0  0  0
  127.2290  123.0880   59.1150 C   0  0  0  0  0  0  0  0  0  0  0  0
  126.0540  129.2730   63.8580 C   0  0  0  0  0  0  0  0  0  0  0  0
  125.1490  129.9600   62.9660 C   0  0  0  0  0  0  0  0  0  0  0  0
  125.0960  129.9500   61.4740 C   0  0  0  0  0  0  0  0  0  0  0  0
  124.4040  130.9510   60.7870 C   0  0  0  0  0  0  0  0  0  0  0  0
  124.3430  130.9310   59.3960 C   0  0  0  0  0  0  0  0  0  0  0  0
  124.9780  129.9100   58.6870 C   0  0  0  0  0  0  0  0  0  0  0  0
  124.8960  129.8770   57.1710 C   0  0  0  0  0  0  0  0  0  0  0  0
  125.6680  128.9070   59.3690 C   0  0  0  0  0  0  0  0  0  0  0  0
  125.7300  128.9310   60.7590 C   0  0  0  0  0  0  0  0  0  0  0  0
  124.2980  130.6940   63.6490 N   0  0  0  0  0  0  0  0  0  0  0  0
  124.6120  130.5880   64.9500 N   0  0  0  0  0  0  0  0  0  0  0  0
  125.6810  129.7450   65.1390 C   0  0  0  0  0  0  0  0  0  0  0  0
  126.2510  129.4220   66.2990 N   0  0  0  0  0  0  0  0  0  0  0  0
  127.9330  126.8420   67.9740 C   0  0  0  0  0  0  0  0  0  0  0  0
  128.5250  126.4930   69.1860 C   0  0  0  0  0  0  0  0  0  0  0  0
  130.5746  128.0348   74.1649 H   0  0  0  0  0  0  0  0  0  0  0  0
  131.2068  126.7977   73.0263 H   0  0  0  0  0  0  0  0  0  0  0  0
  131.8987  128.4554   73.0263 H   0  0  0  0  0  0  0  0  0  0  0  0
  128.9959  128.5463   72.6115 H   0  0  0  0  0  0  0  0  0  0  0  0
  130.3059  129.1844   71.5704 H   0  0  0  0  0  0  0  0  0  0  0  0
  129.5993  129.5736   70.1666 H   0  0  0  0  0  0  0  0  0  0  0  0
  128.5478  130.1912   68.0099 H   0  0  0  0  0  0  0  0  0  0  0  0
  128.5798  127.3011   65.0041 H   0  0  0  0  0  0  0  0  0  0  0  0
  126.5510  125.9880   63.0680 H   0  0  0  0  0  0  0  0  0  0  0  0
  127.2300  126.2551   60.2435 H   0  0  0  0  0  0  0  0  0  0  0  0
  128.2669  125.1101   61.2122 H   0  0  0  0  0  0  0  0  0  0  0  0
  126.4590  123.6869   61.6967 H   0  0  0  0  0  0  0  0  0  0  0  0
  125.2483  124.9536   61.1476 H   0  0  0  0  0  0  0  0  0  0  0  0
  124.1936  124.6602   59.1453 H   0  0  0  0  0  0  0  0  0  0  0  0
  124.1179  123.6823   56.8503 H   0  0  0  0  0  0  0  0  0  0  0  0
  126.0329  122.3243   56.0203 H   0  0  0  0  0  0  0  0  0  0  0  0
  128.0273  121.9394   57.4612 H   0  0  0  0  0  0  0  0  0  0  0  0
  128.1068  122.9186   59.7559 H   0  0  0  0  0  0  0  0  0  0  0  0
  123.9062  131.7568   61.3465 H   0  0  0  0  0  0  0  0  0  0  0  0
  123.7955  131.7182   58.8570 H   0  0  0  0  0  0  0  0  0  0  0  0
  123.9157  129.4825   56.8653 H   0  0  0  0  0  0  0  0  0  0  0  0
  125.0211  130.8955   56.7748 H   0  0  0  0  0  0  0  0  0  0  0  0
  125.6918  129.2291   56.7748 H   0  0  0  0  0  0  0  0  0  0  0  0
  126.1618  128.0991   58.8091 H   0  0  0  0  0  0  0  0  0  0  0  0
  126.2802  128.1448   61.2967 H   0  0  0  0  0  0  0  0  0  0  0  0
  124.0830  131.0900   65.6490 H   0  0  0  0  0  0  0  0  0  0  0  0
  127.4605  126.0626   67.3581 H   0  0  0  0  0  0  0  0  0  0  0  0
  128.5167  125.4441   69.5173 H   0  0  0  0  0  0  0  0  0  0  0  0
  1  2  1  0
  2  3  1  0
  3  4  1  0
  4  5  2  0
  5  6  1  0
  6  7  2  0
  7  8  1  0
  8  9  2  0
  9 10  1  0
 10 11  1  0
 11 12  2  0
 11 13  1  0
 13 14  1  0
 14 15  1  0
 15 16  1  0
 16 17  2  0
 17 18  1  0
 18 19  2  0
 19 20  1  0
 20 21  2  0
 10 22  2  0
 22 23  1  0
 23 24  1  0
 24 25  2  0
 25 26  1  0
 26 27  2  0
 27 28  1  0
 27 29  1  0
 29 30  2  0
 23 31  2  0
 31 32  1  0
 32 33  1  0
 33 34  2  0
  7 35  1  0
 35 36  2  0
 36  4  1  0
 34  8  1  0
 21 16  1  0
 33 22  1  0
 30 24  1  0
  1 37  1  0
  1 38  1  0
  1 39  1  0
  2 40  1  0
  2 41  1  0
  5 42  1  0
  6 43  1  0
  9 44  1  0
 13 45  1  0
 14 46  1  0
 14 47  1  0
 15 48  1  0
 15 49  1  0
 17 50  1  0
 18 51  1  0
 19 52  1  0
 20 53  1  0
 21 54  1  0
 25 55  1  0
 26 56  1  0
 28 57  1  0
 28 58  1  0
 28 59  1  0
 29 60  1  0
 30 61  1  0
 32 62  1  0
 35 63  1  0
 36 64  1  0
M  END
>  <Binding energies>  (1) 
[-9.34]

>  <Ligand effiencies>  (1) 
[-0.24578947368421053]

>  <Interactions>  (1) 
["V-B:PRO:540:CB:9857, V-B:PRO:540:N:9856, V-B:PRO:540:CA:9855, V-B:MET:535:CE:9807, V-B:TYR:539:C:9839, V-B:GLU:543:CD:9880, V-B:GLU:543:CB:9878, V-A:GLU:543:CB:4906, H-B:TYR:484:OH:9319, V-A:HIS:456:CE1:4069, V-B:HIS:456:CE1:9041, H-B:GLY:454:N:9021, V-A:GLU:543:C:4902, V-B:TYR:484:CE2:9317, V-A:GLU:543:CD:4908, V-A:GLU:543:CG:4907, H-B:GLU:543:OE2:9882, V-A:LYS:547:CE:4950, H-A:HIS:456:ND1:4066, V-B:ASP:366:CB:8183, V-B:ASP:366:CA:8181, V-A:TYR:539:CE1:4875, V-B:ASP:366:CG:8184, V-B:ILE:369:CG2:8208, V-B:TYR:531:CZ:9766, V-B:TYR:531:CE2:9765, V-A:TYR:539:CZ:4877, V-B:LEU:363:CD1:8160, H-B:GLU:543:OE1:9881, H-B:ASP:366:OD1:8185, V-B:GLY:454:CA:9020, V-B:TYR:531:CE1:9764, V-B:ILE:369:CD1:8210, V-B:ILE:369:CB:8207"]

$$$$
