1a_Ghoteimi_2023
     RDKit          3D

 67 70  0  0  0  0  0  0  0  0999 V2000
  132.3240  122.1400   63.2530 C   0  0  0  0  0  0  0  0  0  0  0  0
  133.4630  122.3700   62.2550 C   0  0  0  0  0  0  0  0  0  0  0  0
  133.7460  121.1530   61.5740 O   0  0  0  0  0  0  0  0  0  0  0  0
  133.0940  120.8220   60.4300 C   0  0  0  0  0  0  0  0  0  0  0  0
  133.5350  120.0150   59.6050 O   0  0  0  0  0  0  0  0  0  0  0  0
  131.7800  121.5310   60.2700 C   0  0  0  0  0  0  0  0  0  0  0  0
  130.5860  121.0040   60.7830 C   0  0  0  0  0  0  0  0  0  0  0  0
  129.3810  121.6830   60.6160 C   0  0  0  0  0  0  0  0  0  0  0  0
  129.3520  122.9090   59.9330 C   0  0  0  0  0  0  0  0  0  0  0  0
  128.1940  123.6760   59.7030 N   0  0  0  0  0  0  0  0  0  0  0  0
  127.0860  123.8190   60.4620 C   0  0  0  0  0  0  0  0  0  0  0  0
  126.8920  123.2860   61.5540 O   0  0  0  0  0  0  0  0  0  0  0  0
  126.0070  124.7340   59.8840 C   0  0  0  0  0  0  0  0  0  0  0  0
  126.7190  126.0240   58.8200 S   0  0  0  0  0  0  0  0  0  0  0  0
  127.5930  127.1320   59.9020 C   0  0  0  0  0  0  0  0  0  0  0  0
  128.5930  126.5430   60.5990 N   0  0  0  0  0  0  0  0  0  0  0  0
  129.3430  127.2820   61.4580 C   0  0  0  0  0  0  0  0  0  0  0  0
  130.4460  126.5620   62.1780 C   0  0  0  0  0  0  0  0  0  0  0  0
  130.3570  126.2760   63.5510 C   0  0  0  0  0  0  0  0  0  0  0  0
  131.3810  125.6070   64.2150 C   0  0  0  0  0  0  0  0  0  0  0  0
  132.5260  125.2060   63.5320 C   0  0  0  0  0  0  0  0  0  0  0  0
  133.4900  124.5470   64.2700 O   0  0  0  0  0  0  0  0  0  0  0  0
  133.9130  125.1010   65.5110 C   0  0  0  0  0  0  0  0  0  0  0  0
  132.6330  125.4880   62.1630 C   0  0  0  0  0  0  0  0  0  0  0  0
  131.6070  126.1570   61.5020 C   0  0  0  0  0  0  0  0  0  0  0  0
  129.0890  128.6480   61.6310 C   0  0  0  0  0  0  0  0  0  0  0  0
  128.0430  129.2740   60.9400 C   0  0  0  0  0  0  0  0  0  0  0  0
  127.8100  130.7270   61.1980 C   0  0  0  0  0  0  0  0  0  0  0  0
  128.5050  131.7040   60.4760 C   0  0  0  0  0  0  0  0  0  0  0  0
  128.2710  133.0560   60.7130 C   0  0  0  0  0  0  0  0  0  0  0  0
  127.3370  133.4580   61.6660 C   0  0  0  0  0  0  0  0  0  0  0  0
  127.1710  134.8190   61.8310 O   0  0  0  0  0  0  0  0  0  0  0  0
  127.1440  135.6600   60.6830 C   0  0  0  0  0  0  0  0  0  0  0  0
  126.6320  132.4810   62.3860 C   0  0  0  0  0  0  0  0  0  0  0  0
  126.8680  131.1290   62.1490 C   0  0  0  0  0  0  0  0  0  0  0  0
  127.2700  128.4990   60.0420 C   0  0  0  0  0  0  0  0  0  0  0  0
  126.1720  129.1010   59.2790 C   0  0  0  0  0  0  0  0  0  0  0  0
  125.3060  129.5770   58.6770 N   0  0  0  0  0  0  0  0  0  0  0  0
  130.5380  123.4330   59.4190 C   0  0  0  0  0  0  0  0  0  0  0  0
  131.7420  122.7530   59.5860 C   0  0  0  0  0  0  0  0  0  0  0  0
  132.7137  122.2187   64.2786 H   0  0  0  0  0  0  0  0  0  0  0  0
  131.5424  122.8984   63.0985 H   0  0  0  0  0  0  0  0  0  0  0  0
  131.8979  121.1377   63.0985 H   0  0  0  0  0  0  0  0  0  0  0  0
  133.1633  123.1375   61.5262 H   0  0  0  0  0  0  0  0  0  0  0  0
  134.3610  122.7081   62.7929 H   0  0  0  0  0  0  0  0  0  0  0  0
  130.6010  120.0454   61.3224 H   0  0  0  0  0  0  0  0  0  0  0  0
  128.4506  121.2576   61.0201 H   0  0  0  0  0  0  0  0  0  0  0  0
  128.2230  124.2200   58.8540 H   0  0  0  0  0  0  0  0  0  0  0  0
  125.3067  124.1284   59.2901 H   0  0  0  0  0  0  0  0  0  0  0  0
  125.4904  125.2264   60.7211 H   0  0  0  0  0  0  0  0  0  0  0  0
  129.4623  126.5863   64.1107 H   0  0  0  0  0  0  0  0  0  0  0  0
  131.2847  125.3930   65.2897 H   0  0  0  0  0  0  0  0  0  0  0  0
  133.4732  124.5250   66.3386 H   0  0  0  0  0  0  0  0  0  0  0  0
  135.0102  125.0580   65.5768 H   0  0  0  0  0  0  0  0  0  0  0  0
  133.5825  126.1481   65.5768 H   0  0  0  0  0  0  0  0  0  0  0  0
  133.5316  125.1792   61.6088 H   0  0  0  0  0  0  0  0  0  0  0  0
  131.7083  126.3726   60.4281 H   0  0  0  0  0  0  0  0  0  0  0  0
  129.7171  129.2359   62.3165 H   0  0  0  0  0  0  0  0  0  0  0  0
  129.2409  131.4018   59.7163 H   0  0  0  0  0  0  0  0  0  0  0  0
  128.8285  133.8137   60.1428 H   0  0  0  0  0  0  0  0  0  0  0  0
  127.1102  136.7127   61.0004 H   0  0  0  0  0  0  0  0  0  0  0  0
  128.0481  135.4875   60.0807 H   0  0  0  0  0  0  0  0  0  0  0  0
  126.2528  135.4298   60.0807 H   0  0  0  0  0  0  0  0  0  0  0  0
  125.8906  132.7841   63.1400 H   0  0  0  0  0  0  0  0  0  0  0  0
  126.3078  130.3706   62.7155 H   0  0  0  0  0  0  0  0  0  0  0  0
  130.5224  124.3905   58.8777 H   0  0  0  0  0  0  0  0  0  0  0  0
  132.6704  123.1788   59.1776 H   0  0  0  0  0  0  0  0  0  0  0  0
  1  2  1  0
  2  3  1  0
  3  4  1  0
  4  5  2  0
  4  6  1  0
  6  7  2  0
  7  8  1  0
  8  9  2  0
  9 10  1  0
 10 11  1  0
 11 12  2  0
 11 13  1  0
 13 14  1  0
 14 15  1  0
 15 16  2  0
 16 17  1  0
 17 18  1  0
 18 19  2  0
 19 20  1  0
 20 21  2  0
 21 22  1  0
 22 23  1  0
 21 24  1  0
 24 25  2  0
 17 26  2  0
 26 27  1  0
 27 28  1  0
 28 29  2  0
 29 30  1  0
 30 31  2  0
 31 32  1  0
 32 33  1  0
 31 34  1  0
 34 35  2  0
 27 36  2  0
 36 37  1  0
 37 38  3  0
  9 39  1  0
 39 40  2  0
 40  6  1  0
 36 15  1  0
 25 18  1  0
 35 28  1  0
  1 41  1  0
  1 42  1  0
  1 43  1  0
  2 44  1  0
  2 45  1  0
  7 46  1  0
  8 47  1  0
 10 48  1  0
 13 49  1  0
 13 50  1  0
 19 51  1  0
 20 52  1  0
 23 53  1  0
 23 54  1  0
 23 55  1  0
 24 56  1  0
 25 57  1  0
 26 58  1  0
 29 59  1  0
 30 60  1  0
 33 61  1  0
 33 62  1  0
 33 63  1  0
 34 64  1  0
 35 65  1  0
 39 66  1  0
 40 67  1  0
M  END
>  <Binding energies>  (1) 
[-7.3]

>  <Ligand effiencies>  (1) 
[-0.17804878048780487]

>  <Interactions>  (1) 
["H-A:GLY:454:N:4048, V-A:GLU:543:CD:4906, V-A:ASP:366:CG:3211, V-A:HIS:456:CE1:4068, V-B:TYR:539:CE2:9848, V-A:ARG:545:CD:4921, V-A:GLY:453:CA:4042, V-A:ILE:369:CD1:3237, V-A:ILE:369:CG2:3235, V-A:ARG:545:CG:4920, V-B:GLU:543:CD:9880, V-A:ARG:545:CZ:4924, V-A:GLY:454:CA:4047, V-B:ASP:366:CG:8185, V-B:TYR:539:CD2:9846, V-B:PRO:540:CA:9855, H-B:ALA:541:N:9863, V-B:ALA:541:CB:9864, V-A:TYR:539:CD2:4872, V-A:TYR:484:CZ:4345, V-A:LEU:475:CD2:4257, V-B:LEU:475:CD2:9231, V-A:ALA:541:CB:4890, H-A:TYR:484:OH:4346, V-B:PRO:482:CG:9299, V-B:PRO:482:CB:9298, V-B:TRP:381:CZ2:8342, V-B:TRP:381:CH2:8344, V-A:TRP:381:CH2:3370, V-A:GLY:453:C:4040, V-B:TRP:381:CZ3:8343"]

$$$$
1a_Grossjean_2025
     RDKit          3D

 45 46  0  0  0  0  0  0  0  0999 V2000
  131.1080  125.9030   73.0060 C   0  0  0  0  0  0  0  0  0  0  0  0
  129.6700  125.7510   72.5000 C   0  0  0  0  0  0  0  0  0  0  0  0
  128.9150  126.8990   72.8650 O   0  0  0  0  0  0  0  0  0  0  0  0
  128.8870  128.0000   72.0700 C   0  0  0  0  0  0  0  0  0  0  0  0
  128.6380  129.1350   72.4890 O   0  0  0  0  0  0  0  0  0  0  0  0
  129.1730  127.6980   70.6270 C   0  0  0  0  0  0  0  0  0  0  0  0
  130.5030  127.6490   70.1890 C   0  0  0  0  0  0  0  0  0  0  0  0
  130.8010  127.3760   68.8580 C   0  0  0  0  0  0  0  0  0  0  0  0
  129.7780  127.1480   67.9360 C   0  0  0  0  0  0  0  0  0  0  0  0
  130.1940  126.8840   66.6160 N   0  0  0  0  0  0  0  0  0  0  0  0
  130.5160  125.7140   66.0250 C   0  0  0  0  0  0  0  0  0  0  0  0
  130.5000  124.6100   66.5690 O   0  0  0  0  0  0  0  0  0  0  0  0
  130.9300  125.8140   64.5560 C   0  0  0  0  0  0  0  0  0  0  0  0
  132.5470  125.0430   64.2450 S   0  0  0  0  0  0  0  0  0  0  0  0
  132.3760  124.0000   62.8140 C   0  0  0  0  0  0  0  0  0  0  0  0
  133.2390  124.3010   61.8110 N   0  0  0  0  0  0  0  0  0  0  0  0
  133.1910  123.5720   60.6710 C   0  0  0  0  0  0  0  0  0  0  0  0
  134.1760  123.9740   59.5900 C   0  0  0  0  0  0  0  0  0  0  0  0
  132.2980  122.5180   60.4890 C   0  0  0  0  0  0  0  0  0  0  0  0
  131.4180  122.1860   61.5250 C   0  0  0  0  0  0  0  0  0  0  0  0
  130.4590  121.0170   61.3090 C   0  0  0  0  0  0  0  0  0  0  0  0
  131.4520  122.9320   62.7270 C   0  0  0  0  0  0  0  0  0  0  0  0
  130.5740  122.5710   63.8430 C   0  0  0  0  0  0  0  0  0  0  0  0
  129.8800  122.2850   64.7230 N   0  0  0  0  0  0  0  0  0  0  0  0
  128.4440  127.1880   68.3670 C   0  0  0  0  0  0  0  0  0  0  0  0
  128.1470  127.4620   69.6990 C   0  0  0  0  0  0  0  0  0  0  0  0
  131.1115  125.9034   74.1060 H   0  0  0  0  0  0  0  0  0  0  0  0
  131.7169  125.0642   72.6377 H   0  0  0  0  0  0  0  0  0  0  0  0
  131.5281  126.8506   72.6377 H   0  0  0  0  0  0  0  0  0  0  0  0
  129.6756  125.6489   71.4048 H   0  0  0  0  0  0  0  0  0  0  0  0
  129.2160  124.8556   72.9496 H   0  0  0  0  0  0  0  0  0  0  0  0
  131.3192  127.8281   70.9044 H   0  0  0  0  0  0  0  0  0  0  0  0
  131.8502  127.3395   68.5297 H   0  0  0  0  0  0  0  0  0  0  0  0
  130.2220  127.7010   66.0250 H   0  0  0  0  0  0  0  0  0  0  0  0
  130.1721  125.3090   63.9391 H   0  0  0  0  0  0  0  0  0  0  0  0
  131.0091  126.8806   64.2990 H   0  0  0  0  0  0  0  0  0  0  0  0
  135.0985  124.3505   60.0561 H   0  0  0  0  0  0  0  0  0  0  0  0
  134.4113  123.1000   58.9649 H   0  0  0  0  0  0  0  0  0  0  0  0
  133.7326  124.7631   58.9649 H   0  0  0  0  0  0  0  0  0  0  0  0
  132.2850  121.9548   59.5442 H   0  0  0  0  0  0  0  0  0  0  0  0
  130.1358  120.6230   62.2838 H   0  0  0  0  0  0  0  0  0  0  0  0
  129.5809  121.3627   60.7438 H   0  0  0  0  0  0  0  0  0  0  0  0
  130.9697  120.2234   60.7438 H   0  0  0  0  0  0  0  0  0  0  0  0
  127.6303  127.0023   67.6505 H   0  0  0  0  0  0  0  0  0  0  0  0
  127.0977  127.4939   70.0275 H   0  0  0  0  0  0  0  0  0  0  0  0
  1  2  1  0
  2  3  1  0
  3  4  1  0
  4  5  2  0
  4  6  1  0
  6  7  2  0
  7  8  1  0
  8  9  2  0
  9 10  1  0
 10 11  1  0
 11 12  2  0
 11 13  1  0
 13 14  1  0
 14 15  1  0
 15 16  2  0
 16 17  1  0
 17 18  1  0
 17 19  2  0
 19 20  1  0
 20 21  1  0
 20 22  2  0
 22 23  1  0
 23 24  3  0
  9 25  1  0
 25 26  2  0
 26  6  1  0
 22 15  1  0
  1 27  1  0
  1 28  1  0
  1 29  1  0
  2 30  1  0
  2 31  1  0
  7 32  1  0
  8 33  1  0
 10 34  1  0
 13 35  1  0
 13 36  1  0
 18 37  1  0
 18 38  1  0
 18 39  1  0
 19 40  1  0
 21 41  1  0
 21 42  1  0
 21 43  1  0
 25 44  1  0
 26 45  1  0
M  END
>  <Binding energies>  (1) 
[-7.84]

>  <Ligand effiencies>  (1) 
[-0.2903703703703704]

>  <Interactions>  (1) 
["V-A:GLU:543:CD:4906, V-A:ASP:366:CG:3211, V-B:GLU:543:CG:9879, V-A:HIS:456:CE1:4068, V-A:ASP:366:CB:3210, V-A:ILE:369:CB:3234, V-B:TYR:539:CE2:9848, V-A:ILE:369:CD1:3237, V-A:ILE:369:CG2:3235, V-A:ARG:545:CG:4920, V-B:GLU:543:CD:9880, V-B:GLU:543:CB:9878, V-A:ASP:366:CA:3208, V-A:HIS:456:CD2:4066, V-B:LYS:547:CE:9922, V-B:GLU:543:C:9874, V-B:ALA:541:CB:9864, V-A:TYR:484:CZ:4345, V-A:LEU:475:CD2:4257, H-A:TYR:484:OH:4346, H-A:GLU:543:OE1:4907, H-A:GLU:543:OE2:4908, H-B:GLU:543:OE2:9882, V-B:HIS:456:CE1:9042, H-A:ARG:545:NE:4922, V-A:GLU:543:CG:4905, V-A:TYR:484:CE1:4343, H-B:LYS:547:NZ:9923, H-A:LYS:547:NZ:4949, V-A:GLY:544:C:4910, V-A:GLU:543:C:4900, V-B:GLY:544:C:9884, V-A:HIS:456:CB:4063, V-A:HIS:456:CG:4064, V-A:GLY:544:CA:4912"]

$$$$
1aa_Ghoteimi_2023
     RDKit          3D

 67 70  0  0  0  0  0  0  0  0999 V2000
  128.2720  132.4280   73.6640 C   0  0  0  0  0  0  0  0  0  0  0  0
  127.7190  131.0030   73.7690 C   0  0  0  0  0  0  0  0  0  0  0  0
  128.5160  130.1270   72.9820 O   0  0  0  0  0  0  0  0  0  0  0  0
  128.2640  128.7930   72.9450 C   0  0  0  0  0  0  0  0  0  0  0  0
  127.8390  128.1540   73.9120 O   0  0  0  0  0  0  0  0  0  0  0  0
  128.5530  128.1710   71.6090 C   0  0  0  0  0  0  0  0  0  0  0  0
  127.5490  127.9790   70.6470 C   0  0  0  0  0  0  0  0  0  0  0  0
  127.8470  127.3990   69.4160 C   0  0  0  0  0  0  0  0  0  0  0  0
  129.1600  127.0020   69.1240 C   0  0  0  0  0  0  0  0  0  0  0  0
  129.5770  126.4070   67.9190 N   0  0  0  0  0  0  0  0  0  0  0  0
  130.5320  126.7860   67.0390 C   0  0  0  0  0  0  0  0  0  0  0  0
  131.2470  127.7810   67.1610 O   0  0  0  0  0  0  0  0  0  0  0  0
  130.7360  125.9030   65.7970 C   0  0  0  0  0  0  0  0  0  0  0  0
  129.9440  126.3830   64.7040 O   0  0  0  0  0  0  0  0  0  0  0  0
  130.3700  126.2020   63.3960 C   0  0  0  0  0  0  0  0  0  0  0  0
  130.3650  127.2810   62.5650 N   0  0  0  0  0  0  0  0  0  0  0  0
  130.7620  127.1410   61.2730 C   0  0  0  0  0  0  0  0  0  0  0  0
  130.7300  128.3790   60.4230 C   0  0  0  0  0  0  0  0  0  0  0  0
  130.6240  128.2930   59.0270 C   0  0  0  0  0  0  0  0  0  0  0  0
  130.5950  129.4390   58.2360 C   0  0  0  0  0  0  0  0  0  0  0  0
  130.6700  130.7040   58.8150 C   0  0  0  0  0  0  0  0  0  0  0  0
  130.6360  131.7830   57.9530 O   0  0  0  0  0  0  0  0  0  0  0  0
  129.3870  132.2000   57.4130 C   0  0  0  0  0  0  0  0  0  0  0  0
  130.7710  130.8060   60.2100 C   0  0  0  0  0  0  0  0  0  0  0  0
  130.7980  129.6590   60.9970 C   0  0  0  0  0  0  0  0  0  0  0  0
  131.1960  125.9000   60.7900 C   0  0  0  0  0  0  0  0  0  0  0  0
  131.2210  124.7760   61.6270 C   0  0  0  0  0  0  0  0  0  0  0  0
  131.7040  123.4840   61.0550 C   0  0  0  0  0  0  0  0  0  0  0  0
  133.0740  123.2090   60.9980 C   0  0  0  0  0  0  0  0  0  0  0  0
  133.5320  122.0030   60.4750 C   0  0  0  0  0  0  0  0  0  0  0  0
  132.6330  121.0460   60.0060 C   0  0  0  0  0  0  0  0  0  0  0  0
  133.1780  119.8800   59.5050 O   0  0  0  0  0  0  0  0  0  0  0  0
  134.2370  119.2480   60.2140 C   0  0  0  0  0  0  0  0  0  0  0  0
  131.2570  121.3150   60.0690 C   0  0  0  0  0  0  0  0  0  0  0  0
  130.8010  122.5220   60.5910 C   0  0  0  0  0  0  0  0  0  0  0  0
  130.7870  124.9320   62.9640 C   0  0  0  0  0  0  0  0  0  0  0  0
  130.7370  123.8060   63.8990 C   0  0  0  0  0  0  0  0  0  0  0  0
  130.6970  122.9180   64.6400 N   0  0  0  0  0  0  0  0  0  0  0  0
  130.1600  127.1900   70.0800 C   0  0  0  0  0  0  0  0  0  0  0  0
  129.8610  127.7680   71.3090 C   0  0  0  0  0  0  0  0  0  0  0  0
  128.4301  132.8353   74.6735 H   0  0  0  0  0  0  0  0  0  0  0  0
  129.2288  132.4110   73.1215 H   0  0  0  0  0  0  0  0  0  0  0  0
  127.5542  133.0608   73.1215 H   0  0  0  0  0  0  0  0  0  0  0  0
  127.7429  130.6767   74.8192 H   0  0  0  0  0  0  0  0  0  0  0  0
  126.6818  130.9839   73.4031 H   0  0  0  0  0  0  0  0  0  0  0  0
  126.5170  128.2895   70.8673 H   0  0  0  0  0  0  0  0  0  0  0  0
  127.0508  127.2521   68.6714 H   0  0  0  0  0  0  0  0  0  0  0  0
  129.0800  125.5590   67.6860 H   0  0  0  0  0  0  0  0  0  0  0  0
  131.7978  125.9216   65.5102 H   0  0  0  0  0  0  0  0  0  0  0  0
  130.4256  124.8752   66.0366 H   0  0  0  0  0  0  0  0  0  0  0  0
  130.5628  127.3042   58.5491 H   0  0  0  0  0  0  0  0  0  0  0  0
  130.5121  129.3444   57.1432 H   0  0  0  0  0  0  0  0  0  0  0  0
  128.6920  132.4320   58.2334 H   0  0  0  0  0  0  0  0  0  0  0  0
  129.5363  133.0970   56.7941 H   0  0  0  0  0  0  0  0  0  0  0  0
  128.9674  131.3932   56.7941 H   0  0  0  0  0  0  0  0  0  0  0  0
  130.8291  131.7970   60.6840 H   0  0  0  0  0  0  0  0  0  0  0  0
  130.8741  129.7566   62.0900 H   0  0  0  0  0  0  0  0  0  0  0  0
  131.5205  125.8065   59.7431 H   0  0  0  0  0  0  0  0  0  0  0  0
  133.7955  123.9517   61.3694 H   0  0  0  0  0  0  0  0  0  0  0  0
  134.6128  121.8032   60.4313 H   0  0  0  0  0  0  0  0  0  0  0  0
  134.0661  119.3500   61.2958 H   0  0  0  0  0  0  0  0  0  0  0  0
  134.2716  118.1814   59.9472 H   0  0  0  0  0  0  0  0  0  0  0  0
  135.1922  119.7239   59.9472 H   0  0  0  0  0  0  0  0  0  0  0  0
  130.5358  120.5687   59.7043 H   0  0  0  0  0  0  0  0  0  0  0  0
  129.7203  122.7212   60.6391 H   0  0  0  0  0  0  0  0  0  0  0  0
  131.1917  126.8787   69.8595 H   0  0  0  0  0  0  0  0  0  0  0  0
  130.6589  127.9102   72.0527 H   0  0  0  0  0  0  0  0  0  0  0  0
  1  2  1  0
  2  3  1  0
  3  4  1  0
  4  5  2  0
  4  6  1  0
  6  7  2  0
  7  8  1  0
  8  9  2  0
  9 10  1  0
 10 11  1  0
 11 12  2  0
 11 13  1  0
 13 14  1  0
 14 15  1  0
 15 16  2  0
 16 17  1  0
 17 18  1  0
 18 19  2  0
 19 20  1  0
 20 21  2  0
 21 22  1  0
 22 23  1  0
 21 24  1  0
 24 25  2  0
 17 26  2  0
 26 27  1  0
 27 28  1  0
 28 29  2  0
 29 30  1  0
 30 31  2  0
 31 32  1  0
 32 33  1  0
 31 34  1  0
 34 35  2  0
 27 36  2  0
 36 37  1  0
 37 38  3  0
  9 39  1  0
 39 40  2  0
 40  6  1  0
 36 15  1  0
 25 18  1  0
 35 28  1  0
  1 41  1  0
  1 42  1  0
  1 43  1  0
  2 44  1  0
  2 45  1  0
  7 46  1  0
  8 47  1  0
 10 48  1  0
 13 49  1  0
 13 50  1  0
 19 51  1  0
 20 52  1  0
 23 53  1  0
 23 54  1  0
 23 55  1  0
 24 56  1  0
 25 57  1  0
 26 58  1  0
 29 59  1  0
 30 60  1  0
 33 61  1  0
 33 62  1  0
 33 63  1  0
 34 64  1  0
 35 65  1  0
 39 66  1  0
 40 67  1  0
M  END
>  <Binding energies>  (1) 
[-6.47]

>  <Ligand effiencies>  (1) 
[-0.1578048780487805]

>  <Interactions>  (1) 
["V-A:GLU:543:CD:4906, V-A:ASP:366:CG:3211, V-B:GLU:543:CG:9879, V-A:HIS:456:CE1:4068, V-B:TYR:539:CE2:9848, V-A:ILE:369:CD1:3237, V-A:ILE:369:CG2:3235, V-A:ARG:545:CG:4920, V-B:GLU:543:CD:9880, V-B:GLU:543:CB:9878, V-A:HIS:456:CD2:4066, V-B:GLU:543:C:9874, V-B:TYR:539:CD2:9846, V-A:TYR:539:CD2:4872, V-A:LEU:475:CD2:4257, V-A:TYR:539:C:4865, H-A:TYR:484:OH:4346, H-A:ARG:545:NH2:4926, H-B:GLU:543:OE2:9882, V-A:PRO:540:CA:4881, V-B:HIS:456:CE1:9042, H-A:ARG:545:NE:4922, V-A:GLU:543:CG:4905, V-A:TYR:539:CG:4870, V-A:PRO:540:N:4882, V-A:TRP:381:CZ2:3368, V-A:TRP:381:CH2:3370, V-B:HIS:456:CG:9038, H-B:LYS:547:NZ:9923, H-A:LYS:547:NZ:4949, V-B:HIS:456:CB:9037, V-A:GLY:544:C:4910, H-A:HIS:456:NE2:4069, H-B:GLU:543:O:9875, V-B:HIS:456:CD2:9040, V-B:GLY:544:C:9884, V-A:LYS:547:CE:4948, V-A:GLY:544:CA:4912, V-A:SER:385:CA:3405, V-A:SER:385:C:3403, V-A:SER:385:CB:3407"]

$$$$
1b_Ghoteimi_2023
     RDKit          3D

 54 57  0  0  0  0  0  0  0  0999 V2000
  123.7680  132.4230   62.4630 C   0  0  0  0  0  0  0  0  0  0  0  0
  123.9090  131.1650   63.1120 O   0  0  0  0  0  0  0  0  0  0  0  0
  124.9320  130.3200   62.7270 C   0  0  0  0  0  0  0  0  0  0  0  0
  125.0850  130.1070   61.3580 C   0  0  0  0  0  0  0  0  0  0  0  0
  126.0880  129.2700   60.8770 C   0  0  0  0  0  0  0  0  0  0  0  0
  126.9730  128.6220   61.7520 C   0  0  0  0  0  0  0  0  0  0  0  0
  128.0530  127.7180   61.2290 C   0  0  0  0  0  0  0  0  0  0  0  0
  129.0550  127.1790   62.0430 C   0  0  0  0  0  0  0  0  0  0  0  0
  130.0380  126.3370   61.5070 C   0  0  0  0  0  0  0  0  0  0  0  0
  131.0790  125.8020   62.4340 C   0  0  0  0  0  0  0  0  0  0  0  0
  130.7920  125.6240   63.7900 C   0  0  0  0  0  0  0  0  0  0  0  0
  131.7610  125.1340   64.6600 C   0  0  0  0  0  0  0  0  0  0  0  0
  133.0380  124.8170   64.1940 C   0  0  0  0  0  0  0  0  0  0  0  0
  133.9350  124.3380   65.1290 O   0  0  0  0  0  0  0  0  0  0  0  0
  134.2360  125.1310   66.2720 C   0  0  0  0  0  0  0  0  0  0  0  0
  133.3330  125.0020   62.8350 C   0  0  0  0  0  0  0  0  0  0  0  0
  132.3610  125.4930   61.9680 C   0  0  0  0  0  0  0  0  0  0  0  0
  129.9850  126.0350   60.1240 C   0  0  0  0  0  0  0  0  0  0  0  0
  130.9320  125.0850   59.5330 C   0  0  0  0  0  0  0  0  0  0  0  0
  131.6800  124.3340   59.0670 N   0  0  0  0  0  0  0  0  0  0  0  0
  128.9600  126.6290   59.3540 C   0  0  0  0  0  0  0  0  0  0  0  0
  128.7440  126.3710   57.6050 S   0  0  0  0  0  0  0  0  0  0  0  0
  128.6600  124.5730   57.3090 C   0  0  0  0  0  0  0  0  0  0  0  0
  127.8780  123.7770   58.3630 C   0  0  0  0  0  0  0  0  0  0  0  0
  127.9640  122.5480   58.4150 O   0  0  0  0  0  0  0  0  0  0  0  0
  127.1180  124.5300   59.1890 N   0  0  0  0  0  0  0  0  0  0  0  0
  126.3110  124.0850   60.2290 C   0  0  0  0  0  0  0  0  0  0  0  0
  124.9180  124.0930   60.1700 C   0  0  0  0  0  0  0  0  0  0  0  0
  124.5060  123.5810   61.3790 C   0  0  0  0  0  0  0  0  0  0  0  0
  125.5940  123.2790   62.1270 O   0  0  0  0  0  0  0  0  0  0  0  0
  126.7320  123.6020   61.3870 N   0  0  0  0  0  0  0  0  0  0  0  0
  128.0130  127.4290   59.9020 N   0  0  0  0  0  0  0  0  0  0  0  0
  126.8090  128.8420   63.1290 C   0  0  0  0  0  0  0  0  0  0  0  0
  125.8060  129.6770   63.6140 C   0  0  0  0  0  0  0  0  0  0  0  0
  123.6790  133.2175   63.2186 H   0  0  0  0  0  0  0  0  0  0  0  0
  124.6506  132.6122   61.8343 H   0  0  0  0  0  0  0  0  0  0  0  0
  122.8655  132.4121   61.8343 H   0  0  0  0  0  0  0  0  0  0  0  0
  124.4062  130.6055   60.6504 H   0  0  0  0  0  0  0  0  0  0  0  0
  126.1884  129.1140   59.7928 H   0  0  0  0  0  0  0  0  0  0  0  0
  129.0712  127.4191   63.1164 H   0  0  0  0  0  0  0  0  0  0  0  0
  129.7914  125.8734   64.1729 H   0  0  0  0  0  0  0  0  0  0  0  0
  131.5187  124.9953   65.7240 H   0  0  0  0  0  0  0  0  0  0  0  0
  134.0180  124.5567   67.1845 H   0  0  0  0  0  0  0  0  0  0  0  0
  135.3010  125.4059   66.2574 H   0  0  0  0  0  0  0  0  0  0  0  0
  133.6216  126.0433   66.2574 H   0  0  0  0  0  0  0  0  0  0  0  0
  134.3355  124.7583   62.4534 H   0  0  0  0  0  0  0  0  0  0  0  0
  132.6037  125.6395   60.9052 H   0  0  0  0  0  0  0  0  0  0  0  0
  128.1797  124.4101   56.3329 H   0  0  0  0  0  0  0  0  0  0  0  0
  129.6960  124.2058   57.3532 H   0  0  0  0  0  0  0  0  0  0  0  0
  127.1390  125.5300   59.0530 H   0  0  0  0  0  0  0  0  0  0  0  0
  124.2854  124.4346   59.3374 H   0  0  0  0  0  0  0  0  0  0  0  0
  123.4600  123.4396   61.6886 H   0  0  0  0  0  0  0  0  0  0  0  0
  127.4865  128.3447   63.8388 H   0  0  0  0  0  0  0  0  0  0  0  0
  125.6991  129.8326   64.6977 H   0  0  0  0  0  0  0  0  0  0  0  0
  1  2  1  0
  2  3  1  0
  3  4  2  0
  4  5  1  0
  5  6  2  0
  6  7  1  0
  7  8  2  0
  8  9  1  0
  9 10  1  0
 10 11  2  0
 11 12  1  0
 12 13  2  0
 13 14  1  0
 14 15  1  0
 13 16  1  0
 16 17  2  0
  9 18  2  0
 18 19  1  0
 19 20  3  0
 18 21  1  0
 21 22  1  0
 22 23  1  0
 23 24  1  0
 24 25  2  0
 24 26  1  0
 26 27  1  0
 27 28  1  0
 28 29  2  0
 29 30  1  0
 30 31  1  0
 21 32  2  0
  6 33  1  0
 33 34  2  0
 34  3  1  0
 32  7  1  0
 17 10  1  0
 31 27  2  0
  1 35  1  0
  1 36  1  0
  1 37  1  0
  4 38  1  0
  5 39  1  0
  8 40  1  0
 11 41  1  0
 12 42  1  0
 15 43  1  0
 15 44  1  0
 15 45  1  0
 16 46  1  0
 17 47  1  0
 23 48  1  0
 23 49  1  0
 26 50  1  0
 28 51  1  0
 29 52  1  0
 33 53  1  0
 34 54  1  0
M  END
>  <Binding energies>  (1) 
[-7.06]

>  <Ligand effiencies>  (1) 
[-0.2017142857142857]

>  <Interactions>  (1) 
["H-A:GLY:454:N:4048, V-A:HIS:456:CE1:4068, V-A:ARG:545:CD:4921, V-A:ARG:545:CG:4920, V-B:GLU:543:CD:9880, V-A:ARG:545:CZ:4924, V-B:ASN:362:CB:8148, V-B:PRO:540:CB:9857, V-B:ASP:366:CG:8185, V-B:PRO:540:C:9853, V-B:PRO:540:CA:9855, H-B:ALA:541:N:9863, V-B:GLY:454:CA:9021, V-B:LEU:475:CD2:9231, H-B:GLY:454:N:9022, V-B:ARG:545:CZ:9898, H-A:TYR:484:OH:4346, V-B:ILE:369:CD1:8211, H-B:ASP:366:OD2:8187, V-A:ARG:545:CB:4919"]

$$$$
1b_Grossjean_2025
     RDKit          3D

 42 43  0  0  0  0  0  0  0  0999 V2000
  129.0430  125.6090   72.2360 C   0  0  0  0  0  0  0  0  0  0  0  0
  128.7340  126.8910   72.7670 O   0  0  0  0  0  0  0  0  0  0  0  0
  128.7560  127.9960   71.9790 C   0  0  0  0  0  0  0  0  0  0  0  0
  128.4900  129.1300   72.3900 O   0  0  0  0  0  0  0  0  0  0  0  0
  129.1420  127.7050   70.5570 C   0  0  0  0  0  0  0  0  0  0  0  0
  130.4830  127.6500   70.1490 C   0  0  0  0  0  0  0  0  0  0  0  0
  130.8070  127.3780   68.8230 C   0  0  0  0  0  0  0  0  0  0  0  0
  129.8040  127.1560   67.8800 C   0  0  0  0  0  0  0  0  0  0  0  0
  130.2480  126.8920   66.5700 N   0  0  0  0  0  0  0  0  0  0  0  0
  130.5650  125.7190   65.9780 C   0  0  0  0  0  0  0  0  0  0  0  0
  130.5110  124.6120   66.5100 O   0  0  0  0  0  0  0  0  0  0  0  0
  131.0110  125.8230   64.5180 C   0  0  0  0  0  0  0  0  0  0  0  0
  132.6190  125.0220   64.2350 S   0  0  0  0  0  0  0  0  0  0  0  0
  132.4390  123.9570   62.8200 C   0  0  0  0  0  0  0  0  0  0  0  0
  133.2580  124.2780   61.7870 N   0  0  0  0  0  0  0  0  0  0  0  0
  133.2050  123.5320   60.6590 C   0  0  0  0  0  0  0  0  0  0  0  0
  134.1590  123.9400   59.5520 C   0  0  0  0  0  0  0  0  0  0  0  0
  132.3350  122.4530   60.5120 C   0  0  0  0  0  0  0  0  0  0  0  0
  131.4720  122.1280   61.5630 C   0  0  0  0  0  0  0  0  0  0  0  0
  130.5160  120.9520   61.3720 C   0  0  0  0  0  0  0  0  0  0  0  0
  131.5090  122.8930   62.7500 C   0  0  0  0  0  0  0  0  0  0  0  0
  130.5840  122.5990   63.8470 C   0  0  0  0  0  0  0  0  0  0  0  0
  129.8510  122.3640   64.7120 N   0  0  0  0  0  0  0  0  0  0  0  0
  128.4610  127.2080   68.2800 C   0  0  0  0  0  0  0  0  0  0  0  0
  128.1380  127.4790   69.6060 C   0  0  0  0  0  0  0  0  0  0  0  0
  129.2135  124.9018   73.0611 H   0  0  0  0  0  0  0  0  0  0  0  0
  128.2042  125.2562   71.6180 H   0  0  0  0  0  0  0  0  0  0  0  0
  129.9505  125.6771   71.6180 H   0  0  0  0  0  0  0  0  0  0  0  0
  131.2844  127.8231   70.8824 H   0  0  0  0  0  0  0  0  0  0  0  0
  131.8627  127.3378   68.5165 H   0  0  0  0  0  0  0  0  0  0  0  0
  130.3530  127.7180   65.9990 H   0  0  0  0  0  0  0  0  0  0  0  0
  130.2563  125.3382   63.8812 H   0  0  0  0  0  0  0  0  0  0  0  0
  131.1159  126.8898   64.2711 H   0  0  0  0  0  0  0  0  0  0  0  0
  135.0853  124.3361   59.9937 H   0  0  0  0  0  0  0  0  0  0  0  0
  134.3949  123.0640   58.9299 H   0  0  0  0  0  0  0  0  0  0  0  0
  133.6885  124.7156   58.9299 H   0  0  0  0  0  0  0  0  0  0  0  0
  132.3274  121.8654   59.5821 H   0  0  0  0  0  0  0  0  0  0  0  0
  130.2047  120.5691   62.3551 H   0  0  0  0  0  0  0  0  0  0  0  0
  129.6305  121.2866   60.8117 H   0  0  0  0  0  0  0  0  0  0  0  0
  131.0243  120.1535   60.8117 H   0  0  0  0  0  0  0  0  0  0  0  0
  127.6617  127.0343   67.5445 H   0  0  0  0  0  0  0  0  0  0  0  0
  127.0819  127.5163   69.9114 H   0  0  0  0  0  0  0  0  0  0  0  0
  1  2  1  0
  2  3  1  0
  3  4  2  0
  3  5  1  0
  5  6  2  0
  6  7  1  0
  7  8  2  0
  8  9  1  0
  9 10  1  0
 10 11  2  0
 10 12  1  0
 12 13  1  0
 13 14  1  0
 14 15  2  0
 15 16  1  0
 16 17  1  0
 16 18  2  0
 18 19  1  0
 19 20  1  0
 19 21  2  0
 21 22  1  0
 22 23  3  0
  8 24  1  0
 24 25  2  0
 25  5  1  0
 21 14  1  0
  1 26  1  0
  1 27  1  0
  1 28  1  0
  6 29  1  0
  7 30  1  0
  9 31  1  0
 12 32  1  0
 12 33  1  0
 17 34  1  0
 17 35  1  0
 17 36  1  0
 18 37  1  0
 20 38  1  0
 20 39  1  0
 20 40  1  0
 24 41  1  0
 25 42  1  0
M  END
>  <Binding energies>  (1) 
[-7.64]

>  <Ligand effiencies>  (1) 
[-0.2938461538461538]

>  <Interactions>  (1) 
["V-A:GLU:543:CD:4906, V-A:ASP:366:CG:3211, V-B:GLU:543:CG:9879, V-A:HIS:456:CE1:4068, V-A:ASP:366:CB:3210, V-A:ILE:369:CB:3234, V-B:TYR:539:CE2:9848, V-A:ILE:369:CD1:3237, V-A:ILE:369:CG2:3235, V-A:ARG:545:CG:4920, V-B:GLU:543:CD:9880, V-B:GLU:543:CB:9878, V-A:ASP:366:CA:3208, V-A:HIS:456:CD2:4066, V-B:LYS:547:CE:9922, V-B:GLU:543:C:9874, V-B:GLY:544:CA:9886, V-B:ALA:541:CB:9864, V-A:TYR:484:CZ:4345, V-A:LEU:475:CD2:4257, H-A:TYR:484:OH:4346, H-A:GLU:543:OE1:4907, H-A:GLU:543:OE2:4908, V-B:HIS:456:CE1:9042, H-A:ARG:545:NE:4922, V-A:GLU:543:CG:4905, V-A:TYR:484:CE1:4343, H-B:LYS:547:NZ:9923, H-A:LYS:547:NZ:4949, V-A:GLY:544:C:4910, V-A:GLU:543:C:4900, V-B:HIS:456:CD2:9040, V-B:GLY:544:C:9884, V-A:GLY:544:CA:4912"]

$$$$
1c_Ghoteimi_2023
     RDKit          3D

 54 57  0  0  0  0  0  0  0  0999 V2000
  123.7950  130.0000   66.1010 C   0  0  0  0  0  0  0  0  0  0  0  0
  124.1570  130.6050   64.8640 O   0  0  0  0  0  0  0  0  0  0  0  0
  125.1240  130.0080   64.0780 C   0  0  0  0  0  0  0  0  0  0  0  0
  124.8560  129.9240   62.7140 C   0  0  0  0  0  0  0  0  0  0  0  0
  125.7740  129.3360   61.8480 C   0  0  0  0  0  0  0  0  0  0  0  0
  126.9870  128.8130   62.3210 C   0  0  0  0  0  0  0  0  0  0  0  0
  127.9770  128.1740   61.3900 C   0  0  0  0  0  0  0  0  0  0  0  0
  128.2630  126.8050   61.4150 C   0  0  0  0  0  0  0  0  0  0  0  0
  129.1750  126.2490   60.5090 C   0  0  0  0  0  0  0  0  0  0  0  0
  129.3810  124.7710   60.5480 C   0  0  0  0  0  0  0  0  0  0  0  0
  128.6890  123.9330   59.6690 C   0  0  0  0  0  0  0  0  0  0  0  0
  128.8660  122.5540   59.7210 C   0  0  0  0  0  0  0  0  0  0  0  0
  129.7340  121.9860   60.6540 C   0  0  0  0  0  0  0  0  0  0  0  0
  129.8470  120.6090   60.6330 O   0  0  0  0  0  0  0  0  0  0  0  0
  131.1430  120.0190   60.6200 C   0  0  0  0  0  0  0  0  0  0  0  0
  130.4260  122.8240   61.5420 C   0  0  0  0  0  0  0  0  0  0  0  0
  130.2470  124.2040   61.4880 C   0  0  0  0  0  0  0  0  0  0  0  0
  129.8200  127.1100   59.5900 C   0  0  0  0  0  0  0  0  0  0  0  0
  130.8100  126.5950   58.6370 C   0  0  0  0  0  0  0  0  0  0  0  0
  131.5900  126.1870   57.8860 N   0  0  0  0  0  0  0  0  0  0  0  0
  129.4720  128.4760   59.6080 C   0  0  0  0  0  0  0  0  0  0  0  0
  130.0750  129.6380   58.4030 S   0  0  0  0  0  0  0  0  0  0  0  0
  131.1260  130.7880   59.3480 C   0  0  0  0  0  0  0  0  0  0  0  0
  130.3380  131.5390   60.4270 C   0  0  0  0  0  0  0  0  0  0  0  0
  130.9010  131.8730   61.4700 O   0  0  0  0  0  0  0  0  0  0  0  0
  129.0540  131.8190   60.1110 N   0  0  0  0  0  0  0  0  0  0  0  0
  128.1770  132.6120   60.8340 C   0  0  0  0  0  0  0  0  0  0  0  0
  127.5390  133.6880   60.4270 N   0  0  0  0  0  0  0  0  0  0  0  0
  126.7520  134.1690   61.3710 C   0  0  0  0  0  0  0  0  0  0  0  0
  126.7410  133.4730   62.5760 C   0  0  0  0  0  0  0  0  0  0  0  0
  127.8250  132.1190   62.4590 S   0  0  0  0  0  0  0  0  0  0  0  0
  128.5700  128.9890   60.4790 N   0  0  0  0  0  0  0  0  0  0  0  0
  127.2490  128.9100   63.6950 C   0  0  0  0  0  0  0  0  0  0  0  0
  126.3340  129.4950   64.5650 C   0  0  0  0  0  0  0  0  0  0  0  0
  124.1644  130.6174   66.9331 H   0  0  0  0  0  0  0  0  0  0  0  0
  122.6997  129.9188   66.1628 H   0  0  0  0  0  0  0  0  0  0  0  0
  124.2412  128.9965   66.1628 H   0  0  0  0  0  0  0  0  0  0  0  0
  123.9116  130.3254   62.3177 H   0  0  0  0  0  0  0  0  0  0  0  0
  125.5442  129.2805   60.7737 H   0  0  0  0  0  0  0  0  0  0  0  0
  127.7666  126.1585   62.1537 H   0  0  0  0  0  0  0  0  0  0  0  0
  127.9991  124.3672   58.9304 H   0  0  0  0  0  0  0  0  0  0  0  0
  128.3174  121.9066   59.0211 H   0  0  0  0  0  0  0  0  0  0  0  0
  131.4853  119.8632   61.6537 H   0  0  0  0  0  0  0  0  0  0  0  0
  131.1003  119.0516   60.0981 H   0  0  0  0  0  0  0  0  0  0  0  0
  131.8445  120.6865   60.0981 H   0  0  0  0  0  0  0  0  0  0  0  0
  131.1124  122.3891   62.2835 H   0  0  0  0  0  0  0  0  0  0  0  0
  130.7910  124.8529   62.1902 H   0  0  0  0  0  0  0  0  0  0  0  0
  131.9316  130.2158   59.8314 H   0  0  0  0  0  0  0  0  0  0  0  0
  131.5294  131.5319   58.6452 H   0  0  0  0  0  0  0  0  0  0  0  0
  128.7100  131.4810   59.2250 H   0  0  0  0  0  0  0  0  0  0  0  0
  126.1394  135.0691   61.2142 H   0  0  0  0  0  0  0  0  0  0  0  0
  126.1426  133.7371   63.4604 H   0  0  0  0  0  0  0  0  0  0  0  0
  128.1959  128.5161   64.0928 H   0  0  0  0  0  0  0  0  0  0  0  0
  126.5613  129.5551   65.6396 H   0  0  0  0  0  0  0  0  0  0  0  0
  1  2  1  0
  2  3  1  0
  3  4  2  0
  4  5  1  0
  5  6  2  0
  6  7  1  0
  7  8  2  0
  8  9  1  0
  9 10  1  0
 10 11  2  0
 11 12  1  0
 12 13  2  0
 13 14  1  0
 14 15  1  0
 13 16  1  0
 16 17  2  0
  9 18  2  0
 18 19  1  0
 19 20  3  0
 18 21  1  0
 21 22  1  0
 22 23  1  0
 23 24  1  0
 24 25  2  0
 24 26  1  0
 26 27  1  0
 27 28  2  0
 28 29  1  0
 29 30  2  0
 30 31  1  0
 21 32  2  0
  6 33  1  0
 33 34  2  0
 34  3  1  0
 32  7  1  0
 17 10  1  0
 31 27  1  0
  1 35  1  0
  1 36  1  0
  1 37  1  0
  4 38  1  0
  5 39  1  0
  8 40  1  0
 11 41  1  0
 12 42  1  0
 15 43  1  0
 15 44  1  0
 15 45  1  0
 16 46  1  0
 17 47  1  0
 23 48  1  0
 23 49  1  0
 26 50  1  0
 29 51  1  0
 30 52  1  0
 33 53  1  0
 34 54  1  0
M  END
>  <Binding energies>  (1) 
[-6.49]

>  <Ligand effiencies>  (1) 
[-0.18542857142857144]

>  <Interactions>  (1) 
["V-A:GLU:543:CD:4906, V-A:ASP:366:CG:3211, V-B:GLU:543:CD:9880, V-B:ASP:366:CG:8185, V-B:TYR:539:CD2:9846, V-B:ALA:541:CB:9864, V-B:GLY:454:CA:9021, V-A:TYR:539:CD2:4872, V-A:LEU:475:CD2:4257, V-B:LEU:475:CD2:9231, V-A:ALA:541:CB:4890, H-B:GLY:454:N:9022, V-B:TYR:539:C:9839, H-B:TYR:484:OH:9320, V-B:ARG:545:CZ:9898, V-A:PRO:540:CA:4881, V-B:HIS:456:CE1:9042, H-A:ALA:541:N:4889, V-B:ARG:545:CG:9894, V-A:TRP:381:CZ2:3368, V-A:TRP:381:CH2:3370, V-B:GLY:453:CA:9016, V-B:GLY:453:C:9014, V-B:ARG:545:CD:9895"]

$$$$
1c_Grossjean_2025
     RDKit          3D

 40 41  0  0  0  0  0  0  0  0999 V2000
  124.0110  132.4280   76.0020 C   0  0  0  0  0  0  0  0  0  0  0  0
  123.8080  131.0220   76.1010 O   0  0  0  0  0  0  0  0  0  0  0  0
  124.6400  130.1710   75.3990 C   0  0  0  0  0  0  0  0  0  0  0  0
  125.9550  130.5970   75.2160 C   0  0  0  0  0  0  0  0  0  0  0  0
  126.8690  129.8090   74.5230 C   0  0  0  0  0  0  0  0  0  0  0  0
  126.4720  128.5670   74.0040 C   0  0  0  0  0  0  0  0  0  0  0  0
  127.3100  127.6970   73.2800 N   0  0  0  0  0  0  0  0  0  0  0  0
  128.4630  127.9610   72.6300 C   0  0  0  0  0  0  0  0  0  0  0  0
  129.0150  129.0600   72.5720 O   0  0  0  0  0  0  0  0  0  0  0  0
  129.1080  126.7650   71.9260 C   0  0  0  0  0  0  0  0  0  0  0  0
  130.9080  126.7250   72.1710 S   0  0  0  0  0  0  0  0  0  0  0  0
  131.3130  125.2790   73.1290 C   0  0  0  0  0  0  0  0  0  0  0  0
  130.3640  124.3110   73.0730 N   0  0  0  0  0  0  0  0  0  0  0  0
  130.5610  123.1640   73.7630 C   0  0  0  0  0  0  0  0  0  0  0  0
  129.4620  122.1240   73.6430 C   0  0  0  0  0  0  0  0  0  0  0  0
  131.6960  122.9390   74.5390 C   0  0  0  0  0  0  0  0  0  0  0  0
  132.6690  123.9400   74.6250 C   0  0  0  0  0  0  0  0  0  0  0  0
  133.8960  123.6780   75.4960 C   0  0  0  0  0  0  0  0  0  0  0  0
  132.4830  125.1480   73.9140 C   0  0  0  0  0  0  0  0  0  0  0  0
  133.4650  126.2290   74.0350 C   0  0  0  0  0  0  0  0  0  0  0  0
  134.2410  127.0820   74.1300 N   0  0  0  0  0  0  0  0  0  0  0  0
  125.1530  128.1430   74.1750 C   0  0  0  0  0  0  0  0  0  0  0  0
  124.2420  128.9340   74.8690 C   0  0  0  0  0  0  0  0  0  0  0  0
  124.0736  132.8614   77.0111 H   0  0  0  0  0  0  0  0  0  0  0  0
  124.9470  132.6260   75.4592 H   0  0  0  0  0  0  0  0  0  0  0  0
  123.1692  132.8827   75.4592 H   0  0  0  0  0  0  0  0  0  0  0  0
  126.2737  131.5674   75.6242 H   0  0  0  0  0  0  0  0  0  0  0  0
  127.9021  130.1594   74.3821 H   0  0  0  0  0  0  0  0  0  0  0  0
  127.0190  126.7310   73.2970 H   0  0  0  0  0  0  0  0  0  0  0  0
  128.6735  125.8383   72.3291 H   0  0  0  0  0  0  0  0  0  0  0  0
  128.9126  126.8581   70.8475 H   0  0  0  0  0  0  0  0  0  0  0  0
  129.1370  121.8164   74.6479 H   0  0  0  0  0  0  0  0  0  0  0  0
  128.6090  122.5533   73.0971 H   0  0  0  0  0  0  0  0  0  0  0  0
  129.8436  121.2486   73.0971 H   0  0  0  0  0  0  0  0  0  0  0  0
  131.8250  121.9878   75.0763 H   0  0  0  0  0  0  0  0  0  0  0  0
  133.6122  123.7386   76.5570 H   0  0  0  0  0  0  0  0  0  0  0  0
  134.2922  122.6750   75.2791 H   0  0  0  0  0  0  0  0  0  0  0  0
  134.6673  124.4317   75.2791 H   0  0  0  0  0  0  0  0  0  0  0  0
  124.8314  127.1771   73.7584 H   0  0  0  0  0  0  0  0  0  0  0  0
  123.2063  128.5883   75.0025 H   0  0  0  0  0  0  0  0  0  0  0  0
  1  2  1  0
  2  3  1  0
  3  4  2  0
  4  5  1  0
  5  6  2  0
  6  7  1  0
  7  8  1  0
  8  9  2  0
  8 10  1  0
 10 11  1  0
 11 12  1  0
 12 13  2  0
 13 14  1  0
 14 15  1  0
 14 16  2  0
 16 17  1  0
 17 18  1  0
 17 19  2  0
 19 20  1  0
 20 21  3  0
  6 22  1  0
 22 23  2  0
 23  3  1  0
 19 12  1  0
  1 24  1  0
  1 25  1  0
  1 26  1  0
  4 27  1  0
  5 28  1  0
  7 29  1  0
 10 30  1  0
 10 31  1  0
 15 32  1  0
 15 33  1  0
 15 34  1  0
 16 35  1  0
 18 36  1  0
 18 37  1  0
 18 38  1  0
 22 39  1  0
 23 40  1  0
M  END
>  <Binding energies>  (1) 
[-7.5]

>  <Ligand effiencies>  (1) 
[-0.3125]

>  <Interactions>  (1) 
["V-A:HIS:456:CD2:4066, V-B:LYS:547:CE:9922, V-B:HIS:456:CG:9038, H-B:LYS:547:NZ:9923, V-B:LYS:471:CB:9189, V-B:LYS:471:CE:9192, V-B:VAL:457:C:9045, V-B:VAL:458:CG2:9059, H-A:LYS:547:NZ:4949, V-B:HIS:456:CB:9037, V-B:HIS:456:CA:9035, V-B:HIS:456:C:9033, V-B:VAL:457:CA:9047, V-B:LYS:471:C:9185, V-B:HIS:456:CD2:9040, V-B:GLY:544:C:9884, V-B:LYS:471:CG:9190, V-B:LYS:471:CD:9191, V-A:LYS:471:CD:4217, V-A:HIS:456:CB:4063, V-A:ASP:473:CG:4238, V-A:HIS:456:CG:4064, V-A:HIS:456:C:4059, V-A:LYS:471:CG:4216, V-A:VAL:458:CG2:4085, V-A:LYS:471:CE:4218, H-B:GLY:544:O:9885, V-B:ASP:473:CG:9212, V-B:LYS:547:CD:9921, V-B:ASP:473:CB:9211, V-B:ASP:473:CA:9209, V-B:LEU:472:CA:9200, V-B:LEU:472:C:9198"]

$$$$
1d_Ghoteimi_2023
     RDKit          3D

 50 52  0  0  0  0  0  0  0  0999 V2000
  123.9430  124.3110   61.0150 C   0  0  0  0  0  0  0  0  0  0  0  0
  125.0680  123.5030   61.3240 O   0  0  0  0  0  0  0  0  0  0  0  0
  126.2070  123.6110   60.6080 C   0  0  0  0  0  0  0  0  0  0  0  0
  127.3290  123.2480   60.9640 O   0  0  0  0  0  0  0  0  0  0  0  0
  125.9760  124.2620   59.2470 C   0  0  0  0  0  0  0  0  0  0  0  0
  127.5040  125.1350   58.7920 S   0  0  0  0  0  0  0  0  0  0  0  0
  128.1460  125.8720   60.2790 C   0  0  0  0  0  0  0  0  0  0  0  0
  127.3940  126.8970   60.7480 N   0  0  0  0  0  0  0  0  0  0  0  0
  127.7710  127.5520   61.8760 C   0  0  0  0  0  0  0  0  0  0  0  0
  126.8810  128.6720   62.3320 C   0  0  0  0  0  0  0  0  0  0  0  0
  125.9590  129.2710   61.4580 C   0  0  0  0  0  0  0  0  0  0  0  0
  125.1390  130.3130   61.8810 C   0  0  0  0  0  0  0  0  0  0  0  0
  125.2150  130.7900   63.1870 C   0  0  0  0  0  0  0  0  0  0  0  0
  124.3660  131.8290   63.5180 O   0  0  0  0  0  0  0  0  0  0  0  0
  123.9520  132.7360   62.5020 C   0  0  0  0  0  0  0  0  0  0  0  0
  126.1300  130.2020   64.0710 C   0  0  0  0  0  0  0  0  0  0  0  0
  126.9480  129.1590   63.6450 C   0  0  0  0  0  0  0  0  0  0  0  0
  128.9270  127.1720   62.5680 C   0  0  0  0  0  0  0  0  0  0  0  0
  129.7300  126.1260   62.0970 C   0  0  0  0  0  0  0  0  0  0  0  0
  130.9550  125.7780   62.8820 C   0  0  0  0  0  0  0  0  0  0  0  0
  130.9150  125.7660   64.2790 C   0  0  0  0  0  0  0  0  0  0  0  0
  132.0510  125.4420   65.0160 C   0  0  0  0  0  0  0  0  0  0  0  0
  133.2460  125.1200   64.3730 C   0  0  0  0  0  0  0  0  0  0  0  0
  134.3230  124.8200   65.1840 O   0  0  0  0  0  0  0  0  0  0  0  0
  134.2490  125.1140   66.5750 C   0  0  0  0  0  0  0  0  0  0  0  0
  133.2870  125.1190   62.9700 C   0  0  0  0  0  0  0  0  0  0  0  0
  132.1490  125.4420   62.2360 C   0  0  0  0  0  0  0  0  0  0  0  0
  129.3450  125.4640   60.9050 C   0  0  0  0  0  0  0  0  0  0  0  0
  130.2020  124.4340   60.3110 C   0  0  0  0  0  0  0  0  0  0  0  0
  130.8800  123.6210   59.8430 N   0  0  0  0  0  0  0  0  0  0  0  0
  123.4689  124.6515   61.9474 H   0  0  0  0  0  0  0  0  0  0  0  0
  124.2680  125.1834   60.4291 H   0  0  0  0  0  0  0  0  0  0  0  0
  123.2201  123.7244   60.4291 H   0  0  0  0  0  0  0  0  0  0  0  0
  125.7460  123.4915   58.4964 H   0  0  0  0  0  0  0  0  0  0  0  0
  125.1286  124.9620   59.2914 H   0  0  0  0  0  0  0  0  0  0  0  0
  125.8837  128.9104   60.4215 H   0  0  0  0  0  0  0  0  0  0  0  0
  124.4242  130.7640   61.1770 H   0  0  0  0  0  0  0  0  0  0  0  0
  123.5380  133.6430   62.9667 H   0  0  0  0  0  0  0  0  0  0  0  0
  124.8161  133.0059   61.8771 H   0  0  0  0  0  0  0  0  0  0  0  0
  123.1820  132.2600   61.8771 H   0  0  0  0  0  0  0  0  0  0  0  0
  126.2022  130.5663   65.1064 H   0  0  0  0  0  0  0  0  0  0  0  0
  127.6603  128.7086   64.3519 H   0  0  0  0  0  0  0  0  0  0  0  0
  129.2074  127.7004   63.4911 H   0  0  0  0  0  0  0  0  0  0  0  0
  129.9788  126.0145   64.8003 H   0  0  0  0  0  0  0  0  0  0  0  0
  132.0056  125.4400   66.1151 H   0  0  0  0  0  0  0  0  0  0  0  0
  134.4773  124.2071   67.1541 H   0  0  0  0  0  0  0  0  0  0  0  0
  134.9773  125.9003   66.8228 H   0  0  0  0  0  0  0  0  0  0  0  0
  133.2353  125.4618   66.8228 H   0  0  0  0  0  0  0  0  0  0  0  0
  134.2211  124.8622   62.4489 H   0  0  0  0  0  0  0  0  0  0  0  0
  132.1894  125.4328   61.1368 H   0  0  0  0  0  0  0  0  0  0  0  0
  1  2  1  0
  2  3  1  0
  3  4  2  0
  3  5  1  0
  5  6  1  0
  6  7  1  0
  7  8  2  0
  8  9  1  0
  9 10  1  0
 10 11  2  0
 11 12  1  0
 12 13  2  0
 13 14  1  0
 14 15  1  0
 13 16  1  0
 16 17  2  0
  9 18  2  0
 18 19  1  0
 19 20  1  0
 20 21  2  0
 21 22  1  0
 22 23  2  0
 23 24  1  0
 24 25  1  0
 23 26  1  0
 26 27  2  0
 19 28  2  0
 28 29  1  0
 29 30  3  0
 28  7  1  0
 17 10  1  0
 27 20  1  0
  1 31  1  0
  1 32  1  0
  1 33  1  0
  5 34  1  0
  5 35  1  0
 11 36  1  0
 12 37  1  0
 15 38  1  0
 15 39  1  0
 15 40  1  0
 16 41  1  0
 17 42  1  0
 18 43  1  0
 21 44  1  0
 22 45  1  0
 25 46  1  0
 25 47  1  0
 25 48  1  0
 26 49  1  0
 27 50  1  0
M  END
>  <Binding energies>  (1) 
[-6.21]

>  <Ligand effiencies>  (1) 
[-0.207]

>  <Interactions>  (1) 
["H-A:GLY:454:N:4048, V-A:GLU:543:CD:4906, V-A:HIS:456:CE1:4068, V-A:ARG:545:CD:4921, V-A:ARG:545:CG:4920, V-B:GLU:543:CD:9880, V-A:ARG:545:CZ:4924, V-B:ASN:362:CB:8148, V-B:PRO:540:CB:9857, V-B:ASP:366:CG:8185, V-B:ASN:362:C:8144, V-B:PRO:540:C:9853, V-B:PRO:540:CA:9855, H-B:ALA:541:N:9863, H-B:ARG:545:NH2:9900, V-B:GLY:454:CA:9021, V-A:TYR:484:CZ:4345, V-B:LEU:475:CD2:9231, H-B:GLY:454:N:9022, H-B:TYR:484:OH:9320, V-B:ARG:545:CZ:9898, H-A:TYR:484:OH:4346, V-B:ILE:369:CD1:8211, H-A:ARG:545:NE:4922, V-A:ARG:545:CB:4919, V-A:ILE:455:C:4050, V-B:ASN:362:CA:8146"]

$$$$
1d_Grossjean_2025
     RDKit          3D

 36 37  0  0  0  0  0  0  0  0999 V2000
  129.5200  122.1810   73.5640 C   0  0  0  0  0  0  0  0  0  0  0  0
  130.5790  123.2480   73.7580 C   0  0  0  0  0  0  0  0  0  0  0  0
  131.7290  123.0080   74.5070 C   0  0  0  0  0  0  0  0  0  0  0  0
  132.6770  124.0280   74.6440 C   0  0  0  0  0  0  0  0  0  0  0  0
  133.9370  123.7350   75.4570 C   0  0  0  0  0  0  0  0  0  0  0  0
  132.4420  125.2780   74.0260 C   0  0  0  0  0  0  0  0  0  0  0  0
  133.4430  126.3430   74.1160 C   0  0  0  0  0  0  0  0  0  0  0  0
  134.2360  127.1830   74.1880 N   0  0  0  0  0  0  0  0  0  0  0  0
  131.2360  125.4410   73.3050 C   0  0  0  0  0  0  0  0  0  0  0  0
  130.7790  126.9420   72.4680 S   0  0  0  0  0  0  0  0  0  0  0  0
  128.9680  126.9370   72.2940 C   0  0  0  0  0  0  0  0  0  0  0  0
  128.3210  128.1480   72.9680 C   0  0  0  0  0  0  0  0  0  0  0  0
  128.9040  129.2330   72.9430 O   0  0  0  0  0  0  0  0  0  0  0  0
  127.1140  127.9210   73.5290 N   0  0  0  0  0  0  0  0  0  0  0  0
  126.2670  128.7980   74.2330 C   0  0  0  0  0  0  0  0  0  0  0  0
  126.8350  130.0180   74.6080 C   0  0  0  0  0  0  0  0  0  0  0  0
  126.0830  130.9600   75.3040 C   0  0  0  0  0  0  0  0  0  0  0  0
  124.7550  130.6850   75.6190 C   0  0  0  0  0  0  0  0  0  0  0  0
  124.1730  129.4770   75.2440 C   0  0  0  0  0  0  0  0  0  0  0  0
  124.9240  128.5320   74.5490 C   0  0  0  0  0  0  0  0  0  0  0  0
  130.3320  124.4380   73.1610 N   0  0  0  0  0  0  0  0  0  0  0  0
  129.1703  121.8287   74.5456 H   0  0  0  0  0  0  0  0  0  0  0  0
  128.6731  122.6027   73.0028 H   0  0  0  0  0  0  0  0  0  0  0  0
  129.9480  121.3373   73.0028 H   0  0  0  0  0  0  0  0  0  0  0  0
  131.8895  122.0300   74.9842 H   0  0  0  0  0  0  0  0  0  0  0  0
  133.7019  123.7897   76.5302 H   0  0  0  0  0  0  0  0  0  0  0  0
  134.3047  122.7274   75.2131 H   0  0  0  0  0  0  0  0  0  0  0  0
  134.7116  124.4770   75.2131 H   0  0  0  0  0  0  0  0  0  0  0  0
  128.7146  126.9496   71.2236 H   0  0  0  0  0  0  0  0  0  0  0  0
  128.5834  126.0309   72.7850 H   0  0  0  0  0  0  0  0  0  0  0  0
  126.7440  126.9870   73.4250 H   0  0  0  0  0  0  0  0  0  0  0  0
  127.8824  130.2354   74.3518 H   0  0  0  0  0  0  0  0  0  0  0  0
  126.5356  131.9168   75.6036 H   0  0  0  0  0  0  0  0  0  0  0  0
  124.1601  131.4289   76.1692 H   0  0  0  0  0  0  0  0  0  0  0  0
  123.1226  129.2694   75.4960 H   0  0  0  0  0  0  0  0  0  0  0  0
  124.4661  127.5783   74.2478 H   0  0  0  0  0  0  0  0  0  0  0  0
  1  2  1  0
  2  3  2  0
  3  4  1  0
  4  5  1  0
  4  6  2  0
  6  7  1  0
  7  8  3  0
  6  9  1  0
  9 10  1  0
 10 11  1  0
 11 12  1  0
 12 13  2  0
 12 14  1  0
 14 15  1  0
 15 16  2  0
 16 17  1  0
 17 18  2  0
 18 19  1  0
 19 20  2  0
  9 21  2  0
 21  2  1  0
 20 15  1  0
  1 22  1  0
  1 23  1  0
  1 24  1  0
  3 25  1  0
  5 26  1  0
  5 27  1  0
  5 28  1  0
 11 29  1  0
 11 30  1  0
 14 31  1  0
 16 32  1  0
 17 33  1  0
 18 34  1  0
 19 35  1  0
 20 36  1  0
M  END
>  <Binding energies>  (1) 
[-8.46]

>  <Ligand effiencies>  (1) 
[-0.3845454545454546]

>  <Interactions>  (1) 
["V-A:HIS:456:CD2:4066, V-B:LYS:547:CE:9922, V-B:HIS:456:CG:9038, H-B:LYS:547:NZ:9923, V-B:LYS:471:CE:9192, V-B:VAL:457:C:9045, V-B:VAL:458:CG2:9059, H-A:LYS:547:NZ:4949, V-B:HIS:456:CB:9037, V-B:HIS:456:CA:9035, V-B:HIS:456:C:9033, V-B:VAL:457:CA:9047, V-B:HIS:456:CD2:9040, V-B:GLY:544:C:9884, V-B:LYS:471:CG:9190, V-B:LYS:471:CD:9191, V-A:LYS:471:CD:4217, V-A:HIS:456:CB:4063, V-A:LYS:547:CE:4948, V-A:ASP:473:CG:4238, V-A:HIS:456:CG:4064, V-A:HIS:456:C:4059, V-A:LYS:471:CG:4216, V-A:VAL:458:CG2:4085, V-A:LYS:471:CE:4218, V-A:LYS:547:CD:4947, H-B:GLY:544:O:9885"]

$$$$
1e_Grossjean_2025
     RDKit          3D

 38 39  0  0  0  0  0  0  0  0999 V2000
  126.6280  131.8740   75.5420 C   0  0  0  0  0  0  0  0  0  0  0  0
  126.0540  130.5480   75.0780 C   0  0  0  0  0  0  0  0  0  0  0  0
  124.7180  130.2090   75.3060 C   0  0  0  0  0  0  0  0  0  0  0  0
  124.2610  128.9720   74.8520 C   0  0  0  0  0  0  0  0  0  0  0  0
  125.1390  128.1110   74.1900 C   0  0  0  0  0  0  0  0  0  0  0  0
  126.4650  128.5150   73.9900 C   0  0  0  0  0  0  0  0  0  0  0  0
  127.3050  127.6020   73.3270 N   0  0  0  0  0  0  0  0  0  0  0  0
  128.5450  127.8070   72.8320 C   0  0  0  0  0  0  0  0  0  0  0  0
  129.1560  128.8760   72.8770 O   0  0  0  0  0  0  0  0  0  0  0  0
  129.1950  126.6040   72.1470 C   0  0  0  0  0  0  0  0  0  0  0  0
  131.0050  126.6200   72.3180 S   0  0  0  0  0  0  0  0  0  0  0  0
  131.4970  125.2260   73.3130 C   0  0  0  0  0  0  0  0  0  0  0  0
  130.5610  124.2440   73.3640 N   0  0  0  0  0  0  0  0  0  0  0  0
  130.8210  123.1330   74.0930 C   0  0  0  0  0  0  0  0  0  0  0  0
  129.7330  122.0760   74.0970 C   0  0  0  0  0  0  0  0  0  0  0  0
  132.0060  122.9620   74.8050 C   0  0  0  0  0  0  0  0  0  0  0  0
  132.9660  123.9780   74.7800 C   0  0  0  0  0  0  0  0  0  0  0  0
  134.2500  123.7730   75.5840 C   0  0  0  0  0  0  0  0  0  0  0  0
  132.7160  125.1480   74.0280 C   0  0  0  0  0  0  0  0  0  0  0  0
  133.6850  126.2460   74.0380 C   0  0  0  0  0  0  0  0  0  0  0  0
  134.4530  127.1120   74.0480 N   0  0  0  0  0  0  0  0  0  0  0  0
  126.9190  129.7240   74.4350 N   0  0  0  0  0  0  0  0  0  0  0  0
  126.6407  131.9034   76.6415 H   0  0  0  0  0  0  0  0  0  0  0  0
  127.6539  131.9831   75.1604 H   0  0  0  0  0  0  0  0  0  0  0  0
  126.0054  132.6967   75.1604 H   0  0  0  0  0  0  0  0  0  0  0  0
  124.0429  130.9009   75.8309 H   0  0  0  0  0  0  0  0  0  0  0  0
  123.2141  128.6760   75.0145 H   0  0  0  0  0  0  0  0  0  0  0  0
  124.7942  127.1301   73.8310 H   0  0  0  0  0  0  0  0  0  0  0  0
  126.8950  126.6950   73.1610 H   0  0  0  0  0  0  0  0  0  0  0  0
  128.8033  125.6820   72.6014 H   0  0  0  0  0  0  0  0  0  0  0  0
  128.9542  126.6521   71.0748 H   0  0  0  0  0  0  0  0  0  0  0  0
  129.4720  121.8224   75.1351 H   0  0  0  0  0  0  0  0  0  0  0  0
  128.8432  122.4637   73.5794 H   0  0  0  0  0  0  0  0  0  0  0  0
  130.0949  121.1754   73.5794 H   0  0  0  0  0  0  0  0  0  0  0  0
  132.1839  122.0405   75.3788 H   0  0  0  0  0  0  0  0  0  0  0  0
  134.0194  123.8098   76.6589 H   0  0  0  0  0  0  0  0  0  0  0  0
  134.6857  122.7939   75.3358 H   0  0  0  0  0  0  0  0  0  0  0  0
  134.9689  124.5677   75.3358 H   0  0  0  0  0  0  0  0  0  0  0  0
  1  2  1  0
  2  3  2  0
  3  4  1  0
  4  5  2  0
  5  6  1  0
  6  7  1  0
  7  8  1  0
  8  9  2  0
  8 10  1  0
 10 11  1  0
 11 12  1  0
 12 13  2  0
 13 14  1  0
 14 15  1  0
 14 16  2  0
 16 17  1  0
 17 18  1  0
 17 19  2  0
 19 20  1  0
 20 21  3  0
  6 22  2  0
 22  2  1  0
 19 12  1  0
  1 23  1  0
  1 24  1  0
  1 25  1  0
  3 26  1  0
  4 27  1  0
  5 28  1  0
  7 29  1  0
 10 30  1  0
 10 31  1  0
 15 32  1  0
 15 33  1  0
 15 34  1  0
 16 35  1  0
 18 36  1  0
 18 37  1  0
 18 38  1  0
M  END
>  <Binding energies>  (1) 
[-8.17]

>  <Ligand effiencies>  (1) 
[-0.3552173913043478]

>  <Interactions>  (1) 
["V-A:HIS:456:CD2:4066, V-B:LYS:547:CE:9922, V-B:LYS:547:CG:9920, V-B:HIS:456:CG:9038, H-B:LYS:547:NZ:9923, V-B:LYS:471:CE:9192, V-B:VAL:457:C:9045, V-B:VAL:458:CG2:9059, H-A:LYS:547:NZ:4949, V-B:HIS:456:CB:9037, V-B:HIS:456:CA:9035, V-B:HIS:456:C:9033, V-B:VAL:457:CA:9047, V-B:GLY:544:C:9884, V-B:LYS:471:CD:9191, V-A:LYS:471:CD:4217, V-A:HIS:456:CB:4063, V-A:LYS:547:CE:4948, V-A:ASP:473:CG:4238, V-A:HIS:456:CG:4064, V-A:HIS:456:C:4059, V-A:LYS:471:CG:4216, V-A:HIS:456:CA:4061, V-A:VAL:458:CG2:4085, V-A:LYS:471:CE:4218, H-B:GLY:544:O:9885, V-B:ASP:473:CG:9212, V-B:LYS:547:CD:9921"]

$$$$
1f_Grossjean_2025
     RDKit          3D

 35 36  0  0  0  0  0  0  0  0999 V2000
  129.4210  122.1120   73.6370 C   0  0  0  0  0  0  0  0  0  0  0  0
  130.5050  123.1660   73.7670 C   0  0  0  0  0  0  0  0  0  0  0  0
  131.6770  122.9230   74.4780 C   0  0  0  0  0  0  0  0  0  0  0  0
  132.6350  123.9370   74.5740 C   0  0  0  0  0  0  0  0  0  0  0  0
  133.9050  123.6540   75.3750 C   0  0  0  0  0  0  0  0  0  0  0  0
  132.3950  125.1780   73.9400 C   0  0  0  0  0  0  0  0  0  0  0  0
  133.3620  126.2710   74.0760 C   0  0  0  0  0  0  0  0  0  0  0  0
  134.1260  127.1330   74.1830 N   0  0  0  0  0  0  0  0  0  0  0  0
  131.1900  125.3270   73.2150 C   0  0  0  0  0  0  0  0  0  0  0  0
  130.7160  126.8130   72.3540 S   0  0  0  0  0  0  0  0  0  0  0  0
  128.8930  126.9160   72.3440 C   0  0  0  0  0  0  0  0  0  0  0  0
  128.3140  128.1810   72.9950 C   0  0  0  0  0  0  0  0  0  0  0  0
  128.9320  129.2460   72.9480 O   0  0  0  0  0  0  0  0  0  0  0  0
  127.1280  128.0010   73.6140 N   0  0  0  0  0  0  0  0  0  0  0  0
  126.3210  128.9310   74.2980 C   0  0  0  0  0  0  0  0  0  0  0  0
  126.7280  130.2060   74.7320 C   0  0  0  0  0  0  0  0  0  0  0  0
  125.8190  131.0320   75.3990 C   0  0  0  0  0  0  0  0  0  0  0  0
  124.5220  130.5630   75.6120 C   0  0  0  0  0  0  0  0  0  0  0  0
  124.1040  129.3410   75.1990 N   0  0  0  0  0  0  0  0  0  0  0  0
  124.9990  128.5500   74.5530 C   0  0  0  0  0  0  0  0  0  0  0  0
  130.2560  124.3440   73.1490 N   0  0  0  0  0  0  0  0  0  0  0  0
  129.0954  121.7954   74.6389 H   0  0  0  0  0  0  0  0  0  0  0  0
  128.5648  122.5322   73.0889 H   0  0  0  0  0  0  0  0  0  0  0  0
  129.8170  121.2444   73.0889 H   0  0  0  0  0  0  0  0  0  0  0  0
  131.8469  121.9476   74.9572 H   0  0  0  0  0  0  0  0  0  0  0  0
  133.6791  123.7043   76.4504 H   0  0  0  0  0  0  0  0  0  0  0  0
  134.2798  122.6503   75.1256 H   0  0  0  0  0  0  0  0  0  0  0  0
  134.6704  124.4036   75.1256 H   0  0  0  0  0  0  0  0  0  0  0  0
  128.5545  126.8844   71.2978 H   0  0  0  0  0  0  0  0  0  0  0  0
  128.5324  126.0673   72.9437 H   0  0  0  0  0  0  0  0  0  0  0  0
  126.7610  127.0610   73.6060 H   0  0  0  0  0  0  0  0  0  0  0  0
  127.7561  130.5509   74.5473 H   0  0  0  0  0  0  0  0  0  0  0  0
  126.1196  132.0307   75.7487 H   0  0  0  0  0  0  0  0  0  0  0  0
  123.8074  131.2132   76.1380 H   0  0  0  0  0  0  0  0  0  0  0  0
  124.6674  127.5580   74.2124 H   0  0  0  0  0  0  0  0  0  0  0  0
  1  2  1  0
  2  3  2  0
  3  4  1  0
  4  5  1  0
  4  6  2  0
  6  7  1  0
  7  8  3  0
  6  9  1  0
  9 10  1  0
 10 11  1  0
 11 12  1  0
 12 13  2  0
 12 14  1  0
 14 15  1  0
 15 16  2  0
 16 17  1  0
 17 18  2  0
 18 19  1  0
 19 20  2  0
  9 21  2  0
 21  2  1  0
 20 15  1  0
  1 22  1  0
  1 23  1  0
  1 24  1  0
  3 25  1  0
  5 26  1  0
  5 27  1  0
  5 28  1  0
 11 29  1  0
 11 30  1  0
 14 31  1  0
 16 32  1  0
 17 33  1  0
 18 34  1  0
 20 35  1  0
M  END
>  <Binding energies>  (1) 
[-8.03]

>  <Ligand effiencies>  (1) 
[-0.365]

>  <Interactions>  (1) 
["V-A:HIS:456:CD2:4066, V-B:LYS:547:CE:9922, V-B:HIS:456:CG:9038, H-B:LYS:547:NZ:9923, V-B:LYS:471:CE:9192, H-B:VAL:457:N:9048, V-B:VAL:458:CG2:9059, H-A:LYS:547:NZ:4949, V-B:HIS:456:CB:9037, V-B:HIS:456:C:9033, V-B:GLY:544:C:9884, V-B:LYS:471:CG:9190, V-B:LYS:471:CD:9191, V-A:LYS:471:CD:4217, V-A:HIS:456:CB:4063, V-A:LYS:547:CE:4948, V-A:ASP:473:CG:4238, V-A:HIS:456:CG:4064, V-A:HIS:456:C:4059, V-A:LYS:471:CG:4216, V-A:VAL:458:CG2:4085, V-A:LYS:471:CE:4218, H-B:GLY:544:O:9885"]

$$$$
1g_Grossjean_2025
     RDKit          3D

 39 40  0  0  0  0  0  0  0  0999 V2000
  128.6970  122.5870   72.6200 C   0  0  0  0  0  0  0  0  0  0  0  0
  129.8370  123.5060   73.0160 C   0  0  0  0  0  0  0  0  0  0  0  0
  130.8980  123.0560   73.8000 C   0  0  0  0  0  0  0  0  0  0  0  0
  131.9140  123.9530   74.1470 C   0  0  0  0  0  0  0  0  0  0  0  0
  133.0590  123.4410   75.0200 C   0  0  0  0  0  0  0  0  0  0  0  0
  131.8450  125.2880   73.6890 C   0  0  0  0  0  0  0  0  0  0  0  0
  132.8690  126.2580   74.0840 C   0  0  0  0  0  0  0  0  0  0  0  0
  133.6800  127.0220   74.3980 N   0  0  0  0  0  0  0  0  0  0  0  0
  130.7440  125.6500   72.8770 C   0  0  0  0  0  0  0  0  0  0  0  0
  130.5050  127.2810   72.2080 S   0  0  0  0  0  0  0  0  0  0  0  0
  128.7120  127.5690   72.1150 C   0  0  0  0  0  0  0  0  0  0  0  0
  128.2980  128.8450   72.8490 C   0  0  0  0  0  0  0  0  0  0  0  0
  127.4790  128.7900   73.7680 O   0  0  0  0  0  0  0  0  0  0  0  0
  128.8690  129.9860   72.4280 N   0  0  0  0  0  0  0  0  0  0  0  0
  128.6650  131.3070   73.0210 C   0  0  0  0  0  0  0  0  0  0  0  0
  129.5900  132.3910   72.4750 C   0  0  0  0  0  0  0  0  0  0  0  0
  129.2900  133.0190   71.2610 C   0  0  0  0  0  0  0  0  0  0  0  0
  130.1340  134.0080   70.7640 C   0  0  0  0  0  0  0  0  0  0  0  0
  131.2720  134.3700   71.4830 C   0  0  0  0  0  0  0  0  0  0  0  0
  131.5730  133.7520   72.6940 C   0  0  0  0  0  0  0  0  0  0  0  0
  130.7310  132.7620   73.1920 C   0  0  0  0  0  0  0  0  0  0  0  0
  129.7510  124.7790   72.5640 N   0  0  0  0  0  0  0  0  0  0  0  0
  128.2107  122.1949   73.5254 H   0  0  0  0  0  0  0  0  0  0  0  0
  127.9631  123.1491   72.0237 H   0  0  0  0  0  0  0  0  0  0  0  0
  129.0905  121.7506   72.0237 H   0  0  0  0  0  0  0  0  0  0  0  0
  130.9359  122.0108   74.1409 H   0  0  0  0  0  0  0  0  0  0  0  0
  132.7929  123.5600   76.0807 H   0  0  0  0  0  0  0  0  0  0  0  0
  133.2375  122.3773   74.8039 H   0  0  0  0  0  0  0  0  0  0  0  0
  133.9708  124.0171   74.8039 H   0  0  0  0  0  0  0  0  0  0  0  0
  128.4208  127.6570   71.0579 H   0  0  0  0  0  0  0  0  0  0  0  0
  128.2060  126.7199   72.5977 H   0  0  0  0  0  0  0  0  0  0  0  0
  129.5470  129.9360   71.6800 H   0  0  0  0  0  0  0  0  0  0  0  0
  127.6258  131.6132   72.8306 H   0  0  0  0  0  0  0  0  0  0  0  0
  128.8929  131.2094   74.0927 H   0  0  0  0  0  0  0  0  0  0  0  0
  128.3884  132.7315   70.7002 H   0  0  0  0  0  0  0  0  0  0  0  0
  129.9040  134.5016   69.8083 H   0  0  0  0  0  0  0  0  0  0  0  0
  131.9388  135.1515   71.0899 H   0  0  0  0  0  0  0  0  0  0  0  0
  132.4727  134.0451   73.2548 H   0  0  0  0  0  0  0  0  0  0  0  0
  130.9633  132.2720   74.1490 H   0  0  0  0  0  0  0  0  0  0  0  0
  1  2  1  0
  2  3  2  0
  3  4  1  0
  4  5  1  0
  4  6  2  0
  6  7  1  0
  7  8  3  0
  6  9  1  0
  9 10  1  0
 10 11  1  0
 11 12  1  0
 12 13  2  0
 12 14  1  0
 14 15  1  0
 15 16  1  0
 16 17  2  0
 17 18  1  0
 18 19  2  0
 19 20  1  0
 20 21  2  0
  9 22  2  0
 22  2  1  0
 21 16  1  0
  1 23  1  0
  1 24  1  0
  1 25  1  0
  3 26  1  0
  5 27  1  0
  5 28  1  0
  5 29  1  0
 11 30  1  0
 11 31  1  0
 14 32  1  0
 15 33  1  0
 15 34  1  0
 17 35  1  0
 18 36  1  0
 19 37  1  0
 20 38  1  0
 21 39  1  0
M  END
>  <Binding energies>  (1) 
[-7.19]

>  <Ligand effiencies>  (1) 
[-0.3126086956521739]

>  <Interactions>  (1) 
["V-A:HIS:456:CD2:4066, V-B:LYS:547:CE:9922, V-B:GLU:543:C:9874, V-B:GLY:544:CA:9886, V-B:HIS:456:CG:9038, H-B:LYS:547:NZ:9923, H-A:LYS:547:NZ:4949, V-A:GLU:543:C:4900, V-B:HIS:456:CD2:9040, V-A:LYS:471:CD:4217, V-A:HIS:456:CB:4063, V-A:LYS:547:CE:4948, V-A:ASP:473:CG:4238, V-A:HIS:456:CG:4064, H-B:HIS:456:NE2:9043, H-A:GLU:543:O:4901, V-A:LYS:471:CE:4218, V-A:LYS:547:CD:4947, V-B:TYR:484:CD1:9315, V-A:GLY:544:CA:4912, V-B:TYR:484:CB:9313, V-A:GLU:543:CA:4902, V-B:TYR:484:CG:9314, V-A:VAL:542:C:4892"]

$$$$
1h_Grossjean_2025
     RDKit          3D

 51 52  0  0  0  0  0  0  0  0999 V2000
  125.3460  120.1890   75.1540 C   0  0  0  0  0  0  0  0  0  0  0  0
  125.3570  121.1920   74.1450 O   0  0  0  0  0  0  0  0  0  0  0  0
  126.4260  121.2640   73.2710 C   0  0  0  0  0  0  0  0  0  0  0  0
  127.5010  122.1550   73.4180 C   0  0  0  0  0  0  0  0  0  0  0  0
  128.5410  122.1810   72.4870 C   0  0  0  0  0  0  0  0  0  0  0  0
  129.7140  123.1380   72.6710 C   0  0  0  0  0  0  0  0  0  0  0  0
  129.4550  124.4960   72.1930 N   0  0  0  0  0  0  0  0  0  0  0  0
  130.0880  125.6040   72.6190 C   0  0  0  0  0  0  0  0  0  0  0  0
  130.9900  125.5960   73.4560 O   0  0  0  0  0  0  0  0  0  0  0  0
  129.6260  126.9290   72.0110 C   0  0  0  0  0  0  0  0  0  0  0  0
  127.8720  127.2610   72.3560 S   0  0  0  0  0  0  0  0  0  0  0  0
  127.7440  128.9020   73.0480 C   0  0  0  0  0  0  0  0  0  0  0  0
  128.6770  129.7950   72.6250 N   0  0  0  0  0  0  0  0  0  0  0  0
  128.6360  131.0580   73.1070 C   0  0  0  0  0  0  0  0  0  0  0  0
  129.7070  131.9970   72.5840 C   0  0  0  0  0  0  0  0  0  0  0  0
  127.6760  131.4830   74.0230 C   0  0  0  0  0  0  0  0  0  0  0  0
  126.7120  130.5730   74.4690 C   0  0  0  0  0  0  0  0  0  0  0  0
  125.6680  131.0600   75.4710 C   0  0  0  0  0  0  0  0  0  0  0  0
  126.7360  129.2480   73.9780 C   0  0  0  0  0  0  0  0  0  0  0  0
  125.7400  128.2720   74.4280 C   0  0  0  0  0  0  0  0  0  0  0  0
  124.9530  127.5010   74.7850 N   0  0  0  0  0  0  0  0  0  0  0  0
  128.5300  121.2850   71.4170 C   0  0  0  0  0  0  0  0  0  0  0  0
  127.4700  120.3790   71.2480 C   0  0  0  0  0  0  0  0  0  0  0  0
  127.3930  119.4660   70.2120 O   0  0  0  0  0  0  0  0  0  0  0  0
  127.0740  118.1080   70.4990 C   0  0  0  0  0  0  0  0  0  0  0  0
  126.4190  120.3860   72.1760 C   0  0  0  0  0  0  0  0  0  0  0  0
  125.3790  119.5020   72.0270 O   0  0  0  0  0  0  0  0  0  0  0  0
  124.1120  120.1220   71.8530 C   0  0  0  0  0  0  0  0  0  0  0  0
  125.3512  120.6660   76.1452 H   0  0  0  0  0  0  0  0  0  0  0  0
  124.4410  119.5726   75.0485 H   0  0  0  0  0  0  0  0  0  0  0  0
  126.2372  119.5529   75.0485 H   0  0  0  0  0  0  0  0  0  0  0  0
  127.5241  122.8412   74.2774 H   0  0  0  0  0  0  0  0  0  0  0  0
  129.9540  123.1887   73.7433 H   0  0  0  0  0  0  0  0  0  0  0  0
  130.5451  122.7420   72.0690 H   0  0  0  0  0  0  0  0  0  0  0  0
  128.7150  124.5950   71.5130 H   0  0  0  0  0  0  0  0  0  0  0  0
  130.2317  127.7442   72.4337 H   0  0  0  0  0  0  0  0  0  0  0  0
  129.7517  126.8647   70.9201 H   0  0  0  0  0  0  0  0  0  0  0  0
  130.2346  132.4596   73.4312 H   0  0  0  0  0  0  0  0  0  0  0  0
  130.4235  131.4307   71.9708 H   0  0  0  0  0  0  0  0  0  0  0  0
  129.2393  132.7814   71.9708 H   0  0  0  0  0  0  0  0  0  0  0  0
  127.6762  132.5199   74.3903 H   0  0  0  0  0  0  0  0  0  0  0  0
  126.0341  130.8892   76.4941 H   0  0  0  0  0  0  0  0  0  0  0  0
  125.4886  132.1348   75.3204 H   0  0  0  0  0  0  0  0  0  0  0  0
  124.7292  130.5069   75.3204 H   0  0  0  0  0  0  0  0  0  0  0  0
  129.3617  121.2884   70.6971 H   0  0  0  0  0  0  0  0  0  0  0  0
  127.0397  117.9618   71.5887 H   0  0  0  0  0  0  0  0  0  0  0  0
  126.0936  117.8620   70.0650 H   0  0  0  0  0  0  0  0  0  0  0  0
  127.8423  117.4513   70.0650 H   0  0  0  0  0  0  0  0  0  0  0  0
  123.6711  120.3378   72.8374 H   0  0  0  0  0  0  0  0  0  0  0  0
  124.2369  121.0608   71.2935 H   0  0  0  0  0  0  0  0  0  0  0  0
  123.4474  119.4473   71.2935 H   0  0  0  0  0  0  0  0  0  0  0  0
  1  2  1  0
  2  3  1  0
  3  4  2  0
  4  5  1  0
  5  6  1  0
  6  7  1  0
  7  8  1  0
  8  9  2  0
  8 10  1  0
 10 11  1  0
 11 12  1  0
 12 13  2  0
 13 14  1  0
 14 15  1  0
 14 16  2  0
 16 17  1  0
 17 18  1  0
 17 19  2  0
 19 20  1  0
 20 21  3  0
  5 22  2  0
 22 23  1  0
 23 24  1  0
 24 25  1  0
 23 26  2  0
 26 27  1  0
 27 28  1  0
 26  3  1  0
 19 12  1  0
  1 29  1  0
  1 30  1  0
  1 31  1  0
  4 32  1  0
  6 33  1  0
  6 34  1  0
  7 35  1  0
 10 36  1  0
 10 37  1  0
 15 38  1  0
 15 39  1  0
 15 40  1  0
 16 41  1  0
 18 42  1  0
 18 43  1  0
 18 44  1  0
 22 45  1  0
 25 46  1  0
 25 47  1  0
 25 48  1  0
 28 49  1  0
 28 50  1  0
 28 51  1  0
M  END
>  <Binding energies>  (1) 
[-6.83]

>  <Ligand effiencies>  (1) 
[-0.23551724137931035]

>  <Interactions>  (1) 
["V-A:TYR:484:CB:4339, V-A:HIS:456:CD2:4066, V-A:TYR:484:CG:4340, V-A:TYR:484:CD1:4341, V-B:GLU:543:CA:9876, V-B:LYS:547:CE:9922, V-B:GLU:543:C:9874, V-B:GLY:544:CA:9886, V-B:VAL:542:CG1:9871, V-B:HIS:456:CG:9038, H-B:LYS:547:NZ:9923, V-B:LYS:471:CE:9192, H-A:LYS:547:NZ:4949, V-B:HIS:456:CB:9037, H-A:HIS:456:NE2:4069, V-A:GLU:543:C:4900, H-B:GLU:543:O:9875, V-B:HIS:456:CD2:9040, V-B:LYS:471:CD:9191, V-A:LYS:547:CE:4948, V-A:HIS:456:CG:4064, V-A:TYR:484:CA:4337, H-A:TYR:484:N:4338, V-B:ASP:473:CG:9212, V-A:GLY:544:CA:4912, V-B:LYS:547:CD:9921, H-B:GLU:543:N:9877, V-A:SER:483:CB:4331, V-A:SER:483:C:4327, V-A:SER:483:CA:4329"]

$$$$
1i_Grossjean_2025
     RDKit          3D

 32 33  0  0  0  0  0  0  0  0999 V2000
  129.5120  122.1450   73.5480 C   0  0  0  0  0  0  0  0  0  0  0  0
  130.5730  123.2100   73.7530 C   0  0  0  0  0  0  0  0  0  0  0  0
  131.7390  122.9490   74.4690 C   0  0  0  0  0  0  0  0  0  0  0  0
  132.6880  123.9670   74.6160 C   0  0  0  0  0  0  0  0  0  0  0  0
  133.9660  123.6520   75.3910 C   0  0  0  0  0  0  0  0  0  0  0  0
  132.4370  125.2350   74.0420 C   0  0  0  0  0  0  0  0  0  0  0  0
  133.4390  126.2990   74.1420 C   0  0  0  0  0  0  0  0  0  0  0  0
  134.2330  127.1380   74.2210 N   0  0  0  0  0  0  0  0  0  0  0  0
  131.2150  125.4160   73.3530 C   0  0  0  0  0  0  0  0  0  0  0  0
  130.7370  126.9420   72.5720 S   0  0  0  0  0  0  0  0  0  0  0  0
  128.9310  126.9140   72.3680 C   0  0  0  0  0  0  0  0  0  0  0  0
  128.2570  128.1140   73.0360 C   0  0  0  0  0  0  0  0  0  0  0  0
  128.8000  129.2190   72.9820 O   0  0  0  0  0  0  0  0  0  0  0  0
  127.0800  127.8560   73.6470 N   0  0  0  0  0  0  0  0  0  0  0  0
  126.2710  128.7550   74.3270 C   0  0  0  0  0  0  0  0  0  0  0  0
  124.9110  128.5400   74.5460 C   0  0  0  0  0  0  0  0  0  0  0  0
  124.4810  129.6450   75.2430 C   0  0  0  0  0  0  0  0  0  0  0  0
  125.5270  130.4840   75.4310 O   0  0  0  0  0  0  0  0  0  0  0  0
  126.6560  129.9100   74.8450 N   0  0  0  0  0  0  0  0  0  0  0  0
  130.3100  124.4170   73.1980 N   0  0  0  0  0  0  0  0  0  0  0  0
  129.1567  121.7884   74.5260 H   0  0  0  0  0  0  0  0  0  0  0  0
  128.6688  122.5711   72.9847 H   0  0  0  0  0  0  0  0  0  0  0  0
  129.9413  121.3034   72.9847 H   0  0  0  0  0  0  0  0  0  0  0  0
  131.9113  121.9572   74.9124 H   0  0  0  0  0  0  0  0  0  0  0  0
  133.7619  123.7023   76.4707 H   0  0  0  0  0  0  0  0  0  0  0  0
  134.3133  122.6414   75.1302 H   0  0  0  0  0  0  0  0  0  0  0  0
  134.7432  124.3855   75.1302 H   0  0  0  0  0  0  0  0  0  0  0  0
  128.6953  126.9276   71.2936 H   0  0  0  0  0  0  0  0  0  0  0  0
  128.5502  126.0009   72.8490 H   0  0  0  0  0  0  0  0  0  0  0  0
  126.7570  126.8990   73.6450 H   0  0  0  0  0  0  0  0  0  0  0  0
  124.3114  127.6737   74.2297 H   0  0  0  0  0  0  0  0  0  0  0  0
  123.4524  129.8192   75.5917 H   0  0  0  0  0  0  0  0  0  0  0  0
  1  2  1  0
  2  3  2  0
  3  4  1  0
  4  5  1  0
  4  6  2  0
  6  7  1  0
  7  8  3  0
  6  9  1  0
  9 10  1  0
 10 11  1  0
 11 12  1  0
 12 13  2  0
 12 14  1  0
 14 15  1  0
 15 16  1  0
 16 17  2  0
 17 18  1  0
 18 19  1  0
  9 20  2  0
 20  2  1  0
 19 15  2  0
  1 21  1  0
  1 22  1  0
  1 23  1  0
  3 24  1  0
  5 25  1  0
  5 26  1  0
  5 27  1  0
 11 28  1  0
 11 29  1  0
 14 30  1  0
 16 31  1  0
 17 32  1  0
M  END
>  <Binding energies>  (1) 
[-7.68]

>  <Ligand effiencies>  (1) 
[-0.3657142857142857]

>  <Interactions>  (1) 
["V-A:HIS:456:CD2:4066, V-B:LYS:547:CE:9922, H-B:LYS:547:NZ:9923, V-B:VAL:457:C:9045, V-B:VAL:458:CG2:9059, H-A:LYS:547:NZ:4949, V-B:HIS:456:CB:9037, V-B:HIS:456:CA:9035, V-B:HIS:456:C:9033, V-B:GLY:544:C:9884, V-A:LYS:471:CD:4217, V-A:HIS:456:CB:4063, V-A:LYS:547:CE:4948, V-A:ASP:473:CG:4238, V-A:HIS:456:CG:4064, V-A:HIS:456:C:4059, V-A:LYS:471:CG:4216, V-A:VAL:458:CG2:4085, V-A:LYS:471:CE:4218, H-B:GLY:544:O:9885, V-B:LYS:547:CD:9921"]

$$$$
1j_Grossjean_2025
     RDKit          3D

 32 33  0  0  0  0  0  0  0  0999 V2000
  128.9000  132.5240   73.8960 C   0  0  0  0  0  0  0  0  0  0  0  0
  127.8710  131.4260   74.0930 C   0  0  0  0  0  0  0  0  0  0  0  0
  126.7930  131.5850   74.9610 C   0  0  0  0  0  0  0  0  0  0  0  0
  125.8680  130.5440   75.0930 C   0  0  0  0  0  0  0  0  0  0  0  0
  124.6840  130.7490   76.0380 C   0  0  0  0  0  0  0  0  0  0  0  0
  126.0540  129.3560   74.3510 C   0  0  0  0  0  0  0  0  0  0  0  0
  125.0690  128.2750   74.4330 C   0  0  0  0  0  0  0  0  0  0  0  0
  124.2890  127.4220   74.5000 N   0  0  0  0  0  0  0  0  0  0  0  0
  127.1920  129.2720   73.5140 C   0  0  0  0  0  0  0  0  0  0  0  0
  127.5820  127.8540   72.5120 S   0  0  0  0  0  0  0  0  0  0  0  0
  129.3770  127.8560   72.2270 C   0  0  0  0  0  0  0  0  0  0  0  0
  130.0540  126.6160   72.8140 C   0  0  0  0  0  0  0  0  0  0  0  0
  129.4790  125.5290   72.7540 O   0  0  0  0  0  0  0  0  0  0  0  0
  131.2690  126.8230   73.3680 N   0  0  0  0  0  0  0  0  0  0  0  0
  132.0780  125.8690   73.9690 C   0  0  0  0  0  0  0  0  0  0  0  0
  131.7210  124.7010   74.4590 N   0  0  0  0  0  0  0  0  0  0  0  0
  132.7530  124.0490   74.9570 C   0  0  0  0  0  0  0  0  0  0  0  0
  133.9850  124.6920   74.8740 C   0  0  0  0  0  0  0  0  0  0  0  0
  133.7680  126.2330   74.1000 S   0  0  0  0  0  0  0  0  0  0  0  0
  128.0710  130.2960   73.3760 N   0  0  0  0  0  0  0  0  0  0  0  0
  129.2407  132.8875   74.8767 H   0  0  0  0  0  0  0  0  0  0  0  0
  129.7579  132.1260   73.3342 H   0  0  0  0  0  0  0  0  0  0  0  0
  128.4472  133.3543   73.3342 H   0  0  0  0  0  0  0  0  0  0  0  0
  126.6710  132.5158   75.5343 H   0  0  0  0  0  0  0  0  0  0  0  0
  125.0317  130.6888   77.0799 H   0  0  0  0  0  0  0  0  0  0  0  0
  124.2374  131.7378   75.8571 H   0  0  0  0  0  0  0  0  0  0  0  0
  123.9309  129.9679   75.8571 H   0  0  0  0  0  0  0  0  0  0  0  0
  129.5641  127.8828   71.1434 H   0  0  0  0  0  0  0  0  0  0  0  0
  129.7984  128.7407   72.7267 H   0  0  0  0  0  0  0  0  0  0  0  0
  131.6230  127.7680   73.3780 H   0  0  0  0  0  0  0  0  0  0  0  0
  132.6466  123.0533   75.4123 H   0  0  0  0  0  0  0  0  0  0  0  0
  134.9414  124.2897   75.2393 H   0  0  0  0  0  0  0  0  0  0  0  0
  1  2  1  0
  2  3  2  0
  3  4  1  0
  4  5  1  0
  4  6  2  0
  6  7  1  0
  7  8  3  0
  6  9  1  0
  9 10  1  0
 10 11  1  0
 11 12  1  0
 12 13  2  0
 12 14  1  0
 14 15  1  0
 15 16  2  0
 16 17  1  0
 17 18  2  0
 18 19  1  0
  9 20  2  0
 20  2  1  0
 19 15  1  0
  1 21  1  0
  1 22  1  0
  1 23  1  0
  3 24  1  0
  5 25  1  0
  5 26  1  0
  5 27  1  0
 11 28  1  0
 11 29  1  0
 14 30  1  0
 17 31  1  0
 18 32  1  0
M  END
>  <Binding energies>  (1) 
[-8.12]

>  <Ligand effiencies>  (1) 
[-0.3866666666666666]

>  <Interactions>  (1) 
["V-B:LYS:547:CE:9922, V-B:HIS:456:CG:9038, H-B:LYS:547:NZ:9923, V-B:LYS:471:CE:9192, V-B:VAL:458:CG2:9059, H-A:LYS:547:NZ:4949, V-B:HIS:456:CB:9037, V-A:GLY:544:C:4910, V-B:HIS:456:C:9033, V-B:HIS:456:CD2:9040, V-B:LYS:471:CG:9190, V-B:LYS:471:CD:9191, V-A:HIS:456:CB:4063, V-A:LYS:547:CE:4948, V-A:HIS:456:CG:4064, V-A:HIS:456:C:4059, V-A:VAL:457:C:4071, V-A:HIS:456:CA:4061, V-A:VAL:458:CG2:4085, V-A:LYS:471:CE:4218, H-A:GLY:544:O:4911, V-B:ASP:473:CG:9212, V-B:LYS:547:CD:9921"]

$$$$
1k_Grossjean_2025
     RDKit          3D

 50 50  0  0  0  0  0  0  0  0999 V2000
  126.8880  128.8860   73.7250 C   0  0  0  0  0  0  0  0  0  0  0  0
  128.2090  129.2660   73.3730 O   0  0  0  0  0  0  0  0  0  0  0  0
  128.6330  128.7430   72.1210 C   0  0  0  0  0  0  0  0  0  0  0  0
  128.2190  127.2700   72.0140 C   0  0  0  0  0  0  0  0  0  0  0  0
  129.2840  126.4450   72.4710 O   0  0  0  0  0  0  0  0  0  0  0  0
  130.5220  126.6990   71.8210 C   0  0  0  0  0  0  0  0  0  0  0  0
  131.6750  126.2480   72.7270 C   0  0  0  0  0  0  0  0  0  0  0  0
  131.1490  125.5810   73.8670 O   0  0  0  0  0  0  0  0  0  0  0  0
  132.1410  124.9650   74.6770 C   0  0  0  0  0  0  0  0  0  0  0  0
  131.5570  123.7020   75.3380 C   0  0  0  0  0  0  0  0  0  0  0  0
  131.2730  122.6160   74.3990 N   0  0  0  0  0  0  0  0  0  0  0  0
  130.3220  122.6410   73.4490 C   0  0  0  0  0  0  0  0  0  0  0  0
  129.5790  123.6070   73.2660 O   0  0  0  0  0  0  0  0  0  0  0  0
  130.2070  121.3700   72.5920 C   0  0  0  0  0  0  0  0  0  0  0  0
  129.3750  119.9520   73.3890 S   0  0  0  0  0  0  0  0  0  0  0  0
  127.6370  120.3220   73.5770 C   0  0  0  0  0  0  0  0  0  0  0  0
  127.2410  120.6920   74.8230 N   0  0  0  0  0  0  0  0  0  0  0  0
  125.9360  120.9760   75.0370 C   0  0  0  0  0  0  0  0  0  0  0  0
  125.5710  121.3720   76.4540 C   0  0  0  0  0  0  0  0  0  0  0  0
  124.9780  120.9140   74.0270 C   0  0  0  0  0  0  0  0  0  0  0  0
  125.3730  120.5430   72.7380 C   0  0  0  0  0  0  0  0  0  0  0  0
  124.3080  120.4810   71.6460 C   0  0  0  0  0  0  0  0  0  0  0  0
  126.7310  120.2370   72.4950 C   0  0  0  0  0  0  0  0  0  0  0  0
  127.1740  119.8410   71.1540 C   0  0  0  0  0  0  0  0  0  0  0  0
  127.5220  119.5280   70.0960 N   0  0  0  0  0  0  0  0  0  0  0  0
  126.7939  128.8589   74.8206 H   0  0  0  0  0  0  0  0  0  0  0  0
  126.1747  129.6154   73.3136 H   0  0  0  0  0  0  0  0  0  0  0  0
  126.6713  127.8891   73.3136 H   0  0  0  0  0  0  0  0  0  0  0  0
  128.1642  129.3154   71.3071 H   0  0  0  0  0  0  0  0  0  0  0  0
  129.7274  128.8223   72.0428 H   0  0  0  0  0  0  0  0  0  0  0  0
  127.3268  127.0937   72.6328 H   0  0  0  0  0  0  0  0  0  0  0  0
  127.9909  127.0279   70.9655 H   0  0  0  0  0  0  0  0  0  0  0  0
  130.5602  126.1416   70.8735 H   0  0  0  0  0  0  0  0  0  0  0  0
  130.6153  127.7757   71.6160 H   0  0  0  0  0  0  0  0  0  0  0  0
  132.3313  125.5621   72.1712 H   0  0  0  0  0  0  0  0  0  0  0  0
  132.2525  127.1266   73.0503 H   0  0  0  0  0  0  0  0  0  0  0  0
  133.0025  124.6863   74.0524 H   0  0  0  0  0  0  0  0  0  0  0  0
  132.4647  125.6694   75.4574 H   0  0  0  0  0  0  0  0  0  0  0  0
  132.2793  123.3357   76.0824 H   0  0  0  0  0  0  0  0  0  0  0  0
  130.5963  123.9933   75.7877 H   0  0  0  0  0  0  0  0  0  0  0  0
  131.8430  121.7870   74.4900 H   0  0  0  0  0  0  0  0  0  0  0  0
  129.6436  121.6252   71.6824 H   0  0  0  0  0  0  0  0  0  0  0  0
  131.2394  121.0431   72.3991 H   0  0  0  0  0  0  0  0  0  0  0  0
  126.1397  120.7550   77.1652 H   0  0  0  0  0  0  0  0  0  0  0  0
  125.8146  122.4329   76.6125 H   0  0  0  0  0  0  0  0  0  0  0  0
  124.4938  121.2155   76.6125 H   0  0  0  0  0  0  0  0  0  0  0  0
  123.9259  121.1535   74.2407 H   0  0  0  0  0  0  0  0  0  0  0  0
  123.3116  120.4230   72.1084 H   0  0  0  0  0  0  0  0  0  0  0  0
  124.3703  121.3843   71.0214 H   0  0  0  0  0  0  0  0  0  0  0  0
  124.4747  119.5910   71.0214 H   0  0  0  0  0  0  0  0  0  0  0  0
  1  2  1  0
  2  3  1  0
  3  4  1  0
  4  5  1  0
  5  6  1  0
  6  7  1  0
  7  8  1  0
  8  9  1  0
  9 10  1  0
 10 11  1  0
 11 12  1  0
 12 13  2  0
 12 14  1  0
 14 15  1  0
 15 16  1  0
 16 17  2  0
 17 18  1  0
 18 19  1  0
 18 20  2  0
 20 21  1  0
 21 22  1  0
 21 23  2  0
 23 24  1  0
 24 25  3  0
 23 16  1  0
  1 26  1  0
  1 27  1  0
  1 28  1  0
  3 29  1  0
  3 30  1  0
  4 31  1  0
  4 32  1  0
  6 33  1  0
  6 34  1  0
  7 35  1  0
  7 36  1  0
  9 37  1  0
  9 38  1  0
 10 39  1  0
 10 40  1  0
 11 41  1  0
 14 42  1  0
 14 43  1  0
 19 44  1  0
 19 45  1  0
 19 46  1  0
 20 47  1  0
 22 48  1  0
 22 49  1  0
 22 50  1  0
M  END
>  <Binding energies>  (1) 
[-6.87]

>  <Ligand effiencies>  (1) 
[-0.2642307692307692]

>  <Interactions>  (1) 
["V-A:HIS:456:CE1:4068, V-A:TYR:484:CB:4339, V-B:LYS:547:CB:9919, V-A:HIS:456:CD2:4066, V-A:TYR:484:CG:4340, V-B:LYS:547:CA:9917, V-B:LYS:547:CE:9922, V-B:LYS:547:CG:9920, V-B:GLY:544:CA:9886, V-B:VAL:542:CG1:9871, V-B:HIS:456:CG:9038, H-B:LYS:547:NZ:9923, H-A:LYS:547:NZ:4949, V-B:HIS:456:CB:9037, V-A:GLY:544:C:4910, V-B:HIS:456:CD2:9040, V-B:GLY:544:C:9884, V-A:HIS:456:CB:4063, V-A:LYS:547:CE:4948, V-A:ASP:473:CG:4238, V-A:HIS:456:CG:4064, V-A:LYS:471:CE:4218, H-A:TYR:484:N:4338, H-A:ASP:473:OD2:4240, V-B:LYS:547:CD:9921, H-B:GLU:543:N:9877, V-B:GLU:357:CD:8108, H-A:ASP:473:OD1:4239"]

$$$$
1l_Grossjean_2025
     RDKit          3D

 30 30  0  0  0  0  0  0  0  0999 V2000
  124.8990  128.3600   74.4810 C   0  0  0  0  0  0  0  0  0  0  0  0
  126.1500  128.8900   74.0650 O   0  0  0  0  0  0  0  0  0  0  0  0
  127.0240  127.8520   73.7470 N   0  0  0  0  0  0  0  0  0  0  0  0
  128.1780  128.1400   73.1160 C   0  0  0  0  0  0  0  0  0  0  0  0
  128.6260  129.2840   72.9970 O   0  0  0  0  0  0  0  0  0  0  0  0
  128.9320  126.9280   72.5510 C   0  0  0  0  0  0  0  0  0  0  0  0
  130.7470  126.9940   72.7330 S   0  0  0  0  0  0  0  0  0  0  0  0
  131.2900  125.4540   73.4540 C   0  0  0  0  0  0  0  0  0  0  0  0
  130.4260  124.4120   73.3390 N   0  0  0  0  0  0  0  0  0  0  0  0
  130.7750  123.2140   73.8650 C   0  0  0  0  0  0  0  0  0  0  0  0
  129.7590  122.1000   73.6970 C   0  0  0  0  0  0  0  0  0  0  0  0
  131.9860  123.0040   74.5200 C   0  0  0  0  0  0  0  0  0  0  0  0
  132.8840  124.0690   74.6430 C   0  0  0  0  0  0  0  0  0  0  0  0
  134.2080  123.8150   75.3630 C   0  0  0  0  0  0  0  0  0  0  0  0
  132.5410  125.3280   74.1020 C   0  0  0  0  0  0  0  0  0  0  0  0
  133.4640  126.4620   74.2170 C   0  0  0  0  0  0  0  0  0  0  0  0
  134.1930  127.3550   74.3080 N   0  0  0  0  0  0  0  0  0  0  0  0
  124.8558  128.3417   75.5800 H   0  0  0  0  0  0  0  0  0  0  0  0
  124.0860  128.9910   74.0925 H   0  0  0  0  0  0  0  0  0  0  0  0
  124.7867  127.3370   74.0925 H   0  0  0  0  0  0  0  0  0  0  0  0
  126.5500  126.9630   73.6740 H   0  0  0  0  0  0  0  0  0  0  0  0
  128.5696  126.0285   73.0702 H   0  0  0  0  0  0  0  0  0  0  0  0
  128.7320  126.9189   71.4694 H   0  0  0  0  0  0  0  0  0  0  0  0
  129.4360  121.7459   74.6871 H   0  0  0  0  0  0  0  0  0  0  0  0
  128.8885  122.4784   73.1410 H   0  0  0  0  0  0  0  0  0  0  0  0
  130.2157  121.2680   73.1410 H   0  0  0  0  0  0  0  0  0  0  0  0
  132.2324  122.0153   74.9344 H   0  0  0  0  0  0  0  0  0  0  0  0
  134.0458  123.8461   76.4505 H   0  0  0  0  0  0  0  0  0  0  0  0
  134.5963  122.8260   75.0783 H   0  0  0  0  0  0  0  0  0  0  0  0
  134.9348  124.5901   75.0783 H   0  0  0  0  0  0  0  0  0  0  0  0
  1  2  1  0
  2  3  1  0
  3  4  1  0
  4  5  2  0
  4  6  1  0
  6  7  1  0
  7  8  1  0
  8  9  2  0
  9 10  1  0
 10 11  1  0
 10 12  2  0
 12 13  1  0
 13 14  1  0
 13 15  2  0
 15 16  1  0
 16 17  3  0
 15  8  1  0
  1 18  1  0
  1 19  1  0
  1 20  1  0
  3 21  1  0
  6 22  1  0
  6 23  1  0
 11 24  1  0
 11 25  1  0
 11 26  1  0
 12 27  1  0
 14 28  1  0
 14 29  1  0
 14 30  1  0
M  END
>  <Binding energies>  (1) 
[-6.8]

>  <Ligand effiencies>  (1) 
[-0.37777777777777777]

>  <Interactions>  (1) 
["V-A:HIS:456:CD2:4066, V-B:LYS:547:CE:9922, H-B:LYS:547:NZ:9923, V-B:VAL:458:CG2:9059, H-A:LYS:547:NZ:4949, V-B:HIS:456:CB:9037, V-B:HIS:456:C:9033, V-B:GLY:544:C:9884, V-A:LYS:471:CD:4217, V-A:HIS:456:CB:4063, V-A:LYS:547:CE:4948, V-A:ASP:473:CG:4238, V-A:HIS:456:CG:4064, V-A:HIS:456:C:4059, V-A:LYS:471:CG:4216, V-A:VAL:458:CG2:4085, V-A:LYS:471:CE:4218, V-A:LYS:547:CD:4947, H-B:GLY:544:O:9885, V-A:LYS:547:CG:4946, V-B:LYS:547:CD:9921"]

$$$$
1m_Grossjean_2025
     RDKit          3D

 35 35  0  0  0  0  0  0  0  0999 V2000
  133.9790  123.8400   75.2570 C   0  0  0  0  0  0  0  0  0  0  0  0
  134.6000  125.0450   74.8310 O   0  0  0  0  0  0  0  0  0  0  0  0
  133.8670  126.0410   74.2930 C   0  0  0  0  0  0  0  0  0  0  0  0
  134.2580  127.1960   74.1000 O   0  0  0  0  0  0  0  0  0  0  0  0
  132.4460  125.5640   73.9250 C   0  0  0  0  0  0  0  0  0  0  0  0
  131.6020  126.6440   73.3920 N   0  0  0  0  0  0  0  0  0  0  0  0
  130.3420  126.5050   72.9400 C   0  0  0  0  0  0  0  0  0  0  0  0
  129.7540  125.4210   72.9110 O   0  0  0  0  0  0  0  0  0  0  0  0
  129.6710  127.7930   72.4460 C   0  0  0  0  0  0  0  0  0  0  0  0
  127.8510  127.8090   72.5930 S   0  0  0  0  0  0  0  0  0  0  0  0
  127.3830  129.2910   73.4620 C   0  0  0  0  0  0  0  0  0  0  0  0
  128.2630  130.3120   73.3070 N   0  0  0  0  0  0  0  0  0  0  0  0
  128.0070  131.4920   73.9180 C   0  0  0  0  0  0  0  0  0  0  0  0
  129.0250  132.5910   73.6830 C   0  0  0  0  0  0  0  0  0  0  0  0
  126.8800  131.6980   74.7110 C   0  0  0  0  0  0  0  0  0  0  0  0
  125.9790  130.6450   74.8990 C   0  0  0  0  0  0  0  0  0  0  0  0
  124.7590  130.8890   75.7850 C   0  0  0  0  0  0  0  0  0  0  0  0
  126.2260  129.4030   74.2720 C   0  0  0  0  0  0  0  0  0  0  0  0
  125.3230  128.2720   74.4950 C   0  0  0  0  0  0  0  0  0  0  0  0
  124.6080  127.3790   74.6720 N   0  0  0  0  0  0  0  0  0  0  0  0
  133.9612  123.8054   76.3563 H   0  0  0  0  0  0  0  0  0  0  0  0
  132.9492  123.8023   74.8722 H   0  0  0  0  0  0  0  0  0  0  0  0
  134.5459  122.9794   74.8722 H   0  0  0  0  0  0  0  0  0  0  0  0
  132.5267  124.7733   73.1645 H   0  0  0  0  0  0  0  0  0  0  0  0
  131.9710  125.1970   74.8468 H   0  0  0  0  0  0  0  0  0  0  0  0
  132.0250  127.5600   73.3580 H   0  0  0  0  0  0  0  0  0  0  0  0
  130.0697  128.6339   73.0325 H   0  0  0  0  0  0  0  0  0  0  0  0
  129.8969  127.8692   71.3722 H   0  0  0  0  0  0  0  0  0  0  0  0
  129.3804  132.9747   74.6507 H   0  0  0  0  0  0  0  0  0  0  0  0
  129.8755  132.1875   73.1139 H   0  0  0  0  0  0  0  0  0  0  0  0
  128.5576  133.4081   73.1139 H   0  0  0  0  0  0  0  0  0  0  0  0
  126.7014  132.6755   75.1827 H   0  0  0  0  0  0  0  0  0  0  0  0
  125.0560  130.8296   76.8425 H   0  0  0  0  0  0  0  0  0  0  0  0
  124.3473  131.8873   75.5753 H   0  0  0  0  0  0  0  0  0  0  0  0
  123.9950  130.1259   75.5753 H   0  0  0  0  0  0  0  0  0  0  0  0
  1  2  1  0
  2  3  1  0
  3  4  2  0
  3  5  1  0
  5  6  1  0
  6  7  1  0
  7  8  2  0
  7  9  1  0
  9 10  1  0
 10 11  1  0
 11 12  2  0
 12 13  1  0
 13 14  1  0
 13 15  2  0
 15 16  1  0
 16 17  1  0
 16 18  2  0
 18 19  1  0
 19 20  3  0
 18 11  1  0
  1 21  1  0
  1 22  1  0
  1 23  1  0
  5 24  1  0
  5 25  1  0
  6 26  1  0
  9 27  1  0
  9 28  1  0
 14 29  1  0
 14 30  1  0
 14 31  1  0
 15 32  1  0
 17 33  1  0
 17 34  1  0
 17 35  1  0
M  END
>  <Binding energies>  (1) 
[-6.97]

>  <Ligand effiencies>  (1) 
[-0.33190476190476187]

>  <Interactions>  (1) 
["V-A:HIS:456:CD2:4066, V-B:HIS:456:CG:9038, H-B:LYS:547:NZ:9923, V-B:LYS:471:CE:9192, V-B:VAL:458:CG2:9059, H-A:LYS:547:NZ:4949, V-B:HIS:456:CB:9037, V-A:GLY:544:C:4910, V-B:HIS:456:C:9033, V-B:HIS:456:CD2:9040, V-B:LYS:471:CG:9190, V-B:LYS:471:CD:9191, V-A:LYS:471:CD:4217, V-A:HIS:456:CB:4063, V-A:LYS:547:CE:4948, V-A:HIS:456:CG:4064, V-A:HIS:456:C:4059, V-A:VAL:457:C:4071, V-A:LYS:471:CG:4216, V-A:HIS:456:CA:4061, H-A:VAL:458:N:4082, V-A:VAL:458:CG2:4085, V-A:LYS:471:CE:4218, H-A:GLY:544:O:4911, V-B:ASP:473:CG:9212, V-A:GLY:544:CA:4912, V-B:LYS:547:CD:9921, H-A:VAL:457:N:4074"]

$$$$
1n_Grossjean_2025
     RDKit          3D

 48 49  0  0  0  0  0  0  0  0999 V2000
  132.9990  126.0000   73.8600 C   0  0  0  0  0  0  0  0  0  0  0  0
  132.0060  124.8510   74.0630 C   0  0  0  0  0  0  0  0  0  0  0  0
  130.8030  125.1360   73.3610 O   0  0  0  0  0  0  0  0  0  0  0  0
  130.2680  126.3840   73.3650 C   0  0  0  0  0  0  0  0  0  0  0  0
  130.1400  127.0660   74.3860 O   0  0  0  0  0  0  0  0  0  0  0  0
  129.8570  126.8580   72.0000 C   0  0  0  0  0  0  0  0  0  0  0  0
  130.7720  126.9520   70.9410 C   0  0  0  0  0  0  0  0  0  0  0  0
  130.3600  127.3980   69.6890 C   0  0  0  0  0  0  0  0  0  0  0  0
  129.0310  127.7650   69.4700 C   0  0  0  0  0  0  0  0  0  0  0  0
  128.7240  128.2060   68.1680 N   0  0  0  0  0  0  0  0  0  0  0  0
  127.6590  127.9210   67.3890 C   0  0  0  0  0  0  0  0  0  0  0  0
  126.7180  127.1930   67.7040 O   0  0  0  0  0  0  0  0  0  0  0  0
  127.6550  128.5830   66.0040 C   0  0  0  0  0  0  0  0  0  0  0  0
  126.7970  129.8660   65.9480 C   0  0  0  0  0  0  0  0  0  0  0  0
  125.1510  129.6410   65.2110 S   0  0  0  0  0  0  0  0  0  0  0  0
  125.1460  130.4730   63.6380 C   0  0  0  0  0  0  0  0  0  0  0  0
  124.3500  131.5710   63.6070 N   0  0  0  0  0  0  0  0  0  0  0  0
  124.2820  132.2940   62.4640 C   0  0  0  0  0  0  0  0  0  0  0  0
  123.3810  133.5130   62.5080 C   0  0  0  0  0  0  0  0  0  0  0  0
  124.9910  131.9520   61.3150 C   0  0  0  0  0  0  0  0  0  0  0  0
  125.7990  130.8100   61.3300 C   0  0  0  0  0  0  0  0  0  0  0  0
  126.5570  130.4470   60.0550 C   0  0  0  0  0  0  0  0  0  0  0  0
  125.8820  130.0370   62.5110 C   0  0  0  0  0  0  0  0  0  0  0  0
  126.6800  128.8100   62.5330 C   0  0  0  0  0  0  0  0  0  0  0  0
  127.3110  127.8400   62.5480 N   0  0  0  0  0  0  0  0  0  0  0  0
  128.1080  127.6630   70.5210 C   0  0  0  0  0  0  0  0  0  0  0  0
  128.5220  127.2140   71.7720 C   0  0  0  0  0  0  0  0  0  0  0  0
  133.3265  126.3789   74.8394 H   0  0  0  0  0  0  0  0  0  0  0  0
  133.8713  125.6357   73.2974 H   0  0  0  0  0  0  0  0  0  0  0  0
  132.5122  126.8103   73.2974 H   0  0  0  0  0  0  0  0  0  0  0  0
  132.4422  123.9170   73.6792 H   0  0  0  0  0  0  0  0  0  0  0  0
  131.7877  124.7396   75.1353 H   0  0  0  0  0  0  0  0  0  0  0  0
  131.8233  126.6710   71.1015 H   0  0  0  0  0  0  0  0  0  0  0  0
  131.0868  127.4619   68.8658 H   0  0  0  0  0  0  0  0  0  0  0  0
  129.3900  128.8620   67.7880 H   0  0  0  0  0  0  0  0  0  0  0  0
  128.6901  128.8422   65.7369 H   0  0  0  0  0  0  0  0  0  0  0  0
  127.2152  127.8633   65.2978 H   0  0  0  0  0  0  0  0  0  0  0  0
  126.6656  130.2365   66.9754 H   0  0  0  0  0  0  0  0  0  0  0  0
  127.3352  130.5740   65.3007 H   0  0  0  0  0  0  0  0  0  0  0  0
  123.1810  133.7835   63.5553 H   0  0  0  0  0  0  0  0  0  0  0  0
  123.8765  134.3537   62.0003 H   0  0  0  0  0  0  0  0  0  0  0  0
  122.4319  133.2860   62.0003 H   0  0  0  0  0  0  0  0  0  0  0  0
  124.9167  132.5710   60.4087 H   0  0  0  0  0  0  0  0  0  0  0  0
  127.5200  129.9858   60.3196 H   0  0  0  0  0  0  0  0  0  0  0  0
  125.9606  129.7368   59.4635 H   0  0  0  0  0  0  0  0  0  0  0  0
  126.7364  131.3569   59.4635 H   0  0  0  0  0  0  0  0  0  0  0  0
  127.0557  127.9381   70.3566 H   0  0  0  0  0  0  0  0  0  0  0  0
  127.7918  127.1380   72.5911 H   0  0  0  0  0  0  0  0  0  0  0  0
  1  2  1  0
  2  3  1  0
  3  4  1  0
  4  5  2  0
  4  6  1  0
  6  7  2  0
  7  8  1  0
  8  9  2  0
  9 10  1  0
 10 11  1  0
 11 12  2  0
 11 13  1  0
 13 14  1  0
 14 15  1  0
 15 16  1  0
 16 17  2  0
 17 18  1  0
 18 19  1  0
 18 20  2  0
 20 21  1  0
 21 22  1  0
 21 23  2  0
 23 24  1  0
 24 25  3  0
  9 26  1  0
 26 27  2  0
 27  6  1  0
 23 16  1  0
  1 28  1  0
  1 29  1  0
  1 30  1  0
  2 31  1  0
  2 32  1  0
  7 33  1  0
  8 34  1  0
 10 35  1  0
 13 36  1  0
 13 37  1  0
 14 38  1  0
 14 39  1  0
 19 40  1  0
 19 41  1  0
 19 42  1  0
 20 43  1  0
 22 44  1  0
 22 45  1  0
 22 46  1  0
 26 47  1  0
 27 48  1  0
M  END
>  <Binding energies>  (1) 
[-8.04]

>  <Ligand effiencies>  (1) 
[-0.2871428571428571]

>  <Interactions>  (1) 
["V-A:GLU:543:CD:4906, V-B:GLU:543:CG:9879, V-A:HIS:456:CE1:4068, V-B:GLU:543:CD:9880, V-A:HIS:456:CD2:4066, V-B:LYS:547:CE:9922, V-B:GLY:544:CA:9886, H-B:ARG:545:NH2:9900, V-B:GLY:454:CA:9021, V-B:LEU:475:CD2:9231, H-B:GLY:454:N:9022, H-B:TYR:484:OH:9320, V-B:ARG:545:CZ:9898, H-A:GLU:543:OE2:4908, V-A:GLU:543:CB:4904, V-B:ILE:369:CD1:8211, V-B:HIS:456:CE1:9042, V-B:TYR:484:CZ:9319, H-B:ARG:545:NE:9896, V-A:GLU:543:CG:4905, H-B:LYS:547:NZ:9923, H-A:LYS:547:NZ:4949, V-A:GLY:544:C:4910, V-A:GLU:543:C:4900, V-B:HIS:456:CD2:9040, V-B:GLY:544:C:9884, V-A:HIS:456:CB:4063, V-A:LYS:547:CE:4948, V-A:HIS:456:CG:4064, H-B:HIS:456:NE2:9043, H-A:GLU:543:O:4901, V-A:GLY:544:CA:4912"]

$$$$
1o_Grossjean_2025
     RDKit          3D

 45 46  0  0  0  0  0  0  0  0999 V2000
  129.3620  117.4060   74.9110 C   0  0  0  0  0  0  0  0  0  0  0  0
  129.0040  118.7090   74.4710 O   0  0  0  0  0  0  0  0  0  0  0  0
  129.4390  119.8130   75.1310 C   0  0  0  0  0  0  0  0  0  0  0  0
  129.8150  119.7990   76.3070 O   0  0  0  0  0  0  0  0  0  0  0  0
  129.4190  121.0550   74.2870 C   0  0  0  0  0  0  0  0  0  0  0  0
  130.3280  122.1040   74.4890 C   0  0  0  0  0  0  0  0  0  0  0  0
  130.2850  123.2420   73.6870 C   0  0  0  0  0  0  0  0  0  0  0  0
  129.3330  123.3570   72.6730 C   0  0  0  0  0  0  0  0  0  0  0  0
  129.3850  124.5450   71.9170 N   0  0  0  0  0  0  0  0  0  0  0  0
  129.8160  125.7770   72.2690 C   0  0  0  0  0  0  0  0  0  0  0  0
  130.3040  126.0730   73.3590 O   0  0  0  0  0  0  0  0  0  0  0  0
  129.6950  126.8540   71.1810 C   0  0  0  0  0  0  0  0  0  0  0  0
  128.9170  128.1020   71.6410 C   0  0  0  0  0  0  0  0  0  0  0  0
  127.5680  127.7430   72.8050 S   0  0  0  0  0  0  0  0  0  0  0  0
  127.1220  129.2540   73.6370 C   0  0  0  0  0  0  0  0  0  0  0  0
  128.0000  130.2670   73.4230 N   0  0  0  0  0  0  0  0  0  0  0  0
  127.7600  131.4690   73.9990 C   0  0  0  0  0  0  0  0  0  0  0  0
  128.7760  132.5560   73.7030 C   0  0  0  0  0  0  0  0  0  0  0  0
  126.6540  131.7050   74.8120 C   0  0  0  0  0  0  0  0  0  0  0  0
  125.7570  130.6610   75.0600 C   0  0  0  0  0  0  0  0  0  0  0  0
  124.5600  130.9410   75.9670 C   0  0  0  0  0  0  0  0  0  0  0  0
  125.9890  129.3960   74.4730 C   0  0  0  0  0  0  0  0  0  0  0  0
  125.0930  128.2750   74.7690 C   0  0  0  0  0  0  0  0  0  0  0  0
  124.3830  127.3920   75.0030 N   0  0  0  0  0  0  0  0  0  0  0  0
  128.4240  122.3090   72.4620 C   0  0  0  0  0  0  0  0  0  0  0  0
  128.4700  121.1730   73.2640 C   0  0  0  0  0  0  0  0  0  0  0  0
  129.3693  117.3794   76.0107 H   0  0  0  0  0  0  0  0  0  0  0  0
  128.6309  116.6770   74.5315 H   0  0  0  0  0  0  0  0  0  0  0  0
  130.3630  117.1529   74.5315 H   0  0  0  0  0  0  0  0  0  0  0  0
  131.0809  122.0273   75.2873 H   0  0  0  0  0  0  0  0  0  0  0  0
  131.0063  124.0556   73.8540 H   0  0  0  0  0  0  0  0  0  0  0  0
  129.0700  124.4410   70.9640 H   0  0  0  0  0  0  0  0  0  0  0  0
  130.7074  127.1642   70.8829 H   0  0  0  0  0  0  0  0  0  0  0  0
  129.1338  126.4105   70.3453 H   0  0  0  0  0  0  0  0  0  0  0  0
  129.6229  128.7890   72.1306 H   0  0  0  0  0  0  0  0  0  0  0  0
  128.4555  128.5389   70.7431 H   0  0  0  0  0  0  0  0  0  0  0  0
  129.1597  132.9666   74.6486 H   0  0  0  0  0  0  0  0  0  0  0  0
  129.6086  132.1315   73.1229 H   0  0  0  0  0  0  0  0  0  0  0  0
  128.2963  133.3581   73.1229 H   0  0  0  0  0  0  0  0  0  0  0  0
  126.4883  132.6990   75.2530 H   0  0  0  0  0  0  0  0  0  0  0  0
  124.8722  130.8680   77.0192 H   0  0  0  0  0  0  0  0  0  0  0  0
  124.1775  131.9529   75.7674 H   0  0  0  0  0  0  0  0  0  0  0  0
  123.7684  130.2038   75.7674 H   0  0  0  0  0  0  0  0  0  0  0  0
  127.6738  122.3857   71.6612 H   0  0  0  0  0  0  0  0  0  0  0  0
  127.7520  120.3575   73.0924 H   0  0  0  0  0  0  0  0  0  0  0  0
  1  2  1  0
  2  3  1  0
  3  4  2  0
  3  5  1  0
  5  6  2  0
  6  7  1  0
  7  8  2  0
  8  9  1  0
  9 10  1  0
 10 11  2  0
 10 12  1  0
 12 13  1  0
 13 14  1  0
 14 15  1  0
 15 16  2  0
 16 17  1  0
 17 18  1  0
 17 19  2  0
 19 20  1  0
 20 21  1  0
 20 22  2  0
 22 23  1  0
 23 24  3  0
  8 25  1  0
 25 26  2  0
 26  5  1  0
 22 15  1  0
  1 27  1  0
  1 28  1  0
  1 29  1  0
  6 30  1  0
  7 31  1  0
  9 32  1  0
 12 33  1  0
 12 34  1  0
 13 35  1  0
 13 36  1  0
 18 37  1  0
 18 38  1  0
 18 39  1  0
 19 40  1  0
 21 41  1  0
 21 42  1  0
 21 43  1  0
 25 44  1  0
 26 45  1  0
M  END
>  <Binding energies>  (1) 
[-7.9]

>  <Ligand effiencies>  (1) 
[-0.2925925925925926]

>  <Interactions>  (1) 
["V-A:HIS:456:CE1:4068, V-A:HIS:456:CD2:4066, V-B:LYS:547:CE:9922, V-B:GLU:543:C:9874, V-B:LYS:547:CG:9920, V-B:GLY:544:CA:9886, V-B:HIS:456:CG:9038, H-B:LYS:547:NZ:9923, V-B:LYS:471:CE:9192, V-B:VAL:458:CG2:9059, H-A:LYS:547:NZ:4949, V-B:HIS:456:CB:9037, V-B:HIS:456:C:9033, H-A:HIS:456:NE2:4069, H-B:GLU:543:O:9875, V-B:HIS:456:CD2:9040, V-B:LYS:471:CG:9190, V-B:LYS:471:CD:9191, V-A:LYS:547:CE:4948, V-A:ASP:473:CG:4238, V-A:HIS:456:CG:4064, V-A:LYS:471:CE:4218, V-A:TYR:484:C:4335, V-B:ASP:473:CG:9212, H-A:LYS:471:NZ:4219, V-B:LYS:547:CD:9921"]

$$$$
1p_Grossjean_2025
     RDKit          3D

 35 36  0  0  0  0  0  0  0  0999 V2000
  129.8240  122.0730   73.6030 C   0  0  0  0  0  0  0  0  0  0  0  0
  130.8480  123.1670   73.8400 C   0  0  0  0  0  0  0  0  0  0  0  0
  132.0480  122.9110   74.5010 C   0  0  0  0  0  0  0  0  0  0  0  0
  132.9500  123.9610   74.7040 C   0  0  0  0  0  0  0  0  0  0  0  0
  134.2520  123.6610   75.4440 C   0  0  0  0  0  0  0  0  0  0  0  0
  132.6270  125.2510   74.2260 C   0  0  0  0  0  0  0  0  0  0  0  0
  133.5320  126.3760   74.4670 C   0  0  0  0  0  0  0  0  0  0  0  0
  134.2490  127.2650   74.6580 N   0  0  0  0  0  0  0  0  0  0  0  0
  131.3970  125.4140   73.5440 C   0  0  0  0  0  0  0  0  0  0  0  0
  130.8420  126.9640   72.8720 S   0  0  0  0  0  0  0  0  0  0  0  0
  129.8880  126.5760   71.3760 C   0  0  0  0  0  0  0  0  0  0  0  0
  128.8650  127.6630   70.9920 C   0  0  0  0  0  0  0  0  0  0  0  0
  128.4100  128.5240   72.1800 C   0  0  0  0  0  0  0  0  0  0  0  0
  129.1220  129.4540   72.5650 O   0  0  0  0  0  0  0  0  0  0  0  0
  127.2160  128.1910   72.7200 N   0  0  0  0  0  0  0  0  0  0  0  0
  126.5780  128.8020   73.7910 C   0  0  0  0  0  0  0  0  0  0  0  0
  125.2540  128.5370   74.1420 C   0  0  0  0  0  0  0  0  0  0  0  0
  125.0080  129.3310   75.2390 C   0  0  0  0  0  0  0  0  0  0  0  0
  126.1240  130.0390   75.5320 O   0  0  0  0  0  0  0  0  0  0  0  0
  127.1120  129.6960   74.6070 N   0  0  0  0  0  0  0  0  0  0  0  0
  130.5190  124.3930   73.3720 N   0  0  0  0  0  0  0  0  0  0  0  0
  129.4658  121.6903   74.5701 H   0  0  0  0  0  0  0  0  0  0  0  0
  128.9761  122.4815   73.0335 H   0  0  0  0  0  0  0  0  0  0  0  0
  130.2876  121.2540   73.0335 H   0  0  0  0  0  0  0  0  0  0  0  0
  132.2827  121.8974   74.8581 H   0  0  0  0  0  0  0  0  0  0  0  0
  134.0749  123.7018   76.5289 H   0  0  0  0  0  0  0  0  0  0  0  0
  134.6077  122.6574   75.1680 H   0  0  0  0  0  0  0  0  0  0  0  0
  135.0111  124.4078   75.1680 H   0  0  0  0  0  0  0  0  0  0  0  0
  130.5909  126.4500   70.5393 H   0  0  0  0  0  0  0  0  0  0  0  0
  129.3177  125.6596   71.5881 H   0  0  0  0  0  0  0  0  0  0  0  0
  129.3231  128.3220   70.2398 H   0  0  0  0  0  0  0  0  0  0  0  0
  127.9735  127.1464   70.6069 H   0  0  0  0  0  0  0  0  0  0  0  0
  126.7280  127.4070   72.3140 H   0  0  0  0  0  0  0  0  0  0  0  0
  124.5573  127.8434   73.6486 H   0  0  0  0  0  0  0  0  0  0  0  0
  124.0570  129.3821   75.7894 H   0  0  0  0  0  0  0  0  0  0  0  0
  1  2  1  0
  2  3  2  0
  3  4  1  0
  4  5  1  0
  4  6  2  0
  6  7  1  0
  7  8  3  0
  6  9  1  0
  9 10  1  0
 10 11  1  0
 11 12  1  0
 12 13  1  0
 13 14  2  0
 13 15  1  0
 15 16  1  0
 16 17  1  0
 17 18  2  0
 18 19  1  0
 19 20  1  0
  9 21  2  0
 21  2  1  0
 20 16  2  0
  1 22  1  0
  1 23  1  0
  1 24  1  0
  3 25  1  0
  5 26  1  0
  5 27  1  0
  5 28  1  0
 11 29  1  0
 11 30  1  0
 12 31  1  0
 12 32  1  0
 15 33  1  0
 17 34  1  0
 18 35  1  0
M  END
>  <Binding energies>  (1) 
[-8.22]

>  <Ligand effiencies>  (1) 
[-0.37363636363636366]

>  <Interactions>  (1) 
["V-A:HIS:456:CE1:4068, V-A:HIS:456:CD2:4066, V-B:LYS:547:CE:9922, V-B:HIS:456:CG:9038, H-B:LYS:547:NZ:9923, V-B:VAL:458:CG2:9059, H-A:LYS:547:NZ:4949, V-B:HIS:456:CB:9037, V-B:HIS:456:CA:9035, V-B:HIS:456:C:9033, V-B:HIS:456:CD2:9040, V-B:GLY:544:C:9884, V-A:LYS:471:CD:4217, V-A:HIS:456:CB:4063, V-A:ASP:473:CG:4238, V-A:HIS:456:CG:4064, V-A:HIS:456:C:4059, V-A:LYS:471:CG:4216, V-A:VAL:458:CG2:4085, V-A:LYS:471:CE:4218, V-A:LYS:547:CD:4947, H-B:GLY:544:O:9885, V-A:LYS:547:CG:4946"]

$$$$
1q_Grossjean_2025
     RDKit          3D

 38 38  0  0  0  0  0  0  0  0999 V2000
  133.7900  123.9170   75.2460 C   0  0  0  0  0  0  0  0  0  0  0  0
  134.3170  125.0190   74.5210 O   0  0  0  0  0  0  0  0  0  0  0  0
  133.5830  126.1460   74.3520 C   0  0  0  0  0  0  0  0  0  0  0  0
  134.0380  127.2850   74.2340 O   0  0  0  0  0  0  0  0  0  0  0  0
  132.0580  125.9080   74.3460 C   0  0  0  0  0  0  0  0  0  0  0  0
  131.3760  126.5810   73.2310 N   0  0  0  0  0  0  0  0  0  0  0  0
  130.3570  126.0770   72.5090 C   0  0  0  0  0  0  0  0  0  0  0  0
  129.8720  124.9630   72.7160 O   0  0  0  0  0  0  0  0  0  0  0  0
  129.8040  126.9840   71.4000 C   0  0  0  0  0  0  0  0  0  0  0  0
  129.0260  128.2110   71.9150 C   0  0  0  0  0  0  0  0  0  0  0  0
  127.6010  127.7840   72.9590 S   0  0  0  0  0  0  0  0  0  0  0  0
  127.0510  129.2560   73.7970 C   0  0  0  0  0  0  0  0  0  0  0  0
  127.8760  130.3190   73.6190 N   0  0  0  0  0  0  0  0  0  0  0  0
  127.5640  131.4950   74.2100 C   0  0  0  0  0  0  0  0  0  0  0  0
  128.5430  132.6300   73.9790 C   0  0  0  0  0  0  0  0  0  0  0  0
  126.4200  131.6640   74.9880 C   0  0  0  0  0  0  0  0  0  0  0  0
  125.5480  130.5840   75.1570 C   0  0  0  0  0  0  0  0  0  0  0  0
  124.2910  130.8010   76.0000 C   0  0  0  0  0  0  0  0  0  0  0  0
  125.8530  129.3460   74.5480 C   0  0  0  0  0  0  0  0  0  0  0  0
  124.9230  128.2210   74.6680 C   0  0  0  0  0  0  0  0  0  0  0  0
  124.1850  127.3350   74.7650 N   0  0  0  0  0  0  0  0  0  0  0  0
  133.8823  124.1101   76.3250 H   0  0  0  0  0  0  0  0  0  0  0  0
  132.7295  123.7813   74.9872 H   0  0  0  0  0  0  0  0  0  0  0  0
  134.3500  123.0063   74.9872 H   0  0  0  0  0  0  0  0  0  0  0  0
  131.8723  124.8265   74.2690 H   0  0  0  0  0  0  0  0  0  0  0  0
  131.6557  126.3283   75.2796 H   0  0  0  0  0  0  0  0  0  0  0  0
  131.7320  127.4920   72.9800 H   0  0  0  0  0  0  0  0  0  0  0  0
  130.6492  127.3414   70.7934 H   0  0  0  0  0  0  0  0  0  0  0  0
  129.0907  126.3775   70.8226 H   0  0  0  0  0  0  0  0  0  0  0  0
  129.7132  128.8364   72.5037 H   0  0  0  0  0  0  0  0  0  0  0  0
  128.6330  128.7371   71.0326 H   0  0  0  0  0  0  0  0  0  0  0  0
  128.8829  133.0240   74.9481 H   0  0  0  0  0  0  0  0  0  0  0  0
  129.4082  132.2580   73.4107 H   0  0  0  0  0  0  0  0  0  0  0  0
  128.0480  133.4312   73.4107 H   0  0  0  0  0  0  0  0  0  0  0  0
  126.2061  132.6332   75.4623 H   0  0  0  0  0  0  0  0  0  0  0  0
  124.5530  130.7558   77.0674 H   0  0  0  0  0  0  0  0  0  0  0  0
  123.8606  131.7867   75.7696 H   0  0  0  0  0  0  0  0  0  0  0  0
  123.5550  130.0166   75.7696 H   0  0  0  0  0  0  0  0  0  0  0  0
  1  2  1  0
  2  3  1  0
  3  4  2  0
  3  5  1  0
  5  6  1  0
  6  7  1  0
  7  8  2  0
  7  9  1  0
  9 10  1  0
 10 11  1  0
 11 12  1  0
 12 13  2  0
 13 14  1  0
 14 15  1  0
 14 16  2  0
 16 17  1  0
 17 18  1  0
 17 19  2  0
 19 20  1  0
 20 21  3  0
 19 12  1  0
  1 22  1  0
  1 23  1  0
  1 24  1  0
  5 25  1  0
  5 26  1  0
  6 27  1  0
  9 28  1  0
  9 29  1  0
 10 30  1  0
 10 31  1  0
 15 32  1  0
 15 33  1  0
 15 34  1  0
 16 35  1  0
 18 36  1  0
 18 37  1  0
 18 38  1  0
M  END
>  <Binding energies>  (1) 
[-7.51]

>  <Ligand effiencies>  (1) 
[-0.34136363636363637]

>  <Interactions>  (1) 
["V-A:HIS:456:CD2:4066, V-B:LYS:547:CG:9920, V-B:HIS:456:CG:9038, H-B:LYS:547:NZ:9923, V-B:LYS:471:CE:9192, V-B:VAL:457:C:9045, V-B:VAL:458:CG2:9059, H-A:LYS:547:NZ:4949, V-B:HIS:456:CB:9037, V-A:GLY:544:C:4910, V-B:HIS:456:C:9033, V-B:HIS:456:CD2:9040, V-B:LYS:471:CG:9190, V-B:LYS:471:CD:9191, V-A:LYS:471:CD:4217, V-A:HIS:456:CB:4063, V-A:LYS:547:CE:4948, V-A:HIS:456:CG:4064, V-A:HIS:456:C:4059, V-A:LYS:471:CG:4216, V-A:VAL:458:CG2:4085, V-A:LYS:471:CE:4218, H-A:GLY:544:O:4911, V-B:ASP:473:CG:9212, V-B:LYS:547:CD:9921, H-A:VAL:457:N:4074"]

$$$$
2a_Ghoteimi_2023
     RDKit          3D

 85 90  0  0  0  0  0  0  0  0999 V2000
  129.4310  123.8400   58.7600 C   0  0  0  0  0  0  0  0  0  0  0  0
  129.3410  124.9220   57.6800 C   0  0  0  0  0  0  0  0  0  0  0  0
  129.5100  126.2000   58.2780 O   0  0  0  0  0  0  0  0  0  0  0  0
  128.4690  127.0650   58.3920 C   0  0  0  0  0  0  0  0  0  0  0  0
  127.7700  127.4170   57.4370 O   0  0  0  0  0  0  0  0  0  0  0  0
  128.2480  127.5440   59.7980 C   0  0  0  0  0  0  0  0  0  0  0  0
  127.7280  126.7060   60.7960 C   0  0  0  0  0  0  0  0  0  0  0  0
  127.5380  127.1820   62.0890 C   0  0  0  0  0  0  0  0  0  0  0  0
  127.8650  128.4990   62.4160 C   0  0  0  0  0  0  0  0  0  0  0  0
  127.6270  128.8750   63.7520 N   0  0  0  0  0  0  0  0  0  0  0  0
  126.4760  129.2450   64.3550 C   0  0  0  0  0  0  0  0  0  0  0  0
  125.3880  129.3670   63.7910 O   0  0  0  0  0  0  0  0  0  0  0  0
  126.5980  129.5660   65.8500 C   0  0  0  0  0  0  0  0  0  0  0  0
  126.1410  128.1910   66.9550 S   0  0  0  0  0  0  0  0  0  0  0  0
  127.6760  127.4470   67.4550 C   0  0  0  0  0  0  0  0  0  0  0  0
  128.4650  127.0720   66.4210 N   0  0  0  0  0  0  0  0  0  0  0  0
  129.6610  126.4830   66.6740 C   0  0  0  0  0  0  0  0  0  0  0  0
  130.4750  126.0880   65.4840 C   0  0  0  0  0  0  0  0  0  0  0  0
  131.7440  125.5140   65.6310 C   0  0  0  0  0  0  0  0  0  0  0  0
  132.5020  125.1590   64.5190 C   0  0  0  0  0  0  0  0  0  0  0  0
  132.0180  125.3560   63.2180 C   0  0  0  0  0  0  0  0  0  0  0  0
  132.8030  125.0220   62.1100 N   0  0  0  0  0  0  0  0  0  0  0  0
  132.1940  124.5780   60.8400 C   0  0  0  0  0  0  0  0  0  0  0  0
  133.1650  124.6040   59.6410 C   0  0  0  0  0  0  0  0  0  0  0  0
  134.3270  123.8470   59.9390 O   0  0  0  0  0  0  0  0  0  0  0  0
  135.0130  124.3730   61.0630 C   0  0  0  0  0  0  0  0  0  0  0  0
  134.1000  124.3410   62.3070 C   0  0  0  0  0  0  0  0  0  0  0  0
  130.7500  125.9430   63.0760 C   0  0  0  0  0  0  0  0  0  0  0  0
  129.9910  126.2960   64.1880 C   0  0  0  0  0  0  0  0  0  0  0  0
  130.0980  126.2680   67.9840 C   0  0  0  0  0  0  0  0  0  0  0  0
  129.2980  126.6480   69.0700 C   0  0  0  0  0  0  0  0  0  0  0  0
  129.8230  126.3830   70.4440 C   0  0  0  0  0  0  0  0  0  0  0  0
  131.1580  126.6570   70.7510 C   0  0  0  0  0  0  0  0  0  0  0  0
  131.6620  126.3950   72.0210 C   0  0  0  0  0  0  0  0  0  0  0  0
  130.8450  125.8540   73.0250 C   0  0  0  0  0  0  0  0  0  0  0  0
  131.3360  125.5670   74.3020 N   0  0  0  0  0  0  0  0  0  0  0  0
  132.0590  126.6140   75.0510 C   0  0  0  0  0  0  0  0  0  0  0  0
  132.1940  126.3030   76.5570 C   0  0  0  0  0  0  0  0  0  0  0  0
  132.8100  125.0370   76.7390 O   0  0  0  0  0  0  0  0  0  0  0  0
  132.0530  123.9950   76.1420 C   0  0  0  0  0  0  0  0  0  0  0  0
  131.9100  124.2460   74.6270 C   0  0  0  0  0  0  0  0  0  0  0  0
  129.5090  125.5710   72.7060 C   0  0  0  0  0  0  0  0  0  0  0  0
  129.0050  125.8310   71.4350 C   0  0  0  0  0  0  0  0  0  0  0  0
  128.0490  127.2610   68.8050 C   0  0  0  0  0  0  0  0  0  0  0  0
  127.1940  127.7310   69.8990 C   0  0  0  0  0  0  0  0  0  0  0  0
  126.5190  128.0990   70.7650 N   0  0  0  0  0  0  0  0  0  0  0  0
  128.3770  129.3460   61.4220 C   0  0  0  0  0  0  0  0  0  0  0  0
  128.5690  128.8680   60.1280 C   0  0  0  0  0  0  0  0  0  0  0  0
  129.3919  124.3098   59.7539 H   0  0  0  0  0  0  0  0  0  0  0  0
  128.5878  123.1420   58.6509 H   0  0  0  0  0  0  0  0  0  0  0  0
  130.3779  123.2909   58.6509 H   0  0  0  0  0  0  0  0  0  0  0  0
  130.1302  124.7598   56.9311 H   0  0  0  0  0  0  0  0  0  0  0  0
  128.3571  124.8722   57.1906 H   0  0  0  0  0  0  0  0  0  0  0  0
  127.4686  125.6648   60.5540 H   0  0  0  0  0  0  0  0  0  0  0  0
  127.1264  126.5148   62.8606 H   0  0  0  0  0  0  0  0  0  0  0  0
  128.4540  128.8900   64.3290 H   0  0  0  0  0  0  0  0  0  0  0  0
  127.6421  129.8424   66.0584 H   0  0  0  0  0  0  0  0  0  0  0  0
  125.8893  130.3820   66.0547 H   0  0  0  0  0  0  0  0  0  0  0  0
  132.1474  125.3413   66.6397 H   0  0  0  0  0  0  0  0  0  0  0  0
  133.4984  124.7160   64.6634 H   0  0  0  0  0  0  0  0  0  0  0  0
  131.8318  123.5476   60.9707 H   0  0  0  0  0  0  0  0  0  0  0  0
  131.3821  125.2837   60.6101 H   0  0  0  0  0  0  0  0  0  0  0  0
  132.6666  124.1740   58.7597 H   0  0  0  0  0  0  0  0  0  0  0  0
  133.4559  125.6447   59.4355 H   0  0  0  0  0  0  0  0  0  0  0  0
  135.9115  123.7685   61.2560 H   0  0  0  0  0  0  0  0  0  0  0  0
  135.2990  125.4144   60.8541 H   0  0  0  0  0  0  0  0  0  0  0  0
  133.9045  123.2903   62.5673 H   0  0  0  0  0  0  0  0  0  0  0  0
  134.6280  124.8805   63.1071 H   0  0  0  0  0  0  0  0  0  0  0  0
  130.3497  126.1270   62.0681 H   0  0  0  0  0  0  0  0  0  0  0  0
  128.9968  126.7447   64.0458 H   0  0  0  0  0  0  0  0  0  0  0  0
  131.0760  125.7976   68.1637 H   0  0  0  0  0  0  0  0  0  0  0  0
  131.8172  127.0841   69.9810 H   0  0  0  0  0  0  0  0  0  0  0  0
  132.7170  126.6153   72.2412 H   0  0  0  0  0  0  0  0  0  0  0  0
  133.0674  126.7160   74.6236 H   0  0  0  0  0  0  0  0  0  0  0  0
  131.4752  127.5419   74.9605 H   0  0  0  0  0  0  0  0  0  0  0  0
  132.8092  127.0794   77.0354 H   0  0  0  0  0  0  0  0  0  0  0  0
  131.1931  126.2859   77.0129 H   0  0  0  0  0  0  0  0  0  0  0  0
  132.5638  123.0346   76.3052 H   0  0  0  0  0  0  0  0  0  0  0  0
  131.0527  123.9689   76.5990 H   0  0  0  0  0  0  0  0  0  0  0  0
  132.9066  124.1763   74.1666 H   0  0  0  0  0  0  0  0  0  0  0  0
  131.2169  123.4863   74.2365 H   0  0  0  0  0  0  0  0  0  0  0  0
  128.8495  125.1370   73.4719 H   0  0  0  0  0  0  0  0  0  0  0  0
  127.9537  125.6002   71.2079 H   0  0  0  0  0  0  0  0  0  0  0  0
  128.6272  130.3893   61.6649 H   0  0  0  0  0  0  0  0  0  0  0  0
  128.9772  129.5371   59.3562 H   0  0  0  0  0  0  0  0  0  0  0  0
  1  2  1  0
  2  3  1  0
  3  4  1  0
  4  5  2  0
  4  6  1  0
  6  7  2  0
  7  8  1  0
  8  9  2  0
  9 10  1  0
 10 11  1  0
 11 12  2  0
 11 13  1  0
 13 14  1  0
 14 15  1  0
 15 16  2  0
 16 17  1  0
 17 18  1  0
 18 19  2  0
 19 20  1  0
 20 21  2  0
 21 22  1  0
 22 23  1  0
 23 24  1  0
 24 25  1  0
 25 26  1  0
 26 27  1  0
 21 28  1  0
 28 29  2  0
 17 30  2  0
 30 31  1  0
 31 32  1  0
 32 33  2  0
 33 34  1  0
 34 35  2  0
 35 36  1  0
 36 37  1  0
 37 38  1  0
 38 39  1  0
 39 40  1  0
 40 41  1  0
 35 42  1  0
 42 43  2  0
 31 44  2  0
 44 45  1  0
 45 46  3  0
  9 47  1  0
 47 48  2  0
 48  6  1  0
 44 15  1  0
 29 18  1  0
 43 32  1  0
 27 22  1  0
 41 36  1  0
  1 49  1  0
  1 50  1  0
  1 51  1  0
  2 52  1  0
  2 53  1  0
  7 54  1  0
  8 55  1  0
 10 56  1  0
 13 57  1  0
 13 58  1  0
 19 59  1  0
 20 60  1  0
 23 61  1  0
 23 62  1  0
 24 63  1  0
 24 64  1  0
 26 65  1  0
 26 66  1  0
 27 67  1  0
 27 68  1  0
 28 69  1  0
 29 70  1  0
 30 71  1  0
 33 72  1  0
 34 73  1  0
 37 74  1  0
 37 75  1  0
 38 76  1  0
 38 77  1  0
 40 78  1  0
 40 79  1  0
 41 80  1  0
 41 81  1  0
 42 82  1  0
 43 83  1  0
 47 84  1  0
 48 85  1  0
M  END
>  <Binding energies>  (1) 
[1.26]

>  <Ligand effiencies>  (1) 
[0.025714285714285714]

>  <Interactions>  (1) 
["V-A:GLU:543:CD:4906, V-A:ASP:366:CG:3211, V-B:GLU:543:CG:9879, V-A:HIS:456:CE1:4068, V-A:ASP:366:CB:3210, V-B:TYR:539:CE2:9848, V-A:GLY:453:CA:4042, V-A:ILE:369:CD1:3237, V-A:ARG:545:CG:4920, V-B:GLU:543:CD:9880, V-B:GLU:543:CB:9878, V-A:ARG:545:CZ:4924, V-A:GLY:454:CA:4047, V-A:HIS:456:CD2:4066, V-B:LYS:547:CE:9922, V-B:GLU:543:C:9874, V-B:GLY:544:CA:9886, H-B:ARG:545:NH2:9900, V-B:ARG:545:CZ:9898, H-A:GLU:543:OE1:4907, H-A:GLU:543:OE2:4908, H-B:GLU:543:OE2:9882, V-B:HIS:456:CE1:9042, V-B:ARG:545:CG:9894, H-B:ARG:545:NE:9896, V-B:HIS:456:CG:9038, V-A:GLY:544:C:4910, V-B:HIS:456:CD2:9040, V-B:GLY:544:C:9884, V-A:LYS:471:CD:4217, V-A:HIS:456:CB:4063, V-A:LYS:547:CE:4948, V-A:HIS:456:CG:4064, V-A:VAL:458:CG2:4085, V-A:LYS:471:CE:4218, V-A:LYS:547:CD:4947, V-A:GLY:453:C:4040, H-B:ARG:545:N:9892, H-B:HIS:456:ND1:9039, V-B:ARG:545:CA:9891"]

$$$$
2a_Grossjean_2025
     RDKit          3D

 45 46  0  0  0  0  0  0  0  0999 V2000
  127.3230  128.5350   73.0810 C   0  0  0  0  0  0  0  0  0  0  0  0
  128.7830  128.5570   72.6190 C   0  0  0  0  0  0  0  0  0  0  0  0
  129.2530  127.2220   72.4790 O   0  0  0  0  0  0  0  0  0  0  0  0
  130.0570  126.8670   71.4430 C   0  0  0  0  0  0  0  0  0  0  0  0
  131.1450  126.3020   71.5890 O   0  0  0  0  0  0  0  0  0  0  0  0
  129.4780  127.2120   70.1010 C   0  0  0  0  0  0  0  0  0  0  0  0
  128.0980  127.3680   69.9060 C   0  0  0  0  0  0  0  0  0  0  0  0
  127.5940  127.6870   68.6480 C   0  0  0  0  0  0  0  0  0  0  0  0
  128.4530  127.8480   67.5610 C   0  0  0  0  0  0  0  0  0  0  0  0
  127.8330  128.1550   66.3350 N   0  0  0  0  0  0  0  0  0  0  0  0
  127.2510  129.3000   65.9200 C   0  0  0  0  0  0  0  0  0  0  0  0
  127.1330  130.3260   66.5900 O   0  0  0  0  0  0  0  0  0  0  0  0
  126.7000  129.2800   64.4900 C   0  0  0  0  0  0  0  0  0  0  0  0
  125.1150  130.1650   64.3140 S   0  0  0  0  0  0  0  0  0  0  0  0
  125.1730  131.2270   62.8750 C   0  0  0  0  0  0  0  0  0  0  0  0
  124.2810  130.9360   61.8930 N   0  0  0  0  0  0  0  0  0  0  0  0
  124.2770  131.6900   60.7710 C   0  0  0  0  0  0  0  0  0  0  0  0
  123.2710  131.2870   59.7080 C   0  0  0  0  0  0  0  0  0  0  0  0
  125.1450  132.7610   60.5820 C   0  0  0  0  0  0  0  0  0  0  0  0
  126.0690  133.0850   61.5870 C   0  0  0  0  0  0  0  0  0  0  0  0
  127.0230  134.2740   61.3630 C   0  0  0  0  0  0  0  0  0  0  0  0
  127.1480  134.9790   62.4880 F   0  0  0  0  0  0  0  0  0  0  0  0
  128.2250  133.8300   60.9930 F   0  0  0  0  0  0  0  0  0  0  0  0
  126.5920  135.1070   60.4120 F   0  0  0  0  0  0  0  0  0  0  0  0
  126.0870  132.3000   62.7680 C   0  0  0  0  0  0  0  0  0  0  0  0
  127.0340  132.5920   63.8490 C   0  0  0  0  0  0  0  0  0  0  0  0
  127.7820  132.8230   64.7020 N   0  0  0  0  0  0  0  0  0  0  0  0
  129.8350  127.7010   67.7490 C   0  0  0  0  0  0  0  0  0  0  0  0
  130.3380  127.3870   69.0090 C   0  0  0  0  0  0  0  0  0  0  0  0
  127.2863  128.5344   74.1804 H   0  0  0  0  0  0  0  0  0  0  0  0
  126.8035  129.4254   72.6972 H   0  0  0  0  0  0  0  0  0  0  0  0
  126.8306  127.6293   72.6972 H   0  0  0  0  0  0  0  0  0  0  0  0
  128.8541  129.0748   71.6511 H   0  0  0  0  0  0  0  0  0  0  0  0
  129.3963  129.0870   73.3626 H   0  0  0  0  0  0  0  0  0  0  0  0
  127.4087  127.2374   70.7532 H   0  0  0  0  0  0  0  0  0  0  0  0
  126.5100  127.8130   68.5103 H   0  0  0  0  0  0  0  0  0  0  0  0
  127.8760  127.4110   65.6560 H   0  0  0  0  0  0  0  0  0  0  0  0
  127.4386  129.7513   63.8248 H   0  0  0  0  0  0  0  0  0  0  0  0
  126.5162  128.2279   64.2268 H   0  0  0  0  0  0  0  0  0  0  0  0
  122.3539  130.9196   60.1916 H   0  0  0  0  0  0  0  0  0  0  0  0
  123.0311  132.1584   59.0811 H   0  0  0  0  0  0  0  0  0  0  0  0
  123.6991  130.4910   59.0811 H   0  0  0  0  0  0  0  0  0  0  0  0
  125.1071  133.3485   59.6528 H   0  0  0  0  0  0  0  0  0  0  0  0
  130.5222  127.8339   66.9004 H   0  0  0  0  0  0  0  0  0  0  0  0
  131.4234  127.2751   69.1485 H   0  0  0  0  0  0  0  0  0  0  0  0
  1  2  1  0
  2  3  1  0
  3  4  1  0
  4  5  2  0
  4  6  1  0
  6  7  2  0
  7  8  1  0
  8  9  2  0
  9 10  1  0
 10 11  1  0
 11 12  2  0
 11 13  1  0
 13 14  1  0
 14 15  1  0
 15 16  2  0
 16 17  1  0
 17 18  1  0
 17 19  2  0
 19 20  1  0
 20 21  1  0
 21 22  1  0
 21 23  1  0
 21 24  1  0
 20 25  2  0
 25 26  1  0
 26 27  3  0
  9 28  1  0
 28 29  2  0
 29  6  1  0
 25 15  1  0
  1 30  1  0
  1 31  1  0
  1 32  1  0
  2 33  1  0
  2 34  1  0
  7 35  1  0
  8 36  1  0
 10 37  1  0
 13 38  1  0
 13 39  1  0
 18 40  1  0
 18 41  1  0
 18 42  1  0
 19 43  1  0
 28 44  1  0
 29 45  1  0
M  END
>  <Binding energies>  (1) 
[-7.49]

>  <Ligand effiencies>  (1) 
[-0.24966666666666668]

>  <Interactions>  (1) 
["V-A:GLU:543:CD:4906, V-B:GLU:543:CG:9879, V-A:HIS:456:CE1:4068, V-B:GLU:543:CD:9880, V-A:HIS:456:CD2:4066, V-B:GLU:543:C:9874, V-B:ASP:366:CB:8184, V-B:ASP:366:CG:8185, V-A:TYR:539:CE2:4874, V-A:TYR:539:CD2:4872, V-B:LEU:475:CD2:9231, V-A:ALA:541:CB:4890, H-B:TYR:484:OH:9320, H-B:GLU:543:OE1:9881, V-A:TYR:539:C:4865, H-A:GLU:543:OE2:4908, V-A:GLU:543:CB:4904, H-B:GLU:543:OE2:9882, V-B:ILE:369:CD1:8211, V-B:ILE:369:CG2:8209, V-B:HIS:456:CE1:9042, V-A:PRO:540:C:4879, V-B:TYR:484:CE1:9317, V-B:ASP:366:CA:8182, V-A:GLU:543:CG:4905, V-B:ILE:369:CB:8208, V-B:PRO:482:CB:9298, V-B:TRP:381:CZ2:8342, V-B:TRP:381:CH2:8344, V-B:HIS:456:CG:9038, V-A:GLY:544:C:4910, V-A:GLU:543:C:4900, V-B:HIS:456:CD2:9040, V-B:GLY:544:C:9884, V-A:LYS:547:CE:4948, H-A:HIS:456:ND1:4065, V-A:ALA:541:CA:4888, V-B:LEU:475:CG:9229, V-B:LEU:475:CD1:9230, V-B:TRP:381:CZ3:8343"]

$$$$
2aa_Ghoteimi_2023
     RDKit          3D

 85 90  0  0  0  0  0  0  0  0999 V2000
  123.8980  135.1730   61.0380 C   0  0  0  0  0  0  0  0  0  0  0  0
  124.6790  133.9170   60.6390 C   0  0  0  0  0  0  0  0  0  0  0  0
  126.0080  134.2800   60.2890 O   0  0  0  0  0  0  0  0  0  0  0  0
  127.0060  134.2700   61.2110 C   0  0  0  0  0  0  0  0  0  0  0  0
  127.8990  135.1230   61.2560 O   0  0  0  0  0  0  0  0  0  0  0  0
  126.9060  133.1270   62.1800 C   0  0  0  0  0  0  0  0  0  0  0  0
  126.8030  131.7970   61.7470 C   0  0  0  0  0  0  0  0  0  0  0  0
  126.7160  130.7580   62.6700 C   0  0  0  0  0  0  0  0  0  0  0  0
  126.7220  131.0270   64.0400 C   0  0  0  0  0  0  0  0  0  0  0  0
  126.6330  129.9030   64.8840 N   0  0  0  0  0  0  0  0  0  0  0  0
  125.5490  129.3300   65.4500 C   0  0  0  0  0  0  0  0  0  0  0  0
  124.3860  129.7040   65.2900 O   0  0  0  0  0  0  0  0  0  0  0  0
  125.8580  128.1120   66.3310 C   0  0  0  0  0  0  0  0  0  0  0  0
  126.7590  128.4900   67.3770 O   0  0  0  0  0  0  0  0  0  0  0  0
  127.9150  127.7540   67.6000 C   0  0  0  0  0  0  0  0  0  0  0  0
  128.6280  127.3370   66.5160 N   0  0  0  0  0  0  0  0  0  0  0  0
  129.7650  126.6200   66.6990 C   0  0  0  0  0  0  0  0  0  0  0  0
  130.4930  126.1930   65.4630 C   0  0  0  0  0  0  0  0  0  0  0  0
  129.8880  126.2980   64.2060 C   0  0  0  0  0  0  0  0  0  0  0  0
  130.5630  125.9080   63.0520 C   0  0  0  0  0  0  0  0  0  0  0  0
  131.8750  125.4110   63.1110 C   0  0  0  0  0  0  0  0  0  0  0  0
  132.5630  125.0040   61.9630 N   0  0  0  0  0  0  0  0  0  0  0  0
  133.6830  124.0430   62.0360 C   0  0  0  0  0  0  0  0  0  0  0  0
  134.5380  123.9840   60.7530 C   0  0  0  0  0  0  0  0  0  0  0  0
  133.7130  123.7160   59.6310 O   0  0  0  0  0  0  0  0  0  0  0  0
  132.7340  124.7280   59.4540 C   0  0  0  0  0  0  0  0  0  0  0  0
  131.8240  124.8080   60.6980 C   0  0  0  0  0  0  0  0  0  0  0  0
  132.4680  125.2880   64.3760 C   0  0  0  0  0  0  0  0  0  0  0  0
  131.7910  125.6750   65.5290 C   0  0  0  0  0  0  0  0  0  0  0  0
  130.2100  126.2850   67.9810 C   0  0  0  0  0  0  0  0  0  0  0  0
  129.4900  126.6910   69.1110 C   0  0  0  0  0  0  0  0  0  0  0  0
  130.0010  126.2810   70.4550 C   0  0  0  0  0  0  0  0  0  0  0  0
  129.1790  125.5770   71.3380 C   0  0  0  0  0  0  0  0  0  0  0  0
  129.6420  125.2100   72.5980 C   0  0  0  0  0  0  0  0  0  0  0  0
  130.9380  125.5490   73.0180 C   0  0  0  0  0  0  0  0  0  0  0  0
  131.4250  125.1880   74.2770 N   0  0  0  0  0  0  0  0  0  0  0  0
  131.6700  126.1970   75.3250 C   0  0  0  0  0  0  0  0  0  0  0  0
  131.8600  125.5890   76.7310 C   0  0  0  0  0  0  0  0  0  0  0  0
  132.9000  124.6230   76.7050 O   0  0  0  0  0  0  0  0  0  0  0  0
  132.6100  123.5660   75.8050 C   0  0  0  0  0  0  0  0  0  0  0  0
  132.4410  124.1200   74.3750 C   0  0  0  0  0  0  0  0  0  0  0  0
  131.7580  126.2490   72.1220 C   0  0  0  0  0  0  0  0  0  0  0  0
  131.2950  126.6160   70.8620 C   0  0  0  0  0  0  0  0  0  0  0  0
  128.3180  127.4590   68.9140 C   0  0  0  0  0  0  0  0  0  0  0  0
  127.5290  127.9690   70.0380 C   0  0  0  0  0  0  0  0  0  0  0  0
  126.9070  128.3710   70.9270 N   0  0  0  0  0  0  0  0  0  0  0  0
  126.8330  132.3540   64.4800 C   0  0  0  0  0  0  0  0  0  0  0  0
  126.9230  133.3900   63.5550 C   0  0  0  0  0  0  0  0  0  0  0  0
  123.8537  135.2442   62.1348 H   0  0  0  0  0  0  0  0  0  0  0  0
  124.4025  136.0626   60.6329 H   0  0  0  0  0  0  0  0  0  0  0  0
  122.8770  135.1141   60.6329 H   0  0  0  0  0  0  0  0  0  0  0  0
  124.7010  133.2141   61.4849 H   0  0  0  0  0  0  0  0  0  0  0  0
  124.1898  133.4375   59.7783 H   0  0  0  0  0  0  0  0  0  0  0  0
  126.7908  131.5729   60.6701 H   0  0  0  0  0  0  0  0  0  0  0  0
  126.6421  129.7186   62.3175 H   0  0  0  0  0  0  0  0  0  0  0  0
  127.5160  129.4430   65.0510 H   0  0  0  0  0  0  0  0  0  0  0  0
  124.9241  127.7331   66.7718 H   0  0  0  0  0  0  0  0  0  0  0  0
  126.3217  127.3261   65.7168 H   0  0  0  0  0  0  0  0  0  0  0  0
  128.8648  126.6942   64.1280 H   0  0  0  0  0  0  0  0  0  0  0  0
  130.0597  125.9907   62.0774 H   0  0  0  0  0  0  0  0  0  0  0  0
  134.3344  124.3327   62.8737 H   0  0  0  0  0  0  0  0  0  0  0  0
  133.2404  123.0452   62.1720 H   0  0  0  0  0  0  0  0  0  0  0  0
  135.0459  124.9491   60.6092 H   0  0  0  0  0  0  0  0  0  0  0  0
  135.2831  123.1809   60.8528 H   0  0  0  0  0  0  0  0  0  0  0  0
  133.2343  125.6964   59.3061 H   0  0  0  0  0  0  0  0  0  0  0  0
  132.1205  124.4858   58.5737 H   0  0  0  0  0  0  0  0  0  0  0  0
  131.1300  125.6513   60.5670 H   0  0  0  0  0  0  0  0  0  0  0  0
  131.3018  123.8431   60.7769 H   0  0  0  0  0  0  0  0  0  0  0  0
  133.4857  124.8786   64.4584 H   0  0  0  0  0  0  0  0  0  0  0  0
  132.2840  125.5720   66.5069 H   0  0  0  0  0  0  0  0  0  0  0  0
  131.1324  125.6982   68.1029 H   0  0  0  0  0  0  0  0  0  0  0  0
  128.1559  125.3101   71.0345 H   0  0  0  0  0  0  0  0  0  0  0  0
  128.9830  124.6462   73.2746 H   0  0  0  0  0  0  0  0  0  0  0  0
  132.5788  126.7584   75.0625 H   0  0  0  0  0  0  0  0  0  0  0  0
  130.7799  126.8419   75.3684 H   0  0  0  0  0  0  0  0  0  0  0  0
  132.1219  126.3874   77.4409 H   0  0  0  0  0  0  0  0  0  0  0  0
  130.9239  125.1038   77.0445 H   0  0  0  0  0  0  0  0  0  0  0  0
  133.4358  122.8394   75.8187 H   0  0  0  0  0  0  0  0  0  0  0  0
  131.6753  123.0754   76.1143 H   0  0  0  0  0  0  0  0  0  0  0  0
  133.4074  124.5262   74.0417 H   0  0  0  0  0  0  0  0  0  0  0  0
  132.0999  123.2876   73.7419 H   0  0  0  0  0  0  0  0  0  0  0  0
  132.7837  126.5124   72.4196 H   0  0  0  0  0  0  0  0  0  0  0  0
  131.9534  127.1747   70.1806 H   0  0  0  0  0  0  0  0  0  0  0  0
  126.8489  132.5762   65.5572 H   0  0  0  0  0  0  0  0  0  0  0  0
  127.0085  134.4281   63.9086 H   0  0  0  0  0  0  0  0  0  0  0  0
  1  2  1  0
  2  3  1  0
  3  4  1  0
  4  5  2  0
  4  6  1  0
  6  7  2  0
  7  8  1  0
  8  9  2  0
  9 10  1  0
 10 11  1  0
 11 12  2  0
 11 13  1  0
 13 14  1  0
 14 15  1  0
 15 16  2  0
 16 17  1  0
 17 18  1  0
 18 19  2  0
 19 20  1  0
 20 21  2  0
 21 22  1  0
 22 23  1  0
 23 24  1  0
 24 25  1  0
 25 26  1  0
 26 27  1  0
 21 28  1  0
 28 29  2  0
 17 30  2  0
 30 31  1  0
 31 32  1  0
 32 33  2  0
 33 34  1  0
 34 35  2  0
 35 36  1  0
 36 37  1  0
 37 38  1  0
 38 39  1  0
 39 40  1  0
 40 41  1  0
 35 42  1  0
 42 43  2  0
 31 44  2  0
 44 45  1  0
 45 46  3  0
  9 47  1  0
 47 48  2  0
 48  6  1  0
 44 15  1  0
 29 18  1  0
 43 32  1  0
 27 22  1  0
 41 36  1  0
  1 49  1  0
  1 50  1  0
  1 51  1  0
  2 52  1  0
  2 53  1  0
  7 54  1  0
  8 55  1  0
 10 56  1  0
 13 57  1  0
 13 58  1  0
 19 59  1  0
 20 60  1  0
 23 61  1  0
 23 62  1  0
 24 63  1  0
 24 64  1  0
 26 65  1  0
 26 66  1  0
 27 67  1  0
 27 68  1  0
 28 69  1  0
 29 70  1  0
 30 71  1  0
 33 72  1  0
 34 73  1  0
 37 74  1  0
 37 75  1  0
 38 76  1  0
 38 77  1  0
 40 78  1  0
 40 79  1  0
 41 80  1  0
 41 81  1  0
 42 82  1  0
 43 83  1  0
 47 84  1  0
 48 85  1  0
M  END
>  <Binding energies>  (1) 
[0.31]

>  <Ligand effiencies>  (1) 
[0.0063265306122448975]

>  <Interactions>  (1) 
["V-A:GLU:543:CD:4906, V-A:ASP:366:CG:3211, V-B:GLU:543:CG:9879, V-A:HIS:456:CE1:4068, V-A:ASP:366:CB:3210, V-A:ARG:545:CD:4921, V-A:ILE:369:CD1:3237, V-A:ARG:545:CG:4920, V-B:GLU:543:CD:9880, V-B:GLU:543:CB:9878, V-A:ARG:545:CZ:4924, V-A:HIS:456:CD2:4066, V-B:LYS:547:CE:9922, V-B:GLU:543:C:9874, V-B:GLY:544:CA:9886, V-A:TYR:539:CE2:4874, V-A:TYR:539:CD2:4872, V-B:LEU:475:CD2:9231, V-A:ALA:541:CB:4890, H-B:GLY:454:N:9022, H-B:TYR:484:OH:9320, V-B:ARG:545:CZ:9898, H-A:GLU:543:OE1:4907, H-A:GLU:543:OE2:4908, H-B:GLU:543:OE2:9882, V-B:ILE:369:CG2:8209, V-B:HIS:456:CE1:9042, V-B:TYR:484:CE1:9317, V-B:TYR:484:CZ:9319, H-A:ALA:541:N:4889, V-B:ARG:545:CG:9894, H-B:ARG:545:NE:9896, V-B:TRP:381:CZ2:8342, V-B:TRP:381:CH2:8344, V-B:HIS:456:CG:9038, V-A:GLY:544:C:4910, V-B:HIS:456:CD2:9040, V-B:GLY:544:C:9884, V-A:LYS:471:CD:4217, V-A:HIS:456:CB:4063, V-A:LYS:547:CE:4948, V-A:HIS:456:CG:4064, V-A:LYS:471:CG:4216, V-A:VAL:458:CG2:4085, V-A:LYS:471:CE:4218, V-A:LYS:547:CD:4947, V-B:ARG:545:CD:9895, V-B:SER:385:CA:8379, H-B:HIS:456:ND1:9039, V-A:ARG:545:CA:4917"]

$$$$
2b_Ghoteimi_2023
     RDKit          3D

 72 77  0  0  0  0  0  0  0  0999 V2000
  126.6090  128.1300   70.8000 N   0  0  0  0  0  0  0  0  0  0  0  0
  127.2880  127.7990   69.9230 C   0  0  0  0  0  0  0  0  0  0  0  0
  128.1520  127.3770   68.8160 C   0  0  0  0  0  0  0  0  0  0  0  0
  129.3710  126.7010   69.0720 C   0  0  0  0  0  0  0  0  0  0  0  0
  129.8650  126.3690   70.4410 C   0  0  0  0  0  0  0  0  0  0  0  0
  129.0000  125.8190   71.3880 C   0  0  0  0  0  0  0  0  0  0  0  0
  129.4550  125.5090   72.6670 C   0  0  0  0  0  0  0  0  0  0  0  0
  130.7860  125.7570   73.0380 C   0  0  0  0  0  0  0  0  0  0  0  0
  131.2690  125.4430   74.3100 N   0  0  0  0  0  0  0  0  0  0  0  0
  131.9900  124.1700   74.5110 C   0  0  0  0  0  0  0  0  0  0  0  0
  132.1300  123.7740   75.9960 C   0  0  0  0  0  0  0  0  0  0  0  0
  132.7390  124.8270   76.7270 O   0  0  0  0  0  0  0  0  0  0  0  0
  131.9760  126.0220   76.6600 C   0  0  0  0  0  0  0  0  0  0  0  0
  131.8420  126.4780   75.1930 C   0  0  0  0  0  0  0  0  0  0  0  0
  131.6460  126.3130   72.0810 C   0  0  0  0  0  0  0  0  0  0  0  0
  131.1920  126.6190   70.8020 C   0  0  0  0  0  0  0  0  0  0  0  0
  130.1600  126.3130   67.9820 C   0  0  0  0  0  0  0  0  0  0  0  0
  129.7320  126.5620   66.6750 C   0  0  0  0  0  0  0  0  0  0  0  0
  130.5230  126.1410   65.4770 C   0  0  0  0  0  0  0  0  0  0  0  0
  129.9890  126.2680   64.1890 C   0  0  0  0  0  0  0  0  0  0  0  0
  130.7250  125.8940   63.0680 C   0  0  0  0  0  0  0  0  0  0  0  0
  132.0200  125.3660   63.1930 C   0  0  0  0  0  0  0  0  0  0  0  0
  132.7830  125.0130   62.0750 N   0  0  0  0  0  0  0  0  0  0  0  0
  134.0830  124.3340   62.2550 C   0  0  0  0  0  0  0  0  0  0  0  0
  134.9740  124.3610   60.9940 C   0  0  0  0  0  0  0  0  0  0  0  0
  134.2670  123.8230   59.8870 O   0  0  0  0  0  0  0  0  0  0  0  0
  133.0970  124.5730   59.6040 C   0  0  0  0  0  0  0  0  0  0  0  0
  132.1500  124.5560   60.8220 C   0  0  0  0  0  0  0  0  0  0  0  0
  132.5530  125.2470   64.4850 C   0  0  0  0  0  0  0  0  0  0  0  0
  131.8180  125.6240   65.6050 C   0  0  0  0  0  0  0  0  0  0  0  0
  128.5630  127.2080   66.4320 N   0  0  0  0  0  0  0  0  0  0  0  0
  127.8000  127.6220   67.4700 C   0  0  0  0  0  0  0  0  0  0  0  0
  126.3080  128.4550   66.9700 S   0  0  0  0  0  0  0  0  0  0  0  0
  126.4340  128.7800   65.1850 C   0  0  0  0  0  0  0  0  0  0  0  0
  125.3830  129.7840   64.7080 C   0  0  0  0  0  0  0  0  0  0  0  0
  124.2690  129.7870   65.2350 O   0  0  0  0  0  0  0  0  0  0  0  0
  125.7750  130.6070   63.7120 N   0  0  0  0  0  0  0  0  0  0  0  0
  125.0310  131.6090   63.1060 C   0  0  0  0  0  0  0  0  0  0  0  0
  124.3470  131.4270   61.9040 C   0  0  0  0  0  0  0  0  0  0  0  0
  123.7460  132.6370   61.6480 C   0  0  0  0  0  0  0  0  0  0  0  0
  124.0510  133.5030   62.6440 O   0  0  0  0  0  0  0  0  0  0  0  0
  124.8660  132.8390   63.5640 N   0  0  0  0  0  0  0  0  0  0  0  0
  127.9498  125.6287   71.1218 H   0  0  0  0  0  0  0  0  0  0  0  0
  128.7623  125.0639   73.3964 H   0  0  0  0  0  0  0  0  0  0  0  0
  131.4424  123.3725   73.9874 H   0  0  0  0  0  0  0  0  0  0  0  0
  133.0066  124.3058   74.1134 H   0  0  0  0  0  0  0  0  0  0  0  0
  131.1329  123.5706   76.4137 H   0  0  0  0  0  0  0  0  0  0  0  0
  132.7582  122.8741   76.0706 H   0  0  0  0  0  0  0  0  0  0  0  0
  130.9750  125.8395   77.0780 H   0  0  0  0  0  0  0  0  0  0  0  0
  132.4831  126.8082   77.2386 H   0  0  0  0  0  0  0  0  0  0  0  0
  131.1908  127.3640   75.1608 H   0  0  0  0  0  0  0  0  0  0  0  0
  132.8557  126.6952   74.8254 H   0  0  0  0  0  0  0  0  0  0  0  0
  132.6954  126.5103   72.3451 H   0  0  0  0  0  0  0  0  0  0  0  0
  131.8828  127.0612   70.0690 H   0  0  0  0  0  0  0  0  0  0  0  0
  131.1224  125.8092   68.1555 H   0  0  0  0  0  0  0  0  0  0  0  0
  128.9728  126.6692   64.0609 H   0  0  0  0  0  0  0  0  0  0  0  0
  130.2845  126.0142   62.0673 H   0  0  0  0  0  0  0  0  0  0  0  0
  134.6242  124.8304   63.0740 H   0  0  0  0  0  0  0  0  0  0  0  0
  133.8678  123.2780   62.4755 H   0  0  0  0  0  0  0  0  0  0  0  0
  135.2606  125.3997   60.7729 H   0  0  0  0  0  0  0  0  0  0  0  0
  135.8743  123.7555   61.1756 H   0  0  0  0  0  0  0  0  0  0  0  0
  133.3770  125.6118   59.3751 H   0  0  0  0  0  0  0  0  0  0  0  0
  132.5822  124.1258   58.7409 H   0  0  0  0  0  0  0  0  0  0  0  0
  131.2948  125.2132   60.6057 H   0  0  0  0  0  0  0  0  0  0  0  0
  131.8479  123.5099   60.9785 H   0  0  0  0  0  0  0  0  0  0  0  0
  133.5700  124.8486   64.6153 H   0  0  0  0  0  0  0  0  0  0  0  0
  132.2610  125.5142   66.6058 H   0  0  0  0  0  0  0  0  0  0  0  0
  127.4341  129.1830   64.9674 H   0  0  0  0  0  0  0  0  0  0  0  0
  126.2622  127.8317   64.6548 H   0  0  0  0  0  0  0  0  0  0  0  0
  126.7230  130.5110   63.3790 H   0  0  0  0  0  0  0  0  0  0  0  0
  124.2988  130.5134   61.2932 H   0  0  0  0  0  0  0  0  0  0  0  0
  123.1180  132.8652   60.7742 H   0  0  0  0  0  0  0  0  0  0  0  0
  1  2  3  0
  2  3  1  0
  3  4  2  0
  4  5  1  0
  5  6  2  0
  6  7  1  0
  7  8  2  0
  8  9  1  0
  9 10  1  0
 10 11  1  0
 11 12  1  0
 12 13  1  0
 13 14  1  0
  8 15  1  0
 15 16  2  0
  4 17  1  0
 17 18  2  0
 18 19  1  0
 19 20  2  0
 20 21  1  0
 21 22  2  0
 22 23  1  0
 23 24  1  0
 24 25  1  0
 25 26  1  0
 26 27  1  0
 27 28  1  0
 22 29  1  0
 29 30  2  0
 18 31  1  0
 31 32  2  0
 32 33  1  0
 33 34  1  0
 34 35  1  0
 35 36  2  0
 35 37  1  0
 37 38  1  0
 38 39  1  0
 39 40  2  0
 40 41  1  0
 41 42  1  0
 32  3  1  0
 42 38  2  0
 16  5  1  0
 30 19  1  0
 14  9  1  0
 28 23  1  0
  6 43  1  0
  7 44  1  0
 10 45  1  0
 10 46  1  0
 11 47  1  0
 11 48  1  0
 13 49  1  0
 13 50  1  0
 14 51  1  0
 14 52  1  0
 15 53  1  0
 16 54  1  0
 17 55  1  0
 20 56  1  0
 21 57  1  0
 24 58  1  0
 24 59  1  0
 25 60  1  0
 25 61  1  0
 27 62  1  0
 27 63  1  0
 28 64  1  0
 28 65  1  0
 29 66  1  0
 30 67  1  0
 34 68  1  0
 34 69  1  0
 37 70  1  0
 39 71  1  0
 40 72  1  0
M  END
>  <Binding energies>  (1) 
[-1.07]

>  <Ligand effiencies>  (1) 
[-0.02488372093023256]

>  <Interactions>  (1) 
["V-A:GLU:543:CD:4906, V-A:ASP:366:CG:3211, V-B:GLU:543:CG:9879, V-A:HIS:456:CE1:4068, V-A:ASP:366:CB:3210, V-A:ARG:545:CD:4921, V-A:GLY:453:CA:4042, V-A:ILE:369:CD1:3237, V-A:ARG:545:CG:4920, V-B:GLU:543:CD:9880, V-B:GLU:543:CB:9878, V-A:ARG:545:CZ:4924, V-A:GLY:454:CA:4047, V-A:HIS:456:CD2:4066, V-B:LYS:547:CE:9922, V-B:GLU:543:C:9874, V-B:GLY:544:CA:9886, H-B:GLY:454:N:9022, H-B:TYR:484:OH:9320, V-B:ARG:545:CZ:9898, H-A:GLU:543:OE1:4907, V-B:ILE:369:CD1:8211, V-B:ILE:369:CG2:8209, V-B:HIS:456:CE1:9042, H-B:ARG:545:NE:9896, V-B:HIS:456:CG:9038, V-A:GLY:544:C:4910, V-B:HIS:456:CD2:9040, V-B:GLY:544:C:9884, V-A:LYS:471:CD:4217, V-A:HIS:456:CB:4063, V-A:LYS:547:CE:4948, V-A:HIS:456:CG:4064, V-A:VAL:458:CG2:4085, V-A:LYS:471:CE:4218, V-A:LYS:547:CD:4947, V-A:GLY:453:C:4040, H-B:ARG:545:N:9892, H-B:HIS:456:ND1:9039"]

$$$$
2b_Grossjean_2025
     RDKit          3D

 42 43  0  0  0  0  0  0  0  0999 V2000
  129.1900  125.6070   72.2430 C   0  0  0  0  0  0  0  0  0  0  0  0
  128.5890  126.8350   72.6320 O   0  0  0  0  0  0  0  0  0  0  0  0
  128.7290  127.9530   71.8740 C   0  0  0  0  0  0  0  0  0  0  0  0
  128.5200  129.0930   72.2990 O   0  0  0  0  0  0  0  0  0  0  0  0
  129.1610  127.6640   70.4650 C   0  0  0  0  0  0  0  0  0  0  0  0
  130.5130  127.6450   70.0920 C   0  0  0  0  0  0  0  0  0  0  0  0
  130.8790  127.3750   68.7770 C   0  0  0  0  0  0  0  0  0  0  0  0
  129.9080  127.1140   67.8110 C   0  0  0  0  0  0  0  0  0  0  0  0
  130.3880  126.8600   66.5120 N   0  0  0  0  0  0  0  0  0  0  0  0
  130.6540  125.6830   65.9060 C   0  0  0  0  0  0  0  0  0  0  0  0
  130.5390  124.5720   66.4250 O   0  0  0  0  0  0  0  0  0  0  0  0
  131.1530  125.7910   64.4620 C   0  0  0  0  0  0  0  0  0  0  0  0
  132.6700  124.8280   64.1540 S   0  0  0  0  0  0  0  0  0  0  0  0
  132.4960  123.8810   62.6480 C   0  0  0  0  0  0  0  0  0  0  0  0
  133.3410  124.2160   61.6400 N   0  0  0  0  0  0  0  0  0  0  0  0
  133.2630  123.5440   60.4700 C   0  0  0  0  0  0  0  0  0  0  0  0
  134.2320  123.9880   59.3910 C   0  0  0  0  0  0  0  0  0  0  0  0
  132.3530  122.5130   60.2560 C   0  0  0  0  0  0  0  0  0  0  0  0
  131.4740  122.1440   61.2860 C   0  0  0  0  0  0  0  0  0  0  0  0
  130.4770  120.9970   61.0350 C   0  0  0  0  0  0  0  0  0  0  0  0
  130.4810  120.1550   62.0690 F   0  0  0  0  0  0  0  0  0  0  0  0
  129.2450  121.4860   60.8800 F   0  0  0  0  0  0  0  0  0  0  0  0
  130.7670  120.2900   59.9400 F   0  0  0  0  0  0  0  0  0  0  0  0
  131.5420  122.8450   62.5170 C   0  0  0  0  0  0  0  0  0  0  0  0
  130.6440  122.5060   63.6250 C   0  0  0  0  0  0  0  0  0  0  0  0
  129.9350  122.2370   64.5000 N   0  0  0  0  0  0  0  0  0  0  0  0
  128.5530  127.1390   68.1730 C   0  0  0  0  0  0  0  0  0  0  0  0
  128.1880  127.4100   69.4890 C   0  0  0  0  0  0  0  0  0  0  0  0
  129.4698  125.0353   73.1402 H   0  0  0  0  0  0  0  0  0  0  0  0
  128.4759  125.0229   71.6439 H   0  0  0  0  0  0  0  0  0  0  0  0
  130.0894  125.8125   71.6439 H   0  0  0  0  0  0  0  0  0  0  0  0
  131.2898  127.8451   70.8447 H   0  0  0  0  0  0  0  0  0  0  0  0
  131.9428  127.3674   68.4973 H   0  0  0  0  0  0  0  0  0  0  0  0
  130.6050  127.6910   65.9810 H   0  0  0  0  0  0  0  0  0  0  0  0
  130.3630  125.4236   63.7905 H   0  0  0  0  0  0  0  0  0  0  0  0
  131.3932  126.8484   64.2768 H   0  0  0  0  0  0  0  0  0  0  0  0
  135.1370  124.4027   59.8590 H   0  0  0  0  0  0  0  0  0  0  0  0
  134.5050  123.1252   58.7657 H   0  0  0  0  0  0  0  0  0  0  0  0
  133.7568  124.7582   58.7657 H   0  0  0  0  0  0  0  0  0  0  0  0
  132.3229  121.9918   59.2878 H   0  0  0  0  0  0  0  0  0  0  0  0
  127.7783  126.9444   67.4167 H   0  0  0  0  0  0  0  0  0  0  0  0
  127.1235  127.4249   69.7658 H   0  0  0  0  0  0  0  0  0  0  0  0
  1  2  1  0
  2  3  1  0
  3  4  2  0
  3  5  1  0
  5  6  2  0
  6  7  1  0
  7  8  2  0
  8  9  1  0
  9 10  1  0
 10 11  2  0
 10 12  1  0
 12 13  1  0
 13 14  1  0
 14 15  2  0
 15 16  1  0
 16 17  1  0
 16 18  2  0
 18 19  1  0
 19 20  1  0
 20 21  1  0
 20 22  1  0
 20 23  1  0
 19 24  2  0
 24 25  1  0
 25 26  3  0
  8 27  1  0
 27 28  2  0
 28  5  1  0
 24 14  1  0
  1 29  1  0
  1 30  1  0
  1 31  1  0
  6 32  1  0
  7 33  1  0
  9 34  1  0
 12 35  1  0
 12 36  1  0
 17 37  1  0
 17 38  1  0
 17 39  1  0
 18 40  1  0
 27 41  1  0
 28 42  1  0
M  END
>  <Binding energies>  (1) 
[-7.35]

>  <Ligand effiencies>  (1) 
[-0.253448275862069]

>  <Interactions>  (1) 
["V-A:GLU:543:CD:4906, V-A:ASP:366:CG:3211, V-B:GLU:543:CG:9879, V-A:HIS:456:CE1:4068, V-A:ASP:366:CB:3210, V-A:ILE:369:CB:3234, V-B:TYR:539:CE2:9848, V-A:ILE:369:CD1:3237, V-A:ILE:369:CG2:3235, V-A:ARG:545:CG:4920, V-B:GLU:543:CD:9880, V-B:GLU:543:CB:9878, V-A:ASP:366:CA:3208, V-A:HIS:456:CD2:4066, V-B:LYS:547:CE:9922, V-B:GLU:543:C:9874, V-B:GLY:544:CA:9886, V-B:PRO:540:C:9853, V-B:TYR:539:CD2:9846, V-B:ALA:541:CB:9864, V-A:TYR:484:CZ:4345, V-A:LEU:475:CD2:4257, H-A:TYR:484:OH:4346, H-A:GLU:543:OE1:4907, H-A:GLU:543:OE2:4908, V-B:HIS:456:CE1:9042, H-A:ARG:545:NE:4922, V-A:GLU:543:CG:4905, V-A:TYR:484:CE1:4343, V-A:PRO:482:CB:4324, V-A:TRP:381:CH2:3370, H-B:LYS:547:NZ:9923, H-A:LYS:547:NZ:4949, V-A:GLY:544:C:4910, V-A:GLU:543:C:4900, V-B:HIS:456:CD2:9040, V-B:GLY:544:C:9884, V-B:ALA:541:CA:9862, V-B:TYR:539:CG:9844, V-A:GLY:544:CA:4912, V-A:LEU:475:CG:4255, V-A:LEU:475:CD1:4256"]

$$$$
2c_Ghoteimi_2023
     RDKit          3D

 72 77  0  0  0  0  0  0  0  0999 V2000
  126.5880  128.0790   70.8170 N   0  0  0  0  0  0  0  0  0  0  0  0
  127.2580  127.7510   69.9330 C   0  0  0  0  0  0  0  0  0  0  0  0
  128.1110  127.3310   68.8170 C   0  0  0  0  0  0  0  0  0  0  0  0
  129.3460  126.6780   69.0580 C   0  0  0  0  0  0  0  0  0  0  0  0
  129.8730  126.3730   70.4220 C   0  0  0  0  0  0  0  0  0  0  0  0
  131.1970  126.6730   70.7460 C   0  0  0  0  0  0  0  0  0  0  0  0
  131.6950  126.3960   72.0170 C   0  0  0  0  0  0  0  0  0  0  0  0
  130.8850  125.7970   72.9950 C   0  0  0  0  0  0  0  0  0  0  0  0
  131.3570  125.5290   74.2820 N   0  0  0  0  0  0  0  0  0  0  0  0
  131.9540  124.2100   74.5720 C   0  0  0  0  0  0  0  0  0  0  0  0
  132.0700  123.9120   76.0820 C   0  0  0  0  0  0  0  0  0  0  0  0
  132.7940  124.9480   76.7280 O   0  0  0  0  0  0  0  0  0  0  0  0
  132.1550  126.2070   76.5780 C   0  0  0  0  0  0  0  0  0  0  0  0
  132.0400  126.5640   75.0810 C   0  0  0  0  0  0  0  0  0  0  0  0
  129.5570  125.4960   72.6580 C   0  0  0  0  0  0  0  0  0  0  0  0
  129.0600  125.7750   71.3880 C   0  0  0  0  0  0  0  0  0  0  0  0
  130.1230  126.2940   67.9570 C   0  0  0  0  0  0  0  0  0  0  0  0
  129.6710  126.5280   66.6550 C   0  0  0  0  0  0  0  0  0  0  0  0
  130.4540  126.1220   65.4480 C   0  0  0  0  0  0  0  0  0  0  0  0
  131.7410  125.5900   65.5780 C   0  0  0  0  0  0  0  0  0  0  0  0
  132.4740  125.2040   64.4580 C   0  0  0  0  0  0  0  0  0  0  0  0
  131.9500  125.3480   63.1630 C   0  0  0  0  0  0  0  0  0  0  0  0
  132.6620  124.9420   62.0300 N   0  0  0  0  0  0  0  0  0  0  0  0
  133.8190  124.0350   62.1740 C   0  0  0  0  0  0  0  0  0  0  0  0
  134.7250  123.9850   60.9250 C   0  0  0  0  0  0  0  0  0  0  0  0
  133.9580  123.6460   59.7820 O   0  0  0  0  0  0  0  0  0  0  0  0
  132.9390  124.6020   59.5380 C   0  0  0  0  0  0  0  0  0  0  0  0
  131.9820  124.6760   60.7460 C   0  0  0  0  0  0  0  0  0  0  0  0
  130.6540  125.8690   63.0390 C   0  0  0  0  0  0  0  0  0  0  0  0
  129.9220  126.2530   64.1600 C   0  0  0  0  0  0  0  0  0  0  0  0
  128.4870  127.1510   66.4270 N   0  0  0  0  0  0  0  0  0  0  0  0
  127.7320  127.5600   67.4740 C   0  0  0  0  0  0  0  0  0  0  0  0
  126.2220  128.3670   66.9920 S   0  0  0  0  0  0  0  0  0  0  0  0
  126.6670  129.7480   65.8960 C   0  0  0  0  0  0  0  0  0  0  0  0
  125.5500  130.0770   64.9050 C   0  0  0  0  0  0  0  0  0  0  0  0
  124.3760  129.9900   65.2680 O   0  0  0  0  0  0  0  0  0  0  0  0
  125.9560  130.4430   63.6700 N   0  0  0  0  0  0  0  0  0  0  0  0
  125.1450  130.8050   62.6040 C   0  0  0  0  0  0  0  0  0  0  0  0
  123.8660  131.1090   62.6290 N   0  0  0  0  0  0  0  0  0  0  0  0
  123.4160  131.4120   61.4270 C   0  0  0  0  0  0  0  0  0  0  0  0
  124.3440  131.3560   60.3910 C   0  0  0  0  0  0  0  0  0  0  0  0
  125.8860  130.8800   61.0380 S   0  0  0  0  0  0  0  0  0  0  0  0
  131.8526  127.1320   69.9914 H   0  0  0  0  0  0  0  0  0  0  0  0
  132.7378  126.6502   72.2580 H   0  0  0  0  0  0  0  0  0  0  0  0
  131.3267  123.4335   74.1099 H   0  0  0  0  0  0  0  0  0  0  0  0
  132.9745  124.2165   74.1615 H   0  0  0  0  0  0  0  0  0  0  0  0
  131.0625  123.8451   76.5184 H   0  0  0  0  0  0  0  0  0  0  0  0
  132.6016  122.9592   76.2218 H   0  0  0  0  0  0  0  0  0  0  0  0
  131.1488  126.1600   77.0199 H   0  0  0  0  0  0  0  0  0  0  0  0
  132.7505  126.9779   77.0889 H   0  0  0  0  0  0  0  0  0  0  0  0
  131.4760  127.5039   74.9892 H   0  0  0  0  0  0  0  0  0  0  0  0
  133.0640  126.6532   74.6892 H   0  0  0  0  0  0  0  0  0  0  0  0
  128.8990  125.0329   73.4080 H   0  0  0  0  0  0  0  0  0  0  0  0
  128.0178  125.5224   71.1429 H   0  0  0  0  0  0  0  0  0  0  0  0
  131.0951  125.8052   68.1183 H   0  0  0  0  0  0  0  0  0  0  0  0
  132.1810  125.4747   66.5796 H   0  0  0  0  0  0  0  0  0  0  0  0
  133.4801  124.7793   64.5902 H   0  0  0  0  0  0  0  0  0  0  0  0
  134.4230  124.3749   63.0282 H   0  0  0  0  0  0  0  0  0  0  0  0
  133.4177  123.0216   62.3219 H   0  0  0  0  0  0  0  0  0  0  0  0
  135.1897  124.9703   60.7726 H   0  0  0  0  0  0  0  0  0  0  0  0
  135.5046  123.2236   61.0751 H   0  0  0  0  0  0  0  0  0  0  0  0
  133.3971  125.5888   59.3756 H   0  0  0  0  0  0  0  0  0  0  0  0
  132.3701  124.3024   58.6455 H   0  0  0  0  0  0  0  0  0  0  0  0
  131.2561  125.4823   60.5645 H   0  0  0  0  0  0  0  0  0  0  0  0
  131.5025  123.6901   60.8357 H   0  0  0  0  0  0  0  0  0  0  0  0
  130.2079  125.9763   62.0393 H   0  0  0  0  0  0  0  0  0  0  0  0
  128.9104  126.6655   64.0312 H   0  0  0  0  0  0  0  0  0  0  0  0
  126.8698  130.6376   66.5104 H   0  0  0  0  0  0  0  0  0  0  0  0
  127.5555  129.4510   65.3195 H   0  0  0  0  0  0  0  0  0  0  0  0
  126.9500  130.4860   63.4990 H   0  0  0  0  0  0  0  0  0  0  0  0
  122.3668  131.6930   61.2530 H   0  0  0  0  0  0  0  0  0  0  0  0
  124.1355  131.5772   59.3338 H   0  0  0  0  0  0  0  0  0  0  0  0
  1  2  3  0
  2  3  1  0
  3  4  2  0
  4  5  1  0
  5  6  2  0
  6  7  1  0
  7  8  2  0
  8  9  1  0
  9 10  1  0
 10 11  1  0
 11 12  1  0
 12 13  1  0
 13 14  1  0
  8 15  1  0
 15 16  2  0
  4 17  1  0
 17 18  2  0
 18 19  1  0
 19 20  2  0
 20 21  1  0
 21 22  2  0
 22 23  1  0
 23 24  1  0
 24 25  1  0
 25 26  1  0
 26 27  1  0
 27 28  1  0
 22 29  1  0
 29 30  2  0
 18 31  1  0
 31 32  2  0
 32 33  1  0
 33 34  1  0
 34 35  1  0
 35 36  2  0
 35 37  1  0
 37 38  1  0
 38 39  2  0
 39 40  1  0
 40 41  2  0
 41 42  1  0
 32  3  1  0
 42 38  1  0
 16  5  1  0
 30 19  1  0
 14  9  1  0
 28 23  1  0
  6 43  1  0
  7 44  1  0
 10 45  1  0
 10 46  1  0
 11 47  1  0
 11 48  1  0
 13 49  1  0
 13 50  1  0
 14 51  1  0
 14 52  1  0
 15 53  1  0
 16 54  1  0
 17 55  1  0
 20 56  1  0
 21 57  1  0
 24 58  1  0
 24 59  1  0
 25 60  1  0
 25 61  1  0
 27 62  1  0
 27 63  1  0
 28 64  1  0
 28 65  1  0
 29 66  1  0
 30 67  1  0
 34 68  1  0
 34 69  1  0
 37 70  1  0
 40 71  1  0
 41 72  1  0
M  END
>  <Binding energies>  (1) 
[-1.48]

>  <Ligand effiencies>  (1) 
[-0.03441860465116279]

>  <Interactions>  (1) 
["V-A:GLU:543:CD:4906, V-A:ASP:366:CG:3211, V-B:GLU:543:CG:9879, V-A:HIS:456:CE1:4068, V-A:ASP:366:CB:3210, V-A:GLY:453:CA:4042, V-A:ILE:369:CD1:3237, V-A:ARG:545:CG:4920, V-B:GLU:543:CD:9880, V-B:GLU:543:CB:9878, V-A:ARG:545:CZ:4924, V-A:GLY:454:CA:4047, V-A:HIS:456:CD2:4066, V-B:LYS:547:CE:9922, V-B:GLU:543:C:9874, V-B:GLY:544:CA:9886, H-B:GLY:454:N:9022, H-B:TYR:484:OH:9320, V-B:ARG:545:CZ:9898, H-A:GLU:543:OE1:4907, V-A:GLU:543:CB:4904, V-B:ILE:369:CD1:8211, V-B:HIS:456:CE1:9042, V-B:TYR:484:CZ:9319, H-B:ARG:545:NE:9896, V-B:HIS:456:CG:9038, V-A:GLY:544:C:4910, V-B:HIS:456:CD2:9040, V-B:GLY:544:C:9884, V-A:LYS:471:CD:4217, V-A:HIS:456:CB:4063, V-A:LYS:547:CE:4948, V-A:HIS:456:CG:4064, V-A:VAL:458:CG2:4085, V-A:LYS:471:CE:4218, V-A:LYS:547:CD:4947, V-A:GLY:453:C:4040, H-B:ARG:545:N:9892, H-B:HIS:456:ND1:9039, V-B:ARG:545:CA:9891, V-A:ARG:545:CA:4917"]

$$$$
2c_Grossjean_2025
     RDKit          3D

 40 41  0  0  0  0  0  0  0  0999 V2000
  130.0580  126.1810   72.2210 C   0  0  0  0  0  0  0  0  0  0  0  0
  130.6110  127.0070   71.2020 O   0  0  0  0  0  0  0  0  0  0  0  0
  129.8740  127.2500   70.0590 C   0  0  0  0  0  0  0  0  0  0  0  0
  128.4940  127.3670   70.2200 C   0  0  0  0  0  0  0  0  0  0  0  0
  127.6680  127.6100   69.1260 C   0  0  0  0  0  0  0  0  0  0  0  0
  128.2220  127.7310   67.8440 C   0  0  0  0  0  0  0  0  0  0  0  0
  127.4720  127.9940   66.6830 N   0  0  0  0  0  0  0  0  0  0  0  0
  127.1810  129.1870   66.1210 C   0  0  0  0  0  0  0  0  0  0  0  0
  127.4990  130.2810   66.5920 O   0  0  0  0  0  0  0  0  0  0  0  0
  126.3600  129.1080   64.8250 C   0  0  0  0  0  0  0  0  0  0  0  0
  124.9410  130.2550   64.7220 S   0  0  0  0  0  0  0  0  0  0  0  0
  125.0420  131.1910   63.2020 C   0  0  0  0  0  0  0  0  0  0  0  0
  124.0890  130.9130   62.2760 N   0  0  0  0  0  0  0  0  0  0  0  0
  124.1090  131.5760   61.0990 C   0  0  0  0  0  0  0  0  0  0  0  0
  123.0230  131.1960   60.1110 C   0  0  0  0  0  0  0  0  0  0  0  0
  125.0650  132.5430   60.7980 C   0  0  0  0  0  0  0  0  0  0  0  0
  126.0530  132.8530   61.7420 C   0  0  0  0  0  0  0  0  0  0  0  0
  127.1020  133.9280   61.3950 C   0  0  0  0  0  0  0  0  0  0  0  0
  126.7750  134.5330   60.2530 F   0  0  0  0  0  0  0  0  0  0  0  0
  127.1630  134.8390   62.3670 F   0  0  0  0  0  0  0  0  0  0  0  0
  128.3280  133.4210   61.2430 F   0  0  0  0  0  0  0  0  0  0  0  0
  126.0480  132.1610   62.9800 C   0  0  0  0  0  0  0  0  0  0  0  0
  127.0600  132.4430   64.0040 C   0  0  0  0  0  0  0  0  0  0  0  0
  127.8580  132.6660   64.8120 N   0  0  0  0  0  0  0  0  0  0  0  0
  129.6050  127.6310   67.6790 C   0  0  0  0  0  0  0  0  0  0  0  0
  130.4270  127.3880   68.7750 C   0  0  0  0  0  0  0  0  0  0  0  0
  130.3286  126.5851   73.2076 H   0  0  0  0  0  0  0  0  0  0  0  0
  128.9627  126.1595   72.1214 H   0  0  0  0  0  0  0  0  0  0  0  0
  130.4554  125.1601   72.1214 H   0  0  0  0  0  0  0  0  0  0  0  0
  128.0530  127.2662   71.2227 H   0  0  0  0  0  0  0  0  0  0  0  0
  126.5815  127.7070   69.2675 H   0  0  0  0  0  0  0  0  0  0  0  0
  127.0500  127.1810   66.2590 H   0  0  0  0  0  0  0  0  0  0  0  0
  127.0337  129.3258   63.9832 H   0  0  0  0  0  0  0  0  0  0  0  0
  125.9321  128.0949   64.7996 H   0  0  0  0  0  0  0  0  0  0  0  0
  122.1227  130.8810   60.6589 H   0  0  0  0  0  0  0  0  0  0  0  0
  122.7827  132.0634   59.4787 H   0  0  0  0  0  0  0  0  0  0  0  0
  123.3759  130.3680   59.4787 H   0  0  0  0  0  0  0  0  0  0  0  0
  125.0446  133.0593   59.8269 H   0  0  0  0  0  0  0  0  0  0  0  0
  130.0466  127.7449   66.6780 H   0  0  0  0  0  0  0  0  0  0  0  0
  131.5148  127.3036   68.6354 H   0  0  0  0  0  0  0  0  0  0  0  0
  1  2  1  0
  2  3  1  0
  3  4  2  0
  4  5  1  0
  5  6  2  0
  6  7  1  0
  7  8  1  0
  8  9  2  0
  8 10  1  0
 10 11  1  0
 11 12  1  0
 12 13  2  0
 13 14  1  0
 14 15  1  0
 14 16  2  0
 16 17  1  0
 17 18  1  0
 18 19  1  0
 18 20  1  0
 18 21  1  0
 17 22  2  0
 22 23  1  0
 23 24  3  0
  6 25  1  0
 25 26  2  0
 26  3  1  0
 22 12  1  0
  1 27  1  0
  1 28  1  0
  1 29  1  0
  4 30  1  0
  5 31  1  0
  7 32  1  0
 10 33  1  0
 10 34  1  0
 15 35  1  0
 15 36  1  0
 15 37  1  0
 16 38  1  0
 25 39  1  0
 26 40  1  0
M  END
>  <Binding energies>  (1) 
[-6.77]

>  <Ligand effiencies>  (1) 
[-0.2507407407407407]

>  <Interactions>  (1) 
["V-A:GLU:543:CD:4906, V-B:GLU:543:CG:9879, V-A:HIS:456:CE1:4068, V-B:GLU:543:CD:9880, V-A:HIS:456:CD2:4066, V-B:GLU:543:C:9874, V-B:ASP:366:CB:8184, V-B:ASP:366:CG:8185, V-A:TYR:539:CE2:4874, V-A:TYR:539:CD2:4872, V-B:LEU:475:CD2:9231, V-A:ALA:541:CB:4890, H-B:GLY:454:N:9022, H-B:TYR:484:OH:9320, H-B:GLU:543:OE1:9881, V-B:ARG:545:CZ:9898, V-A:GLU:543:CB:4904, H-B:GLU:543:OE2:9882, V-B:ILE:369:CD1:8211, V-B:ILE:369:CG2:8209, V-B:HIS:456:CE1:9042, V-B:TYR:484:CE1:9317, V-B:TYR:484:CZ:9319, V-B:ASP:366:CA:8182, H-B:ARG:545:NE:9896, V-A:GLU:543:CG:4905, V-B:ILE:369:CB:8208, V-A:TYR:539:CG:4870, V-B:PRO:482:CB:9298, V-B:TRP:381:CH2:8344, V-A:GLY:544:C:4910, V-A:GLU:543:C:4900, V-B:GLY:544:C:9884, V-A:ALA:541:CA:4888, V-B:ILE:369:CG1:8210, V-B:LEU:475:CG:9229, V-B:LEU:475:CD1:9230"]

$$$$
2d_Ghoteimi_2023
     RDKit          3D

 68 72  0  0  0  0  0  0  0  0999 V2000
  125.5750  123.7510   61.2010 C   0  0  0  0  0  0  0  0  0  0  0  0
  124.9310  123.4200   59.9800 O   0  0  0  0  0  0  0  0  0  0  0  0
  123.7500  123.9840   59.6530 C   0  0  0  0  0  0  0  0  0  0  0  0
  122.9640  124.5110   60.4460 O   0  0  0  0  0  0  0  0  0  0  0  0
  123.4910  123.9000   58.1420 C   0  0  0  0  0  0  0  0  0  0  0  0
  124.2320  125.3190   57.2650 S   0  0  0  0  0  0  0  0  0  0  0  0
  125.7200  125.7930   58.1230 C   0  0  0  0  0  0  0  0  0  0  0  0
  125.7190  127.0890   58.5200 N   0  0  0  0  0  0  0  0  0  0  0  0
  126.7940  127.5890   59.1800 C   0  0  0  0  0  0  0  0  0  0  0  0
  126.7280  129.0300   59.5710 C   0  0  0  0  0  0  0  0  0  0  0  0
  127.7170  129.5930   60.3850 C   0  0  0  0  0  0  0  0  0  0  0  0
  127.6620  130.9350   60.7530 C   0  0  0  0  0  0  0  0  0  0  0  0
  126.6210  131.7650   60.3110 C   0  0  0  0  0  0  0  0  0  0  0  0
  126.5410  133.1110   60.6860 N   0  0  0  0  0  0  0  0  0  0  0  0
  127.7440  133.9630   60.7650 C   0  0  0  0  0  0  0  0  0  0  0  0
  127.5200  135.2780   61.5410 C   0  0  0  0  0  0  0  0  0  0  0  0
  126.4310  135.9920   60.9780 O   0  0  0  0  0  0  0  0  0  0  0  0
  125.2290  135.2430   61.0380 C   0  0  0  0  0  0  0  0  0  0  0  0
  125.3860  133.9230   60.2530 C   0  0  0  0  0  0  0  0  0  0  0  0
  125.6250  131.1930   59.5070 C   0  0  0  0  0  0  0  0  0  0  0  0
  125.6780  129.8510   59.1410 C   0  0  0  0  0  0  0  0  0  0  0  0
  127.9030  126.7870   59.4620 C   0  0  0  0  0  0  0  0  0  0  0  0
  127.9160  125.4370   59.0930 C   0  0  0  0  0  0  0  0  0  0  0  0
  129.1230  124.6340   59.4520 C   0  0  0  0  0  0  0  0  0  0  0  0
  130.3500  124.9010   58.8430 C   0  0  0  0  0  0  0  0  0  0  0  0
  131.4840  124.1680   59.1800 C   0  0  0  0  0  0  0  0  0  0  0  0
  131.4210  123.1400   60.1350 C   0  0  0  0  0  0  0  0  0  0  0  0
  132.5500  122.3990   60.4980 N   0  0  0  0  0  0  0  0  0  0  0  0
  132.6960  120.9820   60.1120 C   0  0  0  0  0  0  0  0  0  0  0  0
  134.1330  120.4440   60.2800 C   0  0  0  0  0  0  0  0  0  0  0  0
  134.5780  120.6560   61.6110 O   0  0  0  0  0  0  0  0  0  0  0  0
  134.5800  122.0340   61.9500 C   0  0  0  0  0  0  0  0  0  0  0  0
  133.1540  122.6110   61.8270 C   0  0  0  0  0  0  0  0  0  0  0  0
  130.1890  122.8900   60.7540 C   0  0  0  0  0  0  0  0  0  0  0  0
  129.0550  123.6250   60.4180 C   0  0  0  0  0  0  0  0  0  0  0  0
  126.7910  124.9140   58.4060 C   0  0  0  0  0  0  0  0  0  0  0  0
  126.7490  123.5020   58.0150 C   0  0  0  0  0  0  0  0  0  0  0  0
  126.7190  122.3860   57.7080 N   0  0  0  0  0  0  0  0  0  0  0  0
  124.9480  123.4287   62.0454 H   0  0  0  0  0  0  0  0  0  0  0  0
  126.5486  123.2416   61.2519 H   0  0  0  0  0  0  0  0  0  0  0  0
  125.7275  124.8392   61.2519 H   0  0  0  0  0  0  0  0  0  0  0  0
  123.9304  122.9692   57.7539 H   0  0  0  0  0  0  0  0  0  0  0  0
  122.4041  123.9157   57.9737 H   0  0  0  0  0  0  0  0  0  0  0  0
  128.5493  128.9671   60.7391 H   0  0  0  0  0  0  0  0  0  0  0  0
  128.4477  131.3510   61.4008 H   0  0  0  0  0  0  0  0  0  0  0  0
  128.5405  133.3943   61.2671 H   0  0  0  0  0  0  0  0  0  0  0  0
  128.0124  134.2384   59.7344 H   0  0  0  0  0  0  0  0  0  0  0  0
  127.2995  135.0472   62.5937 H   0  0  0  0  0  0  0  0  0  0  0  0
  128.4286  135.8948   61.4778 H   0  0  0  0  0  0  0  0  0  0  0  0
  124.9941  135.0158   62.0883 H   0  0  0  0  0  0  0  0  0  0  0  0
  124.4150  135.8327   60.5912 H   0  0  0  0  0  0  0  0  0  0  0  0
  124.4715  133.3269   60.3887 H   0  0  0  0  0  0  0  0  0  0  0  0
  125.5577  134.1923   59.2004 H   0  0  0  0  0  0  0  0  0  0  0  0
  124.7873  131.8154   59.1594 H   0  0  0  0  0  0  0  0  0  0  0  0
  124.8848  129.4299   58.5058 H   0  0  0  0  0  0  0  0  0  0  0  0
  128.7726  127.2201   59.9780 H   0  0  0  0  0  0  0  0  0  0  0  0
  130.4215  125.6988   58.0891 H   0  0  0  0  0  0  0  0  0  0  0  0
  132.4428  124.3969   58.6918 H   0  0  0  0  0  0  0  0  0  0  0  0
  132.0228  120.3790   60.7390 H   0  0  0  0  0  0  0  0  0  0  0  0
  132.4460  120.9100   59.0432 H   0  0  0  0  0  0  0  0  0  0  0  0
  134.1469  119.3666   60.0585 H   0  0  0  0  0  0  0  0  0  0  0  0
  134.8012  120.9760   59.5867 H   0  0  0  0  0  0  0  0  0  0  0  0
  134.9332  122.1538   62.9848 H   0  0  0  0  0  0  0  0  0  0  0  0
  135.2479  122.5736   61.2624 H   0  0  0  0  0  0  0  0  0  0  0  0
  132.5158  122.1277   62.5814 H   0  0  0  0  0  0  0  0  0  0  0  0
  133.2285  123.6976   61.9808 H   0  0  0  0  0  0  0  0  0  0  0  0
  130.1165  122.1010   61.5171 H   0  0  0  0  0  0  0  0  0  0  0  0
  128.0981  123.4103   60.9163 H   0  0  0  0  0  0  0  0  0  0  0  0
  1  2  1  0
  2  3  1  0
  3  4  2  0
  3  5  1  0
  5  6  1  0
  6  7  1  0
  7  8  2  0
  8  9  1  0
  9 10  1  0
 10 11  2  0
 11 12  1  0
 12 13  2  0
 13 14  1  0
 14 15  1  0
 15 16  1  0
 16 17  1  0
 17 18  1  0
 18 19  1  0
 13 20  1  0
 20 21  2  0
  9 22  2  0
 22 23  1  0
 23 24  1  0
 24 25  2  0
 25 26  1  0
 26 27  2  0
 27 28  1  0
 28 29  1  0
 29 30  1  0
 30 31  1  0
 31 32  1  0
 32 33  1  0
 27 34  1  0
 34 35  2  0
 23 36  2  0
 36 37  1  0
 37 38  3  0
 36  7  1  0
 21 10  1  0
 35 24  1  0
 19 14  1  0
 33 28  1  0
  1 39  1  0
  1 40  1  0
  1 41  1  0
  5 42  1  0
  5 43  1  0
 11 44  1  0
 12 45  1  0
 15 46  1  0
 15 47  1  0
 16 48  1  0
 16 49  1  0
 18 50  1  0
 18 51  1  0
 19 52  1  0
 19 53  1  0
 20 54  1  0
 21 55  1  0
 22 56  1  0
 25 57  1  0
 26 58  1  0
 29 59  1  0
 29 60  1  0
 30 61  1  0
 30 62  1  0
 32 63  1  0
 32 64  1  0
 33 65  1  0
 33 66  1  0
 34 67  1  0
 35 68  1  0
M  END
>  <Binding energies>  (1) 
[-0.34]

>  <Ligand effiencies>  (1) 
[-0.008947368421052633]

>  <Interactions>  (1) 
["V-A:ILE:369:CB:3234, V-B:TYR:539:CE2:9848, V-A:ILE:369:CD1:3237, V-A:ILE:369:CG2:3235, V-A:GLY:454:CA:4047, V-B:ASN:362:CB:8148, V-B:LEU:363:CA:8157, V-B:PRO:540:CB:9857, V-B:ASP:366:CG:8185, V-B:ASN:362:C:8144, V-B:PRO:540:C:9853, V-B:LEU:363:CB:8159, V-B:TYR:539:CD2:9846, V-B:PRO:540:N:9856, V-B:PRO:540:CA:9855, H-B:ALA:541:N:9863, V-A:TYR:539:CE2:4874, H-B:TYR:531:OH:9767, H-B:ARG:545:NH2:9900, V-A:TYR:539:CD2:4872, V-A:LEU:475:CD2:4257, V-B:LEU:475:CD2:9231, V-A:ALA:541:CB:4890, V-B:TYR:539:C:9839, V-A:TYR:539:C:4865, V-B:PRO:482:CG:9299, V-B:PRO:482:CB:9298, V-B:TRP:381:CZ2:8342, V-B:TRP:381:CH2:8344, V-A:TRP:381:CH2:3370, V-A:GLY:453:C:4040, H-B:TYR:539:N:9842, V-A:ILE:369:CG1:3236, V-A:SER:385:CA:3405, V-A:SER:385:C:3403, H-B:LEU:363:N:8158"]

$$$$
2d_Grossjean_2025
     RDKit          3D

 36 37  0  0  0  0  0  0  0  0999 V2000
  129.2780  122.2100   73.1450 C   0  0  0  0  0  0  0  0  0  0  0  0
  130.3140  123.2820   73.4250 C   0  0  0  0  0  0  0  0  0  0  0  0
  131.4080  123.0410   74.2520 C   0  0  0  0  0  0  0  0  0  0  0  0
  132.3420  124.0630   74.4760 C   0  0  0  0  0  0  0  0  0  0  0  0
  133.5520  123.7750   75.3850 C   0  0  0  0  0  0  0  0  0  0  0  0
  133.2570  124.0860   76.6480 F   0  0  0  0  0  0  0  0  0  0  0  0
  133.8730  122.4810   75.3230 F   0  0  0  0  0  0  0  0  0  0  0  0
  134.6350  124.4740   75.0420 F   0  0  0  0  0  0  0  0  0  0  0  0
  132.1340  125.3200   73.8520 C   0  0  0  0  0  0  0  0  0  0  0  0
  133.1040  126.4060   74.0170 C   0  0  0  0  0  0  0  0  0  0  0  0
  133.8720  127.2620   74.1460 N   0  0  0  0  0  0  0  0  0  0  0  0
  130.9800  125.4820   73.0490 C   0  0  0  0  0  0  0  0  0  0  0  0
  130.5490  127.0000   72.2200 S   0  0  0  0  0  0  0  0  0  0  0  0
  128.7350  127.0820   72.0550 C   0  0  0  0  0  0  0  0  0  0  0  0
  128.1250  128.2970   72.7610 C   0  0  0  0  0  0  0  0  0  0  0  0
  128.7120  129.3780   72.7070 O   0  0  0  0  0  0  0  0  0  0  0  0
  126.9740  128.0670   73.4270 N   0  0  0  0  0  0  0  0  0  0  0  0
  126.1780  128.9660   74.1610 C   0  0  0  0  0  0  0  0  0  0  0  0
  126.8050  130.1450   74.5730 C   0  0  0  0  0  0  0  0  0  0  0  0
  126.1010  131.0940   75.3100 C   0  0  0  0  0  0  0  0  0  0  0  0
  124.7690  130.8590   75.6430 C   0  0  0  0  0  0  0  0  0  0  0  0
  124.1370  129.6830   75.2500 C   0  0  0  0  0  0  0  0  0  0  0  0
  124.8370  128.7330   74.5120 C   0  0  0  0  0  0  0  0  0  0  0  0
  130.0990  124.4760   72.8260 N   0  0  0  0  0  0  0  0  0  0  0  0
  128.8945  121.8132   74.0966 H   0  0  0  0  0  0  0  0  0  0  0  0
  128.4483  122.6438   72.5677 H   0  0  0  0  0  0  0  0  0  0  0  0
  129.7399  121.3955   72.5677 H   0  0  0  0  0  0  0  0  0  0  0  0
  131.5387  122.0569   74.7258 H   0  0  0  0  0  0  0  0  0  0  0  0
  128.4821  127.1342   70.9857 H   0  0  0  0  0  0  0  0  0  0  0  0
  128.3198  126.1815   72.5312 H   0  0  0  0  0  0  0  0  0  0  0  0
  126.6580  127.1090   73.4580 H   0  0  0  0  0  0  0  0  0  0  0  0
  127.8590  130.3242   74.3141 H   0  0  0  0  0  0  0  0  0  0  0  0
  126.5943  132.0245   75.6276 H   0  0  0  0  0  0  0  0  0  0  0  0
  124.2115  131.6099   76.2220 H   0  0  0  0  0  0  0  0  0  0  0  0
  123.0862  129.5047   75.5221 H   0  0  0  0  0  0  0  0  0  0  0  0
  124.3413  127.8007   74.2037 H   0  0  0  0  0  0  0  0  0  0  0  0
  1  2  1  0
  2  3  2  0
  3  4  1  0
  4  5  1  0
  5  6  1  0
  5  7  1  0
  5  8  1  0
  4  9  2  0
  9 10  1  0
 10 11  3  0
  9 12  1  0
 12 13  1  0
 13 14  1  0
 14 15  1  0
 15 16  2  0
 15 17  1  0
 17 18  1  0
 18 19  2  0
 19 20  1  0
 20 21  2  0
 21 22  1  0
 22 23  2  0
 12 24  2  0
 24  2  1  0
 23 18  1  0
  1 25  1  0
  1 26  1  0
  1 27  1  0
  3 28  1  0
 14 29  1  0
 14 30  1  0
 17 31  1  0
 19 32  1  0
 20 33  1  0
 21 34  1  0
 22 35  1  0
 23 36  1  0
M  END
>  <Binding energies>  (1) 
[-7.93]

>  <Ligand effiencies>  (1) 
[-0.3172]

>  <Interactions>  (1) 
["V-A:HIS:456:CD2:4066, V-B:LYS:547:CE:9922, V-B:HIS:456:CG:9038, H-B:LYS:547:NZ:9923, V-B:LYS:471:CE:9192, V-B:VAL:457:C:9045, V-B:VAL:458:CG2:9059, H-A:LYS:547:NZ:4949, V-B:HIS:456:CB:9037, V-B:HIS:456:CA:9035, V-B:HIS:456:C:9033, V-B:VAL:457:CA:9047, V-B:HIS:456:CD2:9040, V-B:GLY:544:C:9884, V-B:LYS:471:CG:9190, V-B:LYS:471:CD:9191, V-A:LYS:471:CD:4217, V-A:HIS:456:CB:4063, V-A:ASP:473:CG:4238, V-A:HIS:456:CG:4064, V-A:HIS:456:C:4059, V-A:VAL:457:C:4071, V-A:LYS:471:CG:4216, V-A:LYS:471:CB:4215, V-A:HIS:456:CA:4061, V-A:VAL:458:CG2:4085, V-A:LYS:471:CE:4218, V-A:LYS:547:CD:4947, H-B:GLY:544:O:9885, V-A:ASP:473:CB:4237, V-A:VAL:457:CA:4073"]

$$$$
2e_Grossjean_2025
     RDKit          3D

 38 39  0  0  0  0  0  0  0  0999 V2000
  130.1990  134.3940   71.1660 C   0  0  0  0  0  0  0  0  0  0  0  0
  129.5360  133.4210   72.1220 C   0  0  0  0  0  0  0  0  0  0  0  0
  128.8660  133.8620   73.2670 C   0  0  0  0  0  0  0  0  0  0  0  0
  128.2690  132.9090   74.0950 C   0  0  0  0  0  0  0  0  0  0  0  0
  128.3550  131.5550   73.7630 C   0  0  0  0  0  0  0  0  0  0  0  0
  129.0490  131.1820   72.6060 C   0  0  0  0  0  0  0  0  0  0  0  0
  129.0670  129.8110   72.2960 N   0  0  0  0  0  0  0  0  0  0  0  0
  128.3590  128.8160   72.8760 C   0  0  0  0  0  0  0  0  0  0  0  0
  127.5050  128.9730   73.7490 O   0  0  0  0  0  0  0  0  0  0  0  0
  128.7060  127.3970   72.4160 C   0  0  0  0  0  0  0  0  0  0  0  0
  130.5010  127.1620   72.2170 S   0  0  0  0  0  0  0  0  0  0  0  0
  130.8660  125.6020   72.9900 C   0  0  0  0  0  0  0  0  0  0  0  0
  129.9500  124.6290   72.7600 N   0  0  0  0  0  0  0  0  0  0  0  0
  130.1260  123.4250   73.3480 C   0  0  0  0  0  0  0  0  0  0  0  0
  129.0660  122.3830   73.0480 C   0  0  0  0  0  0  0  0  0  0  0  0
  131.2070  123.1460   74.1840 C   0  0  0  0  0  0  0  0  0  0  0  0
  132.1580  124.1440   74.4390 C   0  0  0  0  0  0  0  0  0  0  0  0
  133.3350  123.8280   75.3810 C   0  0  0  0  0  0  0  0  0  0  0  0
  134.4580  124.3700   74.9100 F   0  0  0  0  0  0  0  0  0  0  0  0
  133.0910  124.3220   76.5950 F   0  0  0  0  0  0  0  0  0  0  0  0
  133.5480  122.5170   75.5160 F   0  0  0  0  0  0  0  0  0  0  0  0
  131.9900  125.4110   73.8260 C   0  0  0  0  0  0  0  0  0  0  0  0
  132.9340  126.5050   74.0760 C   0  0  0  0  0  0  0  0  0  0  0  0
  133.6780  127.3690   74.2750 N   0  0  0  0  0  0  0  0  0  0  0  0
  129.6280  132.1080   71.7870 N   0  0  0  0  0  0  0  0  0  0  0  0
  130.7274  135.1695   71.7400 H   0  0  0  0  0  0  0  0  0  0  0  0
  130.9175  133.8534   70.5323 H   0  0  0  0  0  0  0  0  0  0  0  0
  129.4330  134.8649   70.5323 H   0  0  0  0  0  0  0  0  0  0  0  0
  128.8104  134.9334   73.5098 H   0  0  0  0  0  0  0  0  0  0  0  0
  127.7341  133.2229   75.0035 H   0  0  0  0  0  0  0  0  0  0  0  0
  127.8842  130.7929   74.4014 H   0  0  0  0  0  0  0  0  0  0  0  0
  129.6580  129.5580   71.5180 H   0  0  0  0  0  0  0  0  0  0  0  0
  128.3352  126.6808   73.1641 H   0  0  0  0  0  0  0  0  0  0  0  0
  128.2319  127.2324   71.4371 H   0  0  0  0  0  0  0  0  0  0  0  0
  128.6634  121.9872   73.9921 H   0  0  0  0  0  0  0  0  0  0  0  0
  128.2532  122.8435   72.4672 H   0  0  0  0  0  0  0  0  0  0  0  0
  129.5125  121.5625   72.4672 H   0  0  0  0  0  0  0  0  0  0  0  0
  131.3126  122.1505   74.6398 H   0  0  0  0  0  0  0  0  0  0  0  0
  1  2  1  0
  2  3  2  0
  3  4  1  0
  4  5  2  0
  5  6  1  0
  6  7  1  0
  7  8  1  0
  8  9  2  0
  8 10  1  0
 10 11  1  0
 11 12  1  0
 12 13  2  0
 13 14  1  0
 14 15  1  0
 14 16  2  0
 16 17  1  0
 17 18  1  0
 18 19  1  0
 18 20  1  0
 18 21  1  0
 17 22  2  0
 22 23  1  0
 23 24  3  0
  6 25  2  0
 25  2  1  0
 22 12  1  0
  1 26  1  0
  1 27  1  0
  1 28  1  0
  3 29  1  0
  4 30  1  0
  5 31  1  0
  7 32  1  0
 10 33  1  0
 10 34  1  0
 15 35  1  0
 15 36  1  0
 15 37  1  0
 16 38  1  0
M  END
>  <Binding energies>  (1) 
[-6.99]

>  <Ligand effiencies>  (1) 
[-0.26884615384615385]

>  <Interactions>  (1) 
["V-A:HIS:456:CD2:4066, V-B:LYS:547:CE:9922, V-B:GLY:544:CA:9886, H-B:LYS:547:NZ:9923, H-A:LYS:547:NZ:4949, V-A:GLU:543:C:4900, V-B:HIS:456:CD2:9040, V-A:LYS:471:CD:4217, V-A:HIS:456:CB:4063, V-A:LYS:547:CE:4948, V-A:ASP:473:CG:4238, V-A:HIS:456:CG:4064, V-A:HIS:456:C:4059, V-A:VAL:457:C:4071, V-A:LYS:471:CG:4216, V-A:HIS:456:CA:4061, V-A:VAL:458:CG2:4085, H-B:HIS:456:NE2:9043, H-A:GLU:543:O:4901, V-A:LYS:471:CE:4218, H-A:GLY:544:O:4911, V-A:LYS:547:CD:4947, V-B:ASP:473:CG:9212, V-B:TYR:484:CD1:9315, V-A:GLY:544:CA:4912, V-B:TYR:484:CB:9313, V-A:GLU:543:CA:4902, H-A:GLY:544:N:4913, V-B:TYR:484:CG:9314, V-A:ASP:473:CB:4237, V-A:VAL:457:CA:4073"]

$$$$
2f_Grossjean_2025
     RDKit          3D

 35 36  0  0  0  0  0  0  0  0999 V2000
  129.4440  122.1070   73.3780 C   0  0  0  0  0  0  0  0  0  0  0  0
  130.4900  123.1870   73.5860 C   0  0  0  0  0  0  0  0  0  0  0  0
  131.6440  122.9510   74.3290 C   0  0  0  0  0  0  0  0  0  0  0  0
  132.5780  123.9850   74.5000 C   0  0  0  0  0  0  0  0  0  0  0  0
  133.8420  123.7080   75.3350 C   0  0  0  0  0  0  0  0  0  0  0  0
  133.6210  124.0100   76.6160 F   0  0  0  0  0  0  0  0  0  0  0  0
  134.1730  122.4200   75.2460 F   0  0  0  0  0  0  0  0  0  0  0  0
  134.8950  124.4230   74.9330 F   0  0  0  0  0  0  0  0  0  0  0  0
  132.3150  125.2430   73.8990 C   0  0  0  0  0  0  0  0  0  0  0  0
  133.2310  126.3690   74.0960 C   0  0  0  0  0  0  0  0  0  0  0  0
  133.9550  127.2580   74.2510 N   0  0  0  0  0  0  0  0  0  0  0  0
  131.1280  125.3820   73.1400 C   0  0  0  0  0  0  0  0  0  0  0  0
  130.6450  126.8820   72.3080 S   0  0  0  0  0  0  0  0  0  0  0  0
  128.8210  126.9500   72.2770 C   0  0  0  0  0  0  0  0  0  0  0  0
  128.2050  128.1990   72.9230 C   0  0  0  0  0  0  0  0  0  0  0  0
  128.7460  129.2990   72.8060 O   0  0  0  0  0  0  0  0  0  0  0  0
  127.0700  127.9680   73.6180 N   0  0  0  0  0  0  0  0  0  0  0  0
  126.2490  128.8730   74.3180 C   0  0  0  0  0  0  0  0  0  0  0  0
  126.6590  130.1170   74.8320 C   0  0  0  0  0  0  0  0  0  0  0  0
  125.7390  130.9230   75.5040 C   0  0  0  0  0  0  0  0  0  0  0  0
  124.4270  130.4680   75.6420 C   0  0  0  0  0  0  0  0  0  0  0  0
  124.0050  129.2760   75.1490 N   0  0  0  0  0  0  0  0  0  0  0  0
  124.9110  128.5040   74.4970 C   0  0  0  0  0  0  0  0  0  0  0  0
  130.2270  124.3790   73.0050 N   0  0  0  0  0  0  0  0  0  0  0  0
  129.0924  121.7440   74.3551 H   0  0  0  0  0  0  0  0  0  0  0  0
  128.5956  122.5220   72.8141 H   0  0  0  0  0  0  0  0  0  0  0  0
  129.8859  121.2723   72.8141 H   0  0  0  0  0  0  0  0  0  0  0  0
  131.8221  121.9628   74.7781 H   0  0  0  0  0  0  0  0  0  0  0  0
  128.4964  126.9143   71.2266 H   0  0  0  0  0  0  0  0  0  0  0  0
  128.4723  126.0934   72.8725 H   0  0  0  0  0  0  0  0  0  0  0  0
  126.7720  127.0040   73.6800 H   0  0  0  0  0  0  0  0  0  0  0  0
  127.6989  130.4524   74.7049 H   0  0  0  0  0  0  0  0  0  0  0  0
  126.0418  131.8968   75.9164 H   0  0  0  0  0  0  0  0  0  0  0  0
  123.7032  131.1032   76.1736 H   0  0  0  0  0  0  0  0  0  0  0  0
  124.5766  127.5390   74.0884 H   0  0  0  0  0  0  0  0  0  0  0  0
  1  2  1  0
  2  3  2  0
  3  4  1  0
  4  5  1  0
  5  6  1  0
  5  7  1  0
  5  8  1  0
  4  9  2  0
  9 10  1  0
 10 11  3  0
  9 12  1  0
 12 13  1  0
 13 14  1  0
 14 15  1  0
 15 16  2  0
 15 17  1  0
 17 18  1  0
 18 19  2  0
 19 20  1  0
 20 21  2  0
 21 22  1  0
 22 23  2  0
 12 24  2  0
 24  2  1  0
 23 18  1  0
  1 25  1  0
  1 26  1  0
  1 27  1  0
  3 28  1  0
 14 29  1  0
 14 30  1  0
 17 31  1  0
 19 32  1  0
 20 33  1  0
 21 34  1  0
 23 35  1  0
M  END
>  <Binding energies>  (1) 
[-7.59]

>  <Ligand effiencies>  (1) 
[-0.3036]

>  <Interactions>  (1) 
["V-A:HIS:456:CD2:4066, V-B:LYS:547:CE:9922, V-B:HIS:456:CG:9038, H-B:LYS:547:NZ:9923, V-B:LYS:471:CE:9192, V-B:VAL:457:C:9045, H-B:VAL:457:N:9048, V-B:VAL:458:CG2:9059, H-A:LYS:547:NZ:4949, V-B:HIS:456:CB:9037, V-B:HIS:456:CA:9035, V-B:HIS:456:C:9033, H-B:VAL:458:N:9056, V-B:HIS:456:CD2:9040, V-B:GLY:544:C:9884, V-B:LYS:471:CG:9190, V-B:LYS:471:CD:9191, V-A:LYS:471:CD:4217, V-A:HIS:456:CB:4063, V-A:LYS:547:CE:4948, V-A:ASP:473:CG:4238, V-A:HIS:456:CG:4064, V-A:HIS:456:C:4059, V-A:VAL:457:C:4071, V-A:LYS:471:CG:4216, V-A:LYS:471:CB:4215, V-A:HIS:456:CA:4061, V-A:VAL:458:CG2:4085, V-A:LYS:471:CE:4218, V-A:LYS:547:CD:4947, H-B:GLY:544:O:9885, V-A:ASP:473:CB:4237, V-A:VAL:457:CA:4073"]

$$$$
2g_Grossjean_2025
     RDKit          3D

 39 40  0  0  0  0  0  0  0  0999 V2000
  129.4030  126.8820   72.0760 C   0  0  0  0  0  0  0  0  0  0  0  0
  130.4190  126.0320   72.8150 C   0  0  0  0  0  0  0  0  0  0  0  0
  131.6130  126.5690   73.2890 C   0  0  0  0  0  0  0  0  0  0  0  0
  132.5240  125.7390   73.9610 C   0  0  0  0  0  0  0  0  0  0  0  0
  133.8450  126.3500   74.4700 C   0  0  0  0  0  0  0  0  0  0  0  0
  134.4300  127.0570   73.5010 F   0  0  0  0  0  0  0  0  0  0  0  0
  133.6010  127.1540   75.5050 F   0  0  0  0  0  0  0  0  0  0  0  0
  134.7190  125.4260   74.8730 F   0  0  0  0  0  0  0  0  0  0  0  0
  132.1900  124.3730   74.1440 C   0  0  0  0  0  0  0  0  0  0  0  0
  133.1300  123.4520   74.7880 C   0  0  0  0  0  0  0  0  0  0  0  0
  133.8730  122.7250   75.2980 N   0  0  0  0  0  0  0  0  0  0  0  0
  130.9400  123.9230   73.6560 C   0  0  0  0  0  0  0  0  0  0  0  0
  130.3530  122.2500   73.8220 S   0  0  0  0  0  0  0  0  0  0  0  0
  129.5770  121.7820   72.2370 C   0  0  0  0  0  0  0  0  0  0  0  0
  128.5890  120.6100   72.3280 C   0  0  0  0  0  0  0  0  0  0  0  0
  128.3250  120.0750   73.4070 O   0  0  0  0  0  0  0  0  0  0  0  0
  128.0500  120.2170   71.1600 N   0  0  0  0  0  0  0  0  0  0  0  0
  127.0820  119.1320   70.9940 C   0  0  0  0  0  0  0  0  0  0  0  0
  125.7060  119.4210   71.5860 C   0  0  0  0  0  0  0  0  0  0  0  0
  125.2780  120.7440   71.7380 C   0  0  0  0  0  0  0  0  0  0  0  0
  124.0080  121.0090   72.2430 C   0  0  0  0  0  0  0  0  0  0  0  0
  123.1670  119.9530   72.5850 C   0  0  0  0  0  0  0  0  0  0  0  0
  123.5830  118.6330   72.4240 C   0  0  0  0  0  0  0  0  0  0  0  0
  124.8520  118.3670   71.9190 C   0  0  0  0  0  0  0  0  0  0  0  0
  130.0820  124.7330   72.9880 N   0  0  0  0  0  0  0  0  0  0  0  0
  128.7699  127.4117   72.8031 H   0  0  0  0  0  0  0  0  0  0  0  0
  129.9275  127.6142   71.4445 H   0  0  0  0  0  0  0  0  0  0  0  0
  128.7749  126.2365   71.4445 H   0  0  0  0  0  0  0  0  0  0  0  0
  131.8405  127.6346   73.1381 H   0  0  0  0  0  0  0  0  0  0  0  0
  129.0355  122.6573   71.8489 H   0  0  0  0  0  0  0  0  0  0  0  0
  130.3926  121.4505   71.5775 H   0  0  0  0  0  0  0  0  0  0  0  0
  128.2980  120.7220   70.3220 H   0  0  0  0  0  0  0  0  0  0  0  0
  126.9605  118.9407   69.9176 H   0  0  0  0  0  0  0  0  0  0  0  0
  127.4837  118.2657   71.5400 H   0  0  0  0  0  0  0  0  0  0  0  0
  125.9439  121.5738   71.4589 H   0  0  0  0  0  0  0  0  0  0  0  0
  123.6703  122.0480   72.3713 H   0  0  0  0  0  0  0  0  0  0  0  0
  122.1645  120.1630   72.9862 H   0  0  0  0  0  0  0  0  0  0  0  0
  122.9114  117.8050   72.6949 H   0  0  0  0  0  0  0  0  0  0  0  0
  125.1826  117.3268   71.7820 H   0  0  0  0  0  0  0  0  0  0  0  0
  1  2  1  0
  2  3  2  0
  3  4  1  0
  4  5  1  0
  5  6  1  0
  5  7  1  0
  5  8  1  0
  4  9  2  0
  9 10  1  0
 10 11  3  0
  9 12  1  0
 12 13  1  0
 13 14  1  0
 14 15  1  0
 15 16  2  0
 15 17  1  0
 17 18  1  0
 18 19  1  0
 19 20  2  0
 20 21  1  0
 21 22  2  0
 22 23  1  0
 23 24  2  0
 12 25  2  0
 25  2  1  0
 24 19  1  0
  1 26  1  0
  1 27  1  0
  1 28  1  0
  3 29  1  0
 14 30  1  0
 14 31  1  0
 17 32  1  0
 18 33  1  0
 18 34  1  0
 20 35  1  0
 21 36  1  0
 22 37  1  0
 23 38  1  0
 24 39  1  0
M  END
>  <Binding energies>  (1) 
[-6.39]

>  <Ligand effiencies>  (1) 
[-0.24576923076923077]

>  <Interactions>  (1) 
["V-A:TYR:484:CB:4339, V-A:HIS:456:CD2:4066, V-A:TYR:484:CG:4340, V-A:TYR:484:CD1:4341, V-B:LYS:547:CE:9922, V-B:GLY:544:CA:9886, V-B:VAL:542:CG1:9871, H-B:LYS:547:NZ:9923, V-A:GLY:544:C:4910, V-A:HIS:456:CB:4063, V-A:LYS:547:CE:4948, V-A:ASP:473:CG:4238, V-A:HIS:456:CG:4064, V-A:HIS:456:C:4059, V-A:VAL:457:C:4071, V-A:HIS:456:CA:4061, V-A:VAL:458:CG2:4085, V-A:LYS:471:CE:4218, V-A:LYS:547:CD:4947, V-A:LYS:547:CG:4946, H-B:VAL:542:O:9867, V-A:LYS:547:CB:4945, V-A:ARG:545:C:4915, V-A:ARG:545:CA:4917, V-A:VAL:457:CA:4073, V-A:VAL:458:CB:4083"]

$$$$
2h_Grossjean_2025
     RDKit          3D

 51 52  0  0  0  0  0  0  0  0999 V2000
  131.6830  125.9990   74.1710 C   0  0  0  0  0  0  0  0  0  0  0  0
  130.3570  126.2230   73.7060 O   0  0  0  0  0  0  0  0  0  0  0  0
  130.1540  126.6020   72.3910 C   0  0  0  0  0  0  0  0  0  0  0  0
  131.1670  126.6320   71.4190 C   0  0  0  0  0  0  0  0  0  0  0  0
  130.8840  127.0170   70.1110 C   0  0  0  0  0  0  0  0  0  0  0  0
  129.5870  127.3800   69.7430 C   0  0  0  0  0  0  0  0  0  0  0  0
  129.2980  127.7800   68.2970 C   0  0  0  0  0  0  0  0  0  0  0  0
  129.4990  126.6940   67.3370 N   0  0  0  0  0  0  0  0  0  0  0  0
  130.6310  126.4790   66.6440 C   0  0  0  0  0  0  0  0  0  0  0  0
  131.6040  127.2340   66.6870 O   0  0  0  0  0  0  0  0  0  0  0  0
  130.6490  125.2070   65.7840 C   0  0  0  0  0  0  0  0  0  0  0  0
  132.0530  125.0800   64.6260 S   0  0  0  0  0  0  0  0  0  0  0  0
  131.3610  124.8650   63.0010 C   0  0  0  0  0  0  0  0  0  0  0  0
  131.4020  125.9850   62.2380 N   0  0  0  0  0  0  0  0  0  0  0  0
  130.8850  125.9380   60.9900 C   0  0  0  0  0  0  0  0  0  0  0  0
  130.9580  127.2300   60.1970 C   0  0  0  0  0  0  0  0  0  0  0  0
  130.3160  124.7850   60.4540 C   0  0  0  0  0  0  0  0  0  0  0  0
  130.2830  123.6100   61.2210 C   0  0  0  0  0  0  0  0  0  0  0  0
  129.6590  122.3420   60.6070 C   0  0  0  0  0  0  0  0  0  0  0  0
  128.4460  122.1380   61.1220 F   0  0  0  0  0  0  0  0  0  0  0  0
  129.5220  122.4230   59.2820 F   0  0  0  0  0  0  0  0  0  0  0  0
  130.4240  121.2820   60.8680 F   0  0  0  0  0  0  0  0  0  0  0  0
  130.8290  123.6410   62.5300 C   0  0  0  0  0  0  0  0  0  0  0  0
  130.8720  122.4270   63.3490 C   0  0  0  0  0  0  0  0  0  0  0  0
  130.9080  121.4660   63.9920 N   0  0  0  0  0  0  0  0  0  0  0  0
  128.5700  127.3780   70.7090 C   0  0  0  0  0  0  0  0  0  0  0  0
  127.2910  127.7370   70.3560 O   0  0  0  0  0  0  0  0  0  0  0  0
  126.7620  127.0130   69.2530 C   0  0  0  0  0  0  0  0  0  0  0  0
  128.8530  126.9700   72.0240 C   0  0  0  0  0  0  0  0  0  0  0  0
  127.8540  126.9490   72.9690 O   0  0  0  0  0  0  0  0  0  0  0  0
  127.3830  128.2350   73.3460 C   0  0  0  0  0  0  0  0  0  0  0  0
  131.6905  125.9977   75.2710 H   0  0  0  0  0  0  0  0  0  0  0  0
  132.0422  125.0275   73.8008 H   0  0  0  0  0  0  0  0  0  0  0  0
  132.3414  126.7986   73.8008 H   0  0  0  0  0  0  0  0  0  0  0  0
  132.1939  126.3487   71.6934 H   0  0  0  0  0  0  0  0  0  0  0  0
  131.6889  127.0353   69.3615 H   0  0  0  0  0  0  0  0  0  0  0  0
  128.2518  128.1133   68.2309 H   0  0  0  0  0  0  0  0  0  0  0  0
  130.0087  128.5776   68.0349 H   0  0  0  0  0  0  0  0  0  0  0  0
  128.7570  126.0120   67.2750 H   0  0  0  0  0  0  0  0  0  0  0  0
  130.6836  124.3391   66.4589 H   0  0  0  0  0  0  0  0  0  0  0  0
  129.7410  125.2418   65.1641 H   0  0  0  0  0  0  0  0  0  0  0  0
  131.0062  128.0831   60.8897 H   0  0  0  0  0  0  0  0  0  0  0  0
  131.8571  127.2210   59.5633 H   0  0  0  0  0  0  0  0  0  0  0  0
  130.0636  127.3223   59.5633 H   0  0  0  0  0  0  0  0  0  0  0  0
  129.8958  124.7953   59.4375 H   0  0  0  0  0  0  0  0  0  0  0  0
  126.1508  126.1765   69.6227 H   0  0  0  0  0  0  0  0  0  0  0  0
  126.1377  127.6810   68.6414 H   0  0  0  0  0  0  0  0  0  0  0  0
  127.5881  126.6213   68.6414 H   0  0  0  0  0  0  0  0  0  0  0  0
  127.3561  128.3085   74.4432 H   0  0  0  0  0  0  0  0  0  0  0  0
  128.0575  129.0051   72.9434 H   0  0  0  0  0  0  0  0  0  0  0  0
  126.3707  128.3873   72.9434 H   0  0  0  0  0  0  0  0  0  0  0  0
  1  2  1  0
  2  3  1  0
  3  4  2  0
  4  5  1  0
  5  6  2  0
  6  7  1  0
  7  8  1  0
  8  9  1  0
  9 10  2  0
  9 11  1  0
 11 12  1  0
 12 13  1  0
 13 14  2  0
 14 15  1  0
 15 16  1  0
 15 17  2  0
 17 18  1  0
 18 19  1  0
 19 20  1  0
 19 21  1  0
 19 22  1  0
 18 23  2  0
 23 24  1  0
 24 25  3  0
  6 26  1  0
 26 27  1  0
 27 28  1  0
 26 29  2  0
 29 30  1  0
 30 31  1  0
 29  3  1  0
 23 13  1  0
  1 32  1  0
  1 33  1  0
  1 34  1  0
  4 35  1  0
  5 36  1  0
  7 37  1  0
  7 38  1  0
  8 39  1  0
 11 40  1  0
 11 41  1  0
 16 42  1  0
 16 43  1  0
 16 44  1  0
 17 45  1  0
 28 46  1  0
 28 47  1  0
 28 48  1  0
 31 49  1  0
 31 50  1  0
 31 51  1  0
M  END
>  <Binding energies>  (1) 
[-5.93]

>  <Ligand effiencies>  (1) 
[-0.1853125]

>  <Interactions>  (1) 
["V-A:GLU:543:CD:4906, V-A:ASP:366:CG:3211, V-B:GLU:543:CG:9879, V-A:HIS:456:CE1:4068, V-B:TYR:539:CE2:9848, V-B:GLU:543:CD:9880, V-B:GLU:543:CB:9878, V-A:HIS:456:CD2:4066, V-B:LYS:547:CE:9922, V-B:GLU:543:C:9874, V-B:GLY:544:CA:9886, V-B:PRO:540:C:9853, V-B:TYR:539:CD2:9846, V-B:PRO:540:CA:9855, V-B:ALA:541:CB:9864, V-A:LEU:475:CD2:4257, V-B:TYR:539:C:9839, H-B:GLU:543:OE1:9881, H-A:TYR:484:OH:4346, H-A:ARG:545:NH2:4926, H-B:GLU:543:OE2:9882, V-B:HIS:456:CE1:9042, V-B:ARG:545:CG:9894, H-A:ARG:545:NE:4922, V-A:GLU:543:CG:4905, H-B:LYS:547:NZ:9923, V-A:GLY:544:C:4910, H-A:HIS:456:NE2:4069, V-A:GLU:543:C:4900, H-B:GLU:543:O:9875, V-B:HIS:456:CD2:9040, V-B:GLY:544:C:9884, V-A:LYS:547:CE:4948, V-A:HIS:456:CG:4064, V-B:ALA:541:CA:9862, H-B:ARG:545:N:9892, H-B:HIS:456:ND1:9039, V-B:ARG:545:CA:9891"]

$$$$
2i_Grossjean_2025
     RDKit          3D

 32 33  0  0  0  0  0  0  0  0999 V2000
  129.4490  122.1450   73.3010 C   0  0  0  0  0  0  0  0  0  0  0  0
  130.4820  123.2270   73.5620 C   0  0  0  0  0  0  0  0  0  0  0  0
  131.6280  122.9760   74.3120 C   0  0  0  0  0  0  0  0  0  0  0  0
  132.5530  124.0080   74.5230 C   0  0  0  0  0  0  0  0  0  0  0  0
  133.8160  123.7130   75.3550 C   0  0  0  0  0  0  0  0  0  0  0  0
  133.5970  124.0120   76.6370 F   0  0  0  0  0  0  0  0  0  0  0  0
  134.1360  122.4230   75.2600 F   0  0  0  0  0  0  0  0  0  0  0  0
  134.8750  124.4200   74.9540 F   0  0  0  0  0  0  0  0  0  0  0  0
  132.2860  125.2820   73.9600 C   0  0  0  0  0  0  0  0  0  0  0  0
  133.2200  126.3970   74.1490 C   0  0  0  0  0  0  0  0  0  0  0  0
  133.9570  127.2770   74.2970 N   0  0  0  0  0  0  0  0  0  0  0  0
  131.0970  125.4500   73.2150 C   0  0  0  0  0  0  0  0  0  0  0  0
  130.6520  127.0100   72.4680 S   0  0  0  0  0  0  0  0  0  0  0  0
  128.8560  127.0080   72.1820 C   0  0  0  0  0  0  0  0  0  0  0  0
  128.1590  128.1870   72.8640 C   0  0  0  0  0  0  0  0  0  0  0  0
  128.6780  129.3030   72.8090 O   0  0  0  0  0  0  0  0  0  0  0  0
  127.0120  127.8950   73.5140 N   0  0  0  0  0  0  0  0  0  0  0  0
  126.2120  128.7800   74.2180 C   0  0  0  0  0  0  0  0  0  0  0  0
  124.8450  128.7150   74.5240 C   0  0  0  0  0  0  0  0  0  0  0  0
  124.5930  129.8610   75.2430 C   0  0  0  0  0  0  0  0  0  0  0  0
  125.7410  130.5680   75.3680 O   0  0  0  0  0  0  0  0  0  0  0  0
  126.7590  129.8670   74.7180 N   0  0  0  0  0  0  0  0  0  0  0  0
  130.2140  124.4360   73.0210 N   0  0  0  0  0  0  0  0  0  0  0  0
  129.0765  121.7548   74.2596 H   0  0  0  0  0  0  0  0  0  0  0  0
  128.6115  122.5684   72.7271 H   0  0  0  0  0  0  0  0  0  0  0  0
  129.9107  121.3280   72.7271 H   0  0  0  0  0  0  0  0  0  0  0  0
  131.8060  121.9764   74.7353 H   0  0  0  0  0  0  0  0  0  0  0  0
  128.6700  127.0650   71.0993 H   0  0  0  0  0  0  0  0  0  0  0  0
  128.4476  126.0811   72.6111 H   0  0  0  0  0  0  0  0  0  0  0  0
  126.7090  126.9320   73.5220 H   0  0  0  0  0  0  0  0  0  0  0  0
  124.1321  127.9234   74.2500 H   0  0  0  0  0  0  0  0  0  0  0  0
  123.6149  130.1557   75.6511 H   0  0  0  0  0  0  0  0  0  0  0  0
  1  2  1  0
  2  3  2  0
  3  4  1  0
  4  5  1  0
  5  6  1  0
  5  7  1  0
  5  8  1  0
  4  9  2  0
  9 10  1  0
 10 11  3  0
  9 12  1  0
 12 13  1  0
 13 14  1  0
 14 15  1  0
 15 16  2  0
 15 17  1  0
 17 18  1  0
 18 19  1  0
 19 20  2  0
 20 21  1  0
 21 22  1  0
 12 23  2  0
 23  2  1  0
 22 18  2  0
  1 24  1  0
  1 25  1  0
  1 26  1  0
  3 27  1  0
 14 28  1  0
 14 29  1  0
 17 30  1  0
 19 31  1  0
 20 32  1  0
M  END
>  <Binding energies>  (1) 
[-7.23]

>  <Ligand effiencies>  (1) 
[-0.30125]

>  <Interactions>  (1) 
["V-A:HIS:456:CD2:4066, V-B:LYS:547:CE:9922, V-B:HIS:456:CG:9038, H-B:LYS:547:NZ:9923, V-B:VAL:457:C:9045, V-B:VAL:458:CG2:9059, H-A:LYS:547:NZ:4949, V-B:HIS:456:CB:9037, V-B:HIS:456:CA:9035, V-B:HIS:456:C:9033, V-B:HIS:456:CD2:9040, V-B:GLY:544:C:9884, V-A:LYS:471:CD:4217, V-A:HIS:456:CB:4063, V-A:ASP:473:CG:4238, V-A:HIS:456:CG:4064, V-A:HIS:456:C:4059, V-A:VAL:457:C:4071, V-A:LYS:471:CG:4216, V-A:LYS:471:CB:4215, V-A:HIS:456:CA:4061, V-A:VAL:458:CG2:4085, V-A:LYS:471:CE:4218, V-A:LYS:547:CD:4947, H-B:GLY:544:O:9885, V-A:ASP:473:CB:4237, V-A:VAL:457:CA:4073"]

$$$$
2j_Grossjean_2025
     RDKit          3D

 32 33  0  0  0  0  0  0  0  0999 V2000
  129.4510  122.0670   73.3780 C   0  0  0  0  0  0  0  0  0  0  0  0
  130.4850  123.1570   73.5900 C   0  0  0  0  0  0  0  0  0  0  0  0
  131.6400  122.9320   74.3340 C   0  0  0  0  0  0  0  0  0  0  0  0
  132.5690  123.9700   74.5000 C   0  0  0  0  0  0  0  0  0  0  0  0
  133.8420  123.7030   75.3260 C   0  0  0  0  0  0  0  0  0  0  0  0
  133.6260  124.0040   76.6070 F   0  0  0  0  0  0  0  0  0  0  0  0
  134.1840  122.4170   75.2350 F   0  0  0  0  0  0  0  0  0  0  0  0
  134.8850  124.4260   74.9130 F   0  0  0  0  0  0  0  0  0  0  0  0
  132.2950  125.2250   73.8990 C   0  0  0  0  0  0  0  0  0  0  0  0
  133.2290  126.3460   74.0390 C   0  0  0  0  0  0  0  0  0  0  0  0
  133.9680  127.2300   74.1500 N   0  0  0  0  0  0  0  0  0  0  0  0
  131.0960  125.3650   73.1600 C   0  0  0  0  0  0  0  0  0  0  0  0
  130.6490  126.8990   72.3590 S   0  0  0  0  0  0  0  0  0  0  0  0
  128.8280  126.9830   72.2530 C   0  0  0  0  0  0  0  0  0  0  0  0
  128.1980  128.2080   72.9310 C   0  0  0  0  0  0  0  0  0  0  0  0
  128.7260  129.3190   72.8410 O   0  0  0  0  0  0  0  0  0  0  0  0
  127.0620  127.9530   73.6170 N   0  0  0  0  0  0  0  0  0  0  0  0
  126.2920  128.8720   74.3180 C   0  0  0  0  0  0  0  0  0  0  0  0
  126.6880  129.9940   74.8810 N   0  0  0  0  0  0  0  0  0  0  0  0
  125.6860  130.6250   75.4630 C   0  0  0  0  0  0  0  0  0  0  0  0
  124.4400  130.0110   75.3780 C   0  0  0  0  0  0  0  0  0  0  0  0
  124.6000  128.5280   74.4850 S   0  0  0  0  0  0  0  0  0  0  0  0
  130.2110  124.3470   73.0100 N   0  0  0  0  0  0  0  0  0  0  0  0
  129.1014  121.6985   74.3537 H   0  0  0  0  0  0  0  0  0  0  0  0
  128.5994  122.4743   72.8133 H   0  0  0  0  0  0  0  0  0  0  0  0
  129.9026  121.2380   72.8133 H   0  0  0  0  0  0  0  0  0  0  0  0
  131.8229  121.9471   74.7885 H   0  0  0  0  0  0  0  0  0  0  0  0
  128.5478  126.9990   71.1894 H   0  0  0  0  0  0  0  0  0  0  0  0
  128.4462  126.1022   72.7900 H   0  0  0  0  0  0  0  0  0  0  0  0
  126.7280  127.0010   73.6310 H   0  0  0  0  0  0  0  0  0  0  0  0
  125.8275  131.5824   75.9859 H   0  0  0  0  0  0  0  0  0  0  0  0
  123.5050  130.4010   75.8066 H   0  0  0  0  0  0  0  0  0  0  0  0
  1  2  1  0
  2  3  2  0
  3  4  1  0
  4  5  1  0
  5  6  1  0
  5  7  1  0
  5  8  1  0
  4  9  2  0
  9 10  1  0
 10 11  3  0
  9 12  1  0
 12 13  1  0
 13 14  1  0
 14 15  1  0
 15 16  2  0
 15 17  1  0
 17 18  1  0
 18 19  2  0
 19 20  1  0
 20 21  2  0
 21 22  1  0
 12 23  2  0
 23  2  1  0
 22 18  1  0
  1 24  1  0
  1 25  1  0
  1 26  1  0
  3 27  1  0
 14 28  1  0
 14 29  1  0
 17 30  1  0
 20 31  1  0
 21 32  1  0
M  END
>  <Binding energies>  (1) 
[-7.54]

>  <Ligand effiencies>  (1) 
[-0.31416666666666665]

>  <Interactions>  (1) 
["V-A:HIS:456:CD2:4066, V-B:LYS:547:CE:9922, V-B:HIS:456:CG:9038, H-B:LYS:547:NZ:9923, V-B:LYS:471:CE:9192, V-B:VAL:457:C:9045, V-B:VAL:458:CG2:9059, H-A:LYS:547:NZ:4949, V-B:HIS:456:CB:9037, V-B:HIS:456:CA:9035, V-B:HIS:456:C:9033, V-B:HIS:456:CD2:9040, V-B:GLY:544:C:9884, V-A:LYS:471:CD:4217, V-A:HIS:456:CB:4063, V-A:LYS:547:CE:4948, V-A:ASP:473:CG:4238, V-A:HIS:456:CG:4064, V-A:HIS:456:C:4059, V-A:VAL:457:C:4071, V-A:LYS:471:CG:4216, V-A:LYS:471:CB:4215, V-A:HIS:456:CA:4061, V-A:VAL:458:CG2:4085, V-A:LYS:471:CE:4218, V-A:LYS:547:CD:4947, H-B:GLY:544:O:9885, V-A:ASP:473:CB:4237, V-A:VAL:457:CA:4073"]

$$$$
2k_Grossjean_2025
     RDKit          3D

 50 50  0  0  0  0  0  0  0  0999 V2000
  124.0740  130.0050   65.7500 C   0  0  0  0  0  0  0  0  0  0  0  0
  124.0820  130.2050   64.3450 O   0  0  0  0  0  0  0  0  0  0  0  0
  124.9000  131.2920   63.9320 C   0  0  0  0  0  0  0  0  0  0  0  0
  126.3640  130.8400   63.8600 C   0  0  0  0  0  0  0  0  0  0  0  0
  126.7890  130.4370   65.1540 O   0  0  0  0  0  0  0  0  0  0  0  0
  127.1990  129.0780   65.2380 C   0  0  0  0  0  0  0  0  0  0  0  0
  126.7640  128.5230   66.6010 C   0  0  0  0  0  0  0  0  0  0  0  0
  127.9340  128.1750   67.3230 O   0  0  0  0  0  0  0  0  0  0  0  0
  128.9580  127.5600   66.5550 C   0  0  0  0  0  0  0  0  0  0  0  0
  129.8490  126.7220   67.4900 C   0  0  0  0  0  0  0  0  0  0  0  0
  129.3940  126.7400   68.8820 N   0  0  0  0  0  0  0  0  0  0  0  0
  130.1180  127.1580   69.9380 C   0  0  0  0  0  0  0  0  0  0  0  0
  131.2600  127.6090   69.8400 O   0  0  0  0  0  0  0  0  0  0  0  0
  129.4380  127.0220   71.3080 C   0  0  0  0  0  0  0  0  0  0  0  0
  130.5430  127.1980   72.7520 S   0  0  0  0  0  0  0  0  0  0  0  0
  131.0310  125.5780   73.3280 C   0  0  0  0  0  0  0  0  0  0  0  0
  130.2000  124.5580   72.9910 N   0  0  0  0  0  0  0  0  0  0  0  0
  130.5050  123.3060   73.3970 C   0  0  0  0  0  0  0  0  0  0  0  0
  129.5220  122.2250   72.9910 C   0  0  0  0  0  0  0  0  0  0  0  0
  131.6460  123.0130   74.1390 C   0  0  0  0  0  0  0  0  0  0  0  0
  132.5240  124.0500   74.4920 C   0  0  0  0  0  0  0  0  0  0  0  0
  133.7850  123.7090   75.3090 C   0  0  0  0  0  0  0  0  0  0  0  0
  134.1600  122.4360   75.1720 F   0  0  0  0  0  0  0  0  0  0  0  0
  134.8050  124.4720   74.9140 F   0  0  0  0  0  0  0  0  0  0  0  0
  133.5610  123.9230   76.6050 F   0  0  0  0  0  0  0  0  0  0  0  0
  132.2120  125.3710   74.0790 C   0  0  0  0  0  0  0  0  0  0  0  0
  133.0910  126.4930   74.4220 C   0  0  0  0  0  0  0  0  0  0  0  0
  133.7860  127.3780   74.6930 N   0  0  0  0  0  0  0  0  0  0  0  0
  124.1130  130.9792   66.2593 H   0  0  0  0  0  0  0  0  0  0  0  0
  123.1540  129.4763   66.0399 H   0  0  0  0  0  0  0  0  0  0  0  0
  124.9488  129.4045   66.0399 H   0  0  0  0  0  0  0  0  0  0  0  0
  124.5749  131.6376   62.9396 H   0  0  0  0  0  0  0  0  0  0  0  0
  124.8079  132.1132   64.6580 H   0  0  0  0  0  0  0  0  0  0  0  0
  126.4548  129.9944   63.1623 H   0  0  0  0  0  0  0  0  0  0  0  0
  126.9918  131.6706   63.5052 H   0  0  0  0  0  0  0  0  0  0  0  0
  126.7261  128.4970   64.4325 H   0  0  0  0  0  0  0  0  0  0  0  0
  128.2916  129.0061   65.1324 H   0  0  0  0  0  0  0  0  0  0  0  0
  126.1979  129.2880   67.1527 H   0  0  0  0  0  0  0  0  0  0  0  0
  126.1193  127.6417   66.4680 H   0  0  0  0  0  0  0  0  0  0  0  0
  128.5065  126.9078   65.7929 H   0  0  0  0  0  0  0  0  0  0  0  0
  129.5634  128.3312   66.0563 H   0  0  0  0  0  0  0  0  0  0  0  0
  129.8486  125.6810   67.1345 H   0  0  0  0  0  0  0  0  0  0  0  0
  130.8563  127.1633   67.4674 H   0  0  0  0  0  0  0  0  0  0  0  0
  128.4580  126.3990   69.0480 H   0  0  0  0  0  0  0  0  0  0  0  0
  128.6604  127.7967   71.3793 H   0  0  0  0  0  0  0  0  0  0  0  0
  129.0446  125.9956   71.3506 H   0  0  0  0  0  0  0  0  0  0  0  0
  129.0975  121.7582   73.8921 H   0  0  0  0  0  0  0  0  0  0  0  0
  128.7132  122.6706   72.3932 H   0  0  0  0  0  0  0  0  0  0  0  0
  130.0422  121.4621   72.3932 H   0  0  0  0  0  0  0  0  0  0  0  0
  131.8577  121.9781   74.4459 H   0  0  0  0  0  0  0  0  0  0  0  0
  1  2  1  0
  2  3  1  0
  3  4  1  0
  4  5  1  0
  5  6  1  0
  6  7  1  0
  7  8  1  0
  8  9  1  0
  9 10  1  0
 10 11  1  0
 11 12  1  0
 12 13  2  0
 12 14  1  0
 14 15  1  0
 15 16  1  0
 16 17  2  0
 17 18  1  0
 18 19  1  0
 18 20  2  0
 20 21  1  0
 21 22  1  0
 22 23  1  0
 22 24  1  0
 22 25  1  0
 21 26  2  0
 26 27  1  0
 27 28  3  0
 26 16  1  0
  1 29  1  0
  1 30  1  0
  1 31  1  0
  3 32  1  0
  3 33  1  0
  4 34  1  0
  4 35  1  0
  6 36  1  0
  6 37  1  0
  7 38  1  0
  7 39  1  0
  9 40  1  0
  9 41  1  0
 10 42  1  0
 10 43  1  0
 11 44  1  0
 14 45  1  0
 14 46  1  0
 19 47  1  0
 19 48  1  0
 19 49  1  0
 20 50  1  0
M  END
>  <Binding energies>  (1) 
[-5.83]

>  <Ligand effiencies>  (1) 
[-0.20103448275862068]

>  <Interactions>  (1) 
["V-A:GLU:543:CD:4906, V-B:GLU:543:CG:9879, V-A:HIS:456:CE1:4068, V-B:GLU:543:CD:9880, V-B:GLU:543:CB:9878, V-A:HIS:456:CD2:4066, V-B:LYS:547:CE:9922, V-B:GLU:543:C:9874, V-B:GLY:454:CA:9021, H-B:GLY:454:N:9022, H-B:TYR:484:OH:9320, V-B:ARG:545:CZ:9898, V-B:HIS:456:CE1:9042, V-B:ARG:545:CG:9894, H-B:ARG:545:NE:9896, V-A:GLU:543:CG:4905, H-B:LYS:547:NZ:9923, H-A:LYS:547:NZ:4949, V-A:GLY:544:C:4910, H-A:HIS:456:NE2:4069, H-B:GLU:543:O:9875, V-A:LYS:471:CD:4217, V-A:HIS:456:CB:4063, V-A:LYS:547:CE:4948, V-A:ASP:473:CG:4238, V-A:HIS:456:CG:4064, V-A:HIS:456:C:4059, V-A:VAL:457:C:4071, V-A:LYS:471:CG:4216, V-A:LYS:471:CB:4215, V-A:HIS:456:CA:4061, H-A:HIS:456:ND1:4065, V-A:VAL:458:CG2:4085, V-A:LYS:471:CE:4218, V-A:LYS:547:CD:4947, V-B:GLY:453:CA:9016, V-B:GLY:453:C:9014, V-B:ARG:545:CD:9895, V-A:LYS:547:CG:4946, H-A:ARG:545:N:4918, V-A:ASP:473:CB:4237, V-A:VAL:457:CA:4073"]

$$$$
3aa_Grossjean_2025
     RDKit          3D

 52 54  0  0  0  0  0  0  0  0999 V2000
  120.4730  117.7570   75.2720 C   0  0  0  0  0  0  0  0  0  0  0  0
  121.6970  118.2100   74.4720 C   0  0  0  0  0  0  0  0  0  0  0  0
  121.6600  119.6230   74.3080 O   0  0  0  0  0  0  0  0  0  0  0  0
  122.1300  120.2070   73.1760 C   0  0  0  0  0  0  0  0  0  0  0  0
  121.4040  120.5590   72.2410 O   0  0  0  0  0  0  0  0  0  0  0  0
  123.6230  120.3690   73.1670 C   0  0  0  0  0  0  0  0  0  0  0  0
  124.3520  120.6100   74.3410 C   0  0  0  0  0  0  0  0  0  0  0  0
  125.7360  120.7510   74.2970 C   0  0  0  0  0  0  0  0  0  0  0  0
  126.4200  120.6480   73.0850 C   0  0  0  0  0  0  0  0  0  0  0  0
  127.8190  120.8020   73.1520 N   0  0  0  0  0  0  0  0  0  0  0  0
  128.6810  121.2610   72.2170 C   0  0  0  0  0  0  0  0  0  0  0  0
  128.3750  121.6200   71.0800 O   0  0  0  0  0  0  0  0  0  0  0  0
  130.1480  121.3120   72.6420 C   0  0  0  0  0  0  0  0  0  0  0  0
  130.3640  122.1810   74.2250 S   0  0  0  0  0  0  0  0  0  0  0  0
  131.0500  123.7800   73.8520 C   0  0  0  0  0  0  0  0  0  0  0  0
  130.2330  124.5610   73.1060 N   0  0  0  0  0  0  0  0  0  0  0  0
  130.6350  125.8080   72.7490 C   0  0  0  0  0  0  0  0  0  0  0  0
  129.6690  126.6160   71.9360 C   0  0  0  0  0  0  0  0  0  0  0  0
  129.8000  126.6960   70.5410 C   0  0  0  0  0  0  0  0  0  0  0  0
  128.9060  127.4440   69.7790 C   0  0  0  0  0  0  0  0  0  0  0  0
  127.8660  128.1230   70.4050 C   0  0  0  0  0  0  0  0  0  0  0  0
  127.7130  128.0580   71.7860 C   0  0  0  0  0  0  0  0  0  0  0  0
  128.6070  127.3080   72.5440 C   0  0  0  0  0  0  0  0  0  0  0  0
  131.8820  126.3020   73.1460 C   0  0  0  0  0  0  0  0  0  0  0  0
  132.7530  125.5040   73.9040 C   0  0  0  0  0  0  0  0  0  0  0  0
  134.1220  126.0800   74.3130 C   0  0  0  0  0  0  0  0  0  0  0  0
  134.9250  125.1670   74.8630 F   0  0  0  0  0  0  0  0  0  0  0  0
  134.7520  126.5710   73.2450 F   0  0  0  0  0  0  0  0  0  0  0  0
  133.9550  127.0590   75.2030 F   0  0  0  0  0  0  0  0  0  0  0  0
  132.3350  124.1990   74.2610 C   0  0  0  0  0  0  0  0  0  0  0  0
  133.2260  123.3010   75.0020 C   0  0  0  0  0  0  0  0  0  0  0  0
  133.9300  122.5920   75.5860 N   0  0  0  0  0  0  0  0  0  0  0  0
  125.6960  120.4200   71.9050 C   0  0  0  0  0  0  0  0  0  0  0  0
  124.3130  120.2820   71.9500 C   0  0  0  0  0  0  0  0  0  0  0  0
  120.6881  117.8366   76.3478 H   0  0  0  0  0  0  0  0  0  0  0  0
  119.6139  118.3967   75.0215 H   0  0  0  0  0  0  0  0  0  0  0  0
  120.2374  116.7121   75.0215 H   0  0  0  0  0  0  0  0  0  0  0  0
  122.6129  117.9274   75.0116 H   0  0  0  0  0  0  0  0  0  0  0  0
  121.6892  117.7259   73.4843 H   0  0  0  0  0  0  0  0  0  0  0  0
  123.8258  120.6882   75.3038 H   0  0  0  0  0  0  0  0  0  0  0  0
  126.2948  120.9451   75.2244 H   0  0  0  0  0  0  0  0  0  0  0  0
  128.2310  120.4750   74.0140 H   0  0  0  0  0  0  0  0  0  0  0  0
  130.5242  120.2836   72.7463 H   0  0  0  0  0  0  0  0  0  0  0  0
  130.7079  121.8621   71.8713 H   0  0  0  0  0  0  0  0  0  0  0  0
  130.6209  126.1600   70.0422 H   0  0  0  0  0  0  0  0  0  0  0  0
  129.0219  127.4976   68.6864 H   0  0  0  0  0  0  0  0  0  0  0  0
  127.1600  128.7151   69.8042 H   0  0  0  0  0  0  0  0  0  0  0  0
  126.8891  128.5970   72.2766 H   0  0  0  0  0  0  0  0  0  0  0  0
  128.4808  127.2558   73.6355 H   0  0  0  0  0  0  0  0  0  0  0  0
  132.1817  127.3217   72.8625 H   0  0  0  0  0  0  0  0  0  0  0  0
  126.2235  120.3503   70.9422 H   0  0  0  0  0  0  0  0  0  0  0  0
  123.7540  120.1025   71.0198 H   0  0  0  0  0  0  0  0  0  0  0  0
  1  2  1  0
  2  3  1  0
  3  4  1  0
  4  5  2  0
  4  6  1  0
  6  7  2  0
  7  8  1  0
  8  9  2  0
  9 10  1  0
 10 11  1  0
 11 12  2  0
 11 13  1  0
 13 14  1  0
 14 15  1  0
 15 16  2  0
 16 17  1  0
 17 18  1  0
 18 19  2  0
 19 20  1  0
 20 21  2  0
 21 22  1  0
 22 23  2  0
 17 24  2  0
 24 25  1  0
 25 26  1  0
 26 27  1  0
 26 28  1  0
 26 29  1  0
 25 30  2  0
 30 31  1  0
 31 32  3  0
  9 33  1  0
 33 34  2  0
 34  6  1  0
 30 15  1  0
 23 18  1  0
  1 35  1  0
  1 36  1  0
  1 37  1  0
  2 38  1  0
  2 39  1  0
  7 40  1  0
  8 41  1  0
 10 42  1  0
 13 43  1  0
 13 44  1  0
 19 45  1  0
 20 46  1  0
 21 47  1  0
 22 48  1  0
 23 49  1  0
 24 50  1  0
 33 51  1  0
 34 52  1  0
M  END
>  <Binding energies>  (1) 
[-8.62]

>  <Ligand effiencies>  (1) 
[-0.24628571428571427]

>  <Interactions>  (1) 
["V-A:HIS:456:CE1:4068, V-A:TYR:484:CB:4339, V-A:HIS:456:CD2:4066, V-A:TYR:484:CG:4340, V-B:ARG:356:CB:8089, V-B:LYS:547:CE:9922, H-B:GLU:357:N:8105, V-B:PHE:548:CE2:9937, V-B:ILE:546:C:9906, V-B:LYS:547:CG:9920, V-B:GLY:544:CA:9886, V-B:VAL:542:CG1:9871, V-B:HIS:456:CE1:9042, V-B:HIS:456:CG:9038, H-B:LYS:547:NZ:9923, V-A:GLY:544:C:4910, V-B:HIS:456:CD2:9040, V-B:GLY:544:C:9884, V-A:LYS:471:CD:4217, V-A:HIS:456:CB:4063, V-A:LYS:547:CE:4948, V-A:ASP:473:CG:4238, V-A:HIS:456:CG:4064, V-A:HIS:456:C:4059, V-A:VAL:457:C:4071, V-A:LYS:471:CG:4216, V-A:HIS:456:CA:4061, V-A:VAL:458:CG2:4085, V-A:LYS:471:CE:4218, V-A:LYS:547:CD:4947, V-A:LYS:547:CG:4946, H-B:GLY:544:N:9887, V-A:LYS:547:CB:4945, V-A:ARG:545:C:4915, V-A:ARG:545:CA:4917, V-B:PHE:548:CD2:9935, V-B:ARG:356:CD:8091, V-A:VAL:457:CA:4073, V-A:VAL:458:CB:4083, V-A:VAL:458:CA:4081"]

$$$$
3ab_Grossjean_2025
     RDKit          3D

 49 51  0  0  0  0  0  0  0  0999 V2000
  121.1770  118.2550   75.0500 C   0  0  0  0  0  0  0  0  0  0  0  0
  121.1480  118.5960   73.6710 O   0  0  0  0  0  0  0  0  0  0  0  0
  121.3520  119.8750   73.2630 C   0  0  0  0  0  0  0  0  0  0  0  0
  120.4360  120.6530   72.9810 O   0  0  0  0  0  0  0  0  0  0  0  0
  122.8040  120.2520   73.1930 C   0  0  0  0  0  0  0  0  0  0  0  0
  123.5380  120.5980   74.3370 C   0  0  0  0  0  0  0  0  0  0  0  0
  124.8840  120.9420   74.2420 C   0  0  0  0  0  0  0  0  0  0  0  0
  125.5220  120.9460   72.9910 C   0  0  0  0  0  0  0  0  0  0  0  0
  126.8750  121.2700   72.7790 N   0  0  0  0  0  0  0  0  0  0  0  0
  127.8910  121.3720   73.6610 C   0  0  0  0  0  0  0  0  0  0  0  0
  127.8020  121.2030   74.8770 O   0  0  0  0  0  0  0  0  0  0  0  0
  129.2500  121.7330   73.0580 C   0  0  0  0  0  0  0  0  0  0  0  0
  130.4750  122.1530   74.3340 S   0  0  0  0  0  0  0  0  0  0  0  0
  131.1340  123.7590   73.9350 C   0  0  0  0  0  0  0  0  0  0  0  0
  130.2660  124.5460   73.2560 N   0  0  0  0  0  0  0  0  0  0  0  0
  130.6360  125.8010   72.8910 C   0  0  0  0  0  0  0  0  0  0  0  0
  129.6160  126.6100   72.1450 C   0  0  0  0  0  0  0  0  0  0  0  0
  128.6290  127.3330   72.8330 C   0  0  0  0  0  0  0  0  0  0  0  0
  127.6810  128.0860   72.1460 C   0  0  0  0  0  0  0  0  0  0  0  0
  127.7060  128.1250   70.7550 C   0  0  0  0  0  0  0  0  0  0  0  0
  128.6700  127.4140   70.0490 C   0  0  0  0  0  0  0  0  0  0  0  0
  129.6160  126.6630   70.7400 C   0  0  0  0  0  0  0  0  0  0  0  0
  131.9140  126.2860   73.1890 C   0  0  0  0  0  0  0  0  0  0  0  0
  132.8370  125.4830   73.8740 C   0  0  0  0  0  0  0  0  0  0  0  0
  134.2360  126.0530   74.1780 C   0  0  0  0  0  0  0  0  0  0  0  0
  134.9270  126.3440   73.0740 F   0  0  0  0  0  0  0  0  0  0  0  0
  134.1300  127.1760   74.8900 F   0  0  0  0  0  0  0  0  0  0  0  0
  134.9470  125.1660   74.8750 F   0  0  0  0  0  0  0  0  0  0  0  0
  132.4450  124.1750   74.2550 C   0  0  0  0  0  0  0  0  0  0  0  0
  133.3900  123.2750   74.9220 C   0  0  0  0  0  0  0  0  0  0  0  0
  134.1370  122.5660   75.4480 N   0  0  0  0  0  0  0  0  0  0  0  0
  124.7950  120.5960   71.8520 C   0  0  0  0  0  0  0  0  0  0  0  0
  123.4500  120.2540   71.9500 C   0  0  0  0  0  0  0  0  0  0  0  0
  121.0992  119.1699   75.6557 H   0  0  0  0  0  0  0  0  0  0  0  0
  120.3322  117.5894   75.2810 H   0  0  0  0  0  0  0  0  0  0  0  0
  122.1220  117.7416   75.2810 H   0  0  0  0  0  0  0  0  0  0  0  0
  123.0449  120.5976   75.3203 H   0  0  0  0  0  0  0  0  0  0  0  0
  125.4479  121.2108   75.1474 H   0  0  0  0  0  0  0  0  0  0  0  0
  127.0980  121.4900   71.8180 H   0  0  0  0  0  0  0  0  0  0  0  0
  129.6208  120.8740   72.4795 H   0  0  0  0  0  0  0  0  0  0  0  0
  129.1122  122.6164   72.4172 H   0  0  0  0  0  0  0  0  0  0  0  0
  128.6043  127.3041   73.9323 H   0  0  0  0  0  0  0  0  0  0  0  0
  126.9150  128.6481   72.7004 H   0  0  0  0  0  0  0  0  0  0  0  0
  126.9589  128.7217   70.2111 H   0  0  0  0  0  0  0  0  0  0  0  0
  128.6848  127.4450   68.9495 H   0  0  0  0  0  0  0  0  0  0  0  0
  130.3765  126.1014   70.1776 H   0  0  0  0  0  0  0  0  0  0  0  0
  132.1967  127.3043   72.8838 H   0  0  0  0  0  0  0  0  0  0  0  0
  125.2893  120.5905   70.8693 H   0  0  0  0  0  0  0  0  0  0  0  0
  122.8890  119.9828   71.0435 H   0  0  0  0  0  0  0  0  0  0  0  0
  1  2  1  0
  2  3  1  0
  3  4  2  0
  3  5  1  0
  5  6  2  0
  6  7  1  0
  7  8  2  0
  8  9  1  0
  9 10  1  0
 10 11  2  0
 10 12  1  0
 12 13  1  0
 13 14  1  0
 14 15  2  0
 15 16  1  0
 16 17  1  0
 17 18  2  0
 18 19  1  0
 19 20  2  0
 20 21  1  0
 21 22  2  0
 16 23  2  0
 23 24  1  0
 24 25  1  0
 25 26  1  0
 25 27  1  0
 25 28  1  0
 24 29  2  0
 29 30  1  0
 30 31  3  0
  8 32  1  0
 32 33  2  0
 33  5  1  0
 29 14  1  0
 22 17  1  0
  1 34  1  0
  1 35  1  0
  1 36  1  0
  6 37  1  0
  7 38  1  0
  9 39  1  0
 12 40  1  0
 12 41  1  0
 18 42  1  0
 19 43  1  0
 20 44  1  0
 21 45  1  0
 22 46  1  0
 23 47  1  0
 32 48  1  0
 33 49  1  0
M  END
>  <Binding energies>  (1) 
[-8.99]

>  <Ligand effiencies>  (1) 
[-0.26441176470588235]

>  <Interactions>  (1) 
["V-A:HIS:456:CE1:4068, V-A:HIS:456:CD2:4066, V-B:LYS:547:CA:9917, V-B:ARG:356:CB:8089, V-B:LYS:547:CE:9922, H-B:GLU:357:N:8105, V-B:GLU:357:CB:8106, V-B:PHE:548:CE2:9937, V-B:ILE:546:C:9906, V-B:LYS:547:CG:9920, V-B:GLY:544:CA:9886, V-B:VAL:542:CG1:9871, V-B:HIS:456:CE1:9042, V-B:HIS:456:CG:9038, H-B:LYS:547:NZ:9923, V-A:GLY:544:C:4910, V-B:HIS:456:CD2:9040, V-B:GLY:544:C:9884, V-A:LYS:471:CD:4217, V-A:HIS:456:CB:4063, V-A:LYS:547:CE:4948, V-A:ASP:473:CG:4238, V-A:HIS:456:CG:4064, V-A:HIS:456:C:4059, V-A:VAL:457:C:4071, V-A:LYS:471:CG:4216, H-A:ASP:473:N:4236, V-A:HIS:456:CA:4061, V-A:VAL:458:CG2:4085, V-A:LYS:471:CE:4218, V-A:LYS:547:CD:4947, V-A:LYS:547:CG:4946, V-A:LYS:547:CB:4945, V-A:ARG:545:C:4915, V-A:ARG:545:CA:4917, V-B:PHE:548:CD2:9935, V-A:VAL:457:CA:4073, V-A:VAL:458:CB:4083, V-A:VAL:458:CA:4081"]

$$$$
3ac_Grossjean_2025
     RDKit          3D

 47 49  0  0  0  0  0  0  0  0999 V2000
  136.3330  135.4850   71.5320 C   0  0  0  0  0  0  0  0  0  0  0  0
  135.9910  134.3440   72.3130 O   0  0  0  0  0  0  0  0  0  0  0  0
  134.6690  134.1340   72.6580 C   0  0  0  0  0  0  0  0  0  0  0  0
  133.7250  134.3330   71.6510 C   0  0  0  0  0  0  0  0  0  0  0  0
  132.3700  134.1410   71.9040 C   0  0  0  0  0  0  0  0  0  0  0  0
  131.9380  133.7550   73.1740 C   0  0  0  0  0  0  0  0  0  0  0  0
  130.5520  133.5670   73.3270 N   0  0  0  0  0  0  0  0  0  0  0  0
  129.5850  133.5500   72.3840 C   0  0  0  0  0  0  0  0  0  0  0  0
  129.7720  133.6620   71.1720 O   0  0  0  0  0  0  0  0  0  0  0  0
  128.1590  133.3740   72.9050 C   0  0  0  0  0  0  0  0  0  0  0  0
  128.1060  132.4290   74.4580 S   0  0  0  0  0  0  0  0  0  0  0  0
  127.4500  130.8060   74.1180 C   0  0  0  0  0  0  0  0  0  0  0  0
  128.2510  130.0640   73.3170 N   0  0  0  0  0  0  0  0  0  0  0  0
  127.8860  128.8020   72.9760 C   0  0  0  0  0  0  0  0  0  0  0  0
  128.8260  128.0510   72.0810 C   0  0  0  0  0  0  0  0  0  0  0  0
  129.9170  127.3460   72.6140 C   0  0  0  0  0  0  0  0  0  0  0  0
  130.7900  126.6430   71.7890 C   0  0  0  0  0  0  0  0  0  0  0  0
  130.5840  126.6360   70.4130 C   0  0  0  0  0  0  0  0  0  0  0  0
  129.5150  127.3300   69.8580 C   0  0  0  0  0  0  0  0  0  0  0  0
  128.6440  128.0320   70.6870 C   0  0  0  0  0  0  0  0  0  0  0  0
  126.6790  128.2590   73.4270 C   0  0  0  0  0  0  0  0  0  0  0  0
  125.8200  129.0140   74.2390 C   0  0  0  0  0  0  0  0  0  0  0  0
  124.4960  128.3790   74.7090 C   0  0  0  0  0  0  0  0  0  0  0  0
  124.6790  127.3900   75.5850 F   0  0  0  0  0  0  0  0  0  0  0  0
  123.7280  129.2960   75.3000 F   0  0  0  0  0  0  0  0  0  0  0  0
  123.8390  127.8760   73.6630 F   0  0  0  0  0  0  0  0  0  0  0  0
  126.2020  130.3340   74.5880 C   0  0  0  0  0  0  0  0  0  0  0  0
  125.3040  131.1860   75.3690 C   0  0  0  0  0  0  0  0  0  0  0  0
  124.5930  131.8600   75.9850 N   0  0  0  0  0  0  0  0  0  0  0  0
  132.8830  133.5460   74.1900 C   0  0  0  0  0  0  0  0  0  0  0  0
  134.2380  133.7380   73.9340 C   0  0  0  0  0  0  0  0  0  0  0  0
  136.5843  136.3234   72.1982 H   0  0  0  0  0  0  0  0  0  0  0  0
  137.1997  135.2485   70.8973 H   0  0  0  0  0  0  0  0  0  0  0  0
  135.4791  135.7642   70.8973 H   0  0  0  0  0  0  0  0  0  0  0  0
  134.0540  134.6443   70.6486 H   0  0  0  0  0  0  0  0  0  0  0  0
  131.6359  134.2942   71.0993 H   0  0  0  0  0  0  0  0  0  0  0  0
  130.2590  133.3690   74.2720 H   0  0  0  0  0  0  0  0  0  0  0  0
  127.7207  134.3676   73.0799 H   0  0  0  0  0  0  0  0  0  0  0  0
  127.5904  132.8128   72.1489 H   0  0  0  0  0  0  0  0  0  0  0  0
  130.0844  127.3494   73.7012 H   0  0  0  0  0  0  0  0  0  0  0  0
  131.6394  126.0951   72.2230 H   0  0  0  0  0  0  0  0  0  0  0  0
  131.2713  126.0778   69.7603 H   0  0  0  0  0  0  0  0  0  0  0  0
  129.3580  127.3246   68.7693 H   0  0  0  0  0  0  0  0  0  0  0  0
  127.7997  128.5807   70.2441 H   0  0  0  0  0  0  0  0  0  0  0  0
  126.4014  127.2332   73.1432 H   0  0  0  0  0  0  0  0  0  0  0  0
  132.5527  133.2299   75.1905 H   0  0  0  0  0  0  0  0  0  0  0  0
  134.9744  133.5786   74.7355 H   0  0  0  0  0  0  0  0  0  0  0  0
  1  2  1  0
  2  3  1  0
  3  4  2  0
  4  5  1  0
  5  6  2  0
  6  7  1  0
  7  8  1  0
  8  9  2  0
  8 10  1  0
 10 11  1  0
 11 12  1  0
 12 13  2  0
 13 14  1  0
 14 15  1  0
 15 16  2  0
 16 17  1  0
 17 18  2  0
 18 19  1  0
 19 20  2  0
 14 21  2  0
 21 22  1  0
 22 23  1  0
 23 24  1  0
 23 25  1  0
 23 26  1  0
 22 27  2  0
 27 28  1  0
 28 29  3  0
  6 30  1  0
 30 31  2  0
 31  3  1  0
 27 12  1  0
 20 15  1  0
  1 32  1  0
  1 33  1  0
  1 34  1  0
  4 35  1  0
  5 36  1  0
  7 37  1  0
 10 38  1  0
 10 39  1  0
 16 40  1  0
 17 41  1  0
 18 42  1  0
 19 43  1  0
 20 44  1  0
 21 45  1  0
 30 46  1  0
 31 47  1  0
M  END
>  <Binding energies>  (1) 
[-7.9]

>  <Ligand effiencies>  (1) 
[-0.246875]

>  <Interactions>  (1) 
["V-A:HIS:456:CE1:4068, V-B:LYS:547:CB:9919, V-A:HIS:456:CD2:4066, V-B:LYS:547:CE:9922, V-B:LYS:547:CG:9920, V-B:HIS:456:CE1:9042, V-B:HIS:456:CG:9038, V-B:LYS:471:CE:9192, V-B:VAL:457:C:9045, V-B:VAL:458:CG2:9059, H-A:LYS:547:NZ:4949, V-B:HIS:456:CB:9037, V-A:GLY:544:C:4910, V-B:HIS:456:CA:9035, V-B:HIS:456:C:9033, V-B:VAL:457:CA:9047, V-B:HIS:456:CD2:9040, V-B:GLY:544:C:9884, V-B:LYS:471:CD:9191, V-A:LYS:547:CE:4948, V-A:HIS:456:CG:4064, V-B:ASP:473:CG:9212, V-A:ARG:356:CB:3115, V-A:VAL:542:CG1:4897, V-A:GLY:544:CA:4912, V-B:TYR:484:CB:9313, V-A:GLU:357:CB:3132, V-A:LYS:547:CG:4946, V-B:LYS:547:CD:9921, V-B:ARG:545:C:9889, V-B:ARG:545:CA:9891, H-A:GLY:544:N:4913, V-B:TYR:484:CG:9314, V-A:LYS:547:CA:4943, V-A:GLU:357:CA:3130, V-B:VAL:458:CB:9057"]

$$$$
3ad_Grossjean_2025
     RDKit          3D

 43 45  0  0  0  0  0  0  0  0999 V2000
  133.7650  127.2890   74.2080 N   0  0  0  0  0  0  0  0  0  0  0  0
  133.0040  126.4300   74.0560 C   0  0  0  0  0  0  0  0  0  0  0  0
  132.0410  125.3410   73.8660 C   0  0  0  0  0  0  0  0  0  0  0  0
  132.2300  124.0890   74.5000 C   0  0  0  0  0  0  0  0  0  0  0  0
  133.4110  123.8060   75.4490 C   0  0  0  0  0  0  0  0  0  0  0  0
  133.6370  122.5020   75.6200 F   0  0  0  0  0  0  0  0  0  0  0  0
  134.5280  124.3470   74.9580 F   0  0  0  0  0  0  0  0  0  0  0  0
  133.1680  124.3300   76.6510 F   0  0  0  0  0  0  0  0  0  0  0  0
  131.3050  123.0640   74.2480 C   0  0  0  0  0  0  0  0  0  0  0  0
  130.2250  123.2820   73.3860 C   0  0  0  0  0  0  0  0  0  0  0  0
  129.2160  122.2180   73.0700 C   0  0  0  0  0  0  0  0  0  0  0  0
  128.4490  121.6320   74.0890 C   0  0  0  0  0  0  0  0  0  0  0  0
  127.5100  120.6450   73.8030 C   0  0  0  0  0  0  0  0  0  0  0  0
  127.3250  120.2290   72.4870 C   0  0  0  0  0  0  0  0  0  0  0  0
  128.0710  120.7960   71.4590 C   0  0  0  0  0  0  0  0  0  0  0  0
  129.0090  121.7840   71.7500 C   0  0  0  0  0  0  0  0  0  0  0  0
  130.0520  124.4820   72.7760 N   0  0  0  0  0  0  0  0  0  0  0  0
  130.9200  125.4920   73.0200 C   0  0  0  0  0  0  0  0  0  0  0  0
  130.5310  126.9930   72.1470 S   0  0  0  0  0  0  0  0  0  0  0  0
  128.7200  127.1150   72.0640 C   0  0  0  0  0  0  0  0  0  0  0  0
  128.1880  128.3400   72.8110 C   0  0  0  0  0  0  0  0  0  0  0  0
  128.8310  129.3900   72.7730 O   0  0  0  0  0  0  0  0  0  0  0  0
  127.0230  128.1570   73.4680 N   0  0  0  0  0  0  0  0  0  0  0  0
  126.2660  129.0660   74.2310 C   0  0  0  0  0  0  0  0  0  0  0  0
  124.9480  128.6840   74.4960 C   0  0  0  0  0  0  0  0  0  0  0  0
  124.1110  129.5120   75.2390 C   0  0  0  0  0  0  0  0  0  0  0  0
  124.5900  130.7290   75.7140 C   0  0  0  0  0  0  0  0  0  0  0  0
  125.8990  131.1270   75.4510 C   0  0  0  0  0  0  0  0  0  0  0  0
  126.7390  130.3010   74.7090 C   0  0  0  0  0  0  0  0  0  0  0  0
  131.4300  122.0837   74.7310 H   0  0  0  0  0  0  0  0  0  0  0  0
  128.5922  121.9578   75.1299 H   0  0  0  0  0  0  0  0  0  0  0  0
  126.9167  120.1956   74.6130 H   0  0  0  0  0  0  0  0  0  0  0  0
  126.5849  119.4478   72.2592 H   0  0  0  0  0  0  0  0  0  0  0  0
  127.9209  120.4656   70.4206 H   0  0  0  0  0  0  0  0  0  0  0  0
  129.5962  122.2309   70.9342 H   0  0  0  0  0  0  0  0  0  0  0  0
  128.4177  127.1848   71.0087 H   0  0  0  0  0  0  0  0  0  0  0  0
  128.2990  126.2186   72.5427 H   0  0  0  0  0  0  0  0  0  0  0  0
  126.6440  127.2220   73.4490 H   0  0  0  0  0  0  0  0  0  0  0  0
  124.5699  127.7237   74.1154 H   0  0  0  0  0  0  0  0  0  0  0  0
  123.0758  129.2055   75.4496 H   0  0  0  0  0  0  0  0  0  0  0  0
  123.9293  131.3827   76.3024 H   0  0  0  0  0  0  0  0  0  0  0  0
  126.2681  132.0919   75.8288 H   0  0  0  0  0  0  0  0  0  0  0  0
  127.7719  130.6142   74.4968 H   0  0  0  0  0  0  0  0  0  0  0  0
  1  2  3  0
  2  3  1  0
  3  4  2  0
  4  5  1  0
  5  6  1  0
  5  7  1  0
  5  8  1  0
  4  9  1  0
  9 10  2  0
 10 11  1  0
 11 12  2  0
 12 13  1  0
 13 14  2  0
 14 15  1  0
 15 16  2  0
 10 17  1  0
 17 18  2  0
 18 19  1  0
 19 20  1  0
 20 21  1  0
 21 22  2  0
 21 23  1  0
 23 24  1  0
 24 25  2  0
 25 26  1  0
 26 27  2  0
 27 28  1  0
 28 29  2  0
 18  3  1  0
 29 24  1  0
 16 11  1  0
  9 30  1  0
 12 31  1  0
 13 32  1  0
 14 33  1  0
 15 34  1  0
 16 35  1  0
 20 36  1  0
 20 37  1  0
 23 38  1  0
 25 39  1  0
 26 40  1  0
 27 41  1  0
 28 42  1  0
 29 43  1  0
M  END
>  <Binding energies>  (1) 
[-9.3]

>  <Ligand effiencies>  (1) 
[-0.31]

>  <Interactions>  (1) 
["V-A:TYR:484:CB:4339, V-A:HIS:456:CD2:4066, V-A:TYR:484:CG:4340, V-B:GLU:543:CA:9876, V-B:LYS:547:CE:9922, V-B:GLU:543:C:9874, V-B:GLY:544:CA:9886, V-B:HIS:456:CG:9038, H-B:LYS:547:NZ:9923, V-B:LYS:471:CE:9192, V-B:VAL:457:C:9045, V-B:VAL:458:CG2:9059, H-A:LYS:547:NZ:4949, V-B:HIS:456:CB:9037, V-B:HIS:456:CA:9035, V-B:HIS:456:C:9033, V-B:VAL:457:CA:9047, V-B:HIS:456:CD2:9040, V-B:GLY:544:C:9884, V-B:LYS:471:CG:9190, V-B:LYS:471:CD:9191, V-A:LYS:471:CD:4217, V-A:HIS:456:CB:4063, V-A:LYS:547:CE:4948, V-A:ASP:473:CG:4238, V-A:HIS:456:CG:4064, V-A:HIS:456:C:4059, V-A:VAL:457:C:4071, V-A:LYS:471:CG:4216, V-A:HIS:456:CA:4061, V-A:VAL:458:CG2:4085, V-A:LYS:471:CE:4218, V-A:LYS:547:CD:4947, H-B:GLY:544:O:9885, V-B:ASP:473:CG:9212, V-A:ASP:473:CB:4237, V-A:VAL:457:CA:4073"]

$$$$
3af_Grossjean_2025
     RDKit          3D

 42 44  0  0  0  0  0  0  0  0999 V2000
  133.7440  127.3140   74.2640 N   0  0  0  0  0  0  0  0  0  0  0  0
  133.0070  126.4370   74.0970 C   0  0  0  0  0  0  0  0  0  0  0  0
  132.0750  125.3260   73.8860 C   0  0  0  0  0  0  0  0  0  0  0  0
  132.3070  124.0650   74.4870 C   0  0  0  0  0  0  0  0  0  0  0  0
  133.5010  123.7960   75.4230 C   0  0  0  0  0  0  0  0  0  0  0  0
  134.6350  124.3500   74.9890 F   0  0  0  0  0  0  0  0  0  0  0  0
  133.2500  124.2920   76.6360 F   0  0  0  0  0  0  0  0  0  0  0  0
  133.7150  122.4840   75.5270 F   0  0  0  0  0  0  0  0  0  0  0  0
  131.4150  123.0170   74.2120 C   0  0  0  0  0  0  0  0  0  0  0  0
  130.3250  123.2220   73.3590 C   0  0  0  0  0  0  0  0  0  0  0  0
  129.3540  122.1320   73.0160 C   0  0  0  0  0  0  0  0  0  0  0  0
  128.7380  121.3750   74.0260 C   0  0  0  0  0  0  0  0  0  0  0  0
  127.8330  120.3650   73.7130 C   0  0  0  0  0  0  0  0  0  0  0  0
  127.5300  120.0970   72.3830 C   0  0  0  0  0  0  0  0  0  0  0  0
  128.1240  120.8340   71.3630 C   0  0  0  0  0  0  0  0  0  0  0  0
  129.0280  121.8440   71.6800 C   0  0  0  0  0  0  0  0  0  0  0  0
  130.1090  124.4310   72.7820 N   0  0  0  0  0  0  0  0  0  0  0  0
  130.9430  125.4650   73.0510 C   0  0  0  0  0  0  0  0  0  0  0  0
  130.4900  126.9720   72.2160 S   0  0  0  0  0  0  0  0  0  0  0  0
  128.6750  127.0710   72.1800 C   0  0  0  0  0  0  0  0  0  0  0  0
  128.1590  128.3220   72.8900 C   0  0  0  0  0  0  0  0  0  0  0  0
  128.8510  129.3400   72.8870 O   0  0  0  0  0  0  0  0  0  0  0  0
  126.9520  128.1940   73.4830 N   0  0  0  0  0  0  0  0  0  0  0  0
  126.2080  129.1390   74.2160 C   0  0  0  0  0  0  0  0  0  0  0  0
  126.6710  130.3950   74.6460 C   0  0  0  0  0  0  0  0  0  0  0  0
  125.8220  131.2340   75.3710 C   0  0  0  0  0  0  0  0  0  0  0  0
  124.5270  130.7960   75.6490 C   0  0  0  0  0  0  0  0  0  0  0  0
  124.0560  129.5900   75.2460 N   0  0  0  0  0  0  0  0  0  0  0  0
  124.8940  128.7860   74.5430 C   0  0  0  0  0  0  0  0  0  0  0  0
  131.5736  122.0293   74.6694 H   0  0  0  0  0  0  0  0  0  0  0  0
  128.9743  121.5834   75.0799 H   0  0  0  0  0  0  0  0  0  0  0  0
  127.3590  119.7807   74.5154 H   0  0  0  0  0  0  0  0  0  0  0  0
  126.8163  119.2974   72.1354 H   0  0  0  0  0  0  0  0  0  0  0  0
  127.8805  120.6196   70.3119 H   0  0  0  0  0  0  0  0  0  0  0  0
  129.4946  122.4260   70.8716 H   0  0  0  0  0  0  0  0  0  0  0  0
  128.3406  127.0932   71.1323 H   0  0  0  0  0  0  0  0  0  0  0  0
  128.2748  126.1911   72.7051 H   0  0  0  0  0  0  0  0  0  0  0  0
  126.5040  127.2950   73.3900 H   0  0  0  0  0  0  0  0  0  0  0  0
  127.6971  130.7153   74.4125 H   0  0  0  0  0  0  0  0  0  0  0  0
  126.1673  132.2199   75.7157 H   0  0  0  0  0  0  0  0  0  0  0  0
  123.8590  131.4577   76.2199 H   0  0  0  0  0  0  0  0  0  0  0  0
  124.5204  127.8054   74.2130 H   0  0  0  0  0  0  0  0  0  0  0  0
  1  2  3  0
  2  3  1  0
  3  4  2  0
  4  5  1  0
  5  6  1  0
  5  7  1  0
  5  8  1  0
  4  9  1  0
  9 10  2  0
 10 11  1  0
 11 12  2  0
 12 13  1  0
 13 14  2  0
 14 15  1  0
 15 16  2  0
 10 17  1  0
 17 18  2  0
 18 19  1  0
 19 20  1  0
 20 21  1  0
 21 22  2  0
 21 23  1  0
 23 24  1  0
 24 25  2  0
 25 26  1  0
 26 27  2  0
 27 28  1  0
 28 29  2  0
 18  3  1  0
 29 24  1  0
 16 11  1  0
  9 30  1  0
 12 31  1  0
 13 32  1  0
 14 33  1  0
 15 34  1  0
 16 35  1  0
 20 36  1  0
 20 37  1  0
 23 38  1  0
 25 39  1  0
 26 40  1  0
 27 41  1  0
 29 42  1  0
M  END
>  <Binding energies>  (1) 
[-9.08]

>  <Ligand effiencies>  (1) 
[-0.3026666666666667]

>  <Interactions>  (1) 
["V-A:TYR:484:CB:4339, V-A:HIS:456:CD2:4066, V-A:TYR:484:CG:4340, V-A:TYR:484:CD1:4341, V-B:GLU:543:CA:9876, V-B:LYS:547:CE:9922, V-B:GLU:543:C:9874, V-B:GLY:544:CA:9886, V-B:HIS:456:CG:9038, H-B:LYS:547:NZ:9923, V-B:LYS:471:CE:9192, H-B:VAL:457:N:9048, V-B:VAL:458:CG2:9059, H-A:LYS:547:NZ:4949, V-B:HIS:456:CB:9037, V-B:HIS:456:CA:9035, V-B:HIS:456:C:9033, V-B:HIS:456:CD2:9040, V-B:GLY:544:C:9884, V-B:LYS:471:CG:9190, V-B:LYS:471:CD:9191, V-A:LYS:471:CD:4217, V-A:HIS:456:CB:4063, V-A:LYS:547:CE:4948, V-A:ASP:473:CG:4238, V-A:HIS:456:CG:4064, V-A:HIS:456:C:4059, V-A:VAL:457:C:4071, V-A:LYS:471:CG:4216, V-A:HIS:456:CA:4061, V-A:VAL:458:CG2:4085, V-A:LYS:471:CE:4218, V-A:LYS:547:CD:4947, H-B:GLY:544:O:9885, V-B:ASP:473:CG:9212, V-A:ASP:473:CB:4237, V-A:VAL:457:CA:4073"]

$$$$
3ag_Grossjean_2025
     RDKit          3D

 46 48  0  0  0  0  0  0  0  0999 V2000
  134.0960  122.7080   75.5980 N   0  0  0  0  0  0  0  0  0  0  0  0
  133.3490  123.3760   75.0180 C   0  0  0  0  0  0  0  0  0  0  0  0
  132.4060  124.2250   74.2840 C   0  0  0  0  0  0  0  0  0  0  0  0
  132.7540  125.5500   73.9240 C   0  0  0  0  0  0  0  0  0  0  0  0
  134.1400  126.1560   74.2210 C   0  0  0  0  0  0  0  0  0  0  0  0
  134.9700  125.2890   74.8040 F   0  0  0  0  0  0  0  0  0  0  0  0
  134.7110  126.5590   73.0860 F   0  0  0  0  0  0  0  0  0  0  0  0
  134.0170  127.2020   75.0390 F   0  0  0  0  0  0  0  0  0  0  0  0
  131.7980  126.3400   73.2690 C   0  0  0  0  0  0  0  0  0  0  0  0
  130.5260  125.8270   72.9920 C   0  0  0  0  0  0  0  0  0  0  0  0
  129.4660  126.6270   72.2980 C   0  0  0  0  0  0  0  0  0  0  0  0
  128.5250  127.3630   73.0360 C   0  0  0  0  0  0  0  0  0  0  0  0
  127.5370  128.1080   72.3970 C   0  0  0  0  0  0  0  0  0  0  0  0
  127.4770  128.1270   71.0070 C   0  0  0  0  0  0  0  0  0  0  0  0
  128.3960  127.4040   70.2530 C   0  0  0  0  0  0  0  0  0  0  0  0
  129.3810  126.6590   70.8950 C   0  0  0  0  0  0  0  0  0  0  0  0
  130.2000  124.5520   73.3280 N   0  0  0  0  0  0  0  0  0  0  0  0
  131.1150  123.7640   73.9430 C   0  0  0  0  0  0  0  0  0  0  0  0
  130.5160  122.1280   74.3040 S   0  0  0  0  0  0  0  0  0  0  0  0
  130.4380  121.2210   72.7310 C   0  0  0  0  0  0  0  0  0  0  0  0
  129.0770  121.3660   72.0470 C   0  0  0  0  0  0  0  0  0  0  0  0
  128.7350  122.4560   71.5850 O   0  0  0  0  0  0  0  0  0  0  0  0
  128.3180  120.2580   71.9860 N   0  0  0  0  0  0  0  0  0  0  0  0
  127.0050  120.1630   71.3500 C   0  0  0  0  0  0  0  0  0  0  0  0
  125.8340  120.3480   72.3090 C   0  0  0  0  0  0  0  0  0  0  0  0
  124.5310  120.0940   71.8710 C   0  0  0  0  0  0  0  0  0  0  0  0
  123.4620  120.2320   72.7520 C   0  0  0  0  0  0  0  0  0  0  0  0
  123.7000  120.6150   74.0710 C   0  0  0  0  0  0  0  0  0  0  0  0
  124.9970  120.8560   74.5180 C   0  0  0  0  0  0  0  0  0  0  0  0
  126.0660  120.7170   73.6370 C   0  0  0  0  0  0  0  0  0  0  0  0
  132.0496  127.3687   72.9714 H   0  0  0  0  0  0  0  0  0  0  0  0
  128.5689  127.3509   74.1351 H   0  0  0  0  0  0  0  0  0  0  0  0
  126.8068  128.6793   72.9889 H   0  0  0  0  0  0  0  0  0  0  0  0
  126.6985  128.7171   70.5013 H   0  0  0  0  0  0  0  0  0  0  0  0
  128.3444  127.4211   69.1543 H   0  0  0  0  0  0  0  0  0  0  0  0
  130.1040  126.0865   70.2955 H   0  0  0  0  0  0  0  0  0  0  0  0
  131.2159  121.6111   72.0582 H   0  0  0  0  0  0  0  0  0  0  0  0
  130.5948  120.1541   72.9483 H   0  0  0  0  0  0  0  0  0  0  0  0
  128.6810  119.4040   72.3840 H   0  0  0  0  0  0  0  0  0  0  0  0
  126.9408  120.9386   70.5726 H   0  0  0  0  0  0  0  0  0  0  0  0
  126.9231  119.1448   70.9419 H   0  0  0  0  0  0  0  0  0  0  0  0
  124.3505  119.7853   70.8308 H   0  0  0  0  0  0  0  0  0  0  0  0
  122.4347  120.0398   72.4090 H   0  0  0  0  0  0  0  0  0  0  0  0
  122.8549  120.7281   74.7660 H   0  0  0  0  0  0  0  0  0  0  0  0
  125.1757  121.1546   75.5615 H   0  0  0  0  0  0  0  0  0  0  0  0
  127.0934  120.8976   73.9861 H   0  0  0  0  0  0  0  0  0  0  0  0
  1  2  3  0
  2  3  1  0
  3  4  2  0
  4  5  1  0
  5  6  1  0
  5  7  1  0
  5  8  1  0
  4  9  1  0
  9 10  2  0
 10 11  1  0
 11 12  2  0
 12 13  1  0
 13 14  2  0
 14 15  1  0
 15 16  2  0
 10 17  1  0
 17 18  2  0
 18 19  1  0
 19 20  1  0
 20 21  1  0
 21 22  2  0
 21 23  1  0
 23 24  1  0
 24 25  1  0
 25 26  2  0
 26 27  1  0
 27 28  2  0
 28 29  1  0
 29 30  2  0
 18  3  1  0
 30 25  1  0
 16 11  1  0
  9 31  1  0
 12 32  1  0
 13 33  1  0
 14 34  1  0
 15 35  1  0
 16 36  1  0
 20 37  1  0
 20 38  1  0
 23 39  1  0
 24 40  1  0
 24 41  1  0
 26 42  1  0
 27 43  1  0
 28 44  1  0
 29 45  1  0
 30 46  1  0
M  END
>  <Binding energies>  (1) 
[-7.98]

>  <Ligand effiencies>  (1) 
[-0.2574193548387097]

>  <Interactions>  (1) 
["V-A:HIS:456:CE1:4068, V-A:TYR:484:CB:4339, V-A:HIS:456:CD2:4066, V-A:TYR:484:CG:4340, V-B:LYS:547:CA:9917, V-B:LYS:547:CE:9922, V-B:ILE:546:C:9906, V-B:LYS:547:CG:9920, V-B:GLY:544:CA:9886, V-B:VAL:542:CG1:9871, V-B:HIS:456:CE1:9042, V-B:HIS:456:CG:9038, H-B:LYS:547:NZ:9923, V-A:GLY:544:C:4910, V-B:HIS:456:CD2:9040, V-B:GLY:544:C:9884, V-A:LYS:471:CD:4217, V-A:HIS:456:CB:4063, V-A:LYS:547:CE:4948, V-A:ASP:473:CG:4238, V-A:HIS:456:CG:4064, V-A:HIS:456:C:4059, V-A:VAL:457:C:4071, V-A:LYS:471:CG:4216, V-A:HIS:456:CA:4061, V-A:VAL:458:CG2:4085, V-A:LYS:471:CE:4218, V-A:LYS:547:CD:4947, V-A:LYS:547:CG:4946, H-B:GLY:544:N:9887, H-A:TYR:484:O:4336, V-A:LYS:547:CB:4945, V-A:ARG:545:C:4915, V-A:ARG:545:CA:4917, V-A:ASP:473:CB:4237, V-A:VAL:457:CA:4073, V-A:VAL:458:CB:4083, V-A:VAL:458:CA:4081"]

$$$$
3ai_Grossjean_2025
     RDKit          3D

 39 41  0  0  0  0  0  0  0  0999 V2000
  133.8580  127.3790   74.4530 N   0  0  0  0  0  0  0  0  0  0  0  0
  133.1380  126.4940   74.2600 C   0  0  0  0  0  0  0  0  0  0  0  0
  132.2260  125.3730   74.0180 C   0  0  0  0  0  0  0  0  0  0  0  0
  132.5380  124.0720   74.4850 C   0  0  0  0  0  0  0  0  0  0  0  0
  133.8070  123.7640   75.3020 C   0  0  0  0  0  0  0  0  0  0  0  0
  134.8630  124.4800   74.9080 F   0  0  0  0  0  0  0  0  0  0  0  0
  133.5950  124.0350   76.5910 F   0  0  0  0  0  0  0  0  0  0  0  0
  134.1320  122.4770   75.1780 F   0  0  0  0  0  0  0  0  0  0  0  0
  131.6560  123.0230   74.1850 C   0  0  0  0  0  0  0  0  0  0  0  0
  130.4970  123.2630   73.4390 C   0  0  0  0  0  0  0  0  0  0  0  0
  129.5260  122.1790   73.0810 C   0  0  0  0  0  0  0  0  0  0  0  0
  129.0520  122.0480   71.7650 C   0  0  0  0  0  0  0  0  0  0  0  0
  128.1530  121.0410   71.4240 C   0  0  0  0  0  0  0  0  0  0  0  0
  127.7170  120.1470   72.3970 C   0  0  0  0  0  0  0  0  0  0  0  0
  128.1740  120.2530   73.7060 C   0  0  0  0  0  0  0  0  0  0  0  0
  129.0730  121.2620   74.0440 C   0  0  0  0  0  0  0  0  0  0  0  0
  130.2070  124.5100   72.9860 N   0  0  0  0  0  0  0  0  0  0  0  0
  131.0310  125.5440   73.2830 C   0  0  0  0  0  0  0  0  0  0  0  0
  130.4770  127.1030   72.6260 S   0  0  0  0  0  0  0  0  0  0  0  0
  128.6590  127.0370   72.4850 C   0  0  0  0  0  0  0  0  0  0  0  0
  127.9140  128.2110   73.1390 C   0  0  0  0  0  0  0  0  0  0  0  0
  128.3790  129.3530   73.0990 O   0  0  0  0  0  0  0  0  0  0  0  0
  126.7500  127.8760   73.7380 N   0  0  0  0  0  0  0  0  0  0  0  0
  125.8700  128.7240   74.3990 C   0  0  0  0  0  0  0  0  0  0  0  0
  126.2780  129.8790   75.0630 C   0  0  0  0  0  0  0  0  0  0  0  0
  125.1250  130.4240   75.5780 C   0  0  0  0  0  0  0  0  0  0  0  0
  124.0750  129.6390   75.2400 O   0  0  0  0  0  0  0  0  0  0  0  0
  124.5600  128.5640   74.4920 N   0  0  0  0  0  0  0  0  0  0  0  0
  131.8772  122.0051   74.5386 H   0  0  0  0  0  0  0  0  0  0  0  0
  129.3962  122.7514   70.9925 H   0  0  0  0  0  0  0  0  0  0  0  0
  127.7890  120.9525   70.3898 H   0  0  0  0  0  0  0  0  0  0  0  0
  127.0063  119.3513   72.1290 H   0  0  0  0  0  0  0  0  0  0  0  0
  127.8271  119.5431   74.4713 H   0  0  0  0  0  0  0  0  0  0  0  0
  129.4335  121.3419   75.0802 H   0  0  0  0  0  0  0  0  0  0  0  0
  128.4000  127.0215   71.4160 H   0  0  0  0  0  0  0  0  0  0  0  0
  128.3414  126.1325   73.0245 H   0  0  0  0  0  0  0  0  0  0  0  0
  126.4750  126.9050   73.7060 H   0  0  0  0  0  0  0  0  0  0  0  0
  127.3018  130.2706   75.1554 H   0  0  0  0  0  0  0  0  0  0  0  0
  125.0655  131.3494   76.1697 H   0  0  0  0  0  0  0  0  0  0  0  0
  1  2  3  0
  2  3  1  0
  3  4  2  0
  4  5  1  0
  5  6  1  0
  5  7  1  0
  5  8  1  0
  4  9  1  0
  9 10  2  0
 10 11  1  0
 11 12  2  0
 12 13  1  0
 13 14  2  0
 14 15  1  0
 15 16  2  0
 10 17  1  0
 17 18  2  0
 18 19  1  0
 19 20  1  0
 20 21  1  0
 21 22  2  0
 21 23  1  0
 23 24  1  0
 24 25  1  0
 25 26  2  0
 26 27  1  0
 27 28  1  0
 18  3  1  0
 28 24  2  0
 16 11  1  0
  9 29  1  0
 12 30  1  0
 13 31  1  0
 14 32  1  0
 15 33  1  0
 16 34  1  0
 20 35  1  0
 20 36  1  0
 23 37  1  0
 25 38  1  0
 26 39  1  0
M  END
>  <Binding energies>  (1) 
[-8.76]

>  <Ligand effiencies>  (1) 
[-0.3020689655172414]

>  <Interactions>  (1) 
["V-A:TYR:484:CB:4339, V-A:HIS:456:CD2:4066, V-A:TYR:484:CG:4340, V-A:TYR:484:CD1:4341, V-B:GLU:543:CA:9876, V-B:LYS:547:CE:9922, V-B:GLU:543:C:9874, V-B:GLY:544:CA:9886, H-B:LYS:547:NZ:9923, V-B:LYS:471:CE:9192, H-B:VAL:457:N:9048, V-B:VAL:458:CG2:9059, H-A:LYS:547:NZ:4949, V-B:HIS:456:CB:9037, V-B:HIS:456:C:9033, V-B:HIS:456:CD2:9040, V-B:GLY:544:C:9884, V-A:LYS:471:CD:4217, V-A:HIS:456:CB:4063, V-A:LYS:547:CE:4948, V-A:ASP:473:CG:4238, V-A:HIS:456:CG:4064, V-A:HIS:456:C:4059, V-A:VAL:457:C:4071, V-A:LYS:471:CG:4216, V-A:LYS:471:CB:4215, V-A:HIS:456:CA:4061, V-A:VAL:458:CG2:4085, V-A:LYS:471:CE:4218, V-A:LYS:547:CD:4947, H-B:GLY:544:O:9885, V-A:LYS:547:CG:4946, V-B:LYS:547:CD:9921, V-A:ASP:473:CB:4237, V-A:VAL:457:CA:4073"]

$$$$
3aj_Grossjean_2025
     RDKit          3D

 39 41  0  0  0  0  0  0  0  0999 V2000
  133.7370  127.3480   74.2750 N   0  0  0  0  0  0  0  0  0  0  0  0
  133.0030  126.4700   74.1030 C   0  0  0  0  0  0  0  0  0  0  0  0
  132.0740  125.3570   73.8860 C   0  0  0  0  0  0  0  0  0  0  0  0
  132.3030  124.0960   74.4890 C   0  0  0  0  0  0  0  0  0  0  0  0
  133.4940  123.8270   75.4290 C   0  0  0  0  0  0  0  0  0  0  0  0
  134.6280  124.3850   74.9990 F   0  0  0  0  0  0  0  0  0  0  0  0
  133.2380  124.3180   76.6420 F   0  0  0  0  0  0  0  0  0  0  0  0
  133.7080  122.5150   75.5310 F   0  0  0  0  0  0  0  0  0  0  0  0
  131.4100  123.0490   74.2120 C   0  0  0  0  0  0  0  0  0  0  0  0
  130.3240  123.2540   73.3550 C   0  0  0  0  0  0  0  0  0  0  0  0
  129.3470  122.1690   73.0180 C   0  0  0  0  0  0  0  0  0  0  0  0
  129.0290  121.8820   71.6810 C   0  0  0  0  0  0  0  0  0  0  0  0
  128.1240  120.8720   71.3600 C   0  0  0  0  0  0  0  0  0  0  0  0
  127.5240  120.1350   72.3760 C   0  0  0  0  0  0  0  0  0  0  0  0
  127.8240  120.3990   73.7090 C   0  0  0  0  0  0  0  0  0  0  0  0
  128.7290  121.4080   74.0240 C   0  0  0  0  0  0  0  0  0  0  0  0
  130.1130  124.4620   72.7730 N   0  0  0  0  0  0  0  0  0  0  0  0
  130.9470  125.4950   73.0440 C   0  0  0  0  0  0  0  0  0  0  0  0
  130.5020  127.0040   72.2110 S   0  0  0  0  0  0  0  0  0  0  0  0
  128.6830  127.1420   72.2390 C   0  0  0  0  0  0  0  0  0  0  0  0
  128.1350  128.3630   72.9920 C   0  0  0  0  0  0  0  0  0  0  0  0
  128.7440  129.4360   72.9830 O   0  0  0  0  0  0  0  0  0  0  0  0
  126.9670  128.1500   73.6380 N   0  0  0  0  0  0  0  0  0  0  0  0
  126.2520  129.0770   74.3850 C   0  0  0  0  0  0  0  0  0  0  0  0
  126.6810  130.2180   74.8810 N   0  0  0  0  0  0  0  0  0  0  0  0
  125.7280  130.8510   75.5370 C   0  0  0  0  0  0  0  0  0  0  0  0
  124.4890  130.2180   75.5840 C   0  0  0  0  0  0  0  0  0  0  0  0
  124.5900  128.7140   74.7200 S   0  0  0  0  0  0  0  0  0  0  0  0
  131.5653  122.0617   74.6716 H   0  0  0  0  0  0  0  0  0  0  0  0
  129.5011  122.4629   70.8750 H   0  0  0  0  0  0  0  0  0  0  0  0
  127.8851  120.6584   70.3077 H   0  0  0  0  0  0  0  0  0  0  0  0
  126.8081  119.3387   72.1241 H   0  0  0  0  0  0  0  0  0  0  0  0
  127.3483  119.8132   74.5094 H   0  0  0  0  0  0  0  0  0  0  0  0
  128.9644  121.6132   75.0787 H   0  0  0  0  0  0  0  0  0  0  0  0
  128.3291  127.1957   71.1989 H   0  0  0  0  0  0  0  0  0  0  0  0
  128.3165  126.2575   72.7807 H   0  0  0  0  0  0  0  0  0  0  0  0
  126.5570  127.2310   73.5700 H   0  0  0  0  0  0  0  0  0  0  0  0
  125.9022  131.8240   76.0197 H   0  0  0  0  0  0  0  0  0  0  0  0
  123.5913  130.6071   76.0868 H   0  0  0  0  0  0  0  0  0  0  0  0
  1  2  3  0
  2  3  1  0
  3  4  2  0
  4  5  1  0
  5  6  1  0
  5  7  1  0
  5  8  1  0
  4  9  1  0
  9 10  2  0
 10 11  1  0
 11 12  2  0
 12 13  1  0
 13 14  2  0
 14 15  1  0
 15 16  2  0
 10 17  1  0
 17 18  2  0
 18 19  1  0
 19 20  1  0
 20 21  1  0
 21 22  2  0
 21 23  1  0
 23 24  1  0
 24 25  2  0
 25 26  1  0
 26 27  2  0
 27 28  1  0
 18  3  1  0
 28 24  1  0
 16 11  1  0
  9 29  1  0
 12 30  1  0
 13 31  1  0
 14 32  1  0
 15 33  1  0
 16 34  1  0
 20 35  1  0
 20 36  1  0
 23 37  1  0
 26 38  1  0
 27 39  1  0
M  END
>  <Binding energies>  (1) 
[-8.93]

>  <Ligand effiencies>  (1) 
[-0.3079310344827586]

>  <Interactions>  (1) 
["V-A:TYR:484:CB:4339, V-A:HIS:456:CD2:4066, V-A:TYR:484:CG:4340, V-A:TYR:484:CD1:4341, V-B:GLU:543:CA:9876, V-B:LYS:547:CE:9922, V-B:GLU:543:C:9874, V-B:GLY:544:CA:9886, V-B:HIS:456:CG:9038, H-B:LYS:547:NZ:9923, V-B:LYS:471:CE:9192, V-B:VAL:457:C:9045, V-B:VAL:458:CG2:9059, H-A:LYS:547:NZ:4949, V-B:HIS:456:CB:9037, V-B:HIS:456:CA:9035, V-B:HIS:456:C:9033, V-B:HIS:456:CD2:9040, V-B:GLY:544:C:9884, V-B:LYS:471:CD:9191, V-A:LYS:471:CD:4217, V-A:HIS:456:CB:4063, V-A:LYS:547:CE:4948, V-A:ASP:473:CG:4238, V-A:HIS:456:CG:4064, V-A:HIS:456:C:4059, V-A:VAL:457:C:4071, V-A:LYS:471:CG:4216, V-A:HIS:456:CA:4061, V-A:VAL:458:CG2:4085, V-A:LYS:471:CE:4218, V-A:LYS:547:CD:4947, H-B:GLY:544:O:9885, V-A:ASP:473:CB:4237, V-A:VAL:457:CA:4073"]

$$$$
3ak_Grossjean_2025
     RDKit          3D

 57 58  0  0  0  0  0  0  0  0999 V2000
  126.3780  133.0010   62.9810 C   0  0  0  0  0  0  0  0  0  0  0  0
  124.9880  132.7150   62.9680 O   0  0  0  0  0  0  0  0  0  0  0  0
  124.6260  131.7150   62.0260 C   0  0  0  0  0  0  0  0  0  0  0  0
  124.0370  130.5130   62.7740 C   0  0  0  0  0  0  0  0  0  0  0  0
  124.4800  130.5480   64.1260 O   0  0  0  0  0  0  0  0  0  0  0  0
  125.8040  130.0710   64.3510 C   0  0  0  0  0  0  0  0  0  0  0  0
  125.9530  129.2380   65.6380 C   0  0  0  0  0  0  0  0  0  0  0  0
  127.2900  128.7660   65.7370 O   0  0  0  0  0  0  0  0  0  0  0  0
  127.8780  128.9680   67.0160 C   0  0  0  0  0  0  0  0  0  0  0  0
  128.7130  127.7380   67.4160 C   0  0  0  0  0  0  0  0  0  0  0  0
  128.5620  127.3600   68.8220 N   0  0  0  0  0  0  0  0  0  0  0  0
  129.5600  127.2250   69.7160 C   0  0  0  0  0  0  0  0  0  0  0  0
  130.7410  127.4320   69.4330 O   0  0  0  0  0  0  0  0  0  0  0  0
  129.2160  126.7960   71.1520 C   0  0  0  0  0  0  0  0  0  0  0  0
  130.5030  127.0830   72.4220 S   0  0  0  0  0  0  0  0  0  0  0  0
  130.9680  125.5120   73.1330 C   0  0  0  0  0  0  0  0  0  0  0  0
  130.1240  124.4810   72.8800 N   0  0  0  0  0  0  0  0  0  0  0  0
  130.3880  123.2490   73.3820 C   0  0  0  0  0  0  0  0  0  0  0  0
  129.4030  122.1670   73.0520 C   0  0  0  0  0  0  0  0  0  0  0  0
  128.8500  121.3660   74.0630 C   0  0  0  0  0  0  0  0  0  0  0  0
  127.9320  120.3640   73.7620 C   0  0  0  0  0  0  0  0  0  0  0  0
  127.5520  120.1490   72.4410 C   0  0  0  0  0  0  0  0  0  0  0  0
  128.0820  120.9300   71.4210 C   0  0  0  0  0  0  0  0  0  0  0  0
  129.0000  121.9330   71.7250 C   0  0  0  0  0  0  0  0  0  0  0  0
  131.5350  123.0180   74.1500 C   0  0  0  0  0  0  0  0  0  0  0  0
  132.4250  124.0660   74.4260 C   0  0  0  0  0  0  0  0  0  0  0  0
  133.6760  123.7740   75.2780 C   0  0  0  0  0  0  0  0  0  0  0  0
  134.0270  122.4950   75.1500 F   0  0  0  0  0  0  0  0  0  0  0  0
  134.6900  124.5430   74.8790 F   0  0  0  0  0  0  0  0  0  0  0  0
  133.4840  124.0100   76.5780 F   0  0  0  0  0  0  0  0  0  0  0  0
  132.1380  125.3520   73.9070 C   0  0  0  0  0  0  0  0  0  0  0  0
  133.0320  126.4850   74.1640 C   0  0  0  0  0  0  0  0  0  0  0  0
  133.7380  127.3810   74.3670 N   0  0  0  0  0  0  0  0  0  0  0  0
  126.7278  133.0730   64.0214 H   0  0  0  0  0  0  0  0  0  0  0  0
  126.9228  132.1961   62.4658 H   0  0  0  0  0  0  0  0  0  0  0  0
  126.5608  133.9556   62.4658 H   0  0  0  0  0  0  0  0  0  0  0  0
  123.8767  132.1189   61.3293 H   0  0  0  0  0  0  0  0  0  0  0  0
  125.5144  131.4003   61.4588 H   0  0  0  0  0  0  0  0  0  0  0  0
  122.9385  130.5619   62.7442 H   0  0  0  0  0  0  0  0  0  0  0  0
  124.3691  129.5788   62.2975 H   0  0  0  0  0  0  0  0  0  0  0  0
  126.0970  129.4441   63.4960 H   0  0  0  0  0  0  0  0  0  0  0  0
  126.4487  130.9550   64.4645 H   0  0  0  0  0  0  0  0  0  0  0  0
  125.7185  129.8647   66.5111 H   0  0  0  0  0  0  0  0  0  0  0  0
  125.2608  128.3837   65.6075 H   0  0  0  0  0  0  0  0  0  0  0  0
  128.5292  129.8538   66.9810 H   0  0  0  0  0  0  0  0  0  0  0  0
  127.0805  129.1181   67.7586 H   0  0  0  0  0  0  0  0  0  0  0  0
  128.4010  126.8877   66.7917 H   0  0  0  0  0  0  0  0  0  0  0  0
  129.7700  128.0022   67.2644 H   0  0  0  0  0  0  0  0  0  0  0  0
  127.6170  127.1920   69.1370 H   0  0  0  0  0  0  0  0  0  0  0  0
  128.3152  127.3478   71.4587 H   0  0  0  0  0  0  0  0  0  0  0  0
  129.0905  125.7041   71.1070 H   0  0  0  0  0  0  0  0  0  0  0  0
  129.1465  121.5326   75.1091 H   0  0  0  0  0  0  0  0  0  0  0  0
  127.5083  119.7441   74.5659 H   0  0  0  0  0  0  0  0  0  0  0  0
  126.8278  119.3561   72.2025 H   0  0  0  0  0  0  0  0  0  0  0  0
  127.7780  120.7570   70.3781 H   0  0  0  0  0  0  0  0  0  0  0  0
  129.4156  122.5509   70.9154 H   0  0  0  0  0  0  0  0  0  0  0  0
  131.7394  122.0096   74.5390 H   0  0  0  0  0  0  0  0  0  0  0  0
  1  2  1  0
  2  3  1  0
  3  4  1  0
  4  5  1  0
  5  6  1  0
  6  7  1  0
  7  8  1  0
  8  9  1  0
  9 10  1  0
 10 11  1  0
 11 12  1  0
 12 13  2  0
 12 14  1  0
 14 15  1  0
 15 16  1  0
 16 17  2  0
 17 18  1  0
 18 19  1  0
 19 20  2  0
 20 21  1  0
 21 22  2  0
 22 23  1  0
 23 24  2  0
 18 25  2  0
 25 26  1  0
 26 27  1  0
 27 28  1  0
 27 29  1  0
 27 30  1  0
 26 31  2  0
 31 32  1  0
 32 33  3  0
 31 16  1  0
 24 19  1  0
  1 34  1  0
  1 35  1  0
  1 36  1  0
  3 37  1  0
  3 38  1  0
  4 39  1  0
  4 40  1  0
  6 41  1  0
  6 42  1  0
  7 43  1  0
  7 44  1  0
  9 45  1  0
  9 46  1  0
 10 47  1  0
 10 48  1  0
 11 49  1  0
 14 50  1  0
 14 51  1  0
 20 52  1  0
 21 53  1  0
 22 54  1  0
 23 55  1  0
 24 56  1  0
 25 57  1  0
M  END
>  <Binding energies>  (1) 
[-7.34]

>  <Ligand effiencies>  (1) 
[-0.21588235294117647]

>  <Interactions>  (1) 
["V-A:GLU:543:CD:4906, V-B:GLU:543:CG:9879, V-A:HIS:456:CE1:4068, V-B:GLU:543:CD:9880, V-A:TYR:484:CB:4339, V-A:HIS:456:CD2:4066, V-A:TYR:484:CG:4340, V-A:TYR:484:CD1:4341, V-B:GLU:543:CA:9876, V-B:LYS:547:CE:9922, V-B:GLU:543:C:9874, V-B:GLY:544:CA:9886, V-B:LEU:475:CD2:9231, V-A:ALA:541:CB:4890, H-B:GLY:454:N:9022, H-B:TYR:484:OH:9320, V-B:ARG:545:CZ:9898, V-A:GLU:543:CB:4904, V-B:HIS:456:CE1:9042, V-B:ARG:545:CG:9894, V-A:GLU:543:CG:4905, H-B:LYS:547:NZ:9923, H-B:GLU:543:O:9875, V-A:LYS:471:CD:4217, V-A:HIS:456:CB:4063, V-A:LYS:547:CE:4948, V-A:ASP:473:CG:4238, V-A:HIS:456:CG:4064, V-A:HIS:456:C:4059, V-A:VAL:457:C:4071, V-A:LYS:471:CG:4216, V-A:LYS:471:CB:4215, V-A:HIS:456:CA:4061, V-A:VAL:458:CG2:4085, H-B:HIS:456:NE2:9043, V-A:LYS:471:CE:4218, V-A:LYS:547:CD:4947, V-B:GLY:453:CA:9016, V-B:ARG:545:CD:9895, V-A:LYS:547:CG:4946, H-A:ARG:545:N:4918, V-A:ASP:473:CB:4237, V-A:VAL:457:CA:4073"]

$$$$
3bc_Grossjean_2025
     RDKit          3D

 47 49  0  0  0  0  0  0  0  0999 V2000
  123.8970  132.4860   76.0050 C   0  0  0  0  0  0  0  0  0  0  0  0
  124.0000  131.1270   76.4150 O   0  0  0  0  0  0  0  0  0  0  0  0
  124.7150  130.2400   75.6310 C   0  0  0  0  0  0  0  0  0  0  0  0
  126.1000  130.4060   75.6110 C   0  0  0  0  0  0  0  0  0  0  0  0
  126.9050  129.5610   74.8510 C   0  0  0  0  0  0  0  0  0  0  0  0
  126.3310  128.5400   74.0920 C   0  0  0  0  0  0  0  0  0  0  0  0
  127.2240  127.7290   73.3660 N   0  0  0  0  0  0  0  0  0  0  0  0
  128.3490  128.0800   72.7070 C   0  0  0  0  0  0  0  0  0  0  0  0
  128.8130  129.2210   72.6680 O   0  0  0  0  0  0  0  0  0  0  0  0
  129.0720  126.9180   72.0110 C   0  0  0  0  0  0  0  0  0  0  0  0
  130.8790  126.8690   72.2600 S   0  0  0  0  0  0  0  0  0  0  0  0
  131.2640  125.3850   73.1630 C   0  0  0  0  0  0  0  0  0  0  0  0
  130.3610  124.3900   72.9850 N   0  0  0  0  0  0  0  0  0  0  0  0
  130.5340  123.1990   73.6160 C   0  0  0  0  0  0  0  0  0  0  0  0
  129.4800  122.1580   73.3840 C   0  0  0  0  0  0  0  0  0  0  0  0
  128.9030  121.4690   74.4610 C   0  0  0  0  0  0  0  0  0  0  0  0
  127.9230  120.5010   74.2540 C   0  0  0  0  0  0  0  0  0  0  0  0
  127.5080  120.2080   72.9590 C   0  0  0  0  0  0  0  0  0  0  0  0
  128.0650  120.8740   71.8730 C   0  0  0  0  0  0  0  0  0  0  0  0
  129.0450  121.8400   72.0860 C   0  0  0  0  0  0  0  0  0  0  0  0
  131.6350  122.9810   74.4510 C   0  0  0  0  0  0  0  0  0  0  0  0
  132.5880  123.9900   74.6260 C   0  0  0  0  0  0  0  0  0  0  0  0
  133.7840  123.7030   75.5330 C   0  0  0  0  0  0  0  0  0  0  0  0
  132.4170  125.2250   73.9640 C   0  0  0  0  0  0  0  0  0  0  0  0
  133.4270  126.2780   74.0940 C   0  0  0  0  0  0  0  0  0  0  0  0
  134.2260  127.1080   74.1990 N   0  0  0  0  0  0  0  0  0  0  0  0
  124.9400  128.3580   74.1160 C   0  0  0  0  0  0  0  0  0  0  0  0
  124.1390  129.2050   74.8780 C   0  0  0  0  0  0  0  0  0  0  0  0
  123.8479  133.1340   76.8925 H   0  0  0  0  0  0  0  0  0  0  0  0
  124.7773  132.7550   75.4028 H   0  0  0  0  0  0  0  0  0  0  0  0
  122.9862  132.6193   75.4028 H   0  0  0  0  0  0  0  0  0  0  0  0
  126.5606  131.2120   76.2011 H   0  0  0  0  0  0  0  0  0  0  0  0
  127.9963  129.6987   74.8489 H   0  0  0  0  0  0  0  0  0  0  0  0
  127.0130  126.7420   73.4000 H   0  0  0  0  0  0  0  0  0  0  0  0
  128.6499  125.9767   72.3928 H   0  0  0  0  0  0  0  0  0  0  0  0
  128.9157  127.0629   70.9318 H   0  0  0  0  0  0  0  0  0  0  0  0
  129.2299  121.6969   75.4863 H   0  0  0  0  0  0  0  0  0  0  0  0
  127.4796  119.9711   75.1100 H   0  0  0  0  0  0  0  0  0  0  0  0
  126.7340  119.4443   72.7930 H   0  0  0  0  0  0  0  0  0  0  0  0
  127.7332  120.6390   70.8509 H   0  0  0  0  0  0  0  0  0  0  0  0
  129.4859  122.3627   71.2244 H   0  0  0  0  0  0  0  0  0  0  0  0
  131.7512  122.0177   74.9692 H   0  0  0  0  0  0  0  0  0  0  0  0
  133.4724  123.7778   76.5853 H   0  0  0  0  0  0  0  0  0  0  0  0
  134.1606  122.6890   75.3333 H   0  0  0  0  0  0  0  0  0  0  0  0
  134.5798  124.4357   75.3333 H   0  0  0  0  0  0  0  0  0  0  0  0
  124.4818  127.5458   73.5326 H   0  0  0  0  0  0  0  0  0  0  0  0
  123.0484  129.0620   74.8898 H   0  0  0  0  0  0  0  0  0  0  0  0
  1  2  1  0
  2  3  1  0
  3  4  2  0
  4  5  1  0
  5  6  2  0
  6  7  1  0
  7  8  1  0
  8  9  2  0
  8 10  1  0
 10 11  1  0
 11 12  1  0
 12 13  2  0
 13 14  1  0
 14 15  1  0
 15 16  2  0
 16 17  1  0
 17 18  2  0
 18 19  1  0
 19 20  2  0
 14 21  2  0
 21 22  1  0
 22 23  1  0
 22 24  2  0
 24 25  1  0
 25 26  3  0
  6 27  1  0
 27 28  2  0
 28  3  1  0
 24 12  1  0
 20 15  1  0
  1 29  1  0
  1 30  1  0
  1 31  1  0
  4 32  1  0
  5 33  1  0
  7 34  1  0
 10 35  1  0
 10 36  1  0
 16 37  1  0
 17 38  1  0
 18 39  1  0
 19 40  1  0
 20 41  1  0
 21 42  1  0
 23 43  1  0
 23 44  1  0
 23 45  1  0
 27 46  1  0
 28 47  1  0
M  END
>  <Binding energies>  (1) 
[-8.79]

>  <Ligand effiencies>  (1) 
[-0.30310344827586205]

>  <Interactions>  (1) 
["V-A:TYR:484:CB:4339, V-A:HIS:456:CD2:4066, V-B:LYS:547:CE:9922, V-B:GLU:543:C:9874, V-B:GLY:544:CA:9886, V-B:HIS:456:CG:9038, H-B:LYS:547:NZ:9923, V-B:LYS:471:CB:9189, V-B:LYS:471:CE:9192, V-B:VAL:457:C:9045, V-B:VAL:458:CG2:9059, H-A:LYS:547:NZ:4949, V-B:HIS:456:CB:9037, V-B:HIS:456:CA:9035, V-B:HIS:456:C:9033, V-B:VAL:457:CA:9047, V-B:LYS:471:C:9185, V-B:HIS:456:CD2:9040, V-B:GLY:544:C:9884, V-B:LYS:471:CG:9190, V-B:LYS:471:CD:9191, V-A:LYS:471:CD:4217, V-A:HIS:456:CB:4063, V-A:ASP:473:CG:4238, V-A:HIS:456:CG:4064, V-A:HIS:456:C:4059, V-A:LYS:471:CG:4216, V-A:VAL:458:CG2:4085, V-A:LYS:471:CE:4218, H-B:GLY:544:O:9885, V-B:ASP:473:CG:9212, V-B:ASP:473:CB:9211, V-B:ASP:473:CA:9209, V-B:LEU:472:CA:9200, V-B:LEU:472:C:9198"]

$$$$
3bd_Grossjean_2025
     RDKit          3D

 43 45  0  0  0  0  0  0  0  0999 V2000
  133.6930  123.4910   75.2860 C   0  0  0  0  0  0  0  0  0  0  0  0
  132.4680  123.8690   74.4560 C   0  0  0  0  0  0  0  0  0  0  0  0
  131.5240  122.8740   74.1770 C   0  0  0  0  0  0  0  0  0  0  0  0
  130.3900  123.1800   73.4160 C   0  0  0  0  0  0  0  0  0  0  0  0
  129.3380  122.1640   73.0850 C   0  0  0  0  0  0  0  0  0  0  0  0
  129.0230  121.8650   71.7500 C   0  0  0  0  0  0  0  0  0  0  0  0
  128.0460  120.9240   71.4360 C   0  0  0  0  0  0  0  0  0  0  0  0
  127.3680  120.2660   72.4570 C   0  0  0  0  0  0  0  0  0  0  0  0
  127.6580  120.5460   73.7880 C   0  0  0  0  0  0  0  0  0  0  0  0
  128.6350  121.4880   74.0980 C   0  0  0  0  0  0  0  0  0  0  0  0
  130.1840  124.4400   72.9510 N   0  0  0  0  0  0  0  0  0  0  0  0
  131.0890  125.4170   73.2110 C   0  0  0  0  0  0  0  0  0  0  0  0
  130.7080  127.0250   72.5350 S   0  0  0  0  0  0  0  0  0  0  0  0
  128.9260  127.0780   72.1790 C   0  0  0  0  0  0  0  0  0  0  0  0
  128.2400  128.2620   72.8610 C   0  0  0  0  0  0  0  0  0  0  0  0
  128.7600  129.3770   72.7900 O   0  0  0  0  0  0  0  0  0  0  0  0
  127.0940  127.9770   73.5170 N   0  0  0  0  0  0  0  0  0  0  0  0
  126.2310  128.8470   74.2110 C   0  0  0  0  0  0  0  0  0  0  0  0
  126.7820  130.0660   74.6160 C   0  0  0  0  0  0  0  0  0  0  0  0
  126.0070  130.9870   75.3150 C   0  0  0  0  0  0  0  0  0  0  0  0
  124.6820  130.6840   75.6210 C   0  0  0  0  0  0  0  0  0  0  0  0
  124.1270  129.4670   75.2350 C   0  0  0  0  0  0  0  0  0  0  0  0
  124.8980  128.5440   74.5340 C   0  0  0  0  0  0  0  0  0  0  0  0
  132.2580  125.1760   73.9650 C   0  0  0  0  0  0  0  0  0  0  0  0
  133.2280  126.2400   74.2400 C   0  0  0  0  0  0  0  0  0  0  0  0
  133.9930  127.0800   74.4590 N   0  0  0  0  0  0  0  0  0  0  0  0
  133.4485  123.5664   76.3558 H   0  0  0  0  0  0  0  0  0  0  0  0
  133.9916  122.4589   75.0500 H   0  0  0  0  0  0  0  0  0  0  0  0
  134.5212  124.1754   75.0500 H   0  0  0  0  0  0  0  0  0  0  0  0
  131.6733  121.8521   74.5556 H   0  0  0  0  0  0  0  0  0  0  0  0
  129.5566  122.3824   70.9391 H   0  0  0  0  0  0  0  0  0  0  0  0
  127.8112  120.7017   70.3846 H   0  0  0  0  0  0  0  0  0  0  0  0
  126.5982  119.5200   72.2102 H   0  0  0  0  0  0  0  0  0  0  0  0
  127.1177  120.0254   74.5924 H   0  0  0  0  0  0  0  0  0  0  0  0
  128.8606  121.7070   75.1521 H   0  0  0  0  0  0  0  0  0  0  0  0
  128.7836  127.1634   71.0916 H   0  0  0  0  0  0  0  0  0  0  0  0
  128.4744  126.1537   72.5684 H   0  0  0  0  0  0  0  0  0  0  0  0
  126.8380  127.0020   73.5690 H   0  0  0  0  0  0  0  0  0  0  0  0
  127.8313  130.2982   74.3816 H   0  0  0  0  0  0  0  0  0  0  0  0
  126.4389  131.9501   75.6245 H   0  0  0  0  0  0  0  0  0  0  0  0
  124.0692  131.4125   76.1722 H   0  0  0  0  0  0  0  0  0  0  0  0
  123.0808  129.2351   75.4836 H   0  0  0  0  0  0  0  0  0  0  0  0
  124.4641  127.5789   74.2335 H   0  0  0  0  0  0  0  0  0  0  0  0
  1  2  1  0
  2  3  2  0
  3  4  1  0
  4  5  1  0
  5  6  2  0
  6  7  1  0
  7  8  2  0
  8  9  1  0
  9 10  2  0
  4 11  2  0
 11 12  1  0
 12 13  1  0
 13 14  1  0
 14 15  1  0
 15 16  2  0
 15 17  1  0
 17 18  1  0
 18 19  2  0
 19 20  1  0
 20 21  2  0
 21 22  1  0
 22 23  2  0
 12 24  2  0
 24 25  1  0
 25 26  3  0
 24  2  1  0
 10  5  1  0
 23 18  1  0
  1 27  1  0
  1 28  1  0
  1 29  1  0
  3 30  1  0
  6 31  1  0
  7 32  1  0
  8 33  1  0
  9 34  1  0
 10 35  1  0
 14 36  1  0
 14 37  1  0
 17 38  1  0
 19 39  1  0
 20 40  1  0
 21 41  1  0
 22 42  1  0
 23 43  1  0
M  END
>  <Binding energies>  (1) 
[-9.8]

>  <Ligand effiencies>  (1) 
[-0.362962962962963]

>  <Interactions>  (1) 
["V-A:TYR:484:CB:4339, V-A:HIS:456:CD2:4066, V-A:TYR:484:CG:4340, V-B:GLU:543:CA:9876, V-B:LYS:547:CE:9922, V-B:GLU:543:C:9874, V-B:GLY:544:CA:9886, V-B:HIS:456:CG:9038, H-B:LYS:547:NZ:9923, V-B:LYS:471:CE:9192, V-B:VAL:457:C:9045, V-B:VAL:458:CG2:9059, H-A:LYS:547:NZ:4949, V-B:HIS:456:CB:9037, V-B:HIS:456:CA:9035, V-B:HIS:456:C:9033, V-B:VAL:457:CA:9047, V-B:HIS:456:CD2:9040, V-B:GLY:544:C:9884, V-B:LYS:471:CG:9190, V-B:LYS:471:CD:9191, V-A:LYS:471:CD:4217, V-A:HIS:456:CB:4063, V-A:LYS:547:CE:4948, V-A:ASP:473:CG:4238, V-A:HIS:456:CG:4064, V-A:HIS:456:C:4059, V-A:LYS:471:CG:4216, V-A:VAL:458:CG2:4085, V-A:LYS:471:CE:4218, V-A:LYS:547:CD:4947, H-B:GLY:544:O:9885"]

$$$$
3be_Grossjean_2025
     RDKit          3D

 45 47  0  0  0  0  0  0  0  0999 V2000
  126.3170  131.8830   75.6010 C   0  0  0  0  0  0  0  0  0  0  0  0
  125.8150  130.5390   75.1110 C   0  0  0  0  0  0  0  0  0  0  0  0
  124.5030  130.1200   75.3400 C   0  0  0  0  0  0  0  0  0  0  0  0
  124.1110  128.8690   74.8620 C   0  0  0  0  0  0  0  0  0  0  0  0
  125.0320  128.0750   74.1730 C   0  0  0  0  0  0  0  0  0  0  0  0
  126.3310  128.5570   73.9740 C   0  0  0  0  0  0  0  0  0  0  0  0
  127.2130  127.7070   73.2820 N   0  0  0  0  0  0  0  0  0  0  0  0
  128.3470  128.0230   72.6200 C   0  0  0  0  0  0  0  0  0  0  0  0
  128.7990  129.1650   72.5110 O   0  0  0  0  0  0  0  0  0  0  0  0
  129.0740  126.8280   71.9830 C   0  0  0  0  0  0  0  0  0  0  0  0
  130.8780  126.7820   72.2570 S   0  0  0  0  0  0  0  0  0  0  0  0
  131.2570  125.3170   73.1940 C   0  0  0  0  0  0  0  0  0  0  0  0
  130.3570  124.3170   73.0270 N   0  0  0  0  0  0  0  0  0  0  0  0
  130.5260  123.1370   73.6810 C   0  0  0  0  0  0  0  0  0  0  0  0
  129.4780  122.0890   73.4530 C   0  0  0  0  0  0  0  0  0  0  0  0
  129.0270  121.7940   72.1560 C   0  0  0  0  0  0  0  0  0  0  0  0
  128.0540  120.8240   71.9380 C   0  0  0  0  0  0  0  0  0  0  0  0
  127.5140  120.1330   73.0170 C   0  0  0  0  0  0  0  0  0  0  0  0
  127.9400  120.4060   74.3110 C   0  0  0  0  0  0  0  0  0  0  0  0
  128.9140  121.3780   74.5260 C   0  0  0  0  0  0  0  0  0  0  0  0
  131.6180  122.9390   74.5320 C   0  0  0  0  0  0  0  0  0  0  0  0
  132.5690  123.9510   74.6960 C   0  0  0  0  0  0  0  0  0  0  0  0
  133.7550  123.6830   75.6210 C   0  0  0  0  0  0  0  0  0  0  0  0
  132.4040  125.1730   74.0070 C   0  0  0  0  0  0  0  0  0  0  0  0
  133.4160  126.2250   74.1220 C   0  0  0  0  0  0  0  0  0  0  0  0
  134.2170  127.0560   74.2150 N   0  0  0  0  0  0  0  0  0  0  0  0
  126.7200  129.7790   74.4430 N   0  0  0  0  0  0  0  0  0  0  0  0
  126.3211  131.8940   76.7009 H   0  0  0  0  0  0  0  0  0  0  0  0
  127.3384  132.0508   75.2288 H   0  0  0  0  0  0  0  0  0  0  0  0
  125.6557  132.6793   75.2288 H   0  0  0  0  0  0  0  0  0  0  0  0
  123.7946  130.7614   75.8848 H   0  0  0  0  0  0  0  0  0  0  0  0
  123.0842  128.5102   75.0263 H   0  0  0  0  0  0  0  0  0  0  0  0
  124.7401  127.0851   73.7924 H   0  0  0  0  0  0  0  0  0  0  0  0
  126.9350  126.7360   73.2650 H   0  0  0  0  0  0  0  0  0  0  0  0
  128.6427  125.9057   72.3993 H   0  0  0  0  0  0  0  0  0  0  0  0
  128.9320  126.9273   70.8967 H   0  0  0  0  0  0  0  0  0  0  0  0
  129.4499  122.3386   71.2990 H   0  0  0  0  0  0  0  0  0  0  0  0
  127.7130  120.6044   70.9155 H   0  0  0  0  0  0  0  0  0  0  0  0
  126.7449  119.3656   72.8451 H   0  0  0  0  0  0  0  0  0  0  0  0
  127.5100  119.8570   75.1617 H   0  0  0  0  0  0  0  0  0  0  0  0
  129.2472  121.5926   75.5521 H   0  0  0  0  0  0  0  0  0  0  0  0
  131.7288  121.9873   75.0723 H   0  0  0  0  0  0  0  0  0  0  0  0
  133.4272  123.7571   76.6684 H   0  0  0  0  0  0  0  0  0  0  0  0
  134.1479  122.6734   75.4303 H   0  0  0  0  0  0  0  0  0  0  0  0
  134.5438  124.4255   75.4303 H   0  0  0  0  0  0  0  0  0  0  0  0
  1  2  1  0
  2  3  2  0
  3  4  1  0
  4  5  2  0
  5  6  1  0
  6  7  1  0
  7  8  1  0
  8  9  2  0
  8 10  1  0
 10 11  1  0
 11 12  1  0
 12 13  2  0
 13 14  1  0
 14 15  1  0
 15 16  2  0
 16 17  1  0
 17 18  2  0
 18 19  1  0
 19 20  2  0
 14 21  2  0
 21 22  1  0
 22 23  1  0
 22 24  2  0
 24 25  1  0
 25 26  3  0
  6 27  2  0
 27  2  1  0
 24 12  1  0
 20 15  1  0
  1 28  1  0
  1 29  1  0
  1 30  1  0
  3 31  1  0
  4 32  1  0
  5 33  1  0
  7 34  1  0
 10 35  1  0
 10 36  1  0
 16 37  1  0
 17 38  1  0
 18 39  1  0
 19 40  1  0
 20 41  1  0
 21 42  1  0
 23 43  1  0
 23 44  1  0
 23 45  1  0
M  END
>  <Binding energies>  (1) 
[-9.26]

>  <Ligand effiencies>  (1) 
[-0.3307142857142857]

>  <Interactions>  (1) 
["V-A:TYR:484:CB:4339, V-A:HIS:456:CD2:4066, V-B:LYS:547:CE:9922, V-B:GLU:543:C:9874, V-B:LYS:547:CG:9920, V-B:GLY:544:CA:9886, V-B:HIS:456:CG:9038, H-B:LYS:547:NZ:9923, V-B:LYS:471:CE:9192, V-B:VAL:457:C:9045, V-B:VAL:458:CG2:9059, H-A:LYS:547:NZ:4949, V-B:HIS:456:CB:9037, V-B:HIS:456:CA:9035, V-B:HIS:456:C:9033, V-B:VAL:457:CA:9047, V-B:HIS:456:CD2:9040, V-B:GLY:544:C:9884, V-B:LYS:471:CD:9191, V-A:LYS:471:CD:4217, V-A:HIS:456:CB:4063, V-A:ASP:473:CG:4238, V-A:HIS:456:CG:4064, V-A:HIS:456:C:4059, V-A:LYS:471:CG:4216, V-A:VAL:458:CG2:4085, V-A:LYS:471:CE:4218, H-B:GLY:544:O:9885, V-B:ASP:473:CG:9212, V-B:LYS:547:CD:9921"]

$$$$
3bf_Grossjean_2025
     RDKit          3D

 42 44  0  0  0  0  0  0  0  0999 V2000
  125.1020  131.1810   75.6520 C   0  0  0  0  0  0  0  0  0  0  0  0
  126.2460  130.8120   74.7100 C   0  0  0  0  0  0  0  0  0  0  0  0
  127.1650  131.8100   74.3670 C   0  0  0  0  0  0  0  0  0  0  0  0
  128.2370  131.5120   73.5190 C   0  0  0  0  0  0  0  0  0  0  0  0
  129.2680  132.5290   73.1310 C   0  0  0  0  0  0  0  0  0  0  0  0
  129.3560  132.9920   71.8090 C   0  0  0  0  0  0  0  0  0  0  0  0
  130.3110  133.9360   71.4420 C   0  0  0  0  0  0  0  0  0  0  0  0
  131.1940  134.4310   72.3960 C   0  0  0  0  0  0  0  0  0  0  0  0
  131.1280  133.9890   73.7130 C   0  0  0  0  0  0  0  0  0  0  0  0
  130.1720  133.0430   74.0760 C   0  0  0  0  0  0  0  0  0  0  0  0
  128.4010  130.2590   73.0170 N   0  0  0  0  0  0  0  0  0  0  0  0
  127.5050  129.2880   73.3190 C   0  0  0  0  0  0  0  0  0  0  0  0
  127.8760  127.7160   72.5690 S   0  0  0  0  0  0  0  0  0  0  0  0
  129.6780  127.6330   72.2930 C   0  0  0  0  0  0  0  0  0  0  0  0
  130.3730  126.4010   72.8930 C   0  0  0  0  0  0  0  0  0  0  0  0
  129.8340  125.2940   72.8540 O   0  0  0  0  0  0  0  0  0  0  0  0
  131.5950  126.6430   73.4160 N   0  0  0  0  0  0  0  0  0  0  0  0
  132.4800  125.7470   74.0440 C   0  0  0  0  0  0  0  0  0  0  0  0
  131.9540  124.5210   74.4660 C   0  0  0  0  0  0  0  0  0  0  0  0
  132.7850  123.5830   75.0840 C   0  0  0  0  0  0  0  0  0  0  0  0
  134.1320  123.9000   75.2590 C   0  0  0  0  0  0  0  0  0  0  0  0
  134.6710  125.0770   74.8510 N   0  0  0  0  0  0  0  0  0  0  0  0
  133.8510  125.9790   74.2520 C   0  0  0  0  0  0  0  0  0  0  0  0
  126.4110  129.5120   74.1840 C   0  0  0  0  0  0  0  0  0  0  0  0
  125.4890  128.4410   74.5690 C   0  0  0  0  0  0  0  0  0  0  0  0
  124.7590  127.5960   74.8740 N   0  0  0  0  0  0  0  0  0  0  0  0
  125.4362  131.0732   76.6945 H   0  0  0  0  0  0  0  0  0  0  0  0
  124.7986  132.2226   75.4700 H   0  0  0  0  0  0  0  0  0  0  0  0
  124.2472  130.5130   75.4700 H   0  0  0  0  0  0  0  0  0  0  0  0
  127.0445  132.8287   74.7641 H   0  0  0  0  0  0  0  0  0  0  0  0
  128.6598  132.6030   71.0514 H   0  0  0  0  0  0  0  0  0  0  0  0
  130.3671  134.2891   70.4017 H   0  0  0  0  0  0  0  0  0  0  0  0
  131.9492  135.1767   72.1070 H   0  0  0  0  0  0  0  0  0  0  0  0
  131.8273  134.3845   74.4644 H   0  0  0  0  0  0  0  0  0  0  0  0
  130.1241  132.6932   75.1178 H   0  0  0  0  0  0  0  0  0  0  0  0
  129.8568  127.6303   71.2076 H   0  0  0  0  0  0  0  0  0  0  0  0
  130.1070  128.5067   72.8054 H   0  0  0  0  0  0  0  0  0  0  0  0
  131.9530  127.5810   73.3090 H   0  0  0  0  0  0  0  0  0  0  0  0
  130.8884  124.2961   74.3115 H   0  0  0  0  0  0  0  0  0  0  0  0
  132.3859  122.6163   75.4249 H   0  0  0  0  0  0  0  0  0  0  0  0
  134.7861  123.1639   75.7491 H   0  0  0  0  0  0  0  0  0  0  0  0
  134.2790  126.9344   73.9143 H   0  0  0  0  0  0  0  0  0  0  0  0
  1  2  1  0
  2  3  2  0
  3  4  1  0
  4  5  1  0
  5  6  2  0
  6  7  1  0
  7  8  2  0
  8  9  1  0
  9 10  2  0
  4 11  2  0
 11 12  1  0
 12 13  1  0
 13 14  1  0
 14 15  1  0
 15 16  2  0
 15 17  1  0
 17 18  1  0
 18 19  2  0
 19 20  1  0
 20 21  2  0
 21 22  1  0
 22 23  2  0
 12 24  2  0
 24 25  1  0
 25 26  3  0
 24  2  1  0
 10  5  1  0
 23 18  1  0
  1 27  1  0
  1 28  1  0
  1 29  1  0
  3 30  1  0
  6 31  1  0
  7 32  1  0
  8 33  1  0
  9 34  1  0
 10 35  1  0
 14 36  1  0
 14 37  1  0
 17 38  1  0
 19 39  1  0
 20 40  1  0
 21 41  1  0
 23 42  1  0
M  END
>  <Binding energies>  (1) 
[-9.59]

>  <Ligand effiencies>  (1) 
[-0.35518518518518516]

>  <Interactions>  (1) 
["V-A:HIS:456:CD2:4066, V-B:HIS:456:CG:9038, H-B:LYS:547:NZ:9923, V-B:LYS:471:CE:9192, V-B:VAL:458:CG2:9059, H-A:LYS:547:NZ:4949, V-B:HIS:456:CB:9037, V-A:GLY:544:C:4910, V-B:HIS:456:C:9033, V-A:GLU:543:C:4900, V-B:HIS:456:CD2:9040, V-B:LYS:471:CG:9190, V-B:LYS:471:CD:9191, V-A:LYS:471:CD:4217, V-A:HIS:456:CB:4063, V-A:LYS:547:CE:4948, V-A:HIS:456:CG:4064, V-A:HIS:456:C:4059, V-A:VAL:457:C:4071, V-A:LYS:471:CG:4216, V-A:HIS:456:CA:4061, H-A:VAL:458:N:4082, V-A:VAL:458:CG2:4085, V-A:LYS:471:CE:4218, H-A:GLY:544:O:4911, V-B:ASP:473:CG:9212, V-B:TYR:484:CD1:9315, V-A:GLY:544:CA:4912, V-B:TYR:484:CB:9313, V-A:GLU:543:CA:4902, V-B:LYS:547:CD:9921, V-B:TYR:484:CG:9314, H-A:VAL:457:N:4074"]

$$$$
3bg_Grossjean_2025
     RDKit          3D

 46 48  0  0  0  0  0  0  0  0999 V2000
  125.8540  134.9580   60.6120 C   0  0  0  0  0  0  0  0  0  0  0  0
  126.5040  133.6250   60.9750 C   0  0  0  0  0  0  0  0  0  0  0  0
  127.7640  133.3370   60.4430 C   0  0  0  0  0  0  0  0  0  0  0  0
  128.4000  132.1280   60.7560 C   0  0  0  0  0  0  0  0  0  0  0  0
  129.7590  131.7620   60.2270 C   0  0  0  0  0  0  0  0  0  0  0  0
  130.0350  131.8010   58.8500 C   0  0  0  0  0  0  0  0  0  0  0  0
  131.2960  131.4800   58.3580 C   0  0  0  0  0  0  0  0  0  0  0  0
  132.3070  131.1100   59.2380 C   0  0  0  0  0  0  0  0  0  0  0  0
  132.0610  131.0510   60.6050 C   0  0  0  0  0  0  0  0  0  0  0  0
  130.7970  131.3710   61.0920 C   0  0  0  0  0  0  0  0  0  0  0  0
  127.8080  131.2340   61.5930 N   0  0  0  0  0  0  0  0  0  0  0  0
  126.5860  131.4990   62.1210 C   0  0  0  0  0  0  0  0  0  0  0  0
  125.9360  130.2590   63.2300 S   0  0  0  0  0  0  0  0  0  0  0  0
  126.7740  130.4370   64.8390 C   0  0  0  0  0  0  0  0  0  0  0  0
  126.2040  129.4770   65.8880 C   0  0  0  0  0  0  0  0  0  0  0  0
  125.0650  129.6500   66.3230 O   0  0  0  0  0  0  0  0  0  0  0  0
  127.0170  128.4890   66.2990 N   0  0  0  0  0  0  0  0  0  0  0  0
  126.7510  127.5780   67.4120 C   0  0  0  0  0  0  0  0  0  0  0  0
  127.9400  127.4800   68.3600 C   0  0  0  0  0  0  0  0  0  0  0  0
  129.2430  127.4620   67.8500 C   0  0  0  0  0  0  0  0  0  0  0  0
  130.3290  127.3630   68.7150 C   0  0  0  0  0  0  0  0  0  0  0  0
  130.1110  127.2940   70.0900 C   0  0  0  0  0  0  0  0  0  0  0  0
  128.8180  127.3310   70.6070 C   0  0  0  0  0  0  0  0  0  0  0  0
  127.7320  127.4300   69.7410 C   0  0  0  0  0  0  0  0  0  0  0  0
  125.8860  132.6890   61.8310 C   0  0  0  0  0  0  0  0  0  0  0  0
  124.5690  132.9660   62.4110 C   0  0  0  0  0  0  0  0  0  0  0  0
  123.5290  133.1860   62.8670 N   0  0  0  0  0  0  0  0  0  0  0  0
  125.5898  135.4997   61.5322 H   0  0  0  0  0  0  0  0  0  0  0  0
  126.5592  135.5610   60.0211 H   0  0  0  0  0  0  0  0  0  0  0  0
  124.9447  134.7737   60.0211 H   0  0  0  0  0  0  0  0  0  0  0  0
  128.2574  134.0606   59.7774 H   0  0  0  0  0  0  0  0  0  0  0  0
  129.2393  132.0907   58.1479 H   0  0  0  0  0  0  0  0  0  0  0  0
  131.4927  131.5188   57.2764 H   0  0  0  0  0  0  0  0  0  0  0  0
  133.3064  130.8628   58.8506 H   0  0  0  0  0  0  0  0  0  0  0  0
  132.8613  130.7529   61.2983 H   0  0  0  0  0  0  0  0  0  0  0  0
  130.6061  131.3171   62.1740 H   0  0  0  0  0  0  0  0  0  0  0  0
  127.8454  130.2251   64.7076 H   0  0  0  0  0  0  0  0  0  0  0  0
  126.6145  131.4655   65.1950 H   0  0  0  0  0  0  0  0  0  0  0  0
  127.9380  128.4280   65.8900 H   0  0  0  0  0  0  0  0  0  0  0  0
  125.8785  127.9454   67.9721 H   0  0  0  0  0  0  0  0  0  0  0  0
  126.5616  126.5772   66.9967 H   0  0  0  0  0  0  0  0  0  0  0  0
  129.4092  127.5261   66.7645 H   0  0  0  0  0  0  0  0  0  0  0  0
  131.3537  127.3393   68.3157 H   0  0  0  0  0  0  0  0  0  0  0  0
  130.9686  127.2095   70.7737 H   0  0  0  0  0  0  0  0  0  0  0  0
  128.6557  127.2823   71.6939 H   0  0  0  0  0  0  0  0  0  0  0  0
  126.7094  127.4689   70.1444 H   0  0  0  0  0  0  0  0  0  0  0  0
  1  2  1  0
  2  3  2  0
  3  4  1  0
  4  5  1  0
  5  6  2  0
  6  7  1  0
  7  8  2  0
  8  9  1  0
  9 10  2  0
  4 11  2  0
 11 12  1  0
 12 13  1  0
 13 14  1  0
 14 15  1  0
 15 16  2  0
 15 17  1  0
 17 18  1  0
 18 19  1  0
 19 20  2  0
 20 21  1  0
 21 22  2  0
 22 23  1  0
 23 24  2  0
 12 25  2  0
 25 26  1  0
 26 27  3  0
 25  2  1  0
 10  5  1  0
 24 19  1  0
  1 28  1  0
  1 29  1  0
  1 30  1  0
  3 31  1  0
  6 32  1  0
  7 33  1  0
  8 34  1  0
  9 35  1  0
 10 36  1  0
 14 37  1  0
 14 38  1  0
 17 39  1  0
 18 40  1  0
 18 41  1  0
 20 42  1  0
 21 43  1  0
 22 44  1  0
 23 45  1  0
 24 46  1  0
M  END
>  <Binding energies>  (1) 
[-8.41]

>  <Ligand effiencies>  (1) 
[-0.3003571428571429]

>  <Interactions>  (1) 
["V-A:GLU:543:CD:4906, V-B:GLU:543:CG:9879, V-A:HIS:456:CE1:4068, V-B:GLU:543:CD:9880, V-A:HIS:456:CD2:4066, V-B:GLU:543:C:9874, V-A:TYR:539:CE2:4874, V-B:GLY:454:CA:9021, V-A:TYR:539:CD2:4872, V-B:LEU:475:CD2:9231, V-A:ALA:541:CB:4890, H-B:GLY:454:N:9022, H-B:TYR:484:OH:9320, V-A:TYR:539:C:4865, H-A:GLU:543:OE1:4907, H-A:GLU:543:OE2:4908, H-B:GLU:543:OE2:9882, V-A:PRO:540:CA:4881, V-B:HIS:456:CE1:9042, V-A:PRO:540:CB:4883, V-B:ARG:545:CG:9894, H-B:ARG:545:NE:9896, V-A:GLU:543:CG:4905, V-A:PRO:540:N:4882, V-B:TRP:381:CZ2:8342, V-B:TRP:381:CH2:8344, V-A:GLY:544:C:4910, V-A:GLU:543:C:4900, V-B:GLY:544:C:9884, H-B:HIS:456:ND1:9039"]

$$$$
3bk_Grossjean_2025
     RDKit          3D

 57 58  0  0  0  0  0  0  0  0999 V2000
  131.6450  122.3330   63.0820 C   0  0  0  0  0  0  0  0  0  0  0  0
  133.0540  122.4960   63.0480 O   0  0  0  0  0  0  0  0  0  0  0  0
  133.5130  123.2130   61.9100 C   0  0  0  0  0  0  0  0  0  0  0  0
  133.7960  124.6710   62.2980 C   0  0  0  0  0  0  0  0  0  0  0  0
  133.5640  124.8410   63.6890 O   0  0  0  0  0  0  0  0  0  0  0  0
  132.3170  125.4530   63.9920 C   0  0  0  0  0  0  0  0  0  0  0  0
  132.0750  125.3880   65.5050 C   0  0  0  0  0  0  0  0  0  0  0  0
  131.2860  126.5000   65.9050 O   0  0  0  0  0  0  0  0  0  0  0  0
  130.1220  126.1440   66.6410 C   0  0  0  0  0  0  0  0  0  0  0  0
  129.6400  127.3560   67.4520 C   0  0  0  0  0  0  0  0  0  0  0  0
  129.2700  126.9980   68.8220 N   0  0  0  0  0  0  0  0  0  0  0  0
  130.0500  127.1490   69.9060 C   0  0  0  0  0  0  0  0  0  0  0  0
  131.1820  127.6340   69.8720 O   0  0  0  0  0  0  0  0  0  0  0  0
  129.4510  126.7070   71.2440 C   0  0  0  0  0  0  0  0  0  0  0  0
  130.6040  126.9760   72.6280 S   0  0  0  0  0  0  0  0  0  0  0  0
  131.1050  125.3920   73.2820 C   0  0  0  0  0  0  0  0  0  0  0  0
  130.2850  124.3480   73.0020 N   0  0  0  0  0  0  0  0  0  0  0  0
  130.5850  123.1050   73.4620 C   0  0  0  0  0  0  0  0  0  0  0  0
  129.6380  122.0050   73.0900 C   0  0  0  0  0  0  0  0  0  0  0  0
  129.0270  121.9800   71.8250 C   0  0  0  0  0  0  0  0  0  0  0  0
  128.1420  120.9640   71.4770 C   0  0  0  0  0  0  0  0  0  0  0  0
  127.8540  119.9550   72.3890 C   0  0  0  0  0  0  0  0  0  0  0  0
  128.4490  119.9530   73.6470 C   0  0  0  0  0  0  0  0  0  0  0  0
  129.3350  120.9700   73.9920 C   0  0  0  0  0  0  0  0  0  0  0  0
  131.7400  122.8800   74.2210 C   0  0  0  0  0  0  0  0  0  0  0  0
  132.5970  123.9460   74.5200 C   0  0  0  0  0  0  0  0  0  0  0  0
  133.8450  123.6570   75.3510 C   0  0  0  0  0  0  0  0  0  0  0  0
  132.2830  125.2370   74.0450 C   0  0  0  0  0  0  0  0  0  0  0  0
  133.1630  126.3710   74.3410 C   0  0  0  0  0  0  0  0  0  0  0  0
  133.8570  127.2670   74.5750 N   0  0  0  0  0  0  0  0  0  0  0  0
  131.3056  122.2937   64.1276 H   0  0  0  0  0  0  0  0  0  0  0  0
  131.1653  123.1816   62.5724 H   0  0  0  0  0  0  0  0  0  0  0  0
  131.3717  121.3973   62.5724 H   0  0  0  0  0  0  0  0  0  0  0  0
  134.4363  122.7489   61.5331 H   0  0  0  0  0  0  0  0  0  0  0  0
  132.7410  123.1872   61.1269 H   0  0  0  0  0  0  0  0  0  0  0  0
  134.8434  124.9157   62.0677 H   0  0  0  0  0  0  0  0  0  0  0  0
  133.1318  125.3387   61.7297 H   0  0  0  0  0  0  0  0  0  0  0  0
  132.3350  126.5039   63.6675 H   0  0  0  0  0  0  0  0  0  0  0  0
  131.5090  124.9230   63.4664 H   0  0  0  0  0  0  0  0  0  0  0  0
  131.5469  124.4553   65.7524 H   0  0  0  0  0  0  0  0  0  0  0  0
  133.0398  125.4132   66.0328 H   0  0  0  0  0  0  0  0  0  0  0  0
  129.3300  125.8295   65.9454 H   0  0  0  0  0  0  0  0  0  0  0  0
  130.3590  125.3155   67.3247 H   0  0  0  0  0  0  0  0  0  0  0  0
  130.4481  128.1015   67.4875 H   0  0  0  0  0  0  0  0  0  0  0  0
  128.7438  127.7570   66.9560 H   0  0  0  0  0  0  0  0  0  0  0  0
  128.3320  126.6470   68.9480 H   0  0  0  0  0  0  0  0  0  0  0  0
  128.5324  127.2829   71.4297 H   0  0  0  0  0  0  0  0  0  0  0  0
  129.2387  125.6294   71.1824 H   0  0  0  0  0  0  0  0  0  0  0  0
  129.2515  122.7753   71.0990 H   0  0  0  0  0  0  0  0  0  0  0  0
  127.6715  120.9593   70.4827 H   0  0  0  0  0  0  0  0  0  0  0  0
  127.1519  119.1538   72.1147 H   0  0  0  0  0  0  0  0  0  0  0  0
  128.2204  119.1518   74.3653 H   0  0  0  0  0  0  0  0  0  0  0  0
  129.8055  120.9636   74.9863 H   0  0  0  0  0  0  0  0  0  0  0  0
  131.9736  121.8674   74.5817 H   0  0  0  0  0  0  0  0  0  0  0  0
  133.5948  123.7149   76.4206 H   0  0  0  0  0  0  0  0  0  0  0  0
  134.2170  122.6489   75.1155 H   0  0  0  0  0  0  0  0  0  0  0  0
  134.6222  124.3989   75.1155 H   0  0  0  0  0  0  0  0  0  0  0  0
  1  2  1  0
  2  3  1  0
  3  4  1  0
  4  5  1  0
  5  6  1  0
  6  7  1  0
  7  8  1  0
  8  9  1  0
  9 10  1  0
 10 11  1  0
 11 12  1  0
 12 13  2  0
 12 14  1  0
 14 15  1  0
 15 16  1  0
 16 17  2  0
 17 18  1  0
 18 19  1  0
 19 20  2  0
 20 21  1  0
 21 22  2  0
 22 23  1  0
 23 24  2  0
 18 25  2  0
 25 26  1  0
 26 27  1  0
 26 28  2  0
 28 29  1  0
 29 30  3  0
 28 16  1  0
 24 19  1  0
  1 31  1  0
  1 32  1  0
  1 33  1  0
  3 34  1  0
  3 35  1  0
  4 36  1  0
  4 37  1  0
  6 38  1  0
  6 39  1  0
  7 40  1  0
  7 41  1  0
  9 42  1  0
  9 43  1  0
 10 44  1  0
 10 45  1  0
 11 46  1  0
 14 47  1  0
 14 48  1  0
 20 49  1  0
 21 50  1  0
 22 51  1  0
 23 52  1  0
 24 53  1  0
 25 54  1  0
 27 55  1  0
 27 56  1  0
 27 57  1  0
M  END
>  <Binding energies>  (1) 
[-8.5]

>  <Ligand effiencies>  (1) 
[-0.27419354838709675]

>  <Interactions>  (1) 
["H-A:GLY:454:N:4048, V-A:GLU:543:CD:4906, V-B:GLU:543:CG:9879, V-A:HIS:456:CE1:4068, V-A:ARG:545:CD:4921, V-A:GLY:453:CA:4042, V-A:ILE:369:CD1:3237, V-A:ARG:545:CG:4920, V-B:GLU:543:CD:9880, V-B:GLU:543:CB:9878, V-A:ARG:545:CZ:4924, V-A:GLY:454:CA:4047, V-A:TYR:484:CB:4339, V-A:HIS:456:CD2:4066, V-A:TYR:484:CG:4340, V-B:GLU:543:CA:9876, V-B:LYS:547:CE:9922, V-B:GLU:543:C:9874, V-B:GLY:544:CA:9886, V-A:LEU:475:CD2:4257, H-A:TYR:484:OH:4346, H-A:ARG:545:NH2:4926, H-A:ARG:545:NE:4922, V-A:GLU:543:CG:4905, H-B:LYS:547:NZ:9923, V-A:GLY:544:C:4910, H-B:GLU:543:O:9875, V-A:LYS:471:CD:4217, V-A:HIS:456:CB:4063, V-A:ASP:473:CG:4238, V-A:HIS:456:CG:4064, V-A:HIS:456:C:4059, V-A:LYS:471:CG:4216, H-A:HIS:456:ND1:4065, V-A:VAL:458:CG2:4085, V-A:LYS:471:CE:4218, V-A:LYS:547:CD:4947, V-A:GLY:453:C:4040, H-A:ARG:545:N:4918"]

$$$$
3ca_Grossjean_2025
     RDKit          3D

 52 54  0  0  0  0  0  0  0  0999 V2000
  126.2260  129.3360   74.5500 C   0  0  0  0  0  0  0  0  0  0  0  0
  126.7820  128.1280   73.7920 C   0  0  0  0  0  0  0  0  0  0  0  0
  128.1860  128.2780   73.6260 O   0  0  0  0  0  0  0  0  0  0  0  0
  128.6960  129.0640   72.6440 C   0  0  0  0  0  0  0  0  0  0  0  0
  128.9780  130.2560   72.8030 O   0  0  0  0  0  0  0  0  0  0  0  0
  128.8910  128.3380   71.3430 C   0  0  0  0  0  0  0  0  0  0  0  0
  130.1780  127.9270   70.9750 C   0  0  0  0  0  0  0  0  0  0  0  0
  130.3900  127.2530   69.7760 C   0  0  0  0  0  0  0  0  0  0  0  0
  129.3230  126.9820   68.9180 C   0  0  0  0  0  0  0  0  0  0  0  0
  129.6480  126.2940   67.7330 N   0  0  0  0  0  0  0  0  0  0  0  0
  130.5940  126.5680   66.8090 C   0  0  0  0  0  0  0  0  0  0  0  0
  131.3890  127.5070   66.8600 O   0  0  0  0  0  0  0  0  0  0  0  0
  130.6610  125.5910   65.6300 C   0  0  0  0  0  0  0  0  0  0  0  0
  132.2740  125.5990   64.7810 S   0  0  0  0  0  0  0  0  0  0  0  0
  132.1870  124.5980   63.3020 C   0  0  0  0  0  0  0  0  0  0  0  0
  133.1360  123.6350   63.1880 N   0  0  0  0  0  0  0  0  0  0  0  0
  133.1190  122.8270   62.1060 C   0  0  0  0  0  0  0  0  0  0  0  0
  134.2000  121.7650   62.0600 C   0  0  0  0  0  0  0  0  0  0  0  0
  132.1730  122.9530   61.0910 C   0  0  0  0  0  0  0  0  0  0  0  0
  131.1940  123.9510   61.1770 C   0  0  0  0  0  0  0  0  0  0  0  0
  130.2090  124.0580   60.0590 C   0  0  0  0  0  0  0  0  0  0  0  0
  129.0180  123.3220   60.0990 C   0  0  0  0  0  0  0  0  0  0  0  0
  128.0980  123.4070   59.0580 C   0  0  0  0  0  0  0  0  0  0  0  0
  128.3680  124.2280   57.9660 C   0  0  0  0  0  0  0  0  0  0  0  0
  129.5510  124.9620   57.9070 C   0  0  0  0  0  0  0  0  0  0  0  0
  130.4680  124.8730   58.9500 C   0  0  0  0  0  0  0  0  0  0  0  0
  131.1900  124.7960   62.3170 C   0  0  0  0  0  0  0  0  0  0  0  0
  130.1600  125.8250   62.4870 C   0  0  0  0  0  0  0  0  0  0  0  0
  129.3450  126.6370   62.6190 N   0  0  0  0  0  0  0  0  0  0  0  0
  128.0290  127.3830   69.2820 C   0  0  0  0  0  0  0  0  0  0  0  0
  127.8190  128.0560   70.4830 C   0  0  0  0  0  0  0  0  0  0  0  0
  126.3075  129.1588   75.6326 H   0  0  0  0  0  0  0  0  0  0  0  0
  126.8013  130.2342   74.2811 H   0  0  0  0  0  0  0  0  0  0  0  0
  125.1696  129.4831   74.2811 H   0  0  0  0  0  0  0  0  0  0  0  0
  126.5762  127.2105   74.3628 H   0  0  0  0  0  0  0  0  0  0  0  0
  126.3011  128.0613   72.8049 H   0  0  0  0  0  0  0  0  0  0  0  0
  131.0288  128.1387   71.6393 H   0  0  0  0  0  0  0  0  0  0  0  0
  131.4058  126.9315   69.5025 H   0  0  0  0  0  0  0  0  0  0  0  0
  129.1200  125.4460   67.5890 H   0  0  0  0  0  0  0  0  0  0  0  0
  130.4691  124.5753   66.0063 H   0  0  0  0  0  0  0  0  0  0  0  0
  129.9048  125.9103   64.8977 H   0  0  0  0  0  0  0  0  0  0  0  0
  134.4839  121.4861   63.0855 H   0  0  0  0  0  0  0  0  0  0  0  0
  133.8208  120.8785   61.5306 H   0  0  0  0  0  0  0  0  0  0  0  0
  135.0796  122.1599   61.5306 H   0  0  0  0  0  0  0  0  0  0  0  0
  132.1948  122.2726   60.2270 H   0  0  0  0  0  0  0  0  0  0  0  0
  128.8079  122.6712   60.9606 H   0  0  0  0  0  0  0  0  0  0  0  0
  127.1630  122.8290   59.0976 H   0  0  0  0  0  0  0  0  0  0  0  0
  127.6413  124.2976   57.1431 H   0  0  0  0  0  0  0  0  0  0  0  0
  129.7588  125.6079   57.0412 H   0  0  0  0  0  0  0  0  0  0  0  0
  131.4046  125.4479   58.9029 H   0  0  0  0  0  0  0  0  0  0  0  0
  127.1793  127.1656   68.6181 H   0  0  0  0  0  0  0  0  0  0  0  0
  126.8018  128.3698   70.7603 H   0  0  0  0  0  0  0  0  0  0  0  0
  1  2  1  0
  2  3  1  0
  3  4  1  0
  4  5  2  0
  4  6  1  0
  6  7  2  0
  7  8  1  0
  8  9  2  0
  9 10  1  0
 10 11  1  0
 11 12  2  0
 11 13  1  0
 13 14  1  0
 14 15  1  0
 15 16  2  0
 16 17  1  0
 17 18  1  0
 17 19  2  0
 19 20  1  0
 20 21  1  0
 21 22  2  0
 22 23  1  0
 23 24  2  0
 24 25  1  0
 25 26  2  0
 20 27  2  0
 27 28  1  0
 28 29  3  0
  9 30  1  0
 30 31  2  0
 31  6  1  0
 27 15  1  0
 26 21  1  0
  1 32  1  0
  1 33  1  0
  1 34  1  0
  2 35  1  0
  2 36  1  0
  7 37  1  0
  8 38  1  0
 10 39  1  0
 13 40  1  0
 13 41  1  0
 18 42  1  0
 18 43  1  0
 18 44  1  0
 19 45  1  0
 22 46  1  0
 23 47  1  0
 24 48  1  0
 25 49  1  0
 26 50  1  0
 30 51  1  0
 31 52  1  0
M  END
>  <Binding energies>  (1) 
[-8.1]

>  <Ligand effiencies>  (1) 
[-0.253125]

>  <Interactions>  (1) 
["H-A:GLY:454:N:4048, V-A:GLU:543:CD:4906, V-B:GLU:543:CG:9879, V-A:HIS:456:CE1:4068, V-A:ILE:369:CD1:3237, V-B:GLU:543:CD:9880, V-B:GLU:543:CB:9878, V-A:GLY:454:CA:4047, V-A:HIS:456:CD2:4066, V-B:LYS:547:CE:9922, V-B:GLU:543:C:9874, V-B:PRO:540:CA:9855, V-A:LEU:475:CD2:4257, V-B:TYR:539:C:9839, H-A:TYR:484:OH:4346, H-A:ARG:545:NH2:4926, H-B:GLU:543:OE2:9882, V-B:HIS:456:CE1:9042, H-A:ARG:545:NE:4922, V-A:GLU:543:CG:4905, V-B:HIS:456:CG:9038, H-A:LYS:547:NZ:4949, V-B:HIS:456:CB:9037, V-A:GLY:544:C:4910, H-A:HIS:456:NE2:4069, V-A:GLU:543:C:4900, H-B:GLU:543:O:9875, V-B:HIS:456:CD2:9040, V-B:GLY:544:C:9884, V-A:LYS:547:CE:4948, V-A:GLY:453:C:4040, V-A:GLY:544:CA:4912"]

$$$$
3cb_Grossjean_2025
     RDKit          3D

 49 51  0  0  0  0  0  0  0  0999 V2000
  126.5830  128.2000   74.2800 C   0  0  0  0  0  0  0  0  0  0  0  0
  127.8760  128.0160   73.7220 O   0  0  0  0  0  0  0  0  0  0  0  0
  128.3770  128.8940   72.8150 C   0  0  0  0  0  0  0  0  0  0  0  0
  128.5310  130.0970   73.0440 O   0  0  0  0  0  0  0  0  0  0  0  0
  128.7250  128.2540   71.5000 C   0  0  0  0  0  0  0  0  0  0  0  0
  127.7520  127.9700   70.5310 C   0  0  0  0  0  0  0  0  0  0  0  0
  128.1080  127.3800   69.3220 C   0  0  0  0  0  0  0  0  0  0  0  0
  129.4400  127.0560   69.0570 C   0  0  0  0  0  0  0  0  0  0  0  0
  129.6880  126.4650   67.8020 N   0  0  0  0  0  0  0  0  0  0  0  0
  130.6620  126.7180   66.9010 C   0  0  0  0  0  0  0  0  0  0  0  0
  131.5610  127.5470   67.0490 O   0  0  0  0  0  0  0  0  0  0  0  0
  130.5930  125.8580   65.6300 C   0  0  0  0  0  0  0  0  0  0  0  0
  132.1120  125.8570   64.6170 S   0  0  0  0  0  0  0  0  0  0  0  0
  131.8710  124.7140   63.2740 C   0  0  0  0  0  0  0  0  0  0  0  0
  132.8480  123.7800   63.1780 N   0  0  0  0  0  0  0  0  0  0  0  0
  132.7700  122.8570   62.1940 C   0  0  0  0  0  0  0  0  0  0  0  0
  133.8910  121.8370   62.1550 C   0  0  0  0  0  0  0  0  0  0  0  0
  131.7270  122.8320   61.2720 C   0  0  0  0  0  0  0  0  0  0  0  0
  130.7130  123.7960   61.3420 C   0  0  0  0  0  0  0  0  0  0  0  0
  129.6190  123.7300   60.3250 C   0  0  0  0  0  0  0  0  0  0  0  0
  129.9220  123.7990   58.9600 C   0  0  0  0  0  0  0  0  0  0  0  0
  128.9100  123.7270   58.0050 C   0  0  0  0  0  0  0  0  0  0  0  0
  127.5870  123.5810   58.4140 C   0  0  0  0  0  0  0  0  0  0  0  0
  127.2690  123.5020   59.7660 C   0  0  0  0  0  0  0  0  0  0  0  0
  128.2830  123.5730   60.7190 C   0  0  0  0  0  0  0  0  0  0  0  0
  130.7890  124.7800   62.3610 C   0  0  0  0  0  0  0  0  0  0  0  0
  129.8080  125.8680   62.4250 C   0  0  0  0  0  0  0  0  0  0  0  0
  129.0340  126.7260   62.4750 N   0  0  0  0  0  0  0  0  0  0  0  0
  130.4200  127.3400   70.0200 C   0  0  0  0  0  0  0  0  0  0  0  0
  130.0620  127.9320   71.2290 C   0  0  0  0  0  0  0  0  0  0  0  0
  126.6526  128.1901   75.3778 H   0  0  0  0  0  0  0  0  0  0  0  0
  126.1740  129.1654   73.9472 H   0  0  0  0  0  0  0  0  0  0  0  0
  125.9209  127.3870   73.9472 H   0  0  0  0  0  0  0  0  0  0  0  0
  126.6981  128.2157   70.7283 H   0  0  0  0  0  0  0  0  0  0  0  0
  127.3343  127.1673   68.5696 H   0  0  0  0  0  0  0  0  0  0  0  0
  129.0450  125.7230   67.5630 H   0  0  0  0  0  0  0  0  0  0  0  0
  130.3823  124.8210   65.9305 H   0  0  0  0  0  0  0  0  0  0  0  0
  129.8047  126.2990   65.0023 H   0  0  0  0  0  0  0  0  0  0  0  0
  134.1818  121.5724   63.1823 H   0  0  0  0  0  0  0  0  0  0  0  0
  133.5478  120.9350   61.6272 H   0  0  0  0  0  0  0  0  0  0  0  0
  134.7567  122.2636   61.6272 H   0  0  0  0  0  0  0  0  0  0  0  0
  131.6993  122.0578   60.4911 H   0  0  0  0  0  0  0  0  0  0  0  0
  130.9680  123.9110   58.6386 H   0  0  0  0  0  0  0  0  0  0  0  0
  129.1548  123.7852   56.9342 H   0  0  0  0  0  0  0  0  0  0  0  0
  126.7864  123.5277   57.6615 H   0  0  0  0  0  0  0  0  0  0  0  0
  126.2218  123.3840   60.0813 H   0  0  0  0  0  0  0  0  0  0  0  0
  128.0333  123.5054   61.7881 H   0  0  0  0  0  0  0  0  0  0  0  0
  131.4734  127.0946   69.8198 H   0  0  0  0  0  0  0  0  0  0  0  0
  130.8368  128.1491   71.9790 H   0  0  0  0  0  0  0  0  0  0  0  0
  1  2  1  0
  2  3  1  0
  3  4  2  0
  3  5  1  0
  5  6  2  0
  6  7  1  0
  7  8  2  0
  8  9  1  0
  9 10  1  0
 10 11  2  0
 10 12  1  0
 12 13  1  0
 13 14  1  0
 14 15  2  0
 15 16  1  0
 16 17  1  0
 16 18  2  0
 18 19  1  0
 19 20  1  0
 20 21  2  0
 21 22  1  0
 22 23  2  0
 23 24  1  0
 24 25  2  0
 19 26  2  0
 26 27  1  0
 27 28  3  0
  8 29  1  0
 29 30  2  0
 30  5  1  0
 26 14  1  0
 25 20  1  0
  1 31  1  0
  1 32  1  0
  1 33  1  0
  6 34  1  0
  7 35  1  0
  9 36  1  0
 12 37  1  0
 12 38  1  0
 17 39  1  0
 17 40  1  0
 17 41  1  0
 18 42  1  0
 21 43  1  0
 22 44  1  0
 23 45  1  0
 24 46  1  0
 25 47  1  0
 29 48  1  0
 30 49  1  0
M  END
>  <Binding energies>  (1) 
[-8.27]

>  <Ligand effiencies>  (1) 
[-0.2667741935483871]

>  <Interactions>  (1) 
["H-A:GLY:454:N:4048, V-A:GLU:543:CD:4906, V-B:GLU:543:CG:9879, V-A:HIS:456:CE1:4068, V-B:TYR:539:CE2:9848, V-A:ILE:369:CD1:3237, V-A:ARG:545:CG:4920, V-B:GLU:543:CD:9880, V-B:GLU:543:CB:9878, V-A:GLY:454:CA:4047, V-A:HIS:456:CD2:4066, V-B:LYS:547:CE:9922, V-B:GLU:543:C:9874, V-B:TYR:539:CD2:9846, V-B:PRO:540:N:9856, V-B:PRO:540:CA:9855, V-A:LEU:475:CD2:4257, V-B:TYR:539:C:9839, H-A:TYR:484:OH:4346, H-A:ARG:545:NH2:4926, H-B:GLU:543:OE2:9882, V-B:HIS:456:CE1:9042, H-A:ARG:545:NE:4922, V-A:GLU:543:CG:4905, V-B:HIS:456:CG:9038, H-B:LYS:547:NZ:9923, H-A:LYS:547:NZ:4949, V-A:GLY:544:C:4910, H-A:HIS:456:NE2:4069, V-A:GLU:543:C:4900, H-B:GLU:543:O:9875, V-B:HIS:456:CD2:9040, V-B:GLY:544:C:9884, V-A:LYS:547:CE:4948, V-A:GLY:544:CA:4912, V-B:LYS:547:CD:9921"]

$$$$
3ce_Grossjean_2025
     RDKit          3D

 45 47  0  0  0  0  0  0  0  0999 V2000
  134.4590  125.0330   66.3620 C   0  0  0  0  0  0  0  0  0  0  0  0
  133.4160  125.1390   65.2660 C   0  0  0  0  0  0  0  0  0  0  0  0
  132.0900  125.4740   65.5490 C   0  0  0  0  0  0  0  0  0  0  0  0
  131.1870  125.5630   64.4900 C   0  0  0  0  0  0  0  0  0  0  0  0
  131.6250  125.3170   63.1870 C   0  0  0  0  0  0  0  0  0  0  0  0
  132.9650  124.9750   62.9740 C   0  0  0  0  0  0  0  0  0  0  0  0
  133.3540  124.7570   61.6410 N   0  0  0  0  0  0  0  0  0  0  0  0
  133.8930  123.6420   61.0990 C   0  0  0  0  0  0  0  0  0  0  0  0
  134.1290  122.6010   61.7140 O   0  0  0  0  0  0  0  0  0  0  0  0
  134.2090  123.7180   59.6060 C   0  0  0  0  0  0  0  0  0  0  0  0
  132.7600  124.2160   58.6290 S   0  0  0  0  0  0  0  0  0  0  0  0
  131.3880  123.3080   59.3030 C   0  0  0  0  0  0  0  0  0  0  0  0
  131.7020  122.0520   59.7050 N   0  0  0  0  0  0  0  0  0  0  0  0
  130.7290  121.2850   60.2480 C   0  0  0  0  0  0  0  0  0  0  0  0
  131.1510  119.8960   60.6880 C   0  0  0  0  0  0  0  0  0  0  0  0
  129.4180  121.7310   60.3980 C   0  0  0  0  0  0  0  0  0  0  0  0
  129.0680  123.0160   59.9650 C   0  0  0  0  0  0  0  0  0  0  0  0
  127.6450  123.4400   60.1230 C   0  0  0  0  0  0  0  0  0  0  0  0
  126.8330  123.6140   58.9950 C   0  0  0  0  0  0  0  0  0  0  0  0
  125.5070  124.0150   59.1350 C   0  0  0  0  0  0  0  0  0  0  0  0
  124.9870  124.2510   60.4040 C   0  0  0  0  0  0  0  0  0  0  0  0
  125.7840  124.0920   61.5350 C   0  0  0  0  0  0  0  0  0  0  0  0
  127.1090  123.6900   61.3930 C   0  0  0  0  0  0  0  0  0  0  0  0
  130.0790  123.8370   59.4040 C   0  0  0  0  0  0  0  0  0  0  0  0
  129.7760  125.1970   58.9470 C   0  0  0  0  0  0  0  0  0  0  0  0
  129.5350  126.2700   58.5870 N   0  0  0  0  0  0  0  0  0  0  0  0
  133.8570  124.8940   64.0060 N   0  0  0  0  0  0  0  0  0  0  0  0
  133.9656  125.0831   67.3438 H   0  0  0  0  0  0  0  0  0  0  0  0
  134.9931  124.0759   66.2685 H   0  0  0  0  0  0  0  0  0  0  0  0
  135.1748  125.8630   66.2685 H   0  0  0  0  0  0  0  0  0  0  0  0
  131.7655  125.6632   66.5829 H   0  0  0  0  0  0  0  0  0  0  0  0
  130.1358  125.8255   64.6800 H   0  0  0  0  0  0  0  0  0  0  0  0
  130.9267  125.3910   62.3403 H   0  0  0  0  0  0  0  0  0  0  0  0
  133.1170  125.5020   61.0020 H   0  0  0  0  0  0  0  0  0  0  0  0
  135.0124  124.4529   59.4499 H   0  0  0  0  0  0  0  0  0  0  0  0
  134.5164  122.7160   59.2720 H   0  0  0  0  0  0  0  0  0  0  0  0
  131.1656  119.8481   61.7869 H   0  0  0  0  0  0  0  0  0  0  0  0
  130.4374  119.1552   60.2981 H   0  0  0  0  0  0  0  0  0  0  0  0
  132.1561  119.6774   60.2981 H   0  0  0  0  0  0  0  0  0  0  0  0
  128.6608  121.0767   60.8546 H   0  0  0  0  0  0  0  0  0  0  0  0
  127.2457  123.4326   57.9916 H   0  0  0  0  0  0  0  0  0  0  0  0
  124.8728  124.1448   58.2457 H   0  0  0  0  0  0  0  0  0  0  0  0
  123.9387  124.5655   60.5146 H   0  0  0  0  0  0  0  0  0  0  0  0
  125.3685  124.2831   62.5354 H   0  0  0  0  0  0  0  0  0  0  0  0
  127.7405  123.5676   62.2853 H   0  0  0  0  0  0  0  0  0  0  0  0
  1  2  1  0
  2  3  2  0
  3  4  1  0
  4  5  2  0
  5  6  1  0
  6  7  1  0
  7  8  1  0
  8  9  2  0
  8 10  1  0
 10 11  1  0
 11 12  1  0
 12 13  2  0
 13 14  1  0
 14 15  1  0
 14 16  2  0
 16 17  1  0
 17 18  1  0
 18 19  2  0
 19 20  1  0
 20 21  2  0
 21 22  1  0
 22 23  2  0
 17 24  2  0
 24 25  1  0
 25 26  3  0
  6 27  2  0
 27  2  1  0
 24 12  1  0
 23 18  1  0
  1 28  1  0
  1 29  1  0
  1 30  1  0
  3 31  1  0
  4 32  1  0
  5 33  1  0
  7 34  1  0
 10 35  1  0
 10 36  1  0
 15 37  1  0
 15 38  1  0
 15 39  1  0
 16 40  1  0
 19 41  1  0
 20 42  1  0
 21 43  1  0
 22 44  1  0
 23 45  1  0
M  END
>  <Binding energies>  (1) 
[-8.46]

>  <Ligand effiencies>  (1) 
[-0.30214285714285716]

>  <Interactions>  (1) 
["H-A:GLY:454:N:4048, V-A:ASP:366:CG:3211, H-B:TYR:539:OH:9850, V-A:HIS:456:CE1:4068, V-A:ILE:369:CB:3234, V-B:TYR:539:CE2:9848, V-A:ARG:545:CD:4921, V-A:GLY:453:CA:4042, V-A:ILE:369:CD1:3237, V-A:ILE:369:CG2:3235, V-A:ARG:545:CG:4920, V-B:GLU:543:CD:9880, V-A:ARG:545:CZ:4924, V-A:GLY:454:CA:4047, V-A:ASP:366:CA:3208, V-B:PRO:540:CB:9857, V-B:TYR:539:CD2:9846, V-B:PRO:540:N:9856, V-B:PRO:540:CA:9855, V-B:ALA:541:CB:9864, H-A:ASP:366:OD1:3212, V-A:LEU:475:CD2:4257, V-B:TYR:539:C:9839, H-A:TYR:484:OH:4346, H-A:ARG:545:NE:4922, H-A:ASP:366:OD2:3213, V-A:TRP:381:CZ2:3368, V-A:TRP:381:CH2:3370, V-A:ARG:545:CB:4919, V-A:GLY:453:C:4040, H-A:ARG:545:NH1:4925, V-A:ILE:369:CG1:3236, V-A:ILE:455:C:4050"]

$$$$
3ch_Grossjean_2025
     RDKit          3D

 55 57  0  0  0  0  0  0  0  0999 V2000
  129.5360  123.7830   72.6040 C   0  0  0  0  0  0  0  0  0  0  0  0
  130.2580  125.0030   72.7400 O   0  0  0  0  0  0  0  0  0  0  0  0
  129.7780  126.1500   72.1340 C   0  0  0  0  0  0  0  0  0  0  0  0
  129.7080  126.3330   70.7430 C   0  0  0  0  0  0  0  0  0  0  0  0
  129.2000  127.5220   70.1990 C   0  0  0  0  0  0  0  0  0  0  0  0
  129.0860  127.7950   68.8230 N   0  0  0  0  0  0  0  0  0  0  0  0
  128.0520  127.5710   67.9820 C   0  0  0  0  0  0  0  0  0  0  0  0
  126.9700  127.0750   68.2970 O   0  0  0  0  0  0  0  0  0  0  0  0
  128.2670  128.0220   66.5380 C   0  0  0  0  0  0  0  0  0  0  0  0
  126.8120  128.8740   65.8610 S   0  0  0  0  0  0  0  0  0  0  0  0
  127.0660  128.9640   64.1020 C   0  0  0  0  0  0  0  0  0  0  0  0
  128.2410  128.4280   63.6880 N   0  0  0  0  0  0  0  0  0  0  0  0
  128.5340  128.4530   62.3680 C   0  0  0  0  0  0  0  0  0  0  0  0
  129.8650  127.8430   61.9750 C   0  0  0  0  0  0  0  0  0  0  0  0
  127.6780  129.0090   61.4200 C   0  0  0  0  0  0  0  0  0  0  0  0
  126.4550  129.5610   61.8270 C   0  0  0  0  0  0  0  0  0  0  0  0
  125.5730  130.1540   60.7760 C   0  0  0  0  0  0  0  0  0  0  0  0
  125.6170  129.6670   59.4640 C   0  0  0  0  0  0  0  0  0  0  0  0
  124.8050  130.2210   58.4780 C   0  0  0  0  0  0  0  0  0  0  0  0
  123.9460  131.2690   58.8000 C   0  0  0  0  0  0  0  0  0  0  0  0
  123.8960  131.7690   60.0980 C   0  0  0  0  0  0  0  0  0  0  0  0
  124.7110  131.2140   61.0820 C   0  0  0  0  0  0  0  0  0  0  0  0
  126.1250  129.5240   63.2060 C   0  0  0  0  0  0  0  0  0  0  0  0
  124.8210  130.0010   63.6760 C   0  0  0  0  0  0  0  0  0  0  0  0
  123.7920  130.3780   64.0480 N   0  0  0  0  0  0  0  0  0  0  0  0
  128.7810  128.5380   71.0600 C   0  0  0  0  0  0  0  0  0  0  0  0
  128.8430  128.3800   72.4530 C   0  0  0  0  0  0  0  0  0  0  0  0
  128.4360  129.3440   73.3590 O   0  0  0  0  0  0  0  0  0  0  0  0
  127.0860  129.3570   73.8100 C   0  0  0  0  0  0  0  0  0  0  0  0
  129.3460  127.1820   72.9770 C   0  0  0  0  0  0  0  0  0  0  0  0
  129.3960  127.0080   74.3400 O   0  0  0  0  0  0  0  0  0  0  0  0
  130.7080  126.8170   74.8520 C   0  0  0  0  0  0  0  0  0  0  0  0
  129.2997  123.3837   73.6013 H   0  0  0  0  0  0  0  0  0  0  0  0
  128.6024  123.9689   72.0528 H   0  0  0  0  0  0  0  0  0  0  0  0
  130.1483  123.0541   72.0528 H   0  0  0  0  0  0  0  0  0  0  0  0
  130.0559  125.5339   70.0719 H   0  0  0  0  0  0  0  0  0  0  0  0
  129.8870  128.2630   68.4260 H   0  0  0  0  0  0  0  0  0  0  0  0
  129.1262  128.7080   66.5054 H   0  0  0  0  0  0  0  0  0  0  0  0
  128.4474  127.1250   65.9274 H   0  0  0  0  0  0  0  0  0  0  0  0
  130.4313  127.5834   62.8816 H   0  0  0  0  0  0  0  0  0  0  0  0
  129.6905  126.9350   61.3791 H   0  0  0  0  0  0  0  0  0  0  0  0
  130.4389  128.5679   61.3791 H   0  0  0  0  0  0  0  0  0  0  0  0
  127.9603  129.0150   60.3568 H   0  0  0  0  0  0  0  0  0  0  0  0
  126.2978  128.8410   59.2105 H   0  0  0  0  0  0  0  0  0  0  0  0
  124.8417  129.8328   57.4494 H   0  0  0  0  0  0  0  0  0  0  0  0
  123.3019  131.7051   58.0222 H   0  0  0  0  0  0  0  0  0  0  0  0
  123.2166  132.5979   60.3455 H   0  0  0  0  0  0  0  0  0  0  0  0
  124.6771  131.6115   62.1071 H   0  0  0  0  0  0  0  0  0  0  0  0
  128.3957  129.4785   70.6392 H   0  0  0  0  0  0  0  0  0  0  0  0
  127.0668  129.3572   74.9098 H   0  0  0  0  0  0  0  0  0  0  0  0
  126.5826  130.2600   73.4343 H   0  0  0  0  0  0  0  0  0  0  0  0
  126.5653  128.4638   73.4343 H   0  0  0  0  0  0  0  0  0  0  0  0
  130.6768  126.8215   75.9515 H   0  0  0  0  0  0  0  0  0  0  0  0
  131.1019  125.8520   74.5004 H   0  0  0  0  0  0  0  0  0  0  0  0
  131.3607  127.6296   74.5004 H   0  0  0  0  0  0  0  0  0  0  0  0
  1  2  1  0
  2  3  1  0
  3  4  2  0
  4  5  1  0
  5  6  1  0
  6  7  1  0
  7  8  2  0
  7  9  1  0
  9 10  1  0
 10 11  1  0
 11 12  2  0
 12 13  1  0
 13 14  1  0
 13 15  2  0
 15 16  1  0
 16 17  1  0
 17 18  2  0
 18 19  1  0
 19 20  2  0
 20 21  1  0
 21 22  2  0
 16 23  2  0
 23 24  1  0
 24 25  3  0
  5 26  2  0
 26 27  1  0
 27 28  1  0
 28 29  1  0
 27 30  2  0
 30 31  1  0
 31 32  1  0
 30  3  1  0
 23 11  1  0
 22 17  1  0
  1 33  1  0
  1 34  1  0
  1 35  1  0
  4 36  1  0
  6 37  1  0
  9 38  1  0
  9 39  1  0
 14 40  1  0
 14 41  1  0
 14 42  1  0
 15 43  1  0
 18 44  1  0
 19 45  1  0
 20 46  1  0
 21 47  1  0
 22 48  1  0
 26 49  1  0
 29 50  1  0
 29 51  1  0
 29 52  1  0
 32 53  1  0
 32 54  1  0
 32 55  1  0
M  END
>  <Binding energies>  (1) 
[-7.23]

>  <Ligand effiencies>  (1) 
[-0.21909090909090911]

>  <Interactions>  (1) 
["V-A:GLU:543:CD:4906, V-B:GLU:543:CG:9879, V-A:HIS:456:CE1:4068, V-B:GLU:543:CD:9880, V-A:HIS:456:CD2:4066, V-B:LYS:547:CE:9922, V-B:GLU:543:C:9874, V-B:GLY:544:CA:9886, V-B:ASP:366:CB:8184, V-B:ASP:366:CG:8185, V-A:TYR:539:CE2:4874, H-B:ARG:545:NH1:9899, H-B:GLY:454:N:9022, H-B:TYR:484:OH:9320, V-B:ARG:545:CZ:9898, V-A:GLU:543:CB:4904, V-B:ILE:369:CD1:8211, V-B:ILE:369:CG2:8209, V-A:TYR:539:CZ:4875, V-B:HIS:456:CE1:9042, V-B:ASP:366:CA:8182, V-A:GLU:543:CG:4905, V-B:HIS:456:CG:9038, H-B:LYS:547:NZ:9923, H-A:LYS:547:NZ:4949, V-B:HIS:456:CB:9037, V-A:GLU:543:C:4900, V-B:HIS:456:CD2:9040, V-A:LYS:547:CE:4948, V-A:HIS:456:CG:4064, H-A:GLU:543:O:4901, V-A:LYS:547:CD:4947, H-B:ARG:545:N:9892"]

$$$$
3ci_Grossjean_2025
     RDKit          3D

 39 41  0  0  0  0  0  0  0  0999 V2000
  130.8880  119.5110   60.9710 C   0  0  0  0  0  0  0  0  0  0  0  0
  130.5890  120.9180   60.4880 C   0  0  0  0  0  0  0  0  0  0  0  0
  129.3190  121.4760   60.6030 C   0  0  0  0  0  0  0  0  0  0  0  0
  129.0950  122.7860   60.1580 C   0  0  0  0  0  0  0  0  0  0  0  0
  127.7200  123.3490   60.3150 C   0  0  0  0  0  0  0  0  0  0  0  0
  127.2000  123.6270   61.5860 C   0  0  0  0  0  0  0  0  0  0  0  0
  125.9150  124.1430   61.7280 C   0  0  0  0  0  0  0  0  0  0  0  0
  125.1390  124.3770   60.5970 C   0  0  0  0  0  0  0  0  0  0  0  0
  125.6370  124.0980   59.3260 C   0  0  0  0  0  0  0  0  0  0  0  0
  126.9230  123.5830   59.1880 C   0  0  0  0  0  0  0  0  0  0  0  0
  130.1810  123.5000   59.5900 C   0  0  0  0  0  0  0  0  0  0  0  0
  129.9970  124.8580   59.0680 C   0  0  0  0  0  0  0  0  0  0  0  0
  129.8500  125.9310   58.6570 N   0  0  0  0  0  0  0  0  0  0  0  0
  131.4410  122.8590   59.5160 C   0  0  0  0  0  0  0  0  0  0  0  0
  132.8830  123.6720   58.8390 S   0  0  0  0  0  0  0  0  0  0  0  0
  134.2130  123.6900   60.0860 C   0  0  0  0  0  0  0  0  0  0  0  0
  133.6950  123.6400   61.5280 C   0  0  0  0  0  0  0  0  0  0  0  0
  133.4440  122.5480   62.0400 O   0  0  0  0  0  0  0  0  0  0  0  0
  133.5360  124.8370   62.1350 N   0  0  0  0  0  0  0  0  0  0  0  0
  133.1130  125.0700   63.4370 C   0  0  0  0  0  0  0  0  0  0  0  0
  131.7780  125.2920   63.7740 C   0  0  0  0  0  0  0  0  0  0  0  0
  131.7800  125.4800   65.1370 C   0  0  0  0  0  0  0  0  0  0  0  0
  133.0500  125.3760   65.5960 O   0  0  0  0  0  0  0  0  0  0  0  0
  133.8860  125.1170   64.5090 N   0  0  0  0  0  0  0  0  0  0  0  0
  131.6330  121.5880   59.9530 N   0  0  0  0  0  0  0  0  0  0  0  0
  130.8916  119.4939   62.0709 H   0  0  0  0  0  0  0  0  0  0  0  0
  130.1160  118.8228   60.5961 H   0  0  0  0  0  0  0  0  0  0  0  0
  131.8731  119.1962   60.5961 H   0  0  0  0  0  0  0  0  0  0  0  0
  128.4959  120.8921   61.0406 H   0  0  0  0  0  0  0  0  0  0  0  0
  127.8126  123.4358   62.4794 H   0  0  0  0  0  0  0  0  0  0  0  0
  125.5153  124.3645   62.7286 H   0  0  0  0  0  0  0  0  0  0  0  0
  124.1237  124.7857   60.7073 H   0  0  0  0  0  0  0  0  0  0  0  0
  125.0173  124.2837   58.4363 H   0  0  0  0  0  0  0  0  0  0  0  0
  127.3160  123.3581   58.1855 H   0  0  0  0  0  0  0  0  0  0  0  0
  134.8609  122.8172   59.9176 H   0  0  0  0  0  0  0  0  0  0  0  0
  134.7562  124.6393   59.9684 H   0  0  0  0  0  0  0  0  0  0  0  0
  133.7720  125.6610   61.6020 H   0  0  0  0  0  0  0  0  0  0  0  0
  130.9113  125.3124   63.0969 H   0  0  0  0  0  0  0  0  0  0  0  0
  130.8926  125.6823   65.7547 H   0  0  0  0  0  0  0  0  0  0  0  0
  1  2  1  0
  2  3  2  0
  3  4  1  0
  4  5  1  0
  5  6  2  0
  6  7  1  0
  7  8  2  0
  8  9  1  0
  9 10  2  0
  4 11  2  0
 11 12  1  0
 12 13  3  0
 11 14  1  0
 14 15  1  0
 15 16  1  0
 16 17  1  0
 17 18  2  0
 17 19  1  0
 19 20  1  0
 20 21  1  0
 21 22  2  0
 22 23  1  0
 23 24  1  0
 14 25  2  0
 25  2  1  0
 10  5  1  0
 24 20  2  0
  1 26  1  0
  1 27  1  0
  1 28  1  0
  3 29  1  0
  6 30  1  0
  7 31  1  0
  8 32  1  0
  9 33  1  0
 10 34  1  0
 16 35  1  0
 16 36  1  0
 19 37  1  0
 21 38  1  0
 22 39  1  0
M  END
>  <Binding energies>  (1) 
[-7.7]

>  <Ligand effiencies>  (1) 
[-0.29615384615384616]

>  <Interactions>  (1) 
["H-A:GLY:454:N:4048, V-A:ASP:366:CG:3211, V-A:HIS:456:CE1:4068, V-A:ILE:369:CB:3234, V-B:TYR:539:CE2:9848, V-A:ILE:369:CD1:3237, V-A:ILE:369:CG2:3235, V-B:GLU:543:CD:9880, V-A:ARG:545:CZ:4924, V-B:PRO:540:CB:9857, V-B:TYR:539:CD2:9846, V-B:PRO:540:N:9856, V-B:PRO:540:CA:9855, V-B:ALA:541:CB:9864, H-A:ASP:366:OD1:3212, V-A:LEU:475:CD2:4257, V-B:TYR:539:C:9839, H-A:TYR:484:OH:4346, H-A:ARG:545:NE:4922, H-A:ASP:366:OD2:3213, V-A:TRP:381:CZ2:3368, V-A:PRO:482:CB:4324, V-A:TRP:381:CH2:3370, V-B:ALA:541:CA:9862, H-A:ARG:545:NH1:4925"]

$$$$
3cj_Grossjean_2025
     RDKit          3D

 39 41  0  0  0  0  0  0  0  0999 V2000
  126.4810  135.1840   61.3170 C   0  0  0  0  0  0  0  0  0  0  0  0
  126.8440  133.8360   60.7260 C   0  0  0  0  0  0  0  0  0  0  0  0
  128.1640  133.3900   60.6860 C   0  0  0  0  0  0  0  0  0  0  0  0
  128.4510  132.1260   60.1510 C   0  0  0  0  0  0  0  0  0  0  0  0
  129.8690  131.6620   60.1890 C   0  0  0  0  0  0  0  0  0  0  0  0
  130.5030  131.4110   61.4110 C   0  0  0  0  0  0  0  0  0  0  0  0
  131.8300  130.9910   61.4450 C   0  0  0  0  0  0  0  0  0  0  0  0
  132.5300  130.8260   60.2540 C   0  0  0  0  0  0  0  0  0  0  0  0
  131.9170  131.0810   59.0300 C   0  0  0  0  0  0  0  0  0  0  0  0
  130.5890  131.5010   58.9990 C   0  0  0  0  0  0  0  0  0  0  0  0
  127.3820  131.3530   59.6350 C   0  0  0  0  0  0  0  0  0  0  0  0
  127.6230  130.0360   59.0360 C   0  0  0  0  0  0  0  0  0  0  0  0
  127.8130  128.9960   58.5650 N   0  0  0  0  0  0  0  0  0  0  0  0
  126.0750  131.8830   59.7200 C   0  0  0  0  0  0  0  0  0  0  0  0
  124.6310  130.9630   59.2320 S   0  0  0  0  0  0  0  0  0  0  0  0
  123.3580  131.4090   60.4560 C   0  0  0  0  0  0  0  0  0  0  0  0
  123.9220  131.4440   61.8800 C   0  0  0  0  0  0  0  0  0  0  0  0
  123.8910  132.4970   62.5200 O   0  0  0  0  0  0  0  0  0  0  0  0
  124.3910  130.2660   62.3460 N   0  0  0  0  0  0  0  0  0  0  0  0
  124.8260  130.0000   63.6340 C   0  0  0  0  0  0  0  0  0  0  0  0
  124.1100  129.9560   64.7360 N   0  0  0  0  0  0  0  0  0  0  0  0
  124.8500  129.6430   65.7810 C   0  0  0  0  0  0  0  0  0  0  0  0
  126.2020  129.4260   65.5360 C   0  0  0  0  0  0  0  0  0  0  0  0
  126.5130  129.6480   63.8400 S   0  0  0  0  0  0  0  0  0  0  0  0
  125.8110  133.0970   60.2650 N   0  0  0  0  0  0  0  0  0  0  0  0
  126.4983  135.1196   62.4150 H   0  0  0  0  0  0  0  0  0  0  0  0
  127.2079  135.9388   60.9824 H   0  0  0  0  0  0  0  0  0  0  0  0
  125.4734  135.4717   60.9824 H   0  0  0  0  0  0  0  0  0  0  0  0
  128.9751  134.0253   61.0715 H   0  0  0  0  0  0  0  0  0  0  0  0
  129.9489  131.5465   62.3516 H   0  0  0  0  0  0  0  0  0  0  0  0
  132.3222  130.7907   62.4081 H   0  0  0  0  0  0  0  0  0  0  0  0
  133.5774  130.4910   60.2795 H   0  0  0  0  0  0  0  0  0  0  0  0
  132.4782  130.9515   58.0928 H   0  0  0  0  0  0  0  0  0  0  0  0
  130.1032  131.7074   58.0339 H   0  0  0  0  0  0  0  0  0  0  0  0
  122.9583  132.4032   60.2073 H   0  0  0  0  0  0  0  0  0  0  0  0
  122.5684  130.6440   60.4208 H   0  0  0  0  0  0  0  0  0  0  0  0
  124.3450  129.4710   61.7250 H   0  0  0  0  0  0  0  0  0  0  0  0
  124.4221  129.5581   66.7908 H   0  0  0  0  0  0  0  0  0  0  0  0
  126.9532  129.1573   66.2933 H   0  0  0  0  0  0  0  0  0  0  0  0
  1  2  1  0
  2  3  2  0
  3  4  1  0
  4  5  1  0
  5  6  2  0
  6  7  1  0
  7  8  2  0
  8  9  1  0
  9 10  2  0
  4 11  2  0
 11 12  1  0
 12 13  3  0
 11 14  1  0
 14 15  1  0
 15 16  1  0
 16 17  1  0
 17 18  2  0
 17 19  1  0
 19 20  1  0
 20 21  2  0
 21 22  1  0
 22 23  2  0
 23 24  1  0
 14 25  2  0
 25  2  1  0
 10  5  1  0
 24 20  1  0
  1 26  1  0
  1 27  1  0
  1 28  1  0
  3 29  1  0
  6 30  1  0
  7 31  1  0
  8 32  1  0
  9 33  1  0
 10 34  1  0
 16 35  1  0
 16 36  1  0
 19 37  1  0
 22 38  1  0
 23 39  1  0
M  END
>  <Binding energies>  (1) 
[-7.54]

>  <Ligand effiencies>  (1) 
[-0.29]

>  <Interactions>  (1) 
["V-A:GLU:543:CD:4906, V-A:ASP:366:CG:3211, V-B:ASP:366:CG:8185, V-A:TYR:539:CE2:4874, H-B:ARG:545:NH1:9899, V-A:TYR:539:CD2:4872, H-B:ASP:366:OD1:8186, V-B:LEU:475:CD2:9231, V-A:ALA:541:CB:4890, H-B:GLY:454:N:9022, H-B:TYR:484:OH:9320, V-A:TYR:539:C:4865, V-B:ARG:545:CZ:9898, V-B:ILE:369:CD1:8211, V-B:ILE:369:CG2:8209, V-A:PRO:540:CA:4881, V-B:HIS:456:CE1:9042, V-A:PRO:540:CB:4883, V-B:ARG:545:CG:9894, H-B:ASP:366:OD2:8187, H-B:ARG:545:NE:9896, V-B:ILE:369:CB:8208, V-A:PRO:540:N:4882, V-B:TRP:381:CZ2:8342, V-B:TRP:381:CH2:8344, V-B:ARG:545:CD:9895"]

$$$$
3ck_Grossjean_2025
     RDKit          3D

 57 58  0  0  0  0  0  0  0  0999 V2000
  131.8820  125.7940   73.3620 C   0  0  0  0  0  0  0  0  0  0  0  0
  130.4890  125.7360   73.0940 O   0  0  0  0  0  0  0  0  0  0  0  0
  129.9450  126.9730   72.6560 C   0  0  0  0  0  0  0  0  0  0  0  0
  129.2340  126.7740   71.3110 C   0  0  0  0  0  0  0  0  0  0  0  0
  130.1990  126.7520   70.2670 O   0  0  0  0  0  0  0  0  0  0  0  0
  129.7330  127.2940   69.0390 C   0  0  0  0  0  0  0  0  0  0  0  0
  130.9020  127.3720   68.0500 C   0  0  0  0  0  0  0  0  0  0  0  0
  130.4060  127.0980   66.7480 O   0  0  0  0  0  0  0  0  0  0  0  0
  130.8880  125.8950   66.1680 C   0  0  0  0  0  0  0  0  0  0  0  0
  130.7260  125.9610   64.6370 C   0  0  0  0  0  0  0  0  0  0  0  0
  131.2320  124.7740   63.9400 N   0  0  0  0  0  0  0  0  0  0  0  0
  132.5240  124.4130   63.8440 C   0  0  0  0  0  0  0  0  0  0  0  0
  133.4430  125.0440   64.3690 O   0  0  0  0  0  0  0  0  0  0  0  0
  132.7950  123.1370   63.0300 C   0  0  0  0  0  0  0  0  0  0  0  0
  132.2320  123.1810   61.2940 S   0  0  0  0  0  0  0  0  0  0  0  0
  130.8330  124.2840   61.1600 C   0  0  0  0  0  0  0  0  0  0  0  0
  131.1140  125.6050   61.2870 N   0  0  0  0  0  0  0  0  0  0  0  0
  130.1020  126.4970   61.2010 C   0  0  0  0  0  0  0  0  0  0  0  0
  130.4930  127.9540   61.3560 C   0  0  0  0  0  0  0  0  0  0  0  0
  128.7800  126.1140   60.9880 C   0  0  0  0  0  0  0  0  0  0  0  0
  128.4650  124.7550   60.8600 C   0  0  0  0  0  0  0  0  0  0  0  0
  127.0320  124.3890   60.6560 C   0  0  0  0  0  0  0  0  0  0  0  0
  126.4930  124.3500   59.3650 C   0  0  0  0  0  0  0  0  0  0  0  0
  125.1540  124.0190   59.1680 C   0  0  0  0  0  0  0  0  0  0  0  0
  124.3460  123.7330   60.2650 C   0  0  0  0  0  0  0  0  0  0  0  0
  124.8650  123.7770   61.5570 C   0  0  0  0  0  0  0  0  0  0  0  0
  126.2040  124.1070   61.7500 C   0  0  0  0  0  0  0  0  0  0  0  0
  129.5200  123.8090   60.9360 C   0  0  0  0  0  0  0  0  0  0  0  0
  129.2550  122.3760   60.7680 C   0  0  0  0  0  0  0  0  0  0  0  0
  129.0460  121.2450   60.6340 N   0  0  0  0  0  0  0  0  0  0  0  0
  132.0462  125.8008   74.4497 H   0  0  0  0  0  0  0  0  0  0  0  0
  132.3769  124.9157   72.9220 H   0  0  0  0  0  0  0  0  0  0  0  0
  132.3022  126.7104   72.9220 H   0  0  0  0  0  0  0  0  0  0  0  0
  129.2236  127.3401   73.4009 H   0  0  0  0  0  0  0  0  0  0  0  0
  130.7555  127.7070   72.5362 H   0  0  0  0  0  0  0  0  0  0  0  0
  128.6846  125.8211   71.3234 H   0  0  0  0  0  0  0  0  0  0  0  0
  128.5279  127.6004   71.1422 H   0  0  0  0  0  0  0  0  0  0  0  0
  128.9441  126.6477   68.6268 H   0  0  0  0  0  0  0  0  0  0  0  0
  129.3238  128.3007   69.2095 H   0  0  0  0  0  0  0  0  0  0  0  0
  131.3434  128.3792   68.0751 H   0  0  0  0  0  0  0  0  0  0  0  0
  131.6765  126.6396   68.3215 H   0  0  0  0  0  0  0  0  0  0  0  0
  131.9514  125.7675   66.4189 H   0  0  0  0  0  0  0  0  0  0  0  0
  130.3135  125.0431   66.5608 H   0  0  0  0  0  0  0  0  0  0  0  0
  129.6563  126.0705   64.4052 H   0  0  0  0  0  0  0  0  0  0  0  0
  131.3205  126.8178   64.2870 H   0  0  0  0  0  0  0  0  0  0  0  0
  130.5380  124.1930   63.4940 H   0  0  0  0  0  0  0  0  0  0  0  0
  133.8804  122.9585   63.0303 H   0  0  0  0  0  0  0  0  0  0  0  0
  132.2154  122.3386   63.5163 H   0  0  0  0  0  0  0  0  0  0  0  0
  130.5601  128.2039   62.4251 H   0  0  0  0  0  0  0  0  0  0  0  0
  131.4687  128.1247   60.8776 H   0  0  0  0  0  0  0  0  0  0  0  0
  129.7338  128.5903   60.8776 H   0  0  0  0  0  0  0  0  0  0  0  0
  127.9878  126.8742   60.9207 H   0  0  0  0  0  0  0  0  0  0  0  0
  127.1311  124.5823   58.4996 H   0  0  0  0  0  0  0  0  0  0  0  0
  124.7373  123.9838   58.1506 H   0  0  0  0  0  0  0  0  0  0  0  0
  123.2891  123.4701   60.1103 H   0  0  0  0  0  0  0  0  0  0  0  0
  124.2208  123.5523   62.4198 H   0  0  0  0  0  0  0  0  0  0  0  0
  126.6147  124.1465   62.7697 H   0  0  0  0  0  0  0  0  0  0  0  0
  1  2  1  0
  2  3  1  0
  3  4  1  0
  4  5  1  0
  5  6  1  0
  6  7  1  0
  7  8  1  0
  8  9  1  0
  9 10  1  0
 10 11  1  0
 11 12  1  0
 12 13  2  0
 12 14  1  0
 14 15  1  0
 15 16  1  0
 16 17  2  0
 17 18  1  0
 18 19  1  0
 18 20  2  0
 20 21  1  0
 21 22  1  0
 22 23  2  0
 23 24  1  0
 24 25  2  0
 25 26  1  0
 26 27  2  0
 21 28  2  0
 28 29  1  0
 29 30  3  0
 28 16  1  0
 27 22  1  0
  1 31  1  0
  1 32  1  0
  1 33  1  0
  3 34  1  0
  3 35  1  0
  4 36  1  0
  4 37  1  0
  6 38  1  0
  6 39  1  0
  7 40  1  0
  7 41  1  0
  9 42  1  0
  9 43  1  0
 10 44  1  0
 10 45  1  0
 11 46  1  0
 14 47  1  0
 14 48  1  0
 19 49  1  0
 19 50  1  0
 19 51  1  0
 20 52  1  0
 23 53  1  0
 24 54  1  0
 25 55  1  0
 26 56  1  0
 27 57  1  0
M  END
>  <Binding energies>  (1) 
[-6.09]

>  <Ligand effiencies>  (1) 
[-0.1964516129032258]

>  <Interactions>  (1) 
["H-A:GLY:454:N:4048, V-A:GLU:543:CD:4906, V-A:HIS:456:CE1:4068, V-A:ARG:545:CG:4920, V-B:GLU:543:CD:9880, V-B:GLU:543:CB:9878, V-A:GLY:454:CA:4047, V-A:HIS:456:CD2:4066, V-B:ASN:362:CB:8148, V-B:PRO:540:CB:9857, V-B:PRO:540:C:9853, V-B:PRO:540:CA:9855, H-B:ALA:541:N:9863, V-B:ALA:541:CB:9864, H-B:GLU:543:OE1:9881, H-A:TYR:484:OH:4346, H-A:ARG:545:NH2:4926, H-A:ARG:545:NE:4922, V-A:GLU:543:CG:4905, H-B:LYS:547:NZ:9923, V-A:GLU:543:C:4900, V-A:HIS:456:CB:4063, V-A:LYS:547:CE:4948, V-A:HIS:456:CG:4064"]

$$$$
4aa_Grossjean_2025
     RDKit          3D

 45 47  0  0  0  0  0  0  0  0999 V2000
  129.4000  125.8500   72.2820 C   0  0  0  0  0  0  0  0  0  0  0  0
  130.1270  127.1560   72.6180 C   0  0  0  0  0  0  0  0  0  0  0  0
  129.4820  128.2390   71.9600 O   0  0  0  0  0  0  0  0  0  0  0  0
  128.4050  128.0310   71.1590 C   0  0  0  0  0  0  0  0  0  0  0  0
  127.2370  128.1670   71.5400 O   0  0  0  0  0  0  0  0  0  0  0  0
  128.7740  127.6150   69.7650 C   0  0  0  0  0  0  0  0  0  0  0  0
  130.1230  127.4120   69.4460 C   0  0  0  0  0  0  0  0  0  0  0  0
  130.4980  127.0300   68.1600 C   0  0  0  0  0  0  0  0  0  0  0  0
  129.5330  126.8350   67.1710 C   0  0  0  0  0  0  0  0  0  0  0  0
  130.0220  126.4590   65.9060 N   0  0  0  0  0  0  0  0  0  0  0  0
  130.6200  125.3100   65.5060 C   0  0  0  0  0  0  0  0  0  0  0  0
  130.8820  124.3700   66.2570 O   0  0  0  0  0  0  0  0  0  0  0  0
  130.9750  125.2510   64.0870 C   0  0  0  0  0  0  0  0  0  0  0  0
  132.2340  124.1450   63.5300 S   0  0  0  0  0  0  0  0  0  0  0  0
  132.0620  124.7070   61.8820 C   0  0  0  0  0  0  0  0  0  0  0  0
  132.8020  124.2130   60.8880 N   0  0  0  0  0  0  0  0  0  0  0  0
  132.5730  124.7380   59.6590 C   0  0  0  0  0  0  0  0  0  0  0  0
  133.4290  124.1670   58.5430 C   0  0  0  0  0  0  0  0  0  0  0  0
  131.6290  125.7300   59.4040 C   0  0  0  0  0  0  0  0  0  0  0  0
  130.8530  126.2440   60.4490 C   0  0  0  0  0  0  0  0  0  0  0  0
  129.8360  127.3270   60.1200 C   0  0  0  0  0  0  0  0  0  0  0  0
  131.0680  125.7220   61.7530 C   0  0  0  0  0  0  0  0  0  0  0  0
  130.4670  126.0170   63.0260 C   0  0  0  0  0  0  0  0  0  0  0  0
  129.4830  126.9630   63.1690 N   0  0  0  0  0  0  0  0  0  0  0  0
  128.1800  127.0410   67.4790 C   0  0  0  0  0  0  0  0  0  0  0  0
  127.8070  127.4260   68.7650 C   0  0  0  0  0  0  0  0  0  0  0  0
  129.1154  125.3387   73.2134 H   0  0  0  0  0  0  0  0  0  0  0  0
  128.4966  126.0736   71.6957 H   0  0  0  0  0  0  0  0  0  0  0  0
  130.0661  125.2000   71.6957 H   0  0  0  0  0  0  0  0  0  0  0  0
  130.1024  127.3203   73.7054 H   0  0  0  0  0  0  0  0  0  0  0  0
  131.1721  127.0916   72.2810 H   0  0  0  0  0  0  0  0  0  0  0  0
  130.8931  127.5556   70.2182 H   0  0  0  0  0  0  0  0  0  0  0  0
  131.5617  126.8811   67.9225 H   0  0  0  0  0  0  0  0  0  0  0  0
  129.9180  127.1700   65.1950 H   0  0  0  0  0  0  0  0  0  0  0  0
  134.2701  123.6060   58.9764 H   0  0  0  0  0  0  0  0  0  0  0  0
  132.8202  123.4935   57.9219 H   0  0  0  0  0  0  0  0  0  0  0  0
  133.8170  124.9878   57.9219 H   0  0  0  0  0  0  0  0  0  0  0  0
  131.4934  126.1096   58.3805 H   0  0  0  0  0  0  0  0  0  0  0  0
  129.4374  127.7514   61.0533 H   0  0  0  0  0  0  0  0  0  0  0  0
  130.3224  128.1211   59.5344 H   0  0  0  0  0  0  0  0  0  0  0  0
  129.0130  126.8914   59.5344 H   0  0  0  0  0  0  0  0  0  0  0  0
  129.6930  127.9510   63.1890 H   0  0  0  0  0  0  0  0  0  0  0  0
  128.5120  126.7020   63.2620 H   0  0  0  0  0  0  0  0  0  0  0  0
  127.4124  126.8984   66.7041 H   0  0  0  0  0  0  0  0  0  0  0  0
  126.7438  127.5835   68.9992 H   0  0  0  0  0  0  0  0  0  0  0  0
  1  2  1  0
  2  3  1  0
  3  4  1  0
  4  5  2  0
  4  6  1  0
  6  7  2  0
  7  8  1  0
  8  9  2  0
  9 10  1  0
 10 11  1  0
 11 12  2  0
 11 13  1  0
 13 14  1  0
 14 15  1  0
 15 16  2  0
 16 17  1  0
 17 18  1  0
 17 19  2  0
 19 20  1  0
 20 21  1  0
 20 22  2  0
 22 23  1  0
 23 24  1  0
  9 25  1  0
 25 26  2  0
 26  6  1  0
 23 13  2  0
 22 15  1  0
  1 27  1  0
  1 28  1  0
  1 29  1  0
  2 30  1  0
  2 31  1  0
  7 32  1  0
  8 33  1  0
 10 34  1  0
 18 35  1  0
 18 36  1  0
 18 37  1  0
 19 38  1  0
 21 39  1  0
 21 40  1  0
 21 41  1  0
 24 42  1  0
 24 43  1  0
 25 44  1  0
 26 45  1  0
M  END
>  <Binding energies>  (1) 
[-7.06]

>  <Ligand effiencies>  (1) 
[-0.24344827586206896]

>  <Interactions>  (1) 
["V-A:GLU:543:CD:4906, V-A:ASP:366:CG:3211, V-B:GLU:543:CG:9879, V-A:HIS:456:CE1:4068, V-A:ASP:366:CB:3210, V-B:TYR:539:CE2:9848, V-B:GLU:543:CD:9880, V-B:GLU:543:CB:9878, V-A:ASP:366:CA:3208, V-A:HIS:456:CD2:4066, V-B:LYS:547:CE:9922, V-B:GLU:543:C:9874, V-B:GLY:544:CA:9886, H-B:GLU:543:OE1:9881, H-A:TYR:484:OH:4346, H-A:GLU:543:OE1:4907, H-A:GLU:543:OE2:4908, H-B:GLU:543:OE2:9882, V-B:HIS:456:CE1:9042, V-A:GLY:544:C:4910, V-A:GLU:543:C:4900, V-B:HIS:456:CD2:9040, V-A:LYS:547:CE:4948, H-B:HIS:456:ND1:9039"]

$$$$
4ab_Grossjean_2025
     RDKit          3D

 42 44  0  0  0  0  0  0  0  0999 V2000
  128.2370  127.4190   72.7090 C   0  0  0  0  0  0  0  0  0  0  0  0
  128.8320  126.3740   71.9530 O   0  0  0  0  0  0  0  0  0  0  0  0
  129.8410  126.6290   71.0810 C   0  0  0  0  0  0  0  0  0  0  0  0
  131.0350  126.4800   71.3600 O   0  0  0  0  0  0  0  0  0  0  0  0
  129.3600  127.1180   69.7450 C   0  0  0  0  0  0  0  0  0  0  0  0
  127.9890  127.3320   69.5490 C   0  0  0  0  0  0  0  0  0  0  0  0
  127.5130  127.7830   68.3200 C   0  0  0  0  0  0  0  0  0  0  0  0
  128.3940  128.0380   67.2700 C   0  0  0  0  0  0  0  0  0  0  0  0
  127.8030  128.4840   66.0720 N   0  0  0  0  0  0  0  0  0  0  0  0
  127.2310  129.6750   65.7710 C   0  0  0  0  0  0  0  0  0  0  0  0
  127.0960  130.6010   66.5710 O   0  0  0  0  0  0  0  0  0  0  0  0
  126.7390  129.8010   64.3980 C   0  0  0  0  0  0  0  0  0  0  0  0
  125.4340  130.9290   64.0200 S   0  0  0  0  0  0  0  0  0  0  0  0
  125.4430  130.4500   62.3380 C   0  0  0  0  0  0  0  0  0  0  0  0
  124.6100  130.9870   61.4460 N   0  0  0  0  0  0  0  0  0  0  0  0
  124.7190  130.5260   60.1760 C   0  0  0  0  0  0  0  0  0  0  0  0
  123.7590  131.1460   59.1780 C   0  0  0  0  0  0  0  0  0  0  0  0
  125.6340  129.5530   59.7800 C   0  0  0  0  0  0  0  0  0  0  0  0
  126.5080  128.9910   60.7190 C   0  0  0  0  0  0  0  0  0  0  0  0
  127.4880  127.9310   60.2390 C   0  0  0  0  0  0  0  0  0  0  0  0
  126.4210  129.4460   62.0630 C   0  0  0  0  0  0  0  0  0  0  0  0
  127.1400  129.0910   63.2560 C   0  0  0  0  0  0  0  0  0  0  0  0
  128.1310  128.1410   63.2570 N   0  0  0  0  0  0  0  0  0  0  0  0
  129.7680  127.8230   67.4560 C   0  0  0  0  0  0  0  0  0  0  0  0
  130.2430  127.3690   68.6840 C   0  0  0  0  0  0  0  0  0  0  0  0
  128.3565  127.2091   73.7821 H   0  0  0  0  0  0  0  0  0  0  0  0
  128.7273  128.3730   72.4652 H   0  0  0  0  0  0  0  0  0  0  0  0
  127.1664  127.4842   72.4652 H   0  0  0  0  0  0  0  0  0  0  0  0
  127.2837  127.1425   70.3716 H   0  0  0  0  0  0  0  0  0  0  0  0
  126.4336  127.9392   68.1768 H   0  0  0  0  0  0  0  0  0  0  0  0
  127.8000  127.7960   65.3350 H   0  0  0  0  0  0  0  0  0  0  0  0
  122.9539  131.6659   59.7180 H   0  0  0  0  0  0  0  0  0  0  0  0
  124.3008  131.8653   58.5462 H   0  0  0  0  0  0  0  0  0  0  0  0
  123.3263  130.3563   58.5462 H   0  0  0  0  0  0  0  0  0  0  0  0
  125.6700  129.2263   58.7303 H   0  0  0  0  0  0  0  0  0  0  0  0
  127.9463  127.4353   61.1074 H   0  0  0  0  0  0  0  0  0  0  0  0
  126.9537  127.1859   59.6313 H   0  0  0  0  0  0  0  0  0  0  0  0
  128.2726  128.4054   59.6313 H   0  0  0  0  0  0  0  0  0  0  0  0
  127.9240  127.1540   63.2180 H   0  0  0  0  0  0  0  0  0  0  0  0
  129.1070  128.4020   63.3030 H   0  0  0  0  0  0  0  0  0  0  0  0
  130.4706  128.0132   66.6313 H   0  0  0  0  0  0  0  0  0  0  0  0
  131.3218  127.2055   68.8235 H   0  0  0  0  0  0  0  0  0  0  0  0
  1  2  1  0
  2  3  1  0
  3  4  2  0
  3  5  1  0
  5  6  2  0
  6  7  1  0
  7  8  2  0
  8  9  1  0
  9 10  1  0
 10 11  2  0
 10 12  1  0
 12 13  1  0
 13 14  1  0
 14 15  2  0
 15 16  1  0
 16 17  1  0
 16 18  2  0
 18 19  1  0
 19 20  1  0
 19 21  2  0
 21 22  1  0
 22 23  1  0
  8 24  1  0
 24 25  2  0
 25  5  1  0
 22 12  2  0
 21 14  1  0
  1 26  1  0
  1 27  1  0
  1 28  1  0
  6 29  1  0
  7 30  1  0
  9 31  1  0
 17 32  1  0
 17 33  1  0
 17 34  1  0
 18 35  1  0
 20 36  1  0
 20 37  1  0
 20 38  1  0
 23 39  1  0
 23 40  1  0
 24 41  1  0
 25 42  1  0
M  END
>  <Binding energies>  (1) 
[-6.87]

>  <Ligand effiencies>  (1) 
[-0.24535714285714286]

>  <Interactions>  (1) 
["V-A:GLU:543:CD:4906, V-B:GLU:543:CG:9879, V-A:HIS:456:CE1:4068, V-B:GLU:543:CD:9880, V-A:HIS:456:CD2:4066, V-B:LYS:547:CE:9922, V-B:GLU:543:C:9874, V-B:ASP:366:CB:8184, V-B:ASP:366:CG:8185, V-A:TYR:539:CE2:4874, H-B:TYR:484:OH:9320, H-B:GLU:543:OE1:9881, H-A:GLU:543:OE1:4907, H-A:GLU:543:OE2:4908, V-A:GLU:543:CB:4904, H-B:GLU:543:OE2:9882, V-B:ILE:369:CG2:8209, V-B:HIS:456:CE1:9042, V-B:ASP:366:CA:8182, V-B:ARG:545:CG:9894, V-A:GLU:543:CG:4905, V-A:GLU:543:C:4900, V-B:GLY:544:C:9884, H-A:HIS:456:ND1:4065"]

$$$$
4ac_Grossjean_2025
     RDKit          3D

 40 42  0  0  0  0  0  0  0  0999 V2000
  129.2570  127.1800   72.0650 C   0  0  0  0  0  0  0  0  0  0  0  0
  129.8500  126.6440   70.8870 O   0  0  0  0  0  0  0  0  0  0  0  0
  129.4350  127.1040   69.6530 C   0  0  0  0  0  0  0  0  0  0  0  0
  128.0640  127.3030   69.4930 C   0  0  0  0  0  0  0  0  0  0  0  0
  127.5510  127.7650   68.2830 C   0  0  0  0  0  0  0  0  0  0  0  0
  128.4090  128.0460   67.2190 C   0  0  0  0  0  0  0  0  0  0  0  0
  127.8000  128.4960   66.0320 N   0  0  0  0  0  0  0  0  0  0  0  0
  127.2310  129.6960   65.7630 C   0  0  0  0  0  0  0  0  0  0  0  0
  127.1310  130.6110   66.5830 O   0  0  0  0  0  0  0  0  0  0  0  0
  126.7160  129.8540   64.4010 C   0  0  0  0  0  0  0  0  0  0  0  0
  125.4200  131.0030   64.0650 S   0  0  0  0  0  0  0  0  0  0  0  0
  125.4200  130.5820   62.3680 C   0  0  0  0  0  0  0  0  0  0  0  0
  124.5900  131.1570   61.4970 N   0  0  0  0  0  0  0  0  0  0  0  0
  124.6930  130.7400   60.2120 C   0  0  0  0  0  0  0  0  0  0  0  0
  123.7400  131.4070   59.2380 C   0  0  0  0  0  0  0  0  0  0  0  0
  125.5960  129.7700   59.7820 C   0  0  0  0  0  0  0  0  0  0  0  0
  126.4660  129.1680   60.6980 C   0  0  0  0  0  0  0  0  0  0  0  0
  127.4340  128.1150   60.1800 C   0  0  0  0  0  0  0  0  0  0  0  0
  126.3890  129.5820   62.0550 C   0  0  0  0  0  0  0  0  0  0  0  0
  127.1150  129.1860   63.2320 C   0  0  0  0  0  0  0  0  0  0  0  0
  128.1050  128.2370   63.1960 N   0  0  0  0  0  0  0  0  0  0  0  0
  129.7880  127.8370   67.3680 C   0  0  0  0  0  0  0  0  0  0  0  0
  130.2960  127.3740   68.5790 C   0  0  0  0  0  0  0  0  0  0  0  0
  129.7409  126.7426   72.9507 H   0  0  0  0  0  0  0  0  0  0  0  0
  129.3882  128.2721   72.0773 H   0  0  0  0  0  0  0  0  0  0  0  0
  128.1837  126.9395   72.0773 H   0  0  0  0  0  0  0  0  0  0  0  0
  127.3815  127.0933   70.3298 H   0  0  0  0  0  0  0  0  0  0  0  0
  126.4667  127.9087   68.1660 H   0  0  0  0  0  0  0  0  0  0  0  0
  127.7590  127.8070   65.2950 H   0  0  0  0  0  0  0  0  0  0  0  0
  122.9642  131.9500   59.7978 H   0  0  0  0  0  0  0  0  0  0  0  0
  124.2974  132.1131   58.6050 H   0  0  0  0  0  0  0  0  0  0  0  0
  123.2674  130.6415   58.6050 H   0  0  0  0  0  0  0  0  0  0  0  0
  125.6251  129.4773   58.7221 H   0  0  0  0  0  0  0  0  0  0  0  0
  127.9063  127.6012   61.0303 H   0  0  0  0  0  0  0  0  0  0  0  0
  126.8866  127.3833   59.5676 H   0  0  0  0  0  0  0  0  0  0  0  0
  128.2090  128.5990   59.5676 H   0  0  0  0  0  0  0  0  0  0  0  0
  127.8970  127.2510   63.1270 H   0  0  0  0  0  0  0  0  0  0  0  0
  129.0810  128.4950   63.2360 H   0  0  0  0  0  0  0  0  0  0  0  0
  130.4685  128.0390   66.5277 H   0  0  0  0  0  0  0  0  0  0  0  0
  131.3789  127.2190   68.6941 H   0  0  0  0  0  0  0  0  0  0  0  0
  1  2  1  0
  2  3  1  0
  3  4  2  0
  4  5  1  0
  5  6  2  0
  6  7  1  0
  7  8  1  0
  8  9  2  0
  8 10  1  0
 10 11  1  0
 11 12  1  0
 12 13  2  0
 13 14  1  0
 14 15  1  0
 14 16  2  0
 16 17  1  0
 17 18  1  0
 17 19  2  0
 19 20  1  0
 20 21  1  0
  6 22  1  0
 22 23  2  0
 23  3  1  0
 20 10  2  0
 19 12  1  0
  1 24  1  0
  1 25  1  0
  1 26  1  0
  4 27  1  0
  5 28  1  0
  7 29  1  0
 15 30  1  0
 15 31  1  0
 15 32  1  0
 16 33  1  0
 18 34  1  0
 18 35  1  0
 18 36  1  0
 21 37  1  0
 21 38  1  0
 22 39  1  0
 23 40  1  0
M  END
>  <Binding energies>  (1) 
[-6.46]

>  <Ligand effiencies>  (1) 
[-0.24846153846153846]

>  <Interactions>  (1) 
["V-A:GLU:543:CD:4906, V-B:GLU:543:CG:9879, V-A:HIS:456:CE1:4068, V-B:GLU:543:CD:9880, V-B:GLU:543:C:9874, V-B:ASP:366:CB:8184, V-B:ASP:366:CG:8185, V-A:TYR:539:CE2:4874, H-B:TYR:484:OH:9320, H-B:GLU:543:OE1:9881, H-A:GLU:543:OE1:4907, H-A:GLU:543:OE2:4908, V-A:GLU:543:CB:4904, H-B:GLU:543:OE2:9882, V-B:ILE:369:CD1:8211, V-B:ILE:369:CG2:8209, V-B:HIS:456:CE1:9042, V-B:ASP:366:CA:8182, V-B:ARG:545:CG:9894, V-A:GLU:543:CG:4905, V-B:ILE:369:CB:8208, V-A:GLU:543:C:4900, V-B:GLY:544:C:9884"]

$$$$
4ad_Grossjean_2025
     RDKit          3D

 36 38  0  0  0  0  0  0  0  0999 V2000
  123.5130  131.4050   59.3870 C   0  0  0  0  0  0  0  0  0  0  0  0
  124.5020  130.7610   60.3400 C   0  0  0  0  0  0  0  0  0  0  0  0
  125.4290  129.8240   59.8870 C   0  0  0  0  0  0  0  0  0  0  0  0
  126.3300  129.2400   60.7850 C   0  0  0  0  0  0  0  0  0  0  0  0
  127.3210  128.2200   60.2450 C   0  0  0  0  0  0  0  0  0  0  0  0
  126.2600  129.6370   62.1480 C   0  0  0  0  0  0  0  0  0  0  0  0
  127.0130  129.2520   63.3110 C   0  0  0  0  0  0  0  0  0  0  0  0
  128.0330  128.3360   63.2510 N   0  0  0  0  0  0  0  0  0  0  0  0
  126.6090  129.8950   64.4920 C   0  0  0  0  0  0  0  0  0  0  0  0
  127.1390  129.7310   65.8460 C   0  0  0  0  0  0  0  0  0  0  0  0
  127.1550  130.6790   66.6340 O   0  0  0  0  0  0  0  0  0  0  0  0
  127.5830  128.4860   66.1490 N   0  0  0  0  0  0  0  0  0  0  0  0
  128.1820  128.0120   67.3330 C   0  0  0  0  0  0  0  0  0  0  0  0
  129.5680  127.8350   67.2880 C   0  0  0  0  0  0  0  0  0  0  0  0
  130.2540  127.3810   68.4110 C   0  0  0  0  0  0  0  0  0  0  0  0
  129.5550  127.1100   69.5840 C   0  0  0  0  0  0  0  0  0  0  0  0
  128.1760  127.2960   69.6460 C   0  0  0  0  0  0  0  0  0  0  0  0
  127.4870  127.7490   68.5240 C   0  0  0  0  0  0  0  0  0  0  0  0
  125.2740  131.0080   64.1850 S   0  0  0  0  0  0  0  0  0  0  0  0
  125.2650  130.6050   62.4840 C   0  0  0  0  0  0  0  0  0  0  0  0
  124.4060  131.1630   61.6300 N   0  0  0  0  0  0  0  0  0  0  0  0
  122.7279  131.9162   59.9635 H   0  0  0  0  0  0  0  0  0  0  0  0
  124.0370  132.1355   58.7532 H   0  0  0  0  0  0  0  0  0  0  0  0
  123.0568  130.6303   58.7532 H   0  0  0  0  0  0  0  0  0  0  0  0
  125.4526  129.5434   58.8237 H   0  0  0  0  0  0  0  0  0  0  0  0
  127.8164  127.7101   61.0844 H   0  0  0  0  0  0  0  0  0  0  0  0
  126.7874  127.4803   59.6301 H   0  0  0  0  0  0  0  0  0  0  0  0
  128.0758  128.7320   59.6301 H   0  0  0  0  0  0  0  0  0  0  0  0
  127.8590  127.3420   63.2390 H   0  0  0  0  0  0  0  0  0  0  0  0
  129.0000  128.6300   63.2090 H   0  0  0  0  0  0  0  0  0  0  0  0
  127.4570  127.7840   65.4360 H   0  0  0  0  0  0  0  0  0  0  0  0
  130.1186  128.0553   66.3616 H   0  0  0  0  0  0  0  0  0  0  0  0
  131.3438  127.2370   68.3717 H   0  0  0  0  0  0  0  0  0  0  0  0
  130.0964  126.7458   70.4696 H   0  0  0  0  0  0  0  0  0  0  0  0
  127.6326  127.0856   70.5790 H   0  0  0  0  0  0  0  0  0  0  0  0
  126.3985  127.9007   68.5709 H   0  0  0  0  0  0  0  0  0  0  0  0
  1  2  1  0
  2  3  2  0
  3  4  1  0
  4  5  1  0
  4  6  2  0
  6  7  1  0
  7  8  1  0
  7  9  2  0
  9 10  1  0
 10 11  2  0
 10 12  1  0
 12 13  1  0
 13 14  2  0
 14 15  1  0
 15 16  2  0
 16 17  1  0
 17 18  2  0
  9 19  1  0
 19 20  1  0
 20 21  2  0
 21  2  1  0
 20  6  1  0
 18 13  1  0
  1 22  1  0
  1 23  1  0
  1 24  1  0
  3 25  1  0
  5 26  1  0
  5 27  1  0
  5 28  1  0
  8 29  1  0
  8 30  1  0
 12 31  1  0
 14 32  1  0
 15 33  1  0
 16 34  1  0
 17 35  1  0
 18 36  1  0
M  END
>  <Binding energies>  (1) 
[-6.54]

>  <Ligand effiencies>  (1) 
[-0.2725]

>  <Interactions>  (1) 
["V-A:GLU:543:CD:4906, V-B:GLU:543:CG:9879, V-A:HIS:456:CE1:4068, V-B:GLU:543:CD:9880, V-B:GLU:543:C:9874, V-B:ASP:366:CB:8184, V-B:ASP:366:CG:8185, V-A:TYR:539:CE2:4874, H-B:TYR:484:OH:9320, H-B:GLU:543:OE1:9881, H-A:GLU:543:OE1:4907, H-A:GLU:543:OE2:4908, V-A:GLU:543:CB:4904, H-B:GLU:543:OE2:9882, V-B:ILE:369:CD1:8211, V-B:ILE:369:CG2:8209, V-B:HIS:456:CE1:9042, V-B:ASP:366:CA:8182, V-B:ARG:545:CG:9894, V-A:GLU:543:CG:4905, V-B:ILE:369:CB:8208, V-A:GLU:543:C:4900, V-B:GLY:544:C:9884"]

$$$$
4ae_Grossjean_2025
     RDKit          3D

 38 40  0  0  0  0  0  0  0  0999 V2000
  127.5540  127.6140   70.7020 C   0  0  0  0  0  0  0  0  0  0  0  0
  128.2970  127.5470   69.3820 C   0  0  0  0  0  0  0  0  0  0  0  0
  129.5900  127.0250   69.2960 C   0  0  0  0  0  0  0  0  0  0  0  0
  130.2150  127.0020   68.0490 C   0  0  0  0  0  0  0  0  0  0  0  0
  129.5410  127.4980   66.9310 C   0  0  0  0  0  0  0  0  0  0  0  0
  128.2450  128.0000   67.0850 C   0  0  0  0  0  0  0  0  0  0  0  0
  127.6260  128.5040   65.9280 N   0  0  0  0  0  0  0  0  0  0  0  0
  126.3420  128.9080   65.7600 C   0  0  0  0  0  0  0  0  0  0  0  0
  125.4920  128.8810   66.6510 O   0  0  0  0  0  0  0  0  0  0  0  0
  126.0080  129.3910   64.4180 C   0  0  0  0  0  0  0  0  0  0  0  0
  124.5440  130.3390   64.1520 S   0  0  0  0  0  0  0  0  0  0  0  0
  124.8680  130.4490   62.4380 C   0  0  0  0  0  0  0  0  0  0  0  0
  124.0520  131.0950   61.6050 N   0  0  0  0  0  0  0  0  0  0  0  0
  124.4150  131.1010   60.3000 C   0  0  0  0  0  0  0  0  0  0  0  0
  123.4680  131.8360   59.3690 C   0  0  0  0  0  0  0  0  0  0  0  0
  125.5660  130.4830   59.8130 C   0  0  0  0  0  0  0  0  0  0  0  0
  126.4210  129.8050   60.6900 C   0  0  0  0  0  0  0  0  0  0  0  0
  127.6620  129.1440   60.1100 C   0  0  0  0  0  0  0  0  0  0  0  0
  126.0710  129.7770   62.0670 C   0  0  0  0  0  0  0  0  0  0  0  0
  126.7030  129.1840   63.2160 C   0  0  0  0  0  0  0  0  0  0  0  0
  127.8780  128.4810   63.1250 N   0  0  0  0  0  0  0  0  0  0  0  0
  127.6290  128.0310   68.3040 N   0  0  0  0  0  0  0  0  0  0  0  0
  128.2735  127.5491   71.5315 H   0  0  0  0  0  0  0  0  0  0  0  0
  127.0054  128.5653   70.7661 H   0  0  0  0  0  0  0  0  0  0  0  0
  126.8440  126.7762   70.7661 H   0  0  0  0  0  0  0  0  0  0  0  0
  130.1030  126.6413   70.1902 H   0  0  0  0  0  0  0  0  0  0  0  0
  131.2322  126.5958   67.9470 H   0  0  0  0  0  0  0  0  0  0  0  0
  130.0232  127.4938   65.9423 H   0  0  0  0  0  0  0  0  0  0  0  0
  128.2120  128.5150   65.1060 H   0  0  0  0  0  0  0  0  0  0  0  0
  122.7367  132.4036   59.9632 H   0  0  0  0  0  0  0  0  0  0  0  0
  124.0412  132.5281   58.7346 H   0  0  0  0  0  0  0  0  0  0  0  0
  122.9398  131.1090   58.7346 H   0  0  0  0  0  0  0  0  0  0  0  0
  125.8023  130.5282   58.7396 H   0  0  0  0  0  0  0  0  0  0  0  0
  128.3102  128.7987   60.9289 H   0  0  0  0  0  0  0  0  0  0  0  0
  127.3644  128.2849   59.4908 H   0  0  0  0  0  0  0  0  0  0  0  0
  128.2089  129.8703   59.4908 H   0  0  0  0  0  0  0  0  0  0  0  0
  128.7620  128.9390   62.9530 H   0  0  0  0  0  0  0  0  0  0  0  0
  127.8980  127.4760   63.2300 H   0  0  0  0  0  0  0  0  0  0  0  0
  1  2  1  0
  2  3  2  0
  3  4  1  0
  4  5  2  0
  5  6  1  0
  6  7  1  0
  7  8  1  0
  8  9  2  0
  8 10  1  0
 10 11  1  0
 11 12  1  0
 12 13  2  0
 13 14  1  0
 14 15  1  0
 14 16  2  0
 16 17  1  0
 17 18  1  0
 17 19  2  0
 19 20  1  0
 20 21  1  0
  6 22  2  0
 22  2  1  0
 20 10  2  0
 19 12  1  0
  1 23  1  0
  1 24  1  0
  1 25  1  0
  3 26  1  0
  4 27  1  0
  5 28  1  0
  7 29  1  0
 15 30  1  0
 15 31  1  0
 15 32  1  0
 16 33  1  0
 18 34  1  0
 18 35  1  0
 18 36  1  0
 21 37  1  0
 21 38  1  0
M  END
>  <Binding energies>  (1) 
[-6.73]

>  <Ligand effiencies>  (1) 
[-0.2692]

>  <Interactions>  (1) 
["V-A:GLU:543:CD:4906, V-B:GLU:543:CG:9879, V-A:HIS:456:CE1:4068, V-B:GLU:543:CD:9880, V-B:GLY:544:CA:9886, V-B:ASP:366:CG:8185, V-A:TYR:539:CE2:4874, H-B:TYR:484:OH:9320, H-B:GLU:543:OE1:9881, V-B:ARG:545:CZ:9898, H-A:GLU:543:OE1:4907, H-A:GLU:543:OE2:4908, V-A:GLU:543:CB:4904, H-B:GLU:543:OE2:9882, V-B:ILE:369:CD1:8211, V-B:ILE:369:CG2:8209, V-B:HIS:456:CE1:9042, V-B:ARG:545:CG:9894, H-B:ARG:545:NE:9896, V-A:GLU:543:CG:4905, V-B:ILE:369:CB:8208, V-B:HIS:456:CG:9038, V-B:HIS:456:CD2:9040, V-B:GLY:544:C:9884, V-B:ARG:545:CD:9895, H-B:HIS:456:ND1:9039"]

$$$$
4af_Grossjean_2025
     RDKit          3D

 35 37  0  0  0  0  0  0  0  0999 V2000
  123.5700  131.4100   59.3470 C   0  0  0  0  0  0  0  0  0  0  0  0
  124.5510  130.7580   60.3050 C   0  0  0  0  0  0  0  0  0  0  0  0
  125.4520  129.7930   59.8610 C   0  0  0  0  0  0  0  0  0  0  0  0
  126.3460  129.2020   60.7630 C   0  0  0  0  0  0  0  0  0  0  0  0
  127.3100  128.1530   60.2320 C   0  0  0  0  0  0  0  0  0  0  0  0
  126.2920  129.6210   62.1200 C   0  0  0  0  0  0  0  0  0  0  0  0
  127.0410  129.2340   63.2850 C   0  0  0  0  0  0  0  0  0  0  0  0
  128.0360  128.2890   63.2350 N   0  0  0  0  0  0  0  0  0  0  0  0
  126.6620  129.9060   64.4570 C   0  0  0  0  0  0  0  0  0  0  0  0
  127.1860  129.7390   65.8140 C   0  0  0  0  0  0  0  0  0  0  0  0
  127.1290  130.6630   66.6270 O   0  0  0  0  0  0  0  0  0  0  0  0
  127.7050  128.5170   66.0890 N   0  0  0  0  0  0  0  0  0  0  0  0
  128.3230  128.0510   67.2640 C   0  0  0  0  0  0  0  0  0  0  0  0
  129.7040  127.8360   67.4300 C   0  0  0  0  0  0  0  0  0  0  0  0
  130.1870  127.3520   68.6470 C   0  0  0  0  0  0  0  0  0  0  0  0
  129.2760  127.0890   69.6710 C   0  0  0  0  0  0  0  0  0  0  0  0
  127.9400  127.2790   69.5340 N   0  0  0  0  0  0  0  0  0  0  0  0
  127.4860  127.7500   68.3450 C   0  0  0  0  0  0  0  0  0  0  0  0
  125.3510  131.0450   64.1420 S   0  0  0  0  0  0  0  0  0  0  0  0
  125.3230  130.6170   62.4460 C   0  0  0  0  0  0  0  0  0  0  0  0
  124.4710  131.1820   61.5900 N   0  0  0  0  0  0  0  0  0  0  0  0
  122.7881  131.9297   59.9202 H   0  0  0  0  0  0  0  0  0  0  0  0
  124.1027  132.1344   58.7134 H   0  0  0  0  0  0  0  0  0  0  0  0
  123.1084  130.6383   58.7134 H   0  0  0  0  0  0  0  0  0  0  0  0
  125.4615  129.4951   58.8022 H   0  0  0  0  0  0  0  0  0  0  0  0
  127.7876  127.6333   61.0757 H   0  0  0  0  0  0  0  0  0  0  0  0
  126.7586  127.4256   59.6180 H   0  0  0  0  0  0  0  0  0  0  0  0
  128.0813  128.6411   59.6180 H   0  0  0  0  0  0  0  0  0  0  0  0
  127.8320  127.3010   63.1820 H   0  0  0  0  0  0  0  0  0  0  0  0
  129.0110  128.5540   63.2450 H   0  0  0  0  0  0  0  0  0  0  0  0
  127.6390  127.8300   65.3530 H   0  0  0  0  0  0  0  0  0  0  0  0
  130.3994  128.0484   66.6046 H   0  0  0  0  0  0  0  0  0  0  0  0
  131.2635  127.1814   68.7958 H   0  0  0  0  0  0  0  0  0  0  0  0
  129.6580  126.7112   70.6309 H   0  0  0  0  0  0  0  0  0  0  0  0
  126.4034  127.9033   68.2243 H   0  0  0  0  0  0  0  0  0  0  0  0
  1  2  1  0
  2  3  2  0
  3  4  1  0
  4  5  1  0
  4  6  2  0
  6  7  1  0
  7  8  1  0
  7  9  2  0
  9 10  1  0
 10 11  2  0
 10 12  1  0
 12 13  1  0
 13 14  2  0
 14 15  1  0
 15 16  2  0
 16 17  1  0
 17 18  2  0
  9 19  1  0
 19 20  1  0
 20 21  2  0
 21  2  1  0
 20  6  1  0
 18 13  1  0
  1 22  1  0
  1 23  1  0
  1 24  1  0
  3 25  1  0
  5 26  1  0
  5 27  1  0
  5 28  1  0
  8 29  1  0
  8 30  1  0
 12 31  1  0
 14 32  1  0
 15 33  1  0
 16 34  1  0
 18 35  1  0
M  END
>  <Binding energies>  (1) 
[-6.24]

>  <Ligand effiencies>  (1) 
[-0.26]

>  <Interactions>  (1) 
["V-A:GLU:543:CD:4906, V-B:GLU:543:CG:9879, V-A:HIS:456:CE1:4068, V-B:GLU:543:CD:9880, V-B:ASP:366:CB:8184, V-B:ASP:366:CG:8185, V-A:TYR:539:CE2:4874, H-B:TYR:484:OH:9320, H-B:GLU:543:OE1:9881, H-A:GLU:543:OE1:4907, H-A:GLU:543:OE2:4908, V-A:GLU:543:CB:4904, H-B:GLU:543:OE2:9882, V-B:ILE:369:CD1:8211, V-B:ILE:369:CG2:8209, V-B:HIS:456:CE1:9042, V-B:ASP:366:CA:8182, V-B:ARG:545:CG:9894, V-A:GLU:543:CG:4905, V-B:ILE:369:CB:8208, V-A:GLU:543:C:4900"]

$$$$
4ag_Grossjean_2025
     RDKit          3D

 39 41  0  0  0  0  0  0  0  0999 V2000
  133.9490  123.5380   59.1520 C   0  0  0  0  0  0  0  0  0  0  0  0
  133.0380  124.2120   60.1620 C   0  0  0  0  0  0  0  0  0  0  0  0
  131.9400  124.9640   59.7470 C   0  0  0  0  0  0  0  0  0  0  0  0
  131.1120  125.5760   60.6940 C   0  0  0  0  0  0  0  0  0  0  0  0
  129.9260  126.3850   60.1920 C   0  0  0  0  0  0  0  0  0  0  0  0
  131.4340  125.4020   62.0670 C   0  0  0  0  0  0  0  0  0  0  0  0
  130.8160  125.8770   63.2750 C   0  0  0  0  0  0  0  0  0  0  0  0
  129.6890  126.6610   63.2630 N   0  0  0  0  0  0  0  0  0  0  0  0
  131.4690  125.4690   64.4470 C   0  0  0  0  0  0  0  0  0  0  0  0
  131.1100  125.7590   65.8350 C   0  0  0  0  0  0  0  0  0  0  0  0
  130.5060  124.9360   66.5270 O   0  0  0  0  0  0  0  0  0  0  0  0
  131.4610  126.9770   66.2980 N   0  0  0  0  0  0  0  0  0  0  0  0
  131.2270  127.4680   67.6550 C   0  0  0  0  0  0  0  0  0  0  0  0
  129.7680  127.4110   68.0910 C   0  0  0  0  0  0  0  0  0  0  0  0
  129.4490  127.3950   69.4520 C   0  0  0  0  0  0  0  0  0  0  0  0
  128.1160  127.3680   69.8540 C   0  0  0  0  0  0  0  0  0  0  0  0
  127.1060  127.3690   68.8930 C   0  0  0  0  0  0  0  0  0  0  0  0
  127.4160  127.4010   67.5360 C   0  0  0  0  0  0  0  0  0  0  0  0
  128.7490  127.4290   67.1340 C   0  0  0  0  0  0  0  0  0  0  0  0
  132.8730  124.4670   64.0810 S   0  0  0  0  0  0  0  0  0  0  0  0
  132.5830  124.6090   62.3620 C   0  0  0  0  0  0  0  0  0  0  0  0
  133.3740  124.0230   61.4610 N   0  0  0  0  0  0  0  0  0  0  0  0
  134.7238  122.9648   59.6823 H   0  0  0  0  0  0  0  0  0  0  0  0
  133.3575  122.8584   58.5209 H   0  0  0  0  0  0  0  0  0  0  0  0
  134.4259  124.3024   58.5209 H   0  0  0  0  0  0  0  0  0  0  0  0
  131.7245  125.0762   58.6742 H   0  0  0  0  0  0  0  0  0  0  0  0
  129.3573  126.7729   61.0499 H   0  0  0  0  0  0  0  0  0  0  0  0
  130.2876  127.2256   59.5815 H   0  0  0  0  0  0  0  0  0  0  0  0
  129.2753  125.7416   59.5815 H   0  0  0  0  0  0  0  0  0  0  0  0
  129.7410  127.6690   63.3020 H   0  0  0  0  0  0  0  0  0  0  0  0
  128.7660  126.2530   63.2110 H   0  0  0  0  0  0  0  0  0  0  0  0
  132.0040  127.5780   65.6950 H   0  0  0  0  0  0  0  0  0  0  0  0
  131.8203  126.8570   68.3512 H   0  0  0  0  0  0  0  0  0  0  0  0
  131.5214  128.5278   67.6655 H   0  0  0  0  0  0  0  0  0  0  0  0
  130.2507  127.4037   70.2051 H   0  0  0  0  0  0  0  0  0  0  0  0
  127.8614  127.3460   70.9239 H   0  0  0  0  0  0  0  0  0  0  0  0
  126.0530  127.3442   69.2102 H   0  0  0  0  0  0  0  0  0  0  0  0
  126.6120  127.4041   66.7852 H   0  0  0  0  0  0  0  0  0  0  0  0
  129.0001  127.4653   66.0637 H   0  0  0  0  0  0  0  0  0  0  0  0
  1  2  1  0
  2  3  2  0
  3  4  1  0
  4  5  1  0
  4  6  2  0
  6  7  1  0
  7  8  1  0
  7  9  2  0
  9 10  1  0
 10 11  2  0
 10 12  1  0
 12 13  1  0
 13 14  1  0
 14 15  2  0
 15 16  1  0
 16 17  2  0
 17 18  1  0
 18 19  2  0
  9 20  1  0
 20 21  1  0
 21 22  2  0
 22  2  1  0
 21  6  1  0
 19 14  1  0
  1 23  1  0
  1 24  1  0
  1 25  1  0
  3 26  1  0
  5 27  1  0
  5 28  1  0
  5 29  1  0
  8 30  1  0
  8 31  1  0
 12 32  1  0
 13 33  1  0
 13 34  1  0
 15 35  1  0
 16 36  1  0
 17 37  1  0
 18 38  1  0
 19 39  1  0
M  END
>  <Binding energies>  (1) 
[-7.15]

>  <Ligand effiencies>  (1) 
[-0.28600000000000003]

>  <Interactions>  (1) 
["V-A:GLU:543:CD:4906, V-A:ASP:366:CG:3211, V-B:GLU:543:CG:9879, V-A:HIS:456:CE1:4068, V-A:ILE:369:CB:3234, V-B:TYR:539:CE2:9848, V-A:ARG:545:CD:4921, V-A:ILE:369:CD1:3237, V-A:ILE:369:CG2:3235, V-A:ARG:545:CG:4920, V-B:GLU:543:CD:9880, V-A:ARG:545:CZ:4924, V-A:GLY:454:CA:4047, V-A:ASP:366:CA:3208, V-B:GLU:543:C:9874, H-B:GLU:543:OE1:9881, H-A:TYR:484:OH:4346, H-A:GLU:543:OE1:4907, H-A:GLU:543:OE2:4908, H-B:GLU:543:OE2:9882, V-B:HIS:456:CE1:9042, V-B:ARG:545:CG:9894, V-A:GLU:543:CG:4905, V-B:GLY:544:C:9884, V-B:ARG:545:CA:9891"]

$$$$
4ah_Grossjean_2025
     RDKit          3D

 51 53  0  0  0  0  0  0  0  0999 V2000
  127.0100  123.8710   61.0580 C   0  0  0  0  0  0  0  0  0  0  0  0
  127.9440  122.8010   60.9720 O   0  0  0  0  0  0  0  0  0  0  0  0
  129.2790  123.0420   61.2440 C   0  0  0  0  0  0  0  0  0  0  0  0
  129.7530  124.2000   61.8800 C   0  0  0  0  0  0  0  0  0  0  0  0
  131.1160  124.3760   62.1210 C   0  0  0  0  0  0  0  0  0  0  0  0
  131.6080  125.6190   62.8550 C   0  0  0  0  0  0  0  0  0  0  0  0
  130.7850  126.8040   62.6140 N   0  0  0  0  0  0  0  0  0  0  0  0
  130.5040  127.3280   61.4030 C   0  0  0  0  0  0  0  0  0  0  0  0
  130.9590  126.8640   60.3560 O   0  0  0  0  0  0  0  0  0  0  0  0
  129.6530  128.5170   61.4010 C   0  0  0  0  0  0  0  0  0  0  0  0
  130.1430  129.9570   60.5060 S   0  0  0  0  0  0  0  0  0  0  0  0
  128.7180  130.8240   61.0320 C   0  0  0  0  0  0  0  0  0  0  0  0
  128.4780  132.0810   60.6580 N   0  0  0  0  0  0  0  0  0  0  0  0
  127.3370  132.6360   61.1330 C   0  0  0  0  0  0  0  0  0  0  0  0
  127.0850  134.0680   60.6980 C   0  0  0  0  0  0  0  0  0  0  0  0
  126.4400  131.9710   61.9650 C   0  0  0  0  0  0  0  0  0  0  0  0
  126.6950  130.6520   62.3590 C   0  0  0  0  0  0  0  0  0  0  0  0
  125.6860  129.9680   63.2680 C   0  0  0  0  0  0  0  0  0  0  0  0
  127.8830  130.0360   61.8810 C   0  0  0  0  0  0  0  0  0  0  0  0
  128.4470  128.7280   62.0850 C   0  0  0  0  0  0  0  0  0  0  0  0
  127.8410  127.7820   62.8720 N   0  0  0  0  0  0  0  0  0  0  0  0
  132.0160  123.3760   61.7490 C   0  0  0  0  0  0  0  0  0  0  0  0
  131.5710  122.2100   61.1060 C   0  0  0  0  0  0  0  0  0  0  0  0
  132.4080  121.1870   60.6970 O   0  0  0  0  0  0  0  0  0  0  0  0
  133.7990  121.2640   60.9900 C   0  0  0  0  0  0  0  0  0  0  0  0
  130.2010  122.0580   60.8540 C   0  0  0  0  0  0  0  0  0  0  0  0
  129.7490  120.9140   60.2410 O   0  0  0  0  0  0  0  0  0  0  0  0
  130.0100  119.7240   60.9740 C   0  0  0  0  0  0  0  0  0  0  0  0
  126.8105  124.0995   62.1154 H   0  0  0  0  0  0  0  0  0  0  0  0
  127.4253  124.7610   60.5626 H   0  0  0  0  0  0  0  0  0  0  0  0
  126.0721  123.5797   60.5626 H   0  0  0  0  0  0  0  0  0  0  0  0
  129.0412  124.9783   62.1923 H   0  0  0  0  0  0  0  0  0  0  0  0
  131.6074  125.4086   63.9347 H   0  0  0  0  0  0  0  0  0  0  0  0
  132.6153  125.8421   62.4735 H   0  0  0  0  0  0  0  0  0  0  0  0
  130.3110  127.1860   63.4200 H   0  0  0  0  0  0  0  0  0  0  0  0
  126.9726  134.7067   61.5865 H   0  0  0  0  0  0  0  0  0  0  0  0
  127.9344  134.4233   60.0961 H   0  0  0  0  0  0  0  0  0  0  0  0
  126.1653  134.1119   60.0961 H   0  0  0  0  0  0  0  0  0  0  0  0
  125.5304  132.4824   62.3129 H   0  0  0  0  0  0  0  0  0  0  0  0
  125.9559  130.1509   64.3186 H   0  0  0  0  0  0  0  0  0  0  0  0
  124.6821  130.3726   63.0715 H   0  0  0  0  0  0  0  0  0  0  0  0
  125.6901  128.8857   63.0715 H   0  0  0  0  0  0  0  0  0  0  0  0
  128.1410  126.8190   62.8750 H   0  0  0  0  0  0  0  0  0  0  0  0
  127.0650  128.0210   63.4750 H   0  0  0  0  0  0  0  0  0  0  0  0
  133.0876  123.5031   61.9624 H   0  0  0  0  0  0  0  0  0  0  0  0
  133.9441  121.2720   62.0804 H   0  0  0  0  0  0  0  0  0  0  0  0
  134.3135  120.3930   60.5580 H   0  0  0  0  0  0  0  0  0  0  0  0
  134.2142  122.1865   60.5580 H   0  0  0  0  0  0  0  0  0  0  0  0
  129.9628  119.9394   62.0517 H   0  0  0  0  0  0  0  0  0  0  0  0
  129.2573  118.9636   60.7187 H   0  0  0  0  0  0  0  0  0  0  0  0
  131.0119  119.3484   60.7187 H   0  0  0  0  0  0  0  0  0  0  0  0
  1  2  1  0
  2  3  1  0
  3  4  2  0
  4  5  1  0
  5  6  1  0
  6  7  1  0
  7  8  1  0
  8  9  2  0
  8 10  1  0
 10 11  1  0
 11 12  1  0
 12 13  2  0
 13 14  1  0
 14 15  1  0
 14 16  2  0
 16 17  1  0
 17 18  1  0
 17 19  2  0
 19 20  1  0
 20 21  1  0
  5 22  2  0
 22 23  1  0
 23 24  1  0
 24 25  1  0
 23 26  2  0
 26 27  1  0
 27 28  1  0
 26  3  1  0
 20 10  2  0
 19 12  1  0
  1 29  1  0
  1 30  1  0
  1 31  1  0
  4 32  1  0
  6 33  1  0
  6 34  1  0
  7 35  1  0
 15 36  1  0
 15 37  1  0
 15 38  1  0
 16 39  1  0
 18 40  1  0
 18 41  1  0
 18 42  1  0
 21 43  1  0
 21 44  1  0
 22 45  1  0
 25 46  1  0
 25 47  1  0
 25 48  1  0
 28 49  1  0
 28 50  1  0
 28 51  1  0
M  END
>  <Binding energies>  (1) 
[-5.6]

>  <Ligand effiencies>  (1) 
[-0.18064516129032257]

>  <Interactions>  (1) 
["V-A:GLU:543:CD:4906, V-A:ILE:369:CD1:3237, V-A:ILE:369:CG2:3235, V-B:GLU:543:CD:9880, V-A:ARG:545:CZ:4924, V-B:TYR:539:CD2:9846, V-B:PRO:540:CA:9855, H-B:ALA:541:N:9863, V-B:ALA:541:CB:9864, V-A:TYR:539:CE2:4874, V-A:TYR:539:CD2:4872, V-A:LEU:475:CD2:4257, V-A:ALA:541:CB:4890, H-B:GLU:543:OE1:9881, V-B:ARG:545:CZ:9898, H-A:GLU:543:OE1:4907, H-A:GLU:543:OE2:4908, H-A:ARG:545:NH2:4926, H-B:GLU:543:OE2:9882, V-A:PRO:482:CG:4325, V-A:PRO:482:CB:4324, V-A:TRP:381:CH2:3370"]

$$$$
4ai_Grossjean_2025
     RDKit          3D

 32 34  0  0  0  0  0  0  0  0999 V2000
  127.1310  135.7350   60.6270 C   0  0  0  0  0  0  0  0  0  0  0  0
  126.5210  134.4580   61.1760 C   0  0  0  0  0  0  0  0  0  0  0  0
  125.4760  133.8190   60.5120 C   0  0  0  0  0  0  0  0  0  0  0  0
  124.9330  132.6390   61.0330 C   0  0  0  0  0  0  0  0  0  0  0  0
  123.7950  131.9780   60.2700 C   0  0  0  0  0  0  0  0  0  0  0  0
  125.4830  132.1330   62.2420 C   0  0  0  0  0  0  0  0  0  0  0  0
  125.1760  130.9740   63.0360 C   0  0  0  0  0  0  0  0  0  0  0  0
  124.1800  130.0940   62.6930 N   0  0  0  0  0  0  0  0  0  0  0  0
  125.9850  130.8310   64.1740 C   0  0  0  0  0  0  0  0  0  0  0  0
  125.9410  129.7850   65.1980 C   0  0  0  0  0  0  0  0  0  0  0  0
  124.8720  129.2610   65.5170 O   0  0  0  0  0  0  0  0  0  0  0  0
  127.1410  129.4450   65.7330 N   0  0  0  0  0  0  0  0  0  0  0  0
  127.3900  128.4860   66.7060 C   0  0  0  0  0  0  0  0  0  0  0  0
  128.6260  128.3450   67.3380 C   0  0  0  0  0  0  0  0  0  0  0  0
  128.4610  127.2980   68.2160 C   0  0  0  0  0  0  0  0  0  0  0  0
  127.1930  126.8340   68.1190 O   0  0  0  0  0  0  0  0  0  0  0  0
  126.5230  127.5950   67.1600 N   0  0  0  0  0  0  0  0  0  0  0  0
  127.1430  132.1580   64.3030 S   0  0  0  0  0  0  0  0  0  0  0  0
  126.5510  132.8810   62.8230 C   0  0  0  0  0  0  0  0  0  0  0  0
  127.0700  134.0060   62.3300 N   0  0  0  0  0  0  0  0  0  0  0  0
  127.4400  136.3819   61.4613 H   0  0  0  0  0  0  0  0  0  0  0  0
  128.0079  135.4871   60.0109 H   0  0  0  0  0  0  0  0  0  0  0  0
  126.3871  136.2614   60.0109 H   0  0  0  0  0  0  0  0  0  0  0  0
  125.0776  134.2421   59.5780 H   0  0  0  0  0  0  0  0  0  0  0  0
  123.0709  131.5574   60.9833 H   0  0  0  0  0  0  0  0  0  0  0  0
  123.2945  132.7259   59.6375 H   0  0  0  0  0  0  0  0  0  0  0  0
  124.1967  131.1727   59.6375 H   0  0  0  0  0  0  0  0  0  0  0  0
  123.7540  129.4810   63.3720 H   0  0  0  0  0  0  0  0  0  0  0  0
  123.8430  130.0280   61.7420 H   0  0  0  0  0  0  0  0  0  0  0  0
  127.9530  129.9320   65.3860 H   0  0  0  0  0  0  0  0  0  0  0  0
  129.5351  128.9413   67.1708 H   0  0  0  0  0  0  0  0  0  0  0  0
  129.2356  126.9016   68.8889 H   0  0  0  0  0  0  0  0  0  0  0  0
  1  2  1  0
  2  3  2  0
  3  4  1  0
  4  5  1  0
  4  6  2  0
  6  7  1  0
  7  8  1  0
  7  9  2  0
  9 10  1  0
 10 11  2  0
 10 12  1  0
 12 13  1  0
 13 14  1  0
 14 15  2  0
 15 16  1  0
 16 17  1  0
  9 18  1  0
 18 19  1  0
 19 20  2  0
 20  2  1  0
 19  6  1  0
 17 13  2  0
  1 21  1  0
  1 22  1  0
  1 23  1  0
  3 24  1  0
  5 25  1  0
  5 26  1  0
  5 27  1  0
  8 28  1  0
  8 29  1  0
 12 30  1  0
 14 31  1  0
 15 32  1  0
M  END
>  <Binding energies>  (1) 
[-6.52]

>  <Ligand effiencies>  (1) 
[-0.2834782608695652]

>  <Interactions>  (1) 
["V-A:GLU:543:CD:4906, V-B:GLU:543:CG:9879, V-B:GLU:543:CD:9880, V-B:GLU:543:C:9874, V-A:TYR:539:CE2:4874, H-B:ARG:545:NH2:9900, V-A:TYR:539:CD2:4872, H-B:ASP:366:OD1:8186, V-B:LEU:475:CD2:9231, V-A:ALA:541:CB:4890, H-B:TYR:484:OH:9320, V-B:ARG:545:CZ:9898, H-A:GLU:543:OE1:4907, H-A:GLU:543:OE2:4908, V-A:GLU:543:CB:4904, V-B:ILE:369:CD1:8211, V-B:ILE:369:CG2:8209, V-B:HIS:456:CE1:9042, V-B:TYR:484:CE1:9317, V-B:TYR:484:CZ:9319, H-B:ARG:545:NE:9896, V-A:GLU:543:CG:4905, V-B:ILE:369:CB:8208, V-B:PRO:482:CG:9299, V-B:PRO:482:CB:9298, V-B:TRP:381:CZ2:8342, V-B:TRP:381:CH2:8344, V-B:TRP:381:CZ3:8343"]

$$$$
4aj_Grossjean_2025
     RDKit          3D

 32 34  0  0  0  0  0  0  0  0999 V2000
  123.1470  124.1540   57.4310 C   0  0  0  0  0  0  0  0  0  0  0  0
  124.3620  123.9650   58.3200 C   0  0  0  0  0  0  0  0  0  0  0  0
  124.2490  124.0060   59.7080 C   0  0  0  0  0  0  0  0  0  0  0  0
  125.3840  123.8350   60.5080 C   0  0  0  0  0  0  0  0  0  0  0  0
  125.2090  123.8880   62.0180 C   0  0  0  0  0  0  0  0  0  0  0  0
  126.6290  123.6200   59.8580 C   0  0  0  0  0  0  0  0  0  0  0  0
  127.9610  123.4130   60.3580 C   0  0  0  0  0  0  0  0  0  0  0  0
  128.2450  123.3950   61.6990 N   0  0  0  0  0  0  0  0  0  0  0  0
  128.9240  123.2290   59.3540 C   0  0  0  0  0  0  0  0  0  0  0  0
  130.3640  123.0060   59.5020 C   0  0  0  0  0  0  0  0  0  0  0  0
  131.1770  123.7300   58.9230 O   0  0  0  0  0  0  0  0  0  0  0  0
  130.7130  121.9790   60.3150 N   0  0  0  0  0  0  0  0  0  0  0  0
  132.0000  121.5670   60.6330 C   0  0  0  0  0  0  0  0  0  0  0  0
  132.6980  120.5980   60.0790 N   0  0  0  0  0  0  0  0  0  0  0  0
  133.8920  120.4850   60.6280 C   0  0  0  0  0  0  0  0  0  0  0  0
  134.1840  121.3780   61.6560 C   0  0  0  0  0  0  0  0  0  0  0  0
  132.8130  122.4180   61.9060 S   0  0  0  0  0  0  0  0  0  0  0  0
  128.1980  123.3250   57.7480 S   0  0  0  0  0  0  0  0  0  0  0  0
  126.6110  123.5970   58.4300 C   0  0  0  0  0  0  0  0  0  0  0  0
  125.5310  123.7610   57.6640 N   0  0  0  0  0  0  0  0  0  0  0  0
  122.2530  124.2931   58.0566 H   0  0  0  0  0  0  0  0  0  0  0  0
  123.2916  125.0404   56.7959 H   0  0  0  0  0  0  0  0  0  0  0  0
  123.0155  123.2655   56.7959 H   0  0  0  0  0  0  0  0  0  0  0  0
  123.2672  124.1729   60.1750 H   0  0  0  0  0  0  0  0  0  0  0  0
  126.1522  123.6023   62.5067 H   0  0  0  0  0  0  0  0  0  0  0  0
  124.9345  124.9096   62.3197 H   0  0  0  0  0  0  0  0  0  0  0  0
  124.4138  123.1904   62.3197 H   0  0  0  0  0  0  0  0  0  0  0  0
  128.0520  122.5890   62.2750 H   0  0  0  0  0  0  0  0  0  0  0  0
  128.6590  124.1950   62.1600 H   0  0  0  0  0  0  0  0  0  0  0  0
  129.9660  121.4540   60.7450 H   0  0  0  0  0  0  0  0  0  0  0  0
  134.6163  119.7280   60.2927 H   0  0  0  0  0  0  0  0  0  0  0  0
  135.1285  121.4188   62.2184 H   0  0  0  0  0  0  0  0  0  0  0  0
  1  2  1  0
  2  3  2  0
  3  4  1  0
  4  5  1  0
  4  6  2  0
  6  7  1  0
  7  8  1  0
  7  9  2  0
  9 10  1  0
 10 11  2  0
 10 12  1  0
 12 13  1  0
 13 14  2  0
 14 15  1  0
 15 16  2  0
 16 17  1  0
  9 18  1  0
 18 19  1  0
 19 20  2  0
 20  2  1  0
 19  6  1  0
 17 13  1  0
  1 21  1  0
  1 22  1  0
  1 23  1  0
  3 24  1  0
  5 25  1  0
  5 26  1  0
  5 27  1  0
  8 28  1  0
  8 29  1  0
 12 30  1  0
 15 31  1  0
 16 32  1  0
M  END
>  <Binding energies>  (1) 
[-6.24]

>  <Ligand effiencies>  (1) 
[-0.271304347826087]

>  <Interactions>  (1) 
["V-B:TYR:539:CE2:9848, V-A:ILE:369:CD1:3237, V-A:ILE:369:CG2:3235, V-B:GLU:543:CD:9880, V-A:GLY:454:CA:4047, V-B:ASP:366:CB:8184, V-B:ASN:362:CB:8148, V-B:LEU:363:CA:8157, V-B:PRO:540:CB:9857, V-B:ASP:366:CG:8185, V-B:TYR:531:CE2:9765, V-B:LEU:363:CD1:8161, V-B:PRO:540:C:9853, V-B:TYR:531:CZ:9766, V-B:LEU:363:CB:8159, V-B:TYR:539:CD2:9846, V-B:PRO:540:N:9856, V-B:PRO:540:CA:9855, V-B:ALA:541:CB:9864, V-A:LEU:475:CD2:4257, V-B:TYR:539:C:9839, H-B:GLU:543:OE1:9881, V-B:ARG:545:CZ:9898, H-B:GLU:543:OE2:9882, H-B:TYR:539:O:9840, V-A:TRP:381:CH2:3370, V-B:ALA:541:C:9860, H-B:ALA:541:O:9861, V-A:SER:385:C:3403"]

$$$$
4ak_Grossjean_2025
     RDKit          3D

 50 51  0  0  0  0  0  0  0  0999 V2000
  126.2190  128.8470   74.1590 C   0  0  0  0  0  0  0  0  0  0  0  0
  127.5950  128.8780   73.8120 O   0  0  0  0  0  0  0  0  0  0  0  0
  127.8890  128.1870   72.6040 C   0  0  0  0  0  0  0  0  0  0  0  0
  129.0040  128.9250   71.8520 C   0  0  0  0  0  0  0  0  0  0  0  0
  129.9670  127.9840   71.3950 O   0  0  0  0  0  0  0  0  0  0  0  0
  129.4270  126.9710   70.5570 C   0  0  0  0  0  0  0  0  0  0  0  0
  129.6720  127.3430   69.0890 C   0  0  0  0  0  0  0  0  0  0  0  0
  128.5680  128.0960   68.6050 O   0  0  0  0  0  0  0  0  0  0  0  0
  128.2260  127.8090   67.2550 C   0  0  0  0  0  0  0  0  0  0  0  0
  126.7120  128.0100   67.0610 C   0  0  0  0  0  0  0  0  0  0  0  0
  126.3690  128.7330   65.8370 N   0  0  0  0  0  0  0  0  0  0  0  0
  125.3320  129.5840   65.6970 C   0  0  0  0  0  0  0  0  0  0  0  0
  124.5680  129.8520   66.6270 O   0  0  0  0  0  0  0  0  0  0  0  0
  125.1650  130.1840   64.3750 C   0  0  0  0  0  0  0  0  0  0  0  0
  123.8630  129.6480   63.3120 S   0  0  0  0  0  0  0  0  0  0  0  0
  124.3440  130.7850   62.0730 C   0  0  0  0  0  0  0  0  0  0  0  0
  123.6980  130.8760   60.9100 N   0  0  0  0  0  0  0  0  0  0  0  0
  124.1740  131.7970   60.0360 C   0  0  0  0  0  0  0  0  0  0  0  0
  123.4250  131.8860   58.7190 C   0  0  0  0  0  0  0  0  0  0  0  0
  125.2680  132.6190   60.2960 C   0  0  0  0  0  0  0  0  0  0  0  0
  125.9440  132.5210   61.5180 C   0  0  0  0  0  0  0  0  0  0  0  0
  127.1350  133.4380   61.7540 C   0  0  0  0  0  0  0  0  0  0  0  0
  125.4740  131.5660   62.4600 C   0  0  0  0  0  0  0  0  0  0  0  0
  125.9190  131.2070   63.7800 C   0  0  0  0  0  0  0  0  0  0  0  0
  126.9870  131.8180   64.3860 N   0  0  0  0  0  0  0  0  0  0  0  0
  126.1170  128.8447   75.2543 H   0  0  0  0  0  0  0  0  0  0  0  0
  125.7166  129.7341   73.7458 H   0  0  0  0  0  0  0  0  0  0  0  0
  125.7570  127.9382   73.7458 H   0  0  0  0  0  0  0  0  0  0  0  0
  128.2190  127.1640   72.8376 H   0  0  0  0  0  0  0  0  0  0  0  0
  126.9871  128.1465   71.9756 H   0  0  0  0  0  0  0  0  0  0  0  0
  128.5752  129.4590   70.9912 H   0  0  0  0  0  0  0  0  0  0  0  0
  129.4869  129.6475   72.5265 H   0  0  0  0  0  0  0  0  0  0  0  0
  129.9159  126.0110   70.7793 H   0  0  0  0  0  0  0  0  0  0  0  0
  128.3459  126.8803   70.7385 H   0  0  0  0  0  0  0  0  0  0  0  0
  130.5897  127.9444   69.0105 H   0  0  0  0  0  0  0  0  0  0  0  0
  129.7842  126.4270   68.4904 H   0  0  0  0  0  0  0  0  0  0  0  0
  128.7756  128.4861   66.5846 H   0  0  0  0  0  0  0  0  0  0  0  0
  128.4931  126.7681   67.0201 H   0  0  0  0  0  0  0  0  0  0  0  0
  126.2316  127.0211   67.0268 H   0  0  0  0  0  0  0  0  0  0  0  0
  126.3569  128.6190   67.9054 H   0  0  0  0  0  0  0  0  0  0  0  0
  126.9610  128.5620   65.0360 H   0  0  0  0  0  0  0  0  0  0  0  0
  122.3504  132.0137   58.9162 H   0  0  0  0  0  0  0  0  0  0  0  0
  123.7969  132.7463   58.1431 H   0  0  0  0  0  0  0  0  0  0  0  0
  123.5849  130.9625   58.1431 H   0  0  0  0  0  0  0  0  0  0  0  0
  125.6011  133.3458   59.5405 H   0  0  0  0  0  0  0  0  0  0  0  0
  127.2946  133.5608   62.8354 H   0  0  0  0  0  0  0  0  0  0  0  0
  128.0337  132.9964   61.2986 H   0  0  0  0  0  0  0  0  0  0  0  0
  126.9378  134.4197   61.2986 H   0  0  0  0  0  0  0  0  0  0  0  0
  127.9290  131.7160   64.0350 H   0  0  0  0  0  0  0  0  0  0  0  0
  126.8660  132.3950   65.2050 H   0  0  0  0  0  0  0  0  0  0  0  0
  1  2  1  0
  2  3  1  0
  3  4  1  0
  4  5  1  0
  5  6  1  0
  6  7  1  0
  7  8  1  0
  8  9  1  0
  9 10  1  0
 10 11  1  0
 11 12  1  0
 12 13  2  0
 12 14  1  0
 14 15  1  0
 15 16  1  0
 16 17  2  0
 17 18  1  0
 18 19  1  0
 18 20  2  0
 20 21  1  0
 21 22  1  0
 21 23  2  0
 23 24  1  0
 24 25  1  0
 24 14  2  0
 23 16  1  0
  1 26  1  0
  1 27  1  0
  1 28  1  0
  3 29  1  0
  3 30  1  0
  4 31  1  0
  4 32  1  0
  6 33  1  0
  6 34  1  0
  7 35  1  0
  7 36  1  0
  9 37  1  0
  9 38  1  0
 10 39  1  0
 10 40  1  0
 11 41  1  0
 19 42  1  0
 19 43  1  0
 19 44  1  0
 20 45  1  0
 22 46  1  0
 22 47  1  0
 22 48  1  0
 25 49  1  0
 25 50  1  0
M  END
>  <Binding energies>  (1) 
[-6.33]

>  <Ligand effiencies>  (1) 
[-0.22607142857142856]

>  <Interactions>  (1) 
["V-A:GLU:543:CD:4906, V-B:GLU:543:CG:9879, V-A:HIS:456:CE1:4068, V-B:GLU:543:CD:9880, V-A:TYR:539:CE2:4874, V-A:TYR:539:CD2:4872, V-B:LEU:475:CD2:9231, V-A:ALA:541:CB:4890, H-B:TYR:484:OH:9320, V-B:ARG:545:CZ:9898, H-A:GLU:543:OE1:4907, V-A:GLU:543:CB:4904, H-B:GLU:543:OE2:9882, V-B:ILE:369:CD1:8211, V-B:ILE:369:CG2:8209, V-A:TYR:539:CZ:4875, V-B:HIS:456:CE1:9042, V-B:TYR:484:CE1:9317, V-B:TYR:484:CZ:9319, V-B:ASP:366:CA:8182, V-B:ARG:545:CG:9894, H-B:ARG:545:NE:9896, V-A:GLU:543:CG:4905, V-B:ILE:369:CB:8208, V-B:HIS:456:CG:9038, H-A:LYS:547:NZ:4949, V-B:HIS:456:CB:9037, V-A:GLU:543:C:4900, V-B:HIS:456:CD2:9040, V-A:LYS:547:CE:4948, V-B:GLY:453:CA:9016, V-B:ARG:545:CD:9895, V-A:GLY:544:CA:4912, H-B:HIS:456:ND1:9039"]

$$$$
4al_Grossjean_2025
     RDKit          3D

 28 29  0  0  0  0  0  0  0  0999 V2000
  131.0040  125.9030   65.8340 C   0  0  0  0  0  0  0  0  0  0  0  0
  131.9890  126.1890   64.8520 O   0  0  0  0  0  0  0  0  0  0  0  0
  132.7980  125.2100   64.3710 C   0  0  0  0  0  0  0  0  0  0  0  0
  134.0030  125.1270   64.6190 O   0  0  0  0  0  0  0  0  0  0  0  0
  132.0820  124.2430   63.5110 C   0  0  0  0  0  0  0  0  0  0  0  0
  132.7560  122.6340   63.2430 S   0  0  0  0  0  0  0  0  0  0  0  0
  131.4100  122.1950   62.2160 C   0  0  0  0  0  0  0  0  0  0  0  0
  131.3210  120.9930   61.6460 N   0  0  0  0  0  0  0  0  0  0  0  0
  130.2270  120.7800   60.8730 C   0  0  0  0  0  0  0  0  0  0  0  0
  130.1450  119.4060   60.2340 C   0  0  0  0  0  0  0  0  0  0  0  0
  129.2320  121.7320   60.6600 C   0  0  0  0  0  0  0  0  0  0  0  0
  129.3280  122.9920   61.2600 C   0  0  0  0  0  0  0  0  0  0  0  0
  128.2180  123.9970   60.9980 C   0  0  0  0  0  0  0  0  0  0  0  0
  130.4620  123.2510   62.0770 C   0  0  0  0  0  0  0  0  0  0  0  0
  130.8710  124.4070   62.8270 C   0  0  0  0  0  0  0  0  0  0  0  0
  130.1350  125.5630   62.8630 N   0  0  0  0  0  0  0  0  0  0  0  0
  131.4384  126.0291   66.8367 H   0  0  0  0  0  0  0  0  0  0  0  0
  130.1548  126.5917   65.7130 H   0  0  0  0  0  0  0  0  0  0  0  0
  130.6557  124.8666   65.7130 H   0  0  0  0  0  0  0  0  0  0  0  0
  130.0992  118.6381   61.0203 H   0  0  0  0  0  0  0  0  0  0  0  0
  129.2416  119.3455   59.6093 H   0  0  0  0  0  0  0  0  0  0  0  0
  131.0347  119.2385   59.6093 H   0  0  0  0  0  0  0  0  0  0  0  0
  128.3704  121.4925   60.0195 H   0  0  0  0  0  0  0  0  0  0  0  0
  127.8178  124.3594   61.9564 H   0  0  0  0  0  0  0  0  0  0  0  0
  128.6193  124.8452   60.4240 H   0  0  0  0  0  0  0  0  0  0  0  0
  127.4137  123.5136   60.4240 H   0  0  0  0  0  0  0  0  0  0  0  0
  129.1780  125.5970   62.5430 H   0  0  0  0  0  0  0  0  0  0  0  0
  130.5280  126.4260   63.2140 H   0  0  0  0  0  0  0  0  0  0  0  0
  1  2  1  0
  2  3  1  0
  3  4  2  0
  3  5  1  0
  5  6  1  0
  6  7  1  0
  7  8  2  0
  8  9  1  0
  9 10  1  0
  9 11  2  0
 11 12  1  0
 12 13  1  0
 12 14  2  0
 14 15  1  0
 15 16  1  0
 15  5  2  0
 14  7  1  0
  1 17  1  0
  1 18  1  0
  1 19  1  0
 10 20  1  0
 10 21  1  0
 10 22  1  0
 11 23  1  0
 13 24  1  0
 13 25  1  0
 13 26  1  0
 16 27  1  0
 16 28  1  0
M  END
>  <Binding energies>  (1) 
[-5.14]

>  <Ligand effiencies>  (1) 
[-0.28555555555555556]

>  <Interactions>  (1) 
["H-A:GLY:454:N:4048, V-A:HIS:456:CE1:4068, V-A:ARG:545:CD:4921, V-B:GLU:543:CD:9880, V-A:ARG:545:CZ:4924, V-A:GLY:454:CA:4047, V-B:TYR:539:CD2:9846, V-B:ALA:541:CB:9864, V-A:LEU:475:CD2:4257, V-B:TYR:539:C:9839, H-B:GLU:543:OE1:9881, H-A:TYR:484:OH:4346, H-A:GLU:543:OE2:4908, H-A:ARG:545:NH2:4926, H-B:GLU:543:OE2:9882, H-A:ARG:545:NE:4922, V-A:PRO:482:CG:4325, V-A:TRP:381:CZ2:3368, V-A:PRO:482:CB:4324, V-A:TRP:381:CH2:3370, H-A:ARG:545:NH1:4925, V-A:TRP:381:CZ3:3369"]

$$$$
4ba_Grossjean_2025
     RDKit          3D

 44 46  0  0  0  0  0  0  0  0999 V2000
  128.2190  127.7520   72.7660 C   0  0  0  0  0  0  0  0  0  0  0  0
  128.7760  126.4570   72.1450 C   0  0  0  0  0  0  0  0  0  0  0  0
  129.8220  126.6630   71.0310 C   0  0  0  0  0  0  0  0  0  0  0  0
  131.0110  126.4380   71.2650 O   0  0  0  0  0  0  0  0  0  0  0  0
  129.3320  127.1310   69.6910 C   0  0  0  0  0  0  0  0  0  0  0  0
  127.9580  127.3130   69.4870 C   0  0  0  0  0  0  0  0  0  0  0  0
  127.4760  127.7450   68.2550 C   0  0  0  0  0  0  0  0  0  0  0  0
  128.3550  128.0070   67.2030 C   0  0  0  0  0  0  0  0  0  0  0  0
  127.7600  128.4300   65.9990 N   0  0  0  0  0  0  0  0  0  0  0  0
  126.5130  128.9070   65.7630 C   0  0  0  0  0  0  0  0  0  0  0  0
  125.6370  129.0100   66.6240 O   0  0  0  0  0  0  0  0  0  0  0  0
  126.2400  129.2850   64.3750 C   0  0  0  0  0  0  0  0  0  0  0  0
  124.8330  130.2700   63.9840 S   0  0  0  0  0  0  0  0  0  0  0  0
  125.2030  130.2050   62.2770 C   0  0  0  0  0  0  0  0  0  0  0  0
  124.4330  130.8140   61.3770 N   0  0  0  0  0  0  0  0  0  0  0  0
  124.8200  130.6940   60.0860 C   0  0  0  0  0  0  0  0  0  0  0  0
  123.9240  131.3870   59.0760 C   0  0  0  0  0  0  0  0  0  0  0  0
  125.9500  129.9890   59.6790 C   0  0  0  0  0  0  0  0  0  0  0  0
  126.7650  129.3450   60.6240 C   0  0  0  0  0  0  0  0  0  0  0  0
  127.9990  128.5840   60.1280 C   0  0  0  0  0  0  0  0  0  0  0  0
  129.1390  129.0370   60.6550 F   0  0  0  0  0  0  0  0  0  0  0  0
  127.8960  127.2940   60.4510 F   0  0  0  0  0  0  0  0  0  0  0  0
  128.0980  128.7000   58.8040 F   0  0  0  0  0  0  0  0  0  0  0  0
  126.3810  129.4490   61.9940 C   0  0  0  0  0  0  0  0  0  0  0  0
  126.9470  128.9260   63.2150 C   0  0  0  0  0  0  0  0  0  0  0  0
  128.0780  128.1500   63.2330 N   0  0  0  0  0  0  0  0  0  0  0  0
  129.7320  127.8220   67.3980 C   0  0  0  0  0  0  0  0  0  0  0  0
  130.2120  127.3890   68.6310 C   0  0  0  0  0  0  0  0  0  0  0  0
  128.2516  127.6762   73.8629 H   0  0  0  0  0  0  0  0  0  0  0  0
  128.8289  128.6072   72.4393 H   0  0  0  0  0  0  0  0  0  0  0  0
  127.1788  127.8974   72.4393 H   0  0  0  0  0  0  0  0  0  0  0  0
  129.2443  125.8683   72.9475 H   0  0  0  0  0  0  0  0  0  0  0  0
  127.9209  125.9514   71.6726 H   0  0  0  0  0  0  0  0  0  0  0  0
  127.2538  127.1127   70.3080 H   0  0  0  0  0  0  0  0  0  0  0  0
  126.3942  127.8810   68.1092 H   0  0  0  0  0  0  0  0  0  0  0  0
  128.3600  128.3480   65.1930 H   0  0  0  0  0  0  0  0  0  0  0  0
  123.1616  131.9767   59.6060 H   0  0  0  0  0  0  0  0  0  0  0  0
  124.5300  132.0537   58.4449 H   0  0  0  0  0  0  0  0  0  0  0  0
  123.4310  130.6329   58.4449 H   0  0  0  0  0  0  0  0  0  0  0  0
  126.2058  129.9363   58.6104 H   0  0  0  0  0  0  0  0  0  0  0  0
  128.0350  127.1420   63.2410 H   0  0  0  0  0  0  0  0  0  0  0  0
  129.0000  128.5650   63.2460 H   0  0  0  0  0  0  0  0  0  0  0  0
  130.4341  128.0196   66.5746 H   0  0  0  0  0  0  0  0  0  0  0  0
  131.2934  127.2479   68.7749 H   0  0  0  0  0  0  0  0  0  0  0  0
  1  2  1  0
  2  3  1  0
  3  4  2  0
  3  5  1  0
  5  6  2  0
  6  7  1  0
  7  8  2  0
  8  9  1  0
  9 10  1  0
 10 11  2  0
 10 12  1  0
 12 13  1  0
 13 14  1  0
 14 15  2  0
 15 16  1  0
 16 17  1  0
 16 18  2  0
 18 19  1  0
 19 20  1  0
 20 21  1  0
 20 22  1  0
 20 23  1  0
 19 24  2  0
 24 25  1  0
 25 26  1  0
  8 27  1  0
 27 28  2  0
 28  5  1  0
 25 12  2  0
 24 14  1  0
  1 29  1  0
  1 30  1  0
  1 31  1  0
  2 32  1  0
  2 33  1  0
  6 34  1  0
  7 35  1  0
  9 36  1  0
 17 37  1  0
 17 38  1  0
 17 39  1  0
 18 40  1  0
 26 41  1  0
 26 42  1  0
 27 43  1  0
 28 44  1  0
M  END
>  <Binding energies>  (1) 
[-6.96]

>  <Ligand effiencies>  (1) 
[-0.22451612903225807]

>  <Interactions>  (1) 
["V-A:GLU:543:CD:4906, V-B:GLU:543:CG:9879, V-A:HIS:456:CE1:4068, V-B:GLU:543:CD:9880, V-A:HIS:456:CD2:4066, V-B:LYS:547:CE:9922, V-B:GLU:543:C:9874, V-B:GLY:544:CA:9886, V-B:ASP:366:CB:8184, V-B:ASP:366:CG:8185, V-A:TYR:539:CE2:4874, H-B:TYR:484:OH:9320, H-B:GLU:543:OE1:9881, V-B:ARG:545:CZ:9898, H-A:GLU:543:OE1:4907, H-A:GLU:543:OE2:4908, V-A:GLU:543:CB:4904, H-B:GLU:543:OE2:9882, V-B:ILE:369:CG2:8209, V-B:HIS:456:CE1:9042, V-B:ASP:366:CA:8182, V-B:ARG:545:CG:9894, H-B:ARG:545:NE:9896, V-A:GLU:543:CG:4905, V-A:GLU:543:C:4900, V-B:GLY:544:C:9884, H-A:HIS:456:ND1:4065, H-B:HIS:456:ND1:9039"]

$$$$
4bb_Grossjean_2025
     RDKit          3D

 41 43  0  0  0  0  0  0  0  0999 V2000
  128.8540  126.2470   72.0430 C   0  0  0  0  0  0  0  0  0  0  0  0
  129.8780  126.6520   70.9810 C   0  0  0  0  0  0  0  0  0  0  0  0
  131.0740  126.5780   71.2700 O   0  0  0  0  0  0  0  0  0  0  0  0
  129.3730  127.1280   69.6520 C   0  0  0  0  0  0  0  0  0  0  0  0
  127.9990  127.3280   69.4700 C   0  0  0  0  0  0  0  0  0  0  0  0
  127.5040  127.7690   68.2470 C   0  0  0  0  0  0  0  0  0  0  0  0
  128.3720  128.0250   67.1840 C   0  0  0  0  0  0  0  0  0  0  0  0
  127.7650  128.4640   65.9900 N   0  0  0  0  0  0  0  0  0  0  0  0
  126.5000  128.8940   65.7640 C   0  0  0  0  0  0  0  0  0  0  0  0
  125.6220  128.9440   66.6240 O   0  0  0  0  0  0  0  0  0  0  0  0
  126.2120  129.2850   64.3810 C   0  0  0  0  0  0  0  0  0  0  0  0
  124.7760  130.2360   64.0080 S   0  0  0  0  0  0  0  0  0  0  0  0
  125.1470  130.2150   62.3000 C   0  0  0  0  0  0  0  0  0  0  0  0
  124.3650  130.8240   61.4110 N   0  0  0  0  0  0  0  0  0  0  0  0
  124.7560  130.7370   60.1180 C   0  0  0  0  0  0  0  0  0  0  0  0
  123.8510  131.4390   59.1220 C   0  0  0  0  0  0  0  0  0  0  0  0
  125.8980  130.0620   59.6980 C   0  0  0  0  0  0  0  0  0  0  0  0
  126.7270  129.4190   60.6300 C   0  0  0  0  0  0  0  0  0  0  0  0
  127.9740  128.6890   60.1200 C   0  0  0  0  0  0  0  0  0  0  0  0
  129.1070  129.1630   60.6440 F   0  0  0  0  0  0  0  0  0  0  0  0
  127.8990  127.3950   60.4340 F   0  0  0  0  0  0  0  0  0  0  0  0
  128.0630  128.8170   58.7960 F   0  0  0  0  0  0  0  0  0  0  0  0
  126.3440  129.4900   62.0040 C   0  0  0  0  0  0  0  0  0  0  0  0
  126.9270  128.9670   63.2130 C   0  0  0  0  0  0  0  0  0  0  0  0
  128.0830  128.2290   63.2190 N   0  0  0  0  0  0  0  0  0  0  0  0
  129.7500  127.8200   67.3560 C   0  0  0  0  0  0  0  0  0  0  0  0
  130.2430  127.3770   68.5810 C   0  0  0  0  0  0  0  0  0  0  0  0
  129.2780  126.4147   73.0440 H   0  0  0  0  0  0  0  0  0  0  0  0
  127.9435  126.8527   71.9243 H   0  0  0  0  0  0  0  0  0  0  0  0
  128.6042  125.1823   71.9243 H   0  0  0  0  0  0  0  0  0  0  0  0
  127.3051  127.1347   70.3013 H   0  0  0  0  0  0  0  0  0  0  0  0
  126.4218  127.9169   68.1167 H   0  0  0  0  0  0  0  0  0  0  0  0
  128.3710  128.4270   65.1830 H   0  0  0  0  0  0  0  0  0  0  0  0
  123.0947  132.0257   59.6640 H   0  0  0  0  0  0  0  0  0  0  0  0
  124.4517  132.1097   58.4901 H   0  0  0  0  0  0  0  0  0  0  0  0
  123.3508  130.6904   58.4901 H   0  0  0  0  0  0  0  0  0  0  0  0
  126.1527  130.0322   58.6283 H   0  0  0  0  0  0  0  0  0  0  0  0
  128.9950  128.6640   63.1980 H   0  0  0  0  0  0  0  0  0  0  0  0
  128.0620  127.2190   63.2450 H   0  0  0  0  0  0  0  0  0  0  0  0
  130.4416  128.0095   66.5219 H   0  0  0  0  0  0  0  0  0  0  0  0
  131.3243  127.2211   68.7094 H   0  0  0  0  0  0  0  0  0  0  0  0
  1  2  1  0
  2  3  2  0
  2  4  1  0
  4  5  2  0
  5  6  1  0
  6  7  2  0
  7  8  1  0
  8  9  1  0
  9 10  2  0
  9 11  1  0
 11 12  1  0
 12 13  1  0
 13 14  2  0
 14 15  1  0
 15 16  1  0
 15 17  2  0
 17 18  1  0
 18 19  1  0
 19 20  1  0
 19 21  1  0
 19 22  1  0
 18 23  2  0
 23 24  1  0
 24 25  1  0
  7 26  1  0
 26 27  2  0
 27  4  1  0
 24 11  2  0
 23 13  1  0
  1 28  1  0
  1 29  1  0
  1 30  1  0
  5 31  1  0
  6 32  1  0
  8 33  1  0
 16 34  1  0
 16 35  1  0
 16 36  1  0
 17 37  1  0
 25 38  1  0
 25 39  1  0
 26 40  1  0
 27 41  1  0
M  END
>  <Binding energies>  (1) 
[-6.84]

>  <Ligand effiencies>  (1) 
[-0.228]

>  <Interactions>  (1) 
["V-A:GLU:543:CD:4906, V-B:GLU:543:CG:9879, V-A:HIS:456:CE1:4068, V-B:GLU:543:CD:9880, V-A:HIS:456:CD2:4066, V-B:LYS:547:CE:9922, V-B:GLU:543:C:9874, V-B:GLY:544:CA:9886, V-B:ASP:366:CB:8184, V-B:ASP:366:CG:8185, V-A:TYR:539:CE2:4874, H-B:TYR:484:OH:9320, H-B:GLU:543:OE1:9881, V-B:ARG:545:CZ:9898, H-A:GLU:543:OE1:4907, H-A:GLU:543:OE2:4908, V-A:GLU:543:CB:4904, H-B:GLU:543:OE2:9882, V-B:ILE:369:CG2:8209, V-B:HIS:456:CE1:9042, V-B:ASP:366:CA:8182, V-B:ARG:545:CG:9894, H-B:ARG:545:NE:9896, V-A:GLU:543:CG:4905, V-B:ILE:369:CB:8208, V-A:GLU:543:C:4900, V-B:GLY:544:C:9884, H-A:HIS:456:ND1:4065, H-B:HIS:456:ND1:9039"]

$$$$
4bc_Grossjean_2025
     RDKit          3D

 40 42  0  0  0  0  0  0  0  0999 V2000
  129.8040  126.7100   71.9710 C   0  0  0  0  0  0  0  0  0  0  0  0
  130.3740  126.7020   70.6660 O   0  0  0  0  0  0  0  0  0  0  0  0
  129.6130  127.1330   69.5970 C   0  0  0  0  0  0  0  0  0  0  0  0
  130.2980  127.3950   68.4110 C   0  0  0  0  0  0  0  0  0  0  0  0
  129.6160  127.8340   67.2790 C   0  0  0  0  0  0  0  0  0  0  0  0
  128.2320  128.0090   67.3170 C   0  0  0  0  0  0  0  0  0  0  0  0
  127.6310  128.4690   66.1310 N   0  0  0  0  0  0  0  0  0  0  0  0
  127.1470  129.7010   65.8380 C   0  0  0  0  0  0  0  0  0  0  0  0
  127.1330  130.6410   66.6330 O   0  0  0  0  0  0  0  0  0  0  0  0
  126.6140  129.8610   64.4810 C   0  0  0  0  0  0  0  0  0  0  0  0
  125.2770  130.9670   64.1780 S   0  0  0  0  0  0  0  0  0  0  0  0
  125.2780  130.5760   62.4750 C   0  0  0  0  0  0  0  0  0  0  0  0
  124.4170  131.1420   61.6300 N   0  0  0  0  0  0  0  0  0  0  0  0
  124.5140  130.7590   60.3370 C   0  0  0  0  0  0  0  0  0  0  0  0
  123.5280  131.4200   59.3910 C   0  0  0  0  0  0  0  0  0  0  0  0
  125.4420  129.8300   59.8710 C   0  0  0  0  0  0  0  0  0  0  0  0
  126.3510  129.2300   60.7570 C   0  0  0  0  0  0  0  0  0  0  0  0
  127.3520  128.2120   60.1980 C   0  0  0  0  0  0  0  0  0  0  0  0
  127.2090  128.0060   58.8870 F   0  0  0  0  0  0  0  0  0  0  0  0
  128.5950  128.6450   60.4020 F   0  0  0  0  0  0  0  0  0  0  0  0
  127.1890  127.0370   60.8070 F   0  0  0  0  0  0  0  0  0  0  0  0
  126.2770  129.6140   62.1290 C   0  0  0  0  0  0  0  0  0  0  0  0
  127.0270  129.2270   63.2990 C   0  0  0  0  0  0  0  0  0  0  0  0
  128.0530  128.3180   63.2520 N   0  0  0  0  0  0  0  0  0  0  0  0
  127.5360  127.7590   68.5100 C   0  0  0  0  0  0  0  0  0  0  0  0
  128.2220  127.3220   69.6390 C   0  0  0  0  0  0  0  0  0  0  0  0
  130.6075  126.6987   72.7222 H   0  0  0  0  0  0  0  0  0  0  0  0
  129.1947  127.6168   72.0994 H   0  0  0  0  0  0  0  0  0  0  0  0
  129.1695  125.8207   72.0994 H   0  0  0  0  0  0  0  0  0  0  0  0
  131.3881  127.2535   68.3692 H   0  0  0  0  0  0  0  0  0  0  0  0
  130.1699  128.0435   66.3520 H   0  0  0  0  0  0  0  0  0  0  0  0
  127.5240  127.7650   65.4160 H   0  0  0  0  0  0  0  0  0  0  0  0
  122.7530  131.9396   59.9735 H   0  0  0  0  0  0  0  0  0  0  0  0
  124.0584  132.1457   58.7570 H   0  0  0  0  0  0  0  0  0  0  0  0
  123.0581  130.6537   58.7570 H   0  0  0  0  0  0  0  0  0  0  0  0
  125.4626  129.5653   58.8035 H   0  0  0  0  0  0  0  0  0  0  0  0
  127.8860  127.3230   63.2260 H   0  0  0  0  0  0  0  0  0  0  0  0
  129.0180  128.6170   63.2400 H   0  0  0  0  0  0  0  0  0  0  0  0
  126.4471  127.9087   68.5525 H   0  0  0  0  0  0  0  0  0  0  0  0
  127.6713  127.1233   70.5703 H   0  0  0  0  0  0  0  0  0  0  0  0
  1  2  1  0
  2  3  1  0
  3  4  2  0
  4  5  1  0
  5  6  2  0
  6  7  1  0
  7  8  1  0
  8  9  2  0
  8 10  1  0
 10 11  1  0
 11 12  1  0
 12 13  2  0
 13 14  1  0
 14 15  1  0
 14 16  2  0
 16 17  1  0
 17 18  1  0
 18 19  1  0
 18 20  1  0
 18 21  1  0
 17 22  2  0
 22 23  1  0
 23 24  1  0
  6 25  1  0
 25 26  2  0
 26  3  1  0
 23 10  2  0
 22 12  1  0
  1 27  1  0
  1 28  1  0
  1 29  1  0
  4 30  1  0
  5 31  1  0
  7 32  1  0
 15 33  1  0
 15 34  1  0
 15 35  1  0
 16 36  1  0
 24 37  1  0
 24 38  1  0
 25 39  1  0
 26 40  1  0
M  END
>  <Binding energies>  (1) 
[-6.1]

>  <Ligand effiencies>  (1) 
[-0.21034482758620687]

>  <Interactions>  (1) 
["V-A:GLU:543:CD:4906, V-B:GLU:543:CG:9879, V-A:HIS:456:CE1:4068, V-B:GLU:543:CD:9880, V-A:HIS:456:CD2:4066, V-B:GLU:543:C:9874, V-B:ASP:366:CB:8184, V-B:ASP:366:CG:8185, V-A:TYR:539:CE2:4874, H-B:TYR:484:OH:9320, H-B:GLU:543:OE1:9881, H-A:GLU:543:OE1:4907, H-A:GLU:543:OE2:4908, V-A:GLU:543:CB:4904, H-B:GLU:543:OE2:9882, V-B:ILE:369:CD1:8211, V-B:ILE:369:CG2:8209, V-B:HIS:456:CE1:9042, V-B:ASP:366:CA:8182, V-A:GLU:543:CG:4905, V-B:ILE:369:CB:8208, V-A:GLU:543:C:4900, V-B:GLY:544:C:9884"]

$$$$
4bd_Grossjean_2025
     RDKit          3D

 36 38  0  0  0  0  0  0  0  0999 V2000
  123.7460  131.3840   59.2750 C   0  0  0  0  0  0  0  0  0  0  0  0
  124.7070  130.7150   60.2410 C   0  0  0  0  0  0  0  0  0  0  0  0
  125.6030  129.7430   59.8060 C   0  0  0  0  0  0  0  0  0  0  0  0
  126.4840  129.1310   60.7110 C   0  0  0  0  0  0  0  0  0  0  0  0
  127.4490  128.0630   60.1860 C   0  0  0  0  0  0  0  0  0  0  0  0
  127.2990  126.8810   60.7900 F   0  0  0  0  0  0  0  0  0  0  0  0
  127.2480  127.8730   58.8830 F   0  0  0  0  0  0  0  0  0  0  0  0
  128.7070  128.4550   60.3860 F   0  0  0  0  0  0  0  0  0  0  0  0
  126.4160  129.5510   62.0730 C   0  0  0  0  0  0  0  0  0  0  0  0
  127.1420  129.1630   63.2580 C   0  0  0  0  0  0  0  0  0  0  0  0
  128.1330  128.2160   63.2400 N   0  0  0  0  0  0  0  0  0  0  0  0
  126.7430  129.8380   64.4230 C   0  0  0  0  0  0  0  0  0  0  0  0
  127.2500  129.6800   65.7890 C   0  0  0  0  0  0  0  0  0  0  0  0
  127.1360  130.5910   66.6110 O   0  0  0  0  0  0  0  0  0  0  0  0
  127.8230  128.4810   66.0620 N   0  0  0  0  0  0  0  0  0  0  0  0
  128.4360  128.0310   67.2460 C   0  0  0  0  0  0  0  0  0  0  0  0
  127.5760  127.7480   68.3110 C   0  0  0  0  0  0  0  0  0  0  0  0
  128.0850  127.2870   69.5220 C   0  0  0  0  0  0  0  0  0  0  0  0
  129.4570  127.0990   69.6670 C   0  0  0  0  0  0  0  0  0  0  0  0
  130.3230  127.3640   68.6090 C   0  0  0  0  0  0  0  0  0  0  0  0
  129.8180  127.8260   67.3960 C   0  0  0  0  0  0  0  0  0  0  0  0
  125.4520  130.9880   64.0830 S   0  0  0  0  0  0  0  0  0  0  0  0
  125.4520  130.5570   62.3890 C   0  0  0  0  0  0  0  0  0  0  0  0
  124.6180  131.1350   61.5250 N   0  0  0  0  0  0  0  0  0  0  0  0
  122.9722  131.9227   59.8417 H   0  0  0  0  0  0  0  0  0  0  0  0
  124.2978  132.0942   58.6417 H   0  0  0  0  0  0  0  0  0  0  0  0
  123.2716  130.6199   58.6417 H   0  0  0  0  0  0  0  0  0  0  0  0
  125.6208  129.4523   58.7453 H   0  0  0  0  0  0  0  0  0  0  0  0
  129.1120  128.4630   63.2880 H   0  0  0  0  0  0  0  0  0  0  0  0
  127.9170  127.2290   63.1850 H   0  0  0  0  0  0  0  0  0  0  0  0
  127.7970  127.7980   65.3200 H   0  0  0  0  0  0  0  0  0  0  0  0
  126.4918  127.8902   68.1917 H   0  0  0  0  0  0  0  0  0  0  0  0
  127.4063  127.0722   70.3606 H   0  0  0  0  0  0  0  0  0  0  0  0
  129.8601  126.7383   70.6248 H   0  0  0  0  0  0  0  0  0  0  0  0
  131.4051  127.2085   68.7313 H   0  0  0  0  0  0  0  0  0  0  0  0
  130.4997  128.0300   66.5571 H   0  0  0  0  0  0  0  0  0  0  0  0
  1  2  1  0
  2  3  2  0
  3  4  1  0
  4  5  1  0
  5  6  1  0
  5  7  1  0
  5  8  1  0
  4  9  2  0
  9 10  1  0
 10 11  1  0
 10 12  2  0
 12 13  1  0
 13 14  2  0
 13 15  1  0
 15 16  1  0
 16 17  2  0
 17 18  1  0
 18 19  2  0
 19 20  1  0
 20 21  2  0
 12 22  1  0
 22 23  1  0
 23 24  2  0
 24  2  1  0
 23  9  1  0
 21 16  1  0
  1 25  1  0
  1 26  1  0
  1 27  1  0
  3 28  1  0
 11 29  1  0
 11 30  1  0
 15 31  1  0
 17 32  1  0
 18 33  1  0
 19 34  1  0
 20 35  1  0
 21 36  1  0
M  END
>  <Binding energies>  (1) 
[-6.11]

>  <Ligand effiencies>  (1) 
[-0.2262962962962963]

>  <Interactions>  (1) 
["V-A:GLU:543:CD:4906, V-B:GLU:543:CG:9879, V-A:HIS:456:CE1:4068, V-B:GLU:543:CD:9880, V-B:GLU:543:C:9874, V-B:ASP:366:CB:8184, V-B:ASP:366:CG:8185, V-A:TYR:539:CE2:4874, H-B:TYR:484:OH:9320, H-B:GLU:543:OE1:9881, H-A:GLU:543:OE1:4907, H-A:GLU:543:OE2:4908, V-A:GLU:543:CB:4904, H-B:GLU:543:OE2:9882, V-B:ILE:369:CD1:8211, V-B:ILE:369:CG2:8209, V-B:HIS:456:CE1:9042, V-B:ASP:366:CA:8182, V-A:GLU:543:CG:4905, V-B:ILE:369:CB:8208, V-A:GLU:543:C:4900, V-B:GLY:544:C:9884"]

$$$$
4be_Grossjean_2025
     RDKit          3D

 38 40  0  0  0  0  0  0  0  0999 V2000
  127.5240  127.5120   70.6870 C   0  0  0  0  0  0  0  0  0  0  0  0
  128.2840  127.4940   69.3750 C   0  0  0  0  0  0  0  0  0  0  0  0
  129.5880  126.9990   69.2930 C   0  0  0  0  0  0  0  0  0  0  0  0
  130.2280  127.0160   68.0540 C   0  0  0  0  0  0  0  0  0  0  0  0
  129.5580  127.5220   66.9380 C   0  0  0  0  0  0  0  0  0  0  0  0
  128.2500  127.9970   67.0890 C   0  0  0  0  0  0  0  0  0  0  0  0
  127.6330  128.5000   65.9290 N   0  0  0  0  0  0  0  0  0  0  0  0
  126.3460  128.8900   65.7490 C   0  0  0  0  0  0  0  0  0  0  0  0
  125.4900  128.8600   66.6360 O   0  0  0  0  0  0  0  0  0  0  0  0
  126.0080  129.3420   64.3970 C   0  0  0  0  0  0  0  0  0  0  0  0
  124.5120  130.2280   64.1080 S   0  0  0  0  0  0  0  0  0  0  0  0
  124.8530  130.3350   62.3970 C   0  0  0  0  0  0  0  0  0  0  0  0
  124.0190  130.9500   61.5600 N   0  0  0  0  0  0  0  0  0  0  0  0
  124.3920  130.9710   60.2590 C   0  0  0  0  0  0  0  0  0  0  0  0
  123.4280  131.6730   59.3210 C   0  0  0  0  0  0  0  0  0  0  0  0
  125.5680  130.3980   59.7820 C   0  0  0  0  0  0  0  0  0  0  0  0
  126.4510  129.7490   60.6590 C   0  0  0  0  0  0  0  0  0  0  0  0
  127.7340  129.1370   60.0880 C   0  0  0  0  0  0  0  0  0  0  0  0
  127.8280  127.8230   60.3070 F   0  0  0  0  0  0  0  0  0  0  0  0
  127.7750  129.3240   58.7690 F   0  0  0  0  0  0  0  0  0  0  0  0
  128.7980  129.7140   60.6480 F   0  0  0  0  0  0  0  0  0  0  0  0
  126.0850  129.7060   62.0380 C   0  0  0  0  0  0  0  0  0  0  0  0
  126.7170  129.1380   63.2030 C   0  0  0  0  0  0  0  0  0  0  0  0
  127.9110  128.4640   63.1450 N   0  0  0  0  0  0  0  0  0  0  0  0
  127.6190  127.9880   68.3000 N   0  0  0  0  0  0  0  0  0  0  0  0
  128.2373  127.4951   71.5242 H   0  0  0  0  0  0  0  0  0  0  0  0
  126.9129  128.4249   70.7443 H   0  0  0  0  0  0  0  0  0  0  0  0
  126.8704  126.6291   70.7443 H   0  0  0  0  0  0  0  0  0  0  0  0
  130.0978  126.6052   70.1846 H   0  0  0  0  0  0  0  0  0  0  0  0
  131.2546  126.6331   67.9563 H   0  0  0  0  0  0  0  0  0  0  0  0
  130.0509  127.5469   65.9549 H   0  0  0  0  0  0  0  0  0  0  0  0
  128.2290  128.5320   65.1160 H   0  0  0  0  0  0  0  0  0  0  0  0
  122.6767  132.2201   59.9095 H   0  0  0  0  0  0  0  0  0  0  0  0
  123.9829  132.3800   58.6867 H   0  0  0  0  0  0  0  0  0  0  0  0
  122.9255  130.9279   58.6867 H   0  0  0  0  0  0  0  0  0  0  0  0
  125.8068  130.4544   58.7097 H   0  0  0  0  0  0  0  0  0  0  0  0
  128.7880  128.9420   62.9970 H   0  0  0  0  0  0  0  0  0  0  0  0
  127.9510  127.4590   63.2410 H   0  0  0  0  0  0  0  0  0  0  0  0
  1  2  1  0
  2  3  2  0
  3  4  1  0
  4  5  2  0
  5  6  1  0
  6  7  1  0
  7  8  1  0
  8  9  2  0
  8 10  1  0
 10 11  1  0
 11 12  1  0
 12 13  2  0
 13 14  1  0
 14 15  1  0
 14 16  2  0
 16 17  1  0
 17 18  1  0
 18 19  1  0
 18 20  1  0
 18 21  1  0
 17 22  2  0
 22 23  1  0
 23 24  1  0
  6 25  2  0
 25  2  1  0
 23 10  2  0
 22 12  1  0
  1 26  1  0
  1 27  1  0
  1 28  1  0
  3 29  1  0
  4 30  1  0
  5 31  1  0
  7 32  1  0
 15 33  1  0
 15 34  1  0
 15 35  1  0
 16 36  1  0
 24 37  1  0
 24 38  1  0
M  END
>  <Binding energies>  (1) 
[-6.23]

>  <Ligand effiencies>  (1) 
[-0.2225]

>  <Interactions>  (1) 
["V-A:GLU:543:CD:4906, V-B:GLU:543:CG:9879, V-A:HIS:456:CE1:4068, V-B:GLU:543:CD:9880, V-B:GLU:543:C:9874, V-B:GLY:544:CA:9886, V-B:ASP:366:CG:8185, V-A:TYR:539:CE2:4874, H-B:TYR:484:OH:9320, H-B:GLU:543:OE1:9881, V-B:ARG:545:CZ:9898, H-A:GLU:543:OE1:4907, H-A:GLU:543:OE2:4908, V-A:GLU:543:CB:4904, H-B:GLU:543:OE2:9882, V-B:ILE:369:CD1:8211, V-B:ILE:369:CG2:8209, V-B:HIS:456:CE1:9042, V-B:ASP:366:CA:8182, V-B:ARG:545:CG:9894, H-B:ARG:545:NE:9896, V-A:GLU:543:CG:4905, V-B:ILE:369:CB:8208, V-B:HIS:456:CD2:9040, V-B:GLY:544:C:9884, V-B:ARG:545:CD:9895, H-B:HIS:456:ND1:9039"]

$$$$
4bf_Grossjean_2025
     RDKit          3D

 35 37  0  0  0  0  0  0  0  0999 V2000
  123.4950  131.3980   59.3930 C   0  0  0  0  0  0  0  0  0  0  0  0
  124.4960  130.7470   60.3310 C   0  0  0  0  0  0  0  0  0  0  0  0
  125.4100  129.8060   59.8650 C   0  0  0  0  0  0  0  0  0  0  0  0
  126.3280  129.2110   60.7430 C   0  0  0  0  0  0  0  0  0  0  0  0
  127.3130  128.1780   60.1850 C   0  0  0  0  0  0  0  0  0  0  0  0
  128.5900  128.5290   60.3550 F   0  0  0  0  0  0  0  0  0  0  0  0
  127.1360  127.0070   60.7970 F   0  0  0  0  0  0  0  0  0  0  0  0
  127.1120  128.0250   58.8750 F   0  0  0  0  0  0  0  0  0  0  0  0
  126.2760  129.6120   62.1120 C   0  0  0  0  0  0  0  0  0  0  0  0
  127.0370  129.2290   63.2760 C   0  0  0  0  0  0  0  0  0  0  0  0
  128.0530  128.3080   63.2260 N   0  0  0  0  0  0  0  0  0  0  0  0
  126.6480  129.8830   64.4570 C   0  0  0  0  0  0  0  0  0  0  0  0
  127.1800  129.7130   65.8130 C   0  0  0  0  0  0  0  0  0  0  0  0
  127.1300  130.6360   66.6260 O   0  0  0  0  0  0  0  0  0  0  0  0
  127.6960  128.4890   66.0840 N   0  0  0  0  0  0  0  0  0  0  0  0
  128.3210  128.0200   67.2550 C   0  0  0  0  0  0  0  0  0  0  0  0
  129.6990  127.7900   67.4080 C   0  0  0  0  0  0  0  0  0  0  0  0
  130.1890  127.3070   68.6240 C   0  0  0  0  0  0  0  0  0  0  0  0
  129.2850  127.0610   69.6570 C   0  0  0  0  0  0  0  0  0  0  0  0
  127.9510  127.2680   69.5330 N   0  0  0  0  0  0  0  0  0  0  0  0
  127.4890  127.7370   68.3460 C   0  0  0  0  0  0  0  0  0  0  0  0
  125.3160  130.9970   64.1590 S   0  0  0  0  0  0  0  0  0  0  0  0
  125.2910  130.5870   62.4600 C   0  0  0  0  0  0  0  0  0  0  0  0
  124.4220  131.1500   61.6210 N   0  0  0  0  0  0  0  0  0  0  0  0
  122.7162  131.9045   59.9820 H   0  0  0  0  0  0  0  0  0  0  0  0
  124.0115  132.1335   58.7587 H   0  0  0  0  0  0  0  0  0  0  0  0
  123.0322  130.6276   58.7587 H   0  0  0  0  0  0  0  0  0  0  0  0
  125.4123  129.5271   58.8009 H   0  0  0  0  0  0  0  0  0  0  0  0
  129.0240  128.5850   63.2070 H   0  0  0  0  0  0  0  0  0  0  0  0
  127.8620  127.3160   63.2070 H   0  0  0  0  0  0  0  0  0  0  0  0
  127.6220  127.8020   65.3480 H   0  0  0  0  0  0  0  0  0  0  0  0
  130.3885  127.9893   66.5744 H   0  0  0  0  0  0  0  0  0  0  0  0
  131.2648  127.1247   68.7636 H   0  0  0  0  0  0  0  0  0  0  0  0
  129.6714  126.6823   70.6147 H   0  0  0  0  0  0  0  0  0  0  0  0
  126.4073  127.9032   68.2352 H   0  0  0  0  0  0  0  0  0  0  0  0
  1  2  1  0
  2  3  2  0
  3  4  1  0
  4  5  1  0
  5  6  1  0
  5  7  1  0
  5  8  1  0
  4  9  2  0
  9 10  1  0
 10 11  1  0
 10 12  2  0
 12 13  1  0
 13 14  2  0
 13 15  1  0
 15 16  1  0
 16 17  2  0
 17 18  1  0
 18 19  2  0
 19 20  1  0
 20 21  2  0
 12 22  1  0
 22 23  1  0
 23 24  2  0
 24  2  1  0
 23  9  1  0
 21 16  1  0
  1 25  1  0
  1 26  1  0
  1 27  1  0
  3 28  1  0
 11 29  1  0
 11 30  1  0
 15 31  1  0
 17 32  1  0
 18 33  1  0
 19 34  1  0
 21 35  1  0
M  END
>  <Binding energies>  (1) 
[-5.87]

>  <Ligand effiencies>  (1) 
[-0.2174074074074074]

>  <Interactions>  (1) 
["V-A:GLU:543:CD:4906, V-B:GLU:543:CG:9879, V-A:HIS:456:CE1:4068, V-B:GLU:543:CD:9880, V-B:GLU:543:C:9874, V-B:ASP:366:CB:8184, V-B:ASP:366:CG:8185, V-A:TYR:539:CE2:4874, H-B:TYR:484:OH:9320, H-B:GLU:543:OE1:9881, H-A:GLU:543:OE1:4907, H-A:GLU:543:OE2:4908, V-A:GLU:543:CB:4904, H-B:GLU:543:OE2:9882, V-B:ILE:369:CD1:8211, V-B:ILE:369:CG2:8209, V-B:HIS:456:CE1:9042, V-B:ASP:366:CA:8182, V-B:ARG:545:CG:9894, V-A:GLU:543:CG:4905, V-B:ILE:369:CB:8208, V-A:GLU:543:C:4900"]

$$$$
4bg_Grossjean_2025
     RDKit          3D

 39 41  0  0  0  0  0  0  0  0999 V2000
  134.0680  123.7010   59.0830 C   0  0  0  0  0  0  0  0  0  0  0  0
  133.1250  124.3310   60.0930 C   0  0  0  0  0  0  0  0  0  0  0  0
  132.0090  125.0530   59.6800 C   0  0  0  0  0  0  0  0  0  0  0  0
  131.1480  125.6340   60.6250 C   0  0  0  0  0  0  0  0  0  0  0  0
  129.9330  126.4200   60.1220 C   0  0  0  0  0  0  0  0  0  0  0  0
  129.8520  126.4610   58.7910 F   0  0  0  0  0  0  0  0  0  0  0  0
  128.8130  125.8540   60.5730 F   0  0  0  0  0  0  0  0  0  0  0  0
  129.9960  127.6780   60.5570 F   0  0  0  0  0  0  0  0  0  0  0  0
  131.4710  125.4490   62.0020 C   0  0  0  0  0  0  0  0  0  0  0  0
  130.8460  125.8890   63.2250 C   0  0  0  0  0  0  0  0  0  0  0  0
  129.7100  126.6590   63.2430 N   0  0  0  0  0  0  0  0  0  0  0  0
  131.4970  125.4540   64.3890 C   0  0  0  0  0  0  0  0  0  0  0  0
  131.1580  125.7370   65.7840 C   0  0  0  0  0  0  0  0  0  0  0  0
  130.6220  124.8900   66.5000 O   0  0  0  0  0  0  0  0  0  0  0  0
  131.5040  126.9590   66.2390 N   0  0  0  0  0  0  0  0  0  0  0  0
  131.2530  127.4650   67.5880 C   0  0  0  0  0  0  0  0  0  0  0  0
  129.7880  127.4010   68.0000 C   0  0  0  0  0  0  0  0  0  0  0  0
  129.4400  127.3770   69.3540 C   0  0  0  0  0  0  0  0  0  0  0  0
  128.1000  127.3570   69.7280 C   0  0  0  0  0  0  0  0  0  0  0  0
  127.1090  127.3750   68.7480 C   0  0  0  0  0  0  0  0  0  0  0  0
  127.4470  127.4160   67.3980 C   0  0  0  0  0  0  0  0  0  0  0  0
  128.7890  127.4340   67.0230 C   0  0  0  0  0  0  0  0  0  0  0  0
  132.9350  124.5110   64.0060 S   0  0  0  0  0  0  0  0  0  0  0  0
  132.6410  124.6800   62.2910 C   0  0  0  0  0  0  0  0  0  0  0  0
  133.4560  124.1330   61.3900 N   0  0  0  0  0  0  0  0  0  0  0  0
  134.8692  123.1657   59.6136 H   0  0  0  0  0  0  0  0  0  0  0  0
  133.5100  122.9937   58.4519 H   0  0  0  0  0  0  0  0  0  0  0  0
  134.5079  124.4873   58.4519 H   0  0  0  0  0  0  0  0  0  0  0  0
  131.8001  125.1692   58.6063 H   0  0  0  0  0  0  0  0  0  0  0  0
  129.7460  127.6620   63.3520 H   0  0  0  0  0  0  0  0  0  0  0  0
  128.7930  126.2430   63.1570 H   0  0  0  0  0  0  0  0  0  0  0  0
  131.8670  127.6290   65.5760 H   0  0  0  0  0  0  0  0  0  0  0  0
  131.8408  126.8660   68.2991 H   0  0  0  0  0  0  0  0  0  0  0  0
  131.5440  128.5258   67.5942 H   0  0  0  0  0  0  0  0  0  0  0  0
  130.2258  127.3739   70.1237 H   0  0  0  0  0  0  0  0  0  0  0  0
  127.8239  127.3271   70.7924 H   0  0  0  0  0  0  0  0  0  0  0  0
  126.0497  127.3566   69.0440 H   0  0  0  0  0  0  0  0  0  0  0  0
  126.6586  127.4341   66.6312 H   0  0  0  0  0  0  0  0  0  0  0  0
  129.0621  127.4742   65.9582 H   0  0  0  0  0  0  0  0  0  0  0  0
  1  2  1  0
  2  3  2  0
  3  4  1  0
  4  5  1  0
  5  6  1  0
  5  7  1  0
  5  8  1  0
  4  9  2  0
  9 10  1  0
 10 11  1  0
 10 12  2  0
 12 13  1  0
 13 14  2  0
 13 15  1  0
 15 16  1  0
 16 17  1  0
 17 18  2  0
 18 19  1  0
 19 20  2  0
 20 21  1  0
 21 22  2  0
 12 23  1  0
 23 24  1  0
 24 25  2  0
 25  2  1  0
 24  9  1  0
 22 17  1  0
  1 26  1  0
  1 27  1  0
  1 28  1  0
  3 29  1  0
 11 30  1  0
 11 31  1  0
 15 32  1  0
 16 33  1  0
 16 34  1  0
 18 35  1  0
 19 36  1  0
 20 37  1  0
 21 38  1  0
 22 39  1  0
M  END
>  <Binding energies>  (1) 
[-6.7]

>  <Ligand effiencies>  (1) 
[-0.2392857142857143]

>  <Interactions>  (1) 
["V-A:GLU:543:CD:4906, V-A:ASP:366:CG:3211, V-B:GLU:543:CG:9879, V-A:HIS:456:CE1:4068, V-A:ASP:366:CB:3210, V-A:ILE:369:CB:3234, V-A:ARG:545:CD:4921, V-A:ILE:369:CD1:3237, V-A:ILE:369:CG2:3235, V-A:ARG:545:CG:4920, V-B:GLU:543:CD:9880, V-A:ARG:545:CZ:4924, V-A:GLY:454:CA:4047, V-A:ASP:366:CA:3208, V-B:GLU:543:C:9874, H-B:GLU:543:OE1:9881, H-A:TYR:484:OH:4346, H-A:GLU:543:OE1:4907, H-A:GLU:543:OE2:4908, H-B:GLU:543:OE2:9882, V-B:HIS:456:CE1:9042, V-B:ARG:545:CG:9894, V-A:GLU:543:CG:4905, V-B:GLY:544:C:9884"]

$$$$
4bh_Grossjean_2025
     RDKit          3D

 51 53  0  0  0  0  0  0  0  0999 V2000
  123.7260  133.7730   61.4710 C   0  0  0  0  0  0  0  0  0  0  0  0
  125.0760  133.8140   61.0240 O   0  0  0  0  0  0  0  0  0  0  0  0
  125.9530  132.8190   61.4170 C   0  0  0  0  0  0  0  0  0  0  0  0
  125.5690  131.6730   62.1300 C   0  0  0  0  0  0  0  0  0  0  0  0
  126.5080  130.7090   62.4970 C   0  0  0  0  0  0  0  0  0  0  0  0
  126.0650  129.4490   63.2310 C   0  0  0  0  0  0  0  0  0  0  0  0
  126.8410  128.2610   62.8730 N   0  0  0  0  0  0  0  0  0  0  0  0
  127.0700  127.8270   61.6160 C   0  0  0  0  0  0  0  0  0  0  0  0
  126.5990  128.3880   60.6250 O   0  0  0  0  0  0  0  0  0  0  0  0
  127.8800  126.6150   61.4930 C   0  0  0  0  0  0  0  0  0  0  0  0
  127.2690  125.2340   60.5860 S   0  0  0  0  0  0  0  0  0  0  0  0
  128.7030  124.3040   60.9540 C   0  0  0  0  0  0  0  0  0  0  0  0
  128.8570  123.0590   60.5040 N   0  0  0  0  0  0  0  0  0  0  0  0
  130.0100  122.4410   60.8520 C   0  0  0  0  0  0  0  0  0  0  0  0
  130.1650  121.0230   60.3320 C   0  0  0  0  0  0  0  0  0  0  0  0
  131.0020  123.0320   61.6290 C   0  0  0  0  0  0  0  0  0  0  0  0
  130.8440  124.3430   62.1070 C   0  0  0  0  0  0  0  0  0  0  0  0
  131.9650  124.9530   62.9560 C   0  0  0  0  0  0  0  0  0  0  0  0
  132.9040  124.0680   63.2960 F   0  0  0  0  0  0  0  0  0  0  0  0
  132.5640  125.9300   62.2770 F   0  0  0  0  0  0  0  0  0  0  0  0
  131.4560  125.4490   64.0840 F   0  0  0  0  0  0  0  0  0  0  0  0
  129.6390  125.0220   61.7600 C   0  0  0  0  0  0  0  0  0  0  0  0
  129.1320  126.3380   62.0640 C   0  0  0  0  0  0  0  0  0  0  0  0
  129.8200  127.2390   62.8350 N   0  0  0  0  0  0  0  0  0  0  0  0
  127.8440  130.8740   62.1250 C   0  0  0  0  0  0  0  0  0  0  0  0
  128.2580  132.0140   61.4190 C   0  0  0  0  0  0  0  0  0  0  0  0
  129.5650  132.2500   61.0300 O   0  0  0  0  0  0  0  0  0  0  0  0
  130.5140  131.1900   61.0980 C   0  0  0  0  0  0  0  0  0  0  0  0
  127.3030  132.9820   61.0760 C   0  0  0  0  0  0  0  0  0  0  0  0
  127.6920  134.0950   60.3680 O   0  0  0  0  0  0  0  0  0  0  0  0
  127.4680  135.3210   61.0500 C   0  0  0  0  0  0  0  0  0  0  0  0
  123.7038  133.7723   62.5708 H   0  0  0  0  0  0  0  0  0  0  0  0
  123.1879  134.6552   61.0939 H   0  0  0  0  0  0  0  0  0  0  0  0
  123.2425  132.8598   61.0939 H   0  0  0  0  0  0  0  0  0  0  0  0
  124.5127  131.5329   62.4033 H   0  0  0  0  0  0  0  0  0  0  0  0
  126.1705  129.6208   64.3124 H   0  0  0  0  0  0  0  0  0  0  0  0
  125.0225  129.2543   62.9390 H   0  0  0  0  0  0  0  0  0  0  0  0
  127.3260  127.8030   63.6310 H   0  0  0  0  0  0  0  0  0  0  0  0
  130.2410  120.3275   61.1808 H   0  0  0  0  0  0  0  0  0  0  0  0
  129.2903  120.7595   59.7192 H   0  0  0  0  0  0  0  0  0  0  0  0
  131.0760  120.9547   59.7192 H   0  0  0  0  0  0  0  0  0  0  0  0
  131.9155  122.4687   61.8702 H   0  0  0  0  0  0  0  0  0  0  0  0
  129.5560  128.2140   62.8810 H   0  0  0  0  0  0  0  0  0  0  0  0
  130.6230  126.9600   63.3800 H   0  0  0  0  0  0  0  0  0  0  0  0
  128.5808  130.1009   62.3886 H   0  0  0  0  0  0  0  0  0  0  0  0
  130.7253  130.9540   62.1514 H   0  0  0  0  0  0  0  0  0  0  0  0
  130.1057  130.2996   60.5976 H   0  0  0  0  0  0  0  0  0  0  0  0
  131.4440  131.4978   60.5976 H   0  0  0  0  0  0  0  0  0  0  0  0
  127.4997  135.1477   62.1358 H   0  0  0  0  0  0  0  0  0  0  0  0
  128.2490  136.0437   60.7711 H   0  0  0  0  0  0  0  0  0  0  0  0
  126.4819  135.7209   60.7711 H   0  0  0  0  0  0  0  0  0  0  0  0
  1  2  1  0
  2  3  1  0
  3  4  2  0
  4  5  1  0
  5  6  1  0
  6  7  1  0
  7  8  1  0
  8  9  2  0
  8 10  1  0
 10 11  1  0
 11 12  1  0
 12 13  2  0
 13 14  1  0
 14 15  1  0
 14 16  2  0
 16 17  1  0
 17 18  1  0
 18 19  1  0
 18 20  1  0
 18 21  1  0
 17 22  2  0
 22 23  1  0
 23 24  1  0
  5 25  2  0
 25 26  1  0
 26 27  1  0
 27 28  1  0
 26 29  2  0
 29 30  1  0
 30 31  1  0
 29  3  1  0
 23 10  2  0
 22 12  1  0
  1 32  1  0
  1 33  1  0
  1 34  1  0
  4 35  1  0
  6 36  1  0
  6 37  1  0
  7 38  1  0
 15 39  1  0
 15 40  1  0
 15 41  1  0
 16 42  1  0
 24 43  1  0
 24 44  1  0
 25 45  1  0
 28 46  1  0
 28 47  1  0
 28 48  1  0
 31 49  1  0
 31 50  1  0
 31 51  1  0
M  END
>  <Binding energies>  (1) 
[-5.25]

>  <Ligand effiencies>  (1) 
[-0.15441176470588236]

>  <Interactions>  (1) 
["V-A:GLU:543:CD:4906, V-A:ASP:366:CG:3211, V-B:TYR:539:CE2:9848, V-B:GLU:543:CD:9880, V-A:ARG:545:CZ:4924, V-A:GLY:454:CA:4047, V-B:TYR:539:CD2:9846, V-B:ALA:541:CB:9864, H-B:ARG:545:NH2:9900, V-A:TYR:539:CD2:4872, V-B:LEU:475:CD2:9231, V-A:ALA:541:CB:4890, H-B:GLU:543:OE1:9881, V-B:ARG:545:CZ:9898, H-A:GLU:543:OE1:4907, H-A:GLU:543:OE2:4908, H-B:GLU:543:OE2:9882, V-B:ILE:369:CD1:8211, V-B:ILE:369:CG2:8209, V-A:PRO:540:CA:4881, H-A:ALA:541:N:4889, V-B:PRO:482:CG:9299, V-B:PRO:482:CB:9298, V-B:TRP:381:CH2:8344"]

$$$$
4bi_Grossjean_2025
     RDKit          3D

 32 34  0  0  0  0  0  0  0  0999 V2000
  127.1270  135.8430   60.6460 C   0  0  0  0  0  0  0  0  0  0  0  0
  126.5690  134.5170   61.1310 C   0  0  0  0  0  0  0  0  0  0  0  0
  125.6470  133.8050   60.3680 C   0  0  0  0  0  0  0  0  0  0  0  0
  125.1410  132.5780   60.8270 C   0  0  0  0  0  0  0  0  0  0  0  0
  124.1350  131.8260   59.9490 C   0  0  0  0  0  0  0  0  0  0  0  0
  123.0220  131.4880   60.6040 F   0  0  0  0  0  0  0  0  0  0  0  0
  123.7750  132.5910   58.9190 F   0  0  0  0  0  0  0  0  0  0  0  0
  124.6860  130.7020   59.4910 F   0  0  0  0  0  0  0  0  0  0  0  0
  125.6100  132.1120   62.0910 C   0  0  0  0  0  0  0  0  0  0  0  0
  125.3230  130.9320   62.8700 C   0  0  0  0  0  0  0  0  0  0  0  0
  124.4400  129.9670   62.4560 N   0  0  0  0  0  0  0  0  0  0  0  0
  126.0320  130.8550   64.0800 C   0  0  0  0  0  0  0  0  0  0  0  0
  125.9740  129.8130   65.1090 C   0  0  0  0  0  0  0  0  0  0  0  0
  124.9100  129.2530   65.3780 O   0  0  0  0  0  0  0  0  0  0  0  0
  127.1560  129.5160   65.7040 N   0  0  0  0  0  0  0  0  0  0  0  0
  127.3910  128.5700   66.6930 C   0  0  0  0  0  0  0  0  0  0  0  0
  128.6260  128.4150   67.3210 C   0  0  0  0  0  0  0  0  0  0  0  0
  128.4440  127.3900   68.2220 C   0  0  0  0  0  0  0  0  0  0  0  0
  127.1650  126.9510   68.1400 O   0  0  0  0  0  0  0  0  0  0  0  0
  126.5080  127.7070   67.1670 N   0  0  0  0  0  0  0  0  0  0  0  0
  127.0640  132.2660   64.3040 S   0  0  0  0  0  0  0  0  0  0  0  0
  126.5560  132.9380   62.7720 C   0  0  0  0  0  0  0  0  0  0  0  0
  127.0330  134.1010   62.3310 N   0  0  0  0  0  0  0  0  0  0  0  0
  127.3903  136.4686   61.5116 H   0  0  0  0  0  0  0  0  0  0  0  0
  128.0253  135.6622   60.0375 H   0  0  0  0  0  0  0  0  0  0  0  0
  126.3697  136.3589   60.0375 H   0  0  0  0  0  0  0  0  0  0  0  0
  125.3130  134.2061   59.3998 H   0  0  0  0  0  0  0  0  0  0  0  0
  124.0880  129.9360   61.5090 H   0  0  0  0  0  0  0  0  0  0  0  0
  124.1050  129.2540   63.0880 H   0  0  0  0  0  0  0  0  0  0  0  0
  127.9680  130.0300   65.3940 H   0  0  0  0  0  0  0  0  0  0  0  0
  129.5468  128.9878   67.1365 H   0  0  0  0  0  0  0  0  0  0  0  0
  129.2135  126.9915   68.8996 H   0  0  0  0  0  0  0  0  0  0  0  0
  1  2  1  0
  2  3  2  0
  3  4  1  0
  4  5  1  0
  5  6  1  0
  5  7  1  0
  5  8  1  0
  4  9  2  0
  9 10  1  0
 10 11  1  0
 10 12  2  0
 12 13  1  0
 13 14  2  0
 13 15  1  0
 15 16  1  0
 16 17  1  0
 17 18  2  0
 18 19  1  0
 19 20  1  0
 12 21  1  0
 21 22  1  0
 22 23  2  0
 23  2  1  0
 22  9  1  0
 20 16  2  0
  1 24  1  0
  1 25  1  0
  1 26  1  0
  3 27  1  0
 11 28  1  0
 11 29  1  0
 15 30  1  0
 17 31  1  0
 18 32  1  0
M  END
>  <Binding energies>  (1) 
[-6.1]

>  <Ligand effiencies>  (1) 
[-0.23461538461538461]

>  <Interactions>  (1) 
["V-A:GLU:543:CD:4906, V-B:GLU:543:CG:9879, V-B:GLU:543:CD:9880, V-B:ASP:366:CB:8184, V-B:ASP:366:CG:8185, V-A:TYR:539:CE2:4874, H-B:ARG:545:NH2:9900, V-A:TYR:539:CD2:4872, H-B:ASP:366:OD1:8186, V-B:LEU:475:CD2:9231, V-A:ALA:541:CB:4890, H-B:TYR:484:OH:9320, V-B:ARG:545:CZ:9898, H-A:GLU:543:OE1:4907, H-A:GLU:543:OE2:4908, V-A:GLU:543:CB:4904, V-B:ILE:369:CD1:8211, V-B:ILE:369:CG2:8209, V-A:TYR:539:CZ:4875, V-B:HIS:456:CE1:9042, V-B:TYR:484:CE1:9317, V-B:TYR:484:CZ:9319, H-B:ARG:545:NE:9896, V-A:GLU:543:CG:4905, V-B:ILE:369:CB:8208, V-B:PRO:482:CG:9299, V-B:PRO:482:CB:9298, V-B:TRP:381:CZ2:8342, V-B:TRP:381:CH2:8344, V-B:ILE:369:CG1:8210, V-B:TRP:381:CZ3:8343"]

$$$$
4bj_Grossjean_2025
     RDKit          3D

 32 34  0  0  0  0  0  0  0  0999 V2000
  123.5030  131.5030   59.4160 C   0  0  0  0  0  0  0  0  0  0  0  0
  124.4990  130.8390   60.3490 C   0  0  0  0  0  0  0  0  0  0  0  0
  125.4280  129.9190   59.8700 C   0  0  0  0  0  0  0  0  0  0  0  0
  126.3390  129.3070   60.7450 C   0  0  0  0  0  0  0  0  0  0  0  0
  127.3410  128.2980   60.1710 C   0  0  0  0  0  0  0  0  0  0  0  0
  128.6110  128.6550   60.3690 F   0  0  0  0  0  0  0  0  0  0  0  0
  127.1640  127.1100   60.7480 F   0  0  0  0  0  0  0  0  0  0  0  0
  127.1580  128.1810   58.8560 F   0  0  0  0  0  0  0  0  0  0  0  0
  126.2660  129.6720   62.1220 C   0  0  0  0  0  0  0  0  0  0  0  0
  127.0130  129.2630   63.2870 C   0  0  0  0  0  0  0  0  0  0  0  0
  128.0280  128.3420   63.2310 N   0  0  0  0  0  0  0  0  0  0  0  0
  126.6130  129.8950   64.4760 C   0  0  0  0  0  0  0  0  0  0  0  0
  127.1420  129.7110   65.8290 C   0  0  0  0  0  0  0  0  0  0  0  0
  127.1530  130.6450   66.6350 O   0  0  0  0  0  0  0  0  0  0  0  0
  127.5900  128.4640   66.1160 N   0  0  0  0  0  0  0  0  0  0  0  0
  128.1240  128.0260   67.3200 C   0  0  0  0  0  0  0  0  0  0  0  0
  127.4890  127.7840   68.4460 N   0  0  0  0  0  0  0  0  0  0  0  0
  128.3130  127.3740   69.3890 C   0  0  0  0  0  0  0  0  0  0  0  0
  129.6550  127.2780   69.0350 C   0  0  0  0  0  0  0  0  0  0  0  0
  129.8370  127.7540   67.3730 S   0  0  0  0  0  0  0  0  0  0  0  0
  125.2760  131.0060   64.1900 S   0  0  0  0  0  0  0  0  0  0  0  0
  125.2710  130.6320   62.4820 C   0  0  0  0  0  0  0  0  0  0  0  0
  124.4060  131.2080   61.6480 N   0  0  0  0  0  0  0  0  0  0  0  0
  122.7319  132.0171   60.0086 H   0  0  0  0  0  0  0  0  0  0  0  0
  124.0258  132.2339   58.7816 H   0  0  0  0  0  0  0  0  0  0  0  0
  123.0294  130.7393   58.7816 H   0  0  0  0  0  0  0  0  0  0  0  0
  125.4481  129.6702   58.7987 H   0  0  0  0  0  0  0  0  0  0  0  0
  127.8490  127.3490   63.2060 H   0  0  0  0  0  0  0  0  0  0  0  0
  128.9970  128.6300   63.2180 H   0  0  0  0  0  0  0  0  0  0  0  0
  127.5270  127.7700   65.3860 H   0  0  0  0  0  0  0  0  0  0  0  0
  127.9595  127.1217   70.3997 H   0  0  0  0  0  0  0  0  0  0  0  0
  130.4693  126.9534   69.6994 H   0  0  0  0  0  0  0  0  0  0  0  0
  1  2  1  0
  2  3  2  0
  3  4  1  0
  4  5  1  0
  5  6  1  0
  5  7  1  0
  5  8  1  0
  4  9  2  0
  9 10  1  0
 10 11  1  0
 10 12  2  0
 12 13  1  0
 13 14  2  0
 13 15  1  0
 15 16  1  0
 16 17  2  0
 17 18  1  0
 18 19  2  0
 19 20  1  0
 12 21  1  0
 21 22  1  0
 22 23  2  0
 23  2  1  0
 22  9  1  0
 20 16  1  0
  1 24  1  0
  1 25  1  0
  1 26  1  0
  3 27  1  0
 11 28  1  0
 11 29  1  0
 15 30  1  0
 18 31  1  0
 19 32  1  0
M  END
>  <Binding energies>  (1) 
[-5.81]

>  <Ligand effiencies>  (1) 
[-0.22346153846153843]

>  <Interactions>  (1) 
["V-A:GLU:543:CD:4906, V-B:GLU:543:CG:9879, V-A:HIS:456:CE1:4068, V-B:GLU:543:CD:9880, V-B:GLU:543:C:9874, V-B:ASP:366:CB:8184, V-B:ASP:366:CG:8185, V-A:TYR:539:CE2:4874, H-B:TYR:484:OH:9320, H-B:GLU:543:OE1:9881, H-A:GLU:543:OE1:4907, H-A:GLU:543:OE2:4908, V-A:GLU:543:CB:4904, H-B:GLU:543:OE2:9882, V-B:ILE:369:CD1:8211, V-B:ILE:369:CG2:8209, V-B:HIS:456:CE1:9042, V-B:ASP:366:CA:8182, V-A:GLU:543:CG:4905, V-B:ILE:369:CB:8208"]

$$$$
4bk_Grossjean_2025
     RDKit          3D

 50 51  0  0  0  0  0  0  0  0999 V2000
  126.7100  130.1850   74.4930 C   0  0  0  0  0  0  0  0  0  0  0  0
  127.7630  129.5990   73.7420 O   0  0  0  0  0  0  0  0  0  0  0  0
  127.4930  128.2640   73.3360 C   0  0  0  0  0  0  0  0  0  0  0  0
  127.8490  128.0980   71.8530 C   0  0  0  0  0  0  0  0  0  0  0  0
  128.7820  127.0360   71.7070 O   0  0  0  0  0  0  0  0  0  0  0  0
  129.6640  127.1950   70.6050 C   0  0  0  0  0  0  0  0  0  0  0  0
  128.8850  127.7460   69.4030 C   0  0  0  0  0  0  0  0  0  0  0  0
  129.6600  127.5770   68.2240 O   0  0  0  0  0  0  0  0  0  0  0  0
  128.8830  127.3470   67.0540 C   0  0  0  0  0  0  0  0  0  0  0  0
  127.4800  127.9470   67.2470 C   0  0  0  0  0  0  0  0  0  0  0  0
  126.9710  128.6440   66.0640 N   0  0  0  0  0  0  0  0  0  0  0  0
  126.9560  129.9820   65.8940 C   0  0  0  0  0  0  0  0  0  0  0  0
  127.4020  130.7600   66.7390 O   0  0  0  0  0  0  0  0  0  0  0  0
  126.3850  130.4650   64.6360 C   0  0  0  0  0  0  0  0  0  0  0  0
  125.0140  129.6310   63.9100 S   0  0  0  0  0  0  0  0  0  0  0  0
  124.9620  130.7730   62.5890 C   0  0  0  0  0  0  0  0  0  0  0  0
  124.0590  130.6690   61.6150 N   0  0  0  0  0  0  0  0  0  0  0  0
  124.1170  131.6140   60.6470 C   0  0  0  0  0  0  0  0  0  0  0  0
  123.0770  131.4780   59.5490 C   0  0  0  0  0  0  0  0  0  0  0  0
  125.0480  132.6490   60.6310 C   0  0  0  0  0  0  0  0  0  0  0  0
  126.0030  132.7630   61.6530 C   0  0  0  0  0  0  0  0  0  0  0  0
  127.0100  133.9170   61.5890 C   0  0  0  0  0  0  0  0  0  0  0  0
  127.0880  134.6050   62.7300 F   0  0  0  0  0  0  0  0  0  0  0  0
  128.2260  133.4400   61.3260 F   0  0  0  0  0  0  0  0  0  0  0  0
  126.6560  134.7720   60.6320 F   0  0  0  0  0  0  0  0  0  0  0  0
  125.9690  131.7840   62.6900 C   0  0  0  0  0  0  0  0  0  0  0  0
  126.7640  131.5810   63.8760 C   0  0  0  0  0  0  0  0  0  0  0  0
  127.8010  132.4090   64.2230 N   0  0  0  0  0  0  0  0  0  0  0  0
  126.9174  130.0696   75.5671 H   0  0  0  0  0  0  0  0  0  0  0  0
  126.6352  131.2545   74.2468 H   0  0  0  0  0  0  0  0  0  0  0  0
  125.7617  129.6849   74.2468 H   0  0  0  0  0  0  0  0  0  0  0  0
  128.0965  127.5686   73.9379 H   0  0  0  0  0  0  0  0  0  0  0  0
  126.4251  128.0451   73.4832 H   0  0  0  0  0  0  0  0  0  0  0  0
  126.9383  127.8676   71.2806 H   0  0  0  0  0  0  0  0  0  0  0  0
  128.2926  129.0310   71.4752 H   0  0  0  0  0  0  0  0  0  0  0  0
  130.4662  127.8974   70.8755 H   0  0  0  0  0  0  0  0  0  0  0  0
  130.1031  126.2211   70.3427 H   0  0  0  0  0  0  0  0  0  0  0  0
  127.9351  127.2011   69.2996 H   0  0  0  0  0  0  0  0  0  0  0  0
  128.6770  128.8151   69.5573 H   0  0  0  0  0  0  0  0  0  0  0  0
  129.3702  127.8231   66.1903 H   0  0  0  0  0  0  0  0  0  0  0  0
  128.7987  126.2649   66.8755 H   0  0  0  0  0  0  0  0  0  0  0  0
  126.7847  127.1318   67.4959 H   0  0  0  0  0  0  0  0  0  0  0  0
  127.5568  128.6929   68.0518 H   0  0  0  0  0  0  0  0  0  0  0  0
  126.5910  128.0610   65.3340 H   0  0  0  0  0  0  0  0  0  0  0  0
  122.0823  131.3479   60.0002 H   0  0  0  0  0  0  0  0  0  0  0  0
  123.0812  132.3843   58.9257 H   0  0  0  0  0  0  0  0  0  0  0  0
  123.3141  130.6032   58.9257 H   0  0  0  0  0  0  0  0  0  0  0  0
  125.0350  133.3826   59.8115 H   0  0  0  0  0  0  0  0  0  0  0  0
  128.7490  132.2380   63.9150 H   0  0  0  0  0  0  0  0  0  0  0  0
  127.6510  133.2250   64.8000 H   0  0  0  0  0  0  0  0  0  0  0  0
  1  2  1  0
  2  3  1  0
  3  4  1  0
  4  5  1  0
  5  6  1  0
  6  7  1  0
  7  8  1  0
  8  9  1  0
  9 10  1  0
 10 11  1  0
 11 12  1  0
 12 13  2  0
 12 14  1  0
 14 15  1  0
 15 16  1  0
 16 17  2  0
 17 18  1  0
 18 19  1  0
 18 20  2  0
 20 21  1  0
 21 22  1  0
 22 23  1  0
 22 24  1  0
 22 25  1  0
 21 26  2  0
 26 27  1  0
 27 28  1  0
 27 14  2  0
 26 16  1  0
  1 29  1  0
  1 30  1  0
  1 31  1  0
  3 32  1  0
  3 33  1  0
  4 34  1  0
  4 35  1  0
  6 36  1  0
  6 37  1  0
  7 38  1  0
  7 39  1  0
  9 40  1  0
  9 41  1  0
 10 42  1  0
 10 43  1  0
 11 44  1  0
 19 45  1  0
 19 46  1  0
 19 47  1  0
 20 48  1  0
 28 49  1  0
 28 50  1  0
M  END
>  <Binding energies>  (1) 
[-6.05]

>  <Ligand effiencies>  (1) 
[-0.19516129032258064]

>  <Interactions>  (1) 
["V-A:GLU:543:CD:4906, V-B:GLU:543:CG:9879, V-A:HIS:456:CE1:4068, V-B:GLU:543:CD:9880, V-B:LYS:547:CE:9922, V-B:ASP:366:CB:8184, V-B:ASP:366:CG:8185, V-A:TYR:539:CE2:4874, V-A:TYR:539:CD2:4872, V-B:LEU:475:CD2:9231, V-A:ALA:541:CB:4890, H-B:TYR:484:OH:9320, V-B:ARG:545:CZ:9898, H-A:GLU:543:OE1:4907, V-A:GLU:543:CB:4904, H-B:GLU:543:OE2:9882, V-B:ILE:369:CD1:8211, V-B:ILE:369:CG2:8209, V-B:HIS:456:CE1:9042, V-B:TYR:484:CE1:9317, V-B:TYR:484:CZ:9319, V-B:ASP:366:CA:8182, V-B:ARG:545:CG:9894, V-A:GLU:543:CG:4905, V-B:ILE:369:CB:8208, V-B:TRP:381:CH2:8344, V-B:HIS:456:CG:9038, H-A:LYS:547:NZ:4949, V-B:HIS:456:CB:9037, V-A:GLU:543:C:4900, V-B:HIS:456:CD2:9040, V-B:GLY:544:C:9884, V-A:ALA:541:CA:4888, V-B:ILE:369:CG1:8210, V-B:LEU:475:CG:9229, V-B:LEU:475:CD1:9230"]

$$$$
4ca_Grossjean_2025
     RDKit          3D

 52 55  0  0  0  0  0  0  0  0999 V2000
  123.6470  134.0260   61.6710 C   0  0  0  0  0  0  0  0  0  0  0  0
  124.5030  134.6960   60.5920 C   0  0  0  0  0  0  0  0  0  0  0  0
  125.4100  135.6040   61.2040 O   0  0  0  0  0  0  0  0  0  0  0  0
  126.7400  135.3340   61.2640 C   0  0  0  0  0  0  0  0  0  0  0  0
  127.6110  136.2090   61.2900 O   0  0  0  0  0  0  0  0  0  0  0  0
  127.0450  133.8650   61.2990 C   0  0  0  0  0  0  0  0  0  0  0  0
  127.5780  133.2490   60.1580 C   0  0  0  0  0  0  0  0  0  0  0  0
  127.8760  131.8890   60.1620 C   0  0  0  0  0  0  0  0  0  0  0  0
  127.6400  131.1160   61.2980 C   0  0  0  0  0  0  0  0  0  0  0  0
  127.9860  129.7540   61.1940 N   0  0  0  0  0  0  0  0  0  0  0  0
  127.6590  128.7080   61.9920 C   0  0  0  0  0  0  0  0  0  0  0  0
  126.9190  128.7910   62.9730 O   0  0  0  0  0  0  0  0  0  0  0  0
  128.2390  127.4200   61.6030 C   0  0  0  0  0  0  0  0  0  0  0  0
  129.8670  126.9880   62.1210 S   0  0  0  0  0  0  0  0  0  0  0  0
  129.7510  125.4310   61.3360 C   0  0  0  0  0  0  0  0  0  0  0  0
  130.7550  124.5590   61.3750 N   0  0  0  0  0  0  0  0  0  0  0  0
  130.5690  123.3680   60.7490 C   0  0  0  0  0  0  0  0  0  0  0  0
  131.7160  122.4020   60.8200 C   0  0  0  0  0  0  0  0  0  0  0  0
  131.6430  121.1520   60.1840 C   0  0  0  0  0  0  0  0  0  0  0  0
  132.7010  120.2490   60.2510 C   0  0  0  0  0  0  0  0  0  0  0  0
  133.8520  120.5840   60.9570 C   0  0  0  0  0  0  0  0  0  0  0  0
  133.9500  121.8150   61.5980 C   0  0  0  0  0  0  0  0  0  0  0  0
  132.8890  122.7150   61.5290 C   0  0  0  0  0  0  0  0  0  0  0  0
  129.3840  123.0690   60.0680 C   0  0  0  0  0  0  0  0  0  0  0  0
  128.3210  123.9840   60.0170 C   0  0  0  0  0  0  0  0  0  0  0  0
  127.0500  123.5890   59.2550 C   0  0  0  0  0  0  0  0  0  0  0  0
  126.5900  124.5620   58.4660 F   0  0  0  0  0  0  0  0  0  0  0  0
  127.2960  122.5320   58.4830 F   0  0  0  0  0  0  0  0  0  0  0  0
  126.0820  123.2880   60.1200 F   0  0  0  0  0  0  0  0  0  0  0  0
  128.5000  125.2290   60.6850 C   0  0  0  0  0  0  0  0  0  0  0  0
  127.6520  126.3840   60.8560 C   0  0  0  0  0  0  0  0  0  0  0  0
  126.3870  126.4590   60.3320 N   0  0  0  0  0  0  0  0  0  0  0  0
  127.1120  131.7240   62.4460 C   0  0  0  0  0  0  0  0  0  0  0  0
  126.8170  133.0850   62.4430 C   0  0  0  0  0  0  0  0  0  0  0  0
  124.0174  134.3159   62.6654 H   0  0  0  0  0  0  0  0  0  0  0  0
  122.6008  134.3477   61.5613 H   0  0  0  0  0  0  0  0  0  0  0  0
  123.7080  132.9332   61.5613 H   0  0  0  0  0  0  0  0  0  0  0  0
  125.0673  133.9283   60.0423 H   0  0  0  0  0  0  0  0  0  0  0  0
  123.8520  135.2422   59.8936 H   0  0  0  0  0  0  0  0  0  0  0  0
  127.7623  133.8451   59.2521 H   0  0  0  0  0  0  0  0  0  0  0  0
  128.3009  131.4208   59.2619 H   0  0  0  0  0  0  0  0  0  0  0  0
  128.5550  129.5340   60.3910 H   0  0  0  0  0  0  0  0  0  0  0  0
  130.7356  120.8819   59.6240 H   0  0  0  0  0  0  0  0  0  0  0  0
  132.6269  119.2739   59.7473 H   0  0  0  0  0  0  0  0  0  0  0  0
  134.6889  119.8720   61.0087 H   0  0  0  0  0  0  0  0  0  0  0  0
  134.8609  122.0763   62.1566 H   0  0  0  0  0  0  0  0  0  0  0  0
  132.9703  123.6869   62.0378 H   0  0  0  0  0  0  0  0  0  0  0  0
  129.2834  122.0973   59.5624 H   0  0  0  0  0  0  0  0  0  0  0  0
  125.6330  125.8780   60.6720 H   0  0  0  0  0  0  0  0  0  0  0  0
  126.1630  127.1030   59.5860 H   0  0  0  0  0  0  0  0  0  0  0  0
  126.9305  131.1249   63.3505 H   0  0  0  0  0  0  0  0  0  0  0  0
  126.4008  133.5536   63.3470 H   0  0  0  0  0  0  0  0  0  0  0  0
  1  2  1  0
  2  3  1  0
  3  4  1  0
  4  5  2  0
  4  6  1  0
  6  7  2  0
  7  8  1  0
  8  9  2  0
  9 10  1  0
 10 11  1  0
 11 12  2  0
 11 13  1  0
 13 14  1  0
 14 15  1  0
 15 16  2  0
 16 17  1  0
 17 18  1  0
 18 19  2  0
 19 20  1  0
 20 21  2  0
 21 22  1  0
 22 23  2  0
 17 24  2  0
 24 25  1  0
 25 26  1  0
 26 27  1  0
 26 28  1  0
 26 29  1  0
 25 30  2  0
 30 31  1  0
 31 32  1  0
  9 33  1  0
 33 34  2  0
 34  6  1  0
 31 13  2  0
 30 15  1  0
 23 18  1  0
  1 35  1  0
  1 36  1  0
  1 37  1  0
  2 38  1  0
  2 39  1  0
  7 40  1  0
  8 41  1  0
 10 42  1  0
 19 43  1  0
 20 44  1  0
 21 45  1  0
 22 46  1  0
 23 47  1  0
 24 48  1  0
 32 49  1  0
 32 50  1  0
 33 51  1  0
 34 52  1  0
M  END
>  <Binding energies>  (1) 
[-6.16]

>  <Ligand effiencies>  (1) 
[-0.16648648648648648]

>  <Interactions>  (1) 
["V-B:TYR:539:CE2:9848, V-A:ILE:369:CD1:3237, V-A:ILE:369:CG2:3235, V-A:GLY:454:CA:4047, V-B:PRO:540:CB:9857, V-B:ASP:366:CG:8185, V-B:PRO:540:C:9853, V-B:TYR:539:CD2:9846, V-B:PRO:540:N:9856, V-B:PRO:540:CA:9855, V-A:TYR:539:CE2:4874, H-B:ARG:545:NH2:9900, V-A:TYR:539:CD2:4872, V-A:LEU:475:CD2:4257, V-B:LEU:475:CD2:9231, V-A:ALA:541:CB:4890, V-B:TYR:539:C:9839, V-B:ILE:369:CD1:8211, V-B:ILE:369:CG2:8209, H-B:ASP:366:OD2:8187, V-B:TRP:381:CZ2:8342, V-B:TRP:381:CH2:8344, V-A:TRP:381:CZ2:3368, V-A:TRP:381:CH2:3370, V-B:TYR:539:CA:9841, V-A:SER:385:C:3403"]

$$$$
4cb_Grossjean_2025
     RDKit          3D

 49 52  0  0  0  0  0  0  0  0999 V2000
  133.1510  120.5620   60.3080 C   0  0  0  0  0  0  0  0  0  0  0  0
  132.2460  119.5030   60.5920 O   0  0  0  0  0  0  0  0  0  0  0  0
  130.9450  119.7560   60.8840 C   0  0  0  0  0  0  0  0  0  0  0  0
  130.0980  118.8720   61.0460 O   0  0  0  0  0  0  0  0  0  0  0  0
  130.6350  121.2230   60.9930 C   0  0  0  0  0  0  0  0  0  0  0  0
  130.1550  121.9060   59.8680 C   0  0  0  0  0  0  0  0  0  0  0  0
  129.8510  123.2620   59.9400 C   0  0  0  0  0  0  0  0  0  0  0  0
  130.0270  123.9650   61.1320 C   0  0  0  0  0  0  0  0  0  0  0  0
  129.6760  125.3280   61.0950 N   0  0  0  0  0  0  0  0  0  0  0  0
  130.0220  126.3410   61.9260 C   0  0  0  0  0  0  0  0  0  0  0  0
  130.7900  126.2210   62.8820 O   0  0  0  0  0  0  0  0  0  0  0  0
  129.4280  127.6420   61.6070 C   0  0  0  0  0  0  0  0  0  0  0  0
  127.8280  128.0600   62.2140 S   0  0  0  0  0  0  0  0  0  0  0  0
  127.9100  129.6430   61.4760 C   0  0  0  0  0  0  0  0  0  0  0  0
  126.9120  130.5150   61.5890 N   0  0  0  0  0  0  0  0  0  0  0  0
  127.0720  131.7240   60.9900 C   0  0  0  0  0  0  0  0  0  0  0  0
  125.9320  132.6890   61.1390 C   0  0  0  0  0  0  0  0  0  0  0  0
  124.7630  132.3180   61.8220 C   0  0  0  0  0  0  0  0  0  0  0  0
  123.6990  133.2060   61.9610 C   0  0  0  0  0  0  0  0  0  0  0  0
  123.7910  134.4830   61.4160 C   0  0  0  0  0  0  0  0  0  0  0  0
  124.9370  134.8760   60.7320 C   0  0  0  0  0  0  0  0  0  0  0  0
  125.9960  133.9830   60.5940 C   0  0  0  0  0  0  0  0  0  0  0  0
  128.2250  132.0410   60.2630 C   0  0  0  0  0  0  0  0  0  0  0  0
  129.2820  131.1270   60.1350 C   0  0  0  0  0  0  0  0  0  0  0  0
  130.5180  131.5410   59.3260 C   0  0  0  0  0  0  0  0  0  0  0  0
  130.9510  130.5800   58.5070 F   0  0  0  0  0  0  0  0  0  0  0  0
  130.2290  132.6040   58.5760 F   0  0  0  0  0  0  0  0  0  0  0  0
  131.5180  131.8420   60.1530 F   0  0  0  0  0  0  0  0  0  0  0  0
  129.1310  129.8620   60.7740 C   0  0  0  0  0  0  0  0  0  0  0  0
  129.9830  128.7020   60.8700 C   0  0  0  0  0  0  0  0  0  0  0  0
  131.2240  128.6440   60.2890 N   0  0  0  0  0  0  0  0  0  0  0  0
  130.5050  123.2880   62.2640 C   0  0  0  0  0  0  0  0  0  0  0  0
  130.8060  121.9310   62.1920 C   0  0  0  0  0  0  0  0  0  0  0  0
  133.5190  120.9926   61.2509 H   0  0  0  0  0  0  0  0  0  0  0  0
  133.9999  120.1729   59.7267 H   0  0  0  0  0  0  0  0  0  0  0  0
  132.6343  121.3399   59.7267 H   0  0  0  0  0  0  0  0  0  0  0  0
  130.0172  121.3658   58.9197 H   0  0  0  0  0  0  0  0  0  0  0  0
  129.4689  123.7836   59.0501 H   0  0  0  0  0  0  0  0  0  0  0  0
  129.0800  125.5790   60.3200 H   0  0  0  0  0  0  0  0  0  0  0  0
  124.6860  131.3095   62.2545 H   0  0  0  0  0  0  0  0  0  0  0  0
  122.7900  132.8992   62.4992 H   0  0  0  0  0  0  0  0  0  0  0  0
  122.9524  135.1862   61.5267 H   0  0  0  0  0  0  0  0  0  0  0  0
  125.0059  135.8864   60.3027 H   0  0  0  0  0  0  0  0  0  0  0  0
  126.8988  134.2956   60.0488 H   0  0  0  0  0  0  0  0  0  0  0  0
  128.3043  133.0271   59.7820 H   0  0  0  0  0  0  0  0  0  0  0  0
  131.8130  129.4610   60.2040 H   0  0  0  0  0  0  0  0  0  0  0  0
  131.5970  127.7770   59.9290 H   0  0  0  0  0  0  0  0  0  0  0  0
  130.6422  123.8310   63.2108 H   0  0  0  0  0  0  0  0  0  0  0  0
  131.1817  121.4085   63.0841 H   0  0  0  0  0  0  0  0  0  0  0  0
  1  2  1  0
  2  3  1  0
  3  4  2  0
  3  5  1  0
  5  6  2  0
  6  7  1  0
  7  8  2  0
  8  9  1  0
  9 10  1  0
 10 11  2  0
 10 12  1  0
 12 13  1  0
 13 14  1  0
 14 15  2  0
 15 16  1  0
 16 17  1  0
 17 18  2  0
 18 19  1  0
 19 20  2  0
 20 21  1  0
 21 22  2  0
 16 23  2  0
 23 24  1  0
 24 25  1  0
 25 26  1  0
 25 27  1  0
 25 28  1  0
 24 29  2  0
 29 30  1  0
 30 31  1  0
  8 32  1  0
 32 33  2  0
 33  5  1  0
 30 12  2  0
 29 14  1  0
 22 17  1  0
  1 34  1  0
  1 35  1  0
  1 36  1  0
  6 37  1  0
  7 38  1  0
  9 39  1  0
 18 40  1  0
 19 41  1  0
 20 42  1  0
 21 43  1  0
 22 44  1  0
 23 45  1  0
 31 46  1  0
 31 47  1  0
 32 48  1  0
 33 49  1  0
M  END
>  <Binding energies>  (1) 
[-6.01]

>  <Ligand effiencies>  (1) 
[-0.16694444444444445]

>  <Interactions>  (1) 
["V-A:ASP:366:CG:3211, V-B:TYR:539:CE2:9848, V-A:ILE:369:CG2:3235, V-B:GLU:543:CD:9880, V-B:TYR:539:CD2:9846, V-B:ALA:541:CB:9864, V-A:TYR:539:CE2:4874, V-B:GLY:454:CA:9021, V-A:TYR:539:CD2:4872, H-A:ASP:366:OD1:3212, V-A:LEU:475:CD2:4257, V-B:LEU:475:CD2:9231, V-A:TYR:539:C:4865, H-A:ARG:545:NH2:4926, V-B:ILE:369:CD1:8211, V-B:ILE:369:CG2:8209, V-A:PRO:540:CA:4881, V-A:PRO:540:CB:4883, V-A:PRO:540:C:4879, H-A:ASP:366:OD2:3213, V-A:TYR:539:CA:4867, V-A:PRO:540:N:4882, V-A:PRO:540:CD:4885, V-B:TRP:381:CZ2:8342, V-B:TRP:381:CH2:8344, V-A:TRP:381:CZ2:3368, V-A:TRP:381:CH2:3370"]

$$$$
4cc_Grossjean_2025
     RDKit          3D

 47 50  0  0  0  0  0  0  0  0999 V2000
  127.5220  136.2000   60.9910 C   0  0  0  0  0  0  0  0  0  0  0  0
  126.4730  135.3380   61.4160 O   0  0  0  0  0  0  0  0  0  0  0  0
  126.6830  133.9720   61.4230 C   0  0  0  0  0  0  0  0  0  0  0  0
  127.8430  133.5180   60.7960 C   0  0  0  0  0  0  0  0  0  0  0  0
  128.1400  132.1590   60.7540 C   0  0  0  0  0  0  0  0  0  0  0  0
  127.2720  131.2310   61.3320 C   0  0  0  0  0  0  0  0  0  0  0  0
  127.6640  129.8810   61.2540 N   0  0  0  0  0  0  0  0  0  0  0  0
  127.4070  128.8640   62.1110 C   0  0  0  0  0  0  0  0  0  0  0  0
  126.7180  128.9760   63.1260 O   0  0  0  0  0  0  0  0  0  0  0  0
  128.0100  127.5750   61.7570 C   0  0  0  0  0  0  0  0  0  0  0  0
  129.6770  127.2210   62.2090 S   0  0  0  0  0  0  0  0  0  0  0  0
  129.5850  125.6360   61.4790 C   0  0  0  0  0  0  0  0  0  0  0  0
  130.6230  124.8030   61.4930 N   0  0  0  0  0  0  0  0  0  0  0  0
  130.4540  123.5890   60.9090 C   0  0  0  0  0  0  0  0  0  0  0  0
  131.6430  122.6730   60.9380 C   0  0  0  0  0  0  0  0  0  0  0  0
  131.6500  121.4830   60.1920 C   0  0  0  0  0  0  0  0  0  0  0  0
  132.7490  120.6270   60.2160 C   0  0  0  0  0  0  0  0  0  0  0  0
  133.8590  120.9500   60.9890 C   0  0  0  0  0  0  0  0  0  0  0  0
  133.8760  122.1210   61.7400 C   0  0  0  0  0  0  0  0  0  0  0  0
  132.7750  122.9730   61.7140 C   0  0  0  0  0  0  0  0  0  0  0  0
  129.2500  123.2240   60.2990 C   0  0  0  0  0  0  0  0  0  0  0  0
  128.1490  124.0950   60.2770 C   0  0  0  0  0  0  0  0  0  0  0  0
  126.8580  123.6270   59.5970 C   0  0  0  0  0  0  0  0  0  0  0  0
  126.3090  124.5600   58.8130 F   0  0  0  0  0  0  0  0  0  0  0  0
  127.1100  122.5640   58.8330 F   0  0  0  0  0  0  0  0  0  0  0  0
  125.9540  123.3000   60.5200 F   0  0  0  0  0  0  0  0  0  0  0  0
  128.3120  125.3680   60.8950 C   0  0  0  0  0  0  0  0  0  0  0  0
  127.4330  126.4980   61.0660 C   0  0  0  0  0  0  0  0  0  0  0  0
  126.1440  126.5130   60.5950 N   0  0  0  0  0  0  0  0  0  0  0  0
  126.1090  131.6810   61.9750 C   0  0  0  0  0  0  0  0  0  0  0  0
  125.8160  133.0410   62.0150 C   0  0  0  0  0  0  0  0  0  0  0  0
  128.0317  136.6188   61.8712 H   0  0  0  0  0  0  0  0  0  0  0  0
  128.2429  135.6299   60.3866 H   0  0  0  0  0  0  0  0  0  0  0  0
  127.1025  137.0177   60.3866 H   0  0  0  0  0  0  0  0  0  0  0  0
  128.5294  134.2406   60.3304 H   0  0  0  0  0  0  0  0  0  0  0  0
  129.0624  131.8147   60.2634 H   0  0  0  0  0  0  0  0  0  0  0  0
  128.1860  129.6450   60.4240 H   0  0  0  0  0  0  0  0  0  0  0  0
  130.7743  121.2228   59.5793 H   0  0  0  0  0  0  0  0  0  0  0  0
  132.7387  119.6989   59.6256 H   0  0  0  0  0  0  0  0  0  0  0  0
  134.7282  120.2760   61.0067 H   0  0  0  0  0  0  0  0  0  0  0  0
  134.7551  122.3726   62.3515 H   0  0  0  0  0  0  0  0  0  0  0  0
  132.7919  123.8966   62.3112 H   0  0  0  0  0  0  0  0  0  0  0  0
  129.1636  122.2343   59.8267 H   0  0  0  0  0  0  0  0  0  0  0  0
  125.5920  127.3590   60.5750 H   0  0  0  0  0  0  0  0  0  0  0  0
  125.7010  125.6720   60.2530 H   0  0  0  0  0  0  0  0  0  0  0  0
  125.4280  130.9581   62.4480 H   0  0  0  0  0  0  0  0  0  0  0  0
  124.8991  133.3882   62.5138 H   0  0  0  0  0  0  0  0  0  0  0  0
  1  2  1  0
  2  3  1  0
  3  4  2  0
  4  5  1  0
  5  6  2  0
  6  7  1  0
  7  8  1  0
  8  9  2  0
  8 10  1  0
 10 11  1  0
 11 12  1  0
 12 13  2  0
 13 14  1  0
 14 15  1  0
 15 16  2  0
 16 17  1  0
 17 18  2  0
 18 19  1  0
 19 20  2  0
 14 21  2  0
 21 22  1  0
 22 23  1  0
 23 24  1  0
 23 25  1  0
 23 26  1  0
 22 27  2  0
 27 28  1  0
 28 29  1  0
  6 30  1  0
 30 31  2  0
 31  3  1  0
 28 10  2  0
 27 12  1  0
 20 15  1  0
  1 32  1  0
  1 33  1  0
  1 34  1  0
  4 35  1  0
  5 36  1  0
  7 37  1  0
 16 38  1  0
 17 39  1  0
 18 40  1  0
 19 41  1  0
 20 42  1  0
 21 43  1  0
 29 44  1  0
 29 45  1  0
 30 46  1  0
 31 47  1  0
M  END
>  <Binding energies>  (1) 
[-5.87]

>  <Ligand effiencies>  (1) 
[-0.1726470588235294]

>  <Interactions>  (1) 
["V-A:GLU:543:CD:4906, V-B:TYR:539:CE2:9848, V-A:ILE:369:CD1:3237, V-A:ILE:369:CG2:3235, V-A:GLY:454:CA:4047, V-B:PRO:540:CB:9857, V-B:ASP:366:CG:8185, V-B:PRO:540:C:9853, V-B:TYR:539:CD2:9846, V-B:PRO:540:N:9856, V-B:PRO:540:CA:9855, H-B:ARG:545:NH2:9900, V-A:TYR:539:CD2:4872, H-B:ASP:366:OD1:8186, V-A:LEU:475:CD2:4257, V-B:LEU:475:CD2:9231, V-A:ALA:541:CB:4890, V-B:TYR:539:C:9839, H-B:ASP:366:OD2:8187, V-B:PRO:482:CG:9299, V-B:PRO:482:CB:9298, V-B:TRP:381:CZ2:8342, V-B:TRP:381:CH2:8344, V-A:TRP:381:CH2:3370, V-B:TRP:381:CZ3:8343"]

$$$$
4cd_Grossjean_2025
     RDKit          3D

 43 46  0  0  0  0  0  0  0  0999 V2000
  126.0850  126.7220   60.5980 N   0  0  0  0  0  0  0  0  0  0  0  0
  127.3630  126.6750   61.0960 C   0  0  0  0  0  0  0  0  0  0  0  0
  127.9380  127.7180   61.8400 C   0  0  0  0  0  0  0  0  0  0  0  0
  127.3490  129.0090   62.2090 C   0  0  0  0  0  0  0  0  0  0  0  0
  126.6200  129.1080   63.1960 O   0  0  0  0  0  0  0  0  0  0  0  0
  127.6740  130.0480   61.4000 N   0  0  0  0  0  0  0  0  0  0  0  0
  127.2430  131.3870   61.4440 C   0  0  0  0  0  0  0  0  0  0  0  0
  128.1500  132.3380   60.9690 C   0  0  0  0  0  0  0  0  0  0  0  0
  127.8120  133.6880   60.9580 C   0  0  0  0  0  0  0  0  0  0  0  0
  126.5610  134.0890   61.4180 C   0  0  0  0  0  0  0  0  0  0  0  0
  125.6420  133.1510   61.8820 C   0  0  0  0  0  0  0  0  0  0  0  0
  125.9770  131.7990   61.8940 C   0  0  0  0  0  0  0  0  0  0  0  0
  129.5830  127.3190   62.3280 S   0  0  0  0  0  0  0  0  0  0  0  0
  129.4930  125.7690   61.5280 C   0  0  0  0  0  0  0  0  0  0  0  0
  130.5210  124.9230   61.5350 N   0  0  0  0  0  0  0  0  0  0  0  0
  130.3610  123.7460   60.8740 C   0  0  0  0  0  0  0  0  0  0  0  0
  131.5370  122.8140   60.8970 C   0  0  0  0  0  0  0  0  0  0  0  0
  132.7220  123.1680   61.5640 C   0  0  0  0  0  0  0  0  0  0  0  0
  133.8160  122.3080   61.5900 C   0  0  0  0  0  0  0  0  0  0  0  0
  133.7420  121.0770   60.9460 C   0  0  0  0  0  0  0  0  0  0  0  0
  132.5800  120.7010   60.2810 C   0  0  0  0  0  0  0  0  0  0  0  0
  131.4880  121.5620   60.2600 C   0  0  0  0  0  0  0  0  0  0  0  0
  129.1660  123.4170   60.2280 C   0  0  0  0  0  0  0  0  0  0  0  0
  128.0740  124.3010   60.2180 C   0  0  0  0  0  0  0  0  0  0  0  0
  126.7950  123.8790   59.4870 C   0  0  0  0  0  0  0  0  0  0  0  0
  125.8030  123.5450   60.3160 F   0  0  0  0  0  0  0  0  0  0  0  0
  126.3580  124.8820   58.7260 F   0  0  0  0  0  0  0  0  0  0  0  0
  127.0450  122.8190   58.7170 F   0  0  0  0  0  0  0  0  0  0  0  0
  128.2350  125.5430   60.8970 C   0  0  0  0  0  0  0  0  0  0  0  0
  125.5590  127.5830   60.5600 H   0  0  0  0  0  0  0  0  0  0  0  0
  125.6270  125.8920   60.2480 H   0  0  0  0  0  0  0  0  0  0  0  0
  128.3320  129.8470   60.6620 H   0  0  0  0  0  0  0  0  0  0  0  0
  129.1363  132.0179   60.6019 H   0  0  0  0  0  0  0  0  0  0  0  0
  128.5300  134.4345   60.5876 H   0  0  0  0  0  0  0  0  0  0  0  0
  126.2958  135.1565   61.4150 H   0  0  0  0  0  0  0  0  0  0  0  0
  124.6537  133.4771   62.2382 H   0  0  0  0  0  0  0  0  0  0  0  0
  125.2517  131.0550   62.2551 H   0  0  0  0  0  0  0  0  0  0  0  0
  132.7861  124.1406   62.0739 H   0  0  0  0  0  0  0  0  0  0  0  0
  134.7357  122.6005   62.1178 H   0  0  0  0  0  0  0  0  0  0  0  0
  134.6070  120.3977   60.9629 H   0  0  0  0  0  0  0  0  0  0  0  0
  132.5248  119.7266   59.7737 H   0  0  0  0  0  0  0  0  0  0  0  0
  130.5700  121.2579   59.7358 H   0  0  0  0  0  0  0  0  0  0  0  0
  129.0787  122.4467   59.7173 H   0  0  0  0  0  0  0  0  0  0  0  0
  1  2  1  0
  2  3  2  0
  3  4  1  0
  4  5  2  0
  4  6  1  0
  6  7  1  0
  7  8  2  0
  8  9  1  0
  9 10  2  0
 10 11  1  0
 11 12  2  0
  3 13  1  0
 13 14  1  0
 14 15  2  0
 15 16  1  0
 16 17  1  0
 17 18  2  0
 18 19  1  0
 19 20  2  0
 20 21  1  0
 21 22  2  0
 16 23  2  0
 23 24  1  0
 24 25  1  0
 25 26  1  0
 25 27  1  0
 25 28  1  0
 24 29  2  0
 29  2  1  0
 12  7  1  0
 29 14  1  0
 22 17  1  0
  1 30  1  0
  1 31  1  0
  6 32  1  0
  8 33  1  0
  9 34  1  0
 10 35  1  0
 11 36  1  0
 12 37  1  0
 18 38  1  0
 19 39  1  0
 20 40  1  0
 21 41  1  0
 22 42  1  0
 23 43  1  0
M  END
>  <Binding energies>  (1) 
[-5.82]

>  <Ligand effiencies>  (1) 
[-0.181875]

>  <Interactions>  (1) 
["V-A:GLU:543:CD:4906, V-B:TYR:539:CE2:9848, V-A:ILE:369:CD1:3237, V-A:ILE:369:CG2:3235, V-A:GLY:454:CA:4047, V-B:PRO:540:CB:9857, V-B:ASP:366:CG:8185, V-B:PRO:540:C:9853, V-B:TYR:539:CD2:9846, V-B:PRO:540:N:9856, V-B:PRO:540:CA:9855, H-B:ARG:545:NH2:9900, V-A:TYR:539:CD2:4872, H-B:ASP:366:OD1:8186, V-A:LEU:475:CD2:4257, V-B:LEU:475:CD2:9231, V-A:ALA:541:CB:4890, V-B:TYR:539:C:9839, H-B:ASP:366:OD2:8187, V-A:TRP:381:CH2:3370"]

$$$$
4ce_Grossjean_2025
     RDKit          3D

 45 48  0  0  0  0  0  0  0  0999 V2000
  126.2150  134.1820   61.0030 C   0  0  0  0  0  0  0  0  0  0  0  0
  125.5780  132.8950   61.4930 C   0  0  0  0  0  0  0  0  0  0  0  0
  124.3030  132.8830   62.0650 C   0  0  0  0  0  0  0  0  0  0  0  0
  123.7760  131.6610   62.4870 C   0  0  0  0  0  0  0  0  0  0  0  0
  124.5270  130.4950   62.3270 C   0  0  0  0  0  0  0  0  0  0  0  0
  125.8000  130.5790   61.7520 C   0  0  0  0  0  0  0  0  0  0  0  0
  126.4980  129.3680   61.5960 N   0  0  0  0  0  0  0  0  0  0  0  0
  127.1130  128.6150   62.5420 C   0  0  0  0  0  0  0  0  0  0  0  0
  127.1310  128.9020   63.7400 O   0  0  0  0  0  0  0  0  0  0  0  0
  127.7760  127.4050   62.0510 C   0  0  0  0  0  0  0  0  0  0  0  0
  129.4060  127.0060   62.5870 S   0  0  0  0  0  0  0  0  0  0  0  0
  129.4040  125.5340   61.6470 C   0  0  0  0  0  0  0  0  0  0  0  0
  130.4520  124.7140   61.6390 N   0  0  0  0  0  0  0  0  0  0  0  0
  130.3510  123.5840   60.8900 C   0  0  0  0  0  0  0  0  0  0  0  0
  131.5470  122.6790   60.9070 C   0  0  0  0  0  0  0  0  0  0  0  0
  132.7220  123.0570   61.5770 C   0  0  0  0  0  0  0  0  0  0  0  0
  133.8390  122.2250   61.5900 C   0  0  0  0  0  0  0  0  0  0  0  0
  133.7950  121.0000   60.9350 C   0  0  0  0  0  0  0  0  0  0  0  0
  132.6440  120.6020   60.2630 C   0  0  0  0  0  0  0  0  0  0  0  0
  131.5300  121.4380   60.2490 C   0  0  0  0  0  0  0  0  0  0  0  0
  129.2090  123.2960   60.1360 C   0  0  0  0  0  0  0  0  0  0  0  0
  128.1000  124.1570   60.1340 C   0  0  0  0  0  0  0  0  0  0  0  0
  126.8800  123.7780   59.2870 C   0  0  0  0  0  0  0  0  0  0  0  0
  126.5220  124.7340   58.4270 F   0  0  0  0  0  0  0  0  0  0  0  0
  127.1460  122.6810   58.5770 F   0  0  0  0  0  0  0  0  0  0  0  0
  125.8350  123.5440   60.0810 F   0  0  0  0  0  0  0  0  0  0  0  0
  128.1880  125.3360   60.9280 C   0  0  0  0  0  0  0  0  0  0  0  0
  127.2750  126.4240   61.1770 C   0  0  0  0  0  0  0  0  0  0  0  0
  126.0280  126.4910   60.6110 N   0  0  0  0  0  0  0  0  0  0  0  0
  126.3200  131.7700   61.3330 N   0  0  0  0  0  0  0  0  0  0  0  0
  126.5175  134.7932   61.8661 H   0  0  0  0  0  0  0  0  0  0  0  0
  127.0996  133.9445   60.3938 H   0  0  0  0  0  0  0  0  0  0  0  0
  125.4897  134.7413   60.3938 H   0  0  0  0  0  0  0  0  0  0  0  0
  123.7285  133.8140   62.1800 H   0  0  0  0  0  0  0  0  0  0  0  0
  122.7757  131.6172   62.9425 H   0  0  0  0  0  0  0  0  0  0  0  0
  124.1235  129.5235   62.6486 H   0  0  0  0  0  0  0  0  0  0  0  0
  126.5000  129.0000   60.6560 H   0  0  0  0  0  0  0  0  0  0  0  0
  132.7607  124.0244   62.0992 H   0  0  0  0  0  0  0  0  0  0  0  0
  134.7530  122.5365   62.1169 H   0  0  0  0  0  0  0  0  0  0  0  0
  134.6758  120.3412   60.9481 H   0  0  0  0  0  0  0  0  0  0  0  0
  132.6137  119.6319   59.7452 H   0  0  0  0  0  0  0  0  0  0  0  0
  130.6224  121.1214   59.7141 H   0  0  0  0  0  0  0  0  0  0  0  0
  129.1790  122.3768   59.5326 H   0  0  0  0  0  0  0  0  0  0  0  0
  125.6020  125.6940   60.1600 H   0  0  0  0  0  0  0  0  0  0  0  0
  125.4910  127.3470   60.6220 H   0  0  0  0  0  0  0  0  0  0  0  0
  1  2  1  0
  2  3  2  0
  3  4  1  0
  4  5  2  0
  5  6  1  0
  6  7  1  0
  7  8  1  0
  8  9  2  0
  8 10  1  0
 10 11  1  0
 11 12  1  0
 12 13  2  0
 13 14  1  0
 14 15  1  0
 15 16  2  0
 16 17  1  0
 17 18  2  0
 18 19  1  0
 19 20  2  0
 14 21  2  0
 21 22  1  0
 22 23  1  0
 23 24  1  0
 23 25  1  0
 23 26  1  0
 22 27  2  0
 27 28  1  0
 28 29  1  0
  6 30  2  0
 30  2  1  0
 28 10  2  0
 27 12  1  0
 20 15  1  0
  1 31  1  0
  1 32  1  0
  1 33  1  0
  3 34  1  0
  4 35  1  0
  5 36  1  0
  7 37  1  0
 16 38  1  0
 17 39  1  0
 18 40  1  0
 19 41  1  0
 20 42  1  0
 21 43  1  0
 29 44  1  0
 29 45  1  0
M  END
>  <Binding energies>  (1) 
[-6.05]

>  <Ligand effiencies>  (1) 
[-0.18333333333333332]

>  <Interactions>  (1) 
["V-A:GLU:543:CD:4906, V-B:TYR:539:CE2:9848, V-A:ILE:369:CD1:3237, V-A:ILE:369:CG2:3235, V-B:GLU:543:CD:9880, V-A:GLY:454:CA:4047, V-B:PRO:540:CB:9857, V-B:ASP:366:CG:8185, V-B:PRO:540:C:9853, V-B:TYR:539:CD2:9846, V-B:PRO:540:N:9856, V-B:PRO:540:CA:9855, V-A:TYR:539:CE2:4874, H-B:ARG:545:NH2:9900, V-B:GLY:454:CA:9021, V-A:TYR:539:CD2:4872, H-B:ASP:366:OD1:8186, V-A:LEU:475:CD2:4257, V-B:LEU:475:CD2:9231, V-B:TYR:539:C:9839, V-B:ILE:369:CD1:8211, H-B:ASP:366:OD2:8187, V-A:TRP:381:CH2:3370, V-B:GLY:453:C:9014"]

$$$$
4cf_Grossjean_2025
     RDKit          3D

 42 45  0  0  0  0  0  0  0  0999 V2000
  131.2540  128.8320   60.1990 N   0  0  0  0  0  0  0  0  0  0  0  0
  130.0990  128.9230   60.9340 C   0  0  0  0  0  0  0  0  0  0  0  0
  129.7100  127.9590   61.8770 C   0  0  0  0  0  0  0  0  0  0  0  0
  130.3830  126.7070   62.2360 C   0  0  0  0  0  0  0  0  0  0  0  0
  130.1010  126.1210   63.2820 O   0  0  0  0  0  0  0  0  0  0  0  0
  131.2980  126.2630   61.3410 N   0  0  0  0  0  0  0  0  0  0  0  0
  132.1440  125.1390   61.4030 C   0  0  0  0  0  0  0  0  0  0  0  0
  132.4640  124.2960   60.3210 C   0  0  0  0  0  0  0  0  0  0  0  0
  133.3070  123.2020   60.5250 C   0  0  0  0  0  0  0  0  0  0  0  0
  133.8100  122.9750   61.8060 C   0  0  0  0  0  0  0  0  0  0  0  0
  133.5120  123.7670   62.8660 N   0  0  0  0  0  0  0  0  0  0  0  0
  132.6890  124.8260   62.6530 C   0  0  0  0  0  0  0  0  0  0  0  0
  128.1820  128.3940   62.6380 S   0  0  0  0  0  0  0  0  0  0  0  0
  128.0720  129.8560   61.6850 C   0  0  0  0  0  0  0  0  0  0  0  0
  127.0410  130.6900   61.8080 N   0  0  0  0  0  0  0  0  0  0  0  0
  127.0360  131.7910   61.0120 C   0  0  0  0  0  0  0  0  0  0  0  0
  125.8580  132.7090   61.1660 C   0  0  0  0  0  0  0  0  0  0  0  0
  124.7160  132.2970   61.8690 C   0  0  0  0  0  0  0  0  0  0  0  0
  123.6190  133.1420   62.0180 C   0  0  0  0  0  0  0  0  0  0  0  0
  123.6520  134.4170   61.4640 C   0  0  0  0  0  0  0  0  0  0  0  0
  124.7730  134.8530   60.7650 C   0  0  0  0  0  0  0  0  0  0  0  0
  125.8670  134.0050   60.6190 C   0  0  0  0  0  0  0  0  0  0  0  0
  128.0760  132.0620   60.1180 C   0  0  0  0  0  0  0  0  0  0  0  0
  129.1700  131.1920   59.9850 C   0  0  0  0  0  0  0  0  0  0  0  0
  130.2730  131.5480   58.9810 C   0  0  0  0  0  0  0  0  0  0  0  0
  130.5190  130.5710   58.1050 F   0  0  0  0  0  0  0  0  0  0  0  0
  129.9180  132.6270   58.2850 F   0  0  0  0  0  0  0  0  0  0  0  0
  131.4110  131.7960   59.6300 F   0  0  0  0  0  0  0  0  0  0  0  0
  129.1770  130.0240   60.8010 C   0  0  0  0  0  0  0  0  0  0  0  0
  131.4180  128.0720   59.5540 H   0  0  0  0  0  0  0  0  0  0  0  0
  131.9830  129.5280   60.2770 H   0  0  0  0  0  0  0  0  0  0  0  0
  131.3960  126.8090   60.4970 H   0  0  0  0  0  0  0  0  0  0  0  0
  132.0522  124.4984   59.3213 H   0  0  0  0  0  0  0  0  0  0  0  0
  133.5692  122.5326   59.6924 H   0  0  0  0  0  0  0  0  0  0  0  0
  134.4781  122.1154   61.9636 H   0  0  0  0  0  0  0  0  0  0  0  0
  132.4378  125.4713   63.5077 H   0  0  0  0  0  0  0  0  0  0  0  0
  124.6865  131.2897   62.3099 H   0  0  0  0  0  0  0  0  0  0  0  0
  122.7309  132.8025   62.5712 H   0  0  0  0  0  0  0  0  0  0  0  0
  122.7859  135.0853   61.5792 H   0  0  0  0  0  0  0  0  0  0  0  0
  124.7947  135.8630   60.3298 H   0  0  0  0  0  0  0  0  0  0  0  0
  126.7525  134.3537   60.0673 H   0  0  0  0  0  0  0  0  0  0  0  0
  128.0365  132.9754   59.5063 H   0  0  0  0  0  0  0  0  0  0  0  0
  1  2  1  0
  2  3  2  0
  3  4  1  0
  4  5  2  0
  4  6  1  0
  6  7  1  0
  7  8  2  0
  8  9  1  0
  9 10  2  0
 10 11  1  0
 11 12  2  0
  3 13  1  0
 13 14  1  0
 14 15  2  0
 15 16  1  0
 16 17  1  0
 17 18  2  0
 18 19  1  0
 19 20  2  0
 20 21  1  0
 21 22  2  0
 16 23  2  0
 23 24  1  0
 24 25  1  0
 25 26  1  0
 25 27  1  0
 25 28  1  0
 24 29  2  0
 29  2  1  0
 12  7  1  0
 29 14  1  0
 22 17  1  0
  1 30  1  0
  1 31  1  0
  6 32  1  0
  8 33  1  0
  9 34  1  0
 10 35  1  0
 12 36  1  0
 18 37  1  0
 19 38  1  0
 20 39  1  0
 21 40  1  0
 22 41  1  0
 23 42  1  0
M  END
>  <Binding energies>  (1) 
[-5.77]

>  <Ligand effiencies>  (1) 
[-0.1803125]

>  <Interactions>  (1) 
["H-A:GLY:454:N:4048, V-A:GLU:543:CD:4906, V-A:ASP:366:CG:3211, V-A:ILE:369:CD1:3237, V-A:ARG:545:CZ:4924, V-A:GLY:454:CA:4047, V-A:TYR:539:CE2:4874, V-B:GLY:454:CA:9021, V-A:TYR:539:CD2:4872, H-A:ASP:366:OD1:3212, V-B:LEU:475:CD2:9231, V-A:TYR:539:C:4865, H-A:TYR:484:OH:4346, V-B:ILE:369:CD1:8211, V-B:ILE:369:CG2:8209, V-A:PRO:540:CA:4881, V-A:PRO:540:CB:4883, V-A:PRO:540:C:4879, H-A:ASP:366:OD2:3213, V-A:TYR:539:CA:4867, V-A:PRO:540:N:4882, V-B:TRP:381:CZ2:8342, V-B:TRP:381:CH2:8344"]

$$$$
4cg_Grossjean_2025
     RDKit          3D

 46 49  0  0  0  0  0  0  0  0999 V2000
  125.9990  126.9490   60.6240 N   0  0  0  0  0  0  0  0  0  0  0  0
  127.2700  126.6850   61.0670 C   0  0  0  0  0  0  0  0  0  0  0  0
  128.0070  127.5760   61.8600 C   0  0  0  0  0  0  0  0  0  0  0  0
  127.5970  128.8730   62.3960 C   0  0  0  0  0  0  0  0  0  0  0  0
  127.8380  129.9220   61.7950 O   0  0  0  0  0  0  0  0  0  0  0  0
  126.9810  128.8490   63.5970 N   0  0  0  0  0  0  0  0  0  0  0  0
  126.4680  130.0170   64.3100 C   0  0  0  0  0  0  0  0  0  0  0  0
  125.5200  130.8700   63.4730 C   0  0  0  0  0  0  0  0  0  0  0  0
  124.3290  130.3160   62.9930 C   0  0  0  0  0  0  0  0  0  0  0  0
  123.4460  131.1010   62.2560 C   0  0  0  0  0  0  0  0  0  0  0  0
  123.7510  132.4370   62.0090 C   0  0  0  0  0  0  0  0  0  0  0  0
  124.9290  132.9990   62.4990 C   0  0  0  0  0  0  0  0  0  0  0  0
  125.8110  132.2160   63.2370 C   0  0  0  0  0  0  0  0  0  0  0  0
  129.5890  126.9160   62.2670 S   0  0  0  0  0  0  0  0  0  0  0  0
  129.2620  125.4610   61.3540 C   0  0  0  0  0  0  0  0  0  0  0  0
  130.1570  124.4820   61.2660 N   0  0  0  0  0  0  0  0  0  0  0  0
  129.8130  123.3870   60.5390 C   0  0  0  0  0  0  0  0  0  0  0  0
  130.8460  122.2990   60.4570 C   0  0  0  0  0  0  0  0  0  0  0  0
  132.2080  122.6080   60.3070 C   0  0  0  0  0  0  0  0  0  0  0  0
  133.1690  121.6050   60.2290 C   0  0  0  0  0  0  0  0  0  0  0  0
  132.7800  120.2700   60.2990 C   0  0  0  0  0  0  0  0  0  0  0  0
  131.4390  119.9360   60.4440 C   0  0  0  0  0  0  0  0  0  0  0  0
  130.4810  120.9430   60.5210 C   0  0  0  0  0  0  0  0  0  0  0  0
  128.5770  123.2910   59.8880 C   0  0  0  0  0  0  0  0  0  0  0  0
  127.6260  124.3190   59.9740 C   0  0  0  0  0  0  0  0  0  0  0  0
  126.2920  124.1500   59.2360 C   0  0  0  0  0  0  0  0  0  0  0  0
  125.9130  125.2490   58.5820 F   0  0  0  0  0  0  0  0  0  0  0  0
  126.3940  123.1670   58.3410 F   0  0  0  0  0  0  0  0  0  0  0  0
  125.3300  123.8520   60.1080 F   0  0  0  0  0  0  0  0  0  0  0  0
  127.9710  125.4660   60.7470 C   0  0  0  0  0  0  0  0  0  0  0  0
  125.6710  127.8920   60.4700 H   0  0  0  0  0  0  0  0  0  0  0  0
  125.3460  126.2030   60.4260 H   0  0  0  0  0  0  0  0  0  0  0  0
  126.7520  127.9500   63.9950 H   0  0  0  0  0  0  0  0  0  0  0  0
  125.9282  129.6706   65.2037 H   0  0  0  0  0  0  0  0  0  0  0  0
  127.3327  130.6474   64.5647 H   0  0  0  0  0  0  0  0  0  0  0  0
  124.0901  129.2619   63.1973 H   0  0  0  0  0  0  0  0  0  0  0  0
  122.5114  130.6675   61.8705 H   0  0  0  0  0  0  0  0  0  0  0  0
  123.0558  133.0549   61.4216 H   0  0  0  0  0  0  0  0  0  0  0  0
  125.1600  134.0565   62.3031 H   0  0  0  0  0  0  0  0  0  0  0  0
  126.7372  132.6565   63.6346 H   0  0  0  0  0  0  0  0  0  0  0  0
  132.5202  123.6612   60.2502 H   0  0  0  0  0  0  0  0  0  0  0  0
  134.2313  121.8655   60.1126 H   0  0  0  0  0  0  0  0  0  0  0  0
  133.5383  119.4754   60.2392 H   0  0  0  0  0  0  0  0  0  0  0  0
  131.1357  118.8800   60.4977 H   0  0  0  0  0  0  0  0  0  0  0  0
  129.4206  120.6731   60.6338 H   0  0  0  0  0  0  0  0  0  0  0  0
  128.3471  122.3919   59.2975 H   0  0  0  0  0  0  0  0  0  0  0  0
  1  2  1  0
  2  3  2  0
  3  4  1  0
  4  5  2  0
  4  6  1  0
  6  7  1  0
  7  8  1  0
  8  9  2  0
  9 10  1  0
 10 11  2  0
 11 12  1  0
 12 13  2  0
  3 14  1  0
 14 15  1  0
 15 16  2  0
 16 17  1  0
 17 18  1  0
 18 19  2  0
 19 20  1  0
 20 21  2  0
 21 22  1  0
 22 23  2  0
 17 24  2  0
 24 25  1  0
 25 26  1  0
 26 27  1  0
 26 28  1  0
 26 29  1  0
 25 30  2  0
 30  2  1  0
 13  8  1  0
 30 15  1  0
 23 18  1  0
  1 31  1  0
  1 32  1  0
  6 33  1  0
  7 34  1  0
  7 35  1  0
  9 36  1  0
 10 37  1  0
 11 38  1  0
 12 39  1  0
 13 40  1  0
 19 41  1  0
 20 42  1  0
 21 43  1  0
 22 44  1  0
 23 45  1  0
 24 46  1  0
M  END
>  <Binding energies>  (1) 
[-6.96]

>  <Ligand effiencies>  (1) 
[-0.2109090909090909]

>  <Interactions>  (1) 
["V-A:GLU:543:CD:4906, V-B:TYR:539:CE2:9848, V-A:ILE:369:CD1:3237, V-A:ILE:369:CG2:3235, V-B:GLU:543:CD:9880, V-B:PRO:540:CB:9857, V-B:ASP:366:CG:8185, V-B:PRO:540:C:9853, V-B:TYR:539:CD2:9846, V-B:PRO:540:N:9856, V-B:PRO:540:CA:9855, V-B:ALA:541:CB:9864, V-B:GLY:454:CA:9021, H-B:ASP:366:OD1:8186, V-A:LEU:475:CD2:4257, V-B:LEU:475:CD2:9231, V-B:TYR:539:C:9839, V-B:ARG:545:CZ:9898, H-B:GLU:543:OE2:9882, V-B:ILE:369:CD1:8211, H-B:ASP:366:OD2:8187, V-A:TRP:381:CZ2:3368, V-A:TRP:381:CH2:3370, V-B:GLY:453:CA:9016, V-B:GLY:453:C:9014, V-B:PRO:540:CD:9859"]

$$$$
4ch_Grossjean_2025
     RDKit          3D

 58 61  0  0  0  0  0  0  0  0999 V2000
  123.5330  131.1850   59.2780 C   0  0  0  0  0  0  0  0  0  0  0  0
  123.3410  131.7730   60.5600 O   0  0  0  0  0  0  0  0  0  0  0  0
  124.4200  131.9070   61.4140 C   0  0  0  0  0  0  0  0  0  0  0  0
  124.8540  130.9000   62.2920 C   0  0  0  0  0  0  0  0  0  0  0  0
  125.9550  131.1040   63.1260 C   0  0  0  0  0  0  0  0  0  0  0  0
  126.3940  130.0100   64.0930 C   0  0  0  0  0  0  0  0  0  0  0  0
  126.9860  128.8390   63.4450 N   0  0  0  0  0  0  0  0  0  0  0  0
  127.5050  128.8090   62.2000 C   0  0  0  0  0  0  0  0  0  0  0  0
  127.5540  129.8080   61.4790 O   0  0  0  0  0  0  0  0  0  0  0  0
  128.0460  127.5220   61.7610 C   0  0  0  0  0  0  0  0  0  0  0  0
  129.6730  127.0420   62.2340 S   0  0  0  0  0  0  0  0  0  0  0  0
  129.5140  125.5190   61.3930 C   0  0  0  0  0  0  0  0  0  0  0  0
  130.5050  124.6310   61.3700 N   0  0  0  0  0  0  0  0  0  0  0  0
  130.2880  123.4720   60.6950 C   0  0  0  0  0  0  0  0  0  0  0  0
  131.4280  122.4950   60.6830 C   0  0  0  0  0  0  0  0  0  0  0  0
  132.7200  122.8930   61.0640 C   0  0  0  0  0  0  0  0  0  0  0  0
  133.7820  121.9920   61.0540 C   0  0  0  0  0  0  0  0  0  0  0  0
  133.5660  120.6750   60.6620 C   0  0  0  0  0  0  0  0  0  0  0  0
  132.2970  120.2550   60.2760 C   0  0  0  0  0  0  0  0  0  0  0  0
  131.2390  121.1600   60.2850 C   0  0  0  0  0  0  0  0  0  0  0  0
  129.0830  123.2190   60.0320 C   0  0  0  0  0  0  0  0  0  0  0  0
  128.0310  124.1490   60.0480 C   0  0  0  0  0  0  0  0  0  0  0  0
  126.7370  123.8080   59.3000 C   0  0  0  0  0  0  0  0  0  0  0  0
  126.2550  124.8320   58.5920 F   0  0  0  0  0  0  0  0  0  0  0  0
  126.9570  122.8050   58.4520 F   0  0  0  0  0  0  0  0  0  0  0  0
  125.7950  123.4470   60.1710 F   0  0  0  0  0  0  0  0  0  0  0  0
  128.2440  125.3620   60.7640 C   0  0  0  0  0  0  0  0  0  0  0  0
  127.4200  126.5220   61.0020 C   0  0  0  0  0  0  0  0  0  0  0  0
  126.1400  126.6370   60.5200 N   0  0  0  0  0  0  0  0  0  0  0  0
  126.6220  132.3290   63.0980 C   0  0  0  0  0  0  0  0  0  0  0  0
  126.2090  133.3530   62.2310 C   0  0  0  0  0  0  0  0  0  0  0  0
  126.8240  134.5900   62.1500 O   0  0  0  0  0  0  0  0  0  0  0  0
  127.4780  134.9680   60.9440 C   0  0  0  0  0  0  0  0  0  0  0  0
  125.1110  133.1270   61.3890 C   0  0  0  0  0  0  0  0  0  0  0  0
  124.6870  134.1260   60.5470 O   0  0  0  0  0  0  0  0  0  0  0  0
  123.7330  135.0060   61.1260 C   0  0  0  0  0  0  0  0  0  0  0  0
  123.8724  130.1456   59.3984 H   0  0  0  0  0  0  0  0  0  0  0  0
  122.5837  131.1987   58.7224 H   0  0  0  0  0  0  0  0  0  0  0  0
  124.2913  131.7563   58.7224 H   0  0  0  0  0  0  0  0  0  0  0  0
  124.3198  129.9389   62.3228 H   0  0  0  0  0  0  0  0  0  0  0  0
  127.1384  130.4365   64.7815 H   0  0  0  0  0  0  0  0  0  0  0  0
  125.4871  129.6613   64.6087 H   0  0  0  0  0  0  0  0  0  0  0  0
  126.9300  127.9710   63.9600 H   0  0  0  0  0  0  0  0  0  0  0  0
  132.8959  123.9332   61.3753 H   0  0  0  0  0  0  0  0  0  0  0  0
  134.7877  122.3206   61.3549 H   0  0  0  0  0  0  0  0  0  0  0  0
  134.4032  119.9615   60.6572 H   0  0  0  0  0  0  0  0  0  0  0  0
  132.1304  119.2130   59.9652 H   0  0  0  0  0  0  0  0  0  0  0  0
  130.2381  120.8247   59.9754 H   0  0  0  0  0  0  0  0  0  0  0  0
  128.9566  122.2720   59.4868 H   0  0  0  0  0  0  0  0  0  0  0  0
  125.6870  127.5340   60.4170 H   0  0  0  0  0  0  0  0  0  0  0  0
  125.6080  125.8240   60.2460 H   0  0  0  0  0  0  0  0  0  0  0  0
  127.4821  132.4946   63.7634 H   0  0  0  0  0  0  0  0  0  0  0  0
  128.4075  135.5052   61.1838 H   0  0  0  0  0  0  0  0  0  0  0  0
  127.7155  134.0679   60.3580 H   0  0  0  0  0  0  0  0  0  0  0  0
  126.8166  135.6231   60.3580 H   0  0  0  0  0  0  0  0  0  0  0  0
  123.7974  134.9466   62.2225 H   0  0  0  0  0  0  0  0  0  0  0  0
  123.9405  136.0365   60.8018 H   0  0  0  0  0  0  0  0  0  0  0  0
  122.7226  134.7161   60.8018 H   0  0  0  0  0  0  0  0  0  0  0  0
  1  2  1  0
  2  3  1  0
  3  4  2  0
  4  5  1  0
  5  6  1  0
  6  7  1  0
  7  8  1  0
  8  9  2  0
  8 10  1  0
 10 11  1  0
 11 12  1  0
 12 13  2  0
 13 14  1  0
 14 15  1  0
 15 16  2  0
 16 17  1  0
 17 18  2  0
 18 19  1  0
 19 20  2  0
 14 21  2  0
 21 22  1  0
 22 23  1  0
 23 24  1  0
 23 25  1  0
 23 26  1  0
 22 27  2  0
 27 28  1  0
 28 29  1  0
  5 30  2  0
 30 31  1  0
 31 32  1  0
 32 33  1  0
 31 34  2  0
 34 35  1  0
 35 36  1  0
 34  3  1  0
 28 10  2  0
 27 12  1  0
 20 15  1  0
  1 37  1  0
  1 38  1  0
  1 39  1  0
  4 40  1  0
  6 41  1  0
  6 42  1  0
  7 43  1  0
 16 44  1  0
 17 45  1  0
 18 46  1  0
 19 47  1  0
 20 48  1  0
 21 49  1  0
 29 50  1  0
 29 51  1  0
 30 52  1  0
 33 53  1  0
 33 54  1  0
 33 55  1  0
 36 56  1  0
 36 57  1  0
 36 58  1  0
M  END
>  <Binding energies>  (1) 
[-6.58]

>  <Ligand effiencies>  (1) 
[-0.1687179487179487]

>  <Interactions>  (1) 
["V-A:GLU:543:CD:4906, V-B:TYR:539:CE2:9848, V-A:ILE:369:CD1:3237, V-A:ILE:369:CG2:3235, V-B:GLU:543:CD:9880, V-B:ASP:366:CB:8184, V-B:PRO:540:CB:9857, V-B:ASP:366:CG:8185, V-B:PRO:540:C:9853, V-B:TYR:539:CD2:9846, V-B:PRO:540:N:9856, V-B:PRO:540:CA:9855, V-A:TYR:539:CE2:4874, V-A:TYR:539:CD2:4872, H-B:ASP:366:OD1:8186, V-A:LEU:475:CD2:4257, V-B:LEU:475:CD2:9231, V-A:ALA:541:CB:4890, V-B:TYR:539:C:9839, H-B:GLU:543:OE1:9881, H-B:GLU:543:OE2:9882, V-B:ILE:369:CD1:8211, V-B:ILE:369:CG2:8209, V-B:ASP:366:CA:8182, H-B:ASP:366:OD2:8187, V-B:ILE:369:CB:8208, V-B:TRP:381:CZ2:8342, V-B:TRP:381:CH2:8344, V-A:TRP:381:CZ2:3368, V-A:TRP:381:CH2:3370, V-B:PRO:540:CD:9859, V-B:SER:385:CA:8379, V-B:SER:385:C:8377"]

$$$$
4ci_Grossjean_2025
     RDKit          3D

 39 42  0  0  0  0  0  0  0  0999 V2000
  131.2530  128.6100   60.3640 N   0  0  0  0  0  0  0  0  0  0  0  0
  130.0090  128.5870   60.9390 C   0  0  0  0  0  0  0  0  0  0  0  0
  129.4930  127.4660   61.6100 C   0  0  0  0  0  0  0  0  0  0  0  0
  130.1300  126.1670   61.8420 C   0  0  0  0  0  0  0  0  0  0  0  0
  129.7700  125.1690   61.2130 O   0  0  0  0  0  0  0  0  0  0  0  0
  131.1070  126.1550   62.7830 N   0  0  0  0  0  0  0  0  0  0  0  0
  131.8660  125.0690   63.2010 C   0  0  0  0  0  0  0  0  0  0  0  0
  131.4290  123.7490   63.0990 C   0  0  0  0  0  0  0  0  0  0  0  0
  132.4550  122.9910   63.6140 C   0  0  0  0  0  0  0  0  0  0  0  0
  133.4590  123.8130   64.0050 O   0  0  0  0  0  0  0  0  0  0  0  0
  133.0730  125.1270   63.7390 N   0  0  0  0  0  0  0  0  0  0  0  0
  127.8760  127.7860   62.2330 S   0  0  0  0  0  0  0  0  0  0  0  0
  127.8980  129.4090   61.5840 C   0  0  0  0  0  0  0  0  0  0  0  0
  126.8650  130.2340   61.7380 N   0  0  0  0  0  0  0  0  0  0  0  0
  126.9750  131.4770   61.2020 C   0  0  0  0  0  0  0  0  0  0  0  0
  125.7910  132.3820   61.3870 C   0  0  0  0  0  0  0  0  0  0  0  0
  125.6600  133.5610   60.6340 C   0  0  0  0  0  0  0  0  0  0  0  0
  124.5640  134.4040   60.8000 C   0  0  0  0  0  0  0  0  0  0  0  0
  123.5800  134.0790   61.7280 C   0  0  0  0  0  0  0  0  0  0  0  0
  123.6860  132.9220   62.4900 C   0  0  0  0  0  0  0  0  0  0  0  0
  124.7840  132.0820   62.3210 C   0  0  0  0  0  0  0  0  0  0  0  0
  128.1160  131.8780   60.4990 C   0  0  0  0  0  0  0  0  0  0  0  0
  129.2120  131.0170   60.3310 C   0  0  0  0  0  0  0  0  0  0  0  0
  130.4300  131.5240   59.5500 C   0  0  0  0  0  0  0  0  0  0  0  0
  130.8960  130.6340   58.6710 F   0  0  0  0  0  0  0  0  0  0  0  0
  130.1030  132.6220   58.8710 F   0  0  0  0  0  0  0  0  0  0  0  0
  131.4220  131.8080   60.3950 F   0  0  0  0  0  0  0  0  0  0  0  0
  129.1110  129.7160   60.9010 C   0  0  0  0  0  0  0  0  0  0  0  0
  131.5100  129.3020   59.6730 H   0  0  0  0  0  0  0  0  0  0  0  0
  131.9630  127.9360   60.6180 H   0  0  0  0  0  0  0  0  0  0  0  0
  131.3130  127.0300   63.2420 H   0  0  0  0  0  0  0  0  0  0  0  0
  130.4709  123.3910   62.6942 H   0  0  0  0  0  0  0  0  0  0  0  0
  132.4597  121.8940   63.6954 H   0  0  0  0  0  0  0  0  0  0  0  0
  126.4368  133.8228   59.9005 H   0  0  0  0  0  0  0  0  0  0  0  0
  124.4769  135.3221   60.2004 H   0  0  0  0  0  0  0  0  0  0  0  0
  122.7124  134.7423   61.8594 H   0  0  0  0  0  0  0  0  0  0  0  0
  122.9060  132.6705   63.2237 H   0  0  0  0  0  0  0  0  0  0  0  0
  124.8646  131.1685   62.9285 H   0  0  0  0  0  0  0  0  0  0  0  0
  128.1553  132.8896   60.0687 H   0  0  0  0  0  0  0  0  0  0  0  0
  1  2  1  0
  2  3  2  0
  3  4  1  0
  4  5  2  0
  4  6  1  0
  6  7  1  0
  7  8  1  0
  8  9  2  0
  9 10  1  0
 10 11  1  0
  3 12  1  0
 12 13  1  0
 13 14  2  0
 14 15  1  0
 15 16  1  0
 16 17  2  0
 17 18  1  0
 18 19  2  0
 19 20  1  0
 20 21  2  0
 15 22  2  0
 22 23  1  0
 23 24  1  0
 24 25  1  0
 24 26  1  0
 24 27  1  0
 23 28  2  0
 28  2  1  0
 11  7  2  0
 28 13  1  0
 21 16  1  0
  1 29  1  0
  1 30  1  0
  6 31  1  0
  8 32  1  0
  9 33  1  0
 17 34  1  0
 18 35  1  0
 19 36  1  0
 20 37  1  0
 21 38  1  0
 22 39  1  0
M  END
>  <Binding energies>  (1) 
[-6.33]

>  <Ligand effiencies>  (1) 
[-0.20419354838709677]

>  <Interactions>  (1) 
["H-A:GLY:454:N:4048, V-A:ASP:366:CG:3211, V-B:GLU:543:CD:9880, V-A:ARG:545:CZ:4924, V-A:GLY:454:CA:4047, V-A:TYR:539:CE2:4874, V-B:GLY:454:CA:9021, V-A:TYR:539:CD2:4872, V-A:TYR:484:CZ:4345, H-A:ASP:366:OD1:3212, V-A:LEU:475:CD2:4257, V-B:LEU:475:CD2:9231, V-A:TYR:539:C:4865, H-A:TYR:484:OH:4346, H-A:GLU:543:OE2:4908, H-A:ARG:545:NH2:4926, V-B:ILE:369:CD1:8211, V-B:ILE:369:CG2:8209, V-A:PRO:540:CA:4881, V-A:PRO:540:CB:4883, V-A:PRO:540:C:4879, H-A:ARG:545:NE:4922, H-A:ASP:366:OD2:3213, V-A:PRO:540:N:4882, V-B:TRP:381:CH2:8344"]

$$$$
4cj_Grossjean_2025
     RDKit          3D

 39 42  0  0  0  0  0  0  0  0999 V2000
  126.0210  126.3680   60.2700 N   0  0  0  0  0  0  0  0  0  0  0  0
  127.2660  126.4460   60.8420 C   0  0  0  0  0  0  0  0  0  0  0  0
  127.7030  127.5540   61.5860 C   0  0  0  0  0  0  0  0  0  0  0  0
  126.9750  128.7850   61.9050 C   0  0  0  0  0  0  0  0  0  0  0  0
  125.7650  128.8770   61.6840 O   0  0  0  0  0  0  0  0  0  0  0  0
  127.7230  129.7830   62.4350 N   0  0  0  0  0  0  0  0  0  0  0  0
  127.2810  131.0410   62.8230 C   0  0  0  0  0  0  0  0  0  0  0  0
  126.7380  131.3870   63.9700 N   0  0  0  0  0  0  0  0  0  0  0  0
  126.4400  132.6710   63.9970 C   0  0  0  0  0  0  0  0  0  0  0  0
  126.7440  133.3980   62.8490 C   0  0  0  0  0  0  0  0  0  0  0  0
  127.4610  132.3320   61.6780 S   0  0  0  0  0  0  0  0  0  0  0  0
  129.3430  127.3140   62.1820 S   0  0  0  0  0  0  0  0  0  0  0  0
  129.4330  125.7390   61.4310 C   0  0  0  0  0  0  0  0  0  0  0  0
  130.5230  124.9820   61.5330 N   0  0  0  0  0  0  0  0  0  0  0  0
  130.4980  123.7690   60.9220 C   0  0  0  0  0  0  0  0  0  0  0  0
  131.7380  122.9350   61.0680 C   0  0  0  0  0  0  0  0  0  0  0  0
  132.7420  123.2950   61.9810 C   0  0  0  0  0  0  0  0  0  0  0  0
  133.8980  122.5290   62.1180 C   0  0  0  0  0  0  0  0  0  0  0  0
  134.0670  121.3900   61.3370 C   0  0  0  0  0  0  0  0  0  0  0  0
  133.0890  121.0130   60.4240 C   0  0  0  0  0  0  0  0  0  0  0  0
  131.9350  121.7810   60.2920 C   0  0  0  0  0  0  0  0  0  0  0  0
  129.3880  123.3330   60.1910 C   0  0  0  0  0  0  0  0  0  0  0  0
  128.2340  124.1240   60.0750 C   0  0  0  0  0  0  0  0  0  0  0  0
  127.0520  123.5840   59.2610 C   0  0  0  0  0  0  0  0  0  0  0  0
  126.5770  124.4650   58.3790 F   0  0  0  0  0  0  0  0  0  0  0  0
  127.4320  122.5020   58.5810 F   0  0  0  0  0  0  0  0  0  0  0  0
  126.0510  123.2590   60.0800 F   0  0  0  0  0  0  0  0  0  0  0  0
  128.2420  125.3900   60.7280 C   0  0  0  0  0  0  0  0  0  0  0  0
  125.7080  125.5420   59.7800 H   0  0  0  0  0  0  0  0  0  0  0  0
  125.3690  127.1390   60.3250 H   0  0  0  0  0  0  0  0  0  0  0  0
  128.7100  129.6080   62.5580 H   0  0  0  0  0  0  0  0  0  0  0  0
  125.9772  133.1415   64.8770 H   0  0  0  0  0  0  0  0  0  0  0  0
  126.5602  134.4731   62.7062 H   0  0  0  0  0  0  0  0  0  0  0  0
  132.6140  124.1964   62.5983 H   0  0  0  0  0  0  0  0  0  0  0  0
  134.6735  122.8235   62.8404 H   0  0  0  0  0  0  0  0  0  0  0  0
  134.9794  120.7847   61.4426 H   0  0  0  0  0  0  0  0  0  0  0  0
  133.2261  120.1118   59.8084 H   0  0  0  0  0  0  0  0  0  0  0  0
  131.1644  121.4787   59.5675 H   0  0  0  0  0  0  0  0  0  0  0  0
  129.4199  122.3506   59.6971 H   0  0  0  0  0  0  0  0  0  0  0  0
  1  2  1  0
  2  3  2  0
  3  4  1  0
  4  5  2  0
  4  6  1  0
  6  7  1  0
  7  8  2  0
  8  9  1  0
  9 10  2  0
 10 11  1  0
  3 12  1  0
 12 13  1  0
 13 14  2  0
 14 15  1  0
 15 16  1  0
 16 17  2  0
 17 18  1  0
 18 19  2  0
 19 20  1  0
 20 21  2  0
 15 22  2  0
 22 23  1  0
 23 24  1  0
 24 25  1  0
 24 26  1  0
 24 27  1  0
 23 28  2  0
 28  2  1  0
 11  7  1  0
 28 13  1  0
 21 16  1  0
  1 29  1  0
  1 30  1  0
  6 31  1  0
  9 32  1  0
 10 33  1  0
 17 34  1  0
 18 35  1  0
 19 36  1  0
 20 37  1  0
 21 38  1  0
 22 39  1  0
M  END
>  <Binding energies>  (1) 
[-5.3]

>  <Ligand effiencies>  (1) 
[-0.17096774193548386]

>  <Interactions>  (1) 
["V-A:GLU:543:CD:4906, V-B:TYR:539:CE2:9848, V-A:ILE:369:CD1:3237, V-A:ILE:369:CG2:3235, V-B:GLU:543:CD:9880, V-A:GLY:454:CA:4047, V-B:PRO:540:CB:9857, V-B:ASP:366:CG:8185, V-B:PRO:540:C:9853, V-B:TYR:539:CD2:9846, V-B:PRO:540:N:9856, V-B:PRO:540:CA:9855, H-B:ARG:545:NH2:9900, H-B:ASP:366:OD1:8186, V-A:LEU:475:CD2:4257, V-B:LEU:475:CD2:9231, V-A:ALA:541:CB:4890, V-B:TYR:539:C:9839, H-B:TYR:484:OH:9320, H-A:GLU:543:OE1:4907, H-A:GLU:543:OE2:4908, V-B:TYR:484:CE1:9317, V-B:TYR:484:CZ:9319, H-B:ASP:366:OD2:8187, V-A:TRP:381:CH2:3370, V-A:GLY:453:C:4040, V-B:TYR:539:CA:9841"]

$$$$
4ck_Grossjean_2025
     RDKit          3D

 57 59  0  0  0  0  0  0  0  0999 V2000
  132.1960  125.1930   64.3920 C   0  0  0  0  0  0  0  0  0  0  0  0
  131.8850  125.8050   65.6340 O   0  0  0  0  0  0  0  0  0  0  0  0
  130.5130  125.7010   65.9870 C   0  0  0  0  0  0  0  0  0  0  0  0
  130.0840  126.9810   66.7140 C   0  0  0  0  0  0  0  0  0  0  0  0
  129.2770  126.6330   67.8300 O   0  0  0  0  0  0  0  0  0  0  0  0
  128.2690  127.5920   68.1230 C   0  0  0  0  0  0  0  0  0  0  0  0
  128.1260  128.5500   66.9340 C   0  0  0  0  0  0  0  0  0  0  0  0
  126.8340  128.3850   66.3660 O   0  0  0  0  0  0  0  0  0  0  0  0
  126.2000  129.6080   66.0140 C   0  0  0  0  0  0  0  0  0  0  0  0
  126.5880  129.9950   64.5790 C   0  0  0  0  0  0  0  0  0  0  0  0
  127.1920  128.8780   63.8520 N   0  0  0  0  0  0  0  0  0  0  0  0
  127.1250  128.6740   62.5200 C   0  0  0  0  0  0  0  0  0  0  0  0
  126.5510  129.4510   61.7560 O   0  0  0  0  0  0  0  0  0  0  0  0
  127.7900  127.4680   62.0240 C   0  0  0  0  0  0  0  0  0  0  0  0
  129.4060  127.0540   62.5910 S   0  0  0  0  0  0  0  0  0  0  0  0
  129.4110  125.5880   61.6390 C   0  0  0  0  0  0  0  0  0  0  0  0
  130.4530  124.7610   61.6420 N   0  0  0  0  0  0  0  0  0  0  0  0
  130.3650  123.6470   60.8690 C   0  0  0  0  0  0  0  0  0  0  0  0
  131.5500  122.7260   60.9080 C   0  0  0  0  0  0  0  0  0  0  0  0
  131.5060  121.4700   60.2820 C   0  0  0  0  0  0  0  0  0  0  0  0
  132.6010  120.6090   60.3170 C   0  0  0  0  0  0  0  0  0  0  0  0
  133.7600  120.9950   60.9810 C   0  0  0  0  0  0  0  0  0  0  0  0
  133.8330  122.2350   61.6050 C   0  0  0  0  0  0  0  0  0  0  0  0
  132.7370  123.0930   61.5670 C   0  0  0  0  0  0  0  0  0  0  0  0
  129.2280  123.3650   60.1050 C   0  0  0  0  0  0  0  0  0  0  0  0
  128.1240  124.2310   60.0950 C   0  0  0  0  0  0  0  0  0  0  0  0
  126.9110  123.8620   59.2310 C   0  0  0  0  0  0  0  0  0  0  0  0
  125.8070  123.6390   59.9460 F   0  0  0  0  0  0  0  0  0  0  0  0
  126.6440  124.8540   58.3820 F   0  0  0  0  0  0  0  0  0  0  0  0
  127.1710  122.7510   58.5420 F   0  0  0  0  0  0  0  0  0  0  0  0
  128.2060  125.4040   60.8990 C   0  0  0  0  0  0  0  0  0  0  0  0
  127.2930  126.4930   61.1460 C   0  0  0  0  0  0  0  0  0  0  0  0
  126.0510  126.5680   60.5680 N   0  0  0  0  0  0  0  0  0  0  0  0
  132.6876  124.2257   64.5728 H   0  0  0  0  0  0  0  0  0  0  0  0
  131.2701  125.0326   63.8202 H   0  0  0  0  0  0  0  0  0  0  0  0
  132.8714  125.8463   63.8202 H   0  0  0  0  0  0  0  0  0  0  0  0
  129.9073  125.5731   65.0777 H   0  0  0  0  0  0  0  0  0  0  0  0
  130.3645  124.8328   66.6460 H   0  0  0  0  0  0  0  0  0  0  0  0
  130.9755  127.5250   67.0594 H   0  0  0  0  0  0  0  0  0  0  0  0
  129.5115  127.6228   66.0282 H   0  0  0  0  0  0  0  0  0  0  0  0
  127.3123  127.0785   68.2993 H   0  0  0  0  0  0  0  0  0  0  0  0
  128.5476  128.1587   69.0237 H   0  0  0  0  0  0  0  0  0  0  0  0
  128.2488  129.5875   67.2783 H   0  0  0  0  0  0  0  0  0  0  0  0
  128.8965  128.3286   66.1808 H   0  0  0  0  0  0  0  0  0  0  0  0
  125.1086  129.4863   66.0780 H   0  0  0  0  0  0  0  0  0  0  0  0
  126.5234  130.3996   66.7060 H   0  0  0  0  0  0  0  0  0  0  0  0
  125.6843  130.3201   64.0426 H   0  0  0  0  0  0  0  0  0  0  0  0
  127.3313  130.8039   64.6355 H   0  0  0  0  0  0  0  0  0  0  0  0
  127.7560  128.2460   64.4020 H   0  0  0  0  0  0  0  0  0  0  0  0
  130.5915  121.1604   59.7549 H   0  0  0  0  0  0  0  0  0  0  0  0
  132.5487  119.6283   59.8215 H   0  0  0  0  0  0  0  0  0  0  0  0
  134.6242  120.3152   61.0127 H   0  0  0  0  0  0  0  0  0  0  0  0
  134.7530  122.5372   62.1268 H   0  0  0  0  0  0  0  0  0  0  0  0
  132.8006  124.0740   62.0605 H   0  0  0  0  0  0  0  0  0  0  0  0
  129.1986  122.4466   59.5003 H   0  0  0  0  0  0  0  0  0  0  0  0
  125.5170  127.4260   60.5530 H   0  0  0  0  0  0  0  0  0  0  0  0
  125.6270  125.7620   60.1290 H   0  0  0  0  0  0  0  0  0  0  0  0
  1  2  1  0
  2  3  1  0
  3  4  1  0
  4  5  1  0
  5  6  1  0
  6  7  1  0
  7  8  1  0
  8  9  1  0
  9 10  1  0
 10 11  1  0
 11 12  1  0
 12 13  2  0
 12 14  1  0
 14 15  1  0
 15 16  1  0
 16 17  2  0
 17 18  1  0
 18 19  1  0
 19 20  2  0
 20 21  1  0
 21 22  2  0
 22 23  1  0
 23 24  2  0
 18 25  2  0
 25 26  1  0
 26 27  1  0
 27 28  1  0
 27 29  1  0
 27 30  1  0
 26 31  2  0
 31 32  1  0
 32 33  1  0
 32 14  2  0
 31 16  1  0
 24 19  1  0
  1 34  1  0
  1 35  1  0
  1 36  1  0
  3 37  1  0
  3 38  1  0
  4 39  1  0
  4 40  1  0
  6 41  1  0
  6 42  1  0
  7 43  1  0
  7 44  1  0
  9 45  1  0
  9 46  1  0
 10 47  1  0
 10 48  1  0
 11 49  1  0
 20 50  1  0
 21 51  1  0
 22 52  1  0
 23 53  1  0
 24 54  1  0
 25 55  1  0
 33 56  1  0
 33 57  1  0
M  END
>  <Binding energies>  (1) 
[-5.72]

>  <Ligand effiencies>  (1) 
[-0.15888888888888889]

>  <Interactions>  (1) 
["V-A:GLU:543:CD:4906, V-B:GLU:543:CG:9879, V-A:HIS:456:CE1:4068, V-B:TYR:539:CE2:9848, V-A:ILE:369:CD1:3237, V-A:ILE:369:CG2:3235, V-B:GLU:543:CD:9880, V-B:GLU:543:CB:9878, V-A:ARG:545:CZ:4924, V-A:GLY:454:CA:4047, V-B:PRO:540:CB:9857, V-B:ASP:366:CG:8185, V-B:PRO:540:C:9853, V-B:TYR:539:CD2:9846, V-B:PRO:540:N:9856, V-B:PRO:540:CA:9855, H-B:ARG:545:NH2:9900, H-B:ASP:366:OD1:8186, V-A:LEU:475:CD2:4257, V-B:TYR:539:C:9839, H-A:TYR:484:OH:4346, H-A:GLU:543:OE1:4907, H-A:GLU:543:OE2:4908, V-A:GLU:543:CB:4904, H-B:GLU:543:OE2:9882, V-B:HIS:456:CE1:9042, V-B:TYR:484:CZ:9319, H-B:ASP:366:OD2:8187, H-A:ARG:545:NE:4922, H-B:ARG:545:NE:9896, V-A:GLU:543:CG:4905, V-A:TRP:381:CH2:3370"]

$$$$
4dd_Grossjean_2025
     RDKit          3D

 43 46  0  0  0  0  0  0  0  0999 V2000
  126.8510  123.4210   60.1640 C   0  0  0  0  0  0  0  0  0  0  0  0
  128.1500  124.0800   60.6010 C   0  0  0  0  0  0  0  0  0  0  0  0
  129.2980  123.2820   60.6890 C   0  0  0  0  0  0  0  0  0  0  0  0
  130.5250  123.8280   61.0850 C   0  0  0  0  0  0  0  0  0  0  0  0
  131.7690  122.9970   61.1930 C   0  0  0  0  0  0  0  0  0  0  0  0
  132.8480  123.4160   61.9890 C   0  0  0  0  0  0  0  0  0  0  0  0
  134.0040  122.6480   62.0970 C   0  0  0  0  0  0  0  0  0  0  0  0
  134.0990  121.4450   61.4060 C   0  0  0  0  0  0  0  0  0  0  0  0
  133.0460  121.0050   60.6120 C   0  0  0  0  0  0  0  0  0  0  0  0
  131.8900  121.7750   60.5090 C   0  0  0  0  0  0  0  0  0  0  0  0
  130.6550  125.1440   61.4100 N   0  0  0  0  0  0  0  0  0  0  0  0
  129.5650  125.9050   61.3210 C   0  0  0  0  0  0  0  0  0  0  0  0
  129.5940  127.6140   61.6920 S   0  0  0  0  0  0  0  0  0  0  0  0
  127.8750  127.7710   61.3220 C   0  0  0  0  0  0  0  0  0  0  0  0
  127.2100  129.0720   61.4250 C   0  0  0  0  0  0  0  0  0  0  0  0
  126.0190  129.1930   61.1380 O   0  0  0  0  0  0  0  0  0  0  0  0
  127.9930  130.0910   61.8580 N   0  0  0  0  0  0  0  0  0  0  0  0
  127.6830  131.4540   62.0150 C   0  0  0  0  0  0  0  0  0  0  0  0
  128.0170  132.2840   60.9400 C   0  0  0  0  0  0  0  0  0  0  0  0
  127.7390  133.6470   60.9930 C   0  0  0  0  0  0  0  0  0  0  0  0
  127.1180  134.1810   62.1190 C   0  0  0  0  0  0  0  0  0  0  0  0
  126.7690  133.3640   63.1910 C   0  0  0  0  0  0  0  0  0  0  0  0
  127.0460  132.0010   63.1410 C   0  0  0  0  0  0  0  0  0  0  0  0
  127.3260  126.5380   60.9360 C   0  0  0  0  0  0  0  0  0  0  0  0
  126.0080  126.3620   60.5950 N   0  0  0  0  0  0  0  0  0  0  0  0
  128.2740  125.4550   60.9250 C   0  0  0  0  0  0  0  0  0  0  0  0
  126.2720  123.1273   61.0520 H   0  0  0  0  0  0  0  0  0  0  0  0
  126.2643  124.1305   59.5620 H   0  0  0  0  0  0  0  0  0  0  0  0
  127.0770  122.5286   59.5620 H   0  0  0  0  0  0  0  0  0  0  0  0
  129.2346  122.2116   60.4436 H   0  0  0  0  0  0  0  0  0  0  0  0
  132.7782  124.3675   62.5365 H   0  0  0  0  0  0  0  0  0  0  0  0
  134.8385  122.9912   62.7261 H   0  0  0  0  0  0  0  0  0  0  0  0
  135.0127  120.8380   61.4881 H   0  0  0  0  0  0  0  0  0  0  0  0
  133.1255  120.0526   60.0673 H   0  0  0  0  0  0  0  0  0  0  0  0
  131.0582  121.4211   59.8822 H   0  0  0  0  0  0  0  0  0  0  0  0
  128.9360  129.8450   62.1210 H   0  0  0  0  0  0  0  0  0  0  0  0
  128.5014  131.8580   60.0490 H   0  0  0  0  0  0  0  0  0  0  0  0
  128.0087  134.2991   60.1492 H   0  0  0  0  0  0  0  0  0  0  0  0
  126.9011  135.2585   62.1620 H   0  0  0  0  0  0  0  0  0  0  0  0
  126.2758  133.7945   64.0749 H   0  0  0  0  0  0  0  0  0  0  0  0
  126.7659  131.3518   63.9837 H   0  0  0  0  0  0  0  0  0  0  0  0
  125.6530  125.4700   60.2820 H   0  0  0  0  0  0  0  0  0  0  0  0
  125.3460  127.1230   60.6520 H   0  0  0  0  0  0  0  0  0  0  0  0
  1  2  1  0
  2  3  2  0
  3  4  1  0
  4  5  1  0
  5  6  2  0
  6  7  1  0
  7  8  2  0
  8  9  1  0
  9 10  2  0
  4 11  2  0
 11 12  1  0
 12 13  1  0
 13 14  1  0
 14 15  1  0
 15 16  2  0
 15 17  1  0
 17 18  1  0
 18 19  2  0
 19 20  1  0
 20 21  2  0
 21 22  1  0
 22 23  2  0
 14 24  2  0
 24 25  1  0
 24 26  1  0
 26  2  1  0
 10  5  1  0
 26 12  2  0
 23 18  1  0
  1 27  1  0
  1 28  1  0
  1 29  1  0
  3 30  1  0
  6 31  1  0
  7 32  1  0
  8 33  1  0
  9 34  1  0
 10 35  1  0
 17 36  1  0
 19 37  1  0
 20 38  1  0
 21 39  1  0
 22 40  1  0
 23 41  1  0
 25 42  1  0
 25 43  1  0
M  END
>  <Binding energies>  (1) 
[-6.17]

>  <Ligand effiencies>  (1) 
[-0.21275862068965518]

>  <Interactions>  (1) 
["V-A:GLU:543:CD:4906, V-B:TYR:539:CE2:9848, V-A:ILE:369:CD1:3237, V-A:ILE:369:CG2:3235, V-A:GLY:454:CA:4047, V-B:ASP:366:CG:8185, V-B:PRO:540:C:9853, V-B:TYR:539:CD2:9846, V-B:PRO:540:CA:9855, H-B:ARG:545:NH2:9900, V-A:TYR:539:CD2:4872, H-B:ASP:366:OD1:8186, V-A:LEU:475:CD2:4257, V-B:LEU:475:CD2:9231, V-A:ALA:541:CB:4890, H-A:GLU:543:OE1:4907, H-A:GLU:543:OE2:4908, H-B:ASP:366:OD2:8187, V-A:GLY:453:C:4040"]

$$$$
4dg_Grossjean_2025
     RDKit          3D

 46 49  0  0  0  0  0  0  0  0999 V2000
  126.3000  124.0480   59.3470 C   0  0  0  0  0  0  0  0  0  0  0  0
  127.6460  124.2490   60.0260 C   0  0  0  0  0  0  0  0  0  0  0  0
  128.5960  123.2250   59.9230 C   0  0  0  0  0  0  0  0  0  0  0  0
  129.8550  123.3480   60.5250 C   0  0  0  0  0  0  0  0  0  0  0  0
  130.8950  122.2680   60.4300 C   0  0  0  0  0  0  0  0  0  0  0  0
  132.2620  122.5860   60.3730 C   0  0  0  0  0  0  0  0  0  0  0  0
  133.2300  121.5880   60.2810 C   0  0  0  0  0  0  0  0  0  0  0  0
  132.8440  120.2530   60.2450 C   0  0  0  0  0  0  0  0  0  0  0  0
  131.4960  119.9090   60.2950 C   0  0  0  0  0  0  0  0  0  0  0  0
  130.5320  120.9090   60.3860 C   0  0  0  0  0  0  0  0  0  0  0  0
  130.2150  124.4640   61.2150 N   0  0  0  0  0  0  0  0  0  0  0  0
  129.3110  125.4390   61.3140 C   0  0  0  0  0  0  0  0  0  0  0  0
  129.6420  126.9220   62.1780 S   0  0  0  0  0  0  0  0  0  0  0  0
  128.0350  127.5470   61.8070 C   0  0  0  0  0  0  0  0  0  0  0  0
  127.6170  128.8510   62.3200 C   0  0  0  0  0  0  0  0  0  0  0  0
  127.7650  129.8790   61.6580 O   0  0  0  0  0  0  0  0  0  0  0  0
  127.1020  128.8550   63.5680 N   0  0  0  0  0  0  0  0  0  0  0  0
  126.6000  130.0340   64.2720 C   0  0  0  0  0  0  0  0  0  0  0  0
  125.6150  130.8580   63.4490 C   0  0  0  0  0  0  0  0  0  0  0  0
  124.4470  130.2620   62.9640 C   0  0  0  0  0  0  0  0  0  0  0  0
  123.5310  131.0180   62.2390 C   0  0  0  0  0  0  0  0  0  0  0  0
  123.7790  132.3700   62.0110 C   0  0  0  0  0  0  0  0  0  0  0  0
  124.9320  132.9740   62.5060 C   0  0  0  0  0  0  0  0  0  0  0  0
  125.8490  132.2190   63.2320 C   0  0  0  0  0  0  0  0  0  0  0  0
  127.2890  126.6240   61.0600 C   0  0  0  0  0  0  0  0  0  0  0  0
  126.0000  126.8420   60.6440 N   0  0  0  0  0  0  0  0  0  0  0  0
  128.0020  125.4130   60.7550 C   0  0  0  0  0  0  0  0  0  0  0  0
  125.5176  123.9312   60.1113 H   0  0  0  0  0  0  0  0  0  0  0  0
  126.0718  124.9220   58.7193 H   0  0  0  0  0  0  0  0  0  0  0  0
  126.3371  123.1454   58.7193 H   0  0  0  0  0  0  0  0  0  0  0  0
  128.3501  122.3115   59.3616 H   0  0  0  0  0  0  0  0  0  0  0  0
  132.5735  123.6406   60.4015 H   0  0  0  0  0  0  0  0  0  0  0  0
  134.2960  121.8556   60.2370 H   0  0  0  0  0  0  0  0  0  0  0  0
  133.6077  119.4643   60.1766 H   0  0  0  0  0  0  0  0  0  0  0  0
  131.1940  118.8518   60.2627 H   0  0  0  0  0  0  0  0  0  0  0  0
  129.4681  120.6322   60.4242 H   0  0  0  0  0  0  0  0  0  0  0  0
  126.9390  127.9670   64.0190 H   0  0  0  0  0  0  0  0  0  0  0  0
  126.0945  129.7023   65.1909 H   0  0  0  0  0  0  0  0  0  0  0  0
  127.4657  130.6790   64.4830 H   0  0  0  0  0  0  0  0  0  0  0  0
  124.2523  129.1964   63.1554 H   0  0  0  0  0  0  0  0  0  0  0  0
  122.6154  130.5505   61.8477 H   0  0  0  0  0  0  0  0  0  0  0  0
  123.0567  132.9663   61.4342 H   0  0  0  0  0  0  0  0  0  0  0  0
  125.1174  134.0429   62.3242 H   0  0  0  0  0  0  0  0  0  0  0  0
  126.7565  132.6928   63.6344 H   0  0  0  0  0  0  0  0  0  0  0  0
  125.3960  126.0860   60.3560 H   0  0  0  0  0  0  0  0  0  0  0  0
  125.6080  127.7740   60.6200 H   0  0  0  0  0  0  0  0  0  0  0  0
  1  2  1  0
  2  3  2  0
  3  4  1  0
  4  5  1  0
  5  6  2  0
  6  7  1  0
  7  8  2  0
  8  9  1  0
  9 10  2  0
  4 11  2  0
 11 12  1  0
 12 13  1  0
 13 14  1  0
 14 15  1  0
 15 16  2  0
 15 17  1  0
 17 18  1  0
 18 19  1  0
 19 20  2  0
 20 21  1  0
 21 22  2  0
 22 23  1  0
 23 24  2  0
 14 25  2  0
 25 26  1  0
 25 27  1  0
 27  2  1  0
 10  5  1  0
 27 12  2  0
 24 19  1  0
  1 28  1  0
  1 29  1  0
  1 30  1  0
  3 31  1  0
  6 32  1  0
  7 33  1  0
  8 34  1  0
  9 35  1  0
 10 36  1  0
 17 37  1  0
 18 38  1  0
 18 39  1  0
 20 40  1  0
 21 41  1  0
 22 42  1  0
 23 43  1  0
 24 44  1  0
 26 45  1  0
 26 46  1  0
M  END
>  <Binding energies>  (1) 
[-7.22]

>  <Ligand effiencies>  (1) 
[-0.24066666666666667]

>  <Interactions>  (1) 
["V-A:GLU:543:CD:4906, V-B:TYR:539:CE2:9848, V-A:ILE:369:CD1:3237, V-A:ILE:369:CG2:3235, V-B:GLU:543:CD:9880, V-B:PRO:540:CB:9857, V-B:ASP:366:CG:8185, V-B:TYR:539:CD2:9846, V-B:PRO:540:CA:9855, V-B:ALA:541:CB:9864, V-B:GLY:454:CA:9021, H-B:ASP:366:OD1:8186, V-A:LEU:475:CD2:4257, V-B:LEU:475:CD2:9231, H-B:GLU:543:OE1:9881, V-B:ARG:545:CZ:9898, H-B:GLU:543:OE2:9882, V-B:ILE:369:CD1:8211, H-B:ASP:366:OD2:8187, V-A:TRP:381:CZ2:3368, V-A:TRP:381:CH2:3370, V-B:GLY:453:CA:9016, V-B:GLY:453:C:9014, V-A:TRP:381:CZ3:3369"]

$$$$
4dj_Grossjean_2025
     RDKit          3D

 39 42  0  0  0  0  0  0  0  0999 V2000
  131.2280  135.1300   70.3720 C   0  0  0  0  0  0  0  0  0  0  0  0
  131.7080  134.7710   71.7700 C   0  0  0  0  0  0  0  0  0  0  0  0
  132.9150  135.3240   72.2150 C   0  0  0  0  0  0  0  0  0  0  0  0
  133.4120  135.0320   73.4910 C   0  0  0  0  0  0  0  0  0  0  0  0
  134.7010  135.6150   73.9990 C   0  0  0  0  0  0  0  0  0  0  0  0
  135.7620  135.8890   73.1210 C   0  0  0  0  0  0  0  0  0  0  0  0
  136.9590  136.4280   73.5840 C   0  0  0  0  0  0  0  0  0  0  0  0
  137.1140  136.6990   74.9390 C   0  0  0  0  0  0  0  0  0  0  0  0
  136.0810  136.4340   75.8320 C   0  0  0  0  0  0  0  0  0  0  0  0
  134.8860  135.8960   75.3640 C   0  0  0  0  0  0  0  0  0  0  0  0
  132.7440  134.2200   74.3550 N   0  0  0  0  0  0  0  0  0  0  0  0
  131.5960  133.6920   73.9320 C   0  0  0  0  0  0  0  0  0  0  0  0
  130.6390  132.6250   74.9350 S   0  0  0  0  0  0  0  0  0  0  0  0
  129.4220  132.4490   73.6680 C   0  0  0  0  0  0  0  0  0  0  0  0
  128.2490  131.6000   73.8830 C   0  0  0  0  0  0  0  0  0  0  0  0
  128.1070  130.5500   73.2500 O   0  0  0  0  0  0  0  0  0  0  0  0
  127.3590  132.0550   74.7980 N   0  0  0  0  0  0  0  0  0  0  0  0
  126.1720  131.4460   75.1820 C   0  0  0  0  0  0  0  0  0  0  0  0
  125.1290  132.0030   75.7610 N   0  0  0  0  0  0  0  0  0  0  0  0
  124.1730  131.1230   75.9850 C   0  0  0  0  0  0  0  0  0  0  0  0
  124.4300  129.8170   75.5810 C   0  0  0  0  0  0  0  0  0  0  0  0
  126.0160  129.7470   74.8720 S   0  0  0  0  0  0  0  0  0  0  0  0
  129.7680  133.1910   72.5290 C   0  0  0  0  0  0  0  0  0  0  0  0
  129.0060  133.2370   71.3880 N   0  0  0  0  0  0  0  0  0  0  0  0
  131.0050  133.9130   72.6540 C   0  0  0  0  0  0  0  0  0  0  0  0
  130.3490  135.7874   70.4437 H   0  0  0  0  0  0  0  0  0  0  0  0
  132.0319  135.6503   69.8307 H   0  0  0  0  0  0  0  0  0  0  0  0
  130.9560  134.2119   69.8307 H   0  0  0  0  0  0  0  0  0  0  0  0
  133.4803  135.9968   71.5533 H   0  0  0  0  0  0  0  0  0  0  0  0
  135.6452  135.6740   72.0486 H   0  0  0  0  0  0  0  0  0  0  0  0
  137.7785  136.6386   72.8812 H   0  0  0  0  0  0  0  0  0  0  0  0
  138.0589  137.1254   75.3068 H   0  0  0  0  0  0  0  0  0  0  0  0
  136.2081  136.6487   76.9033 H   0  0  0  0  0  0  0  0  0  0  0  0
  134.0723  135.6871   76.0741 H   0  0  0  0  0  0  0  0  0  0  0  0
  127.5690  132.9320   75.2520 H   0  0  0  0  0  0  0  0  0  0  0  0
  123.2245  131.4060   76.4649 H   0  0  0  0  0  0  0  0  0  0  0  0
  123.7414  128.9664   75.6921 H   0  0  0  0  0  0  0  0  0  0  0  0
  128.0270  132.9950   71.3900 H   0  0  0  0  0  0  0  0  0  0  0  0
  129.4050  133.5160   70.5020 H   0  0  0  0  0  0  0  0  0  0  0  0
  1  2  1  0
  2  3  2  0
  3  4  1  0
  4  5  1  0
  5  6  2  0
  6  7  1  0
  7  8  2  0
  8  9  1  0
  9 10  2  0
  4 11  2  0
 11 12  1  0
 12 13  1  0
 13 14  1  0
 14 15  1  0
 15 16  2  0
 15 17  1  0
 17 18  1  0
 18 19  2  0
 19 20  1  0
 20 21  2  0
 21 22  1  0
 14 23  2  0
 23 24  1  0
 23 25  1  0
 25  2  1  0
 10  5  1  0
 25 12  2  0
 22 18  1  0
  1 26  1  0
  1 27  1  0
  1 28  1  0
  3 29  1  0
  6 30  1  0
  7 31  1  0
  8 32  1  0
  9 33  1  0
 10 34  1  0
 17 35  1  0
 20 36  1  0
 21 37  1  0
 24 38  1  0
 24 39  1  0
M  END
>  <Binding energies>  (1) 
[-5.7]

>  <Ligand effiencies>  (1) 
[-0.20357142857142857]

>  <Interactions>  (1) 
["V-B:LYS:471:CB:9189, V-B:LYS:471:CE:9192, V-B:VAL:457:C:9045, V-B:VAL:458:CG2:9059, H-A:LYS:547:NZ:4949, V-B:HIS:456:CB:9037, V-B:HIS:456:C:9033, V-A:GLU:543:C:4900, V-B:HIS:456:CD2:9040, V-B:LYS:471:CG:9190, V-B:LYS:471:CD:9191, V-A:LYS:547:CE:4948, H-B:HIS:456:NE2:9043, H-A:GLU:543:O:4901, V-A:LYS:547:CD:4947, V-B:ASP:473:CG:9212, V-A:ARG:356:CB:3115, V-A:VAL:542:CG1:4897, H-B:ASP:473:OD2:9214, V-B:TYR:484:CD1:9315, V-A:GLY:544:CA:4912, V-B:TYR:484:CB:9313, V-A:GLU:543:CA:4902, V-A:LYS:547:CG:4946, H-A:VAL:542:O:4893, V-B:TYR:484:CG:9314, V-A:PHE:548:CD2:4961, V-A:VAL:542:C:4892, V-A:ARG:356:CD:3117, V-A:ARG:356:CG:3116, V-A:VAL:542:CB:4896"]

$$$$
4ea_Grossjean_2025
     RDKit          3D

 52 55  0  0  0  0  0  0  0  0999 V2000
  130.7530  126.2340   72.5440 C   0  0  0  0  0  0  0  0  0  0  0  0
  129.4260  125.7490   71.9530 C   0  0  0  0  0  0  0  0  0  0  0  0
  128.5230  126.8420   71.8600 O   0  0  0  0  0  0  0  0  0  0  0  0
  128.8010  127.9180   71.0790 C   0  0  0  0  0  0  0  0  0  0  0  0
  128.8780  129.0720   71.5140 O   0  0  0  0  0  0  0  0  0  0  0  0
  129.0050  127.5650   69.6340 C   0  0  0  0  0  0  0  0  0  0  0  0
  130.3080  127.3780   69.1540 C   0  0  0  0  0  0  0  0  0  0  0  0
  130.5300  127.0500   67.8190 C   0  0  0  0  0  0  0  0  0  0  0  0
  129.4580  126.9030   66.9380 C   0  0  0  0  0  0  0  0  0  0  0  0
  129.8030  126.5710   65.6140 N   0  0  0  0  0  0  0  0  0  0  0  0
  130.5960  125.5800   65.1350 C   0  0  0  0  0  0  0  0  0  0  0  0
  131.1790  124.7570   65.8400 O   0  0  0  0  0  0  0  0  0  0  0  0
  130.7280  125.5370   63.6760 C   0  0  0  0  0  0  0  0  0  0  0  0
  130.1550  126.8830   62.6870 S   0  0  0  0  0  0  0  0  0  0  0  0
  130.6540  126.0790   61.2170 C   0  0  0  0  0  0  0  0  0  0  0  0
  130.4790  126.6330   60.0160 N   0  0  0  0  0  0  0  0  0  0  0  0
  130.9100  125.9060   58.9560 C   0  0  0  0  0  0  0  0  0  0  0  0
  130.7010  126.5550   57.6000 C   0  0  0  0  0  0  0  0  0  0  0  0
  131.5050  124.6520   59.0670 C   0  0  0  0  0  0  0  0  0  0  0  0
  131.6870  124.0750   60.3280 C   0  0  0  0  0  0  0  0  0  0  0  0
  132.3210  122.7410   60.4300 C   0  0  0  0  0  0  0  0  0  0  0  0
  133.6470  122.6240   60.8610 C   0  0  0  0  0  0  0  0  0  0  0  0
  134.2430  121.3700   60.9590 C   0  0  0  0  0  0  0  0  0  0  0  0
  133.5140  120.2310   60.6230 C   0  0  0  0  0  0  0  0  0  0  0  0
  132.1950  120.3370   60.1880 C   0  0  0  0  0  0  0  0  0  0  0  0
  131.6000  121.5920   60.0900 C   0  0  0  0  0  0  0  0  0  0  0  0
  131.2480  124.8050   61.4670 C   0  0  0  0  0  0  0  0  0  0  0  0
  131.2770  124.5210   62.8780 C   0  0  0  0  0  0  0  0  0  0  0  0
  131.8000  123.3560   63.3790 N   0  0  0  0  0  0  0  0  0  0  0  0
  128.1500  127.0890   67.4110 C   0  0  0  0  0  0  0  0  0  0  0  0
  127.9290  127.4170   68.7450 C   0  0  0  0  0  0  0  0  0  0  0  0
  130.6948  126.2127   73.6423 H   0  0  0  0  0  0  0  0  0  0  0  0
  131.5670  125.5752   72.2071 H   0  0  0  0  0  0  0  0  0  0  0  0
  130.9503  127.2624   72.2071 H   0  0  0  0  0  0  0  0  0  0  0  0
  129.6015  125.3317   70.9505 H   0  0  0  0  0  0  0  0  0  0  0  0
  128.9967  124.9721   72.6027 H   0  0  0  0  0  0  0  0  0  0  0  0
  131.1626  127.4912   69.8373 H   0  0  0  0  0  0  0  0  0  0  0  0
  131.5584  126.9057   67.4562 H   0  0  0  0  0  0  0  0  0  0  0  0
  129.3880  127.1740   64.9190 H   0  0  0  0  0  0  0  0  0  0  0  0
  130.3665  127.5937   57.7383 H   0  0  0  0  0  0  0  0  0  0  0  0
  131.6474  126.5461   57.0395 H   0  0  0  0  0  0  0  0  0  0  0  0
  129.9376  125.9955   57.0395 H   0  0  0  0  0  0  0  0  0  0  0  0
  131.8316  124.1157   58.1638 H   0  0  0  0  0  0  0  0  0  0  0  0
  134.2201  123.5256   61.1231 H   0  0  0  0  0  0  0  0  0  0  0  0
  135.2848  121.2785   61.3001 H   0  0  0  0  0  0  0  0  0  0  0  0
  133.9842  119.2397   60.7020 H   0  0  0  0  0  0  0  0  0  0  0  0
  131.6261  119.4335   59.9232 H   0  0  0  0  0  0  0  0  0  0  0  0
  130.5595  121.6800   59.7440 H   0  0  0  0  0  0  0  0  0  0  0  0
  131.8670  123.1860   64.3730 H   0  0  0  0  0  0  0  0  0  0  0  0
  132.1380  122.6250   62.7680 H   0  0  0  0  0  0  0  0  0  0  0  0
  127.2973  126.9752   66.7255 H   0  0  0  0  0  0  0  0  0  0  0  0
  126.9003  127.5618   69.1067 H   0  0  0  0  0  0  0  0  0  0  0  0
  1  2  1  0
  2  3  1  0
  3  4  1  0
  4  5  2  0
  4  6  1  0
  6  7  2  0
  7  8  1  0
  8  9  2  0
  9 10  1  0
 10 11  1  0
 11 12  2  0
 11 13  1  0
 13 14  1  0
 14 15  1  0
 15 16  2  0
 16 17  1  0
 17 18  1  0
 17 19  2  0
 19 20  1  0
 20 21  1  0
 21 22  2  0
 22 23  1  0
 23 24  2  0
 24 25  1  0
 25 26  2  0
 20 27  2  0
 27 28  1  0
 28 29  1  0
  9 30  1  0
 30 31  2  0
 31  6  1  0
 28 13  2  0
 27 15  1  0
 26 21  1  0
  1 32  1  0
  1 33  1  0
  1 34  1  0
  2 35  1  0
  2 36  1  0
  7 37  1  0
  8 38  1  0
 10 39  1  0
 18 40  1  0
 18 41  1  0
 18 42  1  0
 19 43  1  0
 22 44  1  0
 23 45  1  0
 24 46  1  0
 25 47  1  0
 26 48  1  0
 29 49  1  0
 29 50  1  0
 30 51  1  0
 31 52  1  0
M  END
>  <Binding energies>  (1) 
[-7.31]

>  <Ligand effiencies>  (1) 
[-0.215]

>  <Interactions>  (1) 
["V-A:GLU:543:CD:4906, V-A:ASP:366:CG:3211, V-B:GLU:543:CG:9879, V-A:HIS:456:CE1:4068, V-B:TYR:539:CE2:9848, V-A:ILE:369:CD1:3237, V-A:ILE:369:CG2:3235, V-A:ARG:545:CG:4920, V-B:GLU:543:CD:9880, V-B:GLU:543:CB:9878, V-A:HIS:456:CD2:4066, V-B:LYS:547:CE:9922, V-B:GLU:543:C:9874, V-B:GLY:544:CA:9886, V-B:TYR:539:CD2:9846, V-A:LEU:475:CD2:4257, H-B:GLU:543:OE1:9881, H-A:TYR:484:OH:4346, H-A:GLU:543:OE1:4907, H-A:GLU:543:OE2:4908, H-B:GLU:543:OE2:9882, V-B:HIS:456:CE1:9042, V-A:GLU:543:CG:4905, V-A:TRP:381:CZ2:3368, V-A:TRP:381:CH2:3370, V-A:GLY:544:C:4910, V-A:GLU:543:C:4900, V-B:HIS:456:CD2:9040, V-A:HIS:456:CG:4064, V-A:ILE:369:CG1:3236"]

$$$$
4eb_Grossjean_2025
     RDKit          3D

 49 52  0  0  0  0  0  0  0  0999 V2000
  130.1260  126.9980   72.5940 C   0  0  0  0  0  0  0  0  0  0  0  0
  129.4860  128.1170   71.9980 O   0  0  0  0  0  0  0  0  0  0  0  0
  128.4060  127.9550   71.1900 C   0  0  0  0  0  0  0  0  0  0  0  0
  127.2430  128.1170   71.5690 O   0  0  0  0  0  0  0  0  0  0  0  0
  128.7690  127.5590   69.7870 C   0  0  0  0  0  0  0  0  0  0  0  0
  130.1170  127.3680   69.4580 C   0  0  0  0  0  0  0  0  0  0  0  0
  130.4860  127.0010   68.1680 C   0  0  0  0  0  0  0  0  0  0  0  0
  129.5180  126.8170   67.1800 C   0  0  0  0  0  0  0  0  0  0  0  0
  130.0060  126.4470   65.9120 N   0  0  0  0  0  0  0  0  0  0  0  0
  130.6280  125.3120   65.5080 C   0  0  0  0  0  0  0  0  0  0  0  0
  130.8800  124.3590   66.2450 O   0  0  0  0  0  0  0  0  0  0  0  0
  131.0010  125.2750   64.0910 C   0  0  0  0  0  0  0  0  0  0  0  0
  132.2680  124.1800   63.5310 S   0  0  0  0  0  0  0  0  0  0  0  0
  132.0840  124.7330   61.8820 C   0  0  0  0  0  0  0  0  0  0  0  0
  132.8260  124.2440   60.8880 N   0  0  0  0  0  0  0  0  0  0  0  0
  132.5850  124.7560   59.6570 C   0  0  0  0  0  0  0  0  0  0  0  0
  133.4400  124.1850   58.5400 C   0  0  0  0  0  0  0  0  0  0  0  0
  131.6300  125.7370   59.3990 C   0  0  0  0  0  0  0  0  0  0  0  0
  130.8530  126.2470   60.4450 C   0  0  0  0  0  0  0  0  0  0  0  0
  129.8420  127.2900   60.1550 C   0  0  0  0  0  0  0  0  0  0  0  0
  128.5040  126.9340   59.9580 C   0  0  0  0  0  0  0  0  0  0  0  0
  127.5520  127.9140   59.6870 C   0  0  0  0  0  0  0  0  0  0  0  0
  127.9390  129.2500   59.6110 C   0  0  0  0  0  0  0  0  0  0  0  0
  129.2710  129.6130   59.8030 C   0  0  0  0  0  0  0  0  0  0  0  0
  130.2210  128.6330   60.0740 C   0  0  0  0  0  0  0  0  0  0  0  0
  131.0760  125.7350   61.7530 C   0  0  0  0  0  0  0  0  0  0  0  0
  130.4750  126.0250   63.0280 C   0  0  0  0  0  0  0  0  0  0  0  0
  129.4770  126.9550   63.1730 N   0  0  0  0  0  0  0  0  0  0  0  0
  128.1640  127.0070   67.5000 C   0  0  0  0  0  0  0  0  0  0  0  0
  127.7980  127.3740   68.7920 C   0  0  0  0  0  0  0  0  0  0  0  0
  130.0752  127.0869   73.6892 H   0  0  0  0  0  0  0  0  0  0  0  0
  129.6196  126.0743   72.2772 H   0  0  0  0  0  0  0  0  0  0  0  0
  131.1789  126.9661   72.2772 H   0  0  0  0  0  0  0  0  0  0  0  0
  130.8909  127.5095   70.2268 H   0  0  0  0  0  0  0  0  0  0  0  0
  131.5488  126.8547   67.9250 H   0  0  0  0  0  0  0  0  0  0  0  0
  129.8650  127.1460   65.1980 H   0  0  0  0  0  0  0  0  0  0  0  0
  134.2811  123.6233   58.9726 H   0  0  0  0  0  0  0  0  0  0  0  0
  132.8304  123.5121   57.9190 H   0  0  0  0  0  0  0  0  0  0  0  0
  133.8280  125.0059   57.9190 H   0  0  0  0  0  0  0  0  0  0  0  0
  131.4870  126.1102   58.3742 H   0  0  0  0  0  0  0  0  0  0  0  0
  128.2027  125.8777   60.0172 H   0  0  0  0  0  0  0  0  0  0  0  0
  126.4993  127.6342   59.5337 H   0  0  0  0  0  0  0  0  0  0  0  0
  127.1876  130.0245   59.3978 H   0  0  0  0  0  0  0  0  0  0  0  0
  129.5700  130.6698   59.7406 H   0  0  0  0  0  0  0  0  0  0  0  0
  131.2732  128.9160   60.2249 H   0  0  0  0  0  0  0  0  0  0  0  0
  128.5080  126.6840   63.2630 H   0  0  0  0  0  0  0  0  0  0  0  0
  129.6780  127.9460   63.1940 H   0  0  0  0  0  0  0  0  0  0  0  0
  127.3920  126.8657   66.7292 H   0  0  0  0  0  0  0  0  0  0  0  0
  126.7353  127.5205   69.0353 H   0  0  0  0  0  0  0  0  0  0  0  0
  1  2  1  0
  2  3  1  0
  3  4  2  0
  3  5  1  0
  5  6  2  0
  6  7  1  0
  7  8  2  0
  8  9  1  0
  9 10  1  0
 10 11  2  0
 10 12  1  0
 12 13  1  0
 13 14  1  0
 14 15  2  0
 15 16  1  0
 16 17  1  0
 16 18  2  0
 18 19  1  0
 19 20  1  0
 20 21  2  0
 21 22  1  0
 22 23  2  0
 23 24  1  0
 24 25  2  0
 19 26  2  0
 26 27  1  0
 27 28  1  0
  8 29  1  0
 29 30  2  0
 30  5  1  0
 27 12  2  0
 26 14  1  0
 25 20  1  0
  1 31  1  0
  1 32  1  0
  1 33  1  0
  6 34  1  0
  7 35  1  0
  9 36  1  0
 17 37  1  0
 17 38  1  0
 17 39  1  0
 18 40  1  0
 21 41  1  0
 22 42  1  0
 23 43  1  0
 24 44  1  0
 25 45  1  0
 28 46  1  0
 28 47  1  0
 29 48  1  0
 30 49  1  0
M  END
>  <Binding energies>  (1) 
[-7.12]

>  <Ligand effiencies>  (1) 
[-0.21575757575757576]

>  <Interactions>  (1) 
["V-A:GLU:543:CD:4906, V-A:ASP:366:CG:3211, V-B:GLU:543:CG:9879, V-A:HIS:456:CE1:4068, V-A:ASP:366:CB:3210, V-B:TYR:539:CE2:9848, V-B:GLU:543:CD:9880, V-B:GLU:543:CB:9878, V-A:ASP:366:CA:3208, V-B:GLU:543:C:9874, H-B:GLU:543:OE1:9881, H-A:TYR:484:OH:4346, H-A:GLU:543:OE1:4907, H-A:GLU:543:OE2:4908, H-B:GLU:543:OE2:9882, V-B:HIS:456:CE1:9042, V-A:GLY:544:C:4910, V-A:GLU:543:C:4900, V-B:HIS:456:CD2:9040, V-A:LYS:547:CE:4948, H-B:HIS:456:ND1:9039"]

$$$$
8a_Ghoteimi_2023
     RDKit          3D

 67 71  0  0  0  0  0  0  0  0999 V2000
  124.1520  133.7100   61.0860 C   0  0  0  0  0  0  0  0  0  0  0  0
  123.8510  132.8110   62.2890 C   0  0  0  0  0  0  0  0  0  0  0  0
  125.0720  132.4220   62.9060 O   0  0  0  0  0  0  0  0  0  0  0  0
  125.6090  131.1930   62.6850 C   0  0  0  0  0  0  0  0  0  0  0  0
  125.6990  130.6820   61.5640 O   0  0  0  0  0  0  0  0  0  0  0  0
  126.0770  130.5160   63.9410 C   0  0  0  0  0  0  0  0  0  0  0  0
  127.0300  131.1520   64.7460 C   0  0  0  0  0  0  0  0  0  0  0  0
  127.4850  130.5500   65.9150 C   0  0  0  0  0  0  0  0  0  0  0  0
  126.9990  129.3010   66.3050 C   0  0  0  0  0  0  0  0  0  0  0  0
  127.5350  128.7870   67.5030 N   0  0  0  0  0  0  0  0  0  0  0  0
  127.2450  127.6450   68.1740 C   0  0  0  0  0  0  0  0  0  0  0  0
  126.4040  126.8220   67.8120 O   0  0  0  0  0  0  0  0  0  0  0  0
  128.0200  127.4270   69.3990 C   0  0  0  0  0  0  0  0  0  0  0  0
  129.5870  126.6220   69.3310 S   0  0  0  0  0  0  0  0  0  0  0  0
  129.7830  126.7540   71.0630 C   0  0  0  0  0  0  0  0  0  0  0  0
  130.8550  126.2650   71.6860 N   0  0  0  0  0  0  0  0  0  0  0  0
  130.9050  126.4160   73.0360 C   0  0  0  0  0  0  0  0  0  0  0  0
  132.1070  125.8420   73.7170 C   0  0  0  0  0  0  0  0  0  0  0  0
  133.3480  126.4910   73.6620 C   0  0  0  0  0  0  0  0  0  0  0  0
  134.4660  125.9460   74.2880 C   0  0  0  0  0  0  0  0  0  0  0  0
  134.3720  124.7430   74.9840 C   0  0  0  0  0  0  0  0  0  0  0  0
  135.5330  124.2770   75.5720 O   0  0  0  0  0  0  0  0  0  0  0  0
  135.6030  122.9150   75.9820 C   0  0  0  0  0  0  0  0  0  0  0  0
  133.1330  124.0890   75.0500 C   0  0  0  0  0  0  0  0  0  0  0  0
  132.0170  124.6350   74.4210 C   0  0  0  0  0  0  0  0  0  0  0  0
  129.8940  127.0580   73.7540 C   0  0  0  0  0  0  0  0  0  0  0  0
  128.7750  127.5870   73.1020 C   0  0  0  0  0  0  0  0  0  0  0  0
  127.7450  128.2890   73.9100 C   0  0  0  0  0  0  0  0  0  0  0  0
  127.2330  127.6950   75.0660 C   0  0  0  0  0  0  0  0  0  0  0  0
  126.2830  128.3580   75.8370 C   0  0  0  0  0  0  0  0  0  0  0  0
  125.8300  129.6260   75.4700 C   0  0  0  0  0  0  0  0  0  0  0  0
  124.8870  130.2070   76.2950 O   0  0  0  0  0  0  0  0  0  0  0  0
  124.3810  131.4970   75.9710 C   0  0  0  0  0  0  0  0  0  0  0  0
  126.3490  130.2280   74.3130 C   0  0  0  0  0  0  0  0  0  0  0  0
  127.3020  129.5630   73.5440 C   0  0  0  0  0  0  0  0  0  0  0  0
  128.6900  127.4210   71.6910 C   0  0  0  0  0  0  0  0  0  0  0  0
  127.6880  127.7790   70.7170 C   0  0  0  0  0  0  0  0  0  0  0  0
  126.5100  128.3920   71.0630 N   0  0  0  0  0  0  0  0  0  0  0  0
  126.0410  128.6580   65.5060 C   0  0  0  0  0  0  0  0  0  0  0  0
  125.5870  129.2620   64.3370 C   0  0  0  0  0  0  0  0  0  0  0  0
  124.4827  134.6976   61.4399 H   0  0  0  0  0  0  0  0  0  0  0  0
  124.9464  133.2539   60.4770 H   0  0  0  0  0  0  0  0  0  0  0  0
  123.2431  133.8242   60.4770 H   0  0  0  0  0  0  0  0  0  0  0  0
  123.2332  133.3620   63.0133 H   0  0  0  0  0  0  0  0  0  0  0  0
  123.3085  131.9155   61.9516 H   0  0  0  0  0  0  0  0  0  0  0  0
  127.4225  132.1365   64.4515 H   0  0  0  0  0  0  0  0  0  0  0  0
  128.2338  131.0625   66.5368 H   0  0  0  0  0  0  0  0  0  0  0  0
  128.2540  129.3640   67.9110 H   0  0  0  0  0  0  0  0  0  0  0  0
  133.4399  127.4425   73.1177 H   0  0  0  0  0  0  0  0  0  0  0  0
  135.4316  126.4699   74.2325 H   0  0  0  0  0  0  0  0  0  0  0  0
  135.6057  122.8625   77.0807 H   0  0  0  0  0  0  0  0  0  0  0  0
  134.7317  122.3691   75.5910 H   0  0  0  0  0  0  0  0  0  0  0  0
  136.5256  122.4613   75.5910 H   0  0  0  0  0  0  0  0  0  0  0  0
  133.0425  123.1411   75.6008 H   0  0  0  0  0  0  0  0  0  0  0  0
  131.0516  124.1109   74.4780 H   0  0  0  0  0  0  0  0  0  0  0  0
  129.9786  127.1490   74.8470 H   0  0  0  0  0  0  0  0  0  0  0  0
  127.5829  126.6970   75.3687 H   0  0  0  0  0  0  0  0  0  0  0  0
  125.8856  127.8784   76.7437 H   0  0  0  0  0  0  0  0  0  0  0  0
  124.1644  132.0492   76.8974 H   0  0  0  0  0  0  0  0  0  0  0  0
  125.1299  132.0474   75.3826 H   0  0  0  0  0  0  0  0  0  0  0  0
  123.4576  131.3915   75.3826 H   0  0  0  0  0  0  0  0  0  0  0  0
  126.0024  131.2278   74.0125 H   0  0  0  0  0  0  0  0  0  0  0  0
  127.7086  130.0443   72.6423 H   0  0  0  0  0  0  0  0  0  0  0  0
  125.6190  128.0430   70.7370 H   0  0  0  0  0  0  0  0  0  0  0  0
  126.4900  129.2080   71.6570 H   0  0  0  0  0  0  0  0  0  0  0  0
  125.6481  127.6748   65.8042 H   0  0  0  0  0  0  0  0  0  0  0  0
  124.8360  128.7508   63.7168 H   0  0  0  0  0  0  0  0  0  0  0  0
  1  2  1  0
  2  3  1  0
  3  4  1  0
  4  5  2  0
  4  6  1  0
  6  7  2  0
  7  8  1  0
  8  9  2  0
  9 10  1  0
 10 11  1  0
 11 12  2  0
 11 13  1  0
 13 14  1  0
 14 15  1  0
 15 16  2  0
 16 17  1  0
 17 18  1  0
 18 19  2  0
 19 20  1  0
 20 21  2  0
 21 22  1  0
 22 23  1  0
 21 24  1  0
 24 25  2  0
 17 26  2  0
 26 27  1  0
 27 28  1  0
 28 29  2  0
 29 30  1  0
 30 31  2  0
 31 32  1  0
 32 33  1  0
 31 34  1  0
 34 35  2  0
 27 36  2  0
 36 37  1  0
 37 38  1  0
  9 39  1  0
 39 40  2  0
 40  6  1  0
 37 13  2  0
 36 15  1  0
 25 18  1  0
 35 28  1  0
  1 41  1  0
  1 42  1  0
  1 43  1  0
  2 44  1  0
  2 45  1  0
  7 46  1  0
  8 47  1  0
 10 48  1  0
 19 49  1  0
 20 50  1  0
 23 51  1  0
 23 52  1  0
 23 53  1  0
 24 54  1  0
 25 55  1  0
 26 56  1  0
 29 57  1  0
 30 58  1  0
 33 59  1  0
 33 60  1  0
 33 61  1  0
 34 62  1  0
 35 63  1  0
 38 64  1  0
 38 65  1  0
 39 66  1  0
 40 67  1  0
M  END
>  <Binding energies>  (1) 
[-2.88]

>  <Ligand effiencies>  (1) 
[-0.0669767441860465]

>  <Interactions>  (1) 
["V-A:GLU:543:CD:4906, V-B:GLU:543:CG:9879, V-A:HIS:456:CE1:4068, V-B:GLU:543:CD:9880, V-A:HIS:456:CD2:4066, V-B:LYS:547:CE:9922, V-B:GLU:543:C:9874, V-B:GLY:454:CA:9021, V-B:LEU:475:CD2:9231, V-B:ARG:545:CZ:9898, V-A:GLU:543:CB:4904, V-B:ILE:369:CD1:8211, V-B:ILE:369:CG2:8209, V-B:HIS:456:CE1:9042, V-B:TYR:484:CE1:9317, V-B:TYR:484:CZ:9319, V-B:ARG:545:CG:9894, V-A:GLU:543:CG:4905, V-B:HIS:456:CG:9038, V-B:LYS:471:CE:9192, V-B:VAL:458:CG2:9059, V-B:HIS:456:CB:9037, V-A:GLY:544:C:4910, V-B:HIS:456:C:9033, V-B:HIS:456:CD2:9040, V-B:GLY:544:C:9884, V-B:LYS:471:CG:9190, V-B:LYS:471:CD:9191, V-A:LYS:471:C:4211, V-A:LYS:471:CD:4217, V-A:HIS:456:CB:4063, V-A:LYS:547:CE:4948, V-A:HIS:456:CG:4064, V-A:HIS:456:C:4059, V-A:VAL:457:C:4071, V-A:LYS:471:CG:4216, V-A:LYS:471:CB:4215, V-A:HIS:456:CA:4061, H-A:VAL:458:N:4082, H-A:HIS:456:ND1:4065, V-A:VAL:458:CG2:4085, H-B:HIS:456:NE2:9043, H-A:GLU:543:O:4901, V-A:LYS:471:CE:4218, V-B:ARG:545:CD:9895, H-B:GLY:544:O:9885, V-B:ASP:473:CG:9212, H-B:ARG:545:N:9892, V-B:LYS:547:CD:9921, V-B:ARG:545:CA:9891, V-A:VAL:457:CA:4073, H-A:VAL:457:N:4074, V-A:LEU:472:CA:4226, V-A:LYS:471:CA:4213"]

$$$$
8b_Ghoteimi_2023
     RDKit          3D

 54 58  0  0  0  0  0  0  0  0999 V2000
  134.4170  119.6630   60.2620 C   0  0  0  0  0  0  0  0  0  0  0  0
  134.6150  120.8410   61.0380 O   0  0  0  0  0  0  0  0  0  0  0  0
  133.6300  121.8090   61.0560 C   0  0  0  0  0  0  0  0  0  0  0  0
  132.4120  121.4700   60.4700 C   0  0  0  0  0  0  0  0  0  0  0  0
  131.3620  122.3820   60.4400 C   0  0  0  0  0  0  0  0  0  0  0  0
  131.5030  123.6610   60.9980 C   0  0  0  0  0  0  0  0  0  0  0  0
  130.3790  124.6470   60.9670 C   0  0  0  0  0  0  0  0  0  0  0  0
  129.0960  124.2880   60.5400 C   0  0  0  0  0  0  0  0  0  0  0  0
  128.0620  125.2280   60.5210 C   0  0  0  0  0  0  0  0  0  0  0  0
  126.7170  124.8180   60.0540 C   0  0  0  0  0  0  0  0  0  0  0  0
  126.4140  124.8270   58.6910 C   0  0  0  0  0  0  0  0  0  0  0  0
  125.1530  124.4320   58.2530 C   0  0  0  0  0  0  0  0  0  0  0  0
  124.1790  124.0260   59.1660 C   0  0  0  0  0  0  0  0  0  0  0  0
  122.9570  123.6500   58.6400 O   0  0  0  0  0  0  0  0  0  0  0  0
  122.6980  123.8720   57.2580 C   0  0  0  0  0  0  0  0  0  0  0  0
  124.4850  124.0220   60.5360 C   0  0  0  0  0  0  0  0  0  0  0  0
  125.7470  124.4170   60.9730 C   0  0  0  0  0  0  0  0  0  0  0  0
  128.3510  126.5500   60.9550 C   0  0  0  0  0  0  0  0  0  0  0  0
  127.5460  127.7380   61.0710 C   0  0  0  0  0  0  0  0  0  0  0  0
  126.2170  127.7600   60.7340 N   0  0  0  0  0  0  0  0  0  0  0  0
  128.2460  128.8540   61.5560 C   0  0  0  0  0  0  0  0  0  0  0  0
  127.7460  130.2080   61.8000 C   0  0  0  0  0  0  0  0  0  0  0  0
  128.3690  131.1920   61.3950 O   0  0  0  0  0  0  0  0  0  0  0  0
  126.5790  130.2820   62.4890 N   0  0  0  0  0  0  0  0  0  0  0  0
  125.8830  131.4260   62.8520 C   0  0  0  0  0  0  0  0  0  0  0  0
  124.5710  131.6780   62.4540 C   0  0  0  0  0  0  0  0  0  0  0  0
  124.2550  132.8970   63.0110 C   0  0  0  0  0  0  0  0  0  0  0  0
  125.3200  133.3530   63.7110 O   0  0  0  0  0  0  0  0  0  0  0  0
  126.3460  132.4120   63.6050 N   0  0  0  0  0  0  0  0  0  0  0  0
  129.9330  128.4530   61.8860 S   0  0  0  0  0  0  0  0  0  0  0  0
  129.6900  126.8000   61.3730 C   0  0  0  0  0  0  0  0  0  0  0  0
  130.6770  125.9050   61.3890 N   0  0  0  0  0  0  0  0  0  0  0  0
  132.7300  123.9960   61.5880 C   0  0  0  0  0  0  0  0  0  0  0  0
  133.7830  123.0850   61.6180 C   0  0  0  0  0  0  0  0  0  0  0  0
  134.2724  118.8026   60.9319 H   0  0  0  0  0  0  0  0  0  0  0  0
  133.5271  119.7872   59.6274 H   0  0  0  0  0  0  0  0  0  0  0  0
  135.2986  119.4895   59.6274 H   0  0  0  0  0  0  0  0  0  0  0  0
  132.2796  120.4719   60.0270 H   0  0  0  0  0  0  0  0  0  0  0  0
  130.4083  122.0962   59.9723 H   0  0  0  0  0  0  0  0  0  0  0  0
  128.8991  123.2554   60.2159 H   0  0  0  0  0  0  0  0  0  0  0  0
  127.1731  125.1468   57.9620 H   0  0  0  0  0  0  0  0  0  0  0  0
  124.9223  124.4400   57.1775 H   0  0  0  0  0  0  0  0  0  0  0  0
  121.8668  124.5844   57.1506 H   0  0  0  0  0  0  0  0  0  0  0  0
  123.5980  124.2835   56.7778 H   0  0  0  0  0  0  0  0  0  0  0  0
  122.4290  122.9196   56.7778 H   0  0  0  0  0  0  0  0  0  0  0  0
  123.7258  123.7060   61.2665 H   0  0  0  0  0  0  0  0  0  0  0  0
  125.9801  124.4128   62.0480 H   0  0  0  0  0  0  0  0  0  0  0  0
  125.6850  126.9060   60.6380 H   0  0  0  0  0  0  0  0  0  0  0  0
  125.7250  128.6260   60.5690 H   0  0  0  0  0  0  0  0  0  0  0  0
  126.1580  129.4090   62.7710 H   0  0  0  0  0  0  0  0  0  0  0  0
  123.9273  131.0408   61.8299 H   0  0  0  0  0  0  0  0  0  0  0  0
  123.2915  133.4169   62.9042 H   0  0  0  0  0  0  0  0  0  0  0  0
  132.8629  124.9929   62.0337 H   0  0  0  0  0  0  0  0  0  0  0  0
  134.7385  123.3673   62.0843 H   0  0  0  0  0  0  0  0  0  0  0  0
  1  2  1  0
  2  3  1  0
  3  4  2  0
  4  5  1  0
  5  6  2  0
  6  7  1  0
  7  8  2  0
  8  9  1  0
  9 10  1  0
 10 11  2  0
 11 12  1  0
 12 13  2  0
 13 14  1  0
 14 15  1  0
 13 16  1  0
 16 17  2  0
  9 18  2  0
 18 19  1  0
 19 20  1  0
 19 21  2  0
 21 22  1  0
 22 23  2  0
 22 24  1  0
 24 25  1  0
 25 26  1  0
 26 27  2  0
 27 28  1  0
 28 29  1  0
 21 30  1  0
 30 31  1  0
 31 32  2  0
  6 33  1  0
 33 34  2  0
 34  3  1  0
 32  7  1  0
 17 10  1  0
 31 18  1  0
 29 25  2  0
  1 35  1  0
  1 36  1  0
  1 37  1  0
  4 38  1  0
  5 39  1  0
  8 40  1  0
 11 41  1  0
 12 42  1  0
 15 43  1  0
 15 44  1  0
 15 45  1  0
 16 46  1  0
 17 47  1  0
 20 48  1  0
 20 49  1  0
 24 50  1  0
 26 51  1  0
 27 52  1  0
 33 53  1  0
 34 54  1  0
M  END
>  <Binding energies>  (1) 
[-4.24]

>  <Ligand effiencies>  (1) 
[-0.1145945945945946]

>  <Interactions>  (1) 
["V-A:GLU:543:CD:4906, V-B:TYR:539:CE2:9848, V-A:ILE:369:CD1:3237, V-A:ILE:369:CG2:3235, V-A:GLY:454:CA:4047, V-B:ASN:362:CB:8148, V-B:LEU:363:CA:8157, V-B:PRO:540:CB:9857, V-B:ASP:366:CG:8185, V-B:TYR:531:CE2:9765, V-B:LEU:363:CD1:8161, V-B:LEU:363:CB:8159, V-B:TYR:539:CD2:9846, V-B:PRO:540:CA:9855, V-B:GLY:454:CA:9021, H-B:ASP:366:OD1:8186, V-A:LEU:475:CD2:4257, V-B:LEU:475:CD2:9231, H-B:TYR:484:OH:9320, H-B:ASP:366:OD2:8187, V-A:TRP:381:CZ2:3368, V-A:TRP:381:CH2:3370, V-A:ILE:369:CG1:3236, V-A:SER:385:CA:3405, V-B:LEU:363:C:8155, V-A:SER:385:C:3403, V-A:SER:385:CB:3407, H-B:LEU:363:N:8158, V-B:LEU:363:CG:8160"]

$$$$
8c_Ghoteimi_2023
     RDKit          3D

 54 58  0  0  0  0  0  0  0  0999 V2000
  134.7120  125.0370   66.5480 C   0  0  0  0  0  0  0  0  0  0  0  0
  134.1420  124.3280   65.4540 O   0  0  0  0  0  0  0  0  0  0  0  0
  133.0790  124.8870   64.7690 C   0  0  0  0  0  0  0  0  0  0  0  0
  133.2360  125.0400   63.3930 C   0  0  0  0  0  0  0  0  0  0  0  0
  132.2190  125.5970   62.6230 C   0  0  0  0  0  0  0  0  0  0  0  0
  131.0170  126.0150   63.2110 C   0  0  0  0  0  0  0  0  0  0  0  0
  129.9210  126.6180   62.3890 C   0  0  0  0  0  0  0  0  0  0  0  0
  129.0850  125.8350   61.5880 C   0  0  0  0  0  0  0  0  0  0  0  0
  128.0660  126.4240   60.8310 C   0  0  0  0  0  0  0  0  0  0  0  0
  127.2030  125.5670   59.9860 C   0  0  0  0  0  0  0  0  0  0  0  0
  126.1160  124.8920   60.5470 C   0  0  0  0  0  0  0  0  0  0  0  0
  125.3010  124.0950   59.7500 C   0  0  0  0  0  0  0  0  0  0  0  0
  125.5580  123.9580   58.3850 C   0  0  0  0  0  0  0  0  0  0  0  0
  124.6950  123.1490   57.6710 O   0  0  0  0  0  0  0  0  0  0  0  0
  123.4250  123.6600   57.2840 C   0  0  0  0  0  0  0  0  0  0  0  0
  126.6530  124.6340   57.8230 C   0  0  0  0  0  0  0  0  0  0  0  0
  127.4680  125.4310   58.6220 C   0  0  0  0  0  0  0  0  0  0  0  0
  127.9060  127.8330   60.9070 C   0  0  0  0  0  0  0  0  0  0  0  0
  126.9850  128.7450   60.2830 C   0  0  0  0  0  0  0  0  0  0  0  0
  126.0070  128.3250   59.4160 N   0  0  0  0  0  0  0  0  0  0  0  0
  127.1820  130.0880   60.6430 C   0  0  0  0  0  0  0  0  0  0  0  0
  126.4340  131.2690   60.2060 C   0  0  0  0  0  0  0  0  0  0  0  0
  126.4510  131.6240   59.0250 O   0  0  0  0  0  0  0  0  0  0  0  0
  125.7480  131.9160   61.1800 N   0  0  0  0  0  0  0  0  0  0  0  0
  124.9630  133.0510   61.0350 C   0  0  0  0  0  0  0  0  0  0  0  0
  125.0350  133.9680   60.0950 N   0  0  0  0  0  0  0  0  0  0  0  0
  124.1290  134.9100   60.2660 C   0  0  0  0  0  0  0  0  0  0  0  0
  123.2930  134.7670   61.3690 C   0  0  0  0  0  0  0  0  0  0  0  0
  123.7290  133.3170   62.2240 S   0  0  0  0  0  0  0  0  0  0  0  0
  128.5240  130.2530   61.7770 S   0  0  0  0  0  0  0  0  0  0  0  0
  128.8120  128.5290   61.7590 C   0  0  0  0  0  0  0  0  0  0  0  0
  129.7840  127.9690   62.4790 N   0  0  0  0  0  0  0  0  0  0  0  0
  130.8650  125.8560   64.5950 C   0  0  0  0  0  0  0  0  0  0  0  0
  131.8810  125.3000   65.3680 C   0  0  0  0  0  0  0  0  0  0  0  0
  134.3593  124.5982   67.4930 H   0  0  0  0  0  0  0  0  0  0  0  0
  135.8087  124.9677   66.4984 H   0  0  0  0  0  0  0  0  0  0  0  0
  134.4087  126.0932   66.4984 H   0  0  0  0  0  0  0  0  0  0  0  0
  134.1711  124.7180   62.9114 H   0  0  0  0  0  0  0  0  0  0  0  0
  132.3604  125.7108   61.5381 H   0  0  0  0  0  0  0  0  0  0  0  0
  129.2295  124.7451   61.5523 H   0  0  0  0  0  0  0  0  0  0  0  0
  125.9041  124.9911   61.6218 H   0  0  0  0  0  0  0  0  0  0  0  0
  124.4464  123.5680   60.1994 H   0  0  0  0  0  0  0  0  0  0  0  0
  122.8359  123.8970   58.1822 H   0  0  0  0  0  0  0  0  0  0  0  0
  123.5638  124.5723   56.6853 H   0  0  0  0  0  0  0  0  0  0  0  0
  122.8933  122.9058   56.6853 H   0  0  0  0  0  0  0  0  0  0  0  0
  126.8673  124.5335   56.7488 H   0  0  0  0  0  0  0  0  0  0  0  0
  128.3254  125.9565   58.1763 H   0  0  0  0  0  0  0  0  0  0  0  0
  125.8570  128.7840   58.5280 H   0  0  0  0  0  0  0  0  0  0  0  0
  125.4030  127.5460   59.6350 H   0  0  0  0  0  0  0  0  0  0  0  0
  125.8030  131.5370   62.1150 H   0  0  0  0  0  0  0  0  0  0  0  0
  124.0389  135.7614   59.5754 H   0  0  0  0  0  0  0  0  0  0  0  0
  122.4869  135.4591   61.6540 H   0  0  0  0  0  0  0  0  0  0  0  0
  129.9295  126.1751   65.0777 H   0  0  0  0  0  0  0  0  0  0  0  0
  131.7429  125.1844   66.4532 H   0  0  0  0  0  0  0  0  0  0  0  0
  1  2  1  0
  2  3  1  0
  3  4  2  0
  4  5  1  0
  5  6  2  0
  6  7  1  0
  7  8  2  0
  8  9  1  0
  9 10  1  0
 10 11  2  0
 11 12  1  0
 12 13  2  0
 13 14  1  0
 14 15  1  0
 13 16  1  0
 16 17  2  0
  9 18  2  0
 18 19  1  0
 19 20  1  0
 19 21  2  0
 21 22  1  0
 22 23  2  0
 22 24  1  0
 24 25  1  0
 25 26  2  0
 26 27  1  0
 27 28  2  0
 28 29  1  0
 21 30  1  0
 30 31  1  0
 31 32  2  0
  6 33  1  0
 33 34  2  0
 34  3  1  0
 32  7  1  0
 17 10  1  0
 31 18  1  0
 29 25  1  0
  1 35  1  0
  1 36  1  0
  1 37  1  0
  4 38  1  0
  5 39  1  0
  8 40  1  0
 11 41  1  0
 12 42  1  0
 15 43  1  0
 15 44  1  0
 15 45  1  0
 16 46  1  0
 17 47  1  0
 20 48  1  0
 20 49  1  0
 24 50  1  0
 27 51  1  0
 28 52  1  0
 33 53  1  0
 34 54  1  0
M  END
>  <Binding energies>  (1) 
[-5.01]

>  <Ligand effiencies>  (1) 
[-0.1354054054054054]

>  <Interactions>  (1) 
["H-A:GLY:454:N:4048, V-A:GLU:543:CD:4906, V-A:HIS:456:CE1:4068, V-A:ARG:545:CD:4921, V-A:GLY:453:CA:4042, V-A:ARG:545:CG:4920, V-B:GLU:543:CD:9880, V-A:ARG:545:CZ:4924, V-A:GLY:454:CA:4047, V-B:ASP:366:CB:8184, V-B:LEU:363:CA:8157, V-B:PRO:540:CB:9857, V-B:ASP:366:CG:8185, V-B:TYR:531:CE2:9765, V-B:LEU:363:CD1:8161, V-B:LEU:363:CB:8159, V-B:PRO:540:N:9856, V-B:PRO:540:CA:9855, V-A:TYR:539:CE2:4874, V-B:GLY:454:CA:9021, V-A:TYR:539:CD2:4872, H-B:ASP:366:OD1:8186, V-B:LEU:475:CD2:9231, H-A:TYR:484:OH:4346, H-A:ARG:545:NH2:4926, V-B:ILE:369:CD1:8211, V-B:ILE:369:CG2:8209, H-B:ASP:366:OD2:8187, V-B:TRP:381:CZ2:8342, V-B:TRP:381:CH2:8344, V-A:ARG:545:CB:4919, V-A:GLY:453:C:4040, V-B:PRO:540:CD:9859, H-A:ILE:455:N:4053, V-B:SER:385:CA:8379, V-B:ILE:369:CG1:8210, V-A:ILE:455:C:4050, V-B:SER:385:C:8377, V-B:PRO:540:CG:9858"]

$$$$
8d_Ghoteimi_2023
     RDKit          3D

 50 53  0  0  0  0  0  0  0  0999 V2000
  132.7540  120.6790   60.3260 C   0  0  0  0  0  0  0  0  0  0  0  0
  131.5140  120.1440   59.8820 O   0  0  0  0  0  0  0  0  0  0  0  0
  130.3820  120.3130   60.6120 C   0  0  0  0  0  0  0  0  0  0  0  0
  129.7060  119.3850   61.0620 O   0  0  0  0  0  0  0  0  0  0  0  0
  130.0360  121.7370   60.8170 C   0  0  0  0  0  0  0  0  0  0  0  0
  128.8200  122.5030   59.7930 S   0  0  0  0  0  0  0  0  0  0  0  0
  129.0160  124.0250   60.6310 C   0  0  0  0  0  0  0  0  0  0  0  0
  128.3120  125.1070   60.2990 N   0  0  0  0  0  0  0  0  0  0  0  0
  128.5420  126.2390   61.0170 C   0  0  0  0  0  0  0  0  0  0  0  0
  127.7420  127.4400   60.6200 C   0  0  0  0  0  0  0  0  0  0  0  0
  127.4700  127.7170   59.2730 C   0  0  0  0  0  0  0  0  0  0  0  0
  126.7270  128.8360   58.9100 C   0  0  0  0  0  0  0  0  0  0  0  0
  126.2360  129.7070   59.8810 C   0  0  0  0  0  0  0  0  0  0  0  0
  125.5080  130.7900   59.4300 O   0  0  0  0  0  0  0  0  0  0  0  0
  124.2920  131.1340   60.0870 C   0  0  0  0  0  0  0  0  0  0  0  0
  126.5000  129.4380   61.2320 C   0  0  0  0  0  0  0  0  0  0  0  0
  127.2440  128.3170   61.5910 C   0  0  0  0  0  0  0  0  0  0  0  0
  129.4760  126.2880   62.0560 C   0  0  0  0  0  0  0  0  0  0  0  0
  130.2120  125.1510   62.4060 C   0  0  0  0  0  0  0  0  0  0  0  0
  131.1880  125.2320   63.5180 C   0  0  0  0  0  0  0  0  0  0  0  0
  132.5350  124.9450   63.2910 C   0  0  0  0  0  0  0  0  0  0  0  0
  133.4510  125.0120   64.3370 C   0  0  0  0  0  0  0  0  0  0  0  0
  133.0370  125.3700   65.6200 C   0  0  0  0  0  0  0  0  0  0  0  0
  134.0140  125.4100   66.5960 O   0  0  0  0  0  0  0  0  0  0  0  0
  135.3620  125.1260   66.2400 C   0  0  0  0  0  0  0  0  0  0  0  0
  131.6810  125.6630   65.8450 C   0  0  0  0  0  0  0  0  0  0  0  0
  130.7660  125.5940   64.7980 C   0  0  0  0  0  0  0  0  0  0  0  0
  129.9860  123.9570   61.6720 C   0  0  0  0  0  0  0  0  0  0  0  0
  130.5520  122.6390   61.7540 C   0  0  0  0  0  0  0  0  0  0  0  0
  131.5170  122.3050   62.6710 N   0  0  0  0  0  0  0  0  0  0  0  0
  132.7764  120.6887   61.4257 H   0  0  0  0  0  0  0  0  0  0  0  0
  133.5783  120.0565   59.9479 H   0  0  0  0  0  0  0  0  0  0  0  0
  132.8667  121.7058   59.9479 H   0  0  0  0  0  0  0  0  0  0  0  0
  127.8490  127.0407   58.4926 H   0  0  0  0  0  0  0  0  0  0  0  0
  126.5253  129.0350   57.8471 H   0  0  0  0  0  0  0  0  0  0  0  0
  124.4393  131.0923   61.1763 H   0  0  0  0  0  0  0  0  0  0  0  0
  123.9933  132.1519   59.7961 H   0  0  0  0  0  0  0  0  0  0  0  0
  123.5043  130.4234   59.7961 H   0  0  0  0  0  0  0  0  0  0  0  0
  126.1181  130.1148   62.0105 H   0  0  0  0  0  0  0  0  0  0  0  0
  127.4436  128.1174   62.6542 H   0  0  0  0  0  0  0  0  0  0  0  0
  129.6336  127.2291   62.6033 H   0  0  0  0  0  0  0  0  0  0  0  0
  132.8737  124.6651   62.2826 H   0  0  0  0  0  0  0  0  0  0  0  0
  134.5101  124.7807   64.1503 H   0  0  0  0  0  0  0  0  0  0  0  0
  135.9633  124.9993   67.1524 H   0  0  0  0  0  0  0  0  0  0  0  0
  135.3973  124.2007   65.6462 H   0  0  0  0  0  0  0  0  0  0  0  0
  135.7676  125.9584   65.6462 H   0  0  0  0  0  0  0  0  0  0  0  0
  131.3415  125.9478   66.8518 H   0  0  0  0  0  0  0  0  0  0  0  0
  129.7063  125.8257   64.9804 H   0  0  0  0  0  0  0  0  0  0  0  0
  132.3650  121.8300   62.3950 H   0  0  0  0  0  0  0  0  0  0  0  0
  131.4170  122.5260   63.6510 H   0  0  0  0  0  0  0  0  0  0  0  0
  1  2  1  0
  2  3  1  0
  3  4  2  0
  3  5  1  0
  5  6  1  0
  6  7  1  0
  7  8  2  0
  8  9  1  0
  9 10  1  0
 10 11  2  0
 11 12  1  0
 12 13  2  0
 13 14  1  0
 14 15  1  0
 13 16  1  0
 16 17  2  0
  9 18  2  0
 18 19  1  0
 19 20  1  0
 20 21  2  0
 21 22  1  0
 22 23  2  0
 23 24  1  0
 24 25  1  0
 23 26  1  0
 26 27  2  0
 19 28  2  0
 28 29  1  0
 29 30  1  0
 29  5  2  0
 28  7  1  0
 17 10  1  0
 27 20  1  0
  1 31  1  0
  1 32  1  0
  1 33  1  0
 11 34  1  0
 12 35  1  0
 15 36  1  0
 15 37  1  0
 15 38  1  0
 16 39  1  0
 17 40  1  0
 18 41  1  0
 21 42  1  0
 22 43  1  0
 25 44  1  0
 25 45  1  0
 25 46  1  0
 26 47  1  0
 27 48  1  0
 30 49  1  0
 30 50  1  0
M  END
>  <Binding energies>  (1) 
[-4.78]

>  <Ligand effiencies>  (1) 
[-0.149375]

>  <Interactions>  (1) 
["V-A:HIS:456:CE1:4068, V-B:TYR:539:CE2:9848, V-A:ARG:545:CD:4921, V-A:GLY:453:CA:4042, V-A:ILE:369:CG2:3235, V-A:ARG:545:CG:4920, V-B:GLU:543:CD:9880, V-A:ARG:545:CZ:4924, V-A:GLY:454:CA:4047, V-B:ASP:366:CG:8185, V-B:TYR:539:CD2:9846, V-B:PRO:540:CA:9855, V-B:ALA:541:CB:9864, V-A:LEU:475:CD2:4257, V-B:TYR:539:C:9839, H-A:TYR:484:OH:4346, H-A:ARG:545:NE:4922, V-A:TRP:381:CH2:3370, H-A:HIS:456:ND1:4065, V-A:ARG:545:CB:4919, V-A:GLY:453:C:4040, V-A:GLY:454:C:4045, V-A:ILE:455:C:4050, V-A:ILE:455:CA:4052, V-A:VAL:452:CG2:4038"]

$$$$
9a_Ghoteimi_2023
     RDKit          3D

 85 91  0  0  0  0  0  0  0  0999 V2000
  125.4200  132.8920   59.7710 C   0  0  0  0  0  0  0  0  0  0  0  0
  124.1550  133.5970   59.2700 C   0  0  0  0  0  0  0  0  0  0  0  0
  124.1550  134.9470   59.7200 O   0  0  0  0  0  0  0  0  0  0  0  0
  124.1570  135.2440   61.0450 C   0  0  0  0  0  0  0  0  0  0  0  0
  123.7440  136.3140   61.5030 O   0  0  0  0  0  0  0  0  0  0  0  0
  124.7190  134.1440   61.8990 C   0  0  0  0  0  0  0  0  0  0  0  0
  126.1040  134.0730   62.1020 C   0  0  0  0  0  0  0  0  0  0  0  0
  126.6550  133.0650   62.8870 C   0  0  0  0  0  0  0  0  0  0  0  0
  125.8360  132.1080   63.4870 C   0  0  0  0  0  0  0  0  0  0  0  0
  126.5030  131.1370   64.2580 N   0  0  0  0  0  0  0  0  0  0  0  0
  126.3740  129.7860   64.2720 C   0  0  0  0  0  0  0  0  0  0  0  0
  125.5950  129.1580   63.5560 O   0  0  0  0  0  0  0  0  0  0  0  0
  127.2490  129.0840   65.2160 C   0  0  0  0  0  0  0  0  0  0  0  0
  127.0890  129.3580   66.9520 S   0  0  0  0  0  0  0  0  0  0  0  0
  128.3770  128.2260   67.2940 C   0  0  0  0  0  0  0  0  0  0  0  0
  128.7520  127.9530   68.5430 N   0  0  0  0  0  0  0  0  0  0  0  0
  129.7550  127.0490   68.7020 C   0  0  0  0  0  0  0  0  0  0  0  0
  130.1520  126.7500   70.1110 C   0  0  0  0  0  0  0  0  0  0  0  0
  131.5030  126.7060   70.4760 C   0  0  0  0  0  0  0  0  0  0  0  0
  131.8820  126.4290   71.7860 C   0  0  0  0  0  0  0  0  0  0  0  0
  130.9230  126.1990   72.7860 C   0  0  0  0  0  0  0  0  0  0  0  0
  131.2890  125.9000   74.1020 N   0  0  0  0  0  0  0  0  0  0  0  0
  132.3490  124.9170   74.4050 C   0  0  0  0  0  0  0  0  0  0  0  0
  132.3660  124.4530   75.8770 C   0  0  0  0  0  0  0  0  0  0  0  0
  132.4500  125.5750   76.7400 O   0  0  0  0  0  0  0  0  0  0  0  0
  131.3430  126.4460   76.5700 C   0  0  0  0  0  0  0  0  0  0  0  0
  131.3030  126.9710   75.1210 C   0  0  0  0  0  0  0  0  0  0  0  0
  129.5710  126.2290   72.4120 C   0  0  0  0  0  0  0  0  0  0  0  0
  129.1940  126.5030   71.1010 C   0  0  0  0  0  0  0  0  0  0  0  0
  130.3950  126.4460   67.6160 C   0  0  0  0  0  0  0  0  0  0  0  0
  130.0170  126.7460   66.3030 C   0  0  0  0  0  0  0  0  0  0  0  0
  130.7540  126.1040   65.1840 C   0  0  0  0  0  0  0  0  0  0  0  0
  132.0520  125.6210   65.3720 C   0  0  0  0  0  0  0  0  0  0  0  0
  132.7350  125.0080   64.3270 C   0  0  0  0  0  0  0  0  0  0  0  0
  132.1330  124.8440   63.0690 C   0  0  0  0  0  0  0  0  0  0  0  0
  132.8040  124.2420   62.0010 N   0  0  0  0  0  0  0  0  0  0  0  0
  132.2560  123.0030   61.4150 C   0  0  0  0  0  0  0  0  0  0  0  0
  132.8580  122.6620   60.0350 C   0  0  0  0  0  0  0  0  0  0  0  0
  134.2730  122.5990   60.1240 O   0  0  0  0  0  0  0  0  0  0  0  0
  134.8280  123.8330   60.5500 C   0  0  0  0  0  0  0  0  0  0  0  0
  134.2780  124.2050   61.9440 C   0  0  0  0  0  0  0  0  0  0  0  0
  130.8290  125.3300   62.8930 C   0  0  0  0  0  0  0  0  0  0  0  0
  130.1470  125.9480   63.9370 C   0  0  0  0  0  0  0  0  0  0  0  0
  128.9430  127.6630   66.1140 C   0  0  0  0  0  0  0  0  0  0  0  0
  128.2630  128.1530   64.9410 C   0  0  0  0  0  0  0  0  0  0  0  0
  128.5770  127.7300   63.6750 N   0  0  0  0  0  0  0  0  0  0  0  0
  124.4470  132.1730   63.2930 C   0  0  0  0  0  0  0  0  0  0  0  0
  123.8980  133.1820   62.5060 C   0  0  0  0  0  0  0  0  0  0  0  0
  125.4265  132.8884   60.8710 H   0  0  0  0  0  0  0  0  0  0  0  0
  125.4335  131.8562   59.4008 H   0  0  0  0  0  0  0  0  0  0  0  0
  126.3080  133.4253   59.4008 H   0  0  0  0  0  0  0  0  0  0  0  0
  124.1351  133.5770   58.1704 H   0  0  0  0  0  0  0  0  0  0  0  0
  123.2670  133.0796   59.6621 H   0  0  0  0  0  0  0  0  0  0  0  0
  126.7618  134.8215   61.6361 H   0  0  0  0  0  0  0  0  0  0  0  0
  127.7441  133.0223   63.0356 H   0  0  0  0  0  0  0  0  0  0  0  0
  127.1860  131.5170   64.8970 H   0  0  0  0  0  0  0  0  0  0  0  0
  132.2761  126.8931   69.7162 H   0  0  0  0  0  0  0  0  0  0  0  0
  132.9509  126.3895   72.0427 H   0  0  0  0  0  0  0  0  0  0  0  0
  132.1974  124.0352   73.7651 H   0  0  0  0  0  0  0  0  0  0  0  0
  133.3113  125.4147   74.2149 H   0  0  0  0  0  0  0  0  0  0  0  0
  131.4428  123.8956   76.0936 H   0  0  0  0  0  0  0  0  0  0  0  0
  133.2405  123.8062   76.0408 H   0  0  0  0  0  0  0  0  0  0  0  0
  130.4130  125.8994   76.7852 H   0  0  0  0  0  0  0  0  0  0  0  0
  131.4437  127.2969   77.2598 H   0  0  0  0  0  0  0  0  0  0  0  0
  130.3956  127.5803   74.9971 H   0  0  0  0  0  0  0  0  0  0  0  0
  132.2233  127.5527   74.9639 H   0  0  0  0  0  0  0  0  0  0  0  0
  128.7963  126.0326   73.1678 H   0  0  0  0  0  0  0  0  0  0  0  0
  128.1260  126.5259   70.8384 H   0  0  0  0  0  0  0  0  0  0  0  0
  131.2068  125.7259   67.7960 H   0  0  0  0  0  0  0  0  0  0  0  0
  132.5369  125.7265   66.3537 H   0  0  0  0  0  0  0  0  0  0  0  0
  133.7613  124.6465   64.4882 H   0  0  0  0  0  0  0  0  0  0  0  0
  132.4643  122.1698   62.1023 H   0  0  0  0  0  0  0  0  0  0  0  0
  131.1771  123.1607   61.2698 H   0  0  0  0  0  0  0  0  0  0  0  0
  132.4706  121.6888   59.6992 H   0  0  0  0  0  0  0  0  0  0  0  0
  132.5763  123.4447   59.3152 H   0  0  0  0  0  0  0  0  0  0  0  0
  135.9229  123.7413   60.6028 H   0  0  0  0  0  0  0  0  0  0  0  0
  134.5542  124.6197   59.8316 H   0  0  0  0  0  0  0  0  0  0  0  0
  134.6366  123.4608   62.6704 H   0  0  0  0  0  0  0  0  0  0  0  0
  134.6377  125.2184   62.1755 H   0  0  0  0  0  0  0  0  0  0  0  0
  130.3379  125.2210   61.9148 H   0  0  0  0  0  0  0  0  0  0  0  0
  129.1226  126.3160   63.7782 H   0  0  0  0  0  0  0  0  0  0  0  0
  129.4040  128.0550   63.1940 H   0  0  0  0  0  0  0  0  0  0  0  0
  127.9880  127.0760   63.1780 H   0  0  0  0  0  0  0  0  0  0  0  0
  123.7913  131.4255   63.7635 H   0  0  0  0  0  0  0  0  0  0  0  0
  122.8088  133.2252   62.3587 H   0  0  0  0  0  0  0  0  0  0  0  0
  1  2  1  0
  2  3  1  0
  3  4  1  0
  4  5  2  0
  4  6  1  0
  6  7  2  0
  7  8  1  0
  8  9  2  0
  9 10  1  0
 10 11  1  0
 11 12  2  0
 11 13  1  0
 13 14  1  0
 14 15  1  0
 15 16  2  0
 16 17  1  0
 17 18  1  0
 18 19  2  0
 19 20  1  0
 20 21  2  0
 21 22  1  0
 22 23  1  0
 23 24  1  0
 24 25  1  0
 25 26  1  0
 26 27  1  0
 21 28  1  0
 28 29  2  0
 17 30  2  0
 30 31  1  0
 31 32  1  0
 32 33  2  0
 33 34  1  0
 34 35  2  0
 35 36  1  0
 36 37  1  0
 37 38  1  0
 38 39  1  0
 39 40  1  0
 40 41  1  0
 35 42  1  0
 42 43  2  0
 31 44  2  0
 44 45  1  0
 45 46  1  0
  9 47  1  0
 47 48  2  0
 48  6  1  0
 45 13  2  0
 44 15  1  0
 29 18  1  0
 43 32  1  0
 27 22  1  0
 41 36  1  0
  1 49  1  0
  1 50  1  0
  1 51  1  0
  2 52  1  0
  2 53  1  0
  7 54  1  0
  8 55  1  0
 10 56  1  0
 19 57  1  0
 20 58  1  0
 23 59  1  0
 23 60  1  0
 24 61  1  0
 24 62  1  0
 26 63  1  0
 26 64  1  0
 27 65  1  0
 27 66  1  0
 28 67  1  0
 29 68  1  0
 30 69  1  0
 33 70  1  0
 34 71  1  0
 37 72  1  0
 37 73  1  0
 38 74  1  0
 38 75  1  0
 40 76  1  0
 40 77  1  0
 41 78  1  0
 41 79  1  0
 42 80  1  0
 43 81  1  0
 46 82  1  0
 46 83  1  0
 47 84  1  0
 48 85  1  0
M  END
>  <Binding energies>  (1) 
[8.99]

>  <Ligand effiencies>  (1) 
[0.17627450980392156]

>  <Interactions>  (1) 
["V-A:GLU:543:CD:4906, V-A:ASP:366:CG:3211, V-B:GLU:543:CG:9879, V-A:HIS:456:CE1:4068, V-A:ILE:369:CB:3234, V-B:TYR:539:CE2:9848, V-A:ARG:545:CD:4921, V-A:GLY:453:CA:4042, V-A:ILE:369:CD1:3237, V-A:ILE:369:CG2:3235, V-A:ARG:545:CG:4920, V-B:GLU:543:CD:9880, V-B:GLU:543:CB:9878, V-A:ARG:545:CZ:4924, V-A:HIS:456:CD2:4066, V-B:LYS:547:CE:9922, V-B:GLU:543:C:9874, V-B:GLY:544:CA:9886, V-A:TYR:539:CE2:4874, H-B:ARG:545:NH2:9900, V-B:GLY:454:CA:9021, V-A:TYR:539:CD2:4872, V-B:LEU:475:CD2:9231, V-A:ALA:541:CB:4890, H-B:TYR:484:OH:9320, H-B:GLU:543:OE1:9881, H-A:GLU:543:OE1:4907, H-A:GLU:543:OE2:4908, V-A:GLU:543:CB:4904, H-B:GLU:543:OE2:9882, V-B:ILE:369:CD1:8211, V-B:ILE:369:CG2:8209, V-A:TYR:539:CZ:4875, V-B:HIS:456:CE1:9042, H-B:ARG:545:NE:9896, V-A:GLU:543:CG:4905, V-B:ILE:369:CB:8208, V-B:TRP:381:CZ2:8342, V-B:TRP:381:CH2:8344, V-A:GLY:544:C:4910, V-A:LYS:471:CD:4217, V-A:HIS:456:CB:4063, V-A:LYS:547:CE:4948, V-A:HIS:456:CG:4064, V-A:VAL:458:CG2:4085, V-A:LYS:471:CE:4218, V-A:LYS:547:CD:4947, V-A:GLY:453:C:4040, V-A:ILE:369:CG1:3236, V-A:ARG:545:CA:4917"]

$$$$
9b_Ghoteimi_2023
     RDKit          3D

 72 78  0  0  0  0  0  0  0  0999 V2000
  128.4710  128.1940   63.3880 N   0  0  0  0  0  0  0  0  0  0  0  0
  128.0440  128.5080   64.6530 C   0  0  0  0  0  0  0  0  0  0  0  0
  127.0340  129.4450   64.9190 C   0  0  0  0  0  0  0  0  0  0  0  0
  126.2420  130.2280   63.9680 C   0  0  0  0  0  0  0  0  0  0  0  0
  125.0910  129.8910   63.6800 O   0  0  0  0  0  0  0  0  0  0  0  0
  126.8640  131.3150   63.4460 N   0  0  0  0  0  0  0  0  0  0  0  0
  126.3570  132.2190   62.5210 C   0  0  0  0  0  0  0  0  0  0  0  0
  124.9970  132.4960   62.3950 C   0  0  0  0  0  0  0  0  0  0  0  0
  124.9140  133.4300   61.3880 C   0  0  0  0  0  0  0  0  0  0  0  0
  126.1600  133.7000   60.9320 O   0  0  0  0  0  0  0  0  0  0  0  0
  127.0660  132.9270   61.6580 N   0  0  0  0  0  0  0  0  0  0  0  0
  126.7670  129.6210   66.6530 S   0  0  0  0  0  0  0  0  0  0  0  0
  128.0190  128.4550   67.0100 C   0  0  0  0  0  0  0  0  0  0  0  0
  128.3450  128.1430   68.2630 N   0  0  0  0  0  0  0  0  0  0  0  0
  129.3450  127.2370   68.4320 C   0  0  0  0  0  0  0  0  0  0  0  0
  129.7050  126.9200   69.8480 C   0  0  0  0  0  0  0  0  0  0  0  0
  131.0410  126.9040   70.2680 C   0  0  0  0  0  0  0  0  0  0  0  0
  131.3720  126.5940   71.5830 C   0  0  0  0  0  0  0  0  0  0  0  0
  130.3800  126.2750   72.5240 C   0  0  0  0  0  0  0  0  0  0  0  0
  130.6970  125.9640   73.8510 N   0  0  0  0  0  0  0  0  0  0  0  0
  131.1600  127.0010   74.7950 C   0  0  0  0  0  0  0  0  0  0  0  0
  131.1280  126.5590   76.2720 C   0  0  0  0  0  0  0  0  0  0  0  0
  131.8650  125.3590   76.4360 O   0  0  0  0  0  0  0  0  0  0  0  0
  131.3220  124.3050   75.6590 C   0  0  0  0  0  0  0  0  0  0  0  0
  131.3550  124.6770   74.1610 C   0  0  0  0  0  0  0  0  0  0  0  0
  129.0430  126.3120   72.1020 C   0  0  0  0  0  0  0  0  0  0  0  0
  128.7120  126.6270   70.7880 C   0  0  0  0  0  0  0  0  0  0  0  0
  129.9930  126.6300   67.3540 C   0  0  0  0  0  0  0  0  0  0  0  0
  129.6390  126.9410   66.0360 C   0  0  0  0  0  0  0  0  0  0  0  0
  130.3380  126.2460   64.9250 C   0  0  0  0  0  0  0  0  0  0  0  0
  131.5140  125.5350   65.1680 C   0  0  0  0  0  0  0  0  0  0  0  0
  132.1600  124.8660   64.1330 C   0  0  0  0  0  0  0  0  0  0  0  0
  131.6490  124.8910   62.8250 C   0  0  0  0  0  0  0  0  0  0  0  0
  132.2740  124.2140   61.7750 N   0  0  0  0  0  0  0  0  0  0  0  0
  132.3610  122.7420   61.8150 C   0  0  0  0  0  0  0  0  0  0  0  0
  133.4000  122.1670   60.8280 C   0  0  0  0  0  0  0  0  0  0  0  0
  133.1190  122.6180   59.5110 O   0  0  0  0  0  0  0  0  0  0  0  0
  133.1620  124.0340   59.4200 C   0  0  0  0  0  0  0  0  0  0  0  0
  132.1210  124.6570   60.3740 C   0  0  0  0  0  0  0  0  0  0  0  0
  130.4570  125.5940   62.5980 C   0  0  0  0  0  0  0  0  0  0  0  0
  129.8100  126.2620   63.6330 C   0  0  0  0  0  0  0  0  0  0  0  0
  128.6180  127.9120   65.8340 C   0  0  0  0  0  0  0  0  0  0  0  0
  129.2620  128.6560   62.9620 H   0  0  0  0  0  0  0  0  0  0  0  0
  128.0060  127.4860   62.8360 H   0  0  0  0  0  0  0  0  0  0  0  0
  127.8050  131.4990   63.7610 H   0  0  0  0  0  0  0  0  0  0  0  0
  124.1692  132.0620   62.9750 H   0  0  0  0  0  0  0  0  0  0  0  0
  123.9848  133.8843   61.0136 H   0  0  0  0  0  0  0  0  0  0  0  0
  131.8390  127.1397   69.5485 H   0  0  0  0  0  0  0  0  0  0  0  0
  132.4281  126.5989   71.8907 H   0  0  0  0  0  0  0  0  0  0  0  0
  132.1950  127.2685   74.5357 H   0  0  0  0  0  0  0  0  0  0  0  0
  130.4684  127.8511   74.7006 H   0  0  0  0  0  0  0  0  0  0  0  0
  131.5719  127.3473   76.8977 H   0  0  0  0  0  0  0  0  0  0  0  0
  130.0846  126.3856   76.5741 H   0  0  0  0  0  0  0  0  0  0  0  0
  131.9142  123.3921   75.8201 H   0  0  0  0  0  0  0  0  0  0  0  0
  130.2791  124.1340   75.9640 H   0  0  0  0  0  0  0  0  0  0  0  0
  132.4060  124.7392   73.8422 H   0  0  0  0  0  0  0  0  0  0  0  0
  130.7978  123.8950   73.6244 H   0  0  0  0  0  0  0  0  0  0  0  0
  128.2424  126.0881   72.8223 H   0  0  0  0  0  0  0  0  0  0  0  0
  127.6549  126.6458   70.4844 H   0  0  0  0  0  0  0  0  0  0  0  0
  130.7920  125.8980   67.5432 H   0  0  0  0  0  0  0  0  0  0  0  0
  131.9331  125.5032   66.1846 H   0  0  0  0  0  0  0  0  0  0  0  0
  133.0851  124.3090   64.3424 H   0  0  0  0  0  0  0  0  0  0  0  0
  132.6400  122.4358   62.8340 H   0  0  0  0  0  0  0  0  0  0  0  0
  131.3771  122.3483   61.5201 H   0  0  0  0  0  0  0  0  0  0  0  0
  134.4058  122.5023   61.1212 H   0  0  0  0  0  0  0  0  0  0  0  0
  133.3519  121.0683   60.8518 H   0  0  0  0  0  0  0  0  0  0  0  0
  134.1665  124.3863   59.6970 H   0  0  0  0  0  0  0  0  0  0  0  0
  132.9317  124.3363   58.3877 H   0  0  0  0  0  0  0  0  0  0  0  0
  132.2272  125.7513   60.3402 H   0  0  0  0  0  0  0  0  0  0  0  0
  131.1284  124.3264   60.0341 H   0  0  0  0  0  0  0  0  0  0  0  0
  130.0268  125.6177   61.5859 H   0  0  0  0  0  0  0  0  0  0  0  0
  128.8757  126.8066   63.4316 H   0  0  0  0  0  0  0  0  0  0  0  0
  1  2  1  0
  2  3  2  0
  3  4  1  0
  4  5  2  0
  4  6  1  0
  6  7  1  0
  7  8  1  0
  8  9  2  0
  9 10  1  0
 10 11  1  0
  3 12  1  0
 12 13  1  0
 13 14  2  0
 14 15  1  0
 15 16  1  0
 16 17  2  0
 17 18  1  0
 18 19  2  0
 19 20  1  0
 20 21  1  0
 21 22  1  0
 22 23  1  0
 23 24  1  0
 24 25  1  0
 19 26  1  0
 26 27  2  0
 15 28  2  0
 28 29  1  0
 29 30  1  0
 30 31  2  0
 31 32  1  0
 32 33  2  0
 33 34  1  0
 34 35  1  0
 35 36  1  0
 36 37  1  0
 37 38  1  0
 38 39  1  0
 33 40  1  0
 40 41  2  0
 29 42  2  0
 42  2  1  0
 11  7  2  0
 42 13  1  0
 27 16  1  0
 41 30  1  0
 25 20  1  0
 39 34  1  0
  1 43  1  0
  1 44  1  0
  6 45  1  0
  8 46  1  0
  9 47  1  0
 17 48  1  0
 18 49  1  0
 21 50  1  0
 21 51  1  0
 22 52  1  0
 22 53  1  0
 24 54  1  0
 24 55  1  0
 25 56  1  0
 25 57  1  0
 26 58  1  0
 27 59  1  0
 28 60  1  0
 31 61  1  0
 32 62  1  0
 35 63  1  0
 35 64  1  0
 36 65  1  0
 36 66  1  0
 38 67  1  0
 38 68  1  0
 39 69  1  0
 39 70  1  0
 40 71  1  0
 41 72  1  0
M  END
>  <Binding energies>  (1) 
[-1.74]

>  <Ligand effiencies>  (1) 
[-0.03866666666666667]

>  <Interactions>  (1) 
["V-A:GLU:543:CD:4906, V-A:ASP:366:CG:3211, V-B:GLU:543:CG:9879, V-A:HIS:456:CE1:4068, V-A:ILE:369:CD1:3237, V-A:ILE:369:CG2:3235, V-B:GLU:543:CD:9880, V-B:GLU:543:CB:9878, V-A:ARG:545:CZ:4924, V-A:HIS:456:CD2:4066, V-B:LYS:547:CE:9922, V-B:GLU:543:C:9874, V-B:GLY:544:CA:9886, H-B:ARG:545:NH2:9900, V-A:LEU:475:CD2:4257, V-B:LEU:475:CD2:9231, H-B:GLU:543:OE1:9881, H-A:GLU:543:OE1:4907, H-A:GLU:543:OE2:4908, V-A:GLU:543:CB:4904, H-B:GLU:543:OE2:9882, V-B:HIS:456:CE1:9042, V-B:TYR:484:CZ:9319, H-B:ARG:545:NE:9896, V-A:GLU:543:CG:4905, H-B:LYS:547:NZ:9923, V-A:GLY:544:C:4910, V-B:GLY:544:C:9884, V-A:HIS:456:CB:4063, V-A:LYS:547:CE:4948, V-A:HIS:456:CG:4064, V-A:LYS:471:CE:4218, V-A:LYS:547:CD:4947, V-A:ARG:545:CA:4917"]

$$$$
9c_Ghoteimi_2023
     RDKit          3D

 72 78  0  0  0  0  0  0  0  0999 V2000
  128.4070  128.1790   63.3380 N   0  0  0  0  0  0  0  0  0  0  0  0
  128.0090  128.5070   64.6090 C   0  0  0  0  0  0  0  0  0  0  0  0
  127.0200  129.4640   64.8870 C   0  0  0  0  0  0  0  0  0  0  0  0
  126.2290  130.2600   63.9450 C   0  0  0  0  0  0  0  0  0  0  0  0
  124.9970  130.2660   64.0030 O   0  0  0  0  0  0  0  0  0  0  0  0
  126.9440  130.9600   63.0300 N   0  0  0  0  0  0  0  0  0  0  0  0
  126.4440  131.7740   62.0240 C   0  0  0  0  0  0  0  0  0  0  0  0
  126.8930  132.9470   61.6340 N   0  0  0  0  0  0  0  0  0  0  0  0
  126.1680  133.4410   60.6500 C   0  0  0  0  0  0  0  0  0  0  0  0
  125.0990  132.6600   60.2200 C   0  0  0  0  0  0  0  0  0  0  0  0
  125.0510  131.2010   61.1630 S   0  0  0  0  0  0  0  0  0  0  0  0
  126.7850  129.6510   66.6250 S   0  0  0  0  0  0  0  0  0  0  0  0
  128.0210  128.4650   66.9660 C   0  0  0  0  0  0  0  0  0  0  0  0
  128.3610  128.1500   68.2150 N   0  0  0  0  0  0  0  0  0  0  0  0
  129.3460  127.2280   68.3720 C   0  0  0  0  0  0  0  0  0  0  0  0
  129.7230  126.9110   69.7830 C   0  0  0  0  0  0  0  0  0  0  0  0
  131.0640  126.8670   70.1840 C   0  0  0  0  0  0  0  0  0  0  0  0
  131.4100  126.5620   71.4960 C   0  0  0  0  0  0  0  0  0  0  0  0
  130.4260  126.2750   72.4560 C   0  0  0  0  0  0  0  0  0  0  0  0
  130.7570  125.9730   73.7820 N   0  0  0  0  0  0  0  0  0  0  0  0
  131.1950  127.0240   74.7240 C   0  0  0  0  0  0  0  0  0  0  0  0
  131.1770  126.5830   76.2030 C   0  0  0  0  0  0  0  0  0  0  0  0
  131.9490  125.4030   76.3640 O   0  0  0  0  0  0  0  0  0  0  0  0
  131.4320  124.3340   75.5890 C   0  0  0  0  0  0  0  0  0  0  0  0
  131.4510  124.7060   74.0910 C   0  0  0  0  0  0  0  0  0  0  0  0
  129.0840  126.3390   72.0540 C   0  0  0  0  0  0  0  0  0  0  0  0
  128.7390  126.6480   70.7420 C   0  0  0  0  0  0  0  0  0  0  0  0
  129.9660  126.6050   67.2860 C   0  0  0  0  0  0  0  0  0  0  0  0
  129.5960  126.9160   65.9730 C   0  0  0  0  0  0  0  0  0  0  0  0
  130.2620  126.2030   64.8540 C   0  0  0  0  0  0  0  0  0  0  0  0
  131.3850  125.4100   65.0930 C   0  0  0  0  0  0  0  0  0  0  0  0
  132.0020  124.7270   64.0480 C   0  0  0  0  0  0  0  0  0  0  0  0
  131.5130  124.8200   62.7370 C   0  0  0  0  0  0  0  0  0  0  0  0
  132.1090  124.1340   61.6750 N   0  0  0  0  0  0  0  0  0  0  0  0
  132.1070  122.6580   61.6790 C   0  0  0  0  0  0  0  0  0  0  0  0
  133.1150  122.0440   60.6840 C   0  0  0  0  0  0  0  0  0  0  0  0
  132.8720  122.5420   59.3770 O   0  0  0  0  0  0  0  0  0  0  0  0
  133.0040  123.9540   59.3210 C   0  0  0  0  0  0  0  0  0  0  0  0
  131.9960  124.6180   60.2850 C   0  0  0  0  0  0  0  0  0  0  0  0
  130.3710  125.6040   62.5120 C   0  0  0  0  0  0  0  0  0  0  0  0
  129.7530  126.2870   63.5570 C   0  0  0  0  0  0  0  0  0  0  0  0
  128.5900  127.9060   65.7830 C   0  0  0  0  0  0  0  0  0  0  0  0
  129.1410  128.6860   62.8620 H   0  0  0  0  0  0  0  0  0  0  0  0
  127.9780  127.4180   62.8320 H   0  0  0  0  0  0  0  0  0  0  0  0
  127.9500  130.8910   63.0770 H   0  0  0  0  0  0  0  0  0  0  0  0
  126.3952  134.4160   60.1942 H   0  0  0  0  0  0  0  0  0  0  0  0
  124.3983  132.9236   59.4141 H   0  0  0  0  0  0  0  0  0  0  0  0
  131.8559  127.0769   69.4499 H   0  0  0  0  0  0  0  0  0  0  0  0
  132.4709  126.5453   71.7863 H   0  0  0  0  0  0  0  0  0  0  0  0
  132.2222  127.3178   74.4624 H   0  0  0  0  0  0  0  0  0  0  0  0
  130.4816  127.8560   74.6295 H   0  0  0  0  0  0  0  0  0  0  0  0
  131.5998  127.3837   76.8276 H   0  0  0  0  0  0  0  0  0  0  0  0
  130.1396  126.3819   76.5086 H   0  0  0  0  0  0  0  0  0  0  0  0
  132.0488  123.4374   75.7489 H   0  0  0  0  0  0  0  0  0  0  0  0
  130.3949  124.1352   75.8971 H   0  0  0  0  0  0  0  0  0  0  0  0
  132.4991  124.7974   73.7697 H   0  0  0  0  0  0  0  0  0  0  0  0
  130.9145  123.9084   73.5562 H   0  0  0  0  0  0  0  0  0  0  0  0
  128.2899  126.1414   72.7891 H   0  0  0  0  0  0  0  0  0  0  0  0
  127.6778  126.6860   70.4548 H   0  0  0  0  0  0  0  0  0  0  0  0
  130.7554  125.8602   67.4656 H   0  0  0  0  0  0  0  0  0  0  0  0
  131.7856  125.3238   66.1138 H   0  0  0  0  0  0  0  0  0  0  0  0
  132.8859  124.1054   64.2539 H   0  0  0  0  0  0  0  0  0  0  0  0
  132.3604  122.3111   62.6917 H   0  0  0  0  0  0  0  0  0  0  0  0
  131.1031  122.3324   61.3688 H   0  0  0  0  0  0  0  0  0  0  0  0
  134.1374  122.3096   60.9907 H   0  0  0  0  0  0  0  0  0  0  0  0
  132.9986  120.9502   60.6810 H   0  0  0  0  0  0  0  0  0  0  0  0
  134.0265  124.2360   59.6124 H   0  0  0  0  0  0  0  0  0  0  0  0
  132.8006  124.2951   58.2952 H   0  0  0  0  0  0  0  0  0  0  0  0
  132.1707  125.7040   60.2785 H   0  0  0  0  0  0  0  0  0  0  0  0
  130.9877  124.3573   59.9310 H   0  0  0  0  0  0  0  0  0  0  0  0
  129.9578  125.6803   61.4954 H   0  0  0  0  0  0  0  0  0  0  0  0
  128.8587  126.8961   63.3589 H   0  0  0  0  0  0  0  0  0  0  0  0
  1  2  1  0
  2  3  2  0
  3  4  1  0
  4  5  2  0
  4  6  1  0
  6  7  1  0
  7  8  2  0
  8  9  1  0
  9 10  2  0
 10 11  1  0
  3 12  1  0
 12 13  1  0
 13 14  2  0
 14 15  1  0
 15 16  1  0
 16 17  2  0
 17 18  1  0
 18 19  2  0
 19 20  1  0
 20 21  1  0
 21 22  1  0
 22 23  1  0
 23 24  1  0
 24 25  1  0
 19 26  1  0
 26 27  2  0
 15 28  2  0
 28 29  1  0
 29 30  1  0
 30 31  2  0
 31 32  1  0
 32 33  2  0
 33 34  1  0
 34 35  1  0
 35 36  1  0
 36 37  1  0
 37 38  1  0
 38 39  1  0
 33 40  1  0
 40 41  2  0
 29 42  2  0
 42  2  1  0
 11  7  1  0
 42 13  1  0
 27 16  1  0
 41 30  1  0
 25 20  1  0
 39 34  1  0
  1 43  1  0
  1 44  1  0
  6 45  1  0
  9 46  1  0
 10 47  1  0
 17 48  1  0
 18 49  1  0
 21 50  1  0
 21 51  1  0
 22 52  1  0
 22 53  1  0
 24 54  1  0
 24 55  1  0
 25 56  1  0
 25 57  1  0
 26 58  1  0
 27 59  1  0
 28 60  1  0
 31 61  1  0
 32 62  1  0
 35 63  1  0
 35 64  1  0
 36 65  1  0
 36 66  1  0
 38 67  1  0
 38 68  1  0
 39 69  1  0
 39 70  1  0
 40 71  1  0
 41 72  1  0
M  END
>  <Binding energies>  (1) 
[-1.68]

>  <Ligand effiencies>  (1) 
[-0.03733333333333333]

>  <Interactions>  (1) 
["V-A:GLU:543:CD:4906, V-A:ASP:366:CG:3211, V-B:GLU:543:CG:9879, V-A:HIS:456:CE1:4068, V-B:TYR:539:CE2:9848, V-A:ILE:369:CD1:3237, V-A:ILE:369:CG2:3235, V-B:GLU:543:CD:9880, V-B:GLU:543:CB:9878, V-A:HIS:456:CD2:4066, V-B:LYS:547:CE:9922, V-B:GLU:543:C:9874, V-B:GLY:544:CA:9886, V-A:TYR:539:CE2:4874, V-A:TYR:539:CD2:4872, V-A:LEU:475:CD2:4257, H-B:GLY:454:N:9022, H-B:TYR:484:OH:9320, H-B:GLU:543:OE1:9881, H-A:GLU:543:OE1:4907, H-A:GLU:543:OE2:4908, V-A:GLU:543:CB:4904, H-B:GLU:543:OE2:9882, V-B:HIS:456:CE1:9042, V-B:TYR:484:CZ:9319, V-A:GLU:543:CG:4905, H-B:LYS:547:NZ:9923, V-A:GLY:544:C:4910, V-B:GLY:544:C:9884, V-A:HIS:456:CB:4063, V-A:LYS:547:CE:4948, V-A:HIS:456:CG:4064, V-A:LYS:471:CE:4218, V-A:LYS:547:CD:4947, V-A:ARG:545:CA:4917"]

$$$$
9d_Ghoteimi_2023
     RDKit          3D

 68 73  0  0  0  0  0  0  0  0999 V2000
  123.9290  130.0710   63.1540 C   0  0  0  0  0  0  0  0  0  0  0  0
  124.8440  130.3610   64.2010 O   0  0  0  0  0  0  0  0  0  0  0  0
  126.1770  130.4550   63.9560 C   0  0  0  0  0  0  0  0  0  0  0  0
  126.6640  131.1290   63.0450 O   0  0  0  0  0  0  0  0  0  0  0  0
  126.9930  129.6550   64.8950 C   0  0  0  0  0  0  0  0  0  0  0  0
  126.9070  129.9770   66.6270 S   0  0  0  0  0  0  0  0  0  0  0  0
  128.0430  128.6920   66.9620 C   0  0  0  0  0  0  0  0  0  0  0  0
  128.3990  128.3830   68.2090 N   0  0  0  0  0  0  0  0  0  0  0  0
  129.2750  127.3560   68.3640 C   0  0  0  0  0  0  0  0  0  0  0  0
  129.6400  127.0110   69.7720 C   0  0  0  0  0  0  0  0  0  0  0  0
  130.9810  126.9830   70.1720 C   0  0  0  0  0  0  0  0  0  0  0  0
  131.3310  126.6610   71.4790 C   0  0  0  0  0  0  0  0  0  0  0  0
  130.3520  126.3660   72.4410 C   0  0  0  0  0  0  0  0  0  0  0  0
  130.6890  126.0230   73.7550 N   0  0  0  0  0  0  0  0  0  0  0  0
  131.4070  124.7690   74.0620 C   0  0  0  0  0  0  0  0  0  0  0  0
  131.3880  124.3880   75.5570 C   0  0  0  0  0  0  0  0  0  0  0  0
  131.8840  125.4620   76.3380 O   0  0  0  0  0  0  0  0  0  0  0  0
  131.0920  126.6280   76.1790 C   0  0  0  0  0  0  0  0  0  0  0  0
  131.1000  127.0800   74.7030 C   0  0  0  0  0  0  0  0  0  0  0  0
  129.0100  126.3800   72.0320 C   0  0  0  0  0  0  0  0  0  0  0  0
  128.6600  126.7000   70.7220 C   0  0  0  0  0  0  0  0  0  0  0  0
  129.8160  126.6660   67.2760 C   0  0  0  0  0  0  0  0  0  0  0  0
  129.4600  127.0000   65.9640 C   0  0  0  0  0  0  0  0  0  0  0  0
  130.0860  126.2520   64.8420 C   0  0  0  0  0  0  0  0  0  0  0  0
  129.8080  126.5910   63.5160 C   0  0  0  0  0  0  0  0  0  0  0  0
  130.4120  125.9000   62.4690 C   0  0  0  0  0  0  0  0  0  0  0  0
  131.3220  124.8610   62.7210 C   0  0  0  0  0  0  0  0  0  0  0  0
  131.9330  124.1470   61.6880 N   0  0  0  0  0  0  0  0  0  0  0  0
  133.1210  123.3240   61.9900 C   0  0  0  0  0  0  0  0  0  0  0  0
  133.4520  122.3030   60.8800 C   0  0  0  0  0  0  0  0  0  0  0  0
  133.6000  122.9690   59.6350 O   0  0  0  0  0  0  0  0  0  0  0  0
  132.4130  123.6540   59.2630 C   0  0  0  0  0  0  0  0  0  0  0  0
  132.0600  124.7110   60.3310 C   0  0  0  0  0  0  0  0  0  0  0  0
  131.5920  124.5290   64.0560 C   0  0  0  0  0  0  0  0  0  0  0  0
  130.9880  125.2190   65.1020 C   0  0  0  0  0  0  0  0  0  0  0  0
  128.5120  128.0450   65.7810 C   0  0  0  0  0  0  0  0  0  0  0  0
  127.8780  128.6060   64.6160 C   0  0  0  0  0  0  0  0  0  0  0  0
  128.1030  128.1380   63.3470 N   0  0  0  0  0  0  0  0  0  0  0  0
  122.9641  129.7652   63.5846 H   0  0  0  0  0  0  0  0  0  0  0  0
  123.7858  130.9678   62.5333 H   0  0  0  0  0  0  0  0  0  0  0  0
  124.3285  129.2554   62.5333 H   0  0  0  0  0  0  0  0  0  0  0  0
  131.7694  127.2191   69.4422 H   0  0  0  0  0  0  0  0  0  0  0  0
  132.3932  126.6371   71.7638 H   0  0  0  0  0  0  0  0  0  0  0  0
  130.9396  123.9534   73.4907 H   0  0  0  0  0  0  0  0  0  0  0  0
  132.4599  124.9281   73.7863 H   0  0  0  0  0  0  0  0  0  0  0  0
  130.3556  124.1622   75.8622 H   0  0  0  0  0  0  0  0  0  0  0  0
  132.0249  123.5047   75.7123 H   0  0  0  0  0  0  0  0  0  0  0  0
  130.0586  126.4102   76.4868 H   0  0  0  0  0  0  0  0  0  0  0  0
  131.5079  127.4326   76.8033 H   0  0  0  0  0  0  0  0  0  0  0  0
  130.4095  127.9296   74.5964 H   0  0  0  0  0  0  0  0  0  0  0  0
  132.1375  127.3483   74.4549 H   0  0  0  0  0  0  0  0  0  0  0  0
  128.2209  126.1342   72.7579 H   0  0  0  0  0  0  0  0  0  0  0  0
  127.5994  126.7084   70.4303 H   0  0  0  0  0  0  0  0  0  0  0  0
  130.5313  125.8493   67.4529 H   0  0  0  0  0  0  0  0  0  0  0  0
  129.1068  127.4098   63.2972 H   0  0  0  0  0  0  0  0  0  0  0  0
  130.1730  126.1718   61.4303 H   0  0  0  0  0  0  0  0  0  0  0  0
  133.9853  123.9920   62.1196 H   0  0  0  0  0  0  0  0  0  0  0  0
  132.8993  122.7530   62.9037 H   0  0  0  0  0  0  0  0  0  0  0  0
  134.3898  121.7850   61.1296 H   0  0  0  0  0  0  0  0  0  0  0  0
  132.6316  121.5742   60.8039 H   0  0  0  0  0  0  0  0  0  0  0  0
  132.5674  124.1517   58.2943 H   0  0  0  0  0  0  0  0  0  0  0  0
  131.5878  122.9311   59.1822 H   0  0  0  0  0  0  0  0  0  0  0  0
  132.8520  125.4742   60.3425 H   0  0  0  0  0  0  0  0  0  0  0  0
  131.0815  125.1345   60.0605 H   0  0  0  0  0  0  0  0  0  0  0  0
  132.2920  123.7105   64.2797 H   0  0  0  0  0  0  0  0  0  0  0  0
  131.2230  124.9485   66.1420 H   0  0  0  0  0  0  0  0  0  0  0  0
  128.7870  128.5610   62.7380 H   0  0  0  0  0  0  0  0  0  0  0  0
  127.5930  127.3470   62.9790 H   0  0  0  0  0  0  0  0  0  0  0  0
  1  2  1  0
  2  3  1  0
  3  4  2  0
  3  5  1  0
  5  6  1  0
  6  7  1  0
  7  8  2  0
  8  9  1  0
  9 10  1  0
 10 11  2  0
 11 12  1  0
 12 13  2  0
 13 14  1  0
 14 15  1  0
 15 16  1  0
 16 17  1  0
 17 18  1  0
 18 19  1  0
 13 20  1  0
 20 21  2  0
  9 22  2  0
 22 23  1  0
 23 24  1  0
 24 25  2  0
 25 26  1  0
 26 27  2  0
 27 28  1  0
 28 29  1  0
 29 30  1  0
 30 31  1  0
 31 32  1  0
 32 33  1  0
 27 34  1  0
 34 35  2  0
 23 36  2  0
 36 37  1  0
 37 38  1  0
 37  5  2  0
 36  7  1  0
 21 10  1  0
 35 24  1  0
 19 14  1  0
 33 28  1  0
  1 39  1  0
  1 40  1  0
  1 41  1  0
 11 42  1  0
 12 43  1  0
 15 44  1  0
 15 45  1  0
 16 46  1  0
 16 47  1  0
 18 48  1  0
 18 49  1  0
 19 50  1  0
 19 51  1  0
 20 52  1  0
 21 53  1  0
 22 54  1  0
 25 55  1  0
 26 56  1  0
 29 57  1  0
 29 58  1  0
 30 59  1  0
 30 60  1  0
 32 61  1  0
 32 62  1  0
 33 63  1  0
 33 64  1  0
 34 65  1  0
 35 66  1  0
 38 67  1  0
 38 68  1  0
M  END
>  <Binding energies>  (1) 
[-0.77]

>  <Ligand effiencies>  (1) 
[-0.01925]

>  <Interactions>  (1) 
["V-A:GLU:543:CD:4906, V-A:ASP:366:CG:3211, V-B:GLU:543:CG:9879, V-A:HIS:456:CE1:4068, V-B:TYR:539:CE2:9848, V-A:ILE:369:CD1:3237, V-A:ILE:369:CG2:3235, V-B:GLU:543:CD:9880, V-B:GLU:543:CB:9878, V-A:HIS:456:CD2:4066, V-B:LYS:547:CE:9922, V-B:GLU:543:C:9874, V-B:GLY:544:CA:9886, H-B:GLY:454:N:9022, H-B:TYR:484:OH:9320, H-B:GLU:543:OE1:9881, V-B:ARG:545:CZ:9898, H-A:GLU:543:OE1:4907, H-A:GLU:543:OE2:4908, V-A:GLU:543:CB:4904, H-B:GLU:543:OE2:9882, V-B:HIS:456:CE1:9042, V-B:TYR:484:CE1:9317, V-B:TYR:484:CZ:9319, V-A:GLU:543:CG:4905, H-B:LYS:547:NZ:9923, V-A:GLY:544:C:4910, V-B:GLY:544:C:9884, V-A:HIS:456:CB:4063, V-A:LYS:547:CE:4948, V-A:HIS:456:CG:4064, V-A:LYS:471:CE:4218, V-A:LYS:547:CD:4947, V-B:GLY:453:CA:9016, V-A:ARG:545:CA:4917"]

$$$$
RR10_Rahimova_2017
     RDKit          3D

 66 70  0  0  0  0  0  0  0  0999 V2000
  128.6570  132.5070   60.8670 C   0  0  0  0  0  0  0  0  0  0  0  0
  129.8030  132.1180   59.9170 C   0  0  1  0  0  0  0  0  0  0  0  0
  130.9270  131.3520   60.6520 C   0  0  0  0  0  0  0  0  0  0  0  0
  132.0820  131.0020   59.6860 C   0  0  0  0  0  0  0  0  0  0  0  0
  131.5990  130.1600   58.4770 C   0  0  1  0  0  0  0  0  0  0  0  0
  131.1840  128.8190   58.9100 N   0  0  0  0  0  0  0  0  0  0  0  0
  130.2430  128.0630   58.3140 C   0  0  0  0  0  0  0  0  0  0  0  0
  129.6340  128.4230   57.3040 O   0  0  0  0  0  0  0  0  0  0  0  0
  129.9350  126.6980   58.9650 C   0  0  1  0  0  0  0  0  0  0  0  0
  129.0810  125.8460   57.9900 C   0  0  0  0  0  0  0  0  0  0  0  0
  128.8470  124.4430   58.6000 C   0  0  0  0  0  0  0  0  0  0  0  0
  130.1630  123.7620   59.0430 C   0  0  0  0  0  0  0  0  0  0  0  0
  130.9530  124.6680   59.9210 N   0  0  0  0  0  0  0  0  0  0  0  0
  132.3270  123.8940   60.7280 S   0  0  0  0  0  0  0  0  0  0  0  0
  133.5600  124.3840   60.1000 O   0  0  0  0  0  0  0  0  0  0  0  0
  132.0550  122.4520   60.7970 O   0  0  0  0  0  0  0  0  0  0  0  0
  132.3090  124.5380   62.4000 C   0  0  0  0  0  0  0  0  0  0  0  0
  133.5120  124.6410   63.1070 C   0  0  0  0  0  0  0  0  0  0  0  0
  133.5660  125.1330   64.4150 C   0  0  0  0  0  0  0  0  0  0  0  0
  132.3520  125.5230   64.9850 C   0  0  0  0  0  0  0  0  0  0  0  0
  131.9960  126.0350   66.2110 N   0  0  0  0  0  0  0  0  0  0  0  0
  130.6300  126.2290   66.2100 C   0  0  0  0  0  0  0  0  0  0  0  0
  129.8670  126.7700   67.3850 C   0  0  0  0  0  0  0  0  0  0  0  0
  128.4900  127.0110   67.2860 C   0  0  0  0  0  0  0  0  0  0  0  0
  127.7800  127.5090   68.3760 C   0  0  0  0  0  0  0  0  0  0  0  0
  128.4460  127.7720   69.5710 C   0  0  0  0  0  0  0  0  0  0  0  0
  129.8130  127.5380   69.6850 C   0  0  0  0  0  0  0  0  0  0  0  0
  130.5220  127.0390   68.5950 C   0  0  0  0  0  0  0  0  0  0  0  0
  130.0840  125.8820   65.0650 N   0  0  0  0  0  0  0  0  0  0  0  0
  131.1220  125.4380   64.2890 C   0  0  0  0  0  0  0  0  0  0  0  0
  131.1000  124.9430   62.9770 C   0  0  0  0  0  0  0  0  0  0  0  0
  131.2650  125.9770   59.2940 C   0  0  0  0  0  0  0  0  0  0  0  0
  130.4600  130.9330   57.7600 C   0  0  0  0  0  0  0  0  0  0  0  0
  129.2990  131.2780   58.7200 C   0  0  0  0  0  0  0  0  0  0  0  0
  128.9903  132.3939   61.9092 H   0  0  0  0  0  0  0  0  0  0  0  0
  128.3694  133.5531   60.6855 H   0  0  0  0  0  0  0  0  0  0  0  0
  127.7920  131.8521   60.6855 H   0  0  0  0  0  0  0  0  0  0  0  0
  130.2162  133.0626   59.5335 H   0  0  0  0  0  0  0  0  0  0  0  0
  131.3171  131.9799   61.4666 H   0  0  0  0  0  0  0  0  0  0  0  0
  130.5095  130.4165   61.0527 H   0  0  0  0  0  0  0  0  0  0  0  0
  132.5267  131.9361   59.3122 H   0  0  0  0  0  0  0  0  0  0  0  0
  132.8180  130.4031   60.2424 H   0  0  0  0  0  0  0  0  0  0  0  0
  132.4215  130.0103   57.7621 H   0  0  0  0  0  0  0  0  0  0  0  0
  131.5620  128.5030   59.7910 H   0  0  0  0  0  0  0  0  0  0  0  0
  129.3697  126.8433   59.8974 H   0  0  0  0  0  0  0  0  0  0  0  0
  128.1122  126.3398   57.8238 H   0  0  0  0  0  0  0  0  0  0  0  0
  129.6105  125.7452   57.0311 H   0  0  0  0  0  0  0  0  0  0  0  0
  128.1901  124.5446   59.4765 H   0  0  0  0  0  0  0  0  0  0  0  0
  128.3902  123.8129   57.8227 H   0  0  0  0  0  0  0  0  0  0  0  0
  129.9251  122.8408   59.5950 H   0  0  0  0  0  0  0  0  0  0  0  0
  130.7588  123.5271   58.1487 H   0  0  0  0  0  0  0  0  0  0  0  0
  134.4454  124.3248   62.6183 H   0  0  0  0  0  0  0  0  0  0  0  0
  134.5150  125.2089   64.9661 H   0  0  0  0  0  0  0  0  0  0  0  0
  132.5860  126.2450   67.0030 H   0  0  0  0  0  0  0  0  0  0  0  0
  127.9662  126.8054   66.3408 H   0  0  0  0  0  0  0  0  0  0  0  0
  126.6988  127.6937   68.2936 H   0  0  0  0  0  0  0  0  0  0  0  0
  127.8867  128.1679   70.4315 H   0  0  0  0  0  0  0  0  0  0  0  0
  130.3317  127.7463   70.6324 H   0  0  0  0  0  0  0  0  0  0  0  0
  131.6028  126.8548   68.6841 H   0  0  0  0  0  0  0  0  0  0  0  0
  130.1564  124.8748   62.4157 H   0  0  0  0  0  0  0  0  0  0  0  0
  131.8560  126.5898   59.9905 H   0  0  0  0  0  0  0  0  0  0  0  0
  131.8462  125.8229   58.3729 H   0  0  0  0  0  0  0  0  0  0  0  0
  130.8696  131.8672   57.3483 H   0  0  0  0  0  0  0  0  0  0  0  0
  130.0611  130.2876   56.9636 H   0  0  0  0  0  0  0  0  0  0  0  0
  128.5375  131.8525   58.1722 H   0  0  0  0  0  0  0  0  0  0  0  0
  128.8707  130.3406   59.1043 H   0  0  0  0  0  0  0  0  0  0  0  0
  1  2  1  0
  2  3  1  0
  3  4  1  0
  4  5  1  0
  5  6  1  0
  6  7  1  0
  7  8  2  0
  7  9  1  0
  9 10  1  0
 10 11  1  0
 11 12  1  0
 12 13  1  0
 13 14  1  0
 14 15  2  0
 14 16  2  0
 14 17  1  0
 17 18  2  0
 18 19  1  0
 19 20  2  0
 20 21  1  0
 21 22  1  0
 22 23  1  0
 23 24  2  0
 24 25  1  0
 25 26  2  0
 26 27  1  0
 27 28  2  0
 22 29  2  0
 29 30  1  0
 30 31  2  0
 13 32  1  0
  5 33  1  0
 33 34  1  0
 34  2  1  0
 32  9  1  0
 31 17  1  0
 30 20  1  0
 28 23  1  0
  1 35  1  0
  1 36  1  0
  1 37  1  0
  2 38  1  6
  3 39  1  0
  3 40  1  0
  4 41  1  0
  4 42  1  0
  5 43  1  6
  6 44  1  0
  9 45  1  1
 10 46  1  0
 10 47  1  0
 11 48  1  0
 11 49  1  0
 12 50  1  0
 12 51  1  0
 18 52  1  0
 19 53  1  0
 21 54  1  0
 24 55  1  0
 25 56  1  0
 26 57  1  0
 27 58  1  0
 28 59  1  0
 31 60  1  0
 32 61  1  0
 32 62  1  0
 33 63  1  0
 33 64  1  0
 34 65  1  0
 34 66  1  0
M  END
>  <Binding energies>  (1) 
[-7.56]

>  <Ligand effiencies>  (1) 
[-0.21]

>  <Interactions>  (1) 
["V-A:GLU:543:CD:4906, V-A:ASP:366:CG:3211, V-B:GLU:543:CG:9879, V-A:HIS:456:CE1:4068, V-B:TYR:539:CE2:9848, V-A:ARG:545:CD:4921, V-A:GLY:453:CA:4042, V-A:ARG:545:CG:4920, V-B:GLU:543:CD:9880, V-B:GLU:543:CB:9878, V-A:ARG:545:CZ:4924, V-B:GLU:543:C:9874, V-B:TYR:539:CD2:9846, H-A:ASP:366:OD1:3212, V-A:ALA:541:CB:4890, V-A:TYR:539:C:4865, V-A:PRO:540:CA:4881, V-B:HIS:456:CE1:9042, V-A:PRO:540:CB:4883, V-A:PRO:540:C:4879, H-A:ASP:366:OD2:3213, V-A:PRO:540:N:4882, V-A:GLY:544:C:4910, H-A:HIS:456:NE2:4069, V-A:GLU:543:C:4900, V-A:GLY:453:C:4040"]

$$$$
RR11_Rahimova_2017
     RDKit          3D

 55 60  0  0  0  0  0  0  0  0999 V2000
  123.2890  131.3970   58.0390 N   0  0  0  0  0  0  0  0  0  0  0  0
  124.3150  130.4880   58.2890 C   0  0  0  0  0  0  0  0  0  0  0  0
  124.9160  130.4500   59.5460 C   0  0  0  0  0  0  0  0  0  0  0  0
  125.9390  129.5400   59.7960 C   0  0  0  0  0  0  0  0  0  0  0  0
  126.3710  128.6610   58.7930 C   0  0  0  0  0  0  0  0  0  0  0  0
  127.4700  127.6770   59.0660 C   0  0  0  0  0  0  0  0  0  0  0  0
  128.4480  127.8740   59.9230 N   0  0  0  0  0  0  0  0  0  0  0  0
  129.2100  126.7360   59.8700 C   0  0  0  0  0  0  0  0  0  0  0  0
  130.3710  126.4140   60.5860 C   0  0  0  0  0  0  0  0  0  0  0  0
  130.9640  125.1650   60.3650 C   0  0  0  0  0  0  0  0  0  0  0  0
  132.2290  124.7880   61.1240 C   0  0  0  0  0  0  0  0  0  0  0  0
  132.1610  125.1430   62.6030 C   0  0  0  0  0  0  0  0  0  0  0  0
  133.3230  125.0750   63.3810 C   0  0  0  0  0  0  0  0  0  0  0  0
  133.3130  125.3990   64.7390 C   0  0  0  0  0  0  0  0  0  0  0  0
  132.1010  125.8060   65.3130 C   0  0  0  0  0  0  0  0  0  0  0  0
  131.8310  126.1650   66.6080 N   0  0  0  0  0  0  0  0  0  0  0  0
  130.5480  126.4550   66.6270 C   0  0  0  0  0  0  0  0  0  0  0  0
  129.7930  126.8890   67.8510 C   0  0  0  0  0  0  0  0  0  0  0  0
  128.3980  127.0040   67.8220 C   0  0  0  0  0  0  0  0  0  0  0  0
  127.6990  127.4160   68.9540 C   0  0  0  0  0  0  0  0  0  0  0  0
  128.3920  127.7160   70.1240 C   0  0  0  0  0  0  0  0  0  0  0  0
  127.6940  128.1340   71.2570 N   0  0  0  0  0  0  0  0  0  0  0  0
  129.7790  127.6020   70.1690 C   0  0  0  0  0  0  0  0  0  0  0  0
  130.4770  127.1900   69.0370 C   0  0  0  0  0  0  0  0  0  0  0  0
  129.9660  126.3040   65.3860 N   0  0  0  0  0  0  0  0  0  0  0  0
  130.9380  125.8820   64.5110 C   0  0  0  0  0  0  0  0  0  0  0  0
  130.9420  125.5650   63.1500 C   0  0  0  0  0  0  0  0  0  0  0  0
  130.4220  124.2730   59.4320 C   0  0  0  0  0  0  0  0  0  0  0  0
  129.2700  124.5670   58.6990 C   0  0  0  0  0  0  0  0  0  0  0  0
  128.6790  125.8100   58.9410 C   0  0  0  0  0  0  0  0  0  0  0  0
  127.5670  126.4490   58.4450 N   0  0  0  0  0  0  0  0  0  0  0  0
  125.7580  128.7120   57.5340 C   0  0  0  0  0  0  0  0  0  0  0  0
  124.7340  129.6210   57.2820 C   0  0  0  0  0  0  0  0  0  0  0  0
  122.5330  131.1360   57.4210 H   0  0  0  0  0  0  0  0  0  0  0  0
  123.2910  132.2900   58.5090 H   0  0  0  0  0  0  0  0  0  0  0  0
  124.5829  131.1370   60.3379 H   0  0  0  0  0  0  0  0  0  0  0  0
  126.4123  129.5103   60.7885 H   0  0  0  0  0  0  0  0  0  0  0  0
  130.8057  127.1251   61.3040 H   0  0  0  0  0  0  0  0  0  0  0  0
  132.3843  123.7030   61.0303 H   0  0  0  0  0  0  0  0  0  0  0  0
  133.0598  125.3600   60.6853 H   0  0  0  0  0  0  0  0  0  0  0  0
  134.2661  124.7588   62.9112 H   0  0  0  0  0  0  0  0  0  0  0  0
  134.2310  125.3365   65.3417 H   0  0  0  0  0  0  0  0  0  0  0  0
  127.8499  126.7672   66.8982 H   0  0  0  0  0  0  0  0  0  0  0  0
  126.6029  127.5041   68.9239 H   0  0  0  0  0  0  0  0  0  0  0  0
  127.6780  129.1150   71.4980 H   0  0  0  0  0  0  0  0  0  0  0  0
  127.1820  127.4550   71.8030 H   0  0  0  0  0  0  0  0  0  0  0  0
  130.3218  127.8368   71.0965 H   0  0  0  0  0  0  0  0  0  0  0  0
  131.5727  127.1001   69.0735 H   0  0  0  0  0  0  0  0  0  0  0  0
  128.9880  126.4800   65.2070 H   0  0  0  0  0  0  0  0  0  0  0  0
  130.0317  125.6430   62.5374 H   0  0  0  0  0  0  0  0  0  0  0  0
  130.9212  123.3062   59.2704 H   0  0  0  0  0  0  0  0  0  0  0  0
  128.8503  123.8580   57.9702 H   0  0  0  0  0  0  0  0  0  0  0  0
  126.9070  126.1220   57.7550 H   0  0  0  0  0  0  0  0  0  0  0  0
  126.0885  128.0282   56.7382 H   0  0  0  0  0  0  0  0  0  0  0  0
  124.2573  129.6546   56.2912 H   0  0  0  0  0  0  0  0  0  0  0  0
  1  2  1  0
  2  3  2  0
  3  4  1  0
  4  5  2  0
  5  6  1  0
  6  7  2  0
  7  8  1  0
  8  9  2  0
  9 10  1  0
 10 11  1  0
 11 12  1  0
 12 13  2  0
 13 14  1  0
 14 15  2  0
 15 16  1  0
 16 17  2  0
 17 18  1  0
 18 19  2  0
 19 20  1  0
 20 21  2  0
 21 22  1  0
 21 23  1  0
 23 24  2  0
 17 25  1  0
 25 26  1  0
 26 27  2  0
 10 28  2  0
 28 29  1  0
 29 30  2  0
 30 31  1  0
  5 32  1  0
 32 33  2  0
 33  2  1  0
 31  6  1  0
 30  8  1  0
 27 12  1  0
 26 15  1  0
 24 18  1  0
  1 34  1  0
  1 35  1  0
  3 36  1  0
  4 37  1  0
  9 38  1  0
 11 39  1  0
 11 40  1  0
 13 41  1  0
 14 42  1  0
 19 43  1  0
 20 44  1  0
 22 45  1  0
 22 46  1  0
 23 47  1  0
 24 48  1  0
 25 49  1  0
 27 50  1  0
 28 51  1  0
 29 52  1  0
 31 53  1  0
 32 54  1  0
 33 55  1  0
M  END
>  <Binding energies>  (1) 
[-5.85]

>  <Ligand effiencies>  (1) 
[-0.15]

>  <Interactions>  (1) 
["V-A:GLU:543:CD:4906, V-B:GLU:543:CG:9879, V-A:HIS:456:CE1:4068, V-A:ARG:545:CD:4921, V-A:ARG:545:CG:4920, V-B:GLU:543:CD:9880, V-B:GLU:543:CB:9878, V-A:ARG:545:CZ:4924, V-B:GLU:543:C:9874, V-B:ASP:366:CB:8184, V-B:ASP:366:CG:8185, V-A:TYR:539:CE2:4874, H-B:TYR:531:OH:9767, H-B:GLU:543:OE1:9881, H-A:GLU:543:OE2:4908, H-B:GLU:543:OE2:9882, V-B:ILE:369:CG2:8209, V-A:TYR:539:CZ:4875, V-B:HIS:456:CE1:9042, V-B:ASP:366:C:8180, V-B:ASP:366:CA:8182, H-A:ARG:545:NE:4922, V-B:ILE:369:CB:8208, V-B:HIS:456:CG:9038, V-A:GLY:544:C:4910, V-A:GLU:543:C:4900, V-B:HIS:456:CD2:9040, V-B:GLY:544:C:9884, H-A:HIS:456:ND1:4065, H-B:HIS:456:NE2:9043, H-A:GLU:543:O:4901, H-B:GLY:544:O:9885, H-A:TYR:539:OH:4876, H-B:ASP:366:O:8181"]

$$$$
RR11_Rahimova_2017-again1
     RDKit          3D

 56 61  0  0  0  0  0  0  0  0999 V2000
  123.2510  131.9170   58.3910 N   0  0  0  0  0  0  0  0  0  0  0  0
  124.2310  130.9260   58.3830 C   0  0  0  0  0  0  0  0  0  0  0  0
  125.2250  130.9250   59.3590 C   0  0  0  0  0  0  0  0  0  0  0  0
  126.2050  129.9350   59.3480 C   0  0  0  0  0  0  0  0  0  0  0  0
  126.1990  128.9400   58.3620 C   0  0  0  0  0  0  0  0  0  0  0  0
  127.2610  127.8790   58.3460 C   0  0  0  0  0  0  0  0  0  0  0  0
  127.2530  126.8330   57.5510 N   0  0  0  0  0  0  0  0  0  0  0  0
  128.3780  126.1210   57.8770 C   0  0  0  0  0  0  0  0  0  0  0  0
  128.8530  124.9170   57.3400 C   0  0  0  0  0  0  0  0  0  0  0  0
  130.0320  124.3830   57.8630 C   0  0  0  0  0  0  0  0  0  0  0  0
  130.7300  125.0190   58.8950 C   0  0  0  0  0  0  0  0  0  0  0  0
  132.0090  124.3900   59.4310 C   0  0  0  0  0  0  0  0  0  0  0  0
  132.1530  124.5490   60.9380 C   0  0  0  0  0  0  0  0  0  0  0  0
  133.2200  123.9290   61.6000 C   0  0  0  0  0  0  0  0  0  0  0  0
  133.4030  124.0370   62.9800 C   0  0  0  0  0  0  0  0  0  0  0  0
  132.4640  124.8030   63.6780 C   0  0  0  0  0  0  0  0  0  0  0  0
  132.3360  125.1060   65.0280 N   0  0  0  0  0  0  0  0  0  0  0  0
  131.2310  125.9010   65.2300 C   0  0  0  0  0  0  0  0  0  0  0  0
  130.7330  126.4310   66.5360 C   0  0  0  0  0  0  0  0  0  0  0  0
  131.5600  127.2350   67.3280 C   0  0  0  0  0  0  0  0  0  0  0  0
  131.0980  127.7390   68.5420 C   0  0  0  0  0  0  0  0  0  0  0  0
  129.8060  127.4390   68.9680 C   0  0  0  0  0  0  0  0  0  0  0  0
  129.3430  127.9470   70.1810 N   0  0  0  0  0  0  0  0  0  0  0  0
  128.9740  126.6380   68.1870 C   0  0  0  0  0  0  0  0  0  0  0  0
  129.4370  126.1350   66.9740 C   0  0  0  0  0  0  0  0  0  0  0  0
  130.6680  126.1040   63.9920 N   0  0  0  0  0  0  0  0  0  0  0  0
  131.4000  125.4390   63.0190 C   0  0  0  0  0  0  0  0  0  0  0  0
  131.2260  125.3330   61.6360 C   0  0  0  0  0  0  0  0  0  0  0  0
  130.2880  126.2360   59.4320 C   0  0  0  0  0  0  0  0  0  0  0  0
  129.1030  126.7600   58.9100 C   0  0  0  0  0  0  0  0  0  0  0  0
  128.3600  127.8860   59.1790 N   0  0  0  0  0  0  0  0  0  0  0  0
  125.1920  128.9520   57.3880 C   0  0  0  0  0  0  0  0  0  0  0  0
  124.2110  129.9410   57.3980 C   0  0  0  0  0  0  0  0  0  0  0  0
  123.5230  132.8830   58.5010 H   0  0  0  0  0  0  0  0  0  0  0  0
  122.2780  131.6540   58.3270 H   0  0  0  0  0  0  0  0  0  0  0  0
  125.2360  131.7036   60.1360 H   0  0  0  0  0  0  0  0  0  0  0  0
  126.9893  129.9346   60.1193 H   0  0  0  0  0  0  0  0  0  0  0  0
  128.3121  124.4070   56.5292 H   0  0  0  0  0  0  0  0  0  0  0  0
  130.4216  123.4392   57.4537 H   0  0  0  0  0  0  0  0  0  0  0  0
  132.0020  123.3170   59.1891 H   0  0  0  0  0  0  0  0  0  0  0  0
  132.8575  124.9070   58.9590 H   0  0  0  0  0  0  0  0  0  0  0  0
  133.9379  123.3372   61.0132 H   0  0  0  0  0  0  0  0  0  0  0  0
  134.2429  123.5447   63.4920 H   0  0  0  0  0  0  0  0  0  0  0  0
  132.9330  124.8060   65.7840 H   0  0  0  0  0  0  0  0  0  0  0  0
  132.5801  127.4704   66.9905 H   0  0  0  0  0  0  0  0  0  0  0  0
  131.7509  128.3713   69.1616 H   0  0  0  0  0  0  0  0  0  0  0  0
  129.3800  127.3700   71.0100 H   0  0  0  0  0  0  0  0  0  0  0  0
  128.9490  128.8760   70.2130 H   0  0  0  0  0  0  0  0  0  0  0  0
  127.9547  126.4041   68.5281 H   0  0  0  0  0  0  0  0  0  0  0  0
  128.7815  125.5024   66.3574 H   0  0  0  0  0  0  0  0  0  0  0  0
  129.8360  126.6600   63.8630 H   0  0  0  0  0  0  0  0  0  0  0  0
  130.3988  125.8421   61.1197 H   0  0  0  0  0  0  0  0  0  0  0  0
  130.8470  126.7532   60.2257 H   0  0  0  0  0  0  0  0  0  0  0  0
  128.5360  128.6110   59.8590 H   0  0  0  0  0  0  0  0  0  0  0  0
  125.1759  128.1748   56.6097 H   0  0  0  0  0  0  0  0  0  0  0  0
  123.4230  129.9442   56.6305 H   0  0  0  0  0  0  0  0  0  0  0  0
  1  2  1  0
  2  3  2  0
  3  4  1  0
  4  5  2  0
  5  6  1  0
  6  7  2  0
  7  8  1  0
  8  9  2  0
  9 10  1  0
 10 11  2  0
 11 12  1  0
 12 13  1  0
 13 14  2  0
 14 15  1  0
 15 16  2  0
 16 17  1  0
 17 18  1  0
 18 19  1  0
 19 20  2  0
 20 21  1  0
 21 22  2  0
 22 23  1  0
 22 24  1  0
 24 25  2  0
 18 26  2  0
 26 27  1  0
 27 28  2  0
 11 29  1  0
 29 30  2  0
 30 31  1  0
  5 32  1  0
 32 33  2  0
 33  2  1  0
 31  6  1  0
 30  8  1  0
 28 13  1  0
 27 16  1  0
 25 19  1  0
  1 34  1  0
  1 35  1  0
  3 36  1  0
  4 37  1  0
  9 38  1  0
 10 39  1  0
 12 40  1  0
 12 41  1  0
 14 42  1  0
 15 43  1  0
 17 44  1  0
 20 45  1  0
 21 46  1  0
 23 47  1  0
 23 48  1  0
 24 49  1  0
 25 50  1  0
 26 51  1  0
 28 52  1  0
 29 53  1  0
 31 54  1  0
 32 55  1  0
 33 56  1  0
M  CHG  1  26   1
M  END
>  <Binding energies>  (1) 
[-6.35]

>  <Ligand effiencies>  (1) 
[-0.15875]

>  <Interactions>  (1) 
["V-A:GLU:543:CD:4906, V-A:ASP:366:CG:3211, V-B:GLU:543:CG:9879, V-A:HIS:456:CE1:4068, V-B:TYR:539:CE2:9848, V-A:ARG:545:CD:4921, V-A:ARG:545:CG:4920, V-B:GLU:543:CD:9880, V-B:GLU:543:CB:9878, V-A:ARG:545:CZ:4924, V-A:GLY:454:CA:4047, V-B:GLU:543:C:9874, V-B:ASP:366:CB:8184, V-B:ASP:366:CG:8185, V-B:TYR:531:CZ:9766, V-B:TYR:539:CZ:9849, V-A:TYR:539:CE2:4874, H-B:TYR:531:OH:9767, H-B:GLU:543:OE1:9881, H-A:TYR:484:OH:4346, H-A:GLU:543:OE2:4908, H-B:GLU:543:OE2:9882, V-B:ILE:369:CD1:8211, V-B:ILE:369:CG2:8209, V-A:TYR:539:CZ:4875, V-B:ASP:366:C:8180, V-B:ASP:366:CA:8182, V-A:GLU:543:CG:4905, V-B:ILE:369:CB:8208, V-A:GLY:544:C:4910, V-A:GLU:543:C:4900, H-B:GLU:543:O:9875, H-B:HIS:456:NE2:9043, H-A:GLU:543:O:4901, V-A:ARG:545:CB:4919, V-A:GLY:453:C:4040, H-A:TYR:539:OH:4876, H-B:ASP:366:O:8181, V-A:ARG:545:CA:4917"]

$$$$
RR11_Rahimova_2017-again2
     RDKit          3D

 57 62  0  0  0  0  0  0  0  0999 V2000
  128.0350  128.3580   71.4400 N   0  0  0  0  0  0  0  0  0  0  0  0
  128.6610  127.9030   70.2800 C   0  0  0  0  0  0  0  0  0  0  0  0
  130.0450  127.7520   70.2520 C   0  0  0  0  0  0  0  0  0  0  0  0
  130.6700  127.3030   69.0920 C   0  0  0  0  0  0  0  0  0  0  0  0
  129.9130  127.0030   67.9530 C   0  0  0  0  0  0  0  0  0  0  0  0
  130.5840  126.5310   66.7040 C   0  0  0  0  0  0  0  0  0  0  0  0
  129.9870  126.2950   65.4870 N   0  0  0  0  0  0  0  0  0  0  0  0
  130.9370  125.8860   64.5610 C   0  0  0  0  0  0  0  0  0  0  0  0
  130.8310  125.5440   63.2100 C   0  0  0  0  0  0  0  0  0  0  0  0
  132.0150  125.1880   62.5510 C   0  0  0  0  0  0  0  0  0  0  0  0
  131.9640  124.8100   61.0770 C   0  0  0  0  0  0  0  0  0  0  0  0
  130.6590  125.2180   60.4080 C   0  0  0  0  0  0  0  0  0  0  0  0
  129.9810  124.2980   59.5980 C   0  0  0  0  0  0  0  0  0  0  0  0
  128.7800  124.6150   58.9590 C   0  0  0  0  0  0  0  0  0  0  0  0
  128.2780  125.9020   59.1690 C   0  0  0  0  0  0  0  0  0  0  0  0
  127.1420  126.5410   58.6910 N   0  0  0  0  0  0  0  0  0  0  0  0
  127.0790  127.8240   59.1810 C   0  0  0  0  0  0  0  0  0  0  0  0
  126.0260  128.8440   58.8940 C   0  0  0  0  0  0  0  0  0  0  0  0
  125.5990  129.7210   59.8970 C   0  0  0  0  0  0  0  0  0  0  0  0
  124.6250  130.6790   59.6270 C   0  0  0  0  0  0  0  0  0  0  0  0
  124.0720  130.7630   58.3510 C   0  0  0  0  0  0  0  0  0  0  0  0
  123.1010  131.7250   58.0780 N   0  0  0  0  0  0  0  0  0  0  0  0
  124.4860  129.8920   57.3440 C   0  0  0  0  0  0  0  0  0  0  0  0
  125.4610  128.9350   57.6150 C   0  0  0  0  0  0  0  0  0  0  0  0
  128.1860  127.9870   59.9830 N   0  0  0  0  0  0  0  0  0  0  0  0
  128.9450  126.8250   59.9910 C   0  0  0  0  0  0  0  0  0  0  0  0
  130.1430  126.5010   60.6340 C   0  0  0  0  0  0  0  0  0  0  0  0
  133.2390  125.1510   63.2290 C   0  0  0  0  0  0  0  0  0  0  0  0
  133.3490  125.4860   64.5810 C   0  0  0  0  0  0  0  0  0  0  0  0
  132.1700  125.8600   65.2320 C   0  0  0  0  0  0  0  0  0  0  0  0
  131.9220  126.2570   66.5390 N   0  0  0  0  0  0  0  0  0  0  0  0
  128.5220  127.1540   67.9930 C   0  0  0  0  0  0  0  0  0  0  0  0
  127.8970  127.6030   69.1540 C   0  0  0  0  0  0  0  0  0  0  0  0
  128.3490  129.2160   71.8710 H   0  0  0  0  0  0  0  0  0  0  0  0
  127.3200  127.7930   71.8750 H   0  0  0  0  0  0  0  0  0  0  0  0
  130.6432  127.9870   71.1447 H   0  0  0  0  0  0  0  0  0  0  0  0
  131.7633  127.1834   69.0701 H   0  0  0  0  0  0  0  0  0  0  0  0
  128.9970  126.4230   65.3370 H   0  0  0  0  0  0  0  0  0  0  0  0
  129.8627  125.5539   62.6882 H   0  0  0  0  0  0  0  0  0  0  0  0
  132.7959  125.3080   60.5575 H   0  0  0  0  0  0  0  0  0  0  0  0
  132.0403  123.7145   61.0133 H   0  0  0  0  0  0  0  0  0  0  0  0
  130.4081  123.2936   59.4607 H   0  0  0  0  0  0  0  0  0  0  0  0
  128.2554  123.8876   58.3221 H   0  0  0  0  0  0  0  0  0  0  0  0
  126.4410  126.1650   58.0700 H   0  0  0  0  0  0  0  0  0  0  0  0
  126.0351  129.6534   60.9046 H   0  0  0  0  0  0  0  0  0  0  0  0
  124.2934  131.3671   60.4185 H   0  0  0  0  0  0  0  0  0  0  0  0
  122.2770  131.4670   57.5560 H   0  0  0  0  0  0  0  0  0  0  0  0
  123.2630  132.6850   58.3480 H   0  0  0  0  0  0  0  0  0  0  0  0
  124.0441  129.9604   56.3390 H   0  0  0  0  0  0  0  0  0  0  0  0
  125.7890  128.2475   56.8214 H   0  0  0  0  0  0  0  0  0  0  0  0
  128.3790  128.8520   60.4690 H   0  0  0  0  0  0  0  0  0  0  0  0
  130.6574  127.2206   61.2878 H   0  0  0  0  0  0  0  0  0  0  0  0
  134.1430  124.8486   62.6800 H   0  0  0  0  0  0  0  0  0  0  0  0
  134.3148  125.4569   65.1066 H   0  0  0  0  0  0  0  0  0  0  0  0
  132.5890  126.3520   67.2910 H   0  0  0  0  0  0  0  0  0  0  0  0
  127.9197  126.9170   67.1036 H   0  0  0  0  0  0  0  0  0  0  0  0
  126.8036  127.7204   69.1819 H   0  0  0  0  0  0  0  0  0  0  0  0
  1  2  1  0
  2  3  2  0
  3  4  1  0
  4  5  2  0
  5  6  1  0
  6  7  1  0
  7  8  1  0
  8  9  2  0
  9 10  1  0
 10 11  1  0
 11 12  1  0
 12 13  2  0
 13 14  1  0
 14 15  2  0
 15 16  1  0
 16 17  1  0
 17 18  1  0
 18 19  2  0
 19 20  1  0
 20 21  2  0
 21 22  1  0
 21 23  1  0
 23 24  2  0
 17 25  2  0
 25 26  1  0
 26 27  2  0
 10 28  2  0
 28 29  1  0
 29 30  2  0
 30 31  1  0
  5 32  1  0
 32 33  2  0
 33  2  1  0
 31  6  2  0
 30  8  1  0
 27 12  1  0
 26 15  1  0
 24 18  1  0
  1 34  1  0
  1 35  1  0
  3 36  1  0
  4 37  1  0
  7 38  1  0
  9 39  1  0
 11 40  1  0
 11 41  1  0
 13 42  1  0
 14 43  1  0
 16 44  1  0
 19 45  1  0
 20 46  1  0
 22 47  1  0
 22 48  1  0
 23 49  1  0
 24 50  1  0
 25 51  1  0
 27 52  1  0
 28 53  1  0
 29 54  1  0
 31 55  1  0
 32 56  1  0
 33 57  1  0
M  CHG  2  25   1  31   1
M  END
>  <Binding energies>  (1) 
[-6.85]

>  <Ligand effiencies>  (1) 
[-0.1670731707317073]

>  <Interactions>  (1) 
["V-A:GLU:543:CD:4906, V-B:GLU:543:CG:9879, V-A:HIS:456:CE1:4068, V-A:ARG:545:CD:4921, V-A:ARG:545:CG:4920, V-B:GLU:543:CD:9880, V-B:GLU:543:CB:9878, V-A:ARG:545:CZ:4924, V-B:GLU:543:C:9874, V-B:ASP:366:CB:8184, V-B:ASP:366:CG:8185, V-A:TYR:539:CE2:4874, H-B:TYR:531:OH:9767, H-B:GLU:543:OE1:9881, H-A:GLU:543:OE2:4908, H-B:GLU:543:OE2:9882, V-B:ILE:369:CG2:8209, V-A:TYR:539:CZ:4875, V-B:HIS:456:CE1:9042, V-B:ASP:366:C:8180, V-B:ASP:366:CA:8182, H-B:ASP:366:OD2:8187, V-B:ILE:369:CB:8208, V-B:HIS:456:CG:9038, V-A:GLY:544:C:4910, H-A:HIS:456:NE2:4069, V-A:GLU:543:C:4900, V-B:HIS:456:CD2:9040, H-B:HIS:456:NE2:9043, H-A:GLU:543:O:4901, H-B:GLY:544:O:9885, V-A:GLY:544:CA:4912, H-A:TYR:539:OH:4876, H-B:ASP:366:O:8181"]

$$$$
RR12_Rahimova_2017
     RDKit          3D

 51 53  0  0  0  0  0  0  0  0999 V2000
  126.5810  129.0840   65.9040 C   0  0  0  0  0  0  0  0  0  0  0  0
  127.8330  128.8430   66.7570 C   0  0  0  0  0  0  0  0  0  0  0  0
  127.7660  127.5230   67.5460 C   0  0  0  0  0  0  0  0  0  0  0  0
  128.8130  127.4740   68.5640 N   0  0  0  0  0  0  0  0  0  0  0  0
  130.1800  127.3590   68.3630 C   0  0  0  0  0  0  0  0  0  0  0  0
  130.8270  127.2120   66.9970 C   0  0  0  0  0  0  0  0  0  0  0  0
  130.1250  126.1540   66.1260 C   0  0  0  0  0  0  0  0  0  0  0  0
  131.0630  125.0010   65.7190 C   0  0  0  0  0  0  0  0  0  0  0  0
  131.2770  124.8950   64.2760 N   0  0  0  0  0  0  0  0  0  0  0  0
  132.4780  124.9170   63.6700 C   0  0  0  0  0  0  0  0  0  0  0  0
  133.5420  125.0340   64.2820 O   0  0  0  0  0  0  0  0  0  0  0  0
  132.4520  124.7790   62.1420 C   0  0  0  0  0  0  0  0  0  0  0  0
  131.2180  124.1860   61.7370 O   0  0  0  0  0  0  0  0  0  0  0  0
  131.2130  122.8850   61.2710 C   0  0  0  0  0  0  0  0  0  0  0  0
  132.4530  122.3460   60.9230 C   0  0  0  0  0  0  0  0  0  0  0  0
  132.5490  121.0410   60.4470 C   0  0  0  0  0  0  0  0  0  0  0  0
  131.3980  120.2690   60.3180 C   0  0  0  0  0  0  0  0  0  0  0  0
  130.1520  120.7910   60.6580 C   0  0  0  0  0  0  0  0  0  0  0  0
  130.0580  122.0970   61.1340 C   0  0  0  0  0  0  0  0  0  0  0  0
  130.8710  127.3690   69.4760 N   0  0  0  0  0  0  0  0  0  0  0  0
  129.9410  127.5240   70.4660 C   0  0  0  0  0  0  0  0  0  0  0  0
  130.1340  127.6130   71.8530 C   0  0  0  0  0  0  0  0  0  0  0  0
  129.0100  127.7770   72.6630 C   0  0  0  0  0  0  0  0  0  0  0  0
  127.7280  127.8530   72.1180 C   0  0  0  0  0  0  0  0  0  0  0  0
  127.5030  127.7660   70.7430 C   0  0  0  0  0  0  0  0  0  0  0  0
  128.6310  127.6000   69.9290 C   0  0  0  0  0  0  0  0  0  0  0  0
  125.7155  129.2506   66.5621 H   0  0  0  0  0  0  0  0  0  0  0  0
  126.7347  129.9691   65.2691 H   0  0  0  0  0  0  0  0  0  0  0  0
  126.3951  128.2051   65.2691 H   0  0  0  0  0  0  0  0  0  0  0  0
  128.7105  128.8133   66.0944 H   0  0  0  0  0  0  0  0  0  0  0  0
  127.9029  129.6639   67.4859 H   0  0  0  0  0  0  0  0  0  0  0  0
  126.7837  127.4443   68.0347 H   0  0  0  0  0  0  0  0  0  0  0  0
  127.9138  126.6864   66.8473 H   0  0  0  0  0  0  0  0  0  0  0  0
  130.7832  128.1815   66.4792 H   0  0  0  0  0  0  0  0  0  0  0  0
  131.8656  126.8841   67.1513 H   0  0  0  0  0  0  0  0  0  0  0  0
  129.2795  125.7365   66.6925 H   0  0  0  0  0  0  0  0  0  0  0  0
  129.7907  126.6516   65.2037 H   0  0  0  0  0  0  0  0  0  0  0  0
  132.0378  125.1596   66.2034 H   0  0  0  0  0  0  0  0  0  0  0  0
  130.5799  124.0665   66.0406 H   0  0  0  0  0  0  0  0  0  0  0  0
  130.4480  124.7930   63.7080 H   0  0  0  0  0  0  0  0  0  0  0  0
  132.5486  125.7738   61.6826 H   0  0  0  0  0  0  0  0  0  0  0  0
  133.2880  124.1418   61.8178 H   0  0  0  0  0  0  0  0  0  0  0  0
  133.3617  122.9574   61.0257 H   0  0  0  0  0  0  0  0  0  0  0  0
  133.5291  120.6225   60.1744 H   0  0  0  0  0  0  0  0  0  0  0  0
  131.4730  119.2372   59.9441 H   0  0  0  0  0  0  0  0  0  0  0  0
  129.2469  120.1751   60.5512 H   0  0  0  0  0  0  0  0  0  0  0  0
  129.0759  122.5127   61.4035 H   0  0  0  0  0  0  0  0  0  0  0  0
  131.1422  127.5551   72.2890 H   0  0  0  0  0  0  0  0  0  0  0  0
  129.1371  127.8478   73.7533 H   0  0  0  0  0  0  0  0  0  0  0  0
  126.8688  127.9854   72.7919 H   0  0  0  0  0  0  0  0  0  0  0  0
  126.4895  127.8249   70.3194 H   0  0  0  0  0  0  0  0  0  0  0  0
  1  2  1  0
  2  3  1  0
  3  4  1  0
  4  5  1  0
  5  6  1  0
  6  7  1  0
  7  8  1  0
  8  9  1  0
  9 10  1  0
 10 11  2  0
 10 12  1  0
 12 13  1  0
 13 14  1  0
 14 15  2  0
 15 16  1  0
 16 17  2  0
 17 18  1  0
 18 19  2  0
  5 20  2  0
 20 21  1  0
 21 22  2  0
 22 23  1  0
 23 24  2  0
 24 25  1  0
 25 26  2  0
 26  4  1  0
 19 14  1  0
 26 21  1  0
  1 27  1  0
  1 28  1  0
  1 29  1  0
  2 30  1  0
  2 31  1  0
  3 32  1  0
  3 33  1  0
  6 34  1  0
  6 35  1  0
  7 36  1  0
  7 37  1  0
  8 38  1  0
  8 39  1  0
  9 40  1  0
 12 41  1  0
 12 42  1  0
 15 43  1  0
 16 44  1  0
 17 45  1  0
 18 46  1  0
 19 47  1  0
 22 48  1  0
 23 49  1  0
 24 50  1  0
 25 51  1  0
M  END
>  <Binding energies>  (1) 
[-7.71]

>  <Ligand effiencies>  (1) 
[-0.28555555555555556]

>  <Interactions>  (1) 
["H-A:GLY:454:N:4048, V-A:GLU:543:CD:4906, V-B:GLU:543:CG:9879, V-A:HIS:456:CE1:4068, V-B:TYR:539:CE2:9848, V-A:ILE:369:CG2:3235, V-A:ARG:545:CG:4920, V-B:GLU:543:CD:9880, V-B:GLU:543:CB:9878, V-A:ARG:545:CZ:4924, V-B:GLY:544:CA:9886, V-B:TYR:539:CD2:9846, V-B:ALA:541:CB:9864, V-A:TYR:484:CZ:4345, V-A:LEU:475:CD2:4257, H-B:GLU:543:OE1:9881, H-A:TYR:484:OH:4346, V-A:GLU:543:CB:4904, V-B:HIS:456:CE1:9042, H-A:ARG:545:NE:4922, V-A:GLU:543:CG:4905, V-A:TRP:381:CZ2:3368, V-A:TRP:381:CH2:3370, V-B:HIS:456:CG:9038, V-A:GLY:544:C:4910, V-A:GLU:543:C:4900, V-B:HIS:456:CD2:9040, V-B:GLY:544:C:9884, V-A:LYS:547:CE:4948, H-A:HIS:456:ND1:4065, V-A:GLY:544:CA:4912, H-A:ARG:545:N:4918"]

$$$$
RR13_Rahimova_2017
     RDKit          3D

 84 90  0  0  0  0  0  0  0  0999 V2000
  129.0470  131.4700   57.4410 Cl  0  0  0  0  0  0  0  0  0  0  0  0
  127.8310  130.4550   58.1400 C   0  0  0  0  0  0  0  0  0  0  0  0
  126.4970  130.7350   57.8380 C   0  0  0  0  0  0  0  0  0  0  0  0
  125.4720  129.9690   58.3850 C   0  0  0  0  0  0  0  0  0  0  0  0
  125.7750  128.9160   59.2440 C   0  0  0  0  0  0  0  0  0  0  0  0
  127.1040  128.6300   59.5510 C   0  0  0  0  0  0  0  0  0  0  0  0
  128.1520  129.3830   58.9990 C   0  0  0  0  0  0  0  0  0  0  0  0
  129.6160  129.0620   59.3750 C   0  0  1  0  0  0  0  0  0  0  0  0
  130.2750  130.2490   60.0930 C   0  0  0  0  0  0  0  0  0  0  0  0
  131.5020  130.6890   59.9200 N   0  0  0  0  0  0  0  0  0  0  0  0
  131.6520  131.7560   60.8010 N   0  0  0  0  0  0  0  0  0  0  0  0
  130.4910  131.9390   61.5260 N   0  0  0  0  0  0  0  0  0  0  0  0
  129.6650  130.9820   61.0890 N   0  0  0  0  0  0  0  0  0  0  0  0
  128.3070  130.8860   61.6090 C   0  0  0  0  0  0  0  0  0  0  0  0
  127.8540  132.2450   62.1760 C   0  0  0  0  0  0  0  0  0  0  0  0
  126.4540  132.6220   61.7180 C   0  0  0  0  0  0  0  0  0  0  0  0
  126.2420  133.8240   61.0370 C   0  0  0  0  0  0  0  0  0  0  0  0
  124.9590  134.1710   60.6250 C   0  0  0  0  0  0  0  0  0  0  0  0
  123.8920  133.3150   60.8940 C   0  0  0  0  0  0  0  0  0  0  0  0
  124.0970  132.1170   61.5730 C   0  0  0  0  0  0  0  0  0  0  0  0
  125.3800  131.7680   61.9860 C   0  0  0  0  0  0  0  0  0  0  0  0
  129.7670  127.7930   60.1260 N   0  0  0  0  0  0  0  0  0  0  0  0
  129.8060  128.0520   61.5770 C   0  0  0  0  0  0  0  0  0  0  0  0
  129.8300  126.7260   62.3720 C   0  0  0  0  0  0  0  0  0  0  0  0
  131.0280  125.9400   62.0350 N   0  0  0  0  0  0  0  0  0  0  0  0
  131.1340  124.6970   62.8340 C   0  0  1  0  0  0  0  0  0  0  0  0
  131.3300  123.3980   62.0220 C   0  0  0  0  0  0  0  0  0  0  0  0
  132.6370  122.9020   61.9130 C   0  0  0  0  0  0  0  0  0  0  0  0
  132.9060  121.7260   61.2130 C   0  0  0  0  0  0  0  0  0  0  0  0
  131.8670  121.0280   60.6050 C   0  0  0  0  0  0  0  0  0  0  0  0
  130.5640  121.5120   60.6870 C   0  0  0  0  0  0  0  0  0  0  0  0
  130.2850  122.6920   61.3820 C   0  0  0  0  0  0  0  0  0  0  0  0
  128.6440  123.2470   61.3690 Cl  0  0  0  0  0  0  0  0  0  0  0  0
  132.1820  124.7850   63.9460 C   0  0  0  0  0  0  0  0  0  0  0  0
  133.4640  124.5380   63.8060 N   0  0  0  0  0  0  0  0  0  0  0  0
  134.0340  124.7570   65.0560 N   0  0  0  0  0  0  0  0  0  0  0  0
  133.0660  125.1580   65.9540 N   0  0  0  0  0  0  0  0  0  0  0  0
  131.9340  125.1890   65.2410 N   0  0  0  0  0  0  0  0  0  0  0  0
  130.6760  125.5560   65.8830 C   0  0  0  0  0  0  0  0  0  0  0  0
  130.8240  126.8960   66.6260 C   0  0  0  0  0  0  0  0  0  0  0  0
  129.7540  127.0830   67.6910 C   0  0  0  0  0  0  0  0  0  0  0  0
  130.1200  127.2000   69.0340 C   0  0  0  0  0  0  0  0  0  0  0  0
  129.1410  127.3780   70.0080 C   0  0  0  0  0  0  0  0  0  0  0  0
  127.7990  127.4380   69.6350 C   0  0  0  0  0  0  0  0  0  0  0  0
  127.4290  127.3230   68.2960 C   0  0  0  0  0  0  0  0  0  0  0  0
  128.4070  127.1460   67.3220 C   0  0  0  0  0  0  0  0  0  0  0  0
  130.9830  125.6780   60.5850 C   0  0  0  0  0  0  0  0  0  0  0  0
  130.9690  127.0080   59.7960 C   0  0  0  0  0  0  0  0  0  0  0  0
  126.2541  131.5681   57.1620 H   0  0  0  0  0  0  0  0  0  0  0  0
  124.4240  130.1951   58.1391 H   0  0  0  0  0  0  0  0  0  0  0  0
  124.9665  128.3106   59.6798 H   0  0  0  0  0  0  0  0  0  0  0  0
  127.3352  127.8014   60.2365 H   0  0  0  0  0  0  0  0  0  0  0  0
  130.1548  128.9009   58.4296 H   0  0  0  0  0  0  0  0  0  0  0  0
  127.6278  130.5871   60.7970 H   0  0  0  0  0  0  0  0  0  0  0  0
  128.2844  130.1370   62.4143 H   0  0  0  0  0  0  0  0  0  0  0  0
  127.8646  132.1915   63.2746 H   0  0  0  0  0  0  0  0  0  0  0  0
  128.5484  133.0134   61.8052 H   0  0  0  0  0  0  0  0  0  0  0  0
  127.0882  134.4947   60.8270 H   0  0  0  0  0  0  0  0  0  0  0  0
  124.7874  135.1164   60.0895 H   0  0  0  0  0  0  0  0  0  0  0  0
  122.8782  133.5888   60.5666 H   0  0  0  0  0  0  0  0  0  0  0  0
  123.2487  131.4488   61.7824 H   0  0  0  0  0  0  0  0  0  0  0  0
  125.5483  130.8223   62.5220 H   0  0  0  0  0  0  0  0  0  0  0  0
  130.7099  128.6317   61.8155 H   0  0  0  0  0  0  0  0  0  0  0  0
  128.9040  128.6152   61.8586 H   0  0  0  0  0  0  0  0  0  0  0  0
  129.8363  126.9505   63.4488 H   0  0  0  0  0  0  0  0  0  0  0  0
  128.9368  126.1399   62.1100 H   0  0  0  0  0  0  0  0  0  0  0  0
  130.1360  124.6222   63.2906 H   0  0  0  0  0  0  0  0  0  0  0  0
  133.4644  123.4498   62.3877 H   0  0  0  0  0  0  0  0  0  0  0  0
  133.9376  121.3510   61.1417 H   0  0  0  0  0  0  0  0  0  0  0  0
  132.0748  120.0952   60.0604 H   0  0  0  0  0  0  0  0  0  0  0  0
  129.7464  120.9603   60.2001 H   0  0  0  0  0  0  0  0  0  0  0  0
  129.8923  125.6509   65.1170 H   0  0  0  0  0  0  0  0  0  0  0  0
  130.4036  124.7743   66.6075 H   0  0  0  0  0  0  0  0  0  0  0  0
  131.8125  126.9269   67.1076 H   0  0  0  0  0  0  0  0  0  0  0  0
  130.7125  127.7051   65.8892 H   0  0  0  0  0  0  0  0  0  0  0  0
  131.1806  127.1516   69.3218 H   0  0  0  0  0  0  0  0  0  0  0  0
  129.4251  127.4708   71.0666 H   0  0  0  0  0  0  0  0  0  0  0  0
  127.0252  127.5773   70.4043 H   0  0  0  0  0  0  0  0  0  0  0  0
  126.3679  127.3720   68.0103 H   0  0  0  0  0  0  0  0  0  0  0  0
  128.1208  127.0558   66.2637 H   0  0  0  0  0  0  0  0  0  0  0  0
  131.8688  125.0939   60.2947 H   0  0  0  0  0  0  0  0  0  0  0  0
  130.0663  125.1161   60.3526 H   0  0  0  0  0  0  0  0  0  0  0  0
  131.8646  127.5917   60.0552 H   0  0  0  0  0  0  0  0  0  0  0  0
  130.9610  126.7821   58.7195 H   0  0  0  0  0  0  0  0  0  0  0  0
  1  2  1  0
  2  3  2  0
  3  4  1  0
  4  5  2  0
  5  6  1  0
  6  7  2  0
  7  8  1  0
  8  9  1  0
  9 10  2  0
 10 11  1  0
 11 12  2  0
 12 13  1  0
 13 14  1  0
 14 15  1  0
 15 16  1  0
 16 17  2  0
 17 18  1  0
 18 19  2  0
 19 20  1  0
 20 21  2  0
  8 22  1  0
 22 23  1  0
 23 24  1  0
 24 25  1  0
 25 26  1  0
 26 27  1  0
 27 28  2  0
 28 29  1  0
 29 30  2  0
 30 31  1  0
 31 32  2  0
 32 33  1  0
 26 34  1  0
 34 35  2  0
 35 36  1  0
 36 37  2  0
 37 38  1  0
 38 39  1  0
 39 40  1  0
 40 41  1  0
 41 42  2  0
 42 43  1  0
 43 44  2  0
 44 45  1  0
 45 46  2  0
 25 47  1  0
 47 48  1  0
  7  2  1  0
 13  9  1  0
 21 16  1  0
 48 22  1  0
 32 27  1  0
 38 34  1  0
 46 41  1  0
  3 49  1  0
  4 50  1  0
  5 51  1  0
  6 52  1  0
  8 53  1  6
 14 54  1  0
 14 55  1  0
 15 56  1  0
 15 57  1  0
 17 58  1  0
 18 59  1  0
 19 60  1  0
 20 61  1  0
 21 62  1  0
 23 63  1  0
 23 64  1  0
 24 65  1  0
 24 66  1  0
 26 67  1  1
 28 68  1  0
 29 69  1  0
 30 70  1  0
 31 71  1  0
 39 72  1  0
 39 73  1  0
 40 74  1  0
 40 75  1  0
 42 76  1  0
 43 77  1  0
 44 78  1  0
 45 79  1  0
 46 80  1  0
 47 81  1  0
 47 82  1  0
 48 83  1  0
 48 84  1  0
M  END
>  <Binding energies>  (1) 
[-13.59]

>  <Ligand effiencies>  (1) 
[-0.283125]

>  <Interactions>  (1) 
["H-A:GLY:454:N:4048, V-A:GLU:543:CD:4906, V-A:ASP:366:CG:3211, V-B:GLU:543:CG:9879, V-A:HIS:456:CE1:4068, V-B:TYR:539:CE2:9848, V-A:ARG:545:CG:4920, V-B:GLU:543:CD:9880, V-B:GLU:543:CB:9878, V-A:ARG:545:CZ:4924, V-B:GLU:543:C:9874, V-B:ASP:366:CB:8184, V-B:ASP:366:CG:8185, V-B:TYR:539:CD2:9846, V-B:ALA:541:CB:9864, V-A:TYR:539:CE2:4874, V-A:TYR:539:CD2:4872, V-A:TYR:484:CZ:4345, V-A:LEU:475:CD2:4257, V-B:LEU:475:CD2:9231, V-A:ALA:541:CB:4890, H-A:TYR:484:OH:4346, H-A:ARG:545:NH2:4926, V-B:ILE:369:CD1:8211, V-B:ILE:369:CG2:8209, V-A:TYR:539:CZ:4875, V-B:HIS:456:CE1:9042, H-A:ALA:541:N:4889, V-B:ARG:545:CG:9894, H-A:ARG:545:NE:4922, V-A:GLU:543:CG:4905, V-B:TRP:381:CH2:8344, V-B:GLY:544:C:9884, H-A:HIS:456:ND1:4065"]

$$$$
RR14_Rahimova_2017
     RDKit          3D

 76 80  0  0  0  0  0  0  0  0999 V2000
  124.9090  129.7760   65.1840 C   0  0  0  0  0  0  0  0  0  0  0  0
  124.5210  130.5420   64.0490 O   0  0  0  0  0  0  0  0  0  0  0  0
  125.4290  130.7380   63.0270 C   0  0  0  0  0  0  0  0  0  0  0  0
  126.0410  129.5950   62.5110 C   0  0  0  0  0  0  0  0  0  0  0  0
  126.9870  129.6950   61.4960 C   0  0  0  0  0  0  0  0  0  0  0  0
  127.3360  130.9490   60.9880 C   0  0  0  0  0  0  0  0  0  0  0  0
  128.4190  131.0680   59.9220 C   0  0  0  0  0  0  0  0  0  0  0  0
  129.7750  131.0250   60.4680 N   0  0  0  0  0  0  0  0  0  0  0  0
  130.1420  131.8730   61.4360 N   0  0  0  0  0  0  0  0  0  0  0  0
  131.4680  131.5740   61.6810 N   0  0  0  0  0  0  0  0  0  0  0  0
  131.8890  130.5450   60.8440 N   0  0  0  0  0  0  0  0  0  0  0  0
  130.8460  130.2330   60.1120 C   0  0  0  0  0  0  0  0  0  0  0  0
  130.8250  129.1670   59.0250 C   0  0  0  0  0  0  0  0  0  0  0  0
  130.8040  127.8020   59.5750 N   0  0  0  0  0  0  0  0  0  0  0  0
  129.7210  127.6190   60.5500 C   0  0  0  0  0  0  0  0  0  0  0  0
  130.2260  127.3590   61.9860 C   0  0  0  0  0  0  0  0  0  0  0  0
  129.9570  125.9240   62.4870 C   0  0  0  0  0  0  0  0  0  0  0  0
  131.1710  125.2230   62.9170 N   0  0  0  0  0  0  0  0  0  0  0  0
  131.5990  125.7050   64.2360 C   0  0  0  0  0  0  0  0  0  0  0  0
  132.9050  125.0230   64.6960 C   0  0  0  0  0  0  0  0  0  0  0  0
  133.9160  125.1860   63.7070 O   0  0  0  0  0  0  0  0  0  0  0  0
  133.5450  124.6160   62.4580 C   0  0  0  0  0  0  0  0  0  0  0  0
  132.2590  125.2870   61.9290 C   0  0  0  0  0  0  0  0  0  0  0  0
  130.6890  126.8200   58.4870 C   0  0  0  0  0  0  0  0  0  0  0  0
  130.9310  125.3620   58.8710 C   0  0  0  0  0  0  0  0  0  0  0  0
  129.9960  124.6520   59.5490 C   0  0  0  0  0  0  0  0  0  0  0  0
  130.2220  123.2540   59.9680 C   0  0  0  0  0  0  0  0  0  0  0  0
  129.2680  122.4830   60.6540 C   0  0  0  0  0  0  0  0  0  0  0  0
  127.9020  123.0470   61.0230 C   0  0  0  0  0  0  0  0  0  0  0  0
  129.5810  121.1660   61.0020 C   0  0  0  0  0  0  0  0  0  0  0  0
  130.8210  120.6190   60.6750 C   0  0  0  0  0  0  0  0  0  0  0  0
  131.7750  121.3770   59.9910 C   0  0  0  0  0  0  0  0  0  0  0  0
  133.1200  120.7500   59.6470 C   0  0  0  0  0  0  0  0  0  0  0  0
  131.4720  122.7000   59.6360 C   0  0  0  0  0  0  0  0  0  0  0  0
  132.4050  123.5040   58.9480 N   0  0  0  0  0  0  0  0  0  0  0  0
  132.2420  124.7890   58.5450 C   0  0  0  0  0  0  0  0  0  0  0  0
  133.1510  125.3810   57.9630 O   0  0  0  0  0  0  0  0  0  0  0  0
  126.7070  132.0960   61.4760 C   0  0  0  0  0  0  0  0  0  0  0  0
  125.7620  131.9940   62.4920 C   0  0  0  0  0  0  0  0  0  0  0  0
  124.6352  130.3165   66.1021 H   0  0  0  0  0  0  0  0  0  0  0  0
  124.3946  128.8039   65.1636 H   0  0  0  0  0  0  0  0  0  0  0  0
  125.9970  129.6156   65.1636 H   0  0  0  0  0  0  0  0  0  0  0  0
  125.7729  128.6058   62.9105 H   0  0  0  0  0  0  0  0  0  0  0  0
  127.4601  128.7872   61.0935 H   0  0  0  0  0  0  0  0  0  0  0  0
  128.3022  130.2366   59.2113 H   0  0  0  0  0  0  0  0  0  0  0  0
  128.2935  132.0477   59.4379 H   0  0  0  0  0  0  0  0  0  0  0  0
  129.9273  129.3119   58.4061 H   0  0  0  0  0  0  0  0  0  0  0  0
  131.7459  129.2749   58.4331 H   0  0  0  0  0  0  0  0  0  0  0  0
  129.1013  128.5278   60.5575 H   0  0  0  0  0  0  0  0  0  0  0  0
  129.1518  126.7302   60.2401 H   0  0  0  0  0  0  0  0  0  0  0  0
  131.3111  127.5379   62.0104 H   0  0  0  0  0  0  0  0  0  0  0  0
  129.6737  128.0405   62.6498 H   0  0  0  0  0  0  0  0  0  0  0  0
  129.2634  125.9759   63.3392 H   0  0  0  0  0  0  0  0  0  0  0  0
  129.5353  125.3579   61.6434 H   0  0  0  0  0  0  0  0  0  0  0  0
  131.7636  126.7913   64.1825 H   0  0  0  0  0  0  0  0  0  0  0  0
  130.8102  125.4615   64.9630 H   0  0  0  0  0  0  0  0  0  0  0  0
  133.2413  125.4792   65.6388 H   0  0  0  0  0  0  0  0  0  0  0  0
  132.7174  123.9495   64.8459 H   0  0  0  0  0  0  0  0  0  0  0  0
  134.3586  124.7670   61.7333 H   0  0  0  0  0  0  0  0  0  0  0  0
  133.3597  123.5403   62.5943 H   0  0  0  0  0  0  0  0  0  0  0  0
  132.4738  126.3416   61.7018 H   0  0  0  0  0  0  0  0  0  0  0  0
  131.9362  124.7492   61.0253 H   0  0  0  0  0  0  0  0  0  0  0  0
  129.6727  126.8944   58.0729 H   0  0  0  0  0  0  0  0  0  0  0  0
  131.4865  127.0743   57.7733 H   0  0  0  0  0  0  0  0  0  0  0  0
  129.0378  125.1329   59.7950 H   0  0  0  0  0  0  0  0  0  0  0  0
  127.8054  123.0869   62.1180 H   0  0  0  0  0  0  0  0  0  0  0  0
  127.7998  124.0609   60.6087 H   0  0  0  0  0  0  0  0  0  0  0  0
  127.1143  122.4005   60.6087 H   0  0  0  0  0  0  0  0  0  0  0  0
  128.8412  120.5547   61.5395 H   0  0  0  0  0  0  0  0  0  0  0  0
  131.0505  119.5811   60.9581 H   0  0  0  0  0  0  0  0  0  0  0  0
  133.6560  120.5001   60.5745 H   0  0  0  0  0  0  0  0  0  0  0  0
  132.9581  119.8345   59.0590 H   0  0  0  0  0  0  0  0  0  0  0  0
  133.7171  121.4626   59.0590 H   0  0  0  0  0  0  0  0  0  0  0  0
  133.3030  123.1050   58.7230 H   0  0  0  0  0  0  0  0  0  0  0  0
  126.9588  133.0813   61.0568 H   0  0  0  0  0  0  0  0  0  0  0  0
  125.2733  132.9006   62.8782 H   0  0  0  0  0  0  0  0  0  0  0  0
  1  2  1  0
  2  3  1  0
  3  4  2  0
  4  5  1  0
  5  6  2  0
  6  7  1  0
  7  8  1  0
  8  9  1  0
  9 10  2  0
 10 11  1  0
 11 12  2  0
 12 13  1  0
 13 14  1  0
 14 15  1  0
 15 16  1  0
 16 17  1  0
 17 18  1  0
 18 19  1  0
 19 20  1  0
 20 21  1  0
 21 22  1  0
 22 23  1  0
 14 24  1  0
 24 25  1  0
 25 26  2  0
 26 27  1  0
 27 28  2  0
 28 29  1  0
 28 30  1  0
 30 31  2  0
 31 32  1  0
 32 33  1  0
 32 34  2  0
 34 35  1  0
 35 36  1  0
 36 37  2  0
  6 38  1  0
 38 39  2  0
 39  3  1  0
 12  8  1  0
 23 18  1  0
 36 25  1  0
 34 27  1  0
  1 40  1  0
  1 41  1  0
  1 42  1  0
  4 43  1  0
  5 44  1  0
  7 45  1  0
  7 46  1  0
 13 47  1  0
 13 48  1  0
 15 49  1  0
 15 50  1  0
 16 51  1  0
 16 52  1  0
 17 53  1  0
 17 54  1  0
 19 55  1  0
 19 56  1  0
 20 57  1  0
 20 58  1  0
 22 59  1  0
 22 60  1  0
 23 61  1  0
 23 62  1  0
 24 63  1  0
 24 64  1  0
 26 65  1  0
 29 66  1  0
 29 67  1  0
 29 68  1  0
 30 69  1  0
 31 70  1  0
 33 71  1  0
 33 72  1  0
 33 73  1  0
 35 74  1  0
 38 75  1  0
 39 76  1  0
M  END
>  <Binding energies>  (1) 
[-8.4]

>  <Ligand effiencies>  (1) 
[-0.21000000000000002]

>  <Interactions>  (1) 
["H-A:GLY:454:N:4048, V-A:GLU:543:CD:4906, V-A:ASP:366:CG:3211, H-B:TYR:539:OH:9850, V-A:ASP:366:CB:3210, V-B:TYR:539:CE2:9848, V-A:ARG:545:CD:4921, V-A:GLY:453:CA:4042, V-A:ILE:369:CG2:3235, V-B:GLU:543:CD:9880, V-A:ARG:545:CZ:4924, V-B:PRO:540:C:9853, V-B:TYR:539:CD2:9846, V-B:PRO:540:CA:9855, V-B:TYR:539:CZ:9849, V-B:ALA:541:CB:9864, V-A:LEU:475:CD2:4257, H-B:GLY:454:N:9022, H-B:TYR:484:OH:9320, V-B:ARG:545:CZ:9898, H-A:ARG:545:NH2:4926, H-A:ALA:541:N:4889, H-A:ARG:545:NE:4922, V-A:TRP:381:CH2:3370, V-B:ARG:545:CD:9895, V-B:ALA:541:CA:9862, H-A:ARG:545:NH1:4925"]

$$$$
RR15_Rahimova_2017
     RDKit          3D

 85 89  0  0  0  0  0  0  0  0999 V2000
  126.8230  128.2520   74.3150 C   0  0  0  0  0  0  0  0  0  0  0  0
  128.1330  127.7530   74.0680 O   0  0  0  0  0  0  0  0  0  0  0  0
  128.5830  127.6330   72.7640 C   0  0  0  0  0  0  0  0  0  0  0  0
  127.9180  128.1860   71.6590 C   0  0  0  0  0  0  0  0  0  0  0  0
  128.4240  128.0260   70.3710 C   0  0  0  0  0  0  0  0  0  0  0  0
  129.6040  127.3090   70.1490 C   0  0  0  0  0  0  0  0  0  0  0  0
  130.1460  127.1310   68.7580 C   0  0  0  0  0  0  0  0  0  0  0  0
  131.2040  127.7910   68.3070 N   0  0  0  0  0  0  0  0  0  0  0  0
  131.3890  127.3730   67.0050 N   0  0  0  0  0  0  0  0  0  0  0  0
  130.4290  126.4640   66.8280 N   0  0  0  0  0  0  0  0  0  0  0  0
  130.1530  125.8740   65.5200 C   0  0  0  0  0  0  0  0  0  0  0  0
  131.3950  125.3040   64.7890 C   0  0  0  0  0  0  0  0  0  0  0  0
  132.4270  125.1350   65.4410 O   0  0  0  0  0  0  0  0  0  0  0  0
  131.3100  124.9780   63.4630 N   0  0  0  0  0  0  0  0  0  0  0  0
  130.7120  123.7010   63.0230 C   0  0  0  0  0  0  0  0  0  0  0  0
  129.8110  123.8380   61.7770 C   0  0  0  0  0  0  0  0  0  0  0  0
  129.0890  122.5370   61.3520 C   0  0  0  0  0  0  0  0  0  0  0  0
  129.9510  121.5900   60.6380 N   0  0  0  0  0  0  0  0  0  0  0  0
  131.3880  121.8480   60.8230 C   0  0  0  0  0  0  0  0  0  0  0  0
  132.2490  120.7750   60.1230 C   0  0  0  0  0  0  0  0  0  0  0  0
  131.8730  119.4760   60.5670 O   0  0  0  0  0  0  0  0  0  0  0  0
  130.5060  119.1840   60.2950 C   0  0  0  0  0  0  0  0  0  0  0  0
  129.5970  120.2120   61.0030 C   0  0  0  0  0  0  0  0  0  0  0  0
  131.6220  125.9370   62.3590 C   0  0  2  0  0  0  0  0  0  0  0  0
  130.4670  126.9350   62.0360 C   0  0  0  0  0  0  0  0  0  0  0  0
  130.6870  127.9920   61.4460 O   0  0  0  0  0  0  0  0  0  0  0  0
  129.2360  126.5390   62.4070 N   0  0  0  0  0  0  0  0  0  0  0  0
  127.9980  127.2550   62.1210 C   0  0  0  0  0  0  0  0  0  0  0  0
  127.4940  126.9480   60.6980 C   0  0  2  0  0  0  0  0  0  0  0  0
  126.3540  125.9180   60.6100 C   0  0  0  0  0  0  0  0  0  0  0  0
  127.0320  124.6380   60.1870 C   0  0  0  0  0  0  0  0  0  0  0  0
  128.1460  125.1670   59.3010 C   0  0  0  0  0  0  0  0  0  0  0  0
  128.5860  126.3180   60.0150 O   0  0  0  0  0  0  0  0  0  0  0  0
  132.2720  125.2120   61.1850 C   0  0  0  0  0  0  0  0  0  0  0  0
  133.3710  124.3860   61.4470 C   0  0  0  0  0  0  0  0  0  0  0  0
  134.0050  123.7010   60.4150 C   0  0  0  0  0  0  0  0  0  0  0  0
  133.5410  123.8350   59.1090 C   0  0  0  0  0  0  0  0  0  0  0  0
  134.1550  123.1680   58.1060 F   0  0  0  0  0  0  0  0  0  0  0  0
  132.4480  124.6510   58.8300 C   0  0  0  0  0  0  0  0  0  0  0  0
  131.8160  125.3370   59.8630 C   0  0  0  0  0  0  0  0  0  0  0  0
  129.6100  126.3100   67.8750 N   0  0  0  0  0  0  0  0  0  0  0  0
  130.2670  126.7610   71.2550 C   0  0  0  0  0  0  0  0  0  0  0  0
  129.7710  126.9160   72.5610 C   0  0  0  0  0  0  0  0  0  0  0  0
  130.3910  126.3960   73.6840 O   0  0  0  0  0  0  0  0  0  0  0  0
  131.7760  126.0740   73.6370 C   0  0  0  0  0  0  0  0  0  0  0  0
  126.6537  128.3165   75.4000 H   0  0  0  0  0  0  0  0  0  0  0  0
  126.7212  129.2519   73.8679 H   0  0  0  0  0  0  0  0  0  0  0  0
  126.0818  127.5733   73.8679 H   0  0  0  0  0  0  0  0  0  0  0  0
  126.9871  128.7519   71.8115 H   0  0  0  0  0  0  0  0  0  0  0  0
  127.8889  128.4690   69.5181 H   0  0  0  0  0  0  0  0  0  0  0  0
  129.4321  125.0549   65.6593 H   0  0  0  0  0  0  0  0  0  0  0  0
  129.7683  126.6880   64.8881 H   0  0  0  0  0  0  0  0  0  0  0  0
  131.5254  122.9985   62.7886 H   0  0  0  0  0  0  0  0  0  0  0  0
  130.0743  123.3431   63.8447 H   0  0  0  0  0  0  0  0  0  0  0  0
  129.0465  124.5998   61.9896 H   0  0  0  0  0  0  0  0  0  0  0  0
  130.4749  124.1102   60.9432 H   0  0  0  0  0  0  0  0  0  0  0  0
  128.7040  122.0424   62.2560 H   0  0  0  0  0  0  0  0  0  0  0  0
  128.2866  122.8271   60.6578 H   0  0  0  0  0  0  0  0  0  0  0  0
  131.6317  122.8338   60.4002 H   0  0  0  0  0  0  0  0  0  0  0  0
  131.6084  121.8192   61.9003 H   0  0  0  0  0  0  0  0  0  0  0  0
  132.1016  120.8439   59.0351 H   0  0  0  0  0  0  0  0  0  0  0  0
  133.3070  120.9464   60.3704 H   0  0  0  0  0  0  0  0  0  0  0  0
  130.3323  119.2302   59.2098 H   0  0  0  0  0  0  0  0  0  0  0  0
  130.2704  118.1760   60.6672 H   0  0  0  0  0  0  0  0  0  0  0  0
  128.5525  120.0234   60.7139 H   0  0  0  0  0  0  0  0  0  0  0  0
  129.7312  120.0989   62.0889 H   0  0  0  0  0  0  0  0  0  0  0  0
  132.3920  126.6397   62.7102 H   0  0  0  0  0  0  0  0  0  0  0  0
  129.1350  125.6440   62.8620 H   0  0  0  0  0  0  0  0  0  0  0  0
  127.2305  126.9494   62.8474 H   0  0  0  0  0  0  0  0  0  0  0  0
  128.1943  128.3347   62.1960 H   0  0  0  0  0  0  0  0  0  0  0  0
  127.1291  127.9016   60.2888 H   0  0  0  0  0  0  0  0  0  0  0  0
  125.8656  125.7943   61.5878 H   0  0  0  0  0  0  0  0  0  0  0  0
  125.5661  126.2257   59.9068 H   0  0  0  0  0  0  0  0  0  0  0  0
  127.4324  124.0898   61.0526 H   0  0  0  0  0  0  0  0  0  0  0  0
  126.3646  123.9192   59.6891 H   0  0  0  0  0  0  0  0  0  0  0  0
  128.9557  124.4297   59.1973 H   0  0  0  0  0  0  0  0  0  0  0  0
  127.8226  125.3855   58.2726 H   0  0  0  0  0  0  0  0  0  0  0  0
  133.7371  124.2773   62.4786 H   0  0  0  0  0  0  0  0  0  0  0  0
  134.8697  123.0559   60.6301 H   0  0  0  0  0  0  0  0  0  0  0  0
  132.0851  124.7532   57.7966 H   0  0  0  0  0  0  0  0  0  0  0  0
  130.9528  125.9820   59.6420 H   0  0  0  0  0  0  0  0  0  0  0  0
  131.1977  126.1961   71.0975 H   0  0  0  0  0  0  0  0  0  0  0  0
  132.1663  125.9833   74.6614 H   0  0  0  0  0  0  0  0  0  0  0  0
  131.9129  125.1201   73.1066 H   0  0  0  0  0  0  0  0  0  0  0  0
  132.3196  126.8697   73.1066 H   0  0  0  0  0  0  0  0  0  0  0  0
  1  2  1  0
  2  3  1  0
  3  4  2  0
  4  5  1  0
  5  6  2  0
  6  7  1  0
  7  8  1  0
  8  9  2  0
  9 10  1  0
 10 11  1  0
 11 12  1  0
 12 13  2  0
 12 14  1  0
 14 15  1  0
 15 16  1  0
 16 17  1  0
 17 18  1  0
 18 19  1  0
 19 20  1  0
 20 21  1  0
 21 22  1  0
 22 23  1  0
 14 24  1  0
 24 25  1  0
 25 26  2  0
 25 27  1  0
 27 28  1  0
 28 29  1  0
 29 30  1  0
 30 31  1  0
 31 32  1  0
 32 33  1  0
 24 34  1  0
 34 35  2  0
 35 36  1  0
 36 37  2  0
 37 38  1  0
 37 39  1  0
 39 40  2  0
 10 41  1  0
  6 42  1  0
 42 43  2  0
 43 44  1  0
 44 45  1  0
 43  3  1  0
 41  7  2  0
 23 18  1  0
 33 29  1  0
 40 34  1  0
  1 46  1  0
  1 47  1  0
  1 48  1  0
  4 49  1  0
  5 50  1  0
 11 51  1  0
 11 52  1  0
 15 53  1  0
 15 54  1  0
 16 55  1  0
 16 56  1  0
 17 57  1  0
 17 58  1  0
 19 59  1  0
 19 60  1  0
 20 61  1  0
 20 62  1  0
 22 63  1  0
 22 64  1  0
 23 65  1  0
 23 66  1  0
 24 67  1  1
 27 68  1  0
 28 69  1  0
 28 70  1  0
 29 71  1  6
 30 72  1  0
 30 73  1  0
 31 74  1  0
 31 75  1  0
 32 76  1  0
 32 77  1  0
 35 78  1  0
 36 79  1  0
 39 80  1  0
 40 81  1  0
 42 82  1  0
 45 83  1  0
 45 84  1  0
 45 85  1  0
M  END
>  <Binding energies>  (1) 
[-9.43]

>  <Ligand effiencies>  (1) 
[-0.205]

>  <Interactions>  (1) 
["V-A:GLU:543:CD:4906, V-A:ASP:366:CG:3211, V-B:GLU:543:CG:9879, V-A:HIS:456:CE1:4068, V-A:ASP:366:CB:3210, V-A:ILE:369:CB:3234, V-B:TYR:539:CE2:9848, V-A:ILE:369:CD1:3237, V-A:ILE:369:CG2:3235, V-B:GLU:543:CD:9880, V-B:GLU:543:CB:9878, V-A:ARG:545:CZ:4924, V-A:ASP:366:CA:3208, V-A:HIS:456:CD2:4066, V-B:LYS:547:CE:9922, V-B:ASP:366:CG:8185, V-B:TYR:539:CD2:9846, V-B:TYR:539:CZ:9849, V-B:ALA:541:CB:9864, V-A:LEU:475:CD2:4257, H-B:GLU:543:OE1:9881, H-A:TYR:484:OH:4346, H-A:ARG:545:NH2:4926, H-B:GLU:543:OE2:9882, V-B:HIS:456:CE1:9042, H-A:ARG:545:NE:4922, V-A:PRO:482:CG:4325, V-A:TRP:381:CZ2:3368, V-A:PRO:482:CB:4324, V-A:TRP:381:CH2:3370, V-B:HIS:456:CG:9038, H-B:LYS:547:NZ:9923, H-A:LYS:547:NZ:4949, V-A:GLY:544:C:4910, V-B:HIS:456:CD2:9040, V-B:GLY:544:C:9884, V-A:HIS:456:CB:4063, V-A:HIS:456:CG:4064, V-B:ALA:541:CA:9862, V-A:ILE:369:CG1:3236, V-B:LYS:547:CD:9921, H-A:ARG:545:N:4918, V-A:TRP:381:CZ3:3369"]

$$$$
RR16_Rahimova_2017
     RDKit          3D

 80 85  0  0  0  0  0  0  0  0999 V2000
  130.6940  123.9820   66.0280 O   0  0  0  0  0  0  0  0  0  0  0  0
  131.5920  124.9450   65.3810 S   0  0  0  0  0  0  0  0  0  0  0  0
  133.0480  124.8290   65.5210 O   0  0  0  0  0  0  0  0  0  0  0  0
  131.1160  126.5580   65.9150 N   0  0  0  0  0  0  0  0  0  0  0  0
  130.3330  126.7480   67.1590 C   0  0  0  0  0  0  0  0  0  0  0  0
  131.1530  127.6140   68.1500 C   0  0  0  0  0  0  0  0  0  0  0  0
  130.9050  127.3940   69.6550 C   0  0  0  0  0  0  0  0  0  0  0  0
  129.4720  126.9480   69.9930 C   0  0  0  0  0  0  0  0  0  0  0  0
  128.3440  127.7330   69.2980 C   0  0  0  0  0  0  0  0  0  0  0  0
  127.8920  127.2390   67.9100 C   0  0  0  0  0  0  0  0  0  0  0  0
  128.9390  127.3010   66.7810 C   0  0  0  0  0  0  0  0  0  0  0  0
  131.2040  124.9220   63.6340 C   0  0  0  0  0  0  0  0  0  0  0  0
  131.4570  126.0440   62.8410 C   0  0  0  0  0  0  0  0  0  0  0  0
  131.0390  126.0570   61.5140 C   0  0  0  0  0  0  0  0  0  0  0  0
  130.3710  124.9510   60.9850 C   0  0  0  0  0  0  0  0  0  0  0  0
  129.7080  125.0200   59.3230 S   0  0  0  0  0  0  0  0  0  0  0  0
  128.8590  123.8360   59.1390 O   0  0  0  0  0  0  0  0  0  0  0  0
  130.8300  125.2760   58.4110 O   0  0  0  0  0  0  0  0  0  0  0  0
  128.6650  126.4560   59.3310 N   0  0  0  0  0  0  0  0  0  0  0  0
  128.5830  127.1640   58.0270 C   0  0  0  0  0  0  0  0  0  0  0  0
  127.9240  128.5480   58.2050 C   0  0  0  0  0  0  0  0  0  0  0  0
  126.5560  128.4440   58.9240 C   0  0  0  0  0  0  0  0  0  0  0  0
  125.9070  129.8110   59.1520 C   0  0  0  0  0  0  0  0  0  0  0  0
  124.5670  130.0140   58.7910 C   0  0  0  0  0  0  0  0  0  0  0  0
  123.9330  131.2420   58.9870 C   0  0  0  0  0  0  0  0  0  0  0  0
  122.6210  131.4200   58.6310 O   0  0  0  0  0  0  0  0  0  0  0  0
  124.6730  132.2850   59.5640 C   0  0  0  0  0  0  0  0  0  0  0  0
  124.3190  133.5630   59.8870 N   0  0  0  0  0  0  0  0  0  0  0  0
  125.4180  134.1650   60.4610 N   0  0  0  0  0  0  0  0  0  0  0  0
  126.4390  133.2860   60.4490 N   0  0  0  0  0  0  0  0  0  0  0  0
  127.7090  133.6300   61.0760 C   0  0  0  0  0  0  0  0  0  0  0  0
  128.8230  132.6570   60.7160 C   0  0  0  0  0  0  0  0  0  0  0  0
  129.3890  131.8420   61.7030 C   0  0  0  0  0  0  0  0  0  0  0  0
  130.3950  130.9340   61.3720 C   0  0  0  0  0  0  0  0  0  0  0  0
  130.8400  130.8330   60.0540 C   0  0  0  0  0  0  0  0  0  0  0  0
  130.2780  131.6410   59.0650 C   0  0  0  0  0  0  0  0  0  0  0  0
  130.8180  131.5130   57.4310 Cl  0  0  0  0  0  0  0  0  0  0  0  0
  129.2740  132.5540   59.3960 C   0  0  0  0  0  0  0  0  0  0  0  0
  126.0260  132.0750   59.9190 C   0  0  0  0  0  0  0  0  0  0  0  0
  126.6650  130.8460   59.7190 C   0  0  0  0  0  0  0  0  0  0  0  0
  126.6350  127.5930   60.2190 C   0  0  0  0  0  0  0  0  0  0  0  0
  127.3450  126.2460   59.9790 C   0  0  0  0  0  0  0  0  0  0  0  0
  130.1550  123.8140   61.7680 C   0  0  0  0  0  0  0  0  0  0  0  0
  130.5700  123.8020   63.0950 C   0  0  0  0  0  0  0  0  0  0  0  0
  131.7130  127.3380   65.6270 H   0  0  0  0  0  0  0  0  0  0  0  0
  130.1463  125.8039   67.6918 H   0  0  0  0  0  0  0  0  0  0  0  0
  132.2180  127.4161   67.9584 H   0  0  0  0  0  0  0  0  0  0  0  0
  130.8267  128.6469   67.9585 H   0  0  0  0  0  0  0  0  0  0  0  0
  131.6013  126.6205   70.0111 H   0  0  0  0  0  0  0  0  0  0  0  0
  131.0619  128.3641   70.1492 H   0  0  0  0  0  0  0  0  0  0  0  0
  129.3719  125.8902   69.7085 H   0  0  0  0  0  0  0  0  0  0  0  0
  129.3469  127.1356   71.0696 H   0  0  0  0  0  0  0  0  0  0  0  0
  127.4662  127.7067   69.9603 H   0  0  0  0  0  0  0  0  0  0  0  0
  128.7644  128.7336   69.1191 H   0  0  0  0  0  0  0  0  0  0  0  0
  127.5765  126.1905   68.0154 H   0  0  0  0  0  0  0  0  0  0  0  0
  127.0927  127.9293   67.6026 H   0  0  0  0  0  0  0  0  0  0  0  0
  128.5589  126.7179   65.9292 H   0  0  0  0  0  0  0  0  0  0  0  0
  129.0810  128.3667   66.5482 H   0  0  0  0  0  0  0  0  0  0  0  0
  131.9838  126.9124   63.2634 H   0  0  0  0  0  0  0  0  0  0  0  0
  131.2344  126.9366   60.8831 H   0  0  0  0  0  0  0  0  0  0  0  0
  129.5972  127.2952   57.6217 H   0  0  0  0  0  0  0  0  0  0  0  0
  127.9729  126.5655   57.3345 H   0  0  0  0  0  0  0  0  0  0  0  0
  128.5922  129.1868   58.8012 H   0  0  0  0  0  0  0  0  0  0  0  0
  127.7544  128.9775   57.2066 H   0  0  0  0  0  0  0  0  0  0  0  0
  125.8853  127.9022   58.2409 H   0  0  0  0  0  0  0  0  0  0  0  0
  124.0013  129.1843   58.3420 H   0  0  0  0  0  0  0  0  0  0  0  0
  122.3610  130.9000   57.8680 H   0  0  0  0  0  0  0  0  0  0  0  0
  128.0022  134.6381   60.7477 H   0  0  0  0  0  0  0  0  0  0  0  0
  127.5656  133.5834   62.1656 H   0  0  0  0  0  0  0  0  0  0  0  0
  129.0394  131.9177   62.7432 H   0  0  0  0  0  0  0  0  0  0  0  0
  130.8379  130.2968   62.1516 H   0  0  0  0  0  0  0  0  0  0  0  0
  131.6335  130.1168   59.7944 H   0  0  0  0  0  0  0  0  0  0  0  0
  128.8365  133.1942   58.6158 H   0  0  0  0  0  0  0  0  0  0  0  0
  127.7193  130.6977   59.9954 H   0  0  0  0  0  0  0  0  0  0  0  0
  127.1913  128.1573   60.9820 H   0  0  0  0  0  0  0  0  0  0  0  0
  125.6079  127.3825   60.5519 H   0  0  0  0  0  0  0  0  0  0  0  0
  127.4931  125.7390   60.9439 H   0  0  0  0  0  0  0  0  0  0  0  0
  126.7197  125.6300   59.3160 H   0  0  0  0  0  0  0  0  0  0  0  0
  129.6588  122.9322   61.3364 H   0  0  0  0  0  0  0  0  0  0  0  0
  130.3989  122.9119   63.7183 H   0  0  0  0  0  0  0  0  0  0  0  0
  1  2  2  0
  2  3  2  0
  2  4  1  0
  4  5  1  0
  5  6  1  0
  6  7  1  0
  7  8  1  0
  8  9  1  0
  9 10  1  0
 10 11  1  0
  2 12  1  0
 12 13  2  0
 13 14  1  0
 14 15  2  0
 15 16  1  0
 16 17  2  0
 16 18  2  0
 16 19  1  0
 19 20  1  0
 20 21  1  0
 21 22  1  0
 22 23  1  0
 23 24  2  0
 24 25  1  0
 25 26  1  0
 25 27  2  0
 27 28  1  0
 28 29  2  0
 29 30  1  0
 30 31  1  0
 31 32  1  0
 32 33  2  0
 33 34  1  0
 34 35  2  0
 35 36  1  0
 36 37  1  0
 36 38  2  0
 30 39  1  0
 39 40  2  0
 22 41  1  0
 41 42  1  0
 15 43  1  0
 43 44  2  0
 11  5  1  0
 44 12  1  0
 42 19  1  0
 40 23  1  0
 39 27  1  0
 38 32  1  0
  4 45  1  0
  5 46  1  0
  6 47  1  0
  6 48  1  0
  7 49  1  0
  7 50  1  0
  8 51  1  0
  8 52  1  0
  9 53  1  0
  9 54  1  0
 10 55  1  0
 10 56  1  0
 11 57  1  0
 11 58  1  0
 13 59  1  0
 14 60  1  0
 20 61  1  0
 20 62  1  0
 21 63  1  0
 21 64  1  0
 22 65  1  0
 24 66  1  0
 26 67  1  0
 31 68  1  0
 31 69  1  0
 33 70  1  0
 34 71  1  0
 35 72  1  0
 38 73  1  0
 40 74  1  0
 41 75  1  0
 41 76  1  0
 42 77  1  0
 42 78  1  0
 43 79  1  0
 44 80  1  0
M  END
>  <Binding energies>  (1) 
[-8.34]

>  <Ligand effiencies>  (1) 
[-0.17375]

>  <Interactions>  (1) 
["H-A:GLY:454:N:4048, V-A:GLU:543:CD:4906, V-B:GLU:543:CG:9879, V-A:HIS:456:CE1:4068, V-A:ARG:545:CG:4920, V-B:GLU:543:CD:9880, V-A:ARG:545:CZ:4924, V-A:HIS:456:CD2:4066, V-B:GLU:543:C:9874, V-B:ASP:366:CB:8184, V-B:ASP:366:CG:8185, V-A:TYR:539:CE2:4874, V-A:TYR:539:CD2:4872, V-A:TYR:484:CZ:4345, H-B:ASP:366:OD1:8186, V-A:ALA:541:CB:4890, V-A:TYR:539:C:4865, H-A:TYR:484:OH:4346, H-A:GLU:543:OE2:4908, V-B:ILE:369:CG2:8209, V-A:TYR:539:CZ:4875, V-A:PRO:540:CA:4881, V-B:HIS:456:CE1:9042, V-A:PRO:540:C:4879, V-B:ASP:366:CA:8182, H-A:ARG:545:NE:4922, V-A:GLU:543:CG:4905, V-A:PRO:540:N:4882, V-A:GLY:544:C:4910, V-A:GLU:543:C:4900, V-A:ALA:541:CA:4888, V-A:GLY:544:CA:4912, H-A:TYR:539:OH:4876, H-B:ASP:366:O:8181, V-A:ARG:545:CA:4917"]

$$$$
RR17_Rahimova_2017
     RDKit          3D

 63 66  0  0  0  0  0  0  0  0999 V2000
  133.0230  131.4270   61.2750 C   0  0  0  0  0  0  0  0  0  0  0  0
  131.5660  130.9580   61.2140 C   0  0  0  0  0  0  0  0  0  0  0  0
  130.8820  131.7180   60.2220 O   0  0  0  0  0  0  0  0  0  0  0  0
  129.5590  132.0630   60.4260 C   0  0  0  0  0  0  0  0  0  0  0  0
  129.1450  132.1880   61.7510 C   0  0  0  0  0  0  0  0  0  0  0  0
  127.8320  132.5310   62.0550 C   0  0  0  0  0  0  0  0  0  0  0  0
  126.8980  132.7550   61.0330 C   0  0  0  0  0  0  0  0  0  0  0  0
  125.4880  133.1250   61.3920 C   0  0  0  0  0  0  0  0  0  0  0  0
  125.1310  133.3190   62.5570 O   0  0  0  0  0  0  0  0  0  0  0  0
  124.4760  133.2390   60.2300 C   0  0  0  0  0  0  0  0  0  0  0  0
  123.3790  131.7800   60.1250 S   0  0  0  0  0  0  0  0  0  0  0  0
  124.4930  130.6120   59.3970 C   0  0  0  0  0  0  0  0  0  0  0  0
  124.6210  130.3830   58.1110 N   0  0  0  0  0  0  0  0  0  0  0  0
  125.5970  129.4090   57.9480 N   0  0  0  0  0  0  0  0  0  0  0  0
  126.0270  129.0890   59.1420 C   0  0  0  0  0  0  0  0  0  0  0  0
  127.1140  128.0610   59.4230 C   0  0  0  0  0  0  0  0  0  0  0  0
  126.6130  126.8160   59.9990 N   0  0  0  0  0  0  0  0  0  0  0  0
  127.4170  125.6860   60.2340 C   0  0  0  0  0  0  0  0  0  0  0  0
  126.9650  124.4620   59.7400 C   0  0  0  0  0  0  0  0  0  0  0  0
  127.7080  123.3030   59.9420 C   0  0  0  0  0  0  0  0  0  0  0  0
  128.9200  123.3550   60.6370 C   0  0  0  0  0  0  0  0  0  0  0  0
  129.7220  122.0730   60.8550 C   0  0  0  0  0  0  0  0  0  0  0  0
  130.7420  121.9630   60.0010 F   0  0  0  0  0  0  0  0  0  0  0  0
  130.2160  122.0380   62.0930 F   0  0  0  0  0  0  0  0  0  0  0  0
  128.9190  121.0220   60.6860 F   0  0  0  0  0  0  0  0  0  0  0  0
  129.3800  124.5830   61.1260 C   0  0  0  0  0  0  0  0  0  0  0  0
  128.6360  125.7410   60.9230 C   0  0  0  0  0  0  0  0  0  0  0  0
  125.3580  129.8080   60.1110 N   0  0  0  0  0  0  0  0  0  0  0  0
  125.5420  129.7560   61.5010 C   0  0  0  0  0  0  0  0  0  0  0  0
  126.7890  129.4050   62.0170 C   0  0  0  0  0  0  0  0  0  0  0  0
  126.9690  129.3490   63.3960 C   0  0  0  0  0  0  0  0  0  0  0  0
  125.9040  129.6450   64.2620 C   0  0  0  0  0  0  0  0  0  0  0  0
  125.9910  129.6160   65.6410 O   0  0  0  0  0  0  0  0  0  0  0  0
  127.1530  129.0670   66.2530 C   0  0  0  0  0  0  0  0  0  0  0  0
  124.6610  129.9930   63.7270 C   0  0  0  0  0  0  0  0  0  0  0  0
  124.4740  130.0510   62.3490 C   0  0  0  0  0  0  0  0  0  0  0  0
  127.3150  132.6300   59.7000 C   0  0  0  0  0  0  0  0  0  0  0  0
  128.6310  132.2880   59.3980 C   0  0  0  0  0  0  0  0  0  0  0  0
  133.3324  131.5266   62.3259 H   0  0  0  0  0  0  0  0  0  0  0  0
  133.6666  130.6906   60.7715 H   0  0  0  0  0  0  0  0  0  0  0  0
  133.1162  132.4005   60.7715 H   0  0  0  0  0  0  0  0  0  0  0  0
  131.5316  129.8904   60.9512 H   0  0  0  0  0  0  0  0  0  0  0  0
  131.0852  131.1011   62.1930 H   0  0  0  0  0  0  0  0  0  0  0  0
  129.8643  132.0135   62.5647 H   0  0  0  0  0  0  0  0  0  0  0  0
  127.5233  132.6275   63.1064 H   0  0  0  0  0  0  0  0  0  0  0  0
  123.8586  134.1362   60.3845 H   0  0  0  0  0  0  0  0  0  0  0  0
  125.0453  133.3021   59.2909 H   0  0  0  0  0  0  0  0  0  0  0  0
  127.6217  127.8254   58.4760 H   0  0  0  0  0  0  0  0  0  0  0  0
  127.7927  128.5070   60.1649 H   0  0  0  0  0  0  0  0  0  0  0  0
  125.6130  126.6930   60.0390 H   0  0  0  0  0  0  0  0  0  0  0  0
  126.0152  124.4129   59.1873 H   0  0  0  0  0  0  0  0  0  0  0  0
  127.3403  122.3419   59.5533 H   0  0  0  0  0  0  0  0  0  0  0  0
  130.3332  124.6328   61.6728 H   0  0  0  0  0  0  0  0  0  0  0  0
  129.0062  126.7038   61.3050 H   0  0  0  0  0  0  0  0  0  0  0  0
  127.6241  129.1741   61.3393 H   0  0  0  0  0  0  0  0  0  0  0  0
  127.9499  129.0716   63.8093 H   0  0  0  0  0  0  0  0  0  0  0  0
  127.0492  129.1161   67.3470 H   0  0  0  0  0  0  0  0  0  0  0  0
  127.2702  128.0183   65.9425 H   0  0  0  0  0  0  0  0  0  0  0  0
  128.0376  129.6424   65.9425 H   0  0  0  0  0  0  0  0  0  0  0  0
  123.8227  130.2232   64.4010 H   0  0  0  0  0  0  0  0  0  0  0  0
  123.4939  130.3267   61.9326 H   0  0  0  0  0  0  0  0  0  0  0  0
  126.5963  132.8036   58.8855 H   0  0  0  0  0  0  0  0  0  0  0  0
  128.9445  132.1938   58.3478 H   0  0  0  0  0  0  0  0  0  0  0  0
  1  2  1  0
  2  3  1  0
  3  4  1  0
  4  5  2  0
  5  6  1  0
  6  7  2  0
  7  8  1  0
  8  9  2  0
  8 10  1  0
 10 11  1  0
 11 12  1  0
 12 13  2  0
 13 14  1  0
 14 15  2  0
 15 16  1  0
 16 17  1  0
 17 18  1  0
 18 19  2  0
 19 20  1  0
 20 21  2  0
 21 22  1  0
 22 23  1  0
 22 24  1  0
 22 25  1  0
 21 26  1  0
 26 27  2  0
 15 28  1  0
 28 29  1  0
 29 30  2  0
 30 31  1  0
 31 32  2  0
 32 33  1  0
 33 34  1  0
 32 35  1  0
 35 36  2  0
  7 37  1  0
 37 38  2  0
 38  4  1  0
 28 12  1  0
 36 29  1  0
 27 18  1  0
  1 39  1  0
  1 40  1  0
  1 41  1  0
  2 42  1  0
  2 43  1  0
  5 44  1  0
  6 45  1  0
 10 46  1  0
 10 47  1  0
 16 48  1  0
 16 49  1  0
 17 50  1  0
 19 51  1  0
 20 52  1  0
 26 53  1  0
 27 54  1  0
 30 55  1  0
 31 56  1  0
 34 57  1  0
 34 58  1  0
 34 59  1  0
 35 60  1  0
 36 61  1  0
 37 62  1  0
 38 63  1  0
M  END
>  <Binding energies>  (1) 
[-6.7]

>  <Ligand effiencies>  (1) 
[-0.1717948717948718]

>  <Interactions>  (1) 
["V-A:GLU:543:CD:4906, V-B:TYR:539:CE2:9848, V-B:ASP:366:CB:8184, V-B:ASP:366:CG:8185, V-B:PRO:540:C:9853, V-B:TYR:539:CD2:9846, V-B:PRO:540:CA:9855, V-B:ALA:541:CB:9864, V-A:TYR:539:CE2:4874, V-A:TYR:539:CD2:4872, H-B:ASP:366:OD1:8186, V-A:LEU:475:CD2:4257, V-B:LEU:475:CD2:9231, V-A:ALA:541:CB:4890, V-B:TYR:539:C:9839, H-B:TYR:484:OH:9320, V-A:TYR:539:C:4865, V-B:ARG:545:CZ:9898, V-A:GLU:543:CB:4904, V-B:ILE:369:CG2:8209, V-A:PRO:540:CA:4881, V-B:HIS:456:CE1:9042, V-A:ASN:362:CB:3174, V-A:PRO:540:CB:4883, V-A:PRO:540:C:4879, H-A:ALA:541:N:4889, H-B:ASP:366:OD2:8187, H-B:ARG:545:NE:9896, V-B:ALA:541:CA:9862, V-A:ALA:541:CA:4888, H-A:TYR:539:OH:4876"]

$$$$
RR18_Rahimova_2017
     RDKit          3D

 56 61  0  0  0  0  0  0  0  0999 V2000
  131.4060  130.5950   61.3560 C   0  0  0  0  0  0  0  0  0  0  0  0
  130.4070  130.3740   60.2470 C   0  0  0  0  0  0  0  0  0  0  0  0
  130.3700  130.7030   58.9020 C   0  0  0  0  0  0  0  0  0  0  0  0
  129.1620  130.2180   58.4020 C   0  0  0  0  0  0  0  0  0  0  0  0
  128.5040  129.6110   59.4600 C   0  0  0  0  0  0  0  0  0  0  0  0
  127.1670  128.8880   59.5990 C   0  0  1  0  0  0  0  0  0  0  0  0
  126.0550  129.5750   58.7530 C   0  0  0  0  0  0  0  0  0  0  0  0
  125.6110  130.9280   59.0750 C   0  0  0  0  0  0  0  0  0  0  0  0
  124.5460  131.3810   58.6520 O   0  0  0  0  0  0  0  0  0  0  0  0
  126.4580  131.6130   59.8790 N   0  0  0  0  0  0  0  0  0  0  0  0
  126.3790  132.9300   60.3780 C   0  0  0  0  0  0  0  0  0  0  0  0
  125.1830  133.6700   60.4280 C   0  0  0  0  0  0  0  0  0  0  0  0
  125.1730  134.9710   60.9270 C   0  0  0  0  0  0  0  0  0  0  0  0
  126.3530  135.5550   61.3760 C   0  0  0  0  0  0  0  0  0  0  0  0
  127.5470  134.8400   61.3220 C   0  0  0  0  0  0  0  0  0  0  0  0
  127.5720  133.5330   60.8250 C   0  0  0  0  0  0  0  0  0  0  0  0
  128.9070  132.7940   60.7830 C   0  0  0  0  0  0  0  0  0  0  0  0
  125.5850  128.9290   57.6540 C   0  0  0  0  0  0  0  0  0  0  0  0
  125.9270  127.6610   57.2930 N   0  0  0  0  0  0  0  0  0  0  0  0
  126.6840  126.9690   58.0610 C   0  0  0  0  0  0  0  0  0  0  0  0
  127.0850  125.2870   57.8060 S   0  0  0  0  0  0  0  0  0  0  0  0
  128.0660  125.2390   59.3050 C   0  0  0  0  0  0  0  0  0  0  0  0
  128.7530  124.1600   59.8170 C   0  0  0  0  0  0  0  0  0  0  0  0
  128.6640  122.8460   59.1630 C   0  0  0  0  0  0  0  0  0  0  0  0
  128.0590  122.5070   58.1460 O   0  0  0  0  0  0  0  0  0  0  0  0
  129.3780  121.9860   59.8960 N   0  0  0  0  0  0  0  0  0  0  0  0
  129.9790  122.5740   60.9680 C   0  0  0  0  0  0  0  0  0  0  0  0
  130.8000  121.9750   61.9220 C   0  0  0  0  0  0  0  0  0  0  0  0
  131.3460  122.7640   62.9310 C   0  0  0  0  0  0  0  0  0  0  0  0
  131.0710  124.1300   62.9620 C   0  0  0  0  0  0  0  0  0  0  0  0
  130.2440  124.7070   61.9950 C   0  0  0  0  0  0  0  0  0  0  0  0
  129.6640  123.9220   60.9810 C   0  0  0  0  0  0  0  0  0  0  0  0
  128.0070  126.5630   59.9260 C   0  0  0  0  0  0  0  0  0  0  0  0
  128.5160  126.8920   60.9930 O   0  0  0  0  0  0  0  0  0  0  0  0
  127.2790  127.4440   59.1860 N   0  0  0  0  0  0  0  0  0  0  0  0
  129.2690  129.7110   60.5800 O   0  0  0  0  0  0  0  0  0  0  0  0
  130.9045  130.4841   62.3287 H   0  0  0  0  0  0  0  0  0  0  0  0
  132.2149  129.8541   61.2739 H   0  0  0  0  0  0  0  0  0  0  0  0
  131.8269  131.6080   61.2739 H   0  0  0  0  0  0  0  0  0  0  0  0
  131.1443  131.2428   58.3372 H   0  0  0  0  0  0  0  0  0  0  0  0
  128.8006  130.3012   57.3664 H   0  0  0  0  0  0  0  0  0  0  0  0
  126.8906  128.9393   60.6625 H   0  0  0  0  0  0  0  0  0  0  0  0
  127.2530  131.0940   60.2220 H   0  0  0  0  0  0  0  0  0  0  0  0
  124.2469  133.2169   60.0697 H   0  0  0  0  0  0  0  0  0  0  0  0
  124.2306  135.5370   60.9659 H   0  0  0  0  0  0  0  0  0  0  0  0
  126.3431  136.5807   61.7734 H   0  0  0  0  0  0  0  0  0  0  0  0
  128.4787  135.3075   61.6734 H   0  0  0  0  0  0  0  0  0  0  0  0
  129.2526  132.6027   61.8096 H   0  0  0  0  0  0  0  0  0  0  0  0
  128.7802  131.8376   60.2546 H   0  0  0  0  0  0  0  0  0  0  0  0
  129.6502  133.4092   60.2546 H   0  0  0  0  0  0  0  0  0  0  0  0
  124.8767  129.4694   57.0088 H   0  0  0  0  0  0  0  0  0  0  0  0
  129.4750  121.0090   59.6620 H   0  0  0  0  0  0  0  0  0  0  0  0
  131.0130  120.8967   61.8784 H   0  0  0  0  0  0  0  0  0  0  0  0
  131.9906  122.3119   63.6992 H   0  0  0  0  0  0  0  0  0  0  0  0
  131.5078  124.7577   63.7527 H   0  0  0  0  0  0  0  0  0  0  0  0
  130.0437  125.7882   62.0266 H   0  0  0  0  0  0  0  0  0  0  0  0
  1  2  1  0
  2  3  2  0
  3  4  1  0
  4  5  2  0
  5  6  1  0
  6  7  1  0
  7  8  1  0
  8  9  2  0
  8 10  1  0
 10 11  1  0
 11 12  2  0
 12 13  1  0
 13 14  2  0
 14 15  1  0
 15 16  2  0
 16 17  1  0
  7 18  2  0
 18 19  1  0
 19 20  2  0
 20 21  1  0
 21 22  1  0
 22 23  2  0
 23 24  1  0
 24 25  2  0
 24 26  1  0
 26 27  1  0
 27 28  2  0
 28 29  1  0
 29 30  2  0
 30 31  1  0
 31 32  2  0
 22 33  1  0
 33 34  2  0
 33 35  1  0
  5 36  1  0
 36  2  1  0
 35  6  1  0
 16 11  1  0
 35 20  1  0
 32 23  1  0
 32 27  1  0
  1 37  1  0
  1 38  1  0
  1 39  1  0
  3 40  1  0
  4 41  1  0
  6 42  1  1
 10 43  1  0
 12 44  1  0
 13 45  1  0
 14 46  1  0
 15 47  1  0
 17 48  1  0
 17 49  1  0
 17 50  1  0
 18 51  1  0
 26 52  1  0
 28 53  1  0
 29 54  1  0
 30 55  1  0
 31 56  1  0
M  END
>  <Binding energies>  (1) 
[-7.52]

>  <Ligand effiencies>  (1) 
[-0.19789473684210526]

>  <Interactions>  (1) 
["V-A:GLU:543:CD:4906, V-B:TYR:539:CE2:9848, V-B:ASP:366:CB:8184, V-B:ASP:366:CG:8185, V-B:TYR:539:CD2:9846, V-B:PRO:540:CA:9855, V-B:ALA:541:CB:9864, V-A:TYR:539:CE2:4874, H-B:TYR:531:OH:9767, V-A:TYR:539:CD2:4872, V-A:LEU:475:CD2:4257, V-B:LEU:475:CD2:9231, V-A:ALA:541:CB:4890, V-B:TYR:539:C:9839, V-B:ILE:369:CG2:8209, V-A:PRO:540:CA:4881, V-A:PRO:540:C:4879, V-B:TRP:381:CZ2:8342, V-B:TRP:381:CH2:8344, H-B:TYR:539:O:9840, V-A:ALA:541:CA:4888, H-A:TYR:539:OH:4876"]

$$$$
RR19_Rahimova_2017
     RDKit          3D

 72 77  0  0  0  0  0  0  0  0999 V2000
  127.5040  130.4820   58.6920 O   0  0  0  0  0  0  0  0  0  0  0  0
  127.0070  129.6920   59.5000 C   0  0  0  0  0  0  0  0  0  0  0  0
  127.5210  128.4870   59.8550 N   0  0  0  0  0  0  0  0  0  0  0  0
  128.7410  127.8920   59.6470 C   0  0  0  0  0  0  0  0  0  0  0  0
  130.1220  128.6610   59.0410 S   0  0  0  0  0  0  0  0  0  0  0  0
  128.6540  126.5720   60.0150 N   0  0  0  0  0  0  0  0  0  0  0  0
  129.5780  125.5870   60.1460 C   0  0  0  0  0  0  0  0  0  0  0  0
  130.8040  125.7250   60.1270 O   0  0  0  0  0  0  0  0  0  0  0  0
  128.9690  124.1720   60.3110 C   0  0  2  0  0  0  0  0  0  0  0  0
  129.8530  123.0130   59.7660 C   0  0  0  0  0  0  0  0  0  0  0  0
  131.0390  122.6370   60.6400 C   0  0  0  0  0  0  0  0  0  0  0  0
  132.3230  122.4620   60.0820 C   0  0  0  0  0  0  0  0  0  0  0  0
  133.4090  122.1980   60.9050 C   0  0  0  0  0  0  0  0  0  0  0  0
  133.2410  122.1210   62.2830 C   0  0  0  0  0  0  0  0  0  0  0  0
  131.9890  122.3210   62.8490 C   0  0  0  0  0  0  0  0  0  0  0  0
  130.8910  122.5890   62.0430 C   0  0  0  0  0  0  0  0  0  0  0  0
  127.5870  124.1110   59.7600 N   0  0  0  0  0  0  0  0  0  0  0  0
  126.5020  124.0060   60.5790 C   0  0  0  0  0  0  0  0  0  0  0  0
  126.4990  123.9220   61.8080 O   0  0  0  0  0  0  0  0  0  0  0  0
  125.3230  124.0200   59.6770 C   0  0  0  0  0  0  0  0  0  0  0  0
  123.9580  123.9370   59.9550 C   0  0  0  0  0  0  0  0  0  0  0  0
  123.0530  123.9840   58.8890 C   0  0  0  0  0  0  0  0  0  0  0  0
  123.5180  124.1130   57.5730 C   0  0  0  0  0  0  0  0  0  0  0  0
  124.8910  124.1960   57.3160 C   0  0  0  0  0  0  0  0  0  0  0  0
  125.7770  124.1460   58.3930 C   0  0  0  0  0  0  0  0  0  0  0  0
  127.2590  124.2180   58.4380 C   0  0  0  0  0  0  0  0  0  0  0  0
  128.0250  124.3540   57.4830 O   0  0  0  0  0  0  0  0  0  0  0  0
  125.6660  130.0490   60.1950 C   0  0  2  0  0  0  0  0  0  0  0  0
  125.0820  131.4270   59.7680 C   0  0  0  0  0  0  0  0  0  0  0  0
  125.7880  132.6160   60.3930 C   0  0  0  0  0  0  0  0  0  0  0  0
  127.1800  132.5710   60.6260 C   0  0  0  0  0  0  0  0  0  0  0  0
  127.8410  133.6960   61.1030 C   0  0  0  0  0  0  0  0  0  0  0  0
  127.1430  134.8760   61.3270 C   0  0  0  0  0  0  0  0  0  0  0  0
  125.7800  134.9470   61.0650 C   0  0  0  0  0  0  0  0  0  0  0  0
  125.1010  133.8330   60.5890 C   0  0  0  0  0  0  0  0  0  0  0  0
  125.7150  129.9130   61.6790 N   0  0  0  0  0  0  0  0  0  0  0  0
  124.6070  130.0890   62.4520 C   0  0  0  0  0  0  0  0  0  0  0  0
  123.4730  130.3850   62.0740 O   0  0  0  0  0  0  0  0  0  0  0  0
  125.0560  129.8460   63.8450 C   0  0  0  0  0  0  0  0  0  0  0  0
  124.3570  129.8910   65.0530 C   0  0  0  0  0  0  0  0  0  0  0  0
  125.0470  129.6090   66.2370 C   0  0  0  0  0  0  0  0  0  0  0  0
  126.4100  129.2880   66.2010 C   0  0  0  0  0  0  0  0  0  0  0  0
  127.0930  129.2460   64.9800 C   0  0  0  0  0  0  0  0  0  0  0  0
  126.3870  129.5320   63.8100 C   0  0  0  0  0  0  0  0  0  0  0  0
  126.8260  129.5650   62.3940 C   0  0  0  0  0  0  0  0  0  0  0  0
  127.9520  129.3270   61.9560 O   0  0  0  0  0  0  0  0  0  0  0  0
  126.9180  127.9630   60.4730 H   0  0  0  0  0  0  0  0  0  0  0  0
  127.7060  126.2440   60.1190 H   0  0  0  0  0  0  0  0  0  0  0  0
  128.9256  124.0044   61.3973 H   0  0  0  0  0  0  0  0  0  0  0  0
  129.2164  122.1228   59.6550 H   0  0  0  0  0  0  0  0  0  0  0  0
  130.2757  123.3724   58.8162 H   0  0  0  0  0  0  0  0  0  0  0  0
  132.4635  122.5349   58.9935 H   0  0  0  0  0  0  0  0  0  0  0  0
  134.4063  122.0491   60.4654 H   0  0  0  0  0  0  0  0  0  0  0  0
  134.1043  121.9005   62.9281 H   0  0  0  0  0  0  0  0  0  0  0  0
  131.8666  122.2668   63.9408 H   0  0  0  0  0  0  0  0  0  0  0  0
  129.9049  122.7641   62.4979 H   0  0  0  0  0  0  0  0  0  0  0  0
  123.6010  123.8367   60.9906 H   0  0  0  0  0  0  0  0  0  0  0  0
  121.9724  123.9195   59.0844 H   0  0  0  0  0  0  0  0  0  0  0  0
  122.8012  124.1491   56.7394 H   0  0  0  0  0  0  0  0  0  0  0  0
  125.2642  124.2985   56.2863 H   0  0  0  0  0  0  0  0  0  0  0  0
  124.9623  129.2880   59.8266 H   0  0  0  0  0  0  0  0  0  0  0  0
  125.1619  131.5128   58.6743 H   0  0  0  0  0  0  0  0  0  0  0  0
  124.0400  131.4542   60.1195 H   0  0  0  0  0  0  0  0  0  0  0  0
  127.7409  131.6453   60.4299 H   0  0  0  0  0  0  0  0  0  0  0  0
  128.9216  133.6522   61.3041 H   0  0  0  0  0  0  0  0  0  0  0  0
  127.6722  135.7593   61.7140 H   0  0  0  0  0  0  0  0  0  0  0  0
  125.2373  135.8885   61.2352 H   0  0  0  0  0  0  0  0  0  0  0  0
  124.0262  133.8993   60.3644 H   0  0  0  0  0  0  0  0  0  0  0  0
  123.2864  130.1429   65.0733 H   0  0  0  0  0  0  0  0  0  0  0  0
  124.5168  129.6395   67.2003 H   0  0  0  0  0  0  0  0  0  0  0  0
  126.9458  129.0680   67.1362 H   0  0  0  0  0  0  0  0  0  0  0  0
  128.1629  128.9931   64.9431 H   0  0  0  0  0  0  0  0  0  0  0  0
  1  2  2  0
  2  3  1  0
  3  4  1  0
  4  5  2  0
  4  6  1  0
  6  7  1  0
  7  8  2  0
  7  9  1  0
  9 10  1  0
 10 11  1  0
 11 12  2  0
 12 13  1  0
 13 14  2  0
 14 15  1  0
 15 16  2  0
  9 17  1  0
 17 18  1  0
 18 19  2  0
 18 20  1  0
 20 21  2  0
 21 22  1  0
 22 23  2  0
 23 24  1  0
 24 25  2  0
 25 26  1  0
 26 27  2  0
  2 28  1  0
 28 29  1  0
 29 30  1  0
 30 31  2  0
 31 32  1  0
 32 33  2  0
 33 34  1  0
 34 35  2  0
 28 36  1  0
 36 37  1  0
 37 38  2  0
 37 39  1  0
 39 40  2  0
 40 41  1  0
 41 42  2  0
 42 43  1  0
 43 44  2  0
 44 45  1  0
 45 46  2  0
 16 11  1  0
 26 17  1  0
 35 30  1  0
 45 36  1  0
 25 20  1  0
 44 39  1  0
  3 47  1  0
  6 48  1  0
  9 49  1  1
 10 50  1  0
 10 51  1  0
 12 52  1  0
 13 53  1  0
 14 54  1  0
 15 55  1  0
 16 56  1  0
 21 57  1  0
 22 58  1  0
 23 59  1  0
 24 60  1  0
 28 61  1  6
 29 62  1  0
 29 63  1  0
 31 64  1  0
 32 65  1  0
 33 66  1  0
 34 67  1  0
 35 68  1  0
 40 69  1  0
 41 70  1  0
 42 71  1  0
 43 72  1  0
M  END
>  <Binding energies>  (1) 
[-10.26]

>  <Ligand effiencies>  (1) 
[-0.21375]

>  <Interactions>  (1) 
["V-A:GLU:543:CD:4906, V-B:TYR:539:CE2:9848, V-A:ILE:369:CD1:3237, V-A:ILE:369:CG2:3235, V-A:GLY:454:CA:4047, V-B:ASN:362:CB:8148, V-B:LEU:363:CA:8157, V-B:PRO:540:CB:9857, V-B:ASP:366:CG:8185, V-B:TYR:531:CE2:9765, V-B:LEU:363:CD1:8161, V-B:ASN:362:C:8144, V-B:LEU:363:CB:8159, V-B:TYR:539:CD2:9846, V-B:PRO:540:CA:9855, H-B:ALA:541:N:9863, V-B:ALA:541:CB:9864, V-A:TYR:539:CE2:4874, H-B:ARG:545:NH2:9900, V-A:TYR:539:CD2:4872, V-A:LEU:475:CD2:4257, V-B:LEU:475:CD2:9231, V-A:ALA:541:CB:4890, H-B:GLY:454:N:9022, V-B:ARG:545:CZ:9898, V-B:ILE:369:CG2:8209, V-B:HIS:456:CE1:9042, V-B:TYR:484:CZ:9319, V-B:ARG:545:CG:9894, H-B:ASP:366:OD2:8187, V-B:TRP:381:CZ2:8342, V-B:TRP:381:CH2:8344, V-B:ARG:545:CD:9895"]

$$$$
RR19_Rahimova_2017-again1
     RDKit          3D

 71 76  0  0  0  0  0  0  0  0999 V2000
  131.5880  127.3740   73.7270 O   0  0  0  0  0  0  0  0  0  0  0  0
  130.6300  126.7090   73.3280 C   0  0  0  0  0  0  0  0  0  0  0  0
  130.5300  125.3590   73.3690 N   0  0  0  0  0  0  0  0  0  0  0  0
  131.3030  124.3880   73.9430 C   0  0  0  0  0  0  0  0  0  0  0  0
  132.7760  124.5060   74.7430 S   0  0  0  0  0  0  0  0  0  0  0  0
  130.6000  123.2020   73.8260 N   0  0  0  0  0  0  0  0  0  0  0  0
  129.9800  122.5260   74.7380 C   0  0  0  0  0  0  0  0  0  0  0  0
  129.7730  122.7910   75.9390 O   0  0  0  0  0  0  0  0  0  0  0  0
  129.4050  121.1450   74.2760 C   0  0  2  0  0  0  0  0  0  0  0  0
  129.6380  120.9130   72.7460 C   0  0  0  0  0  0  0  0  0  0  0  0
  128.5690  120.0640   72.0640 C   0  0  0  0  0  0  0  0  0  0  0  0
  128.2350  118.8110   72.5860 C   0  0  0  0  0  0  0  0  0  0  0  0
  127.2490  118.0420   71.9730 C   0  0  0  0  0  0  0  0  0  0  0  0
  126.6020  118.5270   70.8380 C   0  0  0  0  0  0  0  0  0  0  0  0
  126.9330  119.7740   70.3090 C   0  0  0  0  0  0  0  0  0  0  0  0
  127.9190  120.5420   70.9210 C   0  0  0  0  0  0  0  0  0  0  0  0
  128.0010  120.8940   74.7390 N   0  0  0  0  0  0  0  0  0  0  0  0
  126.9410  121.5580   74.1980 C   0  0  0  0  0  0  0  0  0  0  0  0
  126.9680  122.4180   73.3160 O   0  0  0  0  0  0  0  0  0  0  0  0
  125.7430  121.0280   74.8990 C   0  0  0  0  0  0  0  0  0  0  0  0
  124.3900  121.3420   74.7620 C   0  0  0  0  0  0  0  0  0  0  0  0
  123.4640  120.6720   75.5680 C   0  0  0  0  0  0  0  0  0  0  0  0
  123.8940  119.7080   76.4880 C   0  0  0  0  0  0  0  0  0  0  0  0
  125.2540  119.4070   76.6100 C   0  0  0  0  0  0  0  0  0  0  0  0
  126.1630  120.0880   75.7980 C   0  0  0  0  0  0  0  0  0  0  0  0
  127.6390  119.9880   75.6980 C   0  0  0  0  0  0  0  0  0  0  0  0
  128.3770  119.2450   76.3440 O   0  0  0  0  0  0  0  0  0  0  0  0
  129.3960  127.4300   72.7090 C   0  0  2  0  0  0  0  0  0  0  0  0
  128.0460  127.0540   73.3850 C   0  0  0  0  0  0  0  0  0  0  0  0
  127.3120  128.2330   73.9970 C   0  0  0  0  0  0  0  0  0  0  0  0
  126.5620  128.0640   75.1800 C   0  0  0  0  0  0  0  0  0  0  0  0
  125.9730  129.1620   75.7930 C   0  0  0  0  0  0  0  0  0  0  0  0
  126.1400  130.4350   75.2600 C   0  0  0  0  0  0  0  0  0  0  0  0
  126.9070  130.6210   74.1170 C   0  0  0  0  0  0  0  0  0  0  0  0
  127.5050  129.5360   73.4900 C   0  0  0  0  0  0  0  0  0  0  0  0
  129.3210  127.3400   71.2190 N   0  0  0  0  0  0  0  0  0  0  0  0
  128.1950  127.6920   70.5370 C   0  0  0  0  0  0  0  0  0  0  0  0
  127.1110  128.0350   71.0110 O   0  0  0  0  0  0  0  0  0  0  0  0
  128.5520  127.5830   69.1020 C   0  0  0  0  0  0  0  0  0  0  0  0
  127.8010  127.8320   67.9510 C   0  0  0  0  0  0  0  0  0  0  0  0
  128.4120  127.6640   66.7040 C   0  0  0  0  0  0  0  0  0  0  0  0
  129.7490  127.2520   66.6220 C   0  0  0  0  0  0  0  0  0  0  0  0
  130.4840  127.0040   67.7860 C   0  0  0  0  0  0  0  0  0  0  0  0
  129.8570  127.1810   69.0200 C   0  0  0  0  0  0  0  0  0  0  0  0
  130.3720  127.0280   70.4040 C   0  0  0  0  0  0  0  0  0  0  0  0
  131.5110  126.7030   70.7420 O   0  0  0  0  0  0  0  0  0  0  0  0
  129.6750  125.0010   72.9720 H   0  0  0  0  0  0  0  0  0  0  0  0
  129.9840  120.3644   74.7912 H   0  0  0  0  0  0  0  0  0  0  0  0
  129.6652  121.8945   72.2500 H   0  0  0  0  0  0  0  0  0  0  0  0
  130.5833  120.3580   72.6544 H   0  0  0  0  0  0  0  0  0  0  0  0
  128.7509  118.4325   73.4808 H   0  0  0  0  0  0  0  0  0  0  0  0
  126.9822  117.0566   72.3827 H   0  0  0  0  0  0  0  0  0  0  0  0
  125.8224  117.9200   70.3546 H   0  0  0  0  0  0  0  0  0  0  0  0
  126.4174  120.1487   69.4125 H   0  0  0  0  0  0  0  0  0  0  0  0
  128.1873  121.5248   70.5061 H   0  0  0  0  0  0  0  0  0  0  0  0
  124.0593  122.0996   74.0362 H   0  0  0  0  0  0  0  0  0  0  0  0
  122.3924  120.9035   75.4787 H   0  0  0  0  0  0  0  0  0  0  0  0
  123.1588  119.1853   77.1174 H   0  0  0  0  0  0  0  0  0  0  0  0
  125.6001  118.6505   77.3297 H   0  0  0  0  0  0  0  0  0  0  0  0
  129.5703  128.4917   72.9381 H   0  0  0  0  0  0  0  0  0  0  0  0
  127.3943  126.5974   72.6255 H   0  0  0  0  0  0  0  0  0  0  0  0
  128.2839  126.3651   74.2089 H   0  0  0  0  0  0  0  0  0  0  0  0
  126.4437  127.0615   75.6172 H   0  0  0  0  0  0  0  0  0  0  0  0
  125.3720  129.0239   76.7039 H   0  0  0  0  0  0  0  0  0  0  0  0
  125.6626  131.2989   75.7456 H   0  0  0  0  0  0  0  0  0  0  0  0
  127.0413  131.6327   73.7066 H   0  0  0  0  0  0  0  0  0  0  0  0
  128.1293  129.6920   72.5979 H   0  0  0  0  0  0  0  0  0  0  0  0
  126.7515  128.1533   68.0236 H   0  0  0  0  0  0  0  0  0  0  0  0
  127.8407  127.8561   65.7838 H   0  0  0  0  0  0  0  0  0  0  0  0
  130.2227  127.1230   65.6376 H   0  0  0  0  0  0  0  0  0  0  0  0
  131.5327  126.6768   67.7299 H   0  0  0  0  0  0  0  0  0  0  0  0
  1  2  2  0
  2  3  1  0
  3  4  1  0
  4  5  2  0
  4  6  1  0
  6  7  2  0
  7  8  1  0
  7  9  1  0
  9 10  1  0
 10 11  1  0
 11 12  2  0
 12 13  1  0
 13 14  2  0
 14 15  1  0
 15 16  2  0
  9 17  1  0
 17 18  1  0
 18 19  2  0
 18 20  1  0
 20 21  2  0
 21 22  1  0
 22 23  2  0
 23 24  1  0
 24 25  2  0
 25 26  1  0
 26 27  2  0
  2 28  1  0
 28 29  1  0
 29 30  1  0
 30 31  2  0
 31 32  1  0
 32 33  2  0
 33 34  1  0
 34 35  2  0
 28 36  1  0
 36 37  1  0
 37 38  2  0
 37 39  1  0
 39 40  2  0
 40 41  1  0
 41 42  2  0
 42 43  1  0
 43 44  2  0
 44 45  1  0
 45 46  2  0
 16 11  1  0
 26 17  1  0
 35 30  1  0
 45 36  1  0
 25 20  1  0
 44 39  1  0
  3 47  1  0
  9 48  1  1
 10 49  1  0
 10 50  1  0
 12 51  1  0
 13 52  1  0
 14 53  1  0
 15 54  1  0
 16 55  1  0
 21 56  1  0
 22 57  1  0
 23 58  1  0
 24 59  1  0
 28 60  1  6
 29 61  1  0
 29 62  1  0
 31 63  1  0
 32 64  1  0
 33 65  1  0
 34 66  1  0
 35 67  1  0
 40 68  1  0
 41 69  1  0
 42 70  1  0
 43 71  1  0
M  CHG  1   8  -1
M  END
>  <Binding energies>  (1) 
[-10.8]

>  <Ligand effiencies>  (1) 
[-0.22978723404255322]

>  <Interactions>  (1) 
["V-A:GLU:543:CD:4906, V-B:GLU:543:CG:9879, V-A:HIS:456:CE1:4068, V-A:ARG:545:CG:4920, V-B:GLU:543:CD:9880, V-B:VAL:542:C:9866, V-A:TYR:484:CB:4339, V-B:LYS:547:CB:9919, V-A:HIS:456:CD2:4066, V-A:TYR:484:CG:4340, V-A:TYR:484:CD1:4341, V-B:LYS:547:CA:9917, V-B:GLU:543:CA:9876, V-B:LYS:547:CE:9922, V-B:GLU:543:C:9874, V-B:ILE:546:C:9906, V-B:LYS:547:CG:9920, V-B:GLY:544:CA:9886, V-B:VAL:542:CG1:9871, V-B:HIS:456:CE1:9042, V-A:GLU:543:CG:4905, V-B:HIS:456:CG:9038, H-B:LYS:547:NZ:9923, V-B:LYS:471:CE:9192, V-B:VAL:458:CG2:9059, H-A:LYS:547:NZ:4949, V-B:HIS:456:CB:9037, V-A:GLY:544:C:4910, V-B:HIS:456:CD2:9040, V-B:GLY:544:C:9884, V-A:HIS:456:CB:4063, V-A:LYS:547:CE:4948, V-A:HIS:456:CG:4064, H-A:HIS:456:ND1:4065, V-A:VAL:458:CG2:4085, V-A:TYR:484:CA:4337, V-A:TYR:484:C:4335, H-B:HIS:456:ND1:9039, V-B:LYS:547:CD:9921, H-A:ARG:545:N:4918, H-B:GLY:544:N:9887, V-B:LYS:547:C:9915, V-A:SER:483:CB:4331, V-B:VAL:542:CB:9870"]

$$$$
RR1_Rahimova_2017
     RDKit          3D

 68 71  0  0  0  0  0  0  0  0999 V2000
  133.3230  120.9770   60.4780 C   0  0  0  0  0  0  0  0  0  0  0  0
  134.0360  121.9640   61.2150 O   0  0  0  0  0  0  0  0  0  0  0  0
  133.3390  122.8250   62.0390 C   0  0  0  0  0  0  0  0  0  0  0  0
  132.1810  122.4740   62.7530 C   0  0  0  0  0  0  0  0  0  0  0  0
  131.5400  123.4130   63.5550 C   0  0  0  0  0  0  0  0  0  0  0  0
  132.0430  124.7100   63.6640 C   0  0  0  0  0  0  0  0  0  0  0  0
  131.2980  125.5990   64.4630 N   0  0  0  0  0  0  0  0  0  0  0  0
  130.7530  125.4020   65.6820 C   0  0  0  0  0  0  0  0  0  0  0  0
  130.7650  124.3310   66.2910 O   0  0  0  0  0  0  0  0  0  0  0  0
  130.0810  126.6430   66.2910 C   0  0  0  0  0  0  0  0  0  0  0  0
  130.9590  127.3940   67.7060 S   0  0  0  0  0  0  0  0  0  0  0  0
  129.5880  127.5110   68.8050 C   0  0  0  0  0  0  0  0  0  0  0  0
  129.6940  127.6110   70.1070 N   0  0  0  0  0  0  0  0  0  0  0  0
  128.4340  127.6850   70.5230 C   0  0  0  0  0  0  0  0  0  0  0  0
  128.0750  127.8260   71.9750 C   0  0  0  0  0  0  0  0  0  0  0  0
  126.8980  128.4760   72.3810 C   0  0  0  0  0  0  0  0  0  0  0  0
  126.5930  128.5940   73.7380 C   0  0  0  0  0  0  0  0  0  0  0  0
  127.4790  128.0540   74.6680 C   0  0  0  0  0  0  0  0  0  0  0  0
  128.6240  127.4200   74.3120 N   0  0  0  0  0  0  0  0  0  0  0  0
  128.9030  127.3150   72.9870 C   0  0  0  0  0  0  0  0  0  0  0  0
  127.5200  127.6310   69.5730 N   0  0  0  0  0  0  0  0  0  0  0  0
  128.2600  127.5180   68.4660 N   0  0  0  0  0  0  0  0  0  0  0  0
  127.6230  127.4500   67.1510 C   0  0  0  0  0  0  0  0  0  0  0  0
  127.1720  128.8040   66.5760 C   0  0  0  0  0  0  0  0  0  0  0  0
  127.7030  129.8570   66.9470 O   0  0  0  0  0  0  0  0  0  0  0  0
  126.1800  128.7340   65.6690 N   0  0  0  0  0  0  0  0  0  0  0  0
  125.8220  129.8970   65.0000 N   0  0  0  0  0  0  0  0  0  0  0  0
  125.8320  129.8760   63.6490 C   0  0  0  0  0  0  0  0  0  0  0  0
  126.0380  128.8610   62.9740 O   0  0  0  0  0  0  0  0  0  0  0  0
  125.5390  131.1980   62.9710 C   0  0  0  0  0  0  0  0  0  0  0  0
  124.2340  131.7020   62.9560 C   0  0  0  0  0  0  0  0  0  0  0  0
  123.9410  132.9080   62.3280 C   0  0  0  0  0  0  0  0  0  0  0  0
  124.9480  133.6470   61.6870 C   0  0  0  0  0  0  0  0  0  0  0  0
  124.7210  134.8460   61.0340 O   0  0  0  0  0  0  0  0  0  0  0  0
  123.4350  135.4510   61.1040 C   0  0  0  0  0  0  0  0  0  0  0  0
  126.2600  133.1560   61.6840 C   0  0  0  0  0  0  0  0  0  0  0  0
  127.2120  133.9130   61.0210 O   0  0  0  0  0  0  0  0  0  0  0  0
  127.4320  135.2640   61.4090 C   0  0  0  0  0  0  0  0  0  0  0  0
  126.5440  131.9390   62.3280 C   0  0  0  0  0  0  0  0  0  0  0  0
  133.2000  125.0650   62.9540 C   0  0  0  0  0  0  0  0  0  0  0  0
  133.8390  124.1220   62.1530 C   0  0  0  0  0  0  0  0  0  0  0  0
  132.8248  120.2874   61.1754 H   0  0  0  0  0  0  0  0  0  0  0  0
  132.5685  121.4663   59.8445 H   0  0  0  0  0  0  0  0  0  0  0  0
  134.0246  120.4145   59.8445 H   0  0  0  0  0  0  0  0  0  0  0  0
  131.7795  121.4527   62.6776 H   0  0  0  0  0  0  0  0  0  0  0  0
  130.6310  123.1312   64.1066 H   0  0  0  0  0  0  0  0  0  0  0  0
  131.1270  126.4990   64.0360 H   0  0  0  0  0  0  0  0  0  0  0  0
  129.9955  127.4044   65.5017 H   0  0  0  0  0  0  0  0  0  0  0  0
  129.1114  126.3015   66.6824 H   0  0  0  0  0  0  0  0  0  0  0  0
  126.2143  128.8934   71.6271 H   0  0  0  0  0  0  0  0  0  0  0  0
  125.6739  129.1018   74.0658 H   0  0  0  0  0  0  0  0  0  0  0  0
  127.2394  128.1459   75.7376 H   0  0  0  0  0  0  0  0  0  0  0  0
  129.8292  126.8010   72.6903 H   0  0  0  0  0  0  0  0  0  0  0  0
  128.3401  127.0023   66.4472 H   0  0  0  0  0  0  0  0  0  0  0  0
  126.7090  126.8523   67.2828 H   0  0  0  0  0  0  0  0  0  0  0  0
  125.8810  127.8880   65.2030 H   0  0  0  0  0  0  0  0  0  0  0  0
  126.1030  130.7190   65.5130 H   0  0  0  0  0  0  0  0  0  0  0  0
  123.4285  131.1367   63.4476 H   0  0  0  0  0  0  0  0  0  0  0  0
  122.9084  133.2871   62.3336 H   0  0  0  0  0  0  0  0  0  0  0  0
  123.1498  135.5852   62.1579 H   0  0  0  0  0  0  0  0  0  0  0  0
  123.4629  136.4305   60.6041 H   0  0  0  0  0  0  0  0  0  0  0  0
  122.6982  134.8051   60.6041 H   0  0  0  0  0  0  0  0  0  0  0  0
  127.4432  135.3330   62.5068 H   0  0  0  0  0  0  0  0  0  0  0  0
  128.3979  135.6074   61.0101 H   0  0  0  0  0  0  0  0  0  0  0  0
  126.6250  135.8961   61.0101 H   0  0  0  0  0  0  0  0  0  0  0  0
  127.5762  131.5587   62.3283 H   0  0  0  0  0  0  0  0  0  0  0  0
  133.6015  126.0863   63.0300 H   0  0  0  0  0  0  0  0  0  0  0  0
  134.7493  124.4035   61.6034 H   0  0  0  0  0  0  0  0  0  0  0  0
  1  2  1  0
  2  3  1  0
  3  4  2  0
  4  5  1  0
  5  6  2  0
  6  7  1  0
  7  8  1  0
  8  9  2  0
  8 10  1  0
 10 11  1  0
 11 12  1  0
 12 13  2  0
 13 14  1  0
 14 15  1  0
 15 16  2  0
 16 17  1  0
 17 18  2  0
 18 19  1  0
 19 20  2  0
 14 21  2  0
 21 22  1  0
 22 23  1  0
 23 24  1  0
 24 25  2  0
 24 26  1  0
 26 27  1  0
 27 28  1  0
 28 29  2  0
 28 30  1  0
 30 31  2  0
 31 32  1  0
 32 33  2  0
 33 34  1  0
 34 35  1  0
 33 36  1  0
 36 37  1  0
 37 38  1  0
 36 39  2  0
  6 40  1  0
 40 41  2  0
 41  3  1  0
 22 12  1  0
 39 30  1  0
 20 15  1  0
  1 42  1  0
  1 43  1  0
  1 44  1  0
  4 45  1  0
  5 46  1  0
  7 47  1  0
 10 48  1  0
 10 49  1  0
 16 50  1  0
 17 51  1  0
 18 52  1  0
 20 53  1  0
 23 54  1  0
 23 55  1  0
 26 56  1  0
 27 57  1  0
 31 58  1  0
 32 59  1  0
 35 60  1  0
 35 61  1  0
 35 62  1  0
 38 63  1  0
 38 64  1  0
 38 65  1  0
 39 66  1  0
 40 67  1  0
 41 68  1  0
M  END
>  <Binding energies>  (1) 
[-9.58]

>  <Ligand effiencies>  (1) 
[-0.21772727272727274]

>  <Interactions>  (1) 
["V-A:GLU:543:CD:4906, V-B:GLU:543:CG:9879, V-A:HIS:456:CE1:4068, V-A:GLY:453:CA:4042, V-A:ILE:369:CD1:3237, V-A:ILE:369:CG2:3235, V-B:GLU:543:CD:9880, V-B:GLU:543:CB:9878, V-A:ARG:545:CZ:4924, V-A:GLY:454:CA:4047, V-B:LYS:547:CE:9922, H-B:ARG:545:NH2:9900, V-B:GLY:454:CA:9021, V-A:TYR:539:CD2:4872, V-A:LEU:475:CD2:4257, V-B:LEU:475:CD2:9231, V-A:ALA:541:CB:4890, H-B:TYR:484:OH:9320, H-B:GLU:543:OE1:9881, V-B:ARG:545:CZ:9898, H-A:TYR:484:OH:4346, H-A:GLU:543:OE2:4908, V-A:GLU:543:CB:4904, H-B:GLU:543:OE2:9882, V-B:ILE:369:CD1:8211, V-B:ILE:369:CG2:8209, V-B:HIS:456:CE1:9042, V-B:ARG:545:CG:9894, V-A:GLU:543:CG:4905, V-B:PRO:482:CG:9299, V-B:PRO:482:CB:9298, V-B:TRP:381:CZ2:8342, V-B:TRP:381:CH2:8344, V-B:HIS:456:CG:9038, H-B:LYS:547:NZ:9923, H-A:LYS:547:NZ:4949, V-B:HIS:456:CB:9037, V-A:GLU:543:C:4900, V-B:HIS:456:CD2:9040, V-B:GLY:544:C:9884, V-A:LYS:547:CE:4948, V-B:ARG:545:CD:9895, V-A:GLY:453:C:4040, V-B:SER:385:CA:8379, H-B:HIS:456:ND1:9039, V-B:LYS:547:CD:9921, V-B:SER:385:C:8377, V-B:SER:385:CB:8381"]

$$$$
RR20_Rahimova_2017
     RDKit          3D

 68 73  0  0  0  0  0  0  0  0999 V2000
  128.8070  127.2600   68.3370 C   0  0  0  0  0  0  0  0  0  0  0  0
  129.8890  126.6990   67.4320 C   0  0  0  0  0  0  0  0  0  0  0  0
  129.7560  125.4140   66.9050 C   0  0  0  0  0  0  0  0  0  0  0  0
  130.7430  124.9010   66.0670 C   0  0  0  0  0  0  0  0  0  0  0  0
  131.8770  125.6630   65.7610 C   0  0  0  0  0  0  0  0  0  0  0  0
  132.9270  125.0950   64.8330 C   0  0  0  0  0  0  0  0  0  0  0  0
  134.1040  125.1550   65.1970 O   0  0  0  0  0  0  0  0  0  0  0  0
  132.5410  124.5330   63.6500 N   0  0  0  0  0  0  0  0  0  0  0  0
  132.9660  123.1770   63.2650 C   0  0  0  0  0  0  0  0  0  0  0  0
  132.2250  122.8440   61.9820 C   0  0  0  0  0  0  0  0  0  0  0  0
  131.1500  123.8860   61.9370 C   0  0  0  0  0  0  0  0  0  0  0  0
  130.1040  124.0310   61.0250 C   0  0  0  0  0  0  0  0  0  0  0  0
  129.2890  125.1700   61.0500 C   0  0  0  0  0  0  0  0  0  0  0  0
  128.1560  125.3230   60.0740 C   0  0  0  0  0  0  0  0  0  0  0  0
  127.6940  126.5400   59.8320 N   0  0  0  0  0  0  0  0  0  0  0  0
  126.7240  126.5570   58.9540 C   0  0  0  0  0  0  0  0  0  0  0  0
  126.0260  127.6540   58.4730 N   0  0  0  0  0  0  0  0  0  0  0  0
  126.5520  128.8000   57.9760 C   0  0  0  0  0  0  0  0  0  0  0  0
  127.7610  129.0130   57.8660 O   0  0  0  0  0  0  0  0  0  0  0  0
  125.5750  129.8990   57.4950 C   0  0  0  0  0  0  0  0  0  0  0  0
  125.1440  130.8020   58.5790 N   0  0  0  0  0  0  0  0  0  0  0  0
  123.6960  130.7360   58.8220 C   0  0  0  0  0  0  0  0  0  0  0  0
  123.2620  131.8800   59.7670 C   0  0  0  0  0  0  0  0  0  0  0  0
  124.1820  132.0360   60.9780 C   0  0  0  0  0  0  0  0  0  0  0  0
  123.8090  132.8260   62.0710 C   0  0  0  0  0  0  0  0  0  0  0  0
  124.6640  132.9990   63.1570 C   0  0  0  0  0  0  0  0  0  0  0  0
  125.9080  132.3770   63.1630 C   0  0  0  0  0  0  0  0  0  0  0  0
  126.2890  131.5800   62.0860 C   0  0  0  0  0  0  0  0  0  0  0  0
  125.4400  131.3990   60.9880 C   0  0  0  0  0  0  0  0  0  0  0  0
  125.8340  130.4780   59.8330 C   0  0  0  0  0  0  0  0  0  0  0  0
  126.2860  125.0070   58.3480 S   0  0  0  0  0  0  0  0  0  0  0  0
  127.5060  124.2860   59.3710 C   0  0  0  0  0  0  0  0  0  0  0  0
  127.6900  122.7850   59.4020 C   0  0  0  0  0  0  0  0  0  0  0  0
  129.5840  126.1840   61.9740 C   0  0  0  0  0  0  0  0  0  0  0  0
  130.6410  126.0500   62.8740 C   0  0  0  0  0  0  0  0  0  0  0  0
  131.3950  124.8690   62.8950 C   0  0  0  0  0  0  0  0  0  0  0  0
  131.9890  126.9630   66.2710 C   0  0  0  0  0  0  0  0  0  0  0  0
  131.0010  127.4770   67.1080 C   0  0  0  0  0  0  0  0  0  0  0  0
  129.0945  127.1109   69.3882 H   0  0  0  0  0  0  0  0  0  0  0  0
  128.6846  128.3351   68.1393 H   0  0  0  0  0  0  0  0  0  0  0  0
  127.8578  126.7405   68.1393 H   0  0  0  0  0  0  0  0  0  0  0  0
  128.8725  124.8067   67.1511 H   0  0  0  0  0  0  0  0  0  0  0  0
  130.6311  123.8920   65.6434 H   0  0  0  0  0  0  0  0  0  0  0  0
  134.0524  123.1529   63.0942 H   0  0  0  0  0  0  0  0  0  0  0  0
  132.7397  122.4480   64.0571 H   0  0  0  0  0  0  0  0  0  0  0  0
  132.8897  122.9230   61.1091 H   0  0  0  0  0  0  0  0  0  0  0  0
  131.8348  121.8158   61.9598 H   0  0  0  0  0  0  0  0  0  0  0  0
  129.9177  123.2438   60.2796 H   0  0  0  0  0  0  0  0  0  0  0  0
  125.0180  127.5880   58.5060 H   0  0  0  0  0  0  0  0  0  0  0  0
  126.0748  130.4969   56.7186 H   0  0  0  0  0  0  0  0  0  0  0  0
  124.6764  129.3947   57.1101 H   0  0  0  0  0  0  0  0  0  0  0  0
  123.1620  130.8324   57.8652 H   0  0  0  0  0  0  0  0  0  0  0  0
  123.4538  129.7709   59.2909 H   0  0  0  0  0  0  0  0  0  0  0  0
  123.2653  132.8229   59.2005 H   0  0  0  0  0  0  0  0  0  0  0  0
  122.2594  131.6318   60.1453 H   0  0  0  0  0  0  0  0  0  0  0  0
  122.8252  133.3181   62.0727 H   0  0  0  0  0  0  0  0  0  0  0  0
  124.3563  133.6256   64.0071 H   0  0  0  0  0  0  0  0  0  0  0  0
  126.5891  132.5141   64.0158 H   0  0  0  0  0  0  0  0  0  0  0  0
  127.2715  131.0856   62.0986 H   0  0  0  0  0  0  0  0  0  0  0  0
  126.9182  130.5658   59.6691 H   0  0  0  0  0  0  0  0  0  0  0  0
  125.5421  129.4553   60.1139 H   0  0  0  0  0  0  0  0  0  0  0  0
  127.7320  122.4422   60.4464 H   0  0  0  0  0  0  0  0  0  0  0  0
  126.8444  122.3013   58.8911 H   0  0  0  0  0  0  0  0  0  0  0  0
  128.6274  122.5199   58.8911 H   0  0  0  0  0  0  0  0  0  0  0  0
  128.9725  127.0982   61.9887 H   0  0  0  0  0  0  0  0  0  0  0  0
  130.8824  126.8701   63.5662 H   0  0  0  0  0  0  0  0  0  0  0  0
  132.8609  127.5806   66.0094 H   0  0  0  0  0  0  0  0  0  0  0  0
  131.0975  128.4952   67.5130 H   0  0  0  0  0  0  0  0  0  0  0  0
  1  2  1  0
  2  3  2  0
  3  4  1  0
  4  5  2  0
  5  6  1  0
  6  7  2  0
  6  8  1  0
  8  9  1  0
  9 10  1  0
 10 11  1  0
 11 12  2  0
 12 13  1  0
 13 14  1  0
 14 15  1  0
 15 16  2  0
 16 17  1  0
 17 18  1  0
 18 19  2  0
 18 20  1  0
 20 21  1  0
 21 22  1  0
 22 23  1  0
 23 24  1  0
 24 25  2  0
 25 26  1  0
 26 27  2  0
 27 28  1  0
 28 29  2  0
 29 30  1  0
 16 31  1  0
 31 32  1  0
 32 33  1  0
 13 34  2  0
 34 35  1  0
 35 36  2  0
  5 37  1  0
 37 38  2  0
 38  2  1  0
 36  8  1  0
 36 11  1  0
 32 14  2  0
 30 21  1  0
 29 24  1  0
  1 39  1  0
  1 40  1  0
  1 41  1  0
  3 42  1  0
  4 43  1  0
  9 44  1  0
  9 45  1  0
 10 46  1  0
 10 47  1  0
 12 48  1  0
 17 49  1  0
 20 50  1  0
 20 51  1  0
 22 52  1  0
 22 53  1  0
 23 54  1  0
 23 55  1  0
 25 56  1  0
 26 57  1  0
 27 58  1  0
 28 59  1  0
 30 60  1  0
 30 61  1  0
 33 62  1  0
 33 63  1  0
 33 64  1  0
 34 65  1  0
 35 66  1  0
 37 67  1  0
 38 68  1  0
M  END
>  <Binding energies>  (1) 
[-7.32]

>  <Ligand effiencies>  (1) 
[-0.18769230769230769]

>  <Interactions>  (1) 
["H-A:GLY:454:N:4048, V-A:GLU:543:CD:4906, V-B:GLU:543:CG:9879, V-A:HIS:456:CE1:4068, V-A:ARG:545:CD:4921, V-A:ARG:545:CG:4920, V-B:GLU:543:CD:9880, V-B:GLU:543:CB:9878, V-A:ARG:545:CZ:4924, V-A:GLY:454:CA:4047, V-B:GLU:543:CA:9876, V-B:GLU:543:C:9874, V-B:ASP:366:CB:8184, V-B:ASP:366:CG:8185, V-B:PRO:540:C:9853, V-B:PRO:540:N:9856, V-B:PRO:540:CA:9855, H-B:TYR:531:OH:9767, V-B:GLY:454:CA:9021, V-A:TYR:484:CZ:4345, H-B:ASP:366:OD1:8186, V-A:LEU:475:CD2:4257, V-B:LEU:475:CD2:9231, V-B:TYR:539:C:9839, H-A:TYR:484:OH:4346, V-B:ILE:369:CD1:8211, V-B:ILE:369:CG2:8209, V-A:TYR:539:CZ:4875, V-B:ASP:366:C:8180, V-B:ASP:366:CA:8182, H-B:ASP:366:OD2:8187, H-A:ARG:545:NE:4922, V-A:GLU:543:CG:4905, V-B:ILE:369:CB:8208, V-A:TYR:484:CE1:4343, H-A:TYR:539:OH:4876, V-B:ILE:369:CG1:8210"]

$$$$
RR20_Rahimova_2017-again1
     RDKit          3D

 68 73  0  0  0  0  0  0  0  0999 V2000
  127.5190  136.3900   60.7050 C   0  0  0  0  0  0  0  0  0  0  0  0
  126.9490  134.9950   60.8870 C   0  0  0  0  0  0  0  0  0  0  0  0
  127.8100  133.9060   61.0380 C   0  0  0  0  0  0  0  0  0  0  0  0
  127.2900  132.6270   61.2130 C   0  0  0  0  0  0  0  0  0  0  0  0
  125.9050  132.4230   61.2260 C   0  0  0  0  0  0  0  0  0  0  0  0
  125.3570  131.0290   61.4350 C   0  0  0  0  0  0  0  0  0  0  0  0
  124.1430  130.8640   61.3030 O   0  0  0  0  0  0  0  0  0  0  0  0
  126.2190  130.0120   61.7290 N   0  0  0  0  0  0  0  0  0  0  0  0
  126.6780  129.7680   63.1070 C   0  0  0  0  0  0  0  0  0  0  0  0
  127.4900  128.4840   63.0680 C   0  0  0  0  0  0  0  0  0  0  0  0
  127.1170  127.8960   61.7400 C   0  0  0  0  0  0  0  0  0  0  0  0
  127.4910  126.6710   61.1860 C   0  0  0  0  0  0  0  0  0  0  0  0
  127.1770  126.3630   59.8530 C   0  0  0  0  0  0  0  0  0  0  0  0
  127.5860  125.0480   59.2540 C   0  0  0  0  0  0  0  0  0  0  0  0
  128.7110  124.4910   59.6740 N   0  0  0  0  0  0  0  0  0  0  0  0
  128.9940  123.3510   59.0920 C   0  0  0  0  0  0  0  0  0  0  0  0
  130.0890  122.5460   59.2600 N   0  0  0  0  0  0  0  0  0  0  0  0
  130.4610  122.0250   60.3810 C   0  0  0  0  0  0  0  0  0  0  0  0
  129.9370  122.0370   61.5120 O   0  0  0  0  0  0  0  0  0  0  0  0
  131.7850  121.2390   60.2980 C   0  0  0  0  0  0  0  0  0  0  0  0
  132.9910  122.2160   60.4260 N   0  0  2  0  0  0  0  0  0  0  0  0
  133.7640  122.0310   61.7470 C   0  0  0  0  0  0  0  0  0  0  0  0
  132.8700  122.4210   62.9390 C   0  0  0  0  0  0  0  0  0  0  0  0
  132.1850  123.7720   62.7590 C   0  0  0  0  0  0  0  0  0  0  0  0
  131.6920  124.4540   63.8770 C   0  0  0  0  0  0  0  0  0  0  0  0
  131.0180  125.6660   63.7460 C   0  0  0  0  0  0  0  0  0  0  0  0
  130.8300  126.2150   62.4840 C   0  0  0  0  0  0  0  0  0  0  0  0
  131.3250  125.5550   61.3630 C   0  0  0  0  0  0  0  0  0  0  0  0
  132.0120  124.3400   61.4750 C   0  0  0  0  0  0  0  0  0  0  0  0
  132.5800  123.6920   60.2060 C   0  0  0  0  0  0  0  0  0  0  0  0
  127.8320  122.8860   57.9060 S   0  0  0  0  0  0  0  0  0  0  0  0
  126.8940  124.3140   58.2700 C   0  0  0  0  0  0  0  0  0  0  0  0
  125.5720  124.5630   57.5740 C   0  0  0  0  0  0  0  0  0  0  0  0
  126.5220  127.3320   59.0820 C   0  0  0  0  0  0  0  0  0  0  0  0
  126.1620  128.5650   59.6280 C   0  0  0  0  0  0  0  0  0  0  0  0
  126.4110  128.8290   60.9810 C   0  0  0  0  0  0  0  0  0  0  0  0
  125.0470  133.5250   61.1050 C   0  0  0  0  0  0  0  0  0  0  0  0
  125.5680  134.8040   60.9310 C   0  0  0  0  0  0  0  0  0  0  0  0
  127.7037  136.8421   61.6906 H   0  0  0  0  0  0  0  0  0  0  0  0
  128.4646  136.3297   60.1462 H   0  0  0  0  0  0  0  0  0  0  0  0
  126.8018  137.0091   60.1462 H   0  0  0  0  0  0  0  0  0  0  0  0
  128.8991  134.0591   61.0186 H   0  0  0  0  0  0  0  0  0  0  0  0
  127.9704  131.7723   61.3417 H   0  0  0  0  0  0  0  0  0  0  0  0
  127.3041  130.6037   63.4530 H   0  0  0  0  0  0  0  0  0  0  0  0
  125.8287  129.6817   63.8007 H   0  0  0  0  0  0  0  0  0  0  0  0
  128.5683  128.6953   63.1191 H   0  0  0  0  0  0  0  0  0  0  0  0
  127.2847  127.8127   63.9149 H   0  0  0  0  0  0  0  0  0  0  0  0
  128.0372  125.9397   61.7999 H   0  0  0  0  0  0  0  0  0  0  0  0
  131.8238  120.5029   61.1145 H   0  0  0  0  0  0  0  0  0  0  0  0
  131.8390  120.7224   59.3283 H   0  0  0  0  0  0  0  0  0  0  0  0
  133.6300  121.9660   59.6820 H   0  0  0  0  0  0  0  0  0  0  0  0
  134.0667  120.9783   61.8477 H   0  0  0  0  0  0  0  0  0  0  0  0
  134.6551  122.6759   61.7375 H   0  0  0  0  0  0  0  0  0  0  0  0
  132.0954  121.6498   63.0622 H   0  0  0  0  0  0  0  0  0  0  0  0
  133.5195  122.4988   63.8233 H   0  0  0  0  0  0  0  0  0  0  0  0
  131.8396  124.0246   64.8789 H   0  0  0  0  0  0  0  0  0  0  0  0
  130.6366  126.1856   64.6374 H   0  0  0  0  0  0  0  0  0  0  0  0
  130.2920  127.1678   62.3710 H   0  0  0  0  0  0  0  0  0  0  0  0
  131.1732  125.9975   60.3674 H   0  0  0  0  0  0  0  0  0  0  0  0
  131.8143  123.7310   59.4172 H   0  0  0  0  0  0  0  0  0  0  0  0
  133.4835  124.2512   59.9213 H   0  0  0  0  0  0  0  0  0  0  0  0
  124.7836  124.7115   58.3266 H   0  0  0  0  0  0  0  0  0  0  0  0
  125.6524  125.4618   56.9450 H   0  0  0  0  0  0  0  0  0  0  0  0
  125.3199  123.6965   56.9450 H   0  0  0  0  0  0  0  0  0  0  0  0
  126.2875  127.1176   58.0289 H   0  0  0  0  0  0  0  0  0  0  0  0
  125.6835  129.3283   58.9968 H   0  0  0  0  0  0  0  0  0  0  0  0
  123.9577  133.3784   61.1477 H   0  0  0  0  0  0  0  0  0  0  0  0
  124.8904  135.6644   60.8282 H   0  0  0  0  0  0  0  0  0  0  0  0
  1  2  1  0
  2  3  2  0
  3  4  1  0
  4  5  2  0
  5  6  1  0
  6  7  2  0
  6  8  1  0
  8  9  1  0
  9 10  1  0
 10 11  1  0
 11 12  2  0
 12 13  1  0
 13 14  1  0
 14 15  1  0
 15 16  2  0
 16 17  1  0
 17 18  2  0
 18 19  1  0
 18 20  1  0
 20 21  1  0
 21 22  1  0
 22 23  1  0
 23 24  1  0
 24 25  2  0
 25 26  1  0
 26 27  2  0
 27 28  1  0
 28 29  2  0
 29 30  1  0
 16 31  1  0
 31 32  1  0
 32 33  1  0
 13 34  2  0
 34 35  1  0
 35 36  2  0
  5 37  1  0
 37 38  2  0
 38  2  1  0
 36  8  1  0
 36 11  1  0
 32 14  2  0
 30 21  1  0
 29 24  1  0
  1 39  1  0
  1 40  1  0
  1 41  1  0
  3 42  1  0
  4 43  1  0
  9 44  1  0
  9 45  1  0
 10 46  1  0
 10 47  1  0
 12 48  1  0
 20 49  1  0
 20 50  1  0
 21 51  1  6
 22 52  1  0
 22 53  1  0
 23 54  1  0
 23 55  1  0
 25 56  1  0
 26 57  1  0
 27 58  1  0
 28 59  1  0
 30 60  1  0
 30 61  1  0
 33 62  1  0
 33 63  1  0
 33 64  1  0
 34 65  1  0
 35 66  1  0
 37 67  1  0
 38 68  1  0
M  CHG  2  19  -1  21   1
M  END
>  <Binding energies>  (1) 
[-7.45]

>  <Ligand effiencies>  (1) 
[-0.19102564102564104]

>  <Interactions>  (1) 
["V-A:GLU:543:CD:4906, V-B:TYR:539:CE2:9848, V-A:ILE:369:CD1:3237, V-A:ILE:369:CG2:3235, V-B:GLU:543:CD:9880, V-A:GLY:454:CA:4047, V-B:ASP:366:CG:8185, V-B:TYR:539:CD2:9846, V-B:PRO:540:N:9856, V-B:PRO:540:CA:9855, V-A:TYR:539:CE2:4874, V-A:TYR:539:CD2:4872, V-A:LEU:475:CD2:4257, V-B:LEU:475:CD2:9231, V-A:ALA:541:CB:4890, V-B:TYR:539:C:9839, V-A:TYR:539:C:4865, V-B:PRO:482:CG:9299, V-B:PRO:482:CB:9298, V-B:TRP:381:CZ2:8342, V-B:TRP:381:CH2:8344, V-B:TRP:381:CZ3:8343, V-B:TRP:381:CE2:8339"]

$$$$
RR21_Rahimova_2017
     RDKit          3D

 62 67  0  0  0  0  0  0  0  0999 V2000
  123.3190  124.3590   57.5190 C   0  0  0  0  0  0  0  0  0  0  0  0
  123.6580  124.0000   58.8550 O   0  0  0  0  0  0  0  0  0  0  0  0
  124.9880  123.9620   59.2280 C   0  0  0  0  0  0  0  0  0  0  0  0
  126.0610  123.8890   58.3230 C   0  0  0  0  0  0  0  0  0  0  0  0
  127.3760  123.8580   58.7830 C   0  0  0  0  0  0  0  0  0  0  0  0
  127.6550  123.9030   60.1540 C   0  0  0  0  0  0  0  0  0  0  0  0
  129.0700  123.8750   60.6450 C   0  0  0  0  0  0  0  0  0  0  0  0
  129.8220  122.8160   60.4180 N   0  0  0  0  0  0  0  0  0  0  0  0
  131.0210  123.0710   60.9630 N   0  0  0  0  0  0  0  0  0  0  0  0
  132.0860  122.1360   60.8810 C   0  0  0  0  0  0  0  0  0  0  0  0
  132.0600  121.0990   59.9360 C   0  0  0  0  0  0  0  0  0  0  0  0
  133.1130  120.1910   59.8620 C   0  0  0  0  0  0  0  0  0  0  0  0
  134.1930  120.3150   60.7330 C   0  0  0  0  0  0  0  0  0  0  0  0
  134.2300  121.3370   61.6780 C   0  0  0  0  0  0  0  0  0  0  0  0
  133.1780  122.2470   61.7540 C   0  0  0  0  0  0  0  0  0  0  0  0
  131.0290  124.3210   61.5290 C   0  0  0  0  0  0  0  0  0  0  0  0
  129.7700  124.8760   61.3570 C   0  0  0  0  0  0  0  0  0  0  0  0
  129.3110  126.2010   61.7470 C   0  0  0  0  0  0  0  0  0  0  0  0
  129.5040  127.3760   61.1050 C   0  0  0  0  0  0  0  0  0  0  0  0
  130.3880  127.6610   59.5900 S   0  0  0  0  0  0  0  0  0  0  0  0
  129.9910  129.3700   59.6960 C   0  0  0  0  0  0  0  0  0  0  0  0
  130.3030  130.3130   58.8610 N   0  0  0  0  0  0  0  0  0  0  0  0
  129.9060  131.6640   59.0600 C   0  0  0  0  0  0  0  0  0  0  0  0
  130.1430  132.6090   58.3080 O   0  0  0  0  0  0  0  0  0  0  0  0
  129.1190  131.8860   60.3220 C   0  0  0  0  0  0  0  0  0  0  0  0
  128.6530  133.3100   60.6530 C   0  0  0  0  0  0  0  0  0  0  0  0
  127.1760  133.4170   61.0260 C   0  0  0  0  0  0  0  0  0  0  0  0
  126.5790  132.4280   61.8120 C   0  0  0  0  0  0  0  0  0  0  0  0
  125.2360  132.5350   62.1660 C   0  0  0  0  0  0  0  0  0  0  0  0
  124.4870  133.6330   61.7370 C   0  0  0  0  0  0  0  0  0  0  0  0
  123.0280  133.7510   62.1350 C   0  0  0  0  0  0  0  0  0  0  0  0
  125.0850  134.6290   60.9610 C   0  0  0  0  0  0  0  0  0  0  0  0
  126.4270  134.5210   60.6070 C   0  0  0  0  0  0  0  0  0  0  0  0
  128.8200  130.9370   61.1480 N   0  0  0  0  0  0  0  0  0  0  0  0
  129.2650  129.6500   60.8230 N   0  0  0  0  0  0  0  0  0  0  0  0
  128.9630  128.6160   61.6460 C   0  0  0  0  0  0  0  0  0  0  0  0
  128.3180  128.7160   62.6970 O   0  0  0  0  0  0  0  0  0  0  0  0
  126.5880  123.9700   61.0550 C   0  0  0  0  0  0  0  0  0  0  0  0
  125.2700  124.0000   60.5980 C   0  0  0  0  0  0  0  0  0  0  0  0
  124.2600  124.0650   61.4960 F   0  0  0  0  0  0  0  0  0  0  0  0
  122.5639  125.1587   57.5346 H   0  0  0  0  0  0  0  0  0  0  0  0
  124.2187  124.7144   56.9953 H   0  0  0  0  0  0  0  0  0  0  0  0
  122.9127  123.4811   56.9953 H   0  0  0  0  0  0  0  0  0  0  0  0
  125.8609  123.8560   57.2419 H   0  0  0  0  0  0  0  0  0  0  0  0
  128.2037  123.7975   58.0610 H   0  0  0  0  0  0  0  0  0  0  0  0
  131.2046  121.0031   59.2511 H   0  0  0  0  0  0  0  0  0  0  0  0
  133.0921  119.3798   59.1194 H   0  0  0  0  0  0  0  0  0  0  0  0
  135.0252  119.5981   60.6737 H   0  0  0  0  0  0  0  0  0  0  0  0
  135.0869  121.4255   62.3621 H   0  0  0  0  0  0  0  0  0  0  0  0
  133.2039  123.0545   62.5005 H   0  0  0  0  0  0  0  0  0  0  0  0
  131.8835  124.7986   62.0307 H   0  0  0  0  0  0  0  0  0  0  0  0
  128.7342  126.2536   62.6821 H   0  0  0  0  0  0  0  0  0  0  0  0
  129.2498  133.6797   61.4998 H   0  0  0  0  0  0  0  0  0  0  0  0
  128.7913  133.9071   59.7396 H   0  0  0  0  0  0  0  0  0  0  0  0
  127.1698  131.5645   62.1514 H   0  0  0  0  0  0  0  0  0  0  0  0
  124.7657  131.7552   62.7830 H   0  0  0  0  0  0  0  0  0  0  0  0
  122.9466  133.7576   63.2320 H   0  0  0  0  0  0  0  0  0  0  0  0
  122.6121  134.6857   61.7308 H   0  0  0  0  0  0  0  0  0  0  0  0
  122.4673  132.8953   61.7308 H   0  0  0  0  0  0  0  0  0  0  0  0
  124.4963  135.4973   60.6302 H   0  0  0  0  0  0  0  0  0  0  0  0
  126.8989  135.3052   59.9968 H   0  0  0  0  0  0  0  0  0  0  0  0
  126.7898  123.9994   62.1359 H   0  0  0  0  0  0  0  0  0  0  0  0
  1  2  1  0
  2  3  1  0
  3  4  2  0
  4  5  1  0
  5  6  2  0
  6  7  1  0
  7  8  2  0
  8  9  1  0
  9 10  1  0
 10 11  2  0
 11 12  1  0
 12 13  2  0
 13 14  1  0
 14 15  2  0
  9 16  1  0
 16 17  2  0
 17 18  1  0
 18 19  2  0
 19 20  1  0
 20 21  1  0
 21 22  2  0
 22 23  1  0
 23 24  2  0
 23 25  1  0
 25 26  1  0
 26 27  1  0
 27 28  2  0
 28 29  1  0
 29 30  2  0
 30 31  1  0
 30 32  1  0
 32 33  2  0
 25 34  2  0
 34 35  1  0
 35 36  1  0
 36 37  2  0
  6 38  1  0
 38 39  2  0
 39 40  1  0
 39  3  1  0
 17  7  1  0
 36 19  1  0
 15 10  1  0
 35 21  1  0
 33 27  1  0
  1 41  1  0
  1 42  1  0
  1 43  1  0
  4 44  1  0
  5 45  1  0
 11 46  1  0
 12 47  1  0
 13 48  1  0
 14 49  1  0
 15 50  1  0
 16 51  1  0
 18 52  1  0
 26 53  1  0
 26 54  1  0
 28 55  1  0
 29 56  1  0
 31 57  1  0
 31 58  1  0
 31 59  1  0
 32 60  1  0
 33 61  1  0
 38 62  1  0
M  END
>  <Binding energies>  (1) 
[-8.13]

>  <Ligand effiencies>  (1) 
[-0.20325000000000001]

>  <Interactions>  (1) 
["V-A:GLU:543:CD:4906, V-B:TYR:539:CE2:9848, V-A:ILE:369:CD1:3237, V-A:ILE:369:CG2:3235, V-B:GLU:543:CD:9880, V-A:GLY:454:CA:4047, V-B:ASP:366:CB:8184, V-B:ASN:362:CB:8148, V-B:LEU:363:CA:8157, V-B:PRO:540:CB:9857, V-B:ASP:366:CG:8185, V-B:TYR:531:CE2:9765, V-B:LEU:363:CD1:8161, V-B:ASN:362:C:8144, V-B:TYR:531:CZ:9766, V-B:LEU:363:CB:8159, V-B:TYR:539:CD2:9846, V-B:PRO:540:N:9856, V-B:PRO:540:CA:9855, V-A:TYR:539:CE2:4874, V-B:GLY:454:CA:9021, V-A:TYR:539:CD2:4872, V-A:LEU:475:CD2:4257, V-B:LEU:475:CD2:9231, V-A:ALA:541:CB:4890, V-A:TYR:539:C:4865, V-B:ARG:545:CZ:9898, V-B:ILE:369:CD1:8211, V-B:ILE:369:CG2:8209, V-A:PRO:540:CA:4881, V-A:PRO:540:C:4879, V-A:PRO:540:N:4882, V-B:TRP:381:CZ2:8342, V-B:TRP:381:CH2:8344, V-A:TRP:381:CZ2:3368, V-A:TRP:381:CH2:3370, V-A:ALA:541:CA:4888, V-B:ILE:369:CG1:8210, V-A:SER:385:CA:3405, V-B:SER:385:C:8377, V-A:SER:385:C:3403, H-B:LEU:363:N:8158"]

$$$$
RR22_Rahimova_2017
     RDKit          3D

 49 54  0  0  0  0  0  0  0  0999 V2000
  126.9850  126.1720   60.0040 O   0  0  0  0  0  0  0  0  0  0  0  0
  127.2310  127.2930   60.4440 C   0  0  0  0  0  0  0  0  0  0  0  0
  126.3260  128.2540   60.8600 N   0  0  0  0  0  0  0  0  0  0  0  0
  126.7830  129.4950   61.4080 C   0  0  1  0  0  0  0  0  0  0  0  0
  126.1690  130.5080   60.6060 O   0  0  0  0  0  0  0  0  0  0  0  0
  125.3300  131.4300   61.2310 C   0  0  0  0  0  0  0  0  0  0  0  0
  124.4730  132.1540   60.4010 C   0  0  0  0  0  0  0  0  0  0  0  0
  123.6330  133.1240   60.9490 C   0  0  0  0  0  0  0  0  0  0  0  0
  123.6560  133.3740   62.3210 C   0  0  0  0  0  0  0  0  0  0  0  0
  124.5140  132.6500   63.1520 C   0  0  0  0  0  0  0  0  0  0  0  0
  125.3440  131.6580   62.6200 C   0  0  0  0  0  0  0  0  0  0  0  0
  126.3380  130.8510   63.4260 C   0  0  1  0  0  0  0  0  0  0  0  0
  126.0990  130.4770   64.8750 C   0  0  0  0  0  0  0  0  0  0  0  0
  126.8670  129.1540   64.9340 C   0  0  0  0  0  0  0  0  0  0  0  0
  127.2960  128.5360   66.2040 C   0  0  0  0  0  0  0  0  0  0  0  0
  126.3780  127.8370   67.0030 C   0  0  0  0  0  0  0  0  0  0  0  0
  126.7870  127.2550   68.1990 C   0  0  0  0  0  0  0  0  0  0  0  0
  128.1140  127.3670   68.6050 C   0  0  0  0  0  0  0  0  0  0  0  0
  129.0370  128.0570   67.8240 C   0  0  0  0  0  0  0  0  0  0  0  0
  128.6300  128.6390   66.6260 C   0  0  0  0  0  0  0  0  0  0  0  0
  127.0510  128.6740   63.7620 N   0  0  0  0  0  0  0  0  0  0  0  0
  126.4520  129.5500   62.8400 N   0  0  0  0  0  0  0  0  0  0  0  0
  128.2800  129.5630   61.1440 C   0  0  0  0  0  0  0  0  0  0  0  0
  128.9880  130.7140   61.2090 C   0  0  0  0  0  0  0  0  0  0  0  0
  130.4350  130.9180   60.9980 C   0  0  0  0  0  0  0  0  0  0  0  0
  131.0380  130.8780   59.7330 C   0  0  0  0  0  0  0  0  0  0  0  0
  132.4140  131.0790   59.6100 C   0  0  0  0  0  0  0  0  0  0  0  0
  133.1580  131.3100   60.7660 C   0  0  0  0  0  0  0  0  0  0  0  0
  132.6030  131.3450   62.0030 N   0  0  0  0  0  0  0  0  0  0  0  0
  131.2630  131.1480   62.1020 C   0  0  0  0  0  0  0  0  0  0  0  0
  128.9020  127.9790   60.6580 S   0  0  0  0  0  0  0  0  0  0  0  0
  125.3340  128.1150   60.7440 H   0  0  0  0  0  0  0  0  0  0  0  0
  124.4598  131.9606   59.3182 H   0  0  0  0  0  0  0  0  0  0  0  0
  122.9519  133.6921   60.2983 H   0  0  0  0  0  0  0  0  0  0  0  0
  122.9968  134.1432   62.7496 H   0  0  0  0  0  0  0  0  0  0  0  0
  124.5370  132.8613   64.2313 H   0  0  0  0  0  0  0  0  0  0  0  0
  127.1775  131.5616   63.4100 H   0  0  0  0  0  0  0  0  0  0  0  0
  126.5183  131.2243   65.5647 H   0  0  0  0  0  0  0  0  0  0  0  0
  125.0413  130.4140   65.1704 H   0  0  0  0  0  0  0  0  0  0  0  0
  125.3296  127.7487   66.6821 H   0  0  0  0  0  0  0  0  0  0  0  0
  126.0639  126.7080   68.8219 H   0  0  0  0  0  0  0  0  0  0  0  0
  128.4358  126.9065   69.5507 H   0  0  0  0  0  0  0  0  0  0  0  0
  130.0836  128.1422   68.1518 H   0  0  0  0  0  0  0  0  0  0  0  0
  129.3588  129.1827   66.0070 H   0  0  0  0  0  0  0  0  0  0  0  0
  128.4090  131.6174   61.4511 H   0  0  0  0  0  0  0  0  0  0  0  0
  130.4273  130.6884   58.8380 H   0  0  0  0  0  0  0  0  0  0  0  0
  132.9000  131.0556   58.6235 H   0  0  0  0  0  0  0  0  0  0  0  0
  134.2420  131.4708   60.6708 H   0  0  0  0  0  0  0  0  0  0  0  0
  130.8050  131.1704   63.1018 H   0  0  0  0  0  0  0  0  0  0  0  0
  1  2  2  0
  2  3  1  0
  3  4  1  0
  4  5  1  6
  5  6  1  0
  6  7  2  0
  7  8  1  0
  8  9  2  0
  9 10  1  0
 10 11  2  0
 11 12  1  0
 12 13  1  0
 13 14  1  0
 14 15  1  0
 15 16  2  0
 16 17  1  0
 17 18  2  0
 18 19  1  0
 19 20  2  0
 14 21  2  0
 21 22  1  0
  4 23  1  0
 23 24  2  0
 24 25  1  0
 25 26  2  0
 26 27  1  0
 27 28  2  0
 28 29  1  0
 29 30  2  0
 23 31  1  0
 31  2  1  0
 22  4  1  0
 30 25  1  0
 11  6  1  0
 22 12  1  0
 20 15  1  0
  3 32  1  0
  7 33  1  0
  8 34  1  0
  9 35  1  0
 10 36  1  0
 12 37  1  1
 13 38  1  0
 13 39  1  0
 16 40  1  0
 17 41  1  0
 18 42  1  0
 19 43  1  0
 20 44  1  0
 24 45  1  0
 26 46  1  0
 27 47  1  0
 28 48  1  0
 30 49  1  0
M  END
>  <Binding energies>  (1) 
[-7.3]

>  <Ligand effiencies>  (1) 
[-0.228125]

>  <Interactions>  (1) 
["V-A:GLU:543:CD:4906, V-B:GLU:543:CG:9879, V-B:GLU:543:CD:9880, V-B:GLU:543:C:9874, V-B:ASP:366:CG:8185, V-A:TYR:539:CE2:4874, H-B:ARG:545:NH2:9900, V-B:GLY:454:CA:9021, H-B:ASP:366:OD1:8186, V-B:LEU:475:CD2:9231, H-A:ARG:545:NH2:4926, V-A:GLU:543:CB:4904, V-B:ILE:369:CD1:8211, V-B:ILE:369:CG2:8209, V-A:PRO:540:CA:4881, V-B:HIS:456:CE1:9042, V-A:ASN:362:CB:3174, V-A:PRO:540:CB:4883, V-B:TYR:484:CZ:9319, H-A:ALA:541:N:4889, V-B:ARG:545:CG:9894, H-B:ASP:366:OD2:8187, V-A:GLU:543:CG:4905, V-B:ILE:369:CB:8208, V-A:GLU:543:C:4900, V-B:GLY:544:C:9884, V-B:ARG:545:CD:9895, V-B:ARG:545:CA:9891, V-B:ILE:369:CG1:8210"]

$$$$
RR23_Rahimova_2017
     RDKit          3D

 65 70  0  0  0  0  0  0  0  0999 V2000
  130.7190  126.5260   66.7070 C   0  0  0  0  0  0  0  0  0  0  0  0
  131.4720  125.9140   65.5400 C   0  0  0  0  0  0  0  0  0  0  0  0
  130.8490  125.7850   64.2980 C   0  0  0  0  0  0  0  0  0  0  0  0
  131.5440  125.2320   63.2250 C   0  0  0  0  0  0  0  0  0  0  0  0
  132.8630  124.7930   63.3890 C   0  0  0  0  0  0  0  0  0  0  0  0
  133.6070  124.2140   62.2070 C   0  0  0  0  0  0  0  0  0  0  0  0
  134.8140  124.4510   62.1200 O   0  0  0  0  0  0  0  0  0  0  0  0
  132.9310  123.4500   61.2980 N   0  0  0  0  0  0  0  0  0  0  0  0
  133.0460  121.9830   61.2890 C   0  0  0  0  0  0  0  0  0  0  0  0
  132.0520  121.4820   60.2540 C   0  0  0  0  0  0  0  0  0  0  0  0
  131.1800  122.6790   60.0220 C   0  0  0  0  0  0  0  0  0  0  0  0
  130.0350  122.7930   59.2340 C   0  0  0  0  0  0  0  0  0  0  0  0
  129.4450  124.0470   59.0160 C   0  0  0  0  0  0  0  0  0  0  0  0
  128.1840  124.2170   58.1550 C   0  0  2  0  0  0  0  0  0  0  0  0
  127.8200  125.6080   57.9890 N   0  0  0  0  0  0  0  0  0  0  0  0
  126.5610  125.7590   57.8900 C   0  0  0  0  0  0  0  0  0  0  0  0
  125.8640  126.9190   57.7510 N   0  0  0  0  0  0  0  0  0  0  0  0
  126.3240  128.1920   57.8250 C   0  0  0  0  0  0  0  0  0  0  0  0
  127.5000  128.5200   57.9960 O   0  0  0  0  0  0  0  0  0  0  0  0
  125.2580  129.2910   57.6830 C   0  0  0  0  0  0  0  0  0  0  0  0
  125.1630  130.0410   58.9550 N   0  0  0  0  0  0  0  0  0  0  0  0
  125.8970  129.5180   60.0120 N   0  0  0  0  0  0  0  0  0  0  0  0
  125.8980  130.0800   61.1790 N   0  0  0  0  0  0  0  0  0  0  0  0
  125.1500  131.2410   61.3900 C   0  0  0  0  0  0  0  0  0  0  0  0
  125.1720  131.8210   62.6610 C   0  0  0  0  0  0  0  0  0  0  0  0
  124.4350  132.9810   62.9040 C   0  0  0  0  0  0  0  0  0  0  0  0
  123.6780  133.5600   61.8820 C   0  0  0  0  0  0  0  0  0  0  0  0
  123.6550  132.9810   60.6120 C   0  0  0  0  0  0  0  0  0  0  0  0
  124.3960  131.8180   60.3680 C   0  0  0  0  0  0  0  0  0  0  0  0
  124.3810  131.1740   59.0010 C   0  0  0  0  0  0  0  0  0  0  0  0
  123.7330  131.6080   58.0450 O   0  0  0  0  0  0  0  0  0  0  0  0
  125.5590  124.2800   57.9540 S   0  0  0  0  0  0  0  0  0  0  0  0
  126.9690  123.3900   58.6360 C   0  0  2  0  0  0  0  0  0  0  0  0
  126.7860  123.2510   60.1620 C   0  0  0  0  0  0  0  0  0  0  0  0
  130.0530  125.1830   59.5630 C   0  0  0  0  0  0  0  0  0  0  0  0
  131.2110  125.0730   60.3340 C   0  0  0  0  0  0  0  0  0  0  0  0
  131.7480  123.8090   60.6140 C   0  0  0  0  0  0  0  0  0  0  0  0
  133.4910  124.9510   64.6320 C   0  0  0  0  0  0  0  0  0  0  0  0
  132.7960  125.5050   65.7040 C   0  0  0  0  0  0  0  0  0  0  0  0
  131.1559  126.1709   67.6520 H   0  0  0  0  0  0  0  0  0  0  0  0
  130.7941  127.6223   66.6574 H   0  0  0  0  0  0  0  0  0  0  0  0
  129.6612  126.2284   66.6574 H   0  0  0  0  0  0  0  0  0  0  0  0
  129.8095  126.1199   64.1664 H   0  0  0  0  0  0  0  0  0  0  0  0
  131.0542  125.1399   62.2444 H   0  0  0  0  0  0  0  0  0  0  0  0
  134.0675  121.6830   61.0122 H   0  0  0  0  0  0  0  0  0  0  0  0
  132.8353  121.5600   62.2823 H   0  0  0  0  0  0  0  0  0  0  0  0
  132.5631  121.1791   59.3283 H   0  0  0  0  0  0  0  0  0  0  0  0
  131.4927  120.5936   60.5826 H   0  0  0  0  0  0  0  0  0  0  0  0
  129.5918  121.8941   58.7806 H   0  0  0  0  0  0  0  0  0  0  0  0
  128.4647  123.8076   57.1734 H   0  0  0  0  0  0  0  0  0  0  0  0
  124.8670  126.8240   57.6230 H   0  0  0  0  0  0  0  0  0  0  0  0
  125.5420  129.9769   56.8713 H   0  0  0  0  0  0  0  0  0  0  0  0
  124.2849  128.8351   57.4482 H   0  0  0  0  0  0  0  0  0  0  0  0
  125.7673  131.3656   63.4661 H   0  0  0  0  0  0  0  0  0  0  0  0
  124.4501  133.4409   63.9031 H   0  0  0  0  0  0  0  0  0  0  0  0
  123.0988  134.4742   62.0787 H   0  0  0  0  0  0  0  0  0  0  0  0
  123.0583  133.4357   59.8075 H   0  0  0  0  0  0  0  0  0  0  0  0
  127.0972  122.3491   58.3042 H   0  0  0  0  0  0  0  0  0  0  0  0
  127.5592  123.8383   60.6790 H   0  0  0  0  0  0  0  0  0  0  0  0
  125.7909  123.6230   60.4474 H   0  0  0  0  0  0  0  0  0  0  0  0
  126.8774  122.1926   60.4474 H   0  0  0  0  0  0  0  0  0  0  0  0
  129.6125  126.1747   59.3829 H   0  0  0  0  0  0  0  0  0  0  0  0
  131.7020  125.9777   60.7217 H   0  0  0  0  0  0  0  0  0  0  0  0
  134.5370  124.6361   64.7613 H   0  0  0  0  0  0  0  0  0  0  0  0
  133.2906  125.6202   66.6798 H   0  0  0  0  0  0  0  0  0  0  0  0
  1  2  1  0
  2  3  2  0
  3  4  1  0
  4  5  2  0
  5  6  1  0
  6  7  2  0
  6  8  1  0
  8  9  1  0
  9 10  1  0
 10 11  1  0
 11 12  2  0
 12 13  1  0
 13 14  1  0
 14 15  1  0
 15 16  2  0
 16 17  1  0
 17 18  1  0
 18 19  2  0
 18 20  1  0
 20 21  1  0
 21 22  1  0
 22 23  2  0
 23 24  1  0
 24 25  2  0
 25 26  1  0
 26 27  2  0
 27 28  1  0
 28 29  2  0
 29 30  1  0
 30 31  2  0
 16 32  1  0
 32 33  1  0
 33 34  1  0
 13 35  2  0
 35 36  1  0
 36 37  2  0
  5 38  1  0
 38 39  2  0
 39  2  1  0
 37  8  1  0
 37 11  1  0
 33 14  1  0
 30 21  1  0
 29 24  1  0
  1 40  1  0
  1 41  1  0
  1 42  1  0
  3 43  1  0
  4 44  1  0
  9 45  1  0
  9 46  1  0
 10 47  1  0
 10 48  1  0
 12 49  1  0
 14 50  1  6
 17 51  1  0
 20 52  1  0
 20 53  1  0
 25 54  1  0
 26 55  1  0
 27 56  1  0
 28 57  1  0
 33 58  1  6
 34 59  1  0
 34 60  1  0
 34 61  1  0
 35 62  1  0
 36 63  1  0
 38 64  1  0
 39 65  1  0
M  END
>  <Binding energies>  (1) 
[-10.04]

>  <Ligand effiencies>  (1) 
[-0.251]

>  <Interactions>  (1) 
["H-A:GLY:454:N:4048, V-A:GLU:543:CD:4906, V-A:HIS:456:CE1:4068, V-B:TYR:539:CE2:9848, V-A:ARG:545:CD:4921, V-A:GLY:453:CA:4042, V-A:ARG:545:CG:4920, V-B:GLU:543:CD:9880, V-A:ARG:545:CZ:4924, V-A:GLY:454:CA:4047, V-B:ASP:366:CB:8184, V-B:PRO:540:CB:9857, V-B:ASP:366:CG:8185, V-B:PRO:540:C:9853, V-B:TYR:539:CD2:9846, V-B:PRO:540:N:9856, V-B:PRO:540:CA:9855, V-A:TYR:539:CE2:4874, H-B:TYR:531:OH:9767, V-B:GLY:454:CA:9021, V-A:LEU:475:CD2:4257, V-B:LEU:475:CD2:9231, V-B:TYR:539:C:9839, V-B:ILE:369:CD1:8211, V-B:ILE:369:CG2:8209, V-A:TYR:539:CZ:4875, H-B:ASP:366:OD2:8187, V-A:GLU:543:CG:4905, V-B:ILE:369:CB:8208, H-A:ARG:545:NH1:4925, H-A:TYR:539:OH:4876, V-B:ILE:369:CG1:8210"]

$$$$
RR24_Rahimova_2017
     RDKit          3D

 65 71  0  0  0  0  0  0  0  0999 V2000
  127.0520  123.7890   60.3140 C   0  0  0  0  0  0  0  0  0  0  0  0
  128.1950  124.3360   59.4470 C   0  0  2  0  0  0  0  0  0  0  0  0
  127.8400  124.4010   57.9320 C   0  0  0  0  0  0  0  0  0  0  0  0
  127.0080  123.6450   57.4200 O   0  0  0  0  0  0  0  0  0  0  0  0
  128.5640  125.3480   57.2660 O   0  0  0  0  0  0  0  0  0  0  0  0
  128.6180  126.6330   57.7580 C   0  0  0  0  0  0  0  0  0  0  0  0
  129.5920  127.5090   57.2770 C   0  0  0  0  0  0  0  0  0  0  0  0
  129.6510  128.8130   57.7600 C   0  0  0  0  0  0  0  0  0  0  0  0
  128.7320  129.2490   58.7190 C   0  0  0  0  0  0  0  0  0  0  0  0
  128.8140  130.6800   59.2620 C   0  0  1  0  0  0  0  0  0  0  0  0
  127.5420  131.0740   60.0490 C   0  0  0  0  0  0  0  0  0  0  0  0
  127.5850  131.6010   61.2860 C   0  0  0  0  0  0  0  0  0  0  0  0
  128.7690  131.8280   61.9450 N   0  0  0  0  0  0  0  0  0  0  0  0
  129.9780  131.5230   61.3660 C   0  0  0  0  0  0  0  0  0  0  0  0
  131.0520  131.8150   62.1440 N   0  0  0  0  0  0  0  0  0  0  0  0
  132.3250  131.5110   61.7720 C   0  0  0  0  0  0  0  0  0  0  0  0
  133.2160  131.5010   62.6230 O   0  0  0  0  0  0  0  0  0  0  0  0
  132.4420  131.0760   60.4610 N   0  0  0  0  0  0  0  0  0  0  0  0
  133.8140  130.8190   59.9770 C   0  0  0  0  0  0  0  0  0  0  0  0
  131.4210  130.7460   59.5860 C   0  0  0  0  0  0  0  0  0  0  0  0
  131.6000  130.3130   58.4440 O   0  0  0  0  0  0  0  0  0  0  0  0
  130.0770  130.9800   60.1250 C   0  0  0  0  0  0  0  0  0  0  0  0
  126.2450  131.8710   61.7810 C   0  0  0  0  0  0  0  0  0  0  0  0
  125.7620  132.4000   62.9780 C   0  0  0  0  0  0  0  0  0  0  0  0
  124.3820  132.5370   63.1550 C   0  0  0  0  0  0  0  0  0  0  0  0
  123.5010  132.1510   62.1410 C   0  0  0  0  0  0  0  0  0  0  0  0
  123.9910  131.6230   60.9430 C   0  0  0  0  0  0  0  0  0  0  0  0
  125.3700  131.4860   60.7730 C   0  0  0  0  0  0  0  0  0  0  0  0
  126.1490  130.9690   59.6280 C   0  0  0  0  0  0  0  0  0  0  0  0
  125.7610  130.5370   58.5440 O   0  0  0  0  0  0  0  0  0  0  0  0
  127.7460  128.3730   59.1860 C   0  0  0  0  0  0  0  0  0  0  0  0
  127.6850  127.0700   58.7020 C   0  0  0  0  0  0  0  0  0  0  0  0
  129.4810  123.6220   59.7000 N   0  0  0  0  0  0  0  0  0  0  0  0
  130.6840  124.2010   59.4240 C   0  0  0  0  0  0  0  0  0  0  0  0
  130.8840  125.3210   58.9480 O   0  0  0  0  0  0  0  0  0  0  0  0
  131.7040  123.1980   59.8160 C   0  0  0  0  0  0  0  0  0  0  0  0
  133.0980  123.2410   59.7570 C   0  0  0  0  0  0  0  0  0  0  0  0
  133.8220  122.1310   60.2070 C   0  0  0  0  0  0  0  0  0  0  0  0
  133.1520  121.0060   60.7050 C   0  0  0  0  0  0  0  0  0  0  0  0
  131.7540  120.9820   60.7570 C   0  0  0  0  0  0  0  0  0  0  0  0
  131.0500  122.0980   60.3020 C   0  0  0  0  0  0  0  0  0  0  0  0
  129.5930  122.3680   60.2340 C   0  0  0  0  0  0  0  0  0  0  0  0
  128.6790  121.6220   60.5890 O   0  0  0  0  0  0  0  0  0  0  0  0
  127.3073  123.9112   61.3770 H   0  0  0  0  0  0  0  0  0  0  0  0
  126.1272  124.3421   60.0931 H   0  0  0  0  0  0  0  0  0  0  0  0
  126.9026  122.7218   60.0931 H   0  0  0  0  0  0  0  0  0  0  0  0
  128.3408  125.3801   59.7611 H   0  0  0  0  0  0  0  0  0  0  0  0
  130.3118  127.1696   56.5176 H   0  0  0  0  0  0  0  0  0  0  0  0
  130.4226  129.5022   57.3862 H   0  0  0  0  0  0  0  0  0  0  0  0
  128.8978  131.3010   58.3579 H   0  0  0  0  0  0  0  0  0  0  0  0
  128.7550  132.2280   62.8730 H   0  0  0  0  0  0  0  0  0  0  0  0
  130.9340  132.2500   63.0480 H   0  0  0  0  0  0  0  0  0  0  0  0
  134.4885  130.6927   60.8367 H   0  0  0  0  0  0  0  0  0  0  0  0
  133.8222  129.9037   59.3669 H   0  0  0  0  0  0  0  0  0  0  0  0
  134.1529  131.6693   59.3669 H   0  0  0  0  0  0  0  0  0  0  0  0
  126.4583  132.7056   63.7728 H   0  0  0  0  0  0  0  0  0  0  0  0
  123.9883  132.9500   64.0954 H   0  0  0  0  0  0  0  0  0  0  0  0
  122.4164  132.2633   62.2864 H   0  0  0  0  0  0  0  0  0  0  0  0
  123.2986  131.3192   60.1441 H   0  0  0  0  0  0  0  0  0  0  0  0
  127.0182  128.7149   59.9367 H   0  0  0  0  0  0  0  0  0  0  0  0
  126.9034  126.3848   59.0620 H   0  0  0  0  0  0  0  0  0  0  0  0
  133.6165  124.1285   59.3651 H   0  0  0  0  0  0  0  0  0  0  0  0
  134.9213  122.1420   60.1695 H   0  0  0  0  0  0  0  0  0  0  0  0
  133.7278  120.1373   61.0569 H   0  0  0  0  0  0  0  0  0  0  0  0
  131.2213  120.1026   61.1480 H   0  0  0  0  0  0  0  0  0  0  0  0
  1  2  1  0
  2  3  1  0
  3  4  2  0
  3  5  1  0
  5  6  1  0
  6  7  2  0
  7  8  1  0
  8  9  2  0
  9 10  1  0
 10 11  1  0
 11 12  2  0
 12 13  1  0
 13 14  1  0
 14 15  1  0
 15 16  1  0
 16 17  2  0
 16 18  1  0
 18 19  1  0
 18 20  1  0
 20 21  2  0
 20 22  1  0
 12 23  1  0
 23 24  2  0
 24 25  1  0
 25 26  2  0
 26 27  1  0
 27 28  2  0
 28 29  1  0
 29 30  2  0
  9 31  1  0
 31 32  2  0
  2 33  1  0
 33 34  1  0
 34 35  2  0
 34 36  1  0
 36 37  2  0
 37 38  1  0
 38 39  2  0
 39 40  1  0
 40 41  2  0
 41 42  1  0
 42 43  2  0
 32  6  1  0
 42 33  1  0
 22 10  1  0
 28 23  1  0
 41 36  1  0
 29 11  1  0
 22 14  2  0
  1 44  1  0
  1 45  1  0
  1 46  1  0
  2 47  1  1
  7 48  1  0
  8 49  1  0
 10 50  1  6
 13 51  1  0
 15 52  1  0
 19 53  1  0
 19 54  1  0
 19 55  1  0
 24 56  1  0
 25 57  1  0
 26 58  1  0
 27 59  1  0
 31 60  1  0
 32 61  1  0
 37 62  1  0
 38 63  1  0
 39 64  1  0
 40 65  1  0
M  END
>  <Binding energies>  (1) 
[-8.04]

>  <Ligand effiencies>  (1) 
[-0.17866666666666664]

>  <Interactions>  (1) 
["V-A:GLU:543:CD:4906, V-A:ASP:366:CG:3211, V-A:ILE:369:CB:3234, V-B:TYR:539:CE2:9848, V-A:ILE:369:CD1:3237, V-A:ILE:369:CG2:3235, V-B:TYR:539:CD2:9846, V-B:PRO:540:CA:9855, H-B:ALA:541:N:9863, V-A:TYR:539:CE2:4874, V-B:GLY:454:CA:9021, V-A:LEU:475:CD2:4257, V-B:LEU:475:CD2:9231, V-A:ALA:541:CB:4890, H-A:GLU:543:OE1:4907, H-A:ARG:545:NH2:4926, V-B:ILE:369:CD1:8211, V-A:PRO:540:CA:4881, V-A:ASN:362:CB:3174, V-A:PRO:540:CB:4883, V-A:PRO:540:C:4879, H-A:ALA:541:N:4889, V-B:GLY:453:C:9014, V-A:ALA:541:CA:4888, H-A:ASN:362:ND2:3177, V-A:ALA:541:C:4886, H-A:TYR:539:OH:4876, H-A:ALA:541:O:4887, V-A:ILE:369:CG1:3236, V-A:ASN:362:C:3170, V-A:LEU:363:CA:3183, V-A:ASN:362:CA:3172"]

$$$$
RR24_Rahimova_2017-again1
     RDKit          3D

 63 69  0  0  0  0  0  0  0  0999 V2000
  130.0830  130.1920   60.9620 C   0  0  0  0  0  0  0  0  0  0  0  0
  129.1970  130.4100   59.7280 C   0  0  2  0  0  0  0  0  0  0  0  0
  130.0000  130.7950   58.4520 C   0  0  0  0  0  0  0  0  0  0  0  0
  130.6850  131.8230   58.3940 O   0  0  0  0  0  0  0  0  0  0  0  0
  129.8350  129.8990   57.4340 O   0  0  0  0  0  0  0  0  0  0  0  0
  129.6600  128.5650   57.7250 C   0  0  0  0  0  0  0  0  0  0  0  0
  128.4350  128.1260   58.2280 C   0  0  0  0  0  0  0  0  0  0  0  0
  128.2430  126.7750   58.5060 C   0  0  0  0  0  0  0  0  0  0  0  0
  129.2720  125.8570   58.2750 C   0  0  0  0  0  0  0  0  0  0  0  0
  129.0660  124.3660   58.5790 C   0  0  1  0  0  0  0  0  0  0  0  0
  130.1900  123.8170   59.4890 C   0  0  0  0  0  0  0  0  0  0  0  0
  131.5210  123.6750   59.3030 C   0  0  0  0  0  0  0  0  0  0  0  0
  132.1500  123.9670   58.2160 O   0  0  0  0  0  0  0  0  0  0  0  0
  132.1520  123.1680   60.5210 C   0  0  0  0  0  0  0  0  0  0  0  0
  133.4820  122.8690   60.8420 C   0  0  0  0  0  0  0  0  0  0  0  0
  133.7940  122.3960   62.1170 C   0  0  0  0  0  0  0  0  0  0  0  0
  132.7840  122.2220   63.0650 C   0  0  0  0  0  0  0  0  0  0  0  0
  131.4590  122.5200   62.7410 C   0  0  0  0  0  0  0  0  0  0  0  0
  131.1500  122.9970   61.4640 C   0  0  0  0  0  0  0  0  0  0  0  0
  129.8930  123.3690   60.8390 C   0  0  0  0  0  0  0  0  0  0  0  0
  128.7010  123.3330   61.3040 N   0  0  0  0  0  0  0  0  0  0  0  0
  127.6190  123.6100   60.5210 C   0  0  0  0  0  0  0  0  0  0  0  0
  126.4300  123.3610   61.1440 N   0  0  0  0  0  0  0  0  0  0  0  0
  125.3310  123.5970   60.5210 C   0  0  0  0  0  0  0  0  0  0  0  0
  124.3130  123.3390   61.1850 O   0  0  0  0  0  0  0  0  0  0  0  0
  125.3030  124.0920   59.2180 N   0  0  0  0  0  0  0  0  0  0  0  0
  124.0530  124.3750   58.4740 C   0  0  0  0  0  0  0  0  0  0  0  0
  126.4560  124.3560   58.5040 C   0  0  0  0  0  0  0  0  0  0  0  0
  126.4760  124.7710   57.3410 O   0  0  0  0  0  0  0  0  0  0  0  0
  127.6950  124.0910   59.2420 C   0  0  0  0  0  0  0  0  0  0  0  0
  130.4940  126.3000   57.7590 C   0  0  0  0  0  0  0  0  0  0  0  0
  130.6860  127.6490   57.4790 C   0  0  0  0  0  0  0  0  0  0  0  0
  128.0780  131.3590   60.0010 N   0  0  0  0  0  0  0  0  0  0  0  0
  128.3120  132.6380   60.4090 C   0  0  0  0  0  0  0  0  0  0  0  0
  129.4040  133.1740   60.6060 O   0  0  0  0  0  0  0  0  0  0  0  0
  126.9700  133.2530   60.5680 C   0  0  0  0  0  0  0  0  0  0  0  0
  126.5940  134.5370   60.9670 C   0  0  0  0  0  0  0  0  0  0  0  0
  125.2300  134.8460   61.0280 C   0  0  0  0  0  0  0  0  0  0  0  0
  124.2710  133.8810   60.6930 C   0  0  0  0  0  0  0  0  0  0  0  0
  124.6680  132.6000   60.2950 C   0  0  0  0  0  0  0  0  0  0  0  0
  126.0330  132.3110   60.2420 C   0  0  0  0  0  0  0  0  0  0  0  0
  126.7490  131.0670   59.8620 C   0  0  0  0  0  0  0  0  0  0  0  0
  126.2510  130.0010   59.4980 O   0  0  0  0  0  0  0  0  0  0  0  0
  129.4849  130.3392   61.8734 H   0  0  0  0  0  0  0  0  0  0  0  0
  130.4850  129.1682   60.9485 H   0  0  0  0  0  0  0  0  0  0  0  0
  130.9141  130.9124   60.9485 H   0  0  0  0  0  0  0  0  0  0  0  0
  128.7438  129.4322   59.5078 H   0  0  0  0  0  0  0  0  0  0  0  0
  127.6222  128.8458   58.4047 H   0  0  0  0  0  0  0  0  0  0  0  0
  127.2794  126.4292   58.9083 H   0  0  0  0  0  0  0  0  0  0  0  0
  129.0958  123.8470   57.6096 H   0  0  0  0  0  0  0  0  0  0  0  0
  134.2761  123.0063   60.0933 H   0  0  0  0  0  0  0  0  0  0  0  0
  134.8368  122.1600   62.3755 H   0  0  0  0  0  0  0  0  0  0  0  0
  133.0327  121.8492   64.0696 H   0  0  0  0  0  0  0  0  0  0  0  0
  130.6625  122.3801   63.4867 H   0  0  0  0  0  0  0  0  0  0  0  0
  123.2359  124.5600   59.1868 H   0  0  0  0  0  0  0  0  0  0  0  0
  124.1959  125.2635   57.8415 H   0  0  0  0  0  0  0  0  0  0  0  0
  123.7993  123.5116   57.8415 H   0  0  0  0  0  0  0  0  0  0  0  0
  131.3050  125.5802   57.5742 H   0  0  0  0  0  0  0  0  0  0  0  0
  131.6446  127.9942   57.0643 H   0  0  0  0  0  0  0  0  0  0  0  0
  127.3529  135.2894   61.2277 H   0  0  0  0  0  0  0  0  0  0  0  0
  124.9097  135.8509   61.3403 H   0  0  0  0  0  0  0  0  0  0  0  0
  123.2011  134.1318   60.7432 H   0  0  0  0  0  0  0  0  0  0  0  0
  123.9212  131.8372   60.0296 H   0  0  0  0  0  0  0  0  0  0  0  0
  1  2  1  0
  2  3  1  0
  3  4  2  0
  3  5  1  0
  5  6  1  0
  6  7  2  0
  7  8  1  0
  8  9  2  0
  9 10  1  0
 10 11  1  0
 11 12  2  0
 12 13  1  0
 12 14  1  0
 14 15  2  0
 15 16  1  0
 16 17  2  0
 17 18  1  0
 18 19  2  0
 19 20  1  0
 20 21  2  0
 21 22  1  0
 22 23  1  0
 23 24  2  0
 24 25  1  0
 24 26  1  0
 26 27  1  0
 26 28  1  0
 28 29  2  0
 28 30  1  0
  9 31  1  0
 31 32  2  0
  2 33  1  0
 33 34  1  0
 34 35  2  0
 34 36  1  0
 36 37  2  0
 37 38  1  0
 38 39  2  0
 39 40  1  0
 40 41  2  0
 41 42  1  0
 42 43  2  0
 32  6  1  0
 42 33  1  0
 30 10  1  0
 41 36  1  0
 20 11  1  0
 30 22  2  0
 19 14  1  0
  1 44  1  0
  1 45  1  0
  1 46  1  0
  2 47  1  6
  7 48  1  0
  8 49  1  0
 10 50  1  6
 15 51  1  0
 16 52  1  0
 17 53  1  0
 18 54  1  0
 27 55  1  0
 27 56  1  0
 27 57  1  0
 31 58  1  0
 32 59  1  0
 37 60  1  0
 38 61  1  0
 39 62  1  0
 40 63  1  0
M  CHG  2  13  -1  25  -1
M  END
>  <Binding energies>  (1) 
[-7.62]

>  <Ligand effiencies>  (1) 
[-0.1772093023255814]

>  <Interactions>  (1) 
["V-A:GLU:543:CD:4906, H-B:TYR:539:OH:9850, V-B:TYR:539:CE2:9848, V-A:ILE:369:CD1:3237, V-A:GLY:454:CA:4047, V-B:ASP:366:CB:8184, V-B:LEU:363:CA:8157, V-B:PRO:540:CB:9857, V-B:ASP:366:CG:8185, V-B:PRO:540:C:9853, V-B:PRO:540:CA:9855, H-B:ALA:541:N:9863, V-A:TYR:539:CE2:4874, H-B:TYR:531:OH:9767, V-A:TYR:539:CD2:4872, V-A:LEU:475:CD2:4257, V-B:LEU:475:CD2:9231, V-A:ALA:541:CB:4890, V-B:ILE:369:CD1:8211, V-B:ILE:369:CG2:8209, H-A:ALA:541:N:4889, V-B:TRP:381:CZ2:8342, V-B:TRP:381:CH2:8344"]

$$$$
RR25_Rahimova_2017
     RDKit          3D

 63 68  0  0  0  0  0  0  0  0999 V2000
  126.5680  123.3570   60.4640 O   0  0  0  0  0  0  0  0  0  0  0  0
  127.7810  123.2710   60.6570 C   0  0  0  0  0  0  0  0  0  0  0  0
  128.2650  122.0140   60.9220 O   0  0  0  0  0  0  0  0  0  0  0  0
  129.6220  121.7460   60.9090 C   0  0  0  0  0  0  0  0  0  0  0  0
  129.9990  120.4320   60.6340 C   0  0  0  0  0  0  0  0  0  0  0  0
  131.3490  120.0900   60.6130 C   0  0  0  0  0  0  0  0  0  0  0  0
  132.3390  121.0500   60.8690 C   0  0  0  0  0  0  0  0  0  0  0  0
  133.7760  120.6850   60.8380 N   0  0  0  0  0  0  0  0  0  0  0  0
  134.5800  121.4090   61.4200 O   0  0  0  0  0  0  0  0  0  0  0  0
  134.1120  119.6720   60.2320 O   0  0  0  0  0  0  0  0  0  0  0  0
  131.9380  122.3650   61.1550 C   0  0  0  0  0  0  0  0  0  0  0  0
  130.5870  122.7240   61.1880 C   0  0  0  0  0  0  0  0  0  0  0  0
  130.1040  124.1320   61.4820 C   0  0  0  0  0  0  0  0  0  0  0  0
  128.8220  124.4290   60.6540 C   0  0  2  0  0  0  0  0  0  0  0  0
  128.2400  125.8300   61.0030 C   0  0  0  0  0  0  0  0  0  0  0  0
  127.5580  125.8930   62.0300 O   0  0  0  0  0  0  0  0  0  0  0  0
  128.5660  126.9510   60.2910 N   0  0  0  0  0  0  0  0  0  0  0  0
  129.1010  126.8980   58.9140 C   0  0  0  0  0  0  0  0  0  0  0  0
  130.1480  128.0170   58.7390 C   0  0  0  0  0  0  0  0  0  0  0  0
  129.5920  129.3290   59.0830 N   0  0  0  0  0  0  0  0  0  0  0  0
  130.5440  130.4100   58.7910 C   0  0  0  0  0  0  0  0  0  0  0  0
  129.8850  131.8150   58.8160 C   0  0  0  0  0  0  0  0  0  0  0  0
  128.5090  131.8850   59.3900 N   0  0  0  0  0  0  0  0  0  0  0  0
  127.4970  131.4840   58.5430 C   0  0  0  0  0  0  0  0  0  0  0  0
  127.6930  131.1260   57.3760 O   0  0  0  0  0  0  0  0  0  0  0  0
  126.1130  131.4980   59.1630 C   0  0  0  0  0  0  0  0  0  0  0  0
  125.0140  131.0850   58.3990 C   0  0  0  0  0  0  0  0  0  0  0  0
  123.7290  131.0780   58.9390 C   0  0  0  0  0  0  0  0  0  0  0  0
  123.5020  131.4780   60.2550 C   0  0  0  0  0  0  0  0  0  0  0  0
  124.5820  131.9030   61.0640 C   0  0  0  0  0  0  0  0  0  0  0  0
  124.4240  132.3200   62.4070 C   0  0  0  0  0  0  0  0  0  0  0  0
  125.5320  132.7240   63.1500 C   0  0  0  0  0  0  0  0  0  0  0  0
  126.8070  132.7270   62.5890 C   0  0  0  0  0  0  0  0  0  0  0  0
  127.0120  132.3220   61.2640 C   0  0  0  0  0  0  0  0  0  0  0  0
  125.8890  131.9080   60.5020 C   0  0  0  0  0  0  0  0  0  0  0  0
  128.4170  132.3300   60.6930 C   0  0  0  0  0  0  0  0  0  0  0  0
  129.3930  132.6940   61.3580 O   0  0  0  0  0  0  0  0  0  0  0  0
  129.1760  129.3400   60.4860 C   0  0  0  0  0  0  0  0  0  0  0  0
  128.0930  128.2700   60.7690 C   0  0  0  0  0  0  0  0  0  0  0  0
  129.2329  119.6683   60.4344 H   0  0  0  0  0  0  0  0  0  0  0  0
  131.6427  119.0531   60.3927 H   0  0  0  0  0  0  0  0  0  0  0  0
  132.7030  123.1290   61.3574 H   0  0  0  0  0  0  0  0  0  0  0  0
  129.8764  124.2242   62.5542 H   0  0  0  0  0  0  0  0  0  0  0  0
  130.8897  124.8516   61.2083 H   0  0  0  0  0  0  0  0  0  0  0  0
  129.1253  124.4773   59.5977 H   0  0  0  0  0  0  0  0  0  0  0  0
  129.5735  125.9201   58.7392 H   0  0  0  0  0  0  0  0  0  0  0  0
  128.2832  127.0378   58.1918 H   0  0  0  0  0  0  0  0  0  0  0  0
  131.0066  127.8093   59.3944 H   0  0  0  0  0  0  0  0  0  0  0  0
  130.4582  128.0386   57.6839 H   0  0  0  0  0  0  0  0  0  0  0  0
  131.3461  130.3846   59.5433 H   0  0  0  0  0  0  0  0  0  0  0  0
  130.9319  130.2442   57.7751 H   0  0  0  0  0  0  0  0  0  0  0  0
  130.5309  132.4786   59.4097 H   0  0  0  0  0  0  0  0  0  0  0  0
  129.7807  132.1111   57.7618 H   0  0  0  0  0  0  0  0  0  0  0  0
  125.1671  130.7618   57.3588 H   0  0  0  0  0  0  0  0  0  0  0  0
  122.8818  130.7521   58.3177 H   0  0  0  0  0  0  0  0  0  0  0  0
  122.4814  131.4632   60.6651 H   0  0  0  0  0  0  0  0  0  0  0  0
  123.4243  132.3253   62.8658 H   0  0  0  0  0  0  0  0  0  0  0  0
  125.3977  133.0448   64.1936 H   0  0  0  0  0  0  0  0  0  0  0  0
  127.6652  133.0521   63.1954 H   0  0  0  0  0  0  0  0  0  0  0  0
  130.0521  129.1371   61.1195 H   0  0  0  0  0  0  0  0  0  0  0  0
  128.7490  130.3287   60.7100 H   0  0  0  0  0  0  0  0  0  0  0  0
  127.9003  128.2205   61.8509 H   0  0  0  0  0  0  0  0  0  0  0  0
  127.1650  128.5394   60.2434 H   0  0  0  0  0  0  0  0  0  0  0  0
  1  2  2  0
  2  3  1  0
  3  4  1  0
  4  5  2  0
  5  6  1  0
  6  7  2  0
  7  8  1  0
  8  9  2  0
  8 10  1  0
  7 11  1  0
 11 12  2  0
 12 13  1  0
 13 14  1  0
 14 15  1  0
 15 16  2  0
 15 17  1  0
 17 18  1  0
 18 19  1  0
 19 20  1  0
 20 21  1  0
 21 22  1  0
 22 23  1  0
 23 24  1  0
 24 25  2  0
 24 26  1  0
 26 27  2  0
 27 28  1  0
 28 29  2  0
 29 30  1  0
 30 31  2  0
 31 32  1  0
 32 33  2  0
 33 34  1  0
 34 35  2  0
 34 36  1  0
 36 37  2  0
 20 38  1  0
 38 39  1  0
 14  2  1  0
 39 17  1  0
 12  4  1  0
 36 23  1  0
 35 26  1  0
 35 30  1  0
  5 40  1  0
  6 41  1  0
 11 42  1  0
 13 43  1  0
 13 44  1  0
 14 45  1  6
 18 46  1  0
 18 47  1  0
 19 48  1  0
 19 49  1  0
 21 50  1  0
 21 51  1  0
 22 52  1  0
 22 53  1  0
 27 54  1  0
 28 55  1  0
 29 56  1  0
 31 57  1  0
 32 58  1  0
 33 59  1  0
 38 60  1  0
 38 61  1  0
 39 62  1  0
 39 63  1  0
M  CHG  2   8   1  10  -1
M  END
>  <Binding energies>  (1) 
[-8.67]

>  <Ligand effiencies>  (1) 
[-0.22230769230769232]

>  <Interactions>  (1) 
["H-A:GLY:454:N:4048, V-B:TYR:539:CE2:9848, V-A:ILE:369:CD1:3237, V-A:ILE:369:CG2:3235, V-B:ASP:366:CB:8184, V-B:ASP:366:CG:8185, V-B:PRO:540:C:9853, V-B:TYR:539:CD2:9846, V-B:PRO:540:CA:9855, H-B:ALA:541:N:9863, V-B:ALA:541:CB:9864, V-A:TYR:539:CE2:4874, H-B:ARG:545:NH2:9900, V-B:GLY:454:CA:9021, V-A:TYR:539:CD2:4872, V-A:LEU:475:CD2:4257, V-B:LEU:475:CD2:9231, V-A:ALA:541:CB:4890, V-A:TYR:539:C:4865, V-B:ILE:369:CD1:8211, V-B:ILE:369:CG2:8209, V-A:TYR:539:CZ:4875, V-A:PRO:540:CA:4881, H-A:ALA:541:N:4889, V-B:ASP:366:CA:8182, V-B:ILE:369:CB:8208, V-A:PRO:540:N:4882, V-A:TRP:381:CZ2:3368, V-A:TRP:381:CH2:3370"]

$$$$
RR26_Rahimova_2017
     RDKit          3D

 59 65  0  0  0  0  0  0  0  0999 V2000
  124.5340  130.3960   63.2360 C   0  0  0  0  0  0  0  0  0  0  0  0
  124.5460  131.5630   62.2550 C   0  0  0  0  0  0  0  0  0  0  0  0
  123.6950  132.6460   62.5040 C   0  0  0  0  0  0  0  0  0  0  0  0
  123.6930  133.7560   61.6630 C   0  0  0  0  0  0  0  0  0  0  0  0
  124.5500  133.7970   60.5670 C   0  0  0  0  0  0  0  0  0  0  0  0
  125.4020  132.7260   60.3100 C   0  0  0  0  0  0  0  0  0  0  0  0
  125.4110  131.5950   61.1400 C   0  0  0  0  0  0  0  0  0  0  0  0
  126.3490  130.4780   60.7830 C   0  0  0  0  0  0  0  0  0  0  0  0
  126.2710  129.2750   61.3470 N   0  0  0  0  0  0  0  0  0  0  0  0
  127.2390  128.6330   60.7500 C   0  0  0  0  0  0  0  0  0  0  0  0
  127.9000  127.0420   60.8270 S   0  0  0  0  0  0  0  0  0  0  0  0
  129.0940  127.5010   59.5560 C   0  0  0  0  0  0  0  0  0  0  0  0
  130.0650  126.7320   59.0150 C   0  0  0  0  0  0  0  0  0  0  0  0
  130.3820  125.3460   59.3180 C   0  0  0  0  0  0  0  0  0  0  0  0
  131.5930  124.8150   59.7350 C   0  0  0  0  0  0  0  0  0  0  0  0
  131.4170  123.4710   59.9410 N   0  0  0  0  0  0  0  0  0  0  0  0
  132.3730  122.5170   60.3760 C   0  0  0  0  0  0  0  0  0  0  0  0
  133.3380  122.8540   61.3370 C   0  0  0  0  0  0  0  0  0  0  0  0
  134.2730  121.9090   61.7530 C   0  0  0  0  0  0  0  0  0  0  0  0
  134.2440  120.6260   61.2140 C   0  0  0  0  0  0  0  0  0  0  0  0
  133.2890  120.2770   60.2610 C   0  0  0  0  0  0  0  0  0  0  0  0
  132.3550  121.2200   59.8410 C   0  0  0  0  0  0  0  0  0  0  0  0
  130.1430  123.1260   59.7020 N   0  0  0  0  0  0  0  0  0  0  0  0
  129.5190  124.2260   59.3270 C   0  0  0  0  0  0  0  0  0  0  0  0
  128.0650  124.1750   58.9740 C   0  0  0  0  0  0  0  0  0  0  0  0
  127.6590  124.1850   57.6310 C   0  0  0  0  0  0  0  0  0  0  0  0
  126.3050  124.1420   57.2920 C   0  0  0  0  0  0  0  0  0  0  0  0
  125.3440  124.0890   58.2990 C   0  0  0  0  0  0  0  0  0  0  0  0
  125.7370  124.0600   59.6450 C   0  0  0  0  0  0  0  0  0  0  0  0
  127.0890  124.1100   59.9810 C   0  0  0  0  0  0  0  0  0  0  0  0
  124.8190  124.0530   60.6770 O   0  0  0  0  0  0  0  0  0  0  0  0
  123.5050  123.6380   60.2880 C   0  0  0  0  0  0  0  0  0  0  0  0
  123.0910  124.3200   58.9610 C   0  0  0  0  0  0  0  0  0  0  0  0
  124.0190  123.9990   57.9200 O   0  0  0  0  0  0  0  0  0  0  0  0
  128.9360  128.8860   59.1210 C   0  0  0  0  0  0  0  0  0  0  0  0
  129.5820  129.5160   58.2810 O   0  0  0  0  0  0  0  0  0  0  0  0
  127.8670  129.4190   59.8570 N   0  0  0  0  0  0  0  0  0  0  0  0
  127.2920  130.6250   59.8650 N   0  0  0  0  0  0  0  0  0  0  0  0
  124.5380  130.7826   64.2658 H   0  0  0  0  0  0  0  0  0  0  0  0
  123.6296  129.7909   63.0750 H   0  0  0  0  0  0  0  0  0  0  0  0
  125.4258  129.7725   63.0750 H   0  0  0  0  0  0  0  0  0  0  0  0
  123.0209  132.6201   63.3729 H   0  0  0  0  0  0  0  0  0  0  0  0
  123.0154  134.5988   61.8645 H   0  0  0  0  0  0  0  0  0  0  0  0
  124.5542  134.6749   59.9043 H   0  0  0  0  0  0  0  0  0  0  0  0
  126.0781  132.7674   59.4433 H   0  0  0  0  0  0  0  0  0  0  0  0
  130.6927  127.2144   58.2513 H   0  0  0  0  0  0  0  0  0  0  0  0
  132.5300  125.3737   59.8758 H   0  0  0  0  0  0  0  0  0  0  0  0
  133.3563  123.8678   61.7634 H   0  0  0  0  0  0  0  0  0  0  0  0
  135.0310  122.1755   62.5042 H   0  0  0  0  0  0  0  0  0  0  0  0
  134.9823  119.8801   61.5436 H   0  0  0  0  0  0  0  0  0  0  0  0
  133.2732  119.2600   59.8421 H   0  0  0  0  0  0  0  0  0  0  0  0
  131.6010  120.9476   59.0878 H   0  0  0  0  0  0  0  0  0  0  0  0
  128.4170  124.2273   56.8349 H   0  0  0  0  0  0  0  0  0  0  0  0
  125.9990  124.1499   56.2355 H   0  0  0  0  0  0  0  0  0  0  0  0
  127.3920  124.0985   61.0384 H   0  0  0  0  0  0  0  0  0  0  0  0
  123.4956  122.5465   60.1522 H   0  0  0  0  0  0  0  0  0  0  0  0
  122.7929  123.9287   61.0744 H   0  0  0  0  0  0  0  0  0  0  0  0
  122.0886  123.9709   58.6723 H   0  0  0  0  0  0  0  0  0  0  0  0
  123.0859  125.4101   59.1085 H   0  0  0  0  0  0  0  0  0  0  0  0
  1  2  1  0
  2  3  2  0
  3  4  1  0
  4  5  2  0
  5  6  1  0
  6  7  2  0
  7  8  1  0
  8  9  1  0
  9 10  2  0
 10 11  1  0
 11 12  1  0
 12 13  2  0
 13 14  1  0
 14 15  2  0
 15 16  1  0
 16 17  1  0
 17 18  2  0
 18 19  1  0
 19 20  2  0
 20 21  1  0
 21 22  2  0
 16 23  1  0
 23 24  2  0
 24 25  1  0
 25 26  2  0
 26 27  1  0
 27 28  2  0
 28 29  1  0
 29 30  2  0
 29 31  1  0
 31 32  1  0
 32 33  1  0
 33 34  1  0
 12 35  1  0
 35 36  2  0
 35 37  1  0
 37 38  1  0
  7  2  1  0
 38  8  2  0
 37 10  1  0
 24 14  1  0
 30 25  1  0
 22 17  1  0
 34 28  1  0
  1 39  1  0
  1 40  1  0
  1 41  1  0
  3 42  1  0
  4 43  1  0
  5 44  1  0
  6 45  1  0
 13 46  1  0
 15 47  1  0
 18 48  1  0
 19 49  1  0
 20 50  1  0
 21 51  1  0
 22 52  1  0
 26 53  1  0
 27 54  1  0
 30 55  1  0
 32 56  1  0
 32 57  1  0
 33 58  1  0
 33 59  1  0
M  END
>  <Binding energies>  (1) 
[-7.04]

>  <Ligand effiencies>  (1) 
[-0.18526315789473685]

>  <Interactions>  (1) 
["V-A:ASP:366:CG:3211, V-B:TYR:539:CE2:9848, V-A:ILE:369:CD1:3237, V-A:ILE:369:CG2:3235, V-A:GLY:454:CA:4047, V-B:ASP:366:CB:8184, V-B:ASN:362:CB:8148, V-B:LEU:363:CA:8157, V-B:PRO:540:CB:9857, V-B:ASP:366:CG:8185, V-B:ASN:362:C:8144, V-B:LEU:363:CB:8159, V-B:TYR:539:CD2:9846, V-B:PRO:540:N:9856, V-B:PRO:540:CA:9855, V-A:TYR:539:CE2:4874, H-B:TYR:531:OH:9767, H-B:ARG:545:NH2:9900, V-B:GLY:454:CA:9021, V-A:TYR:539:CD2:4872, V-A:LEU:475:CD2:4257, V-B:LEU:475:CD2:9231, V-B:ARG:545:CZ:9898, V-B:ILE:369:CD1:8211, V-B:ILE:369:CG2:8209, V-A:TRP:381:CZ2:3368, V-A:TRP:381:CH2:3370, V-A:SER:385:CA:3405, V-B:ASN:362:CA:8146, V-A:SER:385:C:3403"]

$$$$
RR27_Rahimova_2017
     RDKit          3D

 66 71  0  0  0  0  0  0  0  0999 V2000
  128.5970  131.9280   62.1360 O   0  0  0  0  0  0  0  0  0  0  0  0
  127.9080  131.1390   61.4820 C   0  0  0  0  0  0  0  0  0  0  0  0
  126.3810  131.0730   61.7750 C   0  0  0  0  0  0  0  0  0  0  0  0
  125.6530  132.4000   61.4860 C   0  0  0  0  0  0  0  0  0  0  0  0
  126.3520  133.5800   61.1900 C   0  0  0  0  0  0  0  0  0  0  0  0
  125.6620  134.7600   60.9320 C   0  0  0  0  0  0  0  0  0  0  0  0
  124.2710  134.7680   60.9690 C   0  0  0  0  0  0  0  0  0  0  0  0
  123.5630  133.6060   61.2630 C   0  0  0  0  0  0  0  0  0  0  0  0
  124.2530  132.4250   61.5220 C   0  0  0  0  0  0  0  0  0  0  0  0
  126.0900  130.4610   63.1590 C   0  0  0  0  0  0  0  0  0  0  0  0
  124.8320  130.5750   63.7650 C   0  0  0  0  0  0  0  0  0  0  0  0
  124.6060  130.0190   65.0220 C   0  0  0  0  0  0  0  0  0  0  0  0
  125.6370  129.3530   65.6790 C   0  0  0  0  0  0  0  0  0  0  0  0
  126.8950  129.2420   65.0920 C   0  0  0  0  0  0  0  0  0  0  0  0
  127.1200  129.7990   63.8370 C   0  0  0  0  0  0  0  0  0  0  0  0
  128.4220  130.4470   60.4260 N   0  0  0  0  0  0  0  0  0  0  0  0
  127.7310  129.3200   59.7810 C   0  0  0  0  0  0  0  0  0  0  0  0
  128.1240  128.0470   60.5630 C   0  0  0  0  0  0  0  0  0  0  0  0
  129.6710  127.8490   60.6550 C   0  0  0  0  0  0  0  0  0  0  0  0
  130.1190  126.6560   61.5190 C   0  0  0  0  0  0  0  0  0  0  0  0
  130.6190  126.9550   62.7540 N   0  0  0  0  0  0  0  0  0  0  0  0
  131.0040  125.9340   63.5690 C   0  0  0  0  0  0  0  0  0  0  0  0
  131.5160  126.1070   64.8280 O   0  0  0  0  0  0  0  0  0  0  0  0
  130.8730  124.6110   63.1040 C   0  0  0  0  0  0  0  0  0  0  0  0
  131.1500  123.3910   63.6470 N   0  0  0  0  0  0  0  0  0  0  0  0
  130.8150  122.4370   62.7050 N   0  0  0  0  0  0  0  0  0  0  0  0
  130.3340  123.0580   61.6070 N   0  0  0  0  0  0  0  0  0  0  0  0
  129.9250  122.2850   60.4370 C   0  0  0  0  0  0  0  0  0  0  0  0
  128.6720  122.8200   59.7570 C   0  0  0  0  0  0  0  0  0  0  0  0
  128.6010  122.8830   58.3620 C   0  0  0  0  0  0  0  0  0  0  0  0
  127.4480  123.3640   57.7380 C   0  0  0  0  0  0  0  0  0  0  0  0
  126.3600  123.7790   58.5060 C   0  0  0  0  0  0  0  0  0  0  0  0
  126.4210  123.7100   59.8990 C   0  0  0  0  0  0  0  0  0  0  0  0
  125.0660  124.1990   60.8500 Cl  0  0  0  0  0  0  0  0  0  0  0  0
  127.5760  123.2370   60.5220 C   0  0  0  0  0  0  0  0  0  0  0  0
  130.3540  124.4290   61.8040 C   0  0  0  0  0  0  0  0  0  0  0  0
  129.9760  125.4110   60.9820 N   0  0  0  0  0  0  0  0  0  0  0  0
  130.4080  129.1780   61.0060 C   0  0  0  0  0  0  0  0  0  0  0  0
  129.8770  130.3980   60.2110 C   0  0  0  0  0  0  0  0  0  0  0  0
  125.9382  130.3720   61.0521 H   0  0  0  0  0  0  0  0  0  0  0  0
  127.4516  133.5720   61.1618 H   0  0  0  0  0  0  0  0  0  0  0  0
  126.2136  135.6829   60.6997 H   0  0  0  0  0  0  0  0  0  0  0  0
  123.7258  135.7011   60.7640 H   0  0  0  0  0  0  0  0  0  0  0  0
  122.4634  133.6209   61.2905 H   0  0  0  0  0  0  0  0  0  0  0  0
  123.6955  131.5061   61.7563 H   0  0  0  0  0  0  0  0  0  0  0  0
  124.0199  131.1055   63.2463 H   0  0  0  0  0  0  0  0  0  0  0  0
  123.6162  130.1059   65.4940 H   0  0  0  0  0  0  0  0  0  0  0  0
  125.4565  128.9108   66.6699 H   0  0  0  0  0  0  0  0  0  0  0  0
  127.7062  128.7169   65.6176 H   0  0  0  0  0  0  0  0  0  0  0  0
  128.1147  129.7185   63.3743 H   0  0  0  0  0  0  0  0  0  0  0  0
  126.6420  129.4693   59.8238 H   0  0  0  0  0  0  0  0  0  0  0  0
  128.0172  129.2362   58.7222 H   0  0  0  0  0  0  0  0  0  0  0  0
  127.7175  128.1208   61.5825 H   0  0  0  0  0  0  0  0  0  0  0  0
  127.7103  127.1836   60.0214 H   0  0  0  0  0  0  0  0  0  0  0  0
  129.9872  127.5645   59.6405 H   0  0  0  0  0  0  0  0  0  0  0  0
  131.2820  126.9550   65.2100 H   0  0  0  0  0  0  0  0  0  0  0  0
  130.7482  122.2975   59.7075 H   0  0  0  0  0  0  0  0  0  0  0  0
  129.6910  121.2693   60.7887 H   0  0  0  0  0  0  0  0  0  0  0  0
  129.4561  122.5526   57.7541 H   0  0  0  0  0  0  0  0  0  0  0  0
  127.3977  123.4156   56.6404 H   0  0  0  0  0  0  0  0  0  0  0  0
  125.4534  124.1609   58.0137 H   0  0  0  0  0  0  0  0  0  0  0  0
  127.6260  123.1914   61.6199 H   0  0  0  0  0  0  0  0  0  0  0  0
  130.2780  129.3769   62.0800 H   0  0  0  0  0  0  0  0  0  0  0  0
  131.4661  129.0466   60.7357 H   0  0  0  0  0  0  0  0  0  0  0  0
  130.3453  131.3226   60.5794 H   0  0  0  0  0  0  0  0  0  0  0  0
  130.1143  130.3046   59.1410 H   0  0  0  0  0  0  0  0  0  0  0  0
  1  2  2  0
  2  3  1  0
  3  4  1  0
  4  5  2  0
  5  6  1  0
  6  7  2  0
  7  8  1  0
  8  9  2  0
  3 10  1  0
 10 11  2  0
 11 12  1  0
 12 13  2  0
 13 14  1  0
 14 15  2  0
  2 16  1  0
 16 17  1  0
 17 18  1  0
 18 19  1  0
 19 20  1  0
 20 21  2  0
 21 22  1  0
 22 23  1  0
 22 24  2  0
 24 25  1  0
 25 26  2  0
 26 27  1  0
 27 28  1  0
 28 29  1  0
 29 30  2  0
 30 31  1  0
 31 32  2  0
 32 33  1  0
 33 34  1  0
 33 35  2  0
 27 36  1  0
 36 37  2  0
 19 38  1  0
 38 39  1  0
  9  4  1  0
 15 10  1  0
 39 16  1  0
 37 20  1  0
 36 24  1  0
 35 29  1  0
  3 40  1  0
  5 41  1  0
  6 42  1  0
  7 43  1  0
  8 44  1  0
  9 45  1  0
 11 46  1  0
 12 47  1  0
 13 48  1  0
 14 49  1  0
 15 50  1  0
 17 51  1  0
 17 52  1  0
 18 53  1  0
 18 54  1  0
 19 55  1  0
 23 56  1  0
 28 57  1  0
 28 58  1  0
 30 59  1  0
 31 60  1  0
 32 61  1  0
 35 62  1  0
 38 63  1  0
 38 64  1  0
 39 65  1  0
 39 66  1  0
M  END
>  <Binding energies>  (1) 
[-9.26]

>  <Ligand effiencies>  (1) 
[-0.23149999999999998]

>  <Interactions>  (1) 
["V-A:GLU:543:CD:4906, V-B:TYR:539:CE2:9848, V-B:GLU:543:CD:9880, V-A:ARG:545:CZ:4924, V-B:PRO:540:CB:9857, V-B:PRO:540:C:9853, V-B:TYR:539:CD2:9846, V-B:PRO:540:N:9856, V-B:PRO:540:CA:9855, V-B:ALA:541:CB:9864, V-A:TYR:539:CE2:4874, V-A:TYR:539:CD2:4872, V-B:LEU:475:CD2:9231, V-B:TYR:539:C:9839, V-B:ARG:545:CZ:9898, H-A:TYR:484:OH:4346, H-A:GLU:543:OE2:4908, H-A:ARG:545:NH2:4926, V-B:ILE:369:CD1:8211, V-B:ILE:369:CG2:8209, V-B:HIS:456:CE1:9042, V-B:ARG:545:CG:9894, H-A:ARG:545:NE:4922, V-B:TRP:381:CZ2:8342, V-B:TRP:381:CH2:8344, V-B:ARG:545:CD:9895, V-B:TYR:539:CG:9844, V-B:ILE:369:CG1:8210"]

$$$$
RR27_Rahimova_2017-again1
     RDKit          3D

 66 71  0  0  0  0  0  0  0  0999 V2000
  127.8550  125.2620   58.2000 O   0  0  0  0  0  0  0  0  0  0  0  0
  128.7500  125.0820   59.0320 C   0  0  0  0  0  0  0  0  0  0  0  0
  128.3530  124.5120   60.4280 C   0  0  0  0  0  0  0  0  0  0  0  0
  129.2040  123.2930   60.8310 C   0  0  0  0  0  0  0  0  0  0  0  0
  129.8310  123.2030   62.0830 C   0  0  0  0  0  0  0  0  0  0  0  0
  130.5900  122.0840   62.4120 C   0  0  0  0  0  0  0  0  0  0  0  0
  130.7290  121.0490   61.4910 C   0  0  0  0  0  0  0  0  0  0  0  0
  130.1120  121.1220   60.2460 C   0  0  0  0  0  0  0  0  0  0  0  0
  129.3520  122.2410   59.9180 C   0  0  0  0  0  0  0  0  0  0  0  0
  126.8360  124.2750   60.5450 C   0  0  0  0  0  0  0  0  0  0  0  0
  126.0180  124.1870   59.4090 C   0  0  0  0  0  0  0  0  0  0  0  0
  124.6460  123.9920   59.5400 C   0  0  0  0  0  0  0  0  0  0  0  0
  124.0840  123.8810   60.8090 C   0  0  0  0  0  0  0  0  0  0  0  0
  124.8810  123.9670   61.9460 C   0  0  0  0  0  0  0  0  0  0  0  0
  126.2530  124.1700   61.8150 C   0  0  0  0  0  0  0  0  0  0  0  0
  130.0660  125.2160   58.6960 N   0  0  0  0  0  0  0  0  0  0  0  0
  131.1550  125.2910   59.6790 C   0  0  0  0  0  0  0  0  0  0  0  0
  131.2820  126.7660   60.1290 C   0  0  0  0  0  0  0  0  0  0  0  0
  131.2150  127.8320   58.9850 C   0  0  0  0  0  0  0  0  0  0  0  0
  130.7310  129.2060   59.4600 C   0  0  0  0  0  0  0  0  0  0  0  0
  129.5390  129.6210   59.1690 N   0  0  0  0  0  0  0  0  0  0  0  0
  129.2190  130.8600   59.6370 C   0  0  0  0  0  0  0  0  0  0  0  0
  130.0400  131.6960   60.3770 C   0  0  0  0  0  0  0  0  0  0  0  0
  129.4160  132.8270   60.6560 N   0  0  0  0  0  0  0  0  0  0  0  0
  128.1450  132.7500   60.0940 N   0  0  0  0  0  0  0  0  0  0  0  0
  128.0420  131.5490   59.4990 N   0  0  0  0  0  0  0  0  0  0  0  0
  126.8270  131.1650   58.7920 C   0  0  0  0  0  0  0  0  0  0  0  0
  125.5890  131.1680   59.6760 C   0  0  0  0  0  0  0  0  0  0  0  0
  124.3370  131.4710   59.1290 C   0  0  0  0  0  0  0  0  0  0  0  0
  123.2010  131.4830   59.9390 C   0  0  0  0  0  0  0  0  0  0  0  0
  123.3100  131.1910   61.2980 C   0  0  0  0  0  0  0  0  0  0  0  0
  124.5540  130.8830   61.8480 C   0  0  0  0  0  0  0  0  0  0  0  0
  124.6880  130.5250   63.5310 Cl  0  0  0  0  0  0  0  0  0  0  0  0
  125.6910  130.8690   61.0390 C   0  0  0  0  0  0  0  0  0  0  0  0
  131.3890  131.2480   60.7250 C   0  0  0  0  0  0  0  0  0  0  0  0
  132.2510  131.8400   61.3700 O   0  0  0  0  0  0  0  0  0  0  0  0
  131.6060  129.9870   60.2090 N   0  0  0  0  0  0  0  0  0  0  0  0
  130.5100  127.3800   57.6680 C   0  0  0  0  0  0  0  0  0  0  0  0
  130.4360  125.8520   57.4230 C   0  0  0  0  0  0  0  0  0  0  0  0
  128.5907  125.2860   61.1726 H   0  0  0  0  0  0  0  0  0  0  0  0
  129.7219  124.0221   62.8090 H   0  0  0  0  0  0  0  0  0  0  0  0
  131.0781  122.0174   63.3955 H   0  0  0  0  0  0  0  0  0  0  0  0
  131.3318  120.1660   61.7499 H   0  0  0  0  0  0  0  0  0  0  0  0
  130.2243  120.2993   59.5245 H   0  0  0  0  0  0  0  0  0  0  0  0
  128.8637  122.2997   58.9341 H   0  0  0  0  0  0  0  0  0  0  0  0
  126.4640  124.2727   58.4071 H   0  0  0  0  0  0  0  0  0  0  0  0
  124.0091  123.9259   58.6456 H   0  0  0  0  0  0  0  0  0  0  0  0
  123.0003  123.7239   60.9135 H   0  0  0  0  0  0  0  0  0  0  0  0
  124.4295  123.8750   62.9448 H   0  0  0  0  0  0  0  0  0  0  0  0
  126.8824  124.2483   62.7137 H   0  0  0  0  0  0  0  0  0  0  0  0
  130.9225  124.6538   60.5450 H   0  0  0  0  0  0  0  0  0  0  0  0
  132.0989  124.9409   59.2357 H   0  0  0  0  0  0  0  0  0  0  0  0
  130.4648  126.9757   60.8348 H   0  0  0  0  0  0  0  0  0  0  0  0
  132.2859  126.8603   60.5687 H   0  0  0  0  0  0  0  0  0  0  0  0
  132.2713  127.9398   58.6977 H   0  0  0  0  0  0  0  0  0  0  0  0
  126.6666  131.8717   57.9645 H   0  0  0  0  0  0  0  0  0  0  0  0
  126.9699  130.1342   58.4356 H   0  0  0  0  0  0  0  0  0  0  0  0
  124.2482  131.7005   58.0569 H   0  0  0  0  0  0  0  0  0  0  0  0
  122.2190  131.7229   59.5053 H   0  0  0  0  0  0  0  0  0  0  0  0
  122.4144  131.2036   61.9366 H   0  0  0  0  0  0  0  0  0  0  0  0
  126.6706  130.6221   61.4743 H   0  0  0  0  0  0  0  0  0  0  0  0
  132.5190  129.6030   60.4020 H   0  0  0  0  0  0  0  0  0  0  0  0
  129.4806  127.7672   57.6882 H   0  0  0  0  0  0  0  0  0  0  0  0
  131.1276  127.7802   56.8505 H   0  0  0  0  0  0  0  0  0  0  0  0
  129.6767  125.6309   56.6584 H   0  0  0  0  0  0  0  0  0  0  0  0
  131.4042  125.4701   57.0669 H   0  0  0  0  0  0  0  0  0  0  0  0
  1  2  2  0
  2  3  1  0
  3  4  1  0
  4  5  2  0
  5  6  1  0
  6  7  2  0
  7  8  1  0
  8  9  2  0
  3 10  1  0
 10 11  2  0
 11 12  1  0
 12 13  2  0
 13 14  1  0
 14 15  2  0
  2 16  1  0
 16 17  1  0
 17 18  1  0
 18 19  1  0
 19 20  1  0
 20 21  2  0
 21 22  1  0
 22 23  2  0
 23 24  1  0
 24 25  2  0
 25 26  1  0
 26 27  1  0
 27 28  1  0
 28 29  2  0
 29 30  1  0
 30 31  2  0
 31 32  1  0
 32 33  1  0
 32 34  2  0
 23 35  1  0
 35 36  2  0
 35 37  1  0
 19 38  1  0
 38 39  1  0
  9  4  1  0
 15 10  1  0
 39 16  1  0
 37 20  1  0
 26 22  1  0
 34 28  1  0
  3 40  1  0
  5 41  1  0
  6 42  1  0
  7 43  1  0
  8 44  1  0
  9 45  1  0
 11 46  1  0
 12 47  1  0
 13 48  1  0
 14 49  1  0
 15 50  1  0
 17 51  1  0
 17 52  1  0
 18 53  1  0
 18 54  1  0
 19 55  1  0
 27 56  1  0
 27 57  1  0
 29 58  1  0
 30 59  1  0
 31 60  1  0
 34 61  1  0
 37 62  1  0
 38 63  1  0
 38 64  1  0
 39 65  1  0
 39 66  1  0
M  END
>  <Binding energies>  (1) 
[-9.68]

>  <Ligand effiencies>  (1) 
[-0.242]

>  <Interactions>  (1) 
["V-A:ASP:366:CG:3211, V-B:TYR:539:CE2:9848, V-B:GLU:543:CD:9880, V-B:ASN:362:CB:8148, V-B:PRO:540:CB:9857, V-B:ASP:366:CG:8185, V-B:ASN:362:C:8144, V-B:TYR:539:CD2:9846, V-B:PRO:540:CA:9855, V-B:ALA:541:CB:9864, V-A:TYR:539:CE2:4874, V-A:TYR:539:CD2:4872, H-A:ASP:366:OD1:3212, V-A:LEU:475:CD2:4257, V-B:TYR:539:C:9839, V-B:ARG:545:CZ:9898, V-B:ILE:369:CD1:8211, V-B:ILE:369:CG2:8209, V-A:TYR:539:CZ:4875, V-A:PRO:540:CA:4881, V-A:PRO:540:C:4879, H-A:ALA:541:N:4889, V-B:ASP:366:CA:8182, H-A:ASP:366:OD2:3213, V-B:ILE:369:CB:8208, V-B:ILE:369:CG1:8210"]

$$$$
RR28_Rahimova_2017
     RDKit          3D

 82 85  0  0  0  0  0  0  0  0999 V2000
  133.9050  123.6740   57.9390 C   0  0  0  0  0  0  0  0  0  0  0  0
  132.6630  124.3630   58.4920 C   0  0  0  0  0  0  0  0  0  0  0  0
  132.5020  125.5670   58.3030 O   0  0  0  0  0  0  0  0  0  0  0  0
  131.7980  123.5810   59.1700 N   0  0  0  0  0  0  0  0  0  0  0  0
  130.5250  123.9720   59.8180 C   0  0  0  0  0  0  0  0  0  0  0  0
  130.8200  124.3000   61.3100 C   0  0  0  0  0  0  0  0  0  0  0  0
  130.3290  125.4940   61.8620 C   0  0  0  0  0  0  0  0  0  0  0  0
  130.5770  125.8220   63.1910 C   0  0  0  0  0  0  0  0  0  0  0  0
  131.3240  124.9640   64.0000 C   0  0  0  0  0  0  0  0  0  0  0  0
  131.5890  125.3440   65.4560 C   0  0  0  0  0  0  0  0  0  0  0  0
  131.2850  126.6180   65.7110 F   0  0  0  0  0  0  0  0  0  0  0  0
  130.8680  124.5770   66.2740 F   0  0  0  0  0  0  0  0  0  0  0  0
  132.8820  125.1620   65.7270 F   0  0  0  0  0  0  0  0  0  0  0  0
  131.8190  123.7730   63.4620 C   0  0  0  0  0  0  0  0  0  0  0  0
  131.5710  123.4460   62.1320 C   0  0  0  0  0  0  0  0  0  0  0  0
  129.4410  122.8530   59.6200 C   0  0  0  0  0  0  0  0  0  0  0  0
  129.0170  122.6650   58.1410 C   0  0  0  0  0  0  0  0  0  0  0  0
  128.4980  123.9660   57.6880 N   0  0  0  0  0  0  0  0  0  0  0  0
  127.1650  124.2370   57.7570 C   0  0  0  0  0  0  0  0  0  0  0  0
  126.3350  123.3680   58.0330 O   0  0  0  0  0  0  0  0  0  0  0  0
  126.6620  125.6330   57.3160 C   0  0  0  0  0  0  0  0  0  0  0  0
  126.0730  126.5280   58.4410 C   0  0  0  0  0  0  0  0  0  0  0  0
  127.1070  127.0700   59.4560 C   0  0  0  0  0  0  0  0  0  0  0  0
  127.7650  126.2520   60.1050 O   0  0  0  0  0  0  0  0  0  0  0  0
  127.3620  128.4080   59.5110 N   0  0  0  0  0  0  0  0  0  0  0  0
  126.4290  129.4290   59.0200 C   0  0  0  0  0  0  0  0  0  0  0  0
  125.4410  129.7140   60.1730 C   0  0  0  0  0  0  0  0  0  0  0  0
  126.1130  130.1620   61.5180 C   0  0  0  0  0  0  0  0  0  0  0  0
  125.1390  130.0130   62.6200 N   0  0  0  0  0  0  0  0  0  0  0  0
  125.3240  130.2590   63.9320 C   0  0  0  0  0  0  0  0  0  0  0  0
  124.1310  129.9940   64.8440 C   0  0  0  0  0  0  0  0  0  0  0  0
  126.3780  130.6730   64.4140 O   0  0  0  0  0  0  0  0  0  0  0  0
  126.4500  131.6830   61.3890 C   0  0  0  0  0  0  0  0  0  0  0  0
  125.4820  132.6920   61.5260 C   0  0  0  0  0  0  0  0  0  0  0  0
  125.8250  134.0360   61.4050 C   0  0  0  0  0  0  0  0  0  0  0  0
  127.1450  134.4060   61.1390 C   0  0  0  0  0  0  0  0  0  0  0  0
  127.5370  135.8770   61.0070 C   0  0  0  0  0  0  0  0  0  0  0  0
  127.2700  136.3270   59.7790 F   0  0  0  0  0  0  0  0  0  0  0  0
  126.8390  136.5960   61.8850 F   0  0  0  0  0  0  0  0  0  0  0  0
  128.8360  136.0750   61.2430 F   0  0  0  0  0  0  0  0  0  0  0  0
  128.1170  133.4150   60.9920 C   0  0  0  0  0  0  0  0  0  0  0  0
  127.7710  132.0730   61.1140 C   0  0  0  0  0  0  0  0  0  0  0  0
  127.3840  129.2640   61.7810 C   0  0  0  0  0  0  0  0  0  0  0  0
  128.2610  128.9450   60.5410 C   0  0  0  0  0  0  0  0  0  0  0  0
  129.5200  125.0220   57.6540 C   0  0  0  0  0  0  0  0  0  0  0  0
  129.9780  125.2580   59.1170 C   0  0  0  0  0  0  0  0  0  0  0  0
  134.5328  123.3257   58.7724 H   0  0  0  0  0  0  0  0  0  0  0  0
  133.6036  122.8141   57.3228 H   0  0  0  0  0  0  0  0  0  0  0  0
  134.4750  124.3849   57.3228 H   0  0  0  0  0  0  0  0  0  0  0  0
  132.0460  122.6090   59.2780 H   0  0  0  0  0  0  0  0  0  0  0  0
  129.7401  126.1796   61.2349 H   0  0  0  0  0  0  0  0  0  0  0  0
  130.1828  126.7613   63.6061 H   0  0  0  0  0  0  0  0  0  0  0  0
  132.4076  123.0906   64.0928 H   0  0  0  0  0  0  0  0  0  0  0  0
  131.9686  122.5066   61.7203 H   0  0  0  0  0  0  0  0  0  0  0  0
  129.8502  121.9012   59.9896 H   0  0  0  0  0  0  0  0  0  0  0  0
  128.5459  123.1640   60.1785 H   0  0  0  0  0  0  0  0  0  0  0  0
  129.8835  122.3682   57.5318 H   0  0  0  0  0  0  0  0  0  0  0  0
  128.2567  121.8763   58.0416 H   0  0  0  0  0  0  0  0  0  0  0  0
  127.5101  126.1705   56.8668 H   0  0  0  0  0  0  0  0  0  0  0  0
  125.8314  125.4442   56.6200 H   0  0  0  0  0  0  0  0  0  0  0  0
  125.5766  127.3880   57.9678 H   0  0  0  0  0  0  0  0  0  0  0  0
  125.3866  125.8878   59.0146 H   0  0  0  0  0  0  0  0  0  0  0  0
  126.9754  130.3456   58.7529 H   0  0  0  0  0  0  0  0  0  0  0  0
  125.8996  129.0831   58.1199 H   0  0  0  0  0  0  0  0  0  0  0  0
  124.7577  130.5128   59.8489 H   0  0  0  0  0  0  0  0  0  0  0  0
  124.9281  128.7640   60.3839 H   0  0  0  0  0  0  0  0  0  0  0  0
  124.2410  129.6460   62.3440 H   0  0  0  0  0  0  0  0  0  0  0  0
  124.4496  130.0648   65.8945 H   0  0  0  0  0  0  0  0  0  0  0  0
  123.3466  130.7398   64.6477 H   0  0  0  0  0  0  0  0  0  0  0  0
  123.7361  128.9863   64.6477 H   0  0  0  0  0  0  0  0  0  0  0  0
  124.4373  132.4160   61.7320 H   0  0  0  0  0  0  0  0  0  0  0  0
  125.0522  134.8104   61.5195 H   0  0  0  0  0  0  0  0  0  0  0  0
  129.1590  133.6958   60.7792 H   0  0  0  0  0  0  0  0  0  0  0  0
  128.5468  131.3027   60.9928 H   0  0  0  0  0  0  0  0  0  0  0  0
  128.0166  129.7834   62.5158 H   0  0  0  0  0  0  0  0  0  0  0  0
  126.9954  128.2946   62.1263 H   0  0  0  0  0  0  0  0  0  0  0  0
  128.7493  129.8610   60.1770 H   0  0  0  0  0  0  0  0  0  0  0  0
  129.0502  128.2210   60.7919 H   0  0  0  0  0  0  0  0  0  0  0  0
  130.3734  124.7020   57.0381 H   0  0  0  0  0  0  0  0  0  0  0  0
  129.1149  125.9461   57.2159 H   0  0  0  0  0  0  0  0  0  0  0  0
  130.7739  126.0173   59.1138 H   0  0  0  0  0  0  0  0  0  0  0  0
  129.0924  125.5817   59.6835 H   0  0  0  0  0  0  0  0  0  0  0  0
  1  2  1  0
  2  3  2  0
  2  4  1  0
  4  5  1  0
  5  6  1  0
  6  7  2  0
  7  8  1  0
  8  9  2  0
  9 10  1  0
 10 11  1  0
 10 12  1  0
 10 13  1  0
  9 14  1  0
 14 15  2  0
  5 16  1  0
 16 17  1  0
 17 18  1  0
 18 19  1  0
 19 20  2  0
 19 21  1  0
 21 22  1  0
 22 23  1  0
 23 24  2  0
 23 25  1  0
 25 26  1  0
 26 27  1  0
 27 28  1  0
 28 29  1  0
 29 30  1  0
 30 31  1  0
 30 32  2  0
 28 33  1  0
 33 34  2  0
 34 35  1  0
 35 36  2  0
 36 37  1  0
 37 38  1  0
 37 39  1  0
 37 40  1  0
 36 41  1  0
 41 42  2  0
 28 43  1  0
 43 44  1  0
 18 45  1  0
 45 46  1  0
 46  5  1  0
 15  6  1  0
 44 25  1  0
 42 33  1  0
  1 47  1  0
  1 48  1  0
  1 49  1  0
  4 50  1  0
  7 51  1  0
  8 52  1  0
 14 53  1  0
 15 54  1  0
 16 55  1  0
 16 56  1  0
 17 57  1  0
 17 58  1  0
 21 59  1  0
 21 60  1  0
 22 61  1  0
 22 62  1  0
 26 63  1  0
 26 64  1  0
 27 65  1  0
 27 66  1  0
 29 67  1  0
 31 68  1  0
 31 69  1  0
 31 70  1  0
 34 71  1  0
 35 72  1  0
 41 73  1  0
 42 74  1  0
 43 75  1  0
 43 76  1  0
 44 77  1  0
 44 78  1  0
 45 79  1  0
 45 80  1  0
 46 81  1  0
 46 82  1  0
M  END
>  <Binding energies>  (1) 
[-6.93]

>  <Ligand effiencies>  (1) 
[-0.144375]

>  <Interactions>  (1) 
["V-A:GLU:543:CD:4906, V-A:ASP:366:CG:3211, V-B:GLU:543:CG:9879, V-A:HIS:456:CE1:4068, V-A:ASP:366:CB:3210, V-A:ILE:369:CB:3234, V-B:TYR:539:CE2:9848, V-A:ARG:545:CD:4921, V-A:ILE:369:CG2:3235, V-A:ARG:545:CG:4920, V-B:GLU:543:CD:9880, V-B:GLU:543:CB:9878, V-A:ASP:366:CA:3208, V-B:ASP:366:CG:8185, V-B:TYR:539:CD2:9846, V-B:TYR:539:CZ:9849, V-A:TYR:539:CE2:4874, V-B:GLY:454:CA:9021, V-A:TYR:539:CD2:4872, V-A:TYR:484:CZ:4345, H-B:ASP:366:OD1:8186, V-B:LEU:475:CD2:9231, V-A:ALA:541:CB:4890, V-B:TYR:539:C:9839, H-B:TYR:484:OH:9320, V-A:TYR:539:C:4865, V-B:ARG:545:CZ:9898, V-A:PRO:540:C:4879, V-A:GLU:543:CG:4905, V-A:TYR:539:CG:4870, V-A:TYR:539:CA:4867, V-B:PRO:482:CG:9299, V-B:PRO:482:CB:9298, V-B:TRP:381:CZ2:8342, V-B:TRP:381:CH2:8344, V-A:TYR:484:CE1:4343, V-B:GLY:453:CA:9016, V-B:GLY:453:C:9014, V-B:ARG:545:CD:9895, V-A:ALA:541:CA:4888, V-B:TYR:539:CG:9844, V-B:LEU:475:CG:9229, V-B:LEU:475:CD1:9230, V-B:TRP:381:CZ3:8343, V-A:TYR:539:CB:4869, V-B:TRP:381:CE2:8339, V-B:TRP:381:CE3:8340, V-B:PRO:482:CD:9300"]

$$$$
RR29_Rahimova_2017
     RDKit          3D

 35 36  0  0  0  0  0  0  0  0999 V2000
  128.9920  127.0020   69.5610 C   0  0  0  0  0  0  0  0  0  0  0  0
  129.0280  127.0510   68.0410 C   0  0  0  0  0  0  0  0  0  0  0  0
  127.7150  127.5830   67.4240 C   0  0  0  0  0  0  0  0  0  0  0  0
  127.9240  128.9430   66.7240 C   0  0  0  0  0  0  0  0  0  0  0  0
  126.7460  129.3230   65.8400 C   0  0  0  0  0  0  0  0  0  0  0  0
  125.4360  129.2910   66.3600 C   0  0  0  0  0  0  0  0  0  0  0  0
  124.3370  129.6380   65.5620 C   0  0  0  0  0  0  0  0  0  0  0  0
  124.5880  130.0010   64.2440 C   0  0  0  0  0  0  0  0  0  0  0  0
  125.8550  130.0320   63.7340 C   0  0  0  0  0  0  0  0  0  0  0  0
  126.9660  129.7030   64.5040 C   0  0  0  0  0  0  0  0  0  0  0  0
  125.8100  130.4520   62.4420 O   0  0  0  0  0  0  0  0  0  0  0  0
  124.4500  130.4770   62.0990 C   0  0  0  0  0  0  0  0  0  0  0  0
  123.7090  130.4020   63.2880 O   0  0  0  0  0  0  0  0  0  0  0  0
  130.0880  126.6570   67.4380 N   0  0  0  0  0  0  0  0  0  0  0  0
  130.0920  126.6210   66.0610 N   0  0  0  0  0  0  0  0  0  0  0  0
  130.4970  125.5640   65.3380 C   0  0  0  0  0  0  0  0  0  0  0  0
  130.9280  124.4110   65.8510 N   0  0  0  0  0  0  0  0  0  0  0  0
  130.4650  125.6710   64.0180 N   0  0  0  0  0  0  0  0  0  0  0  0
  129.5969  127.8253   69.9688 H   0  0  0  0  0  0  0  0  0  0  0  0
  127.9528  127.1044   69.9066 H   0  0  0  0  0  0  0  0  0  0  0  0
  129.4003  126.0409   69.9066 H   0  0  0  0  0  0  0  0  0  0  0  0
  127.3470  126.8549   66.6861 H   0  0  0  0  0  0  0  0  0  0  0  0
  126.9863  127.7233   68.2360 H   0  0  0  0  0  0  0  0  0  0  0  0
  128.0555  129.7197   67.4917 H   0  0  0  0  0  0  0  0  0  0  0  0
  128.8135  128.8586   66.0823 H   0  0  0  0  0  0  0  0  0  0  0  0
  125.2742  128.9898   67.4055 H   0  0  0  0  0  0  0  0  0  0  0  0
  123.3133  129.6235   65.9642 H   0  0  0  0  0  0  0  0  0  0  0  0
  127.9814  129.7389   64.0824 H   0  0  0  0  0  0  0  0  0  0  0  0
  124.2144  131.4117   61.5690 H   0  0  0  0  0  0  0  0  0  0  0  0
  124.2038  129.6332   61.4376 H   0  0  0  0  0  0  0  0  0  0  0  0
  129.7940  127.4600   65.5850 H   0  0  0  0  0  0  0  0  0  0  0  0
  130.9170  123.5700   65.2910 H   0  0  0  0  0  0  0  0  0  0  0  0
  131.2560  124.3820   66.8060 H   0  0  0  0  0  0  0  0  0  0  0  0
  130.4620  126.5830   63.5850 H   0  0  0  0  0  0  0  0  0  0  0  0
  130.4510  124.8390   63.4460 H   0  0  0  0  0  0  0  0  0  0  0  0
  1  2  1  0
  2  3  1  0
  3  4  1  0
  4  5  1  0
  5  6  2  0
  6  7  1  0
  7  8  2  0
  8  9  1  0
  9 10  2  0
  9 11  1  0
 11 12  1  0
 12 13  1  0
  2 14  2  0
 14 15  1  0
 15 16  1  0
 16 17  1  0
 16 18  2  0
 10  5  1  0
 13  8  1  0
  1 19  1  0
  1 20  1  0
  1 21  1  0
  3 22  1  0
  3 23  1  0
  4 24  1  0
  4 25  1  0
  6 26  1  0
  7 27  1  0
 10 28  1  0
 12 29  1  0
 12 30  1  0
 15 31  1  0
 17 32  1  0
 17 33  1  0
 18 34  1  0
 18 35  1  0
M  CHG  1  18   1
M  END
>  <Binding energies>  (1) 
[-7.24]

>  <Ligand effiencies>  (1) 
[-0.31478260869565217]

>  <Interactions>  (1) 
["V-A:GLU:543:CD:4906, V-B:GLU:543:CG:9879, V-A:HIS:456:CE1:4068, V-B:GLU:543:CD:9880, V-B:GLU:543:CB:9878, V-B:GLU:543:C:9874, H-B:ARG:545:NH1:9899, V-A:TYR:484:CZ:4345, H-B:GLY:454:N:9022, H-B:GLU:543:OE1:9881, V-B:ARG:545:CZ:9898, H-A:TYR:484:OH:4346, H-A:GLU:543:OE1:4907, H-A:GLU:543:OE2:4908, V-A:GLU:543:CB:4904, H-B:GLU:543:OE2:9882, V-B:HIS:456:CE1:9042, V-B:ARG:545:CG:9894, V-A:GLU:543:CG:4905, V-A:TYR:484:CE1:4343, H-A:HIS:456:NE2:4069, V-B:ARG:545:CD:9895"]

$$$$
RR29_Rahimova_2017-again1
     RDKit          3D

 34 35  0  0  0  0  0  0  0  0999 V2000
  132.7760  123.7040   75.0740 C   0  0  0  0  0  0  0  0  0  0  0  0
  131.6320  123.8370   74.0800 C   0  0  0  0  0  0  0  0  0  0  0  0
  131.2090  122.4960   73.4480 C   0  0  0  0  0  0  0  0  0  0  0  0
  129.7980  122.0740   73.9090 C   0  0  0  0  0  0  0  0  0  0  0  0
  129.0820  121.2270   72.8680 C   0  0  0  0  0  0  0  0  0  0  0  0
  128.8970  121.7250   71.5640 C   0  0  0  0  0  0  0  0  0  0  0  0
  128.2410  120.9610   70.5880 C   0  0  0  0  0  0  0  0  0  0  0  0
  127.7750  119.7050   70.9600 C   0  0  0  0  0  0  0  0  0  0  0  0
  127.9490  119.2180   72.2260 C   0  0  0  0  0  0  0  0  0  0  0  0
  128.6050  119.9500   73.2100 C   0  0  0  0  0  0  0  0  0  0  0  0
  127.4290  117.9650   72.3000 O   0  0  0  0  0  0  0  0  0  0  0  0
  126.7320  117.7730   71.0990 C   0  0  0  0  0  0  0  0  0  0  0  0
  127.1400  118.7720   70.2030 O   0  0  0  0  0  0  0  0  0  0  0  0
  131.1410  125.0010   73.8390 N   0  0  0  0  0  0  0  0  0  0  0  0
  130.1890  125.0740   72.9660 N   0  0  0  0  0  0  0  0  0  0  0  0
  130.0620  126.1760   72.3220 C   0  0  0  0  0  0  0  0  0  0  0  0
  130.8450  127.3580   72.4440 N   0  0  0  0  0  0  0  0  0  0  0  0
  129.0550  126.3430   71.3470 N   0  0  0  0  0  0  0  0  0  0  0  0
  132.3786  123.7502   76.0987 H   0  0  0  0  0  0  0  0  0  0  0  0
  133.2845  122.7407   74.9210 H   0  0  0  0  0  0  0  0  0  0  0  0
  133.4920  124.5250   74.9210 H   0  0  0  0  0  0  0  0  0  0  0  0
  131.2110  122.6005   72.3530 H   0  0  0  0  0  0  0  0  0  0  0  0
  131.9227  121.7228   73.7687 H   0  0  0  0  0  0  0  0  0  0  0  0
  129.8883  121.4919   74.8380 H   0  0  0  0  0  0  0  0  0  0  0  0
  129.2065  122.9882   74.0649 H   0  0  0  0  0  0  0  0  0  0  0  0
  129.2721  122.7267   71.3074 H   0  0  0  0  0  0  0  0  0  0  0  0
  128.1003  121.3415   69.5655 H   0  0  0  0  0  0  0  0  0  0  0  0
  128.7458  119.5430   74.2222 H   0  0  0  0  0  0  0  0  0  0  0  0
  126.9655  116.7809   70.6852 H   0  0  0  0  0  0  0  0  0  0  0  0
  125.6470  117.8301   71.2707 H   0  0  0  0  0  0  0  0  0  0  0  0
  131.6110  127.4270   73.0990 H   0  0  0  0  0  0  0  0  0  0  0  0
  130.6690  128.1850   71.8950 H   0  0  0  0  0  0  0  0  0  0  0  0
  128.3980  125.6110   71.1240 H   0  0  0  0  0  0  0  0  0  0  0  0
  128.9360  127.2030   70.8320 H   0  0  0  0  0  0  0  0  0  0  0  0
  1  2  1  0
  2  3  1  0
  3  4  1  0
  4  5  1  0
  5  6  2  0
  6  7  1  0
  7  8  2  0
  8  9  1  0
  9 10  2  0
  9 11  1  0
 11 12  1  0
 12 13  1  0
  2 14  2  0
 14 15  1  0
 15 16  2  0
 16 17  1  0
 16 18  1  0
 10  5  1  0
 13  8  1  0
  1 19  1  0
  1 20  1  0
  1 21  1  0
  3 22  1  0
  3 23  1  0
  4 24  1  0
  4 25  1  0
  6 26  1  0
  7 27  1  0
 10 28  1  0
 12 29  1  0
 12 30  1  0
 17 31  1  0
 17 32  1  0
 18 33  1  0
 18 34  1  0
M  END
>  <Binding energies>  (1) 
[-6.89]

>  <Ligand effiencies>  (1) 
[-0.3131818181818182]

>  <Interactions>  (1) 
["V-B:VAL:542:C:9866, V-A:TYR:484:CB:4339, V-A:HIS:456:CD2:4066, V-A:TYR:484:CG:4340, V-A:TYR:484:CD1:4341, V-B:GLU:543:CA:9876, V-B:LYS:547:CE:9922, V-B:GLU:543:C:9874, V-B:GLY:544:CA:9886, V-B:VAL:542:CG1:9871, H-B:LYS:547:NZ:9923, V-A:GLY:544:C:4910, H-A:HIS:456:NE2:4069, H-B:GLU:543:O:9875, V-B:GLY:544:C:9884, V-A:LYS:471:CD:4217, V-A:HIS:456:CB:4063, V-A:LYS:547:CE:4948, V-A:ASP:473:CG:4238, V-A:HIS:456:CG:4064, H-A:GLU:543:O:4901, V-A:LYS:471:CE:4218, V-A:TYR:484:CA:4337, H-A:TYR:484:N:4338, H-A:GLY:544:O:4911, V-A:TYR:484:C:4335, H-B:GLY:544:O:9885, V-A:GLY:544:CA:4912, V-A:SER:483:CB:4331"]

$$$$
RR2_Rahimova_2017
     RDKit          3D

 76 80  0  0  0  0  0  0  0  0999 V2000
  132.9900  124.3760   58.7530 C   0  0  0  0  0  0  0  0  0  0  0  0
  131.7220  123.7300   58.7940 O   0  0  0  0  0  0  0  0  0  0  0  0
  130.5910  124.4800   59.0580 C   0  0  0  0  0  0  0  0  0  0  0  0
  129.3060  123.9450   59.2180 C   0  0  0  0  0  0  0  0  0  0  0  0
  128.2240  124.7800   59.4780 C   0  0  0  0  0  0  0  0  0  0  0  0
  128.3980  126.1670   59.5810 C   0  0  0  0  0  0  0  0  0  0  0  0
  127.2010  127.0560   59.8580 C   0  0  0  0  0  0  0  0  0  0  0  0
  126.3430  126.7080   60.6760 O   0  0  0  0  0  0  0  0  0  0  0  0
  127.1470  128.2090   59.1510 N   0  0  0  0  0  0  0  0  0  0  0  0
  126.0240  129.0170   59.2990 N   0  0  0  0  0  0  0  0  0  0  0  0
  125.7710  129.9370   58.3460 C   0  0  0  0  0  0  0  0  0  0  0  0
  126.5500  130.2480   57.4410 O   0  0  0  0  0  0  0  0  0  0  0  0
  124.3910  130.6050   58.4220 C   0  0  0  0  0  0  0  0  0  0  0  0
  124.3260  132.1360   59.4230 S   0  0  0  0  0  0  0  0  0  0  0  0
  124.3540  131.4590   61.0550 C   0  0  0  0  0  0  0  0  0  0  0  0
  123.2690  131.2140   61.7450 N   0  0  0  0  0  0  0  0  0  0  0  0
  123.6630  130.7620   62.9960 N   0  0  0  0  0  0  0  0  0  0  0  0
  124.9740  130.7230   63.0060 C   0  0  0  0  0  0  0  0  0  0  0  0
  125.7740  130.2680   64.1840 C   0  0  0  0  0  0  0  0  0  0  0  0
  126.7470  131.1090   64.7290 C   0  0  0  0  0  0  0  0  0  0  0  0
  127.5020  130.6920   65.8210 C   0  0  0  0  0  0  0  0  0  0  0  0
  127.2790  129.4330   66.3900 C   0  0  0  0  0  0  0  0  0  0  0  0
  128.0160  128.9560   67.4840 N   0  0  0  0  0  0  0  0  0  0  0  0
  128.1520  127.2440   67.9440 S   0  0  0  0  0  0  0  0  0  0  0  0
  129.2050  126.6790   67.0930 O   0  0  0  0  0  0  0  0  0  0  0  0
  126.8020  126.6670   67.9540 O   0  0  0  0  0  0  0  0  0  0  0  0
  128.7920  127.2580   69.6170 C   0  0  0  0  0  0  0  0  0  0  0  0
  130.1470  127.0230   69.8620 C   0  0  0  0  0  0  0  0  0  0  0  0
  130.6220  127.0230   71.1710 C   0  0  0  0  0  0  0  0  0  0  0  0
  129.7450  127.2620   72.2320 C   0  0  0  0  0  0  0  0  0  0  0  0
  130.2620  127.2470   73.6590 C   0  0  0  0  0  0  0  0  0  0  0  0
  128.3900  127.4930   71.9840 C   0  0  0  0  0  0  0  0  0  0  0  0
  127.9140  127.4920   70.6760 C   0  0  0  0  0  0  0  0  0  0  0  0
  126.3040  128.5950   65.8470 C   0  0  0  0  0  0  0  0  0  0  0  0
  125.5530  129.0090   64.7510 C   0  0  0  0  0  0  0  0  0  0  0  0
  125.4840  131.1610   61.7950 N   0  0  0  0  0  0  0  0  0  0  0  0
  126.8330  131.3130   61.4150 C   0  0  0  0  0  0  0  0  0  0  0  0
  127.3070  132.5620   61.0110 C   0  0  0  0  0  0  0  0  0  0  0  0
  128.6410  132.7060   60.6420 C   0  0  0  0  0  0  0  0  0  0  0  0
  129.5090  131.6130   60.6700 C   0  0  0  0  0  0  0  0  0  0  0  0
  130.8130  131.8540   60.2850 O   0  0  0  0  0  0  0  0  0  0  0  0
  131.8650  131.1010   60.8820 C   0  0  0  0  0  0  0  0  0  0  0  0
  129.0230  130.3600   61.0780 C   0  0  0  0  0  0  0  0  0  0  0  0
  127.6910  130.2110   61.4500 C   0  0  0  0  0  0  0  0  0  0  0  0
  129.6890  126.6960   59.4250 C   0  0  0  0  0  0  0  0  0  0  0  0
  130.7700  125.8580   59.1660 C   0  0  0  0  0  0  0  0  0  0  0  0
  133.3432  124.5559   59.7791 H   0  0  0  0  0  0  0  0  0  0  0  0
  133.7110  123.7353   58.2241 H   0  0  0  0  0  0  0  0  0  0  0  0
  132.8956  125.3359   58.2241 H   0  0  0  0  0  0  0  0  0  0  0  0
  129.1518  122.8588   59.1376 H   0  0  0  0  0  0  0  0  0  0  0  0
  127.2208  124.3469   59.6041 H   0  0  0  0  0  0  0  0  0  0  0  0
  127.5370  128.2790   58.2230 H   0  0  0  0  0  0  0  0  0  0  0  0
  125.3060  128.6010   59.8770 H   0  0  0  0  0  0  0  0  0  0  0  0
  124.0754  130.8533   57.3979 H   0  0  0  0  0  0  0  0  0  0  0  0
  123.7275  129.8834   58.9210 H   0  0  0  0  0  0  0  0  0  0  0  0
  126.9171  132.1046   64.2934 H   0  0  0  0  0  0  0  0  0  0  0  0
  128.2758  131.3534   66.2379 H   0  0  0  0  0  0  0  0  0  0  0  0
  128.5280  129.6300   68.0350 H   0  0  0  0  0  0  0  0  0  0  0  0
  130.8359  126.8387   69.0245 H   0  0  0  0  0  0  0  0  0  0  0  0
  131.6874  126.8349   71.3696 H   0  0  0  0  0  0  0  0  0  0  0  0
  129.4123  127.2717   74.3571 H   0  0  0  0  0  0  0  0  0  0  0  0
  130.8482  126.3315   73.8270 H   0  0  0  0  0  0  0  0  0  0  0  0
  130.9002  128.1270   73.8270 H   0  0  0  0  0  0  0  0  0  0  0  0
  127.7001  127.6754   72.8211 H   0  0  0  0  0  0  0  0  0  0  0  0
  126.8477  127.6753   70.4775 H   0  0  0  0  0  0  0  0  0  0  0  0
  126.1283  127.6025   66.2875 H   0  0  0  0  0  0  0  0  0  0  0  0
  124.7841  128.3446   64.3299 H   0  0  0  0  0  0  0  0  0  0  0  0
  126.6295  133.4282   60.9844 H   0  0  0  0  0  0  0  0  0  0  0  0
  129.0152  133.6907   60.3252 H   0  0  0  0  0  0  0  0  0  0  0  0
  131.7824  131.1601   61.9773 H   0  0  0  0  0  0  0  0  0  0  0  0
  131.7896  130.0504   60.5648 H   0  0  0  0  0  0  0  0  0  0  0  0
  132.8352  131.5111   60.5648 H   0  0  0  0  0  0  0  0  0  0  0  0
  129.6989  129.4925   61.1035 H   0  0  0  0  0  0  0  0  0  0  0  0
  127.3144  129.2285   61.7708 H   0  0  0  0  0  0  0  0  0  0  0  0
  129.8476  127.7813   59.5081 H   0  0  0  0  0  0  0  0  0  0  0  0
  131.7754  126.2876   59.0454 H   0  0  0  0  0  0  0  0  0  0  0  0
  1  2  1  0
  2  3  1  0
  3  4  2  0
  4  5  1  0
  5  6  2  0
  6  7  1  0
  7  8  2  0
  7  9  1  0
  9 10  1  0
 10 11  1  0
 11 12  2  0
 11 13  1  0
 13 14  1  0
 14 15  1  0
 15 16  2  0
 16 17  1  0
 17 18  2  0
 18 19  1  0
 19 20  2  0
 20 21  1  0
 21 22  2  0
 22 23  1  0
 23 24  1  0
 24 25  2  0
 24 26  2  0
 24 27  1  0
 27 28  2  0
 28 29  1  0
 29 30  2  0
 30 31  1  0
 30 32  1  0
 32 33  2  0
 22 34  1  0
 34 35  2  0
 18 36  1  0
 36 37  1  0
 37 38  2  0
 38 39  1  0
 39 40  2  0
 40 41  1  0
 41 42  1  0
 40 43  1  0
 43 44  2  0
  6 45  1  0
 45 46  2  0
 46  3  1  0
 36 15  1  0
 44 37  1  0
 35 19  1  0
 33 27  1  0
  1 47  1  0
  1 48  1  0
  1 49  1  0
  4 50  1  0
  5 51  1  0
  9 52  1  0
 10 53  1  0
 13 54  1  0
 13 55  1  0
 20 56  1  0
 21 57  1  0
 23 58  1  0
 28 59  1  0
 29 60  1  0
 31 61  1  0
 31 62  1  0
 31 63  1  0
 32 64  1  0
 33 65  1  0
 34 66  1  0
 35 67  1  0
 38 68  1  0
 39 69  1  0
 42 70  1  0
 42 71  1  0
 42 72  1  0
 43 73  1  0
 44 74  1  0
 45 75  1  0
 46 76  1  0
M  END
>  <Binding energies>  (1) 
[-8.73]

>  <Ligand effiencies>  (1) 
[-0.17816326530612245]

>  <Interactions>  (1) 
["V-A:GLU:543:CD:4906, V-A:ASP:366:CG:3211, V-B:GLU:543:CG:9879, V-A:HIS:456:CE1:4068, V-A:ASP:366:CB:3210, V-B:TYR:539:CE2:9848, V-B:GLU:543:CD:9880, V-A:HIS:456:CD2:4066, V-B:GLU:543:C:9874, V-B:GLY:544:CA:9886, V-B:ASP:366:CB:8184, V-B:ASP:366:CG:8185, V-A:TYR:539:CE2:4874, H-B:ARG:545:NH2:9900, H-B:ASP:366:OD1:8186, V-A:ALA:541:CB:4890, H-B:GLY:454:N:9022, V-B:ARG:545:CZ:9898, V-A:GLU:543:CB:4904, V-A:TYR:539:CZ:4875, V-A:PRO:540:CA:4881, V-B:HIS:456:CE1:9042, V-A:PRO:540:CB:4883, V-B:TYR:484:CE1:9317, V-B:TYR:484:CZ:9319, H-A:ALA:541:N:4889, V-B:ASP:366:CA:8182, V-B:ARG:545:CG:9894, H-B:ASP:366:OD2:8187, V-A:GLU:543:CG:4905, V-A:GLY:544:C:4910, V-B:HIS:456:CD2:9040, V-B:GLY:544:C:9884, V-A:LYS:547:CE:4948, V-A:HIS:456:CG:4064, H-B:HIS:456:NE2:9043, H-A:GLU:543:O:4901, V-B:ARG:545:CD:9895, V-A:GLY:544:CA:4912, H-B:ARG:545:N:9892, H-A:TYR:539:OH:4876"]

$$$$
RR30_Rahimova_2017
     RDKit          3D

 29 30  0  0  0  0  0  0  0  0999 V2000
  124.6770  130.8300   75.8340 C   0  0  0  0  0  0  0  0  0  0  0  0
  124.8840  129.4350   75.2270 C   0  0  0  0  0  0  0  0  0  0  0  0
  126.1080  129.3730   74.3390 C   0  0  0  0  0  0  0  0  0  0  0  0
  127.2090  130.0770   74.4260 N   0  0  0  0  0  0  0  0  0  0  0  0
  128.0180  129.6530   73.3750 N   0  0  0  0  0  0  0  0  0  0  0  0
  127.3330  128.7370   72.7390 C   0  0  0  0  0  0  0  0  0  0  0  0
  127.8320  127.8120   71.3220 S   0  0  0  0  0  0  0  0  0  0  0  0
  129.6310  127.7560   71.6030 C   0  0  0  0  0  0  0  0  0  0  0  0
  130.0520  126.5310   72.4190 C   0  0  0  0  0  0  0  0  0  0  0  0
  129.2340  125.6290   72.6160 O   0  0  0  0  0  0  0  0  0  0  0  0
  131.3140  126.5490   72.9020 N   0  0  0  0  0  0  0  0  0  0  0  0
  131.9170  125.5610   73.6660 C   0  0  0  0  0  0  0  0  0  0  0  0
  131.3820  124.4590   74.1420 N   0  0  0  0  0  0  0  0  0  0  0  0
  132.2910  123.7010   74.8680 N   0  0  0  0  0  0  0  0  0  0  0  0
  133.4880  124.2380   74.9280 C   0  0  0  0  0  0  0  0  0  0  0  0
  134.6450  123.6040   75.6640 C   0  0  0  0  0  0  0  0  0  0  0  0
  133.5940  125.7530   74.0730 S   0  0  0  0  0  0  0  0  0  0  0  0
  126.1170  128.5050   73.2960 O   0  0  0  0  0  0  0  0  0  0  0  0
  124.6877  130.7576   76.9316 H   0  0  0  0  0  0  0  0  0  0  0  0
  125.4859  131.4978   75.5027 H   0  0  0  0  0  0  0  0  0  0  0  0
  123.7091  131.2341   75.5027 H   0  0  0  0  0  0  0  0  0  0  0  0
  125.0017  128.7074   76.0436 H   0  0  0  0  0  0  0  0  0  0  0  0
  124.0054  129.2030   74.6071 H   0  0  0  0  0  0  0  0  0  0  0  0
  130.1407  127.7247   70.6287 H   0  0  0  0  0  0  0  0  0  0  0  0
  129.9114  128.6538   72.1734 H   0  0  0  0  0  0  0  0  0  0  0  0
  131.8820  127.3580   72.6980 H   0  0  0  0  0  0  0  0  0  0  0  0
  134.4827  123.6929   76.7483 H   0  0  0  0  0  0  0  0  0  0  0  0
  134.7158  122.5411   75.3898 H   0  0  0  0  0  0  0  0  0  0  0  0
  135.5790  124.1164   75.3898 H   0  0  0  0  0  0  0  0  0  0  0  0
  1  2  1  0
  2  3  1  0
  3  4  2  0
  4  5  1  0
  5  6  2  0
  6  7  1  0
  7  8  1  0
  8  9  1  0
  9 10  2  0
  9 11  1  0
 11 12  1  0
 12 13  2  0
 13 14  1  0
 14 15  2  0
 15 16  1  0
 15 17  1  0
  6 18  1  0
 18  3  1  0
 17 12  1  0
  1 19  1  0
  1 20  1  0
  1 21  1  0
  2 22  1  0
  2 23  1  0
  8 24  1  0
  8 25  1  0
 11 26  1  0
 16 27  1  0
 16 28  1  0
 16 29  1  0
M  END
>  <Binding energies>  (1) 
[-7.42]

>  <Ligand effiencies>  (1) 
[-0.39052631578947367]

>  <Interactions>  (1) 
["V-A:HIS:456:CD2:4066, V-B:HIS:456:CG:9038, H-B:LYS:547:NZ:9923, V-B:LYS:471:CE:9192, V-B:VAL:458:CG2:9059, H-A:LYS:547:NZ:4949, V-B:HIS:456:CB:9037, V-A:GLY:544:C:4910, V-B:HIS:456:C:9033, V-B:HIS:456:CD2:9040, V-B:LYS:471:CG:9190, V-B:LYS:471:CD:9191, V-A:LYS:471:CD:4217, V-A:HIS:456:CB:4063, V-A:LYS:547:CE:4948, V-A:HIS:456:CG:4064, V-A:HIS:456:C:4059, V-A:VAL:457:C:4071, V-A:LYS:471:CG:4216, V-A:LYS:471:CB:4215, V-A:HIS:456:CA:4061, V-A:VAL:458:CG2:4085, V-A:LYS:471:CE:4218, H-A:GLY:544:O:4911, V-A:GLY:544:CA:4912"]

$$$$
RR31_Rahimova_2017
     RDKit          3D

 44 45  0  0  0  0  0  0  0  0999 V2000
  123.5840  123.6880   57.2790 C   0  0  0  0  0  0  0  0  0  0  0  0
  124.8560  123.7580   58.1150 C   0  0  0  0  0  0  0  0  0  0  0  0
  126.0950  123.6900   57.4760 C   0  0  0  0  0  0  0  0  0  0  0  0
  127.2760  123.7540   58.2120 C   0  0  0  0  0  0  0  0  0  0  0  0
  127.2550  123.8970   59.6080 C   0  0  0  0  0  0  0  0  0  0  0  0
  128.4300  123.9530   60.3610 N   0  0  0  0  0  0  0  0  0  0  0  0
  128.9230  125.2140   60.9480 C   0  0  0  0  0  0  0  0  0  0  0  0
  130.4080  125.1700   61.3790 C   0  0  0  0  0  0  0  0  0  0  0  0
  130.6500  124.0670   62.3130 N   0  0  0  0  0  0  0  0  0  0  0  0
  132.0440  124.0220   62.7680 C   0  0  0  0  0  0  0  0  0  0  0  0
  132.4080  125.1860   63.7100 C   0  0  0  0  0  0  0  0  0  0  0  0
  131.3020  125.4710   64.7400 C   0  0  0  0  0  0  0  0  0  0  0  0
  130.1330  126.1960   64.0650 N   0  0  0  0  0  0  0  0  0  0  0  0
  130.3180  122.8250   61.6170 C   0  0  0  0  0  0  0  0  0  0  0  0
  128.8290  122.8080   61.2030 C   0  0  0  0  0  0  0  0  0  0  0  0
  126.0030  123.9560   60.2390 C   0  0  0  0  0  0  0  0  0  0  0  0
  124.8090  123.8910   59.5110 C   0  0  0  0  0  0  0  0  0  0  0  0
  123.4810  123.9570   60.2560 C   0  0  0  0  0  0  0  0  0  0  0  0
  122.7098  123.6399   57.9449 H   0  0  0  0  0  0  0  0  0  0  0  0
  123.5126  124.5836   56.6443 H   0  0  0  0  0  0  0  0  0  0  0  0
  123.6113  122.7900   56.6443 H   0  0  0  0  0  0  0  0  0  0  0  0
  126.1393  123.5850   56.3819 H   0  0  0  0  0  0  0  0  0  0  0  0
  128.2421  123.6913   57.6898 H   0  0  0  0  0  0  0  0  0  0  0  0
  128.8032  126.0130   60.2015 H   0  0  0  0  0  0  0  0  0  0  0  0
  128.3328  125.3928   61.8589 H   0  0  0  0  0  0  0  0  0  0  0  0
  131.0376  125.0316   60.4877 H   0  0  0  0  0  0  0  0  0  0  0  0
  130.6558  126.1165   61.8818 H   0  0  0  0  0  0  0  0  0  0  0  0
  132.2079  123.0745   63.3021 H   0  0  0  0  0  0  0  0  0  0  0  0
  132.6837  124.1074   61.8772 H   0  0  0  0  0  0  0  0  0  0  0  0
  133.3337  124.9307   64.2465 H   0  0  0  0  0  0  0  0  0  0  0  0
  132.5361  126.0891   63.0951 H   0  0  0  0  0  0  0  0  0  0  0  0
  130.9454  124.5208   65.1643 H   0  0  0  0  0  0  0  0  0  0  0  0
  131.7083  126.1071   65.5402 H   0  0  0  0  0  0  0  0  0  0  0  0
  129.5660  125.5370   63.5490 H   0  0  0  0  0  0  0  0  0  0  0  0
  130.4800  126.8970   63.4260 H   0  0  0  0  0  0  0  0  0  0  0  0
  129.5550  126.6480   64.7600 H   0  0  0  0  0  0  0  0  0  0  0  0
  130.9436  122.7382   60.7164 H   0  0  0  0  0  0  0  0  0  0  0  0
  130.5044  121.9800   62.2961 H   0  0  0  0  0  0  0  0  0  0  0  0
  128.6358  121.8816   60.6422 H   0  0  0  0  0  0  0  0  0  0  0  0
  128.2390  122.8713   62.1292 H   0  0  0  0  0  0  0  0  0  0  0  0
  125.9586  124.0559   61.3336 H   0  0  0  0  0  0  0  0  0  0  0  0
  123.6678  123.9477   61.3400 H   0  0  0  0  0  0  0  0  0  0  0  0
  122.9529  124.8825   59.9829 H   0  0  0  0  0  0  0  0  0  0  0  0
  122.8638  123.0884   59.9829 H   0  0  0  0  0  0  0  0  0  0  0  0
  1  2  1  0
  2  3  2  0
  3  4  1  0
  4  5  2  0
  5  6  1  0
  6  7  1  0
  7  8  1  0
  8  9  1  0
  9 10  1  0
 10 11  1  0
 11 12  1  0
 12 13  1  0
  9 14  1  0
 14 15  1  0
  5 16  1  0
 16 17  2  0
 17 18  1  0
 17  2  1  0
 15  6  1  0
  1 19  1  0
  1 20  1  0
  1 21  1  0
  3 22  1  0
  4 23  1  0
  7 24  1  0
  7 25  1  0
  8 26  1  0
  8 27  1  0
 10 28  1  0
 10 29  1  0
 11 30  1  0
 11 31  1  0
 12 32  1  0
 12 33  1  0
 13 34  1  0
 13 35  1  0
 13 36  1  0
 14 37  1  0
 14 38  1  0
 15 39  1  0
 15 40  1  0
 16 41  1  0
 18 42  1  0
 18 43  1  0
 18 44  1  0
M  CHG  1  13   1
M  END
>  <Binding energies>  (1) 
[-6.64]

>  <Ligand effiencies>  (1) 
[-0.3161904761904762]

>  <Interactions>  (1) 
["V-A:GLU:543:CD:4906, V-B:GLU:543:CD:9880, V-A:ARG:545:CZ:4924, V-B:ASN:362:CB:8148, V-B:LEU:363:CA:8157, V-B:PRO:540:CB:9857, V-B:ASP:366:CG:8185, V-B:TYR:531:CE2:9765, V-B:LEU:363:CD1:8161, V-B:ASN:362:C:8144, V-B:LEU:363:CB:8159, V-B:PRO:540:N:9856, V-B:PRO:540:CA:9855, V-B:ALA:541:CB:9864, V-B:TYR:539:C:9839, H-B:GLU:543:OE1:9881, H-A:GLU:543:OE2:4908, H-B:GLU:543:OE2:9882, V-B:PRO:540:CD:9859, V-B:ASN:362:CA:8146, V-B:PRO:540:CG:9858"]

$$$$
RR32_Rahimova_2017
     RDKit          3D

 37 39  0  0  0  0  0  0  0  0999 V2000
  128.5680  128.2080   72.4340 C   0  0  0  0  0  0  0  0  0  0  0  0
  128.2170  129.5910   72.9720 C   0  0  0  0  0  0  0  0  0  0  0  0
  129.0040  130.6730   72.5760 C   0  0  0  0  0  0  0  0  0  0  0  0
  128.7110  131.9510   73.0440 C   0  0  0  0  0  0  0  0  0  0  0  0
  129.4950  133.0210   72.6480 N   0  0  0  0  0  0  0  0  0  0  0  0
  129.5890  133.2920   71.2020 C   0  0  0  0  0  0  0  0  0  0  0  0
  130.6250  134.3860   70.8520 C   0  0  0  0  0  0  0  0  0  0  0  0
  130.2940  135.6340   71.5400 N   0  0  0  0  0  0  0  0  0  0  0  0
  131.2530  136.6740   71.1840 C   0  0  0  0  0  0  0  0  0  0  0  0
  130.3330  135.3790   72.9780 C   0  0  0  0  0  0  0  0  0  0  0  0
  129.2960  134.2980   73.3610 C   0  0  0  0  0  0  0  0  0  0  0  0
  127.6770  132.2020   73.8870 N   0  0  0  0  0  0  0  0  0  0  0  0
  126.8920  131.1670   74.2940 C   0  0  0  0  0  0  0  0  0  0  0  0
  125.8220  131.4580   75.1750 C   0  0  0  0  0  0  0  0  0  0  0  0
  124.9880  130.4410   75.6240 C   0  0  0  0  0  0  0  0  0  0  0  0
  125.1930  129.1290   75.2130 C   0  0  0  0  0  0  0  0  0  0  0  0
  126.2350  128.8090   74.3480 C   0  0  0  0  0  0  0  0  0  0  0  0
  127.1160  129.8190   73.8630 C   0  0  0  0  0  0  0  0  0  0  0  0
  128.7424  127.5208   73.2750 H   0  0  0  0  0  0  0  0  0  0  0  0
  127.7368  127.8318   71.8194 H   0  0  0  0  0  0  0  0  0  0  0  0
  129.4779  128.2737   71.8194 H   0  0  0  0  0  0  0  0  0  0  0  0
  129.8540  130.5166   71.8956 H   0  0  0  0  0  0  0  0  0  0  0  0
  129.8767  132.3618   70.6902 H   0  0  0  0  0  0  0  0  0  0  0  0
  128.6048  133.6575   70.8738 H   0  0  0  0  0  0  0  0  0  0  0  0
  131.6254  134.0527   71.1653 H   0  0  0  0  0  0  0  0  0  0  0  0
  130.6102  134.5600   69.7660 H   0  0  0  0  0  0  0  0  0  0  0  0
  131.6656  137.1215   72.1003 H   0  0  0  0  0  0  0  0  0  0  0  0
  132.0685  136.2335   70.5917 H   0  0  0  0  0  0  0  0  0  0  0  0
  130.7480  137.4512   70.5917 H   0  0  0  0  0  0  0  0  0  0  0  0
  131.3387  135.0320   73.2576 H   0  0  0  0  0  0  0  0  0  0  0  0
  130.0927  136.3099   73.5125 H   0  0  0  0  0  0  0  0  0  0  0  0
  129.3707  134.1098   74.4422 H   0  0  0  0  0  0  0  0  0  0  0  0
  128.3051  134.6805   73.0749 H   0  0  0  0  0  0  0  0  0  0  0  0
  125.6504  132.4931   75.5052 H   0  0  0  0  0  0  0  0  0  0  0  0
  124.1601  130.6758   76.3092 H   0  0  0  0  0  0  0  0  0  0  0  0
  124.5239  128.3347   75.5756 H   0  0  0  0  0  0  0  0  0  0  0  0
  126.3804  127.7646   74.0349 H   0  0  0  0  0  0  0  0  0  0  0  0
  1  2  1  0
  2  3  2  0
  3  4  1  0
  4  5  1  0
  5  6  1  0
  6  7  1  0
  7  8  1  0
  8  9  1  0
  8 10  1  0
 10 11  1  0
  4 12  2  0
 12 13  1  0
 13 14  2  0
 14 15  1  0
 15 16  2  0
 16 17  1  0
 17 18  2  0
 18  2  1  0
 11  5  1  0
 18 13  1  0
  1 19  1  0
  1 20  1  0
  1 21  1  0
  3 22  1  0
  6 23  1  0
  6 24  1  0
  7 25  1  0
  7 26  1  0
  9 27  1  0
  9 28  1  0
  9 29  1  0
 10 30  1  0
 10 31  1  0
 11 32  1  0
 11 33  1  0
 14 34  1  0
 15 35  1  0
 16 36  1  0
 17 37  1  0
M  END
>  <Binding energies>  (1) 
[-6.06]

>  <Ligand effiencies>  (1) 
[-0.33666666666666667]

>  <Interactions>  (1) 
["V-B:HIS:456:CG:9038, V-B:LYS:471:CE:9192, V-B:VAL:458:CG2:9059, V-B:HIS:456:CB:9037, V-B:HIS:456:C:9033, V-A:GLU:543:C:4900, V-B:HIS:456:CD2:9040, V-B:LYS:471:CD:9191, V-A:LYS:547:CE:4948, V-B:ASP:473:CG:9212, V-A:VAL:542:CG1:4897, V-B:TYR:484:CD1:9315, V-A:GLY:544:CA:4912, V-B:TYR:484:CB:9313, V-A:GLU:543:CA:4902, V-B:TYR:484:CG:9314, H-B:TYR:484:N:9312, V-A:VAL:542:C:4892, V-B:SER:483:CB:9305"]

$$$$
RR32_Rahimova_2017-again1
     RDKit          3D

 38 40  0  0  0  0  0  0  0  0999 V2000
  130.5090  119.8620   61.0180 C   0  0  0  0  0  0  0  0  0  0  0  0
  130.1760  121.2800   60.5750 C   0  0  0  0  0  0  0  0  0  0  0  0
  128.8610  121.7410   60.6220 C   0  0  0  0  0  0  0  0  0  0  0  0
  128.5590  123.0460   60.2180 C   0  0  0  0  0  0  0  0  0  0  0  0
  127.2450  123.5270   60.2470 N   0  0  0  0  0  0  0  0  0  0  0  0
  126.7430  124.2550   61.4300 C   0  0  0  0  0  0  0  0  0  0  0  0
  127.0610  125.7680   61.3760 C   0  0  0  0  0  0  0  0  0  0  0  0
  126.3770  126.3700   60.1330 N   0  0  0  0  0  0  0  0  0  0  0  0
  126.6760  127.8770   60.0200 C   0  0  0  0  0  0  0  0  0  0  0  0
  126.8770  125.6190   58.8820 C   0  0  0  0  0  0  0  0  0  0  0  0
  126.5840  124.1110   59.0610 C   0  0  0  0  0  0  0  0  0  0  0  0
  129.5240  123.8840   59.7480 N   0  0  0  0  0  0  0  0  0  0  0  0
  130.8160  123.4630   59.6930 C   0  0  0  0  0  0  0  0  0  0  0  0
  131.7960  124.3650   59.2130 C   0  0  0  0  0  0  0  0  0  0  0  0
  133.1310  123.9770   59.1430 C   0  0  0  0  0  0  0  0  0  0  0  0
  133.5180  122.7010   59.5410 C   0  0  0  0  0  0  0  0  0  0  0  0
  132.5770  121.7900   60.0150 C   0  0  0  0  0  0  0  0  0  0  0  0
  131.2040  122.1510   60.1030 C   0  0  0  0  0  0  0  0  0  0  0  0
  130.5202  119.8143   62.1169 H   0  0  0  0  0  0  0  0  0  0  0  0
  129.7493  119.1683   60.6286 H   0  0  0  0  0  0  0  0  0  0  0  0
  131.4981  119.5789   60.6286 H   0  0  0  0  0  0  0  0  0  0  0  0
  128.0592  121.0772   60.9775 H   0  0  0  0  0  0  0  0  0  0  0  0
  125.6520  124.1260   61.4864 H   0  0  0  0  0  0  0  0  0  0  0  0
  127.2467  123.8399   62.3154 H   0  0  0  0  0  0  0  0  0  0  0  0
  126.6798  126.2594   62.2833 H   0  0  0  0  0  0  0  0  0  0  0  0
  128.1487  125.9216   61.3179 H   0  0  0  0  0  0  0  0  0  0  0  0
  125.3810  126.2270   60.2150 H   0  0  0  0  0  0  0  0  0  0  0  0
  126.7620  128.3103   61.0274 H   0  0  0  0  0  0  0  0  0  0  0  0
  127.6207  128.0236   59.4760 H   0  0  0  0  0  0  0  0  0  0  0  0
  125.8588  128.3732   59.4760 H   0  0  0  0  0  0  0  0  0  0  0  0
  126.3536  125.9948   57.9905 H   0  0  0  0  0  0  0  0  0  0  0  0
  127.9579  125.7790   58.7549 H   0  0  0  0  0  0  0  0  0  0  0  0
  125.4972  123.9757   59.1642 H   0  0  0  0  0  0  0  0  0  0  0  0
  126.9823  123.5930   58.1761 H   0  0  0  0  0  0  0  0  0  0  0  0
  131.5015  125.3758   58.8943 H   0  0  0  0  0  0  0  0  0  0  0  0
  133.8860  124.6847   58.7701 H   0  0  0  0  0  0  0  0  0  0  0  0
  134.5768  122.4091   59.4807 H   0  0  0  0  0  0  0  0  0  0  0  0
  132.8980  120.7841   60.3235 H   0  0  0  0  0  0  0  0  0  0  0  0
  1  2  1  0
  2  3  2  0
  3  4  1  0
  4  5  1  0
  5  6  1  0
  6  7  1  0
  7  8  1  0
  8  9  1  0
  8 10  1  0
 10 11  1  0
  4 12  2  0
 12 13  1  0
 13 14  2  0
 14 15  1  0
 15 16  2  0
 16 17  1  0
 17 18  2  0
 18  2  1  0
 11  5  1  0
 18 13  1  0
  1 19  1  0
  1 20  1  0
  1 21  1  0
  3 22  1  0
  6 23  1  0
  6 24  1  0
  7 25  1  0
  7 26  1  0
  8 27  1  0
  9 28  1  0
  9 29  1  0
  9 30  1  0
 10 31  1  0
 10 32  1  0
 11 33  1  0
 11 34  1  0
 14 35  1  0
 15 36  1  0
 16 37  1  0
 17 38  1  0
M  CHG  1   8   1
M  END
>  <Binding energies>  (1) 
[-6.17]

>  <Ligand effiencies>  (1) 
[-0.32473684210526316]

>  <Interactions>  (1) 
["V-A:ASP:366:CG:3211, V-A:ILE:369:CB:3234, V-B:TYR:539:CE2:9848, V-A:ILE:369:CD1:3237, V-A:ILE:369:CG2:3235, V-B:GLU:543:CD:9880, V-B:ASP:366:CG:8185, V-B:PRO:540:C:9853, V-B:TYR:539:CD2:9846, V-B:PRO:540:CA:9855, V-B:ALA:541:CB:9864, H-B:ASP:366:OD1:8186, V-A:LEU:475:CD2:4257, V-B:TYR:539:C:9839, H-B:ASP:366:OD2:8187, V-A:TRP:381:CZ2:3368, V-A:PRO:482:CB:4324, V-A:TRP:381:CH2:3370, V-B:ALA:541:CA:9862"]

$$$$
RR32_Rahimova_2017-again2
     RDKit          3D

 39 41  0  0  0  0  0  0  0  0999 V2000
  128.7590  132.2620   57.5080 C   0  0  0  0  0  0  0  0  0  0  0  0
  128.8980  132.0480   59.0090 C   0  0  0  0  0  0  0  0  0  0  0  0
  127.7900  132.2110   59.8470 C   0  0  0  0  0  0  0  0  0  0  0  0
  127.9000  132.0250   61.2310 C   0  0  0  0  0  0  0  0  0  0  0  0
  126.7860  132.1650   62.1360 N   0  0  0  0  0  0  0  0  0  0  0  0
  125.8320  131.0450   62.3500 C   0  0  0  0  0  0  0  0  0  0  0  0
  126.3620  130.0720   63.4370 C   0  0  0  0  0  0  0  0  0  0  0  0
  126.5580  130.8400   64.7660 N   0  0  0  0  0  0  0  0  0  0  0  0
  127.1380  129.9180   65.8560 C   0  0  0  0  0  0  0  0  0  0  0  0
  127.4660  132.0720   64.5420 C   0  0  0  0  0  0  0  0  0  0  0  0
  126.8760  132.9410   63.3990 C   0  0  0  0  0  0  0  0  0  0  0  0
  129.1040  131.6760   61.7280 N   0  0  0  0  0  0  0  0  0  0  0  0
  130.2460  131.4930   60.9830 C   0  0  0  0  0  0  0  0  0  0  0  0
  131.4610  131.1280   61.6060 C   0  0  0  0  0  0  0  0  0  0  0  0
  132.5970  130.9480   60.8200 C   0  0  0  0  0  0  0  0  0  0  0  0
  132.5400  131.1240   59.4400 C   0  0  0  0  0  0  0  0  0  0  0  0
  131.3480  131.4850   58.8120 C   0  0  0  0  0  0  0  0  0  0  0  0
  130.1600  131.6810   59.5720 C   0  0  0  0  0  0  0  0  0  0  0  0
  128.1686  133.1710   57.3203 H   0  0  0  0  0  0  0  0  0  0  0  0
  129.7572  132.3741   57.0596 H   0  0  0  0  0  0  0  0  0  0  0  0
  128.2508  131.3956   57.0596 H   0  0  0  0  0  0  0  0  0  0  0  0
  126.8183  132.4892   59.4130 H   0  0  0  0  0  0  0  0  0  0  0  0
  124.8627  131.4531   62.6725 H   0  0  0  0  0  0  0  0  0  0  0  0
  125.7186  130.4921   61.4058 H   0  0  0  0  0  0  0  0  0  0  0  0
  125.6361  129.2592   63.5869 H   0  0  0  0  0  0  0  0  0  0  0  0
  127.3243  129.6492   63.1127 H   0  0  0  0  0  0  0  0  0  0  0  0
  125.6510  131.1760   65.0640 H   0  0  0  0  0  0  0  0  0  0  0  0
  126.8854  130.3196   66.8484 H   0  0  0  0  0  0  0  0  0  0  0  0
  126.7111  128.9099   65.7488 H   0  0  0  0  0  0  0  0  0  0  0  0
  128.2315  129.8664   65.7488 H   0  0  0  0  0  0  0  0  0  0  0  0
  127.5156  132.6653   65.4669 H   0  0  0  0  0  0  0  0  0  0  0  0
  128.4782  131.7397   64.2682 H   0  0  0  0  0  0  0  0  0  0  0  0
  125.8695  133.2792   63.6865 H   0  0  0  0  0  0  0  0  0  0  0  0
  127.5388  133.8035   63.2352 H   0  0  0  0  0  0  0  0  0  0  0  0
  129.1700  131.5320   62.7240 H   0  0  0  0  0  0  0  0  0  0  0  0
  131.5089  130.9880   62.6960 H   0  0  0  0  0  0  0  0  0  0  0  0
  133.5481  130.6641   61.2941 H   0  0  0  0  0  0  0  0  0  0  0  0
  133.4478  130.9763   58.8365 H   0  0  0  0  0  0  0  0  0  0  0  0
  131.3256  131.6194   57.7205 H   0  0  0  0  0  0  0  0  0  0  0  0
  1  2  1  0
  2  3  2  0
  3  4  1  0
  4  5  1  0
  5  6  1  0
  6  7  1  0
  7  8  1  0
  8  9  1  0
  8 10  1  0
 10 11  1  0
  4 12  2  0
 12 13  1  0
 13 14  2  0
 14 15  1  0
 15 16  2  0
 16 17  1  0
 17 18  2  0
 18  2  1  0
 11  5  1  0
 18 13  1  0
  1 19  1  0
  1 20  1  0
  1 21  1  0
  3 22  1  0
  6 23  1  0
  6 24  1  0
  7 25  1  0
  7 26  1  0
  8 27  1  0
  9 28  1  0
  9 29  1  0
  9 30  1  0
 10 31  1  0
 10 32  1  0
 11 33  1  0
 11 34  1  0
 12 35  1  0
 14 36  1  0
 15 37  1  0
 16 38  1  0
 17 39  1  0
M  CHG  2   8   1  12   1
M  END
>  <Binding energies>  (1) 
[-7.47]

>  <Ligand effiencies>  (1) 
[-0.3735]

>  <Interactions>  (1) 
["V-A:GLU:543:CD:4906, V-A:TYR:539:CE2:4874, V-A:TYR:539:CD2:4872, V-B:LEU:475:CD2:9231, V-A:ALA:541:CB:4890, H-B:TYR:484:OH:9320, V-A:TYR:539:C:4865, H-A:GLU:543:OE1:4907, V-A:GLU:543:CB:4904, V-A:TYR:539:CZ:4875, V-A:PRO:540:CA:4881, V-B:HIS:456:CE1:9042, V-A:ASN:362:CB:3174, V-A:PRO:540:CB:4883, V-B:TYR:484:CE1:9317, V-B:TYR:484:CZ:9319, V-A:GLU:543:CG:4905, V-A:TYR:539:CG:4870, V-A:PRO:540:N:4882, V-A:TYR:539:CD1:4871"]

$$$$
RR33_Rahimova_2017
     RDKit          3D

 36 37  0  0  0  0  0  0  0  0999 V2000
  130.6130  125.8370   66.0230 C   0  0  0  0  0  0  0  0  0  0  0  0
  129.9170  126.9080   66.8690 C   0  0  0  0  0  0  0  0  0  0  0  0
  130.5310  126.9470   68.1540 O   0  0  0  0  0  0  0  0  0  0  0  0
  129.7790  127.3160   69.2530 C   0  0  0  0  0  0  0  0  0  0  0  0
  130.4870  127.6390   70.4100 C   0  0  0  0  0  0  0  0  0  0  0  0
  129.8160  128.0200   71.5690 C   0  0  0  0  0  0  0  0  0  0  0  0
  128.4190  128.0830   71.5860 C   0  0  0  0  0  0  0  0  0  0  0  0
  127.6990  128.4910   72.8310 C   0  0  0  0  0  0  0  0  0  0  0  0
  126.8640  127.7720   73.5480 N   0  0  0  0  0  0  0  0  0  0  0  0
  126.4920  128.5590   74.5450 C   0  0  0  0  0  0  0  0  0  0  0  0
  125.5270  128.0690   75.6040 C   0  0  0  0  0  0  0  0  0  0  0  0
  124.3680  127.4380   74.9900 N   0  0  0  0  0  0  0  0  0  0  0  0
  123.9860  128.1390   73.7750 C   0  0  0  0  0  0  0  0  0  0  0  0
  127.1210  129.7920   74.4270 C   0  0  0  0  0  0  0  0  0  0  0  0
  127.1230  131.0770   75.2190 C   0  0  0  0  0  0  0  0  0  0  0  0
  127.8980  129.7430   73.3200 O   0  0  0  0  0  0  0  0  0  0  0  0
  127.7050  127.7640   70.4270 C   0  0  0  0  0  0  0  0  0  0  0  0
  128.3770  127.3820   69.2680 C   0  0  0  0  0  0  0  0  0  0  0  0
  131.0916  125.1005   66.6852 H   0  0  0  0  0  0  0  0  0  0  0  0
  129.8705  125.3314   65.3882 H   0  0  0  0  0  0  0  0  0  0  0  0
  131.3766  126.3102   65.3882 H   0  0  0  0  0  0  0  0  0  0  0  0
  130.0181  127.8885   66.3808 H   0  0  0  0  0  0  0  0  0  0  0  0
  128.8485  126.6678   66.9719 H   0  0  0  0  0  0  0  0  0  0  0  0
  131.5860  127.5924   70.4071 H   0  0  0  0  0  0  0  0  0  0  0  0
  130.3869  128.2724   72.4747 H   0  0  0  0  0  0  0  0  0  0  0  0
  126.0378  127.3378   76.2477 H   0  0  0  0  0  0  0  0  0  0  0  0
  125.1878  128.9295   76.1994 H   0  0  0  0  0  0  0  0  0  0  0  0
  123.5940  127.4610   75.6390 H   0  0  0  0  0  0  0  0  0  0  0  0
  123.4749  129.0769   74.0381 H   0  0  0  0  0  0  0  0  0  0  0  0
  124.8857  128.3650   73.1838 H   0  0  0  0  0  0  0  0  0  0  0  0
  123.3084  127.5055   73.1838 H   0  0  0  0  0  0  0  0  0  0  0  0
  127.1226  130.8450   76.2943 H   0  0  0  0  0  0  0  0  0  0  0  0
  128.0221  131.6598   74.9700 H   0  0  0  0  0  0  0  0  0  0  0  0
  126.2258  131.6626   74.9700 H   0  0  0  0  0  0  0  0  0  0  0  0
  126.6062  127.8150   70.4303 H   0  0  0  0  0  0  0  0  0  0  0  0
  127.8068  127.1312   68.3614 H   0  0  0  0  0  0  0  0  0  0  0  0
  1  2  1  0
  2  3  1  0
  3  4  1  0
  4  5  2  0
  5  6  1  0
  6  7  2  0
  7  8  1  0
  8  9  2  0
  9 10  1  0
 10 11  1  0
 11 12  1  0
 12 13  1  0
 10 14  2  0
 14 15  1  0
 14 16  1  0
  7 17  1  0
 17 18  2  0
 18  4  1  0
 16  8  1  0
  1 19  1  0
  1 20  1  0
  1 21  1  0
  2 22  1  0
  2 23  1  0
  5 24  1  0
  6 25  1  0
 11 26  1  0
 11 27  1  0
 12 28  1  0
 13 29  1  0
 13 30  1  0
 13 31  1  0
 15 32  1  0
 15 33  1  0
 15 34  1  0
 17 35  1  0
 18 36  1  0
M  END
>  <Binding energies>  (1) 
[-5.5]

>  <Ligand effiencies>  (1) 
[-0.2894736842105263]

>  <Interactions>  (1) 
["V-A:GLU:543:CD:4906, V-B:GLU:543:CG:9879, V-A:HIS:456:CE1:4068, V-B:GLU:543:CD:9880, V-B:GLU:543:CB:9878, V-B:LYS:547:CE:9922, V-B:GLU:543:C:9874, V-B:LYS:547:CG:9920, V-B:HIS:456:CE1:9042, V-A:GLU:543:CG:4905, V-B:HIS:456:CG:9038, V-B:LYS:471:CE:9192, V-B:VAL:457:C:9045, V-B:VAL:458:CG2:9059, H-A:LYS:547:NZ:4949, V-B:HIS:456:CB:9037, V-A:GLY:544:C:4910, V-B:HIS:456:CA:9035, V-B:HIS:456:C:9033, V-A:GLU:543:C:4900, V-B:HIS:456:CD2:9040, V-B:GLY:544:C:9884, V-A:GLY:544:CA:4912, V-B:LYS:547:CD:9921, V-B:ARG:545:C:9889, V-B:ARG:545:CA:9891, H-B:VAL:457:O:9046"]

$$$$
RR33_Rahimova_2017-again1
     RDKit          3D

 37 38  0  0  0  0  0  0  0  0999 V2000
  125.4730  127.9210   75.2820 C   0  0  0  0  0  0  0  0  0  0  0  0
  126.8030  128.6550   75.4760 C   0  0  0  0  0  0  0  0  0  0  0  0
  127.8660  127.7880   75.0960 O   0  0  0  0  0  0  0  0  0  0  0  0
  128.2310  127.7030   73.7650 C   0  0  0  0  0  0  0  0  0  0  0  0
  127.3040  128.1730   72.8350 C   0  0  0  0  0  0  0  0  0  0  0  0
  127.5820  128.1310   71.4720 C   0  0  0  0  0  0  0  0  0  0  0  0
  128.7980  127.6120   71.0170 C   0  0  0  0  0  0  0  0  0  0  0  0
  129.1010  127.5640   69.5540 C   0  0  0  0  0  0  0  0  0  0  0  0
  130.1510  127.0310   68.9680 N   0  0  0  0  0  0  0  0  0  0  0  0
  129.9730  127.2340   67.6720 C   0  0  0  0  0  0  0  0  0  0  0  0
  130.9960  126.7640   66.6560 C   0  0  0  0  0  0  0  0  0  0  0  0
  130.2640  126.2480   65.4060 N   0  0  0  0  0  0  0  0  0  0  0  0
  130.8800  124.9720   64.8160 C   0  0  0  0  0  0  0  0  0  0  0  0
  128.7810  127.9200   67.4690 C   0  0  0  0  0  0  0  0  0  0  0  0
  128.0330  128.4420   66.2680 C   0  0  0  0  0  0  0  0  0  0  0  0
  128.2230  128.1270   68.6850 O   0  0  0  0  0  0  0  0  0  0  0  0
  129.7310  127.1390   71.9470 C   0  0  0  0  0  0  0  0  0  0  0  0
  129.4520  127.1830   73.3100 C   0  0  0  0  0  0  0  0  0  0  0  0
  125.0395  127.6818   76.2643 H   0  0  0  0  0  0  0  0  0  0  0  0
  124.7781  128.5633   74.7212 H   0  0  0  0  0  0  0  0  0  0  0  0
  125.6460  126.9907   74.7212 H   0  0  0  0  0  0  0  0  0  0  0  0
  126.8212  129.5587   74.8492 H   0  0  0  0  0  0  0  0  0  0  0  0
  126.9180  128.9470   76.5303 H   0  0  0  0  0  0  0  0  0  0  0  0
  126.3434  128.5810   73.1824 H   0  0  0  0  0  0  0  0  0  0  0  0
  126.8424  128.5075   70.7500 H   0  0  0  0  0  0  0  0  0  0  0  0
  131.6519  127.6025   66.3788 H   0  0  0  0  0  0  0  0  0  0  0  0
  131.6040  125.9561   67.0891 H   0  0  0  0  0  0  0  0  0  0  0  0
  129.3000  126.0680   65.6440 H   0  0  0  0  0  0  0  0  0  0  0  0
  130.2800  126.9740   64.7020 H   0  0  0  0  0  0  0  0  0  0  0  0
  131.2005  124.3082   65.6325 H   0  0  0  0  0  0  0  0  0  0  0  0
  130.1317  124.4562   64.1963 H   0  0  0  0  0  0  0  0  0  0  0  0
  131.7493  125.2371   64.1963 H   0  0  0  0  0  0  0  0  0  0  0  0
  127.1739  129.0416   66.6033 H   0  0  0  0  0  0  0  0  0  0  0  0
  128.7038  129.0691   65.6624 H   0  0  0  0  0  0  0  0  0  0  0  0
  127.6758  127.5961   65.6624 H   0  0  0  0  0  0  0  0  0  0  0  0
  130.6908  126.7299   71.5986 H   0  0  0  0  0  0  0  0  0  0  0  0
  130.1916  126.8087   74.0331 H   0  0  0  0  0  0  0  0  0  0  0  0
  1  2  1  0
  2  3  1  0
  3  4  1  0
  4  5  2  0
  5  6  1  0
  6  7  2  0
  7  8  1  0
  8  9  2  0
  9 10  1  0
 10 11  1  0
 11 12  1  0
 12 13  1  0
 10 14  2  0
 14 15  1  0
 14 16  1  0
  7 17  1  0
 17 18  2  0
 18  4  1  0
 16  8  1  0
  1 19  1  0
  1 20  1  0
  1 21  1  0
  2 22  1  0
  2 23  1  0
  5 24  1  0
  6 25  1  0
 11 26  1  0
 11 27  1  0
 12 28  1  0
 12 29  1  0
 13 30  1  0
 13 31  1  0
 13 32  1  0
 15 33  1  0
 15 34  1  0
 15 35  1  0
 17 36  1  0
 18 37  1  0
M  CHG  1  12   1
M  END
>  <Binding energies>  (1) 
[-6.63]

>  <Ligand effiencies>  (1) 
[-0.3315]

>  <Interactions>  (1) 
["V-A:GLU:543:CD:4906, V-B:GLU:543:CG:9879, V-A:HIS:456:CE1:4068, V-A:ARG:545:CG:4920, V-B:GLU:543:CD:9880, V-B:GLU:543:CB:9878, V-B:LYS:547:CE:9922, V-B:LYS:547:CG:9920, H-B:GLU:543:OE1:9881, H-A:GLU:543:OE1:4907, H-A:GLU:543:OE2:4908, V-A:GLU:543:CB:4904, H-B:GLU:543:OE2:9882, V-B:HIS:456:CE1:9042, V-A:GLU:543:CG:4905, V-B:HIS:456:CG:9038, H-B:LYS:547:NZ:9923, V-B:VAL:458:CG2:9059, H-A:LYS:547:NZ:4949, V-B:HIS:456:CD2:9040, V-B:GLY:544:C:9884, V-A:LYS:547:CE:4948, V-B:LYS:547:CD:9921"]

$$$$
RR3_Rahimova_2017
     RDKit          3D

 63 69  0  0  0  0  0  0  0  0999 V2000
  133.6250  123.3880   61.6150 C   0  0  0  0  0  0  0  0  0  0  0  0
  132.4470  122.8290   62.1010 C   0  0  0  0  0  0  0  0  0  0  0  0
  131.8110  123.4060   63.1960 C   0  0  0  0  0  0  0  0  0  0  0  0
  132.3410  124.5460   63.8180 C   0  0  0  0  0  0  0  0  0  0  0  0
  131.6540  125.1670   64.9950 C   0  0  0  0  0  0  0  0  0  0  0  0
  132.1170  126.3690   65.5480 C   0  0  0  0  0  0  0  0  0  0  0  0
  131.4800  126.9430   66.6440 C   0  0  0  0  0  0  0  0  0  0  0  0
  130.3680  126.3230   67.2200 C   0  0  0  0  0  0  0  0  0  0  0  0
  129.6820  126.9320   68.4020 C   0  0  0  0  0  0  0  0  0  0  0  0
  130.0780  126.6230   69.6320 N   0  0  0  0  0  0  0  0  0  0  0  0
  129.3390  127.3300   70.4520 C   0  0  0  0  0  0  0  0  0  0  0  0
  129.4360  127.3020   71.9090 C   0  0  0  0  0  0  0  0  0  0  0  0
  128.4690  127.7480   72.7950 C   0  0  0  0  0  0  0  0  0  0  0  0
  128.8890  127.5630   74.0860 N   0  0  0  0  0  0  0  0  0  0  0  0
  130.1430  126.9930   74.0940 C   0  0  0  0  0  0  0  0  0  0  0  0
  130.9710  126.6230   75.1600 C   0  0  0  0  0  0  0  0  0  0  0  0
  132.2060  126.0620   74.8360 C   0  0  0  0  0  0  0  0  0  0  0  0
  132.6050  125.8760   73.5170 C   0  0  0  0  0  0  0  0  0  0  0  0
  131.7800  126.2450   72.4550 C   0  0  0  0  0  0  0  0  0  0  0  0
  130.5230  126.8160   72.7270 C   0  0  0  0  0  0  0  0  0  0  0  0
  128.4460  128.1040   69.7630 N   0  0  0  0  0  0  0  0  0  0  0  0
  128.6230  127.8550   68.4260 C   0  0  0  0  0  0  0  0  0  0  0  0
  127.7770  128.4810   67.3670 C   0  0  0  0  0  0  0  0  0  0  0  0
  128.2160  129.6300   66.7080 C   0  0  0  0  0  0  0  0  0  0  0  0
  127.4250  130.2240   65.7290 C   0  0  0  0  0  0  0  0  0  0  0  0
  126.1790  129.6810   65.3820 C   0  0  0  0  0  0  0  0  0  0  0  0
  125.3230  130.3330   64.3430 C   0  0  0  0  0  0  0  0  0  0  0  0
  124.1620  129.7020   63.8690 C   0  0  0  0  0  0  0  0  0  0  0  0
  123.3620  130.3120   62.9040 C   0  0  0  0  0  0  0  0  0  0  0  0
  123.7160  131.5610   62.4040 C   0  0  0  0  0  0  0  0  0  0  0  0
  124.8610  132.2040   62.8610 C   0  0  0  0  0  0  0  0  0  0  0  0
  125.6590  131.5920   63.8240 C   0  0  0  0  0  0  0  0  0  0  0  0
  125.7580  128.5170   66.0390 C   0  0  0  0  0  0  0  0  0  0  0  0
  126.5460  127.9200   67.0190 C   0  0  0  0  0  0  0  0  0  0  0  0
  129.8920  125.1320   66.6680 C   0  0  0  0  0  0  0  0  0  0  0  0
  130.5300  124.5590   65.5710 C   0  0  0  0  0  0  0  0  0  0  0  0
  133.5290  125.0920   63.3110 C   0  0  0  0  0  0  0  0  0  0  0  0
  134.1690  124.5180   62.2160 C   0  0  0  0  0  0  0  0  0  0  0  0
  134.1293  122.9331   60.7497 H   0  0  0  0  0  0  0  0  0  0  0  0
  132.0206  121.9353   61.6219 H   0  0  0  0  0  0  0  0  0  0  0  0
  130.8802  122.9622   63.5789 H   0  0  0  0  0  0  0  0  0  0  0  0
  132.9955  126.8651   65.1098 H   0  0  0  0  0  0  0  0  0  0  0  0
  131.8540  127.8904   67.0594 H   0  0  0  0  0  0  0  0  0  0  0  0
  127.5034  128.1873   72.5041 H   0  0  0  0  0  0  0  0  0  0  0  0
  128.3250  127.8210   74.8820 H   0  0  0  0  0  0  0  0  0  0  0  0
  130.6618  126.7681   76.2056 H   0  0  0  0  0  0  0  0  0  0  0  0
  132.8839  125.7579   75.6471 H   0  0  0  0  0  0  0  0  0  0  0  0
  133.5885  125.4300   73.3077 H   0  0  0  0  0  0  0  0  0  0  0  0
  132.1081  126.0914   71.4164 H   0  0  0  0  0  0  0  0  0  0  0  0
  127.7600  128.7240   70.1670 H   0  0  0  0  0  0  0  0  0  0  0  0
  129.1920  130.0684   66.9635 H   0  0  0  0  0  0  0  0  0  0  0  0
  127.7818  131.1317   65.2203 H   0  0  0  0  0  0  0  0  0  0  0  0
  123.8802  128.7147   64.2637 H   0  0  0  0  0  0  0  0  0  0  0  0
  122.4548  129.8079   62.5395 H   0  0  0  0  0  0  0  0  0  0  0  0
  123.0859  132.0431   61.6421 H   0  0  0  0  0  0  0  0  0  0  0  0
  125.1353  133.1922   62.4633 H   0  0  0  0  0  0  0  0  0  0  0  0
  126.5649  132.1026   64.1825 H   0  0  0  0  0  0  0  0  0  0  0  0
  124.7890  128.0677   65.7760 H   0  0  0  0  0  0  0  0  0  0  0  0
  126.1986  127.0046   67.5204 H   0  0  0  0  0  0  0  0  0  0  0  0
  129.0074  124.6434   67.1025 H   0  0  0  0  0  0  0  0  0  0  0  0
  130.1471  123.6172   65.1510 H   0  0  0  0  0  0  0  0  0  0  0  0
  133.9610  125.9858   63.7848 H   0  0  0  0  0  0  0  0  0  0  0  0
  135.1004  124.9561   61.8281 H   0  0  0  0  0  0  0  0  0  0  0  0
  1  2  2  0
  2  3  1  0
  3  4  2  0
  4  5  1  0
  5  6  2  0
  6  7  1  0
  7  8  2  0
  8  9  1  0
  9 10  1  0
 10 11  2  0
 11 12  1  0
 12 13  2  0
 13 14  1  0
 14 15  1  0
 15 16  2  0
 16 17  1  0
 17 18  2  0
 18 19  1  0
 19 20  2  0
 11 21  1  0
 21 22  1  0
 22 23  1  0
 23 24  2  0
 24 25  1  0
 25 26  2  0
 26 27  1  0
 27 28  2  0
 28 29  1  0
 29 30  2  0
 30 31  1  0
 31 32  2  0
 26 33  1  0
 33 34  2  0
  8 35  1  0
 35 36  2  0
  4 37  1  0
 37 38  2  0
 38  1  1  0
 36  5  1  0
 22  9  2  0
 34 23  1  0
 20 12  1  0
 32 27  1  0
 20 15  1  0
  1 39  1  0
  2 40  1  0
  3 41  1  0
  6 42  1  0
  7 43  1  0
 13 44  1  0
 14 45  1  0
 16 46  1  0
 17 47  1  0
 18 48  1  0
 19 49  1  0
 21 50  1  0
 24 51  1  0
 25 52  1  0
 28 53  1  0
 29 54  1  0
 30 55  1  0
 31 56  1  0
 32 57  1  0
 33 58  1  0
 34 59  1  0
 35 60  1  0
 36 61  1  0
 37 62  1  0
 38 63  1  0
M  END
>  <Binding energies>  (1) 
[-6.09]

>  <Ligand effiencies>  (1) 
[-0.15225]

>  <Interactions>  (1) 
["V-A:GLU:543:CD:4906, V-B:GLU:543:CG:9879, V-A:HIS:456:CE1:4068, V-A:ARG:545:CD:4921, V-A:GLY:453:CA:4042, V-A:ILE:369:CD1:3237, V-A:ARG:545:CG:4920, V-B:GLU:543:CD:9880, V-B:GLU:543:CB:9878, V-A:ARG:545:CZ:4924, V-A:HIS:456:CD2:4066, V-B:GLU:543:CA:9876, V-B:LYS:547:CE:9922, V-B:GLU:543:C:9874, V-B:GLY:454:CA:9021, V-A:TYR:484:CZ:4345, V-A:LEU:475:CD2:4257, V-B:LEU:475:CD2:9231, V-B:ARG:545:CZ:9898, V-A:GLU:543:CB:4904, V-B:ILE:369:CD1:8211, V-B:HIS:456:CE1:9042, V-B:TYR:484:CE1:9317, V-B:TYR:484:CZ:9319, V-B:ARG:545:CG:9894, V-A:GLU:543:CG:4905, V-A:TYR:484:CE1:4343, V-A:GLY:544:C:4910, V-A:GLU:543:C:4900, V-B:HIS:456:CD2:9040, V-A:HIS:456:CB:4063, V-A:LYS:547:CE:4948, V-A:HIS:456:CG:4064, V-A:VAL:458:CG2:4085, H-B:HIS:456:NE2:9043, H-A:GLU:543:O:4901, V-A:LYS:547:CD:4947, V-B:GLY:453:CA:9016, V-B:GLY:453:C:9014, V-B:ARG:545:CD:9895, V-A:GLY:453:C:4040, V-A:GLU:543:CA:4902"]

$$$$
RR4_Rahimova_2017
     RDKit          3D

 66 70  0  0  0  0  0  0  0  0999 V2000
  132.7500  123.1670   63.5930 C   0  0  0  0  0  0  0  0  0  0  0  0
  132.9530  124.5630   63.4020 O   0  0  0  0  0  0  0  0  0  0  0  0
  132.0090  125.2920   62.7050 C   0  0  0  0  0  0  0  0  0  0  0  0
  130.7930  125.5170   63.3480 C   0  0  0  0  0  0  0  0  0  0  0  0
  129.7840  126.2430   62.7230 C   0  0  0  0  0  0  0  0  0  0  0  0
  129.9590  126.7640   61.4330 C   0  0  0  0  0  0  0  0  0  0  0  0
  128.8670  127.5460   60.7610 C   0  0  0  0  0  0  0  0  0  0  0  0
  128.5850  128.8790   61.0770 C   0  0  0  0  0  0  0  0  0  0  0  0
  127.5580  129.5670   60.4190 C   0  0  0  0  0  0  0  0  0  0  0  0
  127.3340  130.9970   60.7880 C   0  0  0  0  0  0  0  0  0  0  0  0
  127.8860  132.0180   60.0090 C   0  0  0  0  0  0  0  0  0  0  0  0
  127.6720  133.3540   60.3400 C   0  0  0  0  0  0  0  0  0  0  0  0
  126.8990  133.6950   61.4500 C   0  0  0  0  0  0  0  0  0  0  0  0
  126.7410  135.0440   61.7000 O   0  0  0  0  0  0  0  0  0  0  0  0
  127.5230  135.9830   60.9680 C   0  0  0  0  0  0  0  0  0  0  0  0
  126.3390  132.6730   62.2310 C   0  0  0  0  0  0  0  0  0  0  0  0
  126.5530  131.3380   61.8980 C   0  0  0  0  0  0  0  0  0  0  0  0
  126.7940  128.8730   59.4490 C   0  0  0  0  0  0  0  0  0  0  0  0
  125.7080  129.5450   58.7290 C   0  0  0  0  0  0  0  0  0  0  0  0
  124.8510  130.0760   58.1620 N   0  0  0  0  0  0  0  0  0  0  0  0
  127.1130  127.5180   59.2010 C   0  0  0  0  0  0  0  0  0  0  0  0
  126.2540  126.4900   58.0280 S   0  0  0  0  0  0  0  0  0  0  0  0
  125.6420  125.0210   58.9200 C   0  0  0  0  0  0  0  0  0  0  0  0
  126.7270  124.2280   59.6610 C   0  0  0  0  0  0  0  0  0  0  0  0
  126.4800  123.6880   60.7420 O   0  0  0  0  0  0  0  0  0  0  0  0
  127.9300  124.1980   59.0410 N   0  0  0  0  0  0  0  0  0  0  0  0
  129.1040  123.5650   59.4550 C   0  0  0  0  0  0  0  0  0  0  0  0
  129.1170  122.2160   60.5600 S   0  0  0  0  0  0  0  0  0  0  0  0
  130.8490  122.1110   60.5000 C   0  0  0  0  0  0  0  0  0  0  0  0
  131.3970  123.0900   59.6560 C   0  0  0  0  0  0  0  0  0  0  0  0
  130.4060  123.9020   59.0530 C   0  0  0  0  0  0  0  0  0  0  0  0
  130.7110  124.9810   58.1180 C   0  0  0  0  0  0  0  0  0  0  0  0
  130.9530  125.8370   57.3780 N   0  0  0  0  0  0  0  0  0  0  0  0
  132.9070  123.1800   59.4060 C   0  0  0  0  0  0  0  0  0  0  0  0
  133.6120  121.8770   59.8480 C   0  0  0  0  0  0  0  0  0  0  0  0
  133.1340  121.4000   61.2310 C   0  0  0  0  0  0  0  0  0  0  0  0
  131.6360  121.0300   61.2310 C   0  0  0  0  0  0  0  0  0  0  0  0
  128.1330  126.8860   59.8280 N   0  0  0  0  0  0  0  0  0  0  0  0
  131.1880  126.5350   60.7950 C   0  0  0  0  0  0  0  0  0  0  0  0
  132.2000  125.8100   61.4170 C   0  0  0  0  0  0  0  0  0  0  0  0
  132.7177  122.9451   64.6699 H   0  0  0  0  0  0  0  0  0  0  0  0
  131.7989  122.8678   63.1283 H   0  0  0  0  0  0  0  0  0  0  0  0
  133.5765  122.6093   63.1283 H   0  0  0  0  0  0  0  0  0  0  0  0
  130.6295  125.1167   64.3594 H   0  0  0  0  0  0  0  0  0  0  0  0
  128.8330  126.4111   63.2497 H   0  0  0  0  0  0  0  0  0  0  0  0
  129.1758  129.3921   61.8501 H   0  0  0  0  0  0  0  0  0  0  0  0
  128.4939  131.7645   59.1280 H   0  0  0  0  0  0  0  0  0  0  0  0
  128.1164  134.1471   59.7207 H   0  0  0  0  0  0  0  0  0  0  0  0
  128.0653  136.6342   61.6693 H   0  0  0  0  0  0  0  0  0  0  0  0
  128.2439  135.4452   60.3347 H   0  0  0  0  0  0  0  0  0  0  0  0
  126.8636  136.5947   60.3347 H   0  0  0  0  0  0  0  0  0  0  0  0
  125.7284  132.9273   63.1099 H   0  0  0  0  0  0  0  0  0  0  0  0
  126.1041  130.5442   62.5131 H   0  0  0  0  0  0  0  0  0  0  0  0
  124.8955  125.3528   59.6567 H   0  0  0  0  0  0  0  0  0  0  0  0
  125.2249  124.3446   58.1594 H   0  0  0  0  0  0  0  0  0  0  0  0
  127.9960  124.6830   58.1590 H   0  0  0  0  0  0  0  0  0  0  0  0
  133.0865  123.3416   58.3328 H   0  0  0  0  0  0  0  0  0  0  0  0
  133.3133  124.0182   59.9911 H   0  0  0  0  0  0  0  0  0  0  0  0
  133.3996  121.0906   59.1088 H   0  0  0  0  0  0  0  0  0  0  0  0
  134.6907  122.0816   59.9147 H   0  0  0  0  0  0  0  0  0  0  0  0
  133.7181  120.5146   61.5223 H   0  0  0  0  0  0  0  0  0  0  0  0
  133.2792  122.2257   61.9432 H   0  0  0  0  0  0  0  0  0  0  0  0
  131.4960  120.0655   60.7210 H   0  0  0  0  0  0  0  0  0  0  0  0
  131.2766  120.9505   62.2676 H   0  0  0  0  0  0  0  0  0  0  0  0
  131.3544  126.9361   59.7844 H   0  0  0  0  0  0  0  0  0  0  0  0
  133.1539  125.6428   60.8954 H   0  0  0  0  0  0  0  0  0  0  0  0
  1  2  1  0
  2  3  1  0
  3  4  2  0
  4  5  1  0
  5  6  2  0
  6  7  1  0
  7  8  2  0
  8  9  1  0
  9 10  1  0
 10 11  2  0
 11 12  1  0
 12 13  2  0
 13 14  1  0
 14 15  1  0
 13 16  1  0
 16 17  2  0
  9 18  2  0
 18 19  1  0
 19 20  3  0
 18 21  1  0
 21 22  1  0
 22 23  1  0
 23 24  1  0
 24 25  2  0
 24 26  1  0
 26 27  1  0
 27 28  1  0
 28 29  1  0
 29 30  2  0
 30 31  1  0
 31 32  1  0
 32 33  3  0
 30 34  1  0
 34 35  1  0
 35 36  1  0
 36 37  1  0
 21 38  2  0
  6 39  1  0
 39 40  2  0
 40  3  1  0
 38  7  1  0
 17 10  1  0
 31 27  2  0
 37 29  1  0
  1 41  1  0
  1 42  1  0
  1 43  1  0
  4 44  1  0
  5 45  1  0
  8 46  1  0
 11 47  1  0
 12 48  1  0
 15 49  1  0
 15 50  1  0
 15 51  1  0
 16 52  1  0
 17 53  1  0
 23 54  1  0
 23 55  1  0
 26 56  1  0
 34 57  1  0
 34 58  1  0
 35 59  1  0
 35 60  1  0
 36 61  1  0
 36 62  1  0
 37 63  1  0
 37 64  1  0
 39 65  1  0
 40 66  1  0
M  END
>  <Binding energies>  (1) 
[-7.2]

>  <Ligand effiencies>  (1) 
[-0.175609756097561]

>  <Interactions>  (1) 
["H-A:GLY:454:N:4048, V-A:ASP:366:CG:3211, V-A:ILE:369:CB:3234, V-B:TYR:539:CE2:9848, V-A:ILE:369:CD1:3237, V-A:ILE:369:CG2:3235, V-B:GLU:543:CD:9880, V-A:ARG:545:CZ:4924, V-A:GLY:454:CA:4047, V-B:ASP:366:CB:8184, V-B:ASP:366:CG:8185, V-B:TYR:539:CD2:9846, V-B:PRO:540:CA:9855, H-B:ALA:541:N:9863, V-B:ALA:541:CB:9864, V-A:TYR:539:CE2:4874, H-B:TYR:531:OH:9767, V-A:TYR:539:CD2:4872, V-A:TYR:484:CZ:4345, V-A:LEU:475:CD2:4257, V-B:LEU:475:CD2:9231, V-A:ALA:541:CB:4890, H-A:TYR:484:OH:4346, V-B:PRO:482:CG:9299, V-B:PRO:482:CB:9298, V-B:TRP:381:CZ2:8342, V-B:TRP:381:CH2:8344, H-A:TYR:539:OH:4876"]

$$$$
RR5_Rahimova_2017
     RDKit          3D

 77 82  0  0  0  0  0  0  0  0999 V2000
  128.7290  123.4820   59.6560 O   0  0  0  0  0  0  0  0  0  0  0  0
  128.5940  123.6660   60.8650 C   0  0  0  0  0  0  0  0  0  0  0  0
  127.1960  123.5510   61.5020 C   0  0  0  0  0  0  0  0  0  0  0  0
  126.0490  124.2030   60.6500 C   0  0  2  0  0  0  0  0  0  0  0  0
  126.2850  125.6070   60.2590 N   0  0  0  0  0  0  0  0  0  0  0  0
  127.0350  126.4670   61.0500 C   0  0  0  0  0  0  0  0  0  0  0  0
  127.6150  126.1820   62.1010 O   0  0  0  0  0  0  0  0  0  0  0  0
  127.0180  127.6860   60.4850 O   0  0  0  0  0  0  0  0  0  0  0  0
  125.9820  128.6220   60.7690 C   0  0  0  0  0  0  0  0  0  0  0  0
  126.4790  129.7120   61.7450 C   0  0  0  0  0  0  0  0  0  0  0  0
  127.7240  130.4360   61.2650 C   0  0  0  0  0  0  0  0  0  0  0  0
  128.9820  129.9210   60.9360 C   0  0  0  0  0  0  0  0  0  0  0  0
  129.9890  130.7790   60.4900 C   0  0  0  0  0  0  0  0  0  0  0  0
  129.7430  132.1480   60.3730 C   0  0  0  0  0  0  0  0  0  0  0  0
  128.4890  132.6650   60.7040 C   0  0  0  0  0  0  0  0  0  0  0  0
  127.4840  131.8060   61.1500 C   0  0  0  0  0  0  0  0  0  0  0  0
  126.0980  132.0720   61.5680 C   0  0  0  0  0  0  0  0  0  0  0  0
  125.3760  133.2650   61.6500 C   0  0  0  0  0  0  0  0  0  0  0  0
  124.0580  133.2430   62.1080 C   0  0  0  0  0  0  0  0  0  0  0  0
  123.4640  132.0340   62.4780 C   0  0  0  0  0  0  0  0  0  0  0  0
  124.1880  130.8450   62.3900 C   0  0  0  0  0  0  0  0  0  0  0  0
  125.5070  130.8610   61.9300 C   0  0  0  0  0  0  0  0  0  0  0  0
  124.6880  124.0860   61.3790 C   0  0  0  0  0  0  0  0  0  0  0  0
  124.5530  123.7910   62.5490 O   0  0  0  0  0  0  0  0  0  0  0  0
  123.6760  124.3850   60.5120 O   0  0  0  0  0  0  0  0  0  0  0  0
  129.6030  123.9400   61.7220 N   0  0  0  0  0  0  0  0  0  0  0  0
  131.0740  124.1320   61.5480 C   0  0  0  0  0  0  0  0  0  0  0  0
  131.1320  125.2190   60.4230 C   0  0  0  0  0  0  0  0  0  0  0  0
  131.5200  124.8970   59.1120 C   0  0  0  0  0  0  0  0  0  0  0  0
  131.5660  125.8710   58.1180 C   0  0  0  0  0  0  0  0  0  0  0  0
  131.2350  127.1870   58.4220 C   0  0  0  0  0  0  0  0  0  0  0  0
  130.8450  127.5340   59.7100 C   0  0  0  0  0  0  0  0  0  0  0  0
  130.7890  126.5580   60.7000 C   0  0  0  0  0  0  0  0  0  0  0  0
  131.6410  124.6490   62.9130 C   0  0  0  0  0  0  0  0  0  0  0  0
  130.7990  125.1310   63.9280 C   0  0  0  0  0  0  0  0  0  0  0  0
  131.3270  125.6040   65.1270 C   0  0  0  0  0  0  0  0  0  0  0  0
  132.7040  125.6030   65.3250 C   0  0  0  0  0  0  0  0  0  0  0  0
  133.5590  125.1270   64.3360 C   0  0  0  0  0  0  0  0  0  0  0  0
  133.0290  124.6470   63.1430 C   0  0  0  0  0  0  0  0  0  0  0  0
  131.6420  122.7480   61.0870 C   0  0  0  0  0  0  0  0  0  0  0  0
  130.8090  121.6180   60.9950 C   0  0  0  0  0  0  0  0  0  0  0  0
  131.3090  120.3830   60.5930 C   0  0  0  0  0  0  0  0  0  0  0  0
  132.6550  120.2560   60.2700 C   0  0  0  0  0  0  0  0  0  0  0  0
  133.5000  121.3570   60.3380 C   0  0  0  0  0  0  0  0  0  0  0  0
  132.9960  122.5910   60.7400 C   0  0  0  0  0  0  0  0  0  0  0  0
  126.9637  122.4841   61.6356 H   0  0  0  0  0  0  0  0  0  0  0  0
  127.2349  124.0992   62.4549 H   0  0  0  0  0  0  0  0  0  0  0  0
  126.0350  123.6269   59.7131 H   0  0  0  0  0  0  0  0  0  0  0  0
  125.7490  125.9870   59.4920 H   0  0  0  0  0  0  0  0  0  0  0  0
  125.6590  129.0978   59.8313 H   0  0  0  0  0  0  0  0  0  0  0  0
  125.1421  128.0870   61.2363 H   0  0  0  0  0  0  0  0  0  0  0  0
  126.6372  129.1246   62.6615 H   0  0  0  0  0  0  0  0  0  0  0  0
  129.1776  128.8425   61.0284 H   0  0  0  0  0  0  0  0  0  0  0  0
  130.9787  130.3752   60.2302 H   0  0  0  0  0  0  0  0  0  0  0  0
  130.5384  132.8206   60.0195 H   0  0  0  0  0  0  0  0  0  0  0  0
  128.2944  133.7439   60.6136 H   0  0  0  0  0  0  0  0  0  0  0  0
  125.8436  134.2161   61.3553 H   0  0  0  0  0  0  0  0  0  0  0  0
  123.4856  134.1797   62.1778 H   0  0  0  0  0  0  0  0  0  0  0  0
  122.4250  132.0196   62.8389 H   0  0  0  0  0  0  0  0  0  0  0  0
  123.7199  129.8937   62.6831 H   0  0  0  0  0  0  0  0  0  0  0  0
  123.8940  125.1230   59.9390 H   0  0  0  0  0  0  0  0  0  0  0  0
  129.2990  124.1590   62.6590 H   0  0  0  0  0  0  0  0  0  0  0  0
  131.7916  123.8596   58.8668 H   0  0  0  0  0  0  0  0  0  0  0  0
  131.8636  125.6000   57.0943 H   0  0  0  0  0  0  0  0  0  0  0  0
  131.2821  127.9577   57.6386 H   0  0  0  0  0  0  0  0  0  0  0  0
  130.5817  128.5757   59.9457 H   0  0  0  0  0  0  0  0  0  0  0  0
  130.4717  126.8359   61.7159 H   0  0  0  0  0  0  0  0  0  0  0  0
  129.7098  125.1351   63.7745 H   0  0  0  0  0  0  0  0  0  0  0  0
  130.6569  125.9774   65.9153 H   0  0  0  0  0  0  0  0  0  0  0  0
  133.1199  125.9813   66.2705 H   0  0  0  0  0  0  0  0  0  0  0  0
  134.6472  125.1303   64.4966 H   0  0  0  0  0  0  0  0  0  0  0  0
  133.7057  124.2597   62.3671 H   0  0  0  0  0  0  0  0  0  0  0  0
  129.7421  121.7124   61.2456 H   0  0  0  0  0  0  0  0  0  0  0  0
  130.6416  119.5108   60.5311 H   0  0  0  0  0  0  0  0  0  0  0  0
  133.0533  119.2789   59.9590 H   0  0  0  0  0  0  0  0  0  0  0  0
  134.5632  121.2540   60.0752 H   0  0  0  0  0  0  0  0  0  0  0  0
  133.6694  123.4595   60.7871 H   0  0  0  0  0  0  0  0  0  0  0  0
  1  2  2  0
  2  3  1  0
  3  4  1  0
  4  5  1  0
  5  6  1  0
  6  7  2  0
  6  8  1  0
  8  9  1  0
  9 10  1  0
 10 11  1  0
 11 12  2  0
 12 13  1  0
 13 14  2  0
 14 15  1  0
 15 16  2  0
 16 17  1  0
 17 18  2  0
 18 19  1  0
 19 20  2  0
 20 21  1  0
 21 22  2  0
  4 23  1  0
 23 24  2  0
 23 25  1  0
  2 26  1  0
 26 27  1  0
 27 28  1  0
 28 29  2  0
 29 30  1  0
 30 31  2  0
 31 32  1  0
 32 33  2  0
 27 34  1  0
 34 35  2  0
 35 36  1  0
 36 37  2  0
 37 38  1  0
 38 39  2  0
 27 40  1  0
 40 41  2  0
 41 42  1  0
 42 43  2  0
 43 44  1  0
 44 45  2  0
 22 10  1  0
 33 28  1  0
 39 34  1  0
 45 40  1  0
 16 11  1  0
 22 17  1  0
  3 46  1  0
  3 47  1  0
  4 48  1  6
  5 49  1  0
  9 50  1  0
  9 51  1  0
 10 52  1  0
 12 53  1  0
 13 54  1  0
 14 55  1  0
 15 56  1  0
 18 57  1  0
 19 58  1  0
 20 59  1  0
 21 60  1  0
 25 61  1  0
 26 62  1  0
 29 63  1  0
 30 64  1  0
 31 65  1  0
 32 66  1  0
 33 67  1  0
 35 68  1  0
 36 69  1  0
 37 70  1  0
 38 71  1  0
 39 72  1  0
 41 73  1  0
 42 74  1  0
 43 75  1  0
 44 76  1  0
 45 77  1  0
M  END
>  <Binding energies>  (1) 
[-10.46]

>  <Ligand effiencies>  (1) 
[-0.21791666666666668]

>  <Interactions>  (1) 
["V-A:ASP:366:CG:3211, V-A:HIS:456:CE1:4068, V-A:ASP:366:CB:3210, V-B:TYR:539:CE2:9848, V-A:ARG:545:CD:4921, V-A:GLY:453:CA:4042, V-A:ILE:369:CD1:3237, V-A:ILE:369:CG2:3235, V-A:ARG:545:CG:4920, V-B:GLU:543:CD:9880, V-A:ARG:545:CZ:4924, V-B:ASN:362:CB:8148, V-B:PRO:540:CB:9857, V-B:ASP:366:CG:8185, V-B:TYR:539:CD2:9846, V-B:PRO:540:CA:9855, H-B:ALA:541:N:9863, V-B:ALA:541:CB:9864, H-B:ARG:545:NH2:9900, V-B:GLY:454:CA:9021, H-B:ASP:366:OD1:8186, V-A:LEU:475:CD2:4257, V-B:LEU:475:CD2:9231, V-A:ALA:541:CB:4890, H-B:GLU:543:OE1:9881, V-B:ARG:545:CZ:9898, V-B:ILE:369:CD1:8211, V-A:PRO:540:CA:4881, V-A:PRO:540:C:4879, H-B:ASP:366:OD2:8187, V-A:TRP:381:CZ2:3368, V-A:TRP:381:CH2:3370, H-B:ASN:362:O:8145, V-B:GLY:453:C:9014, V-A:GLY:453:C:4040, V-B:ALA:541:CA:9862, H-B:ASN:362:ND2:8151, H-B:LEU:363:N:8158"]

$$$$
RR5_Rahimova_2017-again1
     RDKit          3D

 76 81  0  0  0  0  0  0  0  0999 V2000
  128.8320  123.3070   59.6160 O   0  0  0  0  0  0  0  0  0  0  0  0
  128.6780  123.4710   60.8260 C   0  0  0  0  0  0  0  0  0  0  0  0
  127.2720  123.2730   61.4300 C   0  0  0  0  0  0  0  0  0  0  0  0
  126.2160  124.3880   61.1300 C   0  0  2  0  0  0  0  0  0  0  0  0
  126.6630  125.6560   61.7450 N   0  0  0  0  0  0  0  0  0  0  0  0
  126.8210  126.8160   60.9950 C   0  0  0  0  0  0  0  0  0  0  0  0
  126.6430  126.9340   59.7790 O   0  0  0  0  0  0  0  0  0  0  0  0
  127.2070  127.8110   61.8150 O   0  0  0  0  0  0  0  0  0  0  0  0
  127.8100  128.9930   61.2990 C   0  0  0  0  0  0  0  0  0  0  0  0
  127.1400  130.2390   61.9080 C   0  0  0  0  0  0  0  0  0  0  0  0
  125.9550  130.7440   61.1040 C   0  0  0  0  0  0  0  0  0  0  0  0
  125.9000  131.1860   59.7790 C   0  0  0  0  0  0  0  0  0  0  0  0
  124.6830  131.5980   59.2320 C   0  0  0  0  0  0  0  0  0  0  0  0
  123.5220  131.5730   60.0070 C   0  0  0  0  0  0  0  0  0  0  0  0
  123.5740  131.1380   61.3320 C   0  0  0  0  0  0  0  0  0  0  0  0
  124.7920  130.7250   61.8760 C   0  0  0  0  0  0  0  0  0  0  0  0
  125.1350  130.2390   63.2220 C   0  0  0  0  0  0  0  0  0  0  0  0
  124.3460  130.0460   64.3580 C   0  0  0  0  0  0  0  0  0  0  0  0
  124.9330  129.5790   65.5350 C   0  0  0  0  0  0  0  0  0  0  0  0
  126.3020  129.3050   65.5750 C   0  0  0  0  0  0  0  0  0  0  0  0
  127.0880  129.4980   64.4370 C   0  0  0  0  0  0  0  0  0  0  0  0
  126.5030  129.9630   63.2550 C   0  0  0  0  0  0  0  0  0  0  0  0
  124.7670  123.9780   61.6140 C   0  0  0  0  0  0  0  0  0  0  0  0
  123.9860  123.6530   60.6890 O   0  0  0  0  0  0  0  0  0  0  0  0
  124.5610  123.9820   62.8510 O   0  0  0  0  0  0  0  0  0  0  0  0
  129.7050  123.6950   61.6730 N   0  0  0  0  0  0  0  0  0  0  0  0
  131.1460  123.9040   61.3780 C   0  0  0  0  0  0  0  0  0  0  0  0
  131.8210  122.5430   61.0150 C   0  0  0  0  0  0  0  0  0  0  0  0
  131.0520  121.4440   60.5930 C   0  0  0  0  0  0  0  0  0  0  0  0
  131.6520  120.2340   60.2580 C   0  0  0  0  0  0  0  0  0  0  0  0
  133.0350  120.1060   60.3360 C   0  0  0  0  0  0  0  0  0  0  0  0
  133.8200  121.1780   60.7460 C   0  0  0  0  0  0  0  0  0  0  0  0
  133.2180  122.3880   61.0820 C   0  0  0  0  0  0  0  0  0  0  0  0
  131.4480  124.8050   60.1380 C   0  0  0  0  0  0  0  0  0  0  0  0
  132.1860  124.3100   59.0480 C   0  0  0  0  0  0  0  0  0  0  0  0
  132.4580  125.1110   57.9420 C   0  0  0  0  0  0  0  0  0  0  0  0
  131.9900  126.4200   57.9080 C   0  0  0  0  0  0  0  0  0  0  0  0
  131.2490  126.9320   58.9700 C   0  0  0  0  0  0  0  0  0  0  0  0
  130.9790  126.1280   60.0740 C   0  0  0  0  0  0  0  0  0  0  0  0
  131.7340  124.4730   62.7150 C   0  0  0  0  0  0  0  0  0  0  0  0
  133.1180  124.6170   62.9120 C   0  0  0  0  0  0  0  0  0  0  0  0
  133.6230  125.1410   64.0980 C   0  0  0  0  0  0  0  0  0  0  0  0
  132.7500  125.5430   65.1020 C   0  0  0  0  0  0  0  0  0  0  0  0
  131.3750  125.4340   64.9250 C   0  0  0  0  0  0  0  0  0  0  0  0
  130.8720  124.9080   63.7380 C   0  0  0  0  0  0  0  0  0  0  0  0
  126.8735  122.3235   61.0431 H   0  0  0  0  0  0  0  0  0  0  0  0
  127.4188  123.2990   62.5199 H   0  0  0  0  0  0  0  0  0  0  0  0
  126.1431  124.5241   60.0409 H   0  0  0  0  0  0  0  0  0  0  0  0
  126.7920  125.6880   62.7470 H   0  0  0  0  0  0  0  0  0  0  0  0
  128.8805  128.9954   61.5520 H   0  0  0  0  0  0  0  0  0  0  0  0
  127.6832  129.0141   60.2065 H   0  0  0  0  0  0  0  0  0  0  0  0
  127.9735  130.9558   61.9472 H   0  0  0  0  0  0  0  0  0  0  0  0
  126.8143  131.2093   59.1679 H   0  0  0  0  0  0  0  0  0  0  0  0
  124.6390  131.9429   58.1884 H   0  0  0  0  0  0  0  0  0  0  0  0
  122.5647  131.8967   59.5725 H   0  0  0  0  0  0  0  0  0  0  0  0
  122.6605  131.1205   61.9445 H   0  0  0  0  0  0  0  0  0  0  0  0
  123.2677  130.2609   64.3253 H   0  0  0  0  0  0  0  0  0  0  0  0
  124.3162  129.4264   66.4329 H   0  0  0  0  0  0  0  0  0  0  0  0
  126.7616  128.9367   66.5041 H   0  0  0  0  0  0  0  0  0  0  0  0
  128.1665  129.2844   64.4703 H   0  0  0  0  0  0  0  0  0  0  0  0
  129.4550  123.8770   62.6340 H   0  0  0  0  0  0  0  0  0  0  0  0
  129.9584  121.5424   60.5266 H   0  0  0  0  0  0  0  0  0  0  0  0
  131.0357  119.3828   59.9331 H   0  0  0  0  0  0  0  0  0  0  0  0
  133.5109  119.1502   60.0715 H   0  0  0  0  0  0  0  0  0  0  0  0
  134.9132  121.0706   60.8048 H   0  0  0  0  0  0  0  0  0  0  0  0
  133.8430  123.2340   61.4041 H   0  0  0  0  0  0  0  0  0  0  0  0
  132.5542  123.2737   59.0695 H   0  0  0  0  0  0  0  0  0  0  0  0
  133.0403  124.7102   57.0992 H   0  0  0  0  0  0  0  0  0  0  0  0
  132.2066  127.0552   57.0364 H   0  0  0  0  0  0  0  0  0  0  0  0
  130.8786  127.9672   58.9368 H   0  0  0  0  0  0  0  0  0  0  0  0
  130.3895  126.5346   60.9090 H   0  0  0  0  0  0  0  0  0  0  0  0
  133.8129  124.3107   62.1162 H   0  0  0  0  0  0  0  0  0  0  0  0
  134.7095  125.2368   64.2405 H   0  0  0  0  0  0  0  0  0  0  0  0
  133.1493  125.9500   66.0427 H   0  0  0  0  0  0  0  0  0  0  0  0
  130.6880  125.7618   65.7190 H   0  0  0  0  0  0  0  0  0  0  0  0
  129.7836  124.8314   63.5980 H   0  0  0  0  0  0  0  0  0  0  0  0
  1  2  2  0
  2  3  1  0
  3  4  1  0
  4  5  1  0
  5  6  1  0
  6  7  2  0
  6  8  1  0
  8  9  1  0
  9 10  1  0
 10 11  1  0
 11 12  2  0
 12 13  1  0
 13 14  2  0
 14 15  1  0
 15 16  2  0
 16 17  1  0
 17 18  2  0
 18 19  1  0
 19 20  2  0
 20 21  1  0
 21 22  2  0
  4 23  1  0
 23 24  2  0
 23 25  1  0
  2 26  1  0
 26 27  1  0
 27 28  1  0
 28 29  2  0
 29 30  1  0
 30 31  2  0
 31 32  1  0
 32 33  2  0
 27 34  1  0
 34 35  2  0
 35 36  1  0
 36 37  2  0
 37 38  1  0
 38 39  2  0
 27 40  1  0
 40 41  2  0
 41 42  1  0
 42 43  2  0
 43 44  1  0
 44 45  2  0
 22 10  1  0
 33 28  1  0
 39 34  1  0
 45 40  1  0
 16 11  1  0
 22 17  1  0
  3 46  1  0
  3 47  1  0
  4 48  1  6
  5 49  1  0
  9 50  1  0
  9 51  1  0
 10 52  1  0
 12 53  1  0
 13 54  1  0
 14 55  1  0
 15 56  1  0
 18 57  1  0
 19 58  1  0
 20 59  1  0
 21 60  1  0
 26 61  1  0
 29 62  1  0
 30 63  1  0
 31 64  1  0
 32 65  1  0
 33 66  1  0
 35 67  1  0
 36 68  1  0
 37 69  1  0
 38 70  1  0
 39 71  1  0
 41 72  1  0
 42 73  1  0
 43 74  1  0
 44 75  1  0
 45 76  1  0
M  CHG  1  25  -1
M  END
>  <Binding energies>  (1) 
[-9.6]

>  <Ligand effiencies>  (1) 
[-0.20425531914893616]

>  <Interactions>  (1) 
["V-A:GLU:543:CD:4906, V-A:ASP:366:CG:3211, V-A:HIS:456:CE1:4068, V-A:ASP:366:CB:3210, V-B:TYR:539:CE2:9848, V-A:ARG:545:CD:4921, V-A:GLY:453:CA:4042, V-A:ILE:369:CD1:3237, V-A:ILE:369:CG2:3235, V-A:ARG:545:CG:4920, V-B:GLU:543:CD:9880, V-A:ARG:545:CZ:4924, V-B:ASN:362:CB:8148, V-B:PRO:540:CB:9857, V-B:ASP:366:CG:8185, V-B:PRO:540:C:9853, V-B:TYR:539:CD2:9846, V-B:PRO:540:CA:9855, V-B:ALA:541:CB:9864, V-A:TYR:539:CE2:4874, H-B:ARG:545:NH2:9900, V-A:LEU:475:CD2:4257, H-B:GLU:543:OE1:9881, V-B:ARG:545:CZ:9898, H-B:GLU:543:OE2:9882, V-B:ILE:369:CD1:8211, V-B:ILE:369:CG2:8209, V-A:TYR:539:CZ:4875, V-B:HIS:456:CE1:9042, V-B:ARG:545:CG:9894, H-B:ARG:545:NE:9896, V-B:ILE:369:CB:8208, V-A:TRP:381:CZ2:3368, V-A:TRP:381:CH2:3370, V-B:GLY:453:CA:9016, V-B:ARG:545:CD:9895, V-A:GLY:453:C:4040, V-B:ALA:541:CA:9862, H-B:ASN:362:ND2:8151"]

$$$$
RR6_Rahimova_2017
     RDKit          3D

 63 66  0  0  0  0  0  0  0  0999 V2000
  134.1660  119.6950   60.6250 C   0  0  0  0  0  0  0  0  0  0  0  0
  133.2720  120.7200   60.2160 O   0  0  0  0  0  0  0  0  0  0  0  0
  132.8390  121.6610   61.0940 C   0  0  0  0  0  0  0  0  0  0  0  0
  133.4540  121.9670   62.1210 O   0  0  0  0  0  0  0  0  0  0  0  0
  131.5390  122.2950   60.6920 C   0  0  0  0  0  0  0  0  0  0  0  0
  130.3660  122.1280   61.4440 C   0  0  0  0  0  0  0  0  0  0  0  0
  129.1730  122.7240   61.0410 C   0  0  0  0  0  0  0  0  0  0  0  0
  129.1330  123.4960   59.8700 C   0  0  0  0  0  0  0  0  0  0  0  0
  127.9790  124.1170   59.3580 N   0  0  0  0  0  0  0  0  0  0  0  0
  126.6910  123.9840   59.7460 C   0  0  0  0  0  0  0  0  0  0  0  0
  126.2940  123.2710   60.6680 O   0  0  0  0  0  0  0  0  0  0  0  0
  125.6650  124.7540   58.9090 C   0  0  0  0  0  0  0  0  0  0  0  0
  126.3870  126.1180   57.9360 S   0  0  0  0  0  0  0  0  0  0  0  0
  127.1630  127.2220   59.0980 C   0  0  0  0  0  0  0  0  0  0  0  0
  128.1380  126.6490   59.8450 N   0  0  0  0  0  0  0  0  0  0  0  0
  128.8230  127.3980   60.7460 C   0  0  0  0  0  0  0  0  0  0  0  0
  129.9260  126.7040   61.4890 C   0  0  0  0  0  0  0  0  0  0  0  0
  129.8200  126.4440   62.8640 C   0  0  0  0  0  0  0  0  0  0  0  0
  130.8490  125.8120   63.5560 C   0  0  0  0  0  0  0  0  0  0  0  0
  132.0060  125.4220   62.8820 C   0  0  0  0  0  0  0  0  0  0  0  0
  133.1290  124.7410   63.6420 C   0  0  0  0  0  0  0  0  0  0  0  0
  132.1300  125.6690   61.5170 C   0  0  0  0  0  0  0  0  0  0  0  0
  131.0980  126.3000   60.8300 C   0  0  0  0  0  0  0  0  0  0  0  0
  128.5260  128.7540   60.9220 C   0  0  0  0  0  0  0  0  0  0  0  0
  127.5190  129.3680   60.1640 C   0  0  0  0  0  0  0  0  0  0  0  0
  127.2670  130.8220   60.3890 C   0  0  0  0  0  0  0  0  0  0  0  0
  126.0570  131.2480   60.9450 C   0  0  0  0  0  0  0  0  0  0  0  0
  125.8200  132.6010   61.1730 C   0  0  0  0  0  0  0  0  0  0  0  0
  126.7880  133.5530   60.8570 C   0  0  0  0  0  0  0  0  0  0  0  0
  126.4670  134.8700   61.1210 O   0  0  0  0  0  0  0  0  0  0  0  0
  127.4790  135.8660   61.0120 C   0  0  0  0  0  0  0  0  0  0  0  0
  128.0070  133.1300   60.3050 C   0  0  0  0  0  0  0  0  0  0  0  0
  128.2410  131.7770   60.0780 C   0  0  0  0  0  0  0  0  0  0  0  0
  126.8090  128.5800   59.2250 C   0  0  0  0  0  0  0  0  0  0  0  0
  125.7240  129.1520   58.4200 C   0  0  0  0  0  0  0  0  0  0  0  0
  124.8700  129.6050   57.7840 N   0  0  0  0  0  0  0  0  0  0  0  0
  130.3010  123.6780   59.1290 C   0  0  0  0  0  0  0  0  0  0  0  0
  131.4920  123.0800   59.5330 C   0  0  0  0  0  0  0  0  0  0  0  0
  134.2005  119.6555   61.7237 H   0  0  0  0  0  0  0  0  0  0  0  0
  133.8181  118.7275   60.2340 H   0  0  0  0  0  0  0  0  0  0  0  0
  135.1718  119.9082   60.2340 H   0  0  0  0  0  0  0  0  0  0  0  0
  130.3887  121.5205   62.3607 H   0  0  0  0  0  0  0  0  0  0  0  0
  128.2613  122.5892   61.6415 H   0  0  0  0  0  0  0  0  0  0  0  0
  128.1380  124.6720   58.5300 H   0  0  0  0  0  0  0  0  0  0  0  0
  125.1839  124.0492   58.2149 H   0  0  0  0  0  0  0  0  0  0  0  0
  124.9496  125.2048   59.6126 H   0  0  0  0  0  0  0  0  0  0  0  0
  128.9095  126.7444   63.4032 H   0  0  0  0  0  0  0  0  0  0  0  0
  130.7497  125.6201   64.6346 H   0  0  0  0  0  0  0  0  0  0  0  0
  132.9562  124.8458   64.7233 H   0  0  0  0  0  0  0  0  0  0  0  0
  133.1567  123.6738   63.3768 H   0  0  0  0  0  0  0  0  0  0  0  0
  134.0881  125.2097   63.3768 H   0  0  0  0  0  0  0  0  0  0  0  0
  133.0426  125.3656   60.9830 H   0  0  0  0  0  0  0  0  0  0  0  0
  131.2021  126.4858   59.7508 H   0  0  0  0  0  0  0  0  0  0  0  0
  129.0876  129.3435   61.6617 H   0  0  0  0  0  0  0  0  0  0  0  0
  125.2856  130.5080   61.2045 H   0  0  0  0  0  0  0  0  0  0  0  0
  124.8609  132.9213   61.6061 H   0  0  0  0  0  0  0  0  0  0  0  0
  127.7961  136.1781   62.0180 H   0  0  0  0  0  0  0  0  0  0  0  0
  128.3413  135.4545   60.4669 H   0  0  0  0  0  0  0  0  0  0  0  0
  127.0813  136.7347   60.4669 H   0  0  0  0  0  0  0  0  0  0  0  0
  128.7800  133.8702   60.0509 H   0  0  0  0  0  0  0  0  0  0  0  0
  129.2017  131.4551   59.6496 H   0  0  0  0  0  0  0  0  0  0  0  0
  130.2810  124.2975   58.2203 H   0  0  0  0  0  0  0  0  0  0  0  0
  132.4045  123.2255   58.9362 H   0  0  0  0  0  0  0  0  0  0  0  0
  1  2  1  0
  2  3  1  0
  3  4  2  0
  3  5  1  0
  5  6  2  0
  6  7  1  0
  7  8  2  0
  8  9  1  0
  9 10  1  0
 10 11  2  0
 10 12  1  0
 12 13  1  0
 13 14  1  0
 14 15  2  0
 15 16  1  0
 16 17  1  0
 17 18  2  0
 18 19  1  0
 19 20  2  0
 20 21  1  0
 20 22  1  0
 22 23  2  0
 16 24  2  0
 24 25  1  0
 25 26  1  0
 26 27  2  0
 27 28  1  0
 28 29  2  0
 29 30  1  0
 30 31  1  0
 29 32  1  0
 32 33  2  0
 25 34  2  0
 34 35  1  0
 35 36  3  0
  8 37  1  0
 37 38  2  0
 38  5  1  0
 34 14  1  0
 23 17  1  0
 33 26  1  0
  1 39  1  0
  1 40  1  0
  1 41  1  0
  6 42  1  0
  7 43  1  0
  9 44  1  0
 12 45  1  0
 12 46  1  0
 18 47  1  0
 19 48  1  0
 21 49  1  0
 21 50  1  0
 21 51  1  0
 22 52  1  0
 23 53  1  0
 24 54  1  0
 27 55  1  0
 28 56  1  0
 31 57  1  0
 31 58  1  0
 31 59  1  0
 32 60  1  0
 33 61  1  0
 37 62  1  0
 38 63  1  0
M  END
>  <Binding energies>  (1) 
[-6.5]

>  <Ligand effiencies>  (1) 
[-0.16666666666666666]

>  <Interactions>  (1) 
["H-A:GLY:454:N:4048, V-A:ASP:366:CG:3211, V-B:TYR:539:CE2:9848, V-A:ILE:369:CD1:3237, V-A:ILE:369:CG2:3235, V-B:GLU:543:CD:9880, V-A:ARG:545:CZ:4924, V-B:ASP:366:CB:8184, V-B:ASP:366:CG:8185, V-B:TYR:539:CD2:9846, V-B:PRO:540:CA:9855, H-B:ALA:541:N:9863, V-B:ALA:541:CB:9864, V-A:TYR:539:CE2:4874, H-B:TYR:531:OH:9767, V-A:TYR:539:CD2:4872, V-A:LEU:475:CD2:4257, V-B:LEU:475:CD2:9231, V-A:ALA:541:CB:4890, V-A:TYR:539:C:4865, V-B:PRO:482:CG:9299, V-B:PRO:482:CB:9298, V-B:TRP:381:CZ2:8342, V-B:TRP:381:CH2:8344, V-A:TRP:381:CZ2:3368, V-A:TRP:381:CH2:3370, H-A:TYR:539:OH:4876, V-A:SER:385:CA:3405, V-A:SER:385:C:3403, V-A:SER:385:CB:3407"]

$$$$
RR7_Rahimova_2017
     RDKit          3D

 80 86  0  0  0  0  0  0  0  0999 V2000
  130.0640  126.3360   66.3940 C   0  0  0  0  0  0  0  0  0  0  0  0
  131.2470  126.1170   65.6320 O   0  0  0  0  0  0  0  0  0  0  0  0
  131.1450  125.5390   64.3810 C   0  0  0  0  0  0  0  0  0  0  0  0
  131.0020  124.1530   64.3450 C   0  0  0  0  0  0  0  0  0  0  0  0
  130.8860  123.4830   63.1320 C   0  0  0  0  0  0  0  0  0  0  0  0
  130.9230  124.1860   61.9180 C   0  0  0  0  0  0  0  0  0  0  0  0
  130.7630  123.4650   60.5440 C   0  0  0  0  0  0  0  0  0  0  0  0
  129.4760  123.8640   60.0230 O   0  0  0  0  0  0  0  0  0  0  0  0
  128.2740  123.3870   60.6370 C   0  0  0  0  0  0  0  0  0  0  0  0
  127.1230  123.4770   59.6230 C   0  0  1  0  0  0  0  0  0  0  0  0
  126.4240  124.6880   59.8980 O   0  0  0  0  0  0  0  0  0  0  0  0
  126.4050  125.5440   58.7910 C   0  0  1  0  0  0  0  0  0  0  0  0
  126.4320  126.9260   59.2290 N   0  0  0  0  0  0  0  0  0  0  0  0
  126.0070  128.0480   58.5380 C   0  0  0  0  0  0  0  0  0  0  0  0
  126.1910  129.1890   59.1540 N   0  0  0  0  0  0  0  0  0  0  0  0
  126.8200  128.8350   60.3170 C   0  0  0  0  0  0  0  0  0  0  0  0
  127.2990  129.5980   61.4000 C   0  0  0  0  0  0  0  0  0  0  0  0
  127.1280  130.9950   61.3700 N   0  0  0  0  0  0  0  0  0  0  0  0
  127.3110  131.8540   60.3390 C   0  0  0  0  0  0  0  0  0  0  0  0
  127.6950  131.5190   59.2160 O   0  0  0  0  0  0  0  0  0  0  0  0
  127.0450  133.3120   60.6460 C   0  0  0  0  0  0  0  0  0  0  0  0
  125.7300  133.8010   60.6030 C   0  0  0  0  0  0  0  0  0  0  0  0
  125.4620  135.1370   60.8870 C   0  0  0  0  0  0  0  0  0  0  0  0
  126.5050  135.9950   61.2220 C   0  0  0  0  0  0  0  0  0  0  0  0
  127.8160  135.5280   61.2760 C   0  0  0  0  0  0  0  0  0  0  0  0
  128.0850  134.1920   60.9900 C   0  0  0  0  0  0  0  0  0  0  0  0
  127.9150  128.9640   62.4430 N   0  0  0  0  0  0  0  0  0  0  0  0
  128.0380  127.6120   62.3790 C   0  0  0  0  0  0  0  0  0  0  0  0
  127.6120  126.7830   61.3890 N   0  0  0  0  0  0  0  0  0  0  0  0
  127.0060  127.4310   60.3860 C   0  0  0  0  0  0  0  0  0  0  0  0
  127.5910  125.1170   57.9340 C   0  0  0  0  0  0  0  0  0  0  0  0
  127.5590  123.6150   58.1570 C   0  0  2  0  0  0  0  0  0  0  0  0
  126.6700  122.9630   57.2650 O   0  0  0  0  0  0  0  0  0  0  0  0
  131.8300  123.9180   59.5110 C   0  0  0  0  0  0  0  0  0  0  0  0
  131.4360  124.4810   58.2870 C   0  0  0  0  0  0  0  0  0  0  0  0
  132.3830  124.8770   57.3480 C   0  0  0  0  0  0  0  0  0  0  0  0
  133.7370  124.7140   57.6240 C   0  0  0  0  0  0  0  0  0  0  0  0
  134.1500  124.1580   58.8310 C   0  0  0  0  0  0  0  0  0  0  0  0
  133.2020  123.7600   59.7690 C   0  0  0  0  0  0  0  0  0  0  0  0
  130.8500  121.9130   60.5800 C   0  0  0  0  0  0  0  0  0  0  0  0
  132.0260  121.2570   60.1830 C   0  0  0  0  0  0  0  0  0  0  0  0
  132.1100  119.8690   60.2030 C   0  0  0  0  0  0  0  0  0  0  0  0
  131.0120  119.1180   60.6120 C   0  0  0  0  0  0  0  0  0  0  0  0
  129.8310  119.7460   60.9970 C   0  0  0  0  0  0  0  0  0  0  0  0
  129.7500  121.1350   60.9760 C   0  0  0  0  0  0  0  0  0  0  0  0
  131.0530  125.5820   61.9610 C   0  0  0  0  0  0  0  0  0  0  0  0
  131.1680  126.2530   63.1750 C   0  0  0  0  0  0  0  0  0  0  0  0
  130.3051  126.2914   67.4663 H   0  0  0  0  0  0  0  0  0  0  0  0
  129.6501  127.3260   66.1521 H   0  0  0  0  0  0  0  0  0  0  0  0
  129.3231  125.5598   66.1521 H   0  0  0  0  0  0  0  0  0  0  0  0
  130.9807  123.5833   65.2858 H   0  0  0  0  0  0  0  0  0  0  0  0
  130.7639  122.3898   63.1240 H   0  0  0  0  0  0  0  0  0  0  0  0
  128.4095  122.3409   60.9489 H   0  0  0  0  0  0  0  0  0  0  0  0
  128.0397  124.0000   61.5198 H   0  0  0  0  0  0  0  0  0  0  0  0
  126.5491  122.5448   59.7307 H   0  0  0  0  0  0  0  0  0  0  0  0
  125.4867  125.4745   58.1894 H   0  0  0  0  0  0  0  0  0  0  0  0
  125.5468  127.9854   57.5409 H   0  0  0  0  0  0  0  0  0  0  0  0
  126.8300  131.3990   62.2460 H   0  0  0  0  0  0  0  0  0  0  0  0
  124.9042  133.1226   60.3426 H   0  0  0  0  0  0  0  0  0  0  0  0
  124.4291  135.5133   60.8468 H   0  0  0  0  0  0  0  0  0  0  0  0
  126.2923  137.0507   61.4460 H   0  0  0  0  0  0  0  0  0  0  0  0
  128.6353  136.2115   61.5434 H   0  0  0  0  0  0  0  0  0  0  0  0
  129.1202  133.8225   61.0337 H   0  0  0  0  0  0  0  0  0  0  0  0
  128.5425  127.1309   63.2299 H   0  0  0  0  0  0  0  0  0  0  0  0
  127.4418  125.3746   56.8751 H   0  0  0  0  0  0  0  0  0  0  0  0
  128.5443  125.6010   58.1926 H   0  0  0  0  0  0  0  0  0  0  0  0
  128.5297  123.1357   57.9619 H   0  0  0  0  0  0  0  0  0  0  0  0
  125.7690  123.1700   57.5250 H   0  0  0  0  0  0  0  0  0  0  0  0
  130.3659  124.6106   58.0677 H   0  0  0  0  0  0  0  0  0  0  0  0
  132.0629  125.3169   56.3919 H   0  0  0  0  0  0  0  0  0  0  0  0
  134.4867  125.0270   56.8824 H   0  0  0  0  0  0  0  0  0  0  0  0
  135.2222  124.0335   59.0430 H   0  0  0  0  0  0  0  0  0  0  0  0
  133.5300  123.3176   60.7212 H   0  0  0  0  0  0  0  0  0  0  0  0
  132.8922  121.8486   59.8518 H   0  0  0  0  0  0  0  0  0  0  0  0
  133.0398  119.3671   59.8970 H   0  0  0  0  0  0  0  0  0  0  0  0
  131.0780  118.0201   60.6311 H   0  0  0  0  0  0  0  0  0  0  0  0
  128.9655  119.1469   61.3165 H   0  0  0  0  0  0  0  0  0  0  0  0
  128.8133  121.6294   61.2731 H   0  0  0  0  0  0  0  0  0  0  0  0
  131.0642  126.1546   61.0219 H   0  0  0  0  0  0  0  0  0  0  0  0
  131.2773  127.3475   63.1881 H   0  0  0  0  0  0  0  0  0  0  0  0
  1  2  1  0
  2  3  1  0
  3  4  2  0
  4  5  1  0
  5  6  2  0
  6  7  1  0
  7  8  1  0
  8  9  1  0
  9 10  1  0
 10 11  1  0
 11 12  1  0
 12 13  1  0
 13 14  1  0
 14 15  2  0
 15 16  1  0
 16 17  2  0
 17 18  1  0
 18 19  1  0
 19 20  2  0
 19 21  1  0
 21 22  2  0
 22 23  1  0
 23 24  2  0
 24 25  1  0
 25 26  2  0
 17 27  1  0
 27 28  2  0
 28 29  1  0
 29 30  2  0
 12 31  1  0
 31 32  1  0
 32 33  1  0
  7 34  1  0
 34 35  2  0
 35 36  1  0
 36 37  2  0
 37 38  1  0
 38 39  2  0
  7 40  1  0
 40 41  2  0
 41 42  1  0
 42 43  2  0
 43 44  1  0
 44 45  2  0
  6 46  1  0
 46 47  2  0
 47  3  1  0
 32 10  1  0
 39 34  1  0
 45 40  1  0
 30 13  1  0
 30 16  1  0
 26 21  1  0
  1 48  1  0
  1 49  1  0
  1 50  1  0
  4 51  1  0
  5 52  1  0
  9 53  1  0
  9 54  1  0
 10 55  1  6
 12 56  1  6
 14 57  1  0
 18 58  1  0
 22 59  1  0
 23 60  1  0
 24 61  1  0
 25 62  1  0
 26 63  1  0
 28 64  1  0
 31 65  1  0
 31 66  1  0
 32 67  1  1
 33 68  1  0
 35 69  1  0
 36 70  1  0
 37 71  1  0
 38 72  1  0
 39 73  1  0
 41 74  1  0
 42 75  1  0
 43 76  1  0
 44 77  1  0
 45 78  1  0
 46 79  1  0
 47 80  1  0
M  END
>  <Binding energies>  (1) 
[-6.97]

>  <Ligand effiencies>  (1) 
[-0.14224489795918366]

>  <Interactions>  (1) 
["V-A:GLU:543:CD:4906, V-A:ASP:366:CG:3211, V-B:GLU:543:CG:9879, V-A:HIS:456:CE1:4068, V-A:ASP:366:CB:3210, V-A:ILE:369:CB:3234, V-B:TYR:539:CE2:9848, V-A:ILE:369:CD1:3237, V-A:ILE:369:CG2:3235, V-B:GLU:543:CD:9880, V-B:GLU:543:CB:9878, V-A:ARG:545:CZ:4924, V-A:ASP:366:CA:3208, V-B:ASP:366:CB:8184, V-B:ASP:366:CG:8185, V-B:TYR:539:CD2:9846, V-B:PRO:540:N:9856, V-B:PRO:540:CA:9855, V-B:TYR:539:CZ:9849, V-B:ALA:541:CB:9864, V-A:TYR:539:CE2:4874, H-B:ARG:545:NH2:9900, V-A:TYR:539:CD2:4872, V-A:TYR:484:CZ:4345, V-A:LEU:475:CD2:4257, V-B:LEU:475:CD2:9231, V-A:ALA:541:CB:4890, V-B:TYR:539:C:9839, V-A:TYR:539:C:4865, H-A:GLU:543:OE1:4907, V-A:PRO:540:C:4879, H-A:ARG:545:NE:4922, V-B:PRO:482:CG:9299, V-B:PRO:482:CB:9298, V-B:TRP:381:CZ2:8342, V-B:TRP:381:CH2:8344, V-A:ASP:366:C:3206, V-A:PRO:482:CG:4325, V-A:TRP:381:CZ2:3368, V-A:PRO:482:CB:4324, V-A:TRP:381:CH2:3370, V-B:ALA:541:CA:9862, V-A:ALA:541:CA:4888, H-B:TYR:539:N:9842, V-A:TRP:381:CZ3:3369, V-A:TRP:381:CE2:3365, V-B:TRP:381:CZ3:8343, V-B:TRP:381:CE2:8339"]

$$$$
RR8_A_Rahimova_2017
     RDKit          3D

 73 77  0  0  0  0  0  0  0  0999 V2000
  129.5500  128.2010   60.0560 O   0  0  0  0  0  0  0  0  0  0  0  0
  128.9980  127.7160   61.0500 C   0  0  0  0  0  0  0  0  0  0  0  0
  129.3500  126.5250   61.6260 O   0  0  0  0  0  0  0  0  0  0  0  0
  130.4510  126.5240   62.4930 C   0  0  1  0  0  0  0  0  0  0  0  0
  130.0620  126.3090   63.8190 O   0  0  0  0  0  0  0  0  0  0  0  0
  130.9920  125.4850   64.5170 C   0  0  2  0  0  0  0  0  0  0  0  0
  131.4650  126.2350   65.7740 C   0  0  0  0  0  0  0  0  0  0  0  0
  130.5270  126.0160   66.8180 O   0  0  0  0  0  0  0  0  0  0  0  0
  129.6030  127.0820   66.9970 C   0  0  0  0  0  0  0  0  0  0  0  0
  129.3220  127.2770   68.4800 C   0  0  0  0  0  0  0  0  0  0  0  0
  130.3830  127.3360   69.3880 C   0  0  0  0  0  0  0  0  0  0  0  0
  130.1290  127.5210   70.7450 C   0  0  0  0  0  0  0  0  0  0  0  0
  128.8150  127.6510   71.1900 C   0  0  0  0  0  0  0  0  0  0  0  0
  127.7520  127.5990   70.2910 C   0  0  0  0  0  0  0  0  0  0  0  0
  128.0060  127.4150   68.9340 C   0  0  0  0  0  0  0  0  0  0  0  0
  132.0790  125.1960   63.4720 C   0  0  1  0  0  0  0  0  0  0  0  0
  132.5790  123.8620   63.5380 O   0  0  0  0  0  0  0  0  0  0  0  0
  131.6270  122.8340   63.2930 C   0  0  0  0  0  0  0  0  0  0  0  0
  132.0620  121.9960   62.0990 C   0  0  0  0  0  0  0  0  0  0  0  0
  133.4100  121.9680   61.7260 C   0  0  0  0  0  0  0  0  0  0  0  0
  133.8140  121.2120   60.6300 C   0  0  0  0  0  0  0  0  0  0  0  0
  132.8690  120.4870   59.9050 C   0  0  0  0  0  0  0  0  0  0  0  0
  131.5240  120.5140   60.2650 C   0  0  0  0  0  0  0  0  0  0  0  0
  131.1190  121.2720   61.3610 C   0  0  0  0  0  0  0  0  0  0  0  0
  131.3430  125.3380   62.1530 C   0  0  2  0  0  0  0  0  0  0  0  0
  132.2590  125.5960   61.0920 O   0  0  0  0  0  0  0  0  0  0  0  0
  132.3930  124.5580   60.1280 C   0  0  0  0  0  0  0  0  0  0  0  0
  131.1390  124.4790   59.2710 C   0  0  0  0  0  0  0  0  0  0  0  0
  130.0370  123.7340   59.7040 C   0  0  0  0  0  0  0  0  0  0  0  0
  128.8860  123.6740   58.9220 C   0  0  0  0  0  0  0  0  0  0  0  0
  128.8390  124.3600   57.7110 C   0  0  0  0  0  0  0  0  0  0  0  0
  129.9290  125.1090   57.2750 C   0  0  0  0  0  0  0  0  0  0  0  0
  131.0810  125.1700   58.0570 C   0  0  0  0  0  0  0  0  0  0  0  0
  127.8640  128.3920   61.7650 C   0  0  0  0  0  0  0  0  0  0  0  0
  127.8520  128.5440   63.1600 C   0  0  0  0  0  0  0  0  0  0  0  0
  126.7850  129.1740   63.7940 C   0  0  0  0  0  0  0  0  0  0  0  0
  125.7030  129.6660   63.0520 C   0  0  0  0  0  0  0  0  0  0  0  0
  124.5670  130.3380   63.7290 N   0  0  0  0  0  0  0  0  0  0  0  0
  124.0930  131.3490   63.2180 O   0  0  0  0  0  0  0  0  0  0  0  0
  124.1400  129.8610   64.7760 O   0  0  0  0  0  0  0  0  0  0  0  0
  125.7150  129.5110   61.6610 C   0  0  0  0  0  0  0  0  0  0  0  0
  126.7800  128.8820   61.0250 C   0  0  0  0  0  0  0  0  0  0  0  0
  130.9503  127.4978   62.3821 H   0  0  0  0  0  0  0  0  0  0  0  0
  130.5980  124.5323   64.9005 H   0  0  0  0  0  0  0  0  0  0  0  0
  132.4525  125.8587   66.0793 H   0  0  0  0  0  0  0  0  0  0  0  0
  131.5417  127.3113   65.5602 H   0  0  0  0  0  0  0  0  0  0  0  0
  130.0280  128.0074   66.5811 H   0  0  0  0  0  0  0  0  0  0  0  0
  128.6638  126.8396   66.4782 H   0  0  0  0  0  0  0  0  0  0  0  0
  131.4186  127.2363   69.0309 H   0  0  0  0  0  0  0  0  0  0  0  0
  130.9620  127.5643   71.4621 H   0  0  0  0  0  0  0  0  0  0  0  0
  128.6150  127.7961   72.2619 H   0  0  0  0  0  0  0  0  0  0  0  0
  126.7177  127.7027   70.6509 H   0  0  0  0  0  0  0  0  0  0  0  0
  127.1712  127.3782   68.2187 H   0  0  0  0  0  0  0  0  0  0  0  0
  132.9405  125.8643   63.6177 H   0  0  0  0  0  0  0  0  0  0  0  0
  131.5495  122.1899   64.1813 H   0  0  0  0  0  0  0  0  0  0  0  0
  130.6498  123.2906   63.0771 H   0  0  0  0  0  0  0  0  0  0  0  0
  134.1511  122.5441   62.2996 H   0  0  0  0  0  0  0  0  0  0  0  0
  134.8739  121.1864   60.3368 H   0  0  0  0  0  0  0  0  0  0  0  0
  133.1891  119.8877   59.0399 H   0  0  0  0  0  0  0  0  0  0  0  0
  130.7853  119.9396   59.6867 H   0  0  0  0  0  0  0  0  0  0  0  0
  130.0571  121.3015   61.6467 H   0  0  0  0  0  0  0  0  0  0  0  0
  130.7909  124.4553   61.7981 H   0  0  0  0  0  0  0  0  0  0  0  0
  133.2608  124.7675   59.4853 H   0  0  0  0  0  0  0  0  0  0  0  0
  132.5363  123.5991   60.6475 H   0  0  0  0  0  0  0  0  0  0  0  0
  130.0795  123.1955   60.6622 H   0  0  0  0  0  0  0  0  0  0  0  0
  128.0185  123.0877   59.2592 H   0  0  0  0  0  0  0  0  0  0  0  0
  127.9310  124.3097   57.0921 H   0  0  0  0  0  0  0  0  0  0  0  0
  129.8810  125.6497   56.3183 H   0  0  0  0  0  0  0  0  0  0  0  0
  131.9445  125.7617   57.7191 H   0  0  0  0  0  0  0  0  0  0  0  0
  128.6929  128.1620   63.7575 H   0  0  0  0  0  0  0  0  0  0  0  0
  126.7912  129.2867   64.8882 H   0  0  0  0  0  0  0  0  0  0  0  0
  124.8727  129.8909   61.0642 H   0  0  0  0  0  0  0  0  0  0  0  0
  126.7711  128.7682   59.9309 H   0  0  0  0  0  0  0  0  0  0  0  0
  1  2  2  0
  2  3  1  0
  3  4  1  0
  4  5  1  0
  5  6  1  0
  6  7  1  0
  7  8  1  0
  8  9  1  0
  9 10  1  0
 10 11  2  0
 11 12  1  0
 12 13  2  0
 13 14  1  0
 14 15  2  0
  6 16  1  0
 16 17  1  0
 17 18  1  0
 18 19  1  0
 19 20  2  0
 20 21  1  0
 21 22  2  0
 22 23  1  0
 23 24  2  0
 16 25  1  0
 25 26  1  0
 26 27  1  0
 27 28  1  0
 28 29  2  0
 29 30  1  0
 30 31  2  0
 31 32  1  0
 32 33  2  0
  2 34  1  0
 34 35  2  0
 35 36  1  0
 36 37  2  0
 37 38  1  0
 38 39  2  0
 38 40  1  0
 37 41  1  0
 41 42  2  0
 25  4  1  0
 33 28  1  0
 42 34  1  0
 15 10  1  0
 24 19  1  0
  4 43  1  1
  6 44  1  1
  7 45  1  0
  7 46  1  0
  9 47  1  0
  9 48  1  0
 11 49  1  0
 12 50  1  0
 13 51  1  0
 14 52  1  0
 15 53  1  0
 16 54  1  6
 18 55  1  0
 18 56  1  0
 20 57  1  0
 21 58  1  0
 22 59  1  0
 23 60  1  0
 24 61  1  0
 25 62  1  6
 27 63  1  0
 27 64  1  0
 29 65  1  0
 30 66  1  0
 31 67  1  0
 32 68  1  0
 33 69  1  0
 35 70  1  0
 36 71  1  0
 41 72  1  0
 42 73  1  0
M  CHG  2  38   1  40  -1
M  END
>  <Binding energies>  (1) 
[-8.92]

>  <Ligand effiencies>  (1) 
[-0.2123809523809524]

>  <Interactions>  (1) 
["H-A:GLY:454:N:4048, V-A:GLU:543:CD:4906, V-A:ASP:366:CG:3211, V-B:GLU:543:CG:9879, V-A:HIS:456:CE1:4068, V-B:TYR:539:CE2:9848, V-A:ARG:545:CD:4921, V-A:ILE:369:CD1:3237, V-A:ILE:369:CG2:3235, V-A:ARG:545:CG:4920, V-B:GLU:543:CD:9880, V-A:ARG:545:CZ:4924, V-A:GLY:454:CA:4047, V-B:GLU:543:C:9874, V-B:ASP:366:CG:8185, V-B:TYR:539:CD2:9846, V-B:ALA:541:CB:9864, H-B:ARG:545:NH1:9899, H-B:ARG:545:NH2:9900, V-A:LEU:475:CD2:4257, H-B:GLY:454:N:9022, H-B:TYR:484:OH:9320, V-B:ARG:545:CZ:9898, H-A:TYR:484:OH:4346, H-A:ARG:545:NH2:4926, V-B:HIS:456:CE1:9042, H-B:ARG:545:NE:9896, V-A:GLU:543:CG:4905, V-A:TRP:381:CZ2:3368, V-A:TRP:381:CH2:3370, V-A:GLY:544:C:4910, V-A:GLU:543:C:4900, V-B:HIS:456:CD2:9040, V-B:GLY:544:C:9884, V-A:GLY:544:CA:4912"]

$$$$
RR8_B_Rahimova_2017
     RDKit          3D

 73 77  0  0  0  0  0  0  0  0999 V2000
  129.8720  125.0990   61.5150 O   0  0  0  0  0  0  0  0  0  0  0  0
  130.5630  125.9760   62.0430 C   0  0  0  0  0  0  0  0  0  0  0  0
  130.5030  127.3040   61.7230 O   0  0  0  0  0  0  0  0  0  0  0  0
  129.9920  127.6610   60.4620 C   0  0  2  0  0  0  0  0  0  0  0  0
  130.5370  128.8640   59.9990 O   0  0  0  0  0  0  0  0  0  0  0  0
  129.7380  129.9810   60.3850 C   0  0  2  0  0  0  0  0  0  0  0  0
  130.5900  130.9610   61.2120 C   0  0  0  0  0  0  0  0  0  0  0  0
  129.7530  131.9890   61.7260 O   0  0  0  0  0  0  0  0  0  0  0  0
  129.0350  132.7230   60.7450 C   0  0  0  0  0  0  0  0  0  0  0  0
  127.5960  132.8970   61.2030 C   0  0  0  0  0  0  0  0  0  0  0  0
  127.2910  132.8500   62.5670 C   0  0  0  0  0  0  0  0  0  0  0  0
  125.9720  132.9850   62.9930 C   0  0  0  0  0  0  0  0  0  0  0  0
  124.9610  133.1680   62.0510 C   0  0  0  0  0  0  0  0  0  0  0  0
  125.2570  133.2220   60.6910 C   0  0  0  0  0  0  0  0  0  0  0  0
  126.5760  133.0850   60.2660 C   0  0  0  0  0  0  0  0  0  0  0  0
  128.5470  129.3590   61.1220 C   0  0  1  0  0  0  0  0  0  0  0  0
  127.3610  130.1140   60.8530 O   0  0  0  0  0  0  0  0  0  0  0  0
  126.1170  129.5370   61.2580 C   0  0  0  0  0  0  0  0  0  0  0  0
  125.9200  129.5930   62.7700 C   0  0  0  0  0  0  0  0  0  0  0  0
  124.6840  129.9690   63.3020 C   0  0  0  0  0  0  0  0  0  0  0  0
  124.4970  129.9870   64.6820 C   0  0  0  0  0  0  0  0  0  0  0  0
  125.5500  129.6340   65.5250 C   0  0  0  0  0  0  0  0  0  0  0  0
  126.7860  129.2620   65.0010 C   0  0  0  0  0  0  0  0  0  0  0  0
  126.9720  129.2410   63.6200 C   0  0  0  0  0  0  0  0  0  0  0  0
  128.4940  127.9360   60.5790 C   0  0  2  0  0  0  0  0  0  0  0  0
  127.8210  127.0780   61.4970 O   0  0  0  0  0  0  0  0  0  0  0  0
  126.7150  126.3620   60.9710 C   0  0  0  0  0  0  0  0  0  0  0  0
  127.2450  125.1590   60.2100 C   0  0  0  0  0  0  0  0  0  0  0  0
  127.3770  123.9230   60.8480 C   0  0  0  0  0  0  0  0  0  0  0  0
  127.8830  122.8320   60.1460 C   0  0  0  0  0  0  0  0  0  0  0  0
  128.2540  122.9800   58.8110 C   0  0  0  0  0  0  0  0  0  0  0  0
  128.1230  124.2100   58.1690 C   0  0  0  0  0  0  0  0  0  0  0  0
  127.6170  125.3010   58.8700 C   0  0  0  0  0  0  0  0  0  0  0  0
  131.5980  125.6850   63.0910 C   0  0  0  0  0  0  0  0  0  0  0  0
  131.2930  125.7180   64.4600 C   0  0  0  0  0  0  0  0  0  0  0  0
  132.2740  125.4530   65.4090 C   0  0  0  0  0  0  0  0  0  0  0  0
  133.5860  125.1600   65.0170 C   0  0  0  0  0  0  0  0  0  0  0  0
  134.6370  124.9040   66.0330 N   0  0  0  0  0  0  0  0  0  0  0  0
  135.7430  125.4150   65.8770 O   0  0  0  0  0  0  0  0  0  0  0  0
  134.3630  124.1940   66.9970 O   0  0  0  0  0  0  0  0  0  0  0  0
  133.8890  125.1220   63.6500 C   0  0  0  0  0  0  0  0  0  0  0  0
  132.9070  125.3790   62.6990 C   0  0  0  0  0  0  0  0  0  0  0  0
  130.2331  126.8300   59.7828 H   0  0  0  0  0  0  0  0  0  0  0  0
  129.3637  130.5957   59.5531 H   0  0  0  0  0  0  0  0  0  0  0  0
  131.0655  130.4226   62.0451 H   0  0  0  0  0  0  0  0  0  0  0  0
  131.3690  131.4032   60.5736 H   0  0  0  0  0  0  0  0  0  0  0  0
  129.5003  133.7107   60.6113 H   0  0  0  0  0  0  0  0  0  0  0  0
  129.0548  132.1789   59.7892 H   0  0  0  0  0  0  0  0  0  0  0  0
  128.0943  132.7062   63.3046 H   0  0  0  0  0  0  0  0  0  0  0  0
  125.7297  132.9475   64.0653 H   0  0  0  0  0  0  0  0  0  0  0  0
  123.9181  133.2709   62.3853 H   0  0  0  0  0  0  0  0  0  0  0  0
  124.4525  133.3722   59.9560 H   0  0  0  0  0  0  0  0  0  0  0  0
  126.8152  133.1247   59.1930 H   0  0  0  0  0  0  0  0  0  0  0  0
  128.6391  129.3594   62.2181 H   0  0  0  0  0  0  0  0  0  0  0  0
  125.2970  130.0873   60.7734 H   0  0  0  0  0  0  0  0  0  0  0  0
  126.1221  128.4789   60.9574 H   0  0  0  0  0  0  0  0  0  0  0  0
  123.8590  130.2507   62.6312 H   0  0  0  0  0  0  0  0  0  0  0  0
  123.5240  130.2781   65.1045 H   0  0  0  0  0  0  0  0  0  0  0  0
  125.4033  129.6494   66.6151 H   0  0  0  0  0  0  0  0  0  0  0  0
  127.6112  128.9862   65.6740 H   0  0  0  0  0  0  0  0  0  0  0  0
  127.9453  128.9478   63.1997 H   0  0  0  0  0  0  0  0  0  0  0  0
  127.9418  127.7818   59.6402 H   0  0  0  0  0  0  0  0  0  0  0  0
  126.0648  126.0259   61.7921 H   0  0  0  0  0  0  0  0  0  0  0  0
  126.1297  127.0077   60.2998 H   0  0  0  0  0  0  0  0  0  0  0  0
  127.0820  123.8120   61.9019 H   0  0  0  0  0  0  0  0  0  0  0  0
  127.9895  121.8568   60.6436 H   0  0  0  0  0  0  0  0  0  0  0  0
  128.6543  122.1173   58.2583 H   0  0  0  0  0  0  0  0  0  0  0  0
  128.4177  124.3181   57.1147 H   0  0  0  0  0  0  0  0  0  0  0  0
  127.5099  126.2747   58.3696 H   0  0  0  0  0  0  0  0  0  0  0  0
  130.2694  125.9555   64.7852 H   0  0  0  0  0  0  0  0  0  0  0  0
  132.0169  125.4737   66.4783 H   0  0  0  0  0  0  0  0  0  0  0  0
  134.9133  124.8867   63.3254 H   0  0  0  0  0  0  0  0  0  0  0  0
  133.1610  125.3415   61.6294 H   0  0  0  0  0  0  0  0  0  0  0  0
  1  2  2  0
  2  3  1  0
  3  4  1  0
  4  5  1  0
  5  6  1  0
  6  7  1  0
  7  8  1  0
  8  9  1  0
  9 10  1  0
 10 11  2  0
 11 12  1  0
 12 13  2  0
 13 14  1  0
 14 15  2  0
  6 16  1  0
 16 17  1  0
 17 18  1  0
 18 19  1  0
 19 20  2  0
 20 21  1  0
 21 22  2  0
 22 23  1  0
 23 24  2  0
 16 25  1  0
 25 26  1  0
 26 27  1  0
 27 28  1  0
 28 29  2  0
 29 30  1  0
 30 31  2  0
 31 32  1  0
 32 33  2  0
  2 34  1  0
 34 35  2  0
 35 36  1  0
 36 37  2  0
 37 38  1  0
 38 39  2  0
 38 40  1  0
 37 41  1  0
 41 42  2  0
 25  4  1  0
 33 28  1  0
 42 34  1  0
 15 10  1  0
 24 19  1  0
  4 43  1  6
  6 44  1  6
  7 45  1  0
  7 46  1  0
  9 47  1  0
  9 48  1  0
 11 49  1  0
 12 50  1  0
 13 51  1  0
 14 52  1  0
 15 53  1  0
 16 54  1  1
 18 55  1  0
 18 56  1  0
 20 57  1  0
 21 58  1  0
 22 59  1  0
 23 60  1  0
 24 61  1  0
 25 62  1  6
 27 63  1  0
 27 64  1  0
 29 65  1  0
 30 66  1  0
 31 67  1  0
 32 68  1  0
 33 69  1  0
 35 70  1  0
 36 71  1  0
 41 72  1  0
 42 73  1  0
M  CHG  2  38   1  40  -1
M  END
>  <Binding energies>  (1) 
[-8.02]

>  <Ligand effiencies>  (1) 
[-0.19095238095238093]

>  <Interactions>  (1) 
["H-A:GLY:454:N:4048, V-A:GLU:543:CD:4906, V-A:HIS:456:CE1:4068, V-A:ARG:545:CD:4921, V-A:GLY:453:CA:4042, V-A:ARG:545:CG:4920, V-B:GLU:543:CD:9880, V-A:ARG:545:CZ:4924, V-A:GLY:454:CA:4047, V-B:PRO:540:C:9853, V-B:TYR:539:CD2:9846, V-B:PRO:540:N:9856, V-B:PRO:540:CA:9855, V-B:ALA:541:CB:9864, V-A:TYR:539:CE2:4874, H-B:ARG:545:NH2:9900, V-A:TYR:539:CD2:4872, V-B:LEU:475:CD2:9231, V-A:ALA:541:CB:4890, V-B:TYR:539:C:9839, V-A:TYR:539:C:4865, V-B:ARG:545:CZ:9898, H-A:TYR:484:OH:4346, H-A:ARG:545:NH2:4926, V-A:PRO:540:CA:4881, V-B:HIS:456:CE1:9042, V-A:PRO:540:C:4879, H-A:ALA:541:N:4889, V-B:ARG:545:CG:9894, H-A:ARG:545:NE:4922, H-A:HIS:456:ND1:4065, V-B:ARG:545:CD:9895, V-A:GLY:453:C:4040, V-A:ALA:541:CA:4888, H-A:ILE:455:N:4053, V-A:GLY:454:C:4045, V-A:ILE:455:C:4050, H-A:GLY:453:N:4043"]

$$$$
RR9_Rahimova_2017
     RDKit          3D

 64 68  0  0  0  0  0  0  0  0999 V2000
  132.2880  120.2680   60.2400 C   0  0  0  0  0  0  0  0  0  0  0  0
  130.8520  119.9040   60.6290 C   0  0  0  0  0  0  0  0  0  0  0  0
  130.5180  120.5850   61.8350 O   0  0  0  0  0  0  0  0  0  0  0  0
  130.3550  121.9570   61.8170 C   0  0  0  0  0  0  0  0  0  0  0  0
  129.5260  122.4730   60.8230 C   0  0  0  0  0  0  0  0  0  0  0  0
  129.3050  123.8430   60.7260 C   0  0  0  0  0  0  0  0  0  0  0  0
  129.9090  124.7380   61.6230 C   0  0  0  0  0  0  0  0  0  0  0  0
  129.6770  126.2160   61.5200 C   0  0  0  0  0  0  0  0  0  0  0  0
  128.4540  126.7980   61.8880 C   0  0  0  0  0  0  0  0  0  0  0  0
  128.2470  128.1860   61.8030 C   0  0  0  0  0  0  0  0  0  0  0  0
  126.9510  128.7590   62.3080 C   0  0  0  0  0  0  0  0  0  0  0  0
  125.9220  128.6570   61.6390 O   0  0  0  0  0  0  0  0  0  0  0  0
  127.0130  129.3900   63.4970 N   0  0  0  0  0  0  0  0  0  0  0  0
  125.9230  130.1370   64.1320 C   0  0  0  0  0  0  0  0  0  0  0  0
  124.5870  130.0320   63.3600 C   0  0  0  0  0  0  0  0  0  0  0  0
  124.3260  131.1720   62.3820 C   0  0  0  0  0  0  0  0  0  0  0  0
  124.4060  130.9460   61.0040 C   0  0  0  0  0  0  0  0  0  0  0  0
  124.1330  131.9810   60.1130 C   0  0  0  0  0  0  0  0  0  0  0  0
  123.7850  133.2380   60.6020 C   0  0  0  0  0  0  0  0  0  0  0  0
  123.7070  133.4710   61.9740 C   0  0  0  0  0  0  0  0  0  0  0  0
  123.9790  132.4360   62.8660 C   0  0  0  0  0  0  0  0  0  0  0  0
  129.3250  128.9510   61.2930 C   0  0  0  0  0  0  0  0  0  0  0  0
  129.6270  130.3260   60.9750 C   0  0  0  0  0  0  0  0  0  0  0  0
  128.7420  131.5280   61.0260 C   0  0  0  0  0  0  0  0  0  0  0  0
  128.4300  132.2220   59.8540 C   0  0  0  0  0  0  0  0  0  0  0  0
  127.6170  133.3520   59.9060 C   0  0  0  0  0  0  0  0  0  0  0  0
  127.1110  133.7900   61.1310 C   0  0  0  0  0  0  0  0  0  0  0  0
  126.2410  135.0320   61.1910 C   0  0  0  0  0  0  0  0  0  0  0  0
  127.4230  133.1010   62.3040 C   0  0  0  0  0  0  0  0  0  0  0  0
  128.2330  131.9700   62.2500 C   0  0  0  0  0  0  0  0  0  0  0  0
  130.8720  130.4440   60.5690 N   0  0  0  0  0  0  0  0  0  0  0  0
  131.4140  129.2160   60.5400 N   0  0  0  0  0  0  0  0  0  0  0  0
  130.5160  128.2620   60.9590 C   0  0  0  0  0  0  0  0  0  0  0  0
  130.7240  126.9500   61.0480 N   0  0  0  0  0  0  0  0  0  0  0  0
  130.7430  124.2110   62.6180 C   0  0  0  0  0  0  0  0  0  0  0  0
  130.9650  122.8390   62.7190 C   0  0  0  0  0  0  0  0  0  0  0  0
  132.8871  120.4199   61.1500 H   0  0  0  0  0  0  0  0  0  0  0  0
  132.7248  119.4522   59.6453 H   0  0  0  0  0  0  0  0  0  0  0  0
  132.2834  121.1934   59.6453 H   0  0  0  0  0  0  0  0  0  0  0  0
  130.1628  120.2101   59.8282 H   0  0  0  0  0  0  0  0  0  0  0  0
  130.7682  118.8172   60.7771 H   0  0  0  0  0  0  0  0  0  0  0  0
  129.0419  121.7909   60.1086 H   0  0  0  0  0  0  0  0  0  0  0  0
  128.6470  124.2308   59.9344 H   0  0  0  0  0  0  0  0  0  0  0  0
  127.6395  126.1539   62.2509 H   0  0  0  0  0  0  0  0  0  0  0  0
  127.8800  129.3480   64.0130 H   0  0  0  0  0  0  0  0  0  0  0  0
  125.7727  129.7420   65.1476 H   0  0  0  0  0  0  0  0  0  0  0  0
  126.2140  131.1978   64.1423 H   0  0  0  0  0  0  0  0  0  0  0  0
  124.5915  129.0889   62.7938 H   0  0  0  0  0  0  0  0  0  0  0  0
  123.7875  130.0799   64.1140 H   0  0  0  0  0  0  0  0  0  0  0  0
  124.6843  129.9518   60.6244 H   0  0  0  0  0  0  0  0  0  0  0  0
  124.1919  131.8067   59.0285 H   0  0  0  0  0  0  0  0  0  0  0  0
  123.5695  134.0553   59.8980 H   0  0  0  0  0  0  0  0  0  0  0  0
  123.4320  134.4673   62.3506 H   0  0  0  0  0  0  0  0  0  0  0  0
  123.9207  132.6137   63.9500 H   0  0  0  0  0  0  0  0  0  0  0  0
  128.8271  131.8754   58.8885 H   0  0  0  0  0  0  0  0  0  0  0  0
  127.3740  133.8985   58.9828 H   0  0  0  0  0  0  0  0  0  0  0  0
  126.0543  135.2985   62.2418 H   0  0  0  0  0  0  0  0  0  0  0  0
  126.7547  135.8642   60.6874 H   0  0  0  0  0  0  0  0  0  0  0  0
  125.2834  134.8336   60.6874 H   0  0  0  0  0  0  0  0  0  0  0  0
  127.0295  133.4511   63.2697 H   0  0  0  0  0  0  0  0  0  0  0  0
  128.4730  131.4227   63.1735 H   0  0  0  0  0  0  0  0  0  0  0  0
  132.3690  129.0830   60.2400 H   0  0  0  0  0  0  0  0  0  0  0  0
  131.2307  124.8917   63.3313 H   0  0  0  0  0  0  0  0  0  0  0  0
  131.6215  122.4469   63.5097 H   0  0  0  0  0  0  0  0  0  0  0  0
  1  2  1  0
  2  3  1  0
  3  4  1  0
  4  5  2  0
  5  6  1  0
  6  7  2  0
  7  8  1  0
  8  9  2  0
  9 10  1  0
 10 11  1  0
 11 12  2  0
 11 13  1  0
 13 14  1  0
 14 15  1  0
 15 16  1  0
 16 17  2  0
 17 18  1  0
 18 19  2  0
 19 20  1  0
 20 21  2  0
 10 22  2  0
 22 23  1  0
 23 24  1  0
 24 25  2  0
 25 26  1  0
 26 27  2  0
 27 28  1  0
 27 29  1  0
 29 30  2  0
 23 31  2  0
 31 32  1  0
 32 33  1  0
 33 34  2  0
  7 35  1  0
 35 36  2  0
 36  4  1  0
 34  8  1  0
 21 16  1  0
 33 22  1  0
 30 24  1  0
  1 37  1  0
  1 38  1  0
  1 39  1  0
  2 40  1  0
  2 41  1  0
  5 42  1  0
  6 43  1  0
  9 44  1  0
 13 45  1  0
 14 46  1  0
 14 47  1  0
 15 48  1  0
 15 49  1  0
 17 50  1  0
 18 51  1  0
 19 52  1  0
 20 53  1  0
 21 54  1  0
 25 55  1  0
 26 56  1  0
 28 57  1  0
 28 58  1  0
 28 59  1  0
 29 60  1  0
 30 61  1  0
 32 62  1  0
 35 63  1  0
 36 64  1  0
M  END
>  <Binding energies>  (1) 
[-7.9]

>  <Ligand effiencies>  (1) 
[-0.20789473684210527]

>  <Interactions>  (1) 
["V-A:GLU:543:CD:4906, V-A:ASP:366:CG:3211, V-B:TYR:539:CE2:9848, V-B:GLU:543:CD:9880, V-B:ASP:366:CG:8185, V-B:TYR:539:CD2:9846, V-B:ALA:541:CB:9864, V-A:TYR:539:CE2:4874, H-B:ARG:545:NH2:9900, V-B:GLY:454:CA:9021, V-A:TYR:539:CD2:4872, H-A:ASP:366:OD1:3212, V-A:LEU:475:CD2:4257, V-B:LEU:475:CD2:9231, V-A:ALA:541:CB:4890, V-A:TYR:539:C:4865, V-B:ARG:545:CZ:9898, H-A:GLU:543:OE1:4907, H-A:GLU:543:OE2:4908, H-A:ARG:545:NH2:4926, H-B:GLU:543:OE2:9882, V-B:ILE:369:CD1:8211, V-B:ILE:369:CG2:8209, H-A:ASP:366:OD2:3213, V-B:ILE:369:CB:8208, V-B:TRP:381:CZ2:8342, V-B:TRP:381:CH2:8344, V-A:TRP:381:CZ2:3368, V-A:TRP:381:CH2:3370, V-B:GLY:453:C:9014"]

$$$$
