1a_Ghoteimi_2023
     RDKit          3D

 40 43  0  0  0  0  0  0  0  0999 V2000
  132.3240  122.1400   63.2530 C   0  0  0  0  0  0  0  0  0  0  0  0
  133.4630  122.3700   62.2550 C   0  0  0  0  0  0  0  0  0  0  0  0
  133.7460  121.1530   61.5740 O   0  0  0  0  0  0  0  0  0  0  0  0
  133.0940  120.8220   60.4300 C   0  0  0  0  0  0  0  0  0  0  0  0
  133.5350  120.0150   59.6050 O   0  0  0  0  0  0  0  0  0  0  0  0
  131.7800  121.5310   60.2700 C   0  0  0  0  0  0  0  0  0  0  0  0
  130.5860  121.0040   60.7830 C   0  0  0  0  0  0  0  0  0  0  0  0
  129.3810  121.6830   60.6160 C   0  0  0  0  0  0  0  0  0  0  0  0
  129.3520  122.9090   59.9330 C   0  0  0  0  0  0  0  0  0  0  0  0
  128.1940  123.6760   59.7030 N   0  0  0  0  0  0  0  0  0  0  0  0
  127.0860  123.8190   60.4620 C   0  0  0  0  0  0  0  0  0  0  0  0
  126.8920  123.2860   61.5540 O   0  0  0  0  0  0  0  0  0  0  0  0
  126.0070  124.7340   59.8840 C   0  0  0  0  0  0  0  0  0  0  0  0
  126.7190  126.0240   58.8200 S   0  0  0  0  0  0  0  0  0  0  0  0
  127.5930  127.1320   59.9020 C   0  0  0  0  0  0  0  0  0  0  0  0
  128.5930  126.5430   60.5990 N   0  0  0  0  0  0  0  0  0  0  0  0
  129.3430  127.2820   61.4580 C   0  0  0  0  0  0  0  0  0  0  0  0
  130.4460  126.5620   62.1780 C   0  0  0  0  0  0  0  0  0  0  0  0
  130.3570  126.2760   63.5510 C   0  0  0  0  0  0  0  0  0  0  0  0
  131.3810  125.6070   64.2150 C   0  0  0  0  0  0  0  0  0  0  0  0
  132.5260  125.2060   63.5320 C   0  0  0  0  0  0  0  0  0  0  0  0
  133.4900  124.5470   64.2700 O   0  0  0  0  0  0  0  0  0  0  0  0
  133.9130  125.1010   65.5110 C   0  0  0  0  0  0  0  0  0  0  0  0
  132.6330  125.4880   62.1630 C   0  0  0  0  0  0  0  0  0  0  0  0
  131.6070  126.1570   61.5020 C   0  0  0  0  0  0  0  0  0  0  0  0
  129.0890  128.6480   61.6310 C   0  0  0  0  0  0  0  0  0  0  0  0
  128.0430  129.2740   60.9400 C   0  0  0  0  0  0  0  0  0  0  0  0
  127.8100  130.7270   61.1980 C   0  0  0  0  0  0  0  0  0  0  0  0
  128.5050  131.7040   60.4760 C   0  0  0  0  0  0  0  0  0  0  0  0
  128.2710  133.0560   60.7130 C   0  0  0  0  0  0  0  0  0  0  0  0
  127.3370  133.4580   61.6660 C   0  0  0  0  0  0  0  0  0  0  0  0
  127.1710  134.8190   61.8310 O   0  0  0  0  0  0  0  0  0  0  0  0
  127.1440  135.6600   60.6830 C   0  0  0  0  0  0  0  0  0  0  0  0
  126.6320  132.4810   62.3860 C   0  0  0  0  0  0  0  0  0  0  0  0
  126.8680  131.1290   62.1490 C   0  0  0  0  0  0  0  0  0  0  0  0
  127.2700  128.4990   60.0420 C   0  0  0  0  0  0  0  0  0  0  0  0
  126.1720  129.1010   59.2790 C   0  0  0  0  0  0  0  0  0  0  0  0
  125.3060  129.5770   58.6770 N   0  0  0  0  0  0  0  0  0  0  0  0
  130.5380  123.4330   59.4190 C   0  0  0  0  0  0  0  0  0  0  0  0
  131.7420  122.7530   59.5860 C   0  0  0  0  0  0  0  0  0  0  0  0
  1  2  1  0
  2  3  1  0
  3  4  1  0
  4  5  2  0
  4  6  1  0
  6  7  2  0
  7  8  1  0
  8  9  2  0
  9 10  1  0
 10 11  1  0
 11 12  2  0
 11 13  1  0
 13 14  1  0
 14 15  1  0
 15 16  2  0
 16 17  1  0
 17 18  1  0
 18 19  2  0
 19 20  1  0
 20 21  2  0
 21 22  1  0
 22 23  1  0
 21 24  1  0
 24 25  2  0
 17 26  2  0
 26 27  1  0
 27 28  1  0
 28 29  2  0
 29 30  1  0
 30 31  2  0
 31 32  1  0
 32 33  1  0
 31 34  1  0
 34 35  2  0
 27 36  2  0
 36 37  1  0
 37 38  3  0
  9 39  1  0
 39 40  2  0
 40  6  1  0
 36 15  1  0
 25 18  1  0
 35 28  1  0
M  END
>  <Binding energies>  (1) 
[-7.3]

>  <Ligand effiencies>  (1) 
[-0.17804878048780487]

>  <Interactions>  (1) 
["H-A:GLY:454:N:4048, V-A:GLU:543:CD:4906, V-A:ASP:366:CG:3211, V-A:HIS:456:CE1:4068, V-B:TYR:539:CE2:9848, V-A:ARG:545:CD:4921, V-A:GLY:453:CA:4042, V-A:ILE:369:CD1:3237, V-A:ILE:369:CG2:3235, V-A:ARG:545:CG:4920, V-B:GLU:543:CD:9880, V-A:ARG:545:CZ:4924, V-A:GLY:454:CA:4047, V-B:ASP:366:CG:8185, V-B:TYR:539:CD2:9846, V-B:PRO:540:CA:9855, H-B:ALA:541:N:9863, V-B:ALA:541:CB:9864, V-A:TYR:539:CD2:4872, V-A:TYR:484:CZ:4345, V-A:LEU:475:CD2:4257, V-B:LEU:475:CD2:9231, V-A:ALA:541:CB:4890, H-A:TYR:484:OH:4346, V-B:PRO:482:CG:9299, V-B:PRO:482:CB:9298, V-B:TRP:381:CZ2:8342, V-B:TRP:381:CH2:8344, V-A:TRP:381:CH2:3370, V-A:GLY:453:C:4040, V-B:TRP:381:CZ3:8343"]

$$$$
1b_Ghoteimi_2023
     RDKit          3D

 34 37  0  0  0  0  0  0  0  0999 V2000
  123.7680  132.4230   62.4630 C   0  0  0  0  0  0  0  0  0  0  0  0
  123.9090  131.1650   63.1120 O   0  0  0  0  0  0  0  0  0  0  0  0
  124.9320  130.3200   62.7270 C   0  0  0  0  0  0  0  0  0  0  0  0
  125.0850  130.1070   61.3580 C   0  0  0  0  0  0  0  0  0  0  0  0
  126.0880  129.2700   60.8770 C   0  0  0  0  0  0  0  0  0  0  0  0
  126.9730  128.6220   61.7520 C   0  0  0  0  0  0  0  0  0  0  0  0
  128.0530  127.7180   61.2290 C   0  0  0  0  0  0  0  0  0  0  0  0
  129.0550  127.1790   62.0430 C   0  0  0  0  0  0  0  0  0  0  0  0
  130.0380  126.3370   61.5070 C   0  0  0  0  0  0  0  0  0  0  0  0
  131.0790  125.8020   62.4340 C   0  0  0  0  0  0  0  0  0  0  0  0
  130.7920  125.6240   63.7900 C   0  0  0  0  0  0  0  0  0  0  0  0
  131.7610  125.1340   64.6600 C   0  0  0  0  0  0  0  0  0  0  0  0
  133.0380  124.8170   64.1940 C   0  0  0  0  0  0  0  0  0  0  0  0
  133.9350  124.3380   65.1290 O   0  0  0  0  0  0  0  0  0  0  0  0
  134.2360  125.1310   66.2720 C   0  0  0  0  0  0  0  0  0  0  0  0
  133.3330  125.0020   62.8350 C   0  0  0  0  0  0  0  0  0  0  0  0
  132.3610  125.4930   61.9680 C   0  0  0  0  0  0  0  0  0  0  0  0
  129.9850  126.0350   60.1240 C   0  0  0  0  0  0  0  0  0  0  0  0
  130.9320  125.0850   59.5330 C   0  0  0  0  0  0  0  0  0  0  0  0
  131.6800  124.3340   59.0670 N   0  0  0  0  0  0  0  0  0  0  0  0
  128.9600  126.6290   59.3540 C   0  0  0  0  0  0  0  0  0  0  0  0
  128.7440  126.3710   57.6050 S   0  0  0  0  0  0  0  0  0  0  0  0
  128.6600  124.5730   57.3090 C   0  0  0  0  0  0  0  0  0  0  0  0
  127.8780  123.7770   58.3630 C   0  0  0  0  0  0  0  0  0  0  0  0
  127.9640  122.5480   58.4150 O   0  0  0  0  0  0  0  0  0  0  0  0
  127.1180  124.5300   59.1890 N   0  0  0  0  0  0  0  0  0  0  0  0
  126.3110  124.0850   60.2290 C   0  0  0  0  0  0  0  0  0  0  0  0
  124.9180  124.0930   60.1700 C   0  0  0  0  0  0  0  0  0  0  0  0
  124.5060  123.5810   61.3790 C   0  0  0  0  0  0  0  0  0  0  0  0
  125.5940  123.2790   62.1270 O   0  0  0  0  0  0  0  0  0  0  0  0
  126.7320  123.6020   61.3870 N   0  0  0  0  0  0  0  0  0  0  0  0
  128.0130  127.4290   59.9020 N   0  0  0  0  0  0  0  0  0  0  0  0
  126.8090  128.8420   63.1290 C   0  0  0  0  0  0  0  0  0  0  0  0
  125.8060  129.6770   63.6140 C   0  0  0  0  0  0  0  0  0  0  0  0
  1  2  1  0
  2  3  1  0
  3  4  2  0
  4  5  1  0
  5  6  2  0
  6  7  1  0
  7  8  2  0
  8  9  1  0
  9 10  1  0
 10 11  2  0
 11 12  1  0
 12 13  2  0
 13 14  1  0
 14 15  1  0
 13 16  1  0
 16 17  2  0
  9 18  2  0
 18 19  1  0
 19 20  3  0
 18 21  1  0
 21 22  1  0
 22 23  1  0
 23 24  1  0
 24 25  2  0
 24 26  1  0
 26 27  1  0
 27 28  1  0
 28 29  2  0
 29 30  1  0
 30 31  1  0
 21 32  2  0
  6 33  1  0
 33 34  2  0
 34  3  1  0
 32  7  1  0
 17 10  1  0
 31 27  2  0
M  END
>  <Binding energies>  (2) 
[-7.06]

>  <Ligand effiencies>  (2) 
[-0.2017142857142857]

>  <Interactions>  (2) 
["H-A:GLY:454:N:4048, V-A:HIS:456:CE1:4068, V-A:ARG:545:CD:4921, V-A:ARG:545:CG:4920, V-B:GLU:543:CD:9880, V-A:ARG:545:CZ:4924, V-B:ASN:362:CB:8148, V-B:PRO:540:CB:9857, V-B:ASP:366:CG:8185, V-B:PRO:540:C:9853, V-B:PRO:540:CA:9855, H-B:ALA:541:N:9863, V-B:GLY:454:CA:9021, V-B:LEU:475:CD2:9231, H-B:GLY:454:N:9022, V-B:ARG:545:CZ:9898, H-A:TYR:484:OH:4346, V-B:ILE:369:CD1:8211, H-B:ASP:366:OD2:8187, V-A:ARG:545:CB:4919"]

$$$$
1c_Ghoteimi_2023
     RDKit          3D

 34 37  0  0  0  0  0  0  0  0999 V2000
  123.7950  130.0000   66.1010 C   0  0  0  0  0  0  0  0  0  0  0  0
  124.1570  130.6050   64.8640 O   0  0  0  0  0  0  0  0  0  0  0  0
  125.1240  130.0080   64.0780 C   0  0  0  0  0  0  0  0  0  0  0  0
  124.8560  129.9240   62.7140 C   0  0  0  0  0  0  0  0  0  0  0  0
  125.7740  129.3360   61.8480 C   0  0  0  0  0  0  0  0  0  0  0  0
  126.9870  128.8130   62.3210 C   0  0  0  0  0  0  0  0  0  0  0  0
  127.9770  128.1740   61.3900 C   0  0  0  0  0  0  0  0  0  0  0  0
  128.2630  126.8050   61.4150 C   0  0  0  0  0  0  0  0  0  0  0  0
  129.1750  126.2490   60.5090 C   0  0  0  0  0  0  0  0  0  0  0  0
  129.3810  124.7710   60.5480 C   0  0  0  0  0  0  0  0  0  0  0  0
  128.6890  123.9330   59.6690 C   0  0  0  0  0  0  0  0  0  0  0  0
  128.8660  122.5540   59.7210 C   0  0  0  0  0  0  0  0  0  0  0  0
  129.7340  121.9860   60.6540 C   0  0  0  0  0  0  0  0  0  0  0  0
  129.8470  120.6090   60.6330 O   0  0  0  0  0  0  0  0  0  0  0  0
  131.1430  120.0190   60.6200 C   0  0  0  0  0  0  0  0  0  0  0  0
  130.4260  122.8240   61.5420 C   0  0  0  0  0  0  0  0  0  0  0  0
  130.2470  124.2040   61.4880 C   0  0  0  0  0  0  0  0  0  0  0  0
  129.8200  127.1100   59.5900 C   0  0  0  0  0  0  0  0  0  0  0  0
  130.8100  126.5950   58.6370 C   0  0  0  0  0  0  0  0  0  0  0  0
  131.5900  126.1870   57.8860 N   0  0  0  0  0  0  0  0  0  0  0  0
  129.4720  128.4760   59.6080 C   0  0  0  0  0  0  0  0  0  0  0  0
  130.0750  129.6380   58.4030 S   0  0  0  0  0  0  0  0  0  0  0  0
  131.1260  130.7880   59.3480 C   0  0  0  0  0  0  0  0  0  0  0  0
  130.3380  131.5390   60.4270 C   0  0  0  0  0  0  0  0  0  0  0  0
  130.9010  131.8730   61.4700 O   0  0  0  0  0  0  0  0  0  0  0  0
  129.0540  131.8190   60.1110 N   0  0  0  0  0  0  0  0  0  0  0  0
  128.1770  132.6120   60.8340 C   0  0  0  0  0  0  0  0  0  0  0  0
  127.5390  133.6880   60.4270 N   0  0  0  0  0  0  0  0  0  0  0  0
  126.7520  134.1690   61.3710 C   0  0  0  0  0  0  0  0  0  0  0  0
  126.7410  133.4730   62.5760 C   0  0  0  0  0  0  0  0  0  0  0  0
  127.8250  132.1190   62.4590 S   0  0  0  0  0  0  0  0  0  0  0  0
  128.5700  128.9890   60.4790 N   0  0  0  0  0  0  0  0  0  0  0  0
  127.2490  128.9100   63.6950 C   0  0  0  0  0  0  0  0  0  0  0  0
  126.3340  129.4950   64.5650 C   0  0  0  0  0  0  0  0  0  0  0  0
  1  2  1  0
  2  3  1  0
  3  4  2  0
  4  5  1  0
  5  6  2  0
  6  7  1  0
  7  8  2  0
  8  9  1  0
  9 10  1  0
 10 11  2  0
 11 12  1  0
 12 13  2  0
 13 14  1  0
 14 15  1  0
 13 16  1  0
 16 17  2  0
  9 18  2  0
 18 19  1  0
 19 20  3  0
 18 21  1  0
 21 22  1  0
 22 23  1  0
 23 24  1  0
 24 25  2  0
 24 26  1  0
 26 27  1  0
 27 28  2  0
 28 29  1  0
 29 30  2  0
 30 31  1  0
 21 32  2  0
  6 33  1  0
 33 34  2  0
 34  3  1  0
 32  7  1  0
 17 10  1  0
 31 27  1  0
M  END
>  <Binding energies>  (3) 
[-6.49]

>  <Ligand effiencies>  (3) 
[-0.18542857142857144]

>  <Interactions>  (3) 
["V-A:GLU:543:CD:4906, V-A:ASP:366:CG:3211, V-B:GLU:543:CD:9880, V-B:ASP:366:CG:8185, V-B:TYR:539:CD2:9846, V-B:ALA:541:CB:9864, V-B:GLY:454:CA:9021, V-A:TYR:539:CD2:4872, V-A:LEU:475:CD2:4257, V-B:LEU:475:CD2:9231, V-A:ALA:541:CB:4890, H-B:GLY:454:N:9022, V-B:TYR:539:C:9839, H-B:TYR:484:OH:9320, V-B:ARG:545:CZ:9898, V-A:PRO:540:CA:4881, V-B:HIS:456:CE1:9042, H-A:ALA:541:N:4889, V-B:ARG:545:CG:9894, V-A:TRP:381:CZ2:3368, V-A:TRP:381:CH2:3370, V-B:GLY:453:CA:9016, V-B:GLY:453:C:9014, V-B:ARG:545:CD:9895"]

$$$$
1d_Ghoteimi_2023
     RDKit          3D

 30 32  0  0  0  0  0  0  0  0999 V2000
  123.9430  124.3110   61.0150 C   0  0  0  0  0  0  0  0  0  0  0  0
  125.0680  123.5030   61.3240 O   0  0  0  0  0  0  0  0  0  0  0  0
  126.2070  123.6110   60.6080 C   0  0  0  0  0  0  0  0  0  0  0  0
  127.3290  123.2480   60.9640 O   0  0  0  0  0  0  0  0  0  0  0  0
  125.9760  124.2620   59.2470 C   0  0  0  0  0  0  0  0  0  0  0  0
  127.5040  125.1350   58.7920 S   0  0  0  0  0  0  0  0  0  0  0  0
  128.1460  125.8720   60.2790 C   0  0  0  0  0  0  0  0  0  0  0  0
  127.3940  126.8970   60.7480 N   0  0  0  0  0  0  0  0  0  0  0  0
  127.7710  127.5520   61.8760 C   0  0  0  0  0  0  0  0  0  0  0  0
  126.8810  128.6720   62.3320 C   0  0  0  0  0  0  0  0  0  0  0  0
  125.9590  129.2710   61.4580 C   0  0  0  0  0  0  0  0  0  0  0  0
  125.1390  130.3130   61.8810 C   0  0  0  0  0  0  0  0  0  0  0  0
  125.2150  130.7900   63.1870 C   0  0  0  0  0  0  0  0  0  0  0  0
  124.3660  131.8290   63.5180 O   0  0  0  0  0  0  0  0  0  0  0  0
  123.9520  132.7360   62.5020 C   0  0  0  0  0  0  0  0  0  0  0  0
  126.1300  130.2020   64.0710 C   0  0  0  0  0  0  0  0  0  0  0  0
  126.9480  129.1590   63.6450 C   0  0  0  0  0  0  0  0  0  0  0  0
  128.9270  127.1720   62.5680 C   0  0  0  0  0  0  0  0  0  0  0  0
  129.7300  126.1260   62.0970 C   0  0  0  0  0  0  0  0  0  0  0  0
  130.9550  125.7780   62.8820 C   0  0  0  0  0  0  0  0  0  0  0  0
  130.9150  125.7660   64.2790 C   0  0  0  0  0  0  0  0  0  0  0  0
  132.0510  125.4420   65.0160 C   0  0  0  0  0  0  0  0  0  0  0  0
  133.2460  125.1200   64.3730 C   0  0  0  0  0  0  0  0  0  0  0  0
  134.3230  124.8200   65.1840 O   0  0  0  0  0  0  0  0  0  0  0  0
  134.2490  125.1140   66.5750 C   0  0  0  0  0  0  0  0  0  0  0  0
  133.2870  125.1190   62.9700 C   0  0  0  0  0  0  0  0  0  0  0  0
  132.1490  125.4420   62.2360 C   0  0  0  0  0  0  0  0  0  0  0  0
  129.3450  125.4640   60.9050 C   0  0  0  0  0  0  0  0  0  0  0  0
  130.2020  124.4340   60.3110 C   0  0  0  0  0  0  0  0  0  0  0  0
  130.8800  123.6210   59.8430 N   0  0  0  0  0  0  0  0  0  0  0  0
  1  2  1  0
  2  3  1  0
  3  4  2  0
  3  5  1  0
  5  6  1  0
  6  7  1  0
  7  8  2  0
  8  9  1  0
  9 10  1  0
 10 11  2  0
 11 12  1  0
 12 13  2  0
 13 14  1  0
 14 15  1  0
 13 16  1  0
 16 17  2  0
  9 18  2  0
 18 19  1  0
 19 20  1  0
 20 21  2  0
 21 22  1  0
 22 23  2  0
 23 24  1  0
 24 25  1  0
 23 26  1  0
 26 27  2  0
 19 28  2  0
 28 29  1  0
 29 30  3  0
 28  7  1  0
 17 10  1  0
 27 20  1  0
M  END
>  <Binding energies>  (4) 
[-6.21]

>  <Ligand effiencies>  (4) 
[-0.207]

>  <Interactions>  (4) 
["H-A:GLY:454:N:4048, V-A:GLU:543:CD:4906, V-A:HIS:456:CE1:4068, V-A:ARG:545:CD:4921, V-A:ARG:545:CG:4920, V-B:GLU:543:CD:9880, V-A:ARG:545:CZ:4924, V-B:ASN:362:CB:8148, V-B:PRO:540:CB:9857, V-B:ASP:366:CG:8185, V-B:ASN:362:C:8144, V-B:PRO:540:C:9853, V-B:PRO:540:CA:9855, H-B:ALA:541:N:9863, H-B:ARG:545:NH2:9900, V-B:GLY:454:CA:9021, V-A:TYR:484:CZ:4345, V-B:LEU:475:CD2:9231, H-B:GLY:454:N:9022, H-B:TYR:484:OH:9320, V-B:ARG:545:CZ:9898, H-A:TYR:484:OH:4346, V-B:ILE:369:CD1:8211, H-A:ARG:545:NE:4922, V-A:ARG:545:CB:4919, V-A:ILE:455:C:4050, V-B:ASN:362:CA:8146"]

$$$$
1j_Grossjean_2025
     RDKit          3D

 20 21  0  0  0  0  0  0  0  0999 V2000
  128.9000  132.5240   73.8960 C   0  0  0  0  0  0  0  0  0  0  0  0
  127.8710  131.4260   74.0930 C   0  0  0  0  0  0  0  0  0  0  0  0
  126.7930  131.5850   74.9610 C   0  0  0  0  0  0  0  0  0  0  0  0
  125.8680  130.5440   75.0930 C   0  0  0  0  0  0  0  0  0  0  0  0
  124.6840  130.7490   76.0380 C   0  0  0  0  0  0  0  0  0  0  0  0
  126.0540  129.3560   74.3510 C   0  0  0  0  0  0  0  0  0  0  0  0
  125.0690  128.2750   74.4330 C   0  0  0  0  0  0  0  0  0  0  0  0
  124.2890  127.4220   74.5000 N   0  0  0  0  0  0  0  0  0  0  0  0
  127.1920  129.2720   73.5140 C   0  0  0  0  0  0  0  0  0  0  0  0
  127.5820  127.8540   72.5120 S   0  0  0  0  0  0  0  0  0  0  0  0
  129.3770  127.8560   72.2270 C   0  0  0  0  0  0  0  0  0  0  0  0
  130.0540  126.6160   72.8140 C   0  0  0  0  0  0  0  0  0  0  0  0
  129.4790  125.5290   72.7540 O   0  0  0  0  0  0  0  0  0  0  0  0
  131.2690  126.8230   73.3680 N   0  0  0  0  0  0  0  0  0  0  0  0
  132.0780  125.8690   73.9690 C   0  0  0  0  0  0  0  0  0  0  0  0
  131.7210  124.7010   74.4590 N   0  0  0  0  0  0  0  0  0  0  0  0
  132.7530  124.0490   74.9570 C   0  0  0  0  0  0  0  0  0  0  0  0
  133.9850  124.6920   74.8740 C   0  0  0  0  0  0  0  0  0  0  0  0
  133.7680  126.2330   74.1000 S   0  0  0  0  0  0  0  0  0  0  0  0
  128.0710  130.2960   73.3760 N   0  0  0  0  0  0  0  0  0  0  0  0
  1  2  1  0
  2  3  2  0
  3  4  1  0
  4  5  1  0
  4  6  2  0
  6  7  1  0
  7  8  3  0
  6  9  1  0
  9 10  1  0
 10 11  1  0
 11 12  1  0
 12 13  2  0
 12 14  1  0
 14 15  1  0
 15 16  2  0
 16 17  1  0
 17 18  2  0
 18 19  1  0
  9 20  2  0
 20  2  1  0
 19 15  1  0
M  END
>  <Binding energies>  (5) 
[-8.12]

>  <Ligand effiencies>  (5) 
[-0.3866666666666666]

>  <Interactions>  (5) 
["V-B:LYS:547:CE:9922, V-B:HIS:456:CG:9038, H-B:LYS:547:NZ:9923, V-B:LYS:471:CE:9192, V-B:VAL:458:CG2:9059, H-A:LYS:547:NZ:4949, V-B:HIS:456:CB:9037, V-A:GLY:544:C:4910, V-B:HIS:456:C:9033, V-B:HIS:456:CD2:9040, V-B:LYS:471:CG:9190, V-B:LYS:471:CD:9191, V-A:HIS:456:CB:4063, V-A:LYS:547:CE:4948, V-A:HIS:456:CG:4064, V-A:HIS:456:C:4059, V-A:VAL:457:C:4071, V-A:HIS:456:CA:4061, V-A:VAL:458:CG2:4085, V-A:LYS:471:CE:4218, H-A:GLY:544:O:4911, V-B:ASP:473:CG:9212, V-B:LYS:547:CD:9921"]

$$$$
1o_Grossjean_2025
     RDKit          3D

 26 27  0  0  0  0  0  0  0  0999 V2000
  129.3620  117.4060   74.9110 C   0  0  0  0  0  0  0  0  0  0  0  0
  129.0040  118.7090   74.4710 O   0  0  0  0  0  0  0  0  0  0  0  0
  129.4390  119.8130   75.1310 C   0  0  0  0  0  0  0  0  0  0  0  0
  129.8150  119.7990   76.3070 O   0  0  0  0  0  0  0  0  0  0  0  0
  129.4190  121.0550   74.2870 C   0  0  0  0  0  0  0  0  0  0  0  0
  130.3280  122.1040   74.4890 C   0  0  0  0  0  0  0  0  0  0  0  0
  130.2850  123.2420   73.6870 C   0  0  0  0  0  0  0  0  0  0  0  0
  129.3330  123.3570   72.6730 C   0  0  0  0  0  0  0  0  0  0  0  0
  129.3850  124.5450   71.9170 N   0  0  0  0  0  0  0  0  0  0  0  0
  129.8160  125.7770   72.2690 C   0  0  0  0  0  0  0  0  0  0  0  0
  130.3040  126.0730   73.3590 O   0  0  0  0  0  0  0  0  0  0  0  0
  129.6950  126.8540   71.1810 C   0  0  0  0  0  0  0  0  0  0  0  0
  128.9170  128.1020   71.6410 C   0  0  0  0  0  0  0  0  0  0  0  0
  127.5680  127.7430   72.8050 S   0  0  0  0  0  0  0  0  0  0  0  0
  127.1220  129.2540   73.6370 C   0  0  0  0  0  0  0  0  0  0  0  0
  128.0000  130.2670   73.4230 N   0  0  0  0  0  0  0  0  0  0  0  0
  127.7600  131.4690   73.9990 C   0  0  0  0  0  0  0  0  0  0  0  0
  128.7760  132.5560   73.7030 C   0  0  0  0  0  0  0  0  0  0  0  0
  126.6540  131.7050   74.8120 C   0  0  0  0  0  0  0  0  0  0  0  0
  125.7570  130.6610   75.0600 C   0  0  0  0  0  0  0  0  0  0  0  0
  124.5600  130.9410   75.9670 C   0  0  0  0  0  0  0  0  0  0  0  0
  125.9890  129.3960   74.4730 C   0  0  0  0  0  0  0  0  0  0  0  0
  125.0930  128.2750   74.7690 C   0  0  0  0  0  0  0  0  0  0  0  0
  124.3830  127.3920   75.0030 N   0  0  0  0  0  0  0  0  0  0  0  0
  128.4240  122.3090   72.4620 C   0  0  0  0  0  0  0  0  0  0  0  0
  128.4700  121.1730   73.2640 C   0  0  0  0  0  0  0  0  0  0  0  0
  1  2  1  0
  2  3  1  0
  3  4  2  0
  3  5  1  0
  5  6  2  0
  6  7  1  0
  7  8  2  0
  8  9  1  0
  9 10  1  0
 10 11  2  0
 10 12  1  0
 12 13  1  0
 13 14  1  0
 14 15  1  0
 15 16  2  0
 16 17  1  0
 17 18  1  0
 17 19  2  0
 19 20  1  0
 20 21  1  0
 20 22  2  0
 22 23  1  0
 23 24  3  0
  8 25  1  0
 25 26  2  0
 26  5  1  0
 22 15  1  0
M  END
>  <Binding energies>  (6) 
[-7.9]

>  <Ligand effiencies>  (6) 
[-0.2925925925925926]

>  <Interactions>  (6) 
["V-A:HIS:456:CE1:4068, V-A:HIS:456:CD2:4066, V-B:LYS:547:CE:9922, V-B:GLU:543:C:9874, V-B:LYS:547:CG:9920, V-B:GLY:544:CA:9886, V-B:HIS:456:CG:9038, H-B:LYS:547:NZ:9923, V-B:LYS:471:CE:9192, V-B:VAL:458:CG2:9059, H-A:LYS:547:NZ:4949, V-B:HIS:456:CB:9037, V-B:HIS:456:C:9033, H-A:HIS:456:NE2:4069, H-B:GLU:543:O:9875, V-B:HIS:456:CD2:9040, V-B:LYS:471:CG:9190, V-B:LYS:471:CD:9191, V-A:LYS:547:CE:4948, V-A:ASP:473:CG:4238, V-A:HIS:456:CG:4064, V-A:LYS:471:CE:4218, V-A:TYR:484:C:4335, V-B:ASP:473:CG:9212, H-A:LYS:471:NZ:4219, V-B:LYS:547:CD:9921"]

$$$$
1p_Grossjean_2025
     RDKit          3D

 21 22  0  0  0  0  0  0  0  0999 V2000
  129.8240  122.0730   73.6030 C   0  0  0  0  0  0  0  0  0  0  0  0
  130.8480  123.1670   73.8400 C   0  0  0  0  0  0  0  0  0  0  0  0
  132.0480  122.9110   74.5010 C   0  0  0  0  0  0  0  0  0  0  0  0
  132.9500  123.9610   74.7040 C   0  0  0  0  0  0  0  0  0  0  0  0
  134.2520  123.6610   75.4440 C   0  0  0  0  0  0  0  0  0  0  0  0
  132.6270  125.2510   74.2260 C   0  0  0  0  0  0  0  0  0  0  0  0
  133.5320  126.3760   74.4670 C   0  0  0  0  0  0  0  0  0  0  0  0
  134.2490  127.2650   74.6580 N   0  0  0  0  0  0  0  0  0  0  0  0
  131.3970  125.4140   73.5440 C   0  0  0  0  0  0  0  0  0  0  0  0
  130.8420  126.9640   72.8720 S   0  0  0  0  0  0  0  0  0  0  0  0
  129.8880  126.5760   71.3760 C   0  0  0  0  0  0  0  0  0  0  0  0
  128.8650  127.6630   70.9920 C   0  0  0  0  0  0  0  0  0  0  0  0
  128.4100  128.5240   72.1800 C   0  0  0  0  0  0  0  0  0  0  0  0
  129.1220  129.4540   72.5650 O   0  0  0  0  0  0  0  0  0  0  0  0
  127.2160  128.1910   72.7200 N   0  0  0  0  0  0  0  0  0  0  0  0
  126.5780  128.8020   73.7910 C   0  0  0  0  0  0  0  0  0  0  0  0
  125.2540  128.5370   74.1420 C   0  0  0  0  0  0  0  0  0  0  0  0
  125.0080  129.3310   75.2390 C   0  0  0  0  0  0  0  0  0  0  0  0
  126.1240  130.0390   75.5320 O   0  0  0  0  0  0  0  0  0  0  0  0
  127.1120  129.6960   74.6070 N   0  0  0  0  0  0  0  0  0  0  0  0
  130.5190  124.3930   73.3720 N   0  0  0  0  0  0  0  0  0  0  0  0
  1  2  1  0
  2  3  2  0
  3  4  1  0
  4  5  1  0
  4  6  2  0
  6  7  1  0
  7  8  3  0
  6  9  1  0
  9 10  1  0
 10 11  1  0
 11 12  1  0
 12 13  1  0
 13 14  2  0
 13 15  1  0
 15 16  1  0
 16 17  1  0
 17 18  2  0
 18 19  1  0
 19 20  1  0
  9 21  2  0
 21  2  1  0
 20 16  2  0
M  END
>  <Binding energies>  (7) 
[-8.22]

>  <Ligand effiencies>  (7) 
[-0.37363636363636366]

>  <Interactions>  (7) 
["V-A:HIS:456:CE1:4068, V-A:HIS:456:CD2:4066, V-B:LYS:547:CE:9922, V-B:HIS:456:CG:9038, H-B:LYS:547:NZ:9923, V-B:VAL:458:CG2:9059, H-A:LYS:547:NZ:4949, V-B:HIS:456:CB:9037, V-B:HIS:456:CA:9035, V-B:HIS:456:C:9033, V-B:HIS:456:CD2:9040, V-B:GLY:544:C:9884, V-A:LYS:471:CD:4217, V-A:HIS:456:CB:4063, V-A:ASP:473:CG:4238, V-A:HIS:456:CG:4064, V-A:HIS:456:C:4059, V-A:LYS:471:CG:4216, V-A:VAL:458:CG2:4085, V-A:LYS:471:CE:4218, V-A:LYS:547:CD:4947, H-B:GLY:544:O:9885, V-A:LYS:547:CG:4946"]

$$$$
2a_Ghoteimi_2023
     RDKit          3D

 48 53  0  0  0  0  0  0  0  0999 V2000
  129.4310  123.8400   58.7600 C   0  0  0  0  0  0  0  0  0  0  0  0
  129.3410  124.9220   57.6800 C   0  0  0  0  0  0  0  0  0  0  0  0
  129.5100  126.2000   58.2780 O   0  0  0  0  0  0  0  0  0  0  0  0
  128.4690  127.0650   58.3920 C   0  0  0  0  0  0  0  0  0  0  0  0
  127.7700  127.4170   57.4370 O   0  0  0  0  0  0  0  0  0  0  0  0
  128.2480  127.5440   59.7980 C   0  0  0  0  0  0  0  0  0  0  0  0
  127.7280  126.7060   60.7960 C   0  0  0  0  0  0  0  0  0  0  0  0
  127.5380  127.1820   62.0890 C   0  0  0  0  0  0  0  0  0  0  0  0
  127.8650  128.4990   62.4160 C   0  0  0  0  0  0  0  0  0  0  0  0
  127.6270  128.8750   63.7520 N   0  0  0  0  0  0  0  0  0  0  0  0
  126.4760  129.2450   64.3550 C   0  0  0  0  0  0  0  0  0  0  0  0
  125.3880  129.3670   63.7910 O   0  0  0  0  0  0  0  0  0  0  0  0
  126.5980  129.5660   65.8500 C   0  0  0  0  0  0  0  0  0  0  0  0
  126.1410  128.1910   66.9550 S   0  0  0  0  0  0  0  0  0  0  0  0
  127.6760  127.4470   67.4550 C   0  0  0  0  0  0  0  0  0  0  0  0
  128.4650  127.0720   66.4210 N   0  0  0  0  0  0  0  0  0  0  0  0
  129.6610  126.4830   66.6740 C   0  0  0  0  0  0  0  0  0  0  0  0
  130.4750  126.0880   65.4840 C   0  0  0  0  0  0  0  0  0  0  0  0
  131.7440  125.5140   65.6310 C   0  0  0  0  0  0  0  0  0  0  0  0
  132.5020  125.1590   64.5190 C   0  0  0  0  0  0  0  0  0  0  0  0
  132.0180  125.3560   63.2180 C   0  0  0  0  0  0  0  0  0  0  0  0
  132.8030  125.0220   62.1100 N   0  0  0  0  0  0  0  0  0  0  0  0
  132.1940  124.5780   60.8400 C   0  0  0  0  0  0  0  0  0  0  0  0
  133.1650  124.6040   59.6410 C   0  0  0  0  0  0  0  0  0  0  0  0
  134.3270  123.8470   59.9390 O   0  0  0  0  0  0  0  0  0  0  0  0
  135.0130  124.3730   61.0630 C   0  0  0  0  0  0  0  0  0  0  0  0
  134.1000  124.3410   62.3070 C   0  0  0  0  0  0  0  0  0  0  0  0
  130.7500  125.9430   63.0760 C   0  0  0  0  0  0  0  0  0  0  0  0
  129.9910  126.2960   64.1880 C   0  0  0  0  0  0  0  0  0  0  0  0
  130.0980  126.2680   67.9840 C   0  0  0  0  0  0  0  0  0  0  0  0
  129.2980  126.6480   69.0700 C   0  0  0  0  0  0  0  0  0  0  0  0
  129.8230  126.3830   70.4440 C   0  0  0  0  0  0  0  0  0  0  0  0
  131.1580  126.6570   70.7510 C   0  0  0  0  0  0  0  0  0  0  0  0
  131.6620  126.3950   72.0210 C   0  0  0  0  0  0  0  0  0  0  0  0
  130.8450  125.8540   73.0250 C   0  0  0  0  0  0  0  0  0  0  0  0
  131.3360  125.5670   74.3020 N   0  0  0  0  0  0  0  0  0  0  0  0
  132.0590  126.6140   75.0510 C   0  0  0  0  0  0  0  0  0  0  0  0
  132.1940  126.3030   76.5570 C   0  0  0  0  0  0  0  0  0  0  0  0
  132.8100  125.0370   76.7390 O   0  0  0  0  0  0  0  0  0  0  0  0
  132.0530  123.9950   76.1420 C   0  0  0  0  0  0  0  0  0  0  0  0
  131.9100  124.2460   74.6270 C   0  0  0  0  0  0  0  0  0  0  0  0
  129.5090  125.5710   72.7060 C   0  0  0  0  0  0  0  0  0  0  0  0
  129.0050  125.8310   71.4350 C   0  0  0  0  0  0  0  0  0  0  0  0
  128.0490  127.2610   68.8050 C   0  0  0  0  0  0  0  0  0  0  0  0
  127.1940  127.7310   69.8990 C   0  0  0  0  0  0  0  0  0  0  0  0
  126.5190  128.0990   70.7650 N   0  0  0  0  0  0  0  0  0  0  0  0
  128.3770  129.3460   61.4220 C   0  0  0  0  0  0  0  0  0  0  0  0
  128.5690  128.8680   60.1280 C   0  0  0  0  0  0  0  0  0  0  0  0
  1  2  1  0
  2  3  1  0
  3  4  1  0
  4  5  2  0
  4  6  1  0
  6  7  2  0
  7  8  1  0
  8  9  2  0
  9 10  1  0
 10 11  1  0
 11 12  2  0
 11 13  1  0
 13 14  1  0
 14 15  1  0
 15 16  2  0
 16 17  1  0
 17 18  1  0
 18 19  2  0
 19 20  1  0
 20 21  2  0
 21 22  1  0
 22 23  1  0
 23 24  1  0
 24 25  1  0
 25 26  1  0
 26 27  1  0
 21 28  1  0
 28 29  2  0
 17 30  2  0
 30 31  1  0
 31 32  1  0
 32 33  2  0
 33 34  1  0
 34 35  2  0
 35 36  1  0
 36 37  1  0
 37 38  1  0
 38 39  1  0
 39 40  1  0
 40 41  1  0
 35 42  1  0
 42 43  2  0
 31 44  2  0
 44 45  1  0
 45 46  3  0
  9 47  1  0
 47 48  2  0
 48  6  1  0
 44 15  1  0
 29 18  1  0
 43 32  1  0
 27 22  1  0
 41 36  1  0
M  END
>  <Binding energies>  (8) 
[1.26]

>  <Ligand effiencies>  (8) 
[0.025714285714285714]

>  <Interactions>  (8) 
["V-A:GLU:543:CD:4906, V-A:ASP:366:CG:3211, V-B:GLU:543:CG:9879, V-A:HIS:456:CE1:4068, V-A:ASP:366:CB:3210, V-B:TYR:539:CE2:9848, V-A:GLY:453:CA:4042, V-A:ILE:369:CD1:3237, V-A:ARG:545:CG:4920, V-B:GLU:543:CD:9880, V-B:GLU:543:CB:9878, V-A:ARG:545:CZ:4924, V-A:GLY:454:CA:4047, V-A:HIS:456:CD2:4066, V-B:LYS:547:CE:9922, V-B:GLU:543:C:9874, V-B:GLY:544:CA:9886, H-B:ARG:545:NH2:9900, V-B:ARG:545:CZ:9898, H-A:GLU:543:OE1:4907, H-A:GLU:543:OE2:4908, H-B:GLU:543:OE2:9882, V-B:HIS:456:CE1:9042, V-B:ARG:545:CG:9894, H-B:ARG:545:NE:9896, V-B:HIS:456:CG:9038, V-A:GLY:544:C:4910, V-B:HIS:456:CD2:9040, V-B:GLY:544:C:9884, V-A:LYS:471:CD:4217, V-A:HIS:456:CB:4063, V-A:LYS:547:CE:4948, V-A:HIS:456:CG:4064, V-A:VAL:458:CG2:4085, V-A:LYS:471:CE:4218, V-A:LYS:547:CD:4947, V-A:GLY:453:C:4040, H-B:ARG:545:N:9892, H-B:HIS:456:ND1:9039, V-B:ARG:545:CA:9891"]

$$$$
2aa_Ghoteimi_2023
     RDKit          3D

 48 53  0  0  0  0  0  0  0  0999 V2000
  123.8980  135.1730   61.0380 C   0  0  0  0  0  0  0  0  0  0  0  0
  124.6790  133.9170   60.6390 C   0  0  0  0  0  0  0  0  0  0  0  0
  126.0080  134.2800   60.2890 O   0  0  0  0  0  0  0  0  0  0  0  0
  127.0060  134.2700   61.2110 C   0  0  0  0  0  0  0  0  0  0  0  0
  127.8990  135.1230   61.2560 O   0  0  0  0  0  0  0  0  0  0  0  0
  126.9060  133.1270   62.1800 C   0  0  0  0  0  0  0  0  0  0  0  0
  126.8030  131.7970   61.7470 C   0  0  0  0  0  0  0  0  0  0  0  0
  126.7160  130.7580   62.6700 C   0  0  0  0  0  0  0  0  0  0  0  0
  126.7220  131.0270   64.0400 C   0  0  0  0  0  0  0  0  0  0  0  0
  126.6330  129.9030   64.8840 N   0  0  0  0  0  0  0  0  0  0  0  0
  125.5490  129.3300   65.4500 C   0  0  0  0  0  0  0  0  0  0  0  0
  124.3860  129.7040   65.2900 O   0  0  0  0  0  0  0  0  0  0  0  0
  125.8580  128.1120   66.3310 C   0  0  0  0  0  0  0  0  0  0  0  0
  126.7590  128.4900   67.3770 O   0  0  0  0  0  0  0  0  0  0  0  0
  127.9150  127.7540   67.6000 C   0  0  0  0  0  0  0  0  0  0  0  0
  128.6280  127.3370   66.5160 N   0  0  0  0  0  0  0  0  0  0  0  0
  129.7650  126.6200   66.6990 C   0  0  0  0  0  0  0  0  0  0  0  0
  130.4930  126.1930   65.4630 C   0  0  0  0  0  0  0  0  0  0  0  0
  129.8880  126.2980   64.2060 C   0  0  0  0  0  0  0  0  0  0  0  0
  130.5630  125.9080   63.0520 C   0  0  0  0  0  0  0  0  0  0  0  0
  131.8750  125.4110   63.1110 C   0  0  0  0  0  0  0  0  0  0  0  0
  132.5630  125.0040   61.9630 N   0  0  0  0  0  0  0  0  0  0  0  0
  133.6830  124.0430   62.0360 C   0  0  0  0  0  0  0  0  0  0  0  0
  134.5380  123.9840   60.7530 C   0  0  0  0  0  0  0  0  0  0  0  0
  133.7130  123.7160   59.6310 O   0  0  0  0  0  0  0  0  0  0  0  0
  132.7340  124.7280   59.4540 C   0  0  0  0  0  0  0  0  0  0  0  0
  131.8240  124.8080   60.6980 C   0  0  0  0  0  0  0  0  0  0  0  0
  132.4680  125.2880   64.3760 C   0  0  0  0  0  0  0  0  0  0  0  0
  131.7910  125.6750   65.5290 C   0  0  0  0  0  0  0  0  0  0  0  0
  130.2100  126.2850   67.9810 C   0  0  0  0  0  0  0  0  0  0  0  0
  129.4900  126.6910   69.1110 C   0  0  0  0  0  0  0  0  0  0  0  0
  130.0010  126.2810   70.4550 C   0  0  0  0  0  0  0  0  0  0  0  0
  129.1790  125.5770   71.3380 C   0  0  0  0  0  0  0  0  0  0  0  0
  129.6420  125.2100   72.5980 C   0  0  0  0  0  0  0  0  0  0  0  0
  130.9380  125.5490   73.0180 C   0  0  0  0  0  0  0  0  0  0  0  0
  131.4250  125.1880   74.2770 N   0  0  0  0  0  0  0  0  0  0  0  0
  131.6700  126.1970   75.3250 C   0  0  0  0  0  0  0  0  0  0  0  0
  131.8600  125.5890   76.7310 C   0  0  0  0  0  0  0  0  0  0  0  0
  132.9000  124.6230   76.7050 O   0  0  0  0  0  0  0  0  0  0  0  0
  132.6100  123.5660   75.8050 C   0  0  0  0  0  0  0  0  0  0  0  0
  132.4410  124.1200   74.3750 C   0  0  0  0  0  0  0  0  0  0  0  0
  131.7580  126.2490   72.1220 C   0  0  0  0  0  0  0  0  0  0  0  0
  131.2950  126.6160   70.8620 C   0  0  0  0  0  0  0  0  0  0  0  0
  128.3180  127.4590   68.9140 C   0  0  0  0  0  0  0  0  0  0  0  0
  127.5290  127.9690   70.0380 C   0  0  0  0  0  0  0  0  0  0  0  0
  126.9070  128.3710   70.9270 N   0  0  0  0  0  0  0  0  0  0  0  0
  126.8330  132.3540   64.4800 C   0  0  0  0  0  0  0  0  0  0  0  0
  126.9230  133.3900   63.5550 C   0  0  0  0  0  0  0  0  0  0  0  0
  1  2  1  0
  2  3  1  0
  3  4  1  0
  4  5  2  0
  4  6  1  0
  6  7  2  0
  7  8  1  0
  8  9  2  0
  9 10  1  0
 10 11  1  0
 11 12  2  0
 11 13  1  0
 13 14  1  0
 14 15  1  0
 15 16  2  0
 16 17  1  0
 17 18  1  0
 18 19  2  0
 19 20  1  0
 20 21  2  0
 21 22  1  0
 22 23  1  0
 23 24  1  0
 24 25  1  0
 25 26  1  0
 26 27  1  0
 21 28  1  0
 28 29  2  0
 17 30  2  0
 30 31  1  0
 31 32  1  0
 32 33  2  0
 33 34  1  0
 34 35  2  0
 35 36  1  0
 36 37  1  0
 37 38  1  0
 38 39  1  0
 39 40  1  0
 40 41  1  0
 35 42  1  0
 42 43  2  0
 31 44  2  0
 44 45  1  0
 45 46  3  0
  9 47  1  0
 47 48  2  0
 48  6  1  0
 44 15  1  0
 29 18  1  0
 43 32  1  0
 27 22  1  0
 41 36  1  0
M  END
>  <Binding energies>  (9) 
[0.31]

>  <Ligand effiencies>  (9) 
[0.0063265306122448975]

>  <Interactions>  (9) 
["V-A:GLU:543:CD:4906, V-A:ASP:366:CG:3211, V-B:GLU:543:CG:9879, V-A:HIS:456:CE1:4068, V-A:ASP:366:CB:3210, V-A:ARG:545:CD:4921, V-A:ILE:369:CD1:3237, V-A:ARG:545:CG:4920, V-B:GLU:543:CD:9880, V-B:GLU:543:CB:9878, V-A:ARG:545:CZ:4924, V-A:HIS:456:CD2:4066, V-B:LYS:547:CE:9922, V-B:GLU:543:C:9874, V-B:GLY:544:CA:9886, V-A:TYR:539:CE2:4874, V-A:TYR:539:CD2:4872, V-B:LEU:475:CD2:9231, V-A:ALA:541:CB:4890, H-B:GLY:454:N:9022, H-B:TYR:484:OH:9320, V-B:ARG:545:CZ:9898, H-A:GLU:543:OE1:4907, H-A:GLU:543:OE2:4908, H-B:GLU:543:OE2:9882, V-B:ILE:369:CG2:8209, V-B:HIS:456:CE1:9042, V-B:TYR:484:CE1:9317, V-B:TYR:484:CZ:9319, H-A:ALA:541:N:4889, V-B:ARG:545:CG:9894, H-B:ARG:545:NE:9896, V-B:TRP:381:CZ2:8342, V-B:TRP:381:CH2:8344, V-B:HIS:456:CG:9038, V-A:GLY:544:C:4910, V-B:HIS:456:CD2:9040, V-B:GLY:544:C:9884, V-A:LYS:471:CD:4217, V-A:HIS:456:CB:4063, V-A:LYS:547:CE:4948, V-A:HIS:456:CG:4064, V-A:LYS:471:CG:4216, V-A:VAL:458:CG2:4085, V-A:LYS:471:CE:4218, V-A:LYS:547:CD:4947, V-B:ARG:545:CD:9895, V-B:SER:385:CA:8379, H-B:HIS:456:ND1:9039, V-A:ARG:545:CA:4917"]

$$$$
2b_Ghoteimi_2023
     RDKit          3D

 42 47  0  0  0  0  0  0  0  0999 V2000
  126.6090  128.1300   70.8000 N   0  0  0  0  0  0  0  0  0  0  0  0
  127.2880  127.7990   69.9230 C   0  0  0  0  0  0  0  0  0  0  0  0
  128.1520  127.3770   68.8160 C   0  0  0  0  0  0  0  0  0  0  0  0
  129.3710  126.7010   69.0720 C   0  0  0  0  0  0  0  0  0  0  0  0
  129.8650  126.3690   70.4410 C   0  0  0  0  0  0  0  0  0  0  0  0
  129.0000  125.8190   71.3880 C   0  0  0  0  0  0  0  0  0  0  0  0
  129.4550  125.5090   72.6670 C   0  0  0  0  0  0  0  0  0  0  0  0
  130.7860  125.7570   73.0380 C   0  0  0  0  0  0  0  0  0  0  0  0
  131.2690  125.4430   74.3100 N   0  0  0  0  0  0  0  0  0  0  0  0
  131.9900  124.1700   74.5110 C   0  0  0  0  0  0  0  0  0  0  0  0
  132.1300  123.7740   75.9960 C   0  0  0  0  0  0  0  0  0  0  0  0
  132.7390  124.8270   76.7270 O   0  0  0  0  0  0  0  0  0  0  0  0
  131.9760  126.0220   76.6600 C   0  0  0  0  0  0  0  0  0  0  0  0
  131.8420  126.4780   75.1930 C   0  0  0  0  0  0  0  0  0  0  0  0
  131.6460  126.3130   72.0810 C   0  0  0  0  0  0  0  0  0  0  0  0
  131.1920  126.6190   70.8020 C   0  0  0  0  0  0  0  0  0  0  0  0
  130.1600  126.3130   67.9820 C   0  0  0  0  0  0  0  0  0  0  0  0
  129.7320  126.5620   66.6750 C   0  0  0  0  0  0  0  0  0  0  0  0
  130.5230  126.1410   65.4770 C   0  0  0  0  0  0  0  0  0  0  0  0
  129.9890  126.2680   64.1890 C   0  0  0  0  0  0  0  0  0  0  0  0
  130.7250  125.8940   63.0680 C   0  0  0  0  0  0  0  0  0  0  0  0
  132.0200  125.3660   63.1930 C   0  0  0  0  0  0  0  0  0  0  0  0
  132.7830  125.0130   62.0750 N   0  0  0  0  0  0  0  0  0  0  0  0
  134.0830  124.3340   62.2550 C   0  0  0  0  0  0  0  0  0  0  0  0
  134.9740  124.3610   60.9940 C   0  0  0  0  0  0  0  0  0  0  0  0
  134.2670  123.8230   59.8870 O   0  0  0  0  0  0  0  0  0  0  0  0
  133.0970  124.5730   59.6040 C   0  0  0  0  0  0  0  0  0  0  0  0
  132.1500  124.5560   60.8220 C   0  0  0  0  0  0  0  0  0  0  0  0
  132.5530  125.2470   64.4850 C   0  0  0  0  0  0  0  0  0  0  0  0
  131.8180  125.6240   65.6050 C   0  0  0  0  0  0  0  0  0  0  0  0
  128.5630  127.2080   66.4320 N   0  0  0  0  0  0  0  0  0  0  0  0
  127.8000  127.6220   67.4700 C   0  0  0  0  0  0  0  0  0  0  0  0
  126.3080  128.4550   66.9700 S   0  0  0  0  0  0  0  0  0  0  0  0
  126.4340  128.7800   65.1850 C   0  0  0  0  0  0  0  0  0  0  0  0
  125.3830  129.7840   64.7080 C   0  0  0  0  0  0  0  0  0  0  0  0
  124.2690  129.7870   65.2350 O   0  0  0  0  0  0  0  0  0  0  0  0
  125.7750  130.6070   63.7120 N   0  0  0  0  0  0  0  0  0  0  0  0
  125.0310  131.6090   63.1060 C   0  0  0  0  0  0  0  0  0  0  0  0
  124.3470  131.4270   61.9040 C   0  0  0  0  0  0  0  0  0  0  0  0
  123.7460  132.6370   61.6480 C   0  0  0  0  0  0  0  0  0  0  0  0
  124.0510  133.5030   62.6440 O   0  0  0  0  0  0  0  0  0  0  0  0
  124.8660  132.8390   63.5640 N   0  0  0  0  0  0  0  0  0  0  0  0
  1  2  3  0
  2  3  1  0
  3  4  2  0
  4  5  1  0
  5  6  2  0
  6  7  1  0
  7  8  2  0
  8  9  1  0
  9 10  1  0
 10 11  1  0
 11 12  1  0
 12 13  1  0
 13 14  1  0
  8 15  1  0
 15 16  2  0
  4 17  1  0
 17 18  2  0
 18 19  1  0
 19 20  2  0
 20 21  1  0
 21 22  2  0
 22 23  1  0
 23 24  1  0
 24 25  1  0
 25 26  1  0
 26 27  1  0
 27 28  1  0
 22 29  1  0
 29 30  2  0
 18 31  1  0
 31 32  2  0
 32 33  1  0
 33 34  1  0
 34 35  1  0
 35 36  2  0
 35 37  1  0
 37 38  1  0
 38 39  1  0
 39 40  2  0
 40 41  1  0
 41 42  1  0
 32  3  1  0
 42 38  2  0
 16  5  1  0
 30 19  1  0
 14  9  1  0
 28 23  1  0
M  END
>  <Binding energies>  (10) 
[-1.07]

>  <Ligand effiencies>  (10) 
[-0.02488372093023256]

>  <Interactions>  (10) 
["V-A:GLU:543:CD:4906, V-A:ASP:366:CG:3211, V-B:GLU:543:CG:9879, V-A:HIS:456:CE1:4068, V-A:ASP:366:CB:3210, V-A:ARG:545:CD:4921, V-A:GLY:453:CA:4042, V-A:ILE:369:CD1:3237, V-A:ARG:545:CG:4920, V-B:GLU:543:CD:9880, V-B:GLU:543:CB:9878, V-A:ARG:545:CZ:4924, V-A:GLY:454:CA:4047, V-A:HIS:456:CD2:4066, V-B:LYS:547:CE:9922, V-B:GLU:543:C:9874, V-B:GLY:544:CA:9886, H-B:GLY:454:N:9022, H-B:TYR:484:OH:9320, V-B:ARG:545:CZ:9898, H-A:GLU:543:OE1:4907, V-B:ILE:369:CD1:8211, V-B:ILE:369:CG2:8209, V-B:HIS:456:CE1:9042, H-B:ARG:545:NE:9896, V-B:HIS:456:CG:9038, V-A:GLY:544:C:4910, V-B:HIS:456:CD2:9040, V-B:GLY:544:C:9884, V-A:LYS:471:CD:4217, V-A:HIS:456:CB:4063, V-A:LYS:547:CE:4948, V-A:HIS:456:CG:4064, V-A:VAL:458:CG2:4085, V-A:LYS:471:CE:4218, V-A:LYS:547:CD:4947, V-A:GLY:453:C:4040, H-B:ARG:545:N:9892, H-B:HIS:456:ND1:9039"]

$$$$
2c_Ghoteimi_2023
     RDKit          3D

 42 47  0  0  0  0  0  0  0  0999 V2000
  126.5880  128.0790   70.8170 N   0  0  0  0  0  0  0  0  0  0  0  0
  127.2580  127.7510   69.9330 C   0  0  0  0  0  0  0  0  0  0  0  0
  128.1110  127.3310   68.8170 C   0  0  0  0  0  0  0  0  0  0  0  0
  129.3460  126.6780   69.0580 C   0  0  0  0  0  0  0  0  0  0  0  0
  129.8730  126.3730   70.4220 C   0  0  0  0  0  0  0  0  0  0  0  0
  131.1970  126.6730   70.7460 C   0  0  0  0  0  0  0  0  0  0  0  0
  131.6950  126.3960   72.0170 C   0  0  0  0  0  0  0  0  0  0  0  0
  130.8850  125.7970   72.9950 C   0  0  0  0  0  0  0  0  0  0  0  0
  131.3570  125.5290   74.2820 N   0  0  0  0  0  0  0  0  0  0  0  0
  131.9540  124.2100   74.5720 C   0  0  0  0  0  0  0  0  0  0  0  0
  132.0700  123.9120   76.0820 C   0  0  0  0  0  0  0  0  0  0  0  0
  132.7940  124.9480   76.7280 O   0  0  0  0  0  0  0  0  0  0  0  0
  132.1550  126.2070   76.5780 C   0  0  0  0  0  0  0  0  0  0  0  0
  132.0400  126.5640   75.0810 C   0  0  0  0  0  0  0  0  0  0  0  0
  129.5570  125.4960   72.6580 C   0  0  0  0  0  0  0  0  0  0  0  0
  129.0600  125.7750   71.3880 C   0  0  0  0  0  0  0  0  0  0  0  0
  130.1230  126.2940   67.9570 C   0  0  0  0  0  0  0  0  0  0  0  0
  129.6710  126.5280   66.6550 C   0  0  0  0  0  0  0  0  0  0  0  0
  130.4540  126.1220   65.4480 C   0  0  0  0  0  0  0  0  0  0  0  0
  131.7410  125.5900   65.5780 C   0  0  0  0  0  0  0  0  0  0  0  0
  132.4740  125.2040   64.4580 C   0  0  0  0  0  0  0  0  0  0  0  0
  131.9500  125.3480   63.1630 C   0  0  0  0  0  0  0  0  0  0  0  0
  132.6620  124.9420   62.0300 N   0  0  0  0  0  0  0  0  0  0  0  0
  133.8190  124.0350   62.1740 C   0  0  0  0  0  0  0  0  0  0  0  0
  134.7250  123.9850   60.9250 C   0  0  0  0  0  0  0  0  0  0  0  0
  133.9580  123.6460   59.7820 O   0  0  0  0  0  0  0  0  0  0  0  0
  132.9390  124.6020   59.5380 C   0  0  0  0  0  0  0  0  0  0  0  0
  131.9820  124.6760   60.7460 C   0  0  0  0  0  0  0  0  0  0  0  0
  130.6540  125.8690   63.0390 C   0  0  0  0  0  0  0  0  0  0  0  0
  129.9220  126.2530   64.1600 C   0  0  0  0  0  0  0  0  0  0  0  0
  128.4870  127.1510   66.4270 N   0  0  0  0  0  0  0  0  0  0  0  0
  127.7320  127.5600   67.4740 C   0  0  0  0  0  0  0  0  0  0  0  0
  126.2220  128.3670   66.9920 S   0  0  0  0  0  0  0  0  0  0  0  0
  126.6670  129.7480   65.8960 C   0  0  0  0  0  0  0  0  0  0  0  0
  125.5500  130.0770   64.9050 C   0  0  0  0  0  0  0  0  0  0  0  0
  124.3760  129.9900   65.2680 O   0  0  0  0  0  0  0  0  0  0  0  0
  125.9560  130.4430   63.6700 N   0  0  0  0  0  0  0  0  0  0  0  0
  125.1450  130.8050   62.6040 C   0  0  0  0  0  0  0  0  0  0  0  0
  123.8660  131.1090   62.6290 N   0  0  0  0  0  0  0  0  0  0  0  0
  123.4160  131.4120   61.4270 C   0  0  0  0  0  0  0  0  0  0  0  0
  124.3440  131.3560   60.3910 C   0  0  0  0  0  0  0  0  0  0  0  0
  125.8860  130.8800   61.0380 S   0  0  0  0  0  0  0  0  0  0  0  0
  1  2  3  0
  2  3  1  0
  3  4  2  0
  4  5  1  0
  5  6  2  0
  6  7  1  0
  7  8  2  0
  8  9  1  0
  9 10  1  0
 10 11  1  0
 11 12  1  0
 12 13  1  0
 13 14  1  0
  8 15  1  0
 15 16  2  0
  4 17  1  0
 17 18  2  0
 18 19  1  0
 19 20  2  0
 20 21  1  0
 21 22  2  0
 22 23  1  0
 23 24  1  0
 24 25  1  0
 25 26  1  0
 26 27  1  0
 27 28  1  0
 22 29  1  0
 29 30  2  0
 18 31  1  0
 31 32  2  0
 32 33  1  0
 33 34  1  0
 34 35  1  0
 35 36  2  0
 35 37  1  0
 37 38  1  0
 38 39  2  0
 39 40  1  0
 40 41  2  0
 41 42  1  0
 32  3  1  0
 42 38  1  0
 16  5  1  0
 30 19  1  0
 14  9  1  0
 28 23  1  0
M  END
>  <Binding energies>  (11) 
[-1.48]

>  <Ligand effiencies>  (11) 
[-0.03441860465116279]

>  <Interactions>  (11) 
["V-A:GLU:543:CD:4906, V-A:ASP:366:CG:3211, V-B:GLU:543:CG:9879, V-A:HIS:456:CE1:4068, V-A:ASP:366:CB:3210, V-A:GLY:453:CA:4042, V-A:ILE:369:CD1:3237, V-A:ARG:545:CG:4920, V-B:GLU:543:CD:9880, V-B:GLU:543:CB:9878, V-A:ARG:545:CZ:4924, V-A:GLY:454:CA:4047, V-A:HIS:456:CD2:4066, V-B:LYS:547:CE:9922, V-B:GLU:543:C:9874, V-B:GLY:544:CA:9886, H-B:GLY:454:N:9022, H-B:TYR:484:OH:9320, V-B:ARG:545:CZ:9898, H-A:GLU:543:OE1:4907, V-A:GLU:543:CB:4904, V-B:ILE:369:CD1:8211, V-B:HIS:456:CE1:9042, V-B:TYR:484:CZ:9319, H-B:ARG:545:NE:9896, V-B:HIS:456:CG:9038, V-A:GLY:544:C:4910, V-B:HIS:456:CD2:9040, V-B:GLY:544:C:9884, V-A:LYS:471:CD:4217, V-A:HIS:456:CB:4063, V-A:LYS:547:CE:4948, V-A:HIS:456:CG:4064, V-A:VAL:458:CG2:4085, V-A:LYS:471:CE:4218, V-A:LYS:547:CD:4947, V-A:GLY:453:C:4040, H-B:ARG:545:N:9892, H-B:HIS:456:ND1:9039, V-B:ARG:545:CA:9891, V-A:ARG:545:CA:4917"]

$$$$
2j_Grossjean_2025
     RDKit          3D

 23 24  0  0  0  0  0  0  0  0999 V2000
  129.4510  122.0670   73.3780 C   0  0  0  0  0  0  0  0  0  0  0  0
  130.4850  123.1570   73.5900 C   0  0  0  0  0  0  0  0  0  0  0  0
  131.6400  122.9320   74.3340 C   0  0  0  0  0  0  0  0  0  0  0  0
  132.5690  123.9700   74.5000 C   0  0  0  0  0  0  0  0  0  0  0  0
  133.8420  123.7030   75.3260 C   0  0  0  0  0  0  0  0  0  0  0  0
  133.6260  124.0040   76.6070 F   0  0  0  0  0  0  0  0  0  0  0  0
  134.1840  122.4170   75.2350 F   0  0  0  0  0  0  0  0  0  0  0  0
  134.8850  124.4260   74.9130 F   0  0  0  0  0  0  0  0  0  0  0  0
  132.2950  125.2250   73.8990 C   0  0  0  0  0  0  0  0  0  0  0  0
  133.2290  126.3460   74.0390 C   0  0  0  0  0  0  0  0  0  0  0  0
  133.9680  127.2300   74.1500 N   0  0  0  0  0  0  0  0  0  0  0  0
  131.0960  125.3650   73.1600 C   0  0  0  0  0  0  0  0  0  0  0  0
  130.6490  126.8990   72.3590 S   0  0  0  0  0  0  0  0  0  0  0  0
  128.8280  126.9830   72.2530 C   0  0  0  0  0  0  0  0  0  0  0  0
  128.1980  128.2080   72.9310 C   0  0  0  0  0  0  0  0  0  0  0  0
  128.7260  129.3190   72.8410 O   0  0  0  0  0  0  0  0  0  0  0  0
  127.0620  127.9530   73.6170 N   0  0  0  0  0  0  0  0  0  0  0  0
  126.2920  128.8720   74.3180 C   0  0  0  0  0  0  0  0  0  0  0  0
  126.6880  129.9940   74.8810 N   0  0  0  0  0  0  0  0  0  0  0  0
  125.6860  130.6250   75.4630 C   0  0  0  0  0  0  0  0  0  0  0  0
  124.4400  130.0110   75.3780 C   0  0  0  0  0  0  0  0  0  0  0  0
  124.6000  128.5280   74.4850 S   0  0  0  0  0  0  0  0  0  0  0  0
  130.2110  124.3470   73.0100 N   0  0  0  0  0  0  0  0  0  0  0  0
  1  2  1  0
  2  3  2  0
  3  4  1  0
  4  5  1  0
  5  6  1  0
  5  7  1  0
  5  8  1  0
  4  9  2  0
  9 10  1  0
 10 11  3  0
  9 12  1  0
 12 13  1  0
 13 14  1  0
 14 15  1  0
 15 16  2  0
 15 17  1  0
 17 18  1  0
 18 19  2  0
 19 20  1  0
 20 21  2  0
 21 22  1  0
 12 23  2  0
 23  2  1  0
 22 18  1  0
M  END
>  <Binding energies>  (12) 
[-7.54]

>  <Ligand effiencies>  (12) 
[-0.31416666666666665]

>  <Interactions>  (12) 
["V-A:HIS:456:CD2:4066, V-B:LYS:547:CE:9922, V-B:HIS:456:CG:9038, H-B:LYS:547:NZ:9923, V-B:LYS:471:CE:9192, V-B:VAL:457:C:9045, V-B:VAL:458:CG2:9059, H-A:LYS:547:NZ:4949, V-B:HIS:456:CB:9037, V-B:HIS:456:CA:9035, V-B:HIS:456:C:9033, V-B:HIS:456:CD2:9040, V-B:GLY:544:C:9884, V-A:LYS:471:CD:4217, V-A:HIS:456:CB:4063, V-A:LYS:547:CE:4948, V-A:ASP:473:CG:4238, V-A:HIS:456:CG:4064, V-A:HIS:456:C:4059, V-A:VAL:457:C:4071, V-A:LYS:471:CG:4216, V-A:LYS:471:CB:4215, V-A:HIS:456:CA:4061, V-A:VAL:458:CG2:4085, V-A:LYS:471:CE:4218, V-A:LYS:547:CD:4947, H-B:GLY:544:O:9885, V-A:ASP:473:CB:4237, V-A:VAL:457:CA:4073"]

$$$$
3ab_Grossjean_2025
     RDKit          3D

 33 35  0  0  0  0  0  0  0  0999 V2000
  121.1770  118.2550   75.0500 C   0  0  0  0  0  0  0  0  0  0  0  0
  121.1480  118.5960   73.6710 O   0  0  0  0  0  0  0  0  0  0  0  0
  121.3520  119.8750   73.2630 C   0  0  0  0  0  0  0  0  0  0  0  0
  120.4360  120.6530   72.9810 O   0  0  0  0  0  0  0  0  0  0  0  0
  122.8040  120.2520   73.1930 C   0  0  0  0  0  0  0  0  0  0  0  0
  123.5380  120.5980   74.3370 C   0  0  0  0  0  0  0  0  0  0  0  0
  124.8840  120.9420   74.2420 C   0  0  0  0  0  0  0  0  0  0  0  0
  125.5220  120.9460   72.9910 C   0  0  0  0  0  0  0  0  0  0  0  0
  126.8750  121.2700   72.7790 N   0  0  0  0  0  0  0  0  0  0  0  0
  127.8910  121.3720   73.6610 C   0  0  0  0  0  0  0  0  0  0  0  0
  127.8020  121.2030   74.8770 O   0  0  0  0  0  0  0  0  0  0  0  0
  129.2500  121.7330   73.0580 C   0  0  0  0  0  0  0  0  0  0  0  0
  130.4750  122.1530   74.3340 S   0  0  0  0  0  0  0  0  0  0  0  0
  131.1340  123.7590   73.9350 C   0  0  0  0  0  0  0  0  0  0  0  0
  130.2660  124.5460   73.2560 N   0  0  0  0  0  0  0  0  0  0  0  0
  130.6360  125.8010   72.8910 C   0  0  0  0  0  0  0  0  0  0  0  0
  129.6160  126.6100   72.1450 C   0  0  0  0  0  0  0  0  0  0  0  0
  128.6290  127.3330   72.8330 C   0  0  0  0  0  0  0  0  0  0  0  0
  127.6810  128.0860   72.1460 C   0  0  0  0  0  0  0  0  0  0  0  0
  127.7060  128.1250   70.7550 C   0  0  0  0  0  0  0  0  0  0  0  0
  128.6700  127.4140   70.0490 C   0  0  0  0  0  0  0  0  0  0  0  0
  129.6160  126.6630   70.7400 C   0  0  0  0  0  0  0  0  0  0  0  0
  131.9140  126.2860   73.1890 C   0  0  0  0  0  0  0  0  0  0  0  0
  132.8370  125.4830   73.8740 C   0  0  0  0  0  0  0  0  0  0  0  0
  134.2360  126.0530   74.1780 C   0  0  0  0  0  0  0  0  0  0  0  0
  134.9270  126.3440   73.0740 F   0  0  0  0  0  0  0  0  0  0  0  0
  134.1300  127.1760   74.8900 F   0  0  0  0  0  0  0  0  0  0  0  0
  134.9470  125.1660   74.8750 F   0  0  0  0  0  0  0  0  0  0  0  0
  132.4450  124.1750   74.2550 C   0  0  0  0  0  0  0  0  0  0  0  0
  133.3900  123.2750   74.9220 C   0  0  0  0  0  0  0  0  0  0  0  0
  134.1370  122.5660   75.4480 N   0  0  0  0  0  0  0  0  0  0  0  0
  124.7950  120.5960   71.8520 C   0  0  0  0  0  0  0  0  0  0  0  0
  123.4500  120.2540   71.9500 C   0  0  0  0  0  0  0  0  0  0  0  0
  1  2  1  0
  2  3  1  0
  3  4  2  0
  3  5  1  0
  5  6  2  0
  6  7  1  0
  7  8  2  0
  8  9  1  0
  9 10  1  0
 10 11  2  0
 10 12  1  0
 12 13  1  0
 13 14  1  0
 14 15  2  0
 15 16  1  0
 16 17  1  0
 17 18  2  0
 18 19  1  0
 19 20  2  0
 20 21  1  0
 21 22  2  0
 16 23  2  0
 23 24  1  0
 24 25  1  0
 25 26  1  0
 25 27  1  0
 25 28  1  0
 24 29  2  0
 29 30  1  0
 30 31  3  0
  8 32  1  0
 32 33  2  0
 33  5  1  0
 29 14  1  0
 22 17  1  0
M  END
>  <Binding energies>  (13) 
[-8.99]

>  <Ligand effiencies>  (13) 
[-0.26441176470588235]

>  <Interactions>  (13) 
["V-A:HIS:456:CE1:4068, V-A:HIS:456:CD2:4066, V-B:LYS:547:CA:9917, V-B:ARG:356:CB:8089, V-B:LYS:547:CE:9922, H-B:GLU:357:N:8105, V-B:GLU:357:CB:8106, V-B:PHE:548:CE2:9937, V-B:ILE:546:C:9906, V-B:LYS:547:CG:9920, V-B:GLY:544:CA:9886, V-B:VAL:542:CG1:9871, V-B:HIS:456:CE1:9042, V-B:HIS:456:CG:9038, H-B:LYS:547:NZ:9923, V-A:GLY:544:C:4910, V-B:HIS:456:CD2:9040, V-B:GLY:544:C:9884, V-A:LYS:471:CD:4217, V-A:HIS:456:CB:4063, V-A:LYS:547:CE:4948, V-A:ASP:473:CG:4238, V-A:HIS:456:CG:4064, V-A:HIS:456:C:4059, V-A:VAL:457:C:4071, V-A:LYS:471:CG:4216, H-A:ASP:473:N:4236, V-A:HIS:456:CA:4061, V-A:VAL:458:CG2:4085, V-A:LYS:471:CE:4218, V-A:LYS:547:CD:4947, V-A:LYS:547:CG:4946, V-A:LYS:547:CB:4945, V-A:ARG:545:C:4915, V-A:ARG:545:CA:4917, V-B:PHE:548:CD2:9935, V-A:VAL:457:CA:4073, V-A:VAL:458:CB:4083, V-A:VAL:458:CA:4081"]

$$$$
3ac_Grossjean_2025
     RDKit          3D

 31 33  0  0  0  0  0  0  0  0999 V2000
  136.3330  135.4850   71.5320 C   0  0  0  0  0  0  0  0  0  0  0  0
  135.9910  134.3440   72.3130 O   0  0  0  0  0  0  0  0  0  0  0  0
  134.6690  134.1340   72.6580 C   0  0  0  0  0  0  0  0  0  0  0  0
  133.7250  134.3330   71.6510 C   0  0  0  0  0  0  0  0  0  0  0  0
  132.3700  134.1410   71.9040 C   0  0  0  0  0  0  0  0  0  0  0  0
  131.9380  133.7550   73.1740 C   0  0  0  0  0  0  0  0  0  0  0  0
  130.5520  133.5670   73.3270 N   0  0  0  0  0  0  0  0  0  0  0  0
  129.5850  133.5500   72.3840 C   0  0  0  0  0  0  0  0  0  0  0  0
  129.7720  133.6620   71.1720 O   0  0  0  0  0  0  0  0  0  0  0  0
  128.1590  133.3740   72.9050 C   0  0  0  0  0  0  0  0  0  0  0  0
  128.1060  132.4290   74.4580 S   0  0  0  0  0  0  0  0  0  0  0  0
  127.4500  130.8060   74.1180 C   0  0  0  0  0  0  0  0  0  0  0  0
  128.2510  130.0640   73.3170 N   0  0  0  0  0  0  0  0  0  0  0  0
  127.8860  128.8020   72.9760 C   0  0  0  0  0  0  0  0  0  0  0  0
  128.8260  128.0510   72.0810 C   0  0  0  0  0  0  0  0  0  0  0  0
  129.9170  127.3460   72.6140 C   0  0  0  0  0  0  0  0  0  0  0  0
  130.7900  126.6430   71.7890 C   0  0  0  0  0  0  0  0  0  0  0  0
  130.5840  126.6360   70.4130 C   0  0  0  0  0  0  0  0  0  0  0  0
  129.5150  127.3300   69.8580 C   0  0  0  0  0  0  0  0  0  0  0  0
  128.6440  128.0320   70.6870 C   0  0  0  0  0  0  0  0  0  0  0  0
  126.6790  128.2590   73.4270 C   0  0  0  0  0  0  0  0  0  0  0  0
  125.8200  129.0140   74.2390 C   0  0  0  0  0  0  0  0  0  0  0  0
  124.4960  128.3790   74.7090 C   0  0  0  0  0  0  0  0  0  0  0  0
  124.6790  127.3900   75.5850 F   0  0  0  0  0  0  0  0  0  0  0  0
  123.7280  129.2960   75.3000 F   0  0  0  0  0  0  0  0  0  0  0  0
  123.8390  127.8760   73.6630 F   0  0  0  0  0  0  0  0  0  0  0  0
  126.2020  130.3340   74.5880 C   0  0  0  0  0  0  0  0  0  0  0  0
  125.3040  131.1860   75.3690 C   0  0  0  0  0  0  0  0  0  0  0  0
  124.5930  131.8600   75.9850 N   0  0  0  0  0  0  0  0  0  0  0  0
  132.8830  133.5460   74.1900 C   0  0  0  0  0  0  0  0  0  0  0  0
  134.2380  133.7380   73.9340 C   0  0  0  0  0  0  0  0  0  0  0  0
  1  2  1  0
  2  3  1  0
  3  4  2  0
  4  5  1  0
  5  6  2  0
  6  7  1  0
  7  8  1  0
  8  9  2  0
  8 10  1  0
 10 11  1  0
 11 12  1  0
 12 13  2  0
 13 14  1  0
 14 15  1  0
 15 16  2  0
 16 17  1  0
 17 18  2  0
 18 19  1  0
 19 20  2  0
 14 21  2  0
 21 22  1  0
 22 23  1  0
 23 24  1  0
 23 25  1  0
 23 26  1  0
 22 27  2  0
 27 28  1  0
 28 29  3  0
  6 30  1  0
 30 31  2  0
 31  3  1  0
 27 12  1  0
 20 15  1  0
M  END
>  <Binding energies>  (14) 
[-7.9]

>  <Ligand effiencies>  (14) 
[-0.246875]

>  <Interactions>  (14) 
["V-A:HIS:456:CE1:4068, V-B:LYS:547:CB:9919, V-A:HIS:456:CD2:4066, V-B:LYS:547:CE:9922, V-B:LYS:547:CG:9920, V-B:HIS:456:CE1:9042, V-B:HIS:456:CG:9038, V-B:LYS:471:CE:9192, V-B:VAL:457:C:9045, V-B:VAL:458:CG2:9059, H-A:LYS:547:NZ:4949, V-B:HIS:456:CB:9037, V-A:GLY:544:C:4910, V-B:HIS:456:CA:9035, V-B:HIS:456:C:9033, V-B:VAL:457:CA:9047, V-B:HIS:456:CD2:9040, V-B:GLY:544:C:9884, V-B:LYS:471:CD:9191, V-A:LYS:547:CE:4948, V-A:HIS:456:CG:4064, V-B:ASP:473:CG:9212, V-A:ARG:356:CB:3115, V-A:VAL:542:CG1:4897, V-A:GLY:544:CA:4912, V-B:TYR:484:CB:9313, V-A:GLU:357:CB:3132, V-A:LYS:547:CG:4946, V-B:LYS:547:CD:9921, V-B:ARG:545:C:9889, V-B:ARG:545:CA:9891, H-A:GLY:544:N:4913, V-B:TYR:484:CG:9314, V-A:LYS:547:CA:4943, V-A:GLU:357:CA:3130, V-B:VAL:458:CB:9057"]

$$$$
3af_Grossjean_2025
     RDKit          3D

 29 31  0  0  0  0  0  0  0  0999 V2000
  133.7440  127.3140   74.2640 N   0  0  0  0  0  0  0  0  0  0  0  0
  133.0070  126.4370   74.0970 C   0  0  0  0  0  0  0  0  0  0  0  0
  132.0750  125.3260   73.8860 C   0  0  0  0  0  0  0  0  0  0  0  0
  132.3070  124.0650   74.4870 C   0  0  0  0  0  0  0  0  0  0  0  0
  133.5010  123.7960   75.4230 C   0  0  0  0  0  0  0  0  0  0  0  0
  134.6350  124.3500   74.9890 F   0  0  0  0  0  0  0  0  0  0  0  0
  133.2500  124.2920   76.6360 F   0  0  0  0  0  0  0  0  0  0  0  0
  133.7150  122.4840   75.5270 F   0  0  0  0  0  0  0  0  0  0  0  0
  131.4150  123.0170   74.2120 C   0  0  0  0  0  0  0  0  0  0  0  0
  130.3250  123.2220   73.3590 C   0  0  0  0  0  0  0  0  0  0  0  0
  129.3540  122.1320   73.0160 C   0  0  0  0  0  0  0  0  0  0  0  0
  128.7380  121.3750   74.0260 C   0  0  0  0  0  0  0  0  0  0  0  0
  127.8330  120.3650   73.7130 C   0  0  0  0  0  0  0  0  0  0  0  0
  127.5300  120.0970   72.3830 C   0  0  0  0  0  0  0  0  0  0  0  0
  128.1240  120.8340   71.3630 C   0  0  0  0  0  0  0  0  0  0  0  0
  129.0280  121.8440   71.6800 C   0  0  0  0  0  0  0  0  0  0  0  0
  130.1090  124.4310   72.7820 N   0  0  0  0  0  0  0  0  0  0  0  0
  130.9430  125.4650   73.0510 C   0  0  0  0  0  0  0  0  0  0  0  0
  130.4900  126.9720   72.2160 S   0  0  0  0  0  0  0  0  0  0  0  0
  128.6750  127.0710   72.1800 C   0  0  0  0  0  0  0  0  0  0  0  0
  128.1590  128.3220   72.8900 C   0  0  0  0  0  0  0  0  0  0  0  0
  128.8510  129.3400   72.8870 O   0  0  0  0  0  0  0  0  0  0  0  0
  126.9520  128.1940   73.4830 N   0  0  0  0  0  0  0  0  0  0  0  0
  126.2080  129.1390   74.2160 C   0  0  0  0  0  0  0  0  0  0  0  0
  126.6710  130.3950   74.6460 C   0  0  0  0  0  0  0  0  0  0  0  0
  125.8220  131.2340   75.3710 C   0  0  0  0  0  0  0  0  0  0  0  0
  124.5270  130.7960   75.6490 C   0  0  0  0  0  0  0  0  0  0  0  0
  124.0560  129.5900   75.2460 N   0  0  0  0  0  0  0  0  0  0  0  0
  124.8940  128.7860   74.5430 C   0  0  0  0  0  0  0  0  0  0  0  0
  1  2  3  0
  2  3  1  0
  3  4  2  0
  4  5  1  0
  5  6  1  0
  5  7  1  0
  5  8  1  0
  4  9  1  0
  9 10  2  0
 10 11  1  0
 11 12  2  0
 12 13  1  0
 13 14  2  0
 14 15  1  0
 15 16  2  0
 10 17  1  0
 17 18  2  0
 18 19  1  0
 19 20  1  0
 20 21  1  0
 21 22  2  0
 21 23  1  0
 23 24  1  0
 24 25  2  0
 25 26  1  0
 26 27  2  0
 27 28  1  0
 28 29  2  0
 18  3  1  0
 29 24  1  0
 16 11  1  0
M  END
>  <Binding energies>  (15) 
[-9.08]

>  <Ligand effiencies>  (15) 
[-0.3026666666666667]

>  <Interactions>  (15) 
["V-A:TYR:484:CB:4339, V-A:HIS:456:CD2:4066, V-A:TYR:484:CG:4340, V-A:TYR:484:CD1:4341, V-B:GLU:543:CA:9876, V-B:LYS:547:CE:9922, V-B:GLU:543:C:9874, V-B:GLY:544:CA:9886, V-B:HIS:456:CG:9038, H-B:LYS:547:NZ:9923, V-B:LYS:471:CE:9192, H-B:VAL:457:N:9048, V-B:VAL:458:CG2:9059, H-A:LYS:547:NZ:4949, V-B:HIS:456:CB:9037, V-B:HIS:456:CA:9035, V-B:HIS:456:C:9033, V-B:HIS:456:CD2:9040, V-B:GLY:544:C:9884, V-B:LYS:471:CG:9190, V-B:LYS:471:CD:9191, V-A:LYS:471:CD:4217, V-A:HIS:456:CB:4063, V-A:LYS:547:CE:4948, V-A:ASP:473:CG:4238, V-A:HIS:456:CG:4064, V-A:HIS:456:C:4059, V-A:VAL:457:C:4071, V-A:LYS:471:CG:4216, V-A:HIS:456:CA:4061, V-A:VAL:458:CG2:4085, V-A:LYS:471:CE:4218, V-A:LYS:547:CD:4947, H-B:GLY:544:O:9885, V-B:ASP:473:CG:9212, V-A:ASP:473:CB:4237, V-A:VAL:457:CA:4073"]

$$$$
3ag_Grossjean_2025
     RDKit          3D

 30 32  0  0  0  0  0  0  0  0999 V2000
  134.0960  122.7080   75.5980 N   0  0  0  0  0  0  0  0  0  0  0  0
  133.3490  123.3760   75.0180 C   0  0  0  0  0  0  0  0  0  0  0  0
  132.4060  124.2250   74.2840 C   0  0  0  0  0  0  0  0  0  0  0  0
  132.7540  125.5500   73.9240 C   0  0  0  0  0  0  0  0  0  0  0  0
  134.1400  126.1560   74.2210 C   0  0  0  0  0  0  0  0  0  0  0  0
  134.9700  125.2890   74.8040 F   0  0  0  0  0  0  0  0  0  0  0  0
  134.7110  126.5590   73.0860 F   0  0  0  0  0  0  0  0  0  0  0  0
  134.0170  127.2020   75.0390 F   0  0  0  0  0  0  0  0  0  0  0  0
  131.7980  126.3400   73.2690 C   0  0  0  0  0  0  0  0  0  0  0  0
  130.5260  125.8270   72.9920 C   0  0  0  0  0  0  0  0  0  0  0  0
  129.4660  126.6270   72.2980 C   0  0  0  0  0  0  0  0  0  0  0  0
  128.5250  127.3630   73.0360 C   0  0  0  0  0  0  0  0  0  0  0  0
  127.5370  128.1080   72.3970 C   0  0  0  0  0  0  0  0  0  0  0  0
  127.4770  128.1270   71.0070 C   0  0  0  0  0  0  0  0  0  0  0  0
  128.3960  127.4040   70.2530 C   0  0  0  0  0  0  0  0  0  0  0  0
  129.3810  126.6590   70.8950 C   0  0  0  0  0  0  0  0  0  0  0  0
  130.2000  124.5520   73.3280 N   0  0  0  0  0  0  0  0  0  0  0  0
  131.1150  123.7640   73.9430 C   0  0  0  0  0  0  0  0  0  0  0  0
  130.5160  122.1280   74.3040 S   0  0  0  0  0  0  0  0  0  0  0  0
  130.4380  121.2210   72.7310 C   0  0  0  0  0  0  0  0  0  0  0  0
  129.0770  121.3660   72.0470 C   0  0  0  0  0  0  0  0  0  0  0  0
  128.7350  122.4560   71.5850 O   0  0  0  0  0  0  0  0  0  0  0  0
  128.3180  120.2580   71.9860 N   0  0  0  0  0  0  0  0  0  0  0  0
  127.0050  120.1630   71.3500 C   0  0  0  0  0  0  0  0  0  0  0  0
  125.8340  120.3480   72.3090 C   0  0  0  0  0  0  0  0  0  0  0  0
  124.5310  120.0940   71.8710 C   0  0  0  0  0  0  0  0  0  0  0  0
  123.4620  120.2320   72.7520 C   0  0  0  0  0  0  0  0  0  0  0  0
  123.7000  120.6150   74.0710 C   0  0  0  0  0  0  0  0  0  0  0  0
  124.9970  120.8560   74.5180 C   0  0  0  0  0  0  0  0  0  0  0  0
  126.0660  120.7170   73.6370 C   0  0  0  0  0  0  0  0  0  0  0  0
  1  2  3  0
  2  3  1  0
  3  4  2  0
  4  5  1  0
  5  6  1  0
  5  7  1  0
  5  8  1  0
  4  9  1  0
  9 10  2  0
 10 11  1  0
 11 12  2  0
 12 13  1  0
 13 14  2  0
 14 15  1  0
 15 16  2  0
 10 17  1  0
 17 18  2  0
 18 19  1  0
 19 20  1  0
 20 21  1  0
 21 22  2  0
 21 23  1  0
 23 24  1  0
 24 25  1  0
 25 26  2  0
 26 27  1  0
 27 28  2  0
 28 29  1  0
 29 30  2  0
 18  3  1  0
 30 25  1  0
 16 11  1  0
M  END
>  <Binding energies>  (16) 
[-7.98]

>  <Ligand effiencies>  (16) 
[-0.2574193548387097]

>  <Interactions>  (16) 
["V-A:HIS:456:CE1:4068, V-A:TYR:484:CB:4339, V-A:HIS:456:CD2:4066, V-A:TYR:484:CG:4340, V-B:LYS:547:CA:9917, V-B:LYS:547:CE:9922, V-B:ILE:546:C:9906, V-B:LYS:547:CG:9920, V-B:GLY:544:CA:9886, V-B:VAL:542:CG1:9871, V-B:HIS:456:CE1:9042, V-B:HIS:456:CG:9038, H-B:LYS:547:NZ:9923, V-A:GLY:544:C:4910, V-B:HIS:456:CD2:9040, V-B:GLY:544:C:9884, V-A:LYS:471:CD:4217, V-A:HIS:456:CB:4063, V-A:LYS:547:CE:4948, V-A:ASP:473:CG:4238, V-A:HIS:456:CG:4064, V-A:HIS:456:C:4059, V-A:VAL:457:C:4071, V-A:LYS:471:CG:4216, V-A:HIS:456:CA:4061, V-A:VAL:458:CG2:4085, V-A:LYS:471:CE:4218, V-A:LYS:547:CD:4947, V-A:LYS:547:CG:4946, H-B:GLY:544:N:9887, H-A:TYR:484:O:4336, V-A:LYS:547:CB:4945, V-A:ARG:545:C:4915, V-A:ARG:545:CA:4917, V-A:ASP:473:CB:4237, V-A:VAL:457:CA:4073, V-A:VAL:458:CB:4083, V-A:VAL:458:CA:4081"]

$$$$
3bc_Grossjean_2025
     RDKit          3D

 28 30  0  0  0  0  0  0  0  0999 V2000
  123.8970  132.4860   76.0050 C   0  0  0  0  0  0  0  0  0  0  0  0
  124.0000  131.1270   76.4150 O   0  0  0  0  0  0  0  0  0  0  0  0
  124.7150  130.2400   75.6310 C   0  0  0  0  0  0  0  0  0  0  0  0
  126.1000  130.4060   75.6110 C   0  0  0  0  0  0  0  0  0  0  0  0
  126.9050  129.5610   74.8510 C   0  0  0  0  0  0  0  0  0  0  0  0
  126.3310  128.5400   74.0920 C   0  0  0  0  0  0  0  0  0  0  0  0
  127.2240  127.7290   73.3660 N   0  0  0  0  0  0  0  0  0  0  0  0
  128.3490  128.0800   72.7070 C   0  0  0  0  0  0  0  0  0  0  0  0
  128.8130  129.2210   72.6680 O   0  0  0  0  0  0  0  0  0  0  0  0
  129.0720  126.9180   72.0110 C   0  0  0  0  0  0  0  0  0  0  0  0
  130.8790  126.8690   72.2600 S   0  0  0  0  0  0  0  0  0  0  0  0
  131.2640  125.3850   73.1630 C   0  0  0  0  0  0  0  0  0  0  0  0
  130.3610  124.3900   72.9850 N   0  0  0  0  0  0  0  0  0  0  0  0
  130.5340  123.1990   73.6160 C   0  0  0  0  0  0  0  0  0  0  0  0
  129.4800  122.1580   73.3840 C   0  0  0  0  0  0  0  0  0  0  0  0
  128.9030  121.4690   74.4610 C   0  0  0  0  0  0  0  0  0  0  0  0
  127.9230  120.5010   74.2540 C   0  0  0  0  0  0  0  0  0  0  0  0
  127.5080  120.2080   72.9590 C   0  0  0  0  0  0  0  0  0  0  0  0
  128.0650  120.8740   71.8730 C   0  0  0  0  0  0  0  0  0  0  0  0
  129.0450  121.8400   72.0860 C   0  0  0  0  0  0  0  0  0  0  0  0
  131.6350  122.9810   74.4510 C   0  0  0  0  0  0  0  0  0  0  0  0
  132.5880  123.9900   74.6260 C   0  0  0  0  0  0  0  0  0  0  0  0
  133.7840  123.7030   75.5330 C   0  0  0  0  0  0  0  0  0  0  0  0
  132.4170  125.2250   73.9640 C   0  0  0  0  0  0  0  0  0  0  0  0
  133.4270  126.2780   74.0940 C   0  0  0  0  0  0  0  0  0  0  0  0
  134.2260  127.1080   74.1990 N   0  0  0  0  0  0  0  0  0  0  0  0
  124.9400  128.3580   74.1160 C   0  0  0  0  0  0  0  0  0  0  0  0
  124.1390  129.2050   74.8780 C   0  0  0  0  0  0  0  0  0  0  0  0
  1  2  1  0
  2  3  1  0
  3  4  2  0
  4  5  1  0
  5  6  2  0
  6  7  1  0
  7  8  1  0
  8  9  2  0
  8 10  1  0
 10 11  1  0
 11 12  1  0
 12 13  2  0
 13 14  1  0
 14 15  1  0
 15 16  2  0
 16 17  1  0
 17 18  2  0
 18 19  1  0
 19 20  2  0
 14 21  2  0
 21 22  1  0
 22 23  1  0
 22 24  2  0
 24 25  1  0
 25 26  3  0
  6 27  1  0
 27 28  2  0
 28  3  1  0
 24 12  1  0
 20 15  1  0
M  END
>  <Binding energies>  (17) 
[-8.79]

>  <Ligand effiencies>  (17) 
[-0.30310344827586205]

>  <Interactions>  (17) 
["V-A:TYR:484:CB:4339, V-A:HIS:456:CD2:4066, V-B:LYS:547:CE:9922, V-B:GLU:543:C:9874, V-B:GLY:544:CA:9886, V-B:HIS:456:CG:9038, H-B:LYS:547:NZ:9923, V-B:LYS:471:CB:9189, V-B:LYS:471:CE:9192, V-B:VAL:457:C:9045, V-B:VAL:458:CG2:9059, H-A:LYS:547:NZ:4949, V-B:HIS:456:CB:9037, V-B:HIS:456:CA:9035, V-B:HIS:456:C:9033, V-B:VAL:457:CA:9047, V-B:LYS:471:C:9185, V-B:HIS:456:CD2:9040, V-B:GLY:544:C:9884, V-B:LYS:471:CG:9190, V-B:LYS:471:CD:9191, V-A:LYS:471:CD:4217, V-A:HIS:456:CB:4063, V-A:ASP:473:CG:4238, V-A:HIS:456:CG:4064, V-A:HIS:456:C:4059, V-A:LYS:471:CG:4216, V-A:VAL:458:CG2:4085, V-A:LYS:471:CE:4218, H-B:GLY:544:O:9885, V-B:ASP:473:CG:9212, V-B:ASP:473:CB:9211, V-B:ASP:473:CA:9209, V-B:LEU:472:CA:9200, V-B:LEU:472:C:9198"]

$$$$
3bd_Grossjean_2025
     RDKit          3D

 26 28  0  0  0  0  0  0  0  0999 V2000
  133.6930  123.4910   75.2860 C   0  0  0  0  0  0  0  0  0  0  0  0
  132.4680  123.8690   74.4560 C   0  0  0  0  0  0  0  0  0  0  0  0
  131.5240  122.8740   74.1770 C   0  0  0  0  0  0  0  0  0  0  0  0
  130.3900  123.1800   73.4160 C   0  0  0  0  0  0  0  0  0  0  0  0
  129.3380  122.1640   73.0850 C   0  0  0  0  0  0  0  0  0  0  0  0
  129.0230  121.8650   71.7500 C   0  0  0  0  0  0  0  0  0  0  0  0
  128.0460  120.9240   71.4360 C   0  0  0  0  0  0  0  0  0  0  0  0
  127.3680  120.2660   72.4570 C   0  0  0  0  0  0  0  0  0  0  0  0
  127.6580  120.5460   73.7880 C   0  0  0  0  0  0  0  0  0  0  0  0
  128.6350  121.4880   74.0980 C   0  0  0  0  0  0  0  0  0  0  0  0
  130.1840  124.4400   72.9510 N   0  0  0  0  0  0  0  0  0  0  0  0
  131.0890  125.4170   73.2110 C   0  0  0  0  0  0  0  0  0  0  0  0
  130.7080  127.0250   72.5350 S   0  0  0  0  0  0  0  0  0  0  0  0
  128.9260  127.0780   72.1790 C   0  0  0  0  0  0  0  0  0  0  0  0
  128.2400  128.2620   72.8610 C   0  0  0  0  0  0  0  0  0  0  0  0
  128.7600  129.3770   72.7900 O   0  0  0  0  0  0  0  0  0  0  0  0
  127.0940  127.9770   73.5170 N   0  0  0  0  0  0  0  0  0  0  0  0
  126.2310  128.8470   74.2110 C   0  0  0  0  0  0  0  0  0  0  0  0
  126.7820  130.0660   74.6160 C   0  0  0  0  0  0  0  0  0  0  0  0
  126.0070  130.9870   75.3150 C   0  0  0  0  0  0  0  0  0  0  0  0
  124.6820  130.6840   75.6210 C   0  0  0  0  0  0  0  0  0  0  0  0
  124.1270  129.4670   75.2350 C   0  0  0  0  0  0  0  0  0  0  0  0
  124.8980  128.5440   74.5340 C   0  0  0  0  0  0  0  0  0  0  0  0
  132.2580  125.1760   73.9650 C   0  0  0  0  0  0  0  0  0  0  0  0
  133.2280  126.2400   74.2400 C   0  0  0  0  0  0  0  0  0  0  0  0
  133.9930  127.0800   74.4590 N   0  0  0  0  0  0  0  0  0  0  0  0
  1  2  1  0
  2  3  2  0
  3  4  1  0
  4  5  1  0
  5  6  2  0
  6  7  1  0
  7  8  2  0
  8  9  1  0
  9 10  2  0
  4 11  2  0
 11 12  1  0
 12 13  1  0
 13 14  1  0
 14 15  1  0
 15 16  2  0
 15 17  1  0
 17 18  1  0
 18 19  2  0
 19 20  1  0
 20 21  2  0
 21 22  1  0
 22 23  2  0
 12 24  2  0
 24 25  1  0
 25 26  3  0
 24  2  1  0
 10  5  1  0
 23 18  1  0
M  END
>  <Binding energies>  (18) 
[-9.8]

>  <Ligand effiencies>  (18) 
[-0.362962962962963]

>  <Interactions>  (18) 
["V-A:TYR:484:CB:4339, V-A:HIS:456:CD2:4066, V-A:TYR:484:CG:4340, V-B:GLU:543:CA:9876, V-B:LYS:547:CE:9922, V-B:GLU:543:C:9874, V-B:GLY:544:CA:9886, V-B:HIS:456:CG:9038, H-B:LYS:547:NZ:9923, V-B:LYS:471:CE:9192, V-B:VAL:457:C:9045, V-B:VAL:458:CG2:9059, H-A:LYS:547:NZ:4949, V-B:HIS:456:CB:9037, V-B:HIS:456:CA:9035, V-B:HIS:456:C:9033, V-B:VAL:457:CA:9047, V-B:HIS:456:CD2:9040, V-B:GLY:544:C:9884, V-B:LYS:471:CG:9190, V-B:LYS:471:CD:9191, V-A:LYS:471:CD:4217, V-A:HIS:456:CB:4063, V-A:LYS:547:CE:4948, V-A:ASP:473:CG:4238, V-A:HIS:456:CG:4064, V-A:HIS:456:C:4059, V-A:LYS:471:CG:4216, V-A:VAL:458:CG2:4085, V-A:LYS:471:CE:4218, V-A:LYS:547:CD:4947, H-B:GLY:544:O:9885"]

$$$$
3be_Grossjean_2025
     RDKit          3D

 27 29  0  0  0  0  0  0  0  0999 V2000
  126.3170  131.8830   75.6010 C   0  0  0  0  0  0  0  0  0  0  0  0
  125.8150  130.5390   75.1110 C   0  0  0  0  0  0  0  0  0  0  0  0
  124.5030  130.1200   75.3400 C   0  0  0  0  0  0  0  0  0  0  0  0
  124.1110  128.8690   74.8620 C   0  0  0  0  0  0  0  0  0  0  0  0
  125.0320  128.0750   74.1730 C   0  0  0  0  0  0  0  0  0  0  0  0
  126.3310  128.5570   73.9740 C   0  0  0  0  0  0  0  0  0  0  0  0
  127.2130  127.7070   73.2820 N   0  0  0  0  0  0  0  0  0  0  0  0
  128.3470  128.0230   72.6200 C   0  0  0  0  0  0  0  0  0  0  0  0
  128.7990  129.1650   72.5110 O   0  0  0  0  0  0  0  0  0  0  0  0
  129.0740  126.8280   71.9830 C   0  0  0  0  0  0  0  0  0  0  0  0
  130.8780  126.7820   72.2570 S   0  0  0  0  0  0  0  0  0  0  0  0
  131.2570  125.3170   73.1940 C   0  0  0  0  0  0  0  0  0  0  0  0
  130.3570  124.3170   73.0270 N   0  0  0  0  0  0  0  0  0  0  0  0
  130.5260  123.1370   73.6810 C   0  0  0  0  0  0  0  0  0  0  0  0
  129.4780  122.0890   73.4530 C   0  0  0  0  0  0  0  0  0  0  0  0
  129.0270  121.7940   72.1560 C   0  0  0  0  0  0  0  0  0  0  0  0
  128.0540  120.8240   71.9380 C   0  0  0  0  0  0  0  0  0  0  0  0
  127.5140  120.1330   73.0170 C   0  0  0  0  0  0  0  0  0  0  0  0
  127.9400  120.4060   74.3110 C   0  0  0  0  0  0  0  0  0  0  0  0
  128.9140  121.3780   74.5260 C   0  0  0  0  0  0  0  0  0  0  0  0
  131.6180  122.9390   74.5320 C   0  0  0  0  0  0  0  0  0  0  0  0
  132.5690  123.9510   74.6960 C   0  0  0  0  0  0  0  0  0  0  0  0
  133.7550  123.6830   75.6210 C   0  0  0  0  0  0  0  0  0  0  0  0
  132.4040  125.1730   74.0070 C   0  0  0  0  0  0  0  0  0  0  0  0
  133.4160  126.2250   74.1220 C   0  0  0  0  0  0  0  0  0  0  0  0
  134.2170  127.0560   74.2150 N   0  0  0  0  0  0  0  0  0  0  0  0
  126.7200  129.7790   74.4430 N   0  0  0  0  0  0  0  0  0  0  0  0
  1  2  1  0
  2  3  2  0
  3  4  1  0
  4  5  2  0
  5  6  1  0
  6  7  1  0
  7  8  1  0
  8  9  2  0
  8 10  1  0
 10 11  1  0
 11 12  1  0
 12 13  2  0
 13 14  1  0
 14 15  1  0
 15 16  2  0
 16 17  1  0
 17 18  2  0
 18 19  1  0
 19 20  2  0
 14 21  2  0
 21 22  1  0
 22 23  1  0
 22 24  2  0
 24 25  1  0
 25 26  3  0
  6 27  2  0
 27  2  1  0
 24 12  1  0
 20 15  1  0
M  END
>  <Binding energies>  (19) 
[-9.26]

>  <Ligand effiencies>  (19) 
[-0.3307142857142857]

>  <Interactions>  (19) 
["V-A:TYR:484:CB:4339, V-A:HIS:456:CD2:4066, V-B:LYS:547:CE:9922, V-B:GLU:543:C:9874, V-B:LYS:547:CG:9920, V-B:GLY:544:CA:9886, V-B:HIS:456:CG:9038, H-B:LYS:547:NZ:9923, V-B:LYS:471:CE:9192, V-B:VAL:457:C:9045, V-B:VAL:458:CG2:9059, H-A:LYS:547:NZ:4949, V-B:HIS:456:CB:9037, V-B:HIS:456:CA:9035, V-B:HIS:456:C:9033, V-B:VAL:457:CA:9047, V-B:HIS:456:CD2:9040, V-B:GLY:544:C:9884, V-B:LYS:471:CD:9191, V-A:LYS:471:CD:4217, V-A:HIS:456:CB:4063, V-A:ASP:473:CG:4238, V-A:HIS:456:CG:4064, V-A:HIS:456:C:4059, V-A:LYS:471:CG:4216, V-A:VAL:458:CG2:4085, V-A:LYS:471:CE:4218, H-B:GLY:544:O:9885, V-B:ASP:473:CG:9212, V-B:LYS:547:CD:9921"]

$$$$
3bf_Grossjean_2025
     RDKit          3D

 26 28  0  0  0  0  0  0  0  0999 V2000
  125.1020  131.1810   75.6520 C   0  0  0  0  0  0  0  0  0  0  0  0
  126.2460  130.8120   74.7100 C   0  0  0  0  0  0  0  0  0  0  0  0
  127.1650  131.8100   74.3670 C   0  0  0  0  0  0  0  0  0  0  0  0
  128.2370  131.5120   73.5190 C   0  0  0  0  0  0  0  0  0  0  0  0
  129.2680  132.5290   73.1310 C   0  0  0  0  0  0  0  0  0  0  0  0
  129.3560  132.9920   71.8090 C   0  0  0  0  0  0  0  0  0  0  0  0
  130.3110  133.9360   71.4420 C   0  0  0  0  0  0  0  0  0  0  0  0
  131.1940  134.4310   72.3960 C   0  0  0  0  0  0  0  0  0  0  0  0
  131.1280  133.9890   73.7130 C   0  0  0  0  0  0  0  0  0  0  0  0
  130.1720  133.0430   74.0760 C   0  0  0  0  0  0  0  0  0  0  0  0
  128.4010  130.2590   73.0170 N   0  0  0  0  0  0  0  0  0  0  0  0
  127.5050  129.2880   73.3190 C   0  0  0  0  0  0  0  0  0  0  0  0
  127.8760  127.7160   72.5690 S   0  0  0  0  0  0  0  0  0  0  0  0
  129.6780  127.6330   72.2930 C   0  0  0  0  0  0  0  0  0  0  0  0
  130.3730  126.4010   72.8930 C   0  0  0  0  0  0  0  0  0  0  0  0
  129.8340  125.2940   72.8540 O   0  0  0  0  0  0  0  0  0  0  0  0
  131.5950  126.6430   73.4160 N   0  0  0  0  0  0  0  0  0  0  0  0
  132.4800  125.7470   74.0440 C   0  0  0  0  0  0  0  0  0  0  0  0
  131.9540  124.5210   74.4660 C   0  0  0  0  0  0  0  0  0  0  0  0
  132.7850  123.5830   75.0840 C   0  0  0  0  0  0  0  0  0  0  0  0
  134.1320  123.9000   75.2590 C   0  0  0  0  0  0  0  0  0  0  0  0
  134.6710  125.0770   74.8510 N   0  0  0  0  0  0  0  0  0  0  0  0
  133.8510  125.9790   74.2520 C   0  0  0  0  0  0  0  0  0  0  0  0
  126.4110  129.5120   74.1840 C   0  0  0  0  0  0  0  0  0  0  0  0
  125.4890  128.4410   74.5690 C   0  0  0  0  0  0  0  0  0  0  0  0
  124.7590  127.5960   74.8740 N   0  0  0  0  0  0  0  0  0  0  0  0
  1  2  1  0
  2  3  2  0
  3  4  1  0
  4  5  1  0
  5  6  2  0
  6  7  1  0
  7  8  2  0
  8  9  1  0
  9 10  2  0
  4 11  2  0
 11 12  1  0
 12 13  1  0
 13 14  1  0
 14 15  1  0
 15 16  2  0
 15 17  1  0
 17 18  1  0
 18 19  2  0
 19 20  1  0
 20 21  2  0
 21 22  1  0
 22 23  2  0
 12 24  2  0
 24 25  1  0
 25 26  3  0
 24  2  1  0
 10  5  1  0
 23 18  1  0
M  END
>  <Binding energies>  (20) 
[-9.59]

>  <Ligand effiencies>  (20) 
[-0.35518518518518516]

>  <Interactions>  (20) 
["V-A:HIS:456:CD2:4066, V-B:HIS:456:CG:9038, H-B:LYS:547:NZ:9923, V-B:LYS:471:CE:9192, V-B:VAL:458:CG2:9059, H-A:LYS:547:NZ:4949, V-B:HIS:456:CB:9037, V-A:GLY:544:C:4910, V-B:HIS:456:C:9033, V-A:GLU:543:C:4900, V-B:HIS:456:CD2:9040, V-B:LYS:471:CG:9190, V-B:LYS:471:CD:9191, V-A:LYS:471:CD:4217, V-A:HIS:456:CB:4063, V-A:LYS:547:CE:4948, V-A:HIS:456:CG:4064, V-A:HIS:456:C:4059, V-A:VAL:457:C:4071, V-A:LYS:471:CG:4216, V-A:HIS:456:CA:4061, H-A:VAL:458:N:4082, V-A:VAL:458:CG2:4085, V-A:LYS:471:CE:4218, H-A:GLY:544:O:4911, V-B:ASP:473:CG:9212, V-B:TYR:484:CD1:9315, V-A:GLY:544:CA:4912, V-B:TYR:484:CB:9313, V-A:GLU:543:CA:4902, V-B:LYS:547:CD:9921, V-B:TYR:484:CG:9314, H-A:VAL:457:N:4074"]

$$$$
3bg_Grossjean_2025
     RDKit          3D

 27 29  0  0  0  0  0  0  0  0999 V2000
  125.8540  134.9580   60.6120 C   0  0  0  0  0  0  0  0  0  0  0  0
  126.5040  133.6250   60.9750 C   0  0  0  0  0  0  0  0  0  0  0  0
  127.7640  133.3370   60.4430 C   0  0  0  0  0  0  0  0  0  0  0  0
  128.4000  132.1280   60.7560 C   0  0  0  0  0  0  0  0  0  0  0  0
  129.7590  131.7620   60.2270 C   0  0  0  0  0  0  0  0  0  0  0  0
  130.0350  131.8010   58.8500 C   0  0  0  0  0  0  0  0  0  0  0  0
  131.2960  131.4800   58.3580 C   0  0  0  0  0  0  0  0  0  0  0  0
  132.3070  131.1100   59.2380 C   0  0  0  0  0  0  0  0  0  0  0  0
  132.0610  131.0510   60.6050 C   0  0  0  0  0  0  0  0  0  0  0  0
  130.7970  131.3710   61.0920 C   0  0  0  0  0  0  0  0  0  0  0  0
  127.8080  131.2340   61.5930 N   0  0  0  0  0  0  0  0  0  0  0  0
  126.5860  131.4990   62.1210 C   0  0  0  0  0  0  0  0  0  0  0  0
  125.9360  130.2590   63.2300 S   0  0  0  0  0  0  0  0  0  0  0  0
  126.7740  130.4370   64.8390 C   0  0  0  0  0  0  0  0  0  0  0  0
  126.2040  129.4770   65.8880 C   0  0  0  0  0  0  0  0  0  0  0  0
  125.0650  129.6500   66.3230 O   0  0  0  0  0  0  0  0  0  0  0  0
  127.0170  128.4890   66.2990 N   0  0  0  0  0  0  0  0  0  0  0  0
  126.7510  127.5780   67.4120 C   0  0  0  0  0  0  0  0  0  0  0  0
  127.9400  127.4800   68.3600 C   0  0  0  0  0  0  0  0  0  0  0  0
  129.2430  127.4620   67.8500 C   0  0  0  0  0  0  0  0  0  0  0  0
  130.3290  127.3630   68.7150 C   0  0  0  0  0  0  0  0  0  0  0  0
  130.1110  127.2940   70.0900 C   0  0  0  0  0  0  0  0  0  0  0  0
  128.8180  127.3310   70.6070 C   0  0  0  0  0  0  0  0  0  0  0  0
  127.7320  127.4300   69.7410 C   0  0  0  0  0  0  0  0  0  0  0  0
  125.8860  132.6890   61.8310 C   0  0  0  0  0  0  0  0  0  0  0  0
  124.5690  132.9660   62.4110 C   0  0  0  0  0  0  0  0  0  0  0  0
  123.5290  133.1860   62.8670 N   0  0  0  0  0  0  0  0  0  0  0  0
  1  2  1  0
  2  3  2  0
  3  4  1  0
  4  5  1  0
  5  6  2  0
  6  7  1  0
  7  8  2  0
  8  9  1  0
  9 10  2  0
  4 11  2  0
 11 12  1  0
 12 13  1  0
 13 14  1  0
 14 15  1  0
 15 16  2  0
 15 17  1  0
 17 18  1  0
 18 19  1  0
 19 20  2  0
 20 21  1  0
 21 22  2  0
 22 23  1  0
 23 24  2  0
 12 25  2  0
 25 26  1  0
 26 27  3  0
 25  2  1  0
 10  5  1  0
 24 19  1  0
M  END
>  <Binding energies>  (21) 
[-8.41]

>  <Ligand effiencies>  (21) 
[-0.3003571428571429]

>  <Interactions>  (21) 
["V-A:GLU:543:CD:4906, V-B:GLU:543:CG:9879, V-A:HIS:456:CE1:4068, V-B:GLU:543:CD:9880, V-A:HIS:456:CD2:4066, V-B:GLU:543:C:9874, V-A:TYR:539:CE2:4874, V-B:GLY:454:CA:9021, V-A:TYR:539:CD2:4872, V-B:LEU:475:CD2:9231, V-A:ALA:541:CB:4890, H-B:GLY:454:N:9022, H-B:TYR:484:OH:9320, V-A:TYR:539:C:4865, H-A:GLU:543:OE1:4907, H-A:GLU:543:OE2:4908, H-B:GLU:543:OE2:9882, V-A:PRO:540:CA:4881, V-B:HIS:456:CE1:9042, V-A:PRO:540:CB:4883, V-B:ARG:545:CG:9894, H-B:ARG:545:NE:9896, V-A:GLU:543:CG:4905, V-A:PRO:540:N:4882, V-B:TRP:381:CZ2:8342, V-B:TRP:381:CH2:8344, V-A:GLY:544:C:4910, V-A:GLU:543:C:4900, V-B:GLY:544:C:9884, H-B:HIS:456:ND1:9039"]

$$$$
3ca_Grossjean_2025
     RDKit          3D

 31 33  0  0  0  0  0  0  0  0999 V2000
  126.2260  129.3360   74.5500 C   0  0  0  0  0  0  0  0  0  0  0  0
  126.7820  128.1280   73.7920 C   0  0  0  0  0  0  0  0  0  0  0  0
  128.1860  128.2780   73.6260 O   0  0  0  0  0  0  0  0  0  0  0  0
  128.6960  129.0640   72.6440 C   0  0  0  0  0  0  0  0  0  0  0  0
  128.9780  130.2560   72.8030 O   0  0  0  0  0  0  0  0  0  0  0  0
  128.8910  128.3380   71.3430 C   0  0  0  0  0  0  0  0  0  0  0  0
  130.1780  127.9270   70.9750 C   0  0  0  0  0  0  0  0  0  0  0  0
  130.3900  127.2530   69.7760 C   0  0  0  0  0  0  0  0  0  0  0  0
  129.3230  126.9820   68.9180 C   0  0  0  0  0  0  0  0  0  0  0  0
  129.6480  126.2940   67.7330 N   0  0  0  0  0  0  0  0  0  0  0  0
  130.5940  126.5680   66.8090 C   0  0  0  0  0  0  0  0  0  0  0  0
  131.3890  127.5070   66.8600 O   0  0  0  0  0  0  0  0  0  0  0  0
  130.6610  125.5910   65.6300 C   0  0  0  0  0  0  0  0  0  0  0  0
  132.2740  125.5990   64.7810 S   0  0  0  0  0  0  0  0  0  0  0  0
  132.1870  124.5980   63.3020 C   0  0  0  0  0  0  0  0  0  0  0  0
  133.1360  123.6350   63.1880 N   0  0  0  0  0  0  0  0  0  0  0  0
  133.1190  122.8270   62.1060 C   0  0  0  0  0  0  0  0  0  0  0  0
  134.2000  121.7650   62.0600 C   0  0  0  0  0  0  0  0  0  0  0  0
  132.1730  122.9530   61.0910 C   0  0  0  0  0  0  0  0  0  0  0  0
  131.1940  123.9510   61.1770 C   0  0  0  0  0  0  0  0  0  0  0  0
  130.2090  124.0580   60.0590 C   0  0  0  0  0  0  0  0  0  0  0  0
  129.0180  123.3220   60.0990 C   0  0  0  0  0  0  0  0  0  0  0  0
  128.0980  123.4070   59.0580 C   0  0  0  0  0  0  0  0  0  0  0  0
  128.3680  124.2280   57.9660 C   0  0  0  0  0  0  0  0  0  0  0  0
  129.5510  124.9620   57.9070 C   0  0  0  0  0  0  0  0  0  0  0  0
  130.4680  124.8730   58.9500 C   0  0  0  0  0  0  0  0  0  0  0  0
  131.1900  124.7960   62.3170 C   0  0  0  0  0  0  0  0  0  0  0  0
  130.1600  125.8250   62.4870 C   0  0  0  0  0  0  0  0  0  0  0  0
  129.3450  126.6370   62.6190 N   0  0  0  0  0  0  0  0  0  0  0  0
  128.0290  127.3830   69.2820 C   0  0  0  0  0  0  0  0  0  0  0  0
  127.8190  128.0560   70.4830 C   0  0  0  0  0  0  0  0  0  0  0  0
  1  2  1  0
  2  3  1  0
  3  4  1  0
  4  5  2  0
  4  6  1  0
  6  7  2  0
  7  8  1  0
  8  9  2  0
  9 10  1  0
 10 11  1  0
 11 12  2  0
 11 13  1  0
 13 14  1  0
 14 15  1  0
 15 16  2  0
 16 17  1  0
 17 18  1  0
 17 19  2  0
 19 20  1  0
 20 21  1  0
 21 22  2  0
 22 23  1  0
 23 24  2  0
 24 25  1  0
 25 26  2  0
 20 27  2  0
 27 28  1  0
 28 29  3  0
  9 30  1  0
 30 31  2  0
 31  6  1  0
 27 15  1  0
 26 21  1  0
M  END
>  <Binding energies>  (22) 
[-8.1]

>  <Ligand effiencies>  (22) 
[-0.253125]

>  <Interactions>  (22) 
["H-A:GLY:454:N:4048, V-A:GLU:543:CD:4906, V-B:GLU:543:CG:9879, V-A:HIS:456:CE1:4068, V-A:ILE:369:CD1:3237, V-B:GLU:543:CD:9880, V-B:GLU:543:CB:9878, V-A:GLY:454:CA:4047, V-A:HIS:456:CD2:4066, V-B:LYS:547:CE:9922, V-B:GLU:543:C:9874, V-B:PRO:540:CA:9855, V-A:LEU:475:CD2:4257, V-B:TYR:539:C:9839, H-A:TYR:484:OH:4346, H-A:ARG:545:NH2:4926, H-B:GLU:543:OE2:9882, V-B:HIS:456:CE1:9042, H-A:ARG:545:NE:4922, V-A:GLU:543:CG:4905, V-B:HIS:456:CG:9038, H-A:LYS:547:NZ:4949, V-B:HIS:456:CB:9037, V-A:GLY:544:C:4910, H-A:HIS:456:NE2:4069, V-A:GLU:543:C:4900, H-B:GLU:543:O:9875, V-B:HIS:456:CD2:9040, V-B:GLY:544:C:9884, V-A:LYS:547:CE:4948, V-A:GLY:453:C:4040, V-A:GLY:544:CA:4912"]

$$$$
3ce_Grossjean_2025
     RDKit          3D

 27 29  0  0  0  0  0  0  0  0999 V2000
  134.4590  125.0330   66.3620 C   0  0  0  0  0  0  0  0  0  0  0  0
  133.4160  125.1390   65.2660 C   0  0  0  0  0  0  0  0  0  0  0  0
  132.0900  125.4740   65.5490 C   0  0  0  0  0  0  0  0  0  0  0  0
  131.1870  125.5630   64.4900 C   0  0  0  0  0  0  0  0  0  0  0  0
  131.6250  125.3170   63.1870 C   0  0  0  0  0  0  0  0  0  0  0  0
  132.9650  124.9750   62.9740 C   0  0  0  0  0  0  0  0  0  0  0  0
  133.3540  124.7570   61.6410 N   0  0  0  0  0  0  0  0  0  0  0  0
  133.8930  123.6420   61.0990 C   0  0  0  0  0  0  0  0  0  0  0  0
  134.1290  122.6010   61.7140 O   0  0  0  0  0  0  0  0  0  0  0  0
  134.2090  123.7180   59.6060 C   0  0  0  0  0  0  0  0  0  0  0  0
  132.7600  124.2160   58.6290 S   0  0  0  0  0  0  0  0  0  0  0  0
  131.3880  123.3080   59.3030 C   0  0  0  0  0  0  0  0  0  0  0  0
  131.7020  122.0520   59.7050 N   0  0  0  0  0  0  0  0  0  0  0  0
  130.7290  121.2850   60.2480 C   0  0  0  0  0  0  0  0  0  0  0  0
  131.1510  119.8960   60.6880 C   0  0  0  0  0  0  0  0  0  0  0  0
  129.4180  121.7310   60.3980 C   0  0  0  0  0  0  0  0  0  0  0  0
  129.0680  123.0160   59.9650 C   0  0  0  0  0  0  0  0  0  0  0  0
  127.6450  123.4400   60.1230 C   0  0  0  0  0  0  0  0  0  0  0  0
  126.8330  123.6140   58.9950 C   0  0  0  0  0  0  0  0  0  0  0  0
  125.5070  124.0150   59.1350 C   0  0  0  0  0  0  0  0  0  0  0  0
  124.9870  124.2510   60.4040 C   0  0  0  0  0  0  0  0  0  0  0  0
  125.7840  124.0920   61.5350 C   0  0  0  0  0  0  0  0  0  0  0  0
  127.1090  123.6900   61.3930 C   0  0  0  0  0  0  0  0  0  0  0  0
  130.0790  123.8370   59.4040 C   0  0  0  0  0  0  0  0  0  0  0  0
  129.7760  125.1970   58.9470 C   0  0  0  0  0  0  0  0  0  0  0  0
  129.5350  126.2700   58.5870 N   0  0  0  0  0  0  0  0  0  0  0  0
  133.8570  124.8940   64.0060 N   0  0  0  0  0  0  0  0  0  0  0  0
  1  2  1  0
  2  3  2  0
  3  4  1  0
  4  5  2  0
  5  6  1  0
  6  7  1  0
  7  8  1  0
  8  9  2  0
  8 10  1  0
 10 11  1  0
 11 12  1  0
 12 13  2  0
 13 14  1  0
 14 15  1  0
 14 16  2  0
 16 17  1  0
 17 18  1  0
 18 19  2  0
 19 20  1  0
 20 21  2  0
 21 22  1  0
 22 23  2  0
 17 24  2  0
 24 25  1  0
 25 26  3  0
  6 27  2  0
 27  2  1  0
 24 12  1  0
 23 18  1  0
M  END
>  <Binding energies>  (23) 
[-8.46]

>  <Ligand effiencies>  (23) 
[-0.30214285714285716]

>  <Interactions>  (23) 
["H-A:GLY:454:N:4048, V-A:ASP:366:CG:3211, H-B:TYR:539:OH:9850, V-A:HIS:456:CE1:4068, V-A:ILE:369:CB:3234, V-B:TYR:539:CE2:9848, V-A:ARG:545:CD:4921, V-A:GLY:453:CA:4042, V-A:ILE:369:CD1:3237, V-A:ILE:369:CG2:3235, V-A:ARG:545:CG:4920, V-B:GLU:543:CD:9880, V-A:ARG:545:CZ:4924, V-A:GLY:454:CA:4047, V-A:ASP:366:CA:3208, V-B:PRO:540:CB:9857, V-B:TYR:539:CD2:9846, V-B:PRO:540:N:9856, V-B:PRO:540:CA:9855, V-B:ALA:541:CB:9864, H-A:ASP:366:OD1:3212, V-A:LEU:475:CD2:4257, V-B:TYR:539:C:9839, H-A:TYR:484:OH:4346, H-A:ARG:545:NE:4922, H-A:ASP:366:OD2:3213, V-A:TRP:381:CZ2:3368, V-A:TRP:381:CH2:3370, V-A:ARG:545:CB:4919, V-A:GLY:453:C:4040, H-A:ARG:545:NH1:4925, V-A:ILE:369:CG1:3236, V-A:ILE:455:C:4050"]

$$$$
3cj_Grossjean_2025
     RDKit          3D

 25 27  0  0  0  0  0  0  0  0999 V2000
  126.4810  135.1840   61.3170 C   0  0  0  0  0  0  0  0  0  0  0  0
  126.8440  133.8360   60.7260 C   0  0  0  0  0  0  0  0  0  0  0  0
  128.1640  133.3900   60.6860 C   0  0  0  0  0  0  0  0  0  0  0  0
  128.4510  132.1260   60.1510 C   0  0  0  0  0  0  0  0  0  0  0  0
  129.8690  131.6620   60.1890 C   0  0  0  0  0  0  0  0  0  0  0  0
  130.5030  131.4110   61.4110 C   0  0  0  0  0  0  0  0  0  0  0  0
  131.8300  130.9910   61.4450 C   0  0  0  0  0  0  0  0  0  0  0  0
  132.5300  130.8260   60.2540 C   0  0  0  0  0  0  0  0  0  0  0  0
  131.9170  131.0810   59.0300 C   0  0  0  0  0  0  0  0  0  0  0  0
  130.5890  131.5010   58.9990 C   0  0  0  0  0  0  0  0  0  0  0  0
  127.3820  131.3530   59.6350 C   0  0  0  0  0  0  0  0  0  0  0  0
  127.6230  130.0360   59.0360 C   0  0  0  0  0  0  0  0  0  0  0  0
  127.8130  128.9960   58.5650 N   0  0  0  0  0  0  0  0  0  0  0  0
  126.0750  131.8830   59.7200 C   0  0  0  0  0  0  0  0  0  0  0  0
  124.6310  130.9630   59.2320 S   0  0  0  0  0  0  0  0  0  0  0  0
  123.3580  131.4090   60.4560 C   0  0  0  0  0  0  0  0  0  0  0  0
  123.9220  131.4440   61.8800 C   0  0  0  0  0  0  0  0  0  0  0  0
  123.8910  132.4970   62.5200 O   0  0  0  0  0  0  0  0  0  0  0  0
  124.3910  130.2660   62.3460 N   0  0  0  0  0  0  0  0  0  0  0  0
  124.8260  130.0000   63.6340 C   0  0  0  0  0  0  0  0  0  0  0  0
  124.1100  129.9560   64.7360 N   0  0  0  0  0  0  0  0  0  0  0  0
  124.8500  129.6430   65.7810 C   0  0  0  0  0  0  0  0  0  0  0  0
  126.2020  129.4260   65.5360 C   0  0  0  0  0  0  0  0  0  0  0  0
  126.5130  129.6480   63.8400 S   0  0  0  0  0  0  0  0  0  0  0  0
  125.8110  133.0970   60.2650 N   0  0  0  0  0  0  0  0  0  0  0  0
  1  2  1  0
  2  3  2  0
  3  4  1  0
  4  5  1  0
  5  6  2  0
  6  7  1  0
  7  8  2  0
  8  9  1  0
  9 10  2  0
  4 11  2  0
 11 12  1  0
 12 13  3  0
 11 14  1  0
 14 15  1  0
 15 16  1  0
 16 17  1  0
 17 18  2  0
 17 19  1  0
 19 20  1  0
 20 21  2  0
 21 22  1  0
 22 23  2  0
 23 24  1  0
 14 25  2  0
 25  2  1  0
 10  5  1  0
 24 20  1  0
M  END
>  <Binding energies>  (24) 
[-7.54]

>  <Ligand effiencies>  (24) 
[-0.29]

>  <Interactions>  (24) 
["V-A:GLU:543:CD:4906, V-A:ASP:366:CG:3211, V-B:ASP:366:CG:8185, V-A:TYR:539:CE2:4874, H-B:ARG:545:NH1:9899, V-A:TYR:539:CD2:4872, H-B:ASP:366:OD1:8186, V-B:LEU:475:CD2:9231, V-A:ALA:541:CB:4890, H-B:GLY:454:N:9022, H-B:TYR:484:OH:9320, V-A:TYR:539:C:4865, V-B:ARG:545:CZ:9898, V-B:ILE:369:CD1:8211, V-B:ILE:369:CG2:8209, V-A:PRO:540:CA:4881, V-B:HIS:456:CE1:9042, V-A:PRO:540:CB:4883, V-B:ARG:545:CG:9894, H-B:ASP:366:OD2:8187, H-B:ARG:545:NE:9896, V-B:ILE:369:CB:8208, V-A:PRO:540:N:4882, V-B:TRP:381:CZ2:8342, V-B:TRP:381:CH2:8344, V-B:ARG:545:CD:9895"]

$$$$
4ba_Grossjean_2025
     RDKit          3D

 28 30  0  0  0  0  0  0  0  0999 V2000
  128.2190  127.7520   72.7660 C   0  0  0  0  0  0  0  0  0  0  0  0
  128.7760  126.4570   72.1450 C   0  0  0  0  0  0  0  0  0  0  0  0
  129.8220  126.6630   71.0310 C   0  0  0  0  0  0  0  0  0  0  0  0
  131.0110  126.4380   71.2650 O   0  0  0  0  0  0  0  0  0  0  0  0
  129.3320  127.1310   69.6910 C   0  0  0  0  0  0  0  0  0  0  0  0
  127.9580  127.3130   69.4870 C   0  0  0  0  0  0  0  0  0  0  0  0
  127.4760  127.7450   68.2550 C   0  0  0  0  0  0  0  0  0  0  0  0
  128.3550  128.0070   67.2030 C   0  0  0  0  0  0  0  0  0  0  0  0
  127.7600  128.4300   65.9990 N   0  0  0  0  0  0  0  0  0  0  0  0
  126.5130  128.9070   65.7630 C   0  0  0  0  0  0  0  0  0  0  0  0
  125.6370  129.0100   66.6240 O   0  0  0  0  0  0  0  0  0  0  0  0
  126.2400  129.2850   64.3750 C   0  0  0  0  0  0  0  0  0  0  0  0
  124.8330  130.2700   63.9840 S   0  0  0  0  0  0  0  0  0  0  0  0
  125.2030  130.2050   62.2770 C   0  0  0  0  0  0  0  0  0  0  0  0
  124.4330  130.8140   61.3770 N   0  0  0  0  0  0  0  0  0  0  0  0
  124.8200  130.6940   60.0860 C   0  0  0  0  0  0  0  0  0  0  0  0
  123.9240  131.3870   59.0760 C   0  0  0  0  0  0  0  0  0  0  0  0
  125.9500  129.9890   59.6790 C   0  0  0  0  0  0  0  0  0  0  0  0
  126.7650  129.3450   60.6240 C   0  0  0  0  0  0  0  0  0  0  0  0
  127.9990  128.5840   60.1280 C   0  0  0  0  0  0  0  0  0  0  0  0
  129.1390  129.0370   60.6550 F   0  0  0  0  0  0  0  0  0  0  0  0
  127.8960  127.2940   60.4510 F   0  0  0  0  0  0  0  0  0  0  0  0
  128.0980  128.7000   58.8040 F   0  0  0  0  0  0  0  0  0  0  0  0
  126.3810  129.4490   61.9940 C   0  0  0  0  0  0  0  0  0  0  0  0
  126.9470  128.9260   63.2150 C   0  0  0  0  0  0  0  0  0  0  0  0
  128.0780  128.1500   63.2330 N   0  0  0  0  0  0  0  0  0  0  0  0
  129.7320  127.8220   67.3980 C   0  0  0  0  0  0  0  0  0  0  0  0
  130.2120  127.3890   68.6310 C   0  0  0  0  0  0  0  0  0  0  0  0
  1  2  1  0
  2  3  1  0
  3  4  2  0
  3  5  1  0
  5  6  2  0
  6  7  1  0
  7  8  2  0
  8  9  1  0
  9 10  1  0
 10 11  2  0
 10 12  1  0
 12 13  1  0
 13 14  1  0
 14 15  2  0
 15 16  1  0
 16 17  1  0
 16 18  2  0
 18 19  1  0
 19 20  1  0
 20 21  1  0
 20 22  1  0
 20 23  1  0
 19 24  2  0
 24 25  1  0
 25 26  1  0
  8 27  1  0
 27 28  2  0
 28  5  1  0
 25 12  2  0
 24 14  1  0
M  END
>  <Binding energies>  (25) 
[-6.96]

>  <Ligand effiencies>  (25) 
[-0.22451612903225807]

>  <Interactions>  (25) 
["V-A:GLU:543:CD:4906, V-B:GLU:543:CG:9879, V-A:HIS:456:CE1:4068, V-B:GLU:543:CD:9880, V-A:HIS:456:CD2:4066, V-B:LYS:547:CE:9922, V-B:GLU:543:C:9874, V-B:GLY:544:CA:9886, V-B:ASP:366:CB:8184, V-B:ASP:366:CG:8185, V-A:TYR:539:CE2:4874, H-B:TYR:484:OH:9320, H-B:GLU:543:OE1:9881, V-B:ARG:545:CZ:9898, H-A:GLU:543:OE1:4907, H-A:GLU:543:OE2:4908, V-A:GLU:543:CB:4904, H-B:GLU:543:OE2:9882, V-B:ILE:369:CG2:8209, V-B:HIS:456:CE1:9042, V-B:ASP:366:CA:8182, V-B:ARG:545:CG:9894, H-B:ARG:545:NE:9896, V-A:GLU:543:CG:4905, V-A:GLU:543:C:4900, V-B:GLY:544:C:9884, H-A:HIS:456:ND1:4065, H-B:HIS:456:ND1:9039"]

$$$$
4bb_Grossjean_2025
     RDKit          3D

 27 29  0  0  0  0  0  0  0  0999 V2000
  128.8540  126.2470   72.0430 C   0  0  0  0  0  0  0  0  0  0  0  0
  129.8780  126.6520   70.9810 C   0  0  0  0  0  0  0  0  0  0  0  0
  131.0740  126.5780   71.2700 O   0  0  0  0  0  0  0  0  0  0  0  0
  129.3730  127.1280   69.6520 C   0  0  0  0  0  0  0  0  0  0  0  0
  127.9990  127.3280   69.4700 C   0  0  0  0  0  0  0  0  0  0  0  0
  127.5040  127.7690   68.2470 C   0  0  0  0  0  0  0  0  0  0  0  0
  128.3720  128.0250   67.1840 C   0  0  0  0  0  0  0  0  0  0  0  0
  127.7650  128.4640   65.9900 N   0  0  0  0  0  0  0  0  0  0  0  0
  126.5000  128.8940   65.7640 C   0  0  0  0  0  0  0  0  0  0  0  0
  125.6220  128.9440   66.6240 O   0  0  0  0  0  0  0  0  0  0  0  0
  126.2120  129.2850   64.3810 C   0  0  0  0  0  0  0  0  0  0  0  0
  124.7760  130.2360   64.0080 S   0  0  0  0  0  0  0  0  0  0  0  0
  125.1470  130.2150   62.3000 C   0  0  0  0  0  0  0  0  0  0  0  0
  124.3650  130.8240   61.4110 N   0  0  0  0  0  0  0  0  0  0  0  0
  124.7560  130.7370   60.1180 C   0  0  0  0  0  0  0  0  0  0  0  0
  123.8510  131.4390   59.1220 C   0  0  0  0  0  0  0  0  0  0  0  0
  125.8980  130.0620   59.6980 C   0  0  0  0  0  0  0  0  0  0  0  0
  126.7270  129.4190   60.6300 C   0  0  0  0  0  0  0  0  0  0  0  0
  127.9740  128.6890   60.1200 C   0  0  0  0  0  0  0  0  0  0  0  0
  129.1070  129.1630   60.6440 F   0  0  0  0  0  0  0  0  0  0  0  0
  127.8990  127.3950   60.4340 F   0  0  0  0  0  0  0  0  0  0  0  0
  128.0630  128.8170   58.7960 F   0  0  0  0  0  0  0  0  0  0  0  0
  126.3440  129.4900   62.0040 C   0  0  0  0  0  0  0  0  0  0  0  0
  126.9270  128.9670   63.2130 C   0  0  0  0  0  0  0  0  0  0  0  0
  128.0830  128.2290   63.2190 N   0  0  0  0  0  0  0  0  0  0  0  0
  129.7500  127.8200   67.3560 C   0  0  0  0  0  0  0  0  0  0  0  0
  130.2430  127.3770   68.5810 C   0  0  0  0  0  0  0  0  0  0  0  0
  1  2  1  0
  2  3  2  0
  2  4  1  0
  4  5  2  0
  5  6  1  0
  6  7  2  0
  7  8  1  0
  8  9  1  0
  9 10  2  0
  9 11  1  0
 11 12  1  0
 12 13  1  0
 13 14  2  0
 14 15  1  0
 15 16  1  0
 15 17  2  0
 17 18  1  0
 18 19  1  0
 19 20  1  0
 19 21  1  0
 19 22  1  0
 18 23  2  0
 23 24  1  0
 24 25  1  0
  7 26  1  0
 26 27  2  0
 27  4  1  0
 24 11  2  0
 23 13  1  0
M  END
>  <Binding energies>  (26) 
[-6.84]

>  <Ligand effiencies>  (26) 
[-0.228]

>  <Interactions>  (26) 
["V-A:GLU:543:CD:4906, V-B:GLU:543:CG:9879, V-A:HIS:456:CE1:4068, V-B:GLU:543:CD:9880, V-A:HIS:456:CD2:4066, V-B:LYS:547:CE:9922, V-B:GLU:543:C:9874, V-B:GLY:544:CA:9886, V-B:ASP:366:CB:8184, V-B:ASP:366:CG:8185, V-A:TYR:539:CE2:4874, H-B:TYR:484:OH:9320, H-B:GLU:543:OE1:9881, V-B:ARG:545:CZ:9898, H-A:GLU:543:OE1:4907, H-A:GLU:543:OE2:4908, V-A:GLU:543:CB:4904, H-B:GLU:543:OE2:9882, V-B:ILE:369:CG2:8209, V-B:HIS:456:CE1:9042, V-B:ASP:366:CA:8182, V-B:ARG:545:CG:9894, H-B:ARG:545:NE:9896, V-A:GLU:543:CG:4905, V-B:ILE:369:CB:8208, V-A:GLU:543:C:4900, V-B:GLY:544:C:9884, H-A:HIS:456:ND1:4065, H-B:HIS:456:ND1:9039"]

$$$$
4bd_Grossjean_2025
     RDKit          3D

 24 26  0  0  0  0  0  0  0  0999 V2000
  123.7460  131.3840   59.2750 C   0  0  0  0  0  0  0  0  0  0  0  0
  124.7070  130.7150   60.2410 C   0  0  0  0  0  0  0  0  0  0  0  0
  125.6030  129.7430   59.8060 C   0  0  0  0  0  0  0  0  0  0  0  0
  126.4840  129.1310   60.7110 C   0  0  0  0  0  0  0  0  0  0  0  0
  127.4490  128.0630   60.1860 C   0  0  0  0  0  0  0  0  0  0  0  0
  127.2990  126.8810   60.7900 F   0  0  0  0  0  0  0  0  0  0  0  0
  127.2480  127.8730   58.8830 F   0  0  0  0  0  0  0  0  0  0  0  0
  128.7070  128.4550   60.3860 F   0  0  0  0  0  0  0  0  0  0  0  0
  126.4160  129.5510   62.0730 C   0  0  0  0  0  0  0  0  0  0  0  0
  127.1420  129.1630   63.2580 C   0  0  0  0  0  0  0  0  0  0  0  0
  128.1330  128.2160   63.2400 N   0  0  0  0  0  0  0  0  0  0  0  0
  126.7430  129.8380   64.4230 C   0  0  0  0  0  0  0  0  0  0  0  0
  127.2500  129.6800   65.7890 C   0  0  0  0  0  0  0  0  0  0  0  0
  127.1360  130.5910   66.6110 O   0  0  0  0  0  0  0  0  0  0  0  0
  127.8230  128.4810   66.0620 N   0  0  0  0  0  0  0  0  0  0  0  0
  128.4360  128.0310   67.2460 C   0  0  0  0  0  0  0  0  0  0  0  0
  127.5760  127.7480   68.3110 C   0  0  0  0  0  0  0  0  0  0  0  0
  128.0850  127.2870   69.5220 C   0  0  0  0  0  0  0  0  0  0  0  0
  129.4570  127.0990   69.6670 C   0  0  0  0  0  0  0  0  0  0  0  0
  130.3230  127.3640   68.6090 C   0  0  0  0  0  0  0  0  0  0  0  0
  129.8180  127.8260   67.3960 C   0  0  0  0  0  0  0  0  0  0  0  0
  125.4520  130.9880   64.0830 S   0  0  0  0  0  0  0  0  0  0  0  0
  125.4520  130.5570   62.3890 C   0  0  0  0  0  0  0  0  0  0  0  0
  124.6180  131.1350   61.5250 N   0  0  0  0  0  0  0  0  0  0  0  0
  1  2  1  0
  2  3  2  0
  3  4  1  0
  4  5  1  0
  5  6  1  0
  5  7  1  0
  5  8  1  0
  4  9  2  0
  9 10  1  0
 10 11  1  0
 10 12  2  0
 12 13  1  0
 13 14  2  0
 13 15  1  0
 15 16  1  0
 16 17  2  0
 17 18  1  0
 18 19  2  0
 19 20  1  0
 20 21  2  0
 12 22  1  0
 22 23  1  0
 23 24  2  0
 24  2  1  0
 23  9  1  0
 21 16  1  0
M  END
>  <Binding energies>  (27) 
[-6.11]

>  <Ligand effiencies>  (27) 
[-0.2262962962962963]

>  <Interactions>  (27) 
["V-A:GLU:543:CD:4906, V-B:GLU:543:CG:9879, V-A:HIS:456:CE1:4068, V-B:GLU:543:CD:9880, V-B:GLU:543:C:9874, V-B:ASP:366:CB:8184, V-B:ASP:366:CG:8185, V-A:TYR:539:CE2:4874, H-B:TYR:484:OH:9320, H-B:GLU:543:OE1:9881, H-A:GLU:543:OE1:4907, H-A:GLU:543:OE2:4908, V-A:GLU:543:CB:4904, H-B:GLU:543:OE2:9882, V-B:ILE:369:CD1:8211, V-B:ILE:369:CG2:8209, V-B:HIS:456:CE1:9042, V-B:ASP:366:CA:8182, V-A:GLU:543:CG:4905, V-B:ILE:369:CB:8208, V-A:GLU:543:C:4900, V-B:GLY:544:C:9884"]

$$$$
4be_Grossjean_2025
     RDKit          3D

 25 27  0  0  0  0  0  0  0  0999 V2000
  127.5240  127.5120   70.6870 C   0  0  0  0  0  0  0  0  0  0  0  0
  128.2840  127.4940   69.3750 C   0  0  0  0  0  0  0  0  0  0  0  0
  129.5880  126.9990   69.2930 C   0  0  0  0  0  0  0  0  0  0  0  0
  130.2280  127.0160   68.0540 C   0  0  0  0  0  0  0  0  0  0  0  0
  129.5580  127.5220   66.9380 C   0  0  0  0  0  0  0  0  0  0  0  0
  128.2500  127.9970   67.0890 C   0  0  0  0  0  0  0  0  0  0  0  0
  127.6330  128.5000   65.9290 N   0  0  0  0  0  0  0  0  0  0  0  0
  126.3460  128.8900   65.7490 C   0  0  0  0  0  0  0  0  0  0  0  0
  125.4900  128.8600   66.6360 O   0  0  0  0  0  0  0  0  0  0  0  0
  126.0080  129.3420   64.3970 C   0  0  0  0  0  0  0  0  0  0  0  0
  124.5120  130.2280   64.1080 S   0  0  0  0  0  0  0  0  0  0  0  0
  124.8530  130.3350   62.3970 C   0  0  0  0  0  0  0  0  0  0  0  0
  124.0190  130.9500   61.5600 N   0  0  0  0  0  0  0  0  0  0  0  0
  124.3920  130.9710   60.2590 C   0  0  0  0  0  0  0  0  0  0  0  0
  123.4280  131.6730   59.3210 C   0  0  0  0  0  0  0  0  0  0  0  0
  125.5680  130.3980   59.7820 C   0  0  0  0  0  0  0  0  0  0  0  0
  126.4510  129.7490   60.6590 C   0  0  0  0  0  0  0  0  0  0  0  0
  127.7340  129.1370   60.0880 C   0  0  0  0  0  0  0  0  0  0  0  0
  127.8280  127.8230   60.3070 F   0  0  0  0  0  0  0  0  0  0  0  0
  127.7750  129.3240   58.7690 F   0  0  0  0  0  0  0  0  0  0  0  0
  128.7980  129.7140   60.6480 F   0  0  0  0  0  0  0  0  0  0  0  0
  126.0850  129.7060   62.0380 C   0  0  0  0  0  0  0  0  0  0  0  0
  126.7170  129.1380   63.2030 C   0  0  0  0  0  0  0  0  0  0  0  0
  127.9110  128.4640   63.1450 N   0  0  0  0  0  0  0  0  0  0  0  0
  127.6190  127.9880   68.3000 N   0  0  0  0  0  0  0  0  0  0  0  0
  1  2  1  0
  2  3  2  0
  3  4  1  0
  4  5  2  0
  5  6  1  0
  6  7  1  0
  7  8  1  0
  8  9  2  0
  8 10  1  0
 10 11  1  0
 11 12  1  0
 12 13  2  0
 13 14  1  0
 14 15  1  0
 14 16  2  0
 16 17  1  0
 17 18  1  0
 18 19  1  0
 18 20  1  0
 18 21  1  0
 17 22  2  0
 22 23  1  0
 23 24  1  0
  6 25  2  0
 25  2  1  0
 23 10  2  0
 22 12  1  0
M  END
>  <Binding energies>  (28) 
[-6.23]

>  <Ligand effiencies>  (28) 
[-0.2225]

>  <Interactions>  (28) 
["V-A:GLU:543:CD:4906, V-B:GLU:543:CG:9879, V-A:HIS:456:CE1:4068, V-B:GLU:543:CD:9880, V-B:GLU:543:C:9874, V-B:GLY:544:CA:9886, V-B:ASP:366:CG:8185, V-A:TYR:539:CE2:4874, H-B:TYR:484:OH:9320, H-B:GLU:543:OE1:9881, V-B:ARG:545:CZ:9898, H-A:GLU:543:OE1:4907, H-A:GLU:543:OE2:4908, V-A:GLU:543:CB:4904, H-B:GLU:543:OE2:9882, V-B:ILE:369:CD1:8211, V-B:ILE:369:CG2:8209, V-B:HIS:456:CE1:9042, V-B:ASP:366:CA:8182, V-B:ARG:545:CG:9894, H-B:ARG:545:NE:9896, V-A:GLU:543:CG:4905, V-B:ILE:369:CB:8208, V-B:HIS:456:CD2:9040, V-B:GLY:544:C:9884, V-B:ARG:545:CD:9895, H-B:HIS:456:ND1:9039"]

$$$$
4bg_Grossjean_2025
     RDKit          3D

 25 27  0  0  0  0  0  0  0  0999 V2000
  134.0680  123.7010   59.0830 C   0  0  0  0  0  0  0  0  0  0  0  0
  133.1250  124.3310   60.0930 C   0  0  0  0  0  0  0  0  0  0  0  0
  132.0090  125.0530   59.6800 C   0  0  0  0  0  0  0  0  0  0  0  0
  131.1480  125.6340   60.6250 C   0  0  0  0  0  0  0  0  0  0  0  0
  129.9330  126.4200   60.1220 C   0  0  0  0  0  0  0  0  0  0  0  0
  129.8520  126.4610   58.7910 F   0  0  0  0  0  0  0  0  0  0  0  0
  128.8130  125.8540   60.5730 F   0  0  0  0  0  0  0  0  0  0  0  0
  129.9960  127.6780   60.5570 F   0  0  0  0  0  0  0  0  0  0  0  0
  131.4710  125.4490   62.0020 C   0  0  0  0  0  0  0  0  0  0  0  0
  130.8460  125.8890   63.2250 C   0  0  0  0  0  0  0  0  0  0  0  0
  129.7100  126.6590   63.2430 N   0  0  0  0  0  0  0  0  0  0  0  0
  131.4970  125.4540   64.3890 C   0  0  0  0  0  0  0  0  0  0  0  0
  131.1580  125.7370   65.7840 C   0  0  0  0  0  0  0  0  0  0  0  0
  130.6220  124.8900   66.5000 O   0  0  0  0  0  0  0  0  0  0  0  0
  131.5040  126.9590   66.2390 N   0  0  0  0  0  0  0  0  0  0  0  0
  131.2530  127.4650   67.5880 C   0  0  0  0  0  0  0  0  0  0  0  0
  129.7880  127.4010   68.0000 C   0  0  0  0  0  0  0  0  0  0  0  0
  129.4400  127.3770   69.3540 C   0  0  0  0  0  0  0  0  0  0  0  0
  128.1000  127.3570   69.7280 C   0  0  0  0  0  0  0  0  0  0  0  0
  127.1090  127.3750   68.7480 C   0  0  0  0  0  0  0  0  0  0  0  0
  127.4470  127.4160   67.3980 C   0  0  0  0  0  0  0  0  0  0  0  0
  128.7890  127.4340   67.0230 C   0  0  0  0  0  0  0  0  0  0  0  0
  132.9350  124.5110   64.0060 S   0  0  0  0  0  0  0  0  0  0  0  0
  132.6410  124.6800   62.2910 C   0  0  0  0  0  0  0  0  0  0  0  0
  133.4560  124.1330   61.3900 N   0  0  0  0  0  0  0  0  0  0  0  0
  1  2  1  0
  2  3  2  0
  3  4  1  0
  4  5  1  0
  5  6  1  0
  5  7  1  0
  5  8  1  0
  4  9  2  0
  9 10  1  0
 10 11  1  0
 10 12  2  0
 12 13  1  0
 13 14  2  0
 13 15  1  0
 15 16  1  0
 16 17  1  0
 17 18  2  0
 18 19  1  0
 19 20  2  0
 20 21  1  0
 21 22  2  0
 12 23  1  0
 23 24  1  0
 24 25  2  0
 25  2  1  0
 24  9  1  0
 22 17  1  0
M  END
>  <Binding energies>  (29) 
[-6.7]

>  <Ligand effiencies>  (29) 
[-0.2392857142857143]

>  <Interactions>  (29) 
["V-A:GLU:543:CD:4906, V-A:ASP:366:CG:3211, V-B:GLU:543:CG:9879, V-A:HIS:456:CE1:4068, V-A:ASP:366:CB:3210, V-A:ILE:369:CB:3234, V-A:ARG:545:CD:4921, V-A:ILE:369:CD1:3237, V-A:ILE:369:CG2:3235, V-A:ARG:545:CG:4920, V-B:GLU:543:CD:9880, V-A:ARG:545:CZ:4924, V-A:GLY:454:CA:4047, V-A:ASP:366:CA:3208, V-B:GLU:543:C:9874, H-B:GLU:543:OE1:9881, H-A:TYR:484:OH:4346, H-A:GLU:543:OE1:4907, H-A:GLU:543:OE2:4908, H-B:GLU:543:OE2:9882, V-B:HIS:456:CE1:9042, V-B:ARG:545:CG:9894, V-A:GLU:543:CG:4905, V-B:GLY:544:C:9884"]

$$$$
4ca_Grossjean_2025
     RDKit          3D

 34 37  0  0  0  0  0  0  0  0999 V2000
  123.6470  134.0260   61.6710 C   0  0  0  0  0  0  0  0  0  0  0  0
  124.5030  134.6960   60.5920 C   0  0  0  0  0  0  0  0  0  0  0  0
  125.4100  135.6040   61.2040 O   0  0  0  0  0  0  0  0  0  0  0  0
  126.7400  135.3340   61.2640 C   0  0  0  0  0  0  0  0  0  0  0  0
  127.6110  136.2090   61.2900 O   0  0  0  0  0  0  0  0  0  0  0  0
  127.0450  133.8650   61.2990 C   0  0  0  0  0  0  0  0  0  0  0  0
  127.5780  133.2490   60.1580 C   0  0  0  0  0  0  0  0  0  0  0  0
  127.8760  131.8890   60.1620 C   0  0  0  0  0  0  0  0  0  0  0  0
  127.6400  131.1160   61.2980 C   0  0  0  0  0  0  0  0  0  0  0  0
  127.9860  129.7540   61.1940 N   0  0  0  0  0  0  0  0  0  0  0  0
  127.6590  128.7080   61.9920 C   0  0  0  0  0  0  0  0  0  0  0  0
  126.9190  128.7910   62.9730 O   0  0  0  0  0  0  0  0  0  0  0  0
  128.2390  127.4200   61.6030 C   0  0  0  0  0  0  0  0  0  0  0  0
  129.8670  126.9880   62.1210 S   0  0  0  0  0  0  0  0  0  0  0  0
  129.7510  125.4310   61.3360 C   0  0  0  0  0  0  0  0  0  0  0  0
  130.7550  124.5590   61.3750 N   0  0  0  0  0  0  0  0  0  0  0  0
  130.5690  123.3680   60.7490 C   0  0  0  0  0  0  0  0  0  0  0  0
  131.7160  122.4020   60.8200 C   0  0  0  0  0  0  0  0  0  0  0  0
  131.6430  121.1520   60.1840 C   0  0  0  0  0  0  0  0  0  0  0  0
  132.7010  120.2490   60.2510 C   0  0  0  0  0  0  0  0  0  0  0  0
  133.8520  120.5840   60.9570 C   0  0  0  0  0  0  0  0  0  0  0  0
  133.9500  121.8150   61.5980 C   0  0  0  0  0  0  0  0  0  0  0  0
  132.8890  122.7150   61.5290 C   0  0  0  0  0  0  0  0  0  0  0  0
  129.3840  123.0690   60.0680 C   0  0  0  0  0  0  0  0  0  0  0  0
  128.3210  123.9840   60.0170 C   0  0  0  0  0  0  0  0  0  0  0  0
  127.0500  123.5890   59.2550 C   0  0  0  0  0  0  0  0  0  0  0  0
  126.5900  124.5620   58.4660 F   0  0  0  0  0  0  0  0  0  0  0  0
  127.2960  122.5320   58.4830 F   0  0  0  0  0  0  0  0  0  0  0  0
  126.0820  123.2880   60.1200 F   0  0  0  0  0  0  0  0  0  0  0  0
  128.5000  125.2290   60.6850 C   0  0  0  0  0  0  0  0  0  0  0  0
  127.6520  126.3840   60.8560 C   0  0  0  0  0  0  0  0  0  0  0  0
  126.3870  126.4590   60.3320 N   0  0  0  0  0  0  0  0  0  0  0  0
  127.1120  131.7240   62.4460 C   0  0  0  0  0  0  0  0  0  0  0  0
  126.8170  133.0850   62.4430 C   0  0  0  0  0  0  0  0  0  0  0  0
  1  2  1  0
  2  3  1  0
  3  4  1  0
  4  5  2  0
  4  6  1  0
  6  7  2  0
  7  8  1  0
  8  9  2  0
  9 10  1  0
 10 11  1  0
 11 12  2  0
 11 13  1  0
 13 14  1  0
 14 15  1  0
 15 16  2  0
 16 17  1  0
 17 18  1  0
 18 19  2  0
 19 20  1  0
 20 21  2  0
 21 22  1  0
 22 23  2  0
 17 24  2  0
 24 25  1  0
 25 26  1  0
 26 27  1  0
 26 28  1  0
 26 29  1  0
 25 30  2  0
 30 31  1  0
 31 32  1  0
  9 33  1  0
 33 34  2  0
 34  6  1  0
 31 13  2  0
 30 15  1  0
 23 18  1  0
M  END
>  <Binding energies>  (30) 
[-6.16]

>  <Ligand effiencies>  (30) 
[-0.16648648648648648]

>  <Interactions>  (30) 
["V-B:TYR:539:CE2:9848, V-A:ILE:369:CD1:3237, V-A:ILE:369:CG2:3235, V-A:GLY:454:CA:4047, V-B:PRO:540:CB:9857, V-B:ASP:366:CG:8185, V-B:PRO:540:C:9853, V-B:TYR:539:CD2:9846, V-B:PRO:540:N:9856, V-B:PRO:540:CA:9855, V-A:TYR:539:CE2:4874, H-B:ARG:545:NH2:9900, V-A:TYR:539:CD2:4872, V-A:LEU:475:CD2:4257, V-B:LEU:475:CD2:9231, V-A:ALA:541:CB:4890, V-B:TYR:539:C:9839, V-B:ILE:369:CD1:8211, V-B:ILE:369:CG2:8209, H-B:ASP:366:OD2:8187, V-B:TRP:381:CZ2:8342, V-B:TRP:381:CH2:8344, V-A:TRP:381:CZ2:3368, V-A:TRP:381:CH2:3370, V-B:TYR:539:CA:9841, V-A:SER:385:C:3403"]

$$$$
4cb_Grossjean_2025
     RDKit          3D

 33 36  0  0  0  0  0  0  0  0999 V2000
  133.1510  120.5620   60.3080 C   0  0  0  0  0  0  0  0  0  0  0  0
  132.2460  119.5030   60.5920 O   0  0  0  0  0  0  0  0  0  0  0  0
  130.9450  119.7560   60.8840 C   0  0  0  0  0  0  0  0  0  0  0  0
  130.0980  118.8720   61.0460 O   0  0  0  0  0  0  0  0  0  0  0  0
  130.6350  121.2230   60.9930 C   0  0  0  0  0  0  0  0  0  0  0  0
  130.1550  121.9060   59.8680 C   0  0  0  0  0  0  0  0  0  0  0  0
  129.8510  123.2620   59.9400 C   0  0  0  0  0  0  0  0  0  0  0  0
  130.0270  123.9650   61.1320 C   0  0  0  0  0  0  0  0  0  0  0  0
  129.6760  125.3280   61.0950 N   0  0  0  0  0  0  0  0  0  0  0  0
  130.0220  126.3410   61.9260 C   0  0  0  0  0  0  0  0  0  0  0  0
  130.7900  126.2210   62.8820 O   0  0  0  0  0  0  0  0  0  0  0  0
  129.4280  127.6420   61.6070 C   0  0  0  0  0  0  0  0  0  0  0  0
  127.8280  128.0600   62.2140 S   0  0  0  0  0  0  0  0  0  0  0  0
  127.9100  129.6430   61.4760 C   0  0  0  0  0  0  0  0  0  0  0  0
  126.9120  130.5150   61.5890 N   0  0  0  0  0  0  0  0  0  0  0  0
  127.0720  131.7240   60.9900 C   0  0  0  0  0  0  0  0  0  0  0  0
  125.9320  132.6890   61.1390 C   0  0  0  0  0  0  0  0  0  0  0  0
  124.7630  132.3180   61.8220 C   0  0  0  0  0  0  0  0  0  0  0  0
  123.6990  133.2060   61.9610 C   0  0  0  0  0  0  0  0  0  0  0  0
  123.7910  134.4830   61.4160 C   0  0  0  0  0  0  0  0  0  0  0  0
  124.9370  134.8760   60.7320 C   0  0  0  0  0  0  0  0  0  0  0  0
  125.9960  133.9830   60.5940 C   0  0  0  0  0  0  0  0  0  0  0  0
  128.2250  132.0410   60.2630 C   0  0  0  0  0  0  0  0  0  0  0  0
  129.2820  131.1270   60.1350 C   0  0  0  0  0  0  0  0  0  0  0  0
  130.5180  131.5410   59.3260 C   0  0  0  0  0  0  0  0  0  0  0  0
  130.9510  130.5800   58.5070 F   0  0  0  0  0  0  0  0  0  0  0  0
  130.2290  132.6040   58.5760 F   0  0  0  0  0  0  0  0  0  0  0  0
  131.5180  131.8420   60.1530 F   0  0  0  0  0  0  0  0  0  0  0  0
  129.1310  129.8620   60.7740 C   0  0  0  0  0  0  0  0  0  0  0  0
  129.9830  128.7020   60.8700 C   0  0  0  0  0  0  0  0  0  0  0  0
  131.2240  128.6440   60.2890 N   0  0  0  0  0  0  0  0  0  0  0  0
  130.5050  123.2880   62.2640 C   0  0  0  0  0  0  0  0  0  0  0  0
  130.8060  121.9310   62.1920 C   0  0  0  0  0  0  0  0  0  0  0  0
  1  2  1  0
  2  3  1  0
  3  4  2  0
  3  5  1  0
  5  6  2  0
  6  7  1  0
  7  8  2  0
  8  9  1  0
  9 10  1  0
 10 11  2  0
 10 12  1  0
 12 13  1  0
 13 14  1  0
 14 15  2  0
 15 16  1  0
 16 17  1  0
 17 18  2  0
 18 19  1  0
 19 20  2  0
 20 21  1  0
 21 22  2  0
 16 23  2  0
 23 24  1  0
 24 25  1  0
 25 26  1  0
 25 27  1  0
 25 28  1  0
 24 29  2  0
 29 30  1  0
 30 31  1  0
  8 32  1  0
 32 33  2  0
 33  5  1  0
 30 12  2  0
 29 14  1  0
 22 17  1  0
M  END
>  <Binding energies>  (31) 
[-6.01]

>  <Ligand effiencies>  (31) 
[-0.16694444444444445]

>  <Interactions>  (31) 
["V-A:ASP:366:CG:3211, V-B:TYR:539:CE2:9848, V-A:ILE:369:CG2:3235, V-B:GLU:543:CD:9880, V-B:TYR:539:CD2:9846, V-B:ALA:541:CB:9864, V-A:TYR:539:CE2:4874, V-B:GLY:454:CA:9021, V-A:TYR:539:CD2:4872, H-A:ASP:366:OD1:3212, V-A:LEU:475:CD2:4257, V-B:LEU:475:CD2:9231, V-A:TYR:539:C:4865, H-A:ARG:545:NH2:4926, V-B:ILE:369:CD1:8211, V-B:ILE:369:CG2:8209, V-A:PRO:540:CA:4881, V-A:PRO:540:CB:4883, V-A:PRO:540:C:4879, H-A:ASP:366:OD2:3213, V-A:TYR:539:CA:4867, V-A:PRO:540:N:4882, V-A:PRO:540:CD:4885, V-B:TRP:381:CZ2:8342, V-B:TRP:381:CH2:8344, V-A:TRP:381:CZ2:3368, V-A:TRP:381:CH2:3370"]

$$$$
4cc_Grossjean_2025
     RDKit          3D

 31 34  0  0  0  0  0  0  0  0999 V2000
  127.5220  136.2000   60.9910 C   0  0  0  0  0  0  0  0  0  0  0  0
  126.4730  135.3380   61.4160 O   0  0  0  0  0  0  0  0  0  0  0  0
  126.6830  133.9720   61.4230 C   0  0  0  0  0  0  0  0  0  0  0  0
  127.8430  133.5180   60.7960 C   0  0  0  0  0  0  0  0  0  0  0  0
  128.1400  132.1590   60.7540 C   0  0  0  0  0  0  0  0  0  0  0  0
  127.2720  131.2310   61.3320 C   0  0  0  0  0  0  0  0  0  0  0  0
  127.6640  129.8810   61.2540 N   0  0  0  0  0  0  0  0  0  0  0  0
  127.4070  128.8640   62.1110 C   0  0  0  0  0  0  0  0  0  0  0  0
  126.7180  128.9760   63.1260 O   0  0  0  0  0  0  0  0  0  0  0  0
  128.0100  127.5750   61.7570 C   0  0  0  0  0  0  0  0  0  0  0  0
  129.6770  127.2210   62.2090 S   0  0  0  0  0  0  0  0  0  0  0  0
  129.5850  125.6360   61.4790 C   0  0  0  0  0  0  0  0  0  0  0  0
  130.6230  124.8030   61.4930 N   0  0  0  0  0  0  0  0  0  0  0  0
  130.4540  123.5890   60.9090 C   0  0  0  0  0  0  0  0  0  0  0  0
  131.6430  122.6730   60.9380 C   0  0  0  0  0  0  0  0  0  0  0  0
  131.6500  121.4830   60.1920 C   0  0  0  0  0  0  0  0  0  0  0  0
  132.7490  120.6270   60.2160 C   0  0  0  0  0  0  0  0  0  0  0  0
  133.8590  120.9500   60.9890 C   0  0  0  0  0  0  0  0  0  0  0  0
  133.8760  122.1210   61.7400 C   0  0  0  0  0  0  0  0  0  0  0  0
  132.7750  122.9730   61.7140 C   0  0  0  0  0  0  0  0  0  0  0  0
  129.2500  123.2240   60.2990 C   0  0  0  0  0  0  0  0  0  0  0  0
  128.1490  124.0950   60.2770 C   0  0  0  0  0  0  0  0  0  0  0  0
  126.8580  123.6270   59.5970 C   0  0  0  0  0  0  0  0  0  0  0  0
  126.3090  124.5600   58.8130 F   0  0  0  0  0  0  0  0  0  0  0  0
  127.1100  122.5640   58.8330 F   0  0  0  0  0  0  0  0  0  0  0  0
  125.9540  123.3000   60.5200 F   0  0  0  0  0  0  0  0  0  0  0  0
  128.3120  125.3680   60.8950 C   0  0  0  0  0  0  0  0  0  0  0  0
  127.4330  126.4980   61.0660 C   0  0  0  0  0  0  0  0  0  0  0  0
  126.1440  126.5130   60.5950 N   0  0  0  0  0  0  0  0  0  0  0  0
  126.1090  131.6810   61.9750 C   0  0  0  0  0  0  0  0  0  0  0  0
  125.8160  133.0410   62.0150 C   0  0  0  0  0  0  0  0  0  0  0  0
  1  2  1  0
  2  3  1  0
  3  4  2  0
  4  5  1  0
  5  6  2  0
  6  7  1  0
  7  8  1  0
  8  9  2  0
  8 10  1  0
 10 11  1  0
 11 12  1  0
 12 13  2  0
 13 14  1  0
 14 15  1  0
 15 16  2  0
 16 17  1  0
 17 18  2  0
 18 19  1  0
 19 20  2  0
 14 21  2  0
 21 22  1  0
 22 23  1  0
 23 24  1  0
 23 25  1  0
 23 26  1  0
 22 27  2  0
 27 28  1  0
 28 29  1  0
  6 30  1  0
 30 31  2  0
 31  3  1  0
 28 10  2  0
 27 12  1  0
 20 15  1  0
M  END
>  <Binding energies>  (32) 
[-5.87]

>  <Ligand effiencies>  (32) 
[-0.1726470588235294]

>  <Interactions>  (32) 
["V-A:GLU:543:CD:4906, V-B:TYR:539:CE2:9848, V-A:ILE:369:CD1:3237, V-A:ILE:369:CG2:3235, V-A:GLY:454:CA:4047, V-B:PRO:540:CB:9857, V-B:ASP:366:CG:8185, V-B:PRO:540:C:9853, V-B:TYR:539:CD2:9846, V-B:PRO:540:N:9856, V-B:PRO:540:CA:9855, H-B:ARG:545:NH2:9900, V-A:TYR:539:CD2:4872, H-B:ASP:366:OD1:8186, V-A:LEU:475:CD2:4257, V-B:LEU:475:CD2:9231, V-A:ALA:541:CB:4890, V-B:TYR:539:C:9839, H-B:ASP:366:OD2:8187, V-B:PRO:482:CG:9299, V-B:PRO:482:CB:9298, V-B:TRP:381:CZ2:8342, V-B:TRP:381:CH2:8344, V-A:TRP:381:CH2:3370, V-B:TRP:381:CZ3:8343"]

$$$$
4ce_Grossjean_2025
     RDKit          3D

 30 33  0  0  0  0  0  0  0  0999 V2000
  126.2150  134.1820   61.0030 C   0  0  0  0  0  0  0  0  0  0  0  0
  125.5780  132.8950   61.4930 C   0  0  0  0  0  0  0  0  0  0  0  0
  124.3030  132.8830   62.0650 C   0  0  0  0  0  0  0  0  0  0  0  0
  123.7760  131.6610   62.4870 C   0  0  0  0  0  0  0  0  0  0  0  0
  124.5270  130.4950   62.3270 C   0  0  0  0  0  0  0  0  0  0  0  0
  125.8000  130.5790   61.7520 C   0  0  0  0  0  0  0  0  0  0  0  0
  126.4980  129.3680   61.5960 N   0  0  0  0  0  0  0  0  0  0  0  0
  127.1130  128.6150   62.5420 C   0  0  0  0  0  0  0  0  0  0  0  0
  127.1310  128.9020   63.7400 O   0  0  0  0  0  0  0  0  0  0  0  0
  127.7760  127.4050   62.0510 C   0  0  0  0  0  0  0  0  0  0  0  0
  129.4060  127.0060   62.5870 S   0  0  0  0  0  0  0  0  0  0  0  0
  129.4040  125.5340   61.6470 C   0  0  0  0  0  0  0  0  0  0  0  0
  130.4520  124.7140   61.6390 N   0  0  0  0  0  0  0  0  0  0  0  0
  130.3510  123.5840   60.8900 C   0  0  0  0  0  0  0  0  0  0  0  0
  131.5470  122.6790   60.9070 C   0  0  0  0  0  0  0  0  0  0  0  0
  132.7220  123.0570   61.5770 C   0  0  0  0  0  0  0  0  0  0  0  0
  133.8390  122.2250   61.5900 C   0  0  0  0  0  0  0  0  0  0  0  0
  133.7950  121.0000   60.9350 C   0  0  0  0  0  0  0  0  0  0  0  0
  132.6440  120.6020   60.2630 C   0  0  0  0  0  0  0  0  0  0  0  0
  131.5300  121.4380   60.2490 C   0  0  0  0  0  0  0  0  0  0  0  0
  129.2090  123.2960   60.1360 C   0  0  0  0  0  0  0  0  0  0  0  0
  128.1000  124.1570   60.1340 C   0  0  0  0  0  0  0  0  0  0  0  0
  126.8800  123.7780   59.2870 C   0  0  0  0  0  0  0  0  0  0  0  0
  126.5220  124.7340   58.4270 F   0  0  0  0  0  0  0  0  0  0  0  0
  127.1460  122.6810   58.5770 F   0  0  0  0  0  0  0  0  0  0  0  0
  125.8350  123.5440   60.0810 F   0  0  0  0  0  0  0  0  0  0  0  0
  128.1880  125.3360   60.9280 C   0  0  0  0  0  0  0  0  0  0  0  0
  127.2750  126.4240   61.1770 C   0  0  0  0  0  0  0  0  0  0  0  0
  126.0280  126.4910   60.6110 N   0  0  0  0  0  0  0  0  0  0  0  0
  126.3200  131.7700   61.3330 N   0  0  0  0  0  0  0  0  0  0  0  0
  1  2  1  0
  2  3  2  0
  3  4  1  0
  4  5  2  0
  5  6  1  0
  6  7  1  0
  7  8  1  0
  8  9  2  0
  8 10  1  0
 10 11  1  0
 11 12  1  0
 12 13  2  0
 13 14  1  0
 14 15  1  0
 15 16  2  0
 16 17  1  0
 17 18  2  0
 18 19  1  0
 19 20  2  0
 14 21  2  0
 21 22  1  0
 22 23  1  0
 23 24  1  0
 23 25  1  0
 23 26  1  0
 22 27  2  0
 27 28  1  0
 28 29  1  0
  6 30  2  0
 30  2  1  0
 28 10  2  0
 27 12  1  0
 20 15  1  0
M  END
>  <Binding energies>  (33) 
[-6.05]

>  <Ligand effiencies>  (33) 
[-0.18333333333333332]

>  <Interactions>  (33) 
["V-A:GLU:543:CD:4906, V-B:TYR:539:CE2:9848, V-A:ILE:369:CD1:3237, V-A:ILE:369:CG2:3235, V-B:GLU:543:CD:9880, V-A:GLY:454:CA:4047, V-B:PRO:540:CB:9857, V-B:ASP:366:CG:8185, V-B:PRO:540:C:9853, V-B:TYR:539:CD2:9846, V-B:PRO:540:N:9856, V-B:PRO:540:CA:9855, V-A:TYR:539:CE2:4874, H-B:ARG:545:NH2:9900, V-B:GLY:454:CA:9021, V-A:TYR:539:CD2:4872, H-B:ASP:366:OD1:8186, V-A:LEU:475:CD2:4257, V-B:LEU:475:CD2:9231, V-B:TYR:539:C:9839, V-B:ILE:369:CD1:8211, H-B:ASP:366:OD2:8187, V-A:TRP:381:CH2:3370, V-B:GLY:453:C:9014"]

$$$$
4cf_Grossjean_2025
     RDKit          3D

 29 32  0  0  0  0  0  0  0  0999 V2000
  131.2540  128.8320   60.1990 N   0  0  0  0  0  0  0  0  0  0  0  0
  130.0990  128.9230   60.9340 C   0  0  0  0  0  0  0  0  0  0  0  0
  129.7100  127.9590   61.8770 C   0  0  0  0  0  0  0  0  0  0  0  0
  130.3830  126.7070   62.2360 C   0  0  0  0  0  0  0  0  0  0  0  0
  130.1010  126.1210   63.2820 O   0  0  0  0  0  0  0  0  0  0  0  0
  131.2980  126.2630   61.3410 N   0  0  0  0  0  0  0  0  0  0  0  0
  132.1440  125.1390   61.4030 C   0  0  0  0  0  0  0  0  0  0  0  0
  132.4640  124.2960   60.3210 C   0  0  0  0  0  0  0  0  0  0  0  0
  133.3070  123.2020   60.5250 C   0  0  0  0  0  0  0  0  0  0  0  0
  133.8100  122.9750   61.8060 C   0  0  0  0  0  0  0  0  0  0  0  0
  133.5120  123.7670   62.8660 N   0  0  0  0  0  0  0  0  0  0  0  0
  132.6890  124.8260   62.6530 C   0  0  0  0  0  0  0  0  0  0  0  0
  128.1820  128.3940   62.6380 S   0  0  0  0  0  0  0  0  0  0  0  0
  128.0720  129.8560   61.6850 C   0  0  0  0  0  0  0  0  0  0  0  0
  127.0410  130.6900   61.8080 N   0  0  0  0  0  0  0  0  0  0  0  0
  127.0360  131.7910   61.0120 C   0  0  0  0  0  0  0  0  0  0  0  0
  125.8580  132.7090   61.1660 C   0  0  0  0  0  0  0  0  0  0  0  0
  124.7160  132.2970   61.8690 C   0  0  0  0  0  0  0  0  0  0  0  0
  123.6190  133.1420   62.0180 C   0  0  0  0  0  0  0  0  0  0  0  0
  123.6520  134.4170   61.4640 C   0  0  0  0  0  0  0  0  0  0  0  0
  124.7730  134.8530   60.7650 C   0  0  0  0  0  0  0  0  0  0  0  0
  125.8670  134.0050   60.6190 C   0  0  0  0  0  0  0  0  0  0  0  0
  128.0760  132.0620   60.1180 C   0  0  0  0  0  0  0  0  0  0  0  0
  129.1700  131.1920   59.9850 C   0  0  0  0  0  0  0  0  0  0  0  0
  130.2730  131.5480   58.9810 C   0  0  0  0  0  0  0  0  0  0  0  0
  130.5190  130.5710   58.1050 F   0  0  0  0  0  0  0  0  0  0  0  0
  129.9180  132.6270   58.2850 F   0  0  0  0  0  0  0  0  0  0  0  0
  131.4110  131.7960   59.6300 F   0  0  0  0  0  0  0  0  0  0  0  0
  129.1770  130.0240   60.8010 C   0  0  0  0  0  0  0  0  0  0  0  0
  1  2  1  0
  2  3  2  0
  3  4  1  0
  4  5  2  0
  4  6  1  0
  6  7  1  0
  7  8  2  0
  8  9  1  0
  9 10  2  0
 10 11  1  0
 11 12  2  0
  3 13  1  0
 13 14  1  0
 14 15  2  0
 15 16  1  0
 16 17  1  0
 17 18  2  0
 18 19  1  0
 19 20  2  0
 20 21  1  0
 21 22  2  0
 16 23  2  0
 23 24  1  0
 24 25  1  0
 25 26  1  0
 25 27  1  0
 25 28  1  0
 24 29  2  0
 29  2  1  0
 12  7  1  0
 29 14  1  0
 22 17  1  0
M  END
>  <Binding energies>  (34) 
[-5.77]

>  <Ligand effiencies>  (34) 
[-0.1803125]

>  <Interactions>  (34) 
["H-A:GLY:454:N:4048, V-A:GLU:543:CD:4906, V-A:ASP:366:CG:3211, V-A:ILE:369:CD1:3237, V-A:ARG:545:CZ:4924, V-A:GLY:454:CA:4047, V-A:TYR:539:CE2:4874, V-B:GLY:454:CA:9021, V-A:TYR:539:CD2:4872, H-A:ASP:366:OD1:3212, V-B:LEU:475:CD2:9231, V-A:TYR:539:C:4865, H-A:TYR:484:OH:4346, V-B:ILE:369:CD1:8211, V-B:ILE:369:CG2:8209, V-A:PRO:540:CA:4881, V-A:PRO:540:CB:4883, V-A:PRO:540:C:4879, H-A:ASP:366:OD2:3213, V-A:TYR:539:CA:4867, V-A:PRO:540:N:4882, V-B:TRP:381:CZ2:8342, V-B:TRP:381:CH2:8344"]

$$$$
4ci_Grossjean_2025
     RDKit          3D

 28 31  0  0  0  0  0  0  0  0999 V2000
  131.2530  128.6100   60.3640 N   0  0  0  0  0  0  0  0  0  0  0  0
  130.0090  128.5870   60.9390 C   0  0  0  0  0  0  0  0  0  0  0  0
  129.4930  127.4660   61.6100 C   0  0  0  0  0  0  0  0  0  0  0  0
  130.1300  126.1670   61.8420 C   0  0  0  0  0  0  0  0  0  0  0  0
  129.7700  125.1690   61.2130 O   0  0  0  0  0  0  0  0  0  0  0  0
  131.1070  126.1550   62.7830 N   0  0  0  0  0  0  0  0  0  0  0  0
  131.8660  125.0690   63.2010 C   0  0  0  0  0  0  0  0  0  0  0  0
  131.4290  123.7490   63.0990 C   0  0  0  0  0  0  0  0  0  0  0  0
  132.4550  122.9910   63.6140 C   0  0  0  0  0  0  0  0  0  0  0  0
  133.4590  123.8130   64.0050 O   0  0  0  0  0  0  0  0  0  0  0  0
  133.0730  125.1270   63.7390 N   0  0  0  0  0  0  0  0  0  0  0  0
  127.8760  127.7860   62.2330 S   0  0  0  0  0  0  0  0  0  0  0  0
  127.8980  129.4090   61.5840 C   0  0  0  0  0  0  0  0  0  0  0  0
  126.8650  130.2340   61.7380 N   0  0  0  0  0  0  0  0  0  0  0  0
  126.9750  131.4770   61.2020 C   0  0  0  0  0  0  0  0  0  0  0  0
  125.7910  132.3820   61.3870 C   0  0  0  0  0  0  0  0  0  0  0  0
  125.6600  133.5610   60.6340 C   0  0  0  0  0  0  0  0  0  0  0  0
  124.5640  134.4040   60.8000 C   0  0  0  0  0  0  0  0  0  0  0  0
  123.5800  134.0790   61.7280 C   0  0  0  0  0  0  0  0  0  0  0  0
  123.6860  132.9220   62.4900 C   0  0  0  0  0  0  0  0  0  0  0  0
  124.7840  132.0820   62.3210 C   0  0  0  0  0  0  0  0  0  0  0  0
  128.1160  131.8780   60.4990 C   0  0  0  0  0  0  0  0  0  0  0  0
  129.2120  131.0170   60.3310 C   0  0  0  0  0  0  0  0  0  0  0  0
  130.4300  131.5240   59.5500 C   0  0  0  0  0  0  0  0  0  0  0  0
  130.8960  130.6340   58.6710 F   0  0  0  0  0  0  0  0  0  0  0  0
  130.1030  132.6220   58.8710 F   0  0  0  0  0  0  0  0  0  0  0  0
  131.4220  131.8080   60.3950 F   0  0  0  0  0  0  0  0  0  0  0  0
  129.1110  129.7160   60.9010 C   0  0  0  0  0  0  0  0  0  0  0  0
  1  2  1  0
  2  3  2  0
  3  4  1  0
  4  5  2  0
  4  6  1  0
  6  7  1  0
  7  8  1  0
  8  9  2  0
  9 10  1  0
 10 11  1  0
  3 12  1  0
 12 13  1  0
 13 14  2  0
 14 15  1  0
 15 16  1  0
 16 17  2  0
 17 18  1  0
 18 19  2  0
 19 20  1  0
 20 21  2  0
 15 22  2  0
 22 23  1  0
 23 24  1  0
 24 25  1  0
 24 26  1  0
 24 27  1  0
 23 28  2  0
 28  2  1  0
 11  7  2  0
 28 13  1  0
 21 16  1  0
M  END
>  <Binding energies>  (35) 
[-6.33]

>  <Ligand effiencies>  (35) 
[-0.20419354838709677]

>  <Interactions>  (35) 
["H-A:GLY:454:N:4048, V-A:ASP:366:CG:3211, V-B:GLU:543:CD:9880, V-A:ARG:545:CZ:4924, V-A:GLY:454:CA:4047, V-A:TYR:539:CE2:4874, V-B:GLY:454:CA:9021, V-A:TYR:539:CD2:4872, V-A:TYR:484:CZ:4345, H-A:ASP:366:OD1:3212, V-A:LEU:475:CD2:4257, V-B:LEU:475:CD2:9231, V-A:TYR:539:C:4865, H-A:TYR:484:OH:4346, H-A:GLU:543:OE2:4908, H-A:ARG:545:NH2:4926, V-B:ILE:369:CD1:8211, V-B:ILE:369:CG2:8209, V-A:PRO:540:CA:4881, V-A:PRO:540:CB:4883, V-A:PRO:540:C:4879, H-A:ARG:545:NE:4922, H-A:ASP:366:OD2:3213, V-A:PRO:540:N:4882, V-B:TRP:381:CH2:8344"]

$$$$
8a_Ghoteimi_2023
     RDKit          3D

 40 44  0  0  0  0  0  0  0  0999 V2000
  124.1520  133.7100   61.0860 C   0  0  0  0  0  0  0  0  0  0  0  0
  123.8510  132.8110   62.2890 C   0  0  0  0  0  0  0  0  0  0  0  0
  125.0720  132.4220   62.9060 O   0  0  0  0  0  0  0  0  0  0  0  0
  125.6090  131.1930   62.6850 C   0  0  0  0  0  0  0  0  0  0  0  0
  125.6990  130.6820   61.5640 O   0  0  0  0  0  0  0  0  0  0  0  0
  126.0770  130.5160   63.9410 C   0  0  0  0  0  0  0  0  0  0  0  0
  127.0300  131.1520   64.7460 C   0  0  0  0  0  0  0  0  0  0  0  0
  127.4850  130.5500   65.9150 C   0  0  0  0  0  0  0  0  0  0  0  0
  126.9990  129.3010   66.3050 C   0  0  0  0  0  0  0  0  0  0  0  0
  127.5350  128.7870   67.5030 N   0  0  0  0  0  0  0  0  0  0  0  0
  127.2450  127.6450   68.1740 C   0  0  0  0  0  0  0  0  0  0  0  0
  126.4040  126.8220   67.8120 O   0  0  0  0  0  0  0  0  0  0  0  0
  128.0200  127.4270   69.3990 C   0  0  0  0  0  0  0  0  0  0  0  0
  129.5870  126.6220   69.3310 S   0  0  0  0  0  0  0  0  0  0  0  0
  129.7830  126.7540   71.0630 C   0  0  0  0  0  0  0  0  0  0  0  0
  130.8550  126.2650   71.6860 N   0  0  0  0  0  0  0  0  0  0  0  0
  130.9050  126.4160   73.0360 C   0  0  0  0  0  0  0  0  0  0  0  0
  132.1070  125.8420   73.7170 C   0  0  0  0  0  0  0  0  0  0  0  0
  133.3480  126.4910   73.6620 C   0  0  0  0  0  0  0  0  0  0  0  0
  134.4660  125.9460   74.2880 C   0  0  0  0  0  0  0  0  0  0  0  0
  134.3720  124.7430   74.9840 C   0  0  0  0  0  0  0  0  0  0  0  0
  135.5330  124.2770   75.5720 O   0  0  0  0  0  0  0  0  0  0  0  0
  135.6030  122.9150   75.9820 C   0  0  0  0  0  0  0  0  0  0  0  0
  133.1330  124.0890   75.0500 C   0  0  0  0  0  0  0  0  0  0  0  0
  132.0170  124.6350   74.4210 C   0  0  0  0  0  0  0  0  0  0  0  0
  129.8940  127.0580   73.7540 C   0  0  0  0  0  0  0  0  0  0  0  0
  128.7750  127.5870   73.1020 C   0  0  0  0  0  0  0  0  0  0  0  0
  127.7450  128.2890   73.9100 C   0  0  0  0  0  0  0  0  0  0  0  0
  127.2330  127.6950   75.0660 C   0  0  0  0  0  0  0  0  0  0  0  0
  126.2830  128.3580   75.8370 C   0  0  0  0  0  0  0  0  0  0  0  0
  125.8300  129.6260   75.4700 C   0  0  0  0  0  0  0  0  0  0  0  0
  124.8870  130.2070   76.2950 O   0  0  0  0  0  0  0  0  0  0  0  0
  124.3810  131.4970   75.9710 C   0  0  0  0  0  0  0  0  0  0  0  0
  126.3490  130.2280   74.3130 C   0  0  0  0  0  0  0  0  0  0  0  0
  127.3020  129.5630   73.5440 C   0  0  0  0  0  0  0  0  0  0  0  0
  128.6900  127.4210   71.6910 C   0  0  0  0  0  0  0  0  0  0  0  0
  127.6880  127.7790   70.7170 C   0  0  0  0  0  0  0  0  0  0  0  0
  126.5100  128.3920   71.0630 N   0  0  0  0  0  0  0  0  0  0  0  0
  126.0410  128.6580   65.5060 C   0  0  0  0  0  0  0  0  0  0  0  0
  125.5870  129.2620   64.3370 C   0  0  0  0  0  0  0  0  0  0  0  0
  1  2  1  0
  2  3  1  0
  3  4  1  0
  4  5  2  0
  4  6  1  0
  6  7  2  0
  7  8  1  0
  8  9  2  0
  9 10  1  0
 10 11  1  0
 11 12  2  0
 11 13  1  0
 13 14  1  0
 14 15  1  0
 15 16  2  0
 16 17  1  0
 17 18  1  0
 18 19  2  0
 19 20  1  0
 20 21  2  0
 21 22  1  0
 22 23  1  0
 21 24  1  0
 24 25  2  0
 17 26  2  0
 26 27  1  0
 27 28  1  0
 28 29  2  0
 29 30  1  0
 30 31  2  0
 31 32  1  0
 32 33  1  0
 31 34  1  0
 34 35  2  0
 27 36  2  0
 36 37  1  0
 37 38  1  0
  9 39  1  0
 39 40  2  0
 40  6  1  0
 37 13  2  0
 36 15  1  0
 25 18  1  0
 35 28  1  0
M  END
>  <Binding energies>  (36) 
[-2.88]

>  <Ligand effiencies>  (36) 
[-0.0669767441860465]

>  <Interactions>  (36) 
["V-A:GLU:543:CD:4906, V-B:GLU:543:CG:9879, V-A:HIS:456:CE1:4068, V-B:GLU:543:CD:9880, V-A:HIS:456:CD2:4066, V-B:LYS:547:CE:9922, V-B:GLU:543:C:9874, V-B:GLY:454:CA:9021, V-B:LEU:475:CD2:9231, V-B:ARG:545:CZ:9898, V-A:GLU:543:CB:4904, V-B:ILE:369:CD1:8211, V-B:ILE:369:CG2:8209, V-B:HIS:456:CE1:9042, V-B:TYR:484:CE1:9317, V-B:TYR:484:CZ:9319, V-B:ARG:545:CG:9894, V-A:GLU:543:CG:4905, V-B:HIS:456:CG:9038, V-B:LYS:471:CE:9192, V-B:VAL:458:CG2:9059, V-B:HIS:456:CB:9037, V-A:GLY:544:C:4910, V-B:HIS:456:C:9033, V-B:HIS:456:CD2:9040, V-B:GLY:544:C:9884, V-B:LYS:471:CG:9190, V-B:LYS:471:CD:9191, V-A:LYS:471:C:4211, V-A:LYS:471:CD:4217, V-A:HIS:456:CB:4063, V-A:LYS:547:CE:4948, V-A:HIS:456:CG:4064, V-A:HIS:456:C:4059, V-A:VAL:457:C:4071, V-A:LYS:471:CG:4216, V-A:LYS:471:CB:4215, V-A:HIS:456:CA:4061, H-A:VAL:458:N:4082, H-A:HIS:456:ND1:4065, V-A:VAL:458:CG2:4085, H-B:HIS:456:NE2:9043, H-A:GLU:543:O:4901, V-A:LYS:471:CE:4218, V-B:ARG:545:CD:9895, H-B:GLY:544:O:9885, V-B:ASP:473:CG:9212, H-B:ARG:545:N:9892, V-B:LYS:547:CD:9921, V-B:ARG:545:CA:9891, V-A:VAL:457:CA:4073, H-A:VAL:457:N:4074, V-A:LEU:472:CA:4226, V-A:LYS:471:CA:4213"]

$$$$
8c_Ghoteimi_2023
     RDKit          3D

 34 38  0  0  0  0  0  0  0  0999 V2000
  134.7120  125.0370   66.5480 C   0  0  0  0  0  0  0  0  0  0  0  0
  134.1420  124.3280   65.4540 O   0  0  0  0  0  0  0  0  0  0  0  0
  133.0790  124.8870   64.7690 C   0  0  0  0  0  0  0  0  0  0  0  0
  133.2360  125.0400   63.3930 C   0  0  0  0  0  0  0  0  0  0  0  0
  132.2190  125.5970   62.6230 C   0  0  0  0  0  0  0  0  0  0  0  0
  131.0170  126.0150   63.2110 C   0  0  0  0  0  0  0  0  0  0  0  0
  129.9210  126.6180   62.3890 C   0  0  0  0  0  0  0  0  0  0  0  0
  129.0850  125.8350   61.5880 C   0  0  0  0  0  0  0  0  0  0  0  0
  128.0660  126.4240   60.8310 C   0  0  0  0  0  0  0  0  0  0  0  0
  127.2030  125.5670   59.9860 C   0  0  0  0  0  0  0  0  0  0  0  0
  126.1160  124.8920   60.5470 C   0  0  0  0  0  0  0  0  0  0  0  0
  125.3010  124.0950   59.7500 C   0  0  0  0  0  0  0  0  0  0  0  0
  125.5580  123.9580   58.3850 C   0  0  0  0  0  0  0  0  0  0  0  0
  124.6950  123.1490   57.6710 O   0  0  0  0  0  0  0  0  0  0  0  0
  123.4250  123.6600   57.2840 C   0  0  0  0  0  0  0  0  0  0  0  0
  126.6530  124.6340   57.8230 C   0  0  0  0  0  0  0  0  0  0  0  0
  127.4680  125.4310   58.6220 C   0  0  0  0  0  0  0  0  0  0  0  0
  127.9060  127.8330   60.9070 C   0  0  0  0  0  0  0  0  0  0  0  0
  126.9850  128.7450   60.2830 C   0  0  0  0  0  0  0  0  0  0  0  0
  126.0070  128.3250   59.4160 N   0  0  0  0  0  0  0  0  0  0  0  0
  127.1820  130.0880   60.6430 C   0  0  0  0  0  0  0  0  0  0  0  0
  126.4340  131.2690   60.2060 C   0  0  0  0  0  0  0  0  0  0  0  0
  126.4510  131.6240   59.0250 O   0  0  0  0  0  0  0  0  0  0  0  0
  125.7480  131.9160   61.1800 N   0  0  0  0  0  0  0  0  0  0  0  0
  124.9630  133.0510   61.0350 C   0  0  0  0  0  0  0  0  0  0  0  0
  125.0350  133.9680   60.0950 N   0  0  0  0  0  0  0  0  0  0  0  0
  124.1290  134.9100   60.2660 C   0  0  0  0  0  0  0  0  0  0  0  0
  123.2930  134.7670   61.3690 C   0  0  0  0  0  0  0  0  0  0  0  0
  123.7290  133.3170   62.2240 S   0  0  0  0  0  0  0  0  0  0  0  0
  128.5240  130.2530   61.7770 S   0  0  0  0  0  0  0  0  0  0  0  0
  128.8120  128.5290   61.7590 C   0  0  0  0  0  0  0  0  0  0  0  0
  129.7840  127.9690   62.4790 N   0  0  0  0  0  0  0  0  0  0  0  0
  130.8650  125.8560   64.5950 C   0  0  0  0  0  0  0  0  0  0  0  0
  131.8810  125.3000   65.3680 C   0  0  0  0  0  0  0  0  0  0  0  0
  1  2  1  0
  2  3  1  0
  3  4  2  0
  4  5  1  0
  5  6  2  0
  6  7  1  0
  7  8  2  0
  8  9  1  0
  9 10  1  0
 10 11  2  0
 11 12  1  0
 12 13  2  0
 13 14  1  0
 14 15  1  0
 13 16  1  0
 16 17  2  0
  9 18  2  0
 18 19  1  0
 19 20  1  0
 19 21  2  0
 21 22  1  0
 22 23  2  0
 22 24  1  0
 24 25  1  0
 25 26  2  0
 26 27  1  0
 27 28  2  0
 28 29  1  0
 21 30  1  0
 30 31  1  0
 31 32  2  0
  6 33  1  0
 33 34  2  0
 34  3  1  0
 32  7  1  0
 17 10  1  0
 31 18  1  0
 29 25  1  0
M  END
>  <Binding energies>  (37) 
[-5.01]

>  <Ligand effiencies>  (37) 
[-0.1354054054054054]

>  <Interactions>  (37) 
["H-A:GLY:454:N:4048, V-A:GLU:543:CD:4906, V-A:HIS:456:CE1:4068, V-A:ARG:545:CD:4921, V-A:GLY:453:CA:4042, V-A:ARG:545:CG:4920, V-B:GLU:543:CD:9880, V-A:ARG:545:CZ:4924, V-A:GLY:454:CA:4047, V-B:ASP:366:CB:8184, V-B:LEU:363:CA:8157, V-B:PRO:540:CB:9857, V-B:ASP:366:CG:8185, V-B:TYR:531:CE2:9765, V-B:LEU:363:CD1:8161, V-B:LEU:363:CB:8159, V-B:PRO:540:N:9856, V-B:PRO:540:CA:9855, V-A:TYR:539:CE2:4874, V-B:GLY:454:CA:9021, V-A:TYR:539:CD2:4872, H-B:ASP:366:OD1:8186, V-B:LEU:475:CD2:9231, H-A:TYR:484:OH:4346, H-A:ARG:545:NH2:4926, V-B:ILE:369:CD1:8211, V-B:ILE:369:CG2:8209, H-B:ASP:366:OD2:8187, V-B:TRP:381:CZ2:8342, V-B:TRP:381:CH2:8344, V-A:ARG:545:CB:4919, V-A:GLY:453:C:4040, V-B:PRO:540:CD:9859, H-A:ILE:455:N:4053, V-B:SER:385:CA:8379, V-B:ILE:369:CG1:8210, V-A:ILE:455:C:4050, V-B:SER:385:C:8377, V-B:PRO:540:CG:9858"]

$$$$
8d_Ghoteimi_2023
     RDKit          3D

 30 33  0  0  0  0  0  0  0  0999 V2000
  132.7540  120.6790   60.3260 C   0  0  0  0  0  0  0  0  0  0  0  0
  131.5140  120.1440   59.8820 O   0  0  0  0  0  0  0  0  0  0  0  0
  130.3820  120.3130   60.6120 C   0  0  0  0  0  0  0  0  0  0  0  0
  129.7060  119.3850   61.0620 O   0  0  0  0  0  0  0  0  0  0  0  0
  130.0360  121.7370   60.8170 C   0  0  0  0  0  0  0  0  0  0  0  0
  128.8200  122.5030   59.7930 S   0  0  0  0  0  0  0  0  0  0  0  0
  129.0160  124.0250   60.6310 C   0  0  0  0  0  0  0  0  0  0  0  0
  128.3120  125.1070   60.2990 N   0  0  0  0  0  0  0  0  0  0  0  0
  128.5420  126.2390   61.0170 C   0  0  0  0  0  0  0  0  0  0  0  0
  127.7420  127.4400   60.6200 C   0  0  0  0  0  0  0  0  0  0  0  0
  127.4700  127.7170   59.2730 C   0  0  0  0  0  0  0  0  0  0  0  0
  126.7270  128.8360   58.9100 C   0  0  0  0  0  0  0  0  0  0  0  0
  126.2360  129.7070   59.8810 C   0  0  0  0  0  0  0  0  0  0  0  0
  125.5080  130.7900   59.4300 O   0  0  0  0  0  0  0  0  0  0  0  0
  124.2920  131.1340   60.0870 C   0  0  0  0  0  0  0  0  0  0  0  0
  126.5000  129.4380   61.2320 C   0  0  0  0  0  0  0  0  0  0  0  0
  127.2440  128.3170   61.5910 C   0  0  0  0  0  0  0  0  0  0  0  0
  129.4760  126.2880   62.0560 C   0  0  0  0  0  0  0  0  0  0  0  0
  130.2120  125.1510   62.4060 C   0  0  0  0  0  0  0  0  0  0  0  0
  131.1880  125.2320   63.5180 C   0  0  0  0  0  0  0  0  0  0  0  0
  132.5350  124.9450   63.2910 C   0  0  0  0  0  0  0  0  0  0  0  0
  133.4510  125.0120   64.3370 C   0  0  0  0  0  0  0  0  0  0  0  0
  133.0370  125.3700   65.6200 C   0  0  0  0  0  0  0  0  0  0  0  0
  134.0140  125.4100   66.5960 O   0  0  0  0  0  0  0  0  0  0  0  0
  135.3620  125.1260   66.2400 C   0  0  0  0  0  0  0  0  0  0  0  0
  131.6810  125.6630   65.8450 C   0  0  0  0  0  0  0  0  0  0  0  0
  130.7660  125.5940   64.7980 C   0  0  0  0  0  0  0  0  0  0  0  0
  129.9860  123.9570   61.6720 C   0  0  0  0  0  0  0  0  0  0  0  0
  130.5520  122.6390   61.7540 C   0  0  0  0  0  0  0  0  0  0  0  0
  131.5170  122.3050   62.6710 N   0  0  0  0  0  0  0  0  0  0  0  0
  1  2  1  0
  2  3  1  0
  3  4  2  0
  3  5  1  0
  5  6  1  0
  6  7  1  0
  7  8  2  0
  8  9  1  0
  9 10  1  0
 10 11  2  0
 11 12  1  0
 12 13  2  0
 13 14  1  0
 14 15  1  0
 13 16  1  0
 16 17  2  0
  9 18  2  0
 18 19  1  0
 19 20  1  0
 20 21  2  0
 21 22  1  0
 22 23  2  0
 23 24  1  0
 24 25  1  0
 23 26  1  0
 26 27  2  0
 19 28  2  0
 28 29  1  0
 29 30  1  0
 29  5  2  0
 28  7  1  0
 17 10  1  0
 27 20  1  0
M  END
>  <Binding energies>  (38) 
[-4.78]

>  <Ligand effiencies>  (38) 
[-0.149375]

>  <Interactions>  (38) 
["V-A:HIS:456:CE1:4068, V-B:TYR:539:CE2:9848, V-A:ARG:545:CD:4921, V-A:GLY:453:CA:4042, V-A:ILE:369:CG2:3235, V-A:ARG:545:CG:4920, V-B:GLU:543:CD:9880, V-A:ARG:545:CZ:4924, V-A:GLY:454:CA:4047, V-B:ASP:366:CG:8185, V-B:TYR:539:CD2:9846, V-B:PRO:540:CA:9855, V-B:ALA:541:CB:9864, V-A:LEU:475:CD2:4257, V-B:TYR:539:C:9839, H-A:TYR:484:OH:4346, H-A:ARG:545:NE:4922, V-A:TRP:381:CH2:3370, H-A:HIS:456:ND1:4065, V-A:ARG:545:CB:4919, V-A:GLY:453:C:4040, V-A:GLY:454:C:4045, V-A:ILE:455:C:4050, V-A:ILE:455:CA:4052, V-A:VAL:452:CG2:4038"]

$$$$
9a_Ghoteimi_2023
     RDKit          3D

 48 54  0  0  0  0  0  0  0  0999 V2000
  125.4200  132.8920   59.7710 C   0  0  0  0  0  0  0  0  0  0  0  0
  124.1550  133.5970   59.2700 C   0  0  0  0  0  0  0  0  0  0  0  0
  124.1550  134.9470   59.7200 O   0  0  0  0  0  0  0  0  0  0  0  0
  124.1570  135.2440   61.0450 C   0  0  0  0  0  0  0  0  0  0  0  0
  123.7440  136.3140   61.5030 O   0  0  0  0  0  0  0  0  0  0  0  0
  124.7190  134.1440   61.8990 C   0  0  0  0  0  0  0  0  0  0  0  0
  126.1040  134.0730   62.1020 C   0  0  0  0  0  0  0  0  0  0  0  0
  126.6550  133.0650   62.8870 C   0  0  0  0  0  0  0  0  0  0  0  0
  125.8360  132.1080   63.4870 C   0  0  0  0  0  0  0  0  0  0  0  0
  126.5030  131.1370   64.2580 N   0  0  0  0  0  0  0  0  0  0  0  0
  126.3740  129.7860   64.2720 C   0  0  0  0  0  0  0  0  0  0  0  0
  125.5950  129.1580   63.5560 O   0  0  0  0  0  0  0  0  0  0  0  0
  127.2490  129.0840   65.2160 C   0  0  0  0  0  0  0  0  0  0  0  0
  127.0890  129.3580   66.9520 S   0  0  0  0  0  0  0  0  0  0  0  0
  128.3770  128.2260   67.2940 C   0  0  0  0  0  0  0  0  0  0  0  0
  128.7520  127.9530   68.5430 N   0  0  0  0  0  0  0  0  0  0  0  0
  129.7550  127.0490   68.7020 C   0  0  0  0  0  0  0  0  0  0  0  0
  130.1520  126.7500   70.1110 C   0  0  0  0  0  0  0  0  0  0  0  0
  131.5030  126.7060   70.4760 C   0  0  0  0  0  0  0  0  0  0  0  0
  131.8820  126.4290   71.7860 C   0  0  0  0  0  0  0  0  0  0  0  0
  130.9230  126.1990   72.7860 C   0  0  0  0  0  0  0  0  0  0  0  0
  131.2890  125.9000   74.1020 N   0  0  0  0  0  0  0  0  0  0  0  0
  132.3490  124.9170   74.4050 C   0  0  0  0  0  0  0  0  0  0  0  0
  132.3660  124.4530   75.8770 C   0  0  0  0  0  0  0  0  0  0  0  0
  132.4500  125.5750   76.7400 O   0  0  0  0  0  0  0  0  0  0  0  0
  131.3430  126.4460   76.5700 C   0  0  0  0  0  0  0  0  0  0  0  0
  131.3030  126.9710   75.1210 C   0  0  0  0  0  0  0  0  0  0  0  0
  129.5710  126.2290   72.4120 C   0  0  0  0  0  0  0  0  0  0  0  0
  129.1940  126.5030   71.1010 C   0  0  0  0  0  0  0  0  0  0  0  0
  130.3950  126.4460   67.6160 C   0  0  0  0  0  0  0  0  0  0  0  0
  130.0170  126.7460   66.3030 C   0  0  0  0  0  0  0  0  0  0  0  0
  130.7540  126.1040   65.1840 C   0  0  0  0  0  0  0  0  0  0  0  0
  132.0520  125.6210   65.3720 C   0  0  0  0  0  0  0  0  0  0  0  0
  132.7350  125.0080   64.3270 C   0  0  0  0  0  0  0  0  0  0  0  0
  132.1330  124.8440   63.0690 C   0  0  0  0  0  0  0  0  0  0  0  0
  132.8040  124.2420   62.0010 N   0  0  0  0  0  0  0  0  0  0  0  0
  132.2560  123.0030   61.4150 C   0  0  0  0  0  0  0  0  0  0  0  0
  132.8580  122.6620   60.0350 C   0  0  0  0  0  0  0  0  0  0  0  0
  134.2730  122.5990   60.1240 O   0  0  0  0  0  0  0  0  0  0  0  0
  134.8280  123.8330   60.5500 C   0  0  0  0  0  0  0  0  0  0  0  0
  134.2780  124.2050   61.9440 C   0  0  0  0  0  0  0  0  0  0  0  0
  130.8290  125.3300   62.8930 C   0  0  0  0  0  0  0  0  0  0  0  0
  130.1470  125.9480   63.9370 C   0  0  0  0  0  0  0  0  0  0  0  0
  128.9430  127.6630   66.1140 C   0  0  0  0  0  0  0  0  0  0  0  0
  128.2630  128.1530   64.9410 C   0  0  0  0  0  0  0  0  0  0  0  0
  128.5770  127.7300   63.6750 N   0  0  0  0  0  0  0  0  0  0  0  0
  124.4470  132.1730   63.2930 C   0  0  0  0  0  0  0  0  0  0  0  0
  123.8980  133.1820   62.5060 C   0  0  0  0  0  0  0  0  0  0  0  0
  1  2  1  0
  2  3  1  0
  3  4  1  0
  4  5  2  0
  4  6  1  0
  6  7  2  0
  7  8  1  0
  8  9  2  0
  9 10  1  0
 10 11  1  0
 11 12  2  0
 11 13  1  0
 13 14  1  0
 14 15  1  0
 15 16  2  0
 16 17  1  0
 17 18  1  0
 18 19  2  0
 19 20  1  0
 20 21  2  0
 21 22  1  0
 22 23  1  0
 23 24  1  0
 24 25  1  0
 25 26  1  0
 26 27  1  0
 21 28  1  0
 28 29  2  0
 17 30  2  0
 30 31  1  0
 31 32  1  0
 32 33  2  0
 33 34  1  0
 34 35  2  0
 35 36  1  0
 36 37  1  0
 37 38  1  0
 38 39  1  0
 39 40  1  0
 40 41  1  0
 35 42  1  0
 42 43  2  0
 31 44  2  0
 44 45  1  0
 45 46  1  0
  9 47  1  0
 47 48  2  0
 48  6  1  0
 45 13  2  0
 44 15  1  0
 29 18  1  0
 43 32  1  0
 27 22  1  0
 41 36  1  0
M  END
>  <Binding energies>  (39) 
[8.99]

>  <Ligand effiencies>  (39) 
[0.17627450980392156]

>  <Interactions>  (39) 
["V-A:GLU:543:CD:4906, V-A:ASP:366:CG:3211, V-B:GLU:543:CG:9879, V-A:HIS:456:CE1:4068, V-A:ILE:369:CB:3234, V-B:TYR:539:CE2:9848, V-A:ARG:545:CD:4921, V-A:GLY:453:CA:4042, V-A:ILE:369:CD1:3237, V-A:ILE:369:CG2:3235, V-A:ARG:545:CG:4920, V-B:GLU:543:CD:9880, V-B:GLU:543:CB:9878, V-A:ARG:545:CZ:4924, V-A:HIS:456:CD2:4066, V-B:LYS:547:CE:9922, V-B:GLU:543:C:9874, V-B:GLY:544:CA:9886, V-A:TYR:539:CE2:4874, H-B:ARG:545:NH2:9900, V-B:GLY:454:CA:9021, V-A:TYR:539:CD2:4872, V-B:LEU:475:CD2:9231, V-A:ALA:541:CB:4890, H-B:TYR:484:OH:9320, H-B:GLU:543:OE1:9881, H-A:GLU:543:OE1:4907, H-A:GLU:543:OE2:4908, V-A:GLU:543:CB:4904, H-B:GLU:543:OE2:9882, V-B:ILE:369:CD1:8211, V-B:ILE:369:CG2:8209, V-A:TYR:539:CZ:4875, V-B:HIS:456:CE1:9042, H-B:ARG:545:NE:9896, V-A:GLU:543:CG:4905, V-B:ILE:369:CB:8208, V-B:TRP:381:CZ2:8342, V-B:TRP:381:CH2:8344, V-A:GLY:544:C:4910, V-A:LYS:471:CD:4217, V-A:HIS:456:CB:4063, V-A:LYS:547:CE:4948, V-A:HIS:456:CG:4064, V-A:VAL:458:CG2:4085, V-A:LYS:471:CE:4218, V-A:LYS:547:CD:4947, V-A:GLY:453:C:4040, V-A:ILE:369:CG1:3236, V-A:ARG:545:CA:4917"]

$$$$
9b_Ghoteimi_2023
     RDKit          3D

 42 48  0  0  0  0  0  0  0  0999 V2000
  128.4710  128.1940   63.3880 N   0  0  0  0  0  0  0  0  0  0  0  0
  128.0440  128.5080   64.6530 C   0  0  0  0  0  0  0  0  0  0  0  0
  127.0340  129.4450   64.9190 C   0  0  0  0  0  0  0  0  0  0  0  0
  126.2420  130.2280   63.9680 C   0  0  0  0  0  0  0  0  0  0  0  0
  125.0910  129.8910   63.6800 O   0  0  0  0  0  0  0  0  0  0  0  0
  126.8640  131.3150   63.4460 N   0  0  0  0  0  0  0  0  0  0  0  0
  126.3570  132.2190   62.5210 C   0  0  0  0  0  0  0  0  0  0  0  0
  124.9970  132.4960   62.3950 C   0  0  0  0  0  0  0  0  0  0  0  0
  124.9140  133.4300   61.3880 C   0  0  0  0  0  0  0  0  0  0  0  0
  126.1600  133.7000   60.9320 O   0  0  0  0  0  0  0  0  0  0  0  0
  127.0660  132.9270   61.6580 N   0  0  0  0  0  0  0  0  0  0  0  0
  126.7670  129.6210   66.6530 S   0  0  0  0  0  0  0  0  0  0  0  0
  128.0190  128.4550   67.0100 C   0  0  0  0  0  0  0  0  0  0  0  0
  128.3450  128.1430   68.2630 N   0  0  0  0  0  0  0  0  0  0  0  0
  129.3450  127.2370   68.4320 C   0  0  0  0  0  0  0  0  0  0  0  0
  129.7050  126.9200   69.8480 C   0  0  0  0  0  0  0  0  0  0  0  0
  131.0410  126.9040   70.2680 C   0  0  0  0  0  0  0  0  0  0  0  0
  131.3720  126.5940   71.5830 C   0  0  0  0  0  0  0  0  0  0  0  0
  130.3800  126.2750   72.5240 C   0  0  0  0  0  0  0  0  0  0  0  0
  130.6970  125.9640   73.8510 N   0  0  0  0  0  0  0  0  0  0  0  0
  131.1600  127.0010   74.7950 C   0  0  0  0  0  0  0  0  0  0  0  0
  131.1280  126.5590   76.2720 C   0  0  0  0  0  0  0  0  0  0  0  0
  131.8650  125.3590   76.4360 O   0  0  0  0  0  0  0  0  0  0  0  0
  131.3220  124.3050   75.6590 C   0  0  0  0  0  0  0  0  0  0  0  0
  131.3550  124.6770   74.1610 C   0  0  0  0  0  0  0  0  0  0  0  0
  129.0430  126.3120   72.1020 C   0  0  0  0  0  0  0  0  0  0  0  0
  128.7120  126.6270   70.7880 C   0  0  0  0  0  0  0  0  0  0  0  0
  129.9930  126.6300   67.3540 C   0  0  0  0  0  0  0  0  0  0  0  0
  129.6390  126.9410   66.0360 C   0  0  0  0  0  0  0  0  0  0  0  0
  130.3380  126.2460   64.9250 C   0  0  0  0  0  0  0  0  0  0  0  0
  131.5140  125.5350   65.1680 C   0  0  0  0  0  0  0  0  0  0  0  0
  132.1600  124.8660   64.1330 C   0  0  0  0  0  0  0  0  0  0  0  0
  131.6490  124.8910   62.8250 C   0  0  0  0  0  0  0  0  0  0  0  0
  132.2740  124.2140   61.7750 N   0  0  0  0  0  0  0  0  0  0  0  0
  132.3610  122.7420   61.8150 C   0  0  0  0  0  0  0  0  0  0  0  0
  133.4000  122.1670   60.8280 C   0  0  0  0  0  0  0  0  0  0  0  0
  133.1190  122.6180   59.5110 O   0  0  0  0  0  0  0  0  0  0  0  0
  133.1620  124.0340   59.4200 C   0  0  0  0  0  0  0  0  0  0  0  0
  132.1210  124.6570   60.3740 C   0  0  0  0  0  0  0  0  0  0  0  0
  130.4570  125.5940   62.5980 C   0  0  0  0  0  0  0  0  0  0  0  0
  129.8100  126.2620   63.6330 C   0  0  0  0  0  0  0  0  0  0  0  0
  128.6180  127.9120   65.8340 C   0  0  0  0  0  0  0  0  0  0  0  0
  1  2  1  0
  2  3  2  0
  3  4  1  0
  4  5  2  0
  4  6  1  0
  6  7  1  0
  7  8  1  0
  8  9  2  0
  9 10  1  0
 10 11  1  0
  3 12  1  0
 12 13  1  0
 13 14  2  0
 14 15  1  0
 15 16  1  0
 16 17  2  0
 17 18  1  0
 18 19  2  0
 19 20  1  0
 20 21  1  0
 21 22  1  0
 22 23  1  0
 23 24  1  0
 24 25  1  0
 19 26  1  0
 26 27  2  0
 15 28  2  0
 28 29  1  0
 29 30  1  0
 30 31  2  0
 31 32  1  0
 32 33  2  0
 33 34  1  0
 34 35  1  0
 35 36  1  0
 36 37  1  0
 37 38  1  0
 38 39  1  0
 33 40  1  0
 40 41  2  0
 29 42  2  0
 42  2  1  0
 11  7  2  0
 42 13  1  0
 27 16  1  0
 41 30  1  0
 25 20  1  0
 39 34  1  0
M  END
>  <Binding energies>  (40) 
[-1.74]

>  <Ligand effiencies>  (40) 
[-0.03866666666666667]

>  <Interactions>  (40) 
["V-A:GLU:543:CD:4906, V-A:ASP:366:CG:3211, V-B:GLU:543:CG:9879, V-A:HIS:456:CE1:4068, V-A:ILE:369:CD1:3237, V-A:ILE:369:CG2:3235, V-B:GLU:543:CD:9880, V-B:GLU:543:CB:9878, V-A:ARG:545:CZ:4924, V-A:HIS:456:CD2:4066, V-B:LYS:547:CE:9922, V-B:GLU:543:C:9874, V-B:GLY:544:CA:9886, H-B:ARG:545:NH2:9900, V-A:LEU:475:CD2:4257, V-B:LEU:475:CD2:9231, H-B:GLU:543:OE1:9881, H-A:GLU:543:OE1:4907, H-A:GLU:543:OE2:4908, V-A:GLU:543:CB:4904, H-B:GLU:543:OE2:9882, V-B:HIS:456:CE1:9042, V-B:TYR:484:CZ:9319, H-B:ARG:545:NE:9896, V-A:GLU:543:CG:4905, H-B:LYS:547:NZ:9923, V-A:GLY:544:C:4910, V-B:GLY:544:C:9884, V-A:HIS:456:CB:4063, V-A:LYS:547:CE:4948, V-A:HIS:456:CG:4064, V-A:LYS:471:CE:4218, V-A:LYS:547:CD:4947, V-A:ARG:545:CA:4917"]

$$$$
9c_Ghoteimi_2023
     RDKit          3D

 42 48  0  0  0  0  0  0  0  0999 V2000
  128.4070  128.1790   63.3380 N   0  0  0  0  0  0  0  0  0  0  0  0
  128.0090  128.5070   64.6090 C   0  0  0  0  0  0  0  0  0  0  0  0
  127.0200  129.4640   64.8870 C   0  0  0  0  0  0  0  0  0  0  0  0
  126.2290  130.2600   63.9450 C   0  0  0  0  0  0  0  0  0  0  0  0
  124.9970  130.2660   64.0030 O   0  0  0  0  0  0  0  0  0  0  0  0
  126.9440  130.9600   63.0300 N   0  0  0  0  0  0  0  0  0  0  0  0
  126.4440  131.7740   62.0240 C   0  0  0  0  0  0  0  0  0  0  0  0
  126.8930  132.9470   61.6340 N   0  0  0  0  0  0  0  0  0  0  0  0
  126.1680  133.4410   60.6500 C   0  0  0  0  0  0  0  0  0  0  0  0
  125.0990  132.6600   60.2200 C   0  0  0  0  0  0  0  0  0  0  0  0
  125.0510  131.2010   61.1630 S   0  0  0  0  0  0  0  0  0  0  0  0
  126.7850  129.6510   66.6250 S   0  0  0  0  0  0  0  0  0  0  0  0
  128.0210  128.4650   66.9660 C   0  0  0  0  0  0  0  0  0  0  0  0
  128.3610  128.1500   68.2150 N   0  0  0  0  0  0  0  0  0  0  0  0
  129.3460  127.2280   68.3720 C   0  0  0  0  0  0  0  0  0  0  0  0
  129.7230  126.9110   69.7830 C   0  0  0  0  0  0  0  0  0  0  0  0
  131.0640  126.8670   70.1840 C   0  0  0  0  0  0  0  0  0  0  0  0
  131.4100  126.5620   71.4960 C   0  0  0  0  0  0  0  0  0  0  0  0
  130.4260  126.2750   72.4560 C   0  0  0  0  0  0  0  0  0  0  0  0
  130.7570  125.9730   73.7820 N   0  0  0  0  0  0  0  0  0  0  0  0
  131.1950  127.0240   74.7240 C   0  0  0  0  0  0  0  0  0  0  0  0
  131.1770  126.5830   76.2030 C   0  0  0  0  0  0  0  0  0  0  0  0
  131.9490  125.4030   76.3640 O   0  0  0  0  0  0  0  0  0  0  0  0
  131.4320  124.3340   75.5890 C   0  0  0  0  0  0  0  0  0  0  0  0
  131.4510  124.7060   74.0910 C   0  0  0  0  0  0  0  0  0  0  0  0
  129.0840  126.3390   72.0540 C   0  0  0  0  0  0  0  0  0  0  0  0
  128.7390  126.6480   70.7420 C   0  0  0  0  0  0  0  0  0  0  0  0
  129.9660  126.6050   67.2860 C   0  0  0  0  0  0  0  0  0  0  0  0
  129.5960  126.9160   65.9730 C   0  0  0  0  0  0  0  0  0  0  0  0
  130.2620  126.2030   64.8540 C   0  0  0  0  0  0  0  0  0  0  0  0
  131.3850  125.4100   65.0930 C   0  0  0  0  0  0  0  0  0  0  0  0
  132.0020  124.7270   64.0480 C   0  0  0  0  0  0  0  0  0  0  0  0
  131.5130  124.8200   62.7370 C   0  0  0  0  0  0  0  0  0  0  0  0
  132.1090  124.1340   61.6750 N   0  0  0  0  0  0  0  0  0  0  0  0
  132.1070  122.6580   61.6790 C   0  0  0  0  0  0  0  0  0  0  0  0
  133.1150  122.0440   60.6840 C   0  0  0  0  0  0  0  0  0  0  0  0
  132.8720  122.5420   59.3770 O   0  0  0  0  0  0  0  0  0  0  0  0
  133.0040  123.9540   59.3210 C   0  0  0  0  0  0  0  0  0  0  0  0
  131.9960  124.6180   60.2850 C   0  0  0  0  0  0  0  0  0  0  0  0
  130.3710  125.6040   62.5120 C   0  0  0  0  0  0  0  0  0  0  0  0
  129.7530  126.2870   63.5570 C   0  0  0  0  0  0  0  0  0  0  0  0
  128.5900  127.9060   65.7830 C   0  0  0  0  0  0  0  0  0  0  0  0
  1  2  1  0
  2  3  2  0
  3  4  1  0
  4  5  2  0
  4  6  1  0
  6  7  1  0
  7  8  2  0
  8  9  1  0
  9 10  2  0
 10 11  1  0
  3 12  1  0
 12 13  1  0
 13 14  2  0
 14 15  1  0
 15 16  1  0
 16 17  2  0
 17 18  1  0
 18 19  2  0
 19 20  1  0
 20 21  1  0
 21 22  1  0
 22 23  1  0
 23 24  1  0
 24 25  1  0
 19 26  1  0
 26 27  2  0
 15 28  2  0
 28 29  1  0
 29 30  1  0
 30 31  2  0
 31 32  1  0
 32 33  2  0
 33 34  1  0
 34 35  1  0
 35 36  1  0
 36 37  1  0
 37 38  1  0
 38 39  1  0
 33 40  1  0
 40 41  2  0
 29 42  2  0
 42  2  1  0
 11  7  1  0
 42 13  1  0
 27 16  1  0
 41 30  1  0
 25 20  1  0
 39 34  1  0
M  END
>  <Binding energies>  (41) 
[-1.68]

>  <Ligand effiencies>  (41) 
[-0.03733333333333333]

>  <Interactions>  (41) 
["V-A:GLU:543:CD:4906, V-A:ASP:366:CG:3211, V-B:GLU:543:CG:9879, V-A:HIS:456:CE1:4068, V-B:TYR:539:CE2:9848, V-A:ILE:369:CD1:3237, V-A:ILE:369:CG2:3235, V-B:GLU:543:CD:9880, V-B:GLU:543:CB:9878, V-A:HIS:456:CD2:4066, V-B:LYS:547:CE:9922, V-B:GLU:543:C:9874, V-B:GLY:544:CA:9886, V-A:TYR:539:CE2:4874, V-A:TYR:539:CD2:4872, V-A:LEU:475:CD2:4257, H-B:GLY:454:N:9022, H-B:TYR:484:OH:9320, H-B:GLU:543:OE1:9881, H-A:GLU:543:OE1:4907, H-A:GLU:543:OE2:4908, V-A:GLU:543:CB:4904, H-B:GLU:543:OE2:9882, V-B:HIS:456:CE1:9042, V-B:TYR:484:CZ:9319, V-A:GLU:543:CG:4905, H-B:LYS:547:NZ:9923, V-A:GLY:544:C:4910, V-B:GLY:544:C:9884, V-A:HIS:456:CB:4063, V-A:LYS:547:CE:4948, V-A:HIS:456:CG:4064, V-A:LYS:471:CE:4218, V-A:LYS:547:CD:4947, V-A:ARG:545:CA:4917"]

$$$$
RR11_Rahimova_2017
     RDKit          3D

 33 38  0  0  0  0  0  0  0  0999 V2000
  123.2890  131.3970   58.0390 N   0  0  0  0  0  0  0  0  0  0  0  0
  124.3150  130.4880   58.2890 C   0  0  0  0  0  0  0  0  0  0  0  0
  124.9160  130.4500   59.5460 C   0  0  0  0  0  0  0  0  0  0  0  0
  125.9390  129.5400   59.7960 C   0  0  0  0  0  0  0  0  0  0  0  0
  126.3710  128.6610   58.7930 C   0  0  0  0  0  0  0  0  0  0  0  0
  127.4700  127.6770   59.0660 C   0  0  0  0  0  0  0  0  0  0  0  0
  128.4480  127.8740   59.9230 N   0  0  0  0  0  0  0  0  0  0  0  0
  129.2100  126.7360   59.8700 C   0  0  0  0  0  0  0  0  0  0  0  0
  130.3710  126.4140   60.5860 C   0  0  0  0  0  0  0  0  0  0  0  0
  130.9640  125.1650   60.3650 C   0  0  0  0  0  0  0  0  0  0  0  0
  132.2290  124.7880   61.1240 C   0  0  0  0  0  0  0  0  0  0  0  0
  132.1610  125.1430   62.6030 C   0  0  0  0  0  0  0  0  0  0  0  0
  133.3230  125.0750   63.3810 C   0  0  0  0  0  0  0  0  0  0  0  0
  133.3130  125.3990   64.7390 C   0  0  0  0  0  0  0  0  0  0  0  0
  132.1010  125.8060   65.3130 C   0  0  0  0  0  0  0  0  0  0  0  0
  131.8310  126.1650   66.6080 N   0  0  0  0  0  0  0  0  0  0  0  0
  130.5480  126.4550   66.6270 C   0  0  0  0  0  0  0  0  0  0  0  0
  129.7930  126.8890   67.8510 C   0  0  0  0  0  0  0  0  0  0  0  0
  128.3980  127.0040   67.8220 C   0  0  0  0  0  0  0  0  0  0  0  0
  127.6990  127.4160   68.9540 C   0  0  0  0  0  0  0  0  0  0  0  0
  128.3920  127.7160   70.1240 C   0  0  0  0  0  0  0  0  0  0  0  0
  127.6940  128.1340   71.2570 N   0  0  0  0  0  0  0  0  0  0  0  0
  129.7790  127.6020   70.1690 C   0  0  0  0  0  0  0  0  0  0  0  0
  130.4770  127.1900   69.0370 C   0  0  0  0  0  0  0  0  0  0  0  0
  129.9660  126.3040   65.3860 N   0  0  0  0  0  0  0  0  0  0  0  0
  130.9380  125.8820   64.5110 C   0  0  0  0  0  0  0  0  0  0  0  0
  130.9420  125.5650   63.1500 C   0  0  0  0  0  0  0  0  0  0  0  0
  130.4220  124.2730   59.4320 C   0  0  0  0  0  0  0  0  0  0  0  0
  129.2700  124.5670   58.6990 C   0  0  0  0  0  0  0  0  0  0  0  0
  128.6790  125.8100   58.9410 C   0  0  0  0  0  0  0  0  0  0  0  0
  127.5670  126.4490   58.4450 N   0  0  0  0  0  0  0  0  0  0  0  0
  125.7580  128.7120   57.5340 C   0  0  0  0  0  0  0  0  0  0  0  0
  124.7340  129.6210   57.2820 C   0  0  0  0  0  0  0  0  0  0  0  0
  1  2  1  0
  2  3  2  0
  3  4  1  0
  4  5  2  0
  5  6  1  0
  6  7  2  0
  7  8  1  0
  8  9  2  0
  9 10  1  0
 10 11  1  0
 11 12  1  0
 12 13  2  0
 13 14  1  0
 14 15  2  0
 15 16  1  0
 16 17  2  0
 17 18  1  0
 18 19  2  0
 19 20  1  0
 20 21  2  0
 21 22  1  0
 21 23  1  0
 23 24  2  0
 17 25  1  0
 25 26  1  0
 26 27  2  0
 10 28  2  0
 28 29  1  0
 29 30  2  0
 30 31  1  0
  5 32  1  0
 32 33  2  0
 33  2  1  0
 31  6  1  0
 30  8  1  0
 27 12  1  0
 26 15  1  0
 24 18  1  0
M  END
>  <Binding energies>  (42) 
[-5.85]

>  <Ligand effiencies>  (42) 
[-0.15]

>  <Interactions>  (42) 
["V-A:GLU:543:CD:4906, V-B:GLU:543:CG:9879, V-A:HIS:456:CE1:4068, V-A:ARG:545:CD:4921, V-A:ARG:545:CG:4920, V-B:GLU:543:CD:9880, V-B:GLU:543:CB:9878, V-A:ARG:545:CZ:4924, V-B:GLU:543:C:9874, V-B:ASP:366:CB:8184, V-B:ASP:366:CG:8185, V-A:TYR:539:CE2:4874, H-B:TYR:531:OH:9767, H-B:GLU:543:OE1:9881, H-A:GLU:543:OE2:4908, H-B:GLU:543:OE2:9882, V-B:ILE:369:CG2:8209, V-A:TYR:539:CZ:4875, V-B:HIS:456:CE1:9042, V-B:ASP:366:C:8180, V-B:ASP:366:CA:8182, H-A:ARG:545:NE:4922, V-B:ILE:369:CB:8208, V-B:HIS:456:CG:9038, V-A:GLY:544:C:4910, V-A:GLU:543:C:4900, V-B:HIS:456:CD2:9040, V-B:GLY:544:C:9884, H-A:HIS:456:ND1:4065, H-B:HIS:456:NE2:9043, H-A:GLU:543:O:4901, H-B:GLY:544:O:9885, H-A:TYR:539:OH:4876, H-B:ASP:366:O:8181"]

$$$$
RR16_Rahimova_2017
     RDKit          3D

 44 49  0  0  0  0  0  0  0  0999 V2000
  130.6940  123.9820   66.0280 O   0  0  0  0  0  0  0  0  0  0  0  0
  131.5920  124.9450   65.3810 S   0  0  0  0  0  0  0  0  0  0  0  0
  133.0480  124.8290   65.5210 O   0  0  0  0  0  0  0  0  0  0  0  0
  131.1160  126.5580   65.9150 N   0  0  0  0  0  0  0  0  0  0  0  0
  130.3330  126.7480   67.1590 C   0  0  0  0  0  0  0  0  0  0  0  0
  131.1530  127.6140   68.1500 C   0  0  0  0  0  0  0  0  0  0  0  0
  130.9050  127.3940   69.6550 C   0  0  0  0  0  0  0  0  0  0  0  0
  129.4720  126.9480   69.9930 C   0  0  0  0  0  0  0  0  0  0  0  0
  128.3440  127.7330   69.2980 C   0  0  0  0  0  0  0  0  0  0  0  0
  127.8920  127.2390   67.9100 C   0  0  0  0  0  0  0  0  0  0  0  0
  128.9390  127.3010   66.7810 C   0  0  0  0  0  0  0  0  0  0  0  0
  131.2040  124.9220   63.6340 C   0  0  0  0  0  0  0  0  0  0  0  0
  131.4570  126.0440   62.8410 C   0  0  0  0  0  0  0  0  0  0  0  0
  131.0390  126.0570   61.5140 C   0  0  0  0  0  0  0  0  0  0  0  0
  130.3710  124.9510   60.9850 C   0  0  0  0  0  0  0  0  0  0  0  0
  129.7080  125.0200   59.3230 S   0  0  0  0  0  0  0  0  0  0  0  0
  128.8590  123.8360   59.1390 O   0  0  0  0  0  0  0  0  0  0  0  0
  130.8300  125.2760   58.4110 O   0  0  0  0  0  0  0  0  0  0  0  0
  128.6650  126.4560   59.3310 N   0  0  0  0  0  0  0  0  0  0  0  0
  128.5830  127.1640   58.0270 C   0  0  0  0  0  0  0  0  0  0  0  0
  127.9240  128.5480   58.2050 C   0  0  0  0  0  0  0  0  0  0  0  0
  126.5560  128.4440   58.9240 C   0  0  0  0  0  0  0  0  0  0  0  0
  125.9070  129.8110   59.1520 C   0  0  0  0  0  0  0  0  0  0  0  0
  124.5670  130.0140   58.7910 C   0  0  0  0  0  0  0  0  0  0  0  0
  123.9330  131.2420   58.9870 C   0  0  0  0  0  0  0  0  0  0  0  0
  122.6210  131.4200   58.6310 O   0  0  0  0  0  0  0  0  0  0  0  0
  124.6730  132.2850   59.5640 C   0  0  0  0  0  0  0  0  0  0  0  0
  124.3190  133.5630   59.8870 N   0  0  0  0  0  0  0  0  0  0  0  0
  125.4180  134.1650   60.4610 N   0  0  0  0  0  0  0  0  0  0  0  0
  126.4390  133.2860   60.4490 N   0  0  0  0  0  0  0  0  0  0  0  0
  127.7090  133.6300   61.0760 C   0  0  0  0  0  0  0  0  0  0  0  0
  128.8230  132.6570   60.7160 C   0  0  0  0  0  0  0  0  0  0  0  0
  129.3890  131.8420   61.7030 C   0  0  0  0  0  0  0  0  0  0  0  0
  130.3950  130.9340   61.3720 C   0  0  0  0  0  0  0  0  0  0  0  0
  130.8400  130.8330   60.0540 C   0  0  0  0  0  0  0  0  0  0  0  0
  130.2780  131.6410   59.0650 C   0  0  0  0  0  0  0  0  0  0  0  0
  130.8180  131.5130   57.4310 Cl  0  0  0  0  0  0  0  0  0  0  0  0
  129.2740  132.5540   59.3960 C   0  0  0  0  0  0  0  0  0  0  0  0
  126.0260  132.0750   59.9190 C   0  0  0  0  0  0  0  0  0  0  0  0
  126.6650  130.8460   59.7190 C   0  0  0  0  0  0  0  0  0  0  0  0
  126.6350  127.5930   60.2190 C   0  0  0  0  0  0  0  0  0  0  0  0
  127.3450  126.2460   59.9790 C   0  0  0  0  0  0  0  0  0  0  0  0
  130.1550  123.8140   61.7680 C   0  0  0  0  0  0  0  0  0  0  0  0
  130.5700  123.8020   63.0950 C   0  0  0  0  0  0  0  0  0  0  0  0
  1  2  2  0
  2  3  2  0
  2  4  1  0
  4  5  1  0
  5  6  1  0
  6  7  1  0
  7  8  1  0
  8  9  1  0
  9 10  1  0
 10 11  1  0
  2 12  1  0
 12 13  2  0
 13 14  1  0
 14 15  2  0
 15 16  1  0
 16 17  2  0
 16 18  2  0
 16 19  1  0
 19 20  1  0
 20 21  1  0
 21 22  1  0
 22 23  1  0
 23 24  2  0
 24 25  1  0
 25 26  1  0
 25 27  2  0
 27 28  1  0
 28 29  2  0
 29 30  1  0
 30 31  1  0
 31 32  1  0
 32 33  2  0
 33 34  1  0
 34 35  2  0
 35 36  1  0
 36 37  1  0
 36 38  2  0
 30 39  1  0
 39 40  2  0
 22 41  1  0
 41 42  1  0
 15 43  1  0
 43 44  2  0
 11  5  1  0
 44 12  1  0
 42 19  1  0
 40 23  1  0
 39 27  1  0
 38 32  1  0
M  END
>  <Binding energies>  (43) 
[-8.34]

>  <Ligand effiencies>  (43) 
[-0.17375]

>  <Interactions>  (43) 
["H-A:GLY:454:N:4048, V-A:GLU:543:CD:4906, V-B:GLU:543:CG:9879, V-A:HIS:456:CE1:4068, V-A:ARG:545:CG:4920, V-B:GLU:543:CD:9880, V-A:ARG:545:CZ:4924, V-A:HIS:456:CD2:4066, V-B:GLU:543:C:9874, V-B:ASP:366:CB:8184, V-B:ASP:366:CG:8185, V-A:TYR:539:CE2:4874, V-A:TYR:539:CD2:4872, V-A:TYR:484:CZ:4345, H-B:ASP:366:OD1:8186, V-A:ALA:541:CB:4890, V-A:TYR:539:C:4865, H-A:TYR:484:OH:4346, H-A:GLU:543:OE2:4908, V-B:ILE:369:CG2:8209, V-A:TYR:539:CZ:4875, V-A:PRO:540:CA:4881, V-B:HIS:456:CE1:9042, V-A:PRO:540:C:4879, V-B:ASP:366:CA:8182, H-A:ARG:545:NE:4922, V-A:GLU:543:CG:4905, V-A:PRO:540:N:4882, V-A:GLY:544:C:4910, V-A:GLU:543:C:4900, V-A:ALA:541:CA:4888, V-A:GLY:544:CA:4912, H-A:TYR:539:OH:4876, H-B:ASP:366:O:8181, V-A:ARG:545:CA:4917"]

$$$$
RR18_Rahimova_2017
     RDKit          3D

 36 41  0  0  0  0  0  0  0  0999 V2000
  131.4060  130.5950   61.3560 C   0  0  0  0  0  0  0  0  0  0  0  0
  130.4070  130.3740   60.2470 C   0  0  0  0  0  0  0  0  0  0  0  0
  130.3700  130.7030   58.9020 C   0  0  0  0  0  0  0  0  0  0  0  0
  129.1620  130.2180   58.4020 C   0  0  0  0  0  0  0  0  0  0  0  0
  128.5040  129.6110   59.4600 C   0  0  0  0  0  0  0  0  0  0  0  0
  127.1670  128.8880   59.5990 C   0  0  1  0  0  0  0  0  0  0  0  0
  126.0550  129.5750   58.7530 C   0  0  0  0  0  0  0  0  0  0  0  0
  125.6110  130.9280   59.0750 C   0  0  0  0  0  0  0  0  0  0  0  0
  124.5460  131.3810   58.6520 O   0  0  0  0  0  0  0  0  0  0  0  0
  126.4580  131.6130   59.8790 N   0  0  0  0  0  0  0  0  0  0  0  0
  126.3790  132.9300   60.3780 C   0  0  0  0  0  0  0  0  0  0  0  0
  125.1830  133.6700   60.4280 C   0  0  0  0  0  0  0  0  0  0  0  0
  125.1730  134.9710   60.9270 C   0  0  0  0  0  0  0  0  0  0  0  0
  126.3530  135.5550   61.3760 C   0  0  0  0  0  0  0  0  0  0  0  0
  127.5470  134.8400   61.3220 C   0  0  0  0  0  0  0  0  0  0  0  0
  127.5720  133.5330   60.8250 C   0  0  0  0  0  0  0  0  0  0  0  0
  128.9070  132.7940   60.7830 C   0  0  0  0  0  0  0  0  0  0  0  0
  125.5850  128.9290   57.6540 C   0  0  0  0  0  0  0  0  0  0  0  0
  125.9270  127.6610   57.2930 N   0  0  0  0  0  0  0  0  0  0  0  0
  126.6840  126.9690   58.0610 C   0  0  0  0  0  0  0  0  0  0  0  0
  127.0850  125.2870   57.8060 S   0  0  0  0  0  0  0  0  0  0  0  0
  128.0660  125.2390   59.3050 C   0  0  0  0  0  0  0  0  0  0  0  0
  128.7530  124.1600   59.8170 C   0  0  0  0  0  0  0  0  0  0  0  0
  128.6640  122.8460   59.1630 C   0  0  0  0  0  0  0  0  0  0  0  0
  128.0590  122.5070   58.1460 O   0  0  0  0  0  0  0  0  0  0  0  0
  129.3780  121.9860   59.8960 N   0  0  0  0  0  0  0  0  0  0  0  0
  129.9790  122.5740   60.9680 C   0  0  0  0  0  0  0  0  0  0  0  0
  130.8000  121.9750   61.9220 C   0  0  0  0  0  0  0  0  0  0  0  0
  131.3460  122.7640   62.9310 C   0  0  0  0  0  0  0  0  0  0  0  0
  131.0710  124.1300   62.9620 C   0  0  0  0  0  0  0  0  0  0  0  0
  130.2440  124.7070   61.9950 C   0  0  0  0  0  0  0  0  0  0  0  0
  129.6640  123.9220   60.9810 C   0  0  0  0  0  0  0  0  0  0  0  0
  128.0070  126.5630   59.9260 C   0  0  0  0  0  0  0  0  0  0  0  0
  128.5160  126.8920   60.9930 O   0  0  0  0  0  0  0  0  0  0  0  0
  127.2790  127.4440   59.1860 N   0  0  0  0  0  0  0  0  0  0  0  0
  129.2690  129.7110   60.5800 O   0  0  0  0  0  0  0  0  0  0  0  0
  1  2  1  0
  2  3  2  0
  3  4  1  0
  4  5  2  0
  6  5  1  6
  6  7  1  0
  7  8  1  0
  8  9  2  0
  8 10  1  0
 10 11  1  0
 11 12  2  0
 12 13  1  0
 13 14  2  0
 14 15  1  0
 15 16  2  0
 16 17  1  0
  7 18  2  0
 18 19  1  0
 19 20  2  0
 20 21  1  0
 21 22  1  0
 22 23  2  0
 23 24  1  0
 24 25  2  0
 24 26  1  0
 26 27  1  0
 27 28  2  0
 28 29  1  0
 29 30  2  0
 30 31  1  0
 31 32  2  0
 22 33  1  0
 33 34  2  0
 33 35  1  0
  5 36  1  0
 36  2  1  0
 35  6  1  0
 16 11  1  0
 35 20  1  0
 32 23  1  0
 32 27  1  0
M  END
>  <Binding energies>  (44) 
[-7.52]

>  <Ligand effiencies>  (44) 
[-0.19789473684210526]

>  <Interactions>  (44) 
["V-A:GLU:543:CD:4906, V-B:TYR:539:CE2:9848, V-B:ASP:366:CB:8184, V-B:ASP:366:CG:8185, V-B:TYR:539:CD2:9846, V-B:PRO:540:CA:9855, V-B:ALA:541:CB:9864, V-A:TYR:539:CE2:4874, H-B:TYR:531:OH:9767, V-A:TYR:539:CD2:4872, V-A:LEU:475:CD2:4257, V-B:LEU:475:CD2:9231, V-A:ALA:541:CB:4890, V-B:TYR:539:C:9839, V-B:ILE:369:CG2:8209, V-A:PRO:540:CA:4881, V-A:PRO:540:C:4879, V-B:TRP:381:CZ2:8342, V-B:TRP:381:CH2:8344, H-B:TYR:539:O:9840, V-A:ALA:541:CA:4888, H-A:TYR:539:OH:4876"]

$$$$
RR20_Rahimova_2017
     RDKit          3D

 38 43  0  0  0  0  0  0  0  0999 V2000
  128.8070  127.2600   68.3370 C   0  0  0  0  0  0  0  0  0  0  0  0
  129.8890  126.6990   67.4320 C   0  0  0  0  0  0  0  0  0  0  0  0
  129.7560  125.4140   66.9050 C   0  0  0  0  0  0  0  0  0  0  0  0
  130.7430  124.9010   66.0670 C   0  0  0  0  0  0  0  0  0  0  0  0
  131.8770  125.6630   65.7610 C   0  0  0  0  0  0  0  0  0  0  0  0
  132.9270  125.0950   64.8330 C   0  0  0  0  0  0  0  0  0  0  0  0
  134.1040  125.1550   65.1970 O   0  0  0  0  0  0  0  0  0  0  0  0
  132.5410  124.5330   63.6500 N   0  0  0  0  0  0  0  0  0  0  0  0
  132.9660  123.1770   63.2650 C   0  0  0  0  0  0  0  0  0  0  0  0
  132.2250  122.8440   61.9820 C   0  0  0  0  0  0  0  0  0  0  0  0
  131.1500  123.8860   61.9370 C   0  0  0  0  0  0  0  0  0  0  0  0
  130.1040  124.0310   61.0250 C   0  0  0  0  0  0  0  0  0  0  0  0
  129.2890  125.1700   61.0500 C   0  0  0  0  0  0  0  0  0  0  0  0
  128.1560  125.3230   60.0740 C   0  0  0  0  0  0  0  0  0  0  0  0
  127.6940  126.5400   59.8320 N   0  0  0  0  0  0  0  0  0  0  0  0
  126.7240  126.5570   58.9540 C   0  0  0  0  0  0  0  0  0  0  0  0
  126.0260  127.6540   58.4730 N   0  0  0  0  0  0  0  0  0  0  0  0
  126.5520  128.8000   57.9760 C   0  0  0  0  0  0  0  0  0  0  0  0
  127.7610  129.0130   57.8660 O   0  0  0  0  0  0  0  0  0  0  0  0
  125.5750  129.8990   57.4950 C   0  0  0  0  0  0  0  0  0  0  0  0
  125.1440  130.8020   58.5790 N   0  0  0  0  0  0  0  0  0  0  0  0
  123.6960  130.7360   58.8220 C   0  0  0  0  0  0  0  0  0  0  0  0
  123.2620  131.8800   59.7670 C   0  0  0  0  0  0  0  0  0  0  0  0
  124.1820  132.0360   60.9780 C   0  0  0  0  0  0  0  0  0  0  0  0
  123.8090  132.8260   62.0710 C   0  0  0  0  0  0  0  0  0  0  0  0
  124.6640  132.9990   63.1570 C   0  0  0  0  0  0  0  0  0  0  0  0
  125.9080  132.3770   63.1630 C   0  0  0  0  0  0  0  0  0  0  0  0
  126.2890  131.5800   62.0860 C   0  0  0  0  0  0  0  0  0  0  0  0
  125.4400  131.3990   60.9880 C   0  0  0  0  0  0  0  0  0  0  0  0
  125.8340  130.4780   59.8330 C   0  0  0  0  0  0  0  0  0  0  0  0
  126.2860  125.0070   58.3480 S   0  0  0  0  0  0  0  0  0  0  0  0
  127.5060  124.2860   59.3710 C   0  0  0  0  0  0  0  0  0  0  0  0
  127.6900  122.7850   59.4020 C   0  0  0  0  0  0  0  0  0  0  0  0
  129.5840  126.1840   61.9740 C   0  0  0  0  0  0  0  0  0  0  0  0
  130.6410  126.0500   62.8740 C   0  0  0  0  0  0  0  0  0  0  0  0
  131.3950  124.8690   62.8950 C   0  0  0  0  0  0  0  0  0  0  0  0
  131.9890  126.9630   66.2710 C   0  0  0  0  0  0  0  0  0  0  0  0
  131.0010  127.4770   67.1080 C   0  0  0  0  0  0  0  0  0  0  0  0
  1  2  1  0
  2  3  2  0
  3  4  1  0
  4  5  2  0
  5  6  1  0
  6  7  2  0
  6  8  1  0
  8  9  1  0
  9 10  1  0
 10 11  1  0
 11 12  2  0
 12 13  1  0
 13 14  1  0
 14 15  1  0
 15 16  2  0
 16 17  1  0
 17 18  1  0
 18 19  2  0
 18 20  1  0
 20 21  1  0
 21 22  1  0
 22 23  1  0
 23 24  1  0
 24 25  2  0
 25 26  1  0
 26 27  2  0
 27 28  1  0
 28 29  2  0
 29 30  1  0
 16 31  1  0
 31 32  1  0
 32 33  1  0
 13 34  2  0
 34 35  1  0
 35 36  2  0
  5 37  1  0
 37 38  2  0
 38  2  1  0
 36  8  1  0
 36 11  1  0
 32 14  2  0
 30 21  1  0
 29 24  1  0
M  END
>  <Binding energies>  (45) 
[-7.32]

>  <Ligand effiencies>  (45) 
[-0.18769230769230769]

>  <Interactions>  (45) 
["H-A:GLY:454:N:4048, V-A:GLU:543:CD:4906, V-B:GLU:543:CG:9879, V-A:HIS:456:CE1:4068, V-A:ARG:545:CD:4921, V-A:ARG:545:CG:4920, V-B:GLU:543:CD:9880, V-B:GLU:543:CB:9878, V-A:ARG:545:CZ:4924, V-A:GLY:454:CA:4047, V-B:GLU:543:CA:9876, V-B:GLU:543:C:9874, V-B:ASP:366:CB:8184, V-B:ASP:366:CG:8185, V-B:PRO:540:C:9853, V-B:PRO:540:N:9856, V-B:PRO:540:CA:9855, H-B:TYR:531:OH:9767, V-B:GLY:454:CA:9021, V-A:TYR:484:CZ:4345, H-B:ASP:366:OD1:8186, V-A:LEU:475:CD2:4257, V-B:LEU:475:CD2:9231, V-B:TYR:539:C:9839, H-A:TYR:484:OH:4346, V-B:ILE:369:CD1:8211, V-B:ILE:369:CG2:8209, V-A:TYR:539:CZ:4875, V-B:ASP:366:C:8180, V-B:ASP:366:CA:8182, H-B:ASP:366:OD2:8187, H-A:ARG:545:NE:4922, V-A:GLU:543:CG:4905, V-B:ILE:369:CB:8208, V-A:TYR:484:CE1:4343, H-A:TYR:539:OH:4876, V-B:ILE:369:CG1:8210"]

$$$$
RR21_Rahimova_2017
     RDKit          3D

 40 45  0  0  0  0  0  0  0  0999 V2000
  123.3190  124.3590   57.5190 C   0  0  0  0  0  0  0  0  0  0  0  0
  123.6580  124.0000   58.8550 O   0  0  0  0  0  0  0  0  0  0  0  0
  124.9880  123.9620   59.2280 C   0  0  0  0  0  0  0  0  0  0  0  0
  126.0610  123.8890   58.3230 C   0  0  0  0  0  0  0  0  0  0  0  0
  127.3760  123.8580   58.7830 C   0  0  0  0  0  0  0  0  0  0  0  0
  127.6550  123.9030   60.1540 C   0  0  0  0  0  0  0  0  0  0  0  0
  129.0700  123.8750   60.6450 C   0  0  0  0  0  0  0  0  0  0  0  0
  129.8220  122.8160   60.4180 N   0  0  0  0  0  0  0  0  0  0  0  0
  131.0210  123.0710   60.9630 N   0  0  0  0  0  0  0  0  0  0  0  0
  132.0860  122.1360   60.8810 C   0  0  0  0  0  0  0  0  0  0  0  0
  132.0600  121.0990   59.9360 C   0  0  0  0  0  0  0  0  0  0  0  0
  133.1130  120.1910   59.8620 C   0  0  0  0  0  0  0  0  0  0  0  0
  134.1930  120.3150   60.7330 C   0  0  0  0  0  0  0  0  0  0  0  0
  134.2300  121.3370   61.6780 C   0  0  0  0  0  0  0  0  0  0  0  0
  133.1780  122.2470   61.7540 C   0  0  0  0  0  0  0  0  0  0  0  0
  131.0290  124.3210   61.5290 C   0  0  0  0  0  0  0  0  0  0  0  0
  129.7700  124.8760   61.3570 C   0  0  0  0  0  0  0  0  0  0  0  0
  129.3110  126.2010   61.7470 C   0  0  0  0  0  0  0  0  0  0  0  0
  129.5040  127.3760   61.1050 C   0  0  0  0  0  0  0  0  0  0  0  0
  130.3880  127.6610   59.5900 S   0  0  0  0  0  0  0  0  0  0  0  0
  129.9910  129.3700   59.6960 C   0  0  0  0  0  0  0  0  0  0  0  0
  130.3030  130.3130   58.8610 N   0  0  0  0  0  0  0  0  0  0  0  0
  129.9060  131.6640   59.0600 C   0  0  0  0  0  0  0  0  0  0  0  0
  130.1430  132.6090   58.3080 O   0  0  0  0  0  0  0  0  0  0  0  0
  129.1190  131.8860   60.3220 C   0  0  0  0  0  0  0  0  0  0  0  0
  128.6530  133.3100   60.6530 C   0  0  0  0  0  0  0  0  0  0  0  0
  127.1760  133.4170   61.0260 C   0  0  0  0  0  0  0  0  0  0  0  0
  126.5790  132.4280   61.8120 C   0  0  0  0  0  0  0  0  0  0  0  0
  125.2360  132.5350   62.1660 C   0  0  0  0  0  0  0  0  0  0  0  0
  124.4870  133.6330   61.7370 C   0  0  0  0  0  0  0  0  0  0  0  0
  123.0280  133.7510   62.1350 C   0  0  0  0  0  0  0  0  0  0  0  0
  125.0850  134.6290   60.9610 C   0  0  0  0  0  0  0  0  0  0  0  0
  126.4270  134.5210   60.6070 C   0  0  0  0  0  0  0  0  0  0  0  0
  128.8200  130.9370   61.1480 N   0  0  0  0  0  0  0  0  0  0  0  0
  129.2650  129.6500   60.8230 N   0  0  0  0  0  0  0  0  0  0  0  0
  128.9630  128.6160   61.6460 C   0  0  0  0  0  0  0  0  0  0  0  0
  128.3180  128.7160   62.6970 O   0  0  0  0  0  0  0  0  0  0  0  0
  126.5880  123.9700   61.0550 C   0  0  0  0  0  0  0  0  0  0  0  0
  125.2700  124.0000   60.5980 C   0  0  0  0  0  0  0  0  0  0  0  0
  124.2600  124.0650   61.4960 F   0  0  0  0  0  0  0  0  0  0  0  0
  1  2  1  0
  2  3  1  0
  3  4  2  0
  4  5  1  0
  5  6  2  0
  6  7  1  0
  7  8  2  0
  8  9  1  0
  9 10  1  0
 10 11  2  0
 11 12  1  0
 12 13  2  0
 13 14  1  0
 14 15  2  0
  9 16  1  0
 16 17  2  0
 17 18  1  0
 18 19  2  0
 19 20  1  0
 20 21  1  0
 21 22  2  0
 22 23  1  0
 23 24  2  0
 23 25  1  0
 25 26  1  0
 26 27  1  0
 27 28  2  0
 28 29  1  0
 29 30  2  0
 30 31  1  0
 30 32  1  0
 32 33  2  0
 25 34  2  0
 34 35  1  0
 35 36  1  0
 36 37  2  0
  6 38  1  0
 38 39  2  0
 39 40  1  0
 39  3  1  0
 17  7  1  0
 36 19  1  0
 15 10  1  0
 35 21  1  0
 33 27  1  0
M  END
>  <Binding energies>  (46) 
[-8.13]

>  <Ligand effiencies>  (46) 
[-0.20325000000000001]

>  <Interactions>  (46) 
["V-A:GLU:543:CD:4906, V-B:TYR:539:CE2:9848, V-A:ILE:369:CD1:3237, V-A:ILE:369:CG2:3235, V-B:GLU:543:CD:9880, V-A:GLY:454:CA:4047, V-B:ASP:366:CB:8184, V-B:ASN:362:CB:8148, V-B:LEU:363:CA:8157, V-B:PRO:540:CB:9857, V-B:ASP:366:CG:8185, V-B:TYR:531:CE2:9765, V-B:LEU:363:CD1:8161, V-B:ASN:362:C:8144, V-B:TYR:531:CZ:9766, V-B:LEU:363:CB:8159, V-B:TYR:539:CD2:9846, V-B:PRO:540:N:9856, V-B:PRO:540:CA:9855, V-A:TYR:539:CE2:4874, V-B:GLY:454:CA:9021, V-A:TYR:539:CD2:4872, V-A:LEU:475:CD2:4257, V-B:LEU:475:CD2:9231, V-A:ALA:541:CB:4890, V-A:TYR:539:C:4865, V-B:ARG:545:CZ:9898, V-B:ILE:369:CD1:8211, V-B:ILE:369:CG2:8209, V-A:PRO:540:CA:4881, V-A:PRO:540:C:4879, V-A:PRO:540:N:4882, V-B:TRP:381:CZ2:8342, V-B:TRP:381:CH2:8344, V-A:TRP:381:CZ2:3368, V-A:TRP:381:CH2:3370, V-A:ALA:541:CA:4888, V-B:ILE:369:CG1:8210, V-A:SER:385:CA:3405, V-B:SER:385:C:8377, V-A:SER:385:C:3403, H-B:LEU:363:N:8158"]

$$$$
RR23_Rahimova_2017
     RDKit          3D

 39 44  0  0  0  0  0  0  0  0999 V2000
  130.7190  126.5260   66.7070 C   0  0  0  0  0  0  0  0  0  0  0  0
  131.4720  125.9140   65.5400 C   0  0  0  0  0  0  0  0  0  0  0  0
  130.8490  125.7850   64.2980 C   0  0  0  0  0  0  0  0  0  0  0  0
  131.5440  125.2320   63.2250 C   0  0  0  0  0  0  0  0  0  0  0  0
  132.8630  124.7930   63.3890 C   0  0  0  0  0  0  0  0  0  0  0  0
  133.6070  124.2140   62.2070 C   0  0  0  0  0  0  0  0  0  0  0  0
  134.8140  124.4510   62.1200 O   0  0  0  0  0  0  0  0  0  0  0  0
  132.9310  123.4500   61.2980 N   0  0  0  0  0  0  0  0  0  0  0  0
  133.0460  121.9830   61.2890 C   0  0  0  0  0  0  0  0  0  0  0  0
  132.0520  121.4820   60.2540 C   0  0  0  0  0  0  0  0  0  0  0  0
  131.1800  122.6790   60.0220 C   0  0  0  0  0  0  0  0  0  0  0  0
  130.0350  122.7930   59.2340 C   0  0  0  0  0  0  0  0  0  0  0  0
  129.4450  124.0470   59.0160 C   0  0  0  0  0  0  0  0  0  0  0  0
  128.1840  124.2170   58.1550 C   0  0  2  0  0  0  0  0  0  0  0  0
  127.8200  125.6080   57.9890 N   0  0  0  0  0  0  0  0  0  0  0  0
  126.5610  125.7590   57.8900 C   0  0  0  0  0  0  0  0  0  0  0  0
  125.8640  126.9190   57.7510 N   0  0  0  0  0  0  0  0  0  0  0  0
  126.3240  128.1920   57.8250 C   0  0  0  0  0  0  0  0  0  0  0  0
  127.5000  128.5200   57.9960 O   0  0  0  0  0  0  0  0  0  0  0  0
  125.2580  129.2910   57.6830 C   0  0  0  0  0  0  0  0  0  0  0  0
  125.1630  130.0410   58.9550 N   0  0  0  0  0  0  0  0  0  0  0  0
  125.8970  129.5180   60.0120 N   0  0  0  0  0  0  0  0  0  0  0  0
  125.8980  130.0800   61.1790 N   0  0  0  0  0  0  0  0  0  0  0  0
  125.1500  131.2410   61.3900 C   0  0  0  0  0  0  0  0  0  0  0  0
  125.1720  131.8210   62.6610 C   0  0  0  0  0  0  0  0  0  0  0  0
  124.4350  132.9810   62.9040 C   0  0  0  0  0  0  0  0  0  0  0  0
  123.6780  133.5600   61.8820 C   0  0  0  0  0  0  0  0  0  0  0  0
  123.6550  132.9810   60.6120 C   0  0  0  0  0  0  0  0  0  0  0  0
  124.3960  131.8180   60.3680 C   0  0  0  0  0  0  0  0  0  0  0  0
  124.3810  131.1740   59.0010 C   0  0  0  0  0  0  0  0  0  0  0  0
  123.7330  131.6080   58.0450 O   0  0  0  0  0  0  0  0  0  0  0  0
  125.5590  124.2800   57.9540 S   0  0  0  0  0  0  0  0  0  0  0  0
  126.9690  123.3900   58.6360 C   0  0  2  0  0  0  0  0  0  0  0  0
  126.7860  123.2510   60.1620 C   0  0  0  0  0  0  0  0  0  0  0  0
  130.0530  125.1830   59.5630 C   0  0  0  0  0  0  0  0  0  0  0  0
  131.2110  125.0730   60.3340 C   0  0  0  0  0  0  0  0  0  0  0  0
  131.7480  123.8090   60.6140 C   0  0  0  0  0  0  0  0  0  0  0  0
  133.4910  124.9510   64.6320 C   0  0  0  0  0  0  0  0  0  0  0  0
  132.7960  125.5050   65.7040 C   0  0  0  0  0  0  0  0  0  0  0  0
  1  2  1  0
  2  3  2  0
  3  4  1  0
  4  5  2  0
  5  6  1  0
  6  7  2  0
  6  8  1  0
  8  9  1  0
  9 10  1  0
 10 11  1  0
 11 12  2  0
 12 13  1  0
 14 13  1  1
 14 15  1  0
 15 16  2  0
 16 17  1  0
 17 18  1  0
 18 19  2  0
 18 20  1  0
 20 21  1  0
 21 22  1  0
 22 23  2  0
 23 24  1  0
 24 25  2  0
 25 26  1  0
 26 27  2  0
 27 28  1  0
 28 29  2  0
 29 30  1  0
 30 31  2  0
 16 32  1  0
 32 33  1  0
 33 34  1  1
 13 35  2  0
 35 36  1  0
 36 37  2  0
  5 38  1  0
 38 39  2  0
 39  2  1  0
 37  8  1  0
 37 11  1  0
 33 14  1  0
 30 21  1  0
 29 24  1  0
M  END
>  <Binding energies>  (47) 
[-10.04]

>  <Ligand effiencies>  (47) 
[-0.251]

>  <Interactions>  (47) 
["H-A:GLY:454:N:4048, V-A:GLU:543:CD:4906, V-A:HIS:456:CE1:4068, V-B:TYR:539:CE2:9848, V-A:ARG:545:CD:4921, V-A:GLY:453:CA:4042, V-A:ARG:545:CG:4920, V-B:GLU:543:CD:9880, V-A:ARG:545:CZ:4924, V-A:GLY:454:CA:4047, V-B:ASP:366:CB:8184, V-B:PRO:540:CB:9857, V-B:ASP:366:CG:8185, V-B:PRO:540:C:9853, V-B:TYR:539:CD2:9846, V-B:PRO:540:N:9856, V-B:PRO:540:CA:9855, V-A:TYR:539:CE2:4874, H-B:TYR:531:OH:9767, V-B:GLY:454:CA:9021, V-A:LEU:475:CD2:4257, V-B:LEU:475:CD2:9231, V-B:TYR:539:C:9839, V-B:ILE:369:CD1:8211, V-B:ILE:369:CG2:8209, V-A:TYR:539:CZ:4875, H-B:ASP:366:OD2:8187, V-A:GLU:543:CG:4905, V-B:ILE:369:CB:8208, H-A:ARG:545:NH1:4925, H-A:TYR:539:OH:4876, V-B:ILE:369:CG1:8210"]

$$$$
RR26_Rahimova_2017
     RDKit          3D

 38 44  0  0  0  0  0  0  0  0999 V2000
  124.5340  130.3960   63.2360 C   0  0  0  0  0  0  0  0  0  0  0  0
  124.5460  131.5630   62.2550 C   0  0  0  0  0  0  0  0  0  0  0  0
  123.6950  132.6460   62.5040 C   0  0  0  0  0  0  0  0  0  0  0  0
  123.6930  133.7560   61.6630 C   0  0  0  0  0  0  0  0  0  0  0  0
  124.5500  133.7970   60.5670 C   0  0  0  0  0  0  0  0  0  0  0  0
  125.4020  132.7260   60.3100 C   0  0  0  0  0  0  0  0  0  0  0  0
  125.4110  131.5950   61.1400 C   0  0  0  0  0  0  0  0  0  0  0  0
  126.3490  130.4780   60.7830 C   0  0  0  0  0  0  0  0  0  0  0  0
  126.2710  129.2750   61.3470 N   0  0  0  0  0  0  0  0  0  0  0  0
  127.2390  128.6330   60.7500 C   0  0  0  0  0  0  0  0  0  0  0  0
  127.9000  127.0420   60.8270 S   0  0  0  0  0  0  0  0  0  0  0  0
  129.0940  127.5010   59.5560 C   0  0  0  0  0  0  0  0  0  0  0  0
  130.0650  126.7320   59.0150 C   0  0  0  0  0  0  0  0  0  0  0  0
  130.3820  125.3460   59.3180 C   0  0  0  0  0  0  0  0  0  0  0  0
  131.5930  124.8150   59.7350 C   0  0  0  0  0  0  0  0  0  0  0  0
  131.4170  123.4710   59.9410 N   0  0  0  0  0  0  0  0  0  0  0  0
  132.3730  122.5170   60.3760 C   0  0  0  0  0  0  0  0  0  0  0  0
  133.3380  122.8540   61.3370 C   0  0  0  0  0  0  0  0  0  0  0  0
  134.2730  121.9090   61.7530 C   0  0  0  0  0  0  0  0  0  0  0  0
  134.2440  120.6260   61.2140 C   0  0  0  0  0  0  0  0  0  0  0  0
  133.2890  120.2770   60.2610 C   0  0  0  0  0  0  0  0  0  0  0  0
  132.3550  121.2200   59.8410 C   0  0  0  0  0  0  0  0  0  0  0  0
  130.1430  123.1260   59.7020 N   0  0  0  0  0  0  0  0  0  0  0  0
  129.5190  124.2260   59.3270 C   0  0  0  0  0  0  0  0  0  0  0  0
  128.0650  124.1750   58.9740 C   0  0  0  0  0  0  0  0  0  0  0  0
  127.6590  124.1850   57.6310 C   0  0  0  0  0  0  0  0  0  0  0  0
  126.3050  124.1420   57.2920 C   0  0  0  0  0  0  0  0  0  0  0  0
  125.3440  124.0890   58.2990 C   0  0  0  0  0  0  0  0  0  0  0  0
  125.7370  124.0600   59.6450 C   0  0  0  0  0  0  0  0  0  0  0  0
  127.0890  124.1100   59.9810 C   0  0  0  0  0  0  0  0  0  0  0  0
  124.8190  124.0530   60.6770 O   0  0  0  0  0  0  0  0  0  0  0  0
  123.5050  123.6380   60.2880 C   0  0  0  0  0  0  0  0  0  0  0  0
  123.0910  124.3200   58.9610 C   0  0  0  0  0  0  0  0  0  0  0  0
  124.0190  123.9990   57.9200 O   0  0  0  0  0  0  0  0  0  0  0  0
  128.9360  128.8860   59.1210 C   0  0  0  0  0  0  0  0  0  0  0  0
  129.5820  129.5160   58.2810 O   0  0  0  0  0  0  0  0  0  0  0  0
  127.8670  129.4190   59.8570 N   0  0  0  0  0  0  0  0  0  0  0  0
  127.2920  130.6250   59.8650 N   0  0  0  0  0  0  0  0  0  0  0  0
  1  2  1  0
  2  3  2  0
  3  4  1  0
  4  5  2  0
  5  6  1  0
  6  7  2  0
  7  8  1  0
  8  9  1  0
  9 10  2  0
 10 11  1  0
 11 12  1  0
 12 13  2  0
 13 14  1  0
 14 15  2  0
 15 16  1  0
 16 17  1  0
 17 18  2  0
 18 19  1  0
 19 20  2  0
 20 21  1  0
 21 22  2  0
 16 23  1  0
 23 24  2  0
 24 25  1  0
 25 26  2  0
 26 27  1  0
 27 28  2  0
 28 29  1  0
 29 30  2  0
 29 31  1  0
 31 32  1  0
 32 33  1  0
 33 34  1  0
 12 35  1  0
 35 36  2  0
 35 37  1  0
 37 38  1  0
  7  2  1  0
 38  8  2  0
 37 10  1  0
 24 14  1  0
 30 25  1  0
 22 17  1  0
 34 28  1  0
M  END
>  <Binding energies>  (48) 
[-7.04]

>  <Ligand effiencies>  (48) 
[-0.18526315789473685]

>  <Interactions>  (48) 
["V-A:ASP:366:CG:3211, V-B:TYR:539:CE2:9848, V-A:ILE:369:CD1:3237, V-A:ILE:369:CG2:3235, V-A:GLY:454:CA:4047, V-B:ASP:366:CB:8184, V-B:ASN:362:CB:8148, V-B:LEU:363:CA:8157, V-B:PRO:540:CB:9857, V-B:ASP:366:CG:8185, V-B:ASN:362:C:8144, V-B:LEU:363:CB:8159, V-B:TYR:539:CD2:9846, V-B:PRO:540:N:9856, V-B:PRO:540:CA:9855, V-A:TYR:539:CE2:4874, H-B:TYR:531:OH:9767, H-B:ARG:545:NH2:9900, V-B:GLY:454:CA:9021, V-A:TYR:539:CD2:4872, V-A:LEU:475:CD2:4257, V-B:LEU:475:CD2:9231, V-B:ARG:545:CZ:9898, V-B:ILE:369:CD1:8211, V-B:ILE:369:CG2:8209, V-A:TRP:381:CZ2:3368, V-A:TRP:381:CH2:3370, V-A:SER:385:CA:3405, V-B:ASN:362:CA:8146, V-A:SER:385:C:3403"]

$$$$
RR2_Rahimova_2017
     RDKit          3D

 46 50  0  0  0  0  0  0  0  0999 V2000
  132.9900  124.3760   58.7530 C   0  0  0  0  0  0  0  0  0  0  0  0
  131.7220  123.7300   58.7940 O   0  0  0  0  0  0  0  0  0  0  0  0
  130.5910  124.4800   59.0580 C   0  0  0  0  0  0  0  0  0  0  0  0
  129.3060  123.9450   59.2180 C   0  0  0  0  0  0  0  0  0  0  0  0
  128.2240  124.7800   59.4780 C   0  0  0  0  0  0  0  0  0  0  0  0
  128.3980  126.1670   59.5810 C   0  0  0  0  0  0  0  0  0  0  0  0
  127.2010  127.0560   59.8580 C   0  0  0  0  0  0  0  0  0  0  0  0
  126.3430  126.7080   60.6760 O   0  0  0  0  0  0  0  0  0  0  0  0
  127.1470  128.2090   59.1510 N   0  0  0  0  0  0  0  0  0  0  0  0
  126.0240  129.0170   59.2990 N   0  0  0  0  0  0  0  0  0  0  0  0
  125.7710  129.9370   58.3460 C   0  0  0  0  0  0  0  0  0  0  0  0
  126.5500  130.2480   57.4410 O   0  0  0  0  0  0  0  0  0  0  0  0
  124.3910  130.6050   58.4220 C   0  0  0  0  0  0  0  0  0  0  0  0
  124.3260  132.1360   59.4230 S   0  0  0  0  0  0  0  0  0  0  0  0
  124.3540  131.4590   61.0550 C   0  0  0  0  0  0  0  0  0  0  0  0
  123.2690  131.2140   61.7450 N   0  0  0  0  0  0  0  0  0  0  0  0
  123.6630  130.7620   62.9960 N   0  0  0  0  0  0  0  0  0  0  0  0
  124.9740  130.7230   63.0060 C   0  0  0  0  0  0  0  0  0  0  0  0
  125.7740  130.2680   64.1840 C   0  0  0  0  0  0  0  0  0  0  0  0
  126.7470  131.1090   64.7290 C   0  0  0  0  0  0  0  0  0  0  0  0
  127.5020  130.6920   65.8210 C   0  0  0  0  0  0  0  0  0  0  0  0
  127.2790  129.4330   66.3900 C   0  0  0  0  0  0  0  0  0  0  0  0
  128.0160  128.9560   67.4840 N   0  0  0  0  0  0  0  0  0  0  0  0
  128.1520  127.2440   67.9440 S   0  0  0  0  0  0  0  0  0  0  0  0
  129.2050  126.6790   67.0930 O   0  0  0  0  0  0  0  0  0  0  0  0
  126.8020  126.6670   67.9540 O   0  0  0  0  0  0  0  0  0  0  0  0
  128.7920  127.2580   69.6170 C   0  0  0  0  0  0  0  0  0  0  0  0
  130.1470  127.0230   69.8620 C   0  0  0  0  0  0  0  0  0  0  0  0
  130.6220  127.0230   71.1710 C   0  0  0  0  0  0  0  0  0  0  0  0
  129.7450  127.2620   72.2320 C   0  0  0  0  0  0  0  0  0  0  0  0
  130.2620  127.2470   73.6590 C   0  0  0  0  0  0  0  0  0  0  0  0
  128.3900  127.4930   71.9840 C   0  0  0  0  0  0  0  0  0  0  0  0
  127.9140  127.4920   70.6760 C   0  0  0  0  0  0  0  0  0  0  0  0
  126.3040  128.5950   65.8470 C   0  0  0  0  0  0  0  0  0  0  0  0
  125.5530  129.0090   64.7510 C   0  0  0  0  0  0  0  0  0  0  0  0
  125.4840  131.1610   61.7950 N   0  0  0  0  0  0  0  0  0  0  0  0
  126.8330  131.3130   61.4150 C   0  0  0  0  0  0  0  0  0  0  0  0
  127.3070  132.5620   61.0110 C   0  0  0  0  0  0  0  0  0  0  0  0
  128.6410  132.7060   60.6420 C   0  0  0  0  0  0  0  0  0  0  0  0
  129.5090  131.6130   60.6700 C   0  0  0  0  0  0  0  0  0  0  0  0
  130.8130  131.8540   60.2850 O   0  0  0  0  0  0  0  0  0  0  0  0
  131.8650  131.1010   60.8820 C   0  0  0  0  0  0  0  0  0  0  0  0
  129.0230  130.3600   61.0780 C   0  0  0  0  0  0  0  0  0  0  0  0
  127.6910  130.2110   61.4500 C   0  0  0  0  0  0  0  0  0  0  0  0
  129.6890  126.6960   59.4250 C   0  0  0  0  0  0  0  0  0  0  0  0
  130.7700  125.8580   59.1660 C   0  0  0  0  0  0  0  0  0  0  0  0
  1  2  1  0
  2  3  1  0
  3  4  2  0
  4  5  1  0
  5  6  2  0
  6  7  1  0
  7  8  2  0
  7  9  1  0
  9 10  1  0
 10 11  1  0
 11 12  2  0
 11 13  1  0
 13 14  1  0
 14 15  1  0
 15 16  2  0
 16 17  1  0
 17 18  2  0
 18 19  1  0
 19 20  2  0
 20 21  1  0
 21 22  2  0
 22 23  1  0
 23 24  1  0
 24 25  2  0
 24 26  2  0
 24 27  1  0
 27 28  2  0
 28 29  1  0
 29 30  2  0
 30 31  1  0
 30 32  1  0
 32 33  2  0
 22 34  1  0
 34 35  2  0
 18 36  1  0
 36 37  1  0
 37 38  2  0
 38 39  1  0
 39 40  2  0
 40 41  1  0
 41 42  1  0
 40 43  1  0
 43 44  2  0
  6 45  1  0
 45 46  2  0
 46  3  1  0
 36 15  1  0
 44 37  1  0
 35 19  1  0
 33 27  1  0
M  END
>  <Binding energies>  (49) 
[-8.73]

>  <Ligand effiencies>  (49) 
[-0.17816326530612245]

>  <Interactions>  (49) 
["V-A:GLU:543:CD:4906, V-A:ASP:366:CG:3211, V-B:GLU:543:CG:9879, V-A:HIS:456:CE1:4068, V-A:ASP:366:CB:3210, V-B:TYR:539:CE2:9848, V-B:GLU:543:CD:9880, V-A:HIS:456:CD2:4066, V-B:GLU:543:C:9874, V-B:GLY:544:CA:9886, V-B:ASP:366:CB:8184, V-B:ASP:366:CG:8185, V-A:TYR:539:CE2:4874, H-B:ARG:545:NH2:9900, H-B:ASP:366:OD1:8186, V-A:ALA:541:CB:4890, H-B:GLY:454:N:9022, V-B:ARG:545:CZ:9898, V-A:GLU:543:CB:4904, V-A:TYR:539:CZ:4875, V-A:PRO:540:CA:4881, V-B:HIS:456:CE1:9042, V-A:PRO:540:CB:4883, V-B:TYR:484:CE1:9317, V-B:TYR:484:CZ:9319, H-A:ALA:541:N:4889, V-B:ASP:366:CA:8182, V-B:ARG:545:CG:9894, H-B:ASP:366:OD2:8187, V-A:GLU:543:CG:4905, V-A:GLY:544:C:4910, V-B:HIS:456:CD2:9040, V-B:GLY:544:C:9884, V-A:LYS:547:CE:4948, V-A:HIS:456:CG:4064, H-B:HIS:456:NE2:9043, H-A:GLU:543:O:4901, V-B:ARG:545:CD:9895, V-A:GLY:544:CA:4912, H-B:ARG:545:N:9892, H-A:TYR:539:OH:4876"]

$$$$
RR33_Rahimova_2017
     RDKit          3D

 18 19  0  0  0  0  0  0  0  0999 V2000
  130.6130  125.8370   66.0230 C   0  0  0  0  0  0  0  0  0  0  0  0
  129.9170  126.9080   66.8690 C   0  0  0  0  0  0  0  0  0  0  0  0
  130.5310  126.9470   68.1540 O   0  0  0  0  0  0  0  0  0  0  0  0
  129.7790  127.3160   69.2530 C   0  0  0  0  0  0  0  0  0  0  0  0
  130.4870  127.6390   70.4100 C   0  0  0  0  0  0  0  0  0  0  0  0
  129.8160  128.0200   71.5690 C   0  0  0  0  0  0  0  0  0  0  0  0
  128.4190  128.0830   71.5860 C   0  0  0  0  0  0  0  0  0  0  0  0
  127.6990  128.4910   72.8310 C   0  0  0  0  0  0  0  0  0  0  0  0
  126.8640  127.7720   73.5480 N   0  0  0  0  0  0  0  0  0  0  0  0
  126.4920  128.5590   74.5450 C   0  0  0  0  0  0  0  0  0  0  0  0
  125.5270  128.0690   75.6040 C   0  0  0  0  0  0  0  0  0  0  0  0
  124.3680  127.4380   74.9900 N   0  0  0  0  0  0  0  0  0  0  0  0
  123.9860  128.1390   73.7750 C   0  0  0  0  0  0  0  0  0  0  0  0
  127.1210  129.7920   74.4270 C   0  0  0  0  0  0  0  0  0  0  0  0
  127.1230  131.0770   75.2190 C   0  0  0  0  0  0  0  0  0  0  0  0
  127.8980  129.7430   73.3200 O   0  0  0  0  0  0  0  0  0  0  0  0
  127.7050  127.7640   70.4270 C   0  0  0  0  0  0  0  0  0  0  0  0
  128.3770  127.3820   69.2680 C   0  0  0  0  0  0  0  0  0  0  0  0
  1  2  1  0
  2  3  1  0
  3  4  1  0
  4  5  2  0
  5  6  1  0
  6  7  2  0
  7  8  1  0
  8  9  2  0
  9 10  1  0
 10 11  1  0
 11 12  1  0
 12 13  1  0
 10 14  2  0
 14 15  1  0
 14 16  1  0
  7 17  1  0
 17 18  2  0
 18  4  1  0
 16  8  1  0
M  END
>  <Binding energies>  (50) 
[-5.5]

>  <Ligand effiencies>  (50) 
[-0.2894736842105263]

>  <Interactions>  (50) 
["V-A:GLU:543:CD:4906, V-B:GLU:543:CG:9879, V-A:HIS:456:CE1:4068, V-B:GLU:543:CD:9880, V-B:GLU:543:CB:9878, V-B:LYS:547:CE:9922, V-B:GLU:543:C:9874, V-B:LYS:547:CG:9920, V-B:HIS:456:CE1:9042, V-A:GLU:543:CG:4905, V-B:HIS:456:CG:9038, V-B:LYS:471:CE:9192, V-B:VAL:457:C:9045, V-B:VAL:458:CG2:9059, H-A:LYS:547:NZ:4949, V-B:HIS:456:CB:9037, V-A:GLY:544:C:4910, V-B:HIS:456:CA:9035, V-B:HIS:456:C:9033, V-A:GLU:543:C:4900, V-B:HIS:456:CD2:9040, V-B:GLY:544:C:9884, V-A:GLY:544:CA:4912, V-B:LYS:547:CD:9921, V-B:ARG:545:C:9889, V-B:ARG:545:CA:9891, H-B:VAL:457:O:9046"]

$$$$
RR3_Rahimova_2017
     RDKit          3D

 38 44  0  0  0  0  0  0  0  0999 V2000
  133.6250  123.3880   61.6150 C   0  0  0  0  0  0  0  0  0  0  0  0
  132.4470  122.8290   62.1010 C   0  0  0  0  0  0  0  0  0  0  0  0
  131.8110  123.4060   63.1960 C   0  0  0  0  0  0  0  0  0  0  0  0
  132.3410  124.5460   63.8180 C   0  0  0  0  0  0  0  0  0  0  0  0
  131.6540  125.1670   64.9950 C   0  0  0  0  0  0  0  0  0  0  0  0
  132.1170  126.3690   65.5480 C   0  0  0  0  0  0  0  0  0  0  0  0
  131.4800  126.9430   66.6440 C   0  0  0  0  0  0  0  0  0  0  0  0
  130.3680  126.3230   67.2200 C   0  0  0  0  0  0  0  0  0  0  0  0
  129.6820  126.9320   68.4020 C   0  0  0  0  0  0  0  0  0  0  0  0
  130.0780  126.6230   69.6320 N   0  0  0  0  0  0  0  0  0  0  0  0
  129.3390  127.3300   70.4520 C   0  0  0  0  0  0  0  0  0  0  0  0
  129.4360  127.3020   71.9090 C   0  0  0  0  0  0  0  0  0  0  0  0
  128.4690  127.7480   72.7950 C   0  0  0  0  0  0  0  0  0  0  0  0
  128.8890  127.5630   74.0860 N   0  0  0  0  0  0  0  0  0  0  0  0
  130.1430  126.9930   74.0940 C   0  0  0  0  0  0  0  0  0  0  0  0
  130.9710  126.6230   75.1600 C   0  0  0  0  0  0  0  0  0  0  0  0
  132.2060  126.0620   74.8360 C   0  0  0  0  0  0  0  0  0  0  0  0
  132.6050  125.8760   73.5170 C   0  0  0  0  0  0  0  0  0  0  0  0
  131.7800  126.2450   72.4550 C   0  0  0  0  0  0  0  0  0  0  0  0
  130.5230  126.8160   72.7270 C   0  0  0  0  0  0  0  0  0  0  0  0
  128.4460  128.1040   69.7630 N   0  0  0  0  0  0  0  0  0  0  0  0
  128.6230  127.8550   68.4260 C   0  0  0  0  0  0  0  0  0  0  0  0
  127.7770  128.4810   67.3670 C   0  0  0  0  0  0  0  0  0  0  0  0
  128.2160  129.6300   66.7080 C   0  0  0  0  0  0  0  0  0  0  0  0
  127.4250  130.2240   65.7290 C   0  0  0  0  0  0  0  0  0  0  0  0
  126.1790  129.6810   65.3820 C   0  0  0  0  0  0  0  0  0  0  0  0
  125.3230  130.3330   64.3430 C   0  0  0  0  0  0  0  0  0  0  0  0
  124.1620  129.7020   63.8690 C   0  0  0  0  0  0  0  0  0  0  0  0
  123.3620  130.3120   62.9040 C   0  0  0  0  0  0  0  0  0  0  0  0
  123.7160  131.5610   62.4040 C   0  0  0  0  0  0  0  0  0  0  0  0
  124.8610  132.2040   62.8610 C   0  0  0  0  0  0  0  0  0  0  0  0
  125.6590  131.5920   63.8240 C   0  0  0  0  0  0  0  0  0  0  0  0
  125.7580  128.5170   66.0390 C   0  0  0  0  0  0  0  0  0  0  0  0
  126.5460  127.9200   67.0190 C   0  0  0  0  0  0  0  0  0  0  0  0
  129.8920  125.1320   66.6680 C   0  0  0  0  0  0  0  0  0  0  0  0
  130.5300  124.5590   65.5710 C   0  0  0  0  0  0  0  0  0  0  0  0
  133.5290  125.0920   63.3110 C   0  0  0  0  0  0  0  0  0  0  0  0
  134.1690  124.5180   62.2160 C   0  0  0  0  0  0  0  0  0  0  0  0
  1  2  2  0
  2  3  1  0
  3  4  2  0
  4  5  1  0
  5  6  2  0
  6  7  1  0
  7  8  2  0
  8  9  1  0
  9 10  1  0
 10 11  2  0
 11 12  1  0
 12 13  2  0
 13 14  1  0
 14 15  1  0
 15 16  2  0
 16 17  1  0
 17 18  2  0
 18 19  1  0
 19 20  2  0
 11 21  1  0
 21 22  1  0
 22 23  1  0
 23 24  2  0
 24 25  1  0
 25 26  2  0
 26 27  1  0
 27 28  2  0
 28 29  1  0
 29 30  2  0
 30 31  1  0
 31 32  2  0
 26 33  1  0
 33 34  2  0
  8 35  1  0
 35 36  2  0
  4 37  1  0
 37 38  2  0
 38  1  1  0
 36  5  1  0
 22  9  2  0
 34 23  1  0
 20 12  1  0
 32 27  1  0
 20 15  1  0
M  END
>  <Binding energies>  (51) 
[-6.09]

>  <Ligand effiencies>  (51) 
[-0.15225]

>  <Interactions>  (51) 
["V-A:GLU:543:CD:4906, V-B:GLU:543:CG:9879, V-A:HIS:456:CE1:4068, V-A:ARG:545:CD:4921, V-A:GLY:453:CA:4042, V-A:ILE:369:CD1:3237, V-A:ARG:545:CG:4920, V-B:GLU:543:CD:9880, V-B:GLU:543:CB:9878, V-A:ARG:545:CZ:4924, V-A:HIS:456:CD2:4066, V-B:GLU:543:CA:9876, V-B:LYS:547:CE:9922, V-B:GLU:543:C:9874, V-B:GLY:454:CA:9021, V-A:TYR:484:CZ:4345, V-A:LEU:475:CD2:4257, V-B:LEU:475:CD2:9231, V-B:ARG:545:CZ:9898, V-A:GLU:543:CB:4904, V-B:ILE:369:CD1:8211, V-B:HIS:456:CE1:9042, V-B:TYR:484:CE1:9317, V-B:TYR:484:CZ:9319, V-B:ARG:545:CG:9894, V-A:GLU:543:CG:4905, V-A:TYR:484:CE1:4343, V-A:GLY:544:C:4910, V-A:GLU:543:C:4900, V-B:HIS:456:CD2:9040, V-A:HIS:456:CB:4063, V-A:LYS:547:CE:4948, V-A:HIS:456:CG:4064, V-A:VAL:458:CG2:4085, H-B:HIS:456:NE2:9043, H-A:GLU:543:O:4901, V-A:LYS:547:CD:4947, V-B:GLY:453:CA:9016, V-B:GLY:453:C:9014, V-B:ARG:545:CD:9895, V-A:GLY:453:C:4040, V-A:GLU:543:CA:4902"]

$$$$
RR4_Rahimova_2017
     RDKit          3D

 40 44  0  0  0  0  0  0  0  0999 V2000
  132.7500  123.1670   63.5930 C   0  0  0  0  0  0  0  0  0  0  0  0
  132.9530  124.5630   63.4020 O   0  0  0  0  0  0  0  0  0  0  0  0
  132.0090  125.2920   62.7050 C   0  0  0  0  0  0  0  0  0  0  0  0
  130.7930  125.5170   63.3480 C   0  0  0  0  0  0  0  0  0  0  0  0
  129.7840  126.2430   62.7230 C   0  0  0  0  0  0  0  0  0  0  0  0
  129.9590  126.7640   61.4330 C   0  0  0  0  0  0  0  0  0  0  0  0
  128.8670  127.5460   60.7610 C   0  0  0  0  0  0  0  0  0  0  0  0
  128.5850  128.8790   61.0770 C   0  0  0  0  0  0  0  0  0  0  0  0
  127.5580  129.5670   60.4190 C   0  0  0  0  0  0  0  0  0  0  0  0
  127.3340  130.9970   60.7880 C   0  0  0  0  0  0  0  0  0  0  0  0
  127.8860  132.0180   60.0090 C   0  0  0  0  0  0  0  0  0  0  0  0
  127.6720  133.3540   60.3400 C   0  0  0  0  0  0  0  0  0  0  0  0
  126.8990  133.6950   61.4500 C   0  0  0  0  0  0  0  0  0  0  0  0
  126.7410  135.0440   61.7000 O   0  0  0  0  0  0  0  0  0  0  0  0
  127.5230  135.9830   60.9680 C   0  0  0  0  0  0  0  0  0  0  0  0
  126.3390  132.6730   62.2310 C   0  0  0  0  0  0  0  0  0  0  0  0
  126.5530  131.3380   61.8980 C   0  0  0  0  0  0  0  0  0  0  0  0
  126.7940  128.8730   59.4490 C   0  0  0  0  0  0  0  0  0  0  0  0
  125.7080  129.5450   58.7290 C   0  0  0  0  0  0  0  0  0  0  0  0
  124.8510  130.0760   58.1620 N   0  0  0  0  0  0  0  0  0  0  0  0
  127.1130  127.5180   59.2010 C   0  0  0  0  0  0  0  0  0  0  0  0
  126.2540  126.4900   58.0280 S   0  0  0  0  0  0  0  0  0  0  0  0
  125.6420  125.0210   58.9200 C   0  0  0  0  0  0  0  0  0  0  0  0
  126.7270  124.2280   59.6610 C   0  0  0  0  0  0  0  0  0  0  0  0
  126.4800  123.6880   60.7420 O   0  0  0  0  0  0  0  0  0  0  0  0
  127.9300  124.1980   59.0410 N   0  0  0  0  0  0  0  0  0  0  0  0
  129.1040  123.5650   59.4550 C   0  0  0  0  0  0  0  0  0  0  0  0
  129.1170  122.2160   60.5600 S   0  0  0  0  0  0  0  0  0  0  0  0
  130.8490  122.1110   60.5000 C   0  0  0  0  0  0  0  0  0  0  0  0
  131.3970  123.0900   59.6560 C   0  0  0  0  0  0  0  0  0  0  0  0
  130.4060  123.9020   59.0530 C   0  0  0  0  0  0  0  0  0  0  0  0
  130.7110  124.9810   58.1180 C   0  0  0  0  0  0  0  0  0  0  0  0
  130.9530  125.8370   57.3780 N   0  0  0  0  0  0  0  0  0  0  0  0
  132.9070  123.1800   59.4060 C   0  0  0  0  0  0  0  0  0  0  0  0
  133.6120  121.8770   59.8480 C   0  0  0  0  0  0  0  0  0  0  0  0
  133.1340  121.4000   61.2310 C   0  0  0  0  0  0  0  0  0  0  0  0
  131.6360  121.0300   61.2310 C   0  0  0  0  0  0  0  0  0  0  0  0
  128.1330  126.8860   59.8280 N   0  0  0  0  0  0  0  0  0  0  0  0
  131.1880  126.5350   60.7950 C   0  0  0  0  0  0  0  0  0  0  0  0
  132.2000  125.8100   61.4170 C   0  0  0  0  0  0  0  0  0  0  0  0
  1  2  1  0
  2  3  1  0
  3  4  2  0
  4  5  1  0
  5  6  2  0
  6  7  1  0
  7  8  2  0
  8  9  1  0
  9 10  1  0
 10 11  2  0
 11 12  1  0
 12 13  2  0
 13 14  1  0
 14 15  1  0
 13 16  1  0
 16 17  2  0
  9 18  2  0
 18 19  1  0
 19 20  3  0
 18 21  1  0
 21 22  1  0
 22 23  1  0
 23 24  1  0
 24 25  2  0
 24 26  1  0
 26 27  1  0
 27 28  1  0
 28 29  1  0
 29 30  2  0
 30 31  1  0
 31 32  1  0
 32 33  3  0
 30 34  1  0
 34 35  1  0
 35 36  1  0
 36 37  1  0
 21 38  2  0
  6 39  1  0
 39 40  2  0
 40  3  1  0
 38  7  1  0
 17 10  1  0
 31 27  2  0
 37 29  1  0
M  END
>  <Binding energies>  (52) 
[-7.2]

>  <Ligand effiencies>  (52) 
[-0.175609756097561]

>  <Interactions>  (52) 
["H-A:GLY:454:N:4048, V-A:ASP:366:CG:3211, V-A:ILE:369:CB:3234, V-B:TYR:539:CE2:9848, V-A:ILE:369:CD1:3237, V-A:ILE:369:CG2:3235, V-B:GLU:543:CD:9880, V-A:ARG:545:CZ:4924, V-A:GLY:454:CA:4047, V-B:ASP:366:CB:8184, V-B:ASP:366:CG:8185, V-B:TYR:539:CD2:9846, V-B:PRO:540:CA:9855, H-B:ALA:541:N:9863, V-B:ALA:541:CB:9864, V-A:TYR:539:CE2:4874, H-B:TYR:531:OH:9767, V-A:TYR:539:CD2:4872, V-A:TYR:484:CZ:4345, V-A:LEU:475:CD2:4257, V-B:LEU:475:CD2:9231, V-A:ALA:541:CB:4890, H-A:TYR:484:OH:4346, V-B:PRO:482:CG:9299, V-B:PRO:482:CB:9298, V-B:TRP:381:CZ2:8342, V-B:TRP:381:CH2:8344, H-A:TYR:539:OH:4876"]

$$$$
RR6_Rahimova_2017
     RDKit          3D

 38 41  0  0  0  0  0  0  0  0999 V2000
  134.1660  119.6950   60.6250 C   0  0  0  0  0  0  0  0  0  0  0  0
  133.2720  120.7200   60.2160 O   0  0  0  0  0  0  0  0  0  0  0  0
  132.8390  121.6610   61.0940 C   0  0  0  0  0  0  0  0  0  0  0  0
  133.4540  121.9670   62.1210 O   0  0  0  0  0  0  0  0  0  0  0  0
  131.5390  122.2950   60.6920 C   0  0  0  0  0  0  0  0  0  0  0  0
  130.3660  122.1280   61.4440 C   0  0  0  0  0  0  0  0  0  0  0  0
  129.1730  122.7240   61.0410 C   0  0  0  0  0  0  0  0  0  0  0  0
  129.1330  123.4960   59.8700 C   0  0  0  0  0  0  0  0  0  0  0  0
  127.9790  124.1170   59.3580 N   0  0  0  0  0  0  0  0  0  0  0  0
  126.6910  123.9840   59.7460 C   0  0  0  0  0  0  0  0  0  0  0  0
  126.2940  123.2710   60.6680 O   0  0  0  0  0  0  0  0  0  0  0  0
  125.6650  124.7540   58.9090 C   0  0  0  0  0  0  0  0  0  0  0  0
  126.3870  126.1180   57.9360 S   0  0  0  0  0  0  0  0  0  0  0  0
  127.1630  127.2220   59.0980 C   0  0  0  0  0  0  0  0  0  0  0  0
  128.1380  126.6490   59.8450 N   0  0  0  0  0  0  0  0  0  0  0  0
  128.8230  127.3980   60.7460 C   0  0  0  0  0  0  0  0  0  0  0  0
  129.9260  126.7040   61.4890 C   0  0  0  0  0  0  0  0  0  0  0  0
  129.8200  126.4440   62.8640 C   0  0  0  0  0  0  0  0  0  0  0  0
  130.8490  125.8120   63.5560 C   0  0  0  0  0  0  0  0  0  0  0  0
  132.0060  125.4220   62.8820 C   0  0  0  0  0  0  0  0  0  0  0  0
  133.1290  124.7410   63.6420 C   0  0  0  0  0  0  0  0  0  0  0  0
  132.1300  125.6690   61.5170 C   0  0  0  0  0  0  0  0  0  0  0  0
  131.0980  126.3000   60.8300 C   0  0  0  0  0  0  0  0  0  0  0  0
  128.5260  128.7540   60.9220 C   0  0  0  0  0  0  0  0  0  0  0  0
  127.5190  129.3680   60.1640 C   0  0  0  0  0  0  0  0  0  0  0  0
  127.2670  130.8220   60.3890 C   0  0  0  0  0  0  0  0  0  0  0  0
  126.0570  131.2480   60.9450 C   0  0  0  0  0  0  0  0  0  0  0  0
  125.8200  132.6010   61.1730 C   0  0  0  0  0  0  0  0  0  0  0  0
  126.7880  133.5530   60.8570 C   0  0  0  0  0  0  0  0  0  0  0  0
  126.4670  134.8700   61.1210 O   0  0  0  0  0  0  0  0  0  0  0  0
  127.4790  135.8660   61.0120 C   0  0  0  0  0  0  0  0  0  0  0  0
  128.0070  133.1300   60.3050 C   0  0  0  0  0  0  0  0  0  0  0  0
  128.2410  131.7770   60.0780 C   0  0  0  0  0  0  0  0  0  0  0  0
  126.8090  128.5800   59.2250 C   0  0  0  0  0  0  0  0  0  0  0  0
  125.7240  129.1520   58.4200 C   0  0  0  0  0  0  0  0  0  0  0  0
  124.8700  129.6050   57.7840 N   0  0  0  0  0  0  0  0  0  0  0  0
  130.3010  123.6780   59.1290 C   0  0  0  0  0  0  0  0  0  0  0  0
  131.4920  123.0800   59.5330 C   0  0  0  0  0  0  0  0  0  0  0  0
  1  2  1  0
  2  3  1  0
  3  4  2  0
  3  5  1  0
  5  6  2  0
  6  7  1  0
  7  8  2  0
  8  9  1  0
  9 10  1  0
 10 11  2  0
 10 12  1  0
 12 13  1  0
 13 14  1  0
 14 15  2  0
 15 16  1  0
 16 17  1  0
 17 18  2  0
 18 19  1  0
 19 20  2  0
 20 21  1  0
 20 22  1  0
 22 23  2  0
 16 24  2  0
 24 25  1  0
 25 26  1  0
 26 27  2  0
 27 28  1  0
 28 29  2  0
 29 30  1  0
 30 31  1  0
 29 32  1  0
 32 33  2  0
 25 34  2  0
 34 35  1  0
 35 36  3  0
  8 37  1  0
 37 38  2  0
 38  5  1  0
 34 14  1  0
 23 17  1  0
 33 26  1  0
M  END
>  <Binding energies>  (53) 
[-6.5]

>  <Ligand effiencies>  (53) 
[-0.16666666666666666]

>  <Interactions>  (53) 
["H-A:GLY:454:N:4048, V-A:ASP:366:CG:3211, V-B:TYR:539:CE2:9848, V-A:ILE:369:CD1:3237, V-A:ILE:369:CG2:3235, V-B:GLU:543:CD:9880, V-A:ARG:545:CZ:4924, V-B:ASP:366:CB:8184, V-B:ASP:366:CG:8185, V-B:TYR:539:CD2:9846, V-B:PRO:540:CA:9855, H-B:ALA:541:N:9863, V-B:ALA:541:CB:9864, V-A:TYR:539:CE2:4874, H-B:TYR:531:OH:9767, V-A:TYR:539:CD2:4872, V-A:LEU:475:CD2:4257, V-B:LEU:475:CD2:9231, V-A:ALA:541:CB:4890, V-A:TYR:539:C:4865, V-B:PRO:482:CG:9299, V-B:PRO:482:CB:9298, V-B:TRP:381:CZ2:8342, V-B:TRP:381:CH2:8344, V-A:TRP:381:CZ2:3368, V-A:TRP:381:CH2:3370, H-A:TYR:539:OH:4876, V-A:SER:385:CA:3405, V-A:SER:385:C:3403, V-A:SER:385:CB:3407"]

$$$$
RR7_Rahimova_2017
     RDKit          3D

 47 53  0  0  0  0  0  0  0  0999 V2000
  130.0640  126.3360   66.3940 C   0  0  0  0  0  0  0  0  0  0  0  0
  131.2470  126.1170   65.6320 O   0  0  0  0  0  0  0  0  0  0  0  0
  131.1450  125.5390   64.3810 C   0  0  0  0  0  0  0  0  0  0  0  0
  131.0020  124.1530   64.3450 C   0  0  0  0  0  0  0  0  0  0  0  0
  130.8860  123.4830   63.1320 C   0  0  0  0  0  0  0  0  0  0  0  0
  130.9230  124.1860   61.9180 C   0  0  0  0  0  0  0  0  0  0  0  0
  130.7630  123.4650   60.5440 C   0  0  0  0  0  0  0  0  0  0  0  0
  129.4760  123.8640   60.0230 O   0  0  0  0  0  0  0  0  0  0  0  0
  128.2740  123.3870   60.6370 C   0  0  0  0  0  0  0  0  0  0  0  0
  127.1230  123.4770   59.6230 C   0  0  1  0  0  0  0  0  0  0  0  0
  126.4240  124.6880   59.8980 O   0  0  0  0  0  0  0  0  0  0  0  0
  126.4050  125.5440   58.7910 C   0  0  1  0  0  0  0  0  0  0  0  0
  126.4320  126.9260   59.2290 N   0  0  0  0  0  0  0  0  0  0  0  0
  126.0070  128.0480   58.5380 C   0  0  0  0  0  0  0  0  0  0  0  0
  126.1910  129.1890   59.1540 N   0  0  0  0  0  0  0  0  0  0  0  0
  126.8200  128.8350   60.3170 C   0  0  0  0  0  0  0  0  0  0  0  0
  127.2990  129.5980   61.4000 C   0  0  0  0  0  0  0  0  0  0  0  0
  127.1280  130.9950   61.3700 N   0  0  0  0  0  0  0  0  0  0  0  0
  127.3110  131.8540   60.3390 C   0  0  0  0  0  0  0  0  0  0  0  0
  127.6950  131.5190   59.2160 O   0  0  0  0  0  0  0  0  0  0  0  0
  127.0450  133.3120   60.6460 C   0  0  0  0  0  0  0  0  0  0  0  0
  125.7300  133.8010   60.6030 C   0  0  0  0  0  0  0  0  0  0  0  0
  125.4620  135.1370   60.8870 C   0  0  0  0  0  0  0  0  0  0  0  0
  126.5050  135.9950   61.2220 C   0  0  0  0  0  0  0  0  0  0  0  0
  127.8160  135.5280   61.2760 C   0  0  0  0  0  0  0  0  0  0  0  0
  128.0850  134.1920   60.9900 C   0  0  0  0  0  0  0  0  0  0  0  0
  127.9150  128.9640   62.4430 N   0  0  0  0  0  0  0  0  0  0  0  0
  128.0380  127.6120   62.3790 C   0  0  0  0  0  0  0  0  0  0  0  0
  127.6120  126.7830   61.3890 N   0  0  0  0  0  0  0  0  0  0  0  0
  127.0060  127.4310   60.3860 C   0  0  0  0  0  0  0  0  0  0  0  0
  127.5910  125.1170   57.9340 C   0  0  0  0  0  0  0  0  0  0  0  0
  127.5590  123.6150   58.1570 C   0  0  2  0  0  0  0  0  0  0  0  0
  126.6700  122.9630   57.2650 O   0  0  0  0  0  0  0  0  0  0  0  0
  131.8300  123.9180   59.5110 C   0  0  0  0  0  0  0  0  0  0  0  0
  131.4360  124.4810   58.2870 C   0  0  0  0  0  0  0  0  0  0  0  0
  132.3830  124.8770   57.3480 C   0  0  0  0  0  0  0  0  0  0  0  0
  133.7370  124.7140   57.6240 C   0  0  0  0  0  0  0  0  0  0  0  0
  134.1500  124.1580   58.8310 C   0  0  0  0  0  0  0  0  0  0  0  0
  133.2020  123.7600   59.7690 C   0  0  0  0  0  0  0  0  0  0  0  0
  130.8500  121.9130   60.5800 C   0  0  0  0  0  0  0  0  0  0  0  0
  132.0260  121.2570   60.1830 C   0  0  0  0  0  0  0  0  0  0  0  0
  132.1100  119.8690   60.2030 C   0  0  0  0  0  0  0  0  0  0  0  0
  131.0120  119.1180   60.6120 C   0  0  0  0  0  0  0  0  0  0  0  0
  129.8310  119.7460   60.9970 C   0  0  0  0  0  0  0  0  0  0  0  0
  129.7500  121.1350   60.9760 C   0  0  0  0  0  0  0  0  0  0  0  0
  131.0530  125.5820   61.9610 C   0  0  0  0  0  0  0  0  0  0  0  0
  131.1680  126.2530   63.1750 C   0  0  0  0  0  0  0  0  0  0  0  0
  1  2  1  0
  2  3  1  0
  3  4  2  0
  4  5  1  0
  5  6  2  0
  6  7  1  0
  7  8  1  0
  8  9  1  0
 10  9  1  1
 10 11  1  0
 11 12  1  0
 12 13  1  1
 13 14  1  0
 14 15  2  0
 15 16  1  0
 16 17  2  0
 17 18  1  0
 18 19  1  0
 19 20  2  0
 19 21  1  0
 21 22  2  0
 22 23  1  0
 23 24  2  0
 24 25  1  0
 25 26  2  0
 17 27  1  0
 27 28  2  0
 28 29  1  0
 29 30  2  0
 12 31  1  0
 31 32  1  0
 32 33  1  6
  7 34  1  0
 34 35  2  0
 35 36  1  0
 36 37  2  0
 37 38  1  0
 38 39  2  0
  7 40  1  0
 40 41  2  0
 41 42  1  0
 42 43  2  0
 43 44  1  0
 44 45  2  0
  6 46  1  0
 46 47  2  0
 47  3  1  0
 32 10  1  0
 39 34  1  0
 45 40  1  0
 30 13  1  0
 30 16  1  0
 26 21  1  0
M  END
>  <Binding energies>  (54) 
[-6.97]

>  <Ligand effiencies>  (54) 
[-0.14224489795918366]

>  <Interactions>  (54) 
["V-A:GLU:543:CD:4906, V-A:ASP:366:CG:3211, V-B:GLU:543:CG:9879, V-A:HIS:456:CE1:4068, V-A:ASP:366:CB:3210, V-A:ILE:369:CB:3234, V-B:TYR:539:CE2:9848, V-A:ILE:369:CD1:3237, V-A:ILE:369:CG2:3235, V-B:GLU:543:CD:9880, V-B:GLU:543:CB:9878, V-A:ARG:545:CZ:4924, V-A:ASP:366:CA:3208, V-B:ASP:366:CB:8184, V-B:ASP:366:CG:8185, V-B:TYR:539:CD2:9846, V-B:PRO:540:N:9856, V-B:PRO:540:CA:9855, V-B:TYR:539:CZ:9849, V-B:ALA:541:CB:9864, V-A:TYR:539:CE2:4874, H-B:ARG:545:NH2:9900, V-A:TYR:539:CD2:4872, V-A:TYR:484:CZ:4345, V-A:LEU:475:CD2:4257, V-B:LEU:475:CD2:9231, V-A:ALA:541:CB:4890, V-B:TYR:539:C:9839, V-A:TYR:539:C:4865, H-A:GLU:543:OE1:4907, V-A:PRO:540:C:4879, H-A:ARG:545:NE:4922, V-B:PRO:482:CG:9299, V-B:PRO:482:CB:9298, V-B:TRP:381:CZ2:8342, V-B:TRP:381:CH2:8344, V-A:ASP:366:C:3206, V-A:PRO:482:CG:4325, V-A:TRP:381:CZ2:3368, V-A:PRO:482:CB:4324, V-A:TRP:381:CH2:3370, V-B:ALA:541:CA:9862, V-A:ALA:541:CA:4888, H-B:TYR:539:N:9842, V-A:TRP:381:CZ3:3369, V-A:TRP:381:CE2:3365, V-B:TRP:381:CZ3:8343, V-B:TRP:381:CE2:8339"]

$$$$
RR8_A_Rahimova_2017
     RDKit          3D

 42 46  0  0  0  0  0  0  0  0999 V2000
  129.5500  128.2010   60.0560 O   0  0  0  0  0  0  0  0  0  0  0  0
  128.9980  127.7160   61.0500 C   0  0  0  0  0  0  0  0  0  0  0  0
  129.3500  126.5250   61.6260 O   0  0  0  0  0  0  0  0  0  0  0  0
  130.4510  126.5240   62.4930 C   0  0  1  0  0  0  0  0  0  0  0  0
  130.0620  126.3090   63.8190 O   0  0  0  0  0  0  0  0  0  0  0  0
  130.9920  125.4850   64.5170 C   0  0  2  0  0  0  0  0  0  0  0  0
  131.4650  126.2350   65.7740 C   0  0  0  0  0  0  0  0  0  0  0  0
  130.5270  126.0160   66.8180 O   0  0  0  0  0  0  0  0  0  0  0  0
  129.6030  127.0820   66.9970 C   0  0  0  0  0  0  0  0  0  0  0  0
  129.3220  127.2770   68.4800 C   0  0  0  0  0  0  0  0  0  0  0  0
  130.3830  127.3360   69.3880 C   0  0  0  0  0  0  0  0  0  0  0  0
  130.1290  127.5210   70.7450 C   0  0  0  0  0  0  0  0  0  0  0  0
  128.8150  127.6510   71.1900 C   0  0  0  0  0  0  0  0  0  0  0  0
  127.7520  127.5990   70.2910 C   0  0  0  0  0  0  0  0  0  0  0  0
  128.0060  127.4150   68.9340 C   0  0  0  0  0  0  0  0  0  0  0  0
  132.0790  125.1960   63.4720 C   0  0  1  0  0  0  0  0  0  0  0  0
  132.5790  123.8620   63.5380 O   0  0  0  0  0  0  0  0  0  0  0  0
  131.6270  122.8340   63.2930 C   0  0  0  0  0  0  0  0  0  0  0  0
  132.0620  121.9960   62.0990 C   0  0  0  0  0  0  0  0  0  0  0  0
  133.4100  121.9680   61.7260 C   0  0  0  0  0  0  0  0  0  0  0  0
  133.8140  121.2120   60.6300 C   0  0  0  0  0  0  0  0  0  0  0  0
  132.8690  120.4870   59.9050 C   0  0  0  0  0  0  0  0  0  0  0  0
  131.5240  120.5140   60.2650 C   0  0  0  0  0  0  0  0  0  0  0  0
  131.1190  121.2720   61.3610 C   0  0  0  0  0  0  0  0  0  0  0  0
  131.3430  125.3380   62.1530 C   0  0  2  0  0  0  0  0  0  0  0  0
  132.2590  125.5960   61.0920 O   0  0  0  0  0  0  0  0  0  0  0  0
  132.3930  124.5580   60.1280 C   0  0  0  0  0  0  0  0  0  0  0  0
  131.1390  124.4790   59.2710 C   0  0  0  0  0  0  0  0  0  0  0  0
  130.0370  123.7340   59.7040 C   0  0  0  0  0  0  0  0  0  0  0  0
  128.8860  123.6740   58.9220 C   0  0  0  0  0  0  0  0  0  0  0  0
  128.8390  124.3600   57.7110 C   0  0  0  0  0  0  0  0  0  0  0  0
  129.9290  125.1090   57.2750 C   0  0  0  0  0  0  0  0  0  0  0  0
  131.0810  125.1700   58.0570 C   0  0  0  0  0  0  0  0  0  0  0  0
  127.8640  128.3920   61.7650 C   0  0  0  0  0  0  0  0  0  0  0  0
  127.8520  128.5440   63.1600 C   0  0  0  0  0  0  0  0  0  0  0  0
  126.7850  129.1740   63.7940 C   0  0  0  0  0  0  0  0  0  0  0  0
  125.7030  129.6660   63.0520 C   0  0  0  0  0  0  0  0  0  0  0  0
  124.5670  130.3380   63.7290 N   0  0  0  0  0  0  0  0  0  0  0  0
  124.0930  131.3490   63.2180 O   0  0  0  0  0  0  0  0  0  0  0  0
  124.1400  129.8610   64.7760 O   0  0  0  0  0  0  0  0  0  0  0  0
  125.7150  129.5110   61.6610 C   0  0  0  0  0  0  0  0  0  0  0  0
  126.7800  128.8820   61.0250 C   0  0  0  0  0  0  0  0  0  0  0  0
  1  2  2  0
  2  3  1  0
  4  3  1  6
  4  5  1  0
  5  6  1  0
  6  7  1  1
  7  8  1  0
  8  9  1  0
  9 10  1  0
 10 11  2  0
 11 12  1  0
 12 13  2  0
 13 14  1  0
 14 15  2  0
  6 16  1  0
 16 17  1  1
 17 18  1  0
 18 19  1  0
 19 20  2  0
 20 21  1  0
 21 22  2  0
 22 23  1  0
 23 24  2  0
 16 25  1  0
 25 26  1  6
 26 27  1  0
 27 28  1  0
 28 29  2  0
 29 30  1  0
 30 31  2  0
 31 32  1  0
 32 33  2  0
  2 34  1  0
 34 35  2  0
 35 36  1  0
 36 37  2  0
 37 38  1  0
 38 39  2  0
 38 40  1  0
 37 41  1  0
 41 42  2  0
 25  4  1  0
 33 28  1  0
 42 34  1  0
 15 10  1  0
 24 19  1  0
M  CHG  2  38   1  40  -1
M  END
>  <Binding energies>  (55) 
[-8.92]

>  <Ligand effiencies>  (55) 
[-0.2123809523809524]

>  <Interactions>  (55) 
["H-A:GLY:454:N:4048, V-A:GLU:543:CD:4906, V-A:ASP:366:CG:3211, V-B:GLU:543:CG:9879, V-A:HIS:456:CE1:4068, V-B:TYR:539:CE2:9848, V-A:ARG:545:CD:4921, V-A:ILE:369:CD1:3237, V-A:ILE:369:CG2:3235, V-A:ARG:545:CG:4920, V-B:GLU:543:CD:9880, V-A:ARG:545:CZ:4924, V-A:GLY:454:CA:4047, V-B:GLU:543:C:9874, V-B:ASP:366:CG:8185, V-B:TYR:539:CD2:9846, V-B:ALA:541:CB:9864, H-B:ARG:545:NH1:9899, H-B:ARG:545:NH2:9900, V-A:LEU:475:CD2:4257, H-B:GLY:454:N:9022, H-B:TYR:484:OH:9320, V-B:ARG:545:CZ:9898, H-A:TYR:484:OH:4346, H-A:ARG:545:NH2:4926, V-B:HIS:456:CE1:9042, H-B:ARG:545:NE:9896, V-A:GLU:543:CG:4905, V-A:TRP:381:CZ2:3368, V-A:TRP:381:CH2:3370, V-A:GLY:544:C:4910, V-A:GLU:543:C:4900, V-B:HIS:456:CD2:9040, V-B:GLY:544:C:9884, V-A:GLY:544:CA:4912"]

$$$$
RR8_B_Rahimova_2017
     RDKit          3D

 42 46  0  0  0  0  0  0  0  0999 V2000
  129.8720  125.0990   61.5150 O   0  0  0  0  0  0  0  0  0  0  0  0
  130.5630  125.9760   62.0430 C   0  0  0  0  0  0  0  0  0  0  0  0
  130.5030  127.3040   61.7230 O   0  0  0  0  0  0  0  0  0  0  0  0
  129.9920  127.6610   60.4620 C   0  0  2  0  0  0  0  0  0  0  0  0
  130.5370  128.8640   59.9990 O   0  0  0  0  0  0  0  0  0  0  0  0
  129.7380  129.9810   60.3850 C   0  0  2  0  0  0  0  0  0  0  0  0
  130.5900  130.9610   61.2120 C   0  0  0  0  0  0  0  0  0  0  0  0
  129.7530  131.9890   61.7260 O   0  0  0  0  0  0  0  0  0  0  0  0
  129.0350  132.7230   60.7450 C   0  0  0  0  0  0  0  0  0  0  0  0
  127.5960  132.8970   61.2030 C   0  0  0  0  0  0  0  0  0  0  0  0
  127.2910  132.8500   62.5670 C   0  0  0  0  0  0  0  0  0  0  0  0
  125.9720  132.9850   62.9930 C   0  0  0  0  0  0  0  0  0  0  0  0
  124.9610  133.1680   62.0510 C   0  0  0  0  0  0  0  0  0  0  0  0
  125.2570  133.2220   60.6910 C   0  0  0  0  0  0  0  0  0  0  0  0
  126.5760  133.0850   60.2660 C   0  0  0  0  0  0  0  0  0  0  0  0
  128.5470  129.3590   61.1220 C   0  0  1  0  0  0  0  0  0  0  0  0
  127.3610  130.1140   60.8530 O   0  0  0  0  0  0  0  0  0  0  0  0
  126.1170  129.5370   61.2580 C   0  0  0  0  0  0  0  0  0  0  0  0
  125.9200  129.5930   62.7700 C   0  0  0  0  0  0  0  0  0  0  0  0
  124.6840  129.9690   63.3020 C   0  0  0  0  0  0  0  0  0  0  0  0
  124.4970  129.9870   64.6820 C   0  0  0  0  0  0  0  0  0  0  0  0
  125.5500  129.6340   65.5250 C   0  0  0  0  0  0  0  0  0  0  0  0
  126.7860  129.2620   65.0010 C   0  0  0  0  0  0  0  0  0  0  0  0
  126.9720  129.2410   63.6200 C   0  0  0  0  0  0  0  0  0  0  0  0
  128.4940  127.9360   60.5790 C   0  0  2  0  0  0  0  0  0  0  0  0
  127.8210  127.0780   61.4970 O   0  0  0  0  0  0  0  0  0  0  0  0
  126.7150  126.3620   60.9710 C   0  0  0  0  0  0  0  0  0  0  0  0
  127.2450  125.1590   60.2100 C   0  0  0  0  0  0  0  0  0  0  0  0
  127.3770  123.9230   60.8480 C   0  0  0  0  0  0  0  0  0  0  0  0
  127.8830  122.8320   60.1460 C   0  0  0  0  0  0  0  0  0  0  0  0
  128.2540  122.9800   58.8110 C   0  0  0  0  0  0  0  0  0  0  0  0
  128.1230  124.2100   58.1690 C   0  0  0  0  0  0  0  0  0  0  0  0
  127.6170  125.3010   58.8700 C   0  0  0  0  0  0  0  0  0  0  0  0
  131.5980  125.6850   63.0910 C   0  0  0  0  0  0  0  0  0  0  0  0
  131.2930  125.7180   64.4600 C   0  0  0  0  0  0  0  0  0  0  0  0
  132.2740  125.4530   65.4090 C   0  0  0  0  0  0  0  0  0  0  0  0
  133.5860  125.1600   65.0170 C   0  0  0  0  0  0  0  0  0  0  0  0
  134.6370  124.9040   66.0330 N   0  0  0  0  0  0  0  0  0  0  0  0
  135.7430  125.4150   65.8770 O   0  0  0  0  0  0  0  0  0  0  0  0
  134.3630  124.1940   66.9970 O   0  0  0  0  0  0  0  0  0  0  0  0
  133.8890  125.1220   63.6500 C   0  0  0  0  0  0  0  0  0  0  0  0
  132.9070  125.3790   62.6990 C   0  0  0  0  0  0  0  0  0  0  0  0
  1  2  2  0
  2  3  1  0
  4  3  1  1
  4  5  1  0
  5  6  1  0
  6  7  1  1
  7  8  1  0
  8  9  1  0
  9 10  1  0
 10 11  2  0
 11 12  1  0
 12 13  2  0
 13 14  1  0
 14 15  2  0
  6 16  1  0
 16 17  1  6
 17 18  1  0
 18 19  1  0
 19 20  2  0
 20 21  1  0
 21 22  2  0
 22 23  1  0
 23 24  2  0
 16 25  1  0
 25 26  1  1
 26 27  1  0
 27 28  1  0
 28 29  2  0
 29 30  1  0
 30 31  2  0
 31 32  1  0
 32 33  2  0
  2 34  1  0
 34 35  2  0
 35 36  1  0
 36 37  2  0
 37 38  1  0
 38 39  2  0
 38 40  1  0
 37 41  1  0
 41 42  2  0
 25  4  1  0
 33 28  1  0
 42 34  1  0
 15 10  1  0
 24 19  1  0
M  CHG  2  38   1  40  -1
M  END
>  <Binding energies>  (56) 
[-8.02]

>  <Ligand effiencies>  (56) 
[-0.19095238095238093]

>  <Interactions>  (56) 
["H-A:GLY:454:N:4048, V-A:GLU:543:CD:4906, V-A:HIS:456:CE1:4068, V-A:ARG:545:CD:4921, V-A:GLY:453:CA:4042, V-A:ARG:545:CG:4920, V-B:GLU:543:CD:9880, V-A:ARG:545:CZ:4924, V-A:GLY:454:CA:4047, V-B:PRO:540:C:9853, V-B:TYR:539:CD2:9846, V-B:PRO:540:N:9856, V-B:PRO:540:CA:9855, V-B:ALA:541:CB:9864, V-A:TYR:539:CE2:4874, H-B:ARG:545:NH2:9900, V-A:TYR:539:CD2:4872, V-B:LEU:475:CD2:9231, V-A:ALA:541:CB:4890, V-B:TYR:539:C:9839, V-A:TYR:539:C:4865, V-B:ARG:545:CZ:9898, H-A:TYR:484:OH:4346, H-A:ARG:545:NH2:4926, V-A:PRO:540:CA:4881, V-B:HIS:456:CE1:9042, V-A:PRO:540:C:4879, H-A:ALA:541:N:4889, V-B:ARG:545:CG:9894, H-A:ARG:545:NE:4922, H-A:HIS:456:ND1:4065, V-B:ARG:545:CD:9895, V-A:GLY:453:C:4040, V-A:ALA:541:CA:4888, H-A:ILE:455:N:4053, V-A:GLY:454:C:4045, V-A:ILE:455:C:4050, H-A:GLY:453:N:4043"]

$$$$
RR9_Rahimova_2017
     RDKit          3D

 36 40  0  0  0  0  0  0  0  0999 V2000
  132.2880  120.2680   60.2400 C   0  0  0  0  0  0  0  0  0  0  0  0
  130.8520  119.9040   60.6290 C   0  0  0  0  0  0  0  0  0  0  0  0
  130.5180  120.5850   61.8350 O   0  0  0  0  0  0  0  0  0  0  0  0
  130.3550  121.9570   61.8170 C   0  0  0  0  0  0  0  0  0  0  0  0
  129.5260  122.4730   60.8230 C   0  0  0  0  0  0  0  0  0  0  0  0
  129.3050  123.8430   60.7260 C   0  0  0  0  0  0  0  0  0  0  0  0
  129.9090  124.7380   61.6230 C   0  0  0  0  0  0  0  0  0  0  0  0
  129.6770  126.2160   61.5200 C   0  0  0  0  0  0  0  0  0  0  0  0
  128.4540  126.7980   61.8880 C   0  0  0  0  0  0  0  0  0  0  0  0
  128.2470  128.1860   61.8030 C   0  0  0  0  0  0  0  0  0  0  0  0
  126.9510  128.7590   62.3080 C   0  0  0  0  0  0  0  0  0  0  0  0
  125.9220  128.6570   61.6390 O   0  0  0  0  0  0  0  0  0  0  0  0
  127.0130  129.3900   63.4970 N   0  0  0  0  0  0  0  0  0  0  0  0
  125.9230  130.1370   64.1320 C   0  0  0  0  0  0  0  0  0  0  0  0
  124.5870  130.0320   63.3600 C   0  0  0  0  0  0  0  0  0  0  0  0
  124.3260  131.1720   62.3820 C   0  0  0  0  0  0  0  0  0  0  0  0
  124.4060  130.9460   61.0040 C   0  0  0  0  0  0  0  0  0  0  0  0
  124.1330  131.9810   60.1130 C   0  0  0  0  0  0  0  0  0  0  0  0
  123.7850  133.2380   60.6020 C   0  0  0  0  0  0  0  0  0  0  0  0
  123.7070  133.4710   61.9740 C   0  0  0  0  0  0  0  0  0  0  0  0
  123.9790  132.4360   62.8660 C   0  0  0  0  0  0  0  0  0  0  0  0
  129.3250  128.9510   61.2930 C   0  0  0  0  0  0  0  0  0  0  0  0
  129.6270  130.3260   60.9750 C   0  0  0  0  0  0  0  0  0  0  0  0
  128.7420  131.5280   61.0260 C   0  0  0  0  0  0  0  0  0  0  0  0
  128.4300  132.2220   59.8540 C   0  0  0  0  0  0  0  0  0  0  0  0
  127.6170  133.3520   59.9060 C   0  0  0  0  0  0  0  0  0  0  0  0
  127.1110  133.7900   61.1310 C   0  0  0  0  0  0  0  0  0  0  0  0
  126.2410  135.0320   61.1910 C   0  0  0  0  0  0  0  0  0  0  0  0
  127.4230  133.1010   62.3040 C   0  0  0  0  0  0  0  0  0  0  0  0
  128.2330  131.9700   62.2500 C   0  0  0  0  0  0  0  0  0  0  0  0
  130.8720  130.4440   60.5690 N   0  0  0  0  0  0  0  0  0  0  0  0
  131.4140  129.2160   60.5400 N   0  0  0  0  0  0  0  0  0  0  0  0
  130.5160  128.2620   60.9590 C   0  0  0  0  0  0  0  0  0  0  0  0
  130.7240  126.9500   61.0480 N   0  0  0  0  0  0  0  0  0  0  0  0
  130.7430  124.2110   62.6180 C   0  0  0  0  0  0  0  0  0  0  0  0
  130.9650  122.8390   62.7190 C   0  0  0  0  0  0  0  0  0  0  0  0
  1  2  1  0
  2  3  1  0
  3  4  1  0
  4  5  2  0
  5  6  1  0
  6  7  2  0
  7  8  1  0
  8  9  2  0
  9 10  1  0
 10 11  1  0
 11 12  2  0
 11 13  1  0
 13 14  1  0
 14 15  1  0
 15 16  1  0
 16 17  2  0
 17 18  1  0
 18 19  2  0
 19 20  1  0
 20 21  2  0
 10 22  2  0
 22 23  1  0
 23 24  1  0
 24 25  2  0
 25 26  1  0
 26 27  2  0
 27 28  1  0
 27 29  1  0
 29 30  2  0
 23 31  2  0
 31 32  1  0
 32 33  1  0
 33 34  2  0
  7 35  1  0
 35 36  2  0
 36  4  1  0
 34  8  1  0
 21 16  1  0
 33 22  1  0
 30 24  1  0
M  END
>  <Binding energies>  (57) 
[-7.9]

>  <Ligand effiencies>  (57) 
[-0.20789473684210527]

>  <Interactions>  (57) 
["V-A:GLU:543:CD:4906, V-A:ASP:366:CG:3211, V-B:TYR:539:CE2:9848, V-B:GLU:543:CD:9880, V-B:ASP:366:CG:8185, V-B:TYR:539:CD2:9846, V-B:ALA:541:CB:9864, V-A:TYR:539:CE2:4874, H-B:ARG:545:NH2:9900, V-B:GLY:454:CA:9021, V-A:TYR:539:CD2:4872, H-A:ASP:366:OD1:3212, V-A:LEU:475:CD2:4257, V-B:LEU:475:CD2:9231, V-A:ALA:541:CB:4890, V-A:TYR:539:C:4865, V-B:ARG:545:CZ:9898, H-A:GLU:543:OE1:4907, H-A:GLU:543:OE2:4908, H-A:ARG:545:NH2:4926, H-B:GLU:543:OE2:9882, V-B:ILE:369:CD1:8211, V-B:ILE:369:CG2:8209, H-A:ASP:366:OD2:3213, V-B:ILE:369:CB:8208, V-B:TRP:381:CZ2:8342, V-B:TRP:381:CH2:8344, V-A:TRP:381:CZ2:3368, V-A:TRP:381:CH2:3370, V-B:GLY:453:C:9014"]

$$$$
