1a_Grossjean_2025
     RDKit          3D

 26 27  0  0  0  0  0  0  0  0999 V2000
  131.1080  125.9030   73.0060 C   0  0  0  0  0  0  0  0  0  0  0  0
  129.6700  125.7510   72.5000 C   0  0  0  0  0  0  0  0  0  0  0  0
  128.9150  126.8990   72.8650 O   0  0  0  0  0  0  0  0  0  0  0  0
  128.8870  128.0000   72.0700 C   0  0  0  0  0  0  0  0  0  0  0  0
  128.6380  129.1350   72.4890 O   0  0  0  0  0  0  0  0  0  0  0  0
  129.1730  127.6980   70.6270 C   0  0  0  0  0  0  0  0  0  0  0  0
  130.5030  127.6490   70.1890 C   0  0  0  0  0  0  0  0  0  0  0  0
  130.8010  127.3760   68.8580 C   0  0  0  0  0  0  0  0  0  0  0  0
  129.7780  127.1480   67.9360 C   0  0  0  0  0  0  0  0  0  0  0  0
  130.1940  126.8840   66.6160 N   0  0  0  0  0  0  0  0  0  0  0  0
  130.5160  125.7140   66.0250 C   0  0  0  0  0  0  0  0  0  0  0  0
  130.5000  124.6100   66.5690 O   0  0  0  0  0  0  0  0  0  0  0  0
  130.9300  125.8140   64.5560 C   0  0  0  0  0  0  0  0  0  0  0  0
  132.5470  125.0430   64.2450 S   0  0  0  0  0  0  0  0  0  0  0  0
  132.3760  124.0000   62.8140 C   0  0  0  0  0  0  0  0  0  0  0  0
  133.2390  124.3010   61.8110 N   0  0  0  0  0  0  0  0  0  0  0  0
  133.1910  123.5720   60.6710 C   0  0  0  0  0  0  0  0  0  0  0  0
  134.1760  123.9740   59.5900 C   0  0  0  0  0  0  0  0  0  0  0  0
  132.2980  122.5180   60.4890 C   0  0  0  0  0  0  0  0  0  0  0  0
  131.4180  122.1860   61.5250 C   0  0  0  0  0  0  0  0  0  0  0  0
  130.4590  121.0170   61.3090 C   0  0  0  0  0  0  0  0  0  0  0  0
  131.4520  122.9320   62.7270 C   0  0  0  0  0  0  0  0  0  0  0  0
  130.5740  122.5710   63.8430 C   0  0  0  0  0  0  0  0  0  0  0  0
  129.8800  122.2850   64.7230 N   0  0  0  0  0  0  0  0  0  0  0  0
  128.4440  127.1880   68.3670 C   0  0  0  0  0  0  0  0  0  0  0  0
  128.1470  127.4620   69.6990 C   0  0  0  0  0  0  0  0  0  0  0  0
  1  2  1  0
  2  3  1  0
  3  4  1  0
  4  5  2  0
  4  6  1  0
  6  7  2  0
  7  8  1  0
  8  9  2  0
  9 10  1  0
 10 11  1  0
 11 12  2  0
 11 13  1  0
 13 14  1  0
 14 15  1  0
 15 16  2  0
 16 17  1  0
 17 18  1  0
 17 19  2  0
 19 20  1  0
 20 21  1  0
 20 22  2  0
 22 23  1  0
 23 24  3  0
  9 25  1  0
 25 26  2  0
 26  6  1  0
 22 15  1  0
M  END
>  <Binding energies>  (1) 
[-7.84]

>  <Ligand effiencies>  (1) 
[-0.2903703703703704]

>  <Interactions>  (1) 
["V-A:GLU:543:CD:4906, V-A:ASP:366:CG:3211, V-B:GLU:543:CG:9879, V-A:HIS:456:CE1:4068, V-A:ASP:366:CB:3210, V-A:ILE:369:CB:3234, V-B:TYR:539:CE2:9848, V-A:ILE:369:CD1:3237, V-A:ILE:369:CG2:3235, V-A:ARG:545:CG:4920, V-B:GLU:543:CD:9880, V-B:GLU:543:CB:9878, V-A:ASP:366:CA:3208, V-A:HIS:456:CD2:4066, V-B:LYS:547:CE:9922, V-B:GLU:543:C:9874, V-B:ALA:541:CB:9864, V-A:TYR:484:CZ:4345, V-A:LEU:475:CD2:4257, H-A:TYR:484:OH:4346, H-A:GLU:543:OE1:4907, H-A:GLU:543:OE2:4908, H-B:GLU:543:OE2:9882, V-B:HIS:456:CE1:9042, H-A:ARG:545:NE:4922, V-A:GLU:543:CG:4905, V-A:TYR:484:CE1:4343, H-B:LYS:547:NZ:9923, H-A:LYS:547:NZ:4949, V-A:GLY:544:C:4910, V-A:GLU:543:C:4900, V-B:GLY:544:C:9884, V-A:HIS:456:CB:4063, V-A:HIS:456:CG:4064, V-A:GLY:544:CA:4912"]

$$$$
1aa_Ghoteimi_2023
     RDKit          3D

 40 43  0  0  0  0  0  0  0  0999 V2000
  128.2720  132.4280   73.6640 C   0  0  0  0  0  0  0  0  0  0  0  0
  127.7190  131.0030   73.7690 C   0  0  0  0  0  0  0  0  0  0  0  0
  128.5160  130.1270   72.9820 O   0  0  0  0  0  0  0  0  0  0  0  0
  128.2640  128.7930   72.9450 C   0  0  0  0  0  0  0  0  0  0  0  0
  127.8390  128.1540   73.9120 O   0  0  0  0  0  0  0  0  0  0  0  0
  128.5530  128.1710   71.6090 C   0  0  0  0  0  0  0  0  0  0  0  0
  127.5490  127.9790   70.6470 C   0  0  0  0  0  0  0  0  0  0  0  0
  127.8470  127.3990   69.4160 C   0  0  0  0  0  0  0  0  0  0  0  0
  129.1600  127.0020   69.1240 C   0  0  0  0  0  0  0  0  0  0  0  0
  129.5770  126.4070   67.9190 N   0  0  0  0  0  0  0  0  0  0  0  0
  130.5320  126.7860   67.0390 C   0  0  0  0  0  0  0  0  0  0  0  0
  131.2470  127.7810   67.1610 O   0  0  0  0  0  0  0  0  0  0  0  0
  130.7360  125.9030   65.7970 C   0  0  0  0  0  0  0  0  0  0  0  0
  129.9440  126.3830   64.7040 O   0  0  0  0  0  0  0  0  0  0  0  0
  130.3700  126.2020   63.3960 C   0  0  0  0  0  0  0  0  0  0  0  0
  130.3650  127.2810   62.5650 N   0  0  0  0  0  0  0  0  0  0  0  0
  130.7620  127.1410   61.2730 C   0  0  0  0  0  0  0  0  0  0  0  0
  130.7300  128.3790   60.4230 C   0  0  0  0  0  0  0  0  0  0  0  0
  130.6240  128.2930   59.0270 C   0  0  0  0  0  0  0  0  0  0  0  0
  130.5950  129.4390   58.2360 C   0  0  0  0  0  0  0  0  0  0  0  0
  130.6700  130.7040   58.8150 C   0  0  0  0  0  0  0  0  0  0  0  0
  130.6360  131.7830   57.9530 O   0  0  0  0  0  0  0  0  0  0  0  0
  129.3870  132.2000   57.4130 C   0  0  0  0  0  0  0  0  0  0  0  0
  130.7710  130.8060   60.2100 C   0  0  0  0  0  0  0  0  0  0  0  0
  130.7980  129.6590   60.9970 C   0  0  0  0  0  0  0  0  0  0  0  0
  131.1960  125.9000   60.7900 C   0  0  0  0  0  0  0  0  0  0  0  0
  131.2210  124.7760   61.6270 C   0  0  0  0  0  0  0  0  0  0  0  0
  131.7040  123.4840   61.0550 C   0  0  0  0  0  0  0  0  0  0  0  0
  133.0740  123.2090   60.9980 C   0  0  0  0  0  0  0  0  0  0  0  0
  133.5320  122.0030   60.4750 C   0  0  0  0  0  0  0  0  0  0  0  0
  132.6330  121.0460   60.0060 C   0  0  0  0  0  0  0  0  0  0  0  0
  133.1780  119.8800   59.5050 O   0  0  0  0  0  0  0  0  0  0  0  0
  134.2370  119.2480   60.2140 C   0  0  0  0  0  0  0  0  0  0  0  0
  131.2570  121.3150   60.0690 C   0  0  0  0  0  0  0  0  0  0  0  0
  130.8010  122.5220   60.5910 C   0  0  0  0  0  0  0  0  0  0  0  0
  130.7870  124.9320   62.9640 C   0  0  0  0  0  0  0  0  0  0  0  0
  130.7370  123.8060   63.8990 C   0  0  0  0  0  0  0  0  0  0  0  0
  130.6970  122.9180   64.6400 N   0  0  0  0  0  0  0  0  0  0  0  0
  130.1600  127.1900   70.0800 C   0  0  0  0  0  0  0  0  0  0  0  0
  129.8610  127.7680   71.3090 C   0  0  0  0  0  0  0  0  0  0  0  0
  1  2  1  0
  2  3  1  0
  3  4  1  0
  4  5  2  0
  4  6  1  0
  6  7  2  0
  7  8  1  0
  8  9  2  0
  9 10  1  0
 10 11  1  0
 11 12  2  0
 11 13  1  0
 13 14  1  0
 14 15  1  0
 15 16  2  0
 16 17  1  0
 17 18  1  0
 18 19  2  0
 19 20  1  0
 20 21  2  0
 21 22  1  0
 22 23  1  0
 21 24  1  0
 24 25  2  0
 17 26  2  0
 26 27  1  0
 27 28  1  0
 28 29  2  0
 29 30  1  0
 30 31  2  0
 31 32  1  0
 32 33  1  0
 31 34  1  0
 34 35  2  0
 27 36  2  0
 36 37  1  0
 37 38  3  0
  9 39  1  0
 39 40  2  0
 40  6  1  0
 36 15  1  0
 25 18  1  0
 35 28  1  0
M  END
>  <Binding energies>  (2) 
[-6.47]

>  <Ligand effiencies>  (2) 
[-0.1578048780487805]

>  <Interactions>  (2) 
["V-A:GLU:543:CD:4906, V-A:ASP:366:CG:3211, V-B:GLU:543:CG:9879, V-A:HIS:456:CE1:4068, V-B:TYR:539:CE2:9848, V-A:ILE:369:CD1:3237, V-A:ILE:369:CG2:3235, V-A:ARG:545:CG:4920, V-B:GLU:543:CD:9880, V-B:GLU:543:CB:9878, V-A:HIS:456:CD2:4066, V-B:GLU:543:C:9874, V-B:TYR:539:CD2:9846, V-A:TYR:539:CD2:4872, V-A:LEU:475:CD2:4257, V-A:TYR:539:C:4865, H-A:TYR:484:OH:4346, H-A:ARG:545:NH2:4926, H-B:GLU:543:OE2:9882, V-A:PRO:540:CA:4881, V-B:HIS:456:CE1:9042, H-A:ARG:545:NE:4922, V-A:GLU:543:CG:4905, V-A:TYR:539:CG:4870, V-A:PRO:540:N:4882, V-A:TRP:381:CZ2:3368, V-A:TRP:381:CH2:3370, V-B:HIS:456:CG:9038, H-B:LYS:547:NZ:9923, H-A:LYS:547:NZ:4949, V-B:HIS:456:CB:9037, V-A:GLY:544:C:4910, H-A:HIS:456:NE2:4069, H-B:GLU:543:O:9875, V-B:HIS:456:CD2:9040, V-B:GLY:544:C:9884, V-A:LYS:547:CE:4948, V-A:GLY:544:CA:4912, V-A:SER:385:CA:3405, V-A:SER:385:C:3403, V-A:SER:385:CB:3407"]

$$$$
1b_Grossjean_2025
     RDKit          3D

 25 26  0  0  0  0  0  0  0  0999 V2000
  129.0430  125.6090   72.2360 C   0  0  0  0  0  0  0  0  0  0  0  0
  128.7340  126.8910   72.7670 O   0  0  0  0  0  0  0  0  0  0  0  0
  128.7560  127.9960   71.9790 C   0  0  0  0  0  0  0  0  0  0  0  0
  128.4900  129.1300   72.3900 O   0  0  0  0  0  0  0  0  0  0  0  0
  129.1420  127.7050   70.5570 C   0  0  0  0  0  0  0  0  0  0  0  0
  130.4830  127.6500   70.1490 C   0  0  0  0  0  0  0  0  0  0  0  0
  130.8070  127.3780   68.8230 C   0  0  0  0  0  0  0  0  0  0  0  0
  129.8040  127.1560   67.8800 C   0  0  0  0  0  0  0  0  0  0  0  0
  130.2480  126.8920   66.5700 N   0  0  0  0  0  0  0  0  0  0  0  0
  130.5650  125.7190   65.9780 C   0  0  0  0  0  0  0  0  0  0  0  0
  130.5110  124.6120   66.5100 O   0  0  0  0  0  0  0  0  0  0  0  0
  131.0110  125.8230   64.5180 C   0  0  0  0  0  0  0  0  0  0  0  0
  132.6190  125.0220   64.2350 S   0  0  0  0  0  0  0  0  0  0  0  0
  132.4390  123.9570   62.8200 C   0  0  0  0  0  0  0  0  0  0  0  0
  133.2580  124.2780   61.7870 N   0  0  0  0  0  0  0  0  0  0  0  0
  133.2050  123.5320   60.6590 C   0  0  0  0  0  0  0  0  0  0  0  0
  134.1590  123.9400   59.5520 C   0  0  0  0  0  0  0  0  0  0  0  0
  132.3350  122.4530   60.5120 C   0  0  0  0  0  0  0  0  0  0  0  0
  131.4720  122.1280   61.5630 C   0  0  0  0  0  0  0  0  0  0  0  0
  130.5160  120.9520   61.3720 C   0  0  0  0  0  0  0  0  0  0  0  0
  131.5090  122.8930   62.7500 C   0  0  0  0  0  0  0  0  0  0  0  0
  130.5840  122.5990   63.8470 C   0  0  0  0  0  0  0  0  0  0  0  0
  129.8510  122.3640   64.7120 N   0  0  0  0  0  0  0  0  0  0  0  0
  128.4610  127.2080   68.2800 C   0  0  0  0  0  0  0  0  0  0  0  0
  128.1380  127.4790   69.6060 C   0  0  0  0  0  0  0  0  0  0  0  0
  1  2  1  0
  2  3  1  0
  3  4  2  0
  3  5  1  0
  5  6  2  0
  6  7  1  0
  7  8  2  0
  8  9  1  0
  9 10  1  0
 10 11  2  0
 10 12  1  0
 12 13  1  0
 13 14  1  0
 14 15  2  0
 15 16  1  0
 16 17  1  0
 16 18  2  0
 18 19  1  0
 19 20  1  0
 19 21  2  0
 21 22  1  0
 22 23  3  0
  8 24  1  0
 24 25  2  0
 25  5  1  0
 21 14  1  0
M  END
>  <Binding energies>  (3) 
[-7.64]

>  <Ligand effiencies>  (3) 
[-0.2938461538461538]

>  <Interactions>  (3) 
["V-A:GLU:543:CD:4906, V-A:ASP:366:CG:3211, V-B:GLU:543:CG:9879, V-A:HIS:456:CE1:4068, V-A:ASP:366:CB:3210, V-A:ILE:369:CB:3234, V-B:TYR:539:CE2:9848, V-A:ILE:369:CD1:3237, V-A:ILE:369:CG2:3235, V-A:ARG:545:CG:4920, V-B:GLU:543:CD:9880, V-B:GLU:543:CB:9878, V-A:ASP:366:CA:3208, V-A:HIS:456:CD2:4066, V-B:LYS:547:CE:9922, V-B:GLU:543:C:9874, V-B:GLY:544:CA:9886, V-B:ALA:541:CB:9864, V-A:TYR:484:CZ:4345, V-A:LEU:475:CD2:4257, H-A:TYR:484:OH:4346, H-A:GLU:543:OE1:4907, H-A:GLU:543:OE2:4908, V-B:HIS:456:CE1:9042, H-A:ARG:545:NE:4922, V-A:GLU:543:CG:4905, V-A:TYR:484:CE1:4343, H-B:LYS:547:NZ:9923, H-A:LYS:547:NZ:4949, V-A:GLY:544:C:4910, V-A:GLU:543:C:4900, V-B:HIS:456:CD2:9040, V-B:GLY:544:C:9884, V-A:GLY:544:CA:4912"]

$$$$
1c_Grossjean_2025
     RDKit          3D

 23 24  0  0  0  0  0  0  0  0999 V2000
  124.0110  132.4280   76.0020 C   0  0  0  0  0  0  0  0  0  0  0  0
  123.8080  131.0220   76.1010 O   0  0  0  0  0  0  0  0  0  0  0  0
  124.6400  130.1710   75.3990 C   0  0  0  0  0  0  0  0  0  0  0  0
  125.9550  130.5970   75.2160 C   0  0  0  0  0  0  0  0  0  0  0  0
  126.8690  129.8090   74.5230 C   0  0  0  0  0  0  0  0  0  0  0  0
  126.4720  128.5670   74.0040 C   0  0  0  0  0  0  0  0  0  0  0  0
  127.3100  127.6970   73.2800 N   0  0  0  0  0  0  0  0  0  0  0  0
  128.4630  127.9610   72.6300 C   0  0  0  0  0  0  0  0  0  0  0  0
  129.0150  129.0600   72.5720 O   0  0  0  0  0  0  0  0  0  0  0  0
  129.1080  126.7650   71.9260 C   0  0  0  0  0  0  0  0  0  0  0  0
  130.9080  126.7250   72.1710 S   0  0  0  0  0  0  0  0  0  0  0  0
  131.3130  125.2790   73.1290 C   0  0  0  0  0  0  0  0  0  0  0  0
  130.3640  124.3110   73.0730 N   0  0  0  0  0  0  0  0  0  0  0  0
  130.5610  123.1640   73.7630 C   0  0  0  0  0  0  0  0  0  0  0  0
  129.4620  122.1240   73.6430 C   0  0  0  0  0  0  0  0  0  0  0  0
  131.6960  122.9390   74.5390 C   0  0  0  0  0  0  0  0  0  0  0  0
  132.6690  123.9400   74.6250 C   0  0  0  0  0  0  0  0  0  0  0  0
  133.8960  123.6780   75.4960 C   0  0  0  0  0  0  0  0  0  0  0  0
  132.4830  125.1480   73.9140 C   0  0  0  0  0  0  0  0  0  0  0  0
  133.4650  126.2290   74.0350 C   0  0  0  0  0  0  0  0  0  0  0  0
  134.2410  127.0820   74.1300 N   0  0  0  0  0  0  0  0  0  0  0  0
  125.1530  128.1430   74.1750 C   0  0  0  0  0  0  0  0  0  0  0  0
  124.2420  128.9340   74.8690 C   0  0  0  0  0  0  0  0  0  0  0  0
  1  2  1  0
  2  3  1  0
  3  4  2  0
  4  5  1  0
  5  6  2  0
  6  7  1  0
  7  8  1  0
  8  9  2  0
  8 10  1  0
 10 11  1  0
 11 12  1  0
 12 13  2  0
 13 14  1  0
 14 15  1  0
 14 16  2  0
 16 17  1  0
 17 18  1  0
 17 19  2  0
 19 20  1  0
 20 21  3  0
  6 22  1  0
 22 23  2  0
 23  3  1  0
 19 12  1  0
M  END
>  <Binding energies>  (4) 
[-7.5]

>  <Ligand effiencies>  (4) 
[-0.3125]

>  <Interactions>  (4) 
["V-A:HIS:456:CD2:4066, V-B:LYS:547:CE:9922, V-B:HIS:456:CG:9038, H-B:LYS:547:NZ:9923, V-B:LYS:471:CB:9189, V-B:LYS:471:CE:9192, V-B:VAL:457:C:9045, V-B:VAL:458:CG2:9059, H-A:LYS:547:NZ:4949, V-B:HIS:456:CB:9037, V-B:HIS:456:CA:9035, V-B:HIS:456:C:9033, V-B:VAL:457:CA:9047, V-B:LYS:471:C:9185, V-B:HIS:456:CD2:9040, V-B:GLY:544:C:9884, V-B:LYS:471:CG:9190, V-B:LYS:471:CD:9191, V-A:LYS:471:CD:4217, V-A:HIS:456:CB:4063, V-A:ASP:473:CG:4238, V-A:HIS:456:CG:4064, V-A:HIS:456:C:4059, V-A:LYS:471:CG:4216, V-A:VAL:458:CG2:4085, V-A:LYS:471:CE:4218, H-B:GLY:544:O:9885, V-B:ASP:473:CG:9212, V-B:LYS:547:CD:9921, V-B:ASP:473:CB:9211, V-B:ASP:473:CA:9209, V-B:LEU:472:CA:9200, V-B:LEU:472:C:9198"]

$$$$
1d_Grossjean_2025
     RDKit          3D

 21 22  0  0  0  0  0  0  0  0999 V2000
  129.5200  122.1810   73.5640 C   0  0  0  0  0  0  0  0  0  0  0  0
  130.5790  123.2480   73.7580 C   0  0  0  0  0  0  0  0  0  0  0  0
  131.7290  123.0080   74.5070 C   0  0  0  0  0  0  0  0  0  0  0  0
  132.6770  124.0280   74.6440 C   0  0  0  0  0  0  0  0  0  0  0  0
  133.9370  123.7350   75.4570 C   0  0  0  0  0  0  0  0  0  0  0  0
  132.4420  125.2780   74.0260 C   0  0  0  0  0  0  0  0  0  0  0  0
  133.4430  126.3430   74.1160 C   0  0  0  0  0  0  0  0  0  0  0  0
  134.2360  127.1830   74.1880 N   0  0  0  0  0  0  0  0  0  0  0  0
  131.2360  125.4410   73.3050 C   0  0  0  0  0  0  0  0  0  0  0  0
  130.7790  126.9420   72.4680 S   0  0  0  0  0  0  0  0  0  0  0  0
  128.9680  126.9370   72.2940 C   0  0  0  0  0  0  0  0  0  0  0  0
  128.3210  128.1480   72.9680 C   0  0  0  0  0  0  0  0  0  0  0  0
  128.9040  129.2330   72.9430 O   0  0  0  0  0  0  0  0  0  0  0  0
  127.1140  127.9210   73.5290 N   0  0  0  0  0  0  0  0  0  0  0  0
  126.2670  128.7980   74.2330 C   0  0  0  0  0  0  0  0  0  0  0  0
  126.8350  130.0180   74.6080 C   0  0  0  0  0  0  0  0  0  0  0  0
  126.0830  130.9600   75.3040 C   0  0  0  0  0  0  0  0  0  0  0  0
  124.7550  130.6850   75.6190 C   0  0  0  0  0  0  0  0  0  0  0  0
  124.1730  129.4770   75.2440 C   0  0  0  0  0  0  0  0  0  0  0  0
  124.9240  128.5320   74.5490 C   0  0  0  0  0  0  0  0  0  0  0  0
  130.3320  124.4380   73.1610 N   0  0  0  0  0  0  0  0  0  0  0  0
  1  2  1  0
  2  3  2  0
  3  4  1  0
  4  5  1  0
  4  6  2  0
  6  7  1  0
  7  8  3  0
  6  9  1  0
  9 10  1  0
 10 11  1  0
 11 12  1  0
 12 13  2  0
 12 14  1  0
 14 15  1  0
 15 16  2  0
 16 17  1  0
 17 18  2  0
 18 19  1  0
 19 20  2  0
  9 21  2  0
 21  2  1  0
 20 15  1  0
M  END
>  <Binding energies>  (5) 
[-8.46]

>  <Ligand effiencies>  (5) 
[-0.3845454545454546]

>  <Interactions>  (5) 
["V-A:HIS:456:CD2:4066, V-B:LYS:547:CE:9922, V-B:HIS:456:CG:9038, H-B:LYS:547:NZ:9923, V-B:LYS:471:CE:9192, V-B:VAL:457:C:9045, V-B:VAL:458:CG2:9059, H-A:LYS:547:NZ:4949, V-B:HIS:456:CB:9037, V-B:HIS:456:CA:9035, V-B:HIS:456:C:9033, V-B:VAL:457:CA:9047, V-B:HIS:456:CD2:9040, V-B:GLY:544:C:9884, V-B:LYS:471:CG:9190, V-B:LYS:471:CD:9191, V-A:LYS:471:CD:4217, V-A:HIS:456:CB:4063, V-A:LYS:547:CE:4948, V-A:ASP:473:CG:4238, V-A:HIS:456:CG:4064, V-A:HIS:456:C:4059, V-A:LYS:471:CG:4216, V-A:VAL:458:CG2:4085, V-A:LYS:471:CE:4218, V-A:LYS:547:CD:4947, H-B:GLY:544:O:9885"]

$$$$
1e_Grossjean_2025
     RDKit          3D

 22 23  0  0  0  0  0  0  0  0999 V2000
  126.6280  131.8740   75.5420 C   0  0  0  0  0  0  0  0  0  0  0  0
  126.0540  130.5480   75.0780 C   0  0  0  0  0  0  0  0  0  0  0  0
  124.7180  130.2090   75.3060 C   0  0  0  0  0  0  0  0  0  0  0  0
  124.2610  128.9720   74.8520 C   0  0  0  0  0  0  0  0  0  0  0  0
  125.1390  128.1110   74.1900 C   0  0  0  0  0  0  0  0  0  0  0  0
  126.4650  128.5150   73.9900 C   0  0  0  0  0  0  0  0  0  0  0  0
  127.3050  127.6020   73.3270 N   0  0  0  0  0  0  0  0  0  0  0  0
  128.5450  127.8070   72.8320 C   0  0  0  0  0  0  0  0  0  0  0  0
  129.1560  128.8760   72.8770 O   0  0  0  0  0  0  0  0  0  0  0  0
  129.1950  126.6040   72.1470 C   0  0  0  0  0  0  0  0  0  0  0  0
  131.0050  126.6200   72.3180 S   0  0  0  0  0  0  0  0  0  0  0  0
  131.4970  125.2260   73.3130 C   0  0  0  0  0  0  0  0  0  0  0  0
  130.5610  124.2440   73.3640 N   0  0  0  0  0  0  0  0  0  0  0  0
  130.8210  123.1330   74.0930 C   0  0  0  0  0  0  0  0  0  0  0  0
  129.7330  122.0760   74.0970 C   0  0  0  0  0  0  0  0  0  0  0  0
  132.0060  122.9620   74.8050 C   0  0  0  0  0  0  0  0  0  0  0  0
  132.9660  123.9780   74.7800 C   0  0  0  0  0  0  0  0  0  0  0  0
  134.2500  123.7730   75.5840 C   0  0  0  0  0  0  0  0  0  0  0  0
  132.7160  125.1480   74.0280 C   0  0  0  0  0  0  0  0  0  0  0  0
  133.6850  126.2460   74.0380 C   0  0  0  0  0  0  0  0  0  0  0  0
  134.4530  127.1120   74.0480 N   0  0  0  0  0  0  0  0  0  0  0  0
  126.9190  129.7240   74.4350 N   0  0  0  0  0  0  0  0  0  0  0  0
  1  2  1  0
  2  3  2  0
  3  4  1  0
  4  5  2  0
  5  6  1  0
  6  7  1  0
  7  8  1  0
  8  9  2  0
  8 10  1  0
 10 11  1  0
 11 12  1  0
 12 13  2  0
 13 14  1  0
 14 15  1  0
 14 16  2  0
 16 17  1  0
 17 18  1  0
 17 19  2  0
 19 20  1  0
 20 21  3  0
  6 22  2  0
 22  2  1  0
 19 12  1  0
M  END
>  <Binding energies>  (6) 
[-8.17]

>  <Ligand effiencies>  (6) 
[-0.3552173913043478]

>  <Interactions>  (6) 
["V-A:HIS:456:CD2:4066, V-B:LYS:547:CE:9922, V-B:LYS:547:CG:9920, V-B:HIS:456:CG:9038, H-B:LYS:547:NZ:9923, V-B:LYS:471:CE:9192, V-B:VAL:457:C:9045, V-B:VAL:458:CG2:9059, H-A:LYS:547:NZ:4949, V-B:HIS:456:CB:9037, V-B:HIS:456:CA:9035, V-B:HIS:456:C:9033, V-B:VAL:457:CA:9047, V-B:GLY:544:C:9884, V-B:LYS:471:CD:9191, V-A:LYS:471:CD:4217, V-A:HIS:456:CB:4063, V-A:LYS:547:CE:4948, V-A:ASP:473:CG:4238, V-A:HIS:456:CG:4064, V-A:HIS:456:C:4059, V-A:LYS:471:CG:4216, V-A:HIS:456:CA:4061, V-A:VAL:458:CG2:4085, V-A:LYS:471:CE:4218, H-B:GLY:544:O:9885, V-B:ASP:473:CG:9212, V-B:LYS:547:CD:9921"]

$$$$
1f_Grossjean_2025
     RDKit          3D

 21 22  0  0  0  0  0  0  0  0999 V2000
  129.4210  122.1120   73.6370 C   0  0  0  0  0  0  0  0  0  0  0  0
  130.5050  123.1660   73.7670 C   0  0  0  0  0  0  0  0  0  0  0  0
  131.6770  122.9230   74.4780 C   0  0  0  0  0  0  0  0  0  0  0  0
  132.6350  123.9370   74.5740 C   0  0  0  0  0  0  0  0  0  0  0  0
  133.9050  123.6540   75.3750 C   0  0  0  0  0  0  0  0  0  0  0  0
  132.3950  125.1780   73.9400 C   0  0  0  0  0  0  0  0  0  0  0  0
  133.3620  126.2710   74.0760 C   0  0  0  0  0  0  0  0  0  0  0  0
  134.1260  127.1330   74.1830 N   0  0  0  0  0  0  0  0  0  0  0  0
  131.1900  125.3270   73.2150 C   0  0  0  0  0  0  0  0  0  0  0  0
  130.7160  126.8130   72.3540 S   0  0  0  0  0  0  0  0  0  0  0  0
  128.8930  126.9160   72.3440 C   0  0  0  0  0  0  0  0  0  0  0  0
  128.3140  128.1810   72.9950 C   0  0  0  0  0  0  0  0  0  0  0  0
  128.9320  129.2460   72.9480 O   0  0  0  0  0  0  0  0  0  0  0  0
  127.1280  128.0010   73.6140 N   0  0  0  0  0  0  0  0  0  0  0  0
  126.3210  128.9310   74.2980 C   0  0  0  0  0  0  0  0  0  0  0  0
  126.7280  130.2060   74.7320 C   0  0  0  0  0  0  0  0  0  0  0  0
  125.8190  131.0320   75.3990 C   0  0  0  0  0  0  0  0  0  0  0  0
  124.5220  130.5630   75.6120 C   0  0  0  0  0  0  0  0  0  0  0  0
  124.1040  129.3410   75.1990 N   0  0  0  0  0  0  0  0  0  0  0  0
  124.9990  128.5500   74.5530 C   0  0  0  0  0  0  0  0  0  0  0  0
  130.2560  124.3440   73.1490 N   0  0  0  0  0  0  0  0  0  0  0  0
  1  2  1  0
  2  3  2  0
  3  4  1  0
  4  5  1  0
  4  6  2  0
  6  7  1  0
  7  8  3  0
  6  9  1  0
  9 10  1  0
 10 11  1  0
 11 12  1  0
 12 13  2  0
 12 14  1  0
 14 15  1  0
 15 16  2  0
 16 17  1  0
 17 18  2  0
 18 19  1  0
 19 20  2  0
  9 21  2  0
 21  2  1  0
 20 15  1  0
M  END
>  <Binding energies>  (7) 
[-8.03]

>  <Ligand effiencies>  (7) 
[-0.365]

>  <Interactions>  (7) 
["V-A:HIS:456:CD2:4066, V-B:LYS:547:CE:9922, V-B:HIS:456:CG:9038, H-B:LYS:547:NZ:9923, V-B:LYS:471:CE:9192, H-B:VAL:457:N:9048, V-B:VAL:458:CG2:9059, H-A:LYS:547:NZ:4949, V-B:HIS:456:CB:9037, V-B:HIS:456:C:9033, V-B:GLY:544:C:9884, V-B:LYS:471:CG:9190, V-B:LYS:471:CD:9191, V-A:LYS:471:CD:4217, V-A:HIS:456:CB:4063, V-A:LYS:547:CE:4948, V-A:ASP:473:CG:4238, V-A:HIS:456:CG:4064, V-A:HIS:456:C:4059, V-A:LYS:471:CG:4216, V-A:VAL:458:CG2:4085, V-A:LYS:471:CE:4218, H-B:GLY:544:O:9885"]

$$$$
1g_Grossjean_2025
     RDKit          3D

 22 23  0  0  0  0  0  0  0  0999 V2000
  128.6970  122.5870   72.6200 C   0  0  0  0  0  0  0  0  0  0  0  0
  129.8370  123.5060   73.0160 C   0  0  0  0  0  0  0  0  0  0  0  0
  130.8980  123.0560   73.8000 C   0  0  0  0  0  0  0  0  0  0  0  0
  131.9140  123.9530   74.1470 C   0  0  0  0  0  0  0  0  0  0  0  0
  133.0590  123.4410   75.0200 C   0  0  0  0  0  0  0  0  0  0  0  0
  131.8450  125.2880   73.6890 C   0  0  0  0  0  0  0  0  0  0  0  0
  132.8690  126.2580   74.0840 C   0  0  0  0  0  0  0  0  0  0  0  0
  133.6800  127.0220   74.3980 N   0  0  0  0  0  0  0  0  0  0  0  0
  130.7440  125.6500   72.8770 C   0  0  0  0  0  0  0  0  0  0  0  0
  130.5050  127.2810   72.2080 S   0  0  0  0  0  0  0  0  0  0  0  0
  128.7120  127.5690   72.1150 C   0  0  0  0  0  0  0  0  0  0  0  0
  128.2980  128.8450   72.8490 C   0  0  0  0  0  0  0  0  0  0  0  0
  127.4790  128.7900   73.7680 O   0  0  0  0  0  0  0  0  0  0  0  0
  128.8690  129.9860   72.4280 N   0  0  0  0  0  0  0  0  0  0  0  0
  128.6650  131.3070   73.0210 C   0  0  0  0  0  0  0  0  0  0  0  0
  129.5900  132.3910   72.4750 C   0  0  0  0  0  0  0  0  0  0  0  0
  129.2900  133.0190   71.2610 C   0  0  0  0  0  0  0  0  0  0  0  0
  130.1340  134.0080   70.7640 C   0  0  0  0  0  0  0  0  0  0  0  0
  131.2720  134.3700   71.4830 C   0  0  0  0  0  0  0  0  0  0  0  0
  131.5730  133.7520   72.6940 C   0  0  0  0  0  0  0  0  0  0  0  0
  130.7310  132.7620   73.1920 C   0  0  0  0  0  0  0  0  0  0  0  0
  129.7510  124.7790   72.5640 N   0  0  0  0  0  0  0  0  0  0  0  0
  1  2  1  0
  2  3  2  0
  3  4  1  0
  4  5  1  0
  4  6  2  0
  6  7  1  0
  7  8  3  0
  6  9  1  0
  9 10  1  0
 10 11  1  0
 11 12  1  0
 12 13  2  0
 12 14  1  0
 14 15  1  0
 15 16  1  0
 16 17  2  0
 17 18  1  0
 18 19  2  0
 19 20  1  0
 20 21  2  0
  9 22  2  0
 22  2  1  0
 21 16  1  0
M  END
>  <Binding energies>  (8) 
[-7.19]

>  <Ligand effiencies>  (8) 
[-0.3126086956521739]

>  <Interactions>  (8) 
["V-A:HIS:456:CD2:4066, V-B:LYS:547:CE:9922, V-B:GLU:543:C:9874, V-B:GLY:544:CA:9886, V-B:HIS:456:CG:9038, H-B:LYS:547:NZ:9923, H-A:LYS:547:NZ:4949, V-A:GLU:543:C:4900, V-B:HIS:456:CD2:9040, V-A:LYS:471:CD:4217, V-A:HIS:456:CB:4063, V-A:LYS:547:CE:4948, V-A:ASP:473:CG:4238, V-A:HIS:456:CG:4064, H-B:HIS:456:NE2:9043, H-A:GLU:543:O:4901, V-A:LYS:471:CE:4218, V-A:LYS:547:CD:4947, V-B:TYR:484:CD1:9315, V-A:GLY:544:CA:4912, V-B:TYR:484:CB:9313, V-A:GLU:543:CA:4902, V-B:TYR:484:CG:9314, V-A:VAL:542:C:4892"]

$$$$
1h_Grossjean_2025
     RDKit          3D

 28 29  0  0  0  0  0  0  0  0999 V2000
  125.3460  120.1890   75.1540 C   0  0  0  0  0  0  0  0  0  0  0  0
  125.3570  121.1920   74.1450 O   0  0  0  0  0  0  0  0  0  0  0  0
  126.4260  121.2640   73.2710 C   0  0  0  0  0  0  0  0  0  0  0  0
  127.5010  122.1550   73.4180 C   0  0  0  0  0  0  0  0  0  0  0  0
  128.5410  122.1810   72.4870 C   0  0  0  0  0  0  0  0  0  0  0  0
  129.7140  123.1380   72.6710 C   0  0  0  0  0  0  0  0  0  0  0  0
  129.4550  124.4960   72.1930 N   0  0  0  0  0  0  0  0  0  0  0  0
  130.0880  125.6040   72.6190 C   0  0  0  0  0  0  0  0  0  0  0  0
  130.9900  125.5960   73.4560 O   0  0  0  0  0  0  0  0  0  0  0  0
  129.6260  126.9290   72.0110 C   0  0  0  0  0  0  0  0  0  0  0  0
  127.8720  127.2610   72.3560 S   0  0  0  0  0  0  0  0  0  0  0  0
  127.7440  128.9020   73.0480 C   0  0  0  0  0  0  0  0  0  0  0  0
  128.6770  129.7950   72.6250 N   0  0  0  0  0  0  0  0  0  0  0  0
  128.6360  131.0580   73.1070 C   0  0  0  0  0  0  0  0  0  0  0  0
  129.7070  131.9970   72.5840 C   0  0  0  0  0  0  0  0  0  0  0  0
  127.6760  131.4830   74.0230 C   0  0  0  0  0  0  0  0  0  0  0  0
  126.7120  130.5730   74.4690 C   0  0  0  0  0  0  0  0  0  0  0  0
  125.6680  131.0600   75.4710 C   0  0  0  0  0  0  0  0  0  0  0  0
  126.7360  129.2480   73.9780 C   0  0  0  0  0  0  0  0  0  0  0  0
  125.7400  128.2720   74.4280 C   0  0  0  0  0  0  0  0  0  0  0  0
  124.9530  127.5010   74.7850 N   0  0  0  0  0  0  0  0  0  0  0  0
  128.5300  121.2850   71.4170 C   0  0  0  0  0  0  0  0  0  0  0  0
  127.4700  120.3790   71.2480 C   0  0  0  0  0  0  0  0  0  0  0  0
  127.3930  119.4660   70.2120 O   0  0  0  0  0  0  0  0  0  0  0  0
  127.0740  118.1080   70.4990 C   0  0  0  0  0  0  0  0  0  0  0  0
  126.4190  120.3860   72.1760 C   0  0  0  0  0  0  0  0  0  0  0  0
  125.3790  119.5020   72.0270 O   0  0  0  0  0  0  0  0  0  0  0  0
  124.1120  120.1220   71.8530 C   0  0  0  0  0  0  0  0  0  0  0  0
  1  2  1  0
  2  3  1  0
  3  4  2  0
  4  5  1  0
  5  6  1  0
  6  7  1  0
  7  8  1  0
  8  9  2  0
  8 10  1  0
 10 11  1  0
 11 12  1  0
 12 13  2  0
 13 14  1  0
 14 15  1  0
 14 16  2  0
 16 17  1  0
 17 18  1  0
 17 19  2  0
 19 20  1  0
 20 21  3  0
  5 22  2  0
 22 23  1  0
 23 24  1  0
 24 25  1  0
 23 26  2  0
 26 27  1  0
 27 28  1  0
 26  3  1  0
 19 12  1  0
M  END
>  <Binding energies>  (9) 
[-6.83]

>  <Ligand effiencies>  (9) 
[-0.23551724137931035]

>  <Interactions>  (9) 
["V-A:TYR:484:CB:4339, V-A:HIS:456:CD2:4066, V-A:TYR:484:CG:4340, V-A:TYR:484:CD1:4341, V-B:GLU:543:CA:9876, V-B:LYS:547:CE:9922, V-B:GLU:543:C:9874, V-B:GLY:544:CA:9886, V-B:VAL:542:CG1:9871, V-B:HIS:456:CG:9038, H-B:LYS:547:NZ:9923, V-B:LYS:471:CE:9192, H-A:LYS:547:NZ:4949, V-B:HIS:456:CB:9037, H-A:HIS:456:NE2:4069, V-A:GLU:543:C:4900, H-B:GLU:543:O:9875, V-B:HIS:456:CD2:9040, V-B:LYS:471:CD:9191, V-A:LYS:547:CE:4948, V-A:HIS:456:CG:4064, V-A:TYR:484:CA:4337, H-A:TYR:484:N:4338, V-B:ASP:473:CG:9212, V-A:GLY:544:CA:4912, V-B:LYS:547:CD:9921, H-B:GLU:543:N:9877, V-A:SER:483:CB:4331, V-A:SER:483:C:4327, V-A:SER:483:CA:4329"]

$$$$
1i_Grossjean_2025
     RDKit          3D

 20 21  0  0  0  0  0  0  0  0999 V2000
  129.5120  122.1450   73.5480 C   0  0  0  0  0  0  0  0  0  0  0  0
  130.5730  123.2100   73.7530 C   0  0  0  0  0  0  0  0  0  0  0  0
  131.7390  122.9490   74.4690 C   0  0  0  0  0  0  0  0  0  0  0  0
  132.6880  123.9670   74.6160 C   0  0  0  0  0  0  0  0  0  0  0  0
  133.9660  123.6520   75.3910 C   0  0  0  0  0  0  0  0  0  0  0  0
  132.4370  125.2350   74.0420 C   0  0  0  0  0  0  0  0  0  0  0  0
  133.4390  126.2990   74.1420 C   0  0  0  0  0  0  0  0  0  0  0  0
  134.2330  127.1380   74.2210 N   0  0  0  0  0  0  0  0  0  0  0  0
  131.2150  125.4160   73.3530 C   0  0  0  0  0  0  0  0  0  0  0  0
  130.7370  126.9420   72.5720 S   0  0  0  0  0  0  0  0  0  0  0  0
  128.9310  126.9140   72.3680 C   0  0  0  0  0  0  0  0  0  0  0  0
  128.2570  128.1140   73.0360 C   0  0  0  0  0  0  0  0  0  0  0  0
  128.8000  129.2190   72.9820 O   0  0  0  0  0  0  0  0  0  0  0  0
  127.0800  127.8560   73.6470 N   0  0  0  0  0  0  0  0  0  0  0  0
  126.2710  128.7550   74.3270 C   0  0  0  0  0  0  0  0  0  0  0  0
  124.9110  128.5400   74.5460 C   0  0  0  0  0  0  0  0  0  0  0  0
  124.4810  129.6450   75.2430 C   0  0  0  0  0  0  0  0  0  0  0  0
  125.5270  130.4840   75.4310 O   0  0  0  0  0  0  0  0  0  0  0  0
  126.6560  129.9100   74.8450 N   0  0  0  0  0  0  0  0  0  0  0  0
  130.3100  124.4170   73.1980 N   0  0  0  0  0  0  0  0  0  0  0  0
  1  2  1  0
  2  3  2  0
  3  4  1  0
  4  5  1  0
  4  6  2  0
  6  7  1  0
  7  8  3  0
  6  9  1  0
  9 10  1  0
 10 11  1  0
 11 12  1  0
 12 13  2  0
 12 14  1  0
 14 15  1  0
 15 16  1  0
 16 17  2  0
 17 18  1  0
 18 19  1  0
  9 20  2  0
 20  2  1  0
 19 15  2  0
M  END
>  <Binding energies>  (10) 
[-7.68]

>  <Ligand effiencies>  (10) 
[-0.3657142857142857]

>  <Interactions>  (10) 
["V-A:HIS:456:CD2:4066, V-B:LYS:547:CE:9922, H-B:LYS:547:NZ:9923, V-B:VAL:457:C:9045, V-B:VAL:458:CG2:9059, H-A:LYS:547:NZ:4949, V-B:HIS:456:CB:9037, V-B:HIS:456:CA:9035, V-B:HIS:456:C:9033, V-B:GLY:544:C:9884, V-A:LYS:471:CD:4217, V-A:HIS:456:CB:4063, V-A:LYS:547:CE:4948, V-A:ASP:473:CG:4238, V-A:HIS:456:CG:4064, V-A:HIS:456:C:4059, V-A:LYS:471:CG:4216, V-A:VAL:458:CG2:4085, V-A:LYS:471:CE:4218, H-B:GLY:544:O:9885, V-B:LYS:547:CD:9921"]

$$$$
1k_Grossjean_2025
     RDKit          3D

 25 25  0  0  0  0  0  0  0  0999 V2000
  126.8880  128.8860   73.7250 C   0  0  0  0  0  0  0  0  0  0  0  0
  128.2090  129.2660   73.3730 O   0  0  0  0  0  0  0  0  0  0  0  0
  128.6330  128.7430   72.1210 C   0  0  0  0  0  0  0  0  0  0  0  0
  128.2190  127.2700   72.0140 C   0  0  0  0  0  0  0  0  0  0  0  0
  129.2840  126.4450   72.4710 O   0  0  0  0  0  0  0  0  0  0  0  0
  130.5220  126.6990   71.8210 C   0  0  0  0  0  0  0  0  0  0  0  0
  131.6750  126.2480   72.7270 C   0  0  0  0  0  0  0  0  0  0  0  0
  131.1490  125.5810   73.8670 O   0  0  0  0  0  0  0  0  0  0  0  0
  132.1410  124.9650   74.6770 C   0  0  0  0  0  0  0  0  0  0  0  0
  131.5570  123.7020   75.3380 C   0  0  0  0  0  0  0  0  0  0  0  0
  131.2730  122.6160   74.3990 N   0  0  0  0  0  0  0  0  0  0  0  0
  130.3220  122.6410   73.4490 C   0  0  0  0  0  0  0  0  0  0  0  0
  129.5790  123.6070   73.2660 O   0  0  0  0  0  0  0  0  0  0  0  0
  130.2070  121.3700   72.5920 C   0  0  0  0  0  0  0  0  0  0  0  0
  129.3750  119.9520   73.3890 S   0  0  0  0  0  0  0  0  0  0  0  0
  127.6370  120.3220   73.5770 C   0  0  0  0  0  0  0  0  0  0  0  0
  127.2410  120.6920   74.8230 N   0  0  0  0  0  0  0  0  0  0  0  0
  125.9360  120.9760   75.0370 C   0  0  0  0  0  0  0  0  0  0  0  0
  125.5710  121.3720   76.4540 C   0  0  0  0  0  0  0  0  0  0  0  0
  124.9780  120.9140   74.0270 C   0  0  0  0  0  0  0  0  0  0  0  0
  125.3730  120.5430   72.7380 C   0  0  0  0  0  0  0  0  0  0  0  0
  124.3080  120.4810   71.6460 C   0  0  0  0  0  0  0  0  0  0  0  0
  126.7310  120.2370   72.4950 C   0  0  0  0  0  0  0  0  0  0  0  0
  127.1740  119.8410   71.1540 C   0  0  0  0  0  0  0  0  0  0  0  0
  127.5220  119.5280   70.0960 N   0  0  0  0  0  0  0  0  0  0  0  0
  1  2  1  0
  2  3  1  0
  3  4  1  0
  4  5  1  0
  5  6  1  0
  6  7  1  0
  7  8  1  0
  8  9  1  0
  9 10  1  0
 10 11  1  0
 11 12  1  0
 12 13  2  0
 12 14  1  0
 14 15  1  0
 15 16  1  0
 16 17  2  0
 17 18  1  0
 18 19  1  0
 18 20  2  0
 20 21  1  0
 21 22  1  0
 21 23  2  0
 23 24  1  0
 24 25  3  0
 23 16  1  0
M  END
>  <Binding energies>  (11) 
[-6.87]

>  <Ligand effiencies>  (11) 
[-0.2642307692307692]

>  <Interactions>  (11) 
["V-A:HIS:456:CE1:4068, V-A:TYR:484:CB:4339, V-B:LYS:547:CB:9919, V-A:HIS:456:CD2:4066, V-A:TYR:484:CG:4340, V-B:LYS:547:CA:9917, V-B:LYS:547:CE:9922, V-B:LYS:547:CG:9920, V-B:GLY:544:CA:9886, V-B:VAL:542:CG1:9871, V-B:HIS:456:CG:9038, H-B:LYS:547:NZ:9923, H-A:LYS:547:NZ:4949, V-B:HIS:456:CB:9037, V-A:GLY:544:C:4910, V-B:HIS:456:CD2:9040, V-B:GLY:544:C:9884, V-A:HIS:456:CB:4063, V-A:LYS:547:CE:4948, V-A:ASP:473:CG:4238, V-A:HIS:456:CG:4064, V-A:LYS:471:CE:4218, H-A:TYR:484:N:4338, H-A:ASP:473:OD2:4240, V-B:LYS:547:CD:9921, H-B:GLU:543:N:9877, V-B:GLU:357:CD:8108, H-A:ASP:473:OD1:4239"]

$$$$
1l_Grossjean_2025
     RDKit          3D

 17 17  0  0  0  0  0  0  0  0999 V2000
  124.8990  128.3600   74.4810 C   0  0  0  0  0  0  0  0  0  0  0  0
  126.1500  128.8900   74.0650 O   0  0  0  0  0  0  0  0  0  0  0  0
  127.0240  127.8520   73.7470 N   0  0  0  0  0  0  0  0  0  0  0  0
  128.1780  128.1400   73.1160 C   0  0  0  0  0  0  0  0  0  0  0  0
  128.6260  129.2840   72.9970 O   0  0  0  0  0  0  0  0  0  0  0  0
  128.9320  126.9280   72.5510 C   0  0  0  0  0  0  0  0  0  0  0  0
  130.7470  126.9940   72.7330 S   0  0  0  0  0  0  0  0  0  0  0  0
  131.2900  125.4540   73.4540 C   0  0  0  0  0  0  0  0  0  0  0  0
  130.4260  124.4120   73.3390 N   0  0  0  0  0  0  0  0  0  0  0  0
  130.7750  123.2140   73.8650 C   0  0  0  0  0  0  0  0  0  0  0  0
  129.7590  122.1000   73.6970 C   0  0  0  0  0  0  0  0  0  0  0  0
  131.9860  123.0040   74.5200 C   0  0  0  0  0  0  0  0  0  0  0  0
  132.8840  124.0690   74.6430 C   0  0  0  0  0  0  0  0  0  0  0  0
  134.2080  123.8150   75.3630 C   0  0  0  0  0  0  0  0  0  0  0  0
  132.5410  125.3280   74.1020 C   0  0  0  0  0  0  0  0  0  0  0  0
  133.4640  126.4620   74.2170 C   0  0  0  0  0  0  0  0  0  0  0  0
  134.1930  127.3550   74.3080 N   0  0  0  0  0  0  0  0  0  0  0  0
  1  2  1  0
  2  3  1  0
  3  4  1  0
  4  5  2  0
  4  6  1  0
  6  7  1  0
  7  8  1  0
  8  9  2  0
  9 10  1  0
 10 11  1  0
 10 12  2  0
 12 13  1  0
 13 14  1  0
 13 15  2  0
 15 16  1  0
 16 17  3  0
 15  8  1  0
M  END
>  <Binding energies>  (12) 
[-6.8]

>  <Ligand effiencies>  (12) 
[-0.37777777777777777]

>  <Interactions>  (12) 
["V-A:HIS:456:CD2:4066, V-B:LYS:547:CE:9922, H-B:LYS:547:NZ:9923, V-B:VAL:458:CG2:9059, H-A:LYS:547:NZ:4949, V-B:HIS:456:CB:9037, V-B:HIS:456:C:9033, V-B:GLY:544:C:9884, V-A:LYS:471:CD:4217, V-A:HIS:456:CB:4063, V-A:LYS:547:CE:4948, V-A:ASP:473:CG:4238, V-A:HIS:456:CG:4064, V-A:HIS:456:C:4059, V-A:LYS:471:CG:4216, V-A:VAL:458:CG2:4085, V-A:LYS:471:CE:4218, V-A:LYS:547:CD:4947, H-B:GLY:544:O:9885, V-A:LYS:547:CG:4946, V-B:LYS:547:CD:9921"]

$$$$
1m_Grossjean_2025
     RDKit          3D

 20 20  0  0  0  0  0  0  0  0999 V2000
  133.9790  123.8400   75.2570 C   0  0  0  0  0  0  0  0  0  0  0  0
  134.6000  125.0450   74.8310 O   0  0  0  0  0  0  0  0  0  0  0  0
  133.8670  126.0410   74.2930 C   0  0  0  0  0  0  0  0  0  0  0  0
  134.2580  127.1960   74.1000 O   0  0  0  0  0  0  0  0  0  0  0  0
  132.4460  125.5640   73.9250 C   0  0  0  0  0  0  0  0  0  0  0  0
  131.6020  126.6440   73.3920 N   0  0  0  0  0  0  0  0  0  0  0  0
  130.3420  126.5050   72.9400 C   0  0  0  0  0  0  0  0  0  0  0  0
  129.7540  125.4210   72.9110 O   0  0  0  0  0  0  0  0  0  0  0  0
  129.6710  127.7930   72.4460 C   0  0  0  0  0  0  0  0  0  0  0  0
  127.8510  127.8090   72.5930 S   0  0  0  0  0  0  0  0  0  0  0  0
  127.3830  129.2910   73.4620 C   0  0  0  0  0  0  0  0  0  0  0  0
  128.2630  130.3120   73.3070 N   0  0  0  0  0  0  0  0  0  0  0  0
  128.0070  131.4920   73.9180 C   0  0  0  0  0  0  0  0  0  0  0  0
  129.0250  132.5910   73.6830 C   0  0  0  0  0  0  0  0  0  0  0  0
  126.8800  131.6980   74.7110 C   0  0  0  0  0  0  0  0  0  0  0  0
  125.9790  130.6450   74.8990 C   0  0  0  0  0  0  0  0  0  0  0  0
  124.7590  130.8890   75.7850 C   0  0  0  0  0  0  0  0  0  0  0  0
  126.2260  129.4030   74.2720 C   0  0  0  0  0  0  0  0  0  0  0  0
  125.3230  128.2720   74.4950 C   0  0  0  0  0  0  0  0  0  0  0  0
  124.6080  127.3790   74.6720 N   0  0  0  0  0  0  0  0  0  0  0  0
  1  2  1  0
  2  3  1  0
  3  4  2  0
  3  5  1  0
  5  6  1  0
  6  7  1  0
  7  8  2  0
  7  9  1  0
  9 10  1  0
 10 11  1  0
 11 12  2  0
 12 13  1  0
 13 14  1  0
 13 15  2  0
 15 16  1  0
 16 17  1  0
 16 18  2  0
 18 19  1  0
 19 20  3  0
 18 11  1  0
M  END
>  <Binding energies>  (13) 
[-6.97]

>  <Ligand effiencies>  (13) 
[-0.33190476190476187]

>  <Interactions>  (13) 
["V-A:HIS:456:CD2:4066, V-B:HIS:456:CG:9038, H-B:LYS:547:NZ:9923, V-B:LYS:471:CE:9192, V-B:VAL:458:CG2:9059, H-A:LYS:547:NZ:4949, V-B:HIS:456:CB:9037, V-A:GLY:544:C:4910, V-B:HIS:456:C:9033, V-B:HIS:456:CD2:9040, V-B:LYS:471:CG:9190, V-B:LYS:471:CD:9191, V-A:LYS:471:CD:4217, V-A:HIS:456:CB:4063, V-A:LYS:547:CE:4948, V-A:HIS:456:CG:4064, V-A:HIS:456:C:4059, V-A:VAL:457:C:4071, V-A:LYS:471:CG:4216, V-A:HIS:456:CA:4061, H-A:VAL:458:N:4082, V-A:VAL:458:CG2:4085, V-A:LYS:471:CE:4218, H-A:GLY:544:O:4911, V-B:ASP:473:CG:9212, V-A:GLY:544:CA:4912, V-B:LYS:547:CD:9921, H-A:VAL:457:N:4074"]

$$$$
1n_Grossjean_2025
     RDKit          3D

 27 28  0  0  0  0  0  0  0  0999 V2000
  132.9990  126.0000   73.8600 C   0  0  0  0  0  0  0  0  0  0  0  0
  132.0060  124.8510   74.0630 C   0  0  0  0  0  0  0  0  0  0  0  0
  130.8030  125.1360   73.3610 O   0  0  0  0  0  0  0  0  0  0  0  0
  130.2680  126.3840   73.3650 C   0  0  0  0  0  0  0  0  0  0  0  0
  130.1400  127.0660   74.3860 O   0  0  0  0  0  0  0  0  0  0  0  0
  129.8570  126.8580   72.0000 C   0  0  0  0  0  0  0  0  0  0  0  0
  130.7720  126.9520   70.9410 C   0  0  0  0  0  0  0  0  0  0  0  0
  130.3600  127.3980   69.6890 C   0  0  0  0  0  0  0  0  0  0  0  0
  129.0310  127.7650   69.4700 C   0  0  0  0  0  0  0  0  0  0  0  0
  128.7240  128.2060   68.1680 N   0  0  0  0  0  0  0  0  0  0  0  0
  127.6590  127.9210   67.3890 C   0  0  0  0  0  0  0  0  0  0  0  0
  126.7180  127.1930   67.7040 O   0  0  0  0  0  0  0  0  0  0  0  0
  127.6550  128.5830   66.0040 C   0  0  0  0  0  0  0  0  0  0  0  0
  126.7970  129.8660   65.9480 C   0  0  0  0  0  0  0  0  0  0  0  0
  125.1510  129.6410   65.2110 S   0  0  0  0  0  0  0  0  0  0  0  0
  125.1460  130.4730   63.6380 C   0  0  0  0  0  0  0  0  0  0  0  0
  124.3500  131.5710   63.6070 N   0  0  0  0  0  0  0  0  0  0  0  0
  124.2820  132.2940   62.4640 C   0  0  0  0  0  0  0  0  0  0  0  0
  123.3810  133.5130   62.5080 C   0  0  0  0  0  0  0  0  0  0  0  0
  124.9910  131.9520   61.3150 C   0  0  0  0  0  0  0  0  0  0  0  0
  125.7990  130.8100   61.3300 C   0  0  0  0  0  0  0  0  0  0  0  0
  126.5570  130.4470   60.0550 C   0  0  0  0  0  0  0  0  0  0  0  0
  125.8820  130.0370   62.5110 C   0  0  0  0  0  0  0  0  0  0  0  0
  126.6800  128.8100   62.5330 C   0  0  0  0  0  0  0  0  0  0  0  0
  127.3110  127.8400   62.5480 N   0  0  0  0  0  0  0  0  0  0  0  0
  128.1080  127.6630   70.5210 C   0  0  0  0  0  0  0  0  0  0  0  0
  128.5220  127.2140   71.7720 C   0  0  0  0  0  0  0  0  0  0  0  0
  1  2  1  0
  2  3  1  0
  3  4  1  0
  4  5  2  0
  4  6  1  0
  6  7  2  0
  7  8  1  0
  8  9  2  0
  9 10  1  0
 10 11  1  0
 11 12  2  0
 11 13  1  0
 13 14  1  0
 14 15  1  0
 15 16  1  0
 16 17  2  0
 17 18  1  0
 18 19  1  0
 18 20  2  0
 20 21  1  0
 21 22  1  0
 21 23  2  0
 23 24  1  0
 24 25  3  0
  9 26  1  0
 26 27  2  0
 27  6  1  0
 23 16  1  0
M  END
>  <Binding energies>  (14) 
[-8.04]

>  <Ligand effiencies>  (14) 
[-0.2871428571428571]

>  <Interactions>  (14) 
["V-A:GLU:543:CD:4906, V-B:GLU:543:CG:9879, V-A:HIS:456:CE1:4068, V-B:GLU:543:CD:9880, V-A:HIS:456:CD2:4066, V-B:LYS:547:CE:9922, V-B:GLY:544:CA:9886, H-B:ARG:545:NH2:9900, V-B:GLY:454:CA:9021, V-B:LEU:475:CD2:9231, H-B:GLY:454:N:9022, H-B:TYR:484:OH:9320, V-B:ARG:545:CZ:9898, H-A:GLU:543:OE2:4908, V-A:GLU:543:CB:4904, V-B:ILE:369:CD1:8211, V-B:HIS:456:CE1:9042, V-B:TYR:484:CZ:9319, H-B:ARG:545:NE:9896, V-A:GLU:543:CG:4905, H-B:LYS:547:NZ:9923, H-A:LYS:547:NZ:4949, V-A:GLY:544:C:4910, V-A:GLU:543:C:4900, V-B:HIS:456:CD2:9040, V-B:GLY:544:C:9884, V-A:HIS:456:CB:4063, V-A:LYS:547:CE:4948, V-A:HIS:456:CG:4064, H-B:HIS:456:NE2:9043, H-A:GLU:543:O:4901, V-A:GLY:544:CA:4912"]

$$$$
1q_Grossjean_2025
     RDKit          3D

 21 21  0  0  0  0  0  0  0  0999 V2000
  133.7900  123.9170   75.2460 C   0  0  0  0  0  0  0  0  0  0  0  0
  134.3170  125.0190   74.5210 O   0  0  0  0  0  0  0  0  0  0  0  0
  133.5830  126.1460   74.3520 C   0  0  0  0  0  0  0  0  0  0  0  0
  134.0380  127.2850   74.2340 O   0  0  0  0  0  0  0  0  0  0  0  0
  132.0580  125.9080   74.3460 C   0  0  0  0  0  0  0  0  0  0  0  0
  131.3760  126.5810   73.2310 N   0  0  0  0  0  0  0  0  0  0  0  0
  130.3570  126.0770   72.5090 C   0  0  0  0  0  0  0  0  0  0  0  0
  129.8720  124.9630   72.7160 O   0  0  0  0  0  0  0  0  0  0  0  0
  129.8040  126.9840   71.4000 C   0  0  0  0  0  0  0  0  0  0  0  0
  129.0260  128.2110   71.9150 C   0  0  0  0  0  0  0  0  0  0  0  0
  127.6010  127.7840   72.9590 S   0  0  0  0  0  0  0  0  0  0  0  0
  127.0510  129.2560   73.7970 C   0  0  0  0  0  0  0  0  0  0  0  0
  127.8760  130.3190   73.6190 N   0  0  0  0  0  0  0  0  0  0  0  0
  127.5640  131.4950   74.2100 C   0  0  0  0  0  0  0  0  0  0  0  0
  128.5430  132.6300   73.9790 C   0  0  0  0  0  0  0  0  0  0  0  0
  126.4200  131.6640   74.9880 C   0  0  0  0  0  0  0  0  0  0  0  0
  125.5480  130.5840   75.1570 C   0  0  0  0  0  0  0  0  0  0  0  0
  124.2910  130.8010   76.0000 C   0  0  0  0  0  0  0  0  0  0  0  0
  125.8530  129.3460   74.5480 C   0  0  0  0  0  0  0  0  0  0  0  0
  124.9230  128.2210   74.6680 C   0  0  0  0  0  0  0  0  0  0  0  0
  124.1850  127.3350   74.7650 N   0  0  0  0  0  0  0  0  0  0  0  0
  1  2  1  0
  2  3  1  0
  3  4  2  0
  3  5  1  0
  5  6  1  0
  6  7  1  0
  7  8  2  0
  7  9  1  0
  9 10  1  0
 10 11  1  0
 11 12  1  0
 12 13  2  0
 13 14  1  0
 14 15  1  0
 14 16  2  0
 16 17  1  0
 17 18  1  0
 17 19  2  0
 19 20  1  0
 20 21  3  0
 19 12  1  0
M  END
>  <Binding energies>  (15) 
[-7.51]

>  <Ligand effiencies>  (15) 
[-0.34136363636363637]

>  <Interactions>  (15) 
["V-A:HIS:456:CD2:4066, V-B:LYS:547:CG:9920, V-B:HIS:456:CG:9038, H-B:LYS:547:NZ:9923, V-B:LYS:471:CE:9192, V-B:VAL:457:C:9045, V-B:VAL:458:CG2:9059, H-A:LYS:547:NZ:4949, V-B:HIS:456:CB:9037, V-A:GLY:544:C:4910, V-B:HIS:456:C:9033, V-B:HIS:456:CD2:9040, V-B:LYS:471:CG:9190, V-B:LYS:471:CD:9191, V-A:LYS:471:CD:4217, V-A:HIS:456:CB:4063, V-A:LYS:547:CE:4948, V-A:HIS:456:CG:4064, V-A:HIS:456:C:4059, V-A:LYS:471:CG:4216, V-A:VAL:458:CG2:4085, V-A:LYS:471:CE:4218, H-A:GLY:544:O:4911, V-B:ASP:473:CG:9212, V-B:LYS:547:CD:9921, H-A:VAL:457:N:4074"]

$$$$
2a_Grossjean_2025
     RDKit          3D

 29 30  0  0  0  0  0  0  0  0999 V2000
  127.3230  128.5350   73.0810 C   0  0  0  0  0  0  0  0  0  0  0  0
  128.7830  128.5570   72.6190 C   0  0  0  0  0  0  0  0  0  0  0  0
  129.2530  127.2220   72.4790 O   0  0  0  0  0  0  0  0  0  0  0  0
  130.0570  126.8670   71.4430 C   0  0  0  0  0  0  0  0  0  0  0  0
  131.1450  126.3020   71.5890 O   0  0  0  0  0  0  0  0  0  0  0  0
  129.4780  127.2120   70.1010 C   0  0  0  0  0  0  0  0  0  0  0  0
  128.0980  127.3680   69.9060 C   0  0  0  0  0  0  0  0  0  0  0  0
  127.5940  127.6870   68.6480 C   0  0  0  0  0  0  0  0  0  0  0  0
  128.4530  127.8480   67.5610 C   0  0  0  0  0  0  0  0  0  0  0  0
  127.8330  128.1550   66.3350 N   0  0  0  0  0  0  0  0  0  0  0  0
  127.2510  129.3000   65.9200 C   0  0  0  0  0  0  0  0  0  0  0  0
  127.1330  130.3260   66.5900 O   0  0  0  0  0  0  0  0  0  0  0  0
  126.7000  129.2800   64.4900 C   0  0  0  0  0  0  0  0  0  0  0  0
  125.1150  130.1650   64.3140 S   0  0  0  0  0  0  0  0  0  0  0  0
  125.1730  131.2270   62.8750 C   0  0  0  0  0  0  0  0  0  0  0  0
  124.2810  130.9360   61.8930 N   0  0  0  0  0  0  0  0  0  0  0  0
  124.2770  131.6900   60.7710 C   0  0  0  0  0  0  0  0  0  0  0  0
  123.2710  131.2870   59.7080 C   0  0  0  0  0  0  0  0  0  0  0  0
  125.1450  132.7610   60.5820 C   0  0  0  0  0  0  0  0  0  0  0  0
  126.0690  133.0850   61.5870 C   0  0  0  0  0  0  0  0  0  0  0  0
  127.0230  134.2740   61.3630 C   0  0  0  0  0  0  0  0  0  0  0  0
  127.1480  134.9790   62.4880 F   0  0  0  0  0  0  0  0  0  0  0  0
  128.2250  133.8300   60.9930 F   0  0  0  0  0  0  0  0  0  0  0  0
  126.5920  135.1070   60.4120 F   0  0  0  0  0  0  0  0  0  0  0  0
  126.0870  132.3000   62.7680 C   0  0  0  0  0  0  0  0  0  0  0  0
  127.0340  132.5920   63.8490 C   0  0  0  0  0  0  0  0  0  0  0  0
  127.7820  132.8230   64.7020 N   0  0  0  0  0  0  0  0  0  0  0  0
  129.8350  127.7010   67.7490 C   0  0  0  0  0  0  0  0  0  0  0  0
  130.3380  127.3870   69.0090 C   0  0  0  0  0  0  0  0  0  0  0  0
  1  2  1  0
  2  3  1  0
  3  4  1  0
  4  5  2  0
  4  6  1  0
  6  7  2  0
  7  8  1  0
  8  9  2  0
  9 10  1  0
 10 11  1  0
 11 12  2  0
 11 13  1  0
 13 14  1  0
 14 15  1  0
 15 16  2  0
 16 17  1  0
 17 18  1  0
 17 19  2  0
 19 20  1  0
 20 21  1  0
 21 22  1  0
 21 23  1  0
 21 24  1  0
 20 25  2  0
 25 26  1  0
 26 27  3  0
  9 28  1  0
 28 29  2  0
 29  6  1  0
 25 15  1  0
M  END
>  <Binding energies>  (16) 
[-7.49]

>  <Ligand effiencies>  (16) 
[-0.24966666666666668]

>  <Interactions>  (16) 
["V-A:GLU:543:CD:4906, V-B:GLU:543:CG:9879, V-A:HIS:456:CE1:4068, V-B:GLU:543:CD:9880, V-A:HIS:456:CD2:4066, V-B:GLU:543:C:9874, V-B:ASP:366:CB:8184, V-B:ASP:366:CG:8185, V-A:TYR:539:CE2:4874, V-A:TYR:539:CD2:4872, V-B:LEU:475:CD2:9231, V-A:ALA:541:CB:4890, H-B:TYR:484:OH:9320, H-B:GLU:543:OE1:9881, V-A:TYR:539:C:4865, H-A:GLU:543:OE2:4908, V-A:GLU:543:CB:4904, H-B:GLU:543:OE2:9882, V-B:ILE:369:CD1:8211, V-B:ILE:369:CG2:8209, V-B:HIS:456:CE1:9042, V-A:PRO:540:C:4879, V-B:TYR:484:CE1:9317, V-B:ASP:366:CA:8182, V-A:GLU:543:CG:4905, V-B:ILE:369:CB:8208, V-B:PRO:482:CB:9298, V-B:TRP:381:CZ2:8342, V-B:TRP:381:CH2:8344, V-B:HIS:456:CG:9038, V-A:GLY:544:C:4910, V-A:GLU:543:C:4900, V-B:HIS:456:CD2:9040, V-B:GLY:544:C:9884, V-A:LYS:547:CE:4948, H-A:HIS:456:ND1:4065, V-A:ALA:541:CA:4888, V-B:LEU:475:CG:9229, V-B:LEU:475:CD1:9230, V-B:TRP:381:CZ3:8343"]

$$$$
2b_Grossjean_2025
     RDKit          3D

 28 29  0  0  0  0  0  0  0  0999 V2000
  129.1900  125.6070   72.2430 C   0  0  0  0  0  0  0  0  0  0  0  0
  128.5890  126.8350   72.6320 O   0  0  0  0  0  0  0  0  0  0  0  0
  128.7290  127.9530   71.8740 C   0  0  0  0  0  0  0  0  0  0  0  0
  128.5200  129.0930   72.2990 O   0  0  0  0  0  0  0  0  0  0  0  0
  129.1610  127.6640   70.4650 C   0  0  0  0  0  0  0  0  0  0  0  0
  130.5130  127.6450   70.0920 C   0  0  0  0  0  0  0  0  0  0  0  0
  130.8790  127.3750   68.7770 C   0  0  0  0  0  0  0  0  0  0  0  0
  129.9080  127.1140   67.8110 C   0  0  0  0  0  0  0  0  0  0  0  0
  130.3880  126.8600   66.5120 N   0  0  0  0  0  0  0  0  0  0  0  0
  130.6540  125.6830   65.9060 C   0  0  0  0  0  0  0  0  0  0  0  0
  130.5390  124.5720   66.4250 O   0  0  0  0  0  0  0  0  0  0  0  0
  131.1530  125.7910   64.4620 C   0  0  0  0  0  0  0  0  0  0  0  0
  132.6700  124.8280   64.1540 S   0  0  0  0  0  0  0  0  0  0  0  0
  132.4960  123.8810   62.6480 C   0  0  0  0  0  0  0  0  0  0  0  0
  133.3410  124.2160   61.6400 N   0  0  0  0  0  0  0  0  0  0  0  0
  133.2630  123.5440   60.4700 C   0  0  0  0  0  0  0  0  0  0  0  0
  134.2320  123.9880   59.3910 C   0  0  0  0  0  0  0  0  0  0  0  0
  132.3530  122.5130   60.2560 C   0  0  0  0  0  0  0  0  0  0  0  0
  131.4740  122.1440   61.2860 C   0  0  0  0  0  0  0  0  0  0  0  0
  130.4770  120.9970   61.0350 C   0  0  0  0  0  0  0  0  0  0  0  0
  130.4810  120.1550   62.0690 F   0  0  0  0  0  0  0  0  0  0  0  0
  129.2450  121.4860   60.8800 F   0  0  0  0  0  0  0  0  0  0  0  0
  130.7670  120.2900   59.9400 F   0  0  0  0  0  0  0  0  0  0  0  0
  131.5420  122.8450   62.5170 C   0  0  0  0  0  0  0  0  0  0  0  0
  130.6440  122.5060   63.6250 C   0  0  0  0  0  0  0  0  0  0  0  0
  129.9350  122.2370   64.5000 N   0  0  0  0  0  0  0  0  0  0  0  0
  128.5530  127.1390   68.1730 C   0  0  0  0  0  0  0  0  0  0  0  0
  128.1880  127.4100   69.4890 C   0  0  0  0  0  0  0  0  0  0  0  0
  1  2  1  0
  2  3  1  0
  3  4  2  0
  3  5  1  0
  5  6  2  0
  6  7  1  0
  7  8  2  0
  8  9  1  0
  9 10  1  0
 10 11  2  0
 10 12  1  0
 12 13  1  0
 13 14  1  0
 14 15  2  0
 15 16  1  0
 16 17  1  0
 16 18  2  0
 18 19  1  0
 19 20  1  0
 20 21  1  0
 20 22  1  0
 20 23  1  0
 19 24  2  0
 24 25  1  0
 25 26  3  0
  8 27  1  0
 27 28  2  0
 28  5  1  0
 24 14  1  0
M  END
>  <Binding energies>  (17) 
[-7.35]

>  <Ligand effiencies>  (17) 
[-0.253448275862069]

>  <Interactions>  (17) 
["V-A:GLU:543:CD:4906, V-A:ASP:366:CG:3211, V-B:GLU:543:CG:9879, V-A:HIS:456:CE1:4068, V-A:ASP:366:CB:3210, V-A:ILE:369:CB:3234, V-B:TYR:539:CE2:9848, V-A:ILE:369:CD1:3237, V-A:ILE:369:CG2:3235, V-A:ARG:545:CG:4920, V-B:GLU:543:CD:9880, V-B:GLU:543:CB:9878, V-A:ASP:366:CA:3208, V-A:HIS:456:CD2:4066, V-B:LYS:547:CE:9922, V-B:GLU:543:C:9874, V-B:GLY:544:CA:9886, V-B:PRO:540:C:9853, V-B:TYR:539:CD2:9846, V-B:ALA:541:CB:9864, V-A:TYR:484:CZ:4345, V-A:LEU:475:CD2:4257, H-A:TYR:484:OH:4346, H-A:GLU:543:OE1:4907, H-A:GLU:543:OE2:4908, V-B:HIS:456:CE1:9042, H-A:ARG:545:NE:4922, V-A:GLU:543:CG:4905, V-A:TYR:484:CE1:4343, V-A:PRO:482:CB:4324, V-A:TRP:381:CH2:3370, H-B:LYS:547:NZ:9923, H-A:LYS:547:NZ:4949, V-A:GLY:544:C:4910, V-A:GLU:543:C:4900, V-B:HIS:456:CD2:9040, V-B:GLY:544:C:9884, V-B:ALA:541:CA:9862, V-B:TYR:539:CG:9844, V-A:GLY:544:CA:4912, V-A:LEU:475:CG:4255, V-A:LEU:475:CD1:4256"]

$$$$
2c_Grossjean_2025
     RDKit          3D

 26 27  0  0  0  0  0  0  0  0999 V2000
  130.0580  126.1810   72.2210 C   0  0  0  0  0  0  0  0  0  0  0  0
  130.6110  127.0070   71.2020 O   0  0  0  0  0  0  0  0  0  0  0  0
  129.8740  127.2500   70.0590 C   0  0  0  0  0  0  0  0  0  0  0  0
  128.4940  127.3670   70.2200 C   0  0  0  0  0  0  0  0  0  0  0  0
  127.6680  127.6100   69.1260 C   0  0  0  0  0  0  0  0  0  0  0  0
  128.2220  127.7310   67.8440 C   0  0  0  0  0  0  0  0  0  0  0  0
  127.4720  127.9940   66.6830 N   0  0  0  0  0  0  0  0  0  0  0  0
  127.1810  129.1870   66.1210 C   0  0  0  0  0  0  0  0  0  0  0  0
  127.4990  130.2810   66.5920 O   0  0  0  0  0  0  0  0  0  0  0  0
  126.3600  129.1080   64.8250 C   0  0  0  0  0  0  0  0  0  0  0  0
  124.9410  130.2550   64.7220 S   0  0  0  0  0  0  0  0  0  0  0  0
  125.0420  131.1910   63.2020 C   0  0  0  0  0  0  0  0  0  0  0  0
  124.0890  130.9130   62.2760 N   0  0  0  0  0  0  0  0  0  0  0  0
  124.1090  131.5760   61.0990 C   0  0  0  0  0  0  0  0  0  0  0  0
  123.0230  131.1960   60.1110 C   0  0  0  0  0  0  0  0  0  0  0  0
  125.0650  132.5430   60.7980 C   0  0  0  0  0  0  0  0  0  0  0  0
  126.0530  132.8530   61.7420 C   0  0  0  0  0  0  0  0  0  0  0  0
  127.1020  133.9280   61.3950 C   0  0  0  0  0  0  0  0  0  0  0  0
  126.7750  134.5330   60.2530 F   0  0  0  0  0  0  0  0  0  0  0  0
  127.1630  134.8390   62.3670 F   0  0  0  0  0  0  0  0  0  0  0  0
  128.3280  133.4210   61.2430 F   0  0  0  0  0  0  0  0  0  0  0  0
  126.0480  132.1610   62.9800 C   0  0  0  0  0  0  0  0  0  0  0  0
  127.0600  132.4430   64.0040 C   0  0  0  0  0  0  0  0  0  0  0  0
  127.8580  132.6660   64.8120 N   0  0  0  0  0  0  0  0  0  0  0  0
  129.6050  127.6310   67.6790 C   0  0  0  0  0  0  0  0  0  0  0  0
  130.4270  127.3880   68.7750 C   0  0  0  0  0  0  0  0  0  0  0  0
  1  2  1  0
  2  3  1  0
  3  4  2  0
  4  5  1  0
  5  6  2  0
  6  7  1  0
  7  8  1  0
  8  9  2  0
  8 10  1  0
 10 11  1  0
 11 12  1  0
 12 13  2  0
 13 14  1  0
 14 15  1  0
 14 16  2  0
 16 17  1  0
 17 18  1  0
 18 19  1  0
 18 20  1  0
 18 21  1  0
 17 22  2  0
 22 23  1  0
 23 24  3  0
  6 25  1  0
 25 26  2  0
 26  3  1  0
 22 12  1  0
M  END
>  <Binding energies>  (18) 
[-6.77]

>  <Ligand effiencies>  (18) 
[-0.2507407407407407]

>  <Interactions>  (18) 
["V-A:GLU:543:CD:4906, V-B:GLU:543:CG:9879, V-A:HIS:456:CE1:4068, V-B:GLU:543:CD:9880, V-A:HIS:456:CD2:4066, V-B:GLU:543:C:9874, V-B:ASP:366:CB:8184, V-B:ASP:366:CG:8185, V-A:TYR:539:CE2:4874, V-A:TYR:539:CD2:4872, V-B:LEU:475:CD2:9231, V-A:ALA:541:CB:4890, H-B:GLY:454:N:9022, H-B:TYR:484:OH:9320, H-B:GLU:543:OE1:9881, V-B:ARG:545:CZ:9898, V-A:GLU:543:CB:4904, H-B:GLU:543:OE2:9882, V-B:ILE:369:CD1:8211, V-B:ILE:369:CG2:8209, V-B:HIS:456:CE1:9042, V-B:TYR:484:CE1:9317, V-B:TYR:484:CZ:9319, V-B:ASP:366:CA:8182, H-B:ARG:545:NE:9896, V-A:GLU:543:CG:4905, V-B:ILE:369:CB:8208, V-A:TYR:539:CG:4870, V-B:PRO:482:CB:9298, V-B:TRP:381:CH2:8344, V-A:GLY:544:C:4910, V-A:GLU:543:C:4900, V-B:GLY:544:C:9884, V-A:ALA:541:CA:4888, V-B:ILE:369:CG1:8210, V-B:LEU:475:CG:9229, V-B:LEU:475:CD1:9230"]

$$$$
2d_Ghoteimi_2023
     RDKit          3D

 38 42  0  0  0  0  0  0  0  0999 V2000
  125.5750  123.7510   61.2010 C   0  0  0  0  0  0  0  0  0  0  0  0
  124.9310  123.4200   59.9800 O   0  0  0  0  0  0  0  0  0  0  0  0
  123.7500  123.9840   59.6530 C   0  0  0  0  0  0  0  0  0  0  0  0
  122.9640  124.5110   60.4460 O   0  0  0  0  0  0  0  0  0  0  0  0
  123.4910  123.9000   58.1420 C   0  0  0  0  0  0  0  0  0  0  0  0
  124.2320  125.3190   57.2650 S   0  0  0  0  0  0  0  0  0  0  0  0
  125.7200  125.7930   58.1230 C   0  0  0  0  0  0  0  0  0  0  0  0
  125.7190  127.0890   58.5200 N   0  0  0  0  0  0  0  0  0  0  0  0
  126.7940  127.5890   59.1800 C   0  0  0  0  0  0  0  0  0  0  0  0
  126.7280  129.0300   59.5710 C   0  0  0  0  0  0  0  0  0  0  0  0
  127.7170  129.5930   60.3850 C   0  0  0  0  0  0  0  0  0  0  0  0
  127.6620  130.9350   60.7530 C   0  0  0  0  0  0  0  0  0  0  0  0
  126.6210  131.7650   60.3110 C   0  0  0  0  0  0  0  0  0  0  0  0
  126.5410  133.1110   60.6860 N   0  0  0  0  0  0  0  0  0  0  0  0
  127.7440  133.9630   60.7650 C   0  0  0  0  0  0  0  0  0  0  0  0
  127.5200  135.2780   61.5410 C   0  0  0  0  0  0  0  0  0  0  0  0
  126.4310  135.9920   60.9780 O   0  0  0  0  0  0  0  0  0  0  0  0
  125.2290  135.2430   61.0380 C   0  0  0  0  0  0  0  0  0  0  0  0
  125.3860  133.9230   60.2530 C   0  0  0  0  0  0  0  0  0  0  0  0
  125.6250  131.1930   59.5070 C   0  0  0  0  0  0  0  0  0  0  0  0
  125.6780  129.8510   59.1410 C   0  0  0  0  0  0  0  0  0  0  0  0
  127.9030  126.7870   59.4620 C   0  0  0  0  0  0  0  0  0  0  0  0
  127.9160  125.4370   59.0930 C   0  0  0  0  0  0  0  0  0  0  0  0
  129.1230  124.6340   59.4520 C   0  0  0  0  0  0  0  0  0  0  0  0
  130.3500  124.9010   58.8430 C   0  0  0  0  0  0  0  0  0  0  0  0
  131.4840  124.1680   59.1800 C   0  0  0  0  0  0  0  0  0  0  0  0
  131.4210  123.1400   60.1350 C   0  0  0  0  0  0  0  0  0  0  0  0
  132.5500  122.3990   60.4980 N   0  0  0  0  0  0  0  0  0  0  0  0
  132.6960  120.9820   60.1120 C   0  0  0  0  0  0  0  0  0  0  0  0
  134.1330  120.4440   60.2800 C   0  0  0  0  0  0  0  0  0  0  0  0
  134.5780  120.6560   61.6110 O   0  0  0  0  0  0  0  0  0  0  0  0
  134.5800  122.0340   61.9500 C   0  0  0  0  0  0  0  0  0  0  0  0
  133.1540  122.6110   61.8270 C   0  0  0  0  0  0  0  0  0  0  0  0
  130.1890  122.8900   60.7540 C   0  0  0  0  0  0  0  0  0  0  0  0
  129.0550  123.6250   60.4180 C   0  0  0  0  0  0  0  0  0  0  0  0
  126.7910  124.9140   58.4060 C   0  0  0  0  0  0  0  0  0  0  0  0
  126.7490  123.5020   58.0150 C   0  0  0  0  0  0  0  0  0  0  0  0
  126.7190  122.3860   57.7080 N   0  0  0  0  0  0  0  0  0  0  0  0
  1  2  1  0
  2  3  1  0
  3  4  2  0
  3  5  1  0
  5  6  1  0
  6  7  1  0
  7  8  2  0
  8  9  1  0
  9 10  1  0
 10 11  2  0
 11 12  1  0
 12 13  2  0
 13 14  1  0
 14 15  1  0
 15 16  1  0
 16 17  1  0
 17 18  1  0
 18 19  1  0
 13 20  1  0
 20 21  2  0
  9 22  2  0
 22 23  1  0
 23 24  1  0
 24 25  2  0
 25 26  1  0
 26 27  2  0
 27 28  1  0
 28 29  1  0
 29 30  1  0
 30 31  1  0
 31 32  1  0
 32 33  1  0
 27 34  1  0
 34 35  2  0
 23 36  2  0
 36 37  1  0
 37 38  3  0
 36  7  1  0
 21 10  1  0
 35 24  1  0
 19 14  1  0
 33 28  1  0
M  END
>  <Binding energies>  (19) 
[-0.34]

>  <Ligand effiencies>  (19) 
[-0.008947368421052633]

>  <Interactions>  (19) 
["V-A:ILE:369:CB:3234, V-B:TYR:539:CE2:9848, V-A:ILE:369:CD1:3237, V-A:ILE:369:CG2:3235, V-A:GLY:454:CA:4047, V-B:ASN:362:CB:8148, V-B:LEU:363:CA:8157, V-B:PRO:540:CB:9857, V-B:ASP:366:CG:8185, V-B:ASN:362:C:8144, V-B:PRO:540:C:9853, V-B:LEU:363:CB:8159, V-B:TYR:539:CD2:9846, V-B:PRO:540:N:9856, V-B:PRO:540:CA:9855, H-B:ALA:541:N:9863, V-A:TYR:539:CE2:4874, H-B:TYR:531:OH:9767, H-B:ARG:545:NH2:9900, V-A:TYR:539:CD2:4872, V-A:LEU:475:CD2:4257, V-B:LEU:475:CD2:9231, V-A:ALA:541:CB:4890, V-B:TYR:539:C:9839, V-A:TYR:539:C:4865, V-B:PRO:482:CG:9299, V-B:PRO:482:CB:9298, V-B:TRP:381:CZ2:8342, V-B:TRP:381:CH2:8344, V-A:TRP:381:CH2:3370, V-A:GLY:453:C:4040, H-B:TYR:539:N:9842, V-A:ILE:369:CG1:3236, V-A:SER:385:CA:3405, V-A:SER:385:C:3403, H-B:LEU:363:N:8158"]

$$$$
2d_Grossjean_2025
     RDKit          3D

 24 25  0  0  0  0  0  0  0  0999 V2000
  129.2780  122.2100   73.1450 C   0  0  0  0  0  0  0  0  0  0  0  0
  130.3140  123.2820   73.4250 C   0  0  0  0  0  0  0  0  0  0  0  0
  131.4080  123.0410   74.2520 C   0  0  0  0  0  0  0  0  0  0  0  0
  132.3420  124.0630   74.4760 C   0  0  0  0  0  0  0  0  0  0  0  0
  133.5520  123.7750   75.3850 C   0  0  0  0  0  0  0  0  0  0  0  0
  133.2570  124.0860   76.6480 F   0  0  0  0  0  0  0  0  0  0  0  0
  133.8730  122.4810   75.3230 F   0  0  0  0  0  0  0  0  0  0  0  0
  134.6350  124.4740   75.0420 F   0  0  0  0  0  0  0  0  0  0  0  0
  132.1340  125.3200   73.8520 C   0  0  0  0  0  0  0  0  0  0  0  0
  133.1040  126.4060   74.0170 C   0  0  0  0  0  0  0  0  0  0  0  0
  133.8720  127.2620   74.1460 N   0  0  0  0  0  0  0  0  0  0  0  0
  130.9800  125.4820   73.0490 C   0  0  0  0  0  0  0  0  0  0  0  0
  130.5490  127.0000   72.2200 S   0  0  0  0  0  0  0  0  0  0  0  0
  128.7350  127.0820   72.0550 C   0  0  0  0  0  0  0  0  0  0  0  0
  128.1250  128.2970   72.7610 C   0  0  0  0  0  0  0  0  0  0  0  0
  128.7120  129.3780   72.7070 O   0  0  0  0  0  0  0  0  0  0  0  0
  126.9740  128.0670   73.4270 N   0  0  0  0  0  0  0  0  0  0  0  0
  126.1780  128.9660   74.1610 C   0  0  0  0  0  0  0  0  0  0  0  0
  126.8050  130.1450   74.5730 C   0  0  0  0  0  0  0  0  0  0  0  0
  126.1010  131.0940   75.3100 C   0  0  0  0  0  0  0  0  0  0  0  0
  124.7690  130.8590   75.6430 C   0  0  0  0  0  0  0  0  0  0  0  0
  124.1370  129.6830   75.2500 C   0  0  0  0  0  0  0  0  0  0  0  0
  124.8370  128.7330   74.5120 C   0  0  0  0  0  0  0  0  0  0  0  0
  130.0990  124.4760   72.8260 N   0  0  0  0  0  0  0  0  0  0  0  0
  1  2  1  0
  2  3  2  0
  3  4  1  0
  4  5  1  0
  5  6  1  0
  5  7  1  0
  5  8  1  0
  4  9  2  0
  9 10  1  0
 10 11  3  0
  9 12  1  0
 12 13  1  0
 13 14  1  0
 14 15  1  0
 15 16  2  0
 15 17  1  0
 17 18  1  0
 18 19  2  0
 19 20  1  0
 20 21  2  0
 21 22  1  0
 22 23  2  0
 12 24  2  0
 24  2  1  0
 23 18  1  0
M  END
>  <Binding energies>  (20) 
[-7.93]

>  <Ligand effiencies>  (20) 
[-0.3172]

>  <Interactions>  (20) 
["V-A:HIS:456:CD2:4066, V-B:LYS:547:CE:9922, V-B:HIS:456:CG:9038, H-B:LYS:547:NZ:9923, V-B:LYS:471:CE:9192, V-B:VAL:457:C:9045, V-B:VAL:458:CG2:9059, H-A:LYS:547:NZ:4949, V-B:HIS:456:CB:9037, V-B:HIS:456:CA:9035, V-B:HIS:456:C:9033, V-B:VAL:457:CA:9047, V-B:HIS:456:CD2:9040, V-B:GLY:544:C:9884, V-B:LYS:471:CG:9190, V-B:LYS:471:CD:9191, V-A:LYS:471:CD:4217, V-A:HIS:456:CB:4063, V-A:ASP:473:CG:4238, V-A:HIS:456:CG:4064, V-A:HIS:456:C:4059, V-A:VAL:457:C:4071, V-A:LYS:471:CG:4216, V-A:LYS:471:CB:4215, V-A:HIS:456:CA:4061, V-A:VAL:458:CG2:4085, V-A:LYS:471:CE:4218, V-A:LYS:547:CD:4947, H-B:GLY:544:O:9885, V-A:ASP:473:CB:4237, V-A:VAL:457:CA:4073"]

$$$$
2e_Grossjean_2025
     RDKit          3D

 25 26  0  0  0  0  0  0  0  0999 V2000
  130.1990  134.3940   71.1660 C   0  0  0  0  0  0  0  0  0  0  0  0
  129.5360  133.4210   72.1220 C   0  0  0  0  0  0  0  0  0  0  0  0
  128.8660  133.8620   73.2670 C   0  0  0  0  0  0  0  0  0  0  0  0
  128.2690  132.9090   74.0950 C   0  0  0  0  0  0  0  0  0  0  0  0
  128.3550  131.5550   73.7630 C   0  0  0  0  0  0  0  0  0  0  0  0
  129.0490  131.1820   72.6060 C   0  0  0  0  0  0  0  0  0  0  0  0
  129.0670  129.8110   72.2960 N   0  0  0  0  0  0  0  0  0  0  0  0
  128.3590  128.8160   72.8760 C   0  0  0  0  0  0  0  0  0  0  0  0
  127.5050  128.9730   73.7490 O   0  0  0  0  0  0  0  0  0  0  0  0
  128.7060  127.3970   72.4160 C   0  0  0  0  0  0  0  0  0  0  0  0
  130.5010  127.1620   72.2170 S   0  0  0  0  0  0  0  0  0  0  0  0
  130.8660  125.6020   72.9900 C   0  0  0  0  0  0  0  0  0  0  0  0
  129.9500  124.6290   72.7600 N   0  0  0  0  0  0  0  0  0  0  0  0
  130.1260  123.4250   73.3480 C   0  0  0  0  0  0  0  0  0  0  0  0
  129.0660  122.3830   73.0480 C   0  0  0  0  0  0  0  0  0  0  0  0
  131.2070  123.1460   74.1840 C   0  0  0  0  0  0  0  0  0  0  0  0
  132.1580  124.1440   74.4390 C   0  0  0  0  0  0  0  0  0  0  0  0
  133.3350  123.8280   75.3810 C   0  0  0  0  0  0  0  0  0  0  0  0
  134.4580  124.3700   74.9100 F   0  0  0  0  0  0  0  0  0  0  0  0
  133.0910  124.3220   76.5950 F   0  0  0  0  0  0  0  0  0  0  0  0
  133.5480  122.5170   75.5160 F   0  0  0  0  0  0  0  0  0  0  0  0
  131.9900  125.4110   73.8260 C   0  0  0  0  0  0  0  0  0  0  0  0
  132.9340  126.5050   74.0760 C   0  0  0  0  0  0  0  0  0  0  0  0
  133.6780  127.3690   74.2750 N   0  0  0  0  0  0  0  0  0  0  0  0
  129.6280  132.1080   71.7870 N   0  0  0  0  0  0  0  0  0  0  0  0
  1  2  1  0
  2  3  2  0
  3  4  1  0
  4  5  2  0
  5  6  1  0
  6  7  1  0
  7  8  1  0
  8  9  2  0
  8 10  1  0
 10 11  1  0
 11 12  1  0
 12 13  2  0
 13 14  1  0
 14 15  1  0
 14 16  2  0
 16 17  1  0
 17 18  1  0
 18 19  1  0
 18 20  1  0
 18 21  1  0
 17 22  2  0
 22 23  1  0
 23 24  3  0
  6 25  2  0
 25  2  1  0
 22 12  1  0
M  END
>  <Binding energies>  (21) 
[-6.99]

>  <Ligand effiencies>  (21) 
[-0.26884615384615385]

>  <Interactions>  (21) 
["V-A:HIS:456:CD2:4066, V-B:LYS:547:CE:9922, V-B:GLY:544:CA:9886, H-B:LYS:547:NZ:9923, H-A:LYS:547:NZ:4949, V-A:GLU:543:C:4900, V-B:HIS:456:CD2:9040, V-A:LYS:471:CD:4217, V-A:HIS:456:CB:4063, V-A:LYS:547:CE:4948, V-A:ASP:473:CG:4238, V-A:HIS:456:CG:4064, V-A:HIS:456:C:4059, V-A:VAL:457:C:4071, V-A:LYS:471:CG:4216, V-A:HIS:456:CA:4061, V-A:VAL:458:CG2:4085, H-B:HIS:456:NE2:9043, H-A:GLU:543:O:4901, V-A:LYS:471:CE:4218, H-A:GLY:544:O:4911, V-A:LYS:547:CD:4947, V-B:ASP:473:CG:9212, V-B:TYR:484:CD1:9315, V-A:GLY:544:CA:4912, V-B:TYR:484:CB:9313, V-A:GLU:543:CA:4902, H-A:GLY:544:N:4913, V-B:TYR:484:CG:9314, V-A:ASP:473:CB:4237, V-A:VAL:457:CA:4073"]

$$$$
2f_Grossjean_2025
     RDKit          3D

 24 25  0  0  0  0  0  0  0  0999 V2000
  129.4440  122.1070   73.3780 C   0  0  0  0  0  0  0  0  0  0  0  0
  130.4900  123.1870   73.5860 C   0  0  0  0  0  0  0  0  0  0  0  0
  131.6440  122.9510   74.3290 C   0  0  0  0  0  0  0  0  0  0  0  0
  132.5780  123.9850   74.5000 C   0  0  0  0  0  0  0  0  0  0  0  0
  133.8420  123.7080   75.3350 C   0  0  0  0  0  0  0  0  0  0  0  0
  133.6210  124.0100   76.6160 F   0  0  0  0  0  0  0  0  0  0  0  0
  134.1730  122.4200   75.2460 F   0  0  0  0  0  0  0  0  0  0  0  0
  134.8950  124.4230   74.9330 F   0  0  0  0  0  0  0  0  0  0  0  0
  132.3150  125.2430   73.8990 C   0  0  0  0  0  0  0  0  0  0  0  0
  133.2310  126.3690   74.0960 C   0  0  0  0  0  0  0  0  0  0  0  0
  133.9550  127.2580   74.2510 N   0  0  0  0  0  0  0  0  0  0  0  0
  131.1280  125.3820   73.1400 C   0  0  0  0  0  0  0  0  0  0  0  0
  130.6450  126.8820   72.3080 S   0  0  0  0  0  0  0  0  0  0  0  0
  128.8210  126.9500   72.2770 C   0  0  0  0  0  0  0  0  0  0  0  0
  128.2050  128.1990   72.9230 C   0  0  0  0  0  0  0  0  0  0  0  0
  128.7460  129.2990   72.8060 O   0  0  0  0  0  0  0  0  0  0  0  0
  127.0700  127.9680   73.6180 N   0  0  0  0  0  0  0  0  0  0  0  0
  126.2490  128.8730   74.3180 C   0  0  0  0  0  0  0  0  0  0  0  0
  126.6590  130.1170   74.8320 C   0  0  0  0  0  0  0  0  0  0  0  0
  125.7390  130.9230   75.5040 C   0  0  0  0  0  0  0  0  0  0  0  0
  124.4270  130.4680   75.6420 C   0  0  0  0  0  0  0  0  0  0  0  0
  124.0050  129.2760   75.1490 N   0  0  0  0  0  0  0  0  0  0  0  0
  124.9110  128.5040   74.4970 C   0  0  0  0  0  0  0  0  0  0  0  0
  130.2270  124.3790   73.0050 N   0  0  0  0  0  0  0  0  0  0  0  0
  1  2  1  0
  2  3  2  0
  3  4  1  0
  4  5  1  0
  5  6  1  0
  5  7  1  0
  5  8  1  0
  4  9  2  0
  9 10  1  0
 10 11  3  0
  9 12  1  0
 12 13  1  0
 13 14  1  0
 14 15  1  0
 15 16  2  0
 15 17  1  0
 17 18  1  0
 18 19  2  0
 19 20  1  0
 20 21  2  0
 21 22  1  0
 22 23  2  0
 12 24  2  0
 24  2  1  0
 23 18  1  0
M  END
>  <Binding energies>  (22) 
[-7.59]

>  <Ligand effiencies>  (22) 
[-0.3036]

>  <Interactions>  (22) 
["V-A:HIS:456:CD2:4066, V-B:LYS:547:CE:9922, V-B:HIS:456:CG:9038, H-B:LYS:547:NZ:9923, V-B:LYS:471:CE:9192, V-B:VAL:457:C:9045, H-B:VAL:457:N:9048, V-B:VAL:458:CG2:9059, H-A:LYS:547:NZ:4949, V-B:HIS:456:CB:9037, V-B:HIS:456:CA:9035, V-B:HIS:456:C:9033, H-B:VAL:458:N:9056, V-B:HIS:456:CD2:9040, V-B:GLY:544:C:9884, V-B:LYS:471:CG:9190, V-B:LYS:471:CD:9191, V-A:LYS:471:CD:4217, V-A:HIS:456:CB:4063, V-A:LYS:547:CE:4948, V-A:ASP:473:CG:4238, V-A:HIS:456:CG:4064, V-A:HIS:456:C:4059, V-A:VAL:457:C:4071, V-A:LYS:471:CG:4216, V-A:LYS:471:CB:4215, V-A:HIS:456:CA:4061, V-A:VAL:458:CG2:4085, V-A:LYS:471:CE:4218, V-A:LYS:547:CD:4947, H-B:GLY:544:O:9885, V-A:ASP:473:CB:4237, V-A:VAL:457:CA:4073"]

$$$$
2g_Grossjean_2025
     RDKit          3D

 25 26  0  0  0  0  0  0  0  0999 V2000
  129.4030  126.8820   72.0760 C   0  0  0  0  0  0  0  0  0  0  0  0
  130.4190  126.0320   72.8150 C   0  0  0  0  0  0  0  0  0  0  0  0
  131.6130  126.5690   73.2890 C   0  0  0  0  0  0  0  0  0  0  0  0
  132.5240  125.7390   73.9610 C   0  0  0  0  0  0  0  0  0  0  0  0
  133.8450  126.3500   74.4700 C   0  0  0  0  0  0  0  0  0  0  0  0
  134.4300  127.0570   73.5010 F   0  0  0  0  0  0  0  0  0  0  0  0
  133.6010  127.1540   75.5050 F   0  0  0  0  0  0  0  0  0  0  0  0
  134.7190  125.4260   74.8730 F   0  0  0  0  0  0  0  0  0  0  0  0
  132.1900  124.3730   74.1440 C   0  0  0  0  0  0  0  0  0  0  0  0
  133.1300  123.4520   74.7880 C   0  0  0  0  0  0  0  0  0  0  0  0
  133.8730  122.7250   75.2980 N   0  0  0  0  0  0  0  0  0  0  0  0
  130.9400  123.9230   73.6560 C   0  0  0  0  0  0  0  0  0  0  0  0
  130.3530  122.2500   73.8220 S   0  0  0  0  0  0  0  0  0  0  0  0
  129.5770  121.7820   72.2370 C   0  0  0  0  0  0  0  0  0  0  0  0
  128.5890  120.6100   72.3280 C   0  0  0  0  0  0  0  0  0  0  0  0
  128.3250  120.0750   73.4070 O   0  0  0  0  0  0  0  0  0  0  0  0
  128.0500  120.2170   71.1600 N   0  0  0  0  0  0  0  0  0  0  0  0
  127.0820  119.1320   70.9940 C   0  0  0  0  0  0  0  0  0  0  0  0
  125.7060  119.4210   71.5860 C   0  0  0  0  0  0  0  0  0  0  0  0
  125.2780  120.7440   71.7380 C   0  0  0  0  0  0  0  0  0  0  0  0
  124.0080  121.0090   72.2430 C   0  0  0  0  0  0  0  0  0  0  0  0
  123.1670  119.9530   72.5850 C   0  0  0  0  0  0  0  0  0  0  0  0
  123.5830  118.6330   72.4240 C   0  0  0  0  0  0  0  0  0  0  0  0
  124.8520  118.3670   71.9190 C   0  0  0  0  0  0  0  0  0  0  0  0
  130.0820  124.7330   72.9880 N   0  0  0  0  0  0  0  0  0  0  0  0
  1  2  1  0
  2  3  2  0
  3  4  1  0
  4  5  1  0
  5  6  1  0
  5  7  1  0
  5  8  1  0
  4  9  2  0
  9 10  1  0
 10 11  3  0
  9 12  1  0
 12 13  1  0
 13 14  1  0
 14 15  1  0
 15 16  2  0
 15 17  1  0
 17 18  1  0
 18 19  1  0
 19 20  2  0
 20 21  1  0
 21 22  2  0
 22 23  1  0
 23 24  2  0
 12 25  2  0
 25  2  1  0
 24 19  1  0
M  END
>  <Binding energies>  (23) 
[-6.39]

>  <Ligand effiencies>  (23) 
[-0.24576923076923077]

>  <Interactions>  (23) 
["V-A:TYR:484:CB:4339, V-A:HIS:456:CD2:4066, V-A:TYR:484:CG:4340, V-A:TYR:484:CD1:4341, V-B:LYS:547:CE:9922, V-B:GLY:544:CA:9886, V-B:VAL:542:CG1:9871, H-B:LYS:547:NZ:9923, V-A:GLY:544:C:4910, V-A:HIS:456:CB:4063, V-A:LYS:547:CE:4948, V-A:ASP:473:CG:4238, V-A:HIS:456:CG:4064, V-A:HIS:456:C:4059, V-A:VAL:457:C:4071, V-A:HIS:456:CA:4061, V-A:VAL:458:CG2:4085, V-A:LYS:471:CE:4218, V-A:LYS:547:CD:4947, V-A:LYS:547:CG:4946, H-B:VAL:542:O:9867, V-A:LYS:547:CB:4945, V-A:ARG:545:C:4915, V-A:ARG:545:CA:4917, V-A:VAL:457:CA:4073, V-A:VAL:458:CB:4083"]

$$$$
2h_Grossjean_2025
     RDKit          3D

 31 32  0  0  0  0  0  0  0  0999 V2000
  131.6830  125.9990   74.1710 C   0  0  0  0  0  0  0  0  0  0  0  0
  130.3570  126.2230   73.7060 O   0  0  0  0  0  0  0  0  0  0  0  0
  130.1540  126.6020   72.3910 C   0  0  0  0  0  0  0  0  0  0  0  0
  131.1670  126.6320   71.4190 C   0  0  0  0  0  0  0  0  0  0  0  0
  130.8840  127.0170   70.1110 C   0  0  0  0  0  0  0  0  0  0  0  0
  129.5870  127.3800   69.7430 C   0  0  0  0  0  0  0  0  0  0  0  0
  129.2980  127.7800   68.2970 C   0  0  0  0  0  0  0  0  0  0  0  0
  129.4990  126.6940   67.3370 N   0  0  0  0  0  0  0  0  0  0  0  0
  130.6310  126.4790   66.6440 C   0  0  0  0  0  0  0  0  0  0  0  0
  131.6040  127.2340   66.6870 O   0  0  0  0  0  0  0  0  0  0  0  0
  130.6490  125.2070   65.7840 C   0  0  0  0  0  0  0  0  0  0  0  0
  132.0530  125.0800   64.6260 S   0  0  0  0  0  0  0  0  0  0  0  0
  131.3610  124.8650   63.0010 C   0  0  0  0  0  0  0  0  0  0  0  0
  131.4020  125.9850   62.2380 N   0  0  0  0  0  0  0  0  0  0  0  0
  130.8850  125.9380   60.9900 C   0  0  0  0  0  0  0  0  0  0  0  0
  130.9580  127.2300   60.1970 C   0  0  0  0  0  0  0  0  0  0  0  0
  130.3160  124.7850   60.4540 C   0  0  0  0  0  0  0  0  0  0  0  0
  130.2830  123.6100   61.2210 C   0  0  0  0  0  0  0  0  0  0  0  0
  129.6590  122.3420   60.6070 C   0  0  0  0  0  0  0  0  0  0  0  0
  128.4460  122.1380   61.1220 F   0  0  0  0  0  0  0  0  0  0  0  0
  129.5220  122.4230   59.2820 F   0  0  0  0  0  0  0  0  0  0  0  0
  130.4240  121.2820   60.8680 F   0  0  0  0  0  0  0  0  0  0  0  0
  130.8290  123.6410   62.5300 C   0  0  0  0  0  0  0  0  0  0  0  0
  130.8720  122.4270   63.3490 C   0  0  0  0  0  0  0  0  0  0  0  0
  130.9080  121.4660   63.9920 N   0  0  0  0  0  0  0  0  0  0  0  0
  128.5700  127.3780   70.7090 C   0  0  0  0  0  0  0  0  0  0  0  0
  127.2910  127.7370   70.3560 O   0  0  0  0  0  0  0  0  0  0  0  0
  126.7620  127.0130   69.2530 C   0  0  0  0  0  0  0  0  0  0  0  0
  128.8530  126.9700   72.0240 C   0  0  0  0  0  0  0  0  0  0  0  0
  127.8540  126.9490   72.9690 O   0  0  0  0  0  0  0  0  0  0  0  0
  127.3830  128.2350   73.3460 C   0  0  0  0  0  0  0  0  0  0  0  0
  1  2  1  0
  2  3  1  0
  3  4  2  0
  4  5  1  0
  5  6  2  0
  6  7  1  0
  7  8  1  0
  8  9  1  0
  9 10  2  0
  9 11  1  0
 11 12  1  0
 12 13  1  0
 13 14  2  0
 14 15  1  0
 15 16  1  0
 15 17  2  0
 17 18  1  0
 18 19  1  0
 19 20  1  0
 19 21  1  0
 19 22  1  0
 18 23  2  0
 23 24  1  0
 24 25  3  0
  6 26  1  0
 26 27  1  0
 27 28  1  0
 26 29  2  0
 29 30  1  0
 30 31  1  0
 29  3  1  0
 23 13  1  0
M  END
>  <Binding energies>  (24) 
[-5.93]

>  <Ligand effiencies>  (24) 
[-0.1853125]

>  <Interactions>  (24) 
["V-A:GLU:543:CD:4906, V-A:ASP:366:CG:3211, V-B:GLU:543:CG:9879, V-A:HIS:456:CE1:4068, V-B:TYR:539:CE2:9848, V-B:GLU:543:CD:9880, V-B:GLU:543:CB:9878, V-A:HIS:456:CD2:4066, V-B:LYS:547:CE:9922, V-B:GLU:543:C:9874, V-B:GLY:544:CA:9886, V-B:PRO:540:C:9853, V-B:TYR:539:CD2:9846, V-B:PRO:540:CA:9855, V-B:ALA:541:CB:9864, V-A:LEU:475:CD2:4257, V-B:TYR:539:C:9839, H-B:GLU:543:OE1:9881, H-A:TYR:484:OH:4346, H-A:ARG:545:NH2:4926, H-B:GLU:543:OE2:9882, V-B:HIS:456:CE1:9042, V-B:ARG:545:CG:9894, H-A:ARG:545:NE:4922, V-A:GLU:543:CG:4905, H-B:LYS:547:NZ:9923, V-A:GLY:544:C:4910, H-A:HIS:456:NE2:4069, V-A:GLU:543:C:4900, H-B:GLU:543:O:9875, V-B:HIS:456:CD2:9040, V-B:GLY:544:C:9884, V-A:LYS:547:CE:4948, V-A:HIS:456:CG:4064, V-B:ALA:541:CA:9862, H-B:ARG:545:N:9892, H-B:HIS:456:ND1:9039, V-B:ARG:545:CA:9891"]

$$$$
2i_Grossjean_2025
     RDKit          3D

 23 24  0  0  0  0  0  0  0  0999 V2000
  129.4490  122.1450   73.3010 C   0  0  0  0  0  0  0  0  0  0  0  0
  130.4820  123.2270   73.5620 C   0  0  0  0  0  0  0  0  0  0  0  0
  131.6280  122.9760   74.3120 C   0  0  0  0  0  0  0  0  0  0  0  0
  132.5530  124.0080   74.5230 C   0  0  0  0  0  0  0  0  0  0  0  0
  133.8160  123.7130   75.3550 C   0  0  0  0  0  0  0  0  0  0  0  0
  133.5970  124.0120   76.6370 F   0  0  0  0  0  0  0  0  0  0  0  0
  134.1360  122.4230   75.2600 F   0  0  0  0  0  0  0  0  0  0  0  0
  134.8750  124.4200   74.9540 F   0  0  0  0  0  0  0  0  0  0  0  0
  132.2860  125.2820   73.9600 C   0  0  0  0  0  0  0  0  0  0  0  0
  133.2200  126.3970   74.1490 C   0  0  0  0  0  0  0  0  0  0  0  0
  133.9570  127.2770   74.2970 N   0  0  0  0  0  0  0  0  0  0  0  0
  131.0970  125.4500   73.2150 C   0  0  0  0  0  0  0  0  0  0  0  0
  130.6520  127.0100   72.4680 S   0  0  0  0  0  0  0  0  0  0  0  0
  128.8560  127.0080   72.1820 C   0  0  0  0  0  0  0  0  0  0  0  0
  128.1590  128.1870   72.8640 C   0  0  0  0  0  0  0  0  0  0  0  0
  128.6780  129.3030   72.8090 O   0  0  0  0  0  0  0  0  0  0  0  0
  127.0120  127.8950   73.5140 N   0  0  0  0  0  0  0  0  0  0  0  0
  126.2120  128.7800   74.2180 C   0  0  0  0  0  0  0  0  0  0  0  0
  124.8450  128.7150   74.5240 C   0  0  0  0  0  0  0  0  0  0  0  0
  124.5930  129.8610   75.2430 C   0  0  0  0  0  0  0  0  0  0  0  0
  125.7410  130.5680   75.3680 O   0  0  0  0  0  0  0  0  0  0  0  0
  126.7590  129.8670   74.7180 N   0  0  0  0  0  0  0  0  0  0  0  0
  130.2140  124.4360   73.0210 N   0  0  0  0  0  0  0  0  0  0  0  0
  1  2  1  0
  2  3  2  0
  3  4  1  0
  4  5  1  0
  5  6  1  0
  5  7  1  0
  5  8  1  0
  4  9  2  0
  9 10  1  0
 10 11  3  0
  9 12  1  0
 12 13  1  0
 13 14  1  0
 14 15  1  0
 15 16  2  0
 15 17  1  0
 17 18  1  0
 18 19  1  0
 19 20  2  0
 20 21  1  0
 21 22  1  0
 12 23  2  0
 23  2  1  0
 22 18  2  0
M  END
>  <Binding energies>  (25) 
[-7.23]

>  <Ligand effiencies>  (25) 
[-0.30125]

>  <Interactions>  (25) 
["V-A:HIS:456:CD2:4066, V-B:LYS:547:CE:9922, V-B:HIS:456:CG:9038, H-B:LYS:547:NZ:9923, V-B:VAL:457:C:9045, V-B:VAL:458:CG2:9059, H-A:LYS:547:NZ:4949, V-B:HIS:456:CB:9037, V-B:HIS:456:CA:9035, V-B:HIS:456:C:9033, V-B:HIS:456:CD2:9040, V-B:GLY:544:C:9884, V-A:LYS:471:CD:4217, V-A:HIS:456:CB:4063, V-A:ASP:473:CG:4238, V-A:HIS:456:CG:4064, V-A:HIS:456:C:4059, V-A:VAL:457:C:4071, V-A:LYS:471:CG:4216, V-A:LYS:471:CB:4215, V-A:HIS:456:CA:4061, V-A:VAL:458:CG2:4085, V-A:LYS:471:CE:4218, V-A:LYS:547:CD:4947, H-B:GLY:544:O:9885, V-A:ASP:473:CB:4237, V-A:VAL:457:CA:4073"]

$$$$
2k_Grossjean_2025
     RDKit          3D

 28 28  0  0  0  0  0  0  0  0999 V2000
  124.0740  130.0050   65.7500 C   0  0  0  0  0  0  0  0  0  0  0  0
  124.0820  130.2050   64.3450 O   0  0  0  0  0  0  0  0  0  0  0  0
  124.9000  131.2920   63.9320 C   0  0  0  0  0  0  0  0  0  0  0  0
  126.3640  130.8400   63.8600 C   0  0  0  0  0  0  0  0  0  0  0  0
  126.7890  130.4370   65.1540 O   0  0  0  0  0  0  0  0  0  0  0  0
  127.1990  129.0780   65.2380 C   0  0  0  0  0  0  0  0  0  0  0  0
  126.7640  128.5230   66.6010 C   0  0  0  0  0  0  0  0  0  0  0  0
  127.9340  128.1750   67.3230 O   0  0  0  0  0  0  0  0  0  0  0  0
  128.9580  127.5600   66.5550 C   0  0  0  0  0  0  0  0  0  0  0  0
  129.8490  126.7220   67.4900 C   0  0  0  0  0  0  0  0  0  0  0  0
  129.3940  126.7400   68.8820 N   0  0  0  0  0  0  0  0  0  0  0  0
  130.1180  127.1580   69.9380 C   0  0  0  0  0  0  0  0  0  0  0  0
  131.2600  127.6090   69.8400 O   0  0  0  0  0  0  0  0  0  0  0  0
  129.4380  127.0220   71.3080 C   0  0  0  0  0  0  0  0  0  0  0  0
  130.5430  127.1980   72.7520 S   0  0  0  0  0  0  0  0  0  0  0  0
  131.0310  125.5780   73.3280 C   0  0  0  0  0  0  0  0  0  0  0  0
  130.2000  124.5580   72.9910 N   0  0  0  0  0  0  0  0  0  0  0  0
  130.5050  123.3060   73.3970 C   0  0  0  0  0  0  0  0  0  0  0  0
  129.5220  122.2250   72.9910 C   0  0  0  0  0  0  0  0  0  0  0  0
  131.6460  123.0130   74.1390 C   0  0  0  0  0  0  0  0  0  0  0  0
  132.5240  124.0500   74.4920 C   0  0  0  0  0  0  0  0  0  0  0  0
  133.7850  123.7090   75.3090 C   0  0  0  0  0  0  0  0  0  0  0  0
  134.1600  122.4360   75.1720 F   0  0  0  0  0  0  0  0  0  0  0  0
  134.8050  124.4720   74.9140 F   0  0  0  0  0  0  0  0  0  0  0  0
  133.5610  123.9230   76.6050 F   0  0  0  0  0  0  0  0  0  0  0  0
  132.2120  125.3710   74.0790 C   0  0  0  0  0  0  0  0  0  0  0  0
  133.0910  126.4930   74.4220 C   0  0  0  0  0  0  0  0  0  0  0  0
  133.7860  127.3780   74.6930 N   0  0  0  0  0  0  0  0  0  0  0  0
  1  2  1  0
  2  3  1  0
  3  4  1  0
  4  5  1  0
  5  6  1  0
  6  7  1  0
  7  8  1  0
  8  9  1  0
  9 10  1  0
 10 11  1  0
 11 12  1  0
 12 13  2  0
 12 14  1  0
 14 15  1  0
 15 16  1  0
 16 17  2  0
 17 18  1  0
 18 19  1  0
 18 20  2  0
 20 21  1  0
 21 22  1  0
 22 23  1  0
 22 24  1  0
 22 25  1  0
 21 26  2  0
 26 27  1  0
 27 28  3  0
 26 16  1  0
M  END
>  <Binding energies>  (26) 
[-5.83]

>  <Ligand effiencies>  (26) 
[-0.20103448275862068]

>  <Interactions>  (26) 
["V-A:GLU:543:CD:4906, V-B:GLU:543:CG:9879, V-A:HIS:456:CE1:4068, V-B:GLU:543:CD:9880, V-B:GLU:543:CB:9878, V-A:HIS:456:CD2:4066, V-B:LYS:547:CE:9922, V-B:GLU:543:C:9874, V-B:GLY:454:CA:9021, H-B:GLY:454:N:9022, H-B:TYR:484:OH:9320, V-B:ARG:545:CZ:9898, V-B:HIS:456:CE1:9042, V-B:ARG:545:CG:9894, H-B:ARG:545:NE:9896, V-A:GLU:543:CG:4905, H-B:LYS:547:NZ:9923, H-A:LYS:547:NZ:4949, V-A:GLY:544:C:4910, H-A:HIS:456:NE2:4069, H-B:GLU:543:O:9875, V-A:LYS:471:CD:4217, V-A:HIS:456:CB:4063, V-A:LYS:547:CE:4948, V-A:ASP:473:CG:4238, V-A:HIS:456:CG:4064, V-A:HIS:456:C:4059, V-A:VAL:457:C:4071, V-A:LYS:471:CG:4216, V-A:LYS:471:CB:4215, V-A:HIS:456:CA:4061, H-A:HIS:456:ND1:4065, V-A:VAL:458:CG2:4085, V-A:LYS:471:CE:4218, V-A:LYS:547:CD:4947, V-B:GLY:453:CA:9016, V-B:GLY:453:C:9014, V-B:ARG:545:CD:9895, V-A:LYS:547:CG:4946, H-A:ARG:545:N:4918, V-A:ASP:473:CB:4237, V-A:VAL:457:CA:4073"]

$$$$
3aa_Grossjean_2025
     RDKit          3D

 34 36  0  0  0  0  0  0  0  0999 V2000
  120.4730  117.7570   75.2720 C   0  0  0  0  0  0  0  0  0  0  0  0
  121.6970  118.2100   74.4720 C   0  0  0  0  0  0  0  0  0  0  0  0
  121.6600  119.6230   74.3080 O   0  0  0  0  0  0  0  0  0  0  0  0
  122.1300  120.2070   73.1760 C   0  0  0  0  0  0  0  0  0  0  0  0
  121.4040  120.5590   72.2410 O   0  0  0  0  0  0  0  0  0  0  0  0
  123.6230  120.3690   73.1670 C   0  0  0  0  0  0  0  0  0  0  0  0
  124.3520  120.6100   74.3410 C   0  0  0  0  0  0  0  0  0  0  0  0
  125.7360  120.7510   74.2970 C   0  0  0  0  0  0  0  0  0  0  0  0
  126.4200  120.6480   73.0850 C   0  0  0  0  0  0  0  0  0  0  0  0
  127.8190  120.8020   73.1520 N   0  0  0  0  0  0  0  0  0  0  0  0
  128.6810  121.2610   72.2170 C   0  0  0  0  0  0  0  0  0  0  0  0
  128.3750  121.6200   71.0800 O   0  0  0  0  0  0  0  0  0  0  0  0
  130.1480  121.3120   72.6420 C   0  0  0  0  0  0  0  0  0  0  0  0
  130.3640  122.1810   74.2250 S   0  0  0  0  0  0  0  0  0  0  0  0
  131.0500  123.7800   73.8520 C   0  0  0  0  0  0  0  0  0  0  0  0
  130.2330  124.5610   73.1060 N   0  0  0  0  0  0  0  0  0  0  0  0
  130.6350  125.8080   72.7490 C   0  0  0  0  0  0  0  0  0  0  0  0
  129.6690  126.6160   71.9360 C   0  0  0  0  0  0  0  0  0  0  0  0
  129.8000  126.6960   70.5410 C   0  0  0  0  0  0  0  0  0  0  0  0
  128.9060  127.4440   69.7790 C   0  0  0  0  0  0  0  0  0  0  0  0
  127.8660  128.1230   70.4050 C   0  0  0  0  0  0  0  0  0  0  0  0
  127.7130  128.0580   71.7860 C   0  0  0  0  0  0  0  0  0  0  0  0
  128.6070  127.3080   72.5440 C   0  0  0  0  0  0  0  0  0  0  0  0
  131.8820  126.3020   73.1460 C   0  0  0  0  0  0  0  0  0  0  0  0
  132.7530  125.5040   73.9040 C   0  0  0  0  0  0  0  0  0  0  0  0
  134.1220  126.0800   74.3130 C   0  0  0  0  0  0  0  0  0  0  0  0
  134.9250  125.1670   74.8630 F   0  0  0  0  0  0  0  0  0  0  0  0
  134.7520  126.5710   73.2450 F   0  0  0  0  0  0  0  0  0  0  0  0
  133.9550  127.0590   75.2030 F   0  0  0  0  0  0  0  0  0  0  0  0
  132.3350  124.1990   74.2610 C   0  0  0  0  0  0  0  0  0  0  0  0
  133.2260  123.3010   75.0020 C   0  0  0  0  0  0  0  0  0  0  0  0
  133.9300  122.5920   75.5860 N   0  0  0  0  0  0  0  0  0  0  0  0
  125.6960  120.4200   71.9050 C   0  0  0  0  0  0  0  0  0  0  0  0
  124.3130  120.2820   71.9500 C   0  0  0  0  0  0  0  0  0  0  0  0
  1  2  1  0
  2  3  1  0
  3  4  1  0
  4  5  2  0
  4  6  1  0
  6  7  2  0
  7  8  1  0
  8  9  2  0
  9 10  1  0
 10 11  1  0
 11 12  2  0
 11 13  1  0
 13 14  1  0
 14 15  1  0
 15 16  2  0
 16 17  1  0
 17 18  1  0
 18 19  2  0
 19 20  1  0
 20 21  2  0
 21 22  1  0
 22 23  2  0
 17 24  2  0
 24 25  1  0
 25 26  1  0
 26 27  1  0
 26 28  1  0
 26 29  1  0
 25 30  2  0
 30 31  1  0
 31 32  3  0
  9 33  1  0
 33 34  2  0
 34  6  1  0
 30 15  1  0
 23 18  1  0
M  END
>  <Binding energies>  (27) 
[-8.62]

>  <Ligand effiencies>  (27) 
[-0.24628571428571427]

>  <Interactions>  (27) 
["V-A:HIS:456:CE1:4068, V-A:TYR:484:CB:4339, V-A:HIS:456:CD2:4066, V-A:TYR:484:CG:4340, V-B:ARG:356:CB:8089, V-B:LYS:547:CE:9922, H-B:GLU:357:N:8105, V-B:PHE:548:CE2:9937, V-B:ILE:546:C:9906, V-B:LYS:547:CG:9920, V-B:GLY:544:CA:9886, V-B:VAL:542:CG1:9871, V-B:HIS:456:CE1:9042, V-B:HIS:456:CG:9038, H-B:LYS:547:NZ:9923, V-A:GLY:544:C:4910, V-B:HIS:456:CD2:9040, V-B:GLY:544:C:9884, V-A:LYS:471:CD:4217, V-A:HIS:456:CB:4063, V-A:LYS:547:CE:4948, V-A:ASP:473:CG:4238, V-A:HIS:456:CG:4064, V-A:HIS:456:C:4059, V-A:VAL:457:C:4071, V-A:LYS:471:CG:4216, V-A:HIS:456:CA:4061, V-A:VAL:458:CG2:4085, V-A:LYS:471:CE:4218, V-A:LYS:547:CD:4947, V-A:LYS:547:CG:4946, H-B:GLY:544:N:9887, V-A:LYS:547:CB:4945, V-A:ARG:545:C:4915, V-A:ARG:545:CA:4917, V-B:PHE:548:CD2:9935, V-B:ARG:356:CD:8091, V-A:VAL:457:CA:4073, V-A:VAL:458:CB:4083, V-A:VAL:458:CA:4081"]

$$$$
3ad_Grossjean_2025
     RDKit          3D

 29 31  0  0  0  0  0  0  0  0999 V2000
  133.7650  127.2890   74.2080 N   0  0  0  0  0  0  0  0  0  0  0  0
  133.0040  126.4300   74.0560 C   0  0  0  0  0  0  0  0  0  0  0  0
  132.0410  125.3410   73.8660 C   0  0  0  0  0  0  0  0  0  0  0  0
  132.2300  124.0890   74.5000 C   0  0  0  0  0  0  0  0  0  0  0  0
  133.4110  123.8060   75.4490 C   0  0  0  0  0  0  0  0  0  0  0  0
  133.6370  122.5020   75.6200 F   0  0  0  0  0  0  0  0  0  0  0  0
  134.5280  124.3470   74.9580 F   0  0  0  0  0  0  0  0  0  0  0  0
  133.1680  124.3300   76.6510 F   0  0  0  0  0  0  0  0  0  0  0  0
  131.3050  123.0640   74.2480 C   0  0  0  0  0  0  0  0  0  0  0  0
  130.2250  123.2820   73.3860 C   0  0  0  0  0  0  0  0  0  0  0  0
  129.2160  122.2180   73.0700 C   0  0  0  0  0  0  0  0  0  0  0  0
  128.4490  121.6320   74.0890 C   0  0  0  0  0  0  0  0  0  0  0  0
  127.5100  120.6450   73.8030 C   0  0  0  0  0  0  0  0  0  0  0  0
  127.3250  120.2290   72.4870 C   0  0  0  0  0  0  0  0  0  0  0  0
  128.0710  120.7960   71.4590 C   0  0  0  0  0  0  0  0  0  0  0  0
  129.0090  121.7840   71.7500 C   0  0  0  0  0  0  0  0  0  0  0  0
  130.0520  124.4820   72.7760 N   0  0  0  0  0  0  0  0  0  0  0  0
  130.9200  125.4920   73.0200 C   0  0  0  0  0  0  0  0  0  0  0  0
  130.5310  126.9930   72.1470 S   0  0  0  0  0  0  0  0  0  0  0  0
  128.7200  127.1150   72.0640 C   0  0  0  0  0  0  0  0  0  0  0  0
  128.1880  128.3400   72.8110 C   0  0  0  0  0  0  0  0  0  0  0  0
  128.8310  129.3900   72.7730 O   0  0  0  0  0  0  0  0  0  0  0  0
  127.0230  128.1570   73.4680 N   0  0  0  0  0  0  0  0  0  0  0  0
  126.2660  129.0660   74.2310 C   0  0  0  0  0  0  0  0  0  0  0  0
  124.9480  128.6840   74.4960 C   0  0  0  0  0  0  0  0  0  0  0  0
  124.1110  129.5120   75.2390 C   0  0  0  0  0  0  0  0  0  0  0  0
  124.5900  130.7290   75.7140 C   0  0  0  0  0  0  0  0  0  0  0  0
  125.8990  131.1270   75.4510 C   0  0  0  0  0  0  0  0  0  0  0  0
  126.7390  130.3010   74.7090 C   0  0  0  0  0  0  0  0  0  0  0  0
  1  2  3  0
  2  3  1  0
  3  4  2  0
  4  5  1  0
  5  6  1  0
  5  7  1  0
  5  8  1  0
  4  9  1  0
  9 10  2  0
 10 11  1  0
 11 12  2  0
 12 13  1  0
 13 14  2  0
 14 15  1  0
 15 16  2  0
 10 17  1  0
 17 18  2  0
 18 19  1  0
 19 20  1  0
 20 21  1  0
 21 22  2  0
 21 23  1  0
 23 24  1  0
 24 25  2  0
 25 26  1  0
 26 27  2  0
 27 28  1  0
 28 29  2  0
 18  3  1  0
 29 24  1  0
 16 11  1  0
M  END
>  <Binding energies>  (28) 
[-9.3]

>  <Ligand effiencies>  (28) 
[-0.31]

>  <Interactions>  (28) 
["V-A:TYR:484:CB:4339, V-A:HIS:456:CD2:4066, V-A:TYR:484:CG:4340, V-B:GLU:543:CA:9876, V-B:LYS:547:CE:9922, V-B:GLU:543:C:9874, V-B:GLY:544:CA:9886, V-B:HIS:456:CG:9038, H-B:LYS:547:NZ:9923, V-B:LYS:471:CE:9192, V-B:VAL:457:C:9045, V-B:VAL:458:CG2:9059, H-A:LYS:547:NZ:4949, V-B:HIS:456:CB:9037, V-B:HIS:456:CA:9035, V-B:HIS:456:C:9033, V-B:VAL:457:CA:9047, V-B:HIS:456:CD2:9040, V-B:GLY:544:C:9884, V-B:LYS:471:CG:9190, V-B:LYS:471:CD:9191, V-A:LYS:471:CD:4217, V-A:HIS:456:CB:4063, V-A:LYS:547:CE:4948, V-A:ASP:473:CG:4238, V-A:HIS:456:CG:4064, V-A:HIS:456:C:4059, V-A:VAL:457:C:4071, V-A:LYS:471:CG:4216, V-A:HIS:456:CA:4061, V-A:VAL:458:CG2:4085, V-A:LYS:471:CE:4218, V-A:LYS:547:CD:4947, H-B:GLY:544:O:9885, V-B:ASP:473:CG:9212, V-A:ASP:473:CB:4237, V-A:VAL:457:CA:4073"]

$$$$
3ai_Grossjean_2025
     RDKit          3D

 28 30  0  0  0  0  0  0  0  0999 V2000
  133.8580  127.3790   74.4530 N   0  0  0  0  0  0  0  0  0  0  0  0
  133.1380  126.4940   74.2600 C   0  0  0  0  0  0  0  0  0  0  0  0
  132.2260  125.3730   74.0180 C   0  0  0  0  0  0  0  0  0  0  0  0
  132.5380  124.0720   74.4850 C   0  0  0  0  0  0  0  0  0  0  0  0
  133.8070  123.7640   75.3020 C   0  0  0  0  0  0  0  0  0  0  0  0
  134.8630  124.4800   74.9080 F   0  0  0  0  0  0  0  0  0  0  0  0
  133.5950  124.0350   76.5910 F   0  0  0  0  0  0  0  0  0  0  0  0
  134.1320  122.4770   75.1780 F   0  0  0  0  0  0  0  0  0  0  0  0
  131.6560  123.0230   74.1850 C   0  0  0  0  0  0  0  0  0  0  0  0
  130.4970  123.2630   73.4390 C   0  0  0  0  0  0  0  0  0  0  0  0
  129.5260  122.1790   73.0810 C   0  0  0  0  0  0  0  0  0  0  0  0
  129.0520  122.0480   71.7650 C   0  0  0  0  0  0  0  0  0  0  0  0
  128.1530  121.0410   71.4240 C   0  0  0  0  0  0  0  0  0  0  0  0
  127.7170  120.1470   72.3970 C   0  0  0  0  0  0  0  0  0  0  0  0
  128.1740  120.2530   73.7060 C   0  0  0  0  0  0  0  0  0  0  0  0
  129.0730  121.2620   74.0440 C   0  0  0  0  0  0  0  0  0  0  0  0
  130.2070  124.5100   72.9860 N   0  0  0  0  0  0  0  0  0  0  0  0
  131.0310  125.5440   73.2830 C   0  0  0  0  0  0  0  0  0  0  0  0
  130.4770  127.1030   72.6260 S   0  0  0  0  0  0  0  0  0  0  0  0
  128.6590  127.0370   72.4850 C   0  0  0  0  0  0  0  0  0  0  0  0
  127.9140  128.2110   73.1390 C   0  0  0  0  0  0  0  0  0  0  0  0
  128.3790  129.3530   73.0990 O   0  0  0  0  0  0  0  0  0  0  0  0
  126.7500  127.8760   73.7380 N   0  0  0  0  0  0  0  0  0  0  0  0
  125.8700  128.7240   74.3990 C   0  0  0  0  0  0  0  0  0  0  0  0
  126.2780  129.8790   75.0630 C   0  0  0  0  0  0  0  0  0  0  0  0
  125.1250  130.4240   75.5780 C   0  0  0  0  0  0  0  0  0  0  0  0
  124.0750  129.6390   75.2400 O   0  0  0  0  0  0  0  0  0  0  0  0
  124.5600  128.5640   74.4920 N   0  0  0  0  0  0  0  0  0  0  0  0
  1  2  3  0
  2  3  1  0
  3  4  2  0
  4  5  1  0
  5  6  1  0
  5  7  1  0
  5  8  1  0
  4  9  1  0
  9 10  2  0
 10 11  1  0
 11 12  2  0
 12 13  1  0
 13 14  2  0
 14 15  1  0
 15 16  2  0
 10 17  1  0
 17 18  2  0
 18 19  1  0
 19 20  1  0
 20 21  1  0
 21 22  2  0
 21 23  1  0
 23 24  1  0
 24 25  1  0
 25 26  2  0
 26 27  1  0
 27 28  1  0
 18  3  1  0
 28 24  2  0
 16 11  1  0
M  END
>  <Binding energies>  (29) 
[-8.76]

>  <Ligand effiencies>  (29) 
[-0.3020689655172414]

>  <Interactions>  (29) 
["V-A:TYR:484:CB:4339, V-A:HIS:456:CD2:4066, V-A:TYR:484:CG:4340, V-A:TYR:484:CD1:4341, V-B:GLU:543:CA:9876, V-B:LYS:547:CE:9922, V-B:GLU:543:C:9874, V-B:GLY:544:CA:9886, H-B:LYS:547:NZ:9923, V-B:LYS:471:CE:9192, H-B:VAL:457:N:9048, V-B:VAL:458:CG2:9059, H-A:LYS:547:NZ:4949, V-B:HIS:456:CB:9037, V-B:HIS:456:C:9033, V-B:HIS:456:CD2:9040, V-B:GLY:544:C:9884, V-A:LYS:471:CD:4217, V-A:HIS:456:CB:4063, V-A:LYS:547:CE:4948, V-A:ASP:473:CG:4238, V-A:HIS:456:CG:4064, V-A:HIS:456:C:4059, V-A:VAL:457:C:4071, V-A:LYS:471:CG:4216, V-A:LYS:471:CB:4215, V-A:HIS:456:CA:4061, V-A:VAL:458:CG2:4085, V-A:LYS:471:CE:4218, V-A:LYS:547:CD:4947, H-B:GLY:544:O:9885, V-A:LYS:547:CG:4946, V-B:LYS:547:CD:9921, V-A:ASP:473:CB:4237, V-A:VAL:457:CA:4073"]

$$$$
3aj_Grossjean_2025
     RDKit          3D

 28 30  0  0  0  0  0  0  0  0999 V2000
  133.7370  127.3480   74.2750 N   0  0  0  0  0  0  0  0  0  0  0  0
  133.0030  126.4700   74.1030 C   0  0  0  0  0  0  0  0  0  0  0  0
  132.0740  125.3570   73.8860 C   0  0  0  0  0  0  0  0  0  0  0  0
  132.3030  124.0960   74.4890 C   0  0  0  0  0  0  0  0  0  0  0  0
  133.4940  123.8270   75.4290 C   0  0  0  0  0  0  0  0  0  0  0  0
  134.6280  124.3850   74.9990 F   0  0  0  0  0  0  0  0  0  0  0  0
  133.2380  124.3180   76.6420 F   0  0  0  0  0  0  0  0  0  0  0  0
  133.7080  122.5150   75.5310 F   0  0  0  0  0  0  0  0  0  0  0  0
  131.4100  123.0490   74.2120 C   0  0  0  0  0  0  0  0  0  0  0  0
  130.3240  123.2540   73.3550 C   0  0  0  0  0  0  0  0  0  0  0  0
  129.3470  122.1690   73.0180 C   0  0  0  0  0  0  0  0  0  0  0  0
  129.0290  121.8820   71.6810 C   0  0  0  0  0  0  0  0  0  0  0  0
  128.1240  120.8720   71.3600 C   0  0  0  0  0  0  0  0  0  0  0  0
  127.5240  120.1350   72.3760 C   0  0  0  0  0  0  0  0  0  0  0  0
  127.8240  120.3990   73.7090 C   0  0  0  0  0  0  0  0  0  0  0  0
  128.7290  121.4080   74.0240 C   0  0  0  0  0  0  0  0  0  0  0  0
  130.1130  124.4620   72.7730 N   0  0  0  0  0  0  0  0  0  0  0  0
  130.9470  125.4950   73.0440 C   0  0  0  0  0  0  0  0  0  0  0  0
  130.5020  127.0040   72.2110 S   0  0  0  0  0  0  0  0  0  0  0  0
  128.6830  127.1420   72.2390 C   0  0  0  0  0  0  0  0  0  0  0  0
  128.1350  128.3630   72.9920 C   0  0  0  0  0  0  0  0  0  0  0  0
  128.7440  129.4360   72.9830 O   0  0  0  0  0  0  0  0  0  0  0  0
  126.9670  128.1500   73.6380 N   0  0  0  0  0  0  0  0  0  0  0  0
  126.2520  129.0770   74.3850 C   0  0  0  0  0  0  0  0  0  0  0  0
  126.6810  130.2180   74.8810 N   0  0  0  0  0  0  0  0  0  0  0  0
  125.7280  130.8510   75.5370 C   0  0  0  0  0  0  0  0  0  0  0  0
  124.4890  130.2180   75.5840 C   0  0  0  0  0  0  0  0  0  0  0  0
  124.5900  128.7140   74.7200 S   0  0  0  0  0  0  0  0  0  0  0  0
  1  2  3  0
  2  3  1  0
  3  4  2  0
  4  5  1  0
  5  6  1  0
  5  7  1  0
  5  8  1  0
  4  9  1  0
  9 10  2  0
 10 11  1  0
 11 12  2  0
 12 13  1  0
 13 14  2  0
 14 15  1  0
 15 16  2  0
 10 17  1  0
 17 18  2  0
 18 19  1  0
 19 20  1  0
 20 21  1  0
 21 22  2  0
 21 23  1  0
 23 24  1  0
 24 25  2  0
 25 26  1  0
 26 27  2  0
 27 28  1  0
 18  3  1  0
 28 24  1  0
 16 11  1  0
M  END
>  <Binding energies>  (30) 
[-8.93]

>  <Ligand effiencies>  (30) 
[-0.3079310344827586]

>  <Interactions>  (30) 
["V-A:TYR:484:CB:4339, V-A:HIS:456:CD2:4066, V-A:TYR:484:CG:4340, V-A:TYR:484:CD1:4341, V-B:GLU:543:CA:9876, V-B:LYS:547:CE:9922, V-B:GLU:543:C:9874, V-B:GLY:544:CA:9886, V-B:HIS:456:CG:9038, H-B:LYS:547:NZ:9923, V-B:LYS:471:CE:9192, V-B:VAL:457:C:9045, V-B:VAL:458:CG2:9059, H-A:LYS:547:NZ:4949, V-B:HIS:456:CB:9037, V-B:HIS:456:CA:9035, V-B:HIS:456:C:9033, V-B:HIS:456:CD2:9040, V-B:GLY:544:C:9884, V-B:LYS:471:CD:9191, V-A:LYS:471:CD:4217, V-A:HIS:456:CB:4063, V-A:LYS:547:CE:4948, V-A:ASP:473:CG:4238, V-A:HIS:456:CG:4064, V-A:HIS:456:C:4059, V-A:VAL:457:C:4071, V-A:LYS:471:CG:4216, V-A:HIS:456:CA:4061, V-A:VAL:458:CG2:4085, V-A:LYS:471:CE:4218, V-A:LYS:547:CD:4947, H-B:GLY:544:O:9885, V-A:ASP:473:CB:4237, V-A:VAL:457:CA:4073"]

$$$$
3ak_Grossjean_2025
     RDKit          3D

 33 34  0  0  0  0  0  0  0  0999 V2000
  126.3780  133.0010   62.9810 C   0  0  0  0  0  0  0  0  0  0  0  0
  124.9880  132.7150   62.9680 O   0  0  0  0  0  0  0  0  0  0  0  0
  124.6260  131.7150   62.0260 C   0  0  0  0  0  0  0  0  0  0  0  0
  124.0370  130.5130   62.7740 C   0  0  0  0  0  0  0  0  0  0  0  0
  124.4800  130.5480   64.1260 O   0  0  0  0  0  0  0  0  0  0  0  0
  125.8040  130.0710   64.3510 C   0  0  0  0  0  0  0  0  0  0  0  0
  125.9530  129.2380   65.6380 C   0  0  0  0  0  0  0  0  0  0  0  0
  127.2900  128.7660   65.7370 O   0  0  0  0  0  0  0  0  0  0  0  0
  127.8780  128.9680   67.0160 C   0  0  0  0  0  0  0  0  0  0  0  0
  128.7130  127.7380   67.4160 C   0  0  0  0  0  0  0  0  0  0  0  0
  128.5620  127.3600   68.8220 N   0  0  0  0  0  0  0  0  0  0  0  0
  129.5600  127.2250   69.7160 C   0  0  0  0  0  0  0  0  0  0  0  0
  130.7410  127.4320   69.4330 O   0  0  0  0  0  0  0  0  0  0  0  0
  129.2160  126.7960   71.1520 C   0  0  0  0  0  0  0  0  0  0  0  0
  130.5030  127.0830   72.4220 S   0  0  0  0  0  0  0  0  0  0  0  0
  130.9680  125.5120   73.1330 C   0  0  0  0  0  0  0  0  0  0  0  0
  130.1240  124.4810   72.8800 N   0  0  0  0  0  0  0  0  0  0  0  0
  130.3880  123.2490   73.3820 C   0  0  0  0  0  0  0  0  0  0  0  0
  129.4030  122.1670   73.0520 C   0  0  0  0  0  0  0  0  0  0  0  0
  128.8500  121.3660   74.0630 C   0  0  0  0  0  0  0  0  0  0  0  0
  127.9320  120.3640   73.7620 C   0  0  0  0  0  0  0  0  0  0  0  0
  127.5520  120.1490   72.4410 C   0  0  0  0  0  0  0  0  0  0  0  0
  128.0820  120.9300   71.4210 C   0  0  0  0  0  0  0  0  0  0  0  0
  129.0000  121.9330   71.7250 C   0  0  0  0  0  0  0  0  0  0  0  0
  131.5350  123.0180   74.1500 C   0  0  0  0  0  0  0  0  0  0  0  0
  132.4250  124.0660   74.4260 C   0  0  0  0  0  0  0  0  0  0  0  0
  133.6760  123.7740   75.2780 C   0  0  0  0  0  0  0  0  0  0  0  0
  134.0270  122.4950   75.1500 F   0  0  0  0  0  0  0  0  0  0  0  0
  134.6900  124.5430   74.8790 F   0  0  0  0  0  0  0  0  0  0  0  0
  133.4840  124.0100   76.5780 F   0  0  0  0  0  0  0  0  0  0  0  0
  132.1380  125.3520   73.9070 C   0  0  0  0  0  0  0  0  0  0  0  0
  133.0320  126.4850   74.1640 C   0  0  0  0  0  0  0  0  0  0  0  0
  133.7380  127.3810   74.3670 N   0  0  0  0  0  0  0  0  0  0  0  0
  1  2  1  0
  2  3  1  0
  3  4  1  0
  4  5  1  0
  5  6  1  0
  6  7  1  0
  7  8  1  0
  8  9  1  0
  9 10  1  0
 10 11  1  0
 11 12  1  0
 12 13  2  0
 12 14  1  0
 14 15  1  0
 15 16  1  0
 16 17  2  0
 17 18  1  0
 18 19  1  0
 19 20  2  0
 20 21  1  0
 21 22  2  0
 22 23  1  0
 23 24  2  0
 18 25  2  0
 25 26  1  0
 26 27  1  0
 27 28  1  0
 27 29  1  0
 27 30  1  0
 26 31  2  0
 31 32  1  0
 32 33  3  0
 31 16  1  0
 24 19  1  0
M  END
>  <Binding energies>  (31) 
[-7.34]

>  <Ligand effiencies>  (31) 
[-0.21588235294117647]

>  <Interactions>  (31) 
["V-A:GLU:543:CD:4906, V-B:GLU:543:CG:9879, V-A:HIS:456:CE1:4068, V-B:GLU:543:CD:9880, V-A:TYR:484:CB:4339, V-A:HIS:456:CD2:4066, V-A:TYR:484:CG:4340, V-A:TYR:484:CD1:4341, V-B:GLU:543:CA:9876, V-B:LYS:547:CE:9922, V-B:GLU:543:C:9874, V-B:GLY:544:CA:9886, V-B:LEU:475:CD2:9231, V-A:ALA:541:CB:4890, H-B:GLY:454:N:9022, H-B:TYR:484:OH:9320, V-B:ARG:545:CZ:9898, V-A:GLU:543:CB:4904, V-B:HIS:456:CE1:9042, V-B:ARG:545:CG:9894, V-A:GLU:543:CG:4905, H-B:LYS:547:NZ:9923, H-B:GLU:543:O:9875, V-A:LYS:471:CD:4217, V-A:HIS:456:CB:4063, V-A:LYS:547:CE:4948, V-A:ASP:473:CG:4238, V-A:HIS:456:CG:4064, V-A:HIS:456:C:4059, V-A:VAL:457:C:4071, V-A:LYS:471:CG:4216, V-A:LYS:471:CB:4215, V-A:HIS:456:CA:4061, V-A:VAL:458:CG2:4085, H-B:HIS:456:NE2:9043, V-A:LYS:471:CE:4218, V-A:LYS:547:CD:4947, V-B:GLY:453:CA:9016, V-B:ARG:545:CD:9895, V-A:LYS:547:CG:4946, H-A:ARG:545:N:4918, V-A:ASP:473:CB:4237, V-A:VAL:457:CA:4073"]

$$$$
3bk_Grossjean_2025
     RDKit          3D

 30 31  0  0  0  0  0  0  0  0999 V2000
  131.6450  122.3330   63.0820 C   0  0  0  0  0  0  0  0  0  0  0  0
  133.0540  122.4960   63.0480 O   0  0  0  0  0  0  0  0  0  0  0  0
  133.5130  123.2130   61.9100 C   0  0  0  0  0  0  0  0  0  0  0  0
  133.7960  124.6710   62.2980 C   0  0  0  0  0  0  0  0  0  0  0  0
  133.5640  124.8410   63.6890 O   0  0  0  0  0  0  0  0  0  0  0  0
  132.3170  125.4530   63.9920 C   0  0  0  0  0  0  0  0  0  0  0  0
  132.0750  125.3880   65.5050 C   0  0  0  0  0  0  0  0  0  0  0  0
  131.2860  126.5000   65.9050 O   0  0  0  0  0  0  0  0  0  0  0  0
  130.1220  126.1440   66.6410 C   0  0  0  0  0  0  0  0  0  0  0  0
  129.6400  127.3560   67.4520 C   0  0  0  0  0  0  0  0  0  0  0  0
  129.2700  126.9980   68.8220 N   0  0  0  0  0  0  0  0  0  0  0  0
  130.0500  127.1490   69.9060 C   0  0  0  0  0  0  0  0  0  0  0  0
  131.1820  127.6340   69.8720 O   0  0  0  0  0  0  0  0  0  0  0  0
  129.4510  126.7070   71.2440 C   0  0  0  0  0  0  0  0  0  0  0  0
  130.6040  126.9760   72.6280 S   0  0  0  0  0  0  0  0  0  0  0  0
  131.1050  125.3920   73.2820 C   0  0  0  0  0  0  0  0  0  0  0  0
  130.2850  124.3480   73.0020 N   0  0  0  0  0  0  0  0  0  0  0  0
  130.5850  123.1050   73.4620 C   0  0  0  0  0  0  0  0  0  0  0  0
  129.6380  122.0050   73.0900 C   0  0  0  0  0  0  0  0  0  0  0  0
  129.0270  121.9800   71.8250 C   0  0  0  0  0  0  0  0  0  0  0  0
  128.1420  120.9640   71.4770 C   0  0  0  0  0  0  0  0  0  0  0  0
  127.8540  119.9550   72.3890 C   0  0  0  0  0  0  0  0  0  0  0  0
  128.4490  119.9530   73.6470 C   0  0  0  0  0  0  0  0  0  0  0  0
  129.3350  120.9700   73.9920 C   0  0  0  0  0  0  0  0  0  0  0  0
  131.7400  122.8800   74.2210 C   0  0  0  0  0  0  0  0  0  0  0  0
  132.5970  123.9460   74.5200 C   0  0  0  0  0  0  0  0  0  0  0  0
  133.8450  123.6570   75.3510 C   0  0  0  0  0  0  0  0  0  0  0  0
  132.2830  125.2370   74.0450 C   0  0  0  0  0  0  0  0  0  0  0  0
  133.1630  126.3710   74.3410 C   0  0  0  0  0  0  0  0  0  0  0  0
  133.8570  127.2670   74.5750 N   0  0  0  0  0  0  0  0  0  0  0  0
  1  2  1  0
  2  3  1  0
  3  4  1  0
  4  5  1  0
  5  6  1  0
  6  7  1  0
  7  8  1  0
  8  9  1  0
  9 10  1  0
 10 11  1  0
 11 12  1  0
 12 13  2  0
 12 14  1  0
 14 15  1  0
 15 16  1  0
 16 17  2  0
 17 18  1  0
 18 19  1  0
 19 20  2  0
 20 21  1  0
 21 22  2  0
 22 23  1  0
 23 24  2  0
 18 25  2  0
 25 26  1  0
 26 27  1  0
 26 28  2  0
 28 29  1  0
 29 30  3  0
 28 16  1  0
 24 19  1  0
M  END
>  <Binding energies>  (32) 
[-8.5]

>  <Ligand effiencies>  (32) 
[-0.27419354838709675]

>  <Interactions>  (32) 
["H-A:GLY:454:N:4048, V-A:GLU:543:CD:4906, V-B:GLU:543:CG:9879, V-A:HIS:456:CE1:4068, V-A:ARG:545:CD:4921, V-A:GLY:453:CA:4042, V-A:ILE:369:CD1:3237, V-A:ARG:545:CG:4920, V-B:GLU:543:CD:9880, V-B:GLU:543:CB:9878, V-A:ARG:545:CZ:4924, V-A:GLY:454:CA:4047, V-A:TYR:484:CB:4339, V-A:HIS:456:CD2:4066, V-A:TYR:484:CG:4340, V-B:GLU:543:CA:9876, V-B:LYS:547:CE:9922, V-B:GLU:543:C:9874, V-B:GLY:544:CA:9886, V-A:LEU:475:CD2:4257, H-A:TYR:484:OH:4346, H-A:ARG:545:NH2:4926, H-A:ARG:545:NE:4922, V-A:GLU:543:CG:4905, H-B:LYS:547:NZ:9923, V-A:GLY:544:C:4910, H-B:GLU:543:O:9875, V-A:LYS:471:CD:4217, V-A:HIS:456:CB:4063, V-A:ASP:473:CG:4238, V-A:HIS:456:CG:4064, V-A:HIS:456:C:4059, V-A:LYS:471:CG:4216, H-A:HIS:456:ND1:4065, V-A:VAL:458:CG2:4085, V-A:LYS:471:CE:4218, V-A:LYS:547:CD:4947, V-A:GLY:453:C:4040, H-A:ARG:545:N:4918"]

$$$$
3cb_Grossjean_2025
     RDKit          3D

 30 32  0  0  0  0  0  0  0  0999 V2000
  126.5830  128.2000   74.2800 C   0  0  0  0  0  0  0  0  0  0  0  0
  127.8760  128.0160   73.7220 O   0  0  0  0  0  0  0  0  0  0  0  0
  128.3770  128.8940   72.8150 C   0  0  0  0  0  0  0  0  0  0  0  0
  128.5310  130.0970   73.0440 O   0  0  0  0  0  0  0  0  0  0  0  0
  128.7250  128.2540   71.5000 C   0  0  0  0  0  0  0  0  0  0  0  0
  127.7520  127.9700   70.5310 C   0  0  0  0  0  0  0  0  0  0  0  0
  128.1080  127.3800   69.3220 C   0  0  0  0  0  0  0  0  0  0  0  0
  129.4400  127.0560   69.0570 C   0  0  0  0  0  0  0  0  0  0  0  0
  129.6880  126.4650   67.8020 N   0  0  0  0  0  0  0  0  0  0  0  0
  130.6620  126.7180   66.9010 C   0  0  0  0  0  0  0  0  0  0  0  0
  131.5610  127.5470   67.0490 O   0  0  0  0  0  0  0  0  0  0  0  0
  130.5930  125.8580   65.6300 C   0  0  0  0  0  0  0  0  0  0  0  0
  132.1120  125.8570   64.6170 S   0  0  0  0  0  0  0  0  0  0  0  0
  131.8710  124.7140   63.2740 C   0  0  0  0  0  0  0  0  0  0  0  0
  132.8480  123.7800   63.1780 N   0  0  0  0  0  0  0  0  0  0  0  0
  132.7700  122.8570   62.1940 C   0  0  0  0  0  0  0  0  0  0  0  0
  133.8910  121.8370   62.1550 C   0  0  0  0  0  0  0  0  0  0  0  0
  131.7270  122.8320   61.2720 C   0  0  0  0  0  0  0  0  0  0  0  0
  130.7130  123.7960   61.3420 C   0  0  0  0  0  0  0  0  0  0  0  0
  129.6190  123.7300   60.3250 C   0  0  0  0  0  0  0  0  0  0  0  0
  129.9220  123.7990   58.9600 C   0  0  0  0  0  0  0  0  0  0  0  0
  128.9100  123.7270   58.0050 C   0  0  0  0  0  0  0  0  0  0  0  0
  127.5870  123.5810   58.4140 C   0  0  0  0  0  0  0  0  0  0  0  0
  127.2690  123.5020   59.7660 C   0  0  0  0  0  0  0  0  0  0  0  0
  128.2830  123.5730   60.7190 C   0  0  0  0  0  0  0  0  0  0  0  0
  130.7890  124.7800   62.3610 C   0  0  0  0  0  0  0  0  0  0  0  0
  129.8080  125.8680   62.4250 C   0  0  0  0  0  0  0  0  0  0  0  0
  129.0340  126.7260   62.4750 N   0  0  0  0  0  0  0  0  0  0  0  0
  130.4200  127.3400   70.0200 C   0  0  0  0  0  0  0  0  0  0  0  0
  130.0620  127.9320   71.2290 C   0  0  0  0  0  0  0  0  0  0  0  0
  1  2  1  0
  2  3  1  0
  3  4  2  0
  3  5  1  0
  5  6  2  0
  6  7  1  0
  7  8  2  0
  8  9  1  0
  9 10  1  0
 10 11  2  0
 10 12  1  0
 12 13  1  0
 13 14  1  0
 14 15  2  0
 15 16  1  0
 16 17  1  0
 16 18  2  0
 18 19  1  0
 19 20  1  0
 20 21  2  0
 21 22  1  0
 22 23  2  0
 23 24  1  0
 24 25  2  0
 19 26  2  0
 26 27  1  0
 27 28  3  0
  8 29  1  0
 29 30  2  0
 30  5  1  0
 26 14  1  0
 25 20  1  0
M  END
>  <Binding energies>  (33) 
[-8.27]

>  <Ligand effiencies>  (33) 
[-0.2667741935483871]

>  <Interactions>  (33) 
["H-A:GLY:454:N:4048, V-A:GLU:543:CD:4906, V-B:GLU:543:CG:9879, V-A:HIS:456:CE1:4068, V-B:TYR:539:CE2:9848, V-A:ILE:369:CD1:3237, V-A:ARG:545:CG:4920, V-B:GLU:543:CD:9880, V-B:GLU:543:CB:9878, V-A:GLY:454:CA:4047, V-A:HIS:456:CD2:4066, V-B:LYS:547:CE:9922, V-B:GLU:543:C:9874, V-B:TYR:539:CD2:9846, V-B:PRO:540:N:9856, V-B:PRO:540:CA:9855, V-A:LEU:475:CD2:4257, V-B:TYR:539:C:9839, H-A:TYR:484:OH:4346, H-A:ARG:545:NH2:4926, H-B:GLU:543:OE2:9882, V-B:HIS:456:CE1:9042, H-A:ARG:545:NE:4922, V-A:GLU:543:CG:4905, V-B:HIS:456:CG:9038, H-B:LYS:547:NZ:9923, H-A:LYS:547:NZ:4949, V-A:GLY:544:C:4910, H-A:HIS:456:NE2:4069, V-A:GLU:543:C:4900, H-B:GLU:543:O:9875, V-B:HIS:456:CD2:9040, V-B:GLY:544:C:9884, V-A:LYS:547:CE:4948, V-A:GLY:544:CA:4912, V-B:LYS:547:CD:9921"]

$$$$
3ch_Grossjean_2025
     RDKit          3D

 32 34  0  0  0  0  0  0  0  0999 V2000
  129.5360  123.7830   72.6040 C   0  0  0  0  0  0  0  0  0  0  0  0
  130.2580  125.0030   72.7400 O   0  0  0  0  0  0  0  0  0  0  0  0
  129.7780  126.1500   72.1340 C   0  0  0  0  0  0  0  0  0  0  0  0
  129.7080  126.3330   70.7430 C   0  0  0  0  0  0  0  0  0  0  0  0
  129.2000  127.5220   70.1990 C   0  0  0  0  0  0  0  0  0  0  0  0
  129.0860  127.7950   68.8230 N   0  0  0  0  0  0  0  0  0  0  0  0
  128.0520  127.5710   67.9820 C   0  0  0  0  0  0  0  0  0  0  0  0
  126.9700  127.0750   68.2970 O   0  0  0  0  0  0  0  0  0  0  0  0
  128.2670  128.0220   66.5380 C   0  0  0  0  0  0  0  0  0  0  0  0
  126.8120  128.8740   65.8610 S   0  0  0  0  0  0  0  0  0  0  0  0
  127.0660  128.9640   64.1020 C   0  0  0  0  0  0  0  0  0  0  0  0
  128.2410  128.4280   63.6880 N   0  0  0  0  0  0  0  0  0  0  0  0
  128.5340  128.4530   62.3680 C   0  0  0  0  0  0  0  0  0  0  0  0
  129.8650  127.8430   61.9750 C   0  0  0  0  0  0  0  0  0  0  0  0
  127.6780  129.0090   61.4200 C   0  0  0  0  0  0  0  0  0  0  0  0
  126.4550  129.5610   61.8270 C   0  0  0  0  0  0  0  0  0  0  0  0
  125.5730  130.1540   60.7760 C   0  0  0  0  0  0  0  0  0  0  0  0
  125.6170  129.6670   59.4640 C   0  0  0  0  0  0  0  0  0  0  0  0
  124.8050  130.2210   58.4780 C   0  0  0  0  0  0  0  0  0  0  0  0
  123.9460  131.2690   58.8000 C   0  0  0  0  0  0  0  0  0  0  0  0
  123.8960  131.7690   60.0980 C   0  0  0  0  0  0  0  0  0  0  0  0
  124.7110  131.2140   61.0820 C   0  0  0  0  0  0  0  0  0  0  0  0
  126.1250  129.5240   63.2060 C   0  0  0  0  0  0  0  0  0  0  0  0
  124.8210  130.0010   63.6760 C   0  0  0  0  0  0  0  0  0  0  0  0
  123.7920  130.3780   64.0480 N   0  0  0  0  0  0  0  0  0  0  0  0
  128.7810  128.5380   71.0600 C   0  0  0  0  0  0  0  0  0  0  0  0
  128.8430  128.3800   72.4530 C   0  0  0  0  0  0  0  0  0  0  0  0
  128.4360  129.3440   73.3590 O   0  0  0  0  0  0  0  0  0  0  0  0
  127.0860  129.3570   73.8100 C   0  0  0  0  0  0  0  0  0  0  0  0
  129.3460  127.1820   72.9770 C   0  0  0  0  0  0  0  0  0  0  0  0
  129.3960  127.0080   74.3400 O   0  0  0  0  0  0  0  0  0  0  0  0
  130.7080  126.8170   74.8520 C   0  0  0  0  0  0  0  0  0  0  0  0
  1  2  1  0
  2  3  1  0
  3  4  2  0
  4  5  1  0
  5  6  1  0
  6  7  1  0
  7  8  2  0
  7  9  1  0
  9 10  1  0
 10 11  1  0
 11 12  2  0
 12 13  1  0
 13 14  1  0
 13 15  2  0
 15 16  1  0
 16 17  1  0
 17 18  2  0
 18 19  1  0
 19 20  2  0
 20 21  1  0
 21 22  2  0
 16 23  2  0
 23 24  1  0
 24 25  3  0
  5 26  2  0
 26 27  1  0
 27 28  1  0
 28 29  1  0
 27 30  2  0
 30 31  1  0
 31 32  1  0
 30  3  1  0
 23 11  1  0
 22 17  1  0
M  END
>  <Binding energies>  (34) 
[-7.23]

>  <Ligand effiencies>  (34) 
[-0.21909090909090911]

>  <Interactions>  (34) 
["V-A:GLU:543:CD:4906, V-B:GLU:543:CG:9879, V-A:HIS:456:CE1:4068, V-B:GLU:543:CD:9880, V-A:HIS:456:CD2:4066, V-B:LYS:547:CE:9922, V-B:GLU:543:C:9874, V-B:GLY:544:CA:9886, V-B:ASP:366:CB:8184, V-B:ASP:366:CG:8185, V-A:TYR:539:CE2:4874, H-B:ARG:545:NH1:9899, H-B:GLY:454:N:9022, H-B:TYR:484:OH:9320, V-B:ARG:545:CZ:9898, V-A:GLU:543:CB:4904, V-B:ILE:369:CD1:8211, V-B:ILE:369:CG2:8209, V-A:TYR:539:CZ:4875, V-B:HIS:456:CE1:9042, V-B:ASP:366:CA:8182, V-A:GLU:543:CG:4905, V-B:HIS:456:CG:9038, H-B:LYS:547:NZ:9923, H-A:LYS:547:NZ:4949, V-B:HIS:456:CB:9037, V-A:GLU:543:C:4900, V-B:HIS:456:CD2:9040, V-A:LYS:547:CE:4948, V-A:HIS:456:CG:4064, H-A:GLU:543:O:4901, V-A:LYS:547:CD:4947, H-B:ARG:545:N:9892"]

$$$$
3ci_Grossjean_2025
     RDKit          3D

 25 27  0  0  0  0  0  0  0  0999 V2000
  130.8880  119.5110   60.9710 C   0  0  0  0  0  0  0  0  0  0  0  0
  130.5890  120.9180   60.4880 C   0  0  0  0  0  0  0  0  0  0  0  0
  129.3190  121.4760   60.6030 C   0  0  0  0  0  0  0  0  0  0  0  0
  129.0950  122.7860   60.1580 C   0  0  0  0  0  0  0  0  0  0  0  0
  127.7200  123.3490   60.3150 C   0  0  0  0  0  0  0  0  0  0  0  0
  127.2000  123.6270   61.5860 C   0  0  0  0  0  0  0  0  0  0  0  0
  125.9150  124.1430   61.7280 C   0  0  0  0  0  0  0  0  0  0  0  0
  125.1390  124.3770   60.5970 C   0  0  0  0  0  0  0  0  0  0  0  0
  125.6370  124.0980   59.3260 C   0  0  0  0  0  0  0  0  0  0  0  0
  126.9230  123.5830   59.1880 C   0  0  0  0  0  0  0  0  0  0  0  0
  130.1810  123.5000   59.5900 C   0  0  0  0  0  0  0  0  0  0  0  0
  129.9970  124.8580   59.0680 C   0  0  0  0  0  0  0  0  0  0  0  0
  129.8500  125.9310   58.6570 N   0  0  0  0  0  0  0  0  0  0  0  0
  131.4410  122.8590   59.5160 C   0  0  0  0  0  0  0  0  0  0  0  0
  132.8830  123.6720   58.8390 S   0  0  0  0  0  0  0  0  0  0  0  0
  134.2130  123.6900   60.0860 C   0  0  0  0  0  0  0  0  0  0  0  0
  133.6950  123.6400   61.5280 C   0  0  0  0  0  0  0  0  0  0  0  0
  133.4440  122.5480   62.0400 O   0  0  0  0  0  0  0  0  0  0  0  0
  133.5360  124.8370   62.1350 N   0  0  0  0  0  0  0  0  0  0  0  0
  133.1130  125.0700   63.4370 C   0  0  0  0  0  0  0  0  0  0  0  0
  131.7780  125.2920   63.7740 C   0  0  0  0  0  0  0  0  0  0  0  0
  131.7800  125.4800   65.1370 C   0  0  0  0  0  0  0  0  0  0  0  0
  133.0500  125.3760   65.5960 O   0  0  0  0  0  0  0  0  0  0  0  0
  133.8860  125.1170   64.5090 N   0  0  0  0  0  0  0  0  0  0  0  0
  131.6330  121.5880   59.9530 N   0  0  0  0  0  0  0  0  0  0  0  0
  1  2  1  0
  2  3  2  0
  3  4  1  0
  4  5  1  0
  5  6  2  0
  6  7  1  0
  7  8  2  0
  8  9  1  0
  9 10  2  0
  4 11  2  0
 11 12  1  0
 12 13  3  0
 11 14  1  0
 14 15  1  0
 15 16  1  0
 16 17  1  0
 17 18  2  0
 17 19  1  0
 19 20  1  0
 20 21  1  0
 21 22  2  0
 22 23  1  0
 23 24  1  0
 14 25  2  0
 25  2  1  0
 10  5  1  0
 24 20  2  0
M  END
>  <Binding energies>  (35) 
[-7.7]

>  <Ligand effiencies>  (35) 
[-0.29615384615384616]

>  <Interactions>  (35) 
["H-A:GLY:454:N:4048, V-A:ASP:366:CG:3211, V-A:HIS:456:CE1:4068, V-A:ILE:369:CB:3234, V-B:TYR:539:CE2:9848, V-A:ILE:369:CD1:3237, V-A:ILE:369:CG2:3235, V-B:GLU:543:CD:9880, V-A:ARG:545:CZ:4924, V-B:PRO:540:CB:9857, V-B:TYR:539:CD2:9846, V-B:PRO:540:N:9856, V-B:PRO:540:CA:9855, V-B:ALA:541:CB:9864, H-A:ASP:366:OD1:3212, V-A:LEU:475:CD2:4257, V-B:TYR:539:C:9839, H-A:TYR:484:OH:4346, H-A:ARG:545:NE:4922, H-A:ASP:366:OD2:3213, V-A:TRP:381:CZ2:3368, V-A:PRO:482:CB:4324, V-A:TRP:381:CH2:3370, V-B:ALA:541:CA:9862, H-A:ARG:545:NH1:4925"]

$$$$
3ck_Grossjean_2025
     RDKit          3D

 30 31  0  0  0  0  0  0  0  0999 V2000
  131.8820  125.7940   73.3620 C   0  0  0  0  0  0  0  0  0  0  0  0
  130.4890  125.7360   73.0940 O   0  0  0  0  0  0  0  0  0  0  0  0
  129.9450  126.9730   72.6560 C   0  0  0  0  0  0  0  0  0  0  0  0
  129.2340  126.7740   71.3110 C   0  0  0  0  0  0  0  0  0  0  0  0
  130.1990  126.7520   70.2670 O   0  0  0  0  0  0  0  0  0  0  0  0
  129.7330  127.2940   69.0390 C   0  0  0  0  0  0  0  0  0  0  0  0
  130.9020  127.3720   68.0500 C   0  0  0  0  0  0  0  0  0  0  0  0
  130.4060  127.0980   66.7480 O   0  0  0  0  0  0  0  0  0  0  0  0
  130.8880  125.8950   66.1680 C   0  0  0  0  0  0  0  0  0  0  0  0
  130.7260  125.9610   64.6370 C   0  0  0  0  0  0  0  0  0  0  0  0
  131.2320  124.7740   63.9400 N   0  0  0  0  0  0  0  0  0  0  0  0
  132.5240  124.4130   63.8440 C   0  0  0  0  0  0  0  0  0  0  0  0
  133.4430  125.0440   64.3690 O   0  0  0  0  0  0  0  0  0  0  0  0
  132.7950  123.1370   63.0300 C   0  0  0  0  0  0  0  0  0  0  0  0
  132.2320  123.1810   61.2940 S   0  0  0  0  0  0  0  0  0  0  0  0
  130.8330  124.2840   61.1600 C   0  0  0  0  0  0  0  0  0  0  0  0
  131.1140  125.6050   61.2870 N   0  0  0  0  0  0  0  0  0  0  0  0
  130.1020  126.4970   61.2010 C   0  0  0  0  0  0  0  0  0  0  0  0
  130.4930  127.9540   61.3560 C   0  0  0  0  0  0  0  0  0  0  0  0
  128.7800  126.1140   60.9880 C   0  0  0  0  0  0  0  0  0  0  0  0
  128.4650  124.7550   60.8600 C   0  0  0  0  0  0  0  0  0  0  0  0
  127.0320  124.3890   60.6560 C   0  0  0  0  0  0  0  0  0  0  0  0
  126.4930  124.3500   59.3650 C   0  0  0  0  0  0  0  0  0  0  0  0
  125.1540  124.0190   59.1680 C   0  0  0  0  0  0  0  0  0  0  0  0
  124.3460  123.7330   60.2650 C   0  0  0  0  0  0  0  0  0  0  0  0
  124.8650  123.7770   61.5570 C   0  0  0  0  0  0  0  0  0  0  0  0
  126.2040  124.1070   61.7500 C   0  0  0  0  0  0  0  0  0  0  0  0
  129.5200  123.8090   60.9360 C   0  0  0  0  0  0  0  0  0  0  0  0
  129.2550  122.3760   60.7680 C   0  0  0  0  0  0  0  0  0  0  0  0
  129.0460  121.2450   60.6340 N   0  0  0  0  0  0  0  0  0  0  0  0
  1  2  1  0
  2  3  1  0
  3  4  1  0
  4  5  1  0
  5  6  1  0
  6  7  1  0
  7  8  1  0
  8  9  1  0
  9 10  1  0
 10 11  1  0
 11 12  1  0
 12 13  2  0
 12 14  1  0
 14 15  1  0
 15 16  1  0
 16 17  2  0
 17 18  1  0
 18 19  1  0
 18 20  2  0
 20 21  1  0
 21 22  1  0
 22 23  2  0
 23 24  1  0
 24 25  2  0
 25 26  1  0
 26 27  2  0
 21 28  2  0
 28 29  1  0
 29 30  3  0
 28 16  1  0
 27 22  1  0
M  END
>  <Binding energies>  (36) 
[-6.09]

>  <Ligand effiencies>  (36) 
[-0.1964516129032258]

>  <Interactions>  (36) 
["H-A:GLY:454:N:4048, V-A:GLU:543:CD:4906, V-A:HIS:456:CE1:4068, V-A:ARG:545:CG:4920, V-B:GLU:543:CD:9880, V-B:GLU:543:CB:9878, V-A:GLY:454:CA:4047, V-A:HIS:456:CD2:4066, V-B:ASN:362:CB:8148, V-B:PRO:540:CB:9857, V-B:PRO:540:C:9853, V-B:PRO:540:CA:9855, H-B:ALA:541:N:9863, V-B:ALA:541:CB:9864, H-B:GLU:543:OE1:9881, H-A:TYR:484:OH:4346, H-A:ARG:545:NH2:4926, H-A:ARG:545:NE:4922, V-A:GLU:543:CG:4905, H-B:LYS:547:NZ:9923, V-A:GLU:543:C:4900, V-A:HIS:456:CB:4063, V-A:LYS:547:CE:4948, V-A:HIS:456:CG:4064"]

$$$$
4aa_Grossjean_2025
     RDKit          3D

 26 28  0  0  0  0  0  0  0  0999 V2000
  129.4000  125.8500   72.2820 C   0  0  0  0  0  0  0  0  0  0  0  0
  130.1270  127.1560   72.6180 C   0  0  0  0  0  0  0  0  0  0  0  0
  129.4820  128.2390   71.9600 O   0  0  0  0  0  0  0  0  0  0  0  0
  128.4050  128.0310   71.1590 C   0  0  0  0  0  0  0  0  0  0  0  0
  127.2370  128.1670   71.5400 O   0  0  0  0  0  0  0  0  0  0  0  0
  128.7740  127.6150   69.7650 C   0  0  0  0  0  0  0  0  0  0  0  0
  130.1230  127.4120   69.4460 C   0  0  0  0  0  0  0  0  0  0  0  0
  130.4980  127.0300   68.1600 C   0  0  0  0  0  0  0  0  0  0  0  0
  129.5330  126.8350   67.1710 C   0  0  0  0  0  0  0  0  0  0  0  0
  130.0220  126.4590   65.9060 N   0  0  0  0  0  0  0  0  0  0  0  0
  130.6200  125.3100   65.5060 C   0  0  0  0  0  0  0  0  0  0  0  0
  130.8820  124.3700   66.2570 O   0  0  0  0  0  0  0  0  0  0  0  0
  130.9750  125.2510   64.0870 C   0  0  0  0  0  0  0  0  0  0  0  0
  132.2340  124.1450   63.5300 S   0  0  0  0  0  0  0  0  0  0  0  0
  132.0620  124.7070   61.8820 C   0  0  0  0  0  0  0  0  0  0  0  0
  132.8020  124.2130   60.8880 N   0  0  0  0  0  0  0  0  0  0  0  0
  132.5730  124.7380   59.6590 C   0  0  0  0  0  0  0  0  0  0  0  0
  133.4290  124.1670   58.5430 C   0  0  0  0  0  0  0  0  0  0  0  0
  131.6290  125.7300   59.4040 C   0  0  0  0  0  0  0  0  0  0  0  0
  130.8530  126.2440   60.4490 C   0  0  0  0  0  0  0  0  0  0  0  0
  129.8360  127.3270   60.1200 C   0  0  0  0  0  0  0  0  0  0  0  0
  131.0680  125.7220   61.7530 C   0  0  0  0  0  0  0  0  0  0  0  0
  130.4670  126.0170   63.0260 C   0  0  0  0  0  0  0  0  0  0  0  0
  129.4830  126.9630   63.1690 N   0  0  0  0  0  0  0  0  0  0  0  0
  128.1800  127.0410   67.4790 C   0  0  0  0  0  0  0  0  0  0  0  0
  127.8070  127.4260   68.7650 C   0  0  0  0  0  0  0  0  0  0  0  0
  1  2  1  0
  2  3  1  0
  3  4  1  0
  4  5  2  0
  4  6  1  0
  6  7  2  0
  7  8  1  0
  8  9  2  0
  9 10  1  0
 10 11  1  0
 11 12  2  0
 11 13  1  0
 13 14  1  0
 14 15  1  0
 15 16  2  0
 16 17  1  0
 17 18  1  0
 17 19  2  0
 19 20  1  0
 20 21  1  0
 20 22  2  0
 22 23  1  0
 23 24  1  0
  9 25  1  0
 25 26  2  0
 26  6  1  0
 23 13  2  0
 22 15  1  0
M  END
>  <Binding energies>  (37) 
[-7.06]

>  <Ligand effiencies>  (37) 
[-0.24344827586206896]

>  <Interactions>  (37) 
["V-A:GLU:543:CD:4906, V-A:ASP:366:CG:3211, V-B:GLU:543:CG:9879, V-A:HIS:456:CE1:4068, V-A:ASP:366:CB:3210, V-B:TYR:539:CE2:9848, V-B:GLU:543:CD:9880, V-B:GLU:543:CB:9878, V-A:ASP:366:CA:3208, V-A:HIS:456:CD2:4066, V-B:LYS:547:CE:9922, V-B:GLU:543:C:9874, V-B:GLY:544:CA:9886, H-B:GLU:543:OE1:9881, H-A:TYR:484:OH:4346, H-A:GLU:543:OE1:4907, H-A:GLU:543:OE2:4908, H-B:GLU:543:OE2:9882, V-B:HIS:456:CE1:9042, V-A:GLY:544:C:4910, V-A:GLU:543:C:4900, V-B:HIS:456:CD2:9040, V-A:LYS:547:CE:4948, H-B:HIS:456:ND1:9039"]

$$$$
4ab_Grossjean_2025
     RDKit          3D

 25 27  0  0  0  0  0  0  0  0999 V2000
  128.2370  127.4190   72.7090 C   0  0  0  0  0  0  0  0  0  0  0  0
  128.8320  126.3740   71.9530 O   0  0  0  0  0  0  0  0  0  0  0  0
  129.8410  126.6290   71.0810 C   0  0  0  0  0  0  0  0  0  0  0  0
  131.0350  126.4800   71.3600 O   0  0  0  0  0  0  0  0  0  0  0  0
  129.3600  127.1180   69.7450 C   0  0  0  0  0  0  0  0  0  0  0  0
  127.9890  127.3320   69.5490 C   0  0  0  0  0  0  0  0  0  0  0  0
  127.5130  127.7830   68.3200 C   0  0  0  0  0  0  0  0  0  0  0  0
  128.3940  128.0380   67.2700 C   0  0  0  0  0  0  0  0  0  0  0  0
  127.8030  128.4840   66.0720 N   0  0  0  0  0  0  0  0  0  0  0  0
  127.2310  129.6750   65.7710 C   0  0  0  0  0  0  0  0  0  0  0  0
  127.0960  130.6010   66.5710 O   0  0  0  0  0  0  0  0  0  0  0  0
  126.7390  129.8010   64.3980 C   0  0  0  0  0  0  0  0  0  0  0  0
  125.4340  130.9290   64.0200 S   0  0  0  0  0  0  0  0  0  0  0  0
  125.4430  130.4500   62.3380 C   0  0  0  0  0  0  0  0  0  0  0  0
  124.6100  130.9870   61.4460 N   0  0  0  0  0  0  0  0  0  0  0  0
  124.7190  130.5260   60.1760 C   0  0  0  0  0  0  0  0  0  0  0  0
  123.7590  131.1460   59.1780 C   0  0  0  0  0  0  0  0  0  0  0  0
  125.6340  129.5530   59.7800 C   0  0  0  0  0  0  0  0  0  0  0  0
  126.5080  128.9910   60.7190 C   0  0  0  0  0  0  0  0  0  0  0  0
  127.4880  127.9310   60.2390 C   0  0  0  0  0  0  0  0  0  0  0  0
  126.4210  129.4460   62.0630 C   0  0  0  0  0  0  0  0  0  0  0  0
  127.1400  129.0910   63.2560 C   0  0  0  0  0  0  0  0  0  0  0  0
  128.1310  128.1410   63.2570 N   0  0  0  0  0  0  0  0  0  0  0  0
  129.7680  127.8230   67.4560 C   0  0  0  0  0  0  0  0  0  0  0  0
  130.2430  127.3690   68.6840 C   0  0  0  0  0  0  0  0  0  0  0  0
  1  2  1  0
  2  3  1  0
  3  4  2  0
  3  5  1  0
  5  6  2  0
  6  7  1  0
  7  8  2  0
  8  9  1  0
  9 10  1  0
 10 11  2  0
 10 12  1  0
 12 13  1  0
 13 14  1  0
 14 15  2  0
 15 16  1  0
 16 17  1  0
 16 18  2  0
 18 19  1  0
 19 20  1  0
 19 21  2  0
 21 22  1  0
 22 23  1  0
  8 24  1  0
 24 25  2  0
 25  5  1  0
 22 12  2  0
 21 14  1  0
M  END
>  <Binding energies>  (38) 
[-6.87]

>  <Ligand effiencies>  (38) 
[-0.24535714285714286]

>  <Interactions>  (38) 
["V-A:GLU:543:CD:4906, V-B:GLU:543:CG:9879, V-A:HIS:456:CE1:4068, V-B:GLU:543:CD:9880, V-A:HIS:456:CD2:4066, V-B:LYS:547:CE:9922, V-B:GLU:543:C:9874, V-B:ASP:366:CB:8184, V-B:ASP:366:CG:8185, V-A:TYR:539:CE2:4874, H-B:TYR:484:OH:9320, H-B:GLU:543:OE1:9881, H-A:GLU:543:OE1:4907, H-A:GLU:543:OE2:4908, V-A:GLU:543:CB:4904, H-B:GLU:543:OE2:9882, V-B:ILE:369:CG2:8209, V-B:HIS:456:CE1:9042, V-B:ASP:366:CA:8182, V-B:ARG:545:CG:9894, V-A:GLU:543:CG:4905, V-A:GLU:543:C:4900, V-B:GLY:544:C:9884, H-A:HIS:456:ND1:4065"]

$$$$
4ac_Grossjean_2025
     RDKit          3D

 23 25  0  0  0  0  0  0  0  0999 V2000
  129.2570  127.1800   72.0650 C   0  0  0  0  0  0  0  0  0  0  0  0
  129.8500  126.6440   70.8870 O   0  0  0  0  0  0  0  0  0  0  0  0
  129.4350  127.1040   69.6530 C   0  0  0  0  0  0  0  0  0  0  0  0
  128.0640  127.3030   69.4930 C   0  0  0  0  0  0  0  0  0  0  0  0
  127.5510  127.7650   68.2830 C   0  0  0  0  0  0  0  0  0  0  0  0
  128.4090  128.0460   67.2190 C   0  0  0  0  0  0  0  0  0  0  0  0
  127.8000  128.4960   66.0320 N   0  0  0  0  0  0  0  0  0  0  0  0
  127.2310  129.6960   65.7630 C   0  0  0  0  0  0  0  0  0  0  0  0
  127.1310  130.6110   66.5830 O   0  0  0  0  0  0  0  0  0  0  0  0
  126.7160  129.8540   64.4010 C   0  0  0  0  0  0  0  0  0  0  0  0
  125.4200  131.0030   64.0650 S   0  0  0  0  0  0  0  0  0  0  0  0
  125.4200  130.5820   62.3680 C   0  0  0  0  0  0  0  0  0  0  0  0
  124.5900  131.1570   61.4970 N   0  0  0  0  0  0  0  0  0  0  0  0
  124.6930  130.7400   60.2120 C   0  0  0  0  0  0  0  0  0  0  0  0
  123.7400  131.4070   59.2380 C   0  0  0  0  0  0  0  0  0  0  0  0
  125.5960  129.7700   59.7820 C   0  0  0  0  0  0  0  0  0  0  0  0
  126.4660  129.1680   60.6980 C   0  0  0  0  0  0  0  0  0  0  0  0
  127.4340  128.1150   60.1800 C   0  0  0  0  0  0  0  0  0  0  0  0
  126.3890  129.5820   62.0550 C   0  0  0  0  0  0  0  0  0  0  0  0
  127.1150  129.1860   63.2320 C   0  0  0  0  0  0  0  0  0  0  0  0
  128.1050  128.2370   63.1960 N   0  0  0  0  0  0  0  0  0  0  0  0
  129.7880  127.8370   67.3680 C   0  0  0  0  0  0  0  0  0  0  0  0
  130.2960  127.3740   68.5790 C   0  0  0  0  0  0  0  0  0  0  0  0
  1  2  1  0
  2  3  1  0
  3  4  2  0
  4  5  1  0
  5  6  2  0
  6  7  1  0
  7  8  1  0
  8  9  2  0
  8 10  1  0
 10 11  1  0
 11 12  1  0
 12 13  2  0
 13 14  1  0
 14 15  1  0
 14 16  2  0
 16 17  1  0
 17 18  1  0
 17 19  2  0
 19 20  1  0
 20 21  1  0
  6 22  1  0
 22 23  2  0
 23  3  1  0
 20 10  2  0
 19 12  1  0
M  END
>  <Binding energies>  (39) 
[-6.46]

>  <Ligand effiencies>  (39) 
[-0.24846153846153846]

>  <Interactions>  (39) 
["V-A:GLU:543:CD:4906, V-B:GLU:543:CG:9879, V-A:HIS:456:CE1:4068, V-B:GLU:543:CD:9880, V-B:GLU:543:C:9874, V-B:ASP:366:CB:8184, V-B:ASP:366:CG:8185, V-A:TYR:539:CE2:4874, H-B:TYR:484:OH:9320, H-B:GLU:543:OE1:9881, H-A:GLU:543:OE1:4907, H-A:GLU:543:OE2:4908, V-A:GLU:543:CB:4904, H-B:GLU:543:OE2:9882, V-B:ILE:369:CD1:8211, V-B:ILE:369:CG2:8209, V-B:HIS:456:CE1:9042, V-B:ASP:366:CA:8182, V-B:ARG:545:CG:9894, V-A:GLU:543:CG:4905, V-B:ILE:369:CB:8208, V-A:GLU:543:C:4900, V-B:GLY:544:C:9884"]

$$$$
4ad_Grossjean_2025
     RDKit          3D

 21 23  0  0  0  0  0  0  0  0999 V2000
  123.5130  131.4050   59.3870 C   0  0  0  0  0  0  0  0  0  0  0  0
  124.5020  130.7610   60.3400 C   0  0  0  0  0  0  0  0  0  0  0  0
  125.4290  129.8240   59.8870 C   0  0  0  0  0  0  0  0  0  0  0  0
  126.3300  129.2400   60.7850 C   0  0  0  0  0  0  0  0  0  0  0  0
  127.3210  128.2200   60.2450 C   0  0  0  0  0  0  0  0  0  0  0  0
  126.2600  129.6370   62.1480 C   0  0  0  0  0  0  0  0  0  0  0  0
  127.0130  129.2520   63.3110 C   0  0  0  0  0  0  0  0  0  0  0  0
  128.0330  128.3360   63.2510 N   0  0  0  0  0  0  0  0  0  0  0  0
  126.6090  129.8950   64.4920 C   0  0  0  0  0  0  0  0  0  0  0  0
  127.1390  129.7310   65.8460 C   0  0  0  0  0  0  0  0  0  0  0  0
  127.1550  130.6790   66.6340 O   0  0  0  0  0  0  0  0  0  0  0  0
  127.5830  128.4860   66.1490 N   0  0  0  0  0  0  0  0  0  0  0  0
  128.1820  128.0120   67.3330 C   0  0  0  0  0  0  0  0  0  0  0  0
  129.5680  127.8350   67.2880 C   0  0  0  0  0  0  0  0  0  0  0  0
  130.2540  127.3810   68.4110 C   0  0  0  0  0  0  0  0  0  0  0  0
  129.5550  127.1100   69.5840 C   0  0  0  0  0  0  0  0  0  0  0  0
  128.1760  127.2960   69.6460 C   0  0  0  0  0  0  0  0  0  0  0  0
  127.4870  127.7490   68.5240 C   0  0  0  0  0  0  0  0  0  0  0  0
  125.2740  131.0080   64.1850 S   0  0  0  0  0  0  0  0  0  0  0  0
  125.2650  130.6050   62.4840 C   0  0  0  0  0  0  0  0  0  0  0  0
  124.4060  131.1630   61.6300 N   0  0  0  0  0  0  0  0  0  0  0  0
  1  2  1  0
  2  3  2  0
  3  4  1  0
  4  5  1  0
  4  6  2  0
  6  7  1  0
  7  8  1  0
  7  9  2  0
  9 10  1  0
 10 11  2  0
 10 12  1  0
 12 13  1  0
 13 14  2  0
 14 15  1  0
 15 16  2  0
 16 17  1  0
 17 18  2  0
  9 19  1  0
 19 20  1  0
 20 21  2  0
 21  2  1  0
 20  6  1  0
 18 13  1  0
M  END
>  <Binding energies>  (40) 
[-6.54]

>  <Ligand effiencies>  (40) 
[-0.2725]

>  <Interactions>  (40) 
["V-A:GLU:543:CD:4906, V-B:GLU:543:CG:9879, V-A:HIS:456:CE1:4068, V-B:GLU:543:CD:9880, V-B:GLU:543:C:9874, V-B:ASP:366:CB:8184, V-B:ASP:366:CG:8185, V-A:TYR:539:CE2:4874, H-B:TYR:484:OH:9320, H-B:GLU:543:OE1:9881, H-A:GLU:543:OE1:4907, H-A:GLU:543:OE2:4908, V-A:GLU:543:CB:4904, H-B:GLU:543:OE2:9882, V-B:ILE:369:CD1:8211, V-B:ILE:369:CG2:8209, V-B:HIS:456:CE1:9042, V-B:ASP:366:CA:8182, V-B:ARG:545:CG:9894, V-A:GLU:543:CG:4905, V-B:ILE:369:CB:8208, V-A:GLU:543:C:4900, V-B:GLY:544:C:9884"]

$$$$
4ae_Grossjean_2025
     RDKit          3D

 22 24  0  0  0  0  0  0  0  0999 V2000
  127.5540  127.6140   70.7020 C   0  0  0  0  0  0  0  0  0  0  0  0
  128.2970  127.5470   69.3820 C   0  0  0  0  0  0  0  0  0  0  0  0
  129.5900  127.0250   69.2960 C   0  0  0  0  0  0  0  0  0  0  0  0
  130.2150  127.0020   68.0490 C   0  0  0  0  0  0  0  0  0  0  0  0
  129.5410  127.4980   66.9310 C   0  0  0  0  0  0  0  0  0  0  0  0
  128.2450  128.0000   67.0850 C   0  0  0  0  0  0  0  0  0  0  0  0
  127.6260  128.5040   65.9280 N   0  0  0  0  0  0  0  0  0  0  0  0
  126.3420  128.9080   65.7600 C   0  0  0  0  0  0  0  0  0  0  0  0
  125.4920  128.8810   66.6510 O   0  0  0  0  0  0  0  0  0  0  0  0
  126.0080  129.3910   64.4180 C   0  0  0  0  0  0  0  0  0  0  0  0
  124.5440  130.3390   64.1520 S   0  0  0  0  0  0  0  0  0  0  0  0
  124.8680  130.4490   62.4380 C   0  0  0  0  0  0  0  0  0  0  0  0
  124.0520  131.0950   61.6050 N   0  0  0  0  0  0  0  0  0  0  0  0
  124.4150  131.1010   60.3000 C   0  0  0  0  0  0  0  0  0  0  0  0
  123.4680  131.8360   59.3690 C   0  0  0  0  0  0  0  0  0  0  0  0
  125.5660  130.4830   59.8130 C   0  0  0  0  0  0  0  0  0  0  0  0
  126.4210  129.8050   60.6900 C   0  0  0  0  0  0  0  0  0  0  0  0
  127.6620  129.1440   60.1100 C   0  0  0  0  0  0  0  0  0  0  0  0
  126.0710  129.7770   62.0670 C   0  0  0  0  0  0  0  0  0  0  0  0
  126.7030  129.1840   63.2160 C   0  0  0  0  0  0  0  0  0  0  0  0
  127.8780  128.4810   63.1250 N   0  0  0  0  0  0  0  0  0  0  0  0
  127.6290  128.0310   68.3040 N   0  0  0  0  0  0  0  0  0  0  0  0
  1  2  1  0
  2  3  2  0
  3  4  1  0
  4  5  2  0
  5  6  1  0
  6  7  1  0
  7  8  1  0
  8  9  2  0
  8 10  1  0
 10 11  1  0
 11 12  1  0
 12 13  2  0
 13 14  1  0
 14 15  1  0
 14 16  2  0
 16 17  1  0
 17 18  1  0
 17 19  2  0
 19 20  1  0
 20 21  1  0
  6 22  2  0
 22  2  1  0
 20 10  2  0
 19 12  1  0
M  END
>  <Binding energies>  (41) 
[-6.73]

>  <Ligand effiencies>  (41) 
[-0.2692]

>  <Interactions>  (41) 
["V-A:GLU:543:CD:4906, V-B:GLU:543:CG:9879, V-A:HIS:456:CE1:4068, V-B:GLU:543:CD:9880, V-B:GLY:544:CA:9886, V-B:ASP:366:CG:8185, V-A:TYR:539:CE2:4874, H-B:TYR:484:OH:9320, H-B:GLU:543:OE1:9881, V-B:ARG:545:CZ:9898, H-A:GLU:543:OE1:4907, H-A:GLU:543:OE2:4908, V-A:GLU:543:CB:4904, H-B:GLU:543:OE2:9882, V-B:ILE:369:CD1:8211, V-B:ILE:369:CG2:8209, V-B:HIS:456:CE1:9042, V-B:ARG:545:CG:9894, H-B:ARG:545:NE:9896, V-A:GLU:543:CG:4905, V-B:ILE:369:CB:8208, V-B:HIS:456:CG:9038, V-B:HIS:456:CD2:9040, V-B:GLY:544:C:9884, V-B:ARG:545:CD:9895, H-B:HIS:456:ND1:9039"]

$$$$
4af_Grossjean_2025
     RDKit          3D

 21 23  0  0  0  0  0  0  0  0999 V2000
  123.5700  131.4100   59.3470 C   0  0  0  0  0  0  0  0  0  0  0  0
  124.5510  130.7580   60.3050 C   0  0  0  0  0  0  0  0  0  0  0  0
  125.4520  129.7930   59.8610 C   0  0  0  0  0  0  0  0  0  0  0  0
  126.3460  129.2020   60.7630 C   0  0  0  0  0  0  0  0  0  0  0  0
  127.3100  128.1530   60.2320 C   0  0  0  0  0  0  0  0  0  0  0  0
  126.2920  129.6210   62.1200 C   0  0  0  0  0  0  0  0  0  0  0  0
  127.0410  129.2340   63.2850 C   0  0  0  0  0  0  0  0  0  0  0  0
  128.0360  128.2890   63.2350 N   0  0  0  0  0  0  0  0  0  0  0  0
  126.6620  129.9060   64.4570 C   0  0  0  0  0  0  0  0  0  0  0  0
  127.1860  129.7390   65.8140 C   0  0  0  0  0  0  0  0  0  0  0  0
  127.1290  130.6630   66.6270 O   0  0  0  0  0  0  0  0  0  0  0  0
  127.7050  128.5170   66.0890 N   0  0  0  0  0  0  0  0  0  0  0  0
  128.3230  128.0510   67.2640 C   0  0  0  0  0  0  0  0  0  0  0  0
  129.7040  127.8360   67.4300 C   0  0  0  0  0  0  0  0  0  0  0  0
  130.1870  127.3520   68.6470 C   0  0  0  0  0  0  0  0  0  0  0  0
  129.2760  127.0890   69.6710 C   0  0  0  0  0  0  0  0  0  0  0  0
  127.9400  127.2790   69.5340 N   0  0  0  0  0  0  0  0  0  0  0  0
  127.4860  127.7500   68.3450 C   0  0  0  0  0  0  0  0  0  0  0  0
  125.3510  131.0450   64.1420 S   0  0  0  0  0  0  0  0  0  0  0  0
  125.3230  130.6170   62.4460 C   0  0  0  0  0  0  0  0  0  0  0  0
  124.4710  131.1820   61.5900 N   0  0  0  0  0  0  0  0  0  0  0  0
  1  2  1  0
  2  3  2  0
  3  4  1  0
  4  5  1  0
  4  6  2  0
  6  7  1  0
  7  8  1  0
  7  9  2  0
  9 10  1  0
 10 11  2  0
 10 12  1  0
 12 13  1  0
 13 14  2  0
 14 15  1  0
 15 16  2  0
 16 17  1  0
 17 18  2  0
  9 19  1  0
 19 20  1  0
 20 21  2  0
 21  2  1  0
 20  6  1  0
 18 13  1  0
M  END
>  <Binding energies>  (42) 
[-6.24]

>  <Ligand effiencies>  (42) 
[-0.26]

>  <Interactions>  (42) 
["V-A:GLU:543:CD:4906, V-B:GLU:543:CG:9879, V-A:HIS:456:CE1:4068, V-B:GLU:543:CD:9880, V-B:ASP:366:CB:8184, V-B:ASP:366:CG:8185, V-A:TYR:539:CE2:4874, H-B:TYR:484:OH:9320, H-B:GLU:543:OE1:9881, H-A:GLU:543:OE1:4907, H-A:GLU:543:OE2:4908, V-A:GLU:543:CB:4904, H-B:GLU:543:OE2:9882, V-B:ILE:369:CD1:8211, V-B:ILE:369:CG2:8209, V-B:HIS:456:CE1:9042, V-B:ASP:366:CA:8182, V-B:ARG:545:CG:9894, V-A:GLU:543:CG:4905, V-B:ILE:369:CB:8208, V-A:GLU:543:C:4900"]

$$$$
4ag_Grossjean_2025
     RDKit          3D

 22 24  0  0  0  0  0  0  0  0999 V2000
  133.9490  123.5380   59.1520 C   0  0  0  0  0  0  0  0  0  0  0  0
  133.0380  124.2120   60.1620 C   0  0  0  0  0  0  0  0  0  0  0  0
  131.9400  124.9640   59.7470 C   0  0  0  0  0  0  0  0  0  0  0  0
  131.1120  125.5760   60.6940 C   0  0  0  0  0  0  0  0  0  0  0  0
  129.9260  126.3850   60.1920 C   0  0  0  0  0  0  0  0  0  0  0  0
  131.4340  125.4020   62.0670 C   0  0  0  0  0  0  0  0  0  0  0  0
  130.8160  125.8770   63.2750 C   0  0  0  0  0  0  0  0  0  0  0  0
  129.6890  126.6610   63.2630 N   0  0  0  0  0  0  0  0  0  0  0  0
  131.4690  125.4690   64.4470 C   0  0  0  0  0  0  0  0  0  0  0  0
  131.1100  125.7590   65.8350 C   0  0  0  0  0  0  0  0  0  0  0  0
  130.5060  124.9360   66.5270 O   0  0  0  0  0  0  0  0  0  0  0  0
  131.4610  126.9770   66.2980 N   0  0  0  0  0  0  0  0  0  0  0  0
  131.2270  127.4680   67.6550 C   0  0  0  0  0  0  0  0  0  0  0  0
  129.7680  127.4110   68.0910 C   0  0  0  0  0  0  0  0  0  0  0  0
  129.4490  127.3950   69.4520 C   0  0  0  0  0  0  0  0  0  0  0  0
  128.1160  127.3680   69.8540 C   0  0  0  0  0  0  0  0  0  0  0  0
  127.1060  127.3690   68.8930 C   0  0  0  0  0  0  0  0  0  0  0  0
  127.4160  127.4010   67.5360 C   0  0  0  0  0  0  0  0  0  0  0  0
  128.7490  127.4290   67.1340 C   0  0  0  0  0  0  0  0  0  0  0  0
  132.8730  124.4670   64.0810 S   0  0  0  0  0  0  0  0  0  0  0  0
  132.5830  124.6090   62.3620 C   0  0  0  0  0  0  0  0  0  0  0  0
  133.3740  124.0230   61.4610 N   0  0  0  0  0  0  0  0  0  0  0  0
  1  2  1  0
  2  3  2  0
  3  4  1  0
  4  5  1  0
  4  6  2  0
  6  7  1  0
  7  8  1  0
  7  9  2  0
  9 10  1  0
 10 11  2  0
 10 12  1  0
 12 13  1  0
 13 14  1  0
 14 15  2  0
 15 16  1  0
 16 17  2  0
 17 18  1  0
 18 19  2  0
  9 20  1  0
 20 21  1  0
 21 22  2  0
 22  2  1  0
 21  6  1  0
 19 14  1  0
M  END
>  <Binding energies>  (43) 
[-7.15]

>  <Ligand effiencies>  (43) 
[-0.28600000000000003]

>  <Interactions>  (43) 
["V-A:GLU:543:CD:4906, V-A:ASP:366:CG:3211, V-B:GLU:543:CG:9879, V-A:HIS:456:CE1:4068, V-A:ILE:369:CB:3234, V-B:TYR:539:CE2:9848, V-A:ARG:545:CD:4921, V-A:ILE:369:CD1:3237, V-A:ILE:369:CG2:3235, V-A:ARG:545:CG:4920, V-B:GLU:543:CD:9880, V-A:ARG:545:CZ:4924, V-A:GLY:454:CA:4047, V-A:ASP:366:CA:3208, V-B:GLU:543:C:9874, H-B:GLU:543:OE1:9881, H-A:TYR:484:OH:4346, H-A:GLU:543:OE1:4907, H-A:GLU:543:OE2:4908, H-B:GLU:543:OE2:9882, V-B:HIS:456:CE1:9042, V-B:ARG:545:CG:9894, V-A:GLU:543:CG:4905, V-B:GLY:544:C:9884, V-B:ARG:545:CA:9891"]

$$$$
4ah_Grossjean_2025
     RDKit          3D

 28 30  0  0  0  0  0  0  0  0999 V2000
  127.0100  123.8710   61.0580 C   0  0  0  0  0  0  0  0  0  0  0  0
  127.9440  122.8010   60.9720 O   0  0  0  0  0  0  0  0  0  0  0  0
  129.2790  123.0420   61.2440 C   0  0  0  0  0  0  0  0  0  0  0  0
  129.7530  124.2000   61.8800 C   0  0  0  0  0  0  0  0  0  0  0  0
  131.1160  124.3760   62.1210 C   0  0  0  0  0  0  0  0  0  0  0  0
  131.6080  125.6190   62.8550 C   0  0  0  0  0  0  0  0  0  0  0  0
  130.7850  126.8040   62.6140 N   0  0  0  0  0  0  0  0  0  0  0  0
  130.5040  127.3280   61.4030 C   0  0  0  0  0  0  0  0  0  0  0  0
  130.9590  126.8640   60.3560 O   0  0  0  0  0  0  0  0  0  0  0  0
  129.6530  128.5170   61.4010 C   0  0  0  0  0  0  0  0  0  0  0  0
  130.1430  129.9570   60.5060 S   0  0  0  0  0  0  0  0  0  0  0  0
  128.7180  130.8240   61.0320 C   0  0  0  0  0  0  0  0  0  0  0  0
  128.4780  132.0810   60.6580 N   0  0  0  0  0  0  0  0  0  0  0  0
  127.3370  132.6360   61.1330 C   0  0  0  0  0  0  0  0  0  0  0  0
  127.0850  134.0680   60.6980 C   0  0  0  0  0  0  0  0  0  0  0  0
  126.4400  131.9710   61.9650 C   0  0  0  0  0  0  0  0  0  0  0  0
  126.6950  130.6520   62.3590 C   0  0  0  0  0  0  0  0  0  0  0  0
  125.6860  129.9680   63.2680 C   0  0  0  0  0  0  0  0  0  0  0  0
  127.8830  130.0360   61.8810 C   0  0  0  0  0  0  0  0  0  0  0  0
  128.4470  128.7280   62.0850 C   0  0  0  0  0  0  0  0  0  0  0  0
  127.8410  127.7820   62.8720 N   0  0  0  0  0  0  0  0  0  0  0  0
  132.0160  123.3760   61.7490 C   0  0  0  0  0  0  0  0  0  0  0  0
  131.5710  122.2100   61.1060 C   0  0  0  0  0  0  0  0  0  0  0  0
  132.4080  121.1870   60.6970 O   0  0  0  0  0  0  0  0  0  0  0  0
  133.7990  121.2640   60.9900 C   0  0  0  0  0  0  0  0  0  0  0  0
  130.2010  122.0580   60.8540 C   0  0  0  0  0  0  0  0  0  0  0  0
  129.7490  120.9140   60.2410 O   0  0  0  0  0  0  0  0  0  0  0  0
  130.0100  119.7240   60.9740 C   0  0  0  0  0  0  0  0  0  0  0  0
  1  2  1  0
  2  3  1  0
  3  4  2  0
  4  5  1  0
  5  6  1  0
  6  7  1  0
  7  8  1  0
  8  9  2  0
  8 10  1  0
 10 11  1  0
 11 12  1  0
 12 13  2  0
 13 14  1  0
 14 15  1  0
 14 16  2  0
 16 17  1  0
 17 18  1  0
 17 19  2  0
 19 20  1  0
 20 21  1  0
  5 22  2  0
 22 23  1  0
 23 24  1  0
 24 25  1  0
 23 26  2  0
 26 27  1  0
 27 28  1  0
 26  3  1  0
 20 10  2  0
 19 12  1  0
M  END
>  <Binding energies>  (44) 
[-5.6]

>  <Ligand effiencies>  (44) 
[-0.18064516129032257]

>  <Interactions>  (44) 
["V-A:GLU:543:CD:4906, V-A:ILE:369:CD1:3237, V-A:ILE:369:CG2:3235, V-B:GLU:543:CD:9880, V-A:ARG:545:CZ:4924, V-B:TYR:539:CD2:9846, V-B:PRO:540:CA:9855, H-B:ALA:541:N:9863, V-B:ALA:541:CB:9864, V-A:TYR:539:CE2:4874, V-A:TYR:539:CD2:4872, V-A:LEU:475:CD2:4257, V-A:ALA:541:CB:4890, H-B:GLU:543:OE1:9881, V-B:ARG:545:CZ:9898, H-A:GLU:543:OE1:4907, H-A:GLU:543:OE2:4908, H-A:ARG:545:NH2:4926, H-B:GLU:543:OE2:9882, V-A:PRO:482:CG:4325, V-A:PRO:482:CB:4324, V-A:TRP:381:CH2:3370"]

$$$$
4ai_Grossjean_2025
     RDKit          3D

 20 22  0  0  0  0  0  0  0  0999 V2000
  127.1310  135.7350   60.6270 C   0  0  0  0  0  0  0  0  0  0  0  0
  126.5210  134.4580   61.1760 C   0  0  0  0  0  0  0  0  0  0  0  0
  125.4760  133.8190   60.5120 C   0  0  0  0  0  0  0  0  0  0  0  0
  124.9330  132.6390   61.0330 C   0  0  0  0  0  0  0  0  0  0  0  0
  123.7950  131.9780   60.2700 C   0  0  0  0  0  0  0  0  0  0  0  0
  125.4830  132.1330   62.2420 C   0  0  0  0  0  0  0  0  0  0  0  0
  125.1760  130.9740   63.0360 C   0  0  0  0  0  0  0  0  0  0  0  0
  124.1800  130.0940   62.6930 N   0  0  0  0  0  0  0  0  0  0  0  0
  125.9850  130.8310   64.1740 C   0  0  0  0  0  0  0  0  0  0  0  0
  125.9410  129.7850   65.1980 C   0  0  0  0  0  0  0  0  0  0  0  0
  124.8720  129.2610   65.5170 O   0  0  0  0  0  0  0  0  0  0  0  0
  127.1410  129.4450   65.7330 N   0  0  0  0  0  0  0  0  0  0  0  0
  127.3900  128.4860   66.7060 C   0  0  0  0  0  0  0  0  0  0  0  0
  128.6260  128.3450   67.3380 C   0  0  0  0  0  0  0  0  0  0  0  0
  128.4610  127.2980   68.2160 C   0  0  0  0  0  0  0  0  0  0  0  0
  127.1930  126.8340   68.1190 O   0  0  0  0  0  0  0  0  0  0  0  0
  126.5230  127.5950   67.1600 N   0  0  0  0  0  0  0  0  0  0  0  0
  127.1430  132.1580   64.3030 S   0  0  0  0  0  0  0  0  0  0  0  0
  126.5510  132.8810   62.8230 C   0  0  0  0  0  0  0  0  0  0  0  0
  127.0700  134.0060   62.3300 N   0  0  0  0  0  0  0  0  0  0  0  0
  1  2  1  0
  2  3  2  0
  3  4  1  0
  4  5  1  0
  4  6  2  0
  6  7  1  0
  7  8  1  0
  7  9  2  0
  9 10  1  0
 10 11  2  0
 10 12  1  0
 12 13  1  0
 13 14  1  0
 14 15  2  0
 15 16  1  0
 16 17  1  0
  9 18  1  0
 18 19  1  0
 19 20  2  0
 20  2  1  0
 19  6  1  0
 17 13  2  0
M  END
>  <Binding energies>  (45) 
[-6.52]

>  <Ligand effiencies>  (45) 
[-0.2834782608695652]

>  <Interactions>  (45) 
["V-A:GLU:543:CD:4906, V-B:GLU:543:CG:9879, V-B:GLU:543:CD:9880, V-B:GLU:543:C:9874, V-A:TYR:539:CE2:4874, H-B:ARG:545:NH2:9900, V-A:TYR:539:CD2:4872, H-B:ASP:366:OD1:8186, V-B:LEU:475:CD2:9231, V-A:ALA:541:CB:4890, H-B:TYR:484:OH:9320, V-B:ARG:545:CZ:9898, H-A:GLU:543:OE1:4907, H-A:GLU:543:OE2:4908, V-A:GLU:543:CB:4904, V-B:ILE:369:CD1:8211, V-B:ILE:369:CG2:8209, V-B:HIS:456:CE1:9042, V-B:TYR:484:CE1:9317, V-B:TYR:484:CZ:9319, H-B:ARG:545:NE:9896, V-A:GLU:543:CG:4905, V-B:ILE:369:CB:8208, V-B:PRO:482:CG:9299, V-B:PRO:482:CB:9298, V-B:TRP:381:CZ2:8342, V-B:TRP:381:CH2:8344, V-B:TRP:381:CZ3:8343"]

$$$$
4aj_Grossjean_2025
     RDKit          3D

 20 22  0  0  0  0  0  0  0  0999 V2000
  123.1470  124.1540   57.4310 C   0  0  0  0  0  0  0  0  0  0  0  0
  124.3620  123.9650   58.3200 C   0  0  0  0  0  0  0  0  0  0  0  0
  124.2490  124.0060   59.7080 C   0  0  0  0  0  0  0  0  0  0  0  0
  125.3840  123.8350   60.5080 C   0  0  0  0  0  0  0  0  0  0  0  0
  125.2090  123.8880   62.0180 C   0  0  0  0  0  0  0  0  0  0  0  0
  126.6290  123.6200   59.8580 C   0  0  0  0  0  0  0  0  0  0  0  0
  127.9610  123.4130   60.3580 C   0  0  0  0  0  0  0  0  0  0  0  0
  128.2450  123.3950   61.6990 N   0  0  0  0  0  0  0  0  0  0  0  0
  128.9240  123.2290   59.3540 C   0  0  0  0  0  0  0  0  0  0  0  0
  130.3640  123.0060   59.5020 C   0  0  0  0  0  0  0  0  0  0  0  0
  131.1770  123.7300   58.9230 O   0  0  0  0  0  0  0  0  0  0  0  0
  130.7130  121.9790   60.3150 N   0  0  0  0  0  0  0  0  0  0  0  0
  132.0000  121.5670   60.6330 C   0  0  0  0  0  0  0  0  0  0  0  0
  132.6980  120.5980   60.0790 N   0  0  0  0  0  0  0  0  0  0  0  0
  133.8920  120.4850   60.6280 C   0  0  0  0  0  0  0  0  0  0  0  0
  134.1840  121.3780   61.6560 C   0  0  0  0  0  0  0  0  0  0  0  0
  132.8130  122.4180   61.9060 S   0  0  0  0  0  0  0  0  0  0  0  0
  128.1980  123.3250   57.7480 S   0  0  0  0  0  0  0  0  0  0  0  0
  126.6110  123.5970   58.4300 C   0  0  0  0  0  0  0  0  0  0  0  0
  125.5310  123.7610   57.6640 N   0  0  0  0  0  0  0  0  0  0  0  0
  1  2  1  0
  2  3  2  0
  3  4  1  0
  4  5  1  0
  4  6  2  0
  6  7  1  0
  7  8  1  0
  7  9  2  0
  9 10  1  0
 10 11  2  0
 10 12  1  0
 12 13  1  0
 13 14  2  0
 14 15  1  0
 15 16  2  0
 16 17  1  0
  9 18  1  0
 18 19  1  0
 19 20  2  0
 20  2  1  0
 19  6  1  0
 17 13  1  0
M  END
>  <Binding energies>  (46) 
[-6.24]

>  <Ligand effiencies>  (46) 
[-0.271304347826087]

>  <Interactions>  (46) 
["V-B:TYR:539:CE2:9848, V-A:ILE:369:CD1:3237, V-A:ILE:369:CG2:3235, V-B:GLU:543:CD:9880, V-A:GLY:454:CA:4047, V-B:ASP:366:CB:8184, V-B:ASN:362:CB:8148, V-B:LEU:363:CA:8157, V-B:PRO:540:CB:9857, V-B:ASP:366:CG:8185, V-B:TYR:531:CE2:9765, V-B:LEU:363:CD1:8161, V-B:PRO:540:C:9853, V-B:TYR:531:CZ:9766, V-B:LEU:363:CB:8159, V-B:TYR:539:CD2:9846, V-B:PRO:540:N:9856, V-B:PRO:540:CA:9855, V-B:ALA:541:CB:9864, V-A:LEU:475:CD2:4257, V-B:TYR:539:C:9839, H-B:GLU:543:OE1:9881, V-B:ARG:545:CZ:9898, H-B:GLU:543:OE2:9882, H-B:TYR:539:O:9840, V-A:TRP:381:CH2:3370, V-B:ALA:541:C:9860, H-B:ALA:541:O:9861, V-A:SER:385:C:3403"]

$$$$
4ak_Grossjean_2025
     RDKit          3D

 25 26  0  0  0  0  0  0  0  0999 V2000
  126.2190  128.8470   74.1590 C   0  0  0  0  0  0  0  0  0  0  0  0
  127.5950  128.8780   73.8120 O   0  0  0  0  0  0  0  0  0  0  0  0
  127.8890  128.1870   72.6040 C   0  0  0  0  0  0  0  0  0  0  0  0
  129.0040  128.9250   71.8520 C   0  0  0  0  0  0  0  0  0  0  0  0
  129.9670  127.9840   71.3950 O   0  0  0  0  0  0  0  0  0  0  0  0
  129.4270  126.9710   70.5570 C   0  0  0  0  0  0  0  0  0  0  0  0
  129.6720  127.3430   69.0890 C   0  0  0  0  0  0  0  0  0  0  0  0
  128.5680  128.0960   68.6050 O   0  0  0  0  0  0  0  0  0  0  0  0
  128.2260  127.8090   67.2550 C   0  0  0  0  0  0  0  0  0  0  0  0
  126.7120  128.0100   67.0610 C   0  0  0  0  0  0  0  0  0  0  0  0
  126.3690  128.7330   65.8370 N   0  0  0  0  0  0  0  0  0  0  0  0
  125.3320  129.5840   65.6970 C   0  0  0  0  0  0  0  0  0  0  0  0
  124.5680  129.8520   66.6270 O   0  0  0  0  0  0  0  0  0  0  0  0
  125.1650  130.1840   64.3750 C   0  0  0  0  0  0  0  0  0  0  0  0
  123.8630  129.6480   63.3120 S   0  0  0  0  0  0  0  0  0  0  0  0
  124.3440  130.7850   62.0730 C   0  0  0  0  0  0  0  0  0  0  0  0
  123.6980  130.8760   60.9100 N   0  0  0  0  0  0  0  0  0  0  0  0
  124.1740  131.7970   60.0360 C   0  0  0  0  0  0  0  0  0  0  0  0
  123.4250  131.8860   58.7190 C   0  0  0  0  0  0  0  0  0  0  0  0
  125.2680  132.6190   60.2960 C   0  0  0  0  0  0  0  0  0  0  0  0
  125.9440  132.5210   61.5180 C   0  0  0  0  0  0  0  0  0  0  0  0
  127.1350  133.4380   61.7540 C   0  0  0  0  0  0  0  0  0  0  0  0
  125.4740  131.5660   62.4600 C   0  0  0  0  0  0  0  0  0  0  0  0
  125.9190  131.2070   63.7800 C   0  0  0  0  0  0  0  0  0  0  0  0
  126.9870  131.8180   64.3860 N   0  0  0  0  0  0  0  0  0  0  0  0
  1  2  1  0
  2  3  1  0
  3  4  1  0
  4  5  1  0
  5  6  1  0
  6  7  1  0
  7  8  1  0
  8  9  1  0
  9 10  1  0
 10 11  1  0
 11 12  1  0
 12 13  2  0
 12 14  1  0
 14 15  1  0
 15 16  1  0
 16 17  2  0
 17 18  1  0
 18 19  1  0
 18 20  2  0
 20 21  1  0
 21 22  1  0
 21 23  2  0
 23 24  1  0
 24 25  1  0
 24 14  2  0
 23 16  1  0
M  END
>  <Binding energies>  (47) 
[-6.33]

>  <Ligand effiencies>  (47) 
[-0.22607142857142856]

>  <Interactions>  (47) 
["V-A:GLU:543:CD:4906, V-B:GLU:543:CG:9879, V-A:HIS:456:CE1:4068, V-B:GLU:543:CD:9880, V-A:TYR:539:CE2:4874, V-A:TYR:539:CD2:4872, V-B:LEU:475:CD2:9231, V-A:ALA:541:CB:4890, H-B:TYR:484:OH:9320, V-B:ARG:545:CZ:9898, H-A:GLU:543:OE1:4907, V-A:GLU:543:CB:4904, H-B:GLU:543:OE2:9882, V-B:ILE:369:CD1:8211, V-B:ILE:369:CG2:8209, V-A:TYR:539:CZ:4875, V-B:HIS:456:CE1:9042, V-B:TYR:484:CE1:9317, V-B:TYR:484:CZ:9319, V-B:ASP:366:CA:8182, V-B:ARG:545:CG:9894, H-B:ARG:545:NE:9896, V-A:GLU:543:CG:4905, V-B:ILE:369:CB:8208, V-B:HIS:456:CG:9038, H-A:LYS:547:NZ:4949, V-B:HIS:456:CB:9037, V-A:GLU:543:C:4900, V-B:HIS:456:CD2:9040, V-A:LYS:547:CE:4948, V-B:GLY:453:CA:9016, V-B:ARG:545:CD:9895, V-A:GLY:544:CA:4912, H-B:HIS:456:ND1:9039"]

$$$$
4al_Grossjean_2025
     RDKit          3D

 16 17  0  0  0  0  0  0  0  0999 V2000
  131.0040  125.9030   65.8340 C   0  0  0  0  0  0  0  0  0  0  0  0
  131.9890  126.1890   64.8520 O   0  0  0  0  0  0  0  0  0  0  0  0
  132.7980  125.2100   64.3710 C   0  0  0  0  0  0  0  0  0  0  0  0
  134.0030  125.1270   64.6190 O   0  0  0  0  0  0  0  0  0  0  0  0
  132.0820  124.2430   63.5110 C   0  0  0  0  0  0  0  0  0  0  0  0
  132.7560  122.6340   63.2430 S   0  0  0  0  0  0  0  0  0  0  0  0
  131.4100  122.1950   62.2160 C   0  0  0  0  0  0  0  0  0  0  0  0
  131.3210  120.9930   61.6460 N   0  0  0  0  0  0  0  0  0  0  0  0
  130.2270  120.7800   60.8730 C   0  0  0  0  0  0  0  0  0  0  0  0
  130.1450  119.4060   60.2340 C   0  0  0  0  0  0  0  0  0  0  0  0
  129.2320  121.7320   60.6600 C   0  0  0  0  0  0  0  0  0  0  0  0
  129.3280  122.9920   61.2600 C   0  0  0  0  0  0  0  0  0  0  0  0
  128.2180  123.9970   60.9980 C   0  0  0  0  0  0  0  0  0  0  0  0
  130.4620  123.2510   62.0770 C   0  0  0  0  0  0  0  0  0  0  0  0
  130.8710  124.4070   62.8270 C   0  0  0  0  0  0  0  0  0  0  0  0
  130.1350  125.5630   62.8630 N   0  0  0  0  0  0  0  0  0  0  0  0
  1  2  1  0
  2  3  1  0
  3  4  2  0
  3  5  1  0
  5  6  1  0
  6  7  1  0
  7  8  2  0
  8  9  1  0
  9 10  1  0
  9 11  2  0
 11 12  1  0
 12 13  1  0
 12 14  2  0
 14 15  1  0
 15 16  1  0
 15  5  2  0
 14  7  1  0
M  END
>  <Binding energies>  (48) 
[-5.14]

>  <Ligand effiencies>  (48) 
[-0.28555555555555556]

>  <Interactions>  (48) 
["H-A:GLY:454:N:4048, V-A:HIS:456:CE1:4068, V-A:ARG:545:CD:4921, V-B:GLU:543:CD:9880, V-A:ARG:545:CZ:4924, V-A:GLY:454:CA:4047, V-B:TYR:539:CD2:9846, V-B:ALA:541:CB:9864, V-A:LEU:475:CD2:4257, V-B:TYR:539:C:9839, H-B:GLU:543:OE1:9881, H-A:TYR:484:OH:4346, H-A:GLU:543:OE2:4908, H-A:ARG:545:NH2:4926, H-B:GLU:543:OE2:9882, H-A:ARG:545:NE:4922, V-A:PRO:482:CG:4325, V-A:TRP:381:CZ2:3368, V-A:PRO:482:CB:4324, V-A:TRP:381:CH2:3370, H-A:ARG:545:NH1:4925, V-A:TRP:381:CZ3:3369"]

$$$$
4bc_Grossjean_2025
     RDKit          3D

 26 28  0  0  0  0  0  0  0  0999 V2000
  129.8040  126.7100   71.9710 C   0  0  0  0  0  0  0  0  0  0  0  0
  130.3740  126.7020   70.6660 O   0  0  0  0  0  0  0  0  0  0  0  0
  129.6130  127.1330   69.5970 C   0  0  0  0  0  0  0  0  0  0  0  0
  130.2980  127.3950   68.4110 C   0  0  0  0  0  0  0  0  0  0  0  0
  129.6160  127.8340   67.2790 C   0  0  0  0  0  0  0  0  0  0  0  0
  128.2320  128.0090   67.3170 C   0  0  0  0  0  0  0  0  0  0  0  0
  127.6310  128.4690   66.1310 N   0  0  0  0  0  0  0  0  0  0  0  0
  127.1470  129.7010   65.8380 C   0  0  0  0  0  0  0  0  0  0  0  0
  127.1330  130.6410   66.6330 O   0  0  0  0  0  0  0  0  0  0  0  0
  126.6140  129.8610   64.4810 C   0  0  0  0  0  0  0  0  0  0  0  0
  125.2770  130.9670   64.1780 S   0  0  0  0  0  0  0  0  0  0  0  0
  125.2780  130.5760   62.4750 C   0  0  0  0  0  0  0  0  0  0  0  0
  124.4170  131.1420   61.6300 N   0  0  0  0  0  0  0  0  0  0  0  0
  124.5140  130.7590   60.3370 C   0  0  0  0  0  0  0  0  0  0  0  0
  123.5280  131.4200   59.3910 C   0  0  0  0  0  0  0  0  0  0  0  0
  125.4420  129.8300   59.8710 C   0  0  0  0  0  0  0  0  0  0  0  0
  126.3510  129.2300   60.7570 C   0  0  0  0  0  0  0  0  0  0  0  0
  127.3520  128.2120   60.1980 C   0  0  0  0  0  0  0  0  0  0  0  0
  127.2090  128.0060   58.8870 F   0  0  0  0  0  0  0  0  0  0  0  0
  128.5950  128.6450   60.4020 F   0  0  0  0  0  0  0  0  0  0  0  0
  127.1890  127.0370   60.8070 F   0  0  0  0  0  0  0  0  0  0  0  0
  126.2770  129.6140   62.1290 C   0  0  0  0  0  0  0  0  0  0  0  0
  127.0270  129.2270   63.2990 C   0  0  0  0  0  0  0  0  0  0  0  0
  128.0530  128.3180   63.2520 N   0  0  0  0  0  0  0  0  0  0  0  0
  127.5360  127.7590   68.5100 C   0  0  0  0  0  0  0  0  0  0  0  0
  128.2220  127.3220   69.6390 C   0  0  0  0  0  0  0  0  0  0  0  0
  1  2  1  0
  2  3  1  0
  3  4  2  0
  4  5  1  0
  5  6  2  0
  6  7  1  0
  7  8  1  0
  8  9  2  0
  8 10  1  0
 10 11  1  0
 11 12  1  0
 12 13  2  0
 13 14  1  0
 14 15  1  0
 14 16  2  0
 16 17  1  0
 17 18  1  0
 18 19  1  0
 18 20  1  0
 18 21  1  0
 17 22  2  0
 22 23  1  0
 23 24  1  0
  6 25  1  0
 25 26  2  0
 26  3  1  0
 23 10  2  0
 22 12  1  0
M  END
>  <Binding energies>  (49) 
[-6.1]

>  <Ligand effiencies>  (49) 
[-0.21034482758620687]

>  <Interactions>  (49) 
["V-A:GLU:543:CD:4906, V-B:GLU:543:CG:9879, V-A:HIS:456:CE1:4068, V-B:GLU:543:CD:9880, V-A:HIS:456:CD2:4066, V-B:GLU:543:C:9874, V-B:ASP:366:CB:8184, V-B:ASP:366:CG:8185, V-A:TYR:539:CE2:4874, H-B:TYR:484:OH:9320, H-B:GLU:543:OE1:9881, H-A:GLU:543:OE1:4907, H-A:GLU:543:OE2:4908, V-A:GLU:543:CB:4904, H-B:GLU:543:OE2:9882, V-B:ILE:369:CD1:8211, V-B:ILE:369:CG2:8209, V-B:HIS:456:CE1:9042, V-B:ASP:366:CA:8182, V-A:GLU:543:CG:4905, V-B:ILE:369:CB:8208, V-A:GLU:543:C:4900, V-B:GLY:544:C:9884"]

$$$$
4bf_Grossjean_2025
     RDKit          3D

 24 26  0  0  0  0  0  0  0  0999 V2000
  123.4950  131.3980   59.3930 C   0  0  0  0  0  0  0  0  0  0  0  0
  124.4960  130.7470   60.3310 C   0  0  0  0  0  0  0  0  0  0  0  0
  125.4100  129.8060   59.8650 C   0  0  0  0  0  0  0  0  0  0  0  0
  126.3280  129.2110   60.7430 C   0  0  0  0  0  0  0  0  0  0  0  0
  127.3130  128.1780   60.1850 C   0  0  0  0  0  0  0  0  0  0  0  0
  128.5900  128.5290   60.3550 F   0  0  0  0  0  0  0  0  0  0  0  0
  127.1360  127.0070   60.7970 F   0  0  0  0  0  0  0  0  0  0  0  0
  127.1120  128.0250   58.8750 F   0  0  0  0  0  0  0  0  0  0  0  0
  126.2760  129.6120   62.1120 C   0  0  0  0  0  0  0  0  0  0  0  0
  127.0370  129.2290   63.2760 C   0  0  0  0  0  0  0  0  0  0  0  0
  128.0530  128.3080   63.2260 N   0  0  0  0  0  0  0  0  0  0  0  0
  126.6480  129.8830   64.4570 C   0  0  0  0  0  0  0  0  0  0  0  0
  127.1800  129.7130   65.8130 C   0  0  0  0  0  0  0  0  0  0  0  0
  127.1300  130.6360   66.6260 O   0  0  0  0  0  0  0  0  0  0  0  0
  127.6960  128.4890   66.0840 N   0  0  0  0  0  0  0  0  0  0  0  0
  128.3210  128.0200   67.2550 C   0  0  0  0  0  0  0  0  0  0  0  0
  129.6990  127.7900   67.4080 C   0  0  0  0  0  0  0  0  0  0  0  0
  130.1890  127.3070   68.6240 C   0  0  0  0  0  0  0  0  0  0  0  0
  129.2850  127.0610   69.6570 C   0  0  0  0  0  0  0  0  0  0  0  0
  127.9510  127.2680   69.5330 N   0  0  0  0  0  0  0  0  0  0  0  0
  127.4890  127.7370   68.3460 C   0  0  0  0  0  0  0  0  0  0  0  0
  125.3160  130.9970   64.1590 S   0  0  0  0  0  0  0  0  0  0  0  0
  125.2910  130.5870   62.4600 C   0  0  0  0  0  0  0  0  0  0  0  0
  124.4220  131.1500   61.6210 N   0  0  0  0  0  0  0  0  0  0  0  0
  1  2  1  0
  2  3  2  0
  3  4  1  0
  4  5  1  0
  5  6  1  0
  5  7  1  0
  5  8  1  0
  4  9  2  0
  9 10  1  0
 10 11  1  0
 10 12  2  0
 12 13  1  0
 13 14  2  0
 13 15  1  0
 15 16  1  0
 16 17  2  0
 17 18  1  0
 18 19  2  0
 19 20  1  0
 20 21  2  0
 12 22  1  0
 22 23  1  0
 23 24  2  0
 24  2  1  0
 23  9  1  0
 21 16  1  0
M  END
>  <Binding energies>  (50) 
[-5.87]

>  <Ligand effiencies>  (50) 
[-0.2174074074074074]

>  <Interactions>  (50) 
["V-A:GLU:543:CD:4906, V-B:GLU:543:CG:9879, V-A:HIS:456:CE1:4068, V-B:GLU:543:CD:9880, V-B:GLU:543:C:9874, V-B:ASP:366:CB:8184, V-B:ASP:366:CG:8185, V-A:TYR:539:CE2:4874, H-B:TYR:484:OH:9320, H-B:GLU:543:OE1:9881, H-A:GLU:543:OE1:4907, H-A:GLU:543:OE2:4908, V-A:GLU:543:CB:4904, H-B:GLU:543:OE2:9882, V-B:ILE:369:CD1:8211, V-B:ILE:369:CG2:8209, V-B:HIS:456:CE1:9042, V-B:ASP:366:CA:8182, V-B:ARG:545:CG:9894, V-A:GLU:543:CG:4905, V-B:ILE:369:CB:8208, V-A:GLU:543:C:4900"]

$$$$
4bh_Grossjean_2025
     RDKit          3D

 31 33  0  0  0  0  0  0  0  0999 V2000
  123.7260  133.7730   61.4710 C   0  0  0  0  0  0  0  0  0  0  0  0
  125.0760  133.8140   61.0240 O   0  0  0  0  0  0  0  0  0  0  0  0
  125.9530  132.8190   61.4170 C   0  0  0  0  0  0  0  0  0  0  0  0
  125.5690  131.6730   62.1300 C   0  0  0  0  0  0  0  0  0  0  0  0
  126.5080  130.7090   62.4970 C   0  0  0  0  0  0  0  0  0  0  0  0
  126.0650  129.4490   63.2310 C   0  0  0  0  0  0  0  0  0  0  0  0
  126.8410  128.2610   62.8730 N   0  0  0  0  0  0  0  0  0  0  0  0
  127.0700  127.8270   61.6160 C   0  0  0  0  0  0  0  0  0  0  0  0
  126.5990  128.3880   60.6250 O   0  0  0  0  0  0  0  0  0  0  0  0
  127.8800  126.6150   61.4930 C   0  0  0  0  0  0  0  0  0  0  0  0
  127.2690  125.2340   60.5860 S   0  0  0  0  0  0  0  0  0  0  0  0
  128.7030  124.3040   60.9540 C   0  0  0  0  0  0  0  0  0  0  0  0
  128.8570  123.0590   60.5040 N   0  0  0  0  0  0  0  0  0  0  0  0
  130.0100  122.4410   60.8520 C   0  0  0  0  0  0  0  0  0  0  0  0
  130.1650  121.0230   60.3320 C   0  0  0  0  0  0  0  0  0  0  0  0
  131.0020  123.0320   61.6290 C   0  0  0  0  0  0  0  0  0  0  0  0
  130.8440  124.3430   62.1070 C   0  0  0  0  0  0  0  0  0  0  0  0
  131.9650  124.9530   62.9560 C   0  0  0  0  0  0  0  0  0  0  0  0
  132.9040  124.0680   63.2960 F   0  0  0  0  0  0  0  0  0  0  0  0
  132.5640  125.9300   62.2770 F   0  0  0  0  0  0  0  0  0  0  0  0
  131.4560  125.4490   64.0840 F   0  0  0  0  0  0  0  0  0  0  0  0
  129.6390  125.0220   61.7600 C   0  0  0  0  0  0  0  0  0  0  0  0
  129.1320  126.3380   62.0640 C   0  0  0  0  0  0  0  0  0  0  0  0
  129.8200  127.2390   62.8350 N   0  0  0  0  0  0  0  0  0  0  0  0
  127.8440  130.8740   62.1250 C   0  0  0  0  0  0  0  0  0  0  0  0
  128.2580  132.0140   61.4190 C   0  0  0  0  0  0  0  0  0  0  0  0
  129.5650  132.2500   61.0300 O   0  0  0  0  0  0  0  0  0  0  0  0
  130.5140  131.1900   61.0980 C   0  0  0  0  0  0  0  0  0  0  0  0
  127.3030  132.9820   61.0760 C   0  0  0  0  0  0  0  0  0  0  0  0
  127.6920  134.0950   60.3680 O   0  0  0  0  0  0  0  0  0  0  0  0
  127.4680  135.3210   61.0500 C   0  0  0  0  0  0  0  0  0  0  0  0
  1  2  1  0
  2  3  1  0
  3  4  2  0
  4  5  1  0
  5  6  1  0
  6  7  1  0
  7  8  1  0
  8  9  2  0
  8 10  1  0
 10 11  1  0
 11 12  1  0
 12 13  2  0
 13 14  1  0
 14 15  1  0
 14 16  2  0
 16 17  1  0
 17 18  1  0
 18 19  1  0
 18 20  1  0
 18 21  1  0
 17 22  2  0
 22 23  1  0
 23 24  1  0
  5 25  2  0
 25 26  1  0
 26 27  1  0
 27 28  1  0
 26 29  2  0
 29 30  1  0
 30 31  1  0
 29  3  1  0
 23 10  2  0
 22 12  1  0
M  END
>  <Binding energies>  (51) 
[-5.25]

>  <Ligand effiencies>  (51) 
[-0.15441176470588236]

>  <Interactions>  (51) 
["V-A:GLU:543:CD:4906, V-A:ASP:366:CG:3211, V-B:TYR:539:CE2:9848, V-B:GLU:543:CD:9880, V-A:ARG:545:CZ:4924, V-A:GLY:454:CA:4047, V-B:TYR:539:CD2:9846, V-B:ALA:541:CB:9864, H-B:ARG:545:NH2:9900, V-A:TYR:539:CD2:4872, V-B:LEU:475:CD2:9231, V-A:ALA:541:CB:4890, H-B:GLU:543:OE1:9881, V-B:ARG:545:CZ:9898, H-A:GLU:543:OE1:4907, H-A:GLU:543:OE2:4908, H-B:GLU:543:OE2:9882, V-B:ILE:369:CD1:8211, V-B:ILE:369:CG2:8209, V-A:PRO:540:CA:4881, H-A:ALA:541:N:4889, V-B:PRO:482:CG:9299, V-B:PRO:482:CB:9298, V-B:TRP:381:CH2:8344"]

$$$$
4bi_Grossjean_2025
     RDKit          3D

 23 25  0  0  0  0  0  0  0  0999 V2000
  127.1270  135.8430   60.6460 C   0  0  0  0  0  0  0  0  0  0  0  0
  126.5690  134.5170   61.1310 C   0  0  0  0  0  0  0  0  0  0  0  0
  125.6470  133.8050   60.3680 C   0  0  0  0  0  0  0  0  0  0  0  0
  125.1410  132.5780   60.8270 C   0  0  0  0  0  0  0  0  0  0  0  0
  124.1350  131.8260   59.9490 C   0  0  0  0  0  0  0  0  0  0  0  0
  123.0220  131.4880   60.6040 F   0  0  0  0  0  0  0  0  0  0  0  0
  123.7750  132.5910   58.9190 F   0  0  0  0  0  0  0  0  0  0  0  0
  124.6860  130.7020   59.4910 F   0  0  0  0  0  0  0  0  0  0  0  0
  125.6100  132.1120   62.0910 C   0  0  0  0  0  0  0  0  0  0  0  0
  125.3230  130.9320   62.8700 C   0  0  0  0  0  0  0  0  0  0  0  0
  124.4400  129.9670   62.4560 N   0  0  0  0  0  0  0  0  0  0  0  0
  126.0320  130.8550   64.0800 C   0  0  0  0  0  0  0  0  0  0  0  0
  125.9740  129.8130   65.1090 C   0  0  0  0  0  0  0  0  0  0  0  0
  124.9100  129.2530   65.3780 O   0  0  0  0  0  0  0  0  0  0  0  0
  127.1560  129.5160   65.7040 N   0  0  0  0  0  0  0  0  0  0  0  0
  127.3910  128.5700   66.6930 C   0  0  0  0  0  0  0  0  0  0  0  0
  128.6260  128.4150   67.3210 C   0  0  0  0  0  0  0  0  0  0  0  0
  128.4440  127.3900   68.2220 C   0  0  0  0  0  0  0  0  0  0  0  0
  127.1650  126.9510   68.1400 O   0  0  0  0  0  0  0  0  0  0  0  0
  126.5080  127.7070   67.1670 N   0  0  0  0  0  0  0  0  0  0  0  0
  127.0640  132.2660   64.3040 S   0  0  0  0  0  0  0  0  0  0  0  0
  126.5560  132.9380   62.7720 C   0  0  0  0  0  0  0  0  0  0  0  0
  127.0330  134.1010   62.3310 N   0  0  0  0  0  0  0  0  0  0  0  0
  1  2  1  0
  2  3  2  0
  3  4  1  0
  4  5  1  0
  5  6  1  0
  5  7  1  0
  5  8  1  0
  4  9  2  0
  9 10  1  0
 10 11  1  0
 10 12  2  0
 12 13  1  0
 13 14  2  0
 13 15  1  0
 15 16  1  0
 16 17  1  0
 17 18  2  0
 18 19  1  0
 19 20  1  0
 12 21  1  0
 21 22  1  0
 22 23  2  0
 23  2  1  0
 22  9  1  0
 20 16  2  0
M  END
>  <Binding energies>  (52) 
[-6.1]

>  <Ligand effiencies>  (52) 
[-0.23461538461538461]

>  <Interactions>  (52) 
["V-A:GLU:543:CD:4906, V-B:GLU:543:CG:9879, V-B:GLU:543:CD:9880, V-B:ASP:366:CB:8184, V-B:ASP:366:CG:8185, V-A:TYR:539:CE2:4874, H-B:ARG:545:NH2:9900, V-A:TYR:539:CD2:4872, H-B:ASP:366:OD1:8186, V-B:LEU:475:CD2:9231, V-A:ALA:541:CB:4890, H-B:TYR:484:OH:9320, V-B:ARG:545:CZ:9898, H-A:GLU:543:OE1:4907, H-A:GLU:543:OE2:4908, V-A:GLU:543:CB:4904, V-B:ILE:369:CD1:8211, V-B:ILE:369:CG2:8209, V-A:TYR:539:CZ:4875, V-B:HIS:456:CE1:9042, V-B:TYR:484:CE1:9317, V-B:TYR:484:CZ:9319, H-B:ARG:545:NE:9896, V-A:GLU:543:CG:4905, V-B:ILE:369:CB:8208, V-B:PRO:482:CG:9299, V-B:PRO:482:CB:9298, V-B:TRP:381:CZ2:8342, V-B:TRP:381:CH2:8344, V-B:ILE:369:CG1:8210, V-B:TRP:381:CZ3:8343"]

$$$$
4bj_Grossjean_2025
     RDKit          3D

 23 25  0  0  0  0  0  0  0  0999 V2000
  123.5030  131.5030   59.4160 C   0  0  0  0  0  0  0  0  0  0  0  0
  124.4990  130.8390   60.3490 C   0  0  0  0  0  0  0  0  0  0  0  0
  125.4280  129.9190   59.8700 C   0  0  0  0  0  0  0  0  0  0  0  0
  126.3390  129.3070   60.7450 C   0  0  0  0  0  0  0  0  0  0  0  0
  127.3410  128.2980   60.1710 C   0  0  0  0  0  0  0  0  0  0  0  0
  128.6110  128.6550   60.3690 F   0  0  0  0  0  0  0  0  0  0  0  0
  127.1640  127.1100   60.7480 F   0  0  0  0  0  0  0  0  0  0  0  0
  127.1580  128.1810   58.8560 F   0  0  0  0  0  0  0  0  0  0  0  0
  126.2660  129.6720   62.1220 C   0  0  0  0  0  0  0  0  0  0  0  0
  127.0130  129.2630   63.2870 C   0  0  0  0  0  0  0  0  0  0  0  0
  128.0280  128.3420   63.2310 N   0  0  0  0  0  0  0  0  0  0  0  0
  126.6130  129.8950   64.4760 C   0  0  0  0  0  0  0  0  0  0  0  0
  127.1420  129.7110   65.8290 C   0  0  0  0  0  0  0  0  0  0  0  0
  127.1530  130.6450   66.6350 O   0  0  0  0  0  0  0  0  0  0  0  0
  127.5900  128.4640   66.1160 N   0  0  0  0  0  0  0  0  0  0  0  0
  128.1240  128.0260   67.3200 C   0  0  0  0  0  0  0  0  0  0  0  0
  127.4890  127.7840   68.4460 N   0  0  0  0  0  0  0  0  0  0  0  0
  128.3130  127.3740   69.3890 C   0  0  0  0  0  0  0  0  0  0  0  0
  129.6550  127.2780   69.0350 C   0  0  0  0  0  0  0  0  0  0  0  0
  129.8370  127.7540   67.3730 S   0  0  0  0  0  0  0  0  0  0  0  0
  125.2760  131.0060   64.1900 S   0  0  0  0  0  0  0  0  0  0  0  0
  125.2710  130.6320   62.4820 C   0  0  0  0  0  0  0  0  0  0  0  0
  124.4060  131.2080   61.6480 N   0  0  0  0  0  0  0  0  0  0  0  0
  1  2  1  0
  2  3  2  0
  3  4  1  0
  4  5  1  0
  5  6  1  0
  5  7  1  0
  5  8  1  0
  4  9  2  0
  9 10  1  0
 10 11  1  0
 10 12  2  0
 12 13  1  0
 13 14  2  0
 13 15  1  0
 15 16  1  0
 16 17  2  0
 17 18  1  0
 18 19  2  0
 19 20  1  0
 12 21  1  0
 21 22  1  0
 22 23  2  0
 23  2  1  0
 22  9  1  0
 20 16  1  0
M  END
>  <Binding energies>  (53) 
[-5.81]

>  <Ligand effiencies>  (53) 
[-0.22346153846153843]

>  <Interactions>  (53) 
["V-A:GLU:543:CD:4906, V-B:GLU:543:CG:9879, V-A:HIS:456:CE1:4068, V-B:GLU:543:CD:9880, V-B:GLU:543:C:9874, V-B:ASP:366:CB:8184, V-B:ASP:366:CG:8185, V-A:TYR:539:CE2:4874, H-B:TYR:484:OH:9320, H-B:GLU:543:OE1:9881, H-A:GLU:543:OE1:4907, H-A:GLU:543:OE2:4908, V-A:GLU:543:CB:4904, H-B:GLU:543:OE2:9882, V-B:ILE:369:CD1:8211, V-B:ILE:369:CG2:8209, V-B:HIS:456:CE1:9042, V-B:ASP:366:CA:8182, V-A:GLU:543:CG:4905, V-B:ILE:369:CB:8208"]

$$$$
4bk_Grossjean_2025
     RDKit          3D

 28 29  0  0  0  0  0  0  0  0999 V2000
  126.7100  130.1850   74.4930 C   0  0  0  0  0  0  0  0  0  0  0  0
  127.7630  129.5990   73.7420 O   0  0  0  0  0  0  0  0  0  0  0  0
  127.4930  128.2640   73.3360 C   0  0  0  0  0  0  0  0  0  0  0  0
  127.8490  128.0980   71.8530 C   0  0  0  0  0  0  0  0  0  0  0  0
  128.7820  127.0360   71.7070 O   0  0  0  0  0  0  0  0  0  0  0  0
  129.6640  127.1950   70.6050 C   0  0  0  0  0  0  0  0  0  0  0  0
  128.8850  127.7460   69.4030 C   0  0  0  0  0  0  0  0  0  0  0  0
  129.6600  127.5770   68.2240 O   0  0  0  0  0  0  0  0  0  0  0  0
  128.8830  127.3470   67.0540 C   0  0  0  0  0  0  0  0  0  0  0  0
  127.4800  127.9470   67.2470 C   0  0  0  0  0  0  0  0  0  0  0  0
  126.9710  128.6440   66.0640 N   0  0  0  0  0  0  0  0  0  0  0  0
  126.9560  129.9820   65.8940 C   0  0  0  0  0  0  0  0  0  0  0  0
  127.4020  130.7600   66.7390 O   0  0  0  0  0  0  0  0  0  0  0  0
  126.3850  130.4650   64.6360 C   0  0  0  0  0  0  0  0  0  0  0  0
  125.0140  129.6310   63.9100 S   0  0  0  0  0  0  0  0  0  0  0  0
  124.9620  130.7730   62.5890 C   0  0  0  0  0  0  0  0  0  0  0  0
  124.0590  130.6690   61.6150 N   0  0  0  0  0  0  0  0  0  0  0  0
  124.1170  131.6140   60.6470 C   0  0  0  0  0  0  0  0  0  0  0  0
  123.0770  131.4780   59.5490 C   0  0  0  0  0  0  0  0  0  0  0  0
  125.0480  132.6490   60.6310 C   0  0  0  0  0  0  0  0  0  0  0  0
  126.0030  132.7630   61.6530 C   0  0  0  0  0  0  0  0  0  0  0  0
  127.0100  133.9170   61.5890 C   0  0  0  0  0  0  0  0  0  0  0  0
  127.0880  134.6050   62.7300 F   0  0  0  0  0  0  0  0  0  0  0  0
  128.2260  133.4400   61.3260 F   0  0  0  0  0  0  0  0  0  0  0  0
  126.6560  134.7720   60.6320 F   0  0  0  0  0  0  0  0  0  0  0  0
  125.9690  131.7840   62.6900 C   0  0  0  0  0  0  0  0  0  0  0  0
  126.7640  131.5810   63.8760 C   0  0  0  0  0  0  0  0  0  0  0  0
  127.8010  132.4090   64.2230 N   0  0  0  0  0  0  0  0  0  0  0  0
  1  2  1  0
  2  3  1  0
  3  4  1  0
  4  5  1  0
  5  6  1  0
  6  7  1  0
  7  8  1  0
  8  9  1  0
  9 10  1  0
 10 11  1  0
 11 12  1  0
 12 13  2  0
 12 14  1  0
 14 15  1  0
 15 16  1  0
 16 17  2  0
 17 18  1  0
 18 19  1  0
 18 20  2  0
 20 21  1  0
 21 22  1  0
 22 23  1  0
 22 24  1  0
 22 25  1  0
 21 26  2  0
 26 27  1  0
 27 28  1  0
 27 14  2  0
 26 16  1  0
M  END
>  <Binding energies>  (54) 
[-6.05]

>  <Ligand effiencies>  (54) 
[-0.19516129032258064]

>  <Interactions>  (54) 
["V-A:GLU:543:CD:4906, V-B:GLU:543:CG:9879, V-A:HIS:456:CE1:4068, V-B:GLU:543:CD:9880, V-B:LYS:547:CE:9922, V-B:ASP:366:CB:8184, V-B:ASP:366:CG:8185, V-A:TYR:539:CE2:4874, V-A:TYR:539:CD2:4872, V-B:LEU:475:CD2:9231, V-A:ALA:541:CB:4890, H-B:TYR:484:OH:9320, V-B:ARG:545:CZ:9898, H-A:GLU:543:OE1:4907, V-A:GLU:543:CB:4904, H-B:GLU:543:OE2:9882, V-B:ILE:369:CD1:8211, V-B:ILE:369:CG2:8209, V-B:HIS:456:CE1:9042, V-B:TYR:484:CE1:9317, V-B:TYR:484:CZ:9319, V-B:ASP:366:CA:8182, V-B:ARG:545:CG:9894, V-A:GLU:543:CG:4905, V-B:ILE:369:CB:8208, V-B:TRP:381:CH2:8344, V-B:HIS:456:CG:9038, H-A:LYS:547:NZ:4949, V-B:HIS:456:CB:9037, V-A:GLU:543:C:4900, V-B:HIS:456:CD2:9040, V-B:GLY:544:C:9884, V-A:ALA:541:CA:4888, V-B:ILE:369:CG1:8210, V-B:LEU:475:CG:9229, V-B:LEU:475:CD1:9230"]

$$$$
4cd_Grossjean_2025
     RDKit          3D

 29 32  0  0  0  0  0  0  0  0999 V2000
  126.0850  126.7220   60.5980 N   0  0  0  0  0  0  0  0  0  0  0  0
  127.3630  126.6750   61.0960 C   0  0  0  0  0  0  0  0  0  0  0  0
  127.9380  127.7180   61.8400 C   0  0  0  0  0  0  0  0  0  0  0  0
  127.3490  129.0090   62.2090 C   0  0  0  0  0  0  0  0  0  0  0  0
  126.6200  129.1080   63.1960 O   0  0  0  0  0  0  0  0  0  0  0  0
  127.6740  130.0480   61.4000 N   0  0  0  0  0  0  0  0  0  0  0  0
  127.2430  131.3870   61.4440 C   0  0  0  0  0  0  0  0  0  0  0  0
  128.1500  132.3380   60.9690 C   0  0  0  0  0  0  0  0  0  0  0  0
  127.8120  133.6880   60.9580 C   0  0  0  0  0  0  0  0  0  0  0  0
  126.5610  134.0890   61.4180 C   0  0  0  0  0  0  0  0  0  0  0  0
  125.6420  133.1510   61.8820 C   0  0  0  0  0  0  0  0  0  0  0  0
  125.9770  131.7990   61.8940 C   0  0  0  0  0  0  0  0  0  0  0  0
  129.5830  127.3190   62.3280 S   0  0  0  0  0  0  0  0  0  0  0  0
  129.4930  125.7690   61.5280 C   0  0  0  0  0  0  0  0  0  0  0  0
  130.5210  124.9230   61.5350 N   0  0  0  0  0  0  0  0  0  0  0  0
  130.3610  123.7460   60.8740 C   0  0  0  0  0  0  0  0  0  0  0  0
  131.5370  122.8140   60.8970 C   0  0  0  0  0  0  0  0  0  0  0  0
  132.7220  123.1680   61.5640 C   0  0  0  0  0  0  0  0  0  0  0  0
  133.8160  122.3080   61.5900 C   0  0  0  0  0  0  0  0  0  0  0  0
  133.7420  121.0770   60.9460 C   0  0  0  0  0  0  0  0  0  0  0  0
  132.5800  120.7010   60.2810 C   0  0  0  0  0  0  0  0  0  0  0  0
  131.4880  121.5620   60.2600 C   0  0  0  0  0  0  0  0  0  0  0  0
  129.1660  123.4170   60.2280 C   0  0  0  0  0  0  0  0  0  0  0  0
  128.0740  124.3010   60.2180 C   0  0  0  0  0  0  0  0  0  0  0  0
  126.7950  123.8790   59.4870 C   0  0  0  0  0  0  0  0  0  0  0  0
  125.8030  123.5450   60.3160 F   0  0  0  0  0  0  0  0  0  0  0  0
  126.3580  124.8820   58.7260 F   0  0  0  0  0  0  0  0  0  0  0  0
  127.0450  122.8190   58.7170 F   0  0  0  0  0  0  0  0  0  0  0  0
  128.2350  125.5430   60.8970 C   0  0  0  0  0  0  0  0  0  0  0  0
  1  2  1  0
  2  3  2  0
  3  4  1  0
  4  5  2  0
  4  6  1  0
  6  7  1  0
  7  8  2  0
  8  9  1  0
  9 10  2  0
 10 11  1  0
 11 12  2  0
  3 13  1  0
 13 14  1  0
 14 15  2  0
 15 16  1  0
 16 17  1  0
 17 18  2  0
 18 19  1  0
 19 20  2  0
 20 21  1  0
 21 22  2  0
 16 23  2  0
 23 24  1  0
 24 25  1  0
 25 26  1  0
 25 27  1  0
 25 28  1  0
 24 29  2  0
 29  2  1  0
 12  7  1  0
 29 14  1  0
 22 17  1  0
M  END
>  <Binding energies>  (55) 
[-5.82]

>  <Ligand effiencies>  (55) 
[-0.181875]

>  <Interactions>  (55) 
["V-A:GLU:543:CD:4906, V-B:TYR:539:CE2:9848, V-A:ILE:369:CD1:3237, V-A:ILE:369:CG2:3235, V-A:GLY:454:CA:4047, V-B:PRO:540:CB:9857, V-B:ASP:366:CG:8185, V-B:PRO:540:C:9853, V-B:TYR:539:CD2:9846, V-B:PRO:540:N:9856, V-B:PRO:540:CA:9855, H-B:ARG:545:NH2:9900, V-A:TYR:539:CD2:4872, H-B:ASP:366:OD1:8186, V-A:LEU:475:CD2:4257, V-B:LEU:475:CD2:9231, V-A:ALA:541:CB:4890, V-B:TYR:539:C:9839, H-B:ASP:366:OD2:8187, V-A:TRP:381:CH2:3370"]

$$$$
4cg_Grossjean_2025
     RDKit          3D

 30 33  0  0  0  0  0  0  0  0999 V2000
  125.9990  126.9490   60.6240 N   0  0  0  0  0  0  0  0  0  0  0  0
  127.2700  126.6850   61.0670 C   0  0  0  0  0  0  0  0  0  0  0  0
  128.0070  127.5760   61.8600 C   0  0  0  0  0  0  0  0  0  0  0  0
  127.5970  128.8730   62.3960 C   0  0  0  0  0  0  0  0  0  0  0  0
  127.8380  129.9220   61.7950 O   0  0  0  0  0  0  0  0  0  0  0  0
  126.9810  128.8490   63.5970 N   0  0  0  0  0  0  0  0  0  0  0  0
  126.4680  130.0170   64.3100 C   0  0  0  0  0  0  0  0  0  0  0  0
  125.5200  130.8700   63.4730 C   0  0  0  0  0  0  0  0  0  0  0  0
  124.3290  130.3160   62.9930 C   0  0  0  0  0  0  0  0  0  0  0  0
  123.4460  131.1010   62.2560 C   0  0  0  0  0  0  0  0  0  0  0  0
  123.7510  132.4370   62.0090 C   0  0  0  0  0  0  0  0  0  0  0  0
  124.9290  132.9990   62.4990 C   0  0  0  0  0  0  0  0  0  0  0  0
  125.8110  132.2160   63.2370 C   0  0  0  0  0  0  0  0  0  0  0  0
  129.5890  126.9160   62.2670 S   0  0  0  0  0  0  0  0  0  0  0  0
  129.2620  125.4610   61.3540 C   0  0  0  0  0  0  0  0  0  0  0  0
  130.1570  124.4820   61.2660 N   0  0  0  0  0  0  0  0  0  0  0  0
  129.8130  123.3870   60.5390 C   0  0  0  0  0  0  0  0  0  0  0  0
  130.8460  122.2990   60.4570 C   0  0  0  0  0  0  0  0  0  0  0  0
  132.2080  122.6080   60.3070 C   0  0  0  0  0  0  0  0  0  0  0  0
  133.1690  121.6050   60.2290 C   0  0  0  0  0  0  0  0  0  0  0  0
  132.7800  120.2700   60.2990 C   0  0  0  0  0  0  0  0  0  0  0  0
  131.4390  119.9360   60.4440 C   0  0  0  0  0  0  0  0  0  0  0  0
  130.4810  120.9430   60.5210 C   0  0  0  0  0  0  0  0  0  0  0  0
  128.5770  123.2910   59.8880 C   0  0  0  0  0  0  0  0  0  0  0  0
  127.6260  124.3190   59.9740 C   0  0  0  0  0  0  0  0  0  0  0  0
  126.2920  124.1500   59.2360 C   0  0  0  0  0  0  0  0  0  0  0  0
  125.9130  125.2490   58.5820 F   0  0  0  0  0  0  0  0  0  0  0  0
  126.3940  123.1670   58.3410 F   0  0  0  0  0  0  0  0  0  0  0  0
  125.3300  123.8520   60.1080 F   0  0  0  0  0  0  0  0  0  0  0  0
  127.9710  125.4660   60.7470 C   0  0  0  0  0  0  0  0  0  0  0  0
  1  2  1  0
  2  3  2  0
  3  4  1  0
  4  5  2  0
  4  6  1  0
  6  7  1  0
  7  8  1  0
  8  9  2  0
  9 10  1  0
 10 11  2  0
 11 12  1  0
 12 13  2  0
  3 14  1  0
 14 15  1  0
 15 16  2  0
 16 17  1  0
 17 18  1  0
 18 19  2  0
 19 20  1  0
 20 21  2  0
 21 22  1  0
 22 23  2  0
 17 24  2  0
 24 25  1  0
 25 26  1  0
 26 27  1  0
 26 28  1  0
 26 29  1  0
 25 30  2  0
 30  2  1  0
 13  8  1  0
 30 15  1  0
 23 18  1  0
M  END
>  <Binding energies>  (56) 
[-6.96]

>  <Ligand effiencies>  (56) 
[-0.2109090909090909]

>  <Interactions>  (56) 
["V-A:GLU:543:CD:4906, V-B:TYR:539:CE2:9848, V-A:ILE:369:CD1:3237, V-A:ILE:369:CG2:3235, V-B:GLU:543:CD:9880, V-B:PRO:540:CB:9857, V-B:ASP:366:CG:8185, V-B:PRO:540:C:9853, V-B:TYR:539:CD2:9846, V-B:PRO:540:N:9856, V-B:PRO:540:CA:9855, V-B:ALA:541:CB:9864, V-B:GLY:454:CA:9021, H-B:ASP:366:OD1:8186, V-A:LEU:475:CD2:4257, V-B:LEU:475:CD2:9231, V-B:TYR:539:C:9839, V-B:ARG:545:CZ:9898, H-B:GLU:543:OE2:9882, V-B:ILE:369:CD1:8211, H-B:ASP:366:OD2:8187, V-A:TRP:381:CZ2:3368, V-A:TRP:381:CH2:3370, V-B:GLY:453:CA:9016, V-B:GLY:453:C:9014, V-B:PRO:540:CD:9859"]

$$$$
4ch_Grossjean_2025
     RDKit          3D

 36 39  0  0  0  0  0  0  0  0999 V2000
  123.5330  131.1850   59.2780 C   0  0  0  0  0  0  0  0  0  0  0  0
  123.3410  131.7730   60.5600 O   0  0  0  0  0  0  0  0  0  0  0  0
  124.4200  131.9070   61.4140 C   0  0  0  0  0  0  0  0  0  0  0  0
  124.8540  130.9000   62.2920 C   0  0  0  0  0  0  0  0  0  0  0  0
  125.9550  131.1040   63.1260 C   0  0  0  0  0  0  0  0  0  0  0  0
  126.3940  130.0100   64.0930 C   0  0  0  0  0  0  0  0  0  0  0  0
  126.9860  128.8390   63.4450 N   0  0  0  0  0  0  0  0  0  0  0  0
  127.5050  128.8090   62.2000 C   0  0  0  0  0  0  0  0  0  0  0  0
  127.5540  129.8080   61.4790 O   0  0  0  0  0  0  0  0  0  0  0  0
  128.0460  127.5220   61.7610 C   0  0  0  0  0  0  0  0  0  0  0  0
  129.6730  127.0420   62.2340 S   0  0  0  0  0  0  0  0  0  0  0  0
  129.5140  125.5190   61.3930 C   0  0  0  0  0  0  0  0  0  0  0  0
  130.5050  124.6310   61.3700 N   0  0  0  0  0  0  0  0  0  0  0  0
  130.2880  123.4720   60.6950 C   0  0  0  0  0  0  0  0  0  0  0  0
  131.4280  122.4950   60.6830 C   0  0  0  0  0  0  0  0  0  0  0  0
  132.7200  122.8930   61.0640 C   0  0  0  0  0  0  0  0  0  0  0  0
  133.7820  121.9920   61.0540 C   0  0  0  0  0  0  0  0  0  0  0  0
  133.5660  120.6750   60.6620 C   0  0  0  0  0  0  0  0  0  0  0  0
  132.2970  120.2550   60.2760 C   0  0  0  0  0  0  0  0  0  0  0  0
  131.2390  121.1600   60.2850 C   0  0  0  0  0  0  0  0  0  0  0  0
  129.0830  123.2190   60.0320 C   0  0  0  0  0  0  0  0  0  0  0  0
  128.0310  124.1490   60.0480 C   0  0  0  0  0  0  0  0  0  0  0  0
  126.7370  123.8080   59.3000 C   0  0  0  0  0  0  0  0  0  0  0  0
  126.2550  124.8320   58.5920 F   0  0  0  0  0  0  0  0  0  0  0  0
  126.9570  122.8050   58.4520 F   0  0  0  0  0  0  0  0  0  0  0  0
  125.7950  123.4470   60.1710 F   0  0  0  0  0  0  0  0  0  0  0  0
  128.2440  125.3620   60.7640 C   0  0  0  0  0  0  0  0  0  0  0  0
  127.4200  126.5220   61.0020 C   0  0  0  0  0  0  0  0  0  0  0  0
  126.1400  126.6370   60.5200 N   0  0  0  0  0  0  0  0  0  0  0  0
  126.6220  132.3290   63.0980 C   0  0  0  0  0  0  0  0  0  0  0  0
  126.2090  133.3530   62.2310 C   0  0  0  0  0  0  0  0  0  0  0  0
  126.8240  134.5900   62.1500 O   0  0  0  0  0  0  0  0  0  0  0  0
  127.4780  134.9680   60.9440 C   0  0  0  0  0  0  0  0  0  0  0  0
  125.1110  133.1270   61.3890 C   0  0  0  0  0  0  0  0  0  0  0  0
  124.6870  134.1260   60.5470 O   0  0  0  0  0  0  0  0  0  0  0  0
  123.7330  135.0060   61.1260 C   0  0  0  0  0  0  0  0  0  0  0  0
  1  2  1  0
  2  3  1  0
  3  4  2  0
  4  5  1  0
  5  6  1  0
  6  7  1  0
  7  8  1  0
  8  9  2  0
  8 10  1  0
 10 11  1  0
 11 12  1  0
 12 13  2  0
 13 14  1  0
 14 15  1  0
 15 16  2  0
 16 17  1  0
 17 18  2  0
 18 19  1  0
 19 20  2  0
 14 21  2  0
 21 22  1  0
 22 23  1  0
 23 24  1  0
 23 25  1  0
 23 26  1  0
 22 27  2  0
 27 28  1  0
 28 29  1  0
  5 30  2  0
 30 31  1  0
 31 32  1  0
 32 33  1  0
 31 34  2  0
 34 35  1  0
 35 36  1  0
 34  3  1  0
 28 10  2  0
 27 12  1  0
 20 15  1  0
M  END
>  <Binding energies>  (57) 
[-6.58]

>  <Ligand effiencies>  (57) 
[-0.1687179487179487]

>  <Interactions>  (57) 
["V-A:GLU:543:CD:4906, V-B:TYR:539:CE2:9848, V-A:ILE:369:CD1:3237, V-A:ILE:369:CG2:3235, V-B:GLU:543:CD:9880, V-B:ASP:366:CB:8184, V-B:PRO:540:CB:9857, V-B:ASP:366:CG:8185, V-B:PRO:540:C:9853, V-B:TYR:539:CD2:9846, V-B:PRO:540:N:9856, V-B:PRO:540:CA:9855, V-A:TYR:539:CE2:4874, V-A:TYR:539:CD2:4872, H-B:ASP:366:OD1:8186, V-A:LEU:475:CD2:4257, V-B:LEU:475:CD2:9231, V-A:ALA:541:CB:4890, V-B:TYR:539:C:9839, H-B:GLU:543:OE1:9881, H-B:GLU:543:OE2:9882, V-B:ILE:369:CD1:8211, V-B:ILE:369:CG2:8209, V-B:ASP:366:CA:8182, H-B:ASP:366:OD2:8187, V-B:ILE:369:CB:8208, V-B:TRP:381:CZ2:8342, V-B:TRP:381:CH2:8344, V-A:TRP:381:CZ2:3368, V-A:TRP:381:CH2:3370, V-B:PRO:540:CD:9859, V-B:SER:385:CA:8379, V-B:SER:385:C:8377"]

$$$$
4cj_Grossjean_2025
     RDKit          3D

 28 31  0  0  0  0  0  0  0  0999 V2000
  126.0210  126.3680   60.2700 N   0  0  0  0  0  0  0  0  0  0  0  0
  127.2660  126.4460   60.8420 C   0  0  0  0  0  0  0  0  0  0  0  0
  127.7030  127.5540   61.5860 C   0  0  0  0  0  0  0  0  0  0  0  0
  126.9750  128.7850   61.9050 C   0  0  0  0  0  0  0  0  0  0  0  0
  125.7650  128.8770   61.6840 O   0  0  0  0  0  0  0  0  0  0  0  0
  127.7230  129.7830   62.4350 N   0  0  0  0  0  0  0  0  0  0  0  0
  127.2810  131.0410   62.8230 C   0  0  0  0  0  0  0  0  0  0  0  0
  126.7380  131.3870   63.9700 N   0  0  0  0  0  0  0  0  0  0  0  0
  126.4400  132.6710   63.9970 C   0  0  0  0  0  0  0  0  0  0  0  0
  126.7440  133.3980   62.8490 C   0  0  0  0  0  0  0  0  0  0  0  0
  127.4610  132.3320   61.6780 S   0  0  0  0  0  0  0  0  0  0  0  0
  129.3430  127.3140   62.1820 S   0  0  0  0  0  0  0  0  0  0  0  0
  129.4330  125.7390   61.4310 C   0  0  0  0  0  0  0  0  0  0  0  0
  130.5230  124.9820   61.5330 N   0  0  0  0  0  0  0  0  0  0  0  0
  130.4980  123.7690   60.9220 C   0  0  0  0  0  0  0  0  0  0  0  0
  131.7380  122.9350   61.0680 C   0  0  0  0  0  0  0  0  0  0  0  0
  132.7420  123.2950   61.9810 C   0  0  0  0  0  0  0  0  0  0  0  0
  133.8980  122.5290   62.1180 C   0  0  0  0  0  0  0  0  0  0  0  0
  134.0670  121.3900   61.3370 C   0  0  0  0  0  0  0  0  0  0  0  0
  133.0890  121.0130   60.4240 C   0  0  0  0  0  0  0  0  0  0  0  0
  131.9350  121.7810   60.2920 C   0  0  0  0  0  0  0  0  0  0  0  0
  129.3880  123.3330   60.1910 C   0  0  0  0  0  0  0  0  0  0  0  0
  128.2340  124.1240   60.0750 C   0  0  0  0  0  0  0  0  0  0  0  0
  127.0520  123.5840   59.2610 C   0  0  0  0  0  0  0  0  0  0  0  0
  126.5770  124.4650   58.3790 F   0  0  0  0  0  0  0  0  0  0  0  0
  127.4320  122.5020   58.5810 F   0  0  0  0  0  0  0  0  0  0  0  0
  126.0510  123.2590   60.0800 F   0  0  0  0  0  0  0  0  0  0  0  0
  128.2420  125.3900   60.7280 C   0  0  0  0  0  0  0  0  0  0  0  0
  1  2  1  0
  2  3  2  0
  3  4  1  0
  4  5  2  0
  4  6  1  0
  6  7  1  0
  7  8  2  0
  8  9  1  0
  9 10  2  0
 10 11  1  0
  3 12  1  0
 12 13  1  0
 13 14  2  0
 14 15  1  0
 15 16  1  0
 16 17  2  0
 17 18  1  0
 18 19  2  0
 19 20  1  0
 20 21  2  0
 15 22  2  0
 22 23  1  0
 23 24  1  0
 24 25  1  0
 24 26  1  0
 24 27  1  0
 23 28  2  0
 28  2  1  0
 11  7  1  0
 28 13  1  0
 21 16  1  0
M  END
>  <Binding energies>  (58) 
[-5.3]

>  <Ligand effiencies>  (58) 
[-0.17096774193548386]

>  <Interactions>  (58) 
["V-A:GLU:543:CD:4906, V-B:TYR:539:CE2:9848, V-A:ILE:369:CD1:3237, V-A:ILE:369:CG2:3235, V-B:GLU:543:CD:9880, V-A:GLY:454:CA:4047, V-B:PRO:540:CB:9857, V-B:ASP:366:CG:8185, V-B:PRO:540:C:9853, V-B:TYR:539:CD2:9846, V-B:PRO:540:N:9856, V-B:PRO:540:CA:9855, H-B:ARG:545:NH2:9900, H-B:ASP:366:OD1:8186, V-A:LEU:475:CD2:4257, V-B:LEU:475:CD2:9231, V-A:ALA:541:CB:4890, V-B:TYR:539:C:9839, H-B:TYR:484:OH:9320, H-A:GLU:543:OE1:4907, H-A:GLU:543:OE2:4908, V-B:TYR:484:CE1:9317, V-B:TYR:484:CZ:9319, H-B:ASP:366:OD2:8187, V-A:TRP:381:CH2:3370, V-A:GLY:453:C:4040, V-B:TYR:539:CA:9841"]

$$$$
4ck_Grossjean_2025
     RDKit          3D

 33 35  0  0  0  0  0  0  0  0999 V2000
  132.1960  125.1930   64.3920 C   0  0  0  0  0  0  0  0  0  0  0  0
  131.8850  125.8050   65.6340 O   0  0  0  0  0  0  0  0  0  0  0  0
  130.5130  125.7010   65.9870 C   0  0  0  0  0  0  0  0  0  0  0  0
  130.0840  126.9810   66.7140 C   0  0  0  0  0  0  0  0  0  0  0  0
  129.2770  126.6330   67.8300 O   0  0  0  0  0  0  0  0  0  0  0  0
  128.2690  127.5920   68.1230 C   0  0  0  0  0  0  0  0  0  0  0  0
  128.1260  128.5500   66.9340 C   0  0  0  0  0  0  0  0  0  0  0  0
  126.8340  128.3850   66.3660 O   0  0  0  0  0  0  0  0  0  0  0  0
  126.2000  129.6080   66.0140 C   0  0  0  0  0  0  0  0  0  0  0  0
  126.5880  129.9950   64.5790 C   0  0  0  0  0  0  0  0  0  0  0  0
  127.1920  128.8780   63.8520 N   0  0  0  0  0  0  0  0  0  0  0  0
  127.1250  128.6740   62.5200 C   0  0  0  0  0  0  0  0  0  0  0  0
  126.5510  129.4510   61.7560 O   0  0  0  0  0  0  0  0  0  0  0  0
  127.7900  127.4680   62.0240 C   0  0  0  0  0  0  0  0  0  0  0  0
  129.4060  127.0540   62.5910 S   0  0  0  0  0  0  0  0  0  0  0  0
  129.4110  125.5880   61.6390 C   0  0  0  0  0  0  0  0  0  0  0  0
  130.4530  124.7610   61.6420 N   0  0  0  0  0  0  0  0  0  0  0  0
  130.3650  123.6470   60.8690 C   0  0  0  0  0  0  0  0  0  0  0  0
  131.5500  122.7260   60.9080 C   0  0  0  0  0  0  0  0  0  0  0  0
  131.5060  121.4700   60.2820 C   0  0  0  0  0  0  0  0  0  0  0  0
  132.6010  120.6090   60.3170 C   0  0  0  0  0  0  0  0  0  0  0  0
  133.7600  120.9950   60.9810 C   0  0  0  0  0  0  0  0  0  0  0  0
  133.8330  122.2350   61.6050 C   0  0  0  0  0  0  0  0  0  0  0  0
  132.7370  123.0930   61.5670 C   0  0  0  0  0  0  0  0  0  0  0  0
  129.2280  123.3650   60.1050 C   0  0  0  0  0  0  0  0  0  0  0  0
  128.1240  124.2310   60.0950 C   0  0  0  0  0  0  0  0  0  0  0  0
  126.9110  123.8620   59.2310 C   0  0  0  0  0  0  0  0  0  0  0  0
  125.8070  123.6390   59.9460 F   0  0  0  0  0  0  0  0  0  0  0  0
  126.6440  124.8540   58.3820 F   0  0  0  0  0  0  0  0  0  0  0  0
  127.1710  122.7510   58.5420 F   0  0  0  0  0  0  0  0  0  0  0  0
  128.2060  125.4040   60.8990 C   0  0  0  0  0  0  0  0  0  0  0  0
  127.2930  126.4930   61.1460 C   0  0  0  0  0  0  0  0  0  0  0  0
  126.0510  126.5680   60.5680 N   0  0  0  0  0  0  0  0  0  0  0  0
  1  2  1  0
  2  3  1  0
  3  4  1  0
  4  5  1  0
  5  6  1  0
  6  7  1  0
  7  8  1  0
  8  9  1  0
  9 10  1  0
 10 11  1  0
 11 12  1  0
 12 13  2  0
 12 14  1  0
 14 15  1  0
 15 16  1  0
 16 17  2  0
 17 18  1  0
 18 19  1  0
 19 20  2  0
 20 21  1  0
 21 22  2  0
 22 23  1  0
 23 24  2  0
 18 25  2  0
 25 26  1  0
 26 27  1  0
 27 28  1  0
 27 29  1  0
 27 30  1  0
 26 31  2  0
 31 32  1  0
 32 33  1  0
 32 14  2  0
 31 16  1  0
 24 19  1  0
M  END
>  <Binding energies>  (59) 
[-5.72]

>  <Ligand effiencies>  (59) 
[-0.15888888888888889]

>  <Interactions>  (59) 
["V-A:GLU:543:CD:4906, V-B:GLU:543:CG:9879, V-A:HIS:456:CE1:4068, V-B:TYR:539:CE2:9848, V-A:ILE:369:CD1:3237, V-A:ILE:369:CG2:3235, V-B:GLU:543:CD:9880, V-B:GLU:543:CB:9878, V-A:ARG:545:CZ:4924, V-A:GLY:454:CA:4047, V-B:PRO:540:CB:9857, V-B:ASP:366:CG:8185, V-B:PRO:540:C:9853, V-B:TYR:539:CD2:9846, V-B:PRO:540:N:9856, V-B:PRO:540:CA:9855, H-B:ARG:545:NH2:9900, H-B:ASP:366:OD1:8186, V-A:LEU:475:CD2:4257, V-B:TYR:539:C:9839, H-A:TYR:484:OH:4346, H-A:GLU:543:OE1:4907, H-A:GLU:543:OE2:4908, V-A:GLU:543:CB:4904, H-B:GLU:543:OE2:9882, V-B:HIS:456:CE1:9042, V-B:TYR:484:CZ:9319, H-B:ASP:366:OD2:8187, H-A:ARG:545:NE:4922, H-B:ARG:545:NE:9896, V-A:GLU:543:CG:4905, V-A:TRP:381:CH2:3370"]

$$$$
4dd_Grossjean_2025
     RDKit          3D

 26 29  0  0  0  0  0  0  0  0999 V2000
  126.8510  123.4210   60.1640 C   0  0  0  0  0  0  0  0  0  0  0  0
  128.1500  124.0800   60.6010 C   0  0  0  0  0  0  0  0  0  0  0  0
  129.2980  123.2820   60.6890 C   0  0  0  0  0  0  0  0  0  0  0  0
  130.5250  123.8280   61.0850 C   0  0  0  0  0  0  0  0  0  0  0  0
  131.7690  122.9970   61.1930 C   0  0  0  0  0  0  0  0  0  0  0  0
  132.8480  123.4160   61.9890 C   0  0  0  0  0  0  0  0  0  0  0  0
  134.0040  122.6480   62.0970 C   0  0  0  0  0  0  0  0  0  0  0  0
  134.0990  121.4450   61.4060 C   0  0  0  0  0  0  0  0  0  0  0  0
  133.0460  121.0050   60.6120 C   0  0  0  0  0  0  0  0  0  0  0  0
  131.8900  121.7750   60.5090 C   0  0  0  0  0  0  0  0  0  0  0  0
  130.6550  125.1440   61.4100 N   0  0  0  0  0  0  0  0  0  0  0  0
  129.5650  125.9050   61.3210 C   0  0  0  0  0  0  0  0  0  0  0  0
  129.5940  127.6140   61.6920 S   0  0  0  0  0  0  0  0  0  0  0  0
  127.8750  127.7710   61.3220 C   0  0  0  0  0  0  0  0  0  0  0  0
  127.2100  129.0720   61.4250 C   0  0  0  0  0  0  0  0  0  0  0  0
  126.0190  129.1930   61.1380 O   0  0  0  0  0  0  0  0  0  0  0  0
  127.9930  130.0910   61.8580 N   0  0  0  0  0  0  0  0  0  0  0  0
  127.6830  131.4540   62.0150 C   0  0  0  0  0  0  0  0  0  0  0  0
  128.0170  132.2840   60.9400 C   0  0  0  0  0  0  0  0  0  0  0  0
  127.7390  133.6470   60.9930 C   0  0  0  0  0  0  0  0  0  0  0  0
  127.1180  134.1810   62.1190 C   0  0  0  0  0  0  0  0  0  0  0  0
  126.7690  133.3640   63.1910 C   0  0  0  0  0  0  0  0  0  0  0  0
  127.0460  132.0010   63.1410 C   0  0  0  0  0  0  0  0  0  0  0  0
  127.3260  126.5380   60.9360 C   0  0  0  0  0  0  0  0  0  0  0  0
  126.0080  126.3620   60.5950 N   0  0  0  0  0  0  0  0  0  0  0  0
  128.2740  125.4550   60.9250 C   0  0  0  0  0  0  0  0  0  0  0  0
  1  2  1  0
  2  3  2  0
  3  4  1  0
  4  5  1  0
  5  6  2  0
  6  7  1  0
  7  8  2  0
  8  9  1  0
  9 10  2  0
  4 11  2  0
 11 12  1  0
 12 13  1  0
 13 14  1  0
 14 15  1  0
 15 16  2  0
 15 17  1  0
 17 18  1  0
 18 19  2  0
 19 20  1  0
 20 21  2  0
 21 22  1  0
 22 23  2  0
 14 24  2  0
 24 25  1  0
 24 26  1  0
 26  2  1  0
 10  5  1  0
 26 12  2  0
 23 18  1  0
M  END
>  <Binding energies>  (60) 
[-6.17]

>  <Ligand effiencies>  (60) 
[-0.21275862068965518]

>  <Interactions>  (60) 
["V-A:GLU:543:CD:4906, V-B:TYR:539:CE2:9848, V-A:ILE:369:CD1:3237, V-A:ILE:369:CG2:3235, V-A:GLY:454:CA:4047, V-B:ASP:366:CG:8185, V-B:PRO:540:C:9853, V-B:TYR:539:CD2:9846, V-B:PRO:540:CA:9855, H-B:ARG:545:NH2:9900, V-A:TYR:539:CD2:4872, H-B:ASP:366:OD1:8186, V-A:LEU:475:CD2:4257, V-B:LEU:475:CD2:9231, V-A:ALA:541:CB:4890, H-A:GLU:543:OE1:4907, H-A:GLU:543:OE2:4908, H-B:ASP:366:OD2:8187, V-A:GLY:453:C:4040"]

$$$$
4dg_Grossjean_2025
     RDKit          3D

 27 30  0  0  0  0  0  0  0  0999 V2000
  126.3000  124.0480   59.3470 C   0  0  0  0  0  0  0  0  0  0  0  0
  127.6460  124.2490   60.0260 C   0  0  0  0  0  0  0  0  0  0  0  0
  128.5960  123.2250   59.9230 C   0  0  0  0  0  0  0  0  0  0  0  0
  129.8550  123.3480   60.5250 C   0  0  0  0  0  0  0  0  0  0  0  0
  130.8950  122.2680   60.4300 C   0  0  0  0  0  0  0  0  0  0  0  0
  132.2620  122.5860   60.3730 C   0  0  0  0  0  0  0  0  0  0  0  0
  133.2300  121.5880   60.2810 C   0  0  0  0  0  0  0  0  0  0  0  0
  132.8440  120.2530   60.2450 C   0  0  0  0  0  0  0  0  0  0  0  0
  131.4960  119.9090   60.2950 C   0  0  0  0  0  0  0  0  0  0  0  0
  130.5320  120.9090   60.3860 C   0  0  0  0  0  0  0  0  0  0  0  0
  130.2150  124.4640   61.2150 N   0  0  0  0  0  0  0  0  0  0  0  0
  129.3110  125.4390   61.3140 C   0  0  0  0  0  0  0  0  0  0  0  0
  129.6420  126.9220   62.1780 S   0  0  0  0  0  0  0  0  0  0  0  0
  128.0350  127.5470   61.8070 C   0  0  0  0  0  0  0  0  0  0  0  0
  127.6170  128.8510   62.3200 C   0  0  0  0  0  0  0  0  0  0  0  0
  127.7650  129.8790   61.6580 O   0  0  0  0  0  0  0  0  0  0  0  0
  127.1020  128.8550   63.5680 N   0  0  0  0  0  0  0  0  0  0  0  0
  126.6000  130.0340   64.2720 C   0  0  0  0  0  0  0  0  0  0  0  0
  125.6150  130.8580   63.4490 C   0  0  0  0  0  0  0  0  0  0  0  0
  124.4470  130.2620   62.9640 C   0  0  0  0  0  0  0  0  0  0  0  0
  123.5310  131.0180   62.2390 C   0  0  0  0  0  0  0  0  0  0  0  0
  123.7790  132.3700   62.0110 C   0  0  0  0  0  0  0  0  0  0  0  0
  124.9320  132.9740   62.5060 C   0  0  0  0  0  0  0  0  0  0  0  0
  125.8490  132.2190   63.2320 C   0  0  0  0  0  0  0  0  0  0  0  0
  127.2890  126.6240   61.0600 C   0  0  0  0  0  0  0  0  0  0  0  0
  126.0000  126.8420   60.6440 N   0  0  0  0  0  0  0  0  0  0  0  0
  128.0020  125.4130   60.7550 C   0  0  0  0  0  0  0  0  0  0  0  0
  1  2  1  0
  2  3  2  0
  3  4  1  0
  4  5  1  0
  5  6  2  0
  6  7  1  0
  7  8  2  0
  8  9  1  0
  9 10  2  0
  4 11  2  0
 11 12  1  0
 12 13  1  0
 13 14  1  0
 14 15  1  0
 15 16  2  0
 15 17  1  0
 17 18  1  0
 18 19  1  0
 19 20  2  0
 20 21  1  0
 21 22  2  0
 22 23  1  0
 23 24  2  0
 14 25  2  0
 25 26  1  0
 25 27  1  0
 27  2  1  0
 10  5  1  0
 27 12  2  0
 24 19  1  0
M  END
>  <Binding energies>  (61) 
[-7.22]

>  <Ligand effiencies>  (61) 
[-0.24066666666666667]

>  <Interactions>  (61) 
["V-A:GLU:543:CD:4906, V-B:TYR:539:CE2:9848, V-A:ILE:369:CD1:3237, V-A:ILE:369:CG2:3235, V-B:GLU:543:CD:9880, V-B:PRO:540:CB:9857, V-B:ASP:366:CG:8185, V-B:TYR:539:CD2:9846, V-B:PRO:540:CA:9855, V-B:ALA:541:CB:9864, V-B:GLY:454:CA:9021, H-B:ASP:366:OD1:8186, V-A:LEU:475:CD2:4257, V-B:LEU:475:CD2:9231, H-B:GLU:543:OE1:9881, V-B:ARG:545:CZ:9898, H-B:GLU:543:OE2:9882, V-B:ILE:369:CD1:8211, H-B:ASP:366:OD2:8187, V-A:TRP:381:CZ2:3368, V-A:TRP:381:CH2:3370, V-B:GLY:453:CA:9016, V-B:GLY:453:C:9014, V-A:TRP:381:CZ3:3369"]

$$$$
4dj_Grossjean_2025
     RDKit          3D

 25 28  0  0  0  0  0  0  0  0999 V2000
  131.2280  135.1300   70.3720 C   0  0  0  0  0  0  0  0  0  0  0  0
  131.7080  134.7710   71.7700 C   0  0  0  0  0  0  0  0  0  0  0  0
  132.9150  135.3240   72.2150 C   0  0  0  0  0  0  0  0  0  0  0  0
  133.4120  135.0320   73.4910 C   0  0  0  0  0  0  0  0  0  0  0  0
  134.7010  135.6150   73.9990 C   0  0  0  0  0  0  0  0  0  0  0  0
  135.7620  135.8890   73.1210 C   0  0  0  0  0  0  0  0  0  0  0  0
  136.9590  136.4280   73.5840 C   0  0  0  0  0  0  0  0  0  0  0  0
  137.1140  136.6990   74.9390 C   0  0  0  0  0  0  0  0  0  0  0  0
  136.0810  136.4340   75.8320 C   0  0  0  0  0  0  0  0  0  0  0  0
  134.8860  135.8960   75.3640 C   0  0  0  0  0  0  0  0  0  0  0  0
  132.7440  134.2200   74.3550 N   0  0  0  0  0  0  0  0  0  0  0  0
  131.5960  133.6920   73.9320 C   0  0  0  0  0  0  0  0  0  0  0  0
  130.6390  132.6250   74.9350 S   0  0  0  0  0  0  0  0  0  0  0  0
  129.4220  132.4490   73.6680 C   0  0  0  0  0  0  0  0  0  0  0  0
  128.2490  131.6000   73.8830 C   0  0  0  0  0  0  0  0  0  0  0  0
  128.1070  130.5500   73.2500 O   0  0  0  0  0  0  0  0  0  0  0  0
  127.3590  132.0550   74.7980 N   0  0  0  0  0  0  0  0  0  0  0  0
  126.1720  131.4460   75.1820 C   0  0  0  0  0  0  0  0  0  0  0  0
  125.1290  132.0030   75.7610 N   0  0  0  0  0  0  0  0  0  0  0  0
  124.1730  131.1230   75.9850 C   0  0  0  0  0  0  0  0  0  0  0  0
  124.4300  129.8170   75.5810 C   0  0  0  0  0  0  0  0  0  0  0  0
  126.0160  129.7470   74.8720 S   0  0  0  0  0  0  0  0  0  0  0  0
  129.7680  133.1910   72.5290 C   0  0  0  0  0  0  0  0  0  0  0  0
  129.0060  133.2370   71.3880 N   0  0  0  0  0  0  0  0  0  0  0  0
  131.0050  133.9130   72.6540 C   0  0  0  0  0  0  0  0  0  0  0  0
  1  2  1  0
  2  3  2  0
  3  4  1  0
  4  5  1  0
  5  6  2  0
  6  7  1  0
  7  8  2  0
  8  9  1  0
  9 10  2  0
  4 11  2  0
 11 12  1  0
 12 13  1  0
 13 14  1  0
 14 15  1  0
 15 16  2  0
 15 17  1  0
 17 18  1  0
 18 19  2  0
 19 20  1  0
 20 21  2  0
 21 22  1  0
 14 23  2  0
 23 24  1  0
 23 25  1  0
 25  2  1  0
 10  5  1  0
 25 12  2  0
 22 18  1  0
M  END
>  <Binding energies>  (62) 
[-5.7]

>  <Ligand effiencies>  (62) 
[-0.20357142857142857]

>  <Interactions>  (62) 
["V-B:LYS:471:CB:9189, V-B:LYS:471:CE:9192, V-B:VAL:457:C:9045, V-B:VAL:458:CG2:9059, H-A:LYS:547:NZ:4949, V-B:HIS:456:CB:9037, V-B:HIS:456:C:9033, V-A:GLU:543:C:4900, V-B:HIS:456:CD2:9040, V-B:LYS:471:CG:9190, V-B:LYS:471:CD:9191, V-A:LYS:547:CE:4948, H-B:HIS:456:NE2:9043, H-A:GLU:543:O:4901, V-A:LYS:547:CD:4947, V-B:ASP:473:CG:9212, V-A:ARG:356:CB:3115, V-A:VAL:542:CG1:4897, H-B:ASP:473:OD2:9214, V-B:TYR:484:CD1:9315, V-A:GLY:544:CA:4912, V-B:TYR:484:CB:9313, V-A:GLU:543:CA:4902, V-A:LYS:547:CG:4946, H-A:VAL:542:O:4893, V-B:TYR:484:CG:9314, V-A:PHE:548:CD2:4961, V-A:VAL:542:C:4892, V-A:ARG:356:CD:3117, V-A:ARG:356:CG:3116, V-A:VAL:542:CB:4896"]

$$$$
4ea_Grossjean_2025
     RDKit          3D

 31 34  0  0  0  0  0  0  0  0999 V2000
  130.7530  126.2340   72.5440 C   0  0  0  0  0  0  0  0  0  0  0  0
  129.4260  125.7490   71.9530 C   0  0  0  0  0  0  0  0  0  0  0  0
  128.5230  126.8420   71.8600 O   0  0  0  0  0  0  0  0  0  0  0  0
  128.8010  127.9180   71.0790 C   0  0  0  0  0  0  0  0  0  0  0  0
  128.8780  129.0720   71.5140 O   0  0  0  0  0  0  0  0  0  0  0  0
  129.0050  127.5650   69.6340 C   0  0  0  0  0  0  0  0  0  0  0  0
  130.3080  127.3780   69.1540 C   0  0  0  0  0  0  0  0  0  0  0  0
  130.5300  127.0500   67.8190 C   0  0  0  0  0  0  0  0  0  0  0  0
  129.4580  126.9030   66.9380 C   0  0  0  0  0  0  0  0  0  0  0  0
  129.8030  126.5710   65.6140 N   0  0  0  0  0  0  0  0  0  0  0  0
  130.5960  125.5800   65.1350 C   0  0  0  0  0  0  0  0  0  0  0  0
  131.1790  124.7570   65.8400 O   0  0  0  0  0  0  0  0  0  0  0  0
  130.7280  125.5370   63.6760 C   0  0  0  0  0  0  0  0  0  0  0  0
  130.1550  126.8830   62.6870 S   0  0  0  0  0  0  0  0  0  0  0  0
  130.6540  126.0790   61.2170 C   0  0  0  0  0  0  0  0  0  0  0  0
  130.4790  126.6330   60.0160 N   0  0  0  0  0  0  0  0  0  0  0  0
  130.9100  125.9060   58.9560 C   0  0  0  0  0  0  0  0  0  0  0  0
  130.7010  126.5550   57.6000 C   0  0  0  0  0  0  0  0  0  0  0  0
  131.5050  124.6520   59.0670 C   0  0  0  0  0  0  0  0  0  0  0  0
  131.6870  124.0750   60.3280 C   0  0  0  0  0  0  0  0  0  0  0  0
  132.3210  122.7410   60.4300 C   0  0  0  0  0  0  0  0  0  0  0  0
  133.6470  122.6240   60.8610 C   0  0  0  0  0  0  0  0  0  0  0  0
  134.2430  121.3700   60.9590 C   0  0  0  0  0  0  0  0  0  0  0  0
  133.5140  120.2310   60.6230 C   0  0  0  0  0  0  0  0  0  0  0  0
  132.1950  120.3370   60.1880 C   0  0  0  0  0  0  0  0  0  0  0  0
  131.6000  121.5920   60.0900 C   0  0  0  0  0  0  0  0  0  0  0  0
  131.2480  124.8050   61.4670 C   0  0  0  0  0  0  0  0  0  0  0  0
  131.2770  124.5210   62.8780 C   0  0  0  0  0  0  0  0  0  0  0  0
  131.8000  123.3560   63.3790 N   0  0  0  0  0  0  0  0  0  0  0  0
  128.1500  127.0890   67.4110 C   0  0  0  0  0  0  0  0  0  0  0  0
  127.9290  127.4170   68.7450 C   0  0  0  0  0  0  0  0  0  0  0  0
  1  2  1  0
  2  3  1  0
  3  4  1  0
  4  5  2  0
  4  6  1  0
  6  7  2  0
  7  8  1  0
  8  9  2  0
  9 10  1  0
 10 11  1  0
 11 12  2  0
 11 13  1  0
 13 14  1  0
 14 15  1  0
 15 16  2  0
 16 17  1  0
 17 18  1  0
 17 19  2  0
 19 20  1  0
 20 21  1  0
 21 22  2  0
 22 23  1  0
 23 24  2  0
 24 25  1  0
 25 26  2  0
 20 27  2  0
 27 28  1  0
 28 29  1  0
  9 30  1  0
 30 31  2  0
 31  6  1  0
 28 13  2  0
 27 15  1  0
 26 21  1  0
M  END
>  <Binding energies>  (63) 
[-7.31]

>  <Ligand effiencies>  (63) 
[-0.215]

>  <Interactions>  (63) 
["V-A:GLU:543:CD:4906, V-A:ASP:366:CG:3211, V-B:GLU:543:CG:9879, V-A:HIS:456:CE1:4068, V-B:TYR:539:CE2:9848, V-A:ILE:369:CD1:3237, V-A:ILE:369:CG2:3235, V-A:ARG:545:CG:4920, V-B:GLU:543:CD:9880, V-B:GLU:543:CB:9878, V-A:HIS:456:CD2:4066, V-B:LYS:547:CE:9922, V-B:GLU:543:C:9874, V-B:GLY:544:CA:9886, V-B:TYR:539:CD2:9846, V-A:LEU:475:CD2:4257, H-B:GLU:543:OE1:9881, H-A:TYR:484:OH:4346, H-A:GLU:543:OE1:4907, H-A:GLU:543:OE2:4908, H-B:GLU:543:OE2:9882, V-B:HIS:456:CE1:9042, V-A:GLU:543:CG:4905, V-A:TRP:381:CZ2:3368, V-A:TRP:381:CH2:3370, V-A:GLY:544:C:4910, V-A:GLU:543:C:4900, V-B:HIS:456:CD2:9040, V-A:HIS:456:CG:4064, V-A:ILE:369:CG1:3236"]

$$$$
4eb_Grossjean_2025
     RDKit          3D

 30 33  0  0  0  0  0  0  0  0999 V2000
  130.1260  126.9980   72.5940 C   0  0  0  0  0  0  0  0  0  0  0  0
  129.4860  128.1170   71.9980 O   0  0  0  0  0  0  0  0  0  0  0  0
  128.4060  127.9550   71.1900 C   0  0  0  0  0  0  0  0  0  0  0  0
  127.2430  128.1170   71.5690 O   0  0  0  0  0  0  0  0  0  0  0  0
  128.7690  127.5590   69.7870 C   0  0  0  0  0  0  0  0  0  0  0  0
  130.1170  127.3680   69.4580 C   0  0  0  0  0  0  0  0  0  0  0  0
  130.4860  127.0010   68.1680 C   0  0  0  0  0  0  0  0  0  0  0  0
  129.5180  126.8170   67.1800 C   0  0  0  0  0  0  0  0  0  0  0  0
  130.0060  126.4470   65.9120 N   0  0  0  0  0  0  0  0  0  0  0  0
  130.6280  125.3120   65.5080 C   0  0  0  0  0  0  0  0  0  0  0  0
  130.8800  124.3590   66.2450 O   0  0  0  0  0  0  0  0  0  0  0  0
  131.0010  125.2750   64.0910 C   0  0  0  0  0  0  0  0  0  0  0  0
  132.2680  124.1800   63.5310 S   0  0  0  0  0  0  0  0  0  0  0  0
  132.0840  124.7330   61.8820 C   0  0  0  0  0  0  0  0  0  0  0  0
  132.8260  124.2440   60.8880 N   0  0  0  0  0  0  0  0  0  0  0  0
  132.5850  124.7560   59.6570 C   0  0  0  0  0  0  0  0  0  0  0  0
  133.4400  124.1850   58.5400 C   0  0  0  0  0  0  0  0  0  0  0  0
  131.6300  125.7370   59.3990 C   0  0  0  0  0  0  0  0  0  0  0  0
  130.8530  126.2470   60.4450 C   0  0  0  0  0  0  0  0  0  0  0  0
  129.8420  127.2900   60.1550 C   0  0  0  0  0  0  0  0  0  0  0  0
  128.5040  126.9340   59.9580 C   0  0  0  0  0  0  0  0  0  0  0  0
  127.5520  127.9140   59.6870 C   0  0  0  0  0  0  0  0  0  0  0  0
  127.9390  129.2500   59.6110 C   0  0  0  0  0  0  0  0  0  0  0  0
  129.2710  129.6130   59.8030 C   0  0  0  0  0  0  0  0  0  0  0  0
  130.2210  128.6330   60.0740 C   0  0  0  0  0  0  0  0  0  0  0  0
  131.0760  125.7350   61.7530 C   0  0  0  0  0  0  0  0  0  0  0  0
  130.4750  126.0250   63.0280 C   0  0  0  0  0  0  0  0  0  0  0  0
  129.4770  126.9550   63.1730 N   0  0  0  0  0  0  0  0  0  0  0  0
  128.1640  127.0070   67.5000 C   0  0  0  0  0  0  0  0  0  0  0  0
  127.7980  127.3740   68.7920 C   0  0  0  0  0  0  0  0  0  0  0  0
  1  2  1  0
  2  3  1  0
  3  4  2  0
  3  5  1  0
  5  6  2  0
  6  7  1  0
  7  8  2  0
  8  9  1  0
  9 10  1  0
 10 11  2  0
 10 12  1  0
 12 13  1  0
 13 14  1  0
 14 15  2  0
 15 16  1  0
 16 17  1  0
 16 18  2  0
 18 19  1  0
 19 20  1  0
 20 21  2  0
 21 22  1  0
 22 23  2  0
 23 24  1  0
 24 25  2  0
 19 26  2  0
 26 27  1  0
 27 28  1  0
  8 29  1  0
 29 30  2  0
 30  5  1  0
 27 12  2  0
 26 14  1  0
 25 20  1  0
M  END
>  <Binding energies>  (64) 
[-7.12]

>  <Ligand effiencies>  (64) 
[-0.21575757575757576]

>  <Interactions>  (64) 
["V-A:GLU:543:CD:4906, V-A:ASP:366:CG:3211, V-B:GLU:543:CG:9879, V-A:HIS:456:CE1:4068, V-A:ASP:366:CB:3210, V-B:TYR:539:CE2:9848, V-B:GLU:543:CD:9880, V-B:GLU:543:CB:9878, V-A:ASP:366:CA:3208, V-B:GLU:543:C:9874, H-B:GLU:543:OE1:9881, H-A:TYR:484:OH:4346, H-A:GLU:543:OE1:4907, H-A:GLU:543:OE2:4908, H-B:GLU:543:OE2:9882, V-B:HIS:456:CE1:9042, V-A:GLY:544:C:4910, V-A:GLU:543:C:4900, V-B:HIS:456:CD2:9040, V-A:LYS:547:CE:4948, H-B:HIS:456:ND1:9039"]

$$$$
8b_Ghoteimi_2023
     RDKit          3D

 34 38  0  0  0  0  0  0  0  0999 V2000
  134.4170  119.6630   60.2620 C   0  0  0  0  0  0  0  0  0  0  0  0
  134.6150  120.8410   61.0380 O   0  0  0  0  0  0  0  0  0  0  0  0
  133.6300  121.8090   61.0560 C   0  0  0  0  0  0  0  0  0  0  0  0
  132.4120  121.4700   60.4700 C   0  0  0  0  0  0  0  0  0  0  0  0
  131.3620  122.3820   60.4400 C   0  0  0  0  0  0  0  0  0  0  0  0
  131.5030  123.6610   60.9980 C   0  0  0  0  0  0  0  0  0  0  0  0
  130.3790  124.6470   60.9670 C   0  0  0  0  0  0  0  0  0  0  0  0
  129.0960  124.2880   60.5400 C   0  0  0  0  0  0  0  0  0  0  0  0
  128.0620  125.2280   60.5210 C   0  0  0  0  0  0  0  0  0  0  0  0
  126.7170  124.8180   60.0540 C   0  0  0  0  0  0  0  0  0  0  0  0
  126.4140  124.8270   58.6910 C   0  0  0  0  0  0  0  0  0  0  0  0
  125.1530  124.4320   58.2530 C   0  0  0  0  0  0  0  0  0  0  0  0
  124.1790  124.0260   59.1660 C   0  0  0  0  0  0  0  0  0  0  0  0
  122.9570  123.6500   58.6400 O   0  0  0  0  0  0  0  0  0  0  0  0
  122.6980  123.8720   57.2580 C   0  0  0  0  0  0  0  0  0  0  0  0
  124.4850  124.0220   60.5360 C   0  0  0  0  0  0  0  0  0  0  0  0
  125.7470  124.4170   60.9730 C   0  0  0  0  0  0  0  0  0  0  0  0
  128.3510  126.5500   60.9550 C   0  0  0  0  0  0  0  0  0  0  0  0
  127.5460  127.7380   61.0710 C   0  0  0  0  0  0  0  0  0  0  0  0
  126.2170  127.7600   60.7340 N   0  0  0  0  0  0  0  0  0  0  0  0
  128.2460  128.8540   61.5560 C   0  0  0  0  0  0  0  0  0  0  0  0
  127.7460  130.2080   61.8000 C   0  0  0  0  0  0  0  0  0  0  0  0
  128.3690  131.1920   61.3950 O   0  0  0  0  0  0  0  0  0  0  0  0
  126.5790  130.2820   62.4890 N   0  0  0  0  0  0  0  0  0  0  0  0
  125.8830  131.4260   62.8520 C   0  0  0  0  0  0  0  0  0  0  0  0
  124.5710  131.6780   62.4540 C   0  0  0  0  0  0  0  0  0  0  0  0
  124.2550  132.8970   63.0110 C   0  0  0  0  0  0  0  0  0  0  0  0
  125.3200  133.3530   63.7110 O   0  0  0  0  0  0  0  0  0  0  0  0
  126.3460  132.4120   63.6050 N   0  0  0  0  0  0  0  0  0  0  0  0
  129.9330  128.4530   61.8860 S   0  0  0  0  0  0  0  0  0  0  0  0
  129.6900  126.8000   61.3730 C   0  0  0  0  0  0  0  0  0  0  0  0
  130.6770  125.9050   61.3890 N   0  0  0  0  0  0  0  0  0  0  0  0
  132.7300  123.9960   61.5880 C   0  0  0  0  0  0  0  0  0  0  0  0
  133.7830  123.0850   61.6180 C   0  0  0  0  0  0  0  0  0  0  0  0
  1  2  1  0
  2  3  1  0
  3  4  2  0
  4  5  1  0
  5  6  2  0
  6  7  1  0
  7  8  2  0
  8  9  1  0
  9 10  1  0
 10 11  2  0
 11 12  1  0
 12 13  2  0
 13 14  1  0
 14 15  1  0
 13 16  1  0
 16 17  2  0
  9 18  2  0
 18 19  1  0
 19 20  1  0
 19 21  2  0
 21 22  1  0
 22 23  2  0
 22 24  1  0
 24 25  1  0
 25 26  1  0
 26 27  2  0
 27 28  1  0
 28 29  1  0
 21 30  1  0
 30 31  1  0
 31 32  2  0
  6 33  1  0
 33 34  2  0
 34  3  1  0
 32  7  1  0
 17 10  1  0
 31 18  1  0
 29 25  2  0
M  END
>  <Binding energies>  (65) 
[-4.24]

>  <Ligand effiencies>  (65) 
[-0.1145945945945946]

>  <Interactions>  (65) 
["V-A:GLU:543:CD:4906, V-B:TYR:539:CE2:9848, V-A:ILE:369:CD1:3237, V-A:ILE:369:CG2:3235, V-A:GLY:454:CA:4047, V-B:ASN:362:CB:8148, V-B:LEU:363:CA:8157, V-B:PRO:540:CB:9857, V-B:ASP:366:CG:8185, V-B:TYR:531:CE2:9765, V-B:LEU:363:CD1:8161, V-B:LEU:363:CB:8159, V-B:TYR:539:CD2:9846, V-B:PRO:540:CA:9855, V-B:GLY:454:CA:9021, H-B:ASP:366:OD1:8186, V-A:LEU:475:CD2:4257, V-B:LEU:475:CD2:9231, H-B:TYR:484:OH:9320, H-B:ASP:366:OD2:8187, V-A:TRP:381:CZ2:3368, V-A:TRP:381:CH2:3370, V-A:ILE:369:CG1:3236, V-A:SER:385:CA:3405, V-B:LEU:363:C:8155, V-A:SER:385:C:3403, V-A:SER:385:CB:3407, H-B:LEU:363:N:8158, V-B:LEU:363:CG:8160"]

$$$$
9d_Ghoteimi_2023
     RDKit          3D

 38 43  0  0  0  0  0  0  0  0999 V2000
  123.9290  130.0710   63.1540 C   0  0  0  0  0  0  0  0  0  0  0  0
  124.8440  130.3610   64.2010 O   0  0  0  0  0  0  0  0  0  0  0  0
  126.1770  130.4550   63.9560 C   0  0  0  0  0  0  0  0  0  0  0  0
  126.6640  131.1290   63.0450 O   0  0  0  0  0  0  0  0  0  0  0  0
  126.9930  129.6550   64.8950 C   0  0  0  0  0  0  0  0  0  0  0  0
  126.9070  129.9770   66.6270 S   0  0  0  0  0  0  0  0  0  0  0  0
  128.0430  128.6920   66.9620 C   0  0  0  0  0  0  0  0  0  0  0  0
  128.3990  128.3830   68.2090 N   0  0  0  0  0  0  0  0  0  0  0  0
  129.2750  127.3560   68.3640 C   0  0  0  0  0  0  0  0  0  0  0  0
  129.6400  127.0110   69.7720 C   0  0  0  0  0  0  0  0  0  0  0  0
  130.9810  126.9830   70.1720 C   0  0  0  0  0  0  0  0  0  0  0  0
  131.3310  126.6610   71.4790 C   0  0  0  0  0  0  0  0  0  0  0  0
  130.3520  126.3660   72.4410 C   0  0  0  0  0  0  0  0  0  0  0  0
  130.6890  126.0230   73.7550 N   0  0  0  0  0  0  0  0  0  0  0  0
  131.4070  124.7690   74.0620 C   0  0  0  0  0  0  0  0  0  0  0  0
  131.3880  124.3880   75.5570 C   0  0  0  0  0  0  0  0  0  0  0  0
  131.8840  125.4620   76.3380 O   0  0  0  0  0  0  0  0  0  0  0  0
  131.0920  126.6280   76.1790 C   0  0  0  0  0  0  0  0  0  0  0  0
  131.1000  127.0800   74.7030 C   0  0  0  0  0  0  0  0  0  0  0  0
  129.0100  126.3800   72.0320 C   0  0  0  0  0  0  0  0  0  0  0  0
  128.6600  126.7000   70.7220 C   0  0  0  0  0  0  0  0  0  0  0  0
  129.8160  126.6660   67.2760 C   0  0  0  0  0  0  0  0  0  0  0  0
  129.4600  127.0000   65.9640 C   0  0  0  0  0  0  0  0  0  0  0  0
  130.0860  126.2520   64.8420 C   0  0  0  0  0  0  0  0  0  0  0  0
  129.8080  126.5910   63.5160 C   0  0  0  0  0  0  0  0  0  0  0  0
  130.4120  125.9000   62.4690 C   0  0  0  0  0  0  0  0  0  0  0  0
  131.3220  124.8610   62.7210 C   0  0  0  0  0  0  0  0  0  0  0  0
  131.9330  124.1470   61.6880 N   0  0  0  0  0  0  0  0  0  0  0  0
  133.1210  123.3240   61.9900 C   0  0  0  0  0  0  0  0  0  0  0  0
  133.4520  122.3030   60.8800 C   0  0  0  0  0  0  0  0  0  0  0  0
  133.6000  122.9690   59.6350 O   0  0  0  0  0  0  0  0  0  0  0  0
  132.4130  123.6540   59.2630 C   0  0  0  0  0  0  0  0  0  0  0  0
  132.0600  124.7110   60.3310 C   0  0  0  0  0  0  0  0  0  0  0  0
  131.5920  124.5290   64.0560 C   0  0  0  0  0  0  0  0  0  0  0  0
  130.9880  125.2190   65.1020 C   0  0  0  0  0  0  0  0  0  0  0  0
  128.5120  128.0450   65.7810 C   0  0  0  0  0  0  0  0  0  0  0  0
  127.8780  128.6060   64.6160 C   0  0  0  0  0  0  0  0  0  0  0  0
  128.1030  128.1380   63.3470 N   0  0  0  0  0  0  0  0  0  0  0  0
  1  2  1  0
  2  3  1  0
  3  4  2  0
  3  5  1  0
  5  6  1  0
  6  7  1  0
  7  8  2  0
  8  9  1  0
  9 10  1  0
 10 11  2  0
 11 12  1  0
 12 13  2  0
 13 14  1  0
 14 15  1  0
 15 16  1  0
 16 17  1  0
 17 18  1  0
 18 19  1  0
 13 20  1  0
 20 21  2  0
  9 22  2  0
 22 23  1  0
 23 24  1  0
 24 25  2  0
 25 26  1  0
 26 27  2  0
 27 28  1  0
 28 29  1  0
 29 30  1  0
 30 31  1  0
 31 32  1  0
 32 33  1  0
 27 34  1  0
 34 35  2  0
 23 36  2  0
 36 37  1  0
 37 38  1  0
 37  5  2  0
 36  7  1  0
 21 10  1  0
 35 24  1  0
 19 14  1  0
 33 28  1  0
M  END
>  <Binding energies>  (66) 
[-0.77]

>  <Ligand effiencies>  (66) 
[-0.01925]

>  <Interactions>  (66) 
["V-A:GLU:543:CD:4906, V-A:ASP:366:CG:3211, V-B:GLU:543:CG:9879, V-A:HIS:456:CE1:4068, V-B:TYR:539:CE2:9848, V-A:ILE:369:CD1:3237, V-A:ILE:369:CG2:3235, V-B:GLU:543:CD:9880, V-B:GLU:543:CB:9878, V-A:HIS:456:CD2:4066, V-B:LYS:547:CE:9922, V-B:GLU:543:C:9874, V-B:GLY:544:CA:9886, H-B:GLY:454:N:9022, H-B:TYR:484:OH:9320, H-B:GLU:543:OE1:9881, V-B:ARG:545:CZ:9898, H-A:GLU:543:OE1:4907, H-A:GLU:543:OE2:4908, V-A:GLU:543:CB:4904, H-B:GLU:543:OE2:9882, V-B:HIS:456:CE1:9042, V-B:TYR:484:CE1:9317, V-B:TYR:484:CZ:9319, V-A:GLU:543:CG:4905, H-B:LYS:547:NZ:9923, V-A:GLY:544:C:4910, V-B:GLY:544:C:9884, V-A:HIS:456:CB:4063, V-A:LYS:547:CE:4948, V-A:HIS:456:CG:4064, V-A:LYS:471:CE:4218, V-A:LYS:547:CD:4947, V-B:GLY:453:CA:9016, V-A:ARG:545:CA:4917"]

$$$$
RR10_Rahimova_2017
     RDKit          3D

 34 38  0  0  0  0  0  0  0  0999 V2000
  128.6570  132.5070   60.8670 C   0  0  0  0  0  0  0  0  0  0  0  0
  129.8030  132.1180   59.9170 C   0  0  1  0  0  0  0  0  0  0  0  0
  130.9270  131.3520   60.6520 C   0  0  0  0  0  0  0  0  0  0  0  0
  132.0820  131.0020   59.6860 C   0  0  0  0  0  0  0  0  0  0  0  0
  131.5990  130.1600   58.4770 C   0  0  1  0  0  0  0  0  0  0  0  0
  131.1840  128.8190   58.9100 N   0  0  0  0  0  0  0  0  0  0  0  0
  130.2430  128.0630   58.3140 C   0  0  0  0  0  0  0  0  0  0  0  0
  129.6340  128.4230   57.3040 O   0  0  0  0  0  0  0  0  0  0  0  0
  129.9350  126.6980   58.9650 C   0  0  1  0  0  0  0  0  0  0  0  0
  129.0810  125.8460   57.9900 C   0  0  0  0  0  0  0  0  0  0  0  0
  128.8470  124.4430   58.6000 C   0  0  0  0  0  0  0  0  0  0  0  0
  130.1630  123.7620   59.0430 C   0  0  0  0  0  0  0  0  0  0  0  0
  130.9530  124.6680   59.9210 N   0  0  0  0  0  0  0  0  0  0  0  0
  132.3270  123.8940   60.7280 S   0  0  0  0  0  0  0  0  0  0  0  0
  133.5600  124.3840   60.1000 O   0  0  0  0  0  0  0  0  0  0  0  0
  132.0550  122.4520   60.7970 O   0  0  0  0  0  0  0  0  0  0  0  0
  132.3090  124.5380   62.4000 C   0  0  0  0  0  0  0  0  0  0  0  0
  133.5120  124.6410   63.1070 C   0  0  0  0  0  0  0  0  0  0  0  0
  133.5660  125.1330   64.4150 C   0  0  0  0  0  0  0  0  0  0  0  0
  132.3520  125.5230   64.9850 C   0  0  0  0  0  0  0  0  0  0  0  0
  131.9960  126.0350   66.2110 N   0  0  0  0  0  0  0  0  0  0  0  0
  130.6300  126.2290   66.2100 C   0  0  0  0  0  0  0  0  0  0  0  0
  129.8670  126.7700   67.3850 C   0  0  0  0  0  0  0  0  0  0  0  0
  128.4900  127.0110   67.2860 C   0  0  0  0  0  0  0  0  0  0  0  0
  127.7800  127.5090   68.3760 C   0  0  0  0  0  0  0  0  0  0  0  0
  128.4460  127.7720   69.5710 C   0  0  0  0  0  0  0  0  0  0  0  0
  129.8130  127.5380   69.6850 C   0  0  0  0  0  0  0  0  0  0  0  0
  130.5220  127.0390   68.5950 C   0  0  0  0  0  0  0  0  0  0  0  0
  130.0840  125.8820   65.0650 N   0  0  0  0  0  0  0  0  0  0  0  0
  131.1220  125.4380   64.2890 C   0  0  0  0  0  0  0  0  0  0  0  0
  131.1000  124.9430   62.9770 C   0  0  0  0  0  0  0  0  0  0  0  0
  131.2650  125.9770   59.2940 C   0  0  0  0  0  0  0  0  0  0  0  0
  130.4600  130.9330   57.7600 C   0  0  0  0  0  0  0  0  0  0  0  0
  129.2990  131.2780   58.7200 C   0  0  0  0  0  0  0  0  0  0  0  0
  2  1  1  1
  2  3  1  0
  3  4  1  0
  4  5  1  0
  5  6  1  1
  6  7  1  0
  7  8  2  0
  9  7  1  6
  9 10  1  0
 10 11  1  0
 11 12  1  0
 12 13  1  0
 13 14  1  0
 14 15  2  0
 14 16  2  0
 14 17  1  0
 17 18  2  0
 18 19  1  0
 19 20  2  0
 20 21  1  0
 21 22  1  0
 22 23  1  0
 23 24  2  0
 24 25  1  0
 25 26  2  0
 26 27  1  0
 27 28  2  0
 22 29  2  0
 29 30  1  0
 30 31  2  0
 13 32  1  0
  5 33  1  0
 33 34  1  0
 34  2  1  0
 32  9  1  0
 31 17  1  0
 30 20  1  0
 28 23  1  0
M  END
>  <Binding energies>  (67) 
[-7.56]

>  <Ligand effiencies>  (67) 
[-0.21]

>  <Interactions>  (67) 
["V-A:GLU:543:CD:4906, V-A:ASP:366:CG:3211, V-B:GLU:543:CG:9879, V-A:HIS:456:CE1:4068, V-B:TYR:539:CE2:9848, V-A:ARG:545:CD:4921, V-A:GLY:453:CA:4042, V-A:ARG:545:CG:4920, V-B:GLU:543:CD:9880, V-B:GLU:543:CB:9878, V-A:ARG:545:CZ:4924, V-B:GLU:543:C:9874, V-B:TYR:539:CD2:9846, H-A:ASP:366:OD1:3212, V-A:ALA:541:CB:4890, V-A:TYR:539:C:4865, V-A:PRO:540:CA:4881, V-B:HIS:456:CE1:9042, V-A:PRO:540:CB:4883, V-A:PRO:540:C:4879, H-A:ASP:366:OD2:3213, V-A:PRO:540:N:4882, V-A:GLY:544:C:4910, H-A:HIS:456:NE2:4069, V-A:GLU:543:C:4900, V-A:GLY:453:C:4040"]

$$$$
RR12_Rahimova_2017
     RDKit          3D

 26 28  0  0  0  0  0  0  0  0999 V2000
  126.5810  129.0840   65.9040 C   0  0  0  0  0  0  0  0  0  0  0  0
  127.8330  128.8430   66.7570 C   0  0  0  0  0  0  0  0  0  0  0  0
  127.7660  127.5230   67.5460 C   0  0  0  0  0  0  0  0  0  0  0  0
  128.8130  127.4740   68.5640 N   0  0  0  0  0  0  0  0  0  0  0  0
  130.1800  127.3590   68.3630 C   0  0  0  0  0  0  0  0  0  0  0  0
  130.8270  127.2120   66.9970 C   0  0  0  0  0  0  0  0  0  0  0  0
  130.1250  126.1540   66.1260 C   0  0  0  0  0  0  0  0  0  0  0  0
  131.0630  125.0010   65.7190 C   0  0  0  0  0  0  0  0  0  0  0  0
  131.2770  124.8950   64.2760 N   0  0  0  0  0  0  0  0  0  0  0  0
  132.4780  124.9170   63.6700 C   0  0  0  0  0  0  0  0  0  0  0  0
  133.5420  125.0340   64.2820 O   0  0  0  0  0  0  0  0  0  0  0  0
  132.4520  124.7790   62.1420 C   0  0  0  0  0  0  0  0  0  0  0  0
  131.2180  124.1860   61.7370 O   0  0  0  0  0  0  0  0  0  0  0  0
  131.2130  122.8850   61.2710 C   0  0  0  0  0  0  0  0  0  0  0  0
  132.4530  122.3460   60.9230 C   0  0  0  0  0  0  0  0  0  0  0  0
  132.5490  121.0410   60.4470 C   0  0  0  0  0  0  0  0  0  0  0  0
  131.3980  120.2690   60.3180 C   0  0  0  0  0  0  0  0  0  0  0  0
  130.1520  120.7910   60.6580 C   0  0  0  0  0  0  0  0  0  0  0  0
  130.0580  122.0970   61.1340 C   0  0  0  0  0  0  0  0  0  0  0  0
  130.8710  127.3690   69.4760 N   0  0  0  0  0  0  0  0  0  0  0  0
  129.9410  127.5240   70.4660 C   0  0  0  0  0  0  0  0  0  0  0  0
  130.1340  127.6130   71.8530 C   0  0  0  0  0  0  0  0  0  0  0  0
  129.0100  127.7770   72.6630 C   0  0  0  0  0  0  0  0  0  0  0  0
  127.7280  127.8530   72.1180 C   0  0  0  0  0  0  0  0  0  0  0  0
  127.5030  127.7660   70.7430 C   0  0  0  0  0  0  0  0  0  0  0  0
  128.6310  127.6000   69.9290 C   0  0  0  0  0  0  0  0  0  0  0  0
  1  2  1  0
  2  3  1  0
  3  4  1  0
  4  5  1  0
  5  6  1  0
  6  7  1  0
  7  8  1  0
  8  9  1  0
  9 10  1  0
 10 11  2  0
 10 12  1  0
 12 13  1  0
 13 14  1  0
 14 15  2  0
 15 16  1  0
 16 17  2  0
 17 18  1  0
 18 19  2  0
  5 20  2  0
 20 21  1  0
 21 22  2  0
 22 23  1  0
 23 24  2  0
 24 25  1  0
 25 26  2  0
 26  4  1  0
 19 14  1  0
 26 21  1  0
M  END
>  <Binding energies>  (68) 
[-7.71]

>  <Ligand effiencies>  (68) 
[-0.28555555555555556]

>  <Interactions>  (68) 
["H-A:GLY:454:N:4048, V-A:GLU:543:CD:4906, V-B:GLU:543:CG:9879, V-A:HIS:456:CE1:4068, V-B:TYR:539:CE2:9848, V-A:ILE:369:CG2:3235, V-A:ARG:545:CG:4920, V-B:GLU:543:CD:9880, V-B:GLU:543:CB:9878, V-A:ARG:545:CZ:4924, V-B:GLY:544:CA:9886, V-B:TYR:539:CD2:9846, V-B:ALA:541:CB:9864, V-A:TYR:484:CZ:4345, V-A:LEU:475:CD2:4257, H-B:GLU:543:OE1:9881, H-A:TYR:484:OH:4346, V-A:GLU:543:CB:4904, V-B:HIS:456:CE1:9042, H-A:ARG:545:NE:4922, V-A:GLU:543:CG:4905, V-A:TRP:381:CZ2:3368, V-A:TRP:381:CH2:3370, V-B:HIS:456:CG:9038, V-A:GLY:544:C:4910, V-A:GLU:543:C:4900, V-B:HIS:456:CD2:9040, V-B:GLY:544:C:9884, V-A:LYS:547:CE:4948, H-A:HIS:456:ND1:4065, V-A:GLY:544:CA:4912, H-A:ARG:545:N:4918"]

$$$$
RR13_Rahimova_2017
     RDKit          3D

 48 54  0  0  0  0  0  0  0  0999 V2000
  129.0470  131.4700   57.4410 Cl  0  0  0  0  0  0  0  0  0  0  0  0
  127.8310  130.4550   58.1400 C   0  0  0  0  0  0  0  0  0  0  0  0
  126.4970  130.7350   57.8380 C   0  0  0  0  0  0  0  0  0  0  0  0
  125.4720  129.9690   58.3850 C   0  0  0  0  0  0  0  0  0  0  0  0
  125.7750  128.9160   59.2440 C   0  0  0  0  0  0  0  0  0  0  0  0
  127.1040  128.6300   59.5510 C   0  0  0  0  0  0  0  0  0  0  0  0
  128.1520  129.3830   58.9990 C   0  0  0  0  0  0  0  0  0  0  0  0
  129.6160  129.0620   59.3750 C   0  0  1  0  0  0  0  0  0  0  0  0
  130.2750  130.2490   60.0930 C   0  0  0  0  0  0  0  0  0  0  0  0
  131.5020  130.6890   59.9200 N   0  0  0  0  0  0  0  0  0  0  0  0
  131.6520  131.7560   60.8010 N   0  0  0  0  0  0  0  0  0  0  0  0
  130.4910  131.9390   61.5260 N   0  0  0  0  0  0  0  0  0  0  0  0
  129.6650  130.9820   61.0890 N   0  0  0  0  0  0  0  0  0  0  0  0
  128.3070  130.8860   61.6090 C   0  0  0  0  0  0  0  0  0  0  0  0
  127.8540  132.2450   62.1760 C   0  0  0  0  0  0  0  0  0  0  0  0
  126.4540  132.6220   61.7180 C   0  0  0  0  0  0  0  0  0  0  0  0
  126.2420  133.8240   61.0370 C   0  0  0  0  0  0  0  0  0  0  0  0
  124.9590  134.1710   60.6250 C   0  0  0  0  0  0  0  0  0  0  0  0
  123.8920  133.3150   60.8940 C   0  0  0  0  0  0  0  0  0  0  0  0
  124.0970  132.1170   61.5730 C   0  0  0  0  0  0  0  0  0  0  0  0
  125.3800  131.7680   61.9860 C   0  0  0  0  0  0  0  0  0  0  0  0
  129.7670  127.7930   60.1260 N   0  0  0  0  0  0  0  0  0  0  0  0
  129.8060  128.0520   61.5770 C   0  0  0  0  0  0  0  0  0  0  0  0
  129.8300  126.7260   62.3720 C   0  0  0  0  0  0  0  0  0  0  0  0
  131.0280  125.9400   62.0350 N   0  0  0  0  0  0  0  0  0  0  0  0
  131.1340  124.6970   62.8340 C   0  0  1  0  0  0  0  0  0  0  0  0
  131.3300  123.3980   62.0220 C   0  0  0  0  0  0  0  0  0  0  0  0
  132.6370  122.9020   61.9130 C   0  0  0  0  0  0  0  0  0  0  0  0
  132.9060  121.7260   61.2130 C   0  0  0  0  0  0  0  0  0  0  0  0
  131.8670  121.0280   60.6050 C   0  0  0  0  0  0  0  0  0  0  0  0
  130.5640  121.5120   60.6870 C   0  0  0  0  0  0  0  0  0  0  0  0
  130.2850  122.6920   61.3820 C   0  0  0  0  0  0  0  0  0  0  0  0
  128.6440  123.2470   61.3690 Cl  0  0  0  0  0  0  0  0  0  0  0  0
  132.1820  124.7850   63.9460 C   0  0  0  0  0  0  0  0  0  0  0  0
  133.4640  124.5380   63.8060 N   0  0  0  0  0  0  0  0  0  0  0  0
  134.0340  124.7570   65.0560 N   0  0  0  0  0  0  0  0  0  0  0  0
  133.0660  125.1580   65.9540 N   0  0  0  0  0  0  0  0  0  0  0  0
  131.9340  125.1890   65.2410 N   0  0  0  0  0  0  0  0  0  0  0  0
  130.6760  125.5560   65.8830 C   0  0  0  0  0  0  0  0  0  0  0  0
  130.8240  126.8960   66.6260 C   0  0  0  0  0  0  0  0  0  0  0  0
  129.7540  127.0830   67.6910 C   0  0  0  0  0  0  0  0  0  0  0  0
  130.1200  127.2000   69.0340 C   0  0  0  0  0  0  0  0  0  0  0  0
  129.1410  127.3780   70.0080 C   0  0  0  0  0  0  0  0  0  0  0  0
  127.7990  127.4380   69.6350 C   0  0  0  0  0  0  0  0  0  0  0  0
  127.4290  127.3230   68.2960 C   0  0  0  0  0  0  0  0  0  0  0  0
  128.4070  127.1460   67.3220 C   0  0  0  0  0  0  0  0  0  0  0  0
  130.9830  125.6780   60.5850 C   0  0  0  0  0  0  0  0  0  0  0  0
  130.9690  127.0080   59.7960 C   0  0  0  0  0  0  0  0  0  0  0  0
  1  2  1  0
  2  3  2  0
  3  4  1  0
  4  5  2  0
  5  6  1  0
  6  7  2  0
  7  8  1  0
  8  9  1  0
  9 10  2  0
 10 11  1  0
 11 12  2  0
 12 13  1  0
 13 14  1  0
 14 15  1  0
 15 16  1  0
 16 17  2  0
 17 18  1  0
 18 19  2  0
 19 20  1  0
 20 21  2  0
  8 22  1  1
 22 23  1  0
 23 24  1  0
 24 25  1  0
 26 25  1  6
 26 27  1  0
 27 28  2  0
 28 29  1  0
 29 30  2  0
 30 31  1  0
 31 32  2  0
 32 33  1  0
 26 34  1  0
 34 35  2  0
 35 36  1  0
 36 37  2  0
 37 38  1  0
 38 39  1  0
 39 40  1  0
 40 41  1  0
 41 42  2  0
 42 43  1  0
 43 44  2  0
 44 45  1  0
 45 46  2  0
 25 47  1  0
 47 48  1  0
  7  2  1  0
 13  9  1  0
 21 16  1  0
 48 22  1  0
 32 27  1  0
 38 34  1  0
 46 41  1  0
M  END
>  <Binding energies>  (69) 
[-13.59]

>  <Ligand effiencies>  (69) 
[-0.283125]

>  <Interactions>  (69) 
["H-A:GLY:454:N:4048, V-A:GLU:543:CD:4906, V-A:ASP:366:CG:3211, V-B:GLU:543:CG:9879, V-A:HIS:456:CE1:4068, V-B:TYR:539:CE2:9848, V-A:ARG:545:CG:4920, V-B:GLU:543:CD:9880, V-B:GLU:543:CB:9878, V-A:ARG:545:CZ:4924, V-B:GLU:543:C:9874, V-B:ASP:366:CB:8184, V-B:ASP:366:CG:8185, V-B:TYR:539:CD2:9846, V-B:ALA:541:CB:9864, V-A:TYR:539:CE2:4874, V-A:TYR:539:CD2:4872, V-A:TYR:484:CZ:4345, V-A:LEU:475:CD2:4257, V-B:LEU:475:CD2:9231, V-A:ALA:541:CB:4890, H-A:TYR:484:OH:4346, H-A:ARG:545:NH2:4926, V-B:ILE:369:CD1:8211, V-B:ILE:369:CG2:8209, V-A:TYR:539:CZ:4875, V-B:HIS:456:CE1:9042, H-A:ALA:541:N:4889, V-B:ARG:545:CG:9894, H-A:ARG:545:NE:4922, V-A:GLU:543:CG:4905, V-B:TRP:381:CH2:8344, V-B:GLY:544:C:9884, H-A:HIS:456:ND1:4065"]

$$$$
RR14_Rahimova_2017
     RDKit          3D

 39 43  0  0  0  0  0  0  0  0999 V2000
  124.9090  129.7760   65.1840 C   0  0  0  0  0  0  0  0  0  0  0  0
  124.5210  130.5420   64.0490 O   0  0  0  0  0  0  0  0  0  0  0  0
  125.4290  130.7380   63.0270 C   0  0  0  0  0  0  0  0  0  0  0  0
  126.0410  129.5950   62.5110 C   0  0  0  0  0  0  0  0  0  0  0  0
  126.9870  129.6950   61.4960 C   0  0  0  0  0  0  0  0  0  0  0  0
  127.3360  130.9490   60.9880 C   0  0  0  0  0  0  0  0  0  0  0  0
  128.4190  131.0680   59.9220 C   0  0  0  0  0  0  0  0  0  0  0  0
  129.7750  131.0250   60.4680 N   0  0  0  0  0  0  0  0  0  0  0  0
  130.1420  131.8730   61.4360 N   0  0  0  0  0  0  0  0  0  0  0  0
  131.4680  131.5740   61.6810 N   0  0  0  0  0  0  0  0  0  0  0  0
  131.8890  130.5450   60.8440 N   0  0  0  0  0  0  0  0  0  0  0  0
  130.8460  130.2330   60.1120 C   0  0  0  0  0  0  0  0  0  0  0  0
  130.8250  129.1670   59.0250 C   0  0  0  0  0  0  0  0  0  0  0  0
  130.8040  127.8020   59.5750 N   0  0  0  0  0  0  0  0  0  0  0  0
  129.7210  127.6190   60.5500 C   0  0  0  0  0  0  0  0  0  0  0  0
  130.2260  127.3590   61.9860 C   0  0  0  0  0  0  0  0  0  0  0  0
  129.9570  125.9240   62.4870 C   0  0  0  0  0  0  0  0  0  0  0  0
  131.1710  125.2230   62.9170 N   0  0  0  0  0  0  0  0  0  0  0  0
  131.5990  125.7050   64.2360 C   0  0  0  0  0  0  0  0  0  0  0  0
  132.9050  125.0230   64.6960 C   0  0  0  0  0  0  0  0  0  0  0  0
  133.9160  125.1860   63.7070 O   0  0  0  0  0  0  0  0  0  0  0  0
  133.5450  124.6160   62.4580 C   0  0  0  0  0  0  0  0  0  0  0  0
  132.2590  125.2870   61.9290 C   0  0  0  0  0  0  0  0  0  0  0  0
  130.6890  126.8200   58.4870 C   0  0  0  0  0  0  0  0  0  0  0  0
  130.9310  125.3620   58.8710 C   0  0  0  0  0  0  0  0  0  0  0  0
  129.9960  124.6520   59.5490 C   0  0  0  0  0  0  0  0  0  0  0  0
  130.2220  123.2540   59.9680 C   0  0  0  0  0  0  0  0  0  0  0  0
  129.2680  122.4830   60.6540 C   0  0  0  0  0  0  0  0  0  0  0  0
  127.9020  123.0470   61.0230 C   0  0  0  0  0  0  0  0  0  0  0  0
  129.5810  121.1660   61.0020 C   0  0  0  0  0  0  0  0  0  0  0  0
  130.8210  120.6190   60.6750 C   0  0  0  0  0  0  0  0  0  0  0  0
  131.7750  121.3770   59.9910 C   0  0  0  0  0  0  0  0  0  0  0  0
  133.1200  120.7500   59.6470 C   0  0  0  0  0  0  0  0  0  0  0  0
  131.4720  122.7000   59.6360 C   0  0  0  0  0  0  0  0  0  0  0  0
  132.4050  123.5040   58.9480 N   0  0  0  0  0  0  0  0  0  0  0  0
  132.2420  124.7890   58.5450 C   0  0  0  0  0  0  0  0  0  0  0  0
  133.1510  125.3810   57.9630 O   0  0  0  0  0  0  0  0  0  0  0  0
  126.7070  132.0960   61.4760 C   0  0  0  0  0  0  0  0  0  0  0  0
  125.7620  131.9940   62.4920 C   0  0  0  0  0  0  0  0  0  0  0  0
  1  2  1  0
  2  3  1  0
  3  4  2  0
  4  5  1  0
  5  6  2  0
  6  7  1  0
  7  8  1  0
  8  9  1  0
  9 10  2  0
 10 11  1  0
 11 12  2  0
 12 13  1  0
 13 14  1  0
 14 15  1  0
 15 16  1  0
 16 17  1  0
 17 18  1  0
 18 19  1  0
 19 20  1  0
 20 21  1  0
 21 22  1  0
 22 23  1  0
 14 24  1  0
 24 25  1  0
 25 26  2  0
 26 27  1  0
 27 28  2  0
 28 29  1  0
 28 30  1  0
 30 31  2  0
 31 32  1  0
 32 33  1  0
 32 34  2  0
 34 35  1  0
 35 36  1  0
 36 37  2  0
  6 38  1  0
 38 39  2  0
 39  3  1  0
 12  8  1  0
 23 18  1  0
 36 25  1  0
 34 27  1  0
M  END
>  <Binding energies>  (70) 
[-8.4]

>  <Ligand effiencies>  (70) 
[-0.21000000000000002]

>  <Interactions>  (70) 
["H-A:GLY:454:N:4048, V-A:GLU:543:CD:4906, V-A:ASP:366:CG:3211, H-B:TYR:539:OH:9850, V-A:ASP:366:CB:3210, V-B:TYR:539:CE2:9848, V-A:ARG:545:CD:4921, V-A:GLY:453:CA:4042, V-A:ILE:369:CG2:3235, V-B:GLU:543:CD:9880, V-A:ARG:545:CZ:4924, V-B:PRO:540:C:9853, V-B:TYR:539:CD2:9846, V-B:PRO:540:CA:9855, V-B:TYR:539:CZ:9849, V-B:ALA:541:CB:9864, V-A:LEU:475:CD2:4257, H-B:GLY:454:N:9022, H-B:TYR:484:OH:9320, V-B:ARG:545:CZ:9898, H-A:ARG:545:NH2:4926, H-A:ALA:541:N:4889, H-A:ARG:545:NE:4922, V-A:TRP:381:CH2:3370, V-B:ARG:545:CD:9895, V-B:ALA:541:CA:9862, H-A:ARG:545:NH1:4925"]

$$$$
RR15_Rahimova_2017
     RDKit          3D

 45 49  0  0  0  0  0  0  0  0999 V2000
  126.8230  128.2520   74.3150 C   0  0  0  0  0  0  0  0  0  0  0  0
  128.1330  127.7530   74.0680 O   0  0  0  0  0  0  0  0  0  0  0  0
  128.5830  127.6330   72.7640 C   0  0  0  0  0  0  0  0  0  0  0  0
  127.9180  128.1860   71.6590 C   0  0  0  0  0  0  0  0  0  0  0  0
  128.4240  128.0260   70.3710 C   0  0  0  0  0  0  0  0  0  0  0  0
  129.6040  127.3090   70.1490 C   0  0  0  0  0  0  0  0  0  0  0  0
  130.1460  127.1310   68.7580 C   0  0  0  0  0  0  0  0  0  0  0  0
  131.2040  127.7910   68.3070 N   0  0  0  0  0  0  0  0  0  0  0  0
  131.3890  127.3730   67.0050 N   0  0  0  0  0  0  0  0  0  0  0  0
  130.4290  126.4640   66.8280 N   0  0  0  0  0  0  0  0  0  0  0  0
  130.1530  125.8740   65.5200 C   0  0  0  0  0  0  0  0  0  0  0  0
  131.3950  125.3040   64.7890 C   0  0  0  0  0  0  0  0  0  0  0  0
  132.4270  125.1350   65.4410 O   0  0  0  0  0  0  0  0  0  0  0  0
  131.3100  124.9780   63.4630 N   0  0  0  0  0  0  0  0  0  0  0  0
  130.7120  123.7010   63.0230 C   0  0  0  0  0  0  0  0  0  0  0  0
  129.8110  123.8380   61.7770 C   0  0  0  0  0  0  0  0  0  0  0  0
  129.0890  122.5370   61.3520 C   0  0  0  0  0  0  0  0  0  0  0  0
  129.9510  121.5900   60.6380 N   0  0  0  0  0  0  0  0  0  0  0  0
  131.3880  121.8480   60.8230 C   0  0  0  0  0  0  0  0  0  0  0  0
  132.2490  120.7750   60.1230 C   0  0  0  0  0  0  0  0  0  0  0  0
  131.8730  119.4760   60.5670 O   0  0  0  0  0  0  0  0  0  0  0  0
  130.5060  119.1840   60.2950 C   0  0  0  0  0  0  0  0  0  0  0  0
  129.5970  120.2120   61.0030 C   0  0  0  0  0  0  0  0  0  0  0  0
  131.6220  125.9370   62.3590 C   0  0  2  0  0  0  0  0  0  0  0  0
  130.4670  126.9350   62.0360 C   0  0  0  0  0  0  0  0  0  0  0  0
  130.6870  127.9920   61.4460 O   0  0  0  0  0  0  0  0  0  0  0  0
  129.2360  126.5390   62.4070 N   0  0  0  0  0  0  0  0  0  0  0  0
  127.9980  127.2550   62.1210 C   0  0  0  0  0  0  0  0  0  0  0  0
  127.4940  126.9480   60.6980 C   0  0  2  0  0  0  0  0  0  0  0  0
  126.3540  125.9180   60.6100 C   0  0  0  0  0  0  0  0  0  0  0  0
  127.0320  124.6380   60.1870 C   0  0  0  0  0  0  0  0  0  0  0  0
  128.1460  125.1670   59.3010 C   0  0  0  0  0  0  0  0  0  0  0  0
  128.5860  126.3180   60.0150 O   0  0  0  0  0  0  0  0  0  0  0  0
  132.2720  125.2120   61.1850 C   0  0  0  0  0  0  0  0  0  0  0  0
  133.3710  124.3860   61.4470 C   0  0  0  0  0  0  0  0  0  0  0  0
  134.0050  123.7010   60.4150 C   0  0  0  0  0  0  0  0  0  0  0  0
  133.5410  123.8350   59.1090 C   0  0  0  0  0  0  0  0  0  0  0  0
  134.1550  123.1680   58.1060 F   0  0  0  0  0  0  0  0  0  0  0  0
  132.4480  124.6510   58.8300 C   0  0  0  0  0  0  0  0  0  0  0  0
  131.8160  125.3370   59.8630 C   0  0  0  0  0  0  0  0  0  0  0  0
  129.6100  126.3100   67.8750 N   0  0  0  0  0  0  0  0  0  0  0  0
  130.2670  126.7610   71.2550 C   0  0  0  0  0  0  0  0  0  0  0  0
  129.7710  126.9160   72.5610 C   0  0  0  0  0  0  0  0  0  0  0  0
  130.3910  126.3960   73.6840 O   0  0  0  0  0  0  0  0  0  0  0  0
  131.7760  126.0740   73.6370 C   0  0  0  0  0  0  0  0  0  0  0  0
  1  2  1  0
  2  3  1  0
  3  4  2  0
  4  5  1  0
  5  6  2  0
  6  7  1  0
  7  8  1  0
  8  9  2  0
  9 10  1  0
 10 11  1  0
 11 12  1  0
 12 13  2  0
 12 14  1  0
 14 15  1  0
 15 16  1  0
 16 17  1  0
 17 18  1  0
 18 19  1  0
 19 20  1  0
 20 21  1  0
 21 22  1  0
 22 23  1  0
 24 14  1  1
 24 25  1  0
 25 26  2  0
 25 27  1  0
 27 28  1  0
 29 28  1  1
 29 30  1  0
 30 31  1  0
 31 32  1  0
 32 33  1  0
 24 34  1  0
 34 35  2  0
 35 36  1  0
 36 37  2  0
 37 38  1  0
 37 39  1  0
 39 40  2  0
 10 41  1  0
  6 42  1  0
 42 43  2  0
 43 44  1  0
 44 45  1  0
 43  3  1  0
 41  7  2  0
 23 18  1  0
 33 29  1  0
 40 34  1  0
M  END
>  <Binding energies>  (71) 
[-9.43]

>  <Ligand effiencies>  (71) 
[-0.205]

>  <Interactions>  (71) 
["V-A:GLU:543:CD:4906, V-A:ASP:366:CG:3211, V-B:GLU:543:CG:9879, V-A:HIS:456:CE1:4068, V-A:ASP:366:CB:3210, V-A:ILE:369:CB:3234, V-B:TYR:539:CE2:9848, V-A:ILE:369:CD1:3237, V-A:ILE:369:CG2:3235, V-B:GLU:543:CD:9880, V-B:GLU:543:CB:9878, V-A:ARG:545:CZ:4924, V-A:ASP:366:CA:3208, V-A:HIS:456:CD2:4066, V-B:LYS:547:CE:9922, V-B:ASP:366:CG:8185, V-B:TYR:539:CD2:9846, V-B:TYR:539:CZ:9849, V-B:ALA:541:CB:9864, V-A:LEU:475:CD2:4257, H-B:GLU:543:OE1:9881, H-A:TYR:484:OH:4346, H-A:ARG:545:NH2:4926, H-B:GLU:543:OE2:9882, V-B:HIS:456:CE1:9042, H-A:ARG:545:NE:4922, V-A:PRO:482:CG:4325, V-A:TRP:381:CZ2:3368, V-A:PRO:482:CB:4324, V-A:TRP:381:CH2:3370, V-B:HIS:456:CG:9038, H-B:LYS:547:NZ:9923, H-A:LYS:547:NZ:4949, V-A:GLY:544:C:4910, V-B:HIS:456:CD2:9040, V-B:GLY:544:C:9884, V-A:HIS:456:CB:4063, V-A:HIS:456:CG:4064, V-B:ALA:541:CA:9862, V-A:ILE:369:CG1:3236, V-B:LYS:547:CD:9921, H-A:ARG:545:N:4918, V-A:TRP:381:CZ3:3369"]

$$$$
RR17_Rahimova_2017
     RDKit          3D

 38 41  0  0  0  0  0  0  0  0999 V2000
  133.0230  131.4270   61.2750 C   0  0  0  0  0  0  0  0  0  0  0  0
  131.5660  130.9580   61.2140 C   0  0  0  0  0  0  0  0  0  0  0  0
  130.8820  131.7180   60.2220 O   0  0  0  0  0  0  0  0  0  0  0  0
  129.5590  132.0630   60.4260 C   0  0  0  0  0  0  0  0  0  0  0  0
  129.1450  132.1880   61.7510 C   0  0  0  0  0  0  0  0  0  0  0  0
  127.8320  132.5310   62.0550 C   0  0  0  0  0  0  0  0  0  0  0  0
  126.8980  132.7550   61.0330 C   0  0  0  0  0  0  0  0  0  0  0  0
  125.4880  133.1250   61.3920 C   0  0  0  0  0  0  0  0  0  0  0  0
  125.1310  133.3190   62.5570 O   0  0  0  0  0  0  0  0  0  0  0  0
  124.4760  133.2390   60.2300 C   0  0  0  0  0  0  0  0  0  0  0  0
  123.3790  131.7800   60.1250 S   0  0  0  0  0  0  0  0  0  0  0  0
  124.4930  130.6120   59.3970 C   0  0  0  0  0  0  0  0  0  0  0  0
  124.6210  130.3830   58.1110 N   0  0  0  0  0  0  0  0  0  0  0  0
  125.5970  129.4090   57.9480 N   0  0  0  0  0  0  0  0  0  0  0  0
  126.0270  129.0890   59.1420 C   0  0  0  0  0  0  0  0  0  0  0  0
  127.1140  128.0610   59.4230 C   0  0  0  0  0  0  0  0  0  0  0  0
  126.6130  126.8160   59.9990 N   0  0  0  0  0  0  0  0  0  0  0  0
  127.4170  125.6860   60.2340 C   0  0  0  0  0  0  0  0  0  0  0  0
  126.9650  124.4620   59.7400 C   0  0  0  0  0  0  0  0  0  0  0  0
  127.7080  123.3030   59.9420 C   0  0  0  0  0  0  0  0  0  0  0  0
  128.9200  123.3550   60.6370 C   0  0  0  0  0  0  0  0  0  0  0  0
  129.7220  122.0730   60.8550 C   0  0  0  0  0  0  0  0  0  0  0  0
  130.7420  121.9630   60.0010 F   0  0  0  0  0  0  0  0  0  0  0  0
  130.2160  122.0380   62.0930 F   0  0  0  0  0  0  0  0  0  0  0  0
  128.9190  121.0220   60.6860 F   0  0  0  0  0  0  0  0  0  0  0  0
  129.3800  124.5830   61.1260 C   0  0  0  0  0  0  0  0  0  0  0  0
  128.6360  125.7410   60.9230 C   0  0  0  0  0  0  0  0  0  0  0  0
  125.3580  129.8080   60.1110 N   0  0  0  0  0  0  0  0  0  0  0  0
  125.5420  129.7560   61.5010 C   0  0  0  0  0  0  0  0  0  0  0  0
  126.7890  129.4050   62.0170 C   0  0  0  0  0  0  0  0  0  0  0  0
  126.9690  129.3490   63.3960 C   0  0  0  0  0  0  0  0  0  0  0  0
  125.9040  129.6450   64.2620 C   0  0  0  0  0  0  0  0  0  0  0  0
  125.9910  129.6160   65.6410 O   0  0  0  0  0  0  0  0  0  0  0  0
  127.1530  129.0670   66.2530 C   0  0  0  0  0  0  0  0  0  0  0  0
  124.6610  129.9930   63.7270 C   0  0  0  0  0  0  0  0  0  0  0  0
  124.4740  130.0510   62.3490 C   0  0  0  0  0  0  0  0  0  0  0  0
  127.3150  132.6300   59.7000 C   0  0  0  0  0  0  0  0  0  0  0  0
  128.6310  132.2880   59.3980 C   0  0  0  0  0  0  0  0  0  0  0  0
  1  2  1  0
  2  3  1  0
  3  4  1  0
  4  5  2  0
  5  6  1  0
  6  7  2  0
  7  8  1  0
  8  9  2  0
  8 10  1  0
 10 11  1  0
 11 12  1  0
 12 13  2  0
 13 14  1  0
 14 15  2  0
 15 16  1  0
 16 17  1  0
 17 18  1  0
 18 19  2  0
 19 20  1  0
 20 21  2  0
 21 22  1  0
 22 23  1  0
 22 24  1  0
 22 25  1  0
 21 26  1  0
 26 27  2  0
 15 28  1  0
 28 29  1  0
 29 30  2  0
 30 31  1  0
 31 32  2  0
 32 33  1  0
 33 34  1  0
 32 35  1  0
 35 36  2  0
  7 37  1  0
 37 38  2  0
 38  4  1  0
 28 12  1  0
 36 29  1  0
 27 18  1  0
M  END
>  <Binding energies>  (72) 
[-6.7]

>  <Ligand effiencies>  (72) 
[-0.1717948717948718]

>  <Interactions>  (72) 
["V-A:GLU:543:CD:4906, V-B:TYR:539:CE2:9848, V-B:ASP:366:CB:8184, V-B:ASP:366:CG:8185, V-B:PRO:540:C:9853, V-B:TYR:539:CD2:9846, V-B:PRO:540:CA:9855, V-B:ALA:541:CB:9864, V-A:TYR:539:CE2:4874, V-A:TYR:539:CD2:4872, H-B:ASP:366:OD1:8186, V-A:LEU:475:CD2:4257, V-B:LEU:475:CD2:9231, V-A:ALA:541:CB:4890, V-B:TYR:539:C:9839, H-B:TYR:484:OH:9320, V-A:TYR:539:C:4865, V-B:ARG:545:CZ:9898, V-A:GLU:543:CB:4904, V-B:ILE:369:CG2:8209, V-A:PRO:540:CA:4881, V-B:HIS:456:CE1:9042, V-A:ASN:362:CB:3174, V-A:PRO:540:CB:4883, V-A:PRO:540:C:4879, H-A:ALA:541:N:4889, H-B:ASP:366:OD2:8187, H-B:ARG:545:NE:9896, V-B:ALA:541:CA:9862, V-A:ALA:541:CA:4888, H-A:TYR:539:OH:4876"]

$$$$
RR19_Rahimova_2017
     RDKit          3D

 46 51  0  0  0  0  0  0  0  0999 V2000
  127.5040  130.4820   58.6920 O   0  0  0  0  0  0  0  0  0  0  0  0
  127.0070  129.6920   59.5000 C   0  0  0  0  0  0  0  0  0  0  0  0
  127.5210  128.4870   59.8550 N   0  0  0  0  0  0  0  0  0  0  0  0
  128.7410  127.8920   59.6470 C   0  0  0  0  0  0  0  0  0  0  0  0
  130.1220  128.6610   59.0410 S   0  0  0  0  0  0  0  0  0  0  0  0
  128.6540  126.5720   60.0150 N   0  0  0  0  0  0  0  0  0  0  0  0
  129.5780  125.5870   60.1460 C   0  0  0  0  0  0  0  0  0  0  0  0
  130.8040  125.7250   60.1270 O   0  0  0  0  0  0  0  0  0  0  0  0
  128.9690  124.1720   60.3110 C   0  0  2  0  0  0  0  0  0  0  0  0
  129.8530  123.0130   59.7660 C   0  0  0  0  0  0  0  0  0  0  0  0
  131.0390  122.6370   60.6400 C   0  0  0  0  0  0  0  0  0  0  0  0
  132.3230  122.4620   60.0820 C   0  0  0  0  0  0  0  0  0  0  0  0
  133.4090  122.1980   60.9050 C   0  0  0  0  0  0  0  0  0  0  0  0
  133.2410  122.1210   62.2830 C   0  0  0  0  0  0  0  0  0  0  0  0
  131.9890  122.3210   62.8490 C   0  0  0  0  0  0  0  0  0  0  0  0
  130.8910  122.5890   62.0430 C   0  0  0  0  0  0  0  0  0  0  0  0
  127.5870  124.1110   59.7600 N   0  0  0  0  0  0  0  0  0  0  0  0
  126.5020  124.0060   60.5790 C   0  0  0  0  0  0  0  0  0  0  0  0
  126.4990  123.9220   61.8080 O   0  0  0  0  0  0  0  0  0  0  0  0
  125.3230  124.0200   59.6770 C   0  0  0  0  0  0  0  0  0  0  0  0
  123.9580  123.9370   59.9550 C   0  0  0  0  0  0  0  0  0  0  0  0
  123.0530  123.9840   58.8890 C   0  0  0  0  0  0  0  0  0  0  0  0
  123.5180  124.1130   57.5730 C   0  0  0  0  0  0  0  0  0  0  0  0
  124.8910  124.1960   57.3160 C   0  0  0  0  0  0  0  0  0  0  0  0
  125.7770  124.1460   58.3930 C   0  0  0  0  0  0  0  0  0  0  0  0
  127.2590  124.2180   58.4380 C   0  0  0  0  0  0  0  0  0  0  0  0
  128.0250  124.3540   57.4830 O   0  0  0  0  0  0  0  0  0  0  0  0
  125.6660  130.0490   60.1950 C   0  0  2  0  0  0  0  0  0  0  0  0
  125.0820  131.4270   59.7680 C   0  0  0  0  0  0  0  0  0  0  0  0
  125.7880  132.6160   60.3930 C   0  0  0  0  0  0  0  0  0  0  0  0
  127.1800  132.5710   60.6260 C   0  0  0  0  0  0  0  0  0  0  0  0
  127.8410  133.6960   61.1030 C   0  0  0  0  0  0  0  0  0  0  0  0
  127.1430  134.8760   61.3270 C   0  0  0  0  0  0  0  0  0  0  0  0
  125.7800  134.9470   61.0650 C   0  0  0  0  0  0  0  0  0  0  0  0
  125.1010  133.8330   60.5890 C   0  0  0  0  0  0  0  0  0  0  0  0
  125.7150  129.9130   61.6790 N   0  0  0  0  0  0  0  0  0  0  0  0
  124.6070  130.0890   62.4520 C   0  0  0  0  0  0  0  0  0  0  0  0
  123.4730  130.3850   62.0740 O   0  0  0  0  0  0  0  0  0  0  0  0
  125.0560  129.8460   63.8450 C   0  0  0  0  0  0  0  0  0  0  0  0
  124.3570  129.8910   65.0530 C   0  0  0  0  0  0  0  0  0  0  0  0
  125.0470  129.6090   66.2370 C   0  0  0  0  0  0  0  0  0  0  0  0
  126.4100  129.2880   66.2010 C   0  0  0  0  0  0  0  0  0  0  0  0
  127.0930  129.2460   64.9800 C   0  0  0  0  0  0  0  0  0  0  0  0
  126.3870  129.5320   63.8100 C   0  0  0  0  0  0  0  0  0  0  0  0
  126.8260  129.5650   62.3940 C   0  0  0  0  0  0  0  0  0  0  0  0
  127.9520  129.3270   61.9560 O   0  0  0  0  0  0  0  0  0  0  0  0
  1  2  2  0
  2  3  1  0
  3  4  1  0
  4  5  2  0
  4  6  1  0
  6  7  1  0
  7  8  2  0
  7  9  1  0
  9 10  1  6
 10 11  1  0
 11 12  2  0
 12 13  1  0
 13 14  2  0
 14 15  1  0
 15 16  2  0
  9 17  1  0
 17 18  1  0
 18 19  2  0
 18 20  1  0
 20 21  2  0
 21 22  1  0
 22 23  2  0
 23 24  1  0
 24 25  2  0
 25 26  1  0
 26 27  2  0
  2 28  1  0
 28 29  1  1
 29 30  1  0
 30 31  2  0
 31 32  1  0
 32 33  2  0
 33 34  1  0
 34 35  2  0
 28 36  1  0
 36 37  1  0
 37 38  2  0
 37 39  1  0
 39 40  2  0
 40 41  1  0
 41 42  2  0
 42 43  1  0
 43 44  2  0
 44 45  1  0
 45 46  2  0
 16 11  1  0
 26 17  1  0
 35 30  1  0
 45 36  1  0
 25 20  1  0
 44 39  1  0
M  END
>  <Binding energies>  (73) 
[-10.26]

>  <Ligand effiencies>  (73) 
[-0.21375]

>  <Interactions>  (73) 
["V-A:GLU:543:CD:4906, V-B:TYR:539:CE2:9848, V-A:ILE:369:CD1:3237, V-A:ILE:369:CG2:3235, V-A:GLY:454:CA:4047, V-B:ASN:362:CB:8148, V-B:LEU:363:CA:8157, V-B:PRO:540:CB:9857, V-B:ASP:366:CG:8185, V-B:TYR:531:CE2:9765, V-B:LEU:363:CD1:8161, V-B:ASN:362:C:8144, V-B:LEU:363:CB:8159, V-B:TYR:539:CD2:9846, V-B:PRO:540:CA:9855, H-B:ALA:541:N:9863, V-B:ALA:541:CB:9864, V-A:TYR:539:CE2:4874, H-B:ARG:545:NH2:9900, V-A:TYR:539:CD2:4872, V-A:LEU:475:CD2:4257, V-B:LEU:475:CD2:9231, V-A:ALA:541:CB:4890, H-B:GLY:454:N:9022, V-B:ARG:545:CZ:9898, V-B:ILE:369:CG2:8209, V-B:HIS:456:CE1:9042, V-B:TYR:484:CZ:9319, V-B:ARG:545:CG:9894, H-B:ASP:366:OD2:8187, V-B:TRP:381:CZ2:8342, V-B:TRP:381:CH2:8344, V-B:ARG:545:CD:9895"]

$$$$
RR1_Rahimova_2017
     RDKit          3D

 41 44  0  0  0  0  0  0  0  0999 V2000
  133.3230  120.9770   60.4780 C   0  0  0  0  0  0  0  0  0  0  0  0
  134.0360  121.9640   61.2150 O   0  0  0  0  0  0  0  0  0  0  0  0
  133.3390  122.8250   62.0390 C   0  0  0  0  0  0  0  0  0  0  0  0
  132.1810  122.4740   62.7530 C   0  0  0  0  0  0  0  0  0  0  0  0
  131.5400  123.4130   63.5550 C   0  0  0  0  0  0  0  0  0  0  0  0
  132.0430  124.7100   63.6640 C   0  0  0  0  0  0  0  0  0  0  0  0
  131.2980  125.5990   64.4630 N   0  0  0  0  0  0  0  0  0  0  0  0
  130.7530  125.4020   65.6820 C   0  0  0  0  0  0  0  0  0  0  0  0
  130.7650  124.3310   66.2910 O   0  0  0  0  0  0  0  0  0  0  0  0
  130.0810  126.6430   66.2910 C   0  0  0  0  0  0  0  0  0  0  0  0
  130.9590  127.3940   67.7060 S   0  0  0  0  0  0  0  0  0  0  0  0
  129.5880  127.5110   68.8050 C   0  0  0  0  0  0  0  0  0  0  0  0
  129.6940  127.6110   70.1070 N   0  0  0  0  0  0  0  0  0  0  0  0
  128.4340  127.6850   70.5230 C   0  0  0  0  0  0  0  0  0  0  0  0
  128.0750  127.8260   71.9750 C   0  0  0  0  0  0  0  0  0  0  0  0
  126.8980  128.4760   72.3810 C   0  0  0  0  0  0  0  0  0  0  0  0
  126.5930  128.5940   73.7380 C   0  0  0  0  0  0  0  0  0  0  0  0
  127.4790  128.0540   74.6680 C   0  0  0  0  0  0  0  0  0  0  0  0
  128.6240  127.4200   74.3120 N   0  0  0  0  0  0  0  0  0  0  0  0
  128.9030  127.3150   72.9870 C   0  0  0  0  0  0  0  0  0  0  0  0
  127.5200  127.6310   69.5730 N   0  0  0  0  0  0  0  0  0  0  0  0
  128.2600  127.5180   68.4660 N   0  0  0  0  0  0  0  0  0  0  0  0
  127.6230  127.4500   67.1510 C   0  0  0  0  0  0  0  0  0  0  0  0
  127.1720  128.8040   66.5760 C   0  0  0  0  0  0  0  0  0  0  0  0
  127.7030  129.8570   66.9470 O   0  0  0  0  0  0  0  0  0  0  0  0
  126.1800  128.7340   65.6690 N   0  0  0  0  0  0  0  0  0  0  0  0
  125.8220  129.8970   65.0000 N   0  0  0  0  0  0  0  0  0  0  0  0
  125.8320  129.8760   63.6490 C   0  0  0  0  0  0  0  0  0  0  0  0
  126.0380  128.8610   62.9740 O   0  0  0  0  0  0  0  0  0  0  0  0
  125.5390  131.1980   62.9710 C   0  0  0  0  0  0  0  0  0  0  0  0
  124.2340  131.7020   62.9560 C   0  0  0  0  0  0  0  0  0  0  0  0
  123.9410  132.9080   62.3280 C   0  0  0  0  0  0  0  0  0  0  0  0
  124.9480  133.6470   61.6870 C   0  0  0  0  0  0  0  0  0  0  0  0
  124.7210  134.8460   61.0340 O   0  0  0  0  0  0  0  0  0  0  0  0
  123.4350  135.4510   61.1040 C   0  0  0  0  0  0  0  0  0  0  0  0
  126.2600  133.1560   61.6840 C   0  0  0  0  0  0  0  0  0  0  0  0
  127.2120  133.9130   61.0210 O   0  0  0  0  0  0  0  0  0  0  0  0
  127.4320  135.2640   61.4090 C   0  0  0  0  0  0  0  0  0  0  0  0
  126.5440  131.9390   62.3280 C   0  0  0  0  0  0  0  0  0  0  0  0
  133.2000  125.0650   62.9540 C   0  0  0  0  0  0  0  0  0  0  0  0
  133.8390  124.1220   62.1530 C   0  0  0  0  0  0  0  0  0  0  0  0
  1  2  1  0
  2  3  1  0
  3  4  2  0
  4  5  1  0
  5  6  2  0
  6  7  1  0
  7  8  1  0
  8  9  2  0
  8 10  1  0
 10 11  1  0
 11 12  1  0
 12 13  2  0
 13 14  1  0
 14 15  1  0
 15 16  2  0
 16 17  1  0
 17 18  2  0
 18 19  1  0
 19 20  2  0
 14 21  2  0
 21 22  1  0
 22 23  1  0
 23 24  1  0
 24 25  2  0
 24 26  1  0
 26 27  1  0
 27 28  1  0
 28 29  2  0
 28 30  1  0
 30 31  2  0
 31 32  1  0
 32 33  2  0
 33 34  1  0
 34 35  1  0
 33 36  1  0
 36 37  1  0
 37 38  1  0
 36 39  2  0
  6 40  1  0
 40 41  2  0
 41  3  1  0
 22 12  1  0
 39 30  1  0
 20 15  1  0
M  END
>  <Binding energies>  (74) 
[-9.58]

>  <Ligand effiencies>  (74) 
[-0.21772727272727274]

>  <Interactions>  (74) 
["V-A:GLU:543:CD:4906, V-B:GLU:543:CG:9879, V-A:HIS:456:CE1:4068, V-A:GLY:453:CA:4042, V-A:ILE:369:CD1:3237, V-A:ILE:369:CG2:3235, V-B:GLU:543:CD:9880, V-B:GLU:543:CB:9878, V-A:ARG:545:CZ:4924, V-A:GLY:454:CA:4047, V-B:LYS:547:CE:9922, H-B:ARG:545:NH2:9900, V-B:GLY:454:CA:9021, V-A:TYR:539:CD2:4872, V-A:LEU:475:CD2:4257, V-B:LEU:475:CD2:9231, V-A:ALA:541:CB:4890, H-B:TYR:484:OH:9320, H-B:GLU:543:OE1:9881, V-B:ARG:545:CZ:9898, H-A:TYR:484:OH:4346, H-A:GLU:543:OE2:4908, V-A:GLU:543:CB:4904, H-B:GLU:543:OE2:9882, V-B:ILE:369:CD1:8211, V-B:ILE:369:CG2:8209, V-B:HIS:456:CE1:9042, V-B:ARG:545:CG:9894, V-A:GLU:543:CG:4905, V-B:PRO:482:CG:9299, V-B:PRO:482:CB:9298, V-B:TRP:381:CZ2:8342, V-B:TRP:381:CH2:8344, V-B:HIS:456:CG:9038, H-B:LYS:547:NZ:9923, H-A:LYS:547:NZ:4949, V-B:HIS:456:CB:9037, V-A:GLU:543:C:4900, V-B:HIS:456:CD2:9040, V-B:GLY:544:C:9884, V-A:LYS:547:CE:4948, V-B:ARG:545:CD:9895, V-A:GLY:453:C:4040, V-B:SER:385:CA:8379, H-B:HIS:456:ND1:9039, V-B:LYS:547:CD:9921, V-B:SER:385:C:8377, V-B:SER:385:CB:8381"]

$$$$
RR22_Rahimova_2017
     RDKit          3D

 31 36  0  0  0  0  0  0  0  0999 V2000
  126.9850  126.1720   60.0040 O   0  0  0  0  0  0  0  0  0  0  0  0
  127.2310  127.2930   60.4440 C   0  0  0  0  0  0  0  0  0  0  0  0
  126.3260  128.2540   60.8600 N   0  0  0  0  0  0  0  0  0  0  0  0
  126.7830  129.4950   61.4080 C   0  0  1  0  0  0  0  0  0  0  0  0
  126.1690  130.5080   60.6060 O   0  0  0  0  0  0  0  0  0  0  0  0
  125.3300  131.4300   61.2310 C   0  0  0  0  0  0  0  0  0  0  0  0
  124.4730  132.1540   60.4010 C   0  0  0  0  0  0  0  0  0  0  0  0
  123.6330  133.1240   60.9490 C   0  0  0  0  0  0  0  0  0  0  0  0
  123.6560  133.3740   62.3210 C   0  0  0  0  0  0  0  0  0  0  0  0
  124.5140  132.6500   63.1520 C   0  0  0  0  0  0  0  0  0  0  0  0
  125.3440  131.6580   62.6200 C   0  0  0  0  0  0  0  0  0  0  0  0
  126.3380  130.8510   63.4260 C   0  0  1  0  0  0  0  0  0  0  0  0
  126.0990  130.4770   64.8750 C   0  0  0  0  0  0  0  0  0  0  0  0
  126.8670  129.1540   64.9340 C   0  0  0  0  0  0  0  0  0  0  0  0
  127.2960  128.5360   66.2040 C   0  0  0  0  0  0  0  0  0  0  0  0
  126.3780  127.8370   67.0030 C   0  0  0  0  0  0  0  0  0  0  0  0
  126.7870  127.2550   68.1990 C   0  0  0  0  0  0  0  0  0  0  0  0
  128.1140  127.3670   68.6050 C   0  0  0  0  0  0  0  0  0  0  0  0
  129.0370  128.0570   67.8240 C   0  0  0  0  0  0  0  0  0  0  0  0
  128.6300  128.6390   66.6260 C   0  0  0  0  0  0  0  0  0  0  0  0
  127.0510  128.6740   63.7620 N   0  0  0  0  0  0  0  0  0  0  0  0
  126.4520  129.5500   62.8400 N   0  0  0  0  0  0  0  0  0  0  0  0
  128.2800  129.5630   61.1440 C   0  0  0  0  0  0  0  0  0  0  0  0
  128.9880  130.7140   61.2090 C   0  0  0  0  0  0  0  0  0  0  0  0
  130.4350  130.9180   60.9980 C   0  0  0  0  0  0  0  0  0  0  0  0
  131.0380  130.8780   59.7330 C   0  0  0  0  0  0  0  0  0  0  0  0
  132.4140  131.0790   59.6100 C   0  0  0  0  0  0  0  0  0  0  0  0
  133.1580  131.3100   60.7660 C   0  0  0  0  0  0  0  0  0  0  0  0
  132.6030  131.3450   62.0030 N   0  0  0  0  0  0  0  0  0  0  0  0
  131.2630  131.1480   62.1020 C   0  0  0  0  0  0  0  0  0  0  0  0
  128.9020  127.9790   60.6580 S   0  0  0  0  0  0  0  0  0  0  0  0
  1  2  2  0
  2  3  1  0
  4  3  1  6
  4  5  1  0
  5  6  1  0
  6  7  2  0
  7  8  1  0
  8  9  2  0
  9 10  1  0
 10 11  2  0
 11 12  1  0
 12 13  1  1
 13 14  1  0
 14 15  1  0
 15 16  2  0
 16 17  1  0
 17 18  2  0
 18 19  1  0
 19 20  2  0
 14 21  2  0
 21 22  1  0
  4 23  1  0
 23 24  2  0
 24 25  1  0
 25 26  2  0
 26 27  1  0
 27 28  2  0
 28 29  1  0
 29 30  2  0
 23 31  1  0
 31  2  1  0
 22  4  1  0
 30 25  1  0
 11  6  1  0
 22 12  1  0
 20 15  1  0
M  END
>  <Binding energies>  (75) 
[-7.3]

>  <Ligand effiencies>  (75) 
[-0.228125]

>  <Interactions>  (75) 
["V-A:GLU:543:CD:4906, V-B:GLU:543:CG:9879, V-B:GLU:543:CD:9880, V-B:GLU:543:C:9874, V-B:ASP:366:CG:8185, V-A:TYR:539:CE2:4874, H-B:ARG:545:NH2:9900, V-B:GLY:454:CA:9021, H-B:ASP:366:OD1:8186, V-B:LEU:475:CD2:9231, H-A:ARG:545:NH2:4926, V-A:GLU:543:CB:4904, V-B:ILE:369:CD1:8211, V-B:ILE:369:CG2:8209, V-A:PRO:540:CA:4881, V-B:HIS:456:CE1:9042, V-A:ASN:362:CB:3174, V-A:PRO:540:CB:4883, V-B:TYR:484:CZ:9319, H-A:ALA:541:N:4889, V-B:ARG:545:CG:9894, H-B:ASP:366:OD2:8187, V-A:GLU:543:CG:4905, V-B:ILE:369:CB:8208, V-A:GLU:543:C:4900, V-B:GLY:544:C:9884, V-B:ARG:545:CD:9895, V-B:ARG:545:CA:9891, V-B:ILE:369:CG1:8210"]

$$$$
RR24_Rahimova_2017
     RDKit          3D

 43 49  0  0  0  0  0  0  0  0999 V2000
  127.0520  123.7890   60.3140 C   0  0  0  0  0  0  0  0  0  0  0  0
  128.1950  124.3360   59.4470 C   0  0  2  0  0  0  0  0  0  0  0  0
  127.8400  124.4010   57.9320 C   0  0  0  0  0  0  0  0  0  0  0  0
  127.0080  123.6450   57.4200 O   0  0  0  0  0  0  0  0  0  0  0  0
  128.5640  125.3480   57.2660 O   0  0  0  0  0  0  0  0  0  0  0  0
  128.6180  126.6330   57.7580 C   0  0  0  0  0  0  0  0  0  0  0  0
  129.5920  127.5090   57.2770 C   0  0  0  0  0  0  0  0  0  0  0  0
  129.6510  128.8130   57.7600 C   0  0  0  0  0  0  0  0  0  0  0  0
  128.7320  129.2490   58.7190 C   0  0  0  0  0  0  0  0  0  0  0  0
  128.8140  130.6800   59.2620 C   0  0  1  0  0  0  0  0  0  0  0  0
  127.5420  131.0740   60.0490 C   0  0  0  0  0  0  0  0  0  0  0  0
  127.5850  131.6010   61.2860 C   0  0  0  0  0  0  0  0  0  0  0  0
  128.7690  131.8280   61.9450 N   0  0  0  0  0  0  0  0  0  0  0  0
  129.9780  131.5230   61.3660 C   0  0  0  0  0  0  0  0  0  0  0  0
  131.0520  131.8150   62.1440 N   0  0  0  0  0  0  0  0  0  0  0  0
  132.3250  131.5110   61.7720 C   0  0  0  0  0  0  0  0  0  0  0  0
  133.2160  131.5010   62.6230 O   0  0  0  0  0  0  0  0  0  0  0  0
  132.4420  131.0760   60.4610 N   0  0  0  0  0  0  0  0  0  0  0  0
  133.8140  130.8190   59.9770 C   0  0  0  0  0  0  0  0  0  0  0  0
  131.4210  130.7460   59.5860 C   0  0  0  0  0  0  0  0  0  0  0  0
  131.6000  130.3130   58.4440 O   0  0  0  0  0  0  0  0  0  0  0  0
  130.0770  130.9800   60.1250 C   0  0  0  0  0  0  0  0  0  0  0  0
  126.2450  131.8710   61.7810 C   0  0  0  0  0  0  0  0  0  0  0  0
  125.7620  132.4000   62.9780 C   0  0  0  0  0  0  0  0  0  0  0  0
  124.3820  132.5370   63.1550 C   0  0  0  0  0  0  0  0  0  0  0  0
  123.5010  132.1510   62.1410 C   0  0  0  0  0  0  0  0  0  0  0  0
  123.9910  131.6230   60.9430 C   0  0  0  0  0  0  0  0  0  0  0  0
  125.3700  131.4860   60.7730 C   0  0  0  0  0  0  0  0  0  0  0  0
  126.1490  130.9690   59.6280 C   0  0  0  0  0  0  0  0  0  0  0  0
  125.7610  130.5370   58.5440 O   0  0  0  0  0  0  0  0  0  0  0  0
  127.7460  128.3730   59.1860 C   0  0  0  0  0  0  0  0  0  0  0  0
  127.6850  127.0700   58.7020 C   0  0  0  0  0  0  0  0  0  0  0  0
  129.4810  123.6220   59.7000 N   0  0  0  0  0  0  0  0  0  0  0  0
  130.6840  124.2010   59.4240 C   0  0  0  0  0  0  0  0  0  0  0  0
  130.8840  125.3210   58.9480 O   0  0  0  0  0  0  0  0  0  0  0  0
  131.7040  123.1980   59.8160 C   0  0  0  0  0  0  0  0  0  0  0  0
  133.0980  123.2410   59.7570 C   0  0  0  0  0  0  0  0  0  0  0  0
  133.8220  122.1310   60.2070 C   0  0  0  0  0  0  0  0  0  0  0  0
  133.1520  121.0060   60.7050 C   0  0  0  0  0  0  0  0  0  0  0  0
  131.7540  120.9820   60.7570 C   0  0  0  0  0  0  0  0  0  0  0  0
  131.0500  122.0980   60.3020 C   0  0  0  0  0  0  0  0  0  0  0  0
  129.5930  122.3680   60.2340 C   0  0  0  0  0  0  0  0  0  0  0  0
  128.6790  121.6220   60.5890 O   0  0  0  0  0  0  0  0  0  0  0  0
  2  1  1  1
  2  3  1  0
  3  4  2  0
  3  5  1  0
  5  6  1  0
  6  7  2  0
  7  8  1  0
  8  9  2  0
 10  9  1  1
 10 11  1  0
 11 12  2  0
 12 13  1  0
 13 14  1  0
 14 15  1  0
 15 16  1  0
 16 17  2  0
 16 18  1  0
 18 19  1  0
 18 20  1  0
 20 21  2  0
 20 22  1  0
 12 23  1  0
 23 24  2  0
 24 25  1  0
 25 26  2  0
 26 27  1  0
 27 28  2  0
 28 29  1  0
 29 30  2  0
  9 31  1  0
 31 32  2  0
  2 33  1  0
 33 34  1  0
 34 35  2  0
 34 36  1  0
 36 37  2  0
 37 38  1  0
 38 39  2  0
 39 40  1  0
 40 41  2  0
 41 42  1  0
 42 43  2  0
 32  6  1  0
 42 33  1  0
 22 10  1  0
 28 23  1  0
 41 36  1  0
 29 11  1  0
 22 14  2  0
M  END
>  <Binding energies>  (76) 
[-8.04]

>  <Ligand effiencies>  (76) 
[-0.17866666666666664]

>  <Interactions>  (76) 
["V-A:GLU:543:CD:4906, V-A:ASP:366:CG:3211, V-A:ILE:369:CB:3234, V-B:TYR:539:CE2:9848, V-A:ILE:369:CD1:3237, V-A:ILE:369:CG2:3235, V-B:TYR:539:CD2:9846, V-B:PRO:540:CA:9855, H-B:ALA:541:N:9863, V-A:TYR:539:CE2:4874, V-B:GLY:454:CA:9021, V-A:LEU:475:CD2:4257, V-B:LEU:475:CD2:9231, V-A:ALA:541:CB:4890, H-A:GLU:543:OE1:4907, H-A:ARG:545:NH2:4926, V-B:ILE:369:CD1:8211, V-A:PRO:540:CA:4881, V-A:ASN:362:CB:3174, V-A:PRO:540:CB:4883, V-A:PRO:540:C:4879, H-A:ALA:541:N:4889, V-B:GLY:453:C:9014, V-A:ALA:541:CA:4888, H-A:ASN:362:ND2:3177, V-A:ALA:541:C:4886, H-A:TYR:539:OH:4876, H-A:ALA:541:O:4887, V-A:ILE:369:CG1:3236, V-A:ASN:362:C:3170, V-A:LEU:363:CA:3183, V-A:ASN:362:CA:3172"]

$$$$
RR25_Rahimova_2017
     RDKit          3D

 39 44  0  0  0  0  0  0  0  0999 V2000
  126.5680  123.3570   60.4640 O   0  0  0  0  0  0  0  0  0  0  0  0
  127.7810  123.2710   60.6570 C   0  0  0  0  0  0  0  0  0  0  0  0
  128.2650  122.0140   60.9220 O   0  0  0  0  0  0  0  0  0  0  0  0
  129.6220  121.7460   60.9090 C   0  0  0  0  0  0  0  0  0  0  0  0
  129.9990  120.4320   60.6340 C   0  0  0  0  0  0  0  0  0  0  0  0
  131.3490  120.0900   60.6130 C   0  0  0  0  0  0  0  0  0  0  0  0
  132.3390  121.0500   60.8690 C   0  0  0  0  0  0  0  0  0  0  0  0
  133.7760  120.6850   60.8380 N   0  0  0  0  0  0  0  0  0  0  0  0
  134.5800  121.4090   61.4200 O   0  0  0  0  0  0  0  0  0  0  0  0
  134.1120  119.6720   60.2320 O   0  0  0  0  0  0  0  0  0  0  0  0
  131.9380  122.3650   61.1550 C   0  0  0  0  0  0  0  0  0  0  0  0
  130.5870  122.7240   61.1880 C   0  0  0  0  0  0  0  0  0  0  0  0
  130.1040  124.1320   61.4820 C   0  0  0  0  0  0  0  0  0  0  0  0
  128.8220  124.4290   60.6540 C   0  0  2  0  0  0  0  0  0  0  0  0
  128.2400  125.8300   61.0030 C   0  0  0  0  0  0  0  0  0  0  0  0
  127.5580  125.8930   62.0300 O   0  0  0  0  0  0  0  0  0  0  0  0
  128.5660  126.9510   60.2910 N   0  0  0  0  0  0  0  0  0  0  0  0
  129.1010  126.8980   58.9140 C   0  0  0  0  0  0  0  0  0  0  0  0
  130.1480  128.0170   58.7390 C   0  0  0  0  0  0  0  0  0  0  0  0
  129.5920  129.3290   59.0830 N   0  0  0  0  0  0  0  0  0  0  0  0
  130.5440  130.4100   58.7910 C   0  0  0  0  0  0  0  0  0  0  0  0
  129.8850  131.8150   58.8160 C   0  0  0  0  0  0  0  0  0  0  0  0
  128.5090  131.8850   59.3900 N   0  0  0  0  0  0  0  0  0  0  0  0
  127.4970  131.4840   58.5430 C   0  0  0  0  0  0  0  0  0  0  0  0
  127.6930  131.1260   57.3760 O   0  0  0  0  0  0  0  0  0  0  0  0
  126.1130  131.4980   59.1630 C   0  0  0  0  0  0  0  0  0  0  0  0
  125.0140  131.0850   58.3990 C   0  0  0  0  0  0  0  0  0  0  0  0
  123.7290  131.0780   58.9390 C   0  0  0  0  0  0  0  0  0  0  0  0
  123.5020  131.4780   60.2550 C   0  0  0  0  0  0  0  0  0  0  0  0
  124.5820  131.9030   61.0640 C   0  0  0  0  0  0  0  0  0  0  0  0
  124.4240  132.3200   62.4070 C   0  0  0  0  0  0  0  0  0  0  0  0
  125.5320  132.7240   63.1500 C   0  0  0  0  0  0  0  0  0  0  0  0
  126.8070  132.7270   62.5890 C   0  0  0  0  0  0  0  0  0  0  0  0
  127.0120  132.3220   61.2640 C   0  0  0  0  0  0  0  0  0  0  0  0
  125.8890  131.9080   60.5020 C   0  0  0  0  0  0  0  0  0  0  0  0
  128.4170  132.3300   60.6930 C   0  0  0  0  0  0  0  0  0  0  0  0
  129.3930  132.6940   61.3580 O   0  0  0  0  0  0  0  0  0  0  0  0
  129.1760  129.3400   60.4860 C   0  0  0  0  0  0  0  0  0  0  0  0
  128.0930  128.2700   60.7690 C   0  0  0  0  0  0  0  0  0  0  0  0
  1  2  2  0
  2  3  1  0
  3  4  1  0
  4  5  2  0
  5  6  1  0
  6  7  2  0
  7  8  1  0
  8  9  2  0
  8 10  1  0
  7 11  1  0
 11 12  2  0
 12 13  1  0
 13 14  1  0
 14 15  1  1
 15 16  2  0
 15 17  1  0
 17 18  1  0
 18 19  1  0
 19 20  1  0
 20 21  1  0
 21 22  1  0
 22 23  1  0
 23 24  1  0
 24 25  2  0
 24 26  1  0
 26 27  2  0
 27 28  1  0
 28 29  2  0
 29 30  1  0
 30 31  2  0
 31 32  1  0
 32 33  2  0
 33 34  1  0
 34 35  2  0
 34 36  1  0
 36 37  2  0
 20 38  1  0
 38 39  1  0
 14  2  1  0
 39 17  1  0
 12  4  1  0
 36 23  1  0
 35 26  1  0
 35 30  1  0
M  CHG  2   8   1  10  -1
M  END
>  <Binding energies>  (77) 
[-8.67]

>  <Ligand effiencies>  (77) 
[-0.22230769230769232]

>  <Interactions>  (77) 
["H-A:GLY:454:N:4048, V-B:TYR:539:CE2:9848, V-A:ILE:369:CD1:3237, V-A:ILE:369:CG2:3235, V-B:ASP:366:CB:8184, V-B:ASP:366:CG:8185, V-B:PRO:540:C:9853, V-B:TYR:539:CD2:9846, V-B:PRO:540:CA:9855, H-B:ALA:541:N:9863, V-B:ALA:541:CB:9864, V-A:TYR:539:CE2:4874, H-B:ARG:545:NH2:9900, V-B:GLY:454:CA:9021, V-A:TYR:539:CD2:4872, V-A:LEU:475:CD2:4257, V-B:LEU:475:CD2:9231, V-A:ALA:541:CB:4890, V-A:TYR:539:C:4865, V-B:ILE:369:CD1:8211, V-B:ILE:369:CG2:8209, V-A:TYR:539:CZ:4875, V-A:PRO:540:CA:4881, H-A:ALA:541:N:4889, V-B:ASP:366:CA:8182, V-B:ILE:369:CB:8208, V-A:PRO:540:N:4882, V-A:TRP:381:CZ2:3368, V-A:TRP:381:CH2:3370"]

$$$$
RR27_Rahimova_2017
     RDKit          3D

 39 44  0  0  0  0  0  0  0  0999 V2000
  128.5970  131.9280   62.1360 O   0  0  0  0  0  0  0  0  0  0  0  0
  127.9080  131.1390   61.4820 C   0  0  0  0  0  0  0  0  0  0  0  0
  126.3810  131.0730   61.7750 C   0  0  0  0  0  0  0  0  0  0  0  0
  125.6530  132.4000   61.4860 C   0  0  0  0  0  0  0  0  0  0  0  0
  126.3520  133.5800   61.1900 C   0  0  0  0  0  0  0  0  0  0  0  0
  125.6620  134.7600   60.9320 C   0  0  0  0  0  0  0  0  0  0  0  0
  124.2710  134.7680   60.9690 C   0  0  0  0  0  0  0  0  0  0  0  0
  123.5630  133.6060   61.2630 C   0  0  0  0  0  0  0  0  0  0  0  0
  124.2530  132.4250   61.5220 C   0  0  0  0  0  0  0  0  0  0  0  0
  126.0900  130.4610   63.1590 C   0  0  0  0  0  0  0  0  0  0  0  0
  124.8320  130.5750   63.7650 C   0  0  0  0  0  0  0  0  0  0  0  0
  124.6060  130.0190   65.0220 C   0  0  0  0  0  0  0  0  0  0  0  0
  125.6370  129.3530   65.6790 C   0  0  0  0  0  0  0  0  0  0  0  0
  126.8950  129.2420   65.0920 C   0  0  0  0  0  0  0  0  0  0  0  0
  127.1200  129.7990   63.8370 C   0  0  0  0  0  0  0  0  0  0  0  0
  128.4220  130.4470   60.4260 N   0  0  0  0  0  0  0  0  0  0  0  0
  127.7310  129.3200   59.7810 C   0  0  0  0  0  0  0  0  0  0  0  0
  128.1240  128.0470   60.5630 C   0  0  0  0  0  0  0  0  0  0  0  0
  129.6710  127.8490   60.6550 C   0  0  0  0  0  0  0  0  0  0  0  0
  130.1190  126.6560   61.5190 C   0  0  0  0  0  0  0  0  0  0  0  0
  130.6190  126.9550   62.7540 N   0  0  0  0  0  0  0  0  0  0  0  0
  131.0040  125.9340   63.5690 C   0  0  0  0  0  0  0  0  0  0  0  0
  131.5160  126.1070   64.8280 O   0  0  0  0  0  0  0  0  0  0  0  0
  130.8730  124.6110   63.1040 C   0  0  0  0  0  0  0  0  0  0  0  0
  131.1500  123.3910   63.6470 N   0  0  0  0  0  0  0  0  0  0  0  0
  130.8150  122.4370   62.7050 N   0  0  0  0  0  0  0  0  0  0  0  0
  130.3340  123.0580   61.6070 N   0  0  0  0  0  0  0  0  0  0  0  0
  129.9250  122.2850   60.4370 C   0  0  0  0  0  0  0  0  0  0  0  0
  128.6720  122.8200   59.7570 C   0  0  0  0  0  0  0  0  0  0  0  0
  128.6010  122.8830   58.3620 C   0  0  0  0  0  0  0  0  0  0  0  0
  127.4480  123.3640   57.7380 C   0  0  0  0  0  0  0  0  0  0  0  0
  126.3600  123.7790   58.5060 C   0  0  0  0  0  0  0  0  0  0  0  0
  126.4210  123.7100   59.8990 C   0  0  0  0  0  0  0  0  0  0  0  0
  125.0660  124.1990   60.8500 Cl  0  0  0  0  0  0  0  0  0  0  0  0
  127.5760  123.2370   60.5220 C   0  0  0  0  0  0  0  0  0  0  0  0
  130.3540  124.4290   61.8040 C   0  0  0  0  0  0  0  0  0  0  0  0
  129.9760  125.4110   60.9820 N   0  0  0  0  0  0  0  0  0  0  0  0
  130.4080  129.1780   61.0060 C   0  0  0  0  0  0  0  0  0  0  0  0
  129.8770  130.3980   60.2110 C   0  0  0  0  0  0  0  0  0  0  0  0
  1  2  2  0
  2  3  1  0
  3  4  1  0
  4  5  2  0
  5  6  1  0
  6  7  2  0
  7  8  1  0
  8  9  2  0
  3 10  1  0
 10 11  2  0
 11 12  1  0
 12 13  2  0
 13 14  1  0
 14 15  2  0
  2 16  1  0
 16 17  1  0
 17 18  1  0
 18 19  1  0
 19 20  1  0
 20 21  2  0
 21 22  1  0
 22 23  1  0
 22 24  2  0
 24 25  1  0
 25 26  2  0
 26 27  1  0
 27 28  1  0
 28 29  1  0
 29 30  2  0
 30 31  1  0
 31 32  2  0
 32 33  1  0
 33 34  1  0
 33 35  2  0
 27 36  1  0
 36 37  2  0
 19 38  1  0
 38 39  1  0
  9  4  1  0
 15 10  1  0
 39 16  1  0
 37 20  1  0
 36 24  1  0
 35 29  1  0
M  END
>  <Binding energies>  (78) 
[-9.26]

>  <Ligand effiencies>  (78) 
[-0.23149999999999998]

>  <Interactions>  (78) 
["V-A:GLU:543:CD:4906, V-B:TYR:539:CE2:9848, V-B:GLU:543:CD:9880, V-A:ARG:545:CZ:4924, V-B:PRO:540:CB:9857, V-B:PRO:540:C:9853, V-B:TYR:539:CD2:9846, V-B:PRO:540:N:9856, V-B:PRO:540:CA:9855, V-B:ALA:541:CB:9864, V-A:TYR:539:CE2:4874, V-A:TYR:539:CD2:4872, V-B:LEU:475:CD2:9231, V-B:TYR:539:C:9839, V-B:ARG:545:CZ:9898, H-A:TYR:484:OH:4346, H-A:GLU:543:OE2:4908, H-A:ARG:545:NH2:4926, V-B:ILE:369:CD1:8211, V-B:ILE:369:CG2:8209, V-B:HIS:456:CE1:9042, V-B:ARG:545:CG:9894, H-A:ARG:545:NE:4922, V-B:TRP:381:CZ2:8342, V-B:TRP:381:CH2:8344, V-B:ARG:545:CD:9895, V-B:TYR:539:CG:9844, V-B:ILE:369:CG1:8210"]

$$$$
RR28_Rahimova_2017
     RDKit          3D

 46 49  0  0  0  0  0  0  0  0999 V2000
  133.9050  123.6740   57.9390 C   0  0  0  0  0  0  0  0  0  0  0  0
  132.6630  124.3630   58.4920 C   0  0  0  0  0  0  0  0  0  0  0  0
  132.5020  125.5670   58.3030 O   0  0  0  0  0  0  0  0  0  0  0  0
  131.7980  123.5810   59.1700 N   0  0  0  0  0  0  0  0  0  0  0  0
  130.5250  123.9720   59.8180 C   0  0  0  0  0  0  0  0  0  0  0  0
  130.8200  124.3000   61.3100 C   0  0  0  0  0  0  0  0  0  0  0  0
  130.3290  125.4940   61.8620 C   0  0  0  0  0  0  0  0  0  0  0  0
  130.5770  125.8220   63.1910 C   0  0  0  0  0  0  0  0  0  0  0  0
  131.3240  124.9640   64.0000 C   0  0  0  0  0  0  0  0  0  0  0  0
  131.5890  125.3440   65.4560 C   0  0  0  0  0  0  0  0  0  0  0  0
  131.2850  126.6180   65.7110 F   0  0  0  0  0  0  0  0  0  0  0  0
  130.8680  124.5770   66.2740 F   0  0  0  0  0  0  0  0  0  0  0  0
  132.8820  125.1620   65.7270 F   0  0  0  0  0  0  0  0  0  0  0  0
  131.8190  123.7730   63.4620 C   0  0  0  0  0  0  0  0  0  0  0  0
  131.5710  123.4460   62.1320 C   0  0  0  0  0  0  0  0  0  0  0  0
  129.4410  122.8530   59.6200 C   0  0  0  0  0  0  0  0  0  0  0  0
  129.0170  122.6650   58.1410 C   0  0  0  0  0  0  0  0  0  0  0  0
  128.4980  123.9660   57.6880 N   0  0  0  0  0  0  0  0  0  0  0  0
  127.1650  124.2370   57.7570 C   0  0  0  0  0  0  0  0  0  0  0  0
  126.3350  123.3680   58.0330 O   0  0  0  0  0  0  0  0  0  0  0  0
  126.6620  125.6330   57.3160 C   0  0  0  0  0  0  0  0  0  0  0  0
  126.0730  126.5280   58.4410 C   0  0  0  0  0  0  0  0  0  0  0  0
  127.1070  127.0700   59.4560 C   0  0  0  0  0  0  0  0  0  0  0  0
  127.7650  126.2520   60.1050 O   0  0  0  0  0  0  0  0  0  0  0  0
  127.3620  128.4080   59.5110 N   0  0  0  0  0  0  0  0  0  0  0  0
  126.4290  129.4290   59.0200 C   0  0  0  0  0  0  0  0  0  0  0  0
  125.4410  129.7140   60.1730 C   0  0  0  0  0  0  0  0  0  0  0  0
  126.1130  130.1620   61.5180 C   0  0  0  0  0  0  0  0  0  0  0  0
  125.1390  130.0130   62.6200 N   0  0  0  0  0  0  0  0  0  0  0  0
  125.3240  130.2590   63.9320 C   0  0  0  0  0  0  0  0  0  0  0  0
  124.1310  129.9940   64.8440 C   0  0  0  0  0  0  0  0  0  0  0  0
  126.3780  130.6730   64.4140 O   0  0  0  0  0  0  0  0  0  0  0  0
  126.4500  131.6830   61.3890 C   0  0  0  0  0  0  0  0  0  0  0  0
  125.4820  132.6920   61.5260 C   0  0  0  0  0  0  0  0  0  0  0  0
  125.8250  134.0360   61.4050 C   0  0  0  0  0  0  0  0  0  0  0  0
  127.1450  134.4060   61.1390 C   0  0  0  0  0  0  0  0  0  0  0  0
  127.5370  135.8770   61.0070 C   0  0  0  0  0  0  0  0  0  0  0  0
  127.2700  136.3270   59.7790 F   0  0  0  0  0  0  0  0  0  0  0  0
  126.8390  136.5960   61.8850 F   0  0  0  0  0  0  0  0  0  0  0  0
  128.8360  136.0750   61.2430 F   0  0  0  0  0  0  0  0  0  0  0  0
  128.1170  133.4150   60.9920 C   0  0  0  0  0  0  0  0  0  0  0  0
  127.7710  132.0730   61.1140 C   0  0  0  0  0  0  0  0  0  0  0  0
  127.3840  129.2640   61.7810 C   0  0  0  0  0  0  0  0  0  0  0  0
  128.2610  128.9450   60.5410 C   0  0  0  0  0  0  0  0  0  0  0  0
  129.5200  125.0220   57.6540 C   0  0  0  0  0  0  0  0  0  0  0  0
  129.9780  125.2580   59.1170 C   0  0  0  0  0  0  0  0  0  0  0  0
  1  2  1  0
  2  3  2  0
  2  4  1  0
  4  5  1  0
  5  6  1  0
  6  7  2  0
  7  8  1  0
  8  9  2  0
  9 10  1  0
 10 11  1  0
 10 12  1  0
 10 13  1  0
  9 14  1  0
 14 15  2  0
  5 16  1  0
 16 17  1  0
 17 18  1  0
 18 19  1  0
 19 20  2  0
 19 21  1  0
 21 22  1  0
 22 23  1  0
 23 24  2  0
 23 25  1  0
 25 26  1  0
 26 27  1  0
 27 28  1  0
 28 29  1  0
 29 30  1  0
 30 31  1  0
 30 32  2  0
 28 33  1  0
 33 34  2  0
 34 35  1  0
 35 36  2  0
 36 37  1  0
 37 38  1  0
 37 39  1  0
 37 40  1  0
 36 41  1  0
 41 42  2  0
 28 43  1  0
 43 44  1  0
 18 45  1  0
 45 46  1  0
 46  5  1  0
 15  6  1  0
 44 25  1  0
 42 33  1  0
M  END
>  <Binding energies>  (79) 
[-6.93]

>  <Ligand effiencies>  (79) 
[-0.144375]

>  <Interactions>  (79) 
["V-A:GLU:543:CD:4906, V-A:ASP:366:CG:3211, V-B:GLU:543:CG:9879, V-A:HIS:456:CE1:4068, V-A:ASP:366:CB:3210, V-A:ILE:369:CB:3234, V-B:TYR:539:CE2:9848, V-A:ARG:545:CD:4921, V-A:ILE:369:CG2:3235, V-A:ARG:545:CG:4920, V-B:GLU:543:CD:9880, V-B:GLU:543:CB:9878, V-A:ASP:366:CA:3208, V-B:ASP:366:CG:8185, V-B:TYR:539:CD2:9846, V-B:TYR:539:CZ:9849, V-A:TYR:539:CE2:4874, V-B:GLY:454:CA:9021, V-A:TYR:539:CD2:4872, V-A:TYR:484:CZ:4345, H-B:ASP:366:OD1:8186, V-B:LEU:475:CD2:9231, V-A:ALA:541:CB:4890, V-B:TYR:539:C:9839, H-B:TYR:484:OH:9320, V-A:TYR:539:C:4865, V-B:ARG:545:CZ:9898, V-A:PRO:540:C:4879, V-A:GLU:543:CG:4905, V-A:TYR:539:CG:4870, V-A:TYR:539:CA:4867, V-B:PRO:482:CG:9299, V-B:PRO:482:CB:9298, V-B:TRP:381:CZ2:8342, V-B:TRP:381:CH2:8344, V-A:TYR:484:CE1:4343, V-B:GLY:453:CA:9016, V-B:GLY:453:C:9014, V-B:ARG:545:CD:9895, V-A:ALA:541:CA:4888, V-B:TYR:539:CG:9844, V-B:LEU:475:CG:9229, V-B:LEU:475:CD1:9230, V-B:TRP:381:CZ3:8343, V-A:TYR:539:CB:4869, V-B:TRP:381:CE2:8339, V-B:TRP:381:CE3:8340, V-B:PRO:482:CD:9300"]

$$$$
RR29_Rahimova_2017
     RDKit          3D

 18 19  0  0  0  0  0  0  0  0999 V2000
  128.9920  127.0020   69.5610 C   0  0  0  0  0  0  0  0  0  0  0  0
  129.0280  127.0510   68.0410 C   0  0  0  0  0  0  0  0  0  0  0  0
  127.7150  127.5830   67.4240 C   0  0  0  0  0  0  0  0  0  0  0  0
  127.9240  128.9430   66.7240 C   0  0  0  0  0  0  0  0  0  0  0  0
  126.7460  129.3230   65.8400 C   0  0  0  0  0  0  0  0  0  0  0  0
  125.4360  129.2910   66.3600 C   0  0  0  0  0  0  0  0  0  0  0  0
  124.3370  129.6380   65.5620 C   0  0  0  0  0  0  0  0  0  0  0  0
  124.5880  130.0010   64.2440 C   0  0  0  0  0  0  0  0  0  0  0  0
  125.8550  130.0320   63.7340 C   0  0  0  0  0  0  0  0  0  0  0  0
  126.9660  129.7030   64.5040 C   0  0  0  0  0  0  0  0  0  0  0  0
  125.8100  130.4520   62.4420 O   0  0  0  0  0  0  0  0  0  0  0  0
  124.4500  130.4770   62.0990 C   0  0  0  0  0  0  0  0  0  0  0  0
  123.7090  130.4020   63.2880 O   0  0  0  0  0  0  0  0  0  0  0  0
  130.0880  126.6570   67.4380 N   0  0  0  0  0  0  0  0  0  0  0  0
  130.0920  126.6210   66.0610 N   0  0  0  0  0  0  0  0  0  0  0  0
  130.4970  125.5640   65.3380 C   0  0  0  0  0  0  0  0  0  0  0  0
  130.9280  124.4110   65.8510 N   0  0  0  0  0  0  0  0  0  0  0  0
  130.4650  125.6710   64.0180 N   0  0  0  0  0  0  0  0  0  0  0  0
  1  2  1  0
  2  3  1  0
  3  4  1  0
  4  5  1  0
  5  6  2  0
  6  7  1  0
  7  8  2  0
  8  9  1  0
  9 10  2  0
  9 11  1  0
 11 12  1  0
 12 13  1  0
  2 14  2  0
 14 15  1  0
 15 16  1  0
 16 17  1  0
 16 18  2  0
 10  5  1  0
 13  8  1  0
M  CHG  1  18   1
M  END
>  <Binding energies>  (80) 
[-7.24]

>  <Ligand effiencies>  (80) 
[-0.31478260869565217]

>  <Interactions>  (80) 
["V-A:GLU:543:CD:4906, V-B:GLU:543:CG:9879, V-A:HIS:456:CE1:4068, V-B:GLU:543:CD:9880, V-B:GLU:543:CB:9878, V-B:GLU:543:C:9874, H-B:ARG:545:NH1:9899, V-A:TYR:484:CZ:4345, H-B:GLY:454:N:9022, H-B:GLU:543:OE1:9881, V-B:ARG:545:CZ:9898, H-A:TYR:484:OH:4346, H-A:GLU:543:OE1:4907, H-A:GLU:543:OE2:4908, V-A:GLU:543:CB:4904, H-B:GLU:543:OE2:9882, V-B:HIS:456:CE1:9042, V-B:ARG:545:CG:9894, V-A:GLU:543:CG:4905, V-A:TYR:484:CE1:4343, H-A:HIS:456:NE2:4069, V-B:ARG:545:CD:9895"]

$$$$
RR30_Rahimova_2017
     RDKit          3D

 18 19  0  0  0  0  0  0  0  0999 V2000
  124.6770  130.8300   75.8340 C   0  0  0  0  0  0  0  0  0  0  0  0
  124.8840  129.4350   75.2270 C   0  0  0  0  0  0  0  0  0  0  0  0
  126.1080  129.3730   74.3390 C   0  0  0  0  0  0  0  0  0  0  0  0
  127.2090  130.0770   74.4260 N   0  0  0  0  0  0  0  0  0  0  0  0
  128.0180  129.6530   73.3750 N   0  0  0  0  0  0  0  0  0  0  0  0
  127.3330  128.7370   72.7390 C   0  0  0  0  0  0  0  0  0  0  0  0
  127.8320  127.8120   71.3220 S   0  0  0  0  0  0  0  0  0  0  0  0
  129.6310  127.7560   71.6030 C   0  0  0  0  0  0  0  0  0  0  0  0
  130.0520  126.5310   72.4190 C   0  0  0  0  0  0  0  0  0  0  0  0
  129.2340  125.6290   72.6160 O   0  0  0  0  0  0  0  0  0  0  0  0
  131.3140  126.5490   72.9020 N   0  0  0  0  0  0  0  0  0  0  0  0
  131.9170  125.5610   73.6660 C   0  0  0  0  0  0  0  0  0  0  0  0
  131.3820  124.4590   74.1420 N   0  0  0  0  0  0  0  0  0  0  0  0
  132.2910  123.7010   74.8680 N   0  0  0  0  0  0  0  0  0  0  0  0
  133.4880  124.2380   74.9280 C   0  0  0  0  0  0  0  0  0  0  0  0
  134.6450  123.6040   75.6640 C   0  0  0  0  0  0  0  0  0  0  0  0
  133.5940  125.7530   74.0730 S   0  0  0  0  0  0  0  0  0  0  0  0
  126.1170  128.5050   73.2960 O   0  0  0  0  0  0  0  0  0  0  0  0
  1  2  1  0
  2  3  1  0
  3  4  2  0
  4  5  1  0
  5  6  2  0
  6  7  1  0
  7  8  1  0
  8  9  1  0
  9 10  2  0
  9 11  1  0
 11 12  1  0
 12 13  2  0
 13 14  1  0
 14 15  2  0
 15 16  1  0
 15 17  1  0
  6 18  1  0
 18  3  1  0
 17 12  1  0
M  END
>  <Binding energies>  (81) 
[-7.42]

>  <Ligand effiencies>  (81) 
[-0.39052631578947367]

>  <Interactions>  (81) 
["V-A:HIS:456:CD2:4066, V-B:HIS:456:CG:9038, H-B:LYS:547:NZ:9923, V-B:LYS:471:CE:9192, V-B:VAL:458:CG2:9059, H-A:LYS:547:NZ:4949, V-B:HIS:456:CB:9037, V-A:GLY:544:C:4910, V-B:HIS:456:C:9033, V-B:HIS:456:CD2:9040, V-B:LYS:471:CG:9190, V-B:LYS:471:CD:9191, V-A:LYS:471:CD:4217, V-A:HIS:456:CB:4063, V-A:LYS:547:CE:4948, V-A:HIS:456:CG:4064, V-A:HIS:456:C:4059, V-A:VAL:457:C:4071, V-A:LYS:471:CG:4216, V-A:LYS:471:CB:4215, V-A:HIS:456:CA:4061, V-A:VAL:458:CG2:4085, V-A:LYS:471:CE:4218, H-A:GLY:544:O:4911, V-A:GLY:544:CA:4912"]

$$$$
RR31_Rahimova_2017
     RDKit          3D

 18 19  0  0  0  0  0  0  0  0999 V2000
  123.5840  123.6880   57.2790 C   0  0  0  0  0  0  0  0  0  0  0  0
  124.8560  123.7580   58.1150 C   0  0  0  0  0  0  0  0  0  0  0  0
  126.0950  123.6900   57.4760 C   0  0  0  0  0  0  0  0  0  0  0  0
  127.2760  123.7540   58.2120 C   0  0  0  0  0  0  0  0  0  0  0  0
  127.2550  123.8970   59.6080 C   0  0  0  0  0  0  0  0  0  0  0  0
  128.4300  123.9530   60.3610 N   0  0  0  0  0  0  0  0  0  0  0  0
  128.9230  125.2140   60.9480 C   0  0  0  0  0  0  0  0  0  0  0  0
  130.4080  125.1700   61.3790 C   0  0  0  0  0  0  0  0  0  0  0  0
  130.6500  124.0670   62.3130 N   0  0  0  0  0  0  0  0  0  0  0  0
  132.0440  124.0220   62.7680 C   0  0  0  0  0  0  0  0  0  0  0  0
  132.4080  125.1860   63.7100 C   0  0  0  0  0  0  0  0  0  0  0  0
  131.3020  125.4710   64.7400 C   0  0  0  0  0  0  0  0  0  0  0  0
  130.1330  126.1960   64.0650 N   0  0  0  0  0  0  0  0  0  0  0  0
  130.3180  122.8250   61.6170 C   0  0  0  0  0  0  0  0  0  0  0  0
  128.8290  122.8080   61.2030 C   0  0  0  0  0  0  0  0  0  0  0  0
  126.0030  123.9560   60.2390 C   0  0  0  0  0  0  0  0  0  0  0  0
  124.8090  123.8910   59.5110 C   0  0  0  0  0  0  0  0  0  0  0  0
  123.4810  123.9570   60.2560 C   0  0  0  0  0  0  0  0  0  0  0  0
  1  2  1  0
  2  3  2  0
  3  4  1  0
  4  5  2  0
  5  6  1  0
  6  7  1  0
  7  8  1  0
  8  9  1  0
  9 10  1  0
 10 11  1  0
 11 12  1  0
 12 13  1  0
  9 14  1  0
 14 15  1  0
  5 16  1  0
 16 17  2  0
 17 18  1  0
 17  2  1  0
 15  6  1  0
M  CHG  1  13   1
M  END
>  <Binding energies>  (82) 
[-6.64]

>  <Ligand effiencies>  (82) 
[-0.3161904761904762]

>  <Interactions>  (82) 
["V-A:GLU:543:CD:4906, V-B:GLU:543:CD:9880, V-A:ARG:545:CZ:4924, V-B:ASN:362:CB:8148, V-B:LEU:363:CA:8157, V-B:PRO:540:CB:9857, V-B:ASP:366:CG:8185, V-B:TYR:531:CE2:9765, V-B:LEU:363:CD1:8161, V-B:ASN:362:C:8144, V-B:LEU:363:CB:8159, V-B:PRO:540:N:9856, V-B:PRO:540:CA:9855, V-B:ALA:541:CB:9864, V-B:TYR:539:C:9839, H-B:GLU:543:OE1:9881, H-A:GLU:543:OE2:4908, H-B:GLU:543:OE2:9882, V-B:PRO:540:CD:9859, V-B:ASN:362:CA:8146, V-B:PRO:540:CG:9858"]

$$$$
RR32_Rahimova_2017
     RDKit          3D

 18 20  0  0  0  0  0  0  0  0999 V2000
  128.5680  128.2080   72.4340 C   0  0  0  0  0  0  0  0  0  0  0  0
  128.2170  129.5910   72.9720 C   0  0  0  0  0  0  0  0  0  0  0  0
  129.0040  130.6730   72.5760 C   0  0  0  0  0  0  0  0  0  0  0  0
  128.7110  131.9510   73.0440 C   0  0  0  0  0  0  0  0  0  0  0  0
  129.4950  133.0210   72.6480 N   0  0  0  0  0  0  0  0  0  0  0  0
  129.5890  133.2920   71.2020 C   0  0  0  0  0  0  0  0  0  0  0  0
  130.6250  134.3860   70.8520 C   0  0  0  0  0  0  0  0  0  0  0  0
  130.2940  135.6340   71.5400 N   0  0  0  0  0  0  0  0  0  0  0  0
  131.2530  136.6740   71.1840 C   0  0  0  0  0  0  0  0  0  0  0  0
  130.3330  135.3790   72.9780 C   0  0  0  0  0  0  0  0  0  0  0  0
  129.2960  134.2980   73.3610 C   0  0  0  0  0  0  0  0  0  0  0  0
  127.6770  132.2020   73.8870 N   0  0  0  0  0  0  0  0  0  0  0  0
  126.8920  131.1670   74.2940 C   0  0  0  0  0  0  0  0  0  0  0  0
  125.8220  131.4580   75.1750 C   0  0  0  0  0  0  0  0  0  0  0  0
  124.9880  130.4410   75.6240 C   0  0  0  0  0  0  0  0  0  0  0  0
  125.1930  129.1290   75.2130 C   0  0  0  0  0  0  0  0  0  0  0  0
  126.2350  128.8090   74.3480 C   0  0  0  0  0  0  0  0  0  0  0  0
  127.1160  129.8190   73.8630 C   0  0  0  0  0  0  0  0  0  0  0  0
  1  2  1  0
  2  3  2  0
  3  4  1  0
  4  5  1  0
  5  6  1  0
  6  7  1  0
  7  8  1  0
  8  9  1  0
  8 10  1  0
 10 11  1  0
  4 12  2  0
 12 13  1  0
 13 14  2  0
 14 15  1  0
 15 16  2  0
 16 17  1  0
 17 18  2  0
 18  2  1  0
 11  5  1  0
 18 13  1  0
M  END
>  <Binding energies>  (83) 
[-6.06]

>  <Ligand effiencies>  (83) 
[-0.33666666666666667]

>  <Interactions>  (83) 
["V-B:HIS:456:CG:9038, V-B:LYS:471:CE:9192, V-B:VAL:458:CG2:9059, V-B:HIS:456:CB:9037, V-B:HIS:456:C:9033, V-A:GLU:543:C:4900, V-B:HIS:456:CD2:9040, V-B:LYS:471:CD:9191, V-A:LYS:547:CE:4948, V-B:ASP:473:CG:9212, V-A:VAL:542:CG1:4897, V-B:TYR:484:CD1:9315, V-A:GLY:544:CA:4912, V-B:TYR:484:CB:9313, V-A:GLU:543:CA:4902, V-B:TYR:484:CG:9314, H-B:TYR:484:N:9312, V-A:VAL:542:C:4892, V-B:SER:483:CB:9305"]

$$$$
RR5_Rahimova_2017
     RDKit          3D

 45 50  0  0  0  0  0  0  0  0999 V2000
  128.7290  123.4820   59.6560 O   0  0  0  0  0  0  0  0  0  0  0  0
  128.5940  123.6660   60.8650 C   0  0  0  0  0  0  0  0  0  0  0  0
  127.1960  123.5510   61.5020 C   0  0  0  0  0  0  0  0  0  0  0  0
  126.0490  124.2030   60.6500 C   0  0  2  0  0  0  0  0  0  0  0  0
  126.2850  125.6070   60.2590 N   0  0  0  0  0  0  0  0  0  0  0  0
  127.0350  126.4670   61.0500 C   0  0  0  0  0  0  0  0  0  0  0  0
  127.6150  126.1820   62.1010 O   0  0  0  0  0  0  0  0  0  0  0  0
  127.0180  127.6860   60.4850 O   0  0  0  0  0  0  0  0  0  0  0  0
  125.9820  128.6220   60.7690 C   0  0  0  0  0  0  0  0  0  0  0  0
  126.4790  129.7120   61.7450 C   0  0  0  0  0  0  0  0  0  0  0  0
  127.7240  130.4360   61.2650 C   0  0  0  0  0  0  0  0  0  0  0  0
  128.9820  129.9210   60.9360 C   0  0  0  0  0  0  0  0  0  0  0  0
  129.9890  130.7790   60.4900 C   0  0  0  0  0  0  0  0  0  0  0  0
  129.7430  132.1480   60.3730 C   0  0  0  0  0  0  0  0  0  0  0  0
  128.4890  132.6650   60.7040 C   0  0  0  0  0  0  0  0  0  0  0  0
  127.4840  131.8060   61.1500 C   0  0  0  0  0  0  0  0  0  0  0  0
  126.0980  132.0720   61.5680 C   0  0  0  0  0  0  0  0  0  0  0  0
  125.3760  133.2650   61.6500 C   0  0  0  0  0  0  0  0  0  0  0  0
  124.0580  133.2430   62.1080 C   0  0  0  0  0  0  0  0  0  0  0  0
  123.4640  132.0340   62.4780 C   0  0  0  0  0  0  0  0  0  0  0  0
  124.1880  130.8450   62.3900 C   0  0  0  0  0  0  0  0  0  0  0  0
  125.5070  130.8610   61.9300 C   0  0  0  0  0  0  0  0  0  0  0  0
  124.6880  124.0860   61.3790 C   0  0  0  0  0  0  0  0  0  0  0  0
  124.5530  123.7910   62.5490 O   0  0  0  0  0  0  0  0  0  0  0  0
  123.6760  124.3850   60.5120 O   0  0  0  0  0  0  0  0  0  0  0  0
  129.6030  123.9400   61.7220 N   0  0  0  0  0  0  0  0  0  0  0  0
  131.0740  124.1320   61.5480 C   0  0  0  0  0  0  0  0  0  0  0  0
  131.1320  125.2190   60.4230 C   0  0  0  0  0  0  0  0  0  0  0  0
  131.5200  124.8970   59.1120 C   0  0  0  0  0  0  0  0  0  0  0  0
  131.5660  125.8710   58.1180 C   0  0  0  0  0  0  0  0  0  0  0  0
  131.2350  127.1870   58.4220 C   0  0  0  0  0  0  0  0  0  0  0  0
  130.8450  127.5340   59.7100 C   0  0  0  0  0  0  0  0  0  0  0  0
  130.7890  126.5580   60.7000 C   0  0  0  0  0  0  0  0  0  0  0  0
  131.6410  124.6490   62.9130 C   0  0  0  0  0  0  0  0  0  0  0  0
  130.7990  125.1310   63.9280 C   0  0  0  0  0  0  0  0  0  0  0  0
  131.3270  125.6040   65.1270 C   0  0  0  0  0  0  0  0  0  0  0  0
  132.7040  125.6030   65.3250 C   0  0  0  0  0  0  0  0  0  0  0  0
  133.5590  125.1270   64.3360 C   0  0  0  0  0  0  0  0  0  0  0  0
  133.0290  124.6470   63.1430 C   0  0  0  0  0  0  0  0  0  0  0  0
  131.6420  122.7480   61.0870 C   0  0  0  0  0  0  0  0  0  0  0  0
  130.8090  121.6180   60.9950 C   0  0  0  0  0  0  0  0  0  0  0  0
  131.3090  120.3830   60.5930 C   0  0  0  0  0  0  0  0  0  0  0  0
  132.6550  120.2560   60.2700 C   0  0  0  0  0  0  0  0  0  0  0  0
  133.5000  121.3570   60.3380 C   0  0  0  0  0  0  0  0  0  0  0  0
  132.9960  122.5910   60.7400 C   0  0  0  0  0  0  0  0  0  0  0  0
  1  2  2  0
  2  3  1  0
  4  3  1  1
  4  5  1  0
  5  6  1  0
  6  7  2  0
  6  8  1  0
  8  9  1  0
  9 10  1  0
 10 11  1  0
 11 12  2  0
 12 13  1  0
 13 14  2  0
 14 15  1  0
 15 16  2  0
 16 17  1  0
 17 18  2  0
 18 19  1  0
 19 20  2  0
 20 21  1  0
 21 22  2  0
  4 23  1  0
 23 24  2  0
 23 25  1  0
  2 26  1  0
 26 27  1  0
 27 28  1  0
 28 29  2  0
 29 30  1  0
 30 31  2  0
 31 32  1  0
 32 33  2  0
 27 34  1  0
 34 35  2  0
 35 36  1  0
 36 37  2  0
 37 38  1  0
 38 39  2  0
 27 40  1  0
 40 41  2  0
 41 42  1  0
 42 43  2  0
 43 44  1  0
 44 45  2  0
 22 10  1  0
 33 28  1  0
 39 34  1  0
 45 40  1  0
 16 11  1  0
 22 17  1  0
M  END
>  <Binding energies>  (84) 
[-10.46]

>  <Ligand effiencies>  (84) 
[-0.21791666666666668]

>  <Interactions>  (84) 
["V-A:ASP:366:CG:3211, V-A:HIS:456:CE1:4068, V-A:ASP:366:CB:3210, V-B:TYR:539:CE2:9848, V-A:ARG:545:CD:4921, V-A:GLY:453:CA:4042, V-A:ILE:369:CD1:3237, V-A:ILE:369:CG2:3235, V-A:ARG:545:CG:4920, V-B:GLU:543:CD:9880, V-A:ARG:545:CZ:4924, V-B:ASN:362:CB:8148, V-B:PRO:540:CB:9857, V-B:ASP:366:CG:8185, V-B:TYR:539:CD2:9846, V-B:PRO:540:CA:9855, H-B:ALA:541:N:9863, V-B:ALA:541:CB:9864, H-B:ARG:545:NH2:9900, V-B:GLY:454:CA:9021, H-B:ASP:366:OD1:8186, V-A:LEU:475:CD2:4257, V-B:LEU:475:CD2:9231, V-A:ALA:541:CB:4890, H-B:GLU:543:OE1:9881, V-B:ARG:545:CZ:9898, V-B:ILE:369:CD1:8211, V-A:PRO:540:CA:4881, V-A:PRO:540:C:4879, H-B:ASP:366:OD2:8187, V-A:TRP:381:CZ2:3368, V-A:TRP:381:CH2:3370, H-B:ASN:362:O:8145, V-B:GLY:453:C:9014, V-A:GLY:453:C:4040, V-B:ALA:541:CA:9862, H-B:ASN:362:ND2:8151, H-B:LEU:363:N:8158"]

$$$$
