1a_Grossjean_2025
     RDKit          3D

 26 27  0  0  0  0  0  0  0  0999 V2000
  124.0670  123.9520   58.5150 C   0  0  0  0  0  0  0  0  0  0  0  0
  124.5690  123.8790   57.0710 C   0  0  0  0  0  0  0  0  0  0  0  0
  125.9880  123.9660   57.0570 O   0  0  0  0  0  0  0  0  0  0  0  0
  126.7580  122.8470   57.0130 C   0  0  0  0  0  0  0  0  0  0  0  0
  126.5700  121.9240   56.2160 O   0  0  0  0  0  0  0  0  0  0  0  0
  127.8520  122.8390   58.0410 C   0  0  0  0  0  0  0  0  0  0  0  0
  129.1860  122.7700   57.6200 C   0  0  0  0  0  0  0  0  0  0  0  0
  130.2220  122.7560   58.5490 C   0  0  0  0  0  0  0  0  0  0  0  0
  129.9490  122.8090   59.9160 C   0  0  0  0  0  0  0  0  0  0  0  0
  131.0720  122.7860   60.7650 N   0  0  0  0  0  0  0  0  0  0  0  0
  132.1850  122.0240   60.7120 C   0  0  0  0  0  0  0  0  0  0  0  0
  132.4260  121.1680   59.8600 O   0  0  0  0  0  0  0  0  0  0  0  0
  133.2070  122.2780   61.8210 C   0  0  0  0  0  0  0  0  0  0  0  0
  133.7440  124.0140   61.8750 S   0  0  0  0  0  0  0  0  0  0  0  0
  133.2900  124.6640   63.4680 C   0  0  0  0  0  0  0  0  0  0  0  0
  134.2930  124.6250   64.3810 N   0  0  0  0  0  0  0  0  0  0  0  0
  134.0550  125.0910   65.6290 C   0  0  0  0  0  0  0  0  0  0  0  0
  135.2180  125.0030   66.5990 C   0  0  0  0  0  0  0  0  0  0  0  0
  132.8240  125.6190   66.0130 C   0  0  0  0  0  0  0  0  0  0  0  0
  131.7900  125.6840   65.0730 C   0  0  0  0  0  0  0  0  0  0  0  0
  130.4540  126.2810   65.5120 C   0  0  0  0  0  0  0  0  0  0  0  0
  132.0160  125.2060   63.7620 C   0  0  0  0  0  0  0  0  0  0  0  0
  130.9640  125.3080   62.7470 C   0  0  0  0  0  0  0  0  0  0  0  0
  130.1310  125.3900   61.9480 N   0  0  0  0  0  0  0  0  0  0  0  0
  128.6160  122.8860   60.3470 C   0  0  0  0  0  0  0  0  0  0  0  0
  127.5800  122.9000   59.4170 C   0  0  0  0  0  0  0  0  0  0  0  0
  1  2  1  0
  2  3  1  0
  3  4  1  0
  4  5  2  0
  4  6  1  0
  6  7  2  0
  7  8  1  0
  8  9  2  0
  9 10  1  0
 10 11  1  0
 11 12  2  0
 11 13  1  0
 13 14  1  0
 14 15  1  0
 15 16  2  0
 16 17  1  0
 17 18  1  0
 17 19  2  0
 19 20  1  0
 20 21  1  0
 20 22  2  0
 22 23  1  0
 23 24  3  0
  9 25  1  0
 25 26  2  0
 26  6  1  0
 22 15  1  0
M  END
>  <Binding energies>  (1) 
[-7.49]

>  <Ligand effiencies>  (1) 
[-0.27740740740740744]

>  <Interactions>  (1) 
["V-B:TYR:539:CE2:9844, V-B:MET:535:CE:9803, V-B:PRO:540:CA:9851, V-B:TYR:539:CD2:9842, V-B:PRO:540:N:9852, V-B:PRO:540:CB:9853, V-B:TYR:539:C:9835, V-B:TYR:539:CZ:9845, H-A:TYR:484:OH:4343, H-A:GLY:454:N:4045, V-A:ARG:545:CZ:4921, V-A:GLU:543:CD:4903, V-A:ARG:545:CD:4918, V-A:GLY:454:CA:4044, V-A:ARG:545:CG:4917, V-A:GLY:453:CA:4039, V-A:GLY:453:C:4037, V-A:HIS:456:CD2:4063, V-A:ILE:369:CD1:3234, V-A:LEU:475:CD2:4254, V-B:LEU:363:CA:8152, V-B:LEU:363:CD1:8156, H-B:TYR:539:N:9838, V-B:ASP:366:CG:8180, V-B:LEU:363:CB:8154, V-B:TYR:531:CE2:9761, V-A:ILE:455:C:4047"]

$$$$
1aa_Ghoteimi_2023
     RDKit          3D

 40 43  0  0  0  0  0  0  0  0999 V2000
  132.1260  131.7690   54.4830 C   0  0  0  0  0  0  0  0  0  0  0  0
  132.2730  132.8730   55.5340 C   0  0  0  0  0  0  0  0  0  0  0  0
  131.0320  133.5530   55.6840 O   0  0  0  0  0  0  0  0  0  0  0  0
  129.8710  132.8660   55.8310 C   0  0  0  0  0  0  0  0  0  0  0  0
  129.0970  132.6300   54.8970 O   0  0  0  0  0  0  0  0  0  0  0  0
  129.6180  132.4210   57.2420 C   0  0  0  0  0  0  0  0  0  0  0  0
  130.2120  131.2670   57.7750 C   0  0  0  0  0  0  0  0  0  0  0  0
  129.9590  130.8790   59.0890 C   0  0  0  0  0  0  0  0  0  0  0  0
  129.1060  131.6440   59.8970 C   0  0  0  0  0  0  0  0  0  0  0  0
  128.7770  131.3510   61.2330 N   0  0  0  0  0  0  0  0  0  0  0  0
  129.4070  131.6820   62.3840 C   0  0  0  0  0  0  0  0  0  0  0  0
  130.4400  132.3470   62.4540 O   0  0  0  0  0  0  0  0  0  0  0  0
  128.7780  131.1900   63.6970 C   0  0  0  0  0  0  0  0  0  0  0  0
  127.7870  130.1880   63.4350 O   0  0  0  0  0  0  0  0  0  0  0  0
  128.1480  128.9770   62.8610 C   0  0  0  0  0  0  0  0  0  0  0  0
  129.2280  128.3230   63.3720 N   0  0  0  0  0  0  0  0  0  0  0  0
  129.6210  127.1420   62.8280 C   0  0  0  0  0  0  0  0  0  0  0  0
  130.8190  126.4830   63.4490 C   0  0  0  0  0  0  0  0  0  0  0  0
  131.9280  126.1200   62.6710 C   0  0  0  0  0  0  0  0  0  0  0  0
  133.0390  125.5070   63.2440 C   0  0  0  0  0  0  0  0  0  0  0  0
  133.0770  125.2400   64.6110 C   0  0  0  0  0  0  0  0  0  0  0  0
  134.2190  124.6290   65.0910 O   0  0  0  0  0  0  0  0  0  0  0  0
  134.7040  124.9800   66.3830 C   0  0  0  0  0  0  0  0  0  0  0  0
  131.9790  125.6010   65.4020 C   0  0  0  0  0  0  0  0  0  0  0  0
  130.8700  126.2140   64.8270 C   0  0  0  0  0  0  0  0  0  0  0  0
  128.9150  126.5780   61.7580 C   0  0  0  0  0  0  0  0  0  0  0  0
  127.7940  127.2250   61.2210 C   0  0  0  0  0  0  0  0  0  0  0  0
  127.0770  126.5680   60.0880 C   0  0  0  0  0  0  0  0  0  0  0  0
  126.4250  125.3460   60.2830 C   0  0  0  0  0  0  0  0  0  0  0  0
  125.7470  124.7310   59.2340 C   0  0  0  0  0  0  0  0  0  0  0  0
  125.7010  125.3260   57.9730 C   0  0  0  0  0  0  0  0  0  0  0  0
  125.0060  124.6440   56.9940 O   0  0  0  0  0  0  0  0  0  0  0  0
  124.9840  123.2210   57.0200 C   0  0  0  0  0  0  0  0  0  0  0  0
  126.3470  126.5550   57.7760 C   0  0  0  0  0  0  0  0  0  0  0  0
  127.0260  127.1680   58.8260 C   0  0  0  0  0  0  0  0  0  0  0  0
  127.4060  128.4640   61.7840 C   0  0  0  0  0  0  0  0  0  0  0  0
  126.2760  129.2340   61.2620 C   0  0  0  0  0  0  0  0  0  0  0  0
  125.3830  129.8440   60.8510 N   0  0  0  0  0  0  0  0  0  0  0  0
  128.5110  132.7920   59.3690 C   0  0  0  0  0  0  0  0  0  0  0  0
  128.7640  133.1780   58.0560 C   0  0  0  0  0  0  0  0  0  0  0  0
  1  2  1  0
  2  3  1  0
  3  4  1  0
  4  5  2  0
  4  6  1  0
  6  7  2  0
  7  8  1  0
  8  9  2  0
  9 10  1  0
 10 11  1  0
 11 12  2  0
 11 13  1  0
 13 14  1  0
 14 15  1  0
 15 16  2  0
 16 17  1  0
 17 18  1  0
 18 19  2  0
 19 20  1  0
 20 21  2  0
 21 22  1  0
 22 23  1  0
 21 24  1  0
 24 25  2  0
 17 26  2  0
 26 27  1  0
 27 28  1  0
 28 29  2  0
 29 30  1  0
 30 31  2  0
 31 32  1  0
 32 33  1  0
 31 34  1  0
 34 35  2  0
 27 36  2  0
 36 37  1  0
 37 38  3  0
  9 39  1  0
 39 40  2  0
 40  6  1  0
 36 15  1  0
 25 18  1  0
 35 28  1  0
M  END
>  <Binding energies>  (2) 
[-8.77]

>  <Ligand effiencies>  (2) 
[-0.21390243902439024]

>  <Interactions>  (2) 
["H-B:TYR:531:OH:9763, V-B:MET:535:CE:9803, V-B:PRO:540:CD:9855, V-B:PRO:540:CA:9851, V-B:PRO:540:N:9852, V-B:PRO:540:CB:9853, V-A:ASP:366:CG:3208, H-A:TYR:484:OH:4343, H-A:GLY:454:N:4045, V-A:ARG:545:CZ:4921, V-A:GLU:543:CD:4903, V-A:TYR:539:CZ:4872, V-A:LEU:363:CD1:3184, V-A:PRO:540:N:4879, V-A:TYR:539:CE1:4870, V-A:TYR:539:C:4862, V-A:TYR:539:CD1:4868, V-A:PRO:540:CA:4878, V-A:TYR:539:CG:4867, H-A:ALA:541:N:4886, V-A:PRO:540:CD:4882, V-A:ILE:538:CA:4855, V-A:TYR:539:CE2:4871, V-A:TYR:539:CD2:4869, V-A:ARG:545:CD:4918, V-A:ARG:545:CG:4917, V-A:GLY:453:CA:4039, V-A:GLY:453:C:4037, V-A:HIS:456:CD2:4063, H-A:TYR:539:N:4865, V-A:ILE:538:CG2:4858, V-B:LEU:363:CD1:8156, V-A:GLU:543:CG:4902, V-A:ILE:538:CD1:4860"]

$$$$
1b_Grossjean_2025
     RDKit          3D

 25 26  0  0  0  0  0  0  0  0999 V2000
  130.0900  127.2470   72.0960 C   0  0  0  0  0  0  0  0  0  0  0  0
  128.9660  126.4910   71.6670 O   0  0  0  0  0  0  0  0  0  0  0  0
  128.2010  126.9070   70.6260 C   0  0  0  0  0  0  0  0  0  0  0  0
  127.0500  127.3350   70.7550 O   0  0  0  0  0  0  0  0  0  0  0  0
  128.8970  126.8020   69.2990 C   0  0  0  0  0  0  0  0  0  0  0  0
  129.4900  125.6070   68.8640 C   0  0  0  0  0  0  0  0  0  0  0  0
  130.1280  125.5430   67.6300 C   0  0  0  0  0  0  0  0  0  0  0  0
  130.1880  126.6660   66.8040 C   0  0  0  0  0  0  0  0  0  0  0  0
  130.8600  126.4870   65.5800 N   0  0  0  0  0  0  0  0  0  0  0  0
  131.9410  125.7330   65.2820 C   0  0  0  0  0  0  0  0  0  0  0  0
  132.5600  125.0250   66.0760 O   0  0  0  0  0  0  0  0  0  0  0  0
  132.3920  125.7840   63.8220 C   0  0  0  0  0  0  0  0  0  0  0  0
  133.6410  124.5170   63.4450 S   0  0  0  0  0  0  0  0  0  0  0  0
  132.9990  123.5160   62.1200 C   0  0  0  0  0  0  0  0  0  0  0  0
  133.6300  123.7080   60.9350 N   0  0  0  0  0  0  0  0  0  0  0  0
  133.2220  122.9970   59.8590 C   0  0  0  0  0  0  0  0  0  0  0  0
  133.9830  123.2520   58.5710 C   0  0  0  0  0  0  0  0  0  0  0  0
  132.1730  122.0820   59.9160 C   0  0  0  0  0  0  0  0  0  0  0  0
  131.5010  121.8930   61.1280 C   0  0  0  0  0  0  0  0  0  0  0  0
  130.3430  120.8970   61.1630 C   0  0  0  0  0  0  0  0  0  0  0  0
  131.9090  122.6260   62.2660 C   0  0  0  0  0  0  0  0  0  0  0  0
  131.1930  122.4770   63.5350 C   0  0  0  0  0  0  0  0  0  0  0  0
  130.6250  122.3570   64.5360 N   0  0  0  0  0  0  0  0  0  0  0  0
  129.5980  127.8650   67.2320 C   0  0  0  0  0  0  0  0  0  0  0  0
  128.9590  127.9270   68.4660 C   0  0  0  0  0  0  0  0  0  0  0  0
  1  2  1  0
  2  3  1  0
  3  4  2  0
  3  5  1  0
  5  6  2  0
  6  7  1  0
  7  8  2  0
  8  9  1  0
  9 10  1  0
 10 11  2  0
 10 12  1  0
 12 13  1  0
 13 14  1  0
 14 15  2  0
 15 16  1  0
 16 17  1  0
 16 18  2  0
 18 19  1  0
 19 20  1  0
 19 21  2  0
 21 22  1  0
 22 23  3  0
  8 24  1  0
 24 25  2  0
 25  5  1  0
 21 14  1  0
M  END
>  <Binding energies>  (3) 
[-7.39]

>  <Ligand effiencies>  (3) 
[-0.28423076923076923]

>  <Interactions>  (3) 
["V-B:ALA:541:CB:9860, V-B:TYR:539:CE2:9844, V-B:GLU:543:C:9870, V-A:HIS:456:CE1:4064, H-A:GLU:543:OE2:4905, H-A:TYR:484:OH:4343, H-A:GLY:454:N:4045, H-A:GLU:543:OE1:4904, V-A:ARG:545:CZ:4921, H-A:HIS:456:NE2:4065, V-B:GLU:543:CB:9874, V-A:GLU:543:CD:4903, V-A:ASP:366:CB:3207, V-A:GLU:543:CB:4901, V-A:ILE:369:CG2:3232, V-A:ILE:369:CD1:3234, V-A:LEU:475:CD2:4254, H-B:LYS:547:NZ:9919, V-A:ASP:366:C:3203, V-A:ILE:369:CB:3231, V-A:ASP:366:CA:3205, V-A:ILE:369:CG1:3233"]

$$$$
1c_Grossjean_2025
     RDKit          3D

 23 24  0  0  0  0  0  0  0  0999 V2000
  129.4530  126.7420   54.4420 C   0  0  0  0  0  0  0  0  0  0  0  0
  129.8600  125.3800   54.3780 O   0  0  0  0  0  0  0  0  0  0  0  0
  129.7340  124.5860   55.5030 C   0  0  0  0  0  0  0  0  0  0  0  0
  130.5970  124.8660   56.5620 C   0  0  0  0  0  0  0  0  0  0  0  0
  130.5460  124.1230   57.7370 C   0  0  0  0  0  0  0  0  0  0  0  0
  129.6140  123.0830   57.8690 C   0  0  0  0  0  0  0  0  0  0  0  0
  129.4840  122.2640   59.0070 N   0  0  0  0  0  0  0  0  0  0  0  0
  128.5820  122.3260   60.0100 C   0  0  0  0  0  0  0  0  0  0  0  0
  127.6630  123.1410   60.0950 O   0  0  0  0  0  0  0  0  0  0  0  0
  128.7480  121.2730   61.1080 C   0  0  0  0  0  0  0  0  0  0  0  0
  130.3840  120.4830   61.0470 S   0  0  0  0  0  0  0  0  0  0  0  0
  131.6190  121.7580   60.8960 C   0  0  0  0  0  0  0  0  0  0  0  0
  132.1880  121.8150   59.6650 N   0  0  0  0  0  0  0  0  0  0  0  0
  133.1420  122.7460   59.4320 C   0  0  0  0  0  0  0  0  0  0  0  0
  133.7240  122.7560   58.0300 C   0  0  0  0  0  0  0  0  0  0  0  0
  133.5730  123.6420   60.4070 C   0  0  0  0  0  0  0  0  0  0  0  0
  133.0110  123.5760   61.6860 C   0  0  0  0  0  0  0  0  0  0  0  0
  133.5120  124.5580   62.7440 C   0  0  0  0  0  0  0  0  0  0  0  0
  132.0140  122.6100   61.9540 C   0  0  0  0  0  0  0  0  0  0  0  0
  131.4530  122.4900   63.3030 C   0  0  0  0  0  0  0  0  0  0  0  0
  131.0100  122.3960   64.3670 N   0  0  0  0  0  0  0  0  0  0  0  0
  128.7560  122.7920   56.8070 C   0  0  0  0  0  0  0  0  0  0  0  0
  128.8110  123.5380   55.6330 C   0  0  0  0  0  0  0  0  0  0  0  0
  1  2  1  0
  2  3  1  0
  3  4  2  0
  4  5  1  0
  5  6  2  0
  6  7  1  0
  7  8  1  0
  8  9  2  0
  8 10  1  0
 10 11  1  0
 11 12  1  0
 12 13  2  0
 13 14  1  0
 14 15  1  0
 14 16  2  0
 16 17  1  0
 17 18  1  0
 17 19  2  0
 19 20  1  0
 20 21  3  0
  6 22  1  0
 22 23  2  0
 23  3  1  0
 19 12  1  0
M  END
>  <Binding energies>  (4) 
[-6.93]

>  <Ligand effiencies>  (4) 
[-0.28875]

>  <Interactions>  (4) 
["V-B:ALA:541:CB:9860, V-B:TYR:539:CE2:9844, H-B:TYR:539:O:9836, V-B:MET:535:CE:9803, V-B:PRO:540:CA:9851, V-B:TYR:539:CD2:9842, V-B:ALA:541:CA:9858, V-B:PRO:540:C:9849, V-B:TYR:539:CE1:9843, V-B:TYR:539:C:9835, V-B:TYR:539:CZ:9845, V-A:ASP:366:CG:3208, H-A:TYR:484:OH:4343, V-A:ASP:366:CB:3207, V-A:ILE:369:CG2:3232, V-A:ILE:369:CD1:3234, V-A:LEU:475:CD2:4254, H-A:LYS:534:NZ:4818, V-A:TYR:531:CE1:4787, V-A:ILE:369:CB:3231, V-B:TYR:539:CD1:9841, V-B:TYR:539:CG:9840"]

$$$$
1d_Grossjean_2025
     RDKit          3D

 21 22  0  0  0  0  0  0  0  0999 V2000
  129.4600  122.3440   61.0580 C   0  0  0  0  0  0  0  0  0  0  0  0
  128.1420  122.7650   60.4370 C   0  0  0  0  0  0  0  0  0  0  0  0
  127.0490  123.1280   61.2210 C   0  0  0  0  0  0  0  0  0  0  0  0
  125.8610  123.5170   60.5940 C   0  0  0  0  0  0  0  0  0  0  0  0
  124.6820  123.9270   61.4750 C   0  0  0  0  0  0  0  0  0  0  0  0
  125.7950  123.5240   59.1820 C   0  0  0  0  0  0  0  0  0  0  0  0
  124.5780  123.9730   58.5030 C   0  0  0  0  0  0  0  0  0  0  0  0
  123.6140  124.3290   57.9700 N   0  0  0  0  0  0  0  0  0  0  0  0
  126.9450  123.1160   58.4660 C   0  0  0  0  0  0  0  0  0  0  0  0
  127.0380  123.0620   56.6900 S   0  0  0  0  0  0  0  0  0  0  0  0
  127.8810  124.5780   56.1450 C   0  0  0  0  0  0  0  0  0  0  0  0
  129.4020  124.4140   56.1160 C   0  0  0  0  0  0  0  0  0  0  0  0
  130.0080  124.6210   55.0650 O   0  0  0  0  0  0  0  0  0  0  0  0
  129.9680  124.0660   57.2910 N   0  0  0  0  0  0  0  0  0  0  0  0
  131.3180  123.8200   57.6040 C   0  0  0  0  0  0  0  0  0  0  0  0
  132.2540  124.3630   56.7200 C   0  0  0  0  0  0  0  0  0  0  0  0
  133.6160  124.1830   56.9400 C   0  0  0  0  0  0  0  0  0  0  0  0
  134.0460  123.4640   58.0520 C   0  0  0  0  0  0  0  0  0  0  0  0
  133.1250  122.9250   58.9470 C   0  0  0  0  0  0  0  0  0  0  0  0
  131.7610  123.1020   58.7280 C   0  0  0  0  0  0  0  0  0  0  0  0
  128.1000  122.7600   59.0840 N   0  0  0  0  0  0  0  0  0  0  0  0
  1  2  1  0
  2  3  2  0
  3  4  1  0
  4  5  1  0
  4  6  2  0
  6  7  1  0
  7  8  3  0
  6  9  1  0
  9 10  1  0
 10 11  1  0
 11 12  1  0
 12 13  2  0
 12 14  1  0
 14 15  1  0
 15 16  2  0
 16 17  1  0
 17 18  2  0
 18 19  1  0
 19 20  2  0
  9 21  2  0
 21  2  1  0
 20 15  1  0
M  END
>  <Binding energies>  (5) 
[-6.71]

>  <Ligand effiencies>  (5) 
[-0.305]

>  <Interactions>  (5) 
["V-B:ALA:541:CB:9860, V-B:TYR:539:CE2:9844, V-B:MET:535:CE:9803, V-B:PRO:540:CA:9851, V-B:PRO:540:N:9852, V-B:PRO:540:CB:9853, V-B:PRO:540:C:9849, V-B:TYR:539:C:9835, V-B:TYR:539:CZ:9845, V-B:GLU:543:CD:9876, V-B:ASN:362:CB:8143, V-A:ASP:366:CB:3207, V-A:ILE:369:CG2:3232, V-A:ILE:369:CD1:3234, H-A:LYS:534:NZ:4818, V-A:TYR:531:CE1:4787, V-A:TYR:531:CZ:4789, V-A:ASN:370:CB:3240, V-A:ASP:366:C:3203, V-A:ILE:369:CB:3231, H-B:TYR:539:OH:9846, V-A:ASP:366:CA:3205"]

$$$$
1e_Grossjean_2025
     RDKit          3D

 22 23  0  0  0  0  0  0  0  0999 V2000
  134.9800  124.9930   66.5130 C   0  0  0  0  0  0  0  0  0  0  0  0
  133.8080  125.2130   65.5760 C   0  0  0  0  0  0  0  0  0  0  0  0
  132.5780  125.6850   66.0430 C   0  0  0  0  0  0  0  0  0  0  0  0
  131.5440  125.8620   65.1230 C   0  0  0  0  0  0  0  0  0  0  0  0
  131.7590  125.5640   63.7760 C   0  0  0  0  0  0  0  0  0  0  0  0
  133.0170  125.1000   63.3750 C   0  0  0  0  0  0  0  0  0  0  0  0
  133.1700  124.8070   62.0080 N   0  0  0  0  0  0  0  0  0  0  0  0
  133.7520  123.7280   61.4400 C   0  0  0  0  0  0  0  0  0  0  0  0
  134.2700  122.7960   62.0580 O   0  0  0  0  0  0  0  0  0  0  0  0
  133.7730  123.7120   59.9100 C   0  0  0  0  0  0  0  0  0  0  0  0
  133.1910  122.1250   59.2380 S   0  0  0  0  0  0  0  0  0  0  0  0
  131.6290  121.7240   59.9950 C   0  0  0  0  0  0  0  0  0  0  0  0
  131.4050  120.3880   60.0940 N   0  0  0  0  0  0  0  0  0  0  0  0
  130.2480  119.9600   60.6510 C   0  0  0  0  0  0  0  0  0  0  0  0
  130.0720  118.4560   60.7340 C   0  0  0  0  0  0  0  0  0  0  0  0
  129.2700  120.8350   61.1170 C   0  0  0  0  0  0  0  0  0  0  0  0
  129.4780  122.2130   60.9970 C   0  0  0  0  0  0  0  0  0  0  0  0
  128.3820  123.1520   61.4990 C   0  0  0  0  0  0  0  0  0  0  0  0
  130.6780  122.6840   60.4160 C   0  0  0  0  0  0  0  0  0  0  0  0
  130.8860  124.1220   60.2310 C   0  0  0  0  0  0  0  0  0  0  0  0
  131.0490  125.2580   60.0850 N   0  0  0  0  0  0  0  0  0  0  0  0
  134.0330  124.9210   64.2700 N   0  0  0  0  0  0  0  0  0  0  0  0
  1  2  1  0
  2  3  2  0
  3  4  1  0
  4  5  2  0
  5  6  1  0
  6  7  1  0
  7  8  1  0
  8  9  2  0
  8 10  1  0
 10 11  1  0
 11 12  1  0
 12 13  2  0
 13 14  1  0
 14 15  1  0
 14 16  2  0
 16 17  1  0
 17 18  1  0
 17 19  2  0
 19 20  1  0
 20 21  3  0
  6 22  2  0
 22  2  1  0
 19 12  1  0
M  END
>  <Binding energies>  (6) 
[-6.94]

>  <Ligand effiencies>  (6) 
[-0.3017391304347826]

>  <Interactions>  (6) 
["V-B:ALA:541:CB:9860, V-B:TYR:539:CE2:9844, V-A:TRP:381:CH2:3367, V-B:TYR:539:CD2:9842, V-B:ALA:541:CA:9858, V-B:PRO:540:C:9849, V-A:ASP:366:CG:3208, H-A:TYR:484:OH:4343, H-A:GLY:454:N:4045, V-B:GLU:543:CD:9876, V-A:ARG:545:CZ:4921, H-A:ARG:545:NH2:4923, V-A:ASP:366:CB:3207, H-A:ASP:366:OD2:3210, V-A:ARG:545:CD:4918, V-A:GLY:454:CA:4044, V-A:ARG:545:CG:4917, V-A:GLY:453:CA:4039, V-A:GLY:453:C:4037, V-A:HIS:456:CD2:4063, V-A:ILE:369:CD1:3234, V-A:TRP:381:CZ3:3366, V-A:LEU:475:CD2:4254, V-A:TRP:381:CZ2:3365, V-A:PRO:482:CG:4322, V-A:PRO:482:CB:4321, V-A:ASP:366:CA:3205, H-A:ARG:545:NH1:4922, H-A:ASP:366:OD1:3209, V-A:TRP:381:CE2:3362"]

$$$$
1f_Grossjean_2025
     RDKit          3D

 21 22  0  0  0  0  0  0  0  0999 V2000
  128.3680  132.8770   57.7240 C   0  0  0  0  0  0  0  0  0  0  0  0
  128.3860  132.7750   59.2380 C   0  0  0  0  0  0  0  0  0  0  0  0
  127.2290  132.9460   59.9940 C   0  0  0  0  0  0  0  0  0  0  0  0
  127.3090  132.8520   61.3880 C   0  0  0  0  0  0  0  0  0  0  0  0
  126.0310  133.0620   62.1970 C   0  0  0  0  0  0  0  0  0  0  0  0
  128.5580  132.5780   61.9920 C   0  0  0  0  0  0  0  0  0  0  0  0
  128.6720  132.5320   63.4520 C   0  0  0  0  0  0  0  0  0  0  0  0
  128.7610  132.4960   64.6050 N   0  0  0  0  0  0  0  0  0  0  0  0
  129.6750  132.3910   61.1440 C   0  0  0  0  0  0  0  0  0  0  0  0
  131.3230  132.0400   61.7220 S   0  0  0  0  0  0  0  0  0  0  0  0
  131.9840  130.6360   60.7610 C   0  0  0  0  0  0  0  0  0  0  0  0
  132.4700  130.9920   59.3480 C   0  0  0  0  0  0  0  0  0  0  0  0
  133.6750  131.0820   59.1060 O   0  0  0  0  0  0  0  0  0  0  0  0
  131.4830  131.2100   58.4530 N   0  0  0  0  0  0  0  0  0  0  0  0
  131.5650  131.5440   57.0880 C   0  0  0  0  0  0  0  0  0  0  0  0
  131.8860  130.6550   56.0450 C   0  0  0  0  0  0  0  0  0  0  0  0
  131.9290  131.1220   54.7280 C   0  0  0  0  0  0  0  0  0  0  0  0
  131.6470  132.4670   54.4860 C   0  0  0  0  0  0  0  0  0  0  0  0
  131.3300  133.3420   55.4720 N   0  0  0  0  0  0  0  0  0  0  0  0
  131.2930  132.8740   56.7470 C   0  0  0  0  0  0  0  0  0  0  0  0
  129.5900  132.5080   59.7950 N   0  0  0  0  0  0  0  0  0  0  0  0
  1  2  1  0
  2  3  2  0
  3  4  1  0
  4  5  1  0
  4  6  2  0
  6  7  1  0
  7  8  3  0
  6  9  1  0
  9 10  1  0
 10 11  1  0
 11 12  1  0
 12 13  2  0
 12 14  1  0
 14 15  1  0
 15 16  2  0
 16 17  1  0
 17 18  2  0
 18 19  1  0
 19 20  2  0
  9 21  2  0
 21  2  1  0
 20 15  1  0
M  END
>  <Binding energies>  (7) 
[-6.91]

>  <Ligand effiencies>  (7) 
[-0.3140909090909091]

>  <Interactions>  (7) 
["V-A:TYR:539:CZ:4872, V-A:LEU:363:CD1:3184, V-A:PRO:540:C:4876, V-A:PRO:540:N:4879, V-A:TYR:539:CE1:4870, V-A:TYR:539:C:4862, V-A:TYR:539:CD1:4868, V-A:PRO:540:CG:4881, V-A:PRO:540:CA:4878, V-A:TYR:539:CG:4867, H-A:ALA:541:N:4886, V-A:PRO:540:CD:4882, V-A:ILE:538:CA:4855, V-A:TYR:531:CE2:4788, V-A:PRO:540:CB:4880, V-A:TYR:539:CE2:4871, V-A:TYR:539:CD2:4869, H-A:TYR:539:N:4865, V-A:ILE:538:CG2:4858, V-A:TYR:531:CZ:4789, H-B:TYR:484:OH:9315, V-A:GLU:543:CG:4902, V-A:ILE:538:CD1:4860, V-A:ALA:541:CB:4887, V-B:LEU:475:CD2:9226, H-A:LEU:363:N:3181"]

$$$$
1g_Grossjean_2025
     RDKit          3D

 22 23  0  0  0  0  0  0  0  0999 V2000
  129.7680  121.6970   60.9550 C   0  0  0  0  0  0  0  0  0  0  0  0
  128.7080  122.3810   60.1120 C   0  0  0  0  0  0  0  0  0  0  0  0
  127.5830  122.9680   60.6880 C   0  0  0  0  0  0  0  0  0  0  0  0
  126.6310  123.5700   59.8580 C   0  0  0  0  0  0  0  0  0  0  0  0
  125.3980  124.1940   60.5120 C   0  0  0  0  0  0  0  0  0  0  0  0
  126.8370  123.5770   58.4600 C   0  0  0  0  0  0  0  0  0  0  0  0
  125.8290  124.1550   57.5690 C   0  0  0  0  0  0  0  0  0  0  0  0
  125.0300  124.6120   56.8670 N   0  0  0  0  0  0  0  0  0  0  0  0
  128.0200  122.9800   57.9650 C   0  0  0  0  0  0  0  0  0  0  0  0
  128.4420  122.9080   56.2380 S   0  0  0  0  0  0  0  0  0  0  0  0
  129.1010  124.5380   55.7750 C   0  0  0  0  0  0  0  0  0  0  0  0
  130.3440  124.9050   56.5870 C   0  0  0  0  0  0  0  0  0  0  0  0
  130.2740  125.7610   57.4700 O   0  0  0  0  0  0  0  0  0  0  0  0
  131.4760  124.2520   56.2710 N   0  0  0  0  0  0  0  0  0  0  0  0
  132.7610  124.4020   56.9530 C   0  0  0  0  0  0  0  0  0  0  0  0
  132.8180  123.7570   58.3340 C   0  0  0  0  0  0  0  0  0  0  0  0
  132.4820  124.5030   59.4680 C   0  0  0  0  0  0  0  0  0  0  0  0
  132.5340  123.9140   60.7290 C   0  0  0  0  0  0  0  0  0  0  0  0
  132.9160  122.5790   60.8510 C   0  0  0  0  0  0  0  0  0  0  0  0
  133.2470  121.8290   59.7250 C   0  0  0  0  0  0  0  0  0  0  0  0
  133.1980  122.4180   58.4640 C   0  0  0  0  0  0  0  0  0  0  0  0
  128.9270  122.3780   58.7760 N   0  0  0  0  0  0  0  0  0  0  0  0
  1  2  1  0
  2  3  2  0
  3  4  1  0
  4  5  1  0
  4  6  2  0
  6  7  1  0
  7  8  3  0
  6  9  1  0
  9 10  1  0
 10 11  1  0
 11 12  1  0
 12 13  2  0
 12 14  1  0
 14 15  1  0
 15 16  1  0
 16 17  2  0
 17 18  1  0
 18 19  2  0
 19 20  1  0
 20 21  2  0
  9 22  2  0
 22  2  1  0
 21 16  1  0
M  END
>  <Binding energies>  (8) 
[-6.79]

>  <Ligand effiencies>  (8) 
[-0.2952173913043478]

>  <Interactions>  (8) 
["H-B:TYR:531:OH:9763, V-B:ALA:541:CB:9860, V-B:TYR:539:CE2:9844, V-B:MET:535:CE:9803, V-B:PRO:540:CA:9851, V-B:PRO:540:CB:9853, V-B:PRO:540:C:9849, V-B:TYR:539:C:9835, V-B:TYR:539:CZ:9845, V-A:ASP:366:CG:3208, V-A:ASP:366:CB:3207, H-A:TYR:531:OH:4790, V-A:ILE:369:CG2:3232, V-A:ILE:369:CD1:3234, V-A:TYR:531:CE1:4787, V-A:TYR:531:CZ:4789, V-A:ILE:369:CB:3231, H-B:TYR:539:OH:9846"]

$$$$
1h_Grossjean_2025
     RDKit          3D

 28 29  0  0  0  0  0  0  0  0999 V2000
  132.5320  131.2610   54.1550 C   0  0  0  0  0  0  0  0  0  0  0  0
  132.5210  132.3110   55.1150 O   0  0  0  0  0  0  0  0  0  0  0  0
  132.0450  132.0610   56.3890 C   0  0  0  0  0  0  0  0  0  0  0  0
  132.7500  131.3310   57.3590 C   0  0  0  0  0  0  0  0  0  0  0  0
  132.2010  131.1050   58.6220 C   0  0  0  0  0  0  0  0  0  0  0  0
  132.9870  130.3300   59.6750 C   0  0  0  0  0  0  0  0  0  0  0  0
  132.1550  129.5030   60.5490 N   0  0  0  0  0  0  0  0  0  0  0  0
  131.3180  128.5350   60.1370 C   0  0  0  0  0  0  0  0  0  0  0  0
  131.1750  128.2120   58.9580 O   0  0  0  0  0  0  0  0  0  0  0  0
  130.5120  127.8230   61.2230 C   0  0  0  0  0  0  0  0  0  0  0  0
  131.5820  126.9210   62.3840 S   0  0  0  0  0  0  0  0  0  0  0  0
  131.9340  125.3170   61.6820 C   0  0  0  0  0  0  0  0  0  0  0  0
  131.3010  125.0340   60.5130 N   0  0  0  0  0  0  0  0  0  0  0  0
  131.5260  123.8370   59.9230 C   0  0  0  0  0  0  0  0  0  0  0  0
  130.7880  123.5960   58.6200 C   0  0  0  0  0  0  0  0  0  0  0  0
  132.3790  122.8790   60.4670 C   0  0  0  0  0  0  0  0  0  0  0  0
  133.0350  123.1580   61.6710 C   0  0  0  0  0  0  0  0  0  0  0  0
  133.9670  122.0950   62.2480 C   0  0  0  0  0  0  0  0  0  0  0  0
  132.8150  124.4030   62.3040 C   0  0  0  0  0  0  0  0  0  0  0  0
  133.4860  124.7210   63.5670 C   0  0  0  0  0  0  0  0  0  0  0  0
  134.0160  124.9720   64.5650 N   0  0  0  0  0  0  0  0  0  0  0  0
  130.9520  131.6430   58.9360 C   0  0  0  0  0  0  0  0  0  0  0  0
  130.2280  132.3810   57.9870 C   0  0  0  0  0  0  0  0  0  0  0  0
  128.9860  132.9410   58.2280 O   0  0  0  0  0  0  0  0  0  0  0  0
  128.5990  133.2360   59.5670 C   0  0  0  0  0  0  0  0  0  0  0  0
  130.7810  132.5740   56.7130 C   0  0  0  0  0  0  0  0  0  0  0  0
  130.0860  133.3000   55.7760 O   0  0  0  0  0  0  0  0  0  0  0  0
  129.4820  132.5090   54.7630 C   0  0  0  0  0  0  0  0  0  0  0  0
  1  2  1  0
  2  3  1  0
  3  4  2  0
  4  5  1  0
  5  6  1  0
  6  7  1  0
  7  8  1  0
  8  9  2  0
  8 10  1  0
 10 11  1  0
 11 12  1  0
 12 13  2  0
 13 14  1  0
 14 15  1  0
 14 16  2  0
 16 17  1  0
 17 18  1  0
 17 19  2  0
 19 20  1  0
 20 21  3  0
  5 22  2  0
 22 23  1  0
 23 24  1  0
 24 25  1  0
 23 26  2  0
 26 27  1  0
 27 28  1  0
 26  3  1  0
 19 12  1  0
M  END
>  <Binding energies>  (9) 
[-6.91]

>  <Ligand effiencies>  (9) 
[-0.23827586206896553]

>  <Interactions>  (9) 
["V-B:TYR:539:CE2:9844, V-A:ASP:366:CG:3208, H-A:ARG:545:NE:4919, H-A:GLU:543:OE2:4905, H-A:TYR:484:OH:4343, H-A:GLY:454:N:4045, V-A:ARG:545:CZ:4921, H-A:ARG:545:NH2:4923, V-A:LEU:363:CD1:3184, V-A:PRO:540:N:4879, V-A:TYR:539:CE1:4870, V-A:TYR:539:C:4862, V-A:TYR:539:CD1:4868, V-A:PRO:540:CA:4878, H-A:TYR:531:OH:4790, V-A:PRO:540:CD:4882, H-A:ASP:366:OD2:3210, V-A:TYR:531:CE2:4788, V-A:PRO:540:CB:4880, V-A:TYR:539:CE2:4871, V-A:TYR:539:CD2:4869, V-A:GLY:454:CA:4044, V-A:ILE:369:CD1:3234, V-A:LEU:475:CD2:4254, H-A:TYR:539:N:4865, V-A:ILE:538:CD1:4860, V-A:TYR:531:CD2:4786, H-A:ARG:545:NH1:4922"]

$$$$
1i_Grossjean_2025
     RDKit          3D

 20 21  0  0  0  0  0  0  0  0999 V2000
  128.3930  122.0580   61.0110 C   0  0  0  0  0  0  0  0  0  0  0  0
  129.7390  122.2540   60.3380 C   0  0  0  0  0  0  0  0  0  0  0  0
  130.7740  121.3350   60.4970 C   0  0  0  0  0  0  0  0  0  0  0  0
  131.9900  121.5630   59.8440 C   0  0  0  0  0  0  0  0  0  0  0  0
  133.1050  120.5330   60.0190 C   0  0  0  0  0  0  0  0  0  0  0  0
  132.1410  122.7200   59.0460 C   0  0  0  0  0  0  0  0  0  0  0  0
  133.3880  122.9520   58.3130 C   0  0  0  0  0  0  0  0  0  0  0  0
  134.3740  123.1320   57.7340 N   0  0  0  0  0  0  0  0  0  0  0  0
  131.0450  123.6110   58.9620 C   0  0  0  0  0  0  0  0  0  0  0  0
  131.0600  125.1110   58.0060 S   0  0  0  0  0  0  0  0  0  0  0  0
  130.9850  124.6460   56.2500 C   0  0  0  0  0  0  0  0  0  0  0  0
  129.5830  124.1970   55.8330 C   0  0  0  0  0  0  0  0  0  0  0  0
  129.1480  124.5240   54.7280 O   0  0  0  0  0  0  0  0  0  0  0  0
  128.9170  123.4500   56.7410 N   0  0  0  0  0  0  0  0  0  0  0  0
  127.6400  122.9210   56.6200 C   0  0  0  0  0  0  0  0  0  0  0  0
  126.5340  123.4430   57.2890 C   0  0  0  0  0  0  0  0  0  0  0  0
  125.4770  122.6490   56.9080 C   0  0  0  0  0  0  0  0  0  0  0  0
  125.9240  121.6970   56.0540 O   0  0  0  0  0  0  0  0  0  0  0  0
  127.2970  121.8790   55.8810 N   0  0  0  0  0  0  0  0  0  0  0  0
  129.8620  123.3710   59.5830 N   0  0  0  0  0  0  0  0  0  0  0  0
  1  2  1  0
  2  3  2  0
  3  4  1  0
  4  5  1  0
  4  6  2  0
  6  7  1  0
  7  8  3  0
  6  9  1  0
  9 10  1  0
 10 11  1  0
 11 12  1  0
 12 13  2  0
 12 14  1  0
 14 15  1  0
 15 16  1  0
 16 17  2  0
 17 18  1  0
 18 19  1  0
  9 20  2  0
 20  2  1  0
 19 15  2  0
M  END
>  <Binding energies>  (10) 
[-6.98]

>  <Ligand effiencies>  (10) 
[-0.3323809523809524]

>  <Interactions>  (10) 
["V-B:ALA:541:CB:9860, V-B:TYR:539:CE2:9844, V-B:MET:535:CE:9803, V-B:PRO:540:CD:9855, V-B:PRO:540:CA:9851, V-A:TRP:381:CH2:3367, V-B:TYR:539:CD2:9842, V-B:ALA:541:CA:9858, V-B:PRO:540:N:9852, V-B:PRO:540:CB:9853, V-B:PRO:540:C:9849, V-B:TYR:539:CE1:9843, V-B:TYR:539:C:9835, V-B:TYR:539:CZ:9845, H-A:TYR:531:OH:4790, V-A:ILE:369:CG2:3232, V-A:ILE:369:CD1:3234, V-A:LEU:475:CD2:4254, H-A:LYS:534:NZ:4818, V-A:TYR:531:CE1:4787, V-A:TYR:531:CZ:4789, H-B:TYR:539:N:9838, V-A:ILE:369:CB:3231, H-A:ASN:370:N:3239"]

$$$$
1k_Grossjean_2025
     RDKit          3D

 25 25  0  0  0  0  0  0  0  0999 V2000
  133.3370  124.9410   63.1770 C   0  0  0  0  0  0  0  0  0  0  0  0
  134.3650  124.6290   64.1030 O   0  0  0  0  0  0  0  0  0  0  0  0
  134.0610  125.0120   65.4370 C   0  0  0  0  0  0  0  0  0  0  0  0
  132.8030  125.8920   65.4440 C   0  0  0  0  0  0  0  0  0  0  0  0
  131.8680  125.3730   66.3810 O   0  0  0  0  0  0  0  0  0  0  0  0
  130.5430  125.2810   65.8750 C   0  0  0  0  0  0  0  0  0  0  0  0
  130.0110  123.8600   66.0960 C   0  0  0  0  0  0  0  0  0  0  0  0
  130.2690  123.0710   64.9410 O   0  0  0  0  0  0  0  0  0  0  0  0
  129.9520  123.7260   63.7200 C   0  0  0  0  0  0  0  0  0  0  0  0
  129.6680  122.6760   62.6300 C   0  0  0  0  0  0  0  0  0  0  0  0
  129.2760  123.2480   61.3410 N   0  0  0  0  0  0  0  0  0  0  0  0
  128.0260  123.2590   60.8450 C   0  0  0  0  0  0  0  0  0  0  0  0
  127.0610  122.7820   61.4450 O   0  0  0  0  0  0  0  0  0  0  0  0
  127.8670  123.9070   59.4610 C   0  0  0  0  0  0  0  0  0  0  0  0
  128.6460  123.0080   58.0740 S   0  0  0  0  0  0  0  0  0  0  0  0
  130.4230  123.1200   58.2260 C   0  0  0  0  0  0  0  0  0  0  0  0
  130.9600  122.5530   59.3370 N   0  0  0  0  0  0  0  0  0  0  0  0
  132.2990  122.6110   59.5190 C   0  0  0  0  0  0  0  0  0  0  0  0
  132.8210  121.9630   60.7870 C   0  0  0  0  0  0  0  0  0  0  0  0
  133.1560  123.2220   58.6060 C   0  0  0  0  0  0  0  0  0  0  0  0
  132.6160  123.8040   57.4530 C   0  0  0  0  0  0  0  0  0  0  0  0
  133.5720  124.4690   56.4660 C   0  0  0  0  0  0  0  0  0  0  0  0
  131.2190  123.7580   57.2470 C   0  0  0  0  0  0  0  0  0  0  0  0
  130.6260  124.3620   56.0500 C   0  0  0  0  0  0  0  0  0  0  0  0
  130.1590  124.8400   55.1050 N   0  0  0  0  0  0  0  0  0  0  0  0
  1  2  1  0
  2  3  1  0
  3  4  1  0
  4  5  1  0
  5  6  1  0
  6  7  1  0
  7  8  1  0
  8  9  1  0
  9 10  1  0
 10 11  1  0
 11 12  1  0
 12 13  2  0
 12 14  1  0
 14 15  1  0
 15 16  1  0
 16 17  2  0
 17 18  1  0
 18 19  1  0
 18 20  2  0
 20 21  1  0
 21 22  1  0
 21 23  2  0
 23 24  1  0
 24 25  3  0
 23 16  1  0
M  END
>  <Binding energies>  (11) 
[-6.47]

>  <Ligand effiencies>  (11) 
[-0.24884615384615383]

>  <Interactions>  (11) 
["V-B:ALA:541:CB:9860, V-B:TYR:539:CE2:9844, V-B:TYR:539:CD2:9842, V-B:TYR:539:CZ:9845, V-A:ASP:366:CG:3208, H-A:TYR:484:OH:4343, H-A:GLY:454:N:4045, V-B:GLU:543:CD:9876, V-B:GLU:543:CG:9875, V-A:ARG:545:CZ:4921, H-A:HIS:456:NE2:4065, V-B:GLU:543:CB:9874, H-B:ALA:541:N:9859, V-A:ASP:366:CB:3207, V-A:ARG:545:CD:4918, V-A:TYR:484:CZ:4342, V-A:GLY:453:CA:4039, V-A:ILE:369:CD1:3234, H-A:LYS:534:NZ:4818, V-A:TYR:531:CE1:4787, V-A:TYR:531:CZ:4789, V-A:ASN:370:CB:3240, V-A:ASP:366:C:3203, V-A:TYR:484:CE1:4340, H-B:TYR:539:OH:9846, V-A:ASP:366:CA:3205, H-A:ARG:545:NH1:4922"]

$$$$
1l_Grossjean_2025
     RDKit          3D

 17 17  0  0  0  0  0  0  0  0999 V2000
  129.8990  119.6980   60.8930 C   0  0  0  0  0  0  0  0  0  0  0  0
  128.7560  120.5090   61.1240 O   0  0  0  0  0  0  0  0  0  0  0  0
  128.7880  121.6240   60.2870 N   0  0  0  0  0  0  0  0  0  0  0  0
  127.9610  122.6560   60.5410 C   0  0  0  0  0  0  0  0  0  0  0  0
  127.3320  122.7850   61.5960 O   0  0  0  0  0  0  0  0  0  0  0  0
  127.8540  123.6980   59.4190 C   0  0  0  0  0  0  0  0  0  0  0  0
  128.6050  123.2020   57.8310 S   0  0  0  0  0  0  0  0  0  0  0  0
  130.3790  123.2570   58.0140 C   0  0  0  0  0  0  0  0  0  0  0  0
  130.8750  122.6690   59.1340 N   0  0  0  0  0  0  0  0  0  0  0  0
  132.2140  122.6750   59.3370 C   0  0  0  0  0  0  0  0  0  0  0  0
  132.6910  122.0000   60.6090 C   0  0  0  0  0  0  0  0  0  0  0  0
  133.1070  123.2600   58.4420 C   0  0  0  0  0  0  0  0  0  0  0  0
  132.6090  123.8670   57.2850 C   0  0  0  0  0  0  0  0  0  0  0  0
  133.6070  124.5010   56.3170 C   0  0  0  0  0  0  0  0  0  0  0  0
  131.2150  123.8720   57.0540 C   0  0  0  0  0  0  0  0  0  0  0  0
  130.6650  124.5010   55.8490 C   0  0  0  0  0  0  0  0  0  0  0  0
  130.2330  124.9980   54.8980 N   0  0  0  0  0  0  0  0  0  0  0  0
  1  2  1  0
  2  3  1  0
  3  4  1  0
  4  5  2  0
  4  6  1  0
  6  7  1  0
  7  8  1  0
  8  9  2  0
  9 10  1  0
 10 11  1  0
 10 12  2  0
 12 13  1  0
 13 14  1  0
 13 15  2  0
 15 16  1  0
 16 17  3  0
 15  8  1  0
M  END
>  <Binding energies>  (12) 
[-5.6]

>  <Ligand effiencies>  (12) 
[-0.3111111111111111]

>  <Interactions>  (12) 
["V-B:ALA:541:CB:9860, V-B:TYR:539:CE2:9844, H-B:TYR:539:O:9836, V-B:PRO:540:CA:9851, V-B:TYR:539:CD2:9842, V-B:PRO:540:C:9849, V-B:TYR:539:C:9835, V-B:TYR:539:CZ:9845, H-B:ALA:541:N:9859, V-A:ASP:366:CB:3207, V-A:ILE:369:CD1:3234, H-A:LYS:534:NZ:4818, V-A:TYR:531:CE1:4787, V-A:TYR:531:CZ:4789, V-A:ASN:370:CB:3240, V-A:ASP:366:C:3203, H-B:TYR:539:OH:9846, V-A:ASP:366:CA:3205, V-A:TYR:531:CD1:4785"]

$$$$
1m_Grossjean_2025
     RDKit          3D

 20 20  0  0  0  0  0  0  0  0999 V2000
  129.7000  123.0940   63.9660 C   0  0  0  0  0  0  0  0  0  0  0  0
  130.6150  123.3430   65.0230 O   0  0  0  0  0  0  0  0  0  0  0  0
  131.0880  124.5870   65.2410 C   0  0  0  0  0  0  0  0  0  0  0  0
  131.3890  125.0580   66.3430 O   0  0  0  0  0  0  0  0  0  0  0  0
  131.2270  125.3790   63.9240 C   0  0  0  0  0  0  0  0  0  0  0  0
  132.0750  124.6960   62.9360 N   0  0  0  0  0  0  0  0  0  0  0  0
  133.3660  124.3540   63.1100 C   0  0  0  0  0  0  0  0  0  0  0  0
  133.9930  124.6020   64.1420 O   0  0  0  0  0  0  0  0  0  0  0  0
  134.0260  123.6350   61.9260 C   0  0  0  0  0  0  0  0  0  0  0  0
  133.0660  123.6850   60.3730 S   0  0  0  0  0  0  0  0  0  0  0  0
  131.6410  122.6370   60.5730 C   0  0  0  0  0  0  0  0  0  0  0  0
  130.4700  123.3210   60.6320 N   0  0  0  0  0  0  0  0  0  0  0  0
  129.3170  122.6260   60.7770 C   0  0  0  0  0  0  0  0  0  0  0  0
  128.0480  123.4560   60.8150 C   0  0  0  0  0  0  0  0  0  0  0  0
  129.2840  121.2370   60.8800 C   0  0  0  0  0  0  0  0  0  0  0  0
  130.4880  120.5240   60.8470 C   0  0  0  0  0  0  0  0  0  0  0  0
  130.4280  119.0040   60.9780 C   0  0  0  0  0  0  0  0  0  0  0  0
  131.7040  121.2280   60.6970 C   0  0  0  0  0  0  0  0  0  0  0  0
  132.9790  120.5060   60.7100 C   0  0  0  0  0  0  0  0  0  0  0  0
  133.9850  119.9360   60.7200 N   0  0  0  0  0  0  0  0  0  0  0  0
  1  2  1  0
  2  3  1  0
  3  4  2  0
  3  5  1  0
  5  6  1  0
  6  7  1  0
  7  8  2  0
  7  9  1  0
  9 10  1  0
 10 11  1  0
 11 12  2  0
 12 13  1  0
 13 14  1  0
 13 15  2  0
 15 16  1  0
 16 17  1  0
 16 18  2  0
 18 19  1  0
 19 20  3  0
 18 11  1  0
M  END
>  <Binding energies>  (13) 
[-5.68]

>  <Ligand effiencies>  (13) 
[-0.2704761904761905]

>  <Interactions>  (13) 
["V-B:ALA:541:CB:9860, V-A:TRP:381:CH2:3367, V-B:TYR:539:CD2:9842, V-B:PRO:540:C:9849, V-A:ASP:366:CG:3208, H-A:TYR:484:OH:4343, H-A:GLY:454:N:4045, V-B:GLU:543:CD:9876, V-B:GLU:543:CG:9875, H-A:HIS:456:NE2:4065, V-A:TYR:484:CZ:4342, V-A:ILE:369:CG2:3232, V-A:ILE:369:CD1:3234, V-A:LEU:475:CD2:4254, V-A:TRP:381:CZ2:3365"]

$$$$
1n_Grossjean_2025
     RDKit          3D

 27 28  0  0  0  0  0  0  0  0999 V2000
  130.3430  128.7230   71.1710 C   0  0  0  0  0  0  0  0  0  0  0  0
  129.4500  128.0890   72.2420 C   0  0  0  0  0  0  0  0  0  0  0  0
  128.7140  127.0150   71.6690 O   0  0  0  0  0  0  0  0  0  0  0  0
  127.8230  127.2310   70.6680 C   0  0  0  0  0  0  0  0  0  0  0  0
  126.6900  127.6840   70.8520 O   0  0  0  0  0  0  0  0  0  0  0  0
  128.3590  126.8760   69.3100 C   0  0  0  0  0  0  0  0  0  0  0  0
  129.4100  125.9610   69.1430 C   0  0  0  0  0  0  0  0  0  0  0  0
  129.8850  125.6560   67.8710 C   0  0  0  0  0  0  0  0  0  0  0  0
  129.3300  126.2630   66.7430 C   0  0  0  0  0  0  0  0  0  0  0  0
  129.8900  125.8860   65.5070 N   0  0  0  0  0  0  0  0  0  0  0  0
  131.1440  125.4790   65.2160 C   0  0  0  0  0  0  0  0  0  0  0  0
  132.0610  125.3530   66.0280 O   0  0  0  0  0  0  0  0  0  0  0  0
  131.4090  125.1510   63.7400 C   0  0  0  0  0  0  0  0  0  0  0  0
  132.8550  125.4630   63.3010 C   0  0  0  0  0  0  0  0  0  0  0  0
  133.8780  123.9960   62.9750 S   0  0  0  0  0  0  0  0  0  0  0  0
  133.0490  123.0250   61.7350 C   0  0  0  0  0  0  0  0  0  0  0  0
  133.5410  123.2090   60.4840 N   0  0  0  0  0  0  0  0  0  0  0  0
  132.9970  122.5090   59.4610 C   0  0  0  0  0  0  0  0  0  0  0  0
  133.6040  122.7580   58.0940 C   0  0  0  0  0  0  0  0  0  0  0  0
  131.9470  121.6100   59.6400 C   0  0  0  0  0  0  0  0  0  0  0  0
  131.4200  121.4290   60.9230 C   0  0  0  0  0  0  0  0  0  0  0  0
  130.2600  120.4490   61.0930 C   0  0  0  0  0  0  0  0  0  0  0  0
  131.9690  122.1530   62.0050 C   0  0  0  0  0  0  0  0  0  0  0  0
  131.3980  122.0180   63.3470 C   0  0  0  0  0  0  0  0  0  0  0  0
  130.9450  121.9100   64.4060 N   0  0  0  0  0  0  0  0  0  0  0  0
  128.2730  127.1710   66.9020 C   0  0  0  0  0  0  0  0  0  0  0  0
  127.7960  127.4720   68.1750 C   0  0  0  0  0  0  0  0  0  0  0  0
  1  2  1  0
  2  3  1  0
  3  4  1  0
  4  5  2  0
  4  6  1  0
  6  7  2  0
  7  8  1  0
  8  9  2  0
  9 10  1  0
 10 11  1  0
 11 12  2  0
 11 13  1  0
 13 14  1  0
 14 15  1  0
 15 16  1  0
 16 17  2  0
 17 18  1  0
 18 19  1  0
 18 20  2  0
 20 21  1  0
 21 22  1  0
 21 23  2  0
 23 24  1  0
 24 25  3  0
  9 26  1  0
 26 27  2  0
 27  6  1  0
 23 16  1  0
M  END
>  <Binding energies>  (14) 
[-7.59]

>  <Ligand effiencies>  (14) 
[-0.2710714285714286]

>  <Interactions>  (14) 
["V-B:ALA:541:CB:9860, V-B:TYR:539:CE2:9844, V-B:TYR:539:CD2:9842, V-B:TYR:539:CZ:9845, V-B:GLU:543:C:9870, V-A:HIS:456:CE1:4064, H-A:TYR:484:OH:4343, H-A:GLY:454:N:4045, V-B:GLU:543:CD:9876, V-B:GLU:543:CG:9875, V-A:ARG:545:CZ:4921, H-A:HIS:456:NE2:4065, V-B:GLU:543:CB:9874, H-B:GLU:543:OE2:9878, V-B:HIS:456:CE1:9037, V-A:ILE:369:CG2:3232, V-A:ILE:369:CD1:3234, V-A:LEU:475:CD2:4254, H-B:LYS:547:NZ:9919, V-A:ILE:369:CB:3231, V-A:GLY:544:C:4907, H-B:HIS:456:ND1:9034"]

$$$$
1q_Grossjean_2025
     RDKit          3D

 21 21  0  0  0  0  0  0  0  0999 V2000
  128.6850  123.0470   56.1040 C   0  0  0  0  0  0  0  0  0  0  0  0
  127.7340  122.0080   56.2930 O   0  0  0  0  0  0  0  0  0  0  0  0
  126.4940  122.2880   56.7640 C   0  0  0  0  0  0  0  0  0  0  0  0
  125.4350  122.0240   56.1920 O   0  0  0  0  0  0  0  0  0  0  0  0
  126.4880  123.0260   58.1200 C   0  0  0  0  0  0  0  0  0  0  0  0
  127.6420  122.6860   58.9650 N   0  0  0  0  0  0  0  0  0  0  0  0
  127.6780  122.7380   60.3100 C   0  0  0  0  0  0  0  0  0  0  0  0
  126.7160  123.0850   60.9970 O   0  0  0  0  0  0  0  0  0  0  0  0
  129.0030  122.3180   60.9640 C   0  0  0  0  0  0  0  0  0  0  0  0
  129.1860  120.7930   61.1010 C   0  0  0  0  0  0  0  0  0  0  0  0
  130.8730  120.2270   60.7280 S   0  0  0  0  0  0  0  0  0  0  0  0
  131.9400  121.6500   60.6280 C   0  0  0  0  0  0  0  0  0  0  0  0
  132.4040  121.8890   59.3750 N   0  0  0  0  0  0  0  0  0  0  0  0
  133.2270  122.9440   59.1750 C   0  0  0  0  0  0  0  0  0  0  0  0
  133.7170  123.1360   57.7520 C   0  0  0  0  0  0  0  0  0  0  0  0
  133.6110  123.8040   60.2010 C   0  0  0  0  0  0  0  0  0  0  0  0
  133.1190  123.5820   61.4910 C   0  0  0  0  0  0  0  0  0  0  0  0
  133.5410  124.5500   62.5970 C   0  0  0  0  0  0  0  0  0  0  0  0
  132.2560  122.4890   61.7250 C   0  0  0  0  0  0  0  0  0  0  0  0
  131.6860  122.2750   63.0570 C   0  0  0  0  0  0  0  0  0  0  0  0
  131.2380  122.1100   64.1120 N   0  0  0  0  0  0  0  0  0  0  0  0
  1  2  1  0
  2  3  1  0
  3  4  2  0
  3  5  1  0
  5  6  1  0
  6  7  1  0
  7  8  2  0
  7  9  1  0
  9 10  1  0
 10 11  1  0
 11 12  1  0
 12 13  2  0
 13 14  1  0
 14 15  1  0
 14 16  2  0
 16 17  1  0
 17 18  1  0
 17 19  2  0
 19 20  1  0
 20 21  3  0
 19 12  1  0
M  END
>  <Binding energies>  (15) 
[-6.44]

>  <Ligand effiencies>  (15) 
[-0.2927272727272727]

>  <Interactions>  (15) 
["V-B:ALA:541:CB:9860, V-B:TYR:539:CE2:9844, H-B:TYR:539:O:9836, V-B:MET:535:CE:9803, V-B:PRO:540:CD:9855, V-B:PRO:540:CA:9851, V-B:ALA:541:CA:9858, V-B:PRO:540:N:9852, V-B:PRO:540:CB:9853, V-B:PRO:540:C:9849, V-B:TYR:539:CE1:9843, V-B:TYR:539:C:9835, V-B:TYR:539:CZ:9845, V-A:ASP:366:CG:3208, H-A:TYR:484:OH:4343, H-B:ALA:541:N:9859, V-A:ASP:366:CB:3207, V-A:ILE:369:CG2:3232, V-A:ILE:369:CD1:3234, V-A:LEU:475:CD2:4254, H-B:TYR:539:N:9838, V-A:ILE:369:CB:3231, V-B:TYR:539:CD1:9841, V-B:TYR:539:CA:9837"]

$$$$
2a_Grossjean_2025
     RDKit          3D

 29 30  0  0  0  0  0  0  0  0999 V2000
  129.9630  128.6380   72.2230 C   0  0  0  0  0  0  0  0  0  0  0  0
  130.2140  127.1290   72.3010 C   0  0  0  0  0  0  0  0  0  0  0  0
  129.0510  126.4360   71.8610 O   0  0  0  0  0  0  0  0  0  0  0  0
  128.3580  126.8540   70.7700 C   0  0  0  0  0  0  0  0  0  0  0  0
  127.2030  127.2870   70.8230 O   0  0  0  0  0  0  0  0  0  0  0  0
  129.1470  126.7570   69.4950 C   0  0  0  0  0  0  0  0  0  0  0  0
  129.4980  125.5220   68.9330 C   0  0  0  0  0  0  0  0  0  0  0  0
  130.2310  125.4670   67.7510 C   0  0  0  0  0  0  0  0  0  0  0  0
  130.6340  126.6410   67.1120 C   0  0  0  0  0  0  0  0  0  0  0  0
  131.3810  126.4660   65.9330 N   0  0  0  0  0  0  0  0  0  0  0  0
  131.1340  125.6910   64.8550 C   0  0  0  0  0  0  0  0  0  0  0  0
  130.1670  124.9400   64.7210 O   0  0  0  0  0  0  0  0  0  0  0  0
  132.1680  125.7790   63.7270 C   0  0  0  0  0  0  0  0  0  0  0  0
  133.2490  124.3130   63.6240 S   0  0  0  0  0  0  0  0  0  0  0  0
  132.7850  123.3180   62.2120 C   0  0  0  0  0  0  0  0  0  0  0  0
  133.4840  123.5520   61.0720 N   0  0  0  0  0  0  0  0  0  0  0  0
  133.1780  122.8450   59.9610 C   0  0  0  0  0  0  0  0  0  0  0  0
  133.9840  123.1810   58.7200 C   0  0  0  0  0  0  0  0  0  0  0  0
  132.1780  121.8770   59.9390 C   0  0  0  0  0  0  0  0  0  0  0  0
  131.4480  121.6130   61.1080 C   0  0  0  0  0  0  0  0  0  0  0  0
  130.3450  120.5380   61.0670 C   0  0  0  0  0  0  0  0  0  0  0  0
  130.4570  119.7270   62.1180 F   0  0  0  0  0  0  0  0  0  0  0  0
  129.1440  121.1170   61.0920 F   0  0  0  0  0  0  0  0  0  0  0  0
  130.4030  119.7820   59.9680 F   0  0  0  0  0  0  0  0  0  0  0  0
  131.7570  122.3500   62.2790 C   0  0  0  0  0  0  0  0  0  0  0  0
  131.0230  122.1170   63.5280 C   0  0  0  0  0  0  0  0  0  0  0  0
  130.4440  121.9330   64.5130 N   0  0  0  0  0  0  0  0  0  0  0  0
  130.2790  127.8800   67.6640 C   0  0  0  0  0  0  0  0  0  0  0  0
  129.5420  127.9330   68.8440 C   0  0  0  0  0  0  0  0  0  0  0  0
  1  2  1  0
  2  3  1  0
  3  4  1  0
  4  5  2  0
  4  6  1  0
  6  7  2  0
  7  8  1  0
  8  9  2  0
  9 10  1  0
 10 11  1  0
 11 12  2  0
 11 13  1  0
 13 14  1  0
 14 15  1  0
 15 16  2  0
 16 17  1  0
 17 18  1  0
 17 19  2  0
 19 20  1  0
 20 21  1  0
 21 22  1  0
 21 23  1  0
 21 24  1  0
 20 25  2  0
 25 26  1  0
 26 27  3  0
  9 28  1  0
 28 29  2  0
 29  6  1  0
 25 15  1  0
M  END
>  <Binding energies>  (16) 
[-6.84]

>  <Ligand effiencies>  (16) 
[-0.228]

>  <Interactions>  (16) 
["V-B:ALA:541:CB:9860, V-B:TYR:539:CE2:9844, V-A:TRP:381:CH2:3367, V-B:TYR:539:CD2:9842, V-B:ALA:541:CA:9858, V-B:PRO:540:C:9849, V-B:TYR:539:C:9835, V-B:GLU:543:C:9870, V-A:HIS:456:CE1:4064, H-A:GLU:543:OE2:4905, H-A:TYR:484:OH:4343, H-A:GLY:454:N:4045, H-A:GLU:543:OE1:4904, V-A:ARG:545:CZ:4921, V-B:GLU:543:CB:9874, V-A:GLU:543:CD:4903, V-A:ASP:366:CB:3207, V-A:GLU:543:CB:4901, V-A:ILE:369:CG2:3232, V-A:ILE:369:CD1:3234, V-A:LEU:475:CD2:4254, H-B:LYS:547:NZ:9919, V-B:GLU:543:CA:9872, V-A:LEU:475:CD1:4253, V-A:ILE:369:CB:3231, V-A:ASP:366:CA:3205, V-A:ILE:369:CG1:3233, V-A:LEU:475:CG:4252"]

$$$$
2b_Grossjean_2025
     RDKit          3D

 28 29  0  0  0  0  0  0  0  0999 V2000
  131.6740  132.8330   55.5690 C   0  0  0  0  0  0  0  0  0  0  0  0
  130.2830  133.1180   55.5010 O   0  0  0  0  0  0  0  0  0  0  0  0
  129.4410  132.3250   54.7910 C   0  0  0  0  0  0  0  0  0  0  0  0
  128.6030  132.7630   53.9970 O   0  0  0  0  0  0  0  0  0  0  0  0
  129.6270  130.8610   55.0700 C   0  0  0  0  0  0  0  0  0  0  0  0
  130.0840  129.9710   54.0880 C   0  0  0  0  0  0  0  0  0  0  0  0
  130.2450  128.6190   54.3800 C   0  0  0  0  0  0  0  0  0  0  0  0
  129.9590  128.1310   55.6540 C   0  0  0  0  0  0  0  0  0  0  0  0
  130.1500  126.7480   55.8380 N   0  0  0  0  0  0  0  0  0  0  0  0
  129.7600  125.7140   55.0640 C   0  0  0  0  0  0  0  0  0  0  0  0
  129.1130  125.8090   54.0200 O   0  0  0  0  0  0  0  0  0  0  0  0
  130.1630  124.3270   55.5760 C   0  0  0  0  0  0  0  0  0  0  0  0
  128.7410  123.2160   55.8330 S   0  0  0  0  0  0  0  0  0  0  0  0
  128.3810  123.0800   57.5790 C   0  0  0  0  0  0  0  0  0  0  0  0
  129.3510  122.5090   58.3380 N   0  0  0  0  0  0  0  0  0  0  0  0
  129.1440  122.3690   59.6660 C   0  0  0  0  0  0  0  0  0  0  0  0
  130.2700  121.7100   60.4400 C   0  0  0  0  0  0  0  0  0  0  0  0
  127.9770  122.7960   60.2940 C   0  0  0  0  0  0  0  0  0  0  0  0
  126.9640  123.3960   59.5310 C   0  0  0  0  0  0  0  0  0  0  0  0
  125.6810  123.8680   60.2410 C   0  0  0  0  0  0  0  0  0  0  0  0
  125.7510  125.1770   60.4870 F   0  0  0  0  0  0  0  0  0  0  0  0
  124.6170  123.6280   59.4740 F   0  0  0  0  0  0  0  0  0  0  0  0
  125.4800  123.2510   61.4080 F   0  0  0  0  0  0  0  0  0  0  0  0
  127.1650  123.5440   58.1340 C   0  0  0  0  0  0  0  0  0  0  0  0
  126.1380  124.1580   57.2880 C   0  0  0  0  0  0  0  0  0  0  0  0
  125.3270  124.6440   56.6200 N   0  0  0  0  0  0  0  0  0  0  0  0
  129.4940  129.0130   56.6400 C   0  0  0  0  0  0  0  0  0  0  0  0
  129.3330  130.3650   56.3470 C   0  0  0  0  0  0  0  0  0  0  0  0
  1  2  1  0
  2  3  1  0
  3  4  2  0
  3  5  1  0
  5  6  2  0
  6  7  1  0
  7  8  2  0
  8  9  1  0
  9 10  1  0
 10 11  2  0
 10 12  1  0
 12 13  1  0
 13 14  1  0
 14 15  2  0
 15 16  1  0
 16 17  1  0
 16 18  2  0
 18 19  1  0
 19 20  1  0
 20 21  1  0
 20 22  1  0
 20 23  1  0
 19 24  2  0
 24 25  1  0
 25 26  3  0
  8 27  1  0
 27 28  2  0
 28  5  1  0
 24 14  1  0
M  END
>  <Binding energies>  (17) 
[-7.52]

>  <Ligand effiencies>  (17) 
[-0.2593103448275862]

>  <Interactions>  (17) 
["H-B:TYR:531:OH:9763, V-B:MET:535:CE:9803, V-B:PRO:540:CA:9851, V-B:PRO:540:CB:9853, V-B:PRO:540:C:9849, V-B:TYR:539:CE1:9843, V-B:TYR:539:CZ:9845, V-B:GLU:543:CD:9876, V-A:LEU:363:CD1:3184, V-A:TYR:539:CE1:4870, V-A:TYR:539:CD1:4868, H-A:TYR:531:OH:4790, V-A:PRO:540:CD:4882, V-A:ILE:538:CA:4855, H-A:TYR:539:N:4865, H-A:LYS:534:NZ:4818, V-A:ILE:538:CG2:4858, V-A:TYR:531:CE1:4787, V-A:TYR:531:CZ:4789, V-A:MET:535:CG:4828, V-B:ASP:366:CG:8180"]

$$$$
2c_Grossjean_2025
     RDKit          3D

 26 27  0  0  0  0  0  0  0  0999 V2000
  129.3790  126.8150   54.3860 C   0  0  0  0  0  0  0  0  0  0  0  0
  129.8570  125.4740   54.3770 O   0  0  0  0  0  0  0  0  0  0  0  0
  129.8000  124.7300   55.5400 C   0  0  0  0  0  0  0  0  0  0  0  0
  128.7530  123.8150   55.6430 C   0  0  0  0  0  0  0  0  0  0  0  0
  128.6110  123.0210   56.7770 C   0  0  0  0  0  0  0  0  0  0  0  0
  129.5220  123.1450   57.8370 C   0  0  0  0  0  0  0  0  0  0  0  0
  129.4710  122.3750   59.0130 N   0  0  0  0  0  0  0  0  0  0  0  0
  128.5170  122.3590   59.9690 C   0  0  0  0  0  0  0  0  0  0  0  0
  127.5250  123.0910   59.9820 O   0  0  0  0  0  0  0  0  0  0  0  0
  128.7640  121.3630   61.1120 C   0  0  0  0  0  0  0  0  0  0  0  0
  130.4250  120.6040   61.1480 S   0  0  0  0  0  0  0  0  0  0  0  0
  131.6670  121.8890   61.0740 C   0  0  0  0  0  0  0  0  0  0  0  0
  132.2860  122.0400   59.8750 N   0  0  0  0  0  0  0  0  0  0  0  0
  133.2420  122.9860   59.7480 C   0  0  0  0  0  0  0  0  0  0  0  0
  133.8970  123.0810   58.3840 C   0  0  0  0  0  0  0  0  0  0  0  0
  133.6160  123.8210   60.7980 C   0  0  0  0  0  0  0  0  0  0  0  0
  132.9860  123.6880   62.0430 C   0  0  0  0  0  0  0  0  0  0  0  0
  133.4090  124.6210   63.1950 C   0  0  0  0  0  0  0  0  0  0  0  0
  134.6880  124.9730   63.0510 F   0  0  0  0  0  0  0  0  0  0  0  0
  132.6550  125.7210   63.1940 F   0  0  0  0  0  0  0  0  0  0  0  0
  133.2830  124.0490   64.3950 F   0  0  0  0  0  0  0  0  0  0  0  0
  131.9840  122.6960   62.1920 C   0  0  0  0  0  0  0  0  0  0  0  0
  131.2920  122.5110   63.4730 C   0  0  0  0  0  0  0  0  0  0  0  0
  130.7470  122.3650   64.4830 N   0  0  0  0  0  0  0  0  0  0  0  0
  130.5810  124.0490   57.7320 C   0  0  0  0  0  0  0  0  0  0  0  0
  130.7190  124.8400   56.5950 C   0  0  0  0  0  0  0  0  0  0  0  0
  1  2  1  0
  2  3  1  0
  3  4  2  0
  4  5  1  0
  5  6  2  0
  6  7  1  0
  7  8  1  0
  8  9  2  0
  8 10  1  0
 10 11  1  0
 11 12  1  0
 12 13  2  0
 13 14  1  0
 14 15  1  0
 14 16  2  0
 16 17  1  0
 17 18  1  0
 18 19  1  0
 18 20  1  0
 18 21  1  0
 17 22  2  0
 22 23  1  0
 23 24  3  0
  6 25  1  0
 25 26  2  0
 26  3  1  0
 22 12  1  0
M  END
>  <Binding energies>  (18) 
[-6.64]

>  <Ligand effiencies>  (18) 
[-0.2459259259259259]

>  <Interactions>  (18) 
["V-B:ALA:541:CB:9860, V-B:TYR:539:CE2:9844, H-B:TYR:539:O:9836, V-B:MET:535:CE:9803, V-B:PRO:540:CA:9851, V-B:TYR:539:CD2:9842, V-B:ALA:541:CA:9858, V-B:PRO:540:C:9849, V-B:TYR:539:CE1:9843, V-B:TYR:539:C:9835, V-B:TYR:539:CZ:9845, V-A:ASP:366:CG:3208, H-A:TYR:484:OH:4343, V-A:ARG:545:CZ:4921, V-A:ASP:366:CB:3207, V-A:GLY:454:CA:4044, V-A:GLY:453:CA:4039, V-A:GLY:453:C:4037, V-A:ILE:369:CG2:3232, V-A:ILE:369:CD1:3234, V-A:LEU:475:CD2:4254, H-A:LYS:534:NZ:4818, V-A:TYR:531:CE1:4787, V-A:TYR:531:CZ:4789, V-A:ILE:369:CB:3231, V-A:ASP:366:CA:3205, V-A:ILE:369:CG1:3233"]

$$$$
2d_Ghoteimi_2023
     RDKit          3D

 38 42  0  0  0  0  0  0  0  0999 V2000
  130.2750  119.8130   60.6690 C   0  0  0  0  0  0  0  0  0  0  0  0
  129.5520  120.7110   61.4980 O   0  0  0  0  0  0  0  0  0  0  0  0
  129.0590  121.8620   60.9950 C   0  0  0  0  0  0  0  0  0  0  0  0
  127.9940  122.3900   61.3260 O   0  0  0  0  0  0  0  0  0  0  0  0
  130.0040  122.4600   59.9420 C   0  0  0  0  0  0  0  0  0  0  0  0
  131.5100  123.1420   60.7160 S   0  0  0  0  0  0  0  0  0  0  0  0
  131.0920  124.6940   61.4830 C   0  0  0  0  0  0  0  0  0  0  0  0
  131.0780  125.7340   60.6140 N   0  0  0  0  0  0  0  0  0  0  0  0
  130.7820  126.9800   61.0630 C   0  0  0  0  0  0  0  0  0  0  0  0
  130.8040  128.0790   60.0500 C   0  0  0  0  0  0  0  0  0  0  0  0
  130.1660  127.9220   58.8150 C   0  0  0  0  0  0  0  0  0  0  0  0
  130.1820  128.9420   57.8670 C   0  0  0  0  0  0  0  0  0  0  0  0
  130.8280  130.1610   58.1250 C   0  0  0  0  0  0  0  0  0  0  0  0
  130.8700  131.1890   57.1760 N   0  0  0  0  0  0  0  0  0  0  0  0
  129.6970  132.0470   56.9160 C   0  0  0  0  0  0  0  0  0  0  0  0
  129.8010  132.8560   55.6070 C   0  0  0  0  0  0  0  0  0  0  0  0
  130.9970  133.6210   55.6050 O   0  0  0  0  0  0  0  0  0  0  0  0
  132.1450  132.7930   55.6960 C   0  0  0  0  0  0  0  0  0  0  0  0
  132.1070  131.9760   57.0050 C   0  0  0  0  0  0  0  0  0  0  0  0
  131.4770  130.3080   59.3590 C   0  0  0  0  0  0  0  0  0  0  0  0
  131.4630  129.2880   60.3060 C   0  0  0  0  0  0  0  0  0  0  0  0
  130.4850  127.2090   62.4090 C   0  0  0  0  0  0  0  0  0  0  0  0
  130.4590  126.1470   63.3210 C   0  0  0  0  0  0  0  0  0  0  0  0
  130.1070  126.4620   64.7380 C   0  0  0  0  0  0  0  0  0  0  0  0
  128.9640  127.2100   65.0280 C   0  0  0  0  0  0  0  0  0  0  0  0
  128.6200  127.4990   66.3450 C   0  0  0  0  0  0  0  0  0  0  0  0
  129.4130  127.0490   67.4130 C   0  0  0  0  0  0  0  0  0  0  0  0
  129.0800  127.3160   68.7440 N   0  0  0  0  0  0  0  0  0  0  0  0
  127.6820  127.2510   69.2150 C   0  0  0  0  0  0  0  0  0  0  0  0
  127.5520  127.2190   70.7530 C   0  0  0  0  0  0  0  0  0  0  0  0
  128.2280  128.3300   71.3200 O   0  0  0  0  0  0  0  0  0  0  0  0
  129.6090  128.3260   70.9940 C   0  0  0  0  0  0  0  0  0  0  0  0
  129.7910  128.3910   69.4630 C   0  0  0  0  0  0  0  0  0  0  0  0
  130.5480  126.2830   67.1140 C   0  0  0  0  0  0  0  0  0  0  0  0
  130.8910  125.9940   65.7960 C   0  0  0  0  0  0  0  0  0  0  0  0
  130.7660  124.8460   62.8510 C   0  0  0  0  0  0  0  0  0  0  0  0
  130.7330  123.6990   63.7630 C   0  0  0  0  0  0  0  0  0  0  0  0
  130.7060  122.7950   64.4860 N   0  0  0  0  0  0  0  0  0  0  0  0
  1  2  1  0
  2  3  1  0
  3  4  2  0
  3  5  1  0
  5  6  1  0
  6  7  1  0
  7  8  2  0
  8  9  1  0
  9 10  1  0
 10 11  2  0
 11 12  1  0
 12 13  2  0
 13 14  1  0
 14 15  1  0
 15 16  1  0
 16 17  1  0
 17 18  1  0
 18 19  1  0
 13 20  1  0
 20 21  2  0
  9 22  2  0
 22 23  1  0
 23 24  1  0
 24 25  2  0
 25 26  1  0
 26 27  2  0
 27 28  1  0
 28 29  1  0
 29 30  1  0
 30 31  1  0
 31 32  1  0
 32 33  1  0
 27 34  1  0
 34 35  2  0
 23 36  2  0
 36 37  1  0
 37 38  3  0
 36  7  1  0
 21 10  1  0
 35 24  1  0
 19 14  1  0
 33 28  1  0
M  END
>  <Binding energies>  (19) 
[-9.07]

>  <Ligand effiencies>  (19) 
[-0.2386842105263158]

>  <Interactions>  (19) 
["V-B:ALA:541:CB:9860, V-B:TYR:539:CD2:9842, V-B:GLU:543:C:9870, V-A:HIS:456:CE1:4064, H-A:TYR:484:OH:4343, V-B:GLU:543:CD:9876, V-A:GLU:543:CD:4903, H-B:ALA:541:N:9859, V-A:LEU:363:CD1:3184, V-A:TYR:539:CE1:4870, V-A:TYR:539:CD1:4868, V-A:PRO:540:CG:4881, V-A:PRO:540:CD:4882, V-A:PRO:540:CB:4880, V-B:HIS:456:CE1:9037, V-A:LEU:475:CD2:4254, H-A:TYR:539:N:4865, V-A:ILE:538:CG2:4858, H-B:LYS:547:NZ:9919, V-B:GLY:544:C:9880"]

$$$$
2d_Grossjean_2025
     RDKit          3D

 24 25  0  0  0  0  0  0  0  0999 V2000
  126.8970  128.0430   54.3920 C   0  0  0  0  0  0  0  0  0  0  0  0
  127.5230  129.2760   55.0160 C   0  0  0  0  0  0  0  0  0  0  0  0
  127.1210  129.7460   56.2640 C   0  0  0  0  0  0  0  0  0  0  0  0
  127.7330  130.8880   56.8010 C   0  0  0  0  0  0  0  0  0  0  0  0
  127.2820  131.3880   58.1870 C   0  0  0  0  0  0  0  0  0  0  0  0
  125.9600  131.2650   58.3080 F   0  0  0  0  0  0  0  0  0  0  0  0
  127.8720  130.6710   59.1460 F   0  0  0  0  0  0  0  0  0  0  0  0
  127.5870  132.6690   58.3990 F   0  0  0  0  0  0  0  0  0  0  0  0
  128.7450  131.5340   56.0450 C   0  0  0  0  0  0  0  0  0  0  0  0
  129.4470  132.7020   56.5810 C   0  0  0  0  0  0  0  0  0  0  0  0
  130.0030  133.6240   57.0070 N   0  0  0  0  0  0  0  0  0  0  0  0
  129.0710  130.9990   54.7760 C   0  0  0  0  0  0  0  0  0  0  0  0
  130.2920  131.7020   53.6830 S   0  0  0  0  0  0  0  0  0  0  0  0
  131.9450  131.1520   54.2210 C   0  0  0  0  0  0  0  0  0  0  0  0
  132.2850  131.5870   55.6500 C   0  0  0  0  0  0  0  0  0  0  0  0
  132.5710  132.7660   55.8640 O   0  0  0  0  0  0  0  0  0  0  0  0
  132.2740  130.6070   56.5770 N   0  0  0  0  0  0  0  0  0  0  0  0
  132.5350  130.6880   57.9580 C   0  0  0  0  0  0  0  0  0  0  0  0
  131.4430  131.0000   58.7710 C   0  0  0  0  0  0  0  0  0  0  0  0
  131.6030  131.1080   60.1500 C   0  0  0  0  0  0  0  0  0  0  0  0
  132.8610  130.9120   60.7160 C   0  0  0  0  0  0  0  0  0  0  0  0
  133.9590  130.6140   59.9140 C   0  0  0  0  0  0  0  0  0  0  0  0
  133.8030  130.5040   58.5360 C   0  0  0  0  0  0  0  0  0  0  0  0
  128.4830  129.8820   54.2810 N   0  0  0  0  0  0  0  0  0  0  0  0
  1  2  1  0
  2  3  2  0
  3  4  1  0
  4  5  1  0
  5  6  1  0
  5  7  1  0
  5  8  1  0
  4  9  2  0
  9 10  1  0
 10 11  3  0
  9 12  1  0
 12 13  1  0
 13 14  1  0
 14 15  1  0
 15 16  2  0
 15 17  1  0
 17 18  1  0
 18 19  2  0
 19 20  1  0
 20 21  2  0
 21 22  1  0
 22 23  2  0
 12 24  2  0
 24  2  1  0
 23 18  1  0
M  END
>  <Binding energies>  (20) 
[-6.78]

>  <Ligand effiencies>  (20) 
[-0.2712]

>  <Interactions>  (20) 
["V-A:ASP:366:CG:3208, V-A:TYR:539:CZ:4872, V-A:LEU:363:CD1:3184, V-A:LEU:363:CA:3180, V-A:TYR:539:CE1:4870, V-A:ASN:362:C:3167, V-A:TYR:539:CD1:4868, V-A:PRO:540:CA:4878, V-A:LEU:363:CB:3182, H-A:TYR:531:OH:4790, V-A:TYR:539:CG:4867, V-A:TYR:531:CE2:4788, V-A:PRO:540:CB:4880, V-A:TYR:539:CE2:4871, V-A:TYR:539:CD2:4869, H-A:TYR:539:N:4865, V-A:TYR:531:CZ:4789, V-A:ILE:538:CD1:4860, V-A:MET:535:CG:4828, V-A:ASN:362:CB:3171, V-B:TYR:531:CZ:9762"]

$$$$
2e_Grossjean_2025
     RDKit          3D

 25 26  0  0  0  0  0  0  0  0999 V2000
  130.4210  131.7650   60.9820 C   0  0  0  0  0  0  0  0  0  0  0  0
  131.5070  131.3720   59.9990 C   0  0  0  0  0  0  0  0  0  0  0  0
  132.7800  130.9890   60.4300 C   0  0  0  0  0  0  0  0  0  0  0  0
  133.7260  130.6300   59.4680 C   0  0  0  0  0  0  0  0  0  0  0  0
  133.3820  130.6620   58.1150 C   0  0  0  0  0  0  0  0  0  0  0  0
  132.0910  131.0640   57.7520 C   0  0  0  0  0  0  0  0  0  0  0  0
  131.7850  131.0370   56.3810 N   0  0  0  0  0  0  0  0  0  0  0  0
  131.4160  132.0680   55.5880 C   0  0  0  0  0  0  0  0  0  0  0  0
  131.3590  133.2460   55.9430 O   0  0  0  0  0  0  0  0  0  0  0  0
  131.0020  131.6960   54.1610 C   0  0  0  0  0  0  0  0  0  0  0  0
  130.7160  129.9070   53.9760 S   0  0  0  0  0  0  0  0  0  0  0  0
  129.4390  129.5070   55.1480 C   0  0  0  0  0  0  0  0  0  0  0  0
  129.0170  130.5510   55.9030 N   0  0  0  0  0  0  0  0  0  0  0  0
  128.0800  130.3250   56.8510 C   0  0  0  0  0  0  0  0  0  0  0  0
  127.6530  131.5370   57.6580 C   0  0  0  0  0  0  0  0  0  0  0  0
  127.5360  129.0640   57.0870 C   0  0  0  0  0  0  0  0  0  0  0  0
  127.9680  127.9710   56.3210 C   0  0  0  0  0  0  0  0  0  0  0  0
  127.3730  126.5800   56.6070 C   0  0  0  0  0  0  0  0  0  0  0  0
  126.4660  126.6610   57.5810 F   0  0  0  0  0  0  0  0  0  0  0  0
  126.7880  126.1000   55.5090 F   0  0  0  0  0  0  0  0  0  0  0  0
  128.2960  125.6940   56.9910 F   0  0  0  0  0  0  0  0  0  0  0  0
  128.9460  128.1930   55.3190 C   0  0  0  0  0  0  0  0  0  0  0  0
  129.4610  127.0870   54.5050 C   0  0  0  0  0  0  0  0  0  0  0  0
  129.8680  126.2140   53.8630 N   0  0  0  0  0  0  0  0  0  0  0  0
  131.1580  131.4100   58.6870 N   0  0  0  0  0  0  0  0  0  0  0  0
  1  2  1  0
  2  3  2  0
  3  4  1  0
  4  5  2  0
  5  6  1  0
  6  7  1  0
  7  8  1  0
  8  9  2  0
  8 10  1  0
 10 11  1  0
 11 12  1  0
 12 13  2  0
 13 14  1  0
 14 15  1  0
 14 16  2  0
 16 17  1  0
 17 18  1  0
 18 19  1  0
 18 20  1  0
 18 21  1  0
 17 22  2  0
 22 23  1  0
 23 24  3  0
  6 25  2  0
 25  2  1  0
 22 12  1  0
M  END
>  <Binding energies>  (21) 
[-6.43]

>  <Ligand effiencies>  (21) 
[-0.24730769230769228]

>  <Interactions>  (21) 
["V-B:MET:535:CE:9803, V-A:TYR:539:CZ:4872, V-A:LEU:363:CD1:3184, V-A:LEU:363:CA:3180, V-A:TYR:539:CE1:4870, V-A:ASN:362:C:3167, V-A:PRO:540:CA:4878, H-A:TYR:531:OH:4790, V-A:TYR:531:CE2:4788, V-A:PRO:540:CB:4880, V-A:TYR:539:CE2:4871, H-A:TYR:539:N:4865, H-A:LYS:534:NZ:4818, V-A:TYR:531:CE1:4787, V-A:TYR:531:CZ:4789, V-A:ILE:538:CD1:4860, V-B:TYR:531:CZ:9762"]

$$$$
2f_Grossjean_2025
     RDKit          3D

 24 25  0  0  0  0  0  0  0  0999 V2000
  126.8630  128.0540   54.3520 C   0  0  0  0  0  0  0  0  0  0  0  0
  127.5310  129.2530   54.9990 C   0  0  0  0  0  0  0  0  0  0  0  0
  127.1660  129.6950   56.2690 C   0  0  0  0  0  0  0  0  0  0  0  0
  127.8080  130.8140   56.8210 C   0  0  0  0  0  0  0  0  0  0  0  0
  127.3810  131.2940   58.2220 C   0  0  0  0  0  0  0  0  0  0  0  0
  128.0900  130.6610   59.1590 F   0  0  0  0  0  0  0  0  0  0  0  0
  127.5900  132.6060   58.3360 F   0  0  0  0  0  0  0  0  0  0  0  0
  126.0910  131.0690   58.4760 F   0  0  0  0  0  0  0  0  0  0  0  0
  128.8190  131.4580   56.0640 C   0  0  0  0  0  0  0  0  0  0  0  0
  129.4780  132.6640   56.5730 C   0  0  0  0  0  0  0  0  0  0  0  0
  129.9990  133.6160   56.9760 N   0  0  0  0  0  0  0  0  0  0  0  0
  129.1420  130.9240   54.7940 C   0  0  0  0  0  0  0  0  0  0  0  0
  130.3900  131.5950   53.7150 S   0  0  0  0  0  0  0  0  0  0  0  0
  132.0220  131.0580   54.3320 C   0  0  0  0  0  0  0  0  0  0  0  0
  132.3820  131.5580   55.7390 C   0  0  0  0  0  0  0  0  0  0  0  0
  132.6660  132.7410   55.9310 O   0  0  0  0  0  0  0  0  0  0  0  0
  132.3750  130.6020   56.6920 N   0  0  0  0  0  0  0  0  0  0  0  0
  132.6430  130.7100   58.0700 C   0  0  0  0  0  0  0  0  0  0  0  0
  133.8790  130.4390   58.6850 C   0  0  0  0  0  0  0  0  0  0  0  0
  134.0130  130.5920   60.0660 C   0  0  0  0  0  0  0  0  0  0  0  0
  132.9050  131.0170   60.8010 C   0  0  0  0  0  0  0  0  0  0  0  0
  131.7050  131.2930   60.2310 N   0  0  0  0  0  0  0  0  0  0  0  0
  131.5910  131.1400   58.8870 C   0  0  0  0  0  0  0  0  0  0  0  0
  128.4960  129.8550   54.2670 N   0  0  0  0  0  0  0  0  0  0  0  0
  1  2  1  0
  2  3  2  0
  3  4  1  0
  4  5  1  0
  5  6  1  0
  5  7  1  0
  5  8  1  0
  4  9  2  0
  9 10  1  0
 10 11  3  0
  9 12  1  0
 12 13  1  0
 13 14  1  0
 14 15  1  0
 15 16  2  0
 15 17  1  0
 17 18  1  0
 18 19  2  0
 19 20  1  0
 20 21  2  0
 21 22  1  0
 22 23  2  0
 12 24  2  0
 24  2  1  0
 23 18  1  0
M  END
>  <Binding energies>  (22) 
[-6.3]

>  <Ligand effiencies>  (22) 
[-0.252]

>  <Interactions>  (22) 
["V-A:ASP:366:CG:3208, V-A:TYR:539:CZ:4872, V-A:LEU:363:CD1:3184, V-A:LEU:363:CA:3180, V-A:TYR:539:CE1:4870, V-A:ASN:362:C:3167, V-A:TYR:539:CD1:4868, V-A:PRO:540:CA:4878, V-A:LEU:363:CB:3182, H-A:TYR:531:OH:4790, V-A:TYR:539:CG:4867, V-A:TYR:531:CE2:4788, V-A:PRO:540:CB:4880, V-A:TYR:539:CE2:4871, V-A:TYR:539:CD2:4869, H-A:TYR:539:N:4865, V-A:TYR:531:CZ:4789, V-A:ILE:538:CD1:4860, V-A:MET:535:CG:4828, V-A:ASN:362:CB:3171, V-B:TYR:531:CE1:9760, V-B:TYR:531:CZ:9762"]

$$$$
2g_Grossjean_2025
     RDKit          3D

 25 26  0  0  0  0  0  0  0  0999 V2000
  129.8960  121.6110   60.7910 C   0  0  0  0  0  0  0  0  0  0  0  0
  128.7970  122.3150   60.0190 C   0  0  0  0  0  0  0  0  0  0  0  0
  127.6860  122.8570   60.6610 C   0  0  0  0  0  0  0  0  0  0  0  0
  126.6920  123.4920   59.9010 C   0  0  0  0  0  0  0  0  0  0  0  0
  125.4660  124.0780   60.6280 C   0  0  0  0  0  0  0  0  0  0  0  0
  125.3140  123.4980   61.8200 F   0  0  0  0  0  0  0  0  0  0  0  0
  125.6300  125.3900   60.8050 F   0  0  0  0  0  0  0  0  0  0  0  0
  124.3300  123.9010   59.9510 F   0  0  0  0  0  0  0  0  0  0  0  0
  126.8570  123.5670   58.4940 C   0  0  0  0  0  0  0  0  0  0  0  0
  125.8220  124.1690   57.6490 C   0  0  0  0  0  0  0  0  0  0  0  0
  125.0040  124.6440   56.9830 N   0  0  0  0  0  0  0  0  0  0  0  0
  128.0340  123.0150   57.9320 C   0  0  0  0  0  0  0  0  0  0  0  0
  128.4120  123.0440   56.1930 S   0  0  0  0  0  0  0  0  0  0  0  0
  129.1180  124.6840   55.8140 C   0  0  0  0  0  0  0  0  0  0  0  0
  130.3760  125.0420   56.6180 C   0  0  0  0  0  0  0  0  0  0  0  0
  130.3690  125.9530   57.4480 O   0  0  0  0  0  0  0  0  0  0  0  0
  131.4660  124.3030   56.3460 N   0  0  0  0  0  0  0  0  0  0  0  0
  132.7740  124.4500   56.9870 C   0  0  0  0  0  0  0  0  0  0  0  0
  132.8770  123.8010   58.3630 C   0  0  0  0  0  0  0  0  0  0  0  0
  132.5800  124.5470   59.5080 C   0  0  0  0  0  0  0  0  0  0  0  0
  132.6360  123.9450   60.7630 C   0  0  0  0  0  0  0  0  0  0  0  0
  132.9780  122.6000   60.8690 C   0  0  0  0  0  0  0  0  0  0  0  0
  133.2630  121.8480   59.7300 C   0  0  0  0  0  0  0  0  0  0  0  0
  133.2060  122.4480   58.4760 C   0  0  0  0  0  0  0  0  0  0  0  0
  128.9730  122.3850   58.6800 N   0  0  0  0  0  0  0  0  0  0  0  0
  1  2  1  0
  2  3  2  0
  3  4  1  0
  4  5  1  0
  5  6  1  0
  5  7  1  0
  5  8  1  0
  4  9  2  0
  9 10  1  0
 10 11  3  0
  9 12  1  0
 12 13  1  0
 13 14  1  0
 14 15  1  0
 15 16  2  0
 15 17  1  0
 17 18  1  0
 18 19  1  0
 19 20  2  0
 20 21  1  0
 21 22  2  0
 22 23  1  0
 23 24  2  0
 12 25  2  0
 25  2  1  0
 24 19  1  0
M  END
>  <Binding energies>  (23) 
[-6.48]

>  <Ligand effiencies>  (23) 
[-0.24923076923076926]

>  <Interactions>  (23) 
["H-B:TYR:531:OH:9763, V-B:ALA:541:CB:9860, V-B:TYR:539:CE2:9844, V-B:MET:535:CE:9803, V-B:PRO:540:CA:9851, V-B:PRO:540:CB:9853, V-B:PRO:540:C:9849, V-B:TYR:539:C:9835, V-B:TYR:539:CZ:9845, V-A:ASP:366:CG:3208, V-B:GLU:543:CD:9876, V-A:ASP:366:CB:3207, H-A:TYR:531:OH:4790, V-A:ILE:369:CG2:3232, V-A:ILE:369:CD1:3234, V-B:LEU:363:CA:8152, V-A:TYR:531:CE1:4787, V-A:TYR:531:CZ:4789, V-B:ASP:366:CG:8180, V-A:ILE:369:CB:3231, H-B:TYR:539:OH:9846"]

$$$$
2h_Grossjean_2025
     RDKit          3D

 31 32  0  0  0  0  0  0  0  0999 V2000
  128.6960  127.8940   70.1200 C   0  0  0  0  0  0  0  0  0  0  0  0
  128.1240  126.8960   69.2820 O   0  0  0  0  0  0  0  0  0  0  0  0
  128.7570  126.5610   68.0980 C   0  0  0  0  0  0  0  0  0  0  0  0
  129.5820  125.4350   67.9420 C   0  0  0  0  0  0  0  0  0  0  0  0
  130.1790  125.1570   66.7150 C   0  0  0  0  0  0  0  0  0  0  0  0
  129.9670  125.9940   65.6180 C   0  0  0  0  0  0  0  0  0  0  0  0
  130.6170  125.6580   64.2770 C   0  0  0  0  0  0  0  0  0  0  0  0
  129.9090  124.6210   63.5260 N   0  0  0  0  0  0  0  0  0  0  0  0
  130.1080  123.2980   63.6630 C   0  0  0  0  0  0  0  0  0  0  0  0
  130.9810  122.8180   64.3890 O   0  0  0  0  0  0  0  0  0  0  0  0
  129.1640  122.3980   62.8540 C   0  0  0  0  0  0  0  0  0  0  0  0
  129.2960  122.5720   61.0430 S   0  0  0  0  0  0  0  0  0  0  0  0
  127.6750  123.0020   60.4470 C   0  0  0  0  0  0  0  0  0  0  0  0
  126.7500  123.1320   61.4300 N   0  0  0  0  0  0  0  0  0  0  0  0
  125.4800  123.4390   61.0860 C   0  0  0  0  0  0  0  0  0  0  0  0
  124.4970  123.5610   62.2360 C   0  0  0  0  0  0  0  0  0  0  0  0
  125.0830  123.6330   59.7650 C   0  0  0  0  0  0  0  0  0  0  0  0
  126.0310  123.5220   58.7360 C   0  0  0  0  0  0  0  0  0  0  0  0
  125.5760  123.7490   57.2810 C   0  0  0  0  0  0  0  0  0  0  0  0
  126.2730  124.7460   56.7360 F   0  0  0  0  0  0  0  0  0  0  0  0
  125.7500  122.6720   56.5120 F   0  0  0  0  0  0  0  0  0  0  0  0
  124.2790  124.0590   57.2500 F   0  0  0  0  0  0  0  0  0  0  0  0
  127.3700  123.2080   59.0800 C   0  0  0  0  0  0  0  0  0  0  0  0
  128.4100  123.1390   58.0500 C   0  0  0  0  0  0  0  0  0  0  0  0
  129.2290  123.0890   57.2350 N   0  0  0  0  0  0  0  0  0  0  0  0
  129.1650  127.1360   65.7650 C   0  0  0  0  0  0  0  0  0  0  0  0
  128.9540  127.9670   64.6910 O   0  0  0  0  0  0  0  0  0  0  0  0
  127.6440  127.8960   64.1420 C   0  0  0  0  0  0  0  0  0  0  0  0
  128.5470  127.4040   66.9990 C   0  0  0  0  0  0  0  0  0  0  0  0
  127.7450  128.5110   67.1420 O   0  0  0  0  0  0  0  0  0  0  0  0
  128.4480  129.7460   67.1110 C   0  0  0  0  0  0  0  0  0  0  0  0
  1  2  1  0
  2  3  1  0
  3  4  2  0
  4  5  1  0
  5  6  2  0
  6  7  1  0
  7  8  1  0
  8  9  1  0
  9 10  2  0
  9 11  1  0
 11 12  1  0
 12 13  1  0
 13 14  2  0
 14 15  1  0
 15 16  1  0
 15 17  2  0
 17 18  1  0
 18 19  1  0
 19 20  1  0
 19 21  1  0
 19 22  1  0
 18 23  2  0
 23 24  1  0
 24 25  3  0
  6 26  1  0
 26 27  1  0
 27 28  1  0
 26 29  2  0
 29 30  1  0
 30 31  1  0
 29  3  1  0
 23 13  1  0
M  END
>  <Binding energies>  (24) 
[-6.49]

>  <Ligand effiencies>  (24) 
[-0.2028125]

>  <Interactions>  (24) 
["V-B:ALA:541:CB:9860, V-B:MET:535:CE:9803, V-B:PRO:540:CD:9855, V-B:PRO:540:CA:9851, V-B:ALA:541:CA:9858, V-B:PRO:540:N:9852, V-B:PRO:540:CB:9853, V-B:PRO:540:C:9849, V-B:TYR:539:C:9835, V-A:HIS:456:CE1:4064, H-A:TYR:484:OH:4343, V-B:GLU:543:CD:9876, V-B:GLU:543:CG:9875, V-B:GLU:543:CB:9874, V-A:GLU:543:CD:4903, V-B:ASN:362:CB:8143, H-B:ALA:541:N:9859, H-B:GLU:543:OE2:9878, V-A:GLU:543:CB:4901, V-B:HIS:456:CE1:9037, V-B:LEU:363:CD1:8156, V-A:GLU:543:CG:4902, V-B:GLU:543:CA:9872, V-B:TYR:531:CE2:9761, V-B:ASN:362:CG:8144"]

$$$$
2i_Grossjean_2025
     RDKit          3D

 23 24  0  0  0  0  0  0  0  0999 V2000
  128.0120  122.7470   61.2800 C   0  0  0  0  0  0  0  0  0  0  0  0
  129.3430  122.6980   60.5540 C   0  0  0  0  0  0  0  0  0  0  0  0
  130.2320  121.6410   60.7300 C   0  0  0  0  0  0  0  0  0  0  0  0
  131.4500  121.6410   60.0340 C   0  0  0  0  0  0  0  0  0  0  0  0
  132.4220  120.4640   60.2410 C   0  0  0  0  0  0  0  0  0  0  0  0
  132.9170  120.0690   59.0660 F   0  0  0  0  0  0  0  0  0  0  0  0
  133.4290  120.8350   61.0320 F   0  0  0  0  0  0  0  0  0  0  0  0
  131.8380  119.4050   60.8060 F   0  0  0  0  0  0  0  0  0  0  0  0
  131.7350  122.7270   59.1680 C   0  0  0  0  0  0  0  0  0  0  0  0
  132.9920  122.7780   58.4150 C   0  0  0  0  0  0  0  0  0  0  0  0
  133.9840  122.8180   57.8200 N   0  0  0  0  0  0  0  0  0  0  0  0
  130.7760  123.7600   59.0510 C   0  0  0  0  0  0  0  0  0  0  0  0
  131.0290  125.1800   57.9980 S   0  0  0  0  0  0  0  0  0  0  0  0
  130.9900  124.6160   56.2690 C   0  0  0  0  0  0  0  0  0  0  0  0
  129.5950  124.1570   55.8410 C   0  0  0  0  0  0  0  0  0  0  0  0
  129.1900  124.4440   54.7130 O   0  0  0  0  0  0  0  0  0  0  0  0
  128.8880  123.4780   56.7700 N   0  0  0  0  0  0  0  0  0  0  0  0
  127.6050  122.9770   56.6290 C   0  0  0  0  0  0  0  0  0  0  0  0
  126.3930  123.4340   57.1670 C   0  0  0  0  0  0  0  0  0  0  0  0
  125.4460  122.5550   56.6920 C   0  0  0  0  0  0  0  0  0  0  0  0
  126.0530  121.6300   55.9100 O   0  0  0  0  0  0  0  0  0  0  0  0
  127.4190  121.9140   55.8760 N   0  0  0  0  0  0  0  0  0  0  0  0
  129.6020  123.7400   59.7330 N   0  0  0  0  0  0  0  0  0  0  0  0
  1  2  1  0
  2  3  2  0
  3  4  1  0
  4  5  1  0
  5  6  1  0
  5  7  1  0
  5  8  1  0
  4  9  2  0
  9 10  1  0
 10 11  3  0
  9 12  1  0
 12 13  1  0
 13 14  1  0
 14 15  1  0
 15 16  2  0
 15 17  1  0
 17 18  1  0
 18 19  1  0
 19 20  2  0
 20 21  1  0
 21 22  1  0
 12 23  2  0
 23  2  1  0
 22 18  2  0
M  END
>  <Binding energies>  (25) 
[-6.65]

>  <Ligand effiencies>  (25) 
[-0.27708333333333335]

>  <Interactions>  (25) 
["V-B:ALA:541:CB:9860, V-B:TYR:539:CE2:9844, V-B:MET:535:CE:9803, V-B:PRO:540:CD:9855, V-B:PRO:540:CA:9851, V-A:TRP:381:CH2:3367, V-B:TYR:539:CD2:9842, V-B:PRO:540:N:9852, V-B:PRO:540:CB:9853, V-B:PRO:540:C:9849, V-B:TYR:539:CE1:9843, V-B:TYR:539:C:9835, V-B:TYR:539:CZ:9845, H-A:TYR:531:OH:4790, V-A:ILE:369:CG2:3232, V-A:ILE:369:CD1:3234, V-A:TRP:381:CZ3:3366, V-A:LEU:475:CD2:4254, H-A:LYS:534:NZ:4818, V-A:TYR:531:CE1:4787, V-A:TYR:531:CZ:4789, V-A:TRP:381:CZ2:3365, H-B:TYR:539:N:9838, H-B:TYR:539:OH:9846"]

$$$$
2k_Grossjean_2025
     RDKit          3D

 28 28  0  0  0  0  0  0  0  0999 V2000
  127.3420  122.3160   56.6110 C   0  0  0  0  0  0  0  0  0  0  0  0
  126.1290  121.6820   56.2370 O   0  0  0  0  0  0  0  0  0  0  0  0
  124.9690  122.4050   56.6280 C   0  0  0  0  0  0  0  0  0  0  0  0
  125.3500  123.4830   57.6510 C   0  0  0  0  0  0  0  0  0  0  0  0
  125.3080  124.7550   57.0210 O   0  0  0  0  0  0  0  0  0  0  0  0
  126.2130  125.7070   57.5660 C   0  0  0  0  0  0  0  0  0  0  0  0
  126.8250  125.1190   58.8440 C   0  0  0  0  0  0  0  0  0  0  0  0
  128.0560  125.7830   59.0820 O   0  0  0  0  0  0  0  0  0  0  0  0
  129.1000  124.9600   59.5800 C   0  0  0  0  0  0  0  0  0  0  0  0
  129.2270  123.7160   58.6800 C   0  0  0  0  0  0  0  0  0  0  0  0
  129.4340  122.4810   59.4390 N   0  0  0  0  0  0  0  0  0  0  0  0
  128.6550  122.0390   60.4450 C   0  0  0  0  0  0  0  0  0  0  0  0
  127.6410  122.6280   60.8260 O   0  0  0  0  0  0  0  0  0  0  0  0
  129.1160  120.7420   61.1260 C   0  0  0  0  0  0  0  0  0  0  0  0
  130.8320  120.2340   60.7600 S   0  0  0  0  0  0  0  0  0  0  0  0
  131.8880  121.6770   60.7440 C   0  0  0  0  0  0  0  0  0  0  0  0
  132.4330  121.9940   59.5420 N   0  0  0  0  0  0  0  0  0  0  0  0
  133.2460  123.0710   59.4570 C   0  0  0  0  0  0  0  0  0  0  0  0
  133.8240  123.3520   58.0840 C   0  0  0  0  0  0  0  0  0  0  0  0
  133.5400  123.8780   60.5520 C   0  0  0  0  0  0  0  0  0  0  0  0
  132.9810  123.5740   61.8030 C   0  0  0  0  0  0  0  0  0  0  0  0
  133.3130  124.4810   63.0040 C   0  0  0  0  0  0  0  0  0  0  0  0
  133.0410  123.9060   64.1760 F   0  0  0  0  0  0  0  0  0  0  0  0
  134.6110  124.7890   62.9990 F   0  0  0  0  0  0  0  0  0  0  0  0
  132.6020  125.6070   62.9350 F   0  0  0  0  0  0  0  0  0  0  0  0
  132.1330  122.4430   61.9090 C   0  0  0  0  0  0  0  0  0  0  0  0
  131.5250  122.0760   63.1910 C   0  0  0  0  0  0  0  0  0  0  0  0
  131.0450  121.7870   64.2050 N   0  0  0  0  0  0  0  0  0  0  0  0
  1  2  1  0
  2  3  1  0
  3  4  1  0
  4  5  1  0
  5  6  1  0
  6  7  1  0
  7  8  1  0
  8  9  1  0
  9 10  1  0
 10 11  1  0
 11 12  1  0
 12 13  2  0
 12 14  1  0
 14 15  1  0
 15 16  1  0
 16 17  2  0
 17 18  1  0
 18 19  1  0
 18 20  2  0
 20 21  1  0
 21 22  1  0
 22 23  1  0
 22 24  1  0
 22 25  1  0
 21 26  2  0
 26 27  1  0
 27 28  3  0
 26 16  1  0
M  END
>  <Binding energies>  (26) 
[-5.24]

>  <Ligand effiencies>  (26) 
[-0.1806896551724138]

>  <Interactions>  (26) 
["H-B:TYR:531:OH:9763, V-B:ALA:541:CB:9860, H-B:TYR:539:O:9836, V-B:MET:535:CE:9803, V-B:PRO:540:CD:9855, V-B:PRO:540:CA:9851, V-B:ALA:541:CA:9858, V-B:PRO:540:N:9852, V-B:PRO:540:CB:9853, V-B:PRO:540:C:9849, V-B:TYR:539:C:9835, V-A:ASP:366:CG:3208, H-A:TYR:484:OH:4343, V-A:ARG:545:CZ:4921, H-B:ALA:541:N:9859, V-A:ASP:366:CB:3207, V-A:GLY:454:CA:4044, V-A:GLY:453:CA:4039, V-A:GLY:453:C:4037, V-A:ILE:369:CG2:3232, V-A:ILE:369:CD1:3234, V-A:LEU:475:CD2:4254, V-B:LEU:363:CD1:8156, H-B:TYR:539:N:9838, V-B:PRO:540:CG:9854, V-B:ILE:538:CG2:9831, V-A:ASP:366:C:3203, V-A:ILE:369:CB:3231, V-B:TYR:539:CD1:9841, V-B:TYR:539:CA:9837, V-B:TYR:539:CG:9840, V-A:ASP:366:CA:3205"]

$$$$
3aa_Grossjean_2025
     RDKit          3D

 34 36  0  0  0  0  0  0  0  0999 V2000
  132.3080  132.8400   55.8200 C   0  0  0  0  0  0  0  0  0  0  0  0
  131.1820  132.8310   54.7820 C   0  0  0  0  0  0  0  0  0  0  0  0
  129.9820  133.3070   55.3790 O   0  0  0  0  0  0  0  0  0  0  0  0
  129.4290  132.6670   56.4410 C   0  0  0  0  0  0  0  0  0  0  0  0
  128.9110  133.2550   57.3950 O   0  0  0  0  0  0  0  0  0  0  0  0
  129.5230  131.1700   56.3470 C   0  0  0  0  0  0  0  0  0  0  0  0
  129.0120  130.4600   55.2510 C   0  0  0  0  0  0  0  0  0  0  0  0
  129.1200  129.0730   55.1940 C   0  0  0  0  0  0  0  0  0  0  0  0
  129.7460  128.3700   56.2240 C   0  0  0  0  0  0  0  0  0  0  0  0
  129.8060  126.9710   56.0670 N   0  0  0  0  0  0  0  0  0  0  0  0
  129.8790  126.2340   54.9360 C   0  0  0  0  0  0  0  0  0  0  0  0
  129.8840  126.6840   53.7900 O   0  0  0  0  0  0  0  0  0  0  0  0
  129.9480  124.7210   55.1390 C   0  0  0  0  0  0  0  0  0  0  0  0
  131.1750  124.2640   56.4020 S   0  0  0  0  0  0  0  0  0  0  0  0
  130.2860  123.4940   57.7370 C   0  0  0  0  0  0  0  0  0  0  0  0
  128.9440  123.6670   57.6680 N   0  0  0  0  0  0  0  0  0  0  0  0
  128.1460  123.1320   58.6270 C   0  0  0  0  0  0  0  0  0  0  0  0
  126.6720  123.3550   58.4720 C   0  0  0  0  0  0  0  0  0  0  0  0
  126.0600  123.2410   57.2130 C   0  0  0  0  0  0  0  0  0  0  0  0
  124.6910  123.4460   57.0610 C   0  0  0  0  0  0  0  0  0  0  0  0
  123.9140  123.7680   58.1690 C   0  0  0  0  0  0  0  0  0  0  0  0
  124.4960  123.8840   59.4270 C   0  0  0  0  0  0  0  0  0  0  0  0
  125.8640  123.6760   59.5760 C   0  0  0  0  0  0  0  0  0  0  0  0
  128.6880  122.3940   59.6840 C   0  0  0  0  0  0  0  0  0  0  0  0
  130.0770  122.2160   59.7870 C   0  0  0  0  0  0  0  0  0  0  0  0
  130.6370  121.4080   60.9720 C   0  0  0  0  0  0  0  0  0  0  0  0
  131.5950  122.0580   61.6360 F   0  0  0  0  0  0  0  0  0  0  0  0
  129.6640  121.1350   61.8430 F   0  0  0  0  0  0  0  0  0  0  0  0
  131.1590  120.2610   60.5340 F   0  0  0  0  0  0  0  0  0  0  0  0
  130.9060  122.7910   58.7930 C   0  0  0  0  0  0  0  0  0  0  0  0
  132.3660  122.6860   58.8800 C   0  0  0  0  0  0  0  0  0  0  0  0
  133.5190  122.6040   58.9490 N   0  0  0  0  0  0  0  0  0  0  0  0
  130.2470  129.0720   57.3310 C   0  0  0  0  0  0  0  0  0  0  0  0
  130.1360  130.4580   57.3860 C   0  0  0  0  0  0  0  0  0  0  0  0
  1  2  1  0
  2  3  1  0
  3  4  1  0
  4  5  2  0
  4  6  1  0
  6  7  2  0
  7  8  1  0
  8  9  2  0
  9 10  1  0
 10 11  1  0
 11 12  2  0
 11 13  1  0
 13 14  1  0
 14 15  1  0
 15 16  2  0
 16 17  1  0
 17 18  1  0
 18 19  2  0
 19 20  1  0
 20 21  2  0
 21 22  1  0
 22 23  2  0
 17 24  2  0
 24 25  1  0
 25 26  1  0
 26 27  1  0
 26 28  1  0
 26 29  1  0
 25 30  2  0
 30 31  1  0
 31 32  3  0
  9 33  1  0
 33 34  2  0
 34  6  1  0
 30 15  1  0
 23 18  1  0
M  END
>  <Binding energies>  (27) 
[-7.81]

>  <Ligand effiencies>  (27) 
[-0.22314285714285714]

>  <Interactions>  (27) 
["V-B:ALA:541:CB:9860, V-B:TYR:539:CE2:9844, V-B:MET:535:CE:9803, V-B:PRO:540:CA:9851, V-A:TRP:381:CH2:3367, V-B:TYR:539:CD2:9842, V-B:ALA:541:CA:9858, V-B:PRO:540:N:9852, V-B:PRO:540:CB:9853, V-B:TYR:539:C:9835, V-B:TYR:539:CZ:9845, V-A:LEU:363:CD1:3184, V-A:TYR:539:CE1:4870, V-A:TYR:539:CD1:4868, V-A:PRO:540:CG:4881, H-A:TYR:531:OH:4790, V-A:TYR:539:CG:4867, V-A:PRO:540:CD:4882, V-A:ILE:538:CA:4855, V-A:PRO:540:CB:4880, V-A:LEU:475:CD2:4254, V-B:LEU:363:CA:8152, H-A:TYR:539:N:4865, H-A:LYS:534:NZ:4818, V-A:ILE:538:CG2:4858, V-B:LEU:363:CD1:8156, V-A:TYR:531:CE1:4787, V-A:TYR:531:CZ:4789, V-A:ILE:538:CD1:4860, V-A:ILE:538:CB:4857, V-B:ASP:366:CG:8180, V-B:LEU:363:CB:8154, H-B:TYR:539:OH:9846"]

$$$$
3ad_Grossjean_2025
     RDKit          3D

 29 31  0  0  0  0  0  0  0  0999 V2000
  124.2480  124.3830   57.4520 N   0  0  0  0  0  0  0  0  0  0  0  0
  125.1810  123.9910   58.0120 C   0  0  0  0  0  0  0  0  0  0  0  0
  126.3620  123.4930   58.7250 C   0  0  0  0  0  0  0  0  0  0  0  0
  126.4020  123.4850   60.1400 C   0  0  0  0  0  0  0  0  0  0  0  0
  125.2160  123.9450   61.0100 C   0  0  0  0  0  0  0  0  0  0  0  0
  124.0420  123.8300   60.3870 F   0  0  0  0  0  0  0  0  0  0  0  0
  125.1550  123.2090   62.1220 F   0  0  0  0  0  0  0  0  0  0  0  0
  125.3650  125.2270   61.3470 F   0  0  0  0  0  0  0  0  0  0  0  0
  127.5730  123.0430   60.7740 C   0  0  0  0  0  0  0  0  0  0  0  0
  128.6730  122.6250   60.0180 C   0  0  0  0  0  0  0  0  0  0  0  0
  129.9540  122.1580   60.6430 C   0  0  0  0  0  0  0  0  0  0  0  0
  130.3780  122.6720   61.8790 C   0  0  0  0  0  0  0  0  0  0  0  0
  131.5640  122.2420   62.4650 C   0  0  0  0  0  0  0  0  0  0  0  0
  132.3470  121.2880   61.8210 C   0  0  0  0  0  0  0  0  0  0  0  0
  131.9470  120.7610   60.5980 C   0  0  0  0  0  0  0  0  0  0  0  0
  130.7590  121.1930   60.0150 C   0  0  0  0  0  0  0  0  0  0  0  0
  128.6310  122.6410   58.6610 N   0  0  0  0  0  0  0  0  0  0  0  0
  127.5050  123.0440   58.0270 C   0  0  0  0  0  0  0  0  0  0  0  0
  127.6260  122.9880   56.2530 S   0  0  0  0  0  0  0  0  0  0  0  0
  128.4770  124.5040   55.7220 C   0  0  0  0  0  0  0  0  0  0  0  0
  129.9850  124.4390   55.9760 C   0  0  0  0  0  0  0  0  0  0  0  0
  130.7590  124.6660   55.0460 O   0  0  0  0  0  0  0  0  0  0  0  0
  130.3460  124.1290   57.2400 N   0  0  0  0  0  0  0  0  0  0  0  0
  131.6290  124.0020   57.8040 C   0  0  0  0  0  0  0  0  0  0  0  0
  131.7320  124.3450   59.1560 C   0  0  0  0  0  0  0  0  0  0  0  0
  132.9570  124.2600   59.8110 C   0  0  0  0  0  0  0  0  0  0  0  0
  134.0850  123.8350   59.1140 C   0  0  0  0  0  0  0  0  0  0  0  0
  133.9980  123.4970   57.7670 C   0  0  0  0  0  0  0  0  0  0  0  0
  132.7740  123.5810   57.1070 C   0  0  0  0  0  0  0  0  0  0  0  0
  1  2  3  0
  2  3  1  0
  3  4  2  0
  4  5  1  0
  5  6  1  0
  5  7  1  0
  5  8  1  0
  4  9  1  0
  9 10  2  0
 10 11  1  0
 11 12  2  0
 12 13  1  0
 13 14  2  0
 14 15  1  0
 15 16  2  0
 10 17  1  0
 17 18  2  0
 18 19  1  0
 19 20  1  0
 20 21  1  0
 21 22  2  0
 21 23  1  0
 23 24  1  0
 24 25  2  0
 25 26  1  0
 26 27  2  0
 27 28  1  0
 28 29  2  0
 18  3  1  0
 29 24  1  0
 16 11  1  0
M  END
>  <Binding energies>  (28) 
[-7.18]

>  <Ligand effiencies>  (28) 
[-0.23933333333333331]

>  <Interactions>  (28) 
["H-B:TYR:531:OH:9763, V-B:TYR:539:CE2:9844, V-B:MET:535:CE:9803, V-B:PRO:540:CA:9851, V-B:TYR:539:CD2:9842, V-B:ALA:541:CA:9858, V-B:PRO:540:N:9852, V-B:PRO:540:CB:9853, V-B:PRO:540:C:9849, V-B:TYR:539:C:9835, V-B:TYR:539:CZ:9845, V-A:ASP:366:CG:3208, V-B:GLU:543:CD:9876, V-B:ASN:362:CB:8143, V-A:ASP:366:CB:3207, V-A:ILE:369:CG2:3232, V-A:ILE:369:CD1:3234, V-A:LEU:475:CD2:4254, V-B:LEU:363:CA:8152, H-A:LYS:534:NZ:4818, V-A:ASP:366:C:3203, V-B:ASP:366:CG:8180, V-A:ILE:369:CB:3231, H-B:TYR:539:OH:9846, V-A:ASP:366:CA:3205, V-A:ILE:369:CG1:3233, V-B:ASN:362:C:8139, V-B:ALA:541:C:9856"]

$$$$
3ai_Grossjean_2025
     RDKit          3D

 28 30  0  0  0  0  0  0  0  0999 V2000
  133.9510  121.8230   62.6120 N   0  0  0  0  0  0  0  0  0  0  0  0
  132.9880  122.0090   61.9990 C   0  0  0  0  0  0  0  0  0  0  0  0
  131.7660  122.2460   61.2240 C   0  0  0  0  0  0  0  0  0  0  0  0
  130.5160  122.3970   61.8710 C   0  0  0  0  0  0  0  0  0  0  0  0
  130.3640  122.3690   63.4040 C   0  0  0  0  0  0  0  0  0  0  0  0
  129.1250  122.6590   63.8070 F   0  0  0  0  0  0  0  0  0  0  0  0
  130.6650  121.1550   63.8690 F   0  0  0  0  0  0  0  0  0  0  0  0
  131.1830  123.2610   63.9630 F   0  0  0  0  0  0  0  0  0  0  0  0
  129.3690  122.5740   61.0820 C   0  0  0  0  0  0  0  0  0  0  0  0
  129.4670  122.5970   59.6870 C   0  0  0  0  0  0  0  0  0  0  0  0
  128.2750  122.7720   58.7950 C   0  0  0  0  0  0  0  0  0  0  0  0
  127.0910  123.3480   59.2860 C   0  0  0  0  0  0  0  0  0  0  0  0
  125.9820  123.5170   58.4630 C   0  0  0  0  0  0  0  0  0  0  0  0
  126.0410  123.1150   57.1320 C   0  0  0  0  0  0  0  0  0  0  0  0
  127.2030  122.5450   56.6210 C   0  0  0  0  0  0  0  0  0  0  0  0
  128.3100  122.3770   57.4470 C   0  0  0  0  0  0  0  0  0  0  0  0
  130.6660  122.4440   59.0700 N   0  0  0  0  0  0  0  0  0  0  0  0
  131.7910  122.2960   59.8110 C   0  0  0  0  0  0  0  0  0  0  0  0
  133.2690  122.1320   58.8320 S   0  0  0  0  0  0  0  0  0  0  0  0
  133.7080  123.7860   58.1990 C   0  0  0  0  0  0  0  0  0  0  0  0
  132.9250  124.2340   56.9560 C   0  0  0  0  0  0  0  0  0  0  0  0
  133.4960  124.3880   55.8730 O   0  0  0  0  0  0  0  0  0  0  0  0
  131.6050  124.4360   57.1640 N   0  0  0  0  0  0  0  0  0  0  0  0
  130.6580  124.8350   56.2300 C   0  0  0  0  0  0  0  0  0  0  0  0
  129.5240  125.5750   56.5610 C   0  0  0  0  0  0  0  0  0  0  0  0
  128.8540  125.7580   55.3740 C   0  0  0  0  0  0  0  0  0  0  0  0
  129.5490  125.1590   54.3770 O   0  0  0  0  0  0  0  0  0  0  0  0
  130.6900  124.5780   54.9320 N   0  0  0  0  0  0  0  0  0  0  0  0
  1  2  3  0
  2  3  1  0
  3  4  2  0
  4  5  1  0
  5  6  1  0
  5  7  1  0
  5  8  1  0
  4  9  1  0
  9 10  2  0
 10 11  1  0
 11 12  2  0
 12 13  1  0
 13 14  2  0
 14 15  1  0
 15 16  2  0
 10 17  1  0
 17 18  2  0
 18 19  1  0
 19 20  1  0
 20 21  1  0
 21 22  2  0
 21 23  1  0
 23 24  1  0
 24 25  1  0
 25 26  2  0
 26 27  1  0
 27 28  1  0
 18  3  1  0
 28 24  2  0
 16 11  1  0
M  END
>  <Binding energies>  (29) 
[-7.6]

>  <Ligand effiencies>  (29) 
[-0.26206896551724135]

>  <Interactions>  (29) 
["V-B:ALA:541:CB:9860, V-B:TYR:539:CE2:9844, V-B:MET:535:CE:9803, V-B:PRO:540:CA:9851, V-B:TYR:539:CD2:9842, V-B:PRO:540:N:9852, V-B:PRO:540:CB:9853, V-B:TYR:539:C:9835, V-B:TYR:539:CZ:9845, V-A:ASP:366:CG:3208, H-A:GLY:454:N:4045, V-B:GLU:543:CD:9876, V-B:GLU:543:CG:9875, V-A:ASP:366:CB:3207, H-A:TYR:531:OH:4790, V-A:TYR:484:CZ:4342, V-A:ILE:369:CD1:3234, V-A:LEU:475:CD2:4254, H-A:LYS:534:NZ:4818, V-A:TYR:531:CE1:4787, V-A:TYR:531:CZ:4789, V-A:ASP:366:C:3203, V-A:TYR:484:CE1:4340, V-A:LEU:475:CD1:4253, V-A:ILE:369:CB:3231, H-B:TYR:539:OH:9846, V-B:TYR:539:CG:9840, V-A:ASP:366:CA:3205, V-A:LEU:475:CG:4252"]

$$$$
3aj_Grossjean_2025
     RDKit          3D

 28 30  0  0  0  0  0  0  0  0999 V2000
  133.9520  121.8990   62.5750 N   0  0  0  0  0  0  0  0  0  0  0  0
  132.9910  122.0760   61.9560 C   0  0  0  0  0  0  0  0  0  0  0  0
  131.7720  122.3020   61.1730 C   0  0  0  0  0  0  0  0  0  0  0  0
  130.5260  122.5020   61.8150 C   0  0  0  0  0  0  0  0  0  0  0  0
  130.3770  122.5390   63.3490 C   0  0  0  0  0  0  0  0  0  0  0  0
  131.0570  123.5410   63.9110 F   0  0  0  0  0  0  0  0  0  0  0  0
  129.0940  122.6870   63.6790 F   0  0  0  0  0  0  0  0  0  0  0  0
  130.8320  121.4030   63.8790 F   0  0  0  0  0  0  0  0  0  0  0  0
  129.3810  122.6670   61.0200 C   0  0  0  0  0  0  0  0  0  0  0  0
  129.4770  122.6290   59.6250 C   0  0  0  0  0  0  0  0  0  0  0  0
  128.2860  122.7890   58.7300 C   0  0  0  0  0  0  0  0  0  0  0  0
  127.1020  123.3670   59.2110 C   0  0  0  0  0  0  0  0  0  0  0  0
  125.9920  123.5230   58.3840 C   0  0  0  0  0  0  0  0  0  0  0  0
  126.0540  123.0990   57.0600 C   0  0  0  0  0  0  0  0  0  0  0  0
  127.2170  122.5230   56.5590 C   0  0  0  0  0  0  0  0  0  0  0  0
  128.3230  122.3710   57.3890 C   0  0  0  0  0  0  0  0  0  0  0  0
  130.6730  122.4290   59.0140 N   0  0  0  0  0  0  0  0  0  0  0  0
  131.7960  122.2920   59.7590 C   0  0  0  0  0  0  0  0  0  0  0  0
  133.2690  122.0630   58.7870 S   0  0  0  0  0  0  0  0  0  0  0  0
  133.6090  123.6260   57.9100 C   0  0  0  0  0  0  0  0  0  0  0  0
  132.3790  124.5090   57.6550 C   0  0  0  0  0  0  0  0  0  0  0  0
  132.0440  125.3750   58.4670 O   0  0  0  0  0  0  0  0  0  0  0  0
  131.7290  124.2510   56.4980 N   0  0  0  0  0  0  0  0  0  0  0  0
  130.5980  124.9000   56.0200 C   0  0  0  0  0  0  0  0  0  0  0  0
  130.2430  125.0860   54.7670 N   0  0  0  0  0  0  0  0  0  0  0  0
  129.1020  125.7420   54.6780 C   0  0  0  0  0  0  0  0  0  0  0  0
  128.5050  126.1040   55.8820 C   0  0  0  0  0  0  0  0  0  0  0  0
  129.5010  125.5520   57.1950 S   0  0  0  0  0  0  0  0  0  0  0  0
  1  2  3  0
  2  3  1  0
  3  4  2  0
  4  5  1  0
  5  6  1  0
  5  7  1  0
  5  8  1  0
  4  9  1  0
  9 10  2  0
 10 11  1  0
 11 12  2  0
 12 13  1  0
 13 14  2  0
 14 15  1  0
 15 16  2  0
 10 17  1  0
 17 18  2  0
 18 19  1  0
 19 20  1  0
 20 21  1  0
 21 22  2  0
 21 23  1  0
 23 24  1  0
 24 25  2  0
 25 26  1  0
 26 27  2  0
 27 28  1  0
 18  3  1  0
 28 24  1  0
 16 11  1  0
M  END
>  <Binding energies>  (30) 
[-7.02]

>  <Ligand effiencies>  (30) 
[-0.24206896551724136]

>  <Interactions>  (30) 
["V-B:ALA:541:CB:9860, V-B:TYR:539:CE2:9844, V-B:MET:535:CE:9803, V-B:PRO:540:CA:9851, V-B:TYR:539:CD2:9842, V-B:PRO:540:N:9852, V-B:PRO:540:CB:9853, V-B:TYR:539:C:9835, V-B:TYR:539:CZ:9845, H-A:GLY:454:N:4045, V-B:GLU:543:CD:9876, V-B:GLU:543:CG:9875, V-A:ASP:366:CB:3207, H-A:TYR:531:OH:4790, V-A:TYR:484:CZ:4342, V-A:ILE:369:CD1:3234, V-A:LEU:475:CD2:4254, H-A:LYS:534:NZ:4818, V-A:TYR:531:CE1:4787, V-A:TYR:531:CZ:4789, V-A:ASP:366:C:3203, V-A:TYR:484:CE1:4340, V-A:LEU:475:CD1:4253, V-A:ILE:369:CB:3231, H-B:TYR:539:OH:9846, V-B:TYR:539:CG:9840, V-A:ASP:366:CA:3205, V-A:LEU:475:CG:4252"]

$$$$
3ak_Grossjean_2025
     RDKit          3D

 33 34  0  0  0  0  0  0  0  0999 V2000
  133.8540  125.2840   65.7210 C   0  0  0  0  0  0  0  0  0  0  0  0
  134.3330  124.7630   64.4910 O   0  0  0  0  0  0  0  0  0  0  0  0
  133.4190  124.9230   63.4160 C   0  0  0  0  0  0  0  0  0  0  0  0
  132.0330  125.2530   63.9830 C   0  0  0  0  0  0  0  0  0  0  0  0
  131.1650  125.6030   62.9100 O   0  0  0  0  0  0  0  0  0  0  0  0
  131.7930  125.7690   61.6410 C   0  0  0  0  0  0  0  0  0  0  0  0
  130.8080  126.0730   60.4970 C   0  0  0  0  0  0  0  0  0  0  0  0
  130.9260  125.0680   59.5000 O   0  0  0  0  0  0  0  0  0  0  0  0
  132.2120  125.0020   58.8980 C   0  0  0  0  0  0  0  0  0  0  0  0
  132.0950  124.4950   57.4490 C   0  0  0  0  0  0  0  0  0  0  0  0
  130.7160  124.2470   57.0240 N   0  0  0  0  0  0  0  0  0  0  0  0
  130.2490  124.3350   55.7640 C   0  0  0  0  0  0  0  0  0  0  0  0
  130.9660  124.6270   54.8060 O   0  0  0  0  0  0  0  0  0  0  0  0
  128.7580  124.0610   55.5060 C   0  0  0  0  0  0  0  0  0  0  0  0
  128.0650  122.5390   56.2500 S   0  0  0  0  0  0  0  0  0  0  0  0
  127.9410  122.7690   58.0170 C   0  0  0  0  0  0  0  0  0  0  0  0
  129.0600  122.4810   58.7250 N   0  0  0  0  0  0  0  0  0  0  0  0
  129.0630  122.6190   60.0760 C   0  0  0  0  0  0  0  0  0  0  0  0
  130.3430  122.2790   60.7790 C   0  0  0  0  0  0  0  0  0  0  0  0
  130.4240  122.3170   62.1790 C   0  0  0  0  0  0  0  0  0  0  0  0
  131.6090  121.9990   62.8380 C   0  0  0  0  0  0  0  0  0  0  0  0
  132.7320  121.6360   62.1020 C   0  0  0  0  0  0  0  0  0  0  0  0
  132.6780  121.5880   60.7140 C   0  0  0  0  0  0  0  0  0  0  0  0
  131.4910  121.9050   60.0580 C   0  0  0  0  0  0  0  0  0  0  0  0
  127.9250  123.0730   60.7520 C   0  0  0  0  0  0  0  0  0  0  0  0
  126.7550  123.3790   60.0430 C   0  0  0  0  0  0  0  0  0  0  0  0
  125.5210  123.8740   60.8230 C   0  0  0  0  0  0  0  0  0  0  0  0
  125.4240  123.2250   61.9830 F   0  0  0  0  0  0  0  0  0  0  0  0
  125.6290  125.1810   61.0670 F   0  0  0  0  0  0  0  0  0  0  0  0
  124.3780  123.6850   60.1600 F   0  0  0  0  0  0  0  0  0  0  0  0
  126.7560  123.2240   58.6360 C   0  0  0  0  0  0  0  0  0  0  0  0
  125.5610  123.5290   57.8430 C   0  0  0  0  0  0  0  0  0  0  0  0
  124.6170  123.7690   57.2160 N   0  0  0  0  0  0  0  0  0  0  0  0
  1  2  1  0
  2  3  1  0
  3  4  1  0
  4  5  1  0
  5  6  1  0
  6  7  1  0
  7  8  1  0
  8  9  1  0
  9 10  1  0
 10 11  1  0
 11 12  1  0
 12 13  2  0
 12 14  1  0
 14 15  1  0
 15 16  1  0
 16 17  2  0
 17 18  1  0
 18 19  1  0
 19 20  2  0
 20 21  1  0
 21 22  2  0
 22 23  1  0
 23 24  2  0
 18 25  2  0
 25 26  1  0
 26 27  1  0
 27 28  1  0
 27 29  1  0
 27 30  1  0
 26 31  2  0
 31 32  1  0
 32 33  3  0
 31 16  1  0
 24 19  1  0
M  END
>  <Binding energies>  (31) 
[-5.98]

>  <Ligand effiencies>  (31) 
[-0.1758823529411765]

>  <Interactions>  (31) 
["V-B:ALA:541:CB:9860, V-B:TYR:539:CE2:9844, V-B:MET:535:CE:9803, V-B:PRO:540:CA:9851, V-B:ALA:541:CA:9858, V-B:PRO:540:N:9852, V-B:PRO:540:CB:9853, V-B:PRO:540:C:9849, V-B:TYR:539:C:9835, V-B:TYR:539:CZ:9845, V-A:ASP:366:CG:3208, H-A:TYR:484:OH:4343, H-A:GLY:454:N:4045, V-B:GLU:543:CD:9876, V-A:ARG:545:CZ:4921, V-A:ASP:366:CB:3207, V-A:ARG:545:CD:4918, V-A:ARG:545:CG:4917, V-A:ILE:369:CD1:3234, V-A:LEU:475:CD2:4254, H-A:LYS:534:NZ:4818, V-A:TYR:531:CZ:4789, V-B:ASP:366:CG:8180, H-B:TYR:539:OH:9846, H-A:ARG:545:NH1:4922, V-B:ALA:541:C:9856"]

$$$$
3bk_Grossjean_2025
     RDKit          3D

 30 31  0  0  0  0  0  0  0  0999 V2000
  129.8430  132.9060   57.1900 C   0  0  0  0  0  0  0  0  0  0  0  0
  130.4770  133.3480   55.9990 O   0  0  0  0  0  0  0  0  0  0  0  0
  130.8740  132.2860   55.1420 C   0  0  0  0  0  0  0  0  0  0  0  0
  130.2440  132.4800   53.7560 C   0  0  0  0  0  0  0  0  0  0  0  0
  128.9680  131.8550   53.7280 O   0  0  0  0  0  0  0  0  0  0  0  0
  128.9200  130.6150   54.4200 C   0  0  0  0  0  0  0  0  0  0  0  0
  127.8150  130.6710   55.4830 C   0  0  0  0  0  0  0  0  0  0  0  0
  127.7610  129.4290   56.1730 O   0  0  0  0  0  0  0  0  0  0  0  0
  128.3920  128.3590   55.4820 C   0  0  0  0  0  0  0  0  0  0  0  0
  128.0100  127.0280   56.1440 C   0  0  0  0  0  0  0  0  0  0  0  0
  129.1340  126.0910   56.2020 N   0  0  0  0  0  0  0  0  0  0  0  0
  129.7810  125.5820   55.1400 C   0  0  0  0  0  0  0  0  0  0  0  0
  129.5080  125.8660   53.9720 O   0  0  0  0  0  0  0  0  0  0  0  0
  130.9330  124.6200   55.4400 C   0  0  0  0  0  0  0  0  0  0  0  0
  131.5190  124.7730   57.1570 S   0  0  0  0  0  0  0  0  0  0  0  0
  130.4670  123.7990   58.2190 C   0  0  0  0  0  0  0  0  0  0  0  0
  129.1350  123.8850   57.9760 N   0  0  0  0  0  0  0  0  0  0  0  0
  128.2570  123.1800   58.7370 C   0  0  0  0  0  0  0  0  0  0  0  0
  126.8060  123.3160   58.3870 C   0  0  0  0  0  0  0  0  0  0  0  0
  125.8900  123.8410   59.3130 C   0  0  0  0  0  0  0  0  0  0  0  0
  124.5400  123.9640   58.9950 C   0  0  0  0  0  0  0  0  0  0  0  0
  124.0860  123.5640   57.7430 C   0  0  0  0  0  0  0  0  0  0  0  0
  124.9730  123.0440   56.8060 C   0  0  0  0  0  0  0  0  0  0  0  0
  126.3220  122.9230   57.1270 C   0  0  0  0  0  0  0  0  0  0  0  0
  128.7080  122.3540   59.7730 C   0  0  0  0  0  0  0  0  0  0  0  0
  130.0790  122.2550   60.0390 C   0  0  0  0  0  0  0  0  0  0  0  0
  130.5280  121.3430   61.1800 C   0  0  0  0  0  0  0  0  0  0  0  0
  130.9890  122.9890   59.2510 C   0  0  0  0  0  0  0  0  0  0  0  0
  132.4300  122.9020   59.5050 C   0  0  0  0  0  0  0  0  0  0  0  0
  133.5680  122.8340   59.7060 N   0  0  0  0  0  0  0  0  0  0  0  0
  1  2  1  0
  2  3  1  0
  3  4  1  0
  4  5  1  0
  5  6  1  0
  6  7  1  0
  7  8  1  0
  8  9  1  0
  9 10  1  0
 10 11  1  0
 11 12  1  0
 12 13  2  0
 12 14  1  0
 14 15  1  0
 15 16  1  0
 16 17  2  0
 17 18  1  0
 18 19  1  0
 19 20  2  0
 20 21  1  0
 21 22  2  0
 22 23  1  0
 23 24  2  0
 18 25  2  0
 25 26  1  0
 26 27  1  0
 26 28  2  0
 28 29  1  0
 29 30  3  0
 28 16  1  0
 24 19  1  0
M  END
>  <Binding energies>  (32) 
[-6.62]

>  <Ligand effiencies>  (32) 
[-0.2135483870967742]

>  <Interactions>  (32) 
["V-B:ALA:541:CB:9860, V-B:TYR:539:CE2:9844, V-B:MET:535:CE:9803, V-B:PRO:540:CD:9855, V-B:PRO:540:CA:9851, V-B:PRO:540:N:9852, V-B:PRO:540:CB:9853, V-B:TYR:539:C:9835, V-B:TYR:539:CZ:9845, V-A:PRO:540:N:4879, V-A:TYR:539:CE1:4870, V-A:TYR:539:C:4862, V-A:TYR:539:CD1:4868, V-A:PRO:540:CA:4878, H-A:TYR:531:OH:4790, V-A:TYR:539:CG:4867, V-A:PRO:540:CD:4882, V-A:ILE:538:CA:4855, V-B:LEU:363:CA:8152, H-A:TYR:539:N:4865, H-A:LYS:534:NZ:4818, V-B:LEU:363:CD1:8156, V-A:TYR:531:CE1:4787, V-A:TYR:531:CZ:4789, V-A:ILE:538:CD1:4860, V-A:VAL:537:C:4845, V-A:MET:535:CB:4827, V-A:MET:535:CG:4828, V-B:LEU:363:CB:8154, H-B:TYR:539:OH:9846"]

$$$$
3cb_Grossjean_2025
     RDKit          3D

 30 32  0  0  0  0  0  0  0  0999 V2000
  124.7340  124.0130   57.7800 C   0  0  0  0  0  0  0  0  0  0  0  0
  125.9760  123.9920   57.0920 O   0  0  0  0  0  0  0  0  0  0  0  0
  126.7160  122.8560   57.0210 C   0  0  0  0  0  0  0  0  0  0  0  0
  126.4580  121.9230   56.2550 O   0  0  0  0  0  0  0  0  0  0  0  0
  127.8810  122.8460   57.9690 C   0  0  0  0  0  0  0  0  0  0  0  0
  129.2080  122.9260   57.5190 C   0  0  0  0  0  0  0  0  0  0  0  0
  130.2640  122.9170   58.4250 C   0  0  0  0  0  0  0  0  0  0  0  0
  130.0210  122.8230   59.7960 C   0  0  0  0  0  0  0  0  0  0  0  0
  131.1630  122.8260   60.6220 N   0  0  0  0  0  0  0  0  0  0  0  0
  132.0990  121.8700   60.8120 C   0  0  0  0  0  0  0  0  0  0  0  0
  132.1160  120.7770   60.2450 O   0  0  0  0  0  0  0  0  0  0  0  0
  133.2020  122.2500   61.8110 C   0  0  0  0  0  0  0  0  0  0  0  0
  133.6480  124.0200   61.8300 S   0  0  0  0  0  0  0  0  0  0  0  0
  133.2990  124.6530   63.4570 C   0  0  0  0  0  0  0  0  0  0  0  0
  134.3700  124.6290   64.2870 N   0  0  0  0  0  0  0  0  0  0  0  0
  134.2230  125.0860   65.5500 C   0  0  0  0  0  0  0  0  0  0  0  0
  135.4660  125.0400   66.4180 C   0  0  0  0  0  0  0  0  0  0  0  0
  133.0130  125.5750   66.0340 C   0  0  0  0  0  0  0  0  0  0  0  0
  131.8870  125.5950   65.1990 C   0  0  0  0  0  0  0  0  0  0  0  0
  130.6100  126.1250   65.7670 C   0  0  0  0  0  0  0  0  0  0  0  0
  129.8260  127.0170   65.0250 C   0  0  0  0  0  0  0  0  0  0  0  0
  128.6290  127.5070   65.5400 C   0  0  0  0  0  0  0  0  0  0  0  0
  128.2070  127.1020   66.8040 C   0  0  0  0  0  0  0  0  0  0  0  0
  128.9700  126.2100   67.5520 C   0  0  0  0  0  0  0  0  0  0  0  0
  130.1650  125.7200   67.0330 C   0  0  0  0  0  0  0  0  0  0  0  0
  132.0230  125.1060   63.8740 C   0  0  0  0  0  0  0  0  0  0  0  0
  130.8580  125.0160   62.9880 C   0  0  0  0  0  0  0  0  0  0  0  0
  129.9390  124.9460   62.2880 N   0  0  0  0  0  0  0  0  0  0  0  0
  128.6970  122.7470   60.2550 C   0  0  0  0  0  0  0  0  0  0  0  0
  127.6410  122.7570   59.3480 C   0  0  0  0  0  0  0  0  0  0  0  0
  1  2  1  0
  2  3  1  0
  3  4  2  0
  3  5  1  0
  5  6  2  0
  6  7  1  0
  7  8  2  0
  8  9  1  0
  9 10  1  0
 10 11  2  0
 10 12  1  0
 12 13  1  0
 13 14  1  0
 14 15  2  0
 15 16  1  0
 16 17  1  0
 16 18  2  0
 18 19  1  0
 19 20  1  0
 20 21  2  0
 21 22  1  0
 22 23  2  0
 23 24  1  0
 24 25  2  0
 19 26  2  0
 26 27  1  0
 27 28  3  0
  8 29  1  0
 29 30  2  0
 30  5  1  0
 26 14  1  0
 25 20  1  0
M  END
>  <Binding energies>  (33) 
[-8.33]

>  <Ligand effiencies>  (33) 
[-0.26870967741935486]

>  <Interactions>  (33) 
["V-B:TYR:539:CE2:9844, V-B:MET:535:CE:9803, V-B:PRO:540:CA:9851, V-B:TYR:539:CD2:9842, V-B:PRO:540:N:9852, V-B:PRO:540:CB:9853, V-B:TYR:539:C:9835, V-B:TYR:539:CZ:9845, V-A:HIS:456:CE1:4064, H-A:TYR:484:OH:4343, H-A:GLY:454:N:4045, V-B:GLU:543:CD:9876, V-B:GLU:543:CG:9875, V-A:ARG:545:CZ:4921, V-B:GLU:543:CB:9874, V-A:GLU:543:CD:4903, V-A:ARG:545:CD:4918, V-A:GLY:454:CA:4044, V-A:ARG:545:CG:4917, V-A:GLY:453:CA:4039, V-A:GLY:453:C:4037, V-A:HIS:456:CD2:4063, V-A:ILE:369:CD1:3234, V-A:LEU:475:CD2:4254, V-B:LEU:363:CD1:8156, H-B:TYR:539:N:9838, H-A:ARG:545:NH1:4922, V-A:ILE:455:C:4047"]

$$$$
3ch_Grossjean_2025
     RDKit          3D

 32 34  0  0  0  0  0  0  0  0999 V2000
  129.1590  123.7610   55.9330 C   0  0  0  0  0  0  0  0  0  0  0  0
  128.6440  122.6920   56.7190 O   0  0  0  0  0  0  0  0  0  0  0  0
  128.7750  122.7320   58.0950 C   0  0  0  0  0  0  0  0  0  0  0  0
  130.0080  122.7430   58.7670 C   0  0  0  0  0  0  0  0  0  0  0  0
  130.0650  122.7940   60.1670 C   0  0  0  0  0  0  0  0  0  0  0  0
  131.2500  122.8130   60.9260 N   0  0  0  0  0  0  0  0  0  0  0  0
  132.1990  121.8630   61.0690 C   0  0  0  0  0  0  0  0  0  0  0  0
  132.1950  120.7610   60.5190 O   0  0  0  0  0  0  0  0  0  0  0  0
  133.3800  122.2390   61.9630 C   0  0  0  0  0  0  0  0  0  0  0  0
  133.7510  124.0170   61.8970 S   0  0  0  0  0  0  0  0  0  0  0  0
  133.3340  124.6670   63.5000 C   0  0  0  0  0  0  0  0  0  0  0  0
  134.3540  124.6270   64.3930 N   0  0  0  0  0  0  0  0  0  0  0  0
  134.1360  125.0910   65.6440 C   0  0  0  0  0  0  0  0  0  0  0  0
  135.3170  125.0110   66.5930 C   0  0  0  0  0  0  0  0  0  0  0  0
  132.9080  125.6070   66.0500 C   0  0  0  0  0  0  0  0  0  0  0  0
  131.8430  125.6650   65.1400 C   0  0  0  0  0  0  0  0  0  0  0  0
  130.5410  126.2180   65.6230 C   0  0  0  0  0  0  0  0  0  0  0  0
  130.0240  125.8180   66.8610 C   0  0  0  0  0  0  0  0  0  0  0  0
  128.8080  126.3220   67.3140 C   0  0  0  0  0  0  0  0  0  0  0  0
  128.1000  127.2270   66.5270 C   0  0  0  0  0  0  0  0  0  0  0  0
  128.5970  127.6290   65.2900 C   0  0  0  0  0  0  0  0  0  0  0  0
  129.8140  127.1220   64.8400 C   0  0  0  0  0  0  0  0  0  0  0  0
  132.0620  125.2000   63.8180 C   0  0  0  0  0  0  0  0  0  0  0  0
  131.0150  125.3230   62.7990 C   0  0  0  0  0  0  0  0  0  0  0  0
  130.1890  125.4190   61.9950 N   0  0  0  0  0  0  0  0  0  0  0  0
  128.8730  122.8140   60.8940 C   0  0  0  0  0  0  0  0  0  0  0  0
  127.6280  122.8010   60.2470 C   0  0  0  0  0  0  0  0  0  0  0  0
  126.4120  122.8270   60.9080 O   0  0  0  0  0  0  0  0  0  0  0  0
  125.7550  124.0730   61.1160 C   0  0  0  0  0  0  0  0  0  0  0  0
  127.5930  122.7580   58.8470 C   0  0  0  0  0  0  0  0  0  0  0  0
  126.3800  122.7630   58.2000 O   0  0  0  0  0  0  0  0  0  0  0  0
  125.9730  124.0450   57.7420 C   0  0  0  0  0  0  0  0  0  0  0  0
  1  2  1  0
  2  3  1  0
  3  4  2  0
  4  5  1  0
  5  6  1  0
  6  7  1  0
  7  8  2  0
  7  9  1  0
  9 10  1  0
 10 11  1  0
 11 12  2  0
 12 13  1  0
 13 14  1  0
 13 15  2  0
 15 16  1  0
 16 17  1  0
 17 18  2  0
 18 19  1  0
 19 20  2  0
 20 21  1  0
 21 22  2  0
 16 23  2  0
 23 24  1  0
 24 25  3  0
  5 26  2  0
 26 27  1  0
 27 28  1  0
 28 29  1  0
 27 30  2  0
 30 31  1  0
 31 32  1  0
 30  3  1  0
 23 11  1  0
 22 17  1  0
M  END
>  <Binding energies>  (34) 
[-7.62]

>  <Ligand effiencies>  (34) 
[-0.23090909090909092]

>  <Interactions>  (34) 
["V-B:TYR:539:CE2:9844, V-B:MET:535:CE:9803, V-B:PRO:540:CA:9851, V-B:TYR:539:CD2:9842, V-B:PRO:540:N:9852, V-B:PRO:540:C:9849, V-B:TYR:539:CE1:9843, V-B:TYR:539:C:9835, V-B:TYR:539:CZ:9845, V-A:HIS:456:CE1:4064, H-A:TYR:484:OH:4343, H-A:GLY:454:N:4045, V-B:GLU:543:CD:9876, V-B:GLU:543:CG:9875, V-A:ARG:545:CZ:4921, V-B:GLU:543:CB:9874, V-A:GLU:543:CD:4903, H-B:ALA:541:N:9859, V-A:ARG:545:CD:4918, V-A:GLY:454:CA:4044, V-A:ARG:545:CG:4917, V-A:GLY:453:CA:4039, V-A:GLY:453:C:4037, V-A:HIS:456:CD2:4063, V-A:ILE:369:CD1:3234, V-A:LEU:475:CD2:4254, V-A:ILE:455:C:4047"]

$$$$
3ci_Grossjean_2025
     RDKit          3D

 25 27  0  0  0  0  0  0  0  0999 V2000
  130.2540  118.7060   61.7140 C   0  0  0  0  0  0  0  0  0  0  0  0
  130.2940  120.0600   61.0290 C   0  0  0  0  0  0  0  0  0  0  0  0
  129.1330  120.7850   60.7760 C   0  0  0  0  0  0  0  0  0  0  0  0
  129.2220  122.0390   60.1550 C   0  0  0  0  0  0  0  0  0  0  0  0
  127.9520  122.7880   59.9170 C   0  0  0  0  0  0  0  0  0  0  0  0
  127.2180  123.3140   60.9880 C   0  0  0  0  0  0  0  0  0  0  0  0
  126.0300  124.0040   60.7610 C   0  0  0  0  0  0  0  0  0  0  0  0
  125.5670  124.1660   59.4590 C   0  0  0  0  0  0  0  0  0  0  0  0
  126.2800  123.6430   58.3830 C   0  0  0  0  0  0  0  0  0  0  0  0
  127.4670  122.9530   58.6140 C   0  0  0  0  0  0  0  0  0  0  0  0
  130.5060  122.5220   59.7930 C   0  0  0  0  0  0  0  0  0  0  0  0
  130.6570  123.8080   59.1030 C   0  0  0  0  0  0  0  0  0  0  0  0
  130.7750  124.8230   58.5590 N   0  0  0  0  0  0  0  0  0  0  0  0
  131.6340  121.7220   60.0930 C   0  0  0  0  0  0  0  0  0  0  0  0
  133.3000  122.2430   59.7020 S   0  0  0  0  0  0  0  0  0  0  0  0
  133.6610  123.8140   60.5530 C   0  0  0  0  0  0  0  0  0  0  0  0
  133.3430  123.7810   62.0520 C   0  0  0  0  0  0  0  0  0  0  0  0
  132.8630  122.7570   62.5430 O   0  0  0  0  0  0  0  0  0  0  0  0
  133.6080  124.9180   62.7340 N   0  0  0  0  0  0  0  0  0  0  0  0
  133.4410  125.1410   64.0930 C   0  0  0  0  0  0  0  0  0  0  0  0
  132.2670  125.6580   64.6400 C   0  0  0  0  0  0  0  0  0  0  0  0
  132.5030  125.7290   65.9940 C   0  0  0  0  0  0  0  0  0  0  0  0
  133.7550  125.2770   66.2480 O   0  0  0  0  0  0  0  0  0  0  0  0
  134.3390  124.9090   65.0360 N   0  0  0  0  0  0  0  0  0  0  0  0
  131.5220  120.5100   60.6940 N   0  0  0  0  0  0  0  0  0  0  0  0
  1  2  1  0
  2  3  2  0
  3  4  1  0
  4  5  1  0
  5  6  2  0
  6  7  1  0
  7  8  2  0
  8  9  1  0
  9 10  2  0
  4 11  2  0
 11 12  1  0
 12 13  3  0
 11 14  1  0
 14 15  1  0
 15 16  1  0
 16 17  1  0
 17 18  2  0
 17 19  1  0
 19 20  1  0
 20 21  1  0
 21 22  2  0
 22 23  1  0
 23 24  1  0
 14 25  2  0
 25  2  1  0
 10  5  1  0
 24 20  2  0
M  END
>  <Binding energies>  (35) 
[-7.85]

>  <Ligand effiencies>  (35) 
[-0.3019230769230769]

>  <Interactions>  (35) 
["V-B:ALA:541:CB:9860, V-B:TYR:539:CE2:9844, V-B:PRO:540:CA:9851, V-A:TRP:381:CH2:3367, V-B:TYR:539:CD2:9842, V-B:ALA:541:CA:9858, V-B:PRO:540:N:9852, V-B:PRO:540:CB:9853, V-B:PRO:540:C:9849, V-B:TYR:539:C:9835, V-A:ASP:366:CG:3208, H-A:ARG:545:NE:4919, H-A:TYR:484:OH:4343, H-A:GLY:454:N:4045, V-B:GLU:543:CD:9876, V-A:ARG:545:CZ:4921, H-A:HIS:456:NE2:4065, V-A:ASP:366:CB:3207, H-A:ASP:366:OD2:3210, V-A:ILE:369:CD1:3234, V-A:LEU:475:CD2:4254, V-A:TRP:381:CZ2:3365, V-A:PRO:482:CB:4321, V-A:LEU:475:CD1:4253, H-A:ASP:366:OD1:3209, V-A:LEU:475:CG:4252"]

$$$$
3ck_Grossjean_2025
     RDKit          3D

 30 31  0  0  0  0  0  0  0  0999 V2000
  129.9080  125.2120   55.6810 C   0  0  0  0  0  0  0  0  0  0  0  0
  129.1620  124.4460   54.7480 O   0  0  0  0  0  0  0  0  0  0  0  0
  128.8350  123.1450   55.2160 C   0  0  0  0  0  0  0  0  0  0  0  0
  127.9420  123.2550   56.4590 C   0  0  0  0  0  0  0  0  0  0  0  0
  126.8170  122.4000   56.3070 O   0  0  0  0  0  0  0  0  0  0  0  0
  125.7740  122.6480   57.2410 C   0  0  0  0  0  0  0  0  0  0  0  0
  124.8090  123.6830   56.6510 C   0  0  0  0  0  0  0  0  0  0  0  0
  125.4640  124.9430   56.6270 O   0  0  0  0  0  0  0  0  0  0  0  0
  125.7980  125.4660   57.9040 C   0  0  0  0  0  0  0  0  0  0  0  0
  126.9750  126.4490   57.7670 C   0  0  0  0  0  0  0  0  0  0  0  0
  127.0500  127.1010   56.4550 N   0  0  0  0  0  0  0  0  0  0  0  0
  127.8890  128.0990   56.1230 C   0  0  0  0  0  0  0  0  0  0  0  0
  128.7240  128.5660   56.8990 O   0  0  0  0  0  0  0  0  0  0  0  0
  127.7480  128.6300   54.6870 C   0  0  0  0  0  0  0  0  0  0  0  0
  127.3230  130.4000   54.5450 S   0  0  0  0  0  0  0  0  0  0  0  0
  128.4060  131.3480   55.6040 C   0  0  0  0  0  0  0  0  0  0  0  0
  129.4950  131.8840   54.9990 N   0  0  0  0  0  0  0  0  0  0  0  0
  130.3600  132.6110   55.7420 C   0  0  0  0  0  0  0  0  0  0  0  0
  131.5550  133.1750   54.9980 C   0  0  0  0  0  0  0  0  0  0  0  0
  130.1780  132.8300   57.1050 C   0  0  0  0  0  0  0  0  0  0  0  0
  129.0640  132.2810   57.7520 C   0  0  0  0  0  0  0  0  0  0  0  0
  128.9220  132.5230   59.2190 C   0  0  0  0  0  0  0  0  0  0  0  0
  129.7470  131.8470   60.1260 C   0  0  0  0  0  0  0  0  0  0  0  0
  129.6130  132.0610   61.4970 C   0  0  0  0  0  0  0  0  0  0  0  0
  128.6480  132.9470   61.9650 C   0  0  0  0  0  0  0  0  0  0  0  0
  127.8140  133.6210   61.0760 C   0  0  0  0  0  0  0  0  0  0  0  0
  127.9500  133.4060   59.7070 C   0  0  0  0  0  0  0  0  0  0  0  0
  128.1410  131.5270   56.9820 C   0  0  0  0  0  0  0  0  0  0  0  0
  126.9340  130.9630   57.5980 C   0  0  0  0  0  0  0  0  0  0  0  0
  125.9820  130.5190   58.0840 N   0  0  0  0  0  0  0  0  0  0  0  0
  1  2  1  0
  2  3  1  0
  3  4  1  0
  4  5  1  0
  5  6  1  0
  6  7  1  0
  7  8  1  0
  8  9  1  0
  9 10  1  0
 10 11  1  0
 11 12  1  0
 12 13  2  0
 12 14  1  0
 14 15  1  0
 15 16  1  0
 16 17  2  0
 17 18  1  0
 18 19  1  0
 18 20  2  0
 20 21  1  0
 21 22  1  0
 22 23  2  0
 23 24  1  0
 24 25  2  0
 25 26  1  0
 26 27  2  0
 21 28  2  0
 28 29  1  0
 29 30  3  0
 28 16  1  0
 27 22  1  0
M  END
>  <Binding energies>  (36) 
[-6.66]

>  <Ligand effiencies>  (36) 
[-0.21483870967741936]

>  <Interactions>  (36) 
["H-B:TYR:531:OH:9763, V-B:TYR:539:CE2:9844, V-B:MET:535:CE:9803, V-B:PRO:540:CD:9855, V-B:PRO:540:CA:9851, V-B:PRO:540:N:9852, V-B:PRO:540:CB:9853, V-B:TYR:539:CE1:9843, V-B:TYR:539:C:9835, V-B:TYR:539:CZ:9845, V-A:TYR:539:CZ:4872, V-A:PRO:540:N:4879, V-A:TYR:539:CE1:4870, V-A:TYR:539:C:4862, V-A:TYR:539:CD1:4868, V-A:PRO:540:CA:4878, V-A:TYR:539:CG:4867, V-A:PRO:540:CD:4882, V-A:ILE:538:CA:4855, V-A:PRO:540:CB:4880, V-A:TYR:539:CE2:4871, V-A:TYR:539:CD2:4869, H-A:LYS:534:NZ:4818, V-A:ILE:538:CG2:4858, V-B:LEU:363:CD1:8156, V-A:TYR:531:CE1:4787, V-A:ILE:538:CD1:4860, V-A:ALA:541:CB:4887, V-A:ILE:538:C:4853, V-A:ILE:538:CB:4857, V-A:MET:535:CG:4828, H-B:TYR:539:N:9838, H-A:TYR:539:OH:4873, V-B:TYR:531:CE2:9761, V-B:TYR:539:CD1:9841, H-B:MET:535:SD:9802"]

$$$$
4aa_Grossjean_2025
     RDKit          3D

 26 28  0  0  0  0  0  0  0  0999 V2000
  129.5540  129.0870   69.0050 C   0  0  0  0  0  0  0  0  0  0  0  0
  129.5320  127.9290   68.0020 C   0  0  0  0  0  0  0  0  0  0  0  0
  128.2460  127.3230   68.0090 O   0  0  0  0  0  0  0  0  0  0  0  0
  127.2630  127.7530   67.1760 C   0  0  0  0  0  0  0  0  0  0  0  0
  126.0590  127.5960   67.4040 O   0  0  0  0  0  0  0  0  0  0  0  0
  127.7860  128.4360   65.9450 C   0  0  0  0  0  0  0  0  0  0  0  0
  128.2360  127.6590   64.8700 C   0  0  0  0  0  0  0  0  0  0  0  0
  128.7310  128.2620   63.7170 C   0  0  0  0  0  0  0  0  0  0  0  0
  128.7780  129.6530   63.6110 C   0  0  0  0  0  0  0  0  0  0  0  0
  129.3040  130.1570   62.4060 N   0  0  0  0  0  0  0  0  0  0  0  0
  129.8240  131.3750   62.1220 C   0  0  0  0  0  0  0  0  0  0  0  0
  129.8800  132.3080   62.9240 O   0  0  0  0  0  0  0  0  0  0  0  0
  130.3130  131.5420   60.7520 C   0  0  0  0  0  0  0  0  0  0  0  0
  129.3820  132.4820   59.5830 S   0  0  0  0  0  0  0  0  0  0  0  0
  130.5480  132.1570   58.3220 C   0  0  0  0  0  0  0  0  0  0  0  0
  130.4020  132.6350   57.0850 N   0  0  0  0  0  0  0  0  0  0  0  0
  131.3760  132.3040   56.2010 C   0  0  0  0  0  0  0  0  0  0  0  0
  131.1880  132.8540   54.7990 C   0  0  0  0  0  0  0  0  0  0  0  0
  132.4810  131.5200   56.5220 C   0  0  0  0  0  0  0  0  0  0  0  0
  132.6310  131.0210   57.8210 C   0  0  0  0  0  0  0  0  0  0  0  0
  133.8550  130.1690   58.1240 C   0  0  0  0  0  0  0  0  0  0  0  0
  131.6290  131.3420   58.7750 C   0  0  0  0  0  0  0  0  0  0  0  0
  131.4670  131.0020   60.1640 C   0  0  0  0  0  0  0  0  0  0  0  0
  132.3740  130.2220   60.8360 N   0  0  0  0  0  0  0  0  0  0  0  0
  128.3350  130.4400   64.6840 C   0  0  0  0  0  0  0  0  0  0  0  0
  127.8430  129.8340   65.8380 C   0  0  0  0  0  0  0  0  0  0  0  0
  1  2  1  0
  2  3  1  0
  3  4  1  0
  4  5  2  0
  4  6  1  0
  6  7  2  0
  7  8  1  0
  8  9  2  0
  9 10  1  0
 10 11  1  0
 11 12  2  0
 11 13  1  0
 13 14  1  0
 14 15  1  0
 15 16  2  0
 16 17  1  0
 17 18  1  0
 17 19  2  0
 19 20  1  0
 20 21  1  0
 20 22  2  0
 22 23  1  0
 23 24  1  0
  9 25  1  0
 25 26  2  0
 26  6  1  0
 23 13  2  0
 22 15  1  0
M  END
>  <Binding energies>  (37) 
[-7.15]

>  <Ligand effiencies>  (37) 
[-0.24655172413793106]

>  <Interactions>  (37) 
["H-A:GLU:543:OE2:4905, V-B:GLU:543:CD:9876, V-B:GLU:543:CB:9874, V-A:GLU:543:CD:4903, V-A:LEU:363:CD1:3184, V-A:PRO:540:N:4879, V-A:LEU:363:CA:3180, V-A:ASP:366:CB:3207, V-A:PRO:540:CA:4878, V-A:LEU:363:CB:3182, H-A:ALA:541:N:4886, V-A:PRO:540:CD:4882, V-A:ILE:538:CA:4855, H-A:ASP:366:OD2:3210, V-A:TYR:531:CE2:4788, V-A:PRO:540:CB:4880, V-A:GLU:543:CB:4901, V-B:HIS:456:CE1:9037, V-A:ILE:538:CG2:4858, V-A:TYR:531:CZ:4789, V-A:GLU:543:CG:4902, V-A:ILE:538:CD1:4860, V-A:ILE:538:CB:4857, V-A:GLU:543:C:4897"]

$$$$
4ab_Grossjean_2025
     RDKit          3D

 25 27  0  0  0  0  0  0  0  0999 V2000
  123.8710  124.8120   57.6330 C   0  0  0  0  0  0  0  0  0  0  0  0
  124.6840  124.3100   56.5810 O   0  0  0  0  0  0  0  0  0  0  0  0
  125.5880  123.3230   56.8070 C   0  0  0  0  0  0  0  0  0  0  0  0
  125.5490  122.2230   56.2460 O   0  0  0  0  0  0  0  0  0  0  0  0
  126.6370  123.6980   57.8140 C   0  0  0  0  0  0  0  0  0  0  0  0
  127.0470  122.7500   58.7600 C   0  0  0  0  0  0  0  0  0  0  0  0
  128.0160  123.0690   59.7080 C   0  0  0  0  0  0  0  0  0  0  0  0
  128.6010  124.3350   59.7230 C   0  0  0  0  0  0  0  0  0  0  0  0
  129.5640  124.5500   60.7280 N   0  0  0  0  0  0  0  0  0  0  0  0
  130.8180  125.0550   60.6410 C   0  0  0  0  0  0  0  0  0  0  0  0
  131.3590  125.3900   59.5870 O   0  0  0  0  0  0  0  0  0  0  0  0
  131.5360  125.1650   61.9130 C   0  0  0  0  0  0  0  0  0  0  0  0
  133.2220  124.6560   62.0300 S   0  0  0  0  0  0  0  0  0  0  0  0
  133.2710  125.0470   63.7340 C   0  0  0  0  0  0  0  0  0  0  0  0
  134.3710  124.8710   64.4680 N   0  0  0  0  0  0  0  0  0  0  0  0
  134.2750  125.2110   65.7760 C   0  0  0  0  0  0  0  0  0  0  0  0
  135.5350  124.9990   66.5940 C   0  0  0  0  0  0  0  0  0  0  0  0
  133.1180  125.7210   66.3620 C   0  0  0  0  0  0  0  0  0  0  0  0
  131.9650  125.9040   65.5890 C   0  0  0  0  0  0  0  0  0  0  0  0
  130.7270  126.4620   66.2740 C   0  0  0  0  0  0  0  0  0  0  0  0
  132.0260  125.5550   64.2130 C   0  0  0  0  0  0  0  0  0  0  0  0
  131.0530  125.6050   63.1550 C   0  0  0  0  0  0  0  0  0  0  0  0
  129.7710  126.0520   63.3610 N   0  0  0  0  0  0  0  0  0  0  0  0
  128.1940  125.2930   58.7820 C   0  0  0  0  0  0  0  0  0  0  0  0
  127.2230  124.9730   57.8370 C   0  0  0  0  0  0  0  0  0  0  0  0
  1  2  1  0
  2  3  1  0
  3  4  2  0
  3  5  1  0
  5  6  2  0
  6  7  1  0
  7  8  2  0
  8  9  1  0
  9 10  1  0
 10 11  2  0
 10 12  1  0
 12 13  1  0
 13 14  1  0
 14 15  2  0
 15 16  1  0
 16 17  1  0
 16 18  2  0
 18 19  1  0
 19 20  1  0
 19 21  2  0
 21 22  1  0
 22 23  1  0
  8 24  1  0
 24 25  2  0
 25  5  1  0
 22 12  2  0
 21 14  1  0
M  END
>  <Binding energies>  (38) 
[-7.06]

>  <Ligand effiencies>  (38) 
[-0.2521428571428571]

>  <Interactions>  (38) 
["H-B:TYR:531:OH:9763, V-B:MET:535:CE:9803, V-B:PRO:540:CA:9851, V-B:PRO:540:N:9852, V-B:PRO:540:CB:9853, V-B:TYR:539:C:9835, V-A:HIS:456:CE1:4064, V-A:ASP:366:CG:3208, H-A:ARG:545:NE:4919, H-A:TYR:484:OH:4343, H-A:GLY:454:N:4045, H-A:GLU:543:OE1:4904, V-B:GLU:543:CD:9876, V-A:ARG:545:CZ:4921, V-A:GLU:543:CD:4903, H-B:GLU:543:OE2:9878, V-A:ARG:545:CD:4918, V-A:GLY:454:CA:4044, V-A:ARG:545:CG:4917, V-A:GLY:453:CA:4039, V-A:GLY:453:C:4037, V-A:HIS:456:CD2:4063, V-B:LEU:363:CA:8152, V-B:LEU:363:CD1:8156, H-B:TYR:539:N:9838, V-B:ASP:366:CG:8180, V-B:TYR:531:CZ:9762, V-B:ASP:366:CB:8179, V-B:TYR:531:CE2:9761, H-A:ARG:545:NH1:4922, V-A:ILE:455:C:4047"]

$$$$
4ac_Grossjean_2025
     RDKit          3D

 23 25  0  0  0  0  0  0  0  0999 V2000
  125.0080  122.3430   56.5180 C   0  0  0  0  0  0  0  0  0  0  0  0
  126.3730  122.0400   56.2480 O   0  0  0  0  0  0  0  0  0  0  0  0
  127.3360  122.3790   57.1780 C   0  0  0  0  0  0  0  0  0  0  0  0
  126.8760  122.7570   58.4400 C   0  0  0  0  0  0  0  0  0  0  0  0
  127.7730  123.1160   59.4430 C   0  0  0  0  0  0  0  0  0  0  0  0
  129.1470  123.0920   59.1980 C   0  0  0  0  0  0  0  0  0  0  0  0
  129.9750  123.4830   60.2660 N   0  0  0  0  0  0  0  0  0  0  0  0
  131.1310  124.1890   60.2400 C   0  0  0  0  0  0  0  0  0  0  0  0
  131.6730  124.5870   59.2070 O   0  0  0  0  0  0  0  0  0  0  0  0
  131.7310  124.4590   61.5490 C   0  0  0  0  0  0  0  0  0  0  0  0
  133.4230  124.0630   61.8540 S   0  0  0  0  0  0  0  0  0  0  0  0
  133.3140  124.6520   63.4980 C   0  0  0  0  0  0  0  0  0  0  0  0
  134.3580  124.6260   64.3270 N   0  0  0  0  0  0  0  0  0  0  0  0
  134.1400  125.1110   65.5730 C   0  0  0  0  0  0  0  0  0  0  0  0
  135.3400  125.0730   66.5020 C   0  0  0  0  0  0  0  0  0  0  0  0
  132.9140  125.6150   66.0060 C   0  0  0  0  0  0  0  0  0  0  0  0
  131.8210  125.6410   65.1320 C   0  0  0  0  0  0  0  0  0  0  0  0
  130.5050  126.2000   65.6500 C   0  0  0  0  0  0  0  0  0  0  0  0
  132.0130  125.1420   63.8160 C   0  0  0  0  0  0  0  0  0  0  0  0
  131.1300  125.0220   62.6870 C   0  0  0  0  0  0  0  0  0  0  0  0
  129.8190  125.4260   62.7360 N   0  0  0  0  0  0  0  0  0  0  0  0
  129.6170  122.7250   57.9280 C   0  0  0  0  0  0  0  0  0  0  0  0
  128.7160  122.3680   56.9280 C   0  0  0  0  0  0  0  0  0  0  0  0
  1  2  1  0
  2  3  1  0
  3  4  2  0
  4  5  1  0
  5  6  2  0
  6  7  1  0
  7  8  1  0
  8  9  2  0
  8 10  1  0
 10 11  1  0
 11 12  1  0
 12 13  2  0
 13 14  1  0
 14 15  1  0
 14 16  2  0
 16 17  1  0
 17 18  1  0
 17 19  2  0
 19 20  1  0
 20 21  1  0
  6 22  1  0
 22 23  2  0
 23  3  1  0
 20 10  2  0
 19 12  1  0
M  END
>  <Binding energies>  (39) 
[-7.15]

>  <Ligand effiencies>  (39) 
[-0.275]

>  <Interactions>  (39) 
["V-B:TYR:539:CE2:9844, V-B:MET:535:CE:9803, V-B:PRO:540:CD:9855, V-B:PRO:540:CA:9851, V-B:TYR:539:CD2:9842, V-B:PRO:540:N:9852, V-B:PRO:540:CB:9853, V-B:TYR:539:CE1:9843, V-B:TYR:539:C:9835, V-B:TYR:539:CZ:9845, V-A:ASP:366:CG:3208, H-A:TYR:484:OH:4343, H-A:GLY:454:N:4045, V-B:GLU:543:CD:9876, V-A:ARG:545:CZ:4921, H-B:GLU:543:OE2:9878, V-A:ARG:545:CD:4918, V-A:GLY:454:CA:4044, V-A:ARG:545:CG:4917, V-A:GLY:453:CA:4039, V-A:GLY:453:C:4037, V-A:HIS:456:CD2:4063, V-A:ILE:369:CD1:3234, V-B:LEU:363:CD1:8156, H-B:TYR:539:N:9838, V-B:PRO:540:CG:9854, V-B:ILE:538:CG2:9831, V-B:TYR:539:CD1:9841, V-B:TYR:539:CA:9837, V-B:TYR:539:CG:9840, H-A:ARG:545:NH1:4922, V-A:ILE:455:C:4047"]

$$$$
4ad_Grossjean_2025
     RDKit          3D

 21 23  0  0  0  0  0  0  0  0999 V2000
  131.1000  132.8800   54.6290 C   0  0  0  0  0  0  0  0  0  0  0  0
  131.2260  132.3780   56.0550 C   0  0  0  0  0  0  0  0  0  0  0  0
  132.2960  131.5720   56.4400 C   0  0  0  0  0  0  0  0  0  0  0  0
  132.3910  131.1180   57.7610 C   0  0  0  0  0  0  0  0  0  0  0  0
  133.5760  130.2390   58.1330 C   0  0  0  0  0  0  0  0  0  0  0  0
  131.3710  131.5070   58.6710 C   0  0  0  0  0  0  0  0  0  0  0  0
  131.1580  131.2300   60.0660 C   0  0  0  0  0  0  0  0  0  0  0  0
  132.0260  130.4600   60.7990 N   0  0  0  0  0  0  0  0  0  0  0  0
  129.9970  131.8160   60.5940 C   0  0  0  0  0  0  0  0  0  0  0  0
  129.4710  131.7290   61.9570 C   0  0  0  0  0  0  0  0  0  0  0  0
  129.8770  132.4920   62.8370 O   0  0  0  0  0  0  0  0  0  0  0  0
  128.5250  130.7790   62.1560 N   0  0  0  0  0  0  0  0  0  0  0  0
  127.8580  130.4120   63.3410 C   0  0  0  0  0  0  0  0  0  0  0  0
  126.4930  130.1360   63.2140 C   0  0  0  0  0  0  0  0  0  0  0  0
  125.7480  129.7560   64.3260 C   0  0  0  0  0  0  0  0  0  0  0  0
  126.3690  129.6420   65.5670 C   0  0  0  0  0  0  0  0  0  0  0  0
  127.7310  129.9010   65.7040 C   0  0  0  0  0  0  0  0  0  0  0  0
  128.4780  130.2830   64.5940 C   0  0  0  0  0  0  0  0  0  0  0  0
  129.1340  132.7390   59.3620 S   0  0  0  0  0  0  0  0  0  0  0  0
  130.3280  132.3330   58.1520 C   0  0  0  0  0  0  0  0  0  0  0  0
  130.2360  132.7670   56.8940 N   0  0  0  0  0  0  0  0  0  0  0  0
  1  2  1  0
  2  3  2  0
  3  4  1  0
  4  5  1  0
  4  6  2  0
  6  7  1  0
  7  8  1  0
  7  9  2  0
  9 10  1  0
 10 11  2  0
 10 12  1  0
 12 13  1  0
 13 14  2  0
 14 15  1  0
 15 16  2  0
 16 17  1  0
 17 18  2  0
  9 19  1  0
 19 20  1  0
 20 21  2  0
 21  2  1  0
 20  6  1  0
 18 13  1  0
M  END
>  <Binding energies>  (40) 
[-6.74]

>  <Ligand effiencies>  (40) 
[-0.2808333333333333]

>  <Interactions>  (40) 
["H-A:GLU:543:OE2:4905, V-A:GLU:543:CD:4903, V-A:LEU:363:CD1:3184, V-A:PRO:540:N:4879, V-A:LEU:363:CA:3180, V-A:TYR:539:C:4862, V-A:PRO:540:CA:4878, H-A:ALA:541:N:4886, V-A:PRO:540:CD:4882, V-A:ILE:538:CA:4855, H-A:ASP:366:OD2:3210, V-A:TYR:531:CE2:4788, V-A:PRO:540:CB:4880, V-B:HIS:456:CE1:9037, H-A:TYR:539:N:4865, V-A:ILE:538:CG2:4858, V-A:TYR:531:CZ:4789, V-A:GLU:543:CG:4902, V-A:ILE:538:CD1:4860, V-A:ILE:538:CB:4857"]

$$$$
4ae_Grossjean_2025
     RDKit          3D

 22 24  0  0  0  0  0  0  0  0999 V2000
  128.7290  130.2900   67.1220 C   0  0  0  0  0  0  0  0  0  0  0  0
  127.9990  130.0700   65.8110 C   0  0  0  0  0  0  0  0  0  0  0  0
  126.7290  129.4910   65.7690 C   0  0  0  0  0  0  0  0  0  0  0  0
  126.1210  129.3120   64.5260 C   0  0  0  0  0  0  0  0  0  0  0  0
  126.7910  129.7110   63.3670 C   0  0  0  0  0  0  0  0  0  0  0  0
  128.0590  130.2930   63.4810 C   0  0  0  0  0  0  0  0  0  0  0  0
  128.6910  130.6550   62.2790 N   0  0  0  0  0  0  0  0  0  0  0  0
  129.5390  131.6880   62.0440 C   0  0  0  0  0  0  0  0  0  0  0  0
  129.8840  132.5000   62.9030 O   0  0  0  0  0  0  0  0  0  0  0  0
  130.0340  131.7920   60.6700 C   0  0  0  0  0  0  0  0  0  0  0  0
  129.1350  132.7170   59.4660 S   0  0  0  0  0  0  0  0  0  0  0  0
  130.2950  132.3180   58.2210 C   0  0  0  0  0  0  0  0  0  0  0  0
  130.1640  132.7530   56.9680 N   0  0  0  0  0  0  0  0  0  0  0  0
  131.1280  132.3670   56.0990 C   0  0  0  0  0  0  0  0  0  0  0  0
  130.9550  132.8680   54.6770 C   0  0  0  0  0  0  0  0  0  0  0  0
  132.2130  131.5650   56.4510 C   0  0  0  0  0  0  0  0  0  0  0  0
  132.3490  131.1110   57.7680 C   0  0  0  0  0  0  0  0  0  0  0  0
  133.5470  130.2350   58.1030 C   0  0  0  0  0  0  0  0  0  0  0  0
  131.3540  131.4940   58.7080 C   0  0  0  0  0  0  0  0  0  0  0  0
  131.1820  131.2100   60.1080 C   0  0  0  0  0  0  0  0  0  0  0  0
  132.0700  130.4380   60.8140 N   0  0  0  0  0  0  0  0  0  0  0  0
  128.6620  130.4640   64.6940 N   0  0  0  0  0  0  0  0  0  0  0  0
  1  2  1  0
  2  3  2  0
  3  4  1  0
  4  5  2  0
  5  6  1  0
  6  7  1  0
  7  8  1  0
  8  9  2  0
  8 10  1  0
 10 11  1  0
 11 12  1  0
 12 13  2  0
 13 14  1  0
 14 15  1  0
 14 16  2  0
 16 17  1  0
 17 18  1  0
 17 19  2  0
 19 20  1  0
 20 21  1  0
  6 22  2  0
 22  2  1  0
 20 10  2  0
 19 12  1  0
M  END
>  <Binding energies>  (41) 
[-6.98]

>  <Ligand effiencies>  (41) 
[-0.2792]

>  <Interactions>  (41) 
["H-A:GLU:543:OE2:4905, V-A:GLU:543:CD:4903, V-A:LEU:363:CD1:3184, V-A:PRO:540:N:4879, V-A:LEU:363:CA:3180, V-A:TYR:539:C:4862, V-A:PRO:540:CA:4878, H-A:ALA:541:N:4886, V-A:PRO:540:CD:4882, V-A:ILE:538:CA:4855, H-A:ASP:366:OD2:3210, V-A:TYR:531:CE2:4788, V-A:PRO:540:CB:4880, V-A:GLU:543:CB:4901, V-B:HIS:456:CE1:9037, H-A:TYR:539:N:4865, V-A:ILE:538:CG2:4858, V-A:TYR:531:CZ:4789, H-B:TYR:484:OH:9315, V-A:GLU:543:CG:4902, V-A:ILE:538:CD1:4860, V-A:ILE:538:CB:4857, V-A:GLU:543:CA:4899, V-B:TYR:484:CZ:9314, V-B:TYR:484:CE1:9312"]

$$$$
4af_Grossjean_2025
     RDKit          3D

 21 23  0  0  0  0  0  0  0  0999 V2000
  130.5130  132.8790   55.4940 C   0  0  0  0  0  0  0  0  0  0  0  0
  130.4510  132.4680   56.9540 C   0  0  0  0  0  0  0  0  0  0  0  0
  131.4970  131.7640   57.5460 C   0  0  0  0  0  0  0  0  0  0  0  0
  131.4170  131.3930   58.8940 C   0  0  0  0  0  0  0  0  0  0  0  0
  132.5830  130.6240   59.4950 C   0  0  0  0  0  0  0  0  0  0  0  0
  130.2470  131.7570   59.6130 C   0  0  0  0  0  0  0  0  0  0  0  0
  129.8400  131.5410   60.9760 C   0  0  0  0  0  0  0  0  0  0  0  0
  130.6290  130.8720   61.8780 N   0  0  0  0  0  0  0  0  0  0  0  0
  128.5800  132.0750   61.2870 C   0  0  0  0  0  0  0  0  0  0  0  0
  127.8510  132.0140   62.5560 C   0  0  0  0  0  0  0  0  0  0  0  0
  128.1240  132.7890   63.4730 O   0  0  0  0  0  0  0  0  0  0  0  0
  126.8770  131.0730   62.6200 N   0  0  0  0  0  0  0  0  0  0  0  0
  126.0370  130.7260   63.6950 C   0  0  0  0  0  0  0  0  0  0  0  0
  126.3800  129.8650   64.7530 C   0  0  0  0  0  0  0  0  0  0  0  0
  125.4430  129.5900   65.7510 C   0  0  0  0  0  0  0  0  0  0  0  0
  124.1810  130.1800   65.6650 C   0  0  0  0  0  0  0  0  0  0  0  0
  123.8240  131.0080   64.6510 N   0  0  0  0  0  0  0  0  0  0  0  0
  124.7450  131.2650   63.6890 C   0  0  0  0  0  0  0  0  0  0  0  0
  127.8580  132.8630   59.8820 S   0  0  0  0  0  0  0  0  0  0  0  0
  129.2480  132.4770   58.8920 C   0  0  0  0  0  0  0  0  0  0  0  0
  129.3210  132.8330   57.6090 N   0  0  0  0  0  0  0  0  0  0  0  0
  1  2  1  0
  2  3  2  0
  3  4  1  0
  4  5  1  0
  4  6  2  0
  6  7  1  0
  7  8  1  0
  7  9  2  0
  9 10  1  0
 10 11  2  0
 10 12  1  0
 12 13  1  0
 13 14  2  0
 14 15  1  0
 15 16  2  0
 16 17  1  0
 17 18  2  0
  9 19  1  0
 19 20  1  0
 20 21  2  0
 21  2  1  0
 20  6  1  0
 18 13  1  0
M  END
>  <Binding energies>  (42) 
[-6.6]

>  <Ligand effiencies>  (42) 
[-0.27499999999999997]

>  <Interactions>  (42) 
["H-A:GLU:543:OE2:4905, V-A:GLU:543:CD:4903, V-A:PRO:540:N:4879, V-A:TYR:539:C:4862, V-A:TYR:539:CD1:4868, V-A:PRO:540:CA:4878, V-A:PRO:540:CD:4882, V-A:ILE:538:CA:4855, V-A:PRO:540:CB:4880, V-A:TYR:539:CE2:4871, V-A:TYR:539:CD2:4869, V-B:HIS:456:CE1:9037, H-B:TYR:484:OH:9315, V-A:GLU:543:CG:4902, V-B:ARG:545:CD:9891, H-B:GLY:454:N:9017"]

$$$$
4ag_Grossjean_2025
     RDKit          3D

 22 24  0  0  0  0  0  0  0  0999 V2000
  129.5090  121.2650   61.2220 C   0  0  0  0  0  0  0  0  0  0  0  0
  130.0660  122.0520   60.0500 C   0  0  0  0  0  0  0  0  0  0  0  0
  131.4380  122.1040   59.8090 C   0  0  0  0  0  0  0  0  0  0  0  0
  131.9300  122.8350   58.7220 C   0  0  0  0  0  0  0  0  0  0  0  0
  133.4350  122.8610   58.5000 C   0  0  0  0  0  0  0  0  0  0  0  0
  130.9910  123.5050   57.8940 C   0  0  0  0  0  0  0  0  0  0  0  0
  131.1440  124.3250   56.7230 C   0  0  0  0  0  0  0  0  0  0  0  0
  132.3720  124.6040   56.1770 N   0  0  0  0  0  0  0  0  0  0  0  0
  129.9330  124.8050   56.2030 C   0  0  0  0  0  0  0  0  0  0  0  0
  129.7200  125.6480   55.0270 C   0  0  0  0  0  0  0  0  0  0  0  0
  129.1120  125.2310   54.0380 O   0  0  0  0  0  0  0  0  0  0  0  0
  130.2410  126.8920   55.0850 N   0  0  0  0  0  0  0  0  0  0  0  0
  130.1270  127.9090   54.0400 C   0  0  0  0  0  0  0  0  0  0  0  0
  130.6640  129.2760   54.4460 C   0  0  0  0  0  0  0  0  0  0  0  0
  131.6380  129.9010   53.6620 C   0  0  0  0  0  0  0  0  0  0  0  0
  132.1130  131.1620   54.0160 C   0  0  0  0  0  0  0  0  0  0  0  0
  131.6040  131.7980   55.1470 C   0  0  0  0  0  0  0  0  0  0  0  0
  130.6220  131.1880   55.9230 C   0  0  0  0  0  0  0  0  0  0  0  0
  130.1460  129.9280   55.5690 C   0  0  0  0  0  0  0  0  0  0  0  0
  128.5590  124.2400   57.1530 S   0  0  0  0  0  0  0  0  0  0  0  0
  129.6140  123.3730   58.2470 C   0  0  0  0  0  0  0  0  0  0  0  0
  129.1420  122.6760   59.2810 N   0  0  0  0  0  0  0  0  0  0  0  0
  1  2  1  0
  2  3  2  0
  3  4  1  0
  4  5  1  0
  4  6  2  0
  6  7  1  0
  7  8  1  0
  7  9  2  0
  9 10  1  0
 10 11  2  0
 10 12  1  0
 12 13  1  0
 13 14  1  0
 14 15  2  0
 15 16  1  0
 16 17  2  0
 17 18  1  0
 18 19  2  0
  9 20  1  0
 20 21  1  0
 21 22  2  0
 22  2  1  0
 21  6  1  0
 19 14  1  0
M  END
>  <Binding energies>  (43) 
[-7.58]

>  <Ligand effiencies>  (43) 
[-0.3032]

>  <Interactions>  (43) 
["V-B:ALA:541:CB:9860, V-B:TYR:539:CE2:9844, V-B:TYR:539:CD2:9842, V-B:TYR:539:CZ:9845, V-A:LEU:363:CD1:3184, H-A:TYR:531:OH:4790, V-A:TYR:531:CE2:4788, V-A:ILE:369:CG2:3232, V-A:ILE:369:CD1:3234, H-A:LYS:534:NZ:4818, V-A:TYR:531:CE1:4787, V-A:TYR:531:CZ:4789, V-A:ILE:538:CD1:4860, V-A:ILE:369:CB:3231, H-B:TYR:539:OH:9846, H-A:ASN:370:OD1:3242, V-A:TYR:531:CD1:4785, H-A:ASP:366:O:3204"]

$$$$
4ah_Grossjean_2025
     RDKit          3D

 28 30  0  0  0  0  0  0  0  0999 V2000
  132.4950  132.9200   55.8690 C   0  0  0  0  0  0  0  0  0  0  0  0
  131.8120  132.4160   54.7280 O   0  0  0  0  0  0  0  0  0  0  0  0
  130.8260  131.4590   54.8950 C   0  0  0  0  0  0  0  0  0  0  0  0
  130.9070  130.1530   54.3870 C   0  0  0  0  0  0  0  0  0  0  0  0
  129.8710  129.2410   54.5930 C   0  0  0  0  0  0  0  0  0  0  0  0
  129.9980  127.8120   54.0740 C   0  0  0  0  0  0  0  0  0  0  0  0
  130.1100  126.8120   55.1350 N   0  0  0  0  0  0  0  0  0  0  0  0
  129.6930  125.5310   55.0490 C   0  0  0  0  0  0  0  0  0  0  0  0
  129.1280  125.0820   54.0500 O   0  0  0  0  0  0  0  0  0  0  0  0
  129.9120  124.7050   56.2350 C   0  0  0  0  0  0  0  0  0  0  0  0
  128.5410  124.1620   57.2030 S   0  0  0  0  0  0  0  0  0  0  0  0
  129.6020  123.3550   58.3360 C   0  0  0  0  0  0  0  0  0  0  0  0
  129.1340  122.6900   59.3920 N   0  0  0  0  0  0  0  0  0  0  0  0
  130.0620  122.1090   60.1890 C   0  0  0  0  0  0  0  0  0  0  0  0
  129.5070  121.3600   61.3870 C   0  0  0  0  0  0  0  0  0  0  0  0
  131.4340  122.1750   59.9580 C   0  0  0  0  0  0  0  0  0  0  0  0
  131.9240  122.8760   58.8490 C   0  0  0  0  0  0  0  0  0  0  0  0
  133.4300  122.9210   58.6390 C   0  0  0  0  0  0  0  0  0  0  0  0
  130.9800  123.5010   57.9900 C   0  0  0  0  0  0  0  0  0  0  0  0
  131.1290  124.2860   56.7940 C   0  0  0  0  0  0  0  0  0  0  0  0
  132.3560  124.5810   56.2570 N   0  0  0  0  0  0  0  0  0  0  0  0
  128.7550  129.6230   55.3370 C   0  0  0  0  0  0  0  0  0  0  0  0
  128.6440  130.9240   55.8520 C   0  0  0  0  0  0  0  0  0  0  0  0
  127.5600  131.3750   56.5840 O   0  0  0  0  0  0  0  0  0  0  0  0
  126.5460  130.4520   56.9690 C   0  0  0  0  0  0  0  0  0  0  0  0
  129.6840  131.8340   55.6180 C   0  0  0  0  0  0  0  0  0  0  0  0
  129.5970  133.1060   56.1330 O   0  0  0  0  0  0  0  0  0  0  0  0
  129.5500  133.1540   57.5520 C   0  0  0  0  0  0  0  0  0  0  0  0
  1  2  1  0
  2  3  1  0
  3  4  2  0
  4  5  1  0
  5  6  1  0
  6  7  1  0
  7  8  1  0
  8  9  2  0
  8 10  1  0
 10 11  1  0
 11 12  1  0
 12 13  2  0
 13 14  1  0
 14 15  1  0
 14 16  2  0
 16 17  1  0
 17 18  1  0
 17 19  2  0
 19 20  1  0
 20 21  1  0
  5 22  2  0
 22 23  1  0
 23 24  1  0
 24 25  1  0
 23 26  2  0
 26 27  1  0
 27 28  1  0
 26  3  1  0
 20 10  2  0
 19 12  1  0
M  END
>  <Binding energies>  (44) 
[-7.66]

>  <Ligand effiencies>  (44) 
[-0.2470967741935484]

>  <Interactions>  (44) 
["V-B:ALA:541:CB:9860, V-B:TYR:539:CE2:9844, V-B:TYR:539:CZ:9845, V-A:TYR:539:CZ:4872, V-A:LEU:363:CD1:3184, V-A:PRO:540:N:4879, V-A:TYR:539:CE1:4870, V-A:TYR:539:C:4862, V-A:TYR:539:CD1:4868, V-A:PRO:540:CG:4881, V-A:PRO:540:CA:4878, H-A:TYR:531:OH:4790, V-A:TYR:539:CA:4864, V-A:TYR:539:CG:4867, V-A:PRO:540:CD:4882, V-A:PRO:540:CB:4880, V-A:TYR:539:CD2:4869, V-A:ILE:369:CG2:3232, V-A:ILE:369:CD1:3234, H-A:TYR:539:N:4865, H-A:LYS:534:NZ:4818, V-A:ILE:538:CG2:4858, V-A:TYR:531:CE1:4787, V-A:TYR:531:CZ:4789, V-A:MET:535:CG:4828, H-A:TYR:539:OH:4873, V-A:ILE:369:CB:3231, H-B:TYR:539:OH:9846, H-A:ASP:366:O:3204"]

$$$$
4ai_Grossjean_2025
     RDKit          3D

 20 22  0  0  0  0  0  0  0  0999 V2000
  130.9740  132.6620   54.4190 C   0  0  0  0  0  0  0  0  0  0  0  0
  131.1030  132.2710   55.8800 C   0  0  0  0  0  0  0  0  0  0  0  0
  132.1550  131.4690   56.3180 C   0  0  0  0  0  0  0  0  0  0  0  0
  132.2580  131.1260   57.6710 C   0  0  0  0  0  0  0  0  0  0  0  0
  133.4250  130.2500   58.1000 C   0  0  0  0  0  0  0  0  0  0  0  0
  131.2640  131.6210   58.5580 C   0  0  0  0  0  0  0  0  0  0  0  0
  131.0670  131.4700   59.9740 C   0  0  0  0  0  0  0  0  0  0  0  0
  131.9160  130.7280   60.7570 N   0  0  0  0  0  0  0  0  0  0  0  0
  129.9430  132.1490   60.4700 C   0  0  0  0  0  0  0  0  0  0  0  0
  129.4440  132.2030   61.8460 C   0  0  0  0  0  0  0  0  0  0  0  0
  129.1280  133.2780   62.3590 O   0  0  0  0  0  0  0  0  0  0  0  0
  129.3480  131.0050   62.4760 N   0  0  0  0  0  0  0  0  0  0  0  0
  128.9000  130.7640   63.7680 C   0  0  0  0  0  0  0  0  0  0  0  0
  128.5380  129.4970   64.2260 C   0  0  0  0  0  0  0  0  0  0  0  0
  128.1550  129.6840   65.5340 C   0  0  0  0  0  0  0  0  0  0  0  0
  128.2800  130.9950   65.8480 O   0  0  0  0  0  0  0  0  0  0  0  0
  128.7540  131.6700   64.7220 N   0  0  0  0  0  0  0  0  0  0  0  0
  129.0800  132.9810   59.1750 S   0  0  0  0  0  0  0  0  0  0  0  0
  130.2390  132.4320   57.9850 C   0  0  0  0  0  0  0  0  0  0  0  0
  130.1370  132.7600   56.6960 N   0  0  0  0  0  0  0  0  0  0  0  0
  1  2  1  0
  2  3  2  0
  3  4  1  0
  4  5  1  0
  4  6  2  0
  6  7  1  0
  7  8  1  0
  7  9  2  0
  9 10  1  0
 10 11  2  0
 10 12  1  0
 12 13  1  0
 13 14  1  0
 14 15  2  0
 15 16  1  0
 16 17  1  0
  9 18  1  0
 18 19  1  0
 19 20  2  0
 20  2  1  0
 19  6  1  0
 17 13  2  0
M  END
>  <Binding energies>  (45) 
[-6.62]

>  <Ligand effiencies>  (45) 
[-0.28782608695652173]

>  <Interactions>  (45) 
["H-A:GLU:543:OE2:4905, V-A:GLU:543:CD:4903, V-A:LEU:363:CD1:3184, V-A:PRO:540:N:4879, V-A:LEU:363:CA:3180, V-A:TYR:539:C:4862, V-A:PRO:540:CA:4878, H-A:ALA:541:N:4886, V-A:PRO:540:CD:4882, V-A:ILE:538:CA:4855, H-A:ASP:366:OD2:3210, V-A:TYR:531:CE2:4788, V-A:PRO:540:CB:4880, H-A:TYR:539:N:4865, V-A:ILE:538:CG2:4858, V-A:TYR:531:CZ:4789, H-B:TYR:484:OH:9315, V-A:GLU:543:CG:4902, V-A:ILE:538:CD1:4860, V-A:ALA:541:CB:4887"]

$$$$
4aj_Grossjean_2025
     RDKit          3D

 20 22  0  0  0  0  0  0  0  0999 V2000
  130.8490  132.7190   54.7990 C   0  0  0  0  0  0  0  0  0  0  0  0
  131.0910  132.2280   56.2140 C   0  0  0  0  0  0  0  0  0  0  0  0
  132.2070  131.4540   56.5240 C   0  0  0  0  0  0  0  0  0  0  0  0
  132.4080  131.0070   57.8350 C   0  0  0  0  0  0  0  0  0  0  0  0
  133.6410  130.1650   58.1220 C   0  0  0  0  0  0  0  0  0  0  0  0
  131.4450  131.3700   58.8140 C   0  0  0  0  0  0  0  0  0  0  0  0
  131.3400  131.0900   60.2210 C   0  0  0  0  0  0  0  0  0  0  0  0
  132.2710  130.3360   60.8890 N   0  0  0  0  0  0  0  0  0  0  0  0
  130.2120  131.6590   60.8320 C   0  0  0  0  0  0  0  0  0  0  0  0
  129.7910  131.5680   62.2320 C   0  0  0  0  0  0  0  0  0  0  0  0
  129.9670  132.5130   63.0050 O   0  0  0  0  0  0  0  0  0  0  0  0
  129.1990  130.4010   62.5880 N   0  0  0  0  0  0  0  0  0  0  0  0
  128.7030  130.0660   63.8400 C   0  0  0  0  0  0  0  0  0  0  0  0
  128.3930  130.8770   64.8290 N   0  0  0  0  0  0  0  0  0  0  0  0
  127.9430  130.2130   65.8770 C   0  0  0  0  0  0  0  0  0  0  0  0
  127.8810  128.8280   65.7480 C   0  0  0  0  0  0  0  0  0  0  0  0
  128.4450  128.3830   64.1650 S   0  0  0  0  0  0  0  0  0  0  0  0
  129.2350  132.5510   59.6640 S   0  0  0  0  0  0  0  0  0  0  0  0
  130.3480  132.1680   58.3700 C   0  0  0  0  0  0  0  0  0  0  0  0
  130.1530  132.5950   57.1220 N   0  0  0  0  0  0  0  0  0  0  0  0
  1  2  1  0
  2  3  2  0
  3  4  1  0
  4  5  1  0
  4  6  2  0
  6  7  1  0
  7  8  1  0
  7  9  2  0
  9 10  1  0
 10 11  2  0
 10 12  1  0
 12 13  1  0
 13 14  2  0
 14 15  1  0
 15 16  2  0
 16 17  1  0
  9 18  1  0
 18 19  1  0
 19 20  2  0
 20  2  1  0
 19  6  1  0
 17 13  1  0
M  END
>  <Binding energies>  (46) 
[-6.48]

>  <Ligand effiencies>  (46) 
[-0.2817391304347826]

>  <Interactions>  (46) 
["H-A:GLU:543:OE2:4905, V-A:GLU:543:CD:4903, V-A:LEU:363:CD1:3184, V-A:PRO:540:N:4879, V-A:LEU:363:CA:3180, V-A:ASP:366:CB:3207, V-A:PRO:540:CA:4878, H-A:ALA:541:N:4886, V-A:PRO:540:CD:4882, V-A:ILE:538:CA:4855, H-A:ASP:366:OD2:3210, V-A:TYR:531:CE2:4788, V-A:PRO:540:CB:4880, V-B:HIS:456:CE1:9037, V-A:ILE:538:CG2:4858, V-A:TYR:531:CZ:4789, H-B:TYR:484:OH:9315, V-A:GLU:543:CG:4902, V-A:ILE:538:CD1:4860, V-B:TYR:484:CZ:9314"]

$$$$
4ak_Grossjean_2025
     RDKit          3D

 25 26  0  0  0  0  0  0  0  0999 V2000
  132.5360  131.3000   54.0620 C   0  0  0  0  0  0  0  0  0  0  0  0
  132.4540  132.4660   54.8660 O   0  0  0  0  0  0  0  0  0  0  0  0
  132.1380  132.1940   56.2260 C   0  0  0  0  0  0  0  0  0  0  0  0
  130.7570  132.7750   56.5560 C   0  0  0  0  0  0  0  0  0  0  0  0
  130.2190  133.3980   55.3970 O   0  0  0  0  0  0  0  0  0  0  0  0
  129.4540  132.5240   54.5770 C   0  0  0  0  0  0  0  0  0  0  0  0
  128.7890  131.4580   55.4560 C   0  0  0  0  0  0  0  0  0  0  0  0
  128.7770  130.2180   54.7610 O   0  0  0  0  0  0  0  0  0  0  0  0
  129.5830  129.2140   55.3640 C   0  0  0  0  0  0  0  0  0  0  0  0
  129.0800  127.8260   54.9230 C   0  0  0  0  0  0  0  0  0  0  0  0
  129.4260  126.7540   55.8560 N   0  0  0  0  0  0  0  0  0  0  0  0
  129.5740  125.4540   55.5310 C   0  0  0  0  0  0  0  0  0  0  0  0
  129.4480  125.0440   54.3760 O   0  0  0  0  0  0  0  0  0  0  0  0
  129.9050  124.5500   56.6300 C   0  0  0  0  0  0  0  0  0  0  0  0
  128.6240  123.8150   57.5940 S   0  0  0  0  0  0  0  0  0  0  0  0
  129.7900  122.9580   58.5760 C   0  0  0  0  0  0  0  0  0  0  0  0
  129.4190  122.1590   59.5770 N   0  0  0  0  0  0  0  0  0  0  0  0
  130.4220  121.5560   60.2600 C   0  0  0  0  0  0  0  0  0  0  0  0
  129.9790  120.6510   61.3950 C   0  0  0  0  0  0  0  0  0  0  0  0
  131.7730  121.7300   59.9670 C   0  0  0  0  0  0  0  0  0  0  0  0
  132.1600  122.5680   58.9150 C   0  0  0  0  0  0  0  0  0  0  0  0
  133.6460  122.7290   58.6360 C   0  0  0  0  0  0  0  0  0  0  0  0
  131.1360  123.2190   58.1760 C   0  0  0  0  0  0  0  0  0  0  0  0
  131.1720  124.1260   57.0610 C   0  0  0  0  0  0  0  0  0  0  0  0
  132.3480  124.5320   56.4830 N   0  0  0  0  0  0  0  0  0  0  0  0
  1  2  1  0
  2  3  1  0
  3  4  1  0
  4  5  1  0
  5  6  1  0
  6  7  1  0
  7  8  1  0
  8  9  1  0
  9 10  1  0
 10 11  1  0
 11 12  1  0
 12 13  2  0
 12 14  1  0
 14 15  1  0
 15 16  1  0
 16 17  2  0
 17 18  1  0
 18 19  1  0
 18 20  2  0
 20 21  1  0
 21 22  1  0
 21 23  2  0
 23 24  1  0
 24 25  1  0
 24 14  2  0
 23 16  1  0
M  END
>  <Binding energies>  (47) 
[-6.54]

>  <Ligand effiencies>  (47) 
[-0.23357142857142857]

>  <Interactions>  (47) 
["V-B:ALA:541:CB:9860, V-B:TYR:539:CE2:9844, V-B:TYR:539:CD2:9842, V-B:TYR:539:CZ:9845, V-A:LEU:363:CD1:3184, V-A:PRO:540:N:4879, V-A:TYR:539:CE1:4870, V-A:TYR:539:C:4862, V-A:TYR:539:CD1:4868, V-A:PRO:540:CA:4878, H-A:TYR:531:OH:4790, V-A:PRO:540:CD:4882, V-A:TYR:531:CE2:4788, V-A:PRO:540:CB:4880, V-A:ILE:369:CG2:3232, V-A:ILE:369:CD1:3234, H-A:TYR:539:N:4865, H-A:LYS:534:NZ:4818, V-A:TYR:531:CE1:4787, V-A:TYR:531:CZ:4789, V-A:ILE:538:CD1:4860, V-A:TYR:531:CD2:4786, V-A:ILE:369:CB:3231, H-B:TYR:539:OH:9846, V-A:ILE:369:CG1:3233, H-A:ASP:366:O:3204"]

$$$$
4al_Grossjean_2025
     RDKit          3D

 16 17  0  0  0  0  0  0  0  0999 V2000
  127.2900  133.5270   62.9200 C   0  0  0  0  0  0  0  0  0  0  0  0
  127.9050  132.9960   61.7550 O   0  0  0  0  0  0  0  0  0  0  0  0
  129.2160  132.6400   61.7590 C   0  0  0  0  0  0  0  0  0  0  0  0
  129.8840  132.4820   62.7840 O   0  0  0  0  0  0  0  0  0  0  0  0
  129.7680  132.4590   60.3990 C   0  0  0  0  0  0  0  0  0  0  0  0
  128.9870  133.2360   59.0200 S   0  0  0  0  0  0  0  0  0  0  0  0
  130.1680  132.5630   57.9200 C   0  0  0  0  0  0  0  0  0  0  0  0
  130.1250  132.8000   56.6080 N   0  0  0  0  0  0  0  0  0  0  0  0
  131.0990  132.2180   55.8650 C   0  0  0  0  0  0  0  0  0  0  0  0
  131.0320  132.5010   54.3760 C   0  0  0  0  0  0  0  0  0  0  0  0
  132.1040  131.4130   56.3990 C   0  0  0  0  0  0  0  0  0  0  0  0
  132.1460  131.1660   57.7750 C   0  0  0  0  0  0  0  0  0  0  0  0
  133.2600  130.2810   58.3100 C   0  0  0  0  0  0  0  0  0  0  0  0
  131.1410  131.7590   58.5860 C   0  0  0  0  0  0  0  0  0  0  0  0
  130.8870  131.7180   59.9990 C   0  0  0  0  0  0  0  0  0  0  0  0
  131.6770  131.0140   60.8710 N   0  0  0  0  0  0  0  0  0  0  0  0
  1  2  1  0
  2  3  1  0
  3  4  2  0
  3  5  1  0
  5  6  1  0
  6  7  1  0
  7  8  2  0
  8  9  1  0
  9 10  1  0
  9 11  2  0
 11 12  1  0
 12 13  1  0
 12 14  2  0
 14 15  1  0
 15 16  1  0
 15  5  2  0
 14  7  1  0
M  END
>  <Binding energies>  (48) 
[-5.39]

>  <Ligand effiencies>  (48) 
[-0.2994444444444444]

>  <Interactions>  (48) 
["H-A:GLU:543:OE2:4905, V-A:LEU:363:CD1:3184, V-A:PRO:540:C:4876, V-A:PRO:540:N:4879, V-A:LEU:363:CA:3180, V-A:TYR:539:C:4862, V-A:PRO:540:CA:4878, V-A:TYR:539:CG:4867, H-A:ALA:541:N:4886, V-A:PRO:540:CD:4882, V-A:ILE:538:CA:4855, H-A:ASP:366:OD2:3210, V-A:TYR:531:CE2:4788, V-A:PRO:540:CB:4880, V-A:TYR:539:CE2:4871, V-A:TYR:539:CD2:4869, H-A:TYR:539:N:4865, V-A:ILE:538:CG2:4858, V-A:TYR:531:CZ:4789, V-A:ILE:538:CD1:4860, V-A:ALA:541:CB:4887, V-B:LEU:475:CD2:9226, V-B:LEU:475:CD1:9225"]

$$$$
4bc_Grossjean_2025
     RDKit          3D

 26 28  0  0  0  0  0  0  0  0999 V2000
  125.0250  122.3710   56.5150 C   0  0  0  0  0  0  0  0  0  0  0  0
  126.3910  122.0710   56.2440 O   0  0  0  0  0  0  0  0  0  0  0  0
  127.3510  122.4010   57.1810 C   0  0  0  0  0  0  0  0  0  0  0  0
  126.8880  122.7800   58.4400 C   0  0  0  0  0  0  0  0  0  0  0  0
  127.7810  123.1310   59.4490 C   0  0  0  0  0  0  0  0  0  0  0  0
  129.1570  123.0990   59.2120 C   0  0  0  0  0  0  0  0  0  0  0  0
  129.9820  123.4840   60.2850 N   0  0  0  0  0  0  0  0  0  0  0  0
  131.1500  124.1720   60.2640 C   0  0  0  0  0  0  0  0  0  0  0  0
  131.7060  124.5500   59.2330 O   0  0  0  0  0  0  0  0  0  0  0  0
  131.7420  124.4450   61.5770 C   0  0  0  0  0  0  0  0  0  0  0  0
  133.4340  124.0600   61.8840 S   0  0  0  0  0  0  0  0  0  0  0  0
  133.3170  124.6460   63.5260 C   0  0  0  0  0  0  0  0  0  0  0  0
  134.3650  124.6230   64.3490 N   0  0  0  0  0  0  0  0  0  0  0  0
  134.1530  125.1020   65.5960 C   0  0  0  0  0  0  0  0  0  0  0  0
  135.3600  125.0720   66.5150 C   0  0  0  0  0  0  0  0  0  0  0  0
  132.9280  125.5990   66.0360 C   0  0  0  0  0  0  0  0  0  0  0  0
  131.8200  125.6250   65.1740 C   0  0  0  0  0  0  0  0  0  0  0  0
  130.4930  126.1780   65.7060 C   0  0  0  0  0  0  0  0  0  0  0  0
  129.9510  127.0950   64.9020 F   0  0  0  0  0  0  0  0  0  0  0  0
  129.6120  125.1870   65.8330 F   0  0  0  0  0  0  0  0  0  0  0  0
  130.6860  126.7520   66.8930 F   0  0  0  0  0  0  0  0  0  0  0  0
  132.0120  125.1280   63.8500 C   0  0  0  0  0  0  0  0  0  0  0  0
  131.1340  125.0020   62.7120 C   0  0  0  0  0  0  0  0  0  0  0  0
  129.8200  125.3940   62.7450 N   0  0  0  0  0  0  0  0  0  0  0  0
  129.6310  122.7320   57.9430 C   0  0  0  0  0  0  0  0  0  0  0  0
  128.7340  122.3820   56.9370 C   0  0  0  0  0  0  0  0  0  0  0  0
  1  2  1  0
  2  3  1  0
  3  4  2  0
  4  5  1  0
  5  6  2  0
  6  7  1  0
  7  8  1  0
  8  9  2  0
  8 10  1  0
 10 11  1  0
 11 12  1  0
 12 13  2  0
 13 14  1  0
 14 15  1  0
 14 16  2  0
 16 17  1  0
 17 18  1  0
 18 19  1  0
 18 20  1  0
 18 21  1  0
 17 22  2  0
 22 23  1  0
 23 24  1  0
  6 25  1  0
 25 26  2  0
 26  3  1  0
 23 10  2  0
 22 12  1  0
M  END
>  <Binding energies>  (49) 
[-6.79]

>  <Ligand effiencies>  (49) 
[-0.23413793103448277]

>  <Interactions>  (49) 
["V-B:TYR:539:CE2:9844, V-B:MET:535:CE:9803, V-B:PRO:540:CD:9855, V-B:PRO:540:CA:9851, V-B:TYR:539:CD2:9842, V-B:PRO:540:N:9852, V-B:PRO:540:CB:9853, V-B:TYR:539:CE1:9843, V-B:TYR:539:C:9835, V-B:TYR:539:CZ:9845, V-A:HIS:456:CE1:4064, V-A:ASP:366:CG:3208, H-A:TYR:484:OH:4343, H-A:GLY:454:N:4045, V-B:GLU:543:CD:9876, V-B:GLU:543:CG:9875, V-A:ARG:545:CZ:4921, V-B:GLU:543:CB:9874, V-A:GLU:543:CD:4903, H-B:GLU:543:OE2:9878, V-A:ARG:545:CD:4918, V-A:GLY:454:CA:4044, V-A:ARG:545:CG:4917, V-A:GLY:453:CA:4039, V-A:GLY:453:C:4037, V-A:HIS:456:CD2:4063, V-A:ILE:369:CD1:3234, V-B:LEU:363:CD1:8156, H-B:TYR:539:N:9838, V-B:PRO:540:CG:9854, V-B:ILE:538:CG2:9831, V-B:TYR:539:CD1:9841, V-B:TYR:539:CA:9837, V-B:TYR:539:CG:9840, H-A:ARG:545:NH1:4922, V-A:ILE:455:C:4047"]

$$$$
4bf_Grossjean_2025
     RDKit          3D

 24 26  0  0  0  0  0  0  0  0999 V2000
  130.4710  132.8710   55.4740 C   0  0  0  0  0  0  0  0  0  0  0  0
  130.4330  132.4600   56.9350 C   0  0  0  0  0  0  0  0  0  0  0  0
  131.4960  131.7710   57.5140 C   0  0  0  0  0  0  0  0  0  0  0  0
  131.4470  131.3940   58.8650 C   0  0  0  0  0  0  0  0  0  0  0  0
  132.6390  130.6350   59.4570 C   0  0  0  0  0  0  0  0  0  0  0  0
  133.2010  131.2690   60.4900 F   0  0  0  0  0  0  0  0  0  0  0  0
  132.2420  129.4390   59.8920 F   0  0  0  0  0  0  0  0  0  0  0  0
  133.5810  130.4760   58.5270 F   0  0  0  0  0  0  0  0  0  0  0  0
  130.2750  131.7470   59.5990 C   0  0  0  0  0  0  0  0  0  0  0  0
  129.8740  131.5340   60.9670 C   0  0  0  0  0  0  0  0  0  0  0  0
  130.6660  130.8820   61.8780 N   0  0  0  0  0  0  0  0  0  0  0  0
  128.6080  132.0560   61.2830 C   0  0  0  0  0  0  0  0  0  0  0  0
  127.8850  131.9920   62.5570 C   0  0  0  0  0  0  0  0  0  0  0  0
  128.1830  132.7440   63.4860 O   0  0  0  0  0  0  0  0  0  0  0  0
  126.8870  131.0760   62.6120 N   0  0  0  0  0  0  0  0  0  0  0  0
  126.0450  130.7330   63.6870 C   0  0  0  0  0  0  0  0  0  0  0  0
  126.3870  129.8780   64.7490 C   0  0  0  0  0  0  0  0  0  0  0  0
  125.4490  129.6070   65.7480 C   0  0  0  0  0  0  0  0  0  0  0  0
  124.1870  130.1940   65.6560 C   0  0  0  0  0  0  0  0  0  0  0  0
  123.8290  131.0150   64.6380 N   0  0  0  0  0  0  0  0  0  0  0  0
  124.7520  131.2700   63.6740 C   0  0  0  0  0  0  0  0  0  0  0  0
  127.8700  132.8270   59.8810 S   0  0  0  0  0  0  0  0  0  0  0  0
  129.2580  132.4540   58.8860 C   0  0  0  0  0  0  0  0  0  0  0  0
  129.3100  132.8100   57.6030 N   0  0  0  0  0  0  0  0  0  0  0  0
  1  2  1  0
  2  3  2  0
  3  4  1  0
  4  5  1  0
  5  6  1  0
  5  7  1  0
  5  8  1  0
  4  9  2  0
  9 10  1  0
 10 11  1  0
 10 12  2  0
 12 13  1  0
 13 14  2  0
 13 15  1  0
 15 16  1  0
 16 17  2  0
 17 18  1  0
 18 19  2  0
 19 20  1  0
 20 21  2  0
 12 22  1  0
 22 23  1  0
 23 24  2  0
 24  2  1  0
 23  9  1  0
 21 16  1  0
M  END
>  <Binding energies>  (50) 
[-6.38]

>  <Ligand effiencies>  (50) 
[-0.23629629629629628]

>  <Interactions>  (50) 
["V-A:ASP:366:CG:3208, H-A:GLU:543:OE2:4905, V-A:GLU:543:CD:4903, V-A:LEU:363:CD1:3184, V-A:PRO:540:N:4879, V-A:LEU:363:CA:3180, V-A:TYR:539:C:4862, V-A:TYR:539:CD1:4868, V-A:PRO:540:CA:4878, V-A:PRO:540:CD:4882, V-A:ILE:538:CA:4855, V-A:TYR:531:CE2:4788, V-A:PRO:540:CB:4880, V-A:TYR:539:CE2:4871, V-A:TYR:539:CD2:4869, V-B:HIS:456:CE1:9037, H-B:TYR:484:OH:9315, V-A:GLU:543:CG:4902, V-B:ARG:545:CD:9891, H-B:GLY:454:N:9017, V-A:ASN:362:CB:3171"]

$$$$
4bh_Grossjean_2025
     RDKit          3D

 31 33  0  0  0  0  0  0  0  0999 V2000
  132.1650  133.0160   55.6140 C   0  0  0  0  0  0  0  0  0  0  0  0
  130.7460  133.0940   55.6910 O   0  0  0  0  0  0  0  0  0  0  0  0
  130.0100  131.9350   55.8570 C   0  0  0  0  0  0  0  0  0  0  0  0
  130.2920  130.7270   55.2000 C   0  0  0  0  0  0  0  0  0  0  0  0
  129.5040  129.5950   55.4130 C   0  0  0  0  0  0  0  0  0  0  0  0
  129.8530  128.2800   54.7260 C   0  0  0  0  0  0  0  0  0  0  0  0
  129.9450  127.1470   55.6460 N   0  0  0  0  0  0  0  0  0  0  0  0
  129.7880  125.8500   55.3080 C   0  0  0  0  0  0  0  0  0  0  0  0
  129.5060  125.4930   54.1630 O   0  0  0  0  0  0  0  0  0  0  0  0
  129.9290  124.8810   56.3950 C   0  0  0  0  0  0  0  0  0  0  0  0
  128.5060  124.3250   57.2710 S   0  0  0  0  0  0  0  0  0  0  0  0
  129.4880  123.3290   58.3200 C   0  0  0  0  0  0  0  0  0  0  0  0
  128.9430  122.5850   59.2820 N   0  0  0  0  0  0  0  0  0  0  0  0
  129.8040  121.8550   60.0270 C   0  0  0  0  0  0  0  0  0  0  0  0
  129.1630  121.0170   61.1200 C   0  0  0  0  0  0  0  0  0  0  0  0
  131.1830  121.8480   59.8350 C   0  0  0  0  0  0  0  0  0  0  0  0
  131.7630  122.6300   58.8230 C   0  0  0  0  0  0  0  0  0  0  0  0
  133.2850  122.5880   58.6470 C   0  0  0  0  0  0  0  0  0  0  0  0
  133.8760  123.7520   58.9250 F   0  0  0  0  0  0  0  0  0  0  0  0
  133.8080  121.6710   59.4600 F   0  0  0  0  0  0  0  0  0  0  0  0
  133.5830  122.2790   57.3850 F   0  0  0  0  0  0  0  0  0  0  0  0
  130.8830  123.4150   58.0200 C   0  0  0  0  0  0  0  0  0  0  0  0
  131.1050  124.3220   56.9220 C   0  0  0  0  0  0  0  0  0  0  0  0
  132.3540  124.6060   56.4330 N   0  0  0  0  0  0  0  0  0  0  0  0
  128.4390  129.6580   56.3130 C   0  0  0  0  0  0  0  0  0  0  0  0
  128.1290  130.8550   56.9780 C   0  0  0  0  0  0  0  0  0  0  0  0
  127.0810  130.9930   57.8710 O   0  0  0  0  0  0  0  0  0  0  0  0
  125.9280  130.1700   57.7260 C   0  0  0  0  0  0  0  0  0  0  0  0
  128.9190  131.9880   56.7360 C   0  0  0  0  0  0  0  0  0  0  0  0
  128.6370  133.1610   57.3950 O   0  0  0  0  0  0  0  0  0  0  0  0
  128.8700  133.1070   58.7960 C   0  0  0  0  0  0  0  0  0  0  0  0
  1  2  1  0
  2  3  1  0
  3  4  2  0
  4  5  1  0
  5  6  1  0
  6  7  1  0
  7  8  1  0
  8  9  2  0
  8 10  1  0
 10 11  1  0
 11 12  1  0
 12 13  2  0
 13 14  1  0
 14 15  1  0
 14 16  2  0
 16 17  1  0
 17 18  1  0
 18 19  1  0
 18 20  1  0
 18 21  1  0
 17 22  2  0
 22 23  1  0
 23 24  1  0
  5 25  2  0
 25 26  1  0
 26 27  1  0
 27 28  1  0
 26 29  2  0
 29 30  1  0
 30 31  1  0
 29  3  1  0
 23 10  2  0
 22 12  1  0
M  END
>  <Binding energies>  (51) 
[-7.3]

>  <Ligand effiencies>  (51) 
[-0.21470588235294116]

>  <Interactions>  (51) 
["V-B:ALA:541:CB:9860, V-B:TYR:539:CE2:9844, V-B:TYR:539:CD2:9842, V-B:ALA:541:CA:9858, V-B:PRO:540:C:9849, V-B:TYR:539:CZ:9845, V-A:ASP:366:CG:3208, V-A:TYR:539:CZ:4872, V-A:LEU:363:CD1:3184, V-A:PRO:540:N:4879, V-A:TYR:539:CE1:4870, V-A:TYR:539:C:4862, V-A:TYR:539:CD1:4868, V-A:ASP:366:CB:3207, V-A:PRO:540:CG:4881, V-A:PRO:540:CA:4878, H-A:TYR:531:OH:4790, V-A:TYR:539:CG:4867, V-A:PRO:540:CD:4882, V-A:ILE:538:CA:4855, V-A:TYR:539:CE2:4871, V-A:TYR:539:CD2:4869, V-A:ILE:369:CG2:3232, V-A:ILE:369:CD1:3234, H-A:TYR:539:N:4865, H-A:LYS:534:NZ:4818, V-A:ILE:538:CG2:4858, V-A:TYR:531:CE1:4787, V-A:TYR:531:CZ:4789, V-A:ASP:366:C:3203, H-A:TYR:539:OH:4873, V-A:ILE:369:CB:3231, H-B:TYR:539:OH:9846, V-A:ASP:366:CA:3205, V-A:ILE:369:CG1:3233, H-A:ASP:366:O:3204"]

$$$$
4bi_Grossjean_2025
     RDKit          3D

 23 25  0  0  0  0  0  0  0  0999 V2000
  130.9950  132.8690   54.5900 C   0  0  0  0  0  0  0  0  0  0  0  0
  131.0670  132.4530   56.0480 C   0  0  0  0  0  0  0  0  0  0  0  0
  132.1210  131.6740   56.5200 C   0  0  0  0  0  0  0  0  0  0  0  0
  132.1780  131.3010   57.8730 C   0  0  0  0  0  0  0  0  0  0  0  0
  133.3600  130.4500   58.3480 C   0  0  0  0  0  0  0  0  0  0  0  0
  134.2900  130.2760   57.4060 F   0  0  0  0  0  0  0  0  0  0  0  0
  133.9520  131.0400   59.3870 F   0  0  0  0  0  0  0  0  0  0  0  0
  132.9300  129.2420   58.7130 F   0  0  0  0  0  0  0  0  0  0  0  0
  131.1190  131.7480   58.7180 C   0  0  0  0  0  0  0  0  0  0  0  0
  130.8400  131.5660   60.1210 C   0  0  0  0  0  0  0  0  0  0  0  0
  131.6540  130.8370   60.9500 N   0  0  0  0  0  0  0  0  0  0  0  0
  129.6700  132.2060   60.5630 C   0  0  0  0  0  0  0  0  0  0  0  0
  129.0870  132.2180   61.9070 C   0  0  0  0  0  0  0  0  0  0  0  0
  128.4620  133.2010   62.3130 O   0  0  0  0  0  0  0  0  0  0  0  0
  129.2720  131.0880   62.6330 N   0  0  0  0  0  0  0  0  0  0  0  0
  128.8210  130.8250   63.9200 C   0  0  0  0  0  0  0  0  0  0  0  0
  128.3790  129.5680   64.3300 C   0  0  0  0  0  0  0  0  0  0  0  0
  128.0240  129.7270   65.6510 C   0  0  0  0  0  0  0  0  0  0  0  0
  128.2410  131.0130   66.0160 O   0  0  0  0  0  0  0  0  0  0  0  0
  128.7460  131.6990   64.9090 N   0  0  0  0  0  0  0  0  0  0  0  0
  128.8600  133.0370   59.2370 S   0  0  0  0  0  0  0  0  0  0  0  0
  130.0990  132.5410   58.1080 C   0  0  0  0  0  0  0  0  0  0  0  0
  130.0510  132.8940   56.8240 N   0  0  0  0  0  0  0  0  0  0  0  0
  1  2  1  0
  2  3  2  0
  3  4  1  0
  4  5  1  0
  5  6  1  0
  5  7  1  0
  5  8  1  0
  4  9  2  0
  9 10  1  0
 10 11  1  0
 10 12  2  0
 12 13  1  0
 13 14  2  0
 13 15  1  0
 15 16  1  0
 16 17  1  0
 17 18  2  0
 18 19  1  0
 19 20  1  0
 12 21  1  0
 21 22  1  0
 22 23  2  0
 23  2  1  0
 22  9  1  0
 20 16  2  0
M  END
>  <Binding energies>  (52) 
[-6.15]

>  <Ligand effiencies>  (52) 
[-0.23653846153846156]

>  <Interactions>  (52) 
["V-A:ASP:366:CG:3208, H-A:GLU:543:OE2:4905, V-A:GLU:543:CD:4903, V-A:LEU:363:CD1:3184, V-A:PRO:540:N:4879, V-A:LEU:363:C:3178, V-A:LEU:363:CA:3180, V-A:ASN:362:C:3167, V-A:TYR:539:C:4862, V-A:ASP:366:CB:3207, V-A:PRO:540:CA:4878, V-A:LEU:363:CB:3182, H-A:ALA:541:N:4886, V-A:PRO:540:CD:4882, V-A:ILE:538:CA:4855, H-A:ASP:366:OD2:3210, V-A:TYR:531:CE2:4788, V-A:PRO:540:CB:4880, V-A:TYR:539:CE2:4871, V-A:TYR:539:CD2:4869, H-A:TYR:539:N:4865, V-A:ILE:538:CG2:4858, V-A:TYR:531:CZ:4789, H-B:TYR:484:OH:9315, V-A:GLU:543:CG:4902, V-A:ILE:538:CD1:4860, V-A:ILE:538:CB:4857, V-A:TYR:531:CD2:4786, V-A:LEU:363:CG:3183"]

$$$$
4bj_Grossjean_2025
     RDKit          3D

 23 25  0  0  0  0  0  0  0  0999 V2000
  131.8840  132.4990   54.4820 C   0  0  0  0  0  0  0  0  0  0  0  0
  131.6110  132.2320   55.9510 C   0  0  0  0  0  0  0  0  0  0  0  0
  132.4780  131.4520   56.7110 C   0  0  0  0  0  0  0  0  0  0  0  0
  132.2100  131.2090   58.0680 C   0  0  0  0  0  0  0  0  0  0  0  0
  133.1920  130.3420   58.8640 C   0  0  0  0  0  0  0  0  0  0  0  0
  133.6560  130.9490   59.9580 F   0  0  0  0  0  0  0  0  0  0  0  0
  132.5890  129.2200   59.2540 F   0  0  0  0  0  0  0  0  0  0  0  0
  134.2420  130.0360   58.1010 F   0  0  0  0  0  0  0  0  0  0  0  0
  131.0280  131.7920   58.6140 C   0  0  0  0  0  0  0  0  0  0  0  0
  130.4360  131.7610   59.9300 C   0  0  0  0  0  0  0  0  0  0  0  0
  130.9940  131.0740   60.9780 N   0  0  0  0  0  0  0  0  0  0  0  0
  129.2470  132.4990   60.0410 C   0  0  0  0  0  0  0  0  0  0  0  0
  128.3870  132.6740   61.2140 C   0  0  0  0  0  0  0  0  0  0  0  0
  128.8740  132.8800   62.3280 O   0  0  0  0  0  0  0  0  0  0  0  0
  127.0550  132.6070   60.9750 N   0  0  0  0  0  0  0  0  0  0  0  0
  126.0330  132.7500   61.9030 C   0  0  0  0  0  0  0  0  0  0  0  0
  126.0690  132.4880   63.1920 N   0  0  0  0  0  0  0  0  0  0  0  0
  124.9150  132.7470   63.7730 C   0  0  0  0  0  0  0  0  0  0  0  0
  123.9050  133.2300   62.9460 C   0  0  0  0  0  0  0  0  0  0  0  0
  124.5110  133.3470   61.3210 S   0  0  0  0  0  0  0  0  0  0  0  0
  128.8100  133.2410   58.5030 S   0  0  0  0  0  0  0  0  0  0  0  0
  130.2270  132.5740   57.7270 C   0  0  0  0  0  0  0  0  0  0  0  0
  130.4840  132.8000   56.4390 N   0  0  0  0  0  0  0  0  0  0  0  0
  1  2  1  0
  2  3  2  0
  3  4  1  0
  4  5  1  0
  5  6  1  0
  5  7  1  0
  5  8  1  0
  4  9  2  0
  9 10  1  0
 10 11  1  0
 10 12  2  0
 12 13  1  0
 13 14  2  0
 13 15  1  0
 15 16  1  0
 16 17  2  0
 17 18  1  0
 18 19  2  0
 19 20  1  0
 12 21  1  0
 21 22  1  0
 22 23  2  0
 23  2  1  0
 22  9  1  0
 20 16  1  0
M  END
>  <Binding energies>  (53) 
[-5.66]

>  <Ligand effiencies>  (53) 
[-0.21769230769230768]

>  <Interactions>  (53) 
["V-A:ASP:366:CG:3208, H-A:GLU:543:OE2:4905, V-A:TYR:539:CZ:4872, V-A:LEU:363:CD1:3184, V-A:PRO:540:N:4879, V-A:LEU:363:C:3178, V-A:LEU:363:CA:3180, V-A:TYR:539:CE1:4870, V-A:ASN:362:C:3167, V-A:TYR:539:C:4862, V-A:TYR:539:CD1:4868, V-A:ASP:366:CB:3207, V-A:PRO:540:CA:4878, V-A:LEU:363:CB:3182, V-A:TYR:539:CG:4867, H-A:ALA:541:N:4886, V-A:PRO:540:CD:4882, V-A:ILE:538:CA:4855, V-A:TYR:531:CE2:4788, V-A:PRO:540:CB:4880, V-A:TYR:539:CE2:4871, V-A:TYR:539:CD2:4869, H-A:TYR:539:N:4865, V-A:ILE:538:CG2:4858, V-A:TYR:531:CZ:4789, H-B:TYR:484:OH:9315, V-B:GLY:454:CA:9016, V-A:ILE:538:CD1:4860, V-A:ILE:538:CB:4857, V-A:ASN:362:CB:3171, V-B:LEU:475:CD2:9226, V-B:ILE:369:CD1:8206"]

$$$$
4bk_Grossjean_2025
     RDKit          3D

 28 29  0  0  0  0  0  0  0  0999 V2000
  129.7760  132.8730   57.6910 C   0  0  0  0  0  0  0  0  0  0  0  0
  130.6010  133.2500   56.5990 O   0  0  0  0  0  0  0  0  0  0  0  0
  131.0640  132.1450   55.8330 C   0  0  0  0  0  0  0  0  0  0  0  0
  131.0600  132.5170   54.3450 C   0  0  0  0  0  0  0  0  0  0  0  0
  129.7670  132.2840   53.8040 O   0  0  0  0  0  0  0  0  0  0  0  0
  128.7680  132.0460   54.7860 C   0  0  0  0  0  0  0  0  0  0  0  0
  127.7420  131.0440   54.2390 C   0  0  0  0  0  0  0  0  0  0  0  0
  128.3880  129.8050   53.9820 O   0  0  0  0  0  0  0  0  0  0  0  0
  128.8840  129.1620   55.1510 C   0  0  0  0  0  0  0  0  0  0  0  0
  129.9480  128.1260   54.7500 C   0  0  0  0  0  0  0  0  0  0  0  0
  130.0630  127.0090   55.6890 N   0  0  0  0  0  0  0  0  0  0  0  0
  129.7600  125.7230   55.4120 C   0  0  0  0  0  0  0  0  0  0  0  0
  129.3650  125.3620   54.3020 O   0  0  0  0  0  0  0  0  0  0  0  0
  129.9360  124.7700   56.5090 C   0  0  0  0  0  0  0  0  0  0  0  0
  128.5330  124.1460   57.3710 S   0  0  0  0  0  0  0  0  0  0  0  0
  129.5460  123.1520   58.3900 C   0  0  0  0  0  0  0  0  0  0  0  0
  129.0280  122.3710   59.3380 N   0  0  0  0  0  0  0  0  0  0  0  0
  129.9120  121.6470   60.0620 C   0  0  0  0  0  0  0  0  0  0  0  0
  129.2990  120.7630   61.1330 C   0  0  0  0  0  0  0  0  0  0  0  0
  131.2900  121.6850   59.8630 C   0  0  0  0  0  0  0  0  0  0  0  0
  131.8430  122.5060   58.8680 C   0  0  0  0  0  0  0  0  0  0  0  0
  133.3650  122.5170   58.6900 C   0  0  0  0  0  0  0  0  0  0  0  0
  133.9150  123.6990   58.9740 F   0  0  0  0  0  0  0  0  0  0  0  0
  133.9200  121.6130   59.4960 F   0  0  0  0  0  0  0  0  0  0  0  0
  133.6730  122.2280   57.4270 F   0  0  0  0  0  0  0  0  0  0  0  0
  130.9370  123.2830   58.0850 C   0  0  0  0  0  0  0  0  0  0  0  0
  131.1270  124.2130   57.0000 C   0  0  0  0  0  0  0  0  0  0  0  0
  132.3640  124.5260   56.4980 N   0  0  0  0  0  0  0  0  0  0  0  0
  1  2  1  0
  2  3  1  0
  3  4  1  0
  4  5  1  0
  5  6  1  0
  6  7  1  0
  7  8  1  0
  8  9  1  0
  9 10  1  0
 10 11  1  0
 11 12  1  0
 12 13  2  0
 12 14  1  0
 14 15  1  0
 15 16  1  0
 16 17  2  0
 17 18  1  0
 18 19  1  0
 18 20  2  0
 20 21  1  0
 21 22  1  0
 22 23  1  0
 22 24  1  0
 22 25  1  0
 21 26  2  0
 26 27  1  0
 27 28  1  0
 27 14  2  0
 26 16  1  0
M  END
>  <Binding energies>  (54) 
[-6.03]

>  <Ligand effiencies>  (54) 
[-0.19451612903225807]

>  <Interactions>  (54) 
["V-B:ALA:541:CB:9860, V-B:TYR:539:CE2:9844, V-B:TYR:539:CD2:9842, V-B:ALA:541:CA:9858, V-B:PRO:540:C:9849, V-B:TYR:539:CZ:9845, V-A:ASP:366:CG:3208, V-A:PRO:540:N:4879, V-A:TYR:539:CE1:4870, V-A:TYR:539:C:4862, V-A:TYR:539:CD1:4868, V-A:ASP:366:CB:3207, V-A:PRO:540:CA:4878, H-A:TYR:531:OH:4790, V-A:PRO:540:CD:4882, V-A:ILE:538:CA:4855, V-A:PRO:540:CB:4880, V-A:ILE:369:CG2:3232, V-A:ILE:369:CD1:3234, H-A:TYR:539:N:4865, H-A:LYS:534:NZ:4818, V-A:ILE:538:CG2:4858, V-A:TYR:531:CE1:4787, V-A:TYR:531:CZ:4789, V-A:ILE:538:CD1:4860, V-A:MET:535:CB:4827, V-A:MET:535:CG:4828, V-A:ASP:366:C:3203, V-A:ILE:369:CB:3231, H-B:TYR:539:OH:9846, V-A:ASP:366:CA:3205, V-A:ILE:369:CG1:3233, H-A:ASP:366:O:3204"]

$$$$
4cd_Grossjean_2025
     RDKit          3D

 29 32  0  0  0  0  0  0  0  0999 V2000
  129.3760  126.5150   63.6940 N   0  0  0  0  0  0  0  0  0  0  0  0
  129.6200  126.0090   64.9460 C   0  0  0  0  0  0  0  0  0  0  0  0
  130.0540  124.6930   65.1730 C   0  0  0  0  0  0  0  0  0  0  0  0
  130.3070  123.6330   64.1930 C   0  0  0  0  0  0  0  0  0  0  0  0
  131.0030  122.6610   64.4850 O   0  0  0  0  0  0  0  0  0  0  0  0
  129.7190  123.8080   62.9840 N   0  0  0  0  0  0  0  0  0  0  0  0
  129.8010  123.0150   61.8240 C   0  0  0  0  0  0  0  0  0  0  0  0
  129.3080  123.5930   60.6510 C   0  0  0  0  0  0  0  0  0  0  0  0
  129.3560  122.8930   59.4490 C   0  0  0  0  0  0  0  0  0  0  0  0
  129.9060  121.6150   59.4170 C   0  0  0  0  0  0  0  0  0  0  0  0
  130.4140  121.0320   60.5750 C   0  0  0  0  0  0  0  0  0  0  0  0
  130.3660  121.7290   61.7800 C   0  0  0  0  0  0  0  0  0  0  0  0
  130.2790  124.3860   66.8940 S   0  0  0  0  0  0  0  0  0  0  0  0
  129.7840  126.0120   67.2950 C   0  0  0  0  0  0  0  0  0  0  0  0
  129.7360  126.4330   68.5570 N   0  0  0  0  0  0  0  0  0  0  0  0
  129.3250  127.7100   68.7720 C   0  0  0  0  0  0  0  0  0  0  0  0
  129.2790  128.1540   70.2050 C   0  0  0  0  0  0  0  0  0  0  0  0
  128.1120  127.9940   70.9690 C   0  0  0  0  0  0  0  0  0  0  0  0
  128.0620  128.4030   72.2990 C   0  0  0  0  0  0  0  0  0  0  0  0
  129.1830  128.9800   72.8860 C   0  0  0  0  0  0  0  0  0  0  0  0
  130.3530  129.1480   72.1520 C   0  0  0  0  0  0  0  0  0  0  0  0
  130.3990  128.7350   70.8240 C   0  0  0  0  0  0  0  0  0  0  0  0
  128.9830  128.5630   67.7180 C   0  0  0  0  0  0  0  0  0  0  0  0
  129.0340  128.1310   66.3830 C   0  0  0  0  0  0  0  0  0  0  0  0
  128.6430  129.1180   65.2770 C   0  0  0  0  0  0  0  0  0  0  0  0
  129.4330  129.0430   64.2040 F   0  0  0  0  0  0  0  0  0  0  0  0
  127.3970  128.8720   64.8730 F   0  0  0  0  0  0  0  0  0  0  0  0
  128.7170  130.3660   65.7400 F   0  0  0  0  0  0  0  0  0  0  0  0
  129.4520  126.7900   66.1470 C   0  0  0  0  0  0  0  0  0  0  0  0
  1  2  1  0
  2  3  2  0
  3  4  1  0
  4  5  2  0
  4  6  1  0
  6  7  1  0
  7  8  2  0
  8  9  1  0
  9 10  2  0
 10 11  1  0
 11 12  2  0
  3 13  1  0
 13 14  1  0
 14 15  2  0
 15 16  1  0
 16 17  1  0
 17 18  2  0
 18 19  1  0
 19 20  2  0
 20 21  1  0
 21 22  2  0
 16 23  2  0
 23 24  1  0
 24 25  1  0
 25 26  1  0
 25 27  1  0
 25 28  1  0
 24 29  2  0
 29  2  1  0
 12  7  1  0
 29 14  1  0
 22 17  1  0
M  END
>  <Binding energies>  (55) 
[-7.14]

>  <Ligand effiencies>  (55) 
[-0.223125]

>  <Interactions>  (55) 
["V-B:ALA:541:CB:9860, V-B:TYR:539:CE2:9844, V-B:TYR:539:CD2:9842, V-B:TYR:539:C:9835, V-A:HIS:456:CE1:4064, H-A:GLU:543:OE2:4905, H-A:TYR:484:OH:4343, H-A:GLU:543:OE1:4904, V-B:GLU:543:CD:9876, V-B:GLU:543:CG:9875, H-A:HIS:456:NE2:4065, V-B:GLU:543:CB:9874, V-A:GLU:543:CD:4903, H-B:GLU:543:OE2:9878, V-A:GLU:543:CB:4901, V-A:TYR:484:CZ:4342, V-B:HIS:456:CE1:9037, V-A:GLU:543:CG:4902, V-A:GLU:543:C:4897, V-B:HIS:456:CD2:9035, V-A:LYS:547:CE:4945, V-A:TYR:484:CE1:4340, V-A:GLY:544:C:4907"]

$$$$
4cg_Grossjean_2025
     RDKit          3D

 30 33  0  0  0  0  0  0  0  0999 V2000
  129.2990  126.5000   63.6330 N   0  0  0  0  0  0  0  0  0  0  0  0
  129.5510  125.9930   64.8830 C   0  0  0  0  0  0  0  0  0  0  0  0
  129.9360  124.6640   65.1090 C   0  0  0  0  0  0  0  0  0  0  0  0
  130.1860  123.6080   64.1290 C   0  0  0  0  0  0  0  0  0  0  0  0
  130.9980  122.7070   64.3500 O   0  0  0  0  0  0  0  0  0  0  0  0
  129.5090  123.7060   62.9660 N   0  0  0  0  0  0  0  0  0  0  0  0
  129.5850  122.7560   61.8580 C   0  0  0  0  0  0  0  0  0  0  0  0
  128.5440  123.0050   60.7720 C   0  0  0  0  0  0  0  0  0  0  0  0
  128.8490  122.7190   59.4390 C   0  0  0  0  0  0  0  0  0  0  0  0
  127.8900  122.9150   58.4480 C   0  0  0  0  0  0  0  0  0  0  0  0
  126.6270  123.3880   58.7960 C   0  0  0  0  0  0  0  0  0  0  0  0
  126.3110  123.6600   60.1260 C   0  0  0  0  0  0  0  0  0  0  0  0
  127.2690  123.4620   61.1160 C   0  0  0  0  0  0  0  0  0  0  0  0
  130.1970  124.3540   66.8230 S   0  0  0  0  0  0  0  0  0  0  0  0
  129.7680  126.0000   67.2280 C   0  0  0  0  0  0  0  0  0  0  0  0
  129.7700  126.4270   68.4870 N   0  0  0  0  0  0  0  0  0  0  0  0
  129.4260  127.7240   68.7050 C   0  0  0  0  0  0  0  0  0  0  0  0
  129.4370  128.1760   70.1380 C   0  0  0  0  0  0  0  0  0  0  0  0
  128.2970  128.0340   70.9470 C   0  0  0  0  0  0  0  0  0  0  0  0
  128.3020  128.4520   72.2740 C   0  0  0  0  0  0  0  0  0  0  0  0
  129.4500  129.0220   72.8150 C   0  0  0  0  0  0  0  0  0  0  0  0
  130.5910  129.1780   72.0360 C   0  0  0  0  0  0  0  0  0  0  0  0
  130.5820  128.7580   70.7090 C   0  0  0  0  0  0  0  0  0  0  0  0
  129.0640  128.5780   67.6570 C   0  0  0  0  0  0  0  0  0  0  0  0
  129.0580  128.1370   66.3250 C   0  0  0  0  0  0  0  0  0  0  0  0
  128.6510  129.1250   65.2260 C   0  0  0  0  0  0  0  0  0  0  0  0
  129.4210  129.0460   64.1390 F   0  0  0  0  0  0  0  0  0  0  0  0
  127.3960  128.8820   64.8450 F   0  0  0  0  0  0  0  0  0  0  0  0
  128.7370  130.3720   65.6860 F   0  0  0  0  0  0  0  0  0  0  0  0
  129.4310  126.7830   66.0840 C   0  0  0  0  0  0  0  0  0  0  0  0
  1  2  1  0
  2  3  2  0
  3  4  1  0
  4  5  2  0
  4  6  1  0
  6  7  1  0
  7  8  1  0
  8  9  2  0
  9 10  1  0
 10 11  2  0
 11 12  1  0
 12 13  2  0
  3 14  1  0
 14 15  1  0
 15 16  2  0
 16 17  1  0
 17 18  1  0
 18 19  2  0
 19 20  1  0
 20 21  2  0
 21 22  1  0
 22 23  2  0
 17 24  2  0
 24 25  1  0
 25 26  1  0
 26 27  1  0
 26 28  1  0
 26 29  1  0
 25 30  2  0
 30  2  1  0
 13  8  1  0
 30 15  1  0
 23 18  1  0
M  END
>  <Binding energies>  (56) 
[-7.36]

>  <Ligand effiencies>  (56) 
[-0.22303030303030305]

>  <Interactions>  (56) 
["V-B:ALA:541:CB:9860, V-B:PRO:540:CA:9851, V-B:PRO:540:N:9852, V-B:PRO:540:CB:9853, V-B:TYR:539:C:9835, V-A:HIS:456:CE1:4064, H-A:GLU:543:OE2:4905, H-A:TYR:484:OH:4343, H-A:GLU:543:OE1:4904, V-B:GLU:543:CD:9876, V-B:GLU:543:CG:9875, H-A:HIS:456:NE2:4065, V-B:GLU:543:CB:9874, V-A:GLU:543:CD:4903, H-B:GLU:543:OE2:9878, V-A:GLU:543:CB:4901, V-A:TYR:484:CZ:4342, V-B:HIS:456:CE1:9037, V-A:GLU:543:CG:4902, V-A:GLU:543:C:4897, V-B:HIS:456:CD2:9035, V-A:LYS:547:CE:4945, V-A:TYR:484:CE1:4340, V-A:GLY:544:CA:4909, V-A:GLY:544:C:4907"]

$$$$
4ch_Grossjean_2025
     RDKit          3D

 36 39  0  0  0  0  0  0  0  0999 V2000
  124.5860  123.5440   61.8830 C   0  0  0  0  0  0  0  0  0  0  0  0
  125.0500  123.8350   60.5690 O   0  0  0  0  0  0  0  0  0  0  0  0
  126.3360  123.4750   60.2090 C   0  0  0  0  0  0  0  0  0  0  0  0
  127.4040  123.3730   61.1150 C   0  0  0  0  0  0  0  0  0  0  0  0
  128.6780  123.0020   60.6810 C   0  0  0  0  0  0  0  0  0  0  0  0
  129.8310  122.9230   61.6750 C   0  0  0  0  0  0  0  0  0  0  0  0
  129.7090  123.8380   62.8110 N   0  0  0  0  0  0  0  0  0  0  0  0
  130.2760  123.6640   64.0230 C   0  0  0  0  0  0  0  0  0  0  0  0
  130.9960  122.6980   64.2850 O   0  0  0  0  0  0  0  0  0  0  0  0
  130.0170  124.7140   65.0080 C   0  0  0  0  0  0  0  0  0  0  0  0
  130.3090  124.4100   66.7180 S   0  0  0  0  0  0  0  0  0  0  0  0
  129.8190  126.0350   67.1350 C   0  0  0  0  0  0  0  0  0  0  0  0
  129.8130  126.4560   68.3970 N   0  0  0  0  0  0  0  0  0  0  0  0
  129.4220  127.7380   68.6230 C   0  0  0  0  0  0  0  0  0  0  0  0
  129.4210  128.1800   70.0590 C   0  0  0  0  0  0  0  0  0  0  0  0
  130.5640  128.7580   70.6340 C   0  0  0  0  0  0  0  0  0  0  0  0
  130.5700  129.1690   71.9650 C   0  0  0  0  0  0  0  0  0  0  0  0
  129.4280  129.0080   72.7410 C   0  0  0  0  0  0  0  0  0  0  0  0
  128.2830  128.4350   72.1980 C   0  0  0  0  0  0  0  0  0  0  0  0
  128.2830  128.0230   70.8680 C   0  0  0  0  0  0  0  0  0  0  0  0
  129.0230  128.5830   67.5830 C   0  0  0  0  0  0  0  0  0  0  0  0
  129.0240  128.1480   66.2480 C   0  0  0  0  0  0  0  0  0  0  0  0
  128.5750  129.1260   65.1570 C   0  0  0  0  0  0  0  0  0  0  0  0
  128.5720  130.3990   65.5620 F   0  0  0  0  0  0  0  0  0  0  0  0
  129.3940  129.0430   64.1100 F   0  0  0  0  0  0  0  0  0  0  0  0
  127.3340  128.8300   64.7680 F   0  0  0  0  0  0  0  0  0  0  0  0
  129.4450  126.8110   65.9980 C   0  0  0  0  0  0  0  0  0  0  0  0
  129.5800  126.0300   64.7920 C   0  0  0  0  0  0  0  0  0  0  0  0
  129.2950  126.5300   63.5470 N   0  0  0  0  0  0  0  0  0  0  0  0
  128.8960  122.7470   59.3270 C   0  0  0  0  0  0  0  0  0  0  0  0
  127.8470  122.8430   58.3990 C   0  0  0  0  0  0  0  0  0  0  0  0
  127.9910  122.6020   57.0440 O   0  0  0  0  0  0  0  0  0  0  0  0
  128.7760  123.4910   56.2560 C   0  0  0  0  0  0  0  0  0  0  0  0
  126.5700  123.2020   58.8540 C   0  0  0  0  0  0  0  0  0  0  0  0
  125.5380  123.3140   57.9540 O   0  0  0  0  0  0  0  0  0  0  0  0
  125.0640  124.6420   57.7800 C   0  0  0  0  0  0  0  0  0  0  0  0
  1  2  1  0
  2  3  1  0
  3  4  2  0
  4  5  1  0
  5  6  1  0
  6  7  1  0
  7  8  1  0
  8  9  2  0
  8 10  1  0
 10 11  1  0
 11 12  1  0
 12 13  2  0
 13 14  1  0
 14 15  1  0
 15 16  2  0
 16 17  1  0
 17 18  2  0
 18 19  1  0
 19 20  2  0
 14 21  2  0
 21 22  1  0
 22 23  1  0
 23 24  1  0
 23 25  1  0
 23 26  1  0
 22 27  2  0
 27 28  1  0
 28 29  1  0
  5 30  2  0
 30 31  1  0
 31 32  1  0
 32 33  1  0
 31 34  2  0
 34 35  1  0
 35 36  1  0
 34  3  1  0
 28 10  2  0
 27 12  1  0
 20 15  1  0
M  END
>  <Binding energies>  (57) 
[-7.64]

>  <Ligand effiencies>  (57) 
[-0.19589743589743588]

>  <Interactions>  (57) 
["V-B:MET:535:CE:9803, V-B:PRO:540:CA:9851, V-B:PRO:540:N:9852, V-B:PRO:540:CB:9853, V-B:TYR:539:CE1:9843, V-B:TYR:539:C:9835, V-B:TYR:539:CZ:9845, V-A:HIS:456:CE1:4064, H-A:GLU:543:OE2:4905, H-A:TYR:484:OH:4343, H-A:GLU:543:OE1:4904, V-B:GLU:543:CD:9876, V-B:GLU:543:CG:9875, H-A:HIS:456:NE2:4065, V-B:GLU:543:CB:9874, V-A:GLU:543:CD:4903, V-B:ASN:362:CB:8143, H-B:GLU:543:OE2:9878, V-A:GLU:543:CB:4901, V-A:TYR:484:CZ:4342, V-B:HIS:456:CE1:9037, V-A:GLU:543:CG:4902, V-A:GLU:543:C:4897, V-B:HIS:456:CD2:9035, V-A:LYS:547:CE:4945, V-A:TYR:484:CE1:4340, V-A:GLY:544:CA:4909, V-A:GLY:544:C:4907"]

$$$$
4cj_Grossjean_2025
     RDKit          3D

 28 31  0  0  0  0  0  0  0  0999 V2000
  129.2060  126.5620   63.7840 N   0  0  0  0  0  0  0  0  0  0  0  0
  129.5000  126.0640   65.0280 C   0  0  0  0  0  0  0  0  0  0  0  0
  129.9500  124.7520   65.2440 C   0  0  0  0  0  0  0  0  0  0  0  0
  130.1960  123.6970   64.2580 C   0  0  0  0  0  0  0  0  0  0  0  0
  130.9890  122.7820   64.4970 O   0  0  0  0  0  0  0  0  0  0  0  0
  129.5090  123.8140   63.0950 N   0  0  0  0  0  0  0  0  0  0  0  0
  129.5600  122.9540   62.0060 C   0  0  0  0  0  0  0  0  0  0  0  0
  128.5530  122.3850   61.3790 N   0  0  0  0  0  0  0  0  0  0  0  0
  128.9690  121.6290   60.3820 C   0  0  0  0  0  0  0  0  0  0  0  0
  130.3450  121.5750   60.1820 C   0  0  0  0  0  0  0  0  0  0  0  0
  131.1290  122.5730   61.3710 S   0  0  0  0  0  0  0  0  0  0  0  0
  130.2430  124.4530   66.9560 S   0  0  0  0  0  0  0  0  0  0  0  0
  129.7600  126.0810   67.3680 C   0  0  0  0  0  0  0  0  0  0  0  0
  129.7710  126.5100   68.6270 N   0  0  0  0  0  0  0  0  0  0  0  0
  129.3870  127.7930   68.8510 C   0  0  0  0  0  0  0  0  0  0  0  0
  129.4220  128.2500   70.2810 C   0  0  0  0  0  0  0  0  0  0  0  0
  128.2670  128.2070   71.0780 C   0  0  0  0  0  0  0  0  0  0  0  0
  128.2910  128.6340   72.4030 C   0  0  0  0  0  0  0  0  0  0  0  0
  129.4760  129.1140   72.9520 C   0  0  0  0  0  0  0  0  0  0  0  0
  130.6340  129.1690   72.1840 C   0  0  0  0  0  0  0  0  0  0  0  0
  130.6050  128.7400   70.8600 C   0  0  0  0  0  0  0  0  0  0  0  0
  128.9710  128.6310   67.8110 C   0  0  0  0  0  0  0  0  0  0  0  0
  128.9540  128.1890   66.4790 C   0  0  0  0  0  0  0  0  0  0  0  0
  128.4900  129.1610   65.3870 C   0  0  0  0  0  0  0  0  0  0  0  0
  129.2420  129.1100   64.2860 F   0  0  0  0  0  0  0  0  0  0  0  0
  127.2390  128.8720   65.0310 F   0  0  0  0  0  0  0  0  0  0  0  0
  128.5380  130.4110   65.8470 F   0  0  0  0  0  0  0  0  0  0  0  0
  129.3730  126.8500   66.2310 C   0  0  0  0  0  0  0  0  0  0  0  0
  1  2  1  0
  2  3  2  0
  3  4  1  0
  4  5  2  0
  4  6  1  0
  6  7  1  0
  7  8  2  0
  8  9  1  0
  9 10  2  0
 10 11  1  0
  3 12  1  0
 12 13  1  0
 13 14  2  0
 14 15  1  0
 15 16  1  0
 16 17  2  0
 17 18  1  0
 18 19  2  0
 19 20  1  0
 20 21  2  0
 15 22  2  0
 22 23  1  0
 23 24  1  0
 24 25  1  0
 24 26  1  0
 24 27  1  0
 23 28  2  0
 28  2  1  0
 11  7  1  0
 28 13  1  0
 21 16  1  0
M  END
>  <Binding energies>  (58) 
[-6.84]

>  <Ligand effiencies>  (58) 
[-0.22064516129032258]

>  <Interactions>  (58) 
["V-B:ALA:541:CB:9860, V-B:TYR:539:CE2:9844, V-B:PRO:540:CA:9851, V-B:TYR:539:CD2:9842, V-B:PRO:540:C:9849, V-B:TYR:539:C:9835, V-A:HIS:456:CE1:4064, H-A:GLU:543:OE2:4905, H-A:TYR:484:OH:4343, H-A:GLU:543:OE1:4904, V-B:GLU:543:CD:9876, V-B:GLU:543:CG:9875, H-A:HIS:456:NE2:4065, V-B:GLU:543:CB:9874, V-A:GLU:543:CD:4903, H-B:ALA:541:N:9859, H-B:GLU:543:OE2:9878, V-A:GLU:543:CB:4901, V-A:TYR:484:CZ:4342, V-B:HIS:456:CE1:9037, V-A:GLU:543:CG:4902, V-A:GLU:543:C:4897, V-B:HIS:456:CD2:9035, V-A:LYS:547:CE:4945, V-B:TYR:484:CZ:9314, V-B:TYR:484:CE1:9312, V-A:TYR:484:CE1:4340, H-B:GLU:543:OE1:9877, V-A:GLY:544:CA:4909, V-A:GLY:544:C:4907"]

$$$$
4ck_Grossjean_2025
     RDKit          3D

 33 35  0  0  0  0  0  0  0  0999 V2000
  129.7670  132.8770   56.8240 C   0  0  0  0  0  0  0  0  0  0  0  0
  130.6030  133.5350   55.8850 O   0  0  0  0  0  0  0  0  0  0  0  0
  131.1860  132.6550   54.9350 C   0  0  0  0  0  0  0  0  0  0  0  0
  130.1330  132.2820   53.8840 C   0  0  0  0  0  0  0  0  0  0  0  0
  129.7020  130.9470   54.1130 O   0  0  0  0  0  0  0  0  0  0  0  0
  130.7290  130.0960   54.6040 C   0  0  0  0  0  0  0  0  0  0  0  0
  130.3210  129.5600   55.9830 C   0  0  0  0  0  0  0  0  0  0  0  0
  129.5190  128.4000   55.8040 O   0  0  0  0  0  0  0  0  0  0  0  0
  129.5250  127.8970   54.4740 C   0  0  0  0  0  0  0  0  0  0  0  0
  129.8720  126.4010   54.4910 C   0  0  0  0  0  0  0  0  0  0  0  0
  130.1710  125.9200   55.8400 N   0  0  0  0  0  0  0  0  0  0  0  0
  129.9640  124.6680   56.2970 C   0  0  0  0  0  0  0  0  0  0  0  0
  129.5120  123.7670   55.5880 O   0  0  0  0  0  0  0  0  0  0  0  0
  130.3200  124.4310   57.6960 C   0  0  0  0  0  0  0  0  0  0  0  0
  131.1620  125.6750   58.6170 S   0  0  0  0  0  0  0  0  0  0  0  0
  131.1380  124.6850   60.0570 C   0  0  0  0  0  0  0  0  0  0  0  0
  131.6700  125.1090   61.2010 N   0  0  0  0  0  0  0  0  0  0  0  0
  131.6050  124.2690   62.2670 C   0  0  0  0  0  0  0  0  0  0  0  0
  132.1990  124.7850   63.5460 C   0  0  0  0  0  0  0  0  0  0  0  0
  133.5900  124.8210   63.7310 C   0  0  0  0  0  0  0  0  0  0  0  0
  134.1470  125.2960   64.9160 C   0  0  0  0  0  0  0  0  0  0  0  0
  133.3160  125.7430   65.9380 C   0  0  0  0  0  0  0  0  0  0  0  0
  131.9340  125.7230   65.7800 C   0  0  0  0  0  0  0  0  0  0  0  0
  131.3820  125.2490   64.5920 C   0  0  0  0  0  0  0  0  0  0  0  0
  130.9990  123.0120   62.1820 C   0  0  0  0  0  0  0  0  0  0  0  0
  130.4350  122.5540   60.9800 C   0  0  0  0  0  0  0  0  0  0  0  0
  129.7890  121.1630   60.9560 C   0  0  0  0  0  0  0  0  0  0  0  0
  128.4650  121.2040   60.7980 F   0  0  0  0  0  0  0  0  0  0  0  0
  130.2900  120.4520   59.9470 F   0  0  0  0  0  0  0  0  0  0  0  0
  130.0360  120.5330   62.1050 F   0  0  0  0  0  0  0  0  0  0  0  0
  130.5000  123.4260   59.8550 C   0  0  0  0  0  0  0  0  0  0  0  0
  130.0340  123.3120   58.4940 C   0  0  0  0  0  0  0  0  0  0  0  0
  129.3750  122.2050   58.0240 N   0  0  0  0  0  0  0  0  0  0  0  0
  1  2  1  0
  2  3  1  0
  3  4  1  0
  4  5  1  0
  5  6  1  0
  6  7  1  0
  7  8  1  0
  8  9  1  0
  9 10  1  0
 10 11  1  0
 11 12  1  0
 12 13  2  0
 12 14  1  0
 14 15  1  0
 15 16  1  0
 16 17  2  0
 17 18  1  0
 18 19  1  0
 19 20  2  0
 20 21  1  0
 21 22  2  0
 22 23  1  0
 23 24  2  0
 18 25  2  0
 25 26  1  0
 26 27  1  0
 27 28  1  0
 27 29  1  0
 27 30  1  0
 26 31  2  0
 31 32  1  0
 32 33  1  0
 32 14  2  0
 31 16  1  0
 24 19  1  0
M  END
>  <Binding energies>  (59) 
[-6.06]

>  <Ligand effiencies>  (59) 
[-0.16833333333333333]

>  <Interactions>  (59) 
["V-B:ALA:541:CB:9860, V-B:TYR:539:CE2:9844, H-B:TYR:539:O:9836, V-B:PRO:540:CA:9851, V-B:TYR:539:CD2:9842, V-B:ALA:541:CA:9858, V-B:PRO:540:N:9852, V-B:PRO:540:C:9849, V-B:TYR:539:C:9835, V-B:TYR:539:CZ:9845, V-A:ARG:545:CZ:4921, V-A:PRO:540:N:4879, V-A:TYR:539:CE1:4870, V-A:TYR:539:C:4862, V-A:TYR:539:CD1:4868, H-A:TYR:531:OH:4790, V-A:TYR:539:CG:4867, V-A:ILE:538:CA:4855, V-A:ARG:545:CD:4918, V-A:ARG:545:CG:4917, V-A:GLY:453:CA:4039, V-A:LEU:475:CD2:4254, H-A:TYR:539:N:4865, H-A:LYS:534:NZ:4818, V-A:ILE:538:CG2:4858, V-A:TYR:531:CE1:4787, V-A:TYR:531:CZ:4789, V-A:ILE:538:CD1:4860, V-A:LEU:475:CD1:4253, H-B:TYR:539:OH:9846, V-B:TYR:539:CG:9840, V-A:LYS:534:CE:4817"]

$$$$
4dd_Grossjean_2025
     RDKit          3D

 26 29  0  0  0  0  0  0  0  0999 V2000
  128.7490  129.0900   65.2630 C   0  0  0  0  0  0  0  0  0  0  0  0
  129.0970  128.1110   66.3730 C   0  0  0  0  0  0  0  0  0  0  0  0
  129.0260  128.5610   67.6970 C   0  0  0  0  0  0  0  0  0  0  0  0
  129.3340  127.7080   68.7640 C   0  0  0  0  0  0  0  0  0  0  0  0
  129.2720  128.1650   70.1920 C   0  0  0  0  0  0  0  0  0  0  0  0
  128.1010  128.0010   70.9500 C   0  0  0  0  0  0  0  0  0  0  0  0
  128.0380  128.4190   72.2760 C   0  0  0  0  0  0  0  0  0  0  0  0
  129.1480  129.0120   72.8660 C   0  0  0  0  0  0  0  0  0  0  0  0
  130.3220  129.1860   72.1400 C   0  0  0  0  0  0  0  0  0  0  0  0
  130.3820  128.7630   70.8140 C   0  0  0  0  0  0  0  0  0  0  0  0
  129.7240  126.4190   68.5650 N   0  0  0  0  0  0  0  0  0  0  0  0
  129.7860  125.9880   67.3060 C   0  0  0  0  0  0  0  0  0  0  0  0
  130.2550  124.3500   66.9080 S   0  0  0  0  0  0  0  0  0  0  0  0
  130.0630  124.6650   65.1820 C   0  0  0  0  0  0  0  0  0  0  0  0
  130.3080  123.6040   64.2040 C   0  0  0  0  0  0  0  0  0  0  0  0
  131.0010  122.6270   64.4970 O   0  0  0  0  0  0  0  0  0  0  0  0
  129.7210  123.7810   62.9950 N   0  0  0  0  0  0  0  0  0  0  0  0
  129.8000  122.9890   61.8350 C   0  0  0  0  0  0  0  0  0  0  0  0
  130.2520  121.6790   62.0200 C   0  0  0  0  0  0  0  0  0  0  0  0
  130.3510  120.8110   60.9350 C   0  0  0  0  0  0  0  0  0  0  0  0
  129.9900  121.2510   59.6650 C   0  0  0  0  0  0  0  0  0  0  0  0
  129.5260  122.5490   59.4690 C   0  0  0  0  0  0  0  0  0  0  0  0
  129.4260  123.4190   60.5510 C   0  0  0  0  0  0  0  0  0  0  0  0
  129.6580  125.9890   64.9520 C   0  0  0  0  0  0  0  0  0  0  0  0
  129.4360  126.5130   63.7030 N   0  0  0  0  0  0  0  0  0  0  0  0
  129.4900  126.7660   66.1510 C   0  0  0  0  0  0  0  0  0  0  0  0
  1  2  1  0
  2  3  2  0
  3  4  1  0
  4  5  1  0
  5  6  2  0
  6  7  1  0
  7  8  2  0
  8  9  1  0
  9 10  2  0
  4 11  2  0
 11 12  1  0
 12 13  1  0
 13 14  1  0
 14 15  1  0
 15 16  2  0
 15 17  1  0
 17 18  1  0
 18 19  2  0
 19 20  1  0
 20 21  2  0
 21 22  1  0
 22 23  2  0
 14 24  2  0
 24 25  1  0
 24 26  1  0
 26  2  1  0
 10  5  1  0
 26 12  2  0
 23 18  1  0
M  END
>  <Binding energies>  (60) 
[-7.6]

>  <Ligand effiencies>  (60) 
[-0.26206896551724135]

>  <Interactions>  (60) 
["V-B:ALA:541:CB:9860, V-B:TYR:539:CE2:9844, V-B:TYR:539:CD2:9842, V-B:TYR:539:C:9835, V-A:HIS:456:CE1:4064, H-A:GLU:543:OE2:4905, H-A:TYR:484:OH:4343, H-A:GLU:543:OE1:4904, V-B:GLU:543:CD:9876, V-B:GLU:543:CG:9875, H-A:HIS:456:NE2:4065, V-B:GLU:543:CB:9874, V-A:GLU:543:CD:4903, H-B:GLU:543:OE2:9878, V-A:GLU:543:CB:4901, V-A:TYR:484:CZ:4342, V-B:HIS:456:CE1:9037, V-A:GLU:543:CG:4902, V-A:GLU:543:C:4897, V-B:HIS:456:CD2:9035, V-A:LYS:547:CE:4945, V-A:TYR:484:CE1:4340, V-A:GLY:544:C:4907"]

$$$$
4dg_Grossjean_2025
     RDKit          3D

 27 30  0  0  0  0  0  0  0  0999 V2000
  128.7870  129.0760   65.2690 C   0  0  0  0  0  0  0  0  0  0  0  0
  129.1240  128.0960   66.3830 C   0  0  0  0  0  0  0  0  0  0  0  0
  129.0910  128.5590   67.7030 C   0  0  0  0  0  0  0  0  0  0  0  0
  129.3910  127.7070   68.7730 C   0  0  0  0  0  0  0  0  0  0  0  0
  129.3620  128.1760   70.2010 C   0  0  0  0  0  0  0  0  0  0  0  0
  130.4940  128.7620   70.7900 C   0  0  0  0  0  0  0  0  0  0  0  0
  130.4740  129.1940   72.1140 C   0  0  0  0  0  0  0  0  0  0  0  0
  129.3170  129.0460   72.8710 C   0  0  0  0  0  0  0  0  0  0  0  0
  128.1820  128.4650   72.3130 C   0  0  0  0  0  0  0  0  0  0  0  0
  128.2070  128.0340   70.9900 C   0  0  0  0  0  0  0  0  0  0  0  0
  129.7080  126.3980   68.5810 N   0  0  0  0  0  0  0  0  0  0  0  0
  129.7400  125.9550   67.3240 C   0  0  0  0  0  0  0  0  0  0  0  0
  130.1390  124.2980   66.9370 S   0  0  0  0  0  0  0  0  0  0  0  0
  129.9440  124.6080   65.2120 C   0  0  0  0  0  0  0  0  0  0  0  0
  130.1970  123.5450   64.2410 C   0  0  0  0  0  0  0  0  0  0  0  0
  130.9990  122.6390   64.4750 O   0  0  0  0  0  0  0  0  0  0  0  0
  129.5310  123.6450   63.0710 N   0  0  0  0  0  0  0  0  0  0  0  0
  129.6110  122.6890   61.9680 C   0  0  0  0  0  0  0  0  0  0  0  0
  128.6340  122.9870   60.8360 C   0  0  0  0  0  0  0  0  0  0  0  0
  129.0080  122.7380   59.5120 C   0  0  0  0  0  0  0  0  0  0  0  0
  128.1070  122.9790   58.4790 C   0  0  0  0  0  0  0  0  0  0  0  0
  126.8330  123.4590   58.7720 C   0  0  0  0  0  0  0  0  0  0  0  0
  126.4470  123.6940   60.0900 C   0  0  0  0  0  0  0  0  0  0  0  0
  127.3480  123.4510   61.1240 C   0  0  0  0  0  0  0  0  0  0  0  0
  129.6010  125.9470   64.9700 C   0  0  0  0  0  0  0  0  0  0  0  0
  129.4020  126.4700   63.7180 N   0  0  0  0  0  0  0  0  0  0  0  0
  129.4670  126.7360   66.1660 C   0  0  0  0  0  0  0  0  0  0  0  0
  1  2  1  0
  2  3  2  0
  3  4  1  0
  4  5  1  0
  5  6  2  0
  6  7  1  0
  7  8  2  0
  8  9  1  0
  9 10  2  0
  4 11  2  0
 11 12  1  0
 12 13  1  0
 13 14  1  0
 14 15  1  0
 15 16  2  0
 15 17  1  0
 17 18  1  0
 18 19  1  0
 19 20  2  0
 20 21  1  0
 21 22  2  0
 22 23  1  0
 23 24  2  0
 14 25  2  0
 25 26  1  0
 25 27  1  0
 27  2  1  0
 10  5  1  0
 27 12  2  0
 24 19  1  0
M  END
>  <Binding energies>  (61) 
[-7.75]

>  <Ligand effiencies>  (61) 
[-0.25833333333333336]

>  <Interactions>  (61) 
["V-B:ALA:541:CB:9860, V-B:PRO:540:CA:9851, V-B:PRO:540:N:9852, V-B:PRO:540:CB:9853, V-B:TYR:539:C:9835, V-A:HIS:456:CE1:4064, H-A:GLU:543:OE2:4905, H-A:TYR:484:OH:4343, H-A:GLU:543:OE1:4904, V-B:GLU:543:CD:9876, V-B:GLU:543:CG:9875, H-A:HIS:456:NE2:4065, V-B:GLU:543:CB:9874, V-A:GLU:543:CD:4903, H-B:GLU:543:OE2:9878, V-A:GLU:543:CB:4901, V-A:TYR:484:CZ:4342, V-B:HIS:456:CE1:9037, V-A:GLU:543:CG:4902, V-A:GLU:543:C:4897, V-B:HIS:456:CD2:9035, V-A:LYS:547:CE:4945, V-B:GLU:543:CA:9872, V-A:TYR:484:CE1:4340, V-A:GLY:544:CA:4909, V-A:GLY:544:C:4907"]

$$$$
4dj_Grossjean_2025
     RDKit          3D

 25 28  0  0  0  0  0  0  0  0999 V2000
  128.7580  129.1650   65.3680 C   0  0  0  0  0  0  0  0  0  0  0  0
  129.1420  128.1790   66.4610 C   0  0  0  0  0  0  0  0  0  0  0  0
  129.1330  128.6270   67.7870 C   0  0  0  0  0  0  0  0  0  0  0  0
  129.4780  127.7700   68.8380 C   0  0  0  0  0  0  0  0  0  0  0  0
  129.4730  128.2220   70.2710 C   0  0  0  0  0  0  0  0  0  0  0  0
  128.3100  128.1220   71.0530 C   0  0  0  0  0  0  0  0  0  0  0  0
  128.2980  128.5390   72.3820 C   0  0  0  0  0  0  0  0  0  0  0  0
  129.4530  129.0680   72.9490 C   0  0  0  0  0  0  0  0  0  0  0  0
  130.6170  129.1820   72.1970 C   0  0  0  0  0  0  0  0  0  0  0  0
  130.6250  128.7630   70.8700 C   0  0  0  0  0  0  0  0  0  0  0  0
  129.8180  126.4700   68.6230 N   0  0  0  0  0  0  0  0  0  0  0  0
  129.8270  126.0420   67.3620 C   0  0  0  0  0  0  0  0  0  0  0  0
  130.2520  124.3970   66.9420 S   0  0  0  0  0  0  0  0  0  0  0  0
  130.0070  124.7220   65.2250 C   0  0  0  0  0  0  0  0  0  0  0  0
  130.2250  123.6680   64.2340 C   0  0  0  0  0  0  0  0  0  0  0  0
  130.9980  122.7340   64.4670 O   0  0  0  0  0  0  0  0  0  0  0  0
  129.5360  123.8040   63.0750 N   0  0  0  0  0  0  0  0  0  0  0  0
  129.5650  122.9510   61.9810 C   0  0  0  0  0  0  0  0  0  0  0  0
  128.5450  122.3910   61.3660 N   0  0  0  0  0  0  0  0  0  0  0  0
  128.9420  121.6360   60.3590 C   0  0  0  0  0  0  0  0  0  0  0  0
  130.3140  121.5750   60.1390 C   0  0  0  0  0  0  0  0  0  0  0  0
  131.1210  122.5620   61.3200 S   0  0  0  0  0  0  0  0  0  0  0  0
  129.6170  126.0540   65.0130 C   0  0  0  0  0  0  0  0  0  0  0  0
  129.3610  126.5860   63.7740 N   0  0  0  0  0  0  0  0  0  0  0  0
  129.5040  126.8290   66.2190 C   0  0  0  0  0  0  0  0  0  0  0  0
  1  2  1  0
  2  3  2  0
  3  4  1  0
  4  5  1  0
  5  6  2  0
  6  7  1  0
  7  8  2  0
  8  9  1  0
  9 10  2  0
  4 11  2  0
 11 12  1  0
 12 13  1  0
 13 14  1  0
 14 15  1  0
 15 16  2  0
 15 17  1  0
 17 18  1  0
 18 19  2  0
 19 20  1  0
 20 21  2  0
 21 22  1  0
 14 23  2  0
 23 24  1  0
 23 25  1  0
 25  2  1  0
 10  5  1  0
 25 12  2  0
 22 18  1  0
M  END
>  <Binding energies>  (62) 
[-7.2]

>  <Ligand effiencies>  (62) 
[-0.2571428571428572]

>  <Interactions>  (62) 
["V-B:ALA:541:CB:9860, V-B:TYR:539:CE2:9844, V-B:PRO:540:CA:9851, V-B:TYR:539:CD2:9842, V-B:PRO:540:C:9849, V-B:TYR:539:C:9835, V-A:HIS:456:CE1:4064, H-A:GLU:543:OE2:4905, H-A:TYR:484:OH:4343, H-A:GLU:543:OE1:4904, V-B:GLU:543:CD:9876, V-B:GLU:543:CG:9875, H-A:HIS:456:NE2:4065, V-B:GLU:543:CB:9874, V-A:GLU:543:CD:4903, H-B:ALA:541:N:9859, H-B:GLU:543:OE2:9878, V-A:GLU:543:CB:4901, V-A:TYR:484:CZ:4342, V-B:HIS:456:CE1:9037, V-A:GLU:543:CG:4902, V-A:GLU:543:C:4897, V-B:HIS:456:CD2:9035, V-A:LYS:547:CE:4945, V-A:TYR:484:CE1:4340, V-A:GLY:544:CA:4909, V-A:GLY:544:C:4907"]

$$$$
4ea_Grossjean_2025
     RDKit          3D

 31 34  0  0  0  0  0  0  0  0999 V2000
  132.0500  132.4490   54.7530 C   0  0  0  0  0  0  0  0  0  0  0  0
  130.5860  132.8540   54.9450 C   0  0  0  0  0  0  0  0  0  0  0  0
  130.4480  133.5540   56.1740 O   0  0  0  0  0  0  0  0  0  0  0  0
  129.7200  133.0380   57.1980 C   0  0  0  0  0  0  0  0  0  0  0  0
  128.7540  133.6170   57.7050 O   0  0  0  0  0  0  0  0  0  0  0  0
  130.2080  131.6930   57.6530 C   0  0  0  0  0  0  0  0  0  0  0  0
  129.2850  130.6520   57.8180 C   0  0  0  0  0  0  0  0  0  0  0  0
  129.7060  129.3930   58.2390 C   0  0  0  0  0  0  0  0  0  0  0  0
  131.0540  129.1490   58.5030 C   0  0  0  0  0  0  0  0  0  0  0  0
  131.3620  127.8400   58.9210 N   0  0  0  0  0  0  0  0  0  0  0  0
  130.8330  126.6500   58.5450 C   0  0  0  0  0  0  0  0  0  0  0  0
  129.9330  126.5230   57.7150 O   0  0  0  0  0  0  0  0  0  0  0  0
  131.4110  125.4740   59.2020 C   0  0  0  0  0  0  0  0  0  0  0  0
  131.7600  124.0130   58.2740 S   0  0  0  0  0  0  0  0  0  0  0  0
  132.3650  123.1960   59.6970 C   0  0  0  0  0  0  0  0  0  0  0  0
  132.8230  121.9440   59.6490 N   0  0  0  0  0  0  0  0  0  0  0  0
  133.2640  121.4260   60.8220 C   0  0  0  0  0  0  0  0  0  0  0  0
  133.7800  120.0010   60.7450 C   0  0  0  0  0  0  0  0  0  0  0  0
  133.2580  122.1230   62.0280 C   0  0  0  0  0  0  0  0  0  0  0  0
  132.7780  123.4360   62.0730 C   0  0  0  0  0  0  0  0  0  0  0  0
  132.7780  124.1630   63.3620 C   0  0  0  0  0  0  0  0  0  0  0  0
  133.9700  124.6910   63.8710 C   0  0  0  0  0  0  0  0  0  0  0  0
  133.9710  125.3780   65.0820 C   0  0  0  0  0  0  0  0  0  0  0  0
  132.7790  125.5340   65.7870 C   0  0  0  0  0  0  0  0  0  0  0  0
  131.5880  125.0080   65.2920 C   0  0  0  0  0  0  0  0  0  0  0  0
  131.5890  124.3220   64.0810 C   0  0  0  0  0  0  0  0  0  0  0  0
  132.3060  124.0160   60.8640 C   0  0  0  0  0  0  0  0  0  0  0  0
  131.7570  125.3110   60.5530 C   0  0  0  0  0  0  0  0  0  0  0  0
  131.5950  126.2840   61.5050 N   0  0  0  0  0  0  0  0  0  0  0  0
  131.9850  130.1860   58.3400 C   0  0  0  0  0  0  0  0  0  0  0  0
  131.5630  131.4440   57.9200 C   0  0  0  0  0  0  0  0  0  0  0  0
  1  2  1  0
  2  3  1  0
  3  4  1  0
  4  5  2  0
  4  6  1  0
  6  7  2  0
  7  8  1  0
  8  9  2  0
  9 10  1  0
 10 11  1  0
 11 12  2  0
 11 13  1  0
 13 14  1  0
 14 15  1  0
 15 16  2  0
 16 17  1  0
 17 18  1  0
 17 19  2  0
 19 20  1  0
 20 21  1  0
 21 22  2  0
 22 23  1  0
 23 24  2  0
 24 25  1  0
 25 26  2  0
 20 27  2  0
 27 28  1  0
 28 29  1  0
  9 30  1  0
 30 31  2  0
 31  6  1  0
 28 13  2  0
 27 15  1  0
 26 21  1  0
M  END
>  <Binding energies>  (63) 
[-8.23]

>  <Ligand effiencies>  (63) 
[-0.24205882352941177]

>  <Interactions>  (63) 
["V-B:TYR:539:CE2:9844, V-A:TRP:381:CH2:3367, V-A:ASP:366:CG:3208, H-A:GLU:543:OE2:4905, V-A:ARG:545:CZ:4921, V-A:LEU:363:CD1:3184, V-A:PRO:540:N:4879, V-A:TYR:539:CE1:4870, V-A:TYR:539:C:4862, V-A:TYR:539:CD1:4868, V-A:PRO:540:CA:4878, H-A:TYR:531:OH:4790, V-A:TYR:539:CA:4864, V-A:TYR:539:CG:4867, V-A:PRO:540:CD:4882, V-A:ILE:538:CA:4855, H-A:ASP:366:OD2:3210, V-A:PRO:540:CB:4880, V-A:ARG:545:CD:4918, V-A:GLY:453:CA:4039, V-A:GLY:453:C:4037, V-A:ILE:369:CG2:3232, V-A:ILE:369:CD1:3234, V-A:LEU:475:CD2:4254, H-A:TYR:539:N:4865, V-A:ILE:538:CG2:4858, V-A:TYR:531:CZ:4789, V-A:ILE:538:CD1:4860, V-A:TRP:381:CZ2:3365, H-A:ASP:366:OD1:3209"]

$$$$
4eb_Grossjean_2025
     RDKit          3D

 30 33  0  0  0  0  0  0  0  0999 V2000
  123.8660  124.6310   57.6080 C   0  0  0  0  0  0  0  0  0  0  0  0
  124.7500  124.1480   56.6070 O   0  0  0  0  0  0  0  0  0  0  0  0
  125.5250  123.0540   56.8280 C   0  0  0  0  0  0  0  0  0  0  0  0
  125.3340  121.9640   56.2810 O   0  0  0  0  0  0  0  0  0  0  0  0
  126.6380  123.3040   57.8040 C   0  0  0  0  0  0  0  0  0  0  0  0
  126.3250  123.5780   59.1420 C   0  0  0  0  0  0  0  0  0  0  0  0
  127.3340  123.8140   60.0710 C   0  0  0  0  0  0  0  0  0  0  0  0
  128.6740  123.7810   59.6850 C   0  0  0  0  0  0  0  0  0  0  0  0
  129.6080  124.0340   60.7090 N   0  0  0  0  0  0  0  0  0  0  0  0
  130.9630  124.0140   60.6860 C   0  0  0  0  0  0  0  0  0  0  0  0
  131.6360  123.7500   59.6890 O   0  0  0  0  0  0  0  0  0  0  0  0
  131.6140  124.3340   61.9590 C   0  0  0  0  0  0  0  0  0  0  0  0
  133.3290  123.9890   62.1950 S   0  0  0  0  0  0  0  0  0  0  0  0
  133.2820  124.6230   63.8240 C   0  0  0  0  0  0  0  0  0  0  0  0
  134.3640  124.6460   64.6040 N   0  0  0  0  0  0  0  0  0  0  0  0
  134.1940  125.1620   65.8450 C   0  0  0  0  0  0  0  0  0  0  0  0
  135.4390  125.1780   66.7140 C   0  0  0  0  0  0  0  0  0  0  0  0
  132.9800  125.6510   66.3210 C   0  0  0  0  0  0  0  0  0  0  0  0
  131.8470  125.6250   65.5000 C   0  0  0  0  0  0  0  0  0  0  0  0
  130.5630  126.1490   66.0200 C   0  0  0  0  0  0  0  0  0  0  0  0
  130.0360  125.6550   67.2170 C   0  0  0  0  0  0  0  0  0  0  0  0
  128.8300  126.1480   67.7080 C   0  0  0  0  0  0  0  0  0  0  0  0
  128.1490  127.1350   66.9990 C   0  0  0  0  0  0  0  0  0  0  0  0
  128.6650  127.6320   65.8040 C   0  0  0  0  0  0  0  0  0  0  0  0
  129.8710  127.1380   65.3150 C   0  0  0  0  0  0  0  0  0  0  0  0
  131.9840  125.0910   64.1900 C   0  0  0  0  0  0  0  0  0  0  0  0
  131.0530  124.9140   63.1070 C   0  0  0  0  0  0  0  0  0  0  0  0
  129.7350  125.2860   63.2060 N   0  0  0  0  0  0  0  0  0  0  0  0
  128.9980  123.5070   58.3470 C   0  0  0  0  0  0  0  0  0  0  0  0
  127.9870  123.2720   57.4190 C   0  0  0  0  0  0  0  0  0  0  0  0
  1  2  1  0
  2  3  1  0
  3  4  2  0
  3  5  1  0
  5  6  2  0
  6  7  1  0
  7  8  2  0
  8  9  1  0
  9 10  1  0
 10 11  2  0
 10 12  1  0
 12 13  1  0
 13 14  1  0
 14 15  2  0
 15 16  1  0
 16 17  1  0
 16 18  2  0
 18 19  1  0
 19 20  1  0
 20 21  2  0
 21 22  1  0
 22 23  2  0
 23 24  1  0
 24 25  2  0
 19 26  2  0
 26 27  1  0
 27 28  1  0
  8 29  1  0
 29 30  2  0
 30  5  1  0
 27 12  2  0
 26 14  1  0
 25 20  1  0
M  END
>  <Binding energies>  (64) 
[-8.8]

>  <Ligand effiencies>  (64) 
[-0.26666666666666666]

>  <Interactions>  (64) 
["H-B:TYR:531:OH:9763, V-B:MET:535:CE:9803, V-B:PRO:540:CD:9855, V-B:PRO:540:CA:9851, V-B:PRO:540:N:9852, V-B:PRO:540:CB:9853, V-B:TYR:539:C:9835, V-A:HIS:456:CE1:4064, V-A:ASP:366:CG:3208, H-A:TYR:484:OH:4343, H-A:GLY:454:N:4045, V-B:GLU:543:CD:9876, V-B:GLU:543:CG:9875, V-A:ARG:545:CZ:4921, V-B:GLU:543:CB:9874, V-A:GLU:543:CD:4903, H-B:GLU:543:OE2:9878, V-A:ARG:545:CD:4918, V-A:ARG:545:CG:4917, V-A:GLY:453:CA:4039, V-A:GLY:453:C:4037, V-A:HIS:456:CD2:4063, V-B:LEU:363:CA:8152, V-B:LEU:363:CD1:8156, V-B:GLU:543:CA:9872, H-B:TYR:539:N:9838, V-B:ASP:366:CG:8180, V-B:ASP:366:CB:8179, V-B:TYR:531:CE2:9761, V-A:ILE:455:C:4047, V-A:ARG:545:CB:4916"]

$$$$
8b_Ghoteimi_2023
     RDKit          3D

 34 38  0  0  0  0  0  0  0  0999 V2000
  128.0350  130.2750   74.6310 C   0  0  0  0  0  0  0  0  0  0  0  0
  129.0320  129.3330   74.2470 O   0  0  0  0  0  0  0  0  0  0  0  0
  129.1400  128.9710   72.9180 C   0  0  0  0  0  0  0  0  0  0  0  0
  128.0110  128.4030   72.3340 C   0  0  0  0  0  0  0  0  0  0  0  0
  128.0270  128.0060   71.0000 C   0  0  0  0  0  0  0  0  0  0  0  0
  129.1780  128.1680   70.2150 C   0  0  0  0  0  0  0  0  0  0  0  0
  129.2020  127.7410   68.7810 C   0  0  0  0  0  0  0  0  0  0  0  0
  128.6670  128.5410   67.7650 C   0  0  0  0  0  0  0  0  0  0  0  0
  128.7030  128.1190   66.4330 C   0  0  0  0  0  0  0  0  0  0  0  0
  128.1190  128.9850   65.3830 C   0  0  0  0  0  0  0  0  0  0  0  0
  126.9510  128.6000   64.7230 C   0  0  0  0  0  0  0  0  0  0  0  0
  126.3980  129.4200   63.7430 C   0  0  0  0  0  0  0  0  0  0  0  0
  127.0040  130.6320   63.4070 C   0  0  0  0  0  0  0  0  0  0  0  0
  126.3840  131.3800   62.4240 O   0  0  0  0  0  0  0  0  0  0  0  0
  126.7170  132.7570   62.2860 C   0  0  0  0  0  0  0  0  0  0  0  0
  128.1810  131.0140   64.0680 C   0  0  0  0  0  0  0  0  0  0  0  0
  128.7330  130.1940   65.0490 C   0  0  0  0  0  0  0  0  0  0  0  0
  129.3040  126.8640   66.1440 C   0  0  0  0  0  0  0  0  0  0  0  0
  129.5140  126.1420   64.9170 C   0  0  0  0  0  0  0  0  0  0  0  0
  129.1110  126.6290   63.7000 N   0  0  0  0  0  0  0  0  0  0  0  0
  130.1630  124.9090   65.0870 C   0  0  0  0  0  0  0  0  0  0  0  0
  130.5370  123.9270   64.0670 C   0  0  0  0  0  0  0  0  0  0  0  0
  131.6270  123.3530   64.1160 O   0  0  0  0  0  0  0  0  0  0  0  0
  129.6120  123.7150   63.0970 N   0  0  0  0  0  0  0  0  0  0  0  0
  129.7010  122.8450   62.0190 C   0  0  0  0  0  0  0  0  0  0  0  0
  130.8870  122.6120   61.3250 C   0  0  0  0  0  0  0  0  0  0  0  0
  130.5560  121.7060   60.3440 C   0  0  0  0  0  0  0  0  0  0  0  0
  129.2400  121.4050   60.4440 O   0  0  0  0  0  0  0  0  0  0  0  0
  128.7080  122.1320   61.5110 N   0  0  0  0  0  0  0  0  0  0  0  0
  130.5350  124.6140   66.7870 S   0  0  0  0  0  0  0  0  0  0  0  0
  129.8200  126.1390   67.2560 C   0  0  0  0  0  0  0  0  0  0  0  0
  129.7830  126.5380   68.5270 N   0  0  0  0  0  0  0  0  0  0  0  0
  130.3100  128.7420   70.8080 C   0  0  0  0  0  0  0  0  0  0  0  0
  130.2970  129.1390   72.1430 C   0  0  0  0  0  0  0  0  0  0  0  0
  1  2  1  0
  2  3  1  0
  3  4  2  0
  4  5  1  0
  5  6  2  0
  6  7  1  0
  7  8  2  0
  8  9  1  0
  9 10  1  0
 10 11  2  0
 11 12  1  0
 12 13  2  0
 13 14  1  0
 14 15  1  0
 13 16  1  0
 16 17  2  0
  9 18  2  0
 18 19  1  0
 19 20  1  0
 19 21  2  0
 21 22  1  0
 22 23  2  0
 22 24  1  0
 24 25  1  0
 25 26  1  0
 26 27  2  0
 27 28  1  0
 28 29  1  0
 21 30  1  0
 30 31  1  0
 31 32  2  0
  6 33  1  0
 33 34  2  0
 34  3  1  0
 32  7  1  0
 17 10  1  0
 31 18  1  0
 29 25  2  0
M  END
>  <Binding energies>  (65) 
[-7.89]

>  <Ligand effiencies>  (65) 
[-0.21324324324324323]

>  <Interactions>  (65) 
["V-B:ALA:541:CB:9860, V-A:HIS:456:CE1:4064, H-A:GLU:543:OE2:4905, H-A:TYR:484:OH:4343, H-A:GLU:543:OE1:4904, V-B:GLU:543:CD:9876, V-B:GLU:543:CG:9875, H-A:HIS:456:NE2:4065, V-B:GLU:543:CB:9874, V-A:GLU:543:CD:4903, H-B:ALA:541:N:9859, H-B:GLU:543:OE2:9878, V-A:GLU:543:CB:4901, V-A:TYR:484:CZ:4342, V-B:HIS:456:CE1:9037, V-A:GLU:543:CG:4902, V-A:GLU:543:C:4897, V-B:HIS:456:CD2:9035, V-A:LYS:547:CE:4945, H-A:LYS:547:NZ:4946, V-A:TYR:484:CE1:4340, H-B:GLU:543:OE1:9877, V-A:GLY:544:C:4907"]

$$$$
9d_Ghoteimi_2023
     RDKit          3D

 38 43  0  0  0  0  0  0  0  0999 V2000
  133.9760  123.1070   57.1710 C   0  0  0  0  0  0  0  0  0  0  0  0
  132.8350  123.2580   58.0040 O   0  0  0  0  0  0  0  0  0  0  0  0
  132.8440  122.8080   59.2850 C   0  0  0  0  0  0  0  0  0  0  0  0
  133.2870  121.7080   59.6270 O   0  0  0  0  0  0  0  0  0  0  0  0
  132.2600  123.7760   60.2400 C   0  0  0  0  0  0  0  0  0  0  0  0
  131.8420  123.2550   61.8720 S   0  0  0  0  0  0  0  0  0  0  0  0
  131.3030  124.8650   62.2900 C   0  0  0  0  0  0  0  0  0  0  0  0
  130.8580  125.1570   63.5110 N   0  0  0  0  0  0  0  0  0  0  0  0
  130.4790  126.4410   63.7390 C   0  0  0  0  0  0  0  0  0  0  0  0
  130.0080  126.7510   65.1240 C   0  0  0  0  0  0  0  0  0  0  0  0
  130.4440  125.9860   66.2110 C   0  0  0  0  0  0  0  0  0  0  0  0
  130.0090  126.2650   67.5030 C   0  0  0  0  0  0  0  0  0  0  0  0
  129.1300  127.3290   67.7590 C   0  0  0  0  0  0  0  0  0  0  0  0
  128.6700  127.6110   69.0500 N   0  0  0  0  0  0  0  0  0  0  0  0
  127.4710  126.9480   69.6000 C   0  0  0  0  0  0  0  0  0  0  0  0
  126.9150  127.6200   70.8730 C   0  0  0  0  0  0  0  0  0  0  0  0
  127.9340  127.7220   71.8530 O   0  0  0  0  0  0  0  0  0  0  0  0
  129.0220  128.5060   71.3910 C   0  0  0  0  0  0  0  0  0  0  0  0
  129.6440  127.8640   70.1330 C   0  0  0  0  0  0  0  0  0  0  0  0
  128.6840  128.0840   66.6640 C   0  0  0  0  0  0  0  0  0  0  0  0
  129.1170  127.8030   65.3710 C   0  0  0  0  0  0  0  0  0  0  0  0
  130.5140  127.4180   62.7410 C   0  0  0  0  0  0  0  0  0  0  0  0
  130.9620  127.1120   61.4510 C   0  0  0  0  0  0  0  0  0  0  0  0
  130.9530  128.1810   60.4190 C   0  0  0  0  0  0  0  0  0  0  0  0
  131.7450  129.3220   60.5670 C   0  0  0  0  0  0  0  0  0  0  0  0
  131.7480  130.3130   59.5880 C   0  0  0  0  0  0  0  0  0  0  0  0
  130.9690  130.1800   58.4270 C   0  0  0  0  0  0  0  0  0  0  0  0
  130.9470  131.1640   57.4360 N   0  0  0  0  0  0  0  0  0  0  0  0
  132.2080  131.8310   57.0580 C   0  0  0  0  0  0  0  0  0  0  0  0
  132.1180  132.5890   55.7170 C   0  0  0  0  0  0  0  0  0  0  0  0
  131.0440  133.5180   55.7530 O   0  0  0  0  0  0  0  0  0  0  0  0
  129.8000  132.8720   55.9790 C   0  0  0  0  0  0  0  0  0  0  0  0
  129.8320  132.1250   57.3290 C   0  0  0  0  0  0  0  0  0  0  0  0
  130.1770  129.0310   58.2900 C   0  0  0  0  0  0  0  0  0  0  0  0
  130.1740  128.0420   59.2690 C   0  0  0  0  0  0  0  0  0  0  0  0
  131.4040  125.7820   61.2020 C   0  0  0  0  0  0  0  0  0  0  0  0
  131.9730  125.1330   60.0500 C   0  0  0  0  0  0  0  0  0  0  0  0
  132.2320  125.7920   58.8760 N   0  0  0  0  0  0  0  0  0  0  0  0
  1  2  1  0
  2  3  1  0
  3  4  2  0
  3  5  1  0
  5  6  1  0
  6  7  1  0
  7  8  2  0
  8  9  1  0
  9 10  1  0
 10 11  2  0
 11 12  1  0
 12 13  2  0
 13 14  1  0
 14 15  1  0
 15 16  1  0
 16 17  1  0
 17 18  1  0
 18 19  1  0
 13 20  1  0
 20 21  2  0
  9 22  2  0
 22 23  1  0
 23 24  1  0
 24 25  2  0
 25 26  1  0
 26 27  2  0
 27 28  1  0
 28 29  1  0
 29 30  1  0
 30 31  1  0
 31 32  1  0
 32 33  1  0
 27 34  1  0
 34 35  2  0
 23 36  2  0
 36 37  1  0
 37 38  1  0
 37  5  2  0
 36  7  1  0
 21 10  1  0
 35 24  1  0
 19 14  1  0
 33 28  1  0
M  END
>  <Binding energies>  (66) 
[-8.59]

>  <Ligand effiencies>  (66) 
[-0.21475]

>  <Interactions>  (66) 
["V-B:TYR:539:CE2:9844, V-B:TYR:539:CZ:9845, V-B:GLU:543:C:9870, V-A:HIS:456:CE1:4064, V-A:ASP:366:CG:3208, V-B:GLU:543:CB:9874, V-A:GLU:543:CD:4903, V-A:LEU:363:CD1:3184, V-A:TYR:539:CE1:4870, V-A:TYR:539:CD1:4868, V-A:ASP:366:CB:3207, V-A:PRO:540:CG:4881, H-A:TYR:531:OH:4790, V-A:PRO:540:CD:4882, H-A:ASP:366:OD2:3210, V-A:PRO:540:CB:4880, V-B:HIS:456:CE1:9037, V-A:ILE:369:CG2:3232, V-A:ILE:369:CD1:3234, H-A:TYR:539:N:4865, V-A:ILE:538:CG2:4858, V-A:TYR:531:CZ:4789, V-B:HIS:456:CD2:9035, H-B:LYS:547:NZ:9919, V-A:ASN:370:CB:3240, V-A:ASP:366:C:3203, V-A:ILE:369:CB:3231, H-B:TYR:539:OH:9846, V-B:GLY:544:C:9880, V-B:HIS:456:CG:9033"]

$$$$
RR10_Rahimova_2017
     RDKit          3D

 34 38  0  0  0  0  0  0  0  0999 V2000
  133.6050  123.6250   57.0420 C   0  0  0  0  0  0  0  0  0  0  0  0
  133.5190  123.3730   58.5570 C   0  0  1  0  0  0  0  0  0  0  0  0
  132.7860  124.5190   59.2920 C   0  0  0  0  0  0  0  0  0  0  0  0
  132.7410  124.2620   60.8150 C   0  0  0  0  0  0  0  0  0  0  0  0
  132.0550  122.9150   61.1610 C   0  0  1  0  0  0  0  0  0  0  0  0
  130.6210  122.9660   60.8470 N   0  0  0  0  0  0  0  0  0  0  0  0
  129.7800  121.9150   60.8620 C   0  0  0  0  0  0  0  0  0  0  0  0
  130.1360  120.7760   61.1720 O   0  0  0  0  0  0  0  0  0  0  0  0
  128.3180  122.1900   60.4550 C   0  0  1  0  0  0  0  0  0  0  0  0
  127.6930  123.2140   61.4380 C   0  0  0  0  0  0  0  0  0  0  0  0
  126.2570  123.5610   60.9780 C   0  0  0  0  0  0  0  0  0  0  0  0
  126.1980  123.9970   59.4960 C   0  0  0  0  0  0  0  0  0  0  0  0
  126.8730  122.9950   58.6270 N   0  0  0  0  0  0  0  0  0  0  0  0
  126.6110  123.2330   56.8910 S   0  0  0  0  0  0  0  0  0  0  0  0
  125.2480  123.7450   56.7020 O   0  0  0  0  0  0  0  0  0  0  0  0
  127.0450  122.0140   56.1980 O   0  0  0  0  0  0  0  0  0  0  0  0
  127.7270  124.5580   56.4290 C   0  0  0  0  0  0  0  0  0  0  0  0
  129.0540  124.2540   56.1080 C   0  0  0  0  0  0  0  0  0  0  0  0
  129.9750  125.2400   55.7430 C   0  0  0  0  0  0  0  0  0  0  0  0
  129.5020  126.5540   55.7100 C   0  0  0  0  0  0  0  0  0  0  0  0
  130.0780  127.7670   55.4140 N   0  0  0  0  0  0  0  0  0  0  0  0
  129.1120  128.7420   55.5540 C   0  0  0  0  0  0  0  0  0  0  0  0
  129.3670  130.2030   55.3230 C   0  0  0  0  0  0  0  0  0  0  0  0
  129.4700  131.0860   56.4070 C   0  0  0  0  0  0  0  0  0  0  0  0
  129.7100  132.4410   56.1950 C   0  0  0  0  0  0  0  0  0  0  0  0
  129.8480  132.9210   54.8950 C   0  0  0  0  0  0  0  0  0  0  0  0
  129.7490  132.0580   53.8080 C   0  0  0  0  0  0  0  0  0  0  0  0
  129.5090  130.7030   54.0210 C   0  0  0  0  0  0  0  0  0  0  0  0
  127.9520  128.2370   55.9130 N   0  0  0  0  0  0  0  0  0  0  0  0
  128.1620  126.8880   56.0200 C   0  0  0  0  0  0  0  0  0  0  0  0
  127.2600  125.8770   56.3810 C   0  0  0  0  0  0  0  0  0  0  0  0
  128.2860  122.7390   59.0070 C   0  0  0  0  0  0  0  0  0  0  0  0
  132.7900  121.7770   60.4030 C   0  0  0  0  0  0  0  0  0  0  0  0
  132.8300  122.0260   58.8790 C   0  0  0  0  0  0  0  0  0  0  0  0
  2  1  1  6
  2  3  1  0
  3  4  1  0
  4  5  1  0
  5  6  1  6
  6  7  1  0
  7  8  2  0
  9  7  1  1
  9 10  1  0
 10 11  1  0
 11 12  1  0
 12 13  1  0
 13 14  1  0
 14 15  2  0
 14 16  2  0
 14 17  1  0
 17 18  2  0
 18 19  1  0
 19 20  2  0
 20 21  1  0
 21 22  1  0
 22 23  1  0
 23 24  2  0
 24 25  1  0
 25 26  2  0
 26 27  1  0
 27 28  2  0
 22 29  2  0
 29 30  1  0
 30 31  2  0
 13 32  1  0
  5 33  1  0
 33 34  1  0
 34  2  1  0
 32  9  1  0
 31 17  1  0
 30 20  1  0
 28 23  1  0
M  END
>  <Binding energies>  (67) 
[-10.5]

>  <Ligand effiencies>  (67) 
[-0.2916666666666667]

>  <Interactions>  (67) 
["V-B:TYR:539:CE2:9844, V-B:MET:535:CE:9803, V-B:PRO:540:CA:9851, V-B:TYR:539:CD2:9842, V-B:PRO:540:N:9852, V-B:PRO:540:CB:9853, V-B:PRO:540:C:9849, V-B:TYR:539:C:9835, V-B:TYR:539:CZ:9845, V-A:ASP:366:CG:3208, V-B:GLU:543:CD:9876, V-A:TYR:539:CE1:4870, V-A:TYR:539:CD1:4868, V-A:ASP:366:CB:3207, H-A:TYR:531:OH:4790, V-A:ILE:538:CA:4855, V-A:ILE:369:CG2:3232, V-A:ILE:369:CD1:3234, V-A:TYR:531:CE1:4787, V-A:TYR:531:CZ:4789, V-A:ILE:538:CD1:4860, V-A:MET:535:CB:4827, V-A:MET:535:CG:4828, H-B:TYR:539:N:9838, V-A:ASN:370:CB:3240, V-A:ASP:366:C:3203, V-A:ILE:369:CB:3231, V-A:ASP:366:CA:3205"]

$$$$
RR12_Rahimova_2017
     RDKit          3D

 26 28  0  0  0  0  0  0  0  0999 V2000
  133.2250  124.2490   57.1670 C   0  0  0  0  0  0  0  0  0  0  0  0
  133.2920  123.0700   58.1470 C   0  0  0  0  0  0  0  0  0  0  0  0
  132.0280  122.9540   59.0190 C   0  0  0  0  0  0  0  0  0  0  0  0
  132.3840  122.7290   60.4180 N   0  0  0  0  0  0  0  0  0  0  0  0
  132.7280  121.5280   61.0180 C   0  0  0  0  0  0  0  0  0  0  0  0
  132.7460  120.1930   60.2940 C   0  0  0  0  0  0  0  0  0  0  0  0
  131.3300  119.6500   60.0280 C   0  0  0  0  0  0  0  0  0  0  0  0
  130.3080  120.1090   61.0850 C   0  0  0  0  0  0  0  0  0  0  0  0
  129.4720  121.2280   60.6510 N   0  0  0  0  0  0  0  0  0  0  0  0
  129.1520  122.2920   61.4100 C   0  0  0  0  0  0  0  0  0  0  0  0
  129.5360  122.4320   62.5740 O   0  0  0  0  0  0  0  0  0  0  0  0
  128.2670  123.3480   60.7340 C   0  0  0  0  0  0  0  0  0  0  0  0
  128.2940  123.1560   59.3190 O   0  0  0  0  0  0  0  0  0  0  0  0
  127.1100  123.2110   58.6070 C   0  0  0  0  0  0  0  0  0  0  0  0
  126.0490  123.8830   59.2170 C   0  0  0  0  0  0  0  0  0  0  0  0
  124.8190  123.9940   58.5750 C   0  0  0  0  0  0  0  0  0  0  0  0
  124.6470  123.4290   57.3150 C   0  0  0  0  0  0  0  0  0  0  0  0
  125.6930  122.7530   56.6920 C   0  0  0  0  0  0  0  0  0  0  0  0
  126.9240  122.6420   57.3360 C   0  0  0  0  0  0  0  0  0  0  0  0
  133.0230  121.6480   62.2890 N   0  0  0  0  0  0  0  0  0  0  0  0
  132.9000  122.9830   62.5530 C   0  0  0  0  0  0  0  0  0  0  0  0
  133.1120  123.6680   63.7600 C   0  0  0  0  0  0  0  0  0  0  0  0
  132.9240  125.0500   63.7730 C   0  0  0  0  0  0  0  0  0  0  0  0
  132.5360  125.7400   62.6230 C   0  0  0  0  0  0  0  0  0  0  0  0
  132.3160  125.0870   61.4090 C   0  0  0  0  0  0  0  0  0  0  0  0
  132.5030  123.6990   61.3960 C   0  0  0  0  0  0  0  0  0  0  0  0
  1  2  1  0
  2  3  1  0
  3  4  1  0
  4  5  1  0
  5  6  1  0
  6  7  1  0
  7  8  1  0
  8  9  1  0
  9 10  1  0
 10 11  2  0
 10 12  1  0
 12 13  1  0
 13 14  1  0
 14 15  2  0
 15 16  1  0
 16 17  2  0
 17 18  1  0
 18 19  2  0
  5 20  2  0
 20 21  1  0
 21 22  2  0
 22 23  1  0
 23 24  2  0
 24 25  1  0
 25 26  2  0
 26  4  1  0
 19 14  1  0
 26 21  1  0
M  END
>  <Binding energies>  (68) 
[-6.37]

>  <Ligand effiencies>  (68) 
[-0.23592592592592593]

>  <Interactions>  (68) 
["V-B:ALA:541:CB:9860, V-B:TYR:539:CE2:9844, H-B:TYR:539:O:9836, V-B:MET:535:CE:9803, V-B:PRO:540:CD:9855, V-B:PRO:540:CA:9851, V-A:TRP:381:CH2:3367, V-B:TYR:539:CD2:9842, V-B:PRO:540:N:9852, V-B:PRO:540:CB:9853, V-B:TYR:539:C:9835, V-A:ASP:366:CG:3208, V-A:ARG:545:CZ:4921, V-A:ASP:366:CB:3207, V-A:GLY:454:CA:4044, V-A:ILE:369:CG2:3232, V-A:ILE:369:CD1:3234, V-A:TRP:381:CZ3:3366, V-A:LEU:475:CD2:4254, V-B:LEU:363:CD1:8156, V-A:TYR:531:CE1:4787, V-A:TYR:531:CZ:4789, V-A:TRP:381:CZ2:3365, V-A:ASP:366:C:3203, V-A:ILE:369:CB:3231"]

$$$$
RR13_Rahimova_2017
     RDKit          3D

 48 54  0  0  0  0  0  0  0  0999 V2000
  130.6360  121.8690   63.3700 Cl  0  0  0  0  0  0  0  0  0  0  0  0
  131.6660  122.5210   62.1410 C   0  0  0  0  0  0  0  0  0  0  0  0
  132.1380  121.6480   61.1570 C   0  0  0  0  0  0  0  0  0  0  0  0
  132.9870  122.1060   60.1540 C   0  0  0  0  0  0  0  0  0  0  0  0
  133.3740  123.4440   60.1280 C   0  0  0  0  0  0  0  0  0  0  0  0
  132.9070  124.3210   61.1060 C   0  0  0  0  0  0  0  0  0  0  0  0
  132.0400  123.8800   62.1190 C   0  0  0  0  0  0  0  0  0  0  0  0
  131.5580  124.8670   63.2050 C   0  0  1  0  0  0  0  0  0  0  0  0
  132.6120  125.0300   64.3110 C   0  0  0  0  0  0  0  0  0  0  0  0
  133.9180  124.9990   64.1610 N   0  0  0  0  0  0  0  0  0  0  0  0
  134.4510  125.1630   65.4360 N   0  0  0  0  0  0  0  0  0  0  0  0
  133.4350  125.2750   66.3640 N   0  0  0  0  0  0  0  0  0  0  0  0
  132.3100  125.1650   65.6490 N   0  0  0  0  0  0  0  0  0  0  0  0
  131.0090  125.2750   66.2990 C   0  0  0  0  0  0  0  0  0  0  0  0
  130.9250  126.5830   67.1070 C   0  0  0  0  0  0  0  0  0  0  0  0
  129.6180  127.3230   66.8680 C   0  0  0  0  0  0  0  0  0  0  0  0
  128.5270  126.6500   66.3100 C   0  0  0  0  0  0  0  0  0  0  0  0
  127.3330  127.3300   66.0850 C   0  0  0  0  0  0  0  0  0  0  0  0
  127.2340  128.6790   66.4190 C   0  0  0  0  0  0  0  0  0  0  0  0
  128.3170  129.3550   66.9740 C   0  0  0  0  0  0  0  0  0  0  0  0
  129.5120  128.6760   67.1990 C   0  0  0  0  0  0  0  0  0  0  0  0
  131.1050  126.1690   62.6610 N   0  0  0  0  0  0  0  0  0  0  0  0
  130.2180  126.8510   63.6210 C   0  0  0  0  0  0  0  0  0  0  0  0
  129.8490  128.2660   63.1180 C   0  0  0  0  0  0  0  0  0  0  0  0
  129.1300  128.1900   61.8360 N   0  0  0  0  0  0  0  0  0  0  0  0
  128.6840  129.5190   61.3570 C   0  0  1  0  0  0  0  0  0  0  0  0
  127.2560  129.9340   61.7750 C   0  0  0  0  0  0  0  0  0  0  0  0
  126.6620  129.2150   62.8220 C   0  0  0  0  0  0  0  0  0  0  0  0
  125.3830  129.5310   63.2780 C   0  0  0  0  0  0  0  0  0  0  0  0
  124.6720  130.5710   62.6860 C   0  0  0  0  0  0  0  0  0  0  0  0
  125.2370  131.2860   61.6340 C   0  0  0  0  0  0  0  0  0  0  0  0
  126.5170  130.9760   61.1670 C   0  0  0  0  0  0  0  0  0  0  0  0
  127.1040  131.8780   59.8100 Cl  0  0  0  0  0  0  0  0  0  0  0  0
  129.6730  130.6400   61.6840 C   0  0  0  0  0  0  0  0  0  0  0  0
  129.5100  131.5520   62.6140 N   0  0  0  0  0  0  0  0  0  0  0  0
  130.6510  132.3470   62.5730 N   0  0  0  0  0  0  0  0  0  0  0  0
  131.5170  131.8830   61.6050 N   0  0  0  0  0  0  0  0  0  0  0  0
  130.9020  130.8150   61.0830 N   0  0  0  0  0  0  0  0  0  0  0  0
  131.5280  130.0700   59.9960 C   0  0  0  0  0  0  0  0  0  0  0  0
  132.3750  131.0100   59.1190 C   0  0  0  0  0  0  0  0  0  0  0  0
  131.5580  131.6510   58.0090 C   0  0  0  0  0  0  0  0  0  0  0  0
  130.2570  132.0920   58.2660 C   0  0  0  0  0  0  0  0  0  0  0  0
  129.5110  132.6850   57.2510 C   0  0  0  0  0  0  0  0  0  0  0  0
  130.0680  132.8350   55.9820 C   0  0  0  0  0  0  0  0  0  0  0  0
  131.3660  132.3980   55.7200 C   0  0  0  0  0  0  0  0  0  0  0  0
  132.1120  131.8060   56.7350 C   0  0  0  0  0  0  0  0  0  0  0  0
  130.0210  127.5130   60.8770 C   0  0  0  0  0  0  0  0  0  0  0  0
  130.3790  126.0950   61.3810 C   0  0  0  0  0  0  0  0  0  0  0  0
  1  2  1  0
  2  3  2  0
  3  4  1  0
  4  5  2  0
  5  6  1  0
  6  7  2  0
  7  8  1  0
  8  9  1  0
  9 10  2  0
 10 11  1  0
 11 12  2  0
 12 13  1  0
 13 14  1  0
 14 15  1  0
 15 16  1  0
 16 17  2  0
 17 18  1  0
 18 19  2  0
 19 20  1  0
 20 21  2  0
  8 22  1  6
 22 23  1  0
 23 24  1  0
 24 25  1  0
 26 25  1  1
 26 27  1  0
 27 28  2  0
 28 29  1  0
 29 30  2  0
 30 31  1  0
 31 32  2  0
 32 33  1  0
 26 34  1  0
 34 35  2  0
 35 36  1  0
 36 37  2  0
 37 38  1  0
 38 39  1  0
 39 40  1  0
 40 41  1  0
 41 42  2  0
 42 43  1  0
 43 44  2  0
 44 45  1  0
 45 46  2  0
 25 47  1  0
 47 48  1  0
  7  2  1  0
 13  9  1  0
 21 16  1  0
 48 22  1  0
 32 27  1  0
 38 34  1  0
 46 41  1  0
M  END
>  <Binding energies>  (69) 
[-12.12]

>  <Ligand effiencies>  (69) 
[-0.2525]

>  <Interactions>  (69) 
["V-B:ALA:541:CB:9860, V-A:HIS:456:CE1:4064, V-A:ASP:366:CG:3208, H-A:ARG:545:NE:4919, H-A:TYR:484:OH:4343, H-A:GLY:454:N:4045, V-B:GLU:543:CD:9876, V-B:GLU:543:CG:9875, H-A:HIS:456:NE2:4065, V-B:GLU:543:CB:9874, V-A:GLU:543:CD:4903, H-A:ARG:545:NH2:4923, V-A:LEU:363:CD1:3184, V-A:PRO:540:N:4879, V-A:TYR:539:CE1:4870, V-A:TYR:539:C:4862, V-A:TYR:539:CD1:4868, V-A:PRO:540:CA:4878, V-A:TYR:539:CG:4867, H-A:ALA:541:N:4886, V-A:PRO:540:CD:4882, V-A:PRO:540:CB:4880, V-A:TYR:539:CE2:4871, V-A:GLU:543:CB:4901, V-A:TYR:484:CZ:4342, V-B:HIS:456:CE1:9037, V-A:ILE:369:CG2:3232, V-A:ILE:369:CD1:3234, V-A:LEU:475:CD2:4254, V-A:GLU:543:CG:4902, V-B:ARG:545:CZ:9894, H-A:ARG:545:NH1:4922"]

$$$$
RR14_Rahimova_2017
     RDKit          3D

 39 43  0  0  0  0  0  0  0  0999 V2000
  129.9250  123.3310   63.5840 C   0  0  0  0  0  0  0  0  0  0  0  0
  129.1570  122.3430   62.9050 O   0  0  0  0  0  0  0  0  0  0  0  0
  128.9530  122.4660   61.5450 C   0  0  0  0  0  0  0  0  0  0  0  0
  127.7580  123.0650   61.1460 C   0  0  0  0  0  0  0  0  0  0  0  0
  127.4540  123.2100   59.7960 C   0  0  0  0  0  0  0  0  0  0  0  0
  128.3470  122.7490   58.8260 C   0  0  0  0  0  0  0  0  0  0  0  0
  127.9890  122.8470   57.3480 C   0  0  0  0  0  0  0  0  0  0  0  0
  126.6340  123.3470   57.1130 N   0  0  0  0  0  0  0  0  0  0  0  0
  125.7250  122.5760   56.5040 N   0  0  0  0  0  0  0  0  0  0  0  0
  124.5940  123.3640   56.4240 N   0  0  0  0  0  0  0  0  0  0  0  0
  124.8410  124.6140   56.9840 N   0  0  0  0  0  0  0  0  0  0  0  0
  126.0890  124.5820   57.3890 C   0  0  0  0  0  0  0  0  0  0  0  0
  126.8260  125.7380   58.0510 C   0  0  0  0  0  0  0  0  0  0  0  0
  127.3030  126.7320   57.0750 N   0  0  0  0  0  0  0  0  0  0  0  0
  127.8920  127.9060   57.7320 C   0  0  0  0  0  0  0  0  0  0  0  0
  128.1780  129.0730   56.7610 C   0  0  0  0  0  0  0  0  0  0  0  0
  129.6640  129.2030   56.3680 C   0  0  0  0  0  0  0  0  0  0  0  0
  130.2200  130.5350   56.6310 N   0  0  0  0  0  0  0  0  0  0  0  0
  129.1390  131.5180   56.7820 C   0  0  0  0  0  0  0  0  0  0  0  0
  129.6920  132.9410   57.0080 C   0  0  0  0  0  0  0  0  0  0  0  0
  130.5950  133.2870   55.9630 O   0  0  0  0  0  0  0  0  0  0  0  0
  131.7030  132.3970   55.8920 C   0  0  0  0  0  0  0  0  0  0  0  0
  131.2110  130.9570   55.6300 C   0  0  0  0  0  0  0  0  0  0  0  0
  128.2720  126.1150   56.1580 C   0  0  0  0  0  0  0  0  0  0  0  0
  129.5010  125.4830   56.8060 C   0  0  0  0  0  0  0  0  0  0  0  0
  129.7680  125.6620   58.1230 C   0  0  0  0  0  0  0  0  0  0  0  0
  130.9710  125.0950   58.7650 C   0  0  0  0  0  0  0  0  0  0  0  0
  131.2680  125.2440   60.1300 C   0  0  0  0  0  0  0  0  0  0  0  0
  130.3510  126.0190   61.0670 C   0  0  0  0  0  0  0  0  0  0  0  0
  132.4330  124.6650   60.6400 C   0  0  0  0  0  0  0  0  0  0  0  0
  133.2930  123.9470   59.8100 C   0  0  0  0  0  0  0  0  0  0  0  0
  133.0050  123.7900   58.4510 C   0  0  0  0  0  0  0  0  0  0  0  0
  133.9630  122.9980   57.5710 C   0  0  0  0  0  0  0  0  0  0  0  0
  131.8370  124.3680   57.9290 C   0  0  0  0  0  0  0  0  0  0  0  0
  131.5070  124.2390   56.5630 N   0  0  0  0  0  0  0  0  0  0  0  0
  130.4170  124.7420   55.9320 C   0  0  0  0  0  0  0  0  0  0  0  0
  130.2590  124.5660   54.7240 O   0  0  0  0  0  0  0  0  0  0  0  0
  129.5590  122.1750   59.2140 C   0  0  0  0  0  0  0  0  0  0  0  0
  129.8610  122.0300   60.5650 C   0  0  0  0  0  0  0  0  0  0  0  0
  1  2  1  0
  2  3  1  0
  3  4  2  0
  4  5  1  0
  5  6  2  0
  6  7  1  0
  7  8  1  0
  8  9  1  0
  9 10  2  0
 10 11  1  0
 11 12  2  0
 12 13  1  0
 13 14  1  0
 14 15  1  0
 15 16  1  0
 16 17  1  0
 17 18  1  0
 18 19  1  0
 19 20  1  0
 20 21  1  0
 21 22  1  0
 22 23  1  0
 14 24  1  0
 24 25  1  0
 25 26  2  0
 26 27  1  0
 27 28  2  0
 28 29  1  0
 28 30  1  0
 30 31  2  0
 31 32  1  0
 32 33  1  0
 32 34  2  0
 34 35  1  0
 35 36  1  0
 36 37  2  0
  6 38  1  0
 38 39  2  0
 39  3  1  0
 12  8  1  0
 23 18  1  0
 36 25  1  0
 34 27  1  0
M  END
>  <Binding energies>  (70) 
[-10.01]

>  <Ligand effiencies>  (70) 
[-0.25025]

>  <Interactions>  (70) 
["H-B:TYR:531:OH:9763, V-B:ALA:541:CB:9860, V-B:TYR:539:CE2:9844, V-B:MET:535:CE:9803, V-B:PRO:540:CA:9851, V-B:TYR:539:CD2:9842, V-B:PRO:540:N:9852, V-B:TYR:539:C:9835, V-B:TYR:539:CZ:9845, V-A:ASP:366:CG:3208, V-B:GLU:543:CD:9876, V-B:GLU:543:CG:9875, V-A:LEU:363:CD1:3184, V-A:PRO:540:N:4879, V-A:TYR:539:CE1:4870, V-A:TYR:539:C:4862, V-A:TYR:539:CD1:4868, V-A:ASP:366:CB:3207, V-A:PRO:540:CA:4878, V-A:TYR:539:CA:4864, V-A:TYR:539:CG:4867, V-A:PRO:540:CD:4882, V-A:ILE:369:CG2:3232, V-A:ILE:369:CD1:3234, H-A:TYR:539:N:4865, H-A:LYS:534:NZ:4818, V-A:TYR:531:CE1:4787, V-A:TYR:531:CZ:4789, V-A:ASP:366:C:3203, V-A:ILE:369:CB:3231, H-B:TYR:539:OH:9846"]

$$$$
RR15_Rahimova_2017
     RDKit          3D

 45 49  0  0  0  0  0  0  0  0999 V2000
  133.2490  122.4330   61.6880 C   0  0  0  0  0  0  0  0  0  0  0  0
  133.2880  121.9610   60.3450 O   0  0  0  0  0  0  0  0  0  0  0  0
  132.6530  122.6830   59.3500 C   0  0  0  0  0  0  0  0  0  0  0  0
  133.3330  123.4750   58.4100 C   0  0  0  0  0  0  0  0  0  0  0  0
  132.6330  124.1800   57.4340 C   0  0  0  0  0  0  0  0  0  0  0  0
  131.2370  124.1170   57.3690 C   0  0  0  0  0  0  0  0  0  0  0  0
  130.4810  124.8840   56.3200 C   0  0  0  0  0  0  0  0  0  0  0  0
  130.6330  124.6690   55.0200 N   0  0  0  0  0  0  0  0  0  0  0  0
  129.7900  125.5570   54.3840 N   0  0  0  0  0  0  0  0  0  0  0  0
  129.1850  126.1910   55.3900 N   0  0  0  0  0  0  0  0  0  0  0  0
  128.3160  127.3450   55.1670 C   0  0  0  0  0  0  0  0  0  0  0  0
  128.5470  128.5290   56.1390 C   0  0  0  0  0  0  0  0  0  0  0  0
  129.6620  129.0560   56.1600 O   0  0  0  0  0  0  0  0  0  0  0  0
  127.5150  128.9770   56.9180 N   0  0  0  0  0  0  0  0  0  0  0  0
  127.1070  128.2570   58.1400 C   0  0  0  0  0  0  0  0  0  0  0  0
  125.9730  127.2350   57.9060 C   0  0  0  0  0  0  0  0  0  0  0  0
  126.2280  125.8330   58.5090 C   0  0  0  0  0  0  0  0  0  0  0  0
  126.2480  124.7570   57.5140 N   0  0  0  0  0  0  0  0  0  0  0  0
  127.4080  123.8630   57.6380 C   0  0  0  0  0  0  0  0  0  0  0  0
  127.3360  122.7000   56.6240 C   0  0  0  0  0  0  0  0  0  0  0  0
  126.1020  122.0040   56.7620 O   0  0  0  0  0  0  0  0  0  0  0  0
  124.9770  122.8460   56.5400 C   0  0  0  0  0  0  0  0  0  0  0  0
  124.9820  124.0110   57.5530 C   0  0  0  0  0  0  0  0  0  0  0  0
  126.8530  130.3030   56.7220 C   0  0  2  0  0  0  0  0  0  0  0  0
  127.1430  130.9610   55.3360 C   0  0  0  0  0  0  0  0  0  0  0  0
  126.2420  131.1400   54.5170 O   0  0  0  0  0  0  0  0  0  0  0  0
  128.4150  131.3450   55.1300 N   0  0  0  0  0  0  0  0  0  0  0  0
  128.8990  132.0690   53.9600 C   0  0  0  0  0  0  0  0  0  0  0  0
  130.2220  132.7960   54.2630 C   0  0  2  0  0  0  0  0  0  0  0  0
  131.4890  131.9280   54.1620 C   0  0  0  0  0  0  0  0  0  0  0  0
  131.8360  131.5970   55.5940 C   0  0  0  0  0  0  0  0  0  0  0  0
  131.3850  132.8580   56.3100 C   0  0  0  0  0  0  0  0  0  0  0  0
  130.1650  133.1690   55.6460 O   0  0  0  0  0  0  0  0  0  0  0  0
  127.0170  131.1750   57.9610 C   0  0  0  0  0  0  0  0  0  0  0  0
  128.2330  131.8460   58.1390 C   0  0  0  0  0  0  0  0  0  0  0  0
  128.4400  132.6550   59.2530 C   0  0  0  0  0  0  0  0  0  0  0  0
  127.4290  132.8020   60.1970 C   0  0  0  0  0  0  0  0  0  0  0  0
  127.6290  133.5890   61.2780 F   0  0  0  0  0  0  0  0  0  0  0  0
  126.2120  132.1440   60.0360 C   0  0  0  0  0  0  0  0  0  0  0  0
  126.0070  131.3340   58.9230 C   0  0  0  0  0  0  0  0  0  0  0  0
  129.6110  125.8340   56.6080 N   0  0  0  0  0  0  0  0  0  0  0  0
  130.5620  123.3250   58.3070 C   0  0  0  0  0  0  0  0  0  0  0  0
  131.2540  122.6050   59.2950 C   0  0  0  0  0  0  0  0  0  0  0  0
  130.6330  121.8070   60.2400 O   0  0  0  0  0  0  0  0  0  0  0  0
  129.2520  122.0020   60.5270 C   0  0  0  0  0  0  0  0  0  0  0  0
  1  2  1  0
  2  3  1  0
  3  4  2  0
  4  5  1  0
  5  6  2  0
  6  7  1  0
  7  8  1  0
  8  9  2  0
  9 10  1  0
 10 11  1  0
 11 12  1  0
 12 13  2  0
 12 14  1  0
 14 15  1  0
 15 16  1  0
 16 17  1  0
 17 18  1  0
 18 19  1  0
 19 20  1  0
 20 21  1  0
 21 22  1  0
 22 23  1  0
 24 14  1  1
 24 25  1  0
 25 26  2  0
 25 27  1  0
 27 28  1  0
 29 28  1  1
 29 30  1  0
 30 31  1  0
 31 32  1  0
 32 33  1  0
 24 34  1  0
 34 35  2  0
 35 36  1  0
 36 37  2  0
 37 38  1  0
 37 39  1  0
 39 40  2  0
 10 41  1  0
  6 42  1  0
 42 43  2  0
 43 44  1  0
 44 45  1  0
 43  3  1  0
 41  7  2  0
 23 18  1  0
 33 29  1  0
 40 34  1  0
M  END
>  <Binding energies>  (71) 
[-9.92]

>  <Ligand effiencies>  (71) 
[-0.21565217391304348]

>  <Interactions>  (71) 
["V-B:TYR:539:CE2:9844, V-B:MET:535:CE:9803, V-B:PRO:540:CD:9855, V-B:PRO:540:CA:9851, V-B:TYR:539:CD2:9842, V-B:PRO:540:N:9852, V-B:PRO:540:CB:9853, V-B:TYR:539:C:9835, V-B:TYR:539:CZ:9845, V-A:TYR:539:CZ:4872, V-A:LEU:363:CD1:3184, V-A:PRO:540:N:4879, V-A:TYR:539:CE1:4870, V-A:TYR:539:CD1:4868, V-A:ASP:366:CB:3207, V-A:PRO:540:CG:4881, V-A:PRO:540:CA:4878, H-A:TYR:531:OH:4790, V-A:PRO:540:CD:4882, V-A:ILE:538:CA:4855, V-A:PRO:540:CB:4880, V-A:TYR:539:CE2:4871, V-A:TYR:539:CD2:4869, V-A:ILE:369:CD1:3234, V-A:LEU:475:CD2:4254, H-A:TYR:539:N:4865, H-A:LYS:534:NZ:4818, V-B:LEU:363:CD1:8156, V-A:TYR:531:CE1:4787, V-A:TYR:531:CZ:4789, V-A:ILE:538:CD1:4860, V-A:VAL:537:C:4845, V-A:MET:535:CB:4827, V-A:MET:535:CG:4828, H-B:TYR:539:N:9838, V-B:ASP:366:CG:8180, V-B:ASP:366:CB:8179, H-A:TYR:539:OH:4873, H-B:TYR:539:OH:9846"]

$$$$
RR17_Rahimova_2017
     RDKit          3D

 38 41  0  0  0  0  0  0  0  0999 V2000
  124.8340  122.3870   56.5640 C   0  0  0  0  0  0  0  0  0  0  0  0
  126.1030  122.7490   57.3420 C   0  0  0  0  0  0  0  0  0  0  0  0
  127.2300  122.2220   56.6480 O   0  0  0  0  0  0  0  0  0  0  0  0
  128.4780  122.7790   56.8590 C   0  0  0  0  0  0  0  0  0  0  0  0
  129.1350  122.4110   58.0320 C   0  0  0  0  0  0  0  0  0  0  0  0
  130.3930  122.9220   58.3310 C   0  0  0  0  0  0  0  0  0  0  0  0
  131.0240  123.8190   57.4580 C   0  0  0  0  0  0  0  0  0  0  0  0
  132.3830  124.3540   57.8060 C   0  0  0  0  0  0  0  0  0  0  0  0
  133.2600  124.5360   56.9560 O   0  0  0  0  0  0  0  0  0  0  0  0
  132.6570  124.6580   59.2960 C   0  0  0  0  0  0  0  0  0  0  0  0
  133.5460  123.2920   60.1260 S   0  0  0  0  0  0  0  0  0  0  0  0
  133.4530  123.8450   61.8060 C   0  0  0  0  0  0  0  0  0  0  0  0
  134.4710  124.2390   62.5340 N   0  0  0  0  0  0  0  0  0  0  0  0
  133.9860  124.5990   63.7850 N   0  0  0  0  0  0  0  0  0  0  0  0
  132.6900  124.4130   63.7640 C   0  0  0  0  0  0  0  0  0  0  0  0
  131.7580  124.6960   64.9330 C   0  0  0  0  0  0  0  0  0  0  0  0
  131.4640  126.1150   65.1230 N   0  0  0  0  0  0  0  0  0  0  0  0
  130.1790  126.6160   65.3970 C   0  0  0  0  0  0  0  0  0  0  0  0
  129.4740  127.1890   64.3380 C   0  0  0  0  0  0  0  0  0  0  0  0
  128.1990  127.7090   64.5410 C   0  0  0  0  0  0  0  0  0  0  0  0
  127.6100  127.6580   65.8080 C   0  0  0  0  0  0  0  0  0  0  0  0
  126.2120  128.2390   66.0140 C   0  0  0  0  0  0  0  0  0  0  0  0
  125.4130  128.0170   64.9690 F   0  0  0  0  0  0  0  0  0  0  0  0
  125.6390  127.7000   67.0920 F   0  0  0  0  0  0  0  0  0  0  0  0
  126.3090  129.5560   66.1950 F   0  0  0  0  0  0  0  0  0  0  0  0
  128.3120  127.0750   66.8680 C   0  0  0  0  0  0  0  0  0  0  0  0
  129.5860  126.5550   66.6650 C   0  0  0  0  0  0  0  0  0  0  0  0
  132.2860  123.9230   62.5390 N   0  0  0  0  0  0  0  0  0  0  0  0
  130.9830  123.6090   62.1260 C   0  0  0  0  0  0  0  0  0  0  0  0
  130.5400  122.2890   62.1950 C   0  0  0  0  0  0  0  0  0  0  0  0
  129.2480  121.9770   61.7810 C   0  0  0  0  0  0  0  0  0  0  0  0
  128.3960  122.9840   61.2980 C   0  0  0  0  0  0  0  0  0  0  0  0
  127.1010  122.7670   60.8680 O   0  0  0  0  0  0  0  0  0  0  0  0
  126.1130  123.7640   61.1090 C   0  0  0  0  0  0  0  0  0  0  0  0
  128.8580  124.3000   61.2350 C   0  0  0  0  0  0  0  0  0  0  0  0
  130.1490  124.6190   61.6480 C   0  0  0  0  0  0  0  0  0  0  0  0
  130.3630  124.1890   56.2770 C   0  0  0  0  0  0  0  0  0  0  0  0
  129.1040  123.6750   55.9800 C   0  0  0  0  0  0  0  0  0  0  0  0
  1  2  1  0
  2  3  1  0
  3  4  1  0
  4  5  2  0
  5  6  1  0
  6  7  2  0
  7  8  1  0
  8  9  2  0
  8 10  1  0
 10 11  1  0
 11 12  1  0
 12 13  2  0
 13 14  1  0
 14 15  2  0
 15 16  1  0
 16 17  1  0
 17 18  1  0
 18 19  2  0
 19 20  1  0
 20 21  2  0
 21 22  1  0
 22 23  1  0
 22 24  1  0
 22 25  1  0
 21 26  1  0
 26 27  2  0
 15 28  1  0
 28 29  1  0
 29 30  2  0
 30 31  1  0
 31 32  2  0
 32 33  1  0
 33 34  1  0
 32 35  1  0
 35 36  2  0
  7 37  1  0
 37 38  2  0
 38  4  1  0
 28 12  1  0
 36 29  1  0
 27 18  1  0
M  END
>  <Binding energies>  (72) 
[-8.52]

>  <Ligand effiencies>  (72) 
[-0.21846153846153846]

>  <Interactions>  (72) 
["V-B:ALA:541:CB:9860, V-B:TYR:539:CE2:9844, V-B:MET:535:CE:9803, V-B:PRO:540:CD:9855, V-B:PRO:540:CA:9851, V-B:TYR:539:CD2:9842, V-B:PRO:540:N:9852, V-B:PRO:540:CB:9853, V-B:TYR:539:CE1:9843, V-B:TYR:539:C:9835, V-B:TYR:539:CZ:9845, V-A:ASP:366:CG:3208, H-A:GLU:543:OE2:4905, H-A:TYR:484:OH:4343, H-A:GLY:454:N:4045, H-A:GLU:543:OE1:4904, V-B:GLU:543:CD:9876, V-B:GLU:543:CG:9875, V-B:GLU:543:CB:9874, V-A:GLU:543:CD:4903, H-B:ALA:541:N:9859, V-A:ASP:366:CB:3207, H-A:TYR:531:OH:4790, V-B:ARG:545:CG:9890, V-B:HIS:456:CE1:9037, V-A:ILE:369:CD1:3234, V-B:LEU:363:CD1:8156, V-B:ARG:545:CZ:9894, V-B:ARG:545:CD:9891, V-B:TYR:484:CZ:9314, H-B:TYR:539:N:9838, V-B:PRO:540:CG:9854, V-B:ILE:538:CG2:9831, H-B:TYR:539:OH:9846, V-B:TYR:539:CD1:9841, V-B:TYR:539:CG:9840"]

$$$$
RR19_Rahimova_2017
     RDKit          3D

 46 51  0  0  0  0  0  0  0  0999 V2000
  130.6160  125.3020   54.7070 O   0  0  0  0  0  0  0  0  0  0  0  0
  130.3630  125.4200   55.9090 C   0  0  0  0  0  0  0  0  0  0  0  0
  131.0740  124.8770   56.9300 N   0  0  0  0  0  0  0  0  0  0  0  0
  132.3070  124.2750   56.9960 C   0  0  0  0  0  0  0  0  0  0  0  0
  133.4610  124.2540   55.7580 S   0  0  0  0  0  0  0  0  0  0  0  0
  132.4460  123.6960   58.2330 N   0  0  0  0  0  0  0  0  0  0  0  0
  133.4940  123.1090   58.8650 C   0  0  0  0  0  0  0  0  0  0  0  0
  134.6720  123.1280   58.5010 O   0  0  0  0  0  0  0  0  0  0  0  0
  133.1000  122.3380   60.1510 C   0  0  2  0  0  0  0  0  0  0  0  0
  132.0020  121.2540   59.9510 C   0  0  0  0  0  0  0  0  0  0  0  0
  130.5760  121.7250   60.1910 C   0  0  0  0  0  0  0  0  0  0  0  0
  130.0460  121.7920   61.4980 C   0  0  0  0  0  0  0  0  0  0  0  0
  128.7710  122.2990   61.7050 C   0  0  0  0  0  0  0  0  0  0  0  0
  128.0170  122.7580   60.6320 C   0  0  0  0  0  0  0  0  0  0  0  0
  128.5370  122.7260   59.3440 C   0  0  0  0  0  0  0  0  0  0  0  0
  129.8110  122.2250   59.1160 C   0  0  0  0  0  0  0  0  0  0  0  0
  132.7520  123.2730   61.2560 N   0  0  0  0  0  0  0  0  0  0  0  0
  131.8580  124.2860   61.0720 C   0  0  0  0  0  0  0  0  0  0  0  0
  131.2680  124.5810   60.0320 O   0  0  0  0  0  0  0  0  0  0  0  0
  131.7430  124.9560   62.3910 C   0  0  0  0  0  0  0  0  0  0  0  0
  130.9820  126.0540   62.7950 C   0  0  0  0  0  0  0  0  0  0  0  0
  131.0650  126.4720   64.1280 C   0  0  0  0  0  0  0  0  0  0  0  0
  131.8980  125.7950   65.0300 C   0  0  0  0  0  0  0  0  0  0  0  0
  132.6520  124.6960   64.6040 C   0  0  0  0  0  0  0  0  0  0  0  0
  132.5560  124.2960   63.2710 C   0  0  0  0  0  0  0  0  0  0  0  0
  133.2130  123.1840   62.5390 C   0  0  0  0  0  0  0  0  0  0  0  0
  133.9990  122.3540   62.9990 O   0  0  0  0  0  0  0  0  0  0  0  0
  129.1240  126.2410   56.3540 C   0  0  2  0  0  0  0  0  0  0  0  0
  127.7650  125.6140   55.9250 C   0  0  0  0  0  0  0  0  0  0  0  0
  126.9540  125.0540   57.0790 C   0  0  0  0  0  0  0  0  0  0  0  0
  126.9280  125.7270   58.3190 C   0  0  0  0  0  0  0  0  0  0  0  0
  126.1060  125.2690   59.3410 C   0  0  0  0  0  0  0  0  0  0  0  0
  125.2870  124.1650   59.1400 C   0  0  0  0  0  0  0  0  0  0  0  0
  125.2730  123.5160   57.9120 C   0  0  0  0  0  0  0  0  0  0  0  0
  126.0890  123.9580   56.8780 C   0  0  0  0  0  0  0  0  0  0  0  0
  129.2030  127.6820   55.9780 N   0  0  0  0  0  0  0  0  0  0  0  0
  129.3290  128.6620   56.9160 C   0  0  0  0  0  0  0  0  0  0  0  0
  129.3760  128.5220   58.1390 O   0  0  0  0  0  0  0  0  0  0  0  0
  129.3990  129.9320   56.1510 C   0  0  0  0  0  0  0  0  0  0  0  0
  129.5240  131.2530   56.5830 C   0  0  0  0  0  0  0  0  0  0  0  0
  129.5680  132.2700   55.6230 C   0  0  0  0  0  0  0  0  0  0  0  0
  129.4910  131.9570   54.2590 C   0  0  0  0  0  0  0  0  0  0  0  0
  129.3690  130.6260   53.8460 C   0  0  0  0  0  0  0  0  0  0  0  0
  129.3240  129.6260   54.8200 C   0  0  0  0  0  0  0  0  0  0  0  0
  129.2040  128.1540   54.6960 C   0  0  0  0  0  0  0  0  0  0  0  0
  129.1230  127.4970   53.6570 O   0  0  0  0  0  0  0  0  0  0  0  0
  1  2  2  0
  2  3  1  0
  3  4  1  0
  4  5  2  0
  4  6  1  0
  6  7  1  0
  7  8  2  0
  7  9  1  0
  9 10  1  6
 10 11  1  0
 11 12  2  0
 12 13  1  0
 13 14  2  0
 14 15  1  0
 15 16  2  0
  9 17  1  0
 17 18  1  0
 18 19  2  0
 18 20  1  0
 20 21  2  0
 21 22  1  0
 22 23  2  0
 23 24  1  0
 24 25  2  0
 25 26  1  0
 26 27  2  0
  2 28  1  0
 28 29  1  6
 29 30  1  0
 30 31  2  0
 31 32  1  0
 32 33  2  0
 33 34  1  0
 34 35  2  0
 28 36  1  0
 36 37  1  0
 37 38  2  0
 37 39  1  0
 39 40  2  0
 40 41  1  0
 41 42  2  0
 42 43  1  0
 43 44  2  0
 44 45  1  0
 45 46  2  0
 16 11  1  0
 26 17  1  0
 35 30  1  0
 45 36  1  0
 25 20  1  0
 44 39  1  0
M  END
>  <Binding energies>  (73) 
[-10.36]

>  <Ligand effiencies>  (73) 
[-0.21583333333333332]

>  <Interactions>  (73) 
["V-B:ALA:541:CB:9860, V-B:TYR:539:CE2:9844, V-B:MET:535:CE:9803, V-B:PRO:540:CA:9851, V-B:TYR:539:CD2:9842, V-B:ALA:541:CA:9858, V-B:PRO:540:N:9852, V-B:PRO:540:CB:9853, V-B:PRO:540:C:9849, V-B:TYR:539:C:9835, V-B:TYR:539:CZ:9845, H-A:GLY:454:N:4045, V-A:GLU:543:CD:4903, V-A:TYR:539:CE1:4870, V-A:TYR:539:CD1:4868, H-A:TYR:531:OH:4790, V-A:ILE:369:CG2:3232, V-A:ILE:369:CD1:3234, H-A:LYS:534:NZ:4818, V-A:TYR:531:CE1:4787, V-A:TYR:531:CZ:4789, V-A:MET:535:CB:4827, V-A:MET:535:CG:4828, V-A:ASN:370:CB:3240, V-A:ASP:366:C:3203, V-A:ILE:369:CB:3231, H-B:TYR:539:OH:9846, V-A:TYR:531:CD1:4785, V-A:ASN:370:CA:3238, V-A:ASN:370:CG:3241"]

$$$$
RR1_Rahimova_2017
     RDKit          3D

 41 44  0  0  0  0  0  0  0  0999 V2000
  129.4580  131.4490   62.9290 C   0  0  0  0  0  0  0  0  0  0  0  0
  129.8590  132.5290   62.0930 O   0  0  0  0  0  0  0  0  0  0  0  0
  129.6680  132.4320   60.7280 C   0  0  0  0  0  0  0  0  0  0  0  0
  128.6250  133.0580   60.0280 C   0  0  0  0  0  0  0  0  0  0  0  0
  128.5080  132.8960   58.6510 C   0  0  0  0  0  0  0  0  0  0  0  0
  129.4290  132.1160   57.9500 C   0  0  0  0  0  0  0  0  0  0  0  0
  129.1990  131.9760   56.5680 N   0  0  0  0  0  0  0  0  0  0  0  0
  129.8180  132.5820   55.5330 C   0  0  0  0  0  0  0  0  0  0  0  0
  130.6820  133.4520   55.6440 O   0  0  0  0  0  0  0  0  0  0  0  0
  129.3560  132.1080   54.1450 C   0  0  0  0  0  0  0  0  0  0  0  0
  127.5700  131.7580   53.9910 S   0  0  0  0  0  0  0  0  0  0  0  0
  127.5670  130.1760   54.7660 C   0  0  0  0  0  0  0  0  0  0  0  0
  128.5730  129.3390   54.7330 N   0  0  0  0  0  0  0  0  0  0  0  0
  128.1460  128.3000   55.4440 C   0  0  0  0  0  0  0  0  0  0  0  0
  128.9980  127.0870   55.6860 C   0  0  0  0  0  0  0  0  0  0  0  0
  129.4090  126.7240   56.9780 C   0  0  0  0  0  0  0  0  0  0  0  0
  130.2040  125.5920   57.1710 C   0  0  0  0  0  0  0  0  0  0  0  0
  130.5710  124.8400   56.0570 C   0  0  0  0  0  0  0  0  0  0  0  0
  130.1920  125.1620   54.7940 N   0  0  0  0  0  0  0  0  0  0  0  0
  129.4190  126.2650   54.6280 C   0  0  0  0  0  0  0  0  0  0  0  0
  126.9230  128.4110   55.9280 N   0  0  0  0  0  0  0  0  0  0  0  0
  126.5480  129.6160   55.4920 N   0  0  0  0  0  0  0  0  0  0  0  0
  125.2310  130.1540   55.8330 C   0  0  0  0  0  0  0  0  0  0  0  0
  124.9270  130.2220   57.3400 C   0  0  0  0  0  0  0  0  0  0  0  0
  123.7940  130.5020   57.7460 O   0  0  0  0  0  0  0  0  0  0  0  0
  125.9770  129.9620   58.1430 N   0  0  0  0  0  0  0  0  0  0  0  0
  125.7470  129.8600   59.5080 N   0  0  0  0  0  0  0  0  0  0  0  0
  126.6920  129.2610   60.2640 C   0  0  0  0  0  0  0  0  0  0  0  0
  127.7900  128.8910   59.8350 O   0  0  0  0  0  0  0  0  0  0  0  0
  126.3440  129.0790   61.7270 C   0  0  0  0  0  0  0  0  0  0  0  0
  127.0620  128.1670   62.5080 C   0  0  0  0  0  0  0  0  0  0  0  0
  126.7510  127.9750   63.8500 C   0  0  0  0  0  0  0  0  0  0  0  0
  125.7020  128.6880   64.4540 C   0  0  0  0  0  0  0  0  0  0  0  0
  125.3330  128.5350   65.7780 O   0  0  0  0  0  0  0  0  0  0  0  0
  126.1260  127.7230   66.6370 C   0  0  0  0  0  0  0  0  0  0  0  0
  124.9660  129.6010   63.6860 C   0  0  0  0  0  0  0  0  0  0  0  0
  123.9290  130.2630   64.3230 O   0  0  0  0  0  0  0  0  0  0  0  0
  124.1960  131.0290   65.4920 C   0  0  0  0  0  0  0  0  0  0  0  0
  125.2950  129.7900   62.3320 C   0  0  0  0  0  0  0  0  0  0  0  0
  130.4740  131.4890   58.6460 C   0  0  0  0  0  0  0  0  0  0  0  0
  130.5880  131.6540   60.0240 C   0  0  0  0  0  0  0  0  0  0  0  0
  1  2  1  0
  2  3  1  0
  3  4  2  0
  4  5  1  0
  5  6  2  0
  6  7  1  0
  7  8  1  0
  8  9  2  0
  8 10  1  0
 10 11  1  0
 11 12  1  0
 12 13  2  0
 13 14  1  0
 14 15  1  0
 15 16  2  0
 16 17  1  0
 17 18  2  0
 18 19  1  0
 19 20  2  0
 14 21  2  0
 21 22  1  0
 22 23  1  0
 23 24  1  0
 24 25  2  0
 24 26  1  0
 26 27  1  0
 27 28  1  0
 28 29  2  0
 28 30  1  0
 30 31  2  0
 31 32  1  0
 32 33  2  0
 33 34  1  0
 34 35  1  0
 33 36  1  0
 36 37  1  0
 37 38  1  0
 36 39  2  0
  6 40  1  0
 40 41  2  0
 41  3  1  0
 22 12  1  0
 39 30  1  0
 20 15  1  0
M  END
>  <Binding energies>  (74) 
[-8.17]

>  <Ligand effiencies>  (74) 
[-0.18568181818181817]

>  <Interactions>  (74) 
["H-B:TYR:531:OH:9763, V-B:TYR:539:CZ:9845, V-B:GLU:543:CD:9876, V-B:GLU:543:CB:9874, V-A:GLU:543:CD:4903, V-A:TYR:539:CZ:4872, V-A:PRO:540:C:4876, V-A:PRO:540:N:4879, V-A:TYR:539:CE1:4870, V-A:TYR:539:C:4862, V-A:TYR:539:CD1:4868, V-A:PRO:540:CA:4878, V-A:TYR:539:CG:4867, H-A:ALA:541:N:4886, V-A:PRO:540:CB:4880, V-A:TYR:539:CE2:4871, V-A:TYR:539:CD2:4869, V-B:ARG:545:CG:9890, V-B:HIS:456:CE1:9037, H-A:TYR:539:N:4865, H-A:LYS:534:NZ:4818, V-A:TYR:531:CE1:4787, V-A:TYR:531:CZ:4789, V-A:GLU:543:CG:4902, V-B:ARG:545:CZ:9894, V-B:GLY:454:CA:9016, H-B:GLY:454:N:9017, V-A:MET:535:CB:4827, V-A:MET:535:CG:4828, V-B:TYR:484:CZ:9314, H-B:ARG:545:NE:9892, V-B:TYR:531:CE1:9760, V-B:TYR:531:CZ:9762, V-B:ASP:366:CB:8179, H-A:TYR:539:OH:4873, H-B:TYR:539:OH:9846, H-B:ASP:366:OD1:8181"]

$$$$
RR22_Rahimova_2017
     RDKit          3D

 31 36  0  0  0  0  0  0  0  0999 V2000
  130.4460  118.6330   61.6750 O   0  0  0  0  0  0  0  0  0  0  0  0
  130.6350  119.8340   61.5000 C   0  0  0  0  0  0  0  0  0  0  0  0
  130.9730  120.4730   60.3200 N   0  0  0  0  0  0  0  0  0  0  0  0
  131.0980  121.8980   60.2720 C   0  0  1  0  0  0  0  0  0  0  0  0
  132.4140  122.1430   59.7690 O   0  0  0  0  0  0  0  0  0  0  0  0
  132.5470  122.8670   58.5840 C   0  0  0  0  0  0  0  0  0  0  0  0
  133.7770  122.7740   57.9320 C   0  0  0  0  0  0  0  0  0  0  0  0
  133.9980  123.5020   56.7630 C   0  0  0  0  0  0  0  0  0  0  0  0
  132.9950  124.3260   56.2530 C   0  0  0  0  0  0  0  0  0  0  0  0
  131.7650  124.4200   56.9050 C   0  0  0  0  0  0  0  0  0  0  0  0
  131.5190  123.6770   58.0640 C   0  0  0  0  0  0  0  0  0  0  0  0
  130.2400  123.7410   58.8670 C   0  0  1  0  0  0  0  0  0  0  0  0
  128.8890  123.9940   58.2280 C   0  0  0  0  0  0  0  0  0  0  0  0
  127.9910  123.2210   59.1990 C   0  0  0  0  0  0  0  0  0  0  0  0
  126.5340  123.4390   59.2830 C   0  0  0  0  0  0  0  0  0  0  0  0
  125.9080  123.6070   60.5280 C   0  0  0  0  0  0  0  0  0  0  0  0
  124.5340  123.8130   60.6020 C   0  0  0  0  0  0  0  0  0  0  0  0
  123.7760  123.8540   59.4350 C   0  0  0  0  0  0  0  0  0  0  0  0
  124.3820  123.6900   58.1910 C   0  0  0  0  0  0  0  0  0  0  0  0
  125.7570  123.4850   58.1150 C   0  0  0  0  0  0  0  0  0  0  0  0
  128.6680  122.3740   59.8790 N   0  0  0  0  0  0  0  0  0  0  0  0
  130.0070  122.4590   59.4610 N   0  0  0  0  0  0  0  0  0  0  0  0
  131.0730  122.3850   61.7140 C   0  0  0  0  0  0  0  0  0  0  0  0
  131.5030  123.6140   62.0840 C   0  0  0  0  0  0  0  0  0  0  0  0
  131.5160  124.2170   63.4310 C   0  0  0  0  0  0  0  0  0  0  0  0
  130.3870  124.2680   64.2600 C   0  0  0  0  0  0  0  0  0  0  0  0
  130.4740  124.8540   65.5230 C   0  0  0  0  0  0  0  0  0  0  0  0
  131.6990  125.3850   65.9260 C   0  0  0  0  0  0  0  0  0  0  0  0
  132.8060  125.3580   65.1430 N   0  0  0  0  0  0  0  0  0  0  0  0
  132.7010  124.7820   63.9180 C   0  0  0  0  0  0  0  0  0  0  0  0
  130.5140  121.1030   62.7980 S   0  0  0  0  0  0  0  0  0  0  0  0
  1  2  2  0
  2  3  1  0
  4  3  1  1
  4  5  1  0
  5  6  1  0
  6  7  2  0
  7  8  1  0
  8  9  2  0
  9 10  1  0
 10 11  2  0
 11 12  1  0
 12 13  1  6
 13 14  1  0
 14 15  1  0
 15 16  2  0
 16 17  1  0
 17 18  2  0
 18 19  1  0
 19 20  2  0
 14 21  2  0
 21 22  1  0
  4 23  1  0
 23 24  2  0
 24 25  1  0
 25 26  2  0
 26 27  1  0
 27 28  2  0
 28 29  1  0
 29 30  2  0
 23 31  1  0
 31  2  1  0
 22  4  1  0
 30 25  1  0
 11  6  1  0
 22 12  1  0
 20 15  1  0
M  END
>  <Binding energies>  (75) 
[-8.72]

>  <Ligand effiencies>  (75) 
[-0.2725]

>  <Interactions>  (75) 
["V-B:ALA:541:CB:9860, V-B:TYR:539:CE2:9844, H-B:TYR:539:O:9836, V-B:PRO:540:CA:9851, V-B:TYR:539:CD2:9842, V-B:PRO:540:N:9852, V-B:PRO:540:CB:9853, V-B:TYR:539:CZ:9845, H-A:TYR:484:OH:4343, V-B:GLU:543:CD:9876, V-B:GLU:543:CG:9875, V-B:ASN:362:CB:8143, V-A:ASP:366:CB:3207, V-A:ILE:369:CG2:3232, V-A:ILE:369:CD1:3234, V-A:LEU:475:CD2:4254, V-B:LEU:363:CA:8152, V-B:LEU:363:CD1:8156, V-A:TYR:531:CE1:4787, V-A:TYR:531:CZ:4789, V-A:ASN:370:CB:3240, V-A:ASP:366:C:3203, V-B:ASP:366:CG:8180, V-B:LEU:363:CB:8154, V-A:ILE:369:CB:3231, V-A:ASP:366:CA:3205, V-B:ASN:362:C:8139, V-A:ASN:370:CA:3238"]

$$$$
RR24_Rahimova_2017
     RDKit          3D

 43 49  0  0  0  0  0  0  0  0999 V2000
  129.6360  133.2000   54.7500 C   0  0  0  0  0  0  0  0  0  0  0  0
  129.7320  131.7050   55.0890 C   0  0  2  0  0  0  0  0  0  0  0  0
  128.3420  131.0220   55.2530 C   0  0  0  0  0  0  0  0  0  0  0  0
  127.5220  131.3980   56.0970 O   0  0  0  0  0  0  0  0  0  0  0  0
  128.1690  129.9760   54.3930 O   0  0  0  0  0  0  0  0  0  0  0  0
  128.2080  128.6870   54.8740 C   0  0  0  0  0  0  0  0  0  0  0  0
  127.7260  128.4200   56.1570 C   0  0  0  0  0  0  0  0  0  0  0  0
  127.7510  127.1190   56.6500 C   0  0  0  0  0  0  0  0  0  0  0  0
  128.2510  126.0790   55.8620 C   0  0  0  0  0  0  0  0  0  0  0  0
  128.2950  124.6510   56.4190 C   0  0  1  0  0  0  0  0  0  0  0  0
  129.7050  124.2730   56.9320 C   0  0  0  0  0  0  0  0  0  0  0  0
  129.9190  123.7560   58.1550 C   0  0  0  0  0  0  0  0  0  0  0  0
  128.8970  123.5250   59.0430 N   0  0  0  0  0  0  0  0  0  0  0  0
  127.5920  123.8160   58.7210 C   0  0  0  0  0  0  0  0  0  0  0  0
  126.7030  123.5200   59.7030 N   0  0  0  0  0  0  0  0  0  0  0  0
  125.3770  123.8110   59.5960 C   0  0  0  0  0  0  0  0  0  0  0  0
  124.6790  123.8220   60.6120 O   0  0  0  0  0  0  0  0  0  0  0  0
  124.9920  124.2360   58.3340 N   0  0  0  0  0  0  0  0  0  0  0  0
  123.5470  124.4780   58.1390 C   0  0  0  0  0  0  0  0  0  0  0  0
  125.8100  124.5670   57.2680 C   0  0  0  0  0  0  0  0  0  0  0  0
  125.3980  124.9900   56.1830 O   0  0  0  0  0  0  0  0  0  0  0  0
  127.2380  124.3480   57.5220 C   0  0  0  0  0  0  0  0  0  0  0  0
  131.3340  123.5000   58.3670 C   0  0  0  0  0  0  0  0  0  0  0  0
  132.0570  122.9840   59.4440 C   0  0  0  0  0  0  0  0  0  0  0  0
  133.4440  122.8590   59.3370 C   0  0  0  0  0  0  0  0  0  0  0  0
  134.0970  123.2450   58.1620 C   0  0  0  0  0  0  0  0  0  0  0  0
  133.3680  123.7600   57.0870 C   0  0  0  0  0  0  0  0  0  0  0  0
  131.9820  123.8840   57.2010 C   0  0  0  0  0  0  0  0  0  0  0  0
  130.9810  124.3860   56.2350 C   0  0  0  0  0  0  0  0  0  0  0  0
  131.1360  124.8120   55.0920 O   0  0  0  0  0  0  0  0  0  0  0  0
  128.7170  126.3460   54.5700 C   0  0  0  0  0  0  0  0  0  0  0  0
  128.6900  127.6470   54.0750 C   0  0  0  0  0  0  0  0  0  0  0  0
  130.6310  131.4510   56.2540 N   0  0  0  0  0  0  0  0  0  0  0  0
  130.2290  131.7010   57.5320 C   0  0  0  0  0  0  0  0  0  0  0  0
  129.1430  132.1530   57.9000 O   0  0  0  0  0  0  0  0  0  0  0  0
  131.3780  131.3160   58.3890 C   0  0  0  0  0  0  0  0  0  0  0  0
  131.5380  131.3570   59.7750 C   0  0  0  0  0  0  0  0  0  0  0  0
  132.7500  130.9210   60.3220 C   0  0  0  0  0  0  0  0  0  0  0  0
  133.7730  130.4530   59.4880 C   0  0  0  0  0  0  0  0  0  0  0  0
  133.5930  130.4180   58.1010 C   0  0  0  0  0  0  0  0  0  0  0  0
  132.3780  130.8590   57.5740 C   0  0  0  0  0  0  0  0  0  0  0  0
  131.8970  130.9400   56.1730 C   0  0  0  0  0  0  0  0  0  0  0  0
  132.5070  130.6110   55.1550 O   0  0  0  0  0  0  0  0  0  0  0  0
  2  1  1  1
  2  3  1  0
  3  4  2  0
  3  5  1  0
  5  6  1  0
  6  7  2  0
  7  8  1  0
  8  9  2  0
 10  9  1  1
 10 11  1  0
 11 12  2  0
 12 13  1  0
 13 14  1  0
 14 15  1  0
 15 16  1  0
 16 17  2  0
 16 18  1  0
 18 19  1  0
 18 20  1  0
 20 21  2  0
 20 22  1  0
 12 23  1  0
 23 24  2  0
 24 25  1  0
 25 26  2  0
 26 27  1  0
 27 28  2  0
 28 29  1  0
 29 30  2  0
  9 31  1  0
 31 32  2  0
  2 33  1  0
 33 34  1  0
 34 35  2  0
 34 36  1  0
 36 37  2  0
 37 38  1  0
 38 39  2  0
 39 40  1  0
 40 41  2  0
 41 42  1  0
 42 43  2  0
 32  6  1  0
 42 33  1  0
 22 10  1  0
 28 23  1  0
 41 36  1  0
 29 11  1  0
 22 14  2  0
M  END
>  <Binding energies>  (76) 
[-11.48]

>  <Ligand effiencies>  (76) 
[-0.2551111111111111]

>  <Interactions>  (76) 
["H-B:TYR:531:OH:9763, V-B:TYR:539:CE2:9844, V-B:MET:535:CE:9803, V-B:PRO:540:CA:9851, V-B:PRO:540:CB:9853, V-B:TYR:539:CZ:9845, V-A:ASP:366:CG:3208, H-B:GLU:543:OE2:9878, V-A:LEU:363:CD1:3184, V-A:LEU:363:CA:3180, V-A:TYR:539:CE1:4870, V-A:ASN:362:C:3167, V-A:TYR:539:CD1:4868, V-A:ASP:366:CB:3207, V-A:PRO:540:CA:4878, V-A:LEU:363:CB:3182, H-A:TYR:531:OH:4790, V-A:ILE:538:CA:4855, V-A:TYR:531:CE2:4788, V-A:PRO:540:CB:4880, V-A:ILE:369:CG2:3232, V-A:ILE:369:CD1:3234, V-B:LEU:363:CA:8152, H-A:LYS:534:NZ:4818, V-B:LEU:363:CD1:8156, V-A:TYR:531:CE1:4787, V-A:TYR:531:CZ:4789, V-A:ILE:538:C:4853, V-A:VAL:537:C:4845, V-A:MET:535:CG:4828, V-A:ASP:366:C:3203, V-B:ASP:366:CG:8180, V-B:ASP:366:CB:8179, H-A:TYR:539:OH:4873, V-B:LEU:363:CB:8154, V-A:ILE:369:CB:3231, H-B:TYR:539:OH:9846, V-A:ASP:366:CA:3205, V-A:ILE:369:CG1:3233"]

$$$$
RR25_Rahimova_2017
     RDKit          3D

 39 44  0  0  0  0  0  0  0  0999 V2000
  133.8690  125.4340   66.4450 O   0  0  0  0  0  0  0  0  0  0  0  0
  132.7530  125.7060   66.0000 C   0  0  0  0  0  0  0  0  0  0  0  0
  131.7490  125.8470   66.9260 O   0  0  0  0  0  0  0  0  0  0  0  0
  130.5240  126.3910   66.5840 C   0  0  0  0  0  0  0  0  0  0  0  0
  129.8000  126.9980   67.6090 C   0  0  0  0  0  0  0  0  0  0  0  0
  128.5540  127.5590   67.3370 C   0  0  0  0  0  0  0  0  0  0  0  0
  128.0130  127.5170   66.0430 C   0  0  0  0  0  0  0  0  0  0  0  0
  126.6890  128.1220   65.7550 N   0  0  0  0  0  0  0  0  0  0  0  0
  125.7590  127.8930   66.5230 O   0  0  0  0  0  0  0  0  0  0  0  0
  126.5710  128.8290   64.7580 O   0  0  0  0  0  0  0  0  0  0  0  0
  128.7530  126.8890   65.0280 C   0  0  0  0  0  0  0  0  0  0  0  0
  130.0010  126.3150   65.2860 C   0  0  0  0  0  0  0  0  0  0  0  0
  130.8430  125.6350   64.2210 C   0  0  0  0  0  0  0  0  0  0  0  0
  132.3510  125.8870   64.5080 C   0  0  2  0  0  0  0  0  0  0  0  0
  133.2500  125.1220   63.4920 C   0  0  0  0  0  0  0  0  0  0  0  0
  134.2830  124.6250   63.9500 O   0  0  0  0  0  0  0  0  0  0  0  0
  132.8620  124.9010   62.2000 N   0  0  0  0  0  0  0  0  0  0  0  0
  131.8240  125.7100   61.5260 C   0  0  0  0  0  0  0  0  0  0  0  0
  130.9980  124.7940   60.5990 C   0  0  0  0  0  0  0  0  0  0  0  0
  131.8560  124.0710   59.6570 N   0  0  0  0  0  0  0  0  0  0  0  0
  131.0630  123.3010   58.6880 C   0  0  0  0  0  0  0  0  0  0  0  0
  130.0660  122.3250   59.3670 C   0  0  0  0  0  0  0  0  0  0  0  0
  128.6380  122.7590   59.3920 N   0  0  0  0  0  0  0  0  0  0  0  0
  128.0870  123.0430   58.1610 C   0  0  0  0  0  0  0  0  0  0  0  0
  128.7250  122.9840   57.1040 O   0  0  0  0  0  0  0  0  0  0  0  0
  126.6180  123.4190   58.1980 C   0  0  0  0  0  0  0  0  0  0  0  0
  125.9500  123.7030   57.0000 C   0  0  0  0  0  0  0  0  0  0  0  0
  124.5990  124.0440   56.9970 C   0  0  0  0  0  0  0  0  0  0  0  0
  123.8730  124.1080   58.1850 C   0  0  0  0  0  0  0  0  0  0  0  0
  124.5060  123.8300   59.4200 C   0  0  0  0  0  0  0  0  0  0  0  0
  123.8290  123.8760   60.6620 C   0  0  0  0  0  0  0  0  0  0  0  0
  124.5120  123.5870   61.8420 C   0  0  0  0  0  0  0  0  0  0  0  0
  125.8640  123.2510   61.8230 C   0  0  0  0  0  0  0  0  0  0  0  0
  126.5750  123.1930   60.6170 C   0  0  0  0  0  0  0  0  0  0  0  0
  125.8860  123.4850   59.4110 C   0  0  0  0  0  0  0  0  0  0  0  0
  128.0440  122.8150   60.6370 C   0  0  0  0  0  0  0  0  0  0  0  0
  128.6420  122.5650   61.6880 O   0  0  0  0  0  0  0  0  0  0  0  0
  132.7900  123.2160   60.3920 C   0  0  0  0  0  0  0  0  0  0  0  0
  133.7000  124.0400   61.3340 C   0  0  0  0  0  0  0  0  0  0  0  0
  1  2  2  0
  2  3  1  0
  3  4  1  0
  4  5  2  0
  5  6  1  0
  6  7  2  0
  7  8  1  0
  8  9  2  0
  8 10  1  0
  7 11  1  0
 11 12  2  0
 12 13  1  0
 13 14  1  0
 14 15  1  6
 15 16  2  0
 15 17  1  0
 17 18  1  0
 18 19  1  0
 19 20  1  0
 20 21  1  0
 21 22  1  0
 22 23  1  0
 23 24  1  0
 24 25  2  0
 24 26  1  0
 26 27  2  0
 27 28  1  0
 28 29  2  0
 29 30  1  0
 30 31  2  0
 31 32  1  0
 32 33  2  0
 33 34  1  0
 34 35  2  0
 34 36  1  0
 36 37  2  0
 20 38  1  0
 38 39  1  0
 14  2  1  0
 39 17  1  0
 12  4  1  0
 36 23  1  0
 35 26  1  0
 35 30  1  0
M  CHG  2   8   1  10  -1
M  END
>  <Binding energies>  (77) 
[-10.9]

>  <Ligand effiencies>  (77) 
[-0.2794871794871795]

>  <Interactions>  (77) 
["V-B:TYR:539:CE2:9844, V-B:MET:535:CE:9803, V-B:PRO:540:CA:9851, V-B:TYR:539:CD2:9842, V-B:ALA:541:CA:9858, V-B:PRO:540:N:9852, V-B:PRO:540:CB:9853, V-B:PRO:540:C:9849, V-B:TYR:539:C:9835, V-A:HIS:456:CE1:4064, V-A:ASP:366:CG:3208, H-A:ARG:545:NE:4919, H-A:TYR:484:OH:4343, H-A:GLY:454:N:4045, V-B:GLU:543:CD:9876, V-B:GLU:543:CG:9875, V-A:ARG:545:CZ:4921, H-A:HIS:456:NE2:4065, V-B:GLU:543:CB:9874, V-B:ASN:362:CB:8143, H-B:ALA:541:N:9859, V-A:ARG:545:CD:4918, V-A:ARG:545:CG:4917, V-B:HIS:456:CE1:9037, V-A:ILE:369:CD1:3234, V-B:LEU:363:CA:8152, V-B:LEU:363:CD1:8156, H-B:ARG:545:NE:9892, V-B:ASP:366:CG:8180, V-B:LEU:363:CB:8154, V-B:TYR:531:CE2:9761, H-A:ARG:545:NH1:4922, V-B:ASN:362:C:8139"]

$$$$
RR27_Rahimova_2017
     RDKit          3D

 39 44  0  0  0  0  0  0  0  0999 V2000
  130.3190  123.0970   57.4300 O   0  0  0  0  0  0  0  0  0  0  0  0
  129.3830  123.2340   58.2240 C   0  0  0  0  0  0  0  0  0  0  0  0
  128.3160  124.3260   57.9260 C   0  0  0  0  0  0  0  0  0  0  0  0
  126.9340  123.7430   57.5760 C   0  0  0  0  0  0  0  0  0  0  0  0
  126.7950  122.5840   56.7970 C   0  0  0  0  0  0  0  0  0  0  0  0
  125.5310  122.0820   56.5010 C   0  0  0  0  0  0  0  0  0  0  0  0
  124.4000  122.7350   56.9830 C   0  0  0  0  0  0  0  0  0  0  0  0
  124.5220  123.8870   57.7550 C   0  0  0  0  0  0  0  0  0  0  0  0
  125.7860  124.3890   58.0500 C   0  0  0  0  0  0  0  0  0  0  0  0
  128.8420  125.3850   56.9370 C   0  0  0  0  0  0  0  0  0  0  0  0
  129.0050  126.7260   57.3110 C   0  0  0  0  0  0  0  0  0  0  0  0
  129.4730  127.6590   56.3890 C   0  0  0  0  0  0  0  0  0  0  0  0
  129.7720  127.2570   55.0900 C   0  0  0  0  0  0  0  0  0  0  0  0
  129.6040  125.9310   54.7020 C   0  0  0  0  0  0  0  0  0  0  0  0
  129.1360  124.9990   55.6240 C   0  0  0  0  0  0  0  0  0  0  0  0
  129.1880  122.3630   59.2550 N   0  0  0  0  0  0  0  0  0  0  0  0
  128.2570  122.6180   60.3650 C   0  0  0  0  0  0  0  0  0  0  0  0
  129.0410  123.4110   61.4340 C   0  0  0  0  0  0  0  0  0  0  0  0
  130.3510  122.6880   61.8810 C   0  0  0  0  0  0  0  0  0  0  0  0
  131.2280  123.4890   62.8620 C   0  0  0  0  0  0  0  0  0  0  0  0
  132.5350  123.6590   62.5080 N   0  0  0  0  0  0  0  0  0  0  0  0
  133.3470  124.3830   63.3280 C   0  0  0  0  0  0  0  0  0  0  0  0
  134.6720  124.6260   63.0790 O   0  0  0  0  0  0  0  0  0  0  0  0
  132.8050  124.9250   64.5090 C   0  0  0  0  0  0  0  0  0  0  0  0
  133.3200  125.6820   65.5200 N   0  0  0  0  0  0  0  0  0  0  0  0
  132.3000  125.9080   66.4250 N   0  0  0  0  0  0  0  0  0  0  0  0
  131.1770  125.3090   65.9750 N   0  0  0  0  0  0  0  0  0  0  0  0
  129.9430  125.3660   66.7540 C   0  0  0  0  0  0  0  0  0  0  0  0
  129.5300  126.7790   67.1430 C   0  0  0  0  0  0  0  0  0  0  0  0
  128.9590  127.6330   66.1930 C   0  0  0  0  0  0  0  0  0  0  0  0
  128.5700  128.9240   66.5530 C   0  0  0  0  0  0  0  0  0  0  0  0
  128.7450  129.3670   67.8640 C   0  0  0  0  0  0  0  0  0  0  0  0
  129.3060  128.5170   68.8190 C   0  0  0  0  0  0  0  0  0  0  0  0
  129.4990  129.0530   70.4490 Cl  0  0  0  0  0  0  0  0  0  0  0  0
  129.7010  127.2290   68.4580 C   0  0  0  0  0  0  0  0  0  0  0  0
  131.4420  124.6720   64.7740 C   0  0  0  0  0  0  0  0  0  0  0  0
  130.6260  123.9600   63.9920 N   0  0  0  0  0  0  0  0  0  0  0  0
  131.1460  122.1180   60.6660 C   0  0  0  0  0  0  0  0  0  0  0  0
  130.2430  121.4080   59.6260 C   0  0  0  0  0  0  0  0  0  0  0  0
  1  2  2  0
  2  3  1  0
  3  4  1  0
  4  5  2  0
  5  6  1  0
  6  7  2  0
  7  8  1  0
  8  9  2  0
  3 10  1  0
 10 11  2  0
 11 12  1  0
 12 13  2  0
 13 14  1  0
 14 15  2  0
  2 16  1  0
 16 17  1  0
 17 18  1  0
 18 19  1  0
 19 20  1  0
 20 21  2  0
 21 22  1  0
 22 23  1  0
 22 24  2  0
 24 25  1  0
 25 26  2  0
 26 27  1  0
 27 28  1  0
 28 29  1  0
 29 30  2  0
 30 31  1  0
 31 32  2  0
 32 33  1  0
 33 34  1  0
 33 35  2  0
 27 36  1  0
 36 37  2  0
 19 38  1  0
 38 39  1  0
  9  4  1  0
 15 10  1  0
 39 16  1  0
 37 20  1  0
 36 24  1  0
 35 29  1  0
M  END
>  <Binding energies>  (78) 
[-10.96]

>  <Ligand effiencies>  (78) 
[-0.274]

>  <Interactions>  (78) 
["V-B:TYR:539:CE2:9844, V-B:MET:535:CE:9803, V-B:PRO:540:CD:9855, V-B:PRO:540:CA:9851, V-B:TYR:539:CD2:9842, V-B:PRO:540:N:9852, V-B:PRO:540:CB:9853, V-B:TYR:539:C:9835, V-A:HIS:456:CE1:4064, H-A:ARG:545:NE:4919, H-A:TYR:484:OH:4343, H-A:GLY:454:N:4045, V-B:GLU:543:CG:9875, H-A:HIS:456:NE2:4065, V-B:GLU:543:CB:9874, V-A:GLU:543:CD:4903, H-A:ASP:366:OD2:3210, V-A:GLU:543:CB:4901, V-B:HIS:456:CE1:9037, V-B:LEU:363:CD1:8156, V-A:TYR:531:CE1:4787, V-A:TYR:531:CZ:4789, V-A:GLU:543:CG:4902, V-B:HIS:456:CD2:9035, V-B:PRO:540:CG:9854, V-B:ILE:538:CG2:9831, H-B:TYR:539:OH:9846, V-B:TYR:539:CA:9837, H-A:ARG:545:NH1:4922, H-A:ASP:366:OD1:3209"]

$$$$
RR28_Rahimova_2017
     RDKit          3D

 46 49  0  0  0  0  0  0  0  0999 V2000
  130.0250  118.0730   60.7710 C   0  0  0  0  0  0  0  0  0  0  0  0
  130.1120  119.5250   61.2260 C   0  0  0  0  0  0  0  0  0  0  0  0
  130.2550  119.7790   62.4210 O   0  0  0  0  0  0  0  0  0  0  0  0
  130.0230  120.4610   60.2600 N   0  0  0  0  0  0  0  0  0  0  0  0
  130.0670  121.9340   60.4040 C   0  0  0  0  0  0  0  0  0  0  0  0
  128.6880  122.5060   59.9670 C   0  0  0  0  0  0  0  0  0  0  0  0
  128.3770  122.5860   58.6010 C   0  0  0  0  0  0  0  0  0  0  0  0
  127.1550  123.0960   58.1740 C   0  0  0  0  0  0  0  0  0  0  0  0
  126.2150  123.5410   59.1040 C   0  0  0  0  0  0  0  0  0  0  0  0
  124.8800  124.1020   58.6160 C   0  0  0  0  0  0  0  0  0  0  0  0
  123.8880  123.8730   59.4790 F   0  0  0  0  0  0  0  0  0  0  0  0
  124.9710  125.4200   58.4330 F   0  0  0  0  0  0  0  0  0  0  0  0
  124.5620  123.5290   57.4540 F   0  0  0  0  0  0  0  0  0  0  0  0
  126.5120  123.4690   60.4670 C   0  0  0  0  0  0  0  0  0  0  0  0
  127.7350  122.9580   60.8940 C   0  0  0  0  0  0  0  0  0  0  0  0
  131.2800  122.5290   59.6040 C   0  0  0  0  0  0  0  0  0  0  0  0
  132.6580  122.0990   60.1690 C   0  0  0  0  0  0  0  0  0  0  0  0
  132.6950  122.5550   61.5680 N   0  0  0  0  0  0  0  0  0  0  0  0
  133.2420  123.7610   61.8840 C   0  0  0  0  0  0  0  0  0  0  0  0
  133.8670  124.4320   61.0590 O   0  0  0  0  0  0  0  0  0  0  0  0
  133.2200  124.2280   63.3590 C   0  0  0  0  0  0  0  0  0  0  0  0
  131.9230  124.9440   63.8260 C   0  0  0  0  0  0  0  0  0  0  0  0
  131.2050  124.2850   65.0270 C   0  0  0  0  0  0  0  0  0  0  0  0
  130.6830  123.1800   64.8530 O   0  0  0  0  0  0  0  0  0  0  0  0
  131.2820  124.8610   66.2600 N   0  0  0  0  0  0  0  0  0  0  0  0
  131.5970  126.2790   66.4700 C   0  0  0  0  0  0  0  0  0  0  0  0
  130.2640  127.0500   66.3490 C   0  0  0  0  0  0  0  0  0  0  0  0
  129.1370  126.5700   67.3290 C   0  0  0  0  0  0  0  0  0  0  0  0
  127.8340  127.0820   66.8570 N   0  0  0  0  0  0  0  0  0  0  0  0
  127.4780  128.3610   66.6220 C   0  0  0  0  0  0  0  0  0  0  0  0
  126.0440  128.5890   66.1540 C   0  0  0  0  0  0  0  0  0  0  0  0
  128.2320  129.3230   66.7640 O   0  0  0  0  0  0  0  0  0  0  0  0
  129.4220  127.2180   68.7230 C   0  0  0  0  0  0  0  0  0  0  0  0
  128.6840  126.9000   69.8750 C   0  0  0  0  0  0  0  0  0  0  0  0
  128.9710  127.5000   71.0980 C   0  0  0  0  0  0  0  0  0  0  0  0
  130.0010  128.4370   71.2010 C   0  0  0  0  0  0  0  0  0  0  0  0
  130.3310  129.1010   72.5370 C   0  0  0  0  0  0  0  0  0  0  0  0
  131.3550  128.4840   73.1290 F   0  0  0  0  0  0  0  0  0  0  0  0
  130.6660  130.3720   72.3220 F   0  0  0  0  0  0  0  0  0  0  0  0
  129.2960  129.0770   73.3790 F   0  0  0  0  0  0  0  0  0  0  0  0
  130.7380  128.7690   70.0630 C   0  0  0  0  0  0  0  0  0  0  0  0
  130.4490  128.1680   68.8420 C   0  0  0  0  0  0  0  0  0  0  0  0
  129.1280  124.9920   67.3680 C   0  0  0  0  0  0  0  0  0  0  0  0
  130.5190  124.3030   67.3830 C   0  0  0  0  0  0  0  0  0  0  0  0
  131.7110  121.8810   62.4270 C   0  0  0  0  0  0  0  0  0  0  0  0
  130.3050  122.2850   61.9090 C   0  0  0  0  0  0  0  0  0  0  0  0
  1  2  1  0
  2  3  2  0
  2  4  1  0
  4  5  1  0
  5  6  1  0
  6  7  2  0
  7  8  1  0
  8  9  2  0
  9 10  1  0
 10 11  1  0
 10 12  1  0
 10 13  1  0
  9 14  1  0
 14 15  2  0
  5 16  1  0
 16 17  1  0
 17 18  1  0
 18 19  1  0
 19 20  2  0
 19 21  1  0
 21 22  1  0
 22 23  1  0
 23 24  2  0
 23 25  1  0
 25 26  1  0
 26 27  1  0
 27 28  1  0
 28 29  1  0
 29 30  1  0
 30 31  1  0
 30 32  2  0
 28 33  1  0
 33 34  2  0
 34 35  1  0
 35 36  2  0
 36 37  1  0
 37 38  1  0
 37 39  1  0
 37 40  1  0
 36 41  1  0
 41 42  2  0
 28 43  1  0
 43 44  1  0
 18 45  1  0
 45 46  1  0
 46  5  1  0
 15  6  1  0
 44 25  1  0
 42 33  1  0
M  END
>  <Binding energies>  (79) 
[-9.26]

>  <Ligand effiencies>  (79) 
[-0.19291666666666665]

>  <Interactions>  (79) 
["V-B:ALA:541:CB:9860, V-B:TYR:539:CE2:9844, H-B:TYR:539:O:9836, V-B:PRO:540:CA:9851, V-A:TRP:381:CH2:3367, V-B:TYR:539:CD2:9842, V-B:PRO:540:N:9852, V-B:PRO:540:CB:9853, V-B:PRO:540:C:9849, V-B:TYR:539:C:9835, V-B:GLU:543:C:9870, V-A:HIS:456:CE1:4064, V-A:ASP:366:CG:3208, H-A:TYR:484:OH:4343, V-B:GLU:543:CD:9876, V-B:GLU:543:CG:9875, V-B:GLU:543:CB:9874, V-A:GLU:543:CD:4903, H-B:GLU:543:OE2:9878, V-A:GLU:543:CB:4901, V-A:TYR:484:CZ:4342, V-B:ARG:545:CG:9890, V-B:HIS:456:CE1:9037, V-A:ILE:369:CD1:3234, V-A:TRP:381:CZ3:3366, V-A:LEU:475:CD2:4254, V-B:LEU:363:CA:8152, V-B:LEU:363:CD1:8156, V-A:TRP:381:CZ2:3365, V-A:GLU:543:C:4897, V-A:LYS:547:CE:4945, V-B:GLU:543:CA:9872, V-B:ASP:366:CG:8180, V-A:PRO:482:CG:4322, V-A:PRO:482:CB:4321, V-B:ASP:366:CB:8179, V-B:LEU:363:CB:8154, V-A:TYR:484:CE1:4340, H-B:GLU:543:OE1:9877, V-A:TRP:381:CE3:3363, V-A:TRP:381:CE2:3362, V-A:TRP:381:CD2:3360, V-A:GLY:544:CA:4909, V-A:GLY:544:C:4907, V-B:ASN:362:C:8139"]

$$$$
RR29_Rahimova_2017
     RDKit          3D

 18 19  0  0  0  0  0  0  0  0999 V2000
  129.8740  124.2710   68.5490 C   0  0  0  0  0  0  0  0  0  0  0  0
  130.1860  125.3780   67.5520 C   0  0  0  0  0  0  0  0  0  0  0  0
  129.3830  126.6710   67.8160 C   0  0  0  0  0  0  0  0  0  0  0  0
  130.1280  127.6190   68.7790 C   0  0  0  0  0  0  0  0  0  0  0  0
  129.3190  127.9220   70.0310 C   0  0  0  0  0  0  0  0  0  0  0  0
  127.9640  127.5440   70.1010 C   0  0  0  0  0  0  0  0  0  0  0  0
  127.2000  127.8120   71.2460 C   0  0  0  0  0  0  0  0  0  0  0  0
  127.8270  128.4730   72.2960 C   0  0  0  0  0  0  0  0  0  0  0  0
  129.1410  128.8440   72.2320 C   0  0  0  0  0  0  0  0  0  0  0  0
  129.9250  128.5810   71.1150 C   0  0  0  0  0  0  0  0  0  0  0  0
  129.4980  129.4360   73.4030 O   0  0  0  0  0  0  0  0  0  0  0  0
  128.3030  129.6140   74.1170 C   0  0  0  0  0  0  0  0  0  0  0  0
  127.3200  128.8200   73.5090 O   0  0  0  0  0  0  0  0  0  0  0  0
  131.0390  125.1450   66.6240 N   0  0  0  0  0  0  0  0  0  0  0  0
  131.2600  126.1150   65.6710 N   0  0  0  0  0  0  0  0  0  0  0  0
  130.6970  126.1120   64.4520 C   0  0  0  0  0  0  0  0  0  0  0  0
  129.8410  125.1900   64.0090 N   0  0  0  0  0  0  0  0  0  0  0  0
  131.0130  127.0980   63.6250 N   0  0  0  0  0  0  0  0  0  0  0  0
  1  2  1  0
  2  3  1  0
  3  4  1  0
  4  5  1  0
  5  6  2  0
  6  7  1  0
  7  8  2  0
  8  9  1  0
  9 10  2  0
  9 11  1  0
 11 12  1  0
 12 13  1  0
  2 14  2  0
 14 15  1  0
 15 16  1  0
 16 17  1  0
 16 18  2  0
 10  5  1  0
 13  8  1  0
M  CHG  1  18   1
M  END
>  <Binding energies>  (80) 
[-7.27]

>  <Ligand effiencies>  (80) 
[-0.3160869565217391]

>  <Interactions>  (80) 
["V-B:GLU:543:C:9870, V-A:HIS:456:CE1:4064, H-A:GLU:543:OE2:4905, H-A:TYR:484:OH:4343, H-A:GLU:543:OE1:4904, V-B:GLU:543:CD:9876, V-B:GLU:543:CG:9875, H-A:HIS:456:NE2:4065, V-B:GLU:543:CB:9874, V-A:GLU:543:CD:4903, H-B:GLU:543:OE2:9878, V-A:TYR:484:CZ:4342, V-B:HIS:456:CE1:9037, V-B:HIS:456:CD2:9035, H-B:LYS:547:NZ:9919, V-B:GLU:543:CA:9872, H-A:LYS:547:NZ:4946, V-A:TYR:484:CE1:4340, V-B:GLY:544:C:9880, V-B:HIS:456:CG:9033"]

$$$$
RR30_Rahimova_2017
     RDKit          3D

 18 19  0  0  0  0  0  0  0  0999 V2000
  132.2530  130.4320   59.7960 C   0  0  0  0  0  0  0  0  0  0  0  0
  132.4810  131.3830   60.9800 C   0  0  0  0  0  0  0  0  0  0  0  0
  131.1940  132.0150   61.4630 C   0  0  0  0  0  0  0  0  0  0  0  0
  130.8080  132.2240   62.6970 N   0  0  0  0  0  0  0  0  0  0  0  0
  129.5530  132.8200   62.6090 N   0  0  0  0  0  0  0  0  0  0  0  0
  129.2840  132.9110   61.3320 C   0  0  0  0  0  0  0  0  0  0  0  0
  127.8410  133.5940   60.5820 S   0  0  0  0  0  0  0  0  0  0  0  0
  127.2320  132.1300   59.6870 C   0  0  0  0  0  0  0  0  0  0  0  0
  127.9750  131.9080   58.3670 C   0  0  0  0  0  0  0  0  0  0  0  0
  127.5990  131.0130   57.6070 O   0  0  0  0  0  0  0  0  0  0  0  0
  129.0390  132.7120   58.1460 N   0  0  0  0  0  0  0  0  0  0  0  0
  129.8650  132.6980   57.0310 C   0  0  0  0  0  0  0  0  0  0  0  0
  129.9890  133.6160   56.0990 N   0  0  0  0  0  0  0  0  0  0  0  0
  130.9170  133.2600   55.1280 N   0  0  0  0  0  0  0  0  0  0  0  0
  131.4720  132.0890   55.3420 C   0  0  0  0  0  0  0  0  0  0  0  0
  132.5080  131.4840   54.4230 C   0  0  0  0  0  0  0  0  0  0  0  0
  130.8870  131.3150   56.7890 S   0  0  0  0  0  0  0  0  0  0  0  0
  130.2810  132.4250   60.5480 O   0  0  0  0  0  0  0  0  0  0  0  0
  1  2  1  0
  2  3  1  0
  3  4  2  0
  4  5  1  0
  5  6  2  0
  6  7  1  0
  7  8  1  0
  8  9  1  0
  9 10  2  0
  9 11  1  0
 11 12  1  0
 12 13  2  0
 13 14  1  0
 14 15  2  0
 15 16  1  0
 15 17  1  0
  6 18  1  0
 18  3  1  0
 17 12  1  0
M  END
>  <Binding energies>  (81) 
[-6.82]

>  <Ligand effiencies>  (81) 
[-0.3589473684210526]

>  <Interactions>  (81) 
["V-A:TYR:539:CZ:4872, V-A:LEU:363:CD1:3184, V-A:PRO:540:C:4876, V-A:PRO:540:N:4879, V-A:TYR:539:CE1:4870, V-A:TYR:539:C:4862, V-A:TYR:539:CD1:4868, V-A:PRO:540:CA:4878, V-A:TYR:539:CG:4867, H-A:ALA:541:N:4886, V-A:TYR:531:CE2:4788, V-A:PRO:540:CB:4880, V-A:TYR:539:CE2:4871, V-A:TYR:539:CD2:4869, H-A:TYR:539:N:4865, V-A:ILE:538:CD1:4860, V-A:ALA:541:CB:4887, H-A:TYR:539:OH:4873, H-A:TYR:539:O:4863"]

$$$$
RR31_Rahimova_2017
     RDKit          3D

 18 19  0  0  0  0  0  0  0  0999 V2000
  134.4300  125.3600   65.8560 C   0  0  0  0  0  0  0  0  0  0  0  0
  133.3070  125.0300   64.8810 C   0  0  0  0  0  0  0  0  0  0  0  0
  133.6120  124.3680   63.6910 C   0  0  0  0  0  0  0  0  0  0  0  0
  132.6070  124.0490   62.7800 C   0  0  0  0  0  0  0  0  0  0  0  0
  131.2650  124.3750   63.0360 C   0  0  0  0  0  0  0  0  0  0  0  0
  130.2480  124.0720   62.1280 N   0  0  0  0  0  0  0  0  0  0  0  0
  129.4210  122.8560   62.2580 C   0  0  0  0  0  0  0  0  0  0  0  0
  128.6490  122.4780   60.9720 C   0  0  0  0  0  0  0  0  0  0  0  0
  127.8140  123.5920   60.5160 N   0  0  0  0  0  0  0  0  0  0  0  0
  127.0420  123.2510   59.3170 C   0  0  0  0  0  0  0  0  0  0  0  0
  125.6180  123.8430   59.3290 C   0  0  0  0  0  0  0  0  0  0  0  0
  125.0080  123.8660   60.7390 C   0  0  0  0  0  0  0  0  0  0  0  0
  125.5660  125.0540   61.5310 N   0  0  0  0  0  0  0  0  0  0  0  0
  128.7040  124.7160   60.2250 C   0  0  0  0  0  0  0  0  0  0  0  0
  129.4670  125.1540   61.4960 C   0  0  0  0  0  0  0  0  0  0  0  0
  130.9740  125.0490   64.2310 C   0  0  0  0  0  0  0  0  0  0  0  0
  131.9750  125.3760   65.1540 C   0  0  0  0  0  0  0  0  0  0  0  0
  131.5940  126.1110   66.4330 C   0  0  0  0  0  0  0  0  0  0  0  0
  1  2  1  0
  2  3  2  0
  3  4  1  0
  4  5  2  0
  5  6  1  0
  6  7  1  0
  7  8  1  0
  8  9  1  0
  9 10  1  0
 10 11  1  0
 11 12  1  0
 12 13  1  0
  9 14  1  0
 14 15  1  0
  5 16  1  0
 16 17  2  0
 17 18  1  0
 17  2  1  0
 15  6  1  0
M  CHG  1  13   1
M  END
>  <Binding energies>  (82) 
[-5.76]

>  <Ligand effiencies>  (82) 
[-0.2742857142857143]

>  <Interactions>  (82) 
["V-B:ALA:541:CB:9860, V-B:PRO:540:CA:9851, V-B:PRO:540:N:9852, V-B:PRO:540:CB:9853, V-A:HIS:456:CE1:4064, V-B:GLU:543:CD:9876, V-A:ARG:545:CZ:4921, H-B:GLU:543:OE2:9878, V-A:ARG:545:CD:4918, V-A:ARG:545:CG:4917, V-A:GLY:453:CA:4039, H-B:GLU:543:OE1:9877, H-B:ASP:366:OD2:8182, H-B:ASP:366:OD1:8181"]

$$$$
RR32_Rahimova_2017
     RDKit          3D

 18 20  0  0  0  0  0  0  0  0999 V2000
  133.3580  130.4300   58.0640 C   0  0  0  0  0  0  0  0  0  0  0  0
  132.0450  131.1830   57.8760 C   0  0  0  0  0  0  0  0  0  0  0  0
  131.2430  131.4000   58.9960 C   0  0  0  0  0  0  0  0  0  0  0  0
  130.0390  132.0870   58.8620 C   0  0  0  0  0  0  0  0  0  0  0  0
  129.2460  132.3000   59.9760 N   0  0  0  0  0  0  0  0  0  0  0  0
  129.9020  132.2380   61.2950 C   0  0  0  0  0  0  0  0  0  0  0  0
  128.9050  132.3080   62.4770 C   0  0  0  0  0  0  0  0  0  0  0  0
  128.1210  133.5400   62.4030 N   0  0  0  0  0  0  0  0  0  0  0  0
  127.2040  133.6220   63.5350 C   0  0  0  0  0  0  0  0  0  0  0  0
  127.3750  133.5260   61.1470 C   0  0  0  0  0  0  0  0  0  0  0  0
  128.3470  133.4710   59.9450 C   0  0  0  0  0  0  0  0  0  0  0  0
  129.5960  132.5630   57.6700 N   0  0  0  0  0  0  0  0  0  0  0  0
  130.3550  132.3640   56.5580 C   0  0  0  0  0  0  0  0  0  0  0  0
  129.8680  132.8690   55.3280 C   0  0  0  0  0  0  0  0  0  0  0  0
  130.6010  132.6950   54.1600 C   0  0  0  0  0  0  0  0  0  0  0  0
  131.8190  132.0260   54.1850 C   0  0  0  0  0  0  0  0  0  0  0  0
  132.3260  131.5170   55.3770 C   0  0  0  0  0  0  0  0  0  0  0  0
  131.6090  131.6710   56.5990 C   0  0  0  0  0  0  0  0  0  0  0  0
  1  2  1  0
  2  3  2  0
  3  4  1  0
  4  5  1  0
  5  6  1  0
  6  7  1  0
  7  8  1  0
  8  9  1  0
  8 10  1  0
 10 11  1  0
  4 12  2  0
 12 13  1  0
 13 14  2  0
 14 15  1  0
 15 16  2  0
 16 17  1  0
 17 18  2  0
 18  2  1  0
 11  5  1  0
 18 13  1  0
M  END
>  <Binding energies>  (83) 
[-6.48]

>  <Ligand effiencies>  (83) 
[-0.36000000000000004]

>  <Interactions>  (83) 
["V-A:LEU:363:CD1:3184, V-A:PRO:540:C:4876, V-A:PRO:540:N:4879, V-A:LEU:363:CA:3180, V-A:TYR:539:CE1:4870, V-A:TYR:539:C:4862, V-A:TYR:539:CD1:4868, V-A:PRO:540:CA:4878, V-A:ILE:538:CA:4855, V-A:TYR:531:CE2:4788, V-A:PRO:540:CB:4880, V-A:TYR:539:CE2:4871, V-A:TYR:539:CD2:4869, V-A:ILE:538:CG2:4858, V-A:TYR:531:CZ:4789, V-A:ILE:538:CD1:4860, V-A:ALA:541:CB:4887, V-B:LEU:475:CD2:9226, V-B:LEU:475:CD1:9225"]

$$$$
RR5_Rahimova_2017
     RDKit          3D

 45 50  0  0  0  0  0  0  0  0999 V2000
  131.0560  122.8060   62.5210 O   0  0  0  0  0  0  0  0  0  0  0  0
  130.4790  123.7990   62.0810 C   0  0  0  0  0  0  0  0  0  0  0  0
  130.2240  125.0060   63.0030 C   0  0  0  0  0  0  0  0  0  0  0  0
  131.4930  125.8960   63.2560 C   0  0  2  0  0  0  0  0  0  0  0  0
  131.4500  127.2340   62.6340 N   0  0  0  0  0  0  0  0  0  0  0  0
  131.1150  127.4050   61.2980 C   0  0  0  0  0  0  0  0  0  0  0  0
  130.7800  126.5220   60.5040 O   0  0  0  0  0  0  0  0  0  0  0  0
  131.2300  128.7100   60.9950 O   0  0  0  0  0  0  0  0  0  0  0  0
  131.4790  129.1440   59.6610 C   0  0  0  0  0  0  0  0  0  0  0  0
  131.6360  130.6790   59.6040 C   0  0  0  0  0  0  0  0  0  0  0  0
  131.5740  131.2460   58.1970 C   0  0  0  0  0  0  0  0  0  0  0  0
  132.3710  130.9560   57.0850 C   0  0  0  0  0  0  0  0  0  0  0  0
  132.1190  131.5870   55.8660 C   0  0  0  0  0  0  0  0  0  0  0  0
  131.0760  132.5080   55.7550 C   0  0  0  0  0  0  0  0  0  0  0  0
  130.2800  132.8010   56.8650 C   0  0  0  0  0  0  0  0  0  0  0  0
  130.5340  132.1690   58.0830 C   0  0  0  0  0  0  0  0  0  0  0  0
  129.8740  132.2910   59.3930 C   0  0  0  0  0  0  0  0  0  0  0  0
  128.8010  133.0810   59.8110 C   0  0  0  0  0  0  0  0  0  0  0  0
  128.3780  133.0220   61.1400 C   0  0  0  0  0  0  0  0  0  0  0  0
  129.0230  132.1750   62.0440 C   0  0  0  0  0  0  0  0  0  0  0  0
  130.0910  131.3850   61.6200 C   0  0  0  0  0  0  0  0  0  0  0  0
  130.5170  131.4380   60.2910 C   0  0  0  0  0  0  0  0  0  0  0  0
  132.7800  125.1560   62.8140 C   0  0  0  0  0  0  0  0  0  0  0  0
  133.5710  124.6310   63.5710 O   0  0  0  0  0  0  0  0  0  0  0  0
  132.8730  125.1710   61.4520 O   0  0  0  0  0  0  0  0  0  0  0  0
  130.0590  123.9440   60.8040 N   0  0  0  0  0  0  0  0  0  0  0  0
  130.1010  123.0580   59.6020 C   0  0  0  0  0  0  0  0  0  0  0  0
  128.6730  123.2650   58.9930 C   0  0  0  0  0  0  0  0  0  0  0  0
  128.3060  122.6810   57.7690 C   0  0  0  0  0  0  0  0  0  0  0  0
  127.0330  122.8710   57.2380 C   0  0  0  0  0  0  0  0  0  0  0  0
  126.1090  123.6570   57.9180 C   0  0  0  0  0  0  0  0  0  0  0  0
  126.4440  124.2460   59.1310 C   0  0  0  0  0  0  0  0  0  0  0  0
  127.7130  124.0470   59.6660 C   0  0  0  0  0  0  0  0  0  0  0  0
  131.2370  123.5930   58.6670 C   0  0  0  0  0  0  0  0  0  0  0  0
  132.5850  123.5780   59.0600 C   0  0  0  0  0  0  0  0  0  0  0  0
  133.5770  124.0770   58.2190 C   0  0  0  0  0  0  0  0  0  0  0  0
  133.2340  124.5990   56.9760 C   0  0  0  0  0  0  0  0  0  0  0  0
  131.9060  124.6210   56.5630 C   0  0  0  0  0  0  0  0  0  0  0  0
  130.9180  124.1140   57.4000 C   0  0  0  0  0  0  0  0  0  0  0  0
  130.3280  121.6050   60.1400 C   0  0  0  0  0  0  0  0  0  0  0  0
  131.5850  120.9820   60.0350 C   0  0  0  0  0  0  0  0  0  0  0  0
  131.7910  119.6880   60.5040 C   0  0  0  0  0  0  0  0  0  0  0  0
  130.7420  118.9940   61.0950 C   0  0  0  0  0  0  0  0  0  0  0  0
  129.4930  119.5870   61.2260 C   0  0  0  0  0  0  0  0  0  0  0  0
  129.2910  120.8820   60.7550 C   0  0  0  0  0  0  0  0  0  0  0  0
  1  2  2  0
  2  3  1  0
  4  3  1  6
  4  5  1  0
  5  6  1  0
  6  7  2  0
  6  8  1  0
  8  9  1  0
  9 10  1  0
 10 11  1  0
 11 12  2  0
 12 13  1  0
 13 14  2  0
 14 15  1  0
 15 16  2  0
 16 17  1  0
 17 18  2  0
 18 19  1  0
 19 20  2  0
 20 21  1  0
 21 22  2  0
  4 23  1  0
 23 24  2  0
 23 25  1  0
  2 26  1  0
 26 27  1  0
 27 28  1  0
 28 29  2  0
 29 30  1  0
 30 31  2  0
 31 32  1  0
 32 33  2  0
 27 34  1  0
 34 35  2  0
 35 36  1  0
 36 37  2  0
 37 38  1  0
 38 39  2  0
 27 40  1  0
 40 41  2  0
 41 42  1  0
 42 43  2  0
 43 44  1  0
 44 45  2  0
 22 10  1  0
 33 28  1  0
 39 34  1  0
 45 40  1  0
 16 11  1  0
 22 17  1  0
M  END
>  <Binding energies>  (84) 
[-11.15]

>  <Ligand effiencies>  (84) 
[-0.23229166666666667]

>  <Interactions>  (84) 
["V-B:ALA:541:CB:9860, V-B:TYR:539:CE2:9844, V-B:MET:535:CE:9803, V-B:PRO:540:CA:9851, V-A:TRP:381:CH2:3367, V-B:TYR:539:CD2:9842, V-B:ALA:541:CA:9858, V-B:PRO:540:N:9852, V-B:PRO:540:CB:9853, V-B:PRO:540:C:9849, V-B:TYR:539:C:9835, V-B:TYR:539:CZ:9845, V-A:ASP:366:CG:3208, H-A:GLU:543:OE2:4905, H-A:GLY:454:N:4045, H-A:GLU:543:OE1:4904, V-A:ARG:545:CZ:4921, V-A:GLU:543:CD:4903, H-A:ARG:545:NH2:4923, V-A:LEU:363:CD1:3184, V-A:PRO:540:N:4879, V-A:TYR:539:C:4862, V-A:TYR:539:CD1:4868, V-A:ASP:366:CB:3207, V-A:PRO:540:CA:4878, V-A:PRO:540:CD:4882, H-A:ASP:366:OD2:3210, V-A:TYR:531:CE2:4788, V-A:PRO:540:CB:4880, V-A:TRP:381:CZ3:3366, V-A:LEU:475:CD2:4254, V-A:TYR:531:CE1:4787, V-A:TYR:531:CZ:4789, V-A:TRP:381:CZ2:3365, V-A:ASP:366:C:3203, V-A:ASP:366:CA:3205, H-A:ASP:366:OD1:3209"]

$$$$
