1a_Ghoteimi_2023
     RDKit          3D

 40 43  0  0  0  0  0  0  0  0999 V2000
  131.3830  131.4530   53.9240 C   0  0  0  0  0  0  0  0  0  0  0  0
  130.2660  132.4990   53.9910 C   0  0  0  0  0  0  0  0  0  0  0  0
  130.4710  133.3350   55.1240 O   0  0  0  0  0  0  0  0  0  0  0  0
  130.7740  132.8090   56.3380 C   0  0  0  0  0  0  0  0  0  0  0  0
  131.9290  132.6250   56.7320 O   0  0  0  0  0  0  0  0  0  0  0  0
  129.5600  132.4780   57.1590 C   0  0  0  0  0  0  0  0  0  0  0  0
  128.6320  131.5070   56.7530 C   0  0  0  0  0  0  0  0  0  0  0  0
  127.5150  131.2240   57.5340 C   0  0  0  0  0  0  0  0  0  0  0  0
  127.3070  131.9070   58.7420 C   0  0  0  0  0  0  0  0  0  0  0  0
  126.2130  131.7040   59.6050 N   0  0  0  0  0  0  0  0  0  0  0  0
  125.0430  131.0660   59.3830 C   0  0  0  0  0  0  0  0  0  0  0  0
  124.7190  130.5070   58.3360 O   0  0  0  0  0  0  0  0  0  0  0  0
  124.0680  131.0540   60.5610 C   0  0  0  0  0  0  0  0  0  0  0  0
  124.6620  132.0820   61.9360 S   0  0  0  0  0  0  0  0  0  0  0  0
  126.0020  131.1840   62.6840 C   0  0  0  0  0  0  0  0  0  0  0  0
  127.1560  131.2290   61.9770 N   0  0  0  0  0  0  0  0  0  0  0  0
  128.2600  130.5860   62.4420 C   0  0  0  0  0  0  0  0  0  0  0  0
  129.5050  130.7010   61.6120 C   0  0  0  0  0  0  0  0  0  0  0  0
  130.4800  131.6740   61.8890 C   0  0  0  0  0  0  0  0  0  0  0  0
  131.6340  131.7780   61.1180 C   0  0  0  0  0  0  0  0  0  0  0  0
  131.8500  130.9150   60.0460 C   0  0  0  0  0  0  0  0  0  0  0  0
  133.0240  131.0890   59.3380 O   0  0  0  0  0  0  0  0  0  0  0  0
  133.6210  129.9660   58.6990 C   0  0  0  0  0  0  0  0  0  0  0  0
  130.8850  129.9410   59.7550 C   0  0  0  0  0  0  0  0  0  0  0  0
  129.7330  129.8400   60.5270 C   0  0  0  0  0  0  0  0  0  0  0  0
  128.2130  129.8750   63.6480 C   0  0  0  0  0  0  0  0  0  0  0  0
  127.0240  129.7930   64.3840 C   0  0  0  0  0  0  0  0  0  0  0  0
  127.0410  128.9900   65.6440 C   0  0  0  0  0  0  0  0  0  0  0  0
  126.0630  128.0210   65.8900 C   0  0  0  0  0  0  0  0  0  0  0  0
  126.0940  127.2670   67.0600 C   0  0  0  0  0  0  0  0  0  0  0  0
  127.1050  127.4600   68.0020 C   0  0  0  0  0  0  0  0  0  0  0  0
  127.0550  126.6660   69.1300 O   0  0  0  0  0  0  0  0  0  0  0  0
  127.2390  127.2640   70.4090 C   0  0  0  0  0  0  0  0  0  0  0  0
  128.0930  128.4250   67.7540 C   0  0  0  0  0  0  0  0  0  0  0  0
  128.0590  129.1790   66.5840 C   0  0  0  0  0  0  0  0  0  0  0  0
  125.8810  130.4690   63.8950 C   0  0  0  0  0  0  0  0  0  0  0  0
  124.6120  130.4320   64.6300 C   0  0  0  0  0  0  0  0  0  0  0  0
  123.6110  130.4030   65.2100 N   0  0  0  0  0  0  0  0  0  0  0  0
  128.2260  132.8750   59.1460 C   0  0  0  0  0  0  0  0  0  0  0  0
  129.3440  133.1580   58.3640 C   0  0  0  0  0  0  0  0  0  0  0  0
  1  2  1  0
  2  3  1  0
  3  4  1  0
  4  5  2  0
  4  6  1  0
  6  7  2  0
  7  8  1  0
  8  9  2  0
  9 10  1  0
 10 11  1  0
 11 12  2  0
 11 13  1  0
 13 14  1  0
 14 15  1  0
 15 16  2  0
 16 17  1  0
 17 18  1  0
 18 19  2  0
 19 20  1  0
 20 21  2  0
 21 22  1  0
 22 23  1  0
 21 24  1  0
 24 25  2  0
 17 26  2  0
 26 27  1  0
 27 28  1  0
 28 29  2  0
 29 30  1  0
 30 31  2  0
 31 32  1  0
 32 33  1  0
 31 34  1  0
 34 35  2  0
 27 36  2  0
 36 37  1  0
 37 38  3  0
  9 39  1  0
 39 40  2  0
 40  6  1  0
 36 15  1  0
 25 18  1  0
 35 28  1  0
M  END
>  <Binding energies>  (1) 
[-8.84]

>  <Ligand effiencies>  (1) 
[-0.21560975609756097]

>  <Interactions>  (1) 
["V-B:GLU:543:C:9870, V-A:ASP:366:CG:3208, V-B:GLU:543:CD:9876, V-B:GLU:543:CG:9875, V-B:GLU:543:CB:9874, V-A:GLU:543:CD:4903, V-A:TYR:539:CZ:4872, V-A:PRO:540:C:4876, V-A:PRO:540:N:4879, V-A:LEU:363:CA:3180, V-A:TYR:539:CE1:4870, V-A:TYR:539:C:4862, V-A:TYR:539:CD1:4868, V-A:ASP:366:CB:3207, V-A:PRO:540:CA:4878, V-A:TYR:539:CG:4867, V-A:PRO:540:CD:4882, V-A:ILE:538:CA:4855, V-A:TYR:531:CE2:4788, V-A:PRO:540:CB:4880, V-A:TYR:539:CE2:4871, V-A:TYR:539:CD2:4869, V-B:ARG:545:CG:9890, V-B:HIS:456:CE1:9037, H-A:TYR:539:N:4865, V-A:TYR:531:CZ:4789, H-B:TYR:484:OH:9315, V-A:GLU:543:CG:4902, V-B:ARG:545:CD:9891, V-A:ILE:538:CD1:4860, H-B:GLY:454:N:9017, V-B:HIS:456:CD2:9035, H-A:TYR:539:OH:4873, V-B:GLY:544:C:9880"]

$$$$
1b_Ghoteimi_2023
     RDKit          3D

 34 37  0  0  0  0  0  0  0  0999 V2000
  124.5990  122.1050   55.9010 C   0  0  0  0  0  0  0  0  0  0  0  0
  124.8440  123.1240   56.8630 O   0  0  0  0  0  0  0  0  0  0  0  0
  126.0500  123.1370   57.5380 C   0  0  0  0  0  0  0  0  0  0  0  0
  126.0310  123.6260   58.8420 C   0  0  0  0  0  0  0  0  0  0  0  0
  127.1980  123.6780   59.5980 C   0  0  0  0  0  0  0  0  0  0  0  0
  128.4220  123.2380   59.0730 C   0  0  0  0  0  0  0  0  0  0  0  0
  129.6820  123.2980   59.8920 C   0  0  0  0  0  0  0  0  0  0  0  0
  129.7030  123.7230   61.2240 C   0  0  0  0  0  0  0  0  0  0  0  0
  130.9040  123.7560   61.9450 C   0  0  0  0  0  0  0  0  0  0  0  0
  130.8530  124.2260   63.3620 C   0  0  0  0  0  0  0  0  0  0  0  0
  130.2510  123.4370   64.3460 C   0  0  0  0  0  0  0  0  0  0  0  0
  130.1930  123.8740   65.6660 C   0  0  0  0  0  0  0  0  0  0  0  0
  130.7320  125.1090   66.0280 C   0  0  0  0  0  0  0  0  0  0  0  0
  130.6280  125.4600   67.3600 O   0  0  0  0  0  0  0  0  0  0  0  0
  129.5360  126.2700   67.7820 C   0  0  0  0  0  0  0  0  0  0  0  0
  131.3300  125.9080   65.0430 C   0  0  0  0  0  0  0  0  0  0  0  0
  131.3850  125.4680   63.7230 C   0  0  0  0  0  0  0  0  0  0  0  0
  132.0920  123.3380   61.2960 C   0  0  0  0  0  0  0  0  0  0  0  0
  133.3560  123.2630   62.0340 C   0  0  0  0  0  0  0  0  0  0  0  0
  134.3540  123.2040   62.6180 N   0  0  0  0  0  0  0  0  0  0  0  0
  132.0040  122.9410   59.9430 C   0  0  0  0  0  0  0  0  0  0  0  0
  133.3900  122.3940   58.9690 S   0  0  0  0  0  0  0  0  0  0  0  0
  134.0010  123.8220   58.0120 C   0  0  0  0  0  0  0  0  0  0  0  0
  133.1410  124.2080   56.7990 C   0  0  0  0  0  0  0  0  0  0  0  0
  133.6280  124.2400   55.6670 O   0  0  0  0  0  0  0  0  0  0  0  0
  131.8540  124.4990   57.0920 N   0  0  0  0  0  0  0  0  0  0  0  0
  130.8540  124.8760   56.2030 C   0  0  0  0  0  0  0  0  0  0  0  0
  129.7540  125.6470   56.5760 C   0  0  0  0  0  0  0  0  0  0  0  0
  129.0140  125.7950   55.4250 C   0  0  0  0  0  0  0  0  0  0  0  0
  129.6380  125.1490   54.4110 O   0  0  0  0  0  0  0  0  0  0  0  0
  130.8030  124.5700   54.9160 N   0  0  0  0  0  0  0  0  0  0  0  0
  130.8260  122.9050   59.2740 N   0  0  0  0  0  0  0  0  0  0  0  0
  128.4310  122.7490   57.7570 C   0  0  0  0  0  0  0  0  0  0  0  0
  127.2660  122.6960   56.9970 C   0  0  0  0  0  0  0  0  0  0  0  0
  1  2  1  0
  2  3  1  0
  3  4  2  0
  4  5  1  0
  5  6  2  0
  6  7  1  0
  7  8  2  0
  8  9  1  0
  9 10  1  0
 10 11  2  0
 11 12  1  0
 12 13  2  0
 13 14  1  0
 14 15  1  0
 13 16  1  0
 16 17  2  0
  9 18  2  0
 18 19  1  0
 19 20  3  0
 18 21  1  0
 21 22  1  0
 22 23  1  0
 23 24  1  0
 24 25  2  0
 24 26  1  0
 26 27  1  0
 27 28  1  0
 28 29  2  0
 29 30  1  0
 30 31  1  0
 21 32  2  0
  6 33  1  0
 33 34  2  0
 34  3  1  0
 32  7  1  0
 17 10  1  0
 31 27  2  0
M  END
>  <Binding energies>  (2) 
[-8.7]

>  <Ligand effiencies>  (2) 
[-0.24857142857142855]

>  <Interactions>  (2) 
["V-B:TYR:539:CE2:9844, V-B:MET:535:CE:9803, V-B:PRO:540:CD:9855, V-B:PRO:540:CA:9851, V-B:TYR:539:CD2:9842, V-B:PRO:540:N:9852, V-B:PRO:540:CB:9853, V-B:TYR:539:C:9835, V-B:TYR:539:CZ:9845, V-A:HIS:456:CE1:4064, V-A:ASP:366:CG:3208, H-A:GLY:454:N:4045, V-B:GLU:543:CD:9876, V-B:GLU:543:CG:9875, H-A:HIS:456:NE2:4065, V-B:GLU:543:CB:9874, V-A:ASP:366:CB:3207, H-A:TYR:531:OH:4790, V-A:TYR:484:CZ:4342, V-A:ILE:369:CD1:3234, H-A:LYS:534:NZ:4818, V-B:LEU:363:CD1:8156, V-A:TYR:531:CE1:4787, V-A:TYR:531:CZ:4789, V-B:ILE:538:CG2:9831, V-A:ASP:366:C:3203, V-A:TYR:484:CE1:4340, V-A:ILE:369:CB:3231, H-B:TYR:539:OH:9846, V-A:ASP:366:CA:3205, H-A:ASN:370:N:3239, V-B:ILE:538:CA:9828, V-B:ILE:538:CB:9830"]

$$$$
1c_Ghoteimi_2023
     RDKit          3D

 34 37  0  0  0  0  0  0  0  0999 V2000
  124.1450  132.1600   61.7100 C   0  0  0  0  0  0  0  0  0  0  0  0
  124.4960  132.3400   63.0780 O   0  0  0  0  0  0  0  0  0  0  0  0
  125.2750  131.3880   63.7070 C   0  0  0  0  0  0  0  0  0  0  0  0
  124.6160  130.4990   64.5520 C   0  0  0  0  0  0  0  0  0  0  0  0
  125.3220  129.5090   65.2290 C   0  0  0  0  0  0  0  0  0  0  0  0
  126.7120  129.3780   65.0810 C   0  0  0  0  0  0  0  0  0  0  0  0
  127.4790  128.3150   65.8120 C   0  0  0  0  0  0  0  0  0  0  0  0
  128.5930  127.6720   65.2620 C   0  0  0  0  0  0  0  0  0  0  0  0
  129.2920  126.7040   65.9940 C   0  0  0  0  0  0  0  0  0  0  0  0
  130.5110  126.1080   65.3710 C   0  0  0  0  0  0  0  0  0  0  0  0
  131.7190  126.0610   66.0740 C   0  0  0  0  0  0  0  0  0  0  0  0
  132.8590  125.5250   65.4840 C   0  0  0  0  0  0  0  0  0  0  0  0
  132.8150  125.0290   64.1810 C   0  0  0  0  0  0  0  0  0  0  0  0
  133.9950  124.5150   63.6770 O   0  0  0  0  0  0  0  0  0  0  0  0
  134.0080  123.9660   62.3630 C   0  0  0  0  0  0  0  0  0  0  0  0
  131.6060  125.0800   63.4700 C   0  0  0  0  0  0  0  0  0  0  0  0
  130.4670  125.6170   64.0630 C   0  0  0  0  0  0  0  0  0  0  0  0
  128.8280  126.3730   67.2890 C   0  0  0  0  0  0  0  0  0  0  0  0
  129.4960  125.3440   68.0930 C   0  0  0  0  0  0  0  0  0  0  0  0
  130.0250  124.5330   68.7260 N   0  0  0  0  0  0  0  0  0  0  0  0
  127.7100  127.0720   67.7890 C   0  0  0  0  0  0  0  0  0  0  0  0
  127.1230  126.8810   69.4580 S   0  0  0  0  0  0  0  0  0  0  0  0
  128.3290  127.7830   70.4830 C   0  0  0  0  0  0  0  0  0  0  0  0
  128.9140  126.9060   71.5950 C   0  0  0  0  0  0  0  0  0  0  0  0
  129.1140  127.3900   72.7100 O   0  0  0  0  0  0  0  0  0  0  0  0
  129.1290  125.6160   71.2570 N   0  0  0  0  0  0  0  0  0  0  0  0
  129.5020  124.5880   72.1080 C   0  0  0  0  0  0  0  0  0  0  0  0
  129.1600  124.4170   73.3670 N   0  0  0  0  0  0  0  0  0  0  0  0
  129.6670  123.3030   73.8590 C   0  0  0  0  0  0  0  0  0  0  0  0
  130.4390  122.5410   72.9880 C   0  0  0  0  0  0  0  0  0  0  0  0
  130.5020  123.3360   71.4440 S   0  0  0  0  0  0  0  0  0  0  0  0
  127.0610  128.0210   67.0720 N   0  0  0  0  0  0  0  0  0  0  0  0
  127.3650  130.2740   64.2220 C   0  0  0  0  0  0  0  0  0  0  0  0
  126.6630  131.2670   63.5440 C   0  0  0  0  0  0  0  0  0  0  0  0
  1  2  1  0
  2  3  1  0
  3  4  2  0
  4  5  1  0
  5  6  2  0
  6  7  1  0
  7  8  2  0
  8  9  1  0
  9 10  1  0
 10 11  2  0
 11 12  1  0
 12 13  2  0
 13 14  1  0
 14 15  1  0
 13 16  1  0
 16 17  2  0
  9 18  2  0
 18 19  1  0
 19 20  3  0
 18 21  1  0
 21 22  1  0
 22 23  1  0
 23 24  1  0
 24 25  2  0
 24 26  1  0
 26 27  1  0
 27 28  2  0
 28 29  1  0
 29 30  2  0
 30 31  1  0
 21 32  2  0
  6 33  1  0
 33 34  2  0
 34  3  1  0
 32  7  1  0
 17 10  1  0
 31 27  1  0
M  END
>  <Binding energies>  (3) 
[-8.39]

>  <Ligand effiencies>  (3) 
[-0.23971428571428574]

>  <Interactions>  (3) 
["V-B:GLU:543:C:9870, V-A:HIS:456:CE1:4064, V-A:ASP:366:CG:3208, H-A:TYR:484:OH:4343, H-A:GLY:454:N:4045, V-B:GLU:543:CD:9876, V-B:GLU:543:CG:9875, V-A:ARG:545:CZ:4921, H-A:HIS:456:NE2:4065, V-B:GLU:543:CB:9874, V-A:HIS:456:CD2:4063, V-B:HIS:456:CE1:9037, V-A:ILE:369:CD1:3234, V-B:ARG:545:CZ:9894, V-B:HIS:456:CD2:9035, H-B:LYS:547:NZ:9919, V-B:GLU:543:CA:9872, V-B:LYS:547:CE:9918, V-A:HIS:456:CG:4061, H-B:GLU:543:O:9871, V-B:ILE:369:CD1:8206"]

$$$$
1d_Ghoteimi_2023
     RDKit          3D

 30 32  0  0  0  0  0  0  0  0999 V2000
  133.6320  124.9530   62.9990 C   0  0  0  0  0  0  0  0  0  0  0  0
  134.3060  124.6470   64.2100 O   0  0  0  0  0  0  0  0  0  0  0  0
  133.8810  125.1670   65.3800 C   0  0  0  0  0  0  0  0  0  0  0  0
  134.4170  125.0210   66.4800 O   0  0  0  0  0  0  0  0  0  0  0  0
  132.6070  125.9930   65.2200 C   0  0  0  0  0  0  0  0  0  0  0  0
  131.3720  125.3260   66.3740 S   0  0  0  0  0  0  0  0  0  0  0  0
  130.2170  126.6350   66.7160 C   0  0  0  0  0  0  0  0  0  0  0  0
  130.1160  126.9440   68.0310 N   0  0  0  0  0  0  0  0  0  0  0  0
  129.2670  127.9240   68.4330 C   0  0  0  0  0  0  0  0  0  0  0  0
  129.2190  128.2080   69.9070 C   0  0  0  0  0  0  0  0  0  0  0  0
  128.0540  127.9770   70.6560 C   0  0  0  0  0  0  0  0  0  0  0  0
  128.0100  128.2470   72.0200 C   0  0  0  0  0  0  0  0  0  0  0  0
  129.1250  128.7580   72.6790 C   0  0  0  0  0  0  0  0  0  0  0  0
  128.9890  128.9990   74.0320 O   0  0  0  0  0  0  0  0  0  0  0  0
  128.0270  129.9510   74.4730 C   0  0  0  0  0  0  0  0  0  0  0  0
  130.2960  128.9940   71.9450 C   0  0  0  0  0  0  0  0  0  0  0  0
  130.3370  128.7220   70.5800 C   0  0  0  0  0  0  0  0  0  0  0  0
  128.4990  128.6290   67.4990 C   0  0  0  0  0  0  0  0  0  0  0  0
  128.5730  128.3210   66.1350 C   0  0  0  0  0  0  0  0  0  0  0  0
  127.7190  129.1080   65.1940 C   0  0  0  0  0  0  0  0  0  0  0  0
  126.3950  128.7260   64.9570 C   0  0  0  0  0  0  0  0  0  0  0  0
  125.5950  129.4550   64.0820 C   0  0  0  0  0  0  0  0  0  0  0  0
  126.0980  130.5810   63.4310 C   0  0  0  0  0  0  0  0  0  0  0  0
  125.2350  131.2380   62.5760 O   0  0  0  0  0  0  0  0  0  0  0  0
  123.9840  130.6380   62.2540 C   0  0  0  0  0  0  0  0  0  0  0  0
  127.4220  130.9760   63.6750 C   0  0  0  0  0  0  0  0  0  0  0  0
  128.2200  130.2460   64.5520 C   0  0  0  0  0  0  0  0  0  0  0  0
  129.4410  127.2790   65.7260 C   0  0  0  0  0  0  0  0  0  0  0  0
  129.4800  126.8440   64.3260 C   0  0  0  0  0  0  0  0  0  0  0  0
  129.5110  126.5020   63.2210 N   0  0  0  0  0  0  0  0  0  0  0  0
  1  2  1  0
  2  3  1  0
  3  4  2  0
  3  5  1  0
  5  6  1  0
  6  7  1  0
  7  8  2  0
  8  9  1  0
  9 10  1  0
 10 11  2  0
 11 12  1  0
 12 13  2  0
 13 14  1  0
 14 15  1  0
 13 16  1  0
 16 17  2  0
  9 18  2  0
 18 19  1  0
 19 20  1  0
 20 21  2  0
 21 22  1  0
 22 23  2  0
 23 24  1  0
 24 25  1  0
 23 26  1  0
 26 27  2  0
 19 28  2  0
 28 29  1  0
 29 30  3  0
 28  7  1  0
 17 10  1  0
 27 20  1  0
M  END
>  <Binding energies>  (4) 
[-7.47]

>  <Ligand effiencies>  (4) 
[-0.249]

>  <Interactions>  (4) 
["V-A:HIS:456:CE1:4064, V-A:ASP:366:CG:3208, H-A:ARG:545:NE:4919, H-A:TYR:484:OH:4343, H-A:GLY:454:N:4045, V-B:GLU:543:CD:9876, V-A:ARG:545:CZ:4921, H-A:HIS:456:NE2:4065, V-A:GLU:543:CD:4903, V-A:ARG:545:CD:4918, V-B:HIS:456:CE1:9037, V-A:GLU:543:CG:4902, V-B:ARG:545:CZ:9894, V-A:GLU:543:C:4897, V-B:HIS:456:CD2:9035, H-B:LYS:547:NZ:9919, H-A:LYS:547:NZ:4946, H-A:ARG:545:NH1:4922, V-A:GLY:544:C:4907"]

$$$$
1j_Grossjean_2025
     RDKit          3D

 20 21  0  0  0  0  0  0  0  0999 V2000
  129.5180  121.9260   60.9660 C   0  0  0  0  0  0  0  0  0  0  0  0
  128.3810  122.5090   60.1470 C   0  0  0  0  0  0  0  0  0  0  0  0
  127.2650  123.0810   60.7530 C   0  0  0  0  0  0  0  0  0  0  0  0
  126.2540  123.6150   59.9480 C   0  0  0  0  0  0  0  0  0  0  0  0
  125.0470  124.2530   60.6360 C   0  0  0  0  0  0  0  0  0  0  0  0
  126.3850  123.5540   58.5420 C   0  0  0  0  0  0  0  0  0  0  0  0
  125.3640  124.1550   57.6800 C   0  0  0  0  0  0  0  0  0  0  0  0
  124.5560  124.6310   57.0020 N   0  0  0  0  0  0  0  0  0  0  0  0
  127.5400  122.9310   58.0130 C   0  0  0  0  0  0  0  0  0  0  0  0
  127.8680  122.7640   56.2720 S   0  0  0  0  0  0  0  0  0  0  0  0
  128.6820  124.2900   55.7140 C   0  0  0  0  0  0  0  0  0  0  0  0
  130.1880  124.2680   55.9820 C   0  0  0  0  0  0  0  0  0  0  0  0
  130.9650  124.6160   55.0920 O   0  0  0  0  0  0  0  0  0  0  0  0
  130.5540  123.8570   57.2160 N   0  0  0  0  0  0  0  0  0  0  0  0
  131.8500  123.7430   57.7000 C   0  0  0  0  0  0  0  0  0  0  0  0
  132.9570  123.5710   57.0100 N   0  0  0  0  0  0  0  0  0  0  0  0
  134.0120  123.5050   57.7980 C   0  0  0  0  0  0  0  0  0  0  0  0
  133.7700  123.6270   59.1630 C   0  0  0  0  0  0  0  0  0  0  0  0
  132.0640  123.8400   59.4180 S   0  0  0  0  0  0  0  0  0  0  0  0
  128.5260  122.4360   58.8030 N   0  0  0  0  0  0  0  0  0  0  0  0
  1  2  1  0
  2  3  2  0
  3  4  1  0
  4  5  1  0
  4  6  2  0
  6  7  1  0
  7  8  3  0
  6  9  1  0
  9 10  1  0
 10 11  1  0
 11 12  1  0
 12 13  2  0
 12 14  1  0
 14 15  1  0
 15 16  2  0
 16 17  1  0
 17 18  2  0
 18 19  1  0
  9 20  2  0
 20  2  1  0
 19 15  1  0
M  END
>  <Binding energies>  (5) 
[-6.29]

>  <Ligand effiencies>  (5) 
[-0.2995238095238095]

>  <Interactions>  (5) 
["H-B:TYR:531:OH:9763, V-B:ALA:541:CB:9860, V-B:TYR:539:CE2:9844, V-B:MET:535:CE:9803, V-B:PRO:540:CA:9851, V-B:PRO:540:N:9852, V-B:PRO:540:CB:9853, V-B:PRO:540:C:9849, V-B:TYR:539:C:9835, V-B:TYR:539:CZ:9845, V-A:ASP:366:CG:3208, V-A:ASP:366:CB:3207, H-A:TYR:531:OH:4790, V-A:ILE:369:CG2:3232, V-A:ILE:369:CD1:3234, H-A:LYS:534:NZ:4818, V-A:ASP:366:C:3203, V-B:ASP:366:CG:8180, V-A:ILE:369:CB:3231, H-B:TYR:539:OH:9846, V-A:ASP:366:CA:3205"]

$$$$
1o_Grossjean_2025
     RDKit          3D

 26 27  0  0  0  0  0  0  0  0999 V2000
  124.7590  123.8950   59.4960 C   0  0  0  0  0  0  0  0  0  0  0  0
  124.3100  123.4650   58.2190 O   0  0  0  0  0  0  0  0  0  0  0  0
  124.8920  123.9270   57.0820 C   0  0  0  0  0  0  0  0  0  0  0  0
  124.2550  124.2570   56.0770 O   0  0  0  0  0  0  0  0  0  0  0  0
  126.3900  123.9990   57.1680 C   0  0  0  0  0  0  0  0  0  0  0  0
  127.1960  122.8560   57.0680 C   0  0  0  0  0  0  0  0  0  0  0  0
  128.5820  122.9590   57.1500 C   0  0  0  0  0  0  0  0  0  0  0  0
  129.1900  124.2000   57.3390 C   0  0  0  0  0  0  0  0  0  0  0  0
  130.5970  124.1900   57.3980 N   0  0  0  0  0  0  0  0  0  0  0  0
  131.5070  124.3680   56.4140 C   0  0  0  0  0  0  0  0  0  0  0  0
  131.2410  124.6270   55.2410 O   0  0  0  0  0  0  0  0  0  0  0  0
  132.9770  124.2590   56.8460 C   0  0  0  0  0  0  0  0  0  0  0  0
  133.2570  123.0510   57.7620 C   0  0  0  0  0  0  0  0  0  0  0  0
  132.9500  123.3750   59.5240 S   0  0  0  0  0  0  0  0  0  0  0  0
  131.5280  122.4300   60.0320 C   0  0  0  0  0  0  0  0  0  0  0  0
  130.3900  123.1650   60.1070 N   0  0  0  0  0  0  0  0  0  0  0  0
  129.2410  122.5510   60.4750 C   0  0  0  0  0  0  0  0  0  0  0  0
  128.0080  123.4330   60.5220 C   0  0  0  0  0  0  0  0  0  0  0  0
  129.1820  121.1960   60.7940 C   0  0  0  0  0  0  0  0  0  0  0  0
  130.3540  120.4340   60.7450 C   0  0  0  0  0  0  0  0  0  0  0  0
  130.2660  118.9540   61.1120 C   0  0  0  0  0  0  0  0  0  0  0  0
  131.5670  121.0550   60.3670 C   0  0  0  0  0  0  0  0  0  0  0  0
  132.8140  120.2870   60.3670 C   0  0  0  0  0  0  0  0  0  0  0  0
  133.7980  119.6780   60.3670 N   0  0  0  0  0  0  0  0  0  0  0  0
  128.3900  125.3490   57.4350 C   0  0  0  0  0  0  0  0  0  0  0  0
  127.0050  125.2450   57.3510 C   0  0  0  0  0  0  0  0  0  0  0  0
  1  2  1  0
  2  3  1  0
  3  4  2  0
  3  5  1  0
  5  6  2  0
  6  7  1  0
  7  8  2  0
  8  9  1  0
  9 10  1  0
 10 11  2  0
 10 12  1  0
 12 13  1  0
 13 14  1  0
 14 15  1  0
 15 16  2  0
 16 17  1  0
 17 18  1  0
 17 19  2  0
 19 20  1  0
 20 21  1  0
 20 22  2  0
 22 23  1  0
 23 24  3  0
  8 25  1  0
 25 26  2  0
 26  5  1  0
 22 15  1  0
M  END
>  <Binding energies>  (6) 
[-7.23]

>  <Ligand effiencies>  (6) 
[-0.2677777777777778]

>  <Interactions>  (6) 
["H-B:TYR:531:OH:9763, V-B:ALA:541:CB:9860, V-B:TYR:539:CE2:9844, V-B:MET:535:CE:9803, V-B:PRO:540:CA:9851, V-A:TRP:381:CH2:3367, V-B:TYR:539:CD2:9842, V-B:PRO:540:N:9852, V-B:PRO:540:CB:9853, V-B:PRO:540:C:9849, V-B:TYR:539:C:9835, V-B:TYR:539:CZ:9845, V-A:ASP:366:CB:3207, H-A:TYR:531:OH:4790, V-A:ILE:369:CG2:3232, V-A:LEU:475:CD2:4254, H-A:LYS:534:NZ:4818, V-B:LEU:363:CD1:8156, V-A:TYR:531:CE1:4787, V-A:TYR:531:CZ:4789, V-A:TRP:381:CZ2:3365, V-A:PRO:482:CB:4321, V-A:ILE:369:CB:3231, H-B:TYR:539:OH:9846"]

$$$$
1p_Grossjean_2025
     RDKit          3D

 21 22  0  0  0  0  0  0  0  0999 V2000
  124.6150  123.7660   61.9320 C   0  0  0  0  0  0  0  0  0  0  0  0
  125.4920  123.5410   60.7160 C   0  0  0  0  0  0  0  0  0  0  0  0
  125.0770  123.9170   59.4390 C   0  0  0  0  0  0  0  0  0  0  0  0
  125.9220  123.6740   58.3510 C   0  0  0  0  0  0  0  0  0  0  0  0
  125.4410  124.0800   56.9590 C   0  0  0  0  0  0  0  0  0  0  0  0
  127.1760  123.0610   58.5730 C   0  0  0  0  0  0  0  0  0  0  0  0
  128.0570  122.7520   57.4460 C   0  0  0  0  0  0  0  0  0  0  0  0
  128.7540  122.5080   56.5530 N   0  0  0  0  0  0  0  0  0  0  0  0
  127.5240  122.7340   59.9050 C   0  0  0  0  0  0  0  0  0  0  0  0
  129.0640  121.9710   60.3610 S   0  0  0  0  0  0  0  0  0  0  0  0
  130.1160  123.2800   61.0540 C   0  0  0  0  0  0  0  0  0  0  0  0
  129.6670  123.7680   62.4440 C   0  0  0  0  0  0  0  0  0  0  0  0
  130.7760  123.7050   63.5050 C   0  0  0  0  0  0  0  0  0  0  0  0
  130.8180  122.7510   64.2840 O   0  0  0  0  0  0  0  0  0  0  0  0
  131.6580  124.7300   63.4900 N   0  0  0  0  0  0  0  0  0  0  0  0
  132.7460  124.9140   64.3330 C   0  0  0  0  0  0  0  0  0  0  0  0
  132.6280  125.4040   65.6340 C   0  0  0  0  0  0  0  0  0  0  0  0
  133.9140  125.4350   66.1230 C   0  0  0  0  0  0  0  0  0  0  0  0
  134.7620  124.9910   65.1660 O   0  0  0  0  0  0  0  0  0  0  0  0
  134.0110  124.6640   64.0360 N   0  0  0  0  0  0  0  0  0  0  0  0
  126.6890  122.9560   60.9520 N   0  0  0  0  0  0  0  0  0  0  0  0
  1  2  1  0
  2  3  2  0
  3  4  1  0
  4  5  1  0
  4  6  2  0
  6  7  1  0
  7  8  3  0
  6  9  1  0
  9 10  1  0
 10 11  1  0
 11 12  1  0
 12 13  1  0
 13 14  2  0
 13 15  1  0
 15 16  1  0
 16 17  1  0
 17 18  2  0
 18 19  1  0
 19 20  1  0
  9 21  2  0
 21  2  1  0
 20 16  2  0
M  END
>  <Binding energies>  (7) 
[-7.68]

>  <Ligand effiencies>  (7) 
[-0.34909090909090906]

>  <Interactions>  (7) 
["V-B:MET:535:CE:9803, V-B:PRO:540:CA:9851, V-B:PRO:540:N:9852, V-B:PRO:540:CB:9853, V-B:PRO:540:C:9849, V-B:TYR:539:C:9835, H-A:ARG:545:NE:4919, H-A:TYR:484:OH:4343, H-A:GLY:454:N:4045, V-B:GLU:543:CD:9876, V-A:ARG:545:CZ:4921, V-B:ASN:362:CB:8143, H-B:ALA:541:N:9859, V-A:ARG:545:CD:4918, V-A:ARG:545:CG:4917, V-A:HIS:456:CD2:4063, H-A:ARG:545:NH1:4922"]

$$$$
2a_Ghoteimi_2023
     RDKit          3D

 48 53  0  0  0  0  0  0  0  0999 V2000
  129.1070  132.1530   54.3350 C   0  0  0  0  0  0  0  0  0  0  0  0
  130.4730  132.8450   54.3620 C   0  0  0  0  0  0  0  0  0  0  0  0
  130.6910  133.4080   55.6490 O   0  0  0  0  0  0  0  0  0  0  0  0
  131.2380  132.6750   56.6520 C   0  0  0  0  0  0  0  0  0  0  0  0
  132.4510  132.6310   56.8790 O   0  0  0  0  0  0  0  0  0  0  0  0
  130.2190  131.9270   57.4640 C   0  0  0  0  0  0  0  0  0  0  0  0
  130.3070  130.5430   57.6740 C   0  0  0  0  0  0  0  0  0  0  0  0
  129.3470  129.8810   58.4330 C   0  0  0  0  0  0  0  0  0  0  0  0
  128.2830  130.5850   58.9990 C   0  0  0  0  0  0  0  0  0  0  0  0
  127.3680  129.8150   59.7430 N   0  0  0  0  0  0  0  0  0  0  0  0
  126.0540  129.5850   59.5270 C   0  0  0  0  0  0  0  0  0  0  0  0
  125.3890  130.0770   58.6150 O   0  0  0  0  0  0  0  0  0  0  0  0
  125.3770  128.6630   60.5490 C   0  0  0  0  0  0  0  0  0  0  0  0
  125.2940  129.3410   62.2380 S   0  0  0  0  0  0  0  0  0  0  0  0
  126.7140  128.6910   63.0870 C   0  0  0  0  0  0  0  0  0  0  0  0
  127.6090  128.0840   62.2730 N   0  0  0  0  0  0  0  0  0  0  0  0
  128.7320  127.5390   62.8050 C   0  0  0  0  0  0  0  0  0  0  0  0
  129.6690  126.8770   61.8470 C   0  0  0  0  0  0  0  0  0  0  0  0
  129.8170  127.3450   60.5360 C   0  0  0  0  0  0  0  0  0  0  0  0
  130.6830  126.7180   59.6450 C   0  0  0  0  0  0  0  0  0  0  0  0
  131.4400  125.6030   60.0330 C   0  0  0  0  0  0  0  0  0  0  0  0
  132.2840  124.9650   59.1180 N   0  0  0  0  0  0  0  0  0  0  0  0
  131.8780  124.7550   57.7130 C   0  0  0  0  0  0  0  0  0  0  0  0
  133.0450  124.3750   56.7780 C   0  0  0  0  0  0  0  0  0  0  0  0
  133.7260  123.2390   57.2860 O   0  0  0  0  0  0  0  0  0  0  0  0
  134.2670  123.4920   58.5720 C   0  0  0  0  0  0  0  0  0  0  0  0
  133.1390  123.8450   59.5640 C   0  0  0  0  0  0  0  0  0  0  0  0
  131.2790  125.1310   61.3460 C   0  0  0  0  0  0  0  0  0  0  0  0
  130.4150  125.7600   62.2370 C   0  0  0  0  0  0  0  0  0  0  0  0
  128.9870  127.6060   64.1770 C   0  0  0  0  0  0  0  0  0  0  0  0
  128.0750  128.2290   65.0400 C   0  0  0  0  0  0  0  0  0  0  0  0
  128.4070  128.2590   66.4960 C   0  0  0  0  0  0  0  0  0  0  0  0
  128.7960  129.4550   67.1040 C   0  0  0  0  0  0  0  0  0  0  0  0
  129.1270  129.4890   68.4550 C   0  0  0  0  0  0  0  0  0  0  0  0
  129.0760  128.3280   69.2410 C   0  0  0  0  0  0  0  0  0  0  0  0
  129.4210  128.3370   70.5950 N   0  0  0  0  0  0  0  0  0  0  0  0
  129.1930  127.1250   71.4080 C   0  0  0  0  0  0  0  0  0  0  0  0
  129.9620  127.1350   72.7460 C   0  0  0  0  0  0  0  0  0  0  0  0
  129.6410  128.3040   73.4830 O   0  0  0  0  0  0  0  0  0  0  0  0
  129.9840  129.4840   72.7730 C   0  0  0  0  0  0  0  0  0  0  0  0
  129.2200  129.5350   71.4340 C   0  0  0  0  0  0  0  0  0  0  0  0
  128.6960  127.1290   68.6210 C   0  0  0  0  0  0  0  0  0  0  0  0
  128.3670  127.0950   67.2690 C   0  0  0  0  0  0  0  0  0  0  0  0
  126.9030  128.7970   64.4830 C   0  0  0  0  0  0  0  0  0  0  0  0
  125.9390  129.5110   65.3270 C   0  0  0  0  0  0  0  0  0  0  0  0
  125.1790  130.0730   65.9950 N   0  0  0  0  0  0  0  0  0  0  0  0
  128.1830  131.9680   58.7860 C   0  0  0  0  0  0  0  0  0  0  0  0
  129.1460  132.6290   58.0280 C   0  0  0  0  0  0  0  0  0  0  0  0
  1  2  1  0
  2  3  1  0
  3  4  1  0
  4  5  2  0
  4  6  1  0
  6  7  2  0
  7  8  1  0
  8  9  2  0
  9 10  1  0
 10 11  1  0
 11 12  2  0
 11 13  1  0
 13 14  1  0
 14 15  1  0
 15 16  2  0
 16 17  1  0
 17 18  1  0
 18 19  2  0
 19 20  1  0
 20 21  2  0
 21 22  1  0
 22 23  1  0
 23 24  1  0
 24 25  1  0
 25 26  1  0
 26 27  1  0
 21 28  1  0
 28 29  2  0
 17 30  2  0
 30 31  1  0
 31 32  1  0
 32 33  2  0
 33 34  1  0
 34 35  2  0
 35 36  1  0
 36 37  1  0
 37 38  1  0
 38 39  1  0
 39 40  1  0
 40 41  1  0
 35 42  1  0
 42 43  2  0
 31 44  2  0
 44 45  1  0
 45 46  3  0
  9 47  1  0
 47 48  2  0
 48  6  1  0
 44 15  1  0
 29 18  1  0
 43 32  1  0
 27 22  1  0
 41 36  1  0
M  END
>  <Binding energies>  (8) 
[-9.74]

>  <Ligand effiencies>  (8) 
[-0.19877551020408163]

>  <Interactions>  (8) 
["V-A:HIS:456:CE1:4064, V-A:ASP:366:CG:3208, V-B:GLU:543:CD:9876, V-B:GLU:543:CB:9874, V-A:GLU:543:CD:4903, V-A:TYR:539:CZ:4872, V-A:PRO:540:N:4879, V-A:TYR:539:CE1:4870, V-A:TYR:539:C:4862, V-A:TYR:539:CD1:4868, V-A:ASP:366:CB:3207, V-A:PRO:540:CG:4881, V-A:PRO:540:CA:4878, V-A:PRO:540:CD:4882, V-A:ILE:538:CA:4855, V-A:PRO:540:CB:4880, V-A:TYR:539:CE2:4871, V-A:GLU:543:CB:4901, V-B:HIS:456:CE1:9037, V-A:ILE:369:CG2:3232, V-A:ILE:369:CD1:3234, H-A:TYR:539:N:4865, V-A:TYR:531:CE1:4787, V-A:TYR:531:CZ:4789, H-B:TYR:484:OH:9315, V-A:GLU:543:CG:4902, V-A:ILE:538:CD1:4860, V-A:GLU:543:C:4897, V-A:GLU:543:CA:4899, V-B:HIS:456:CD2:9035, V-A:LYS:547:CE:4945, H-B:LYS:547:NZ:9919, H-A:LYS:547:NZ:4946, H-B:ARG:545:NH2:9896, V-A:ASP:366:C:3203, V-B:ASP:366:CG:8180, V-B:ASP:366:CB:8179, H-A:TYR:539:OH:4873, V-A:ILE:369:CB:3231, H-B:TYR:539:OH:9846, V-A:ASP:366:CA:3205, V-A:ILE:369:CG1:3233"]

$$$$
2aa_Ghoteimi_2023
     RDKit          3D

 48 53  0  0  0  0  0  0  0  0999 V2000
  131.1260  132.3550   54.3300 C   0  0  0  0  0  0  0  0  0  0  0  0
  129.7110  132.7870   54.7270 C   0  0  0  0  0  0  0  0  0  0  0  0
  129.7490  133.4050   56.0070 O   0  0  0  0  0  0  0  0  0  0  0  0
  130.0970  132.7010   57.1160 C   0  0  0  0  0  0  0  0  0  0  0  0
  131.2430  132.2930   57.3310 O   0  0  0  0  0  0  0  0  0  0  0  0
  128.9520  132.4830   58.0630 C   0  0  0  0  0  0  0  0  0  0  0  0
  128.7950  133.2530   59.2250 C   0  0  0  0  0  0  0  0  0  0  0  0
  127.7210  133.0290   60.0810 C   0  0  0  0  0  0  0  0  0  0  0  0
  126.7890  132.0280   59.8000 C   0  0  0  0  0  0  0  0  0  0  0  0
  125.7410  131.8900   60.7310 N   0  0  0  0  0  0  0  0  0  0  0  0
  124.5120  132.4510   60.7400 C   0  0  0  0  0  0  0  0  0  0  0  0
  124.0690  133.2000   59.8670 O   0  0  0  0  0  0  0  0  0  0  0  0
  123.6440  132.0670   61.9450 C   0  0  0  0  0  0  0  0  0  0  0  0
  123.5470  130.6420   62.0340 O   0  0  0  0  0  0  0  0  0  0  0  0
  124.6810  129.8790   62.2790 C   0  0  0  0  0  0  0  0  0  0  0  0
  125.3350  129.3430   61.2100 N   0  0  0  0  0  0  0  0  0  0  0  0
  126.4490  128.5960   61.4140 C   0  0  0  0  0  0  0  0  0  0  0  0
  127.1110  128.0360   60.1950 C   0  0  0  0  0  0  0  0  0  0  0  0
  126.4800  128.0960   58.9480 C   0  0  0  0  0  0  0  0  0  0  0  0
  127.0940  127.5820   57.8090 C   0  0  0  0  0  0  0  0  0  0  0  0
  128.3710  127.0010   57.8720 C   0  0  0  0  0  0  0  0  0  0  0  0
  128.9970  126.4680   56.7400 N   0  0  0  0  0  0  0  0  0  0  0  0
  129.7370  125.1910   56.7980 C   0  0  0  0  0  0  0  0  0  0  0  0
  130.6460  124.9410   55.5760 C   0  0  0  0  0  0  0  0  0  0  0  0
  129.8890  125.0350   54.3810 O   0  0  0  0  0  0  0  0  0  0  0  0
  129.3070  126.3210   54.2330 C   0  0  0  0  0  0  0  0  0  0  0  0
  128.3580  126.6110   55.4150 C   0  0  0  0  0  0  0  0  0  0  0  0
  128.9900  126.9240   59.1280 C   0  0  0  0  0  0  0  0  0  0  0  0
  128.3740  127.4360   60.2670 C   0  0  0  0  0  0  0  0  0  0  0  0
  126.9310  128.3540   62.7040 C   0  0  0  0  0  0  0  0  0  0  0  0
  126.2710  128.8840   63.8200 C   0  0  0  0  0  0  0  0  0  0  0  0
  126.8180  128.5680   65.1750 C   0  0  0  0  0  0  0  0  0  0  0  0
  126.1830  127.6280   65.9900 C   0  0  0  0  0  0  0  0  0  0  0  0
  126.6750  127.3440   67.2610 C   0  0  0  0  0  0  0  0  0  0  0  0
  127.8100  128.0040   67.7590 C   0  0  0  0  0  0  0  0  0  0  0  0
  128.3240  127.7320   69.0300 N   0  0  0  0  0  0  0  0  0  0  0  0
  127.5180  127.0400   70.0540 C   0  0  0  0  0  0  0  0  0  0  0  0
  128.3520  126.5180   71.2430 C   0  0  0  0  0  0  0  0  0  0  0  0
  129.0940  127.5830   71.8190 O   0  0  0  0  0  0  0  0  0  0  0  0
  129.9850  128.1660   70.8800 C   0  0  0  0  0  0  0  0  0  0  0  0
  129.1950  128.7310   69.6820 C   0  0  0  0  0  0  0  0  0  0  0  0
  128.4440  128.9400   66.9300 C   0  0  0  0  0  0  0  0  0  0  0  0
  127.9520  129.2230   65.6600 C   0  0  0  0  0  0  0  0  0  0  0  0
  125.1230  129.6800   63.5990 C   0  0  0  0  0  0  0  0  0  0  0  0
  124.3990  130.3160   64.7010 C   0  0  0  0  0  0  0  0  0  0  0  0
  123.8270  130.8190   65.5730 N   0  0  0  0  0  0  0  0  0  0  0  0
  126.9350  131.2590   58.6370 C   0  0  0  0  0  0  0  0  0  0  0  0
  128.0080  131.4870   57.7800 C   0  0  0  0  0  0  0  0  0  0  0  0
  1  2  1  0
  2  3  1  0
  3  4  1  0
  4  5  2  0
  4  6  1  0
  6  7  2  0
  7  8  1  0
  8  9  2  0
  9 10  1  0
 10 11  1  0
 11 12  2  0
 11 13  1  0
 13 14  1  0
 14 15  1  0
 15 16  2  0
 16 17  1  0
 17 18  1  0
 18 19  2  0
 19 20  1  0
 20 21  2  0
 21 22  1  0
 22 23  1  0
 23 24  1  0
 24 25  1  0
 25 26  1  0
 26 27  1  0
 21 28  1  0
 28 29  2  0
 17 30  2  0
 30 31  1  0
 31 32  1  0
 32 33  2  0
 33 34  1  0
 34 35  2  0
 35 36  1  0
 36 37  1  0
 37 38  1  0
 38 39  1  0
 39 40  1  0
 40 41  1  0
 35 42  1  0
 42 43  2  0
 31 44  2  0
 44 45  1  0
 45 46  3  0
  9 47  1  0
 47 48  2  0
 48  6  1  0
 44 15  1  0
 29 18  1  0
 43 32  1  0
 27 22  1  0
 41 36  1  0
M  END
>  <Binding energies>  (9) 
[-10.36]

>  <Ligand effiencies>  (9) 
[-0.2114285714285714]

>  <Interactions>  (9) 
["V-B:TYR:539:CZ:9845, V-B:GLU:543:C:9870, V-A:HIS:456:CE1:4064, V-B:GLU:543:CD:9876, V-B:GLU:543:CB:9874, V-A:TYR:539:CZ:4872, V-A:PRO:540:N:4879, V-A:TYR:539:CE1:4870, V-A:TYR:539:C:4862, V-A:TYR:539:CD1:4868, V-A:PRO:540:CA:4878, V-A:TYR:539:CG:4867, V-A:PRO:540:CD:4882, V-A:ILE:538:CA:4855, V-A:TYR:539:CE2:4871, V-A:TYR:539:CD2:4869, V-B:ARG:545:CG:9890, V-B:HIS:456:CE1:9037, H-A:TYR:539:N:4865, V-A:LYS:534:CD:4816, H-A:LYS:534:NZ:4818, V-A:ILE:538:CG2:4858, V-A:TYR:531:CE1:4787, V-A:TYR:531:CZ:4789, H-B:TYR:484:OH:9315, V-A:GLU:543:CG:4902, V-B:ARG:545:CZ:9894, V-A:ILE:538:CD1:4860, H-B:GLY:454:N:9017, V-B:HIS:456:CD2:9035, H-B:LYS:547:NZ:9919, V-B:ASP:366:CG:8180, H-A:TYR:539:OH:4873, V-B:GLY:544:C:9880, V-A:LYS:534:CE:4817, V-B:ILE:369:CD1:8206"]

$$$$
2b_Ghoteimi_2023
     RDKit          3D

 42 47  0  0  0  0  0  0  0  0999 V2000
  130.6260  122.7450   64.5900 N   0  0  0  0  0  0  0  0  0  0  0  0
  130.6310  123.6400   63.8570 C   0  0  0  0  0  0  0  0  0  0  0  0
  130.6370  124.7770   62.9320 C   0  0  0  0  0  0  0  0  0  0  0  0
  130.3540  126.0860   63.3980 C   0  0  0  0  0  0  0  0  0  0  0  0
  130.0370  126.4100   64.8210 C   0  0  0  0  0  0  0  0  0  0  0  0
  130.9070  126.0210   65.8420 C   0  0  0  0  0  0  0  0  0  0  0  0
  130.6160  126.3200   67.1700 C   0  0  0  0  0  0  0  0  0  0  0  0
  129.4380  127.0010   67.5150 C   0  0  0  0  0  0  0  0  0  0  0  0
  129.1310  127.3230   68.8380 N   0  0  0  0  0  0  0  0  0  0  0  0
  129.8310  128.4520   69.4840 C   0  0  0  0  0  0  0  0  0  0  0  0
  129.6870  128.4610   71.0210 C   0  0  0  0  0  0  0  0  0  0  0  0
  128.3150  128.4350   71.3840 O   0  0  0  0  0  0  0  0  0  0  0  0
  127.6630  127.2760   70.8880 C   0  0  0  0  0  0  0  0  0  0  0  0
  127.7480  127.2440   69.3480 C   0  0  0  0  0  0  0  0  0  0  0  0
  128.5700  127.3840   66.4830 C   0  0  0  0  0  0  0  0  0  0  0  0
  128.8620  127.0890   65.1550 C   0  0  0  0  0  0  0  0  0  0  0  0
  130.3760  127.1410   62.4780 C   0  0  0  0  0  0  0  0  0  0  0  0
  130.7030  126.9060   61.1400 C   0  0  0  0  0  0  0  0  0  0  0  0
  130.7700  128.0020   60.1240 C   0  0  0  0  0  0  0  0  0  0  0  0
  130.2120  127.8320   58.8520 C   0  0  0  0  0  0  0  0  0  0  0  0
  130.2560  128.8540   57.9080 C   0  0  0  0  0  0  0  0  0  0  0  0
  130.8730  130.0820   58.1950 C   0  0  0  0  0  0  0  0  0  0  0  0
  130.8990  131.1290   57.2670 N   0  0  0  0  0  0  0  0  0  0  0  0
  129.7190  132.0050   57.1110 C   0  0  0  0  0  0  0  0  0  0  0  0
  129.7370  132.8410   55.8140 C   0  0  0  0  0  0  0  0  0  0  0  0
  130.9400  133.5890   55.7350 O   0  0  0  0  0  0  0  0  0  0  0  0
  132.0780  132.7430   55.7170 C   0  0  0  0  0  0  0  0  0  0  0  0
  132.1310  131.9000   57.0100 C   0  0  0  0  0  0  0  0  0  0  0  0
  131.4250  130.2510   59.4730 C   0  0  0  0  0  0  0  0  0  0  0  0
  131.3770  129.2290   60.4180 C   0  0  0  0  0  0  0  0  0  0  0  0
  130.9750  125.6530   60.6950 N   0  0  0  0  0  0  0  0  0  0  0  0
  130.9270  124.6110   61.5590 C   0  0  0  0  0  0  0  0  0  0  0  0
  131.3060  123.0440   60.8070 S   0  0  0  0  0  0  0  0  0  0  0  0
  130.8160  123.1410   59.0580 C   0  0  0  0  0  0  0  0  0  0  0  0
  129.3430  122.7880   58.8530 C   0  0  0  0  0  0  0  0  0  0  0  0
  128.6790  122.3850   59.8100 O   0  0  0  0  0  0  0  0  0  0  0  0
  128.8760  122.9470   57.5960 N   0  0  0  0  0  0  0  0  0  0  0  0
  127.5860  122.7130   57.1400 C   0  0  0  0  0  0  0  0  0  0  0  0
  126.4560  123.2720   57.7340 C   0  0  0  0  0  0  0  0  0  0  0  0
  125.3950  122.8010   56.9980 C   0  0  0  0  0  0  0  0  0  0  0  0
  125.8610  122.0000   56.0120 O   0  0  0  0  0  0  0  0  0  0  0  0
  127.2530  121.9520   56.1100 N   0  0  0  0  0  0  0  0  0  0  0  0
  1  2  3  0
  2  3  1  0
  3  4  2  0
  4  5  1  0
  5  6  2  0
  6  7  1  0
  7  8  2  0
  8  9  1  0
  9 10  1  0
 10 11  1  0
 11 12  1  0
 12 13  1  0
 13 14  1  0
  8 15  1  0
 15 16  2  0
  4 17  1  0
 17 18  2  0
 18 19  1  0
 19 20  2  0
 20 21  1  0
 21 22  2  0
 22 23  1  0
 23 24  1  0
 24 25  1  0
 25 26  1  0
 26 27  1  0
 27 28  1  0
 22 29  1  0
 29 30  2  0
 18 31  1  0
 31 32  2  0
 32 33  1  0
 33 34  1  0
 34 35  1  0
 35 36  2  0
 35 37  1  0
 37 38  1  0
 38 39  1  0
 39 40  2  0
 40 41  1  0
 41 42  1  0
 32  3  1  0
 42 38  2  0
 16  5  1  0
 30 19  1  0
 14  9  1  0
 28 23  1  0
M  END
>  <Binding energies>  (10) 
[-11.22]

>  <Ligand effiencies>  (10) 
[-0.2609302325581396]

>  <Interactions>  (10) 
["V-B:TYR:539:CE2:9844, V-B:MET:535:CE:9803, V-B:PRO:540:CD:9855, V-B:PRO:540:CA:9851, V-B:TYR:539:CD2:9842, V-B:PRO:540:N:9852, V-B:PRO:540:CB:9853, V-B:TYR:539:C:9835, V-B:TYR:539:CZ:9845, V-B:GLU:543:C:9870, V-A:HIS:456:CE1:4064, H-A:TYR:484:OH:4343, V-B:GLU:543:CD:9876, V-B:GLU:543:CG:9875, V-B:GLU:543:CB:9874, V-A:GLU:543:CD:4903, V-A:LEU:363:CD1:3184, V-A:TYR:539:CE1:4870, V-A:TYR:539:CD1:4868, V-A:PRO:540:CG:4881, V-A:PRO:540:CD:4882, V-A:PRO:540:CB:4880, V-B:HIS:456:CE1:9037, H-A:TYR:539:N:4865, V-A:ILE:538:CG2:4858, V-B:HIS:456:CD2:9035, H-B:LYS:547:NZ:9919, H-B:TYR:539:N:9838, H-B:TYR:539:OH:9846, V-B:GLY:544:C:9880"]

$$$$
2c_Ghoteimi_2023
     RDKit          3D

 42 47  0  0  0  0  0  0  0  0999 V2000
  130.3620  122.6370   64.5380 N   0  0  0  0  0  0  0  0  0  0  0  0
  130.4000  123.5350   63.8110 C   0  0  0  0  0  0  0  0  0  0  0  0
  130.4480  124.6790   62.8940 C   0  0  0  0  0  0  0  0  0  0  0  0
  130.2510  125.9970   63.3740 C   0  0  0  0  0  0  0  0  0  0  0  0
  129.9840  126.3300   64.8060 C   0  0  0  0  0  0  0  0  0  0  0  0
  130.8520  125.8840   65.8040 C   0  0  0  0  0  0  0  0  0  0  0  0
  130.6130  126.1940   67.1400 C   0  0  0  0  0  0  0  0  0  0  0  0
  129.4900  126.9470   67.5170 C   0  0  0  0  0  0  0  0  0  0  0  0
  129.2410  127.2870   68.8490 N   0  0  0  0  0  0  0  0  0  0  0  0
  130.0090  128.3850   69.4700 C   0  0  0  0  0  0  0  0  0  0  0  0
  129.9200  128.3950   71.0110 C   0  0  0  0  0  0  0  0  0  0  0  0
  128.5610  128.4330   71.4190 O   0  0  0  0  0  0  0  0  0  0  0  0
  127.8390  127.3060   70.9480 C   0  0  0  0  0  0  0  0  0  0  0  0
  127.8750  127.2660   69.4050 C   0  0  0  0  0  0  0  0  0  0  0  0
  128.6220  127.3870   66.5070 C   0  0  0  0  0  0  0  0  0  0  0  0
  128.8630  127.0790   65.1720 C   0  0  0  0  0  0  0  0  0  0  0  0
  130.3100  127.0560   62.4590 C   0  0  0  0  0  0  0  0  0  0  0  0
  130.5830  126.8110   61.1090 C   0  0  0  0  0  0  0  0  0  0  0  0
  130.6730  127.9070   60.0970 C   0  0  0  0  0  0  0  0  0  0  0  0
  130.0470  127.7830   58.8520 C   0  0  0  0  0  0  0  0  0  0  0  0
  130.1220  128.8030   57.9070 C   0  0  0  0  0  0  0  0  0  0  0  0
  130.8390  129.9820   58.1670 C   0  0  0  0  0  0  0  0  0  0  0  0
  130.9040  131.0260   57.2390 N   0  0  0  0  0  0  0  0  0  0  0  0
  129.8220  132.0310   57.1850 C   0  0  0  0  0  0  0  0  0  0  0  0
  129.8240  132.8740   55.8920 C   0  0  0  0  0  0  0  0  0  0  0  0
  131.0910  133.4870   55.7140 O   0  0  0  0  0  0  0  0  0  0  0  0
  132.1240  132.5210   55.6010 C   0  0  0  0  0  0  0  0  0  0  0  0
  132.1890  131.6620   56.8820 C   0  0  0  0  0  0  0  0  0  0  0  0
  131.4540  130.1070   59.4210 C   0  0  0  0  0  0  0  0  0  0  0  0
  131.3770  129.0870   60.3660 C   0  0  0  0  0  0  0  0  0  0  0  0
  130.7730  125.5470   60.6520 N   0  0  0  0  0  0  0  0  0  0  0  0
  130.6900  124.5040   61.5130 C   0  0  0  0  0  0  0  0  0  0  0  0
  130.9540  122.9230   60.7420 S   0  0  0  0  0  0  0  0  0  0  0  0
  129.5280  121.8720   61.1510 C   0  0  0  0  0  0  0  0  0  0  0  0
  128.2190  122.4390   60.5980 C   0  0  0  0  0  0  0  0  0  0  0  0
  127.3430  122.8100   61.3810 O   0  0  0  0  0  0  0  0  0  0  0  0
  128.1270  122.4850   59.2520 N   0  0  0  0  0  0  0  0  0  0  0  0
  127.0590  122.9680   58.5100 C   0  0  0  0  0  0  0  0  0  0  0  0
  126.5180  122.4390   57.4340 N   0  0  0  0  0  0  0  0  0  0  0  0
  125.5120  123.1650   56.9900 C   0  0  0  0  0  0  0  0  0  0  0  0
  125.2160  124.3160   57.7150 C   0  0  0  0  0  0  0  0  0  0  0  0
  126.3240  124.4440   59.0480 S   0  0  0  0  0  0  0  0  0  0  0  0
  1  2  3  0
  2  3  1  0
  3  4  2  0
  4  5  1  0
  5  6  2  0
  6  7  1  0
  7  8  2  0
  8  9  1  0
  9 10  1  0
 10 11  1  0
 11 12  1  0
 12 13  1  0
 13 14  1  0
  8 15  1  0
 15 16  2  0
  4 17  1  0
 17 18  2  0
 18 19  1  0
 19 20  2  0
 20 21  1  0
 21 22  2  0
 22 23  1  0
 23 24  1  0
 24 25  1  0
 25 26  1  0
 26 27  1  0
 27 28  1  0
 22 29  1  0
 29 30  2  0
 18 31  1  0
 31 32  2  0
 32 33  1  0
 33 34  1  0
 34 35  1  0
 35 36  2  0
 35 37  1  0
 37 38  1  0
 38 39  2  0
 39 40  1  0
 40 41  2  0
 41 42  1  0
 32  3  1  0
 42 38  1  0
 16  5  1  0
 30 19  1  0
 14  9  1  0
 28 23  1  0
M  END
>  <Binding energies>  (11) 
[-10.58]

>  <Ligand effiencies>  (11) 
[-0.24604651162790697]

>  <Interactions>  (11) 
["V-B:ALA:541:CB:9860, H-B:TYR:539:O:9836, V-B:MET:535:CE:9803, V-B:PRO:540:CA:9851, V-B:PRO:540:N:9852, V-B:PRO:540:CB:9853, V-B:PRO:540:C:9849, V-B:TYR:539:C:9835, V-A:HIS:456:CE1:4064, H-A:TYR:484:OH:4343, V-B:GLU:543:CD:9876, V-B:GLU:543:CG:9875, V-B:GLU:543:CB:9874, H-B:ALA:541:N:9859, V-A:LEU:363:CD1:3184, V-A:TYR:539:CE1:4870, V-A:TYR:539:CD1:4868, V-A:PRO:540:CD:4882, V-A:PRO:540:CB:4880, V-A:GLU:543:CB:4901, V-B:HIS:456:CE1:9037, H-A:TYR:539:N:4865, V-A:ILE:538:CG2:4858"]

$$$$
2j_Grossjean_2025
     RDKit          3D

 23 24  0  0  0  0  0  0  0  0999 V2000
  128.0150  122.7160   61.2140 C   0  0  0  0  0  0  0  0  0  0  0  0
  129.3600  122.6590   60.5130 C   0  0  0  0  0  0  0  0  0  0  0  0
  130.2370  121.5950   60.7030 C   0  0  0  0  0  0  0  0  0  0  0  0
  131.4680  121.5860   60.0290 C   0  0  0  0  0  0  0  0  0  0  0  0
  132.4260  120.4000   60.2510 C   0  0  0  0  0  0  0  0  0  0  0  0
  133.4270  120.7660   61.0530 F   0  0  0  0  0  0  0  0  0  0  0  0
  131.7720  119.3820   60.8120 F   0  0  0  0  0  0  0  0  0  0  0  0
  132.9650  119.9530   59.1140 F   0  0  0  0  0  0  0  0  0  0  0  0
  131.7780  122.6710   59.1720 C   0  0  0  0  0  0  0  0  0  0  0  0
  133.0490  122.7140   58.4430 C   0  0  0  0  0  0  0  0  0  0  0  0
  134.0530  122.7470   57.8670 N   0  0  0  0  0  0  0  0  0  0  0  0
  130.8270  123.7110   59.0370 C   0  0  0  0  0  0  0  0  0  0  0  0
  131.1100  125.1260   57.9830 S   0  0  0  0  0  0  0  0  0  0  0  0
  130.9390  124.5920   56.2460 C   0  0  0  0  0  0  0  0  0  0  0  0
  129.5150  124.1940   55.8310 C   0  0  0  0  0  0  0  0  0  0  0  0
  129.1270  124.3600   54.6720 O   0  0  0  0  0  0  0  0  0  0  0  0
  128.7590  123.6760   56.8250 N   0  0  0  0  0  0  0  0  0  0  0  0
  127.4460  123.2350   56.7250 C   0  0  0  0  0  0  0  0  0  0  0  0
  127.0150  122.0830   56.2580 N   0  0  0  0  0  0  0  0  0  0  0  0
  125.7000  121.9980   56.3140 C   0  0  0  0  0  0  0  0  0  0  0  0
  125.0340  123.1020   56.8380 C   0  0  0  0  0  0  0  0  0  0  0  0
  126.2030  124.3110   57.2770 S   0  0  0  0  0  0  0  0  0  0  0  0
  129.6400  123.7000   59.6970 N   0  0  0  0  0  0  0  0  0  0  0  0
  1  2  1  0
  2  3  2  0
  3  4  1  0
  4  5  1  0
  5  6  1  0
  5  7  1  0
  5  8  1  0
  4  9  2  0
  9 10  1  0
 10 11  3  0
  9 12  1  0
 12 13  1  0
 13 14  1  0
 14 15  1  0
 15 16  2  0
 15 17  1  0
 17 18  1  0
 18 19  2  0
 19 20  1  0
 20 21  2  0
 21 22  1  0
 12 23  2  0
 23  2  1  0
 22 18  1  0
M  END
>  <Binding energies>  (12) 
[-5.86]

>  <Ligand effiencies>  (12) 
[-0.24416666666666667]

>  <Interactions>  (12) 
["V-B:ALA:541:CB:9860, V-B:TYR:539:CE2:9844, V-B:MET:535:CE:9803, V-B:PRO:540:CD:9855, V-B:PRO:540:CA:9851, V-A:TRP:381:CH2:3367, V-B:TYR:539:CD2:9842, V-B:PRO:540:N:9852, V-B:PRO:540:CB:9853, V-B:PRO:540:C:9849, V-B:TYR:539:C:9835, V-B:TYR:539:CZ:9845, H-A:TYR:531:OH:4790, V-A:ILE:369:CG2:3232, V-A:ILE:369:CD1:3234, V-A:TRP:381:CZ3:3366, V-A:LEU:475:CD2:4254, H-A:LYS:534:NZ:4818, V-B:LEU:363:CD1:8156, V-A:TYR:531:CE1:4787, V-A:TYR:531:CZ:4789, V-A:TRP:381:CZ2:3365, H-B:TYR:539:N:9838, V-B:ILE:538:CG2:9831, V-A:ILE:369:CB:3231, H-B:TYR:539:OH:9846, V-B:TYR:539:CA:9837"]

$$$$
3ab_Grossjean_2025
     RDKit          3D

 33 35  0  0  0  0  0  0  0  0999 V2000
  129.2570  132.3850   54.3650 C   0  0  0  0  0  0  0  0  0  0  0  0
  129.8830  133.2810   55.2730 O   0  0  0  0  0  0  0  0  0  0  0  0
  130.8990  132.8690   56.0730 C   0  0  0  0  0  0  0  0  0  0  0  0
  132.0700  132.7790   55.6940 O   0  0  0  0  0  0  0  0  0  0  0  0
  130.4570  132.5370   57.4690 C   0  0  0  0  0  0  0  0  0  0  0  0
  131.1810  131.6570   58.2880 C   0  0  0  0  0  0  0  0  0  0  0  0
  130.7480  131.3670   59.5790 C   0  0  0  0  0  0  0  0  0  0  0  0
  129.5750  131.9560   60.0760 C   0  0  0  0  0  0  0  0  0  0  0  0
  129.0490  131.7420   61.3640 N   0  0  0  0  0  0  0  0  0  0  0  0
  129.5890  131.9970   62.5740 C   0  0  0  0  0  0  0  0  0  0  0  0
  130.7050  132.4760   62.7730 O   0  0  0  0  0  0  0  0  0  0  0  0
  128.7070  131.6420   63.7740 C   0  0  0  0  0  0  0  0  0  0  0  0
  127.6860  130.1710   63.4610 S   0  0  0  0  0  0  0  0  0  0  0  0
  128.4850  128.7880   64.2480 C   0  0  0  0  0  0  0  0  0  0  0  0
  128.1250  128.6190   65.5420 N   0  0  0  0  0  0  0  0  0  0  0  0
  128.6540  127.5980   66.2640 C   0  0  0  0  0  0  0  0  0  0  0  0
  128.2010  127.4780   67.6890 C   0  0  0  0  0  0  0  0  0  0  0  0
  129.0500  127.8450   68.7460 C   0  0  0  0  0  0  0  0  0  0  0  0
  128.6340  127.7370   70.0700 C   0  0  0  0  0  0  0  0  0  0  0  0
  127.3600  127.2580   70.3570 C   0  0  0  0  0  0  0  0  0  0  0  0
  126.5010  126.8830   69.3290 C   0  0  0  0  0  0  0  0  0  0  0  0
  126.9210  126.9930   68.0070 C   0  0  0  0  0  0  0  0  0  0  0  0
  129.5880  126.7260   65.6930 C   0  0  0  0  0  0  0  0  0  0  0  0
  129.9920  126.8920   64.3600 C   0  0  0  0  0  0  0  0  0  0  0  0
  131.0260  125.9140   63.7700 C   0  0  0  0  0  0  0  0  0  0  0  0
  132.1440  126.5230   63.3690 F   0  0  0  0  0  0  0  0  0  0  0  0
  131.3730  125.0050   64.6830 F   0  0  0  0  0  0  0  0  0  0  0  0
  130.5080  125.2870   62.7120 F   0  0  0  0  0  0  0  0  0  0  0  0
  129.4340  127.9580   63.6110 C   0  0  0  0  0  0  0  0  0  0  0  0
  129.8640  128.2100   62.2330 C   0  0  0  0  0  0  0  0  0  0  0  0
  130.2050  128.4070   61.1450 N   0  0  0  0  0  0  0  0  0  0  0  0
  128.8560  132.8370   59.2660 C   0  0  0  0  0  0  0  0  0  0  0  0
  129.2900  133.1230   57.9750 C   0  0  0  0  0  0  0  0  0  0  0  0
  1  2  1  0
  2  3  1  0
  3  4  2  0
  3  5  1  0
  5  6  2  0
  6  7  1  0
  7  8  2  0
  8  9  1  0
  9 10  1  0
 10 11  2  0
 10 12  1  0
 12 13  1  0
 13 14  1  0
 14 15  2  0
 15 16  1  0
 16 17  1  0
 17 18  2  0
 18 19  1  0
 19 20  2  0
 20 21  1  0
 21 22  2  0
 16 23  2  0
 23 24  1  0
 24 25  1  0
 25 26  1  0
 25 27  1  0
 25 28  1  0
 24 29  2  0
 29 30  1  0
 30 31  3  0
  8 32  1  0
 32 33  2  0
 33  5  1  0
 29 14  1  0
 22 17  1  0
M  END
>  <Binding energies>  (13) 
[-7.47]

>  <Ligand effiencies>  (13) 
[-0.21970588235294117]

>  <Interactions>  (13) 
["V-B:GLU:543:C:9870, V-B:GLU:543:CD:9876, V-A:ARG:545:CZ:4921, V-B:GLU:543:CB:9874, V-A:GLU:543:CD:4903, V-A:PRO:540:N:4879, V-A:TYR:539:CE1:4870, V-A:TYR:539:C:4862, V-A:TYR:539:CD1:4868, V-A:PRO:540:CA:4878, V-A:TYR:539:CA:4864, V-A:TYR:539:CG:4867, H-A:ALA:541:N:4886, V-A:PRO:540:CD:4882, V-A:PRO:540:CB:4880, V-A:TYR:539:CD2:4869, V-B:ARG:545:CG:9890, V-B:HIS:456:CE1:9037, H-A:TYR:539:N:4865, V-A:GLU:543:CG:4902, V-A:ALA:541:CB:4887, V-B:HIS:456:CD2:9035, V-B:GLY:544:C:9880, V-B:ARG:545:CA:9887"]

$$$$
3ac_Grossjean_2025
     RDKit          3D

 31 33  0  0  0  0  0  0  0  0999 V2000
  131.6950  132.6190   55.1400 C   0  0  0  0  0  0  0  0  0  0  0  0
  130.6410  133.2480   55.8620 O   0  0  0  0  0  0  0  0  0  0  0  0
  130.3240  132.7930   57.1280 C   0  0  0  0  0  0  0  0  0  0  0  0
  129.1170  133.2380   57.6650 C   0  0  0  0  0  0  0  0  0  0  0  0
  128.7120  132.8300   58.9320 C   0  0  0  0  0  0  0  0  0  0  0  0
  129.5160  131.9740   59.6870 C   0  0  0  0  0  0  0  0  0  0  0  0
  129.0130  131.6010   60.9470 N   0  0  0  0  0  0  0  0  0  0  0  0
  129.5420  131.8120   62.1720 C   0  0  0  0  0  0  0  0  0  0  0  0
  130.5810  132.4330   62.4000 O   0  0  0  0  0  0  0  0  0  0  0  0
  128.7550  131.2190   63.3410 C   0  0  0  0  0  0  0  0  0  0  0  0
  128.1290  129.5510   62.9730 S   0  0  0  0  0  0  0  0  0  0  0  0
  128.6260  128.4520   64.2860 C   0  0  0  0  0  0  0  0  0  0  0  0
  129.7260  127.7210   63.9820 N   0  0  0  0  0  0  0  0  0  0  0  0
  130.2270  126.8430   64.8890 C   0  0  0  0  0  0  0  0  0  0  0  0
  131.4420  126.0690   64.4720 C   0  0  0  0  0  0  0  0  0  0  0  0
  132.4370  125.7350   65.4050 C   0  0  0  0  0  0  0  0  0  0  0  0
  133.5640  125.0120   65.0250 C   0  0  0  0  0  0  0  0  0  0  0  0
  133.7130  124.6130   63.7010 C   0  0  0  0  0  0  0  0  0  0  0  0
  132.7460  124.9340   62.7560 C   0  0  0  0  0  0  0  0  0  0  0  0
  131.6200  125.6580   63.1400 C   0  0  0  0  0  0  0  0  0  0  0  0
  129.6110  126.6670   66.1320 C   0  0  0  0  0  0  0  0  0  0  0  0
  128.4580  127.3940   66.4630 C   0  0  0  0  0  0  0  0  0  0  0  0
  127.8080  127.1650   67.8410 C   0  0  0  0  0  0  0  0  0  0  0  0
  126.5010  126.9090   67.7610 F   0  0  0  0  0  0  0  0  0  0  0  0
  128.3790  126.1270   68.4540 F   0  0  0  0  0  0  0  0  0  0  0  0
  127.9610  128.2520   68.6000 F   0  0  0  0  0  0  0  0  0  0  0  0
  127.9350  128.3060   65.5110 C   0  0  0  0  0  0  0  0  0  0  0  0
  126.6910  129.0300   65.7810 C   0  0  0  0  0  0  0  0  0  0  0  0
  125.7080  129.6010   65.9940 N   0  0  0  0  0  0  0  0  0  0  0  0
  130.7290  131.5160   59.1500 C   0  0  0  0  0  0  0  0  0  0  0  0
  131.1310  131.9260   57.8820 C   0  0  0  0  0  0  0  0  0  0  0  0
  1  2  1  0
  2  3  1  0
  3  4  2  0
  4  5  1  0
  5  6  2  0
  6  7  1  0
  7  8  1  0
  8  9  2  0
  8 10  1  0
 10 11  1  0
 11 12  1  0
 12 13  2  0
 13 14  1  0
 14 15  1  0
 15 16  2  0
 16 17  1  0
 17 18  2  0
 18 19  1  0
 19 20  2  0
 14 21  2  0
 21 22  1  0
 22 23  1  0
 23 24  1  0
 23 25  1  0
 23 26  1  0
 22 27  2  0
 27 28  1  0
 28 29  3  0
  6 30  1  0
 30 31  2  0
 31  3  1  0
 27 12  1  0
 20 15  1  0
M  END
>  <Binding energies>  (14) 
[-7.42]

>  <Ligand effiencies>  (14) 
[-0.231875]

>  <Interactions>  (14) 
["V-B:GLU:543:C:9870, V-A:ASP:366:CG:3208, V-B:GLU:543:CD:9876, V-B:GLU:543:CG:9875, V-A:ARG:545:CZ:4921, V-B:GLU:543:CB:9874, V-A:GLU:543:CD:4903, V-A:TYR:539:CZ:4872, V-A:LEU:363:CD1:3184, V-A:PRO:540:N:4879, V-A:TYR:539:CE1:4870, V-A:TYR:539:C:4862, V-A:TYR:539:CD1:4868, V-A:PRO:540:CA:4878, V-A:TYR:539:CA:4864, V-A:TYR:539:CG:4867, H-A:ALA:541:N:4886, V-A:PRO:540:CD:4882, V-A:ILE:538:CA:4855, V-A:PRO:540:CB:4880, V-A:TYR:539:CE2:4871, V-A:TYR:539:CD2:4869, V-B:ARG:545:CG:9890, V-B:HIS:456:CE1:9037, H-A:TYR:539:N:4865, V-A:ILE:538:CG2:4858, H-B:TYR:484:OH:9315, V-A:GLU:543:CG:4902, V-A:ILE:538:CD1:4860, V-B:GLU:543:CA:9872"]

$$$$
3af_Grossjean_2025
     RDKit          3D

 29 31  0  0  0  0  0  0  0  0999 V2000
  133.9130  121.7670   62.6740 N   0  0  0  0  0  0  0  0  0  0  0  0
  132.9610  121.9710   62.0480 C   0  0  0  0  0  0  0  0  0  0  0  0
  131.7560  122.2290   61.2560 C   0  0  0  0  0  0  0  0  0  0  0  0
  130.5120  122.4630   61.8900 C   0  0  0  0  0  0  0  0  0  0  0  0
  130.3540  122.5100   63.4220 C   0  0  0  0  0  0  0  0  0  0  0  0
  130.7150  121.3700   64.0160 F   0  0  0  0  0  0  0  0  0  0  0  0
  131.1120  123.4840   63.9280 F   0  0  0  0  0  0  0  0  0  0  0  0
  129.0810  122.7410   63.7450 F   0  0  0  0  0  0  0  0  0  0  0  0
  129.3750  122.6510   61.0880 C   0  0  0  0  0  0  0  0  0  0  0  0
  129.4780  122.6050   59.6940 C   0  0  0  0  0  0  0  0  0  0  0  0
  128.2940  122.7810   58.7910 C   0  0  0  0  0  0  0  0  0  0  0  0
  128.3480  122.3750   57.4480 C   0  0  0  0  0  0  0  0  0  0  0  0
  127.2510  122.5330   56.6060 C   0  0  0  0  0  0  0  0  0  0  0  0
  126.0810  123.1010   57.0970 C   0  0  0  0  0  0  0  0  0  0  0  0
  125.9990  123.5090   58.4240 C   0  0  0  0  0  0  0  0  0  0  0  0
  127.0980  123.3480   59.2640 C   0  0  0  0  0  0  0  0  0  0  0  0
  130.6720  122.3770   59.0910 N   0  0  0  0  0  0  0  0  0  0  0  0
  131.7870  122.2150   59.8420 C   0  0  0  0  0  0  0  0  0  0  0  0
  133.2580  121.9420   58.8740 S   0  0  0  0  0  0  0  0  0  0  0  0
  133.8660  123.5590   58.3070 C   0  0  0  0  0  0  0  0  0  0  0  0
  132.9930  124.1360   57.1930 C   0  0  0  0  0  0  0  0  0  0  0  0
  133.4720  124.2730   56.0670 O   0  0  0  0  0  0  0  0  0  0  0  0
  131.7340  124.4640   57.5560 N   0  0  0  0  0  0  0  0  0  0  0  0
  130.6930  125.0180   56.7850 C   0  0  0  0  0  0  0  0  0  0  0  0
  129.7230  125.9270   57.2470 C   0  0  0  0  0  0  0  0  0  0  0  0
  128.7430  126.3960   56.3700 C   0  0  0  0  0  0  0  0  0  0  0  0
  128.7540  125.9420   55.0500 C   0  0  0  0  0  0  0  0  0  0  0  0
  129.6770  125.0670   54.5810 N   0  0  0  0  0  0  0  0  0  0  0  0
  130.6240  124.6210   55.4450 C   0  0  0  0  0  0  0  0  0  0  0  0
  1  2  3  0
  2  3  1  0
  3  4  2  0
  4  5  1  0
  5  6  1  0
  5  7  1  0
  5  8  1  0
  4  9  1  0
  9 10  2  0
 10 11  1  0
 11 12  2  0
 12 13  1  0
 13 14  2  0
 14 15  1  0
 15 16  2  0
 10 17  1  0
 17 18  2  0
 18 19  1  0
 19 20  1  0
 20 21  1  0
 21 22  2  0
 21 23  1  0
 23 24  1  0
 24 25  2  0
 25 26  1  0
 26 27  2  0
 27 28  1  0
 28 29  2  0
 18  3  1  0
 29 24  1  0
 16 11  1  0
M  END
>  <Binding energies>  (15) 
[-7.12]

>  <Ligand effiencies>  (15) 
[-0.23733333333333334]

>  <Interactions>  (15) 
["V-B:ALA:541:CB:9860, V-B:TYR:539:CE2:9844, V-B:MET:535:CE:9803, V-B:PRO:540:CA:9851, V-B:TYR:539:CD2:9842, V-B:PRO:540:N:9852, V-B:PRO:540:CB:9853, V-B:TYR:539:C:9835, V-B:TYR:539:CZ:9845, V-A:ASP:366:CG:3208, H-A:GLY:454:N:4045, V-B:GLU:543:CD:9876, V-B:GLU:543:CG:9875, V-A:ASP:366:CB:3207, H-A:TYR:531:OH:4790, V-A:TYR:484:CZ:4342, V-A:ILE:369:CG2:3232, V-A:ILE:369:CD1:3234, V-A:LEU:475:CD2:4254, H-A:LYS:534:NZ:4818, V-A:TYR:531:CE1:4787, V-A:TYR:531:CZ:4789, V-A:ASP:366:C:3203, V-A:TYR:484:CE1:4340, V-A:LEU:475:CD1:4253, V-A:ILE:369:CB:3231, H-B:TYR:539:OH:9846, V-B:TYR:539:CG:9840, V-A:ASP:366:CA:3205, V-A:LEU:475:CG:4252"]

$$$$
3ag_Grossjean_2025
     RDKit          3D

 30 32  0  0  0  0  0  0  0  0999 V2000
  124.3070  124.4770   57.4170 N   0  0  0  0  0  0  0  0  0  0  0  0
  125.2270  124.0670   57.9880 C   0  0  0  0  0  0  0  0  0  0  0  0
  126.3890  123.5470   58.7130 C   0  0  0  0  0  0  0  0  0  0  0  0
  126.3980  123.5020   60.1290 C   0  0  0  0  0  0  0  0  0  0  0  0
  125.1890  123.9310   60.9830 C   0  0  0  0  0  0  0  0  0  0  0  0
  125.0390  123.1850   62.0790 F   0  0  0  0  0  0  0  0  0  0  0  0
  125.3360  125.1970   61.3740 F   0  0  0  0  0  0  0  0  0  0  0  0
  124.0650  123.8260   60.2720 F   0  0  0  0  0  0  0  0  0  0  0  0
  127.5550  123.0460   60.7790 C   0  0  0  0  0  0  0  0  0  0  0  0
  128.6760  122.6590   60.0370 C   0  0  0  0  0  0  0  0  0  0  0  0
  129.9380  122.1670   60.6780 C   0  0  0  0  0  0  0  0  0  0  0  0
  130.2140  122.4460   62.0260 C   0  0  0  0  0  0  0  0  0  0  0  0
  131.3840  121.9920   62.6280 C   0  0  0  0  0  0  0  0  0  0  0  0
  132.2990  121.2510   61.8870 C   0  0  0  0  0  0  0  0  0  0  0  0
  132.0510  120.9630   60.5490 C   0  0  0  0  0  0  0  0  0  0  0  0
  130.8810  121.4190   59.9500 C   0  0  0  0  0  0  0  0  0  0  0  0
  128.6600  122.6910   58.6790 N   0  0  0  0  0  0  0  0  0  0  0  0
  127.5460  123.1090   58.0300 C   0  0  0  0  0  0  0  0  0  0  0  0
  127.7040  123.0830   56.2580 S   0  0  0  0  0  0  0  0  0  0  0  0
  128.4260  124.6740   55.7560 C   0  0  0  0  0  0  0  0  0  0  0  0
  129.9550  124.6430   55.7620 C   0  0  0  0  0  0  0  0  0  0  0  0
  130.5800  124.9740   54.7530 O   0  0  0  0  0  0  0  0  0  0  0  0
  130.5390  124.2490   56.9070 N   0  0  0  0  0  0  0  0  0  0  0  0
  131.9810  124.1800   57.1440 C   0  0  0  0  0  0  0  0  0  0  0  0
  132.3750  124.2740   58.6140 C   0  0  0  0  0  0  0  0  0  0  0  0
  133.5720  123.7000   59.0500 C   0  0  0  0  0  0  0  0  0  0  0  0
  133.9500  123.8100   60.3850 C   0  0  0  0  0  0  0  0  0  0  0  0
  133.1340  124.5010   61.2790 C   0  0  0  0  0  0  0  0  0  0  0  0
  131.9470  125.0890   60.8480 C   0  0  0  0  0  0  0  0  0  0  0  0
  131.5690  124.9800   59.5120 C   0  0  0  0  0  0  0  0  0  0  0  0
  1  2  3  0
  2  3  1  0
  3  4  2  0
  4  5  1  0
  5  6  1  0
  5  7  1  0
  5  8  1  0
  4  9  1  0
  9 10  2  0
 10 11  1  0
 11 12  2  0
 12 13  1  0
 13 14  2  0
 14 15  1  0
 15 16  2  0
 10 17  1  0
 17 18  2  0
 18 19  1  0
 19 20  1  0
 20 21  1  0
 21 22  2  0
 21 23  1  0
 23 24  1  0
 24 25  1  0
 25 26  2  0
 26 27  1  0
 27 28  2  0
 28 29  1  0
 29 30  2  0
 18  3  1  0
 30 25  1  0
 16 11  1  0
M  END
>  <Binding energies>  (16) 
[-6.96]

>  <Ligand effiencies>  (16) 
[-0.22451612903225807]

>  <Interactions>  (16) 
["H-B:TYR:531:OH:9763, V-B:ALA:541:CB:9860, V-B:TYR:539:CE2:9844, V-B:MET:535:CE:9803, V-B:PRO:540:CA:9851, V-B:TYR:539:CD2:9842, V-B:PRO:540:N:9852, V-B:PRO:540:CB:9853, V-B:PRO:540:C:9849, V-B:TYR:539:C:9835, V-B:TYR:539:CZ:9845, V-A:ASP:366:CG:3208, V-B:GLU:543:CD:9876, V-B:ASN:362:CB:8143, V-A:ASP:366:CB:3207, V-A:ILE:369:CD1:3234, V-A:LEU:475:CD2:4254, V-B:LEU:363:CA:8152, H-A:LYS:534:NZ:4818, V-B:ARG:545:CZ:9894, V-B:ASP:366:CG:8180, H-B:TYR:539:OH:9846, V-A:ASP:366:CA:3205, V-B:ASN:362:C:8139, V-B:ALA:541:C:9856"]

$$$$
3bc_Grossjean_2025
     RDKit          3D

 28 30  0  0  0  0  0  0  0  0999 V2000
  129.7690  126.5470   54.2780 C   0  0  0  0  0  0  0  0  0  0  0  0
  130.2540  125.2170   54.4250 O   0  0  0  0  0  0  0  0  0  0  0  0
  129.8580  124.4730   55.5210 C   0  0  0  0  0  0  0  0  0  0  0  0
  130.6220  124.6200   56.6790 C   0  0  0  0  0  0  0  0  0  0  0  0
  130.3020  123.9110   57.8340 C   0  0  0  0  0  0  0  0  0  0  0  0
  129.2130  123.0370   57.8430 C   0  0  0  0  0  0  0  0  0  0  0  0
  128.9590  122.3740   59.0580 N   0  0  0  0  0  0  0  0  0  0  0  0
  129.5080  122.5840   60.2740 C   0  0  0  0  0  0  0  0  0  0  0  0
  130.3350  123.4620   60.5280 O   0  0  0  0  0  0  0  0  0  0  0  0
  128.9920  121.6530   61.3800 C   0  0  0  0  0  0  0  0  0  0  0  0
  130.2690  121.0210   62.5200 S   0  0  0  0  0  0  0  0  0  0  0  0
  131.2510  122.4040   63.0580 C   0  0  0  0  0  0  0  0  0  0  0  0
  130.6570  123.1540   64.0190 N   0  0  0  0  0  0  0  0  0  0  0  0
  131.2980  124.2410   64.5220 C   0  0  0  0  0  0  0  0  0  0  0  0
  130.5650  125.0290   65.5660 C   0  0  0  0  0  0  0  0  0  0  0  0
  130.2830  124.4680   66.8210 C   0  0  0  0  0  0  0  0  0  0  0  0
  129.6020  125.1930   67.7950 C   0  0  0  0  0  0  0  0  0  0  0  0
  129.1920  126.4940   67.5250 C   0  0  0  0  0  0  0  0  0  0  0  0
  129.4550  127.0730   66.2880 C   0  0  0  0  0  0  0  0  0  0  0  0
  130.1350  126.3430   65.3160 C   0  0  0  0  0  0  0  0  0  0  0  0
  132.5690  124.6020   64.0610 C   0  0  0  0  0  0  0  0  0  0  0  0
  133.2050  123.8260   63.0870 C   0  0  0  0  0  0  0  0  0  0  0  0
  134.6000  124.2480   62.6260 C   0  0  0  0  0  0  0  0  0  0  0  0
  132.5460  122.6900   62.5700 C   0  0  0  0  0  0  0  0  0  0  0  0
  133.2130  121.8350   61.5850 C   0  0  0  0  0  0  0  0  0  0  0  0
  133.7410  121.1620   60.8060 N   0  0  0  0  0  0  0  0  0  0  0  0
  128.4320  122.8940   56.6860 C   0  0  0  0  0  0  0  0  0  0  0  0
  128.7560  123.6050   55.5330 C   0  0  0  0  0  0  0  0  0  0  0  0
  1  2  1  0
  2  3  1  0
  3  4  2  0
  4  5  1  0
  5  6  2  0
  6  7  1  0
  7  8  1  0
  8  9  2  0
  8 10  1  0
 10 11  1  0
 11 12  1  0
 12 13  2  0
 13 14  1  0
 14 15  1  0
 15 16  2  0
 16 17  1  0
 17 18  2  0
 18 19  1  0
 19 20  2  0
 14 21  2  0
 21 22  1  0
 22 23  1  0
 22 24  2  0
 24 25  1  0
 25 26  3  0
  6 27  1  0
 27 28  2  0
 28  3  1  0
 24 12  1  0
 20 15  1  0
M  END
>  <Binding energies>  (17) 
[-7.63]

>  <Ligand effiencies>  (17) 
[-0.2631034482758621]

>  <Interactions>  (17) 
["V-B:ALA:541:CB:9860, V-B:TYR:539:CE2:9844, H-B:TYR:539:O:9836, V-B:MET:535:CE:9803, V-B:TYR:539:CD2:9842, V-B:ALA:541:CA:9858, V-B:PRO:540:C:9849, V-B:TYR:539:CE1:9843, V-B:TYR:539:C:9835, V-B:TYR:539:CZ:9845, V-B:GLU:543:C:9870, V-A:HIS:456:CE1:4064, V-A:ASP:366:CG:3208, H-A:TYR:484:OH:4343, V-B:GLU:543:CG:9875, V-B:GLU:543:CB:9874, V-A:GLU:543:CD:4903, V-A:GLY:454:CA:4044, V-A:TYR:484:CZ:4342, V-A:GLY:453:CA:4039, V-A:GLY:453:C:4037, V-A:ILE:369:CD1:3234, V-A:LEU:475:CD2:4254, V-A:LYS:534:CD:4816, H-A:LYS:534:NZ:4818, V-A:TYR:531:CE1:4787, V-A:TYR:531:CZ:4789, V-B:GLU:543:CA:9872, V-A:TYR:484:CE1:4340, V-B:TYR:539:CD1:9841, V-A:LYS:534:CE:4817"]

$$$$
3bd_Grossjean_2025
     RDKit          3D

 26 28  0  0  0  0  0  0  0  0999 V2000
  124.5800  123.8770   61.3790 C   0  0  0  0  0  0  0  0  0  0  0  0
  125.7960  123.4980   60.5340 C   0  0  0  0  0  0  0  0  0  0  0  0
  126.9720  123.1290   61.1960 C   0  0  0  0  0  0  0  0  0  0  0  0
  128.1090  122.7790   60.4590 C   0  0  0  0  0  0  0  0  0  0  0  0
  129.4000  122.3710   61.1040 C   0  0  0  0  0  0  0  0  0  0  0  0
  129.9970  123.1760   62.0870 C   0  0  0  0  0  0  0  0  0  0  0  0
  131.1970  122.8030   62.6880 C   0  0  0  0  0  0  0  0  0  0  0  0
  131.8170  121.6160   62.3140 C   0  0  0  0  0  0  0  0  0  0  0  0
  131.2470  120.8010   61.3410 C   0  0  0  0  0  0  0  0  0  0  0  0
  130.0490  121.1780   60.7420 C   0  0  0  0  0  0  0  0  0  0  0  0
  128.0830  122.7790   59.1000 N   0  0  0  0  0  0  0  0  0  0  0  0
  126.9510  123.1350   58.4420 C   0  0  0  0  0  0  0  0  0  0  0  0
  127.0510  123.1050   56.6590 S   0  0  0  0  0  0  0  0  0  0  0  0
  127.9220  124.6060   56.1190 C   0  0  0  0  0  0  0  0  0  0  0  0
  129.4400  124.4240   56.1310 C   0  0  0  0  0  0  0  0  0  0  0  0
  130.0710  124.5930   55.0870 O   0  0  0  0  0  0  0  0  0  0  0  0
  129.9780  124.0670   57.3170 N   0  0  0  0  0  0  0  0  0  0  0  0
  131.3290  123.8530   57.6490 C   0  0  0  0  0  0  0  0  0  0  0  0
  132.2680  124.2780   56.7050 C   0  0  0  0  0  0  0  0  0  0  0  0
  133.6290  124.1010   56.9420 C   0  0  0  0  0  0  0  0  0  0  0  0
  134.0510  123.4890   58.1190 C   0  0  0  0  0  0  0  0  0  0  0  0
  133.1240  123.0480   59.0610 C   0  0  0  0  0  0  0  0  0  0  0  0
  131.7630  123.2250   58.8280 C   0  0  0  0  0  0  0  0  0  0  0  0
  125.7720  123.5070   59.1230 C   0  0  0  0  0  0  0  0  0  0  0  0
  124.5550  123.8870   58.4000 C   0  0  0  0  0  0  0  0  0  0  0  0
  123.5930  124.1860   57.8310 N   0  0  0  0  0  0  0  0  0  0  0  0
  1  2  1  0
  2  3  2  0
  3  4  1  0
  4  5  1  0
  5  6  2  0
  6  7  1  0
  7  8  2  0
  8  9  1  0
  9 10  2  0
  4 11  2  0
 11 12  1  0
 12 13  1  0
 13 14  1  0
 14 15  1  0
 15 16  2  0
 15 17  1  0
 17 18  1  0
 18 19  2  0
 19 20  1  0
 20 21  2  0
 21 22  1  0
 22 23  2  0
 12 24  2  0
 24 25  1  0
 25 26  3  0
 24  2  1  0
 10  5  1  0
 23 18  1  0
M  END
>  <Binding energies>  (18) 
[-7.92]

>  <Ligand effiencies>  (18) 
[-0.29333333333333333]

>  <Interactions>  (18) 
["V-B:ALA:541:CB:9860, V-B:TYR:539:CE2:9844, V-B:MET:535:CE:9803, V-B:PRO:540:CA:9851, V-B:PRO:540:N:9852, V-B:PRO:540:CB:9853, V-B:PRO:540:C:9849, V-B:TYR:539:C:9835, V-B:TYR:539:CZ:9845, V-B:GLU:543:CD:9876, V-B:ASN:362:CB:8143, V-A:ASP:366:CB:3207, V-A:ILE:369:CG2:3232, V-A:ILE:369:CD1:3234, V-A:LEU:475:CD2:4254, H-A:LYS:534:NZ:4818, V-B:LEU:363:CD1:8156, V-A:TYR:531:CE1:4787, V-A:TYR:531:CZ:4789, V-A:ASN:370:CB:3240, V-A:ASP:366:C:3203, V-A:ILE:369:CB:3231, H-B:TYR:539:OH:9846, V-A:ASP:366:CA:3205"]

$$$$
3be_Grossjean_2025
     RDKit          3D

 27 29  0  0  0  0  0  0  0  0999 V2000
  130.1230  128.6810   53.9970 C   0  0  0  0  0  0  0  0  0  0  0  0
  130.9680  129.6270   54.8270 C   0  0  0  0  0  0  0  0  0  0  0  0
  131.8190  130.5610   54.2320 C   0  0  0  0  0  0  0  0  0  0  0  0
  132.5700  131.3980   55.0590 C   0  0  0  0  0  0  0  0  0  0  0  0
  132.4520  131.2820   56.4460 C   0  0  0  0  0  0  0  0  0  0  0  0
  131.5780  130.3270   56.9770 C   0  0  0  0  0  0  0  0  0  0  0  0
  131.5130  130.2520   58.3810 N   0  0  0  0  0  0  0  0  0  0  0  0
  132.5230  130.2720   59.2770 C   0  0  0  0  0  0  0  0  0  0  0  0
  133.7170  130.3560   58.9830 O   0  0  0  0  0  0  0  0  0  0  0  0
  132.0820  130.1810   60.7460 C   0  0  0  0  0  0  0  0  0  0  0  0
  131.5240  131.7530   61.4870 S   0  0  0  0  0  0  0  0  0  0  0  0
  129.9590  132.1840   60.7580 C   0  0  0  0  0  0  0  0  0  0  0  0
  129.9580  132.1290   59.4030 N   0  0  0  0  0  0  0  0  0  0  0  0
  128.8250  132.4300   58.7140 C   0  0  0  0  0  0  0  0  0  0  0  0
  128.9120  132.3590   57.2180 C   0  0  0  0  0  0  0  0  0  0  0  0
  129.7770  133.2070   56.5080 C   0  0  0  0  0  0  0  0  0  0  0  0
  129.8600  133.1490   55.1200 C   0  0  0  0  0  0  0  0  0  0  0  0
  129.0770  132.2380   54.4200 C   0  0  0  0  0  0  0  0  0  0  0  0
  128.2100  131.3880   55.0980 C   0  0  0  0  0  0  0  0  0  0  0  0
  128.1290  131.4510   56.4860 C   0  0  0  0  0  0  0  0  0  0  0  0
  127.6550  132.8010   59.3840 C   0  0  0  0  0  0  0  0  0  0  0  0
  127.6320  132.8380   60.7820 C   0  0  0  0  0  0  0  0  0  0  0  0
  126.3270  133.2310   61.4720 C   0  0  0  0  0  0  0  0  0  0  0  0
  128.8030  132.5130   61.5010 C   0  0  0  0  0  0  0  0  0  0  0  0
  128.7860  132.4930   62.9650 C   0  0  0  0  0  0  0  0  0  0  0  0
  128.7700  132.4770   64.1220 N   0  0  0  0  0  0  0  0  0  0  0  0
  130.8440  129.5030   56.1730 N   0  0  0  0  0  0  0  0  0  0  0  0
  1  2  1  0
  2  3  2  0
  3  4  1  0
  4  5  2  0
  5  6  1  0
  6  7  1  0
  7  8  1  0
  8  9  2  0
  8 10  1  0
 10 11  1  0
 11 12  1  0
 12 13  2  0
 13 14  1  0
 14 15  1  0
 15 16  2  0
 16 17  1  0
 17 18  2  0
 18 19  1  0
 19 20  2  0
 14 21  2  0
 21 22  1  0
 22 23  1  0
 22 24  2  0
 24 25  1  0
 25 26  3  0
  6 27  2  0
 27  2  1  0
 24 12  1  0
 20 15  1  0
M  END
>  <Binding energies>  (19) 
[-7.8]

>  <Ligand effiencies>  (19) 
[-0.2785714285714286]

>  <Interactions>  (19) 
["V-A:TYR:539:CZ:4872, V-A:LEU:363:CD1:3184, V-A:PRO:540:N:4879, V-A:TYR:539:CE1:4870, V-A:TYR:539:C:4862, V-A:TYR:539:CD1:4868, V-A:PRO:540:CA:4878, H-A:TYR:531:OH:4790, V-A:TYR:539:CA:4864, V-A:TYR:539:CG:4867, H-A:ALA:541:N:4886, V-A:PRO:540:CD:4882, V-A:ILE:538:CA:4855, V-A:TYR:531:CE2:4788, V-A:PRO:540:CB:4880, V-A:TYR:539:CE2:4871, V-A:TYR:539:CD2:4869, V-A:TYR:531:CE1:4787, V-A:TYR:531:CZ:4789, H-B:TYR:484:OH:9315, V-A:ALA:541:CB:4887, V-A:ILE:538:C:4853, V-A:MET:535:CG:4828, V-B:LEU:475:CD2:9226"]

$$$$
3bf_Grossjean_2025
     RDKit          3D

 26 28  0  0  0  0  0  0  0  0999 V2000
  125.5140  129.8800   57.7070 C   0  0  0  0  0  0  0  0  0  0  0  0
  126.5850  130.9080   58.0630 C   0  0  0  0  0  0  0  0  0  0  0  0
  127.6310  131.1120   57.1580 C   0  0  0  0  0  0  0  0  0  0  0  0
  128.6250  132.0560   57.4380 C   0  0  0  0  0  0  0  0  0  0  0  0
  129.7600  132.3370   56.4990 C   0  0  0  0  0  0  0  0  0  0  0  0
  131.0660  132.5080   56.9850 C   0  0  0  0  0  0  0  0  0  0  0  0
  132.1240  132.7700   56.1200 C   0  0  0  0  0  0  0  0  0  0  0  0
  131.8900  132.8650   54.7520 C   0  0  0  0  0  0  0  0  0  0  0  0
  130.6050  132.7020   54.2450 C   0  0  0  0  0  0  0  0  0  0  0  0
  129.5490  132.4410   55.1150 C   0  0  0  0  0  0  0  0  0  0  0  0
  128.5910  132.7840   58.5860 N   0  0  0  0  0  0  0  0  0  0  0  0
  127.5980  132.5800   59.4850 C   0  0  0  0  0  0  0  0  0  0  0  0
  127.7190  133.6160   60.9280 S   0  0  0  0  0  0  0  0  0  0  0  0
  128.7260  132.7390   62.1720 C   0  0  0  0  0  0  0  0  0  0  0  0
  127.9410  132.1730   63.3650 C   0  0  0  0  0  0  0  0  0  0  0  0
  128.3810  132.2750   64.5120 O   0  0  0  0  0  0  0  0  0  0  0  0
  126.7580  131.6070   63.0430 N   0  0  0  0  0  0  0  0  0  0  0  0
  125.8140  130.9930   63.8880 C   0  0  0  0  0  0  0  0  0  0  0  0
  126.2570  129.9180   64.6650 C   0  0  0  0  0  0  0  0  0  0  0  0
  125.3710  129.2750   65.5340 C   0  0  0  0  0  0  0  0  0  0  0  0
  124.0560  129.7350   65.6040 C   0  0  0  0  0  0  0  0  0  0  0  0
  123.6020  130.7820   64.8700 N   0  0  0  0  0  0  0  0  0  0  0  0
  124.4750  131.3970   64.0300 C   0  0  0  0  0  0  0  0  0  0  0  0
  126.5520  131.6580   59.2590 C   0  0  0  0  0  0  0  0  0  0  0  0
  125.4380  131.4970   60.1980 C   0  0  0  0  0  0  0  0  0  0  0  0
  124.5590  131.3670   60.9400 N   0  0  0  0  0  0  0  0  0  0  0  0
  1  2  1  0
  2  3  2  0
  3  4  1  0
  4  5  1  0
  5  6  2  0
  6  7  1  0
  7  8  2  0
  8  9  1  0
  9 10  2  0
  4 11  2  0
 11 12  1  0
 12 13  1  0
 13 14  1  0
 14 15  1  0
 15 16  2  0
 15 17  1  0
 17 18  1  0
 18 19  2  0
 19 20  1  0
 20 21  2  0
 21 22  1  0
 22 23  2  0
 12 24  2  0
 24 25  1  0
 25 26  3  0
 24  2  1  0
 10  5  1  0
 23 18  1  0
M  END
>  <Binding energies>  (20) 
[-7.98]

>  <Ligand effiencies>  (20) 
[-0.29555555555555557]

>  <Interactions>  (20) 
["V-A:TYR:539:CZ:4872, V-A:LEU:363:CD1:3184, V-A:PRO:540:N:4879, V-A:TYR:539:CE1:4870, V-A:TYR:539:CD1:4868, V-A:PRO:540:CG:4881, V-A:PRO:540:CA:4878, V-A:PRO:540:CD:4882, V-A:ILE:538:CA:4855, V-A:PRO:540:CB:4880, V-A:TYR:539:CE2:4871, V-A:TYR:539:CD2:4869, V-B:ARG:545:CG:9890, V-B:HIS:456:CE1:9037, V-A:ILE:538:CG2:4858, H-B:TYR:484:OH:9315, V-B:ARG:545:CZ:9894, V-B:GLY:454:CA:9016, V-B:ARG:545:CD:9891, V-A:ILE:538:CD1:4860, H-B:GLY:454:N:9017, V-A:ALA:541:CB:4887, V-A:ILE:538:CB:4857"]

$$$$
3bg_Grossjean_2025
     RDKit          3D

 27 29  0  0  0  0  0  0  0  0999 V2000
  125.4260  124.5370   61.1250 C   0  0  0  0  0  0  0  0  0  0  0  0
  126.3840  123.7900   60.2000 C   0  0  0  0  0  0  0  0  0  0  0  0
  127.5970  123.3380   60.7290 C   0  0  0  0  0  0  0  0  0  0  0  0
  128.5020  122.6420   59.9170 C   0  0  0  0  0  0  0  0  0  0  0  0
  129.8170  122.1190   60.4260 C   0  0  0  0  0  0  0  0  0  0  0  0
  130.2600  122.4150   61.7260 C   0  0  0  0  0  0  0  0  0  0  0  0
  131.4670  121.9180   62.2070 C   0  0  0  0  0  0  0  0  0  0  0  0
  132.2570  121.1150   61.3910 C   0  0  0  0  0  0  0  0  0  0  0  0
  131.8510  120.8150   60.0960 C   0  0  0  0  0  0  0  0  0  0  0  0
  130.6430  121.3160   59.6190 C   0  0  0  0  0  0  0  0  0  0  0  0
  128.2040  122.3840   58.6150 N   0  0  0  0  0  0  0  0  0  0  0  0
  127.0300  122.8140   58.0860 C   0  0  0  0  0  0  0  0  0  0  0  0
  126.7470  122.3810   56.3770 S   0  0  0  0  0  0  0  0  0  0  0  0
  128.3530  122.3750   55.5150 C   0  0  0  0  0  0  0  0  0  0  0  0
  129.1090  123.6930   55.7090 C   0  0  0  0  0  0  0  0  0  0  0  0
  129.2760  124.4500   54.7520 O   0  0  0  0  0  0  0  0  0  0  0  0
  129.5770  123.9380   56.9450 N   0  0  0  0  0  0  0  0  0  0  0  0
  130.4730  125.0350   57.3110 C   0  0  0  0  0  0  0  0  0  0  0  0
  131.7120  124.5330   58.0440 C   0  0  0  0  0  0  0  0  0  0  0  0
  132.7470  123.9190   57.3310 C   0  0  0  0  0  0  0  0  0  0  0  0
  133.8730  123.4510   58.0010 C   0  0  0  0  0  0  0  0  0  0  0  0
  133.9690  123.6100   59.3830 C   0  0  0  0  0  0  0  0  0  0  0  0
  132.9520  124.2380   60.0980 C   0  0  0  0  0  0  0  0  0  0  0  0
  131.8240  124.7050   59.4260 C   0  0  0  0  0  0  0  0  0  0  0  0
  126.0840  123.5340   58.8450 C   0  0  0  0  0  0  0  0  0  0  0  0
  124.8190  123.9890   58.2640 C   0  0  0  0  0  0  0  0  0  0  0  0
  123.8190  124.3480   57.8060 N   0  0  0  0  0  0  0  0  0  0  0  0
  1  2  1  0
  2  3  2  0
  3  4  1  0
  4  5  1  0
  5  6  2  0
  6  7  1  0
  7  8  2  0
  8  9  1  0
  9 10  2  0
  4 11  2  0
 11 12  1  0
 12 13  1  0
 13 14  1  0
 14 15  1  0
 15 16  2  0
 15 17  1  0
 17 18  1  0
 18 19  1  0
 19 20  2  0
 20 21  1  0
 21 22  2  0
 22 23  1  0
 23 24  2  0
 12 25  2  0
 25 26  1  0
 26 27  3  0
 25  2  1  0
 10  5  1  0
 24 19  1  0
M  END
>  <Binding energies>  (21) 
[-7.47]

>  <Ligand effiencies>  (21) 
[-0.2667857142857143]

>  <Interactions>  (21) 
["V-B:TYR:539:CE2:9844, V-B:MET:535:CE:9803, V-B:PRO:540:CA:9851, V-B:TYR:539:CD2:9842, V-B:PRO:540:N:9852, V-B:PRO:540:CB:9853, V-B:TYR:539:CE1:9843, V-B:TYR:539:C:9835, V-B:TYR:539:CZ:9845, V-A:ASP:366:CG:3208, V-B:GLU:543:CD:9876, V-A:ASP:366:CB:3207, V-A:ILE:369:CG2:3232, V-A:ILE:369:CD1:3234, V-A:LEU:475:CD2:4254, H-A:LYS:534:NZ:4818, H-B:TYR:539:N:9838, V-A:ASP:366:C:3203, V-A:ILE:369:CB:3231, V-B:TYR:539:CD1:9841, V-B:TYR:539:CG:9840, V-A:ASP:366:CA:3205, V-A:ILE:369:CG1:3233"]

$$$$
3ca_Grossjean_2025
     RDKit          3D

 31 33  0  0  0  0  0  0  0  0999 V2000
  123.8830  123.8430   58.2260 C   0  0  0  0  0  0  0  0  0  0  0  0
  124.9710  124.8190   57.7690 C   0  0  0  0  0  0  0  0  0  0  0  0
  125.7270  124.2280   56.7190 O   0  0  0  0  0  0  0  0  0  0  0  0
  126.2250  122.9710   56.8360 C   0  0  0  0  0  0  0  0  0  0  0  0
  125.7580  121.9960   56.2380 O   0  0  0  0  0  0  0  0  0  0  0  0
  127.4060  122.8830   57.7600 C   0  0  0  0  0  0  0  0  0  0  0  0
  127.1990  122.9590   59.1430 C   0  0  0  0  0  0  0  0  0  0  0  0
  128.2730  122.8820   60.0250 C   0  0  0  0  0  0  0  0  0  0  0  0
  129.5750  122.7330   59.5440 C   0  0  0  0  0  0  0  0  0  0  0  0
  130.5860  122.6640   60.5210 N   0  0  0  0  0  0  0  0  0  0  0  0
  131.8830  122.3070   60.3950 C   0  0  0  0  0  0  0  0  0  0  0  0
  132.4340  121.9830   59.3440 O   0  0  0  0  0  0  0  0  0  0  0  0
  132.7000  122.3450   61.6910 C   0  0  0  0  0  0  0  0  0  0  0  0
  133.6360  123.8960   61.9040 S   0  0  0  0  0  0  0  0  0  0  0  0
  133.2990  124.5910   63.5160 C   0  0  0  0  0  0  0  0  0  0  0  0
  134.3540  124.6360   64.3690 N   0  0  0  0  0  0  0  0  0  0  0  0
  134.1780  125.1680   65.5980 C   0  0  0  0  0  0  0  0  0  0  0  0
  135.4070  125.1990   66.4840 C   0  0  0  0  0  0  0  0  0  0  0  0
  132.9490  125.6590   66.0330 C   0  0  0  0  0  0  0  0  0  0  0  0
  131.8410  125.6080   65.1780 C   0  0  0  0  0  0  0  0  0  0  0  0
  130.5400  126.1340   65.6920 C   0  0  0  0  0  0  0  0  0  0  0  0
  130.0670  125.7320   66.9470 C   0  0  0  0  0  0  0  0  0  0  0  0
  128.8510  126.2100   67.4310 C   0  0  0  0  0  0  0  0  0  0  0  0
  128.1010  127.0910   66.6570 C   0  0  0  0  0  0  0  0  0  0  0  0
  128.5540  127.4950   65.4030 C   0  0  0  0  0  0  0  0  0  0  0  0
  129.7700  127.0140   64.9230 C   0  0  0  0  0  0  0  0  0  0  0  0
  132.0160  125.0670   63.8780 C   0  0  0  0  0  0  0  0  0  0  0  0
  130.9050  125.0340   62.9220 C   0  0  0  0  0  0  0  0  0  0  0  0
  130.0270  125.0080   62.1680 N   0  0  0  0  0  0  0  0  0  0  0  0
  129.7900  122.6480   58.1600 C   0  0  0  0  0  0  0  0  0  0  0  0
  128.7140  122.7240   57.2790 C   0  0  0  0  0  0  0  0  0  0  0  0
  1  2  1  0
  2  3  1  0
  3  4  1  0
  4  5  2  0
  4  6  1  0
  6  7  2  0
  7  8  1  0
  8  9  2  0
  9 10  1  0
 10 11  1  0
 11 12  2  0
 11 13  1  0
 13 14  1  0
 14 15  1  0
 15 16  2  0
 16 17  1  0
 17 18  1  0
 17 19  2  0
 19 20  1  0
 20 21  1  0
 21 22  2  0
 22 23  1  0
 23 24  2  0
 24 25  1  0
 25 26  2  0
 20 27  2  0
 27 28  1  0
 28 29  3  0
  9 30  1  0
 30 31  2  0
 31  6  1  0
 27 15  1  0
 26 21  1  0
M  END
>  <Binding energies>  (22) 
[-8.49]

>  <Ligand effiencies>  (22) 
[-0.2653125]

>  <Interactions>  (22) 
["H-B:TYR:531:OH:9763, V-B:TYR:539:CE2:9844, V-B:MET:535:CE:9803, V-B:PRO:540:CA:9851, V-B:TYR:539:CD2:9842, V-B:PRO:540:N:9852, V-B:PRO:540:CB:9853, V-B:TYR:539:CE1:9843, V-B:TYR:539:C:9835, V-B:TYR:539:CZ:9845, V-A:HIS:456:CE1:4064, H-A:TYR:484:OH:4343, H-A:GLY:454:N:4045, V-B:GLU:543:CD:9876, V-B:GLU:543:CG:9875, V-A:ARG:545:CZ:4921, V-B:GLU:543:CB:9874, V-A:GLU:543:CD:4903, V-A:ARG:545:CD:4918, V-A:ARG:545:CG:4917, V-A:GLY:453:CA:4039, V-A:GLY:453:C:4037, V-A:HIS:456:CD2:4063, V-A:ILE:369:CD1:3234, V-A:LEU:475:CD2:4254, V-B:LEU:363:CA:8152, V-B:LEU:363:CD1:8156, H-B:TYR:539:N:9838, V-B:LEU:363:CB:8154, V-B:TYR:539:CG:9840, H-A:ARG:545:NH1:4922, V-A:ARG:545:CB:4916"]

$$$$
3ce_Grossjean_2025
     RDKit          3D

 27 29  0  0  0  0  0  0  0  0999 V2000
  129.5230  122.3600   59.2470 C   0  0  0  0  0  0  0  0  0  0  0  0
  130.5610  123.1330   58.4570 C   0  0  0  0  0  0  0  0  0  0  0  0
  131.9170  122.7980   58.5070 C   0  0  0  0  0  0  0  0  0  0  0  0
  132.8140  123.5470   57.7460 C   0  0  0  0  0  0  0  0  0  0  0  0
  132.3420  124.6030   56.9630 C   0  0  0  0  0  0  0  0  0  0  0  0
  130.9730  124.8920   56.9670 C   0  0  0  0  0  0  0  0  0  0  0  0
  130.5520  125.9520   56.1460 N   0  0  0  0  0  0  0  0  0  0  0  0
  129.8870  125.8860   54.9720 C   0  0  0  0  0  0  0  0  0  0  0  0
  129.5260  124.8440   54.4210 O   0  0  0  0  0  0  0  0  0  0  0  0
  129.5690  127.2280   54.3140 C   0  0  0  0  0  0  0  0  0  0  0  0
  128.4720  128.2470   55.3440 S   0  0  0  0  0  0  0  0  0  0  0  0
  129.4630  129.6130   55.9020 C   0  0  0  0  0  0  0  0  0  0  0  0
  129.4310  130.6900   55.0790 N   0  0  0  0  0  0  0  0  0  0  0  0
  130.1400  131.7890   55.4240 C   0  0  0  0  0  0  0  0  0  0  0  0
  130.0480  132.9610   54.4660 C   0  0  0  0  0  0  0  0  0  0  0  0
  130.9110  131.8510   56.5810 C   0  0  0  0  0  0  0  0  0  0  0  0
  130.9780  130.7390   57.4310 C   0  0  0  0  0  0  0  0  0  0  0  0
  131.8380  130.8450   58.6480 C   0  0  0  0  0  0  0  0  0  0  0  0
  131.2880  131.2680   59.8640 C   0  0  0  0  0  0  0  0  0  0  0  0
  132.0850  131.3750   61.0000 C   0  0  0  0  0  0  0  0  0  0  0  0
  133.4400  131.0650   60.9250 C   0  0  0  0  0  0  0  0  0  0  0  0
  134.0050  130.6530   59.7210 C   0  0  0  0  0  0  0  0  0  0  0  0
  133.2060  130.5460   58.5860 C   0  0  0  0  0  0  0  0  0  0  0  0
  130.2310  129.5840   57.0900 C   0  0  0  0  0  0  0  0  0  0  0  0
  130.2510  128.3950   57.9480 C   0  0  0  0  0  0  0  0  0  0  0  0
  130.2670  127.4580   58.6270 N   0  0  0  0  0  0  0  0  0  0  0  0
  130.0870  124.1580   57.7030 N   0  0  0  0  0  0  0  0  0  0  0  0
  1  2  1  0
  2  3  2  0
  3  4  1  0
  4  5  2  0
  5  6  1  0
  6  7  1  0
  7  8  1  0
  8  9  2  0
  8 10  1  0
 10 11  1  0
 11 12  1  0
 12 13  2  0
 13 14  1  0
 14 15  1  0
 14 16  2  0
 16 17  1  0
 17 18  1  0
 18 19  2  0
 19 20  1  0
 20 21  2  0
 21 22  1  0
 22 23  2  0
 17 24  2  0
 24 25  1  0
 25 26  3  0
  6 27  2  0
 27  2  1  0
 24 12  1  0
 23 18  1  0
M  END
>  <Binding energies>  (23) 
[-7.86]

>  <Ligand effiencies>  (23) 
[-0.28071428571428575]

>  <Interactions>  (23) 
["V-B:TYR:539:CE2:9844, V-B:TYR:539:CD2:9842, V-B:TYR:539:CZ:9845, V-A:LEU:363:CD1:3184, V-A:LEU:363:CA:3180, V-A:TYR:539:CE1:4870, V-A:ASN:362:C:3167, V-A:TYR:539:CD1:4868, V-A:PRO:540:CA:4878, V-A:LEU:363:CB:3182, H-A:TYR:531:OH:4790, V-A:ILE:538:CA:4855, V-A:TYR:531:CE2:4788, V-A:PRO:540:CB:4880, H-A:LYS:534:NZ:4818, V-A:TYR:531:CE1:4787, V-A:TYR:531:CZ:4789, V-A:ILE:538:CD1:4860, V-A:ILE:538:C:4853, V-A:VAL:537:C:4845, V-A:ASN:362:CB:3171"]

$$$$
3cj_Grossjean_2025
     RDKit          3D

 25 27  0  0  0  0  0  0  0  0999 V2000
  124.6530  131.2320   58.8820 C   0  0  0  0  0  0  0  0  0  0  0  0
  125.4370  131.4620   60.1600 C   0  0  0  0  0  0  0  0  0  0  0  0
  125.0280  130.9140   61.3740 C   0  0  0  0  0  0  0  0  0  0  0  0
  125.7960  131.1340   62.5260 C   0  0  0  0  0  0  0  0  0  0  0  0
  125.3560  130.4740   63.7900 C   0  0  0  0  0  0  0  0  0  0  0  0
  124.2670  130.9760   64.5130 C   0  0  0  0  0  0  0  0  0  0  0  0
  123.8660  130.3670   65.6990 C   0  0  0  0  0  0  0  0  0  0  0  0
  124.5590  129.2550   66.1700 C   0  0  0  0  0  0  0  0  0  0  0  0
  125.6490  128.7500   65.4680 C   0  0  0  0  0  0  0  0  0  0  0  0
  126.0480  129.3600   64.2810 C   0  0  0  0  0  0  0  0  0  0  0  0
  126.9540  131.9430   62.4200 C   0  0  0  0  0  0  0  0  0  0  0  0
  127.7820  132.2330   63.5950 C   0  0  0  0  0  0  0  0  0  0  0  0
  128.4360  132.4600   64.5230 N   0  0  0  0  0  0  0  0  0  0  0  0
  127.2960  132.4540   61.1480 C   0  0  0  0  0  0  0  0  0  0  0  0
  128.7930  133.3700   60.8510 S   0  0  0  0  0  0  0  0  0  0  0  0
  130.0340  132.1090   60.4180 C   0  0  0  0  0  0  0  0  0  0  0  0
  130.3460  132.1080   58.9180 C   0  0  0  0  0  0  0  0  0  0  0  0
  131.4450  131.7090   58.5270 O   0  0  0  0  0  0  0  0  0  0  0  0
  129.3410  132.5230   58.1170 N   0  0  0  0  0  0  0  0  0  0  0  0
  129.3190  132.4900   56.7320 C   0  0  0  0  0  0  0  0  0  0  0  0
  129.9940  133.2480   55.8950 N   0  0  0  0  0  0  0  0  0  0  0  0
  129.7510  132.9180   54.6420 C   0  0  0  0  0  0  0  0  0  0  0  0
  128.8580  131.8690   54.4420 C   0  0  0  0  0  0  0  0  0  0  0  0
  128.3100  131.2910   55.9870 S   0  0  0  0  0  0  0  0  0  0  0  0
  126.5560  132.2100   60.0370 N   0  0  0  0  0  0  0  0  0  0  0  0
  1  2  1  0
  2  3  2  0
  3  4  1  0
  4  5  1  0
  5  6  2  0
  6  7  1  0
  7  8  2  0
  8  9  1  0
  9 10  2  0
  4 11  2  0
 11 12  1  0
 12 13  3  0
 11 14  1  0
 14 15  1  0
 15 16  1  0
 16 17  1  0
 17 18  2  0
 17 19  1  0
 19 20  1  0
 20 21  2  0
 21 22  1  0
 22 23  2  0
 23 24  1  0
 14 25  2  0
 25  2  1  0
 10  5  1  0
 24 20  1  0
M  END
>  <Binding energies>  (24) 
[-7.24]

>  <Ligand effiencies>  (24) 
[-0.2784615384615385]

>  <Interactions>  (24) 
["V-A:TYR:539:CZ:4872, V-A:PRO:540:N:4879, V-A:TYR:539:CE1:4870, V-A:TYR:539:C:4862, V-A:TYR:539:CD1:4868, V-A:PRO:540:CA:4878, V-A:TYR:539:CG:4867, H-A:ALA:541:N:4886, V-A:ILE:538:CA:4855, V-A:PRO:540:CB:4880, V-A:TYR:539:CE2:4871, V-B:ARG:545:CG:9890, V-B:HIS:456:CE1:9037, H-A:TYR:539:N:4865, H-B:TYR:484:OH:9315, V-B:ARG:545:CZ:9894, V-B:GLY:454:CA:9016, V-B:ARG:545:CD:9891, V-A:ALA:541:CB:4887, V-A:MET:535:CB:4827, H-A:TYR:539:O:4863"]

$$$$
4ba_Grossjean_2025
     RDKit          3D

 28 30  0  0  0  0  0  0  0  0999 V2000
  123.8860  124.5510   57.5560 C   0  0  0  0  0  0  0  0  0  0  0  0
  124.6240  123.8270   56.4140 C   0  0  0  0  0  0  0  0  0  0  0  0
  125.6200  122.7390   56.8650 C   0  0  0  0  0  0  0  0  0  0  0  0
  125.6160  121.6410   56.3030 O   0  0  0  0  0  0  0  0  0  0  0  0
  126.5650  123.0780   57.9810 C   0  0  0  0  0  0  0  0  0  0  0  0
  127.9400  122.8860   57.7990 C   0  0  0  0  0  0  0  0  0  0  0  0
  128.8390  123.1900   58.8170 C   0  0  0  0  0  0  0  0  0  0  0  0
  128.3830  123.6950   60.0360 C   0  0  0  0  0  0  0  0  0  0  0  0
  129.3760  123.9600   60.9980 N   0  0  0  0  0  0  0  0  0  0  0  0
  130.7260  123.9810   60.8750 C   0  0  0  0  0  0  0  0  0  0  0  0
  131.3310  123.7110   59.8360 O   0  0  0  0  0  0  0  0  0  0  0  0
  131.4590  124.3300   62.0940 C   0  0  0  0  0  0  0  0  0  0  0  0
  133.1830  123.9860   62.2210 S   0  0  0  0  0  0  0  0  0  0  0  0
  133.2350  124.6090   63.8520 C   0  0  0  0  0  0  0  0  0  0  0  0
  134.3670  124.6220   64.5550 N   0  0  0  0  0  0  0  0  0  0  0  0
  134.2830  125.1280   65.8070 C   0  0  0  0  0  0  0  0  0  0  0  0
  135.5820  125.1230   66.5930 C   0  0  0  0  0  0  0  0  0  0  0  0
  133.1080  125.6210   66.3660 C   0  0  0  0  0  0  0  0  0  0  0  0
  131.9120  125.6120   65.6300 C   0  0  0  0  0  0  0  0  0  0  0  0
  130.6440  126.1680   66.2860 C   0  0  0  0  0  0  0  0  0  0  0  0
  129.9590  126.9890   65.4870 F   0  0  0  0  0  0  0  0  0  0  0  0
  129.8300  125.1660   66.6200 F   0  0  0  0  0  0  0  0  0  0  0  0
  130.9680  126.8560   67.3810 F   0  0  0  0  0  0  0  0  0  0  0  0
  131.9650  125.0790   64.3070 C   0  0  0  0  0  0  0  0  0  0  0  0
  130.9660  124.8970   63.2810 C   0  0  0  0  0  0  0  0  0  0  0  0
  129.6530  125.2500   63.4560 N   0  0  0  0  0  0  0  0  0  0  0  0
  127.0070  123.8850   60.2280 C   0  0  0  0  0  0  0  0  0  0  0  0
  126.1090  123.5790   59.2080 C   0  0  0  0  0  0  0  0  0  0  0  0
  1  2  1  0
  2  3  1  0
  3  4  2  0
  3  5  1  0
  5  6  2  0
  6  7  1  0
  7  8  2  0
  8  9  1  0
  9 10  1  0
 10 11  2  0
 10 12  1  0
 12 13  1  0
 13 14  1  0
 14 15  2  0
 15 16  1  0
 16 17  1  0
 16 18  2  0
 18 19  1  0
 19 20  1  0
 20 21  1  0
 20 22  1  0
 20 23  1  0
 19 24  2  0
 24 25  1  0
 25 26  1  0
  8 27  1  0
 27 28  2  0
 28  5  1  0
 25 12  2  0
 24 14  1  0
M  END
>  <Binding energies>  (25) 
[-7.83]

>  <Ligand effiencies>  (25) 
[-0.2525806451612903]

>  <Interactions>  (25) 
["V-B:MET:535:CE:9803, V-B:PRO:540:CD:9855, V-B:PRO:540:CA:9851, V-B:PRO:540:N:9852, V-B:PRO:540:CB:9853, V-B:TYR:539:C:9835, V-A:HIS:456:CE1:4064, V-A:ASP:366:CG:3208, H-A:TYR:484:OH:4343, H-A:GLY:454:N:4045, V-B:GLU:543:CD:9876, V-B:GLU:543:CG:9875, V-A:ARG:545:CZ:4921, V-B:GLU:543:CB:9874, V-A:GLU:543:CD:4903, H-B:GLU:543:OE2:9878, V-A:ARG:545:CD:4918, V-A:ARG:545:CG:4917, V-A:GLY:453:CA:4039, V-A:GLY:453:C:4037, V-A:HIS:456:CD2:4063, V-B:LEU:363:CA:8152, V-B:LEU:363:CD1:8156, H-B:TYR:539:N:9838, V-B:ASP:366:CG:8180, V-B:ASP:366:CB:8179, V-B:LEU:363:CB:8154, V-B:TYR:531:CE2:9761, V-A:ILE:455:C:4047, V-A:ARG:545:CB:4916"]

$$$$
4bb_Grossjean_2025
     RDKit          3D

 27 29  0  0  0  0  0  0  0  0999 V2000
  124.6040  123.5630   56.6150 C   0  0  0  0  0  0  0  0  0  0  0  0
  125.7980  122.6100   56.7070 C   0  0  0  0  0  0  0  0  0  0  0  0
  125.8220  121.6370   55.9520 O   0  0  0  0  0  0  0  0  0  0  0  0
  126.8660  122.9050   57.7170 C   0  0  0  0  0  0  0  0  0  0  0  0
  126.5100  123.4510   58.9560 C   0  0  0  0  0  0  0  0  0  0  0  0
  127.4820  123.7340   59.9100 C   0  0  0  0  0  0  0  0  0  0  0  0
  128.8280  123.4710   59.6480 C   0  0  0  0  0  0  0  0  0  0  0  0
  129.7280  123.7980   60.6820 N   0  0  0  0  0  0  0  0  0  0  0  0
  131.0830  123.7910   60.6910 C   0  0  0  0  0  0  0  0  0  0  0  0
  131.7800  123.4460   59.7380 O   0  0  0  0  0  0  0  0  0  0  0  0
  131.7000  124.2030   61.9550 C   0  0  0  0  0  0  0  0  0  0  0  0
  133.4080  123.8890   62.2520 S   0  0  0  0  0  0  0  0  0  0  0  0
  133.3090  124.5920   63.8500 C   0  0  0  0  0  0  0  0  0  0  0  0
  134.3740  124.6610   64.6470 N   0  0  0  0  0  0  0  0  0  0  0  0
  134.1720  125.2260   65.8590 C   0  0  0  0  0  0  0  0  0  0  0  0
  135.3990  125.2960   66.7510 C   0  0  0  0  0  0  0  0  0  0  0  0
  132.9430  125.7190   66.2900 C   0  0  0  0  0  0  0  0  0  0  0  0
  131.8180  125.6490   65.4540 C   0  0  0  0  0  0  0  0  0  0  0  0
  130.4870  126.2050   65.9720 C   0  0  0  0  0  0  0  0  0  0  0  0
  129.5880  125.2510   66.2290 F   0  0  0  0  0  0  0  0  0  0  0  0
  130.6890  126.8780   67.1050 F   0  0  0  0  0  0  0  0  0  0  0  0
  129.9540  127.0210   65.0630 F   0  0  0  0  0  0  0  0  0  0  0  0
  131.9960  125.0580   64.1670 C   0  0  0  0  0  0  0  0  0  0  0  0
  131.0970  124.8170   63.0660 C   0  0  0  0  0  0  0  0  0  0  0  0
  129.7710  125.1660   63.1020 N   0  0  0  0  0  0  0  0  0  0  0  0
  129.1930  122.9300   58.4060 C   0  0  0  0  0  0  0  0  0  0  0  0
  128.2190  122.6490   57.4520 C   0  0  0  0  0  0  0  0  0  0  0  0
  1  2  1  0
  2  3  2  0
  2  4  1  0
  4  5  2  0
  5  6  1  0
  6  7  2  0
  7  8  1  0
  8  9  1  0
  9 10  2  0
  9 11  1  0
 11 12  1  0
 12 13  1  0
 13 14  2  0
 14 15  1  0
 15 16  1  0
 15 17  2  0
 17 18  1  0
 18 19  1  0
 19 20  1  0
 19 21  1  0
 19 22  1  0
 18 23  2  0
 23 24  1  0
 24 25  1  0
  7 26  1  0
 26 27  2  0
 27  4  1  0
 24 11  2  0
 23 13  1  0
M  END
>  <Binding energies>  (26) 
[-7.6]

>  <Ligand effiencies>  (26) 
[-0.2533333333333333]

>  <Interactions>  (26) 
["V-B:TYR:539:CE2:9844, V-B:MET:535:CE:9803, V-B:PRO:540:CD:9855, V-B:PRO:540:CA:9851, V-B:TYR:539:CD2:9842, V-B:PRO:540:N:9852, V-B:PRO:540:CB:9853, V-B:TYR:539:C:9835, V-A:HIS:456:CE1:4064, V-A:ASP:366:CG:3208, H-A:TYR:484:OH:4343, H-A:GLY:454:N:4045, V-B:GLU:543:CD:9876, V-B:GLU:543:CG:9875, V-A:ARG:545:CZ:4921, V-B:GLU:543:CB:9874, V-A:GLU:543:CD:4903, H-B:GLU:543:OE2:9878, V-A:ARG:545:CD:4918, V-A:ARG:545:CG:4917, V-A:GLY:453:CA:4039, V-A:GLY:453:C:4037, V-A:HIS:456:CD2:4063, V-A:ILE:369:CD1:3234, V-B:LEU:363:CD1:8156, H-B:TYR:539:N:9838, V-B:TYR:531:CE2:9761, V-A:ILE:455:C:4047, V-A:ARG:545:CB:4916"]

$$$$
4bd_Grossjean_2025
     RDKit          3D

 24 26  0  0  0  0  0  0  0  0999 V2000
  131.5290  132.8700   54.7100 C   0  0  0  0  0  0  0  0  0  0  0  0
  131.3700  132.4610   56.1630 C   0  0  0  0  0  0  0  0  0  0  0  0
  132.3130  131.6510   56.7880 C   0  0  0  0  0  0  0  0  0  0  0  0
  132.1520  131.2780   58.1320 C   0  0  0  0  0  0  0  0  0  0  0  0
  133.2150  130.3820   58.7760 C   0  0  0  0  0  0  0  0  0  0  0  0
  133.7090  130.8890   59.9080 F   0  0  0  0  0  0  0  0  0  0  0  0
  132.6880  129.1940   59.0690 F   0  0  0  0  0  0  0  0  0  0  0  0
  134.2360  130.2170   57.9360 F   0  0  0  0  0  0  0  0  0  0  0  0
  130.9950  131.7640   58.8100 C   0  0  0  0  0  0  0  0  0  0  0  0
  130.5030  131.5990   60.1560 C   0  0  0  0  0  0  0  0  0  0  0  0
  131.1680  130.8590   61.0990 N   0  0  0  0  0  0  0  0  0  0  0  0
  129.2900  132.2600   60.4100 C   0  0  0  0  0  0  0  0  0  0  0  0
  128.5080  132.2900   61.6490 C   0  0  0  0  0  0  0  0  0  0  0  0
  129.0080  132.7010   62.6970 O   0  0  0  0  0  0  0  0  0  0  0  0
  127.2280  131.8550   61.5400 N   0  0  0  0  0  0  0  0  0  0  0  0
  126.2420  131.7190   62.5340 C   0  0  0  0  0  0  0  0  0  0  0  0
  125.9900  130.4160   62.9730 C   0  0  0  0  0  0  0  0  0  0  0  0
  125.0390  130.1780   63.9620 C   0  0  0  0  0  0  0  0  0  0  0  0
  124.3430  131.2470   64.5200 C   0  0  0  0  0  0  0  0  0  0  0  0
  124.5940  132.5510   64.1020 C   0  0  0  0  0  0  0  0  0  0  0  0
  125.5440  132.7920   63.1130 C   0  0  0  0  0  0  0  0  0  0  0  0
  128.7210  133.1180   58.9800 S   0  0  0  0  0  0  0  0  0  0  0  0
  130.1040  132.5870   58.0530 C   0  0  0  0  0  0  0  0  0  0  0  0
  130.2630  132.9380   56.7780 N   0  0  0  0  0  0  0  0  0  0  0  0
  1  2  1  0
  2  3  2  0
  3  4  1  0
  4  5  1  0
  5  6  1  0
  5  7  1  0
  5  8  1  0
  4  9  2  0
  9 10  1  0
 10 11  1  0
 10 12  2  0
 12 13  1  0
 13 14  2  0
 13 15  1  0
 15 16  1  0
 16 17  2  0
 17 18  1  0
 18 19  2  0
 19 20  1  0
 20 21  2  0
 12 22  1  0
 22 23  1  0
 23 24  2  0
 24  2  1  0
 23  9  1  0
 21 16  1  0
M  END
>  <Binding energies>  (27) 
[-6.21]

>  <Ligand effiencies>  (27) 
[-0.23]

>  <Interactions>  (27) 
["V-A:ASP:366:CG:3208, H-A:GLU:543:OE2:4905, V-A:LEU:363:CD1:3184, V-A:PRO:540:N:4879, V-A:LEU:363:C:3178, V-A:LEU:363:CA:3180, V-A:ASN:362:C:3167, V-A:TYR:539:C:4862, V-A:ASP:366:CB:3207, V-A:PRO:540:CA:4878, V-A:LEU:363:CB:3182, V-A:TYR:539:CG:4867, H-A:ALA:541:N:4886, V-A:PRO:540:CD:4882, V-A:ILE:538:CA:4855, H-A:ASP:366:OD2:3210, V-A:TYR:531:CE2:4788, V-A:PRO:540:CB:4880, V-A:TYR:539:CE2:4871, V-A:TYR:539:CD2:4869, H-A:TYR:539:N:4865, V-A:ILE:538:CG2:4858, V-A:TYR:531:CZ:4789, V-B:GLY:454:CA:9016, V-A:ILE:538:CD1:4860, V-A:ILE:538:CB:4857, V-B:TYR:484:CZ:9314, V-A:ASN:362:CB:3171, V-B:LEU:475:CD2:9226, V-A:LEU:363:CG:3183"]

$$$$
4be_Grossjean_2025
     RDKit          3D

 25 27  0  0  0  0  0  0  0  0999 V2000
  127.5220  122.5270   56.9150 C   0  0  0  0  0  0  0  0  0  0  0  0
  127.1810  123.1630   58.2490 C   0  0  0  0  0  0  0  0  0  0  0  0
  125.8660  123.4960   58.5840 C   0  0  0  0  0  0  0  0  0  0  0  0
  125.6260  124.0810   59.8280 C   0  0  0  0  0  0  0  0  0  0  0  0
  126.6940  124.3170   60.6970 C   0  0  0  0  0  0  0  0  0  0  0  0
  127.9860  123.9540   60.3000 C   0  0  0  0  0  0  0  0  0  0  0  0
  129.0170  124.2240   61.2170 N   0  0  0  0  0  0  0  0  0  0  0  0
  130.3420  124.3970   60.9830 C   0  0  0  0  0  0  0  0  0  0  0  0
  130.8530  124.3430   59.8620 O   0  0  0  0  0  0  0  0  0  0  0  0
  131.1660  124.6380   62.1710 C   0  0  0  0  0  0  0  0  0  0  0  0
  132.8670  124.1790   62.1760 S   0  0  0  0  0  0  0  0  0  0  0  0
  133.0580  124.7320   63.8230 C   0  0  0  0  0  0  0  0  0  0  0  0
  134.2290  124.6490   64.4530 N   0  0  0  0  0  0  0  0  0  0  0  0
  134.2540  125.1120   65.7240 C   0  0  0  0  0  0  0  0  0  0  0  0
  135.5960  125.0060   66.4250 C   0  0  0  0  0  0  0  0  0  0  0  0
  133.1470  125.6510   66.3730 C   0  0  0  0  0  0  0  0  0  0  0  0
  131.9100  125.7420   65.7150 C   0  0  0  0  0  0  0  0  0  0  0  0
  130.7210  126.3470   66.4690 C   0  0  0  0  0  0  0  0  0  0  0  0
  129.9870  127.1670   65.7130 F   0  0  0  0  0  0  0  0  0  0  0  0
  129.9170  125.3740   66.8970 F   0  0  0  0  0  0  0  0  0  0  0  0
  131.1580  127.0490   67.5140 F   0  0  0  0  0  0  0  0  0  0  0  0
  131.8490  125.2590   64.3740 C   0  0  0  0  0  0  0  0  0  0  0  0
  130.7810  125.1810   63.4070 C   0  0  0  0  0  0  0  0  0  0  0  0
  129.5060  125.6090   63.6750 N   0  0  0  0  0  0  0  0  0  0  0  0
  128.2290  123.3860   59.0830 N   0  0  0  0  0  0  0  0  0  0  0  0
  1  2  1  0
  2  3  2  0
  3  4  1  0
  4  5  2  0
  5  6  1  0
  6  7  1  0
  7  8  1  0
  8  9  2  0
  8 10  1  0
 10 11  1  0
 11 12  1  0
 12 13  2  0
 13 14  1  0
 14 15  1  0
 14 16  2  0
 16 17  1  0
 17 18  1  0
 18 19  1  0
 18 20  1  0
 18 21  1  0
 17 22  2  0
 22 23  1  0
 23 24  1  0
  6 25  2  0
 25  2  1  0
 23 10  2  0
 22 12  1  0
M  END
>  <Binding energies>  (28) 
[-6.47]

>  <Ligand effiencies>  (28) 
[-0.23107142857142857]

>  <Interactions>  (28) 
["V-B:MET:535:CE:9803, V-B:PRO:540:CA:9851, V-B:PRO:540:N:9852, V-B:PRO:540:CB:9853, V-B:TYR:539:C:9835, V-A:HIS:456:CE1:4064, V-A:ASP:366:CG:3208, H-A:TYR:484:OH:4343, H-A:GLY:454:N:4045, V-B:GLU:543:CD:9876, V-B:GLU:543:CG:9875, V-A:ARG:545:CZ:4921, V-B:GLU:543:CB:9874, V-A:GLU:543:CD:4903, H-B:GLU:543:OE2:9878, V-A:ARG:545:CD:4918, V-A:GLY:454:CA:4044, V-A:ARG:545:CG:4917, V-A:GLY:453:CA:4039, V-A:GLY:453:C:4037, V-A:HIS:456:CD2:4063, V-A:ILE:455:C:4047"]

$$$$
4bg_Grossjean_2025
     RDKit          3D

 25 27  0  0  0  0  0  0  0  0999 V2000
  129.1560  121.3830   61.2370 C   0  0  0  0  0  0  0  0  0  0  0  0
  129.7800  122.1330   60.0740 C   0  0  0  0  0  0  0  0  0  0  0  0
  131.1580  122.1400   59.8800 C   0  0  0  0  0  0  0  0  0  0  0  0
  131.7220  122.8420   58.8030 C   0  0  0  0  0  0  0  0  0  0  0  0
  133.2440  122.8210   58.6310 C   0  0  0  0  0  0  0  0  0  0  0  0
  133.8080  124.0160   58.8220 F   0  0  0  0  0  0  0  0  0  0  0  0
  133.7860  121.9790   59.5120 F   0  0  0  0  0  0  0  0  0  0  0  0
  133.5550  122.4260   57.3970 F   0  0  0  0  0  0  0  0  0  0  0  0
  130.8250  123.5330   57.9350 C   0  0  0  0  0  0  0  0  0  0  0  0
  131.0270  124.3450   56.7600 C   0  0  0  0  0  0  0  0  0  0  0  0
  132.2710  124.6150   56.2480 N   0  0  0  0  0  0  0  0  0  0  0  0
  129.8400  124.8240   56.1850 C   0  0  0  0  0  0  0  0  0  0  0  0
  129.6770  125.6920   55.0190 C   0  0  0  0  0  0  0  0  0  0  0  0
  129.1070  125.2990   54.0000 O   0  0  0  0  0  0  0  0  0  0  0  0
  130.1510  126.9490   55.1470 N   0  0  0  0  0  0  0  0  0  0  0  0
  130.1120  127.9800   54.1110 C   0  0  0  0  0  0  0  0  0  0  0  0
  130.6660  129.3240   54.5660 C   0  0  0  0  0  0  0  0  0  0  0  0
  130.4770  129.7500   55.8840 C   0  0  0  0  0  0  0  0  0  0  0  0
  131.0180  130.9610   56.3080 C   0  0  0  0  0  0  0  0  0  0  0  0
  131.7580  131.7360   55.4180 C   0  0  0  0  0  0  0  0  0  0  0  0
  131.9650  131.3090   54.1080 C   0  0  0  0  0  0  0  0  0  0  0  0
  131.4230  130.0990   53.6830 C   0  0  0  0  0  0  0  0  0  0  0  0
  128.4290  124.3150   57.1080 S   0  0  0  0  0  0  0  0  0  0  0  0
  129.4320  123.4400   58.2400 C   0  0  0  0  0  0  0  0  0  0  0  0
  128.9030  122.7730   59.2660 N   0  0  0  0  0  0  0  0  0  0  0  0
  1  2  1  0
  2  3  2  0
  3  4  1  0
  4  5  1  0
  5  6  1  0
  5  7  1  0
  5  8  1  0
  4  9  2  0
  9 10  1  0
 10 11  1  0
 10 12  2  0
 12 13  1  0
 13 14  2  0
 13 15  1  0
 15 16  1  0
 16 17  1  0
 17 18  2  0
 18 19  1  0
 19 20  2  0
 20 21  1  0
 21 22  2  0
 12 23  1  0
 23 24  1  0
 24 25  2  0
 25  2  1  0
 24  9  1  0
 22 17  1  0
M  END
>  <Binding energies>  (29) 
[-7.32]

>  <Ligand effiencies>  (29) 
[-0.26142857142857145]

>  <Interactions>  (29) 
["V-B:ALA:541:CB:9860, V-B:TYR:539:CE2:9844, V-B:TYR:539:CD2:9842, V-B:ALA:541:CA:9858, V-B:PRO:540:C:9849, V-B:TYR:539:CZ:9845, V-A:ASP:366:CG:3208, V-A:LEU:363:CD1:3184, V-A:ASP:366:CB:3207, H-A:TYR:531:OH:4790, V-A:ILE:369:CG2:3232, V-A:ILE:369:CD1:3234, H-A:LYS:534:NZ:4818, V-A:TYR:531:CE1:4787, V-A:TYR:531:CZ:4789, V-A:ILE:538:CD1:4860, V-A:ASP:366:C:3203, V-A:ILE:369:CB:3231, H-B:TYR:539:OH:9846, V-A:ASP:366:CA:3205, V-A:ILE:369:CG1:3233, H-A:ASP:366:O:3204"]

$$$$
4ca_Grossjean_2025
     RDKit          3D

 34 37  0  0  0  0  0  0  0  0999 V2000
  129.0550  131.6240   54.8180 C   0  0  0  0  0  0  0  0  0  0  0  0
  129.8240  132.8760   54.3850 C   0  0  0  0  0  0  0  0  0  0  0  0
  130.5520  133.3910   55.4920 O   0  0  0  0  0  0  0  0  0  0  0  0
  131.7000  132.8000   55.9130 C   0  0  0  0  0  0  0  0  0  0  0  0
  132.7820  132.9230   55.3290 O   0  0  0  0  0  0  0  0  0  0  0  0
  131.5240  131.9850   57.1610 C   0  0  0  0  0  0  0  0  0  0  0  0
  130.3500  132.1280   57.9120 C   0  0  0  0  0  0  0  0  0  0  0  0
  130.1550  131.3830   59.0710 C   0  0  0  0  0  0  0  0  0  0  0  0
  131.1300  130.4860   59.5070 C   0  0  0  0  0  0  0  0  0  0  0  0
  130.8260  129.7770   60.6860 N   0  0  0  0  0  0  0  0  0  0  0  0
  129.9930  128.7260   60.8820 C   0  0  0  0  0  0  0  0  0  0  0  0
  129.3670  128.1630   59.9840 O   0  0  0  0  0  0  0  0  0  0  0  0
  129.8850  128.2640   62.2680 C   0  0  0  0  0  0  0  0  0  0  0  0
  128.6100  128.8870   63.3130 S   0  0  0  0  0  0  0  0  0  0  0  0
  129.1360  127.8710   64.6350 C   0  0  0  0  0  0  0  0  0  0  0  0
  128.5120  127.8840   65.8100 N   0  0  0  0  0  0  0  0  0  0  0  0
  128.9830  127.0500   66.7730 C   0  0  0  0  0  0  0  0  0  0  0  0
  128.2510  127.0800   68.0840 C   0  0  0  0  0  0  0  0  0  0  0  0
  126.8560  126.9280   68.1320 C   0  0  0  0  0  0  0  0  0  0  0  0
  126.1720  126.9600   69.3440 C   0  0  0  0  0  0  0  0  0  0  0  0
  126.8750  127.1470   70.5300 C   0  0  0  0  0  0  0  0  0  0  0  0
  128.2570  127.3030   70.5100 C   0  0  0  0  0  0  0  0  0  0  0  0
  128.9380  127.2700   69.2960 C   0  0  0  0  0  0  0  0  0  0  0  0
  130.0920  126.2250   66.5580 C   0  0  0  0  0  0  0  0  0  0  0  0
  130.7600  126.2080   65.3240 C   0  0  0  0  0  0  0  0  0  0  0  0
  131.9670  125.2770   65.1560 C   0  0  0  0  0  0  0  0  0  0  0  0
  131.6550  124.1140   64.5820 F   0  0  0  0  0  0  0  0  0  0  0  0
  132.8880  125.8640   64.3920 F   0  0  0  0  0  0  0  0  0  0  0  0
  132.4950  125.0030   66.3490 F   0  0  0  0  0  0  0  0  0  0  0  0
  130.2640  127.0660   64.3010 C   0  0  0  0  0  0  0  0  0  0  0  0
  130.6690  127.3100   62.9390 C   0  0  0  0  0  0  0  0  0  0  0  0
  131.7300  126.6660   62.3550 N   0  0  0  0  0  0  0  0  0  0  0  0
  132.3060  130.3300   58.7600 C   0  0  0  0  0  0  0  0  0  0  0  0
  132.4990  131.0750   57.5980 C   0  0  0  0  0  0  0  0  0  0  0  0
  1  2  1  0
  2  3  1  0
  3  4  1  0
  4  5  2  0
  4  6  1  0
  6  7  2  0
  7  8  1  0
  8  9  2  0
  9 10  1  0
 10 11  1  0
 11 12  2  0
 11 13  1  0
 13 14  1  0
 14 15  1  0
 15 16  2  0
 16 17  1  0
 17 18  1  0
 18 19  2  0
 19 20  1  0
 20 21  2  0
 21 22  1  0
 22 23  2  0
 17 24  2  0
 24 25  1  0
 25 26  1  0
 26 27  1  0
 26 28  1  0
 26 29  1  0
 25 30  2  0
 30 31  1  0
 31 32  1  0
  9 33  1  0
 33 34  2  0
 34  6  1  0
 31 13  2  0
 30 15  1  0
 23 18  1  0
M  END
>  <Binding energies>  (30) 
[-7.72]

>  <Ligand effiencies>  (30) 
[-0.20864864864864865]

>  <Interactions>  (30) 
["V-B:GLU:543:C:9870, V-A:HIS:456:CE1:4064, V-A:ASP:366:CG:3208, H-A:GLU:543:OE2:4905, V-A:ARG:545:CZ:4921, V-B:GLU:543:CB:9874, V-A:GLU:543:CD:4903, V-A:LEU:363:CD1:3184, V-A:PRO:540:N:4879, V-A:TYR:539:CE1:4870, V-A:TYR:539:CD1:4868, V-A:PRO:540:CA:4878, V-A:PRO:540:CD:4882, V-A:ILE:538:CA:4855, H-A:ASP:366:OD2:3210, V-A:TYR:531:CE2:4788, V-A:PRO:540:CB:4880, V-A:TYR:484:CZ:4342, V-A:HIS:456:CD2:4063, V-B:ARG:545:CG:9890, V-B:HIS:456:CE1:9037, H-A:TYR:539:N:4865, V-A:ILE:538:CG2:4858, V-A:ILE:538:CD1:4860, V-A:VAL:537:C:4845, V-B:HIS:456:CD2:9035, V-B:GLY:544:C:9880, H-A:ASP:366:OD1:3209, V-B:ARG:545:CA:9887"]

$$$$
4cb_Grossjean_2025
     RDKit          3D

 33 36  0  0  0  0  0  0  0  0999 V2000
  129.7310  132.7700   54.4220 C   0  0  0  0  0  0  0  0  0  0  0  0
  130.6940  133.2660   55.3420 O   0  0  0  0  0  0  0  0  0  0  0  0
  131.7700  132.5190   55.6980 C   0  0  0  0  0  0  0  0  0  0  0  0
  132.7980  132.4360   55.0180 O   0  0  0  0  0  0  0  0  0  0  0  0
  131.5870  131.8010   57.0050 C   0  0  0  0  0  0  0  0  0  0  0  0
  130.2910  131.4990   57.4440 C   0  0  0  0  0  0  0  0  0  0  0  0
  130.0900  130.8270   58.6460 C   0  0  0  0  0  0  0  0  0  0  0  0
  131.1760  130.4500   59.4370 C   0  0  0  0  0  0  0  0  0  0  0  0
  130.8570  129.7630   60.6240 N   0  0  0  0  0  0  0  0  0  0  0  0
  129.8780  128.8600   60.8740 C   0  0  0  0  0  0  0  0  0  0  0  0
  129.0910  128.4400   60.0250 O   0  0  0  0  0  0  0  0  0  0  0  0
  129.8120  128.3750   62.2560 C   0  0  0  0  0  0  0  0  0  0  0  0
  128.5680  128.9780   63.3490 S   0  0  0  0  0  0  0  0  0  0  0  0
  129.1350  127.9440   64.6390 C   0  0  0  0  0  0  0  0  0  0  0  0
  128.5480  127.9360   65.8330 N   0  0  0  0  0  0  0  0  0  0  0  0
  129.0530  127.0910   66.7690 C   0  0  0  0  0  0  0  0  0  0  0  0
  128.3660  127.1010   68.1040 C   0  0  0  0  0  0  0  0  0  0  0  0
  129.1030  127.2590   69.2880 C   0  0  0  0  0  0  0  0  0  0  0  0
  128.4730  127.2660   70.5300 C   0  0  0  0  0  0  0  0  0  0  0  0
  127.0920  127.1130   70.6050 C   0  0  0  0  0  0  0  0  0  0  0  0
  126.3390  126.9520   69.4460 C   0  0  0  0  0  0  0  0  0  0  0  0
  126.9730  126.9440   68.2080 C   0  0  0  0  0  0  0  0  0  0  0  0
  130.1580  126.2740   66.5060 C   0  0  0  0  0  0  0  0  0  0  0  0
  130.7860  126.2770   65.2520 C   0  0  0  0  0  0  0  0  0  0  0  0
  131.9920  125.3550   65.0320 C   0  0  0  0  0  0  0  0  0  0  0  0
  132.5930  125.0000   66.1700 F   0  0  0  0  0  0  0  0  0  0  0  0
  131.5980  124.2360   64.4240 F   0  0  0  0  0  0  0  0  0  0  0  0
  132.9000  125.9710   64.2760 F   0  0  0  0  0  0  0  0  0  0  0  0
  130.2550  127.1480   64.2580 C   0  0  0  0  0  0  0  0  0  0  0  0
  130.6170  127.4120   62.8860 C   0  0  0  0  0  0  0  0  0  0  0  0
  131.6580  126.7770   62.2600 N   0  0  0  0  0  0  0  0  0  0  0  0
  132.4770  130.7450   59.0030 C   0  0  0  0  0  0  0  0  0  0  0  0
  132.6770  131.4150   57.8000 C   0  0  0  0  0  0  0  0  0  0  0  0
  1  2  1  0
  2  3  1  0
  3  4  2  0
  3  5  1  0
  5  6  2  0
  6  7  1  0
  7  8  2  0
  8  9  1  0
  9 10  1  0
 10 11  2  0
 10 12  1  0
 12 13  1  0
 13 14  1  0
 14 15  2  0
 15 16  1  0
 16 17  1  0
 17 18  2  0
 18 19  1  0
 19 20  2  0
 20 21  1  0
 21 22  2  0
 16 23  2  0
 23 24  1  0
 24 25  1  0
 25 26  1  0
 25 27  1  0
 25 28  1  0
 24 29  2  0
 29 30  1  0
 30 31  1  0
  8 32  1  0
 32 33  2  0
 33  5  1  0
 30 12  2  0
 29 14  1  0
 22 17  1  0
M  END
>  <Binding energies>  (31) 
[-7.29]

>  <Ligand effiencies>  (31) 
[-0.2025]

>  <Interactions>  (31) 
["V-B:GLU:543:C:9870, V-A:HIS:456:CE1:4064, V-A:ASP:366:CG:3208, H-A:GLU:543:OE2:4905, V-A:ARG:545:CZ:4921, V-B:GLU:543:CB:9874, V-A:GLU:543:CD:4903, V-A:LEU:363:CD1:3184, V-A:TYR:539:CE1:4870, V-A:TYR:539:CD1:4868, V-A:PRO:540:CG:4881, V-A:PRO:540:CD:4882, V-A:ILE:538:CA:4855, H-A:ASP:366:OD2:3210, V-A:PRO:540:CB:4880, V-A:TYR:484:CZ:4342, V-A:HIS:456:CD2:4063, V-B:ARG:545:CG:9890, V-B:HIS:456:CE1:9037, H-A:TYR:539:N:4865, V-A:ILE:538:CG2:4858, V-A:VAL:537:C:4845, V-B:HIS:456:CD2:9035, V-B:GLY:544:C:9880, H-A:ASP:366:OD1:3209, V-B:ARG:545:CA:9887"]

$$$$
4cc_Grossjean_2025
     RDKit          3D

 31 34  0  0  0  0  0  0  0  0999 V2000
  129.8040  118.1050   60.4040 C   0  0  0  0  0  0  0  0  0  0  0  0
  130.1750  119.4060   59.9600 O   0  0  0  0  0  0  0  0  0  0  0  0
  130.0030  120.4830   60.8080 C   0  0  0  0  0  0  0  0  0  0  0  0
  130.6390  120.4070   62.0470 C   0  0  0  0  0  0  0  0  0  0  0  0
  130.5260  121.4450   62.9680 C   0  0  0  0  0  0  0  0  0  0  0  0
  129.7610  122.5730   62.6640 C   0  0  0  0  0  0  0  0  0  0  0  0
  129.7180  123.5770   63.6500 N   0  0  0  0  0  0  0  0  0  0  0  0
  130.7210  124.0710   64.4150 C   0  0  0  0  0  0  0  0  0  0  0  0
  131.8960  123.7140   64.3230 O   0  0  0  0  0  0  0  0  0  0  0  0
  130.3240  125.0900   65.3920 C   0  0  0  0  0  0  0  0  0  0  0  0
  130.6290  124.8390   67.1090 S   0  0  0  0  0  0  0  0  0  0  0  0
  129.9210  126.3870   67.5060 C   0  0  0  0  0  0  0  0  0  0  0  0
  129.8490  126.8160   68.7640 N   0  0  0  0  0  0  0  0  0  0  0  0
  129.2910  128.0360   68.9740 C   0  0  0  0  0  0  0  0  0  0  0  0
  129.2210  128.4920   70.4020 C   0  0  0  0  0  0  0  0  0  0  0  0
  130.3310  129.0910   71.0200 C   0  0  0  0  0  0  0  0  0  0  0  0
  130.2740  129.5150   72.3460 C   0  0  0  0  0  0  0  0  0  0  0  0
  129.1020  129.3440   73.0750 C   0  0  0  0  0  0  0  0  0  0  0  0
  127.9890  128.7500   72.4880 C   0  0  0  0  0  0  0  0  0  0  0  0
  128.0510  128.3270   71.1630 C   0  0  0  0  0  0  0  0  0  0  0  0
  128.7940  128.8120   67.9220 C   0  0  0  0  0  0  0  0  0  0  0  0
  128.8630  128.3680   66.5910 C   0  0  0  0  0  0  0  0  0  0  0  0
  128.3030  129.2730   65.4880 C   0  0  0  0  0  0  0  0  0  0  0  0
  129.1050  129.3580   64.4230 F   0  0  0  0  0  0  0  0  0  0  0  0
  127.1320  128.7980   65.0660 F   0  0  0  0  0  0  0  0  0  0  0  0
  128.1330  130.5080   65.9590 F   0  0  0  0  0  0  0  0  0  0  0  0
  129.4540  127.0940   66.3590 C   0  0  0  0  0  0  0  0  0  0  0  0
  129.6950  126.3240   65.1630 C   0  0  0  0  0  0  0  0  0  0  0  0
  129.3400  126.7660   63.9140 N   0  0  0  0  0  0  0  0  0  0  0  0
  129.1290  122.6630   61.4150 C   0  0  0  0  0  0  0  0  0  0  0  0
  129.2460  121.6230   60.4970 C   0  0  0  0  0  0  0  0  0  0  0  0
  1  2  1  0
  2  3  1  0
  3  4  2  0
  4  5  1  0
  5  6  2  0
  6  7  1  0
  7  8  1  0
  8  9  2  0
  8 10  1  0
 10 11  1  0
 11 12  1  0
 12 13  2  0
 13 14  1  0
 14 15  1  0
 15 16  2  0
 16 17  1  0
 17 18  2  0
 18 19  1  0
 19 20  2  0
 14 21  2  0
 21 22  1  0
 22 23  1  0
 23 24  1  0
 23 25  1  0
 23 26  1  0
 22 27  2  0
 27 28  1  0
 28 29  1  0
  6 30  1  0
 30 31  2  0
 31  3  1  0
 28 10  2  0
 27 12  1  0
 20 15  1  0
M  END
>  <Binding energies>  (32) 
[-7.16]

>  <Ligand effiencies>  (32) 
[-0.21058823529411766]

>  <Interactions>  (32) 
["V-B:ALA:541:CB:9860, V-A:TRP:381:CH2:3367, V-B:TYR:539:CD2:9842, V-B:TYR:539:C:9835, V-A:HIS:456:CE1:4064, H-A:GLU:543:OE2:4905, H-A:TYR:484:OH:4343, H-A:GLU:543:OE1:4904, V-B:GLU:543:CD:9876, V-B:GLU:543:CG:9875, H-A:HIS:456:NE2:4065, V-A:GLU:543:CD:4903, H-B:GLU:543:OE2:9878, V-A:GLU:543:CB:4901, V-A:TYR:484:CZ:4342, V-B:HIS:456:CE1:9037, V-A:TRP:381:CZ3:3366, V-A:LEU:475:CD2:4254, V-A:GLU:543:CG:4902, V-A:TRP:381:CZ2:3365, V-A:GLU:543:C:4897, V-B:HIS:456:CD2:9035, V-A:LYS:547:CE:4945, V-B:TYR:484:CZ:9314, V-B:TYR:484:CE1:9312, V-A:PRO:482:CG:4322, V-A:PRO:482:CB:4321, V-A:TYR:484:CE1:4340, V-A:LEU:475:CD1:4253, V-A:TRP:381:CE3:3363, V-A:TRP:381:CE2:3362, V-A:TRP:381:CD2:3360, V-A:GLY:544:CA:4909, V-A:GLY:544:C:4907, V-B:HIS:456:CG:9033"]

$$$$
4ce_Grossjean_2025
     RDKit          3D

 30 33  0  0  0  0  0  0  0  0999 V2000
  129.9970  119.5010   60.9680 C   0  0  0  0  0  0  0  0  0  0  0  0
  129.9120  121.0050   60.7900 C   0  0  0  0  0  0  0  0  0  0  0  0
  129.8780  121.5900   59.5220 C   0  0  0  0  0  0  0  0  0  0  0  0
  129.7910  122.9800   59.4340 C   0  0  0  0  0  0  0  0  0  0  0  0
  129.7400  123.7430   60.6020 C   0  0  0  0  0  0  0  0  0  0  0  0
  129.7840  123.0930   61.8410 C   0  0  0  0  0  0  0  0  0  0  0  0
  129.7040  123.9140   62.9800 N   0  0  0  0  0  0  0  0  0  0  0  0
  130.2800  123.7370   64.1960 C   0  0  0  0  0  0  0  0  0  0  0  0
  131.0070  122.7820   64.4770 O   0  0  0  0  0  0  0  0  0  0  0  0
  129.9840  124.7710   65.1890 C   0  0  0  0  0  0  0  0  0  0  0  0
  130.2570  124.4600   66.9020 S   0  0  0  0  0  0  0  0  0  0  0  0
  129.7390  126.0750   67.3240 C   0  0  0  0  0  0  0  0  0  0  0  0
  129.7230  126.4910   68.5880 N   0  0  0  0  0  0  0  0  0  0  0  0
  129.3200  127.7680   68.8160 C   0  0  0  0  0  0  0  0  0  0  0  0
  129.3180  128.2070   70.2510 C   0  0  0  0  0  0  0  0  0  0  0  0
  130.4740  128.7520   70.8340 C   0  0  0  0  0  0  0  0  0  0  0  0
  130.4820  129.1550   72.1670 C   0  0  0  0  0  0  0  0  0  0  0  0
  129.3310  129.0210   72.9360 C   0  0  0  0  0  0  0  0  0  0  0  0
  128.1740  128.4840   72.3830 C   0  0  0  0  0  0  0  0  0  0  0  0
  128.1700  128.0790   71.0500 C   0  0  0  0  0  0  0  0  0  0  0  0
  128.9140  128.6130   67.7780 C   0  0  0  0  0  0  0  0  0  0  0  0
  128.9220  128.1820   66.4420 C   0  0  0  0  0  0  0  0  0  0  0  0
  128.4670  129.1600   65.3530 C   0  0  0  0  0  0  0  0  0  0  0  0
  129.2290  129.1180   64.2590 F   0  0  0  0  0  0  0  0  0  0  0  0
  127.2190  128.8730   64.9820 F   0  0  0  0  0  0  0  0  0  0  0  0
  128.5100  130.4070   65.8220 F   0  0  0  0  0  0  0  0  0  0  0  0
  129.3590  126.8500   66.1890 C   0  0  0  0  0  0  0  0  0  0  0  0
  129.5070  126.0770   64.9800 C   0  0  0  0  0  0  0  0  0  0  0  0
  129.2100  126.5770   63.7390 N   0  0  0  0  0  0  0  0  0  0  0  0
  129.8640  121.7340   61.9350 N   0  0  0  0  0  0  0  0  0  0  0  0
  1  2  1  0
  2  3  2  0
  3  4  1  0
  4  5  2  0
  5  6  1  0
  6  7  1  0
  7  8  1  0
  8  9  2  0
  8 10  1  0
 10 11  1  0
 11 12  1  0
 12 13  2  0
 13 14  1  0
 14 15  1  0
 15 16  2  0
 16 17  1  0
 17 18  2  0
 18 19  1  0
 19 20  2  0
 14 21  2  0
 21 22  1  0
 22 23  1  0
 23 24  1  0
 23 25  1  0
 23 26  1  0
 22 27  2  0
 27 28  1  0
 28 29  1  0
  6 30  2  0
 30  2  1  0
 28 10  2  0
 27 12  1  0
 20 15  1  0
M  END
>  <Binding energies>  (33) 
[-7.49]

>  <Ligand effiencies>  (33) 
[-0.226969696969697]

>  <Interactions>  (33) 
["V-B:ALA:541:CB:9860, V-B:TYR:539:CE2:9844, V-B:TYR:539:CD2:9842, V-B:TYR:539:C:9835, V-A:HIS:456:CE1:4064, H-A:GLU:543:OE2:4905, H-A:TYR:484:OH:4343, H-A:GLU:543:OE1:4904, V-B:GLU:543:CD:9876, V-B:GLU:543:CG:9875, H-A:HIS:456:NE2:4065, V-B:GLU:543:CB:9874, V-A:GLU:543:CD:4903, H-B:GLU:543:OE2:9878, V-A:GLU:543:CB:4901, V-A:TYR:484:CZ:4342, V-B:HIS:456:CE1:9037, V-A:LEU:475:CD2:4254, V-A:GLU:543:CG:4902, V-A:GLU:543:C:4897, V-B:HIS:456:CD2:9035, V-A:LYS:547:CE:4945, V-B:TYR:484:CZ:9314, V-B:TYR:484:CE1:9312, V-A:TYR:484:CE1:4340, H-B:GLU:543:OE1:9877, V-A:GLY:544:CA:4909, V-A:GLY:544:C:4907"]

$$$$
4cf_Grossjean_2025
     RDKit          3D

 29 32  0  0  0  0  0  0  0  0999 V2000
  129.3670  126.5070   63.6670 N   0  0  0  0  0  0  0  0  0  0  0  0
  129.6080  126.0150   64.9240 C   0  0  0  0  0  0  0  0  0  0  0  0
  130.0450  124.7020   65.1650 C   0  0  0  0  0  0  0  0  0  0  0  0
  130.2880  123.6280   64.1980 C   0  0  0  0  0  0  0  0  0  0  0  0
  130.9810  122.6550   64.5020 O   0  0  0  0  0  0  0  0  0  0  0  0
  129.6950  123.7880   62.9900 N   0  0  0  0  0  0  0  0  0  0  0  0
  129.7650  122.9790   61.8400 C   0  0  0  0  0  0  0  0  0  0  0  0
  130.0460  121.6000   61.8280 C   0  0  0  0  0  0  0  0  0  0  0  0
  130.1000  120.9170   60.6110 C   0  0  0  0  0  0  0  0  0  0  0  0
  129.8740  121.6300   59.4330 C   0  0  0  0  0  0  0  0  0  0  0  0
  129.6090  122.9610   59.4170 N   0  0  0  0  0  0  0  0  0  0  0  0
  129.5610  123.6110   60.6080 C   0  0  0  0  0  0  0  0  0  0  0  0
  130.2600  124.4090   66.8890 S   0  0  0  0  0  0  0  0  0  0  0  0
  129.7570  126.0380   67.2740 C   0  0  0  0  0  0  0  0  0  0  0  0
  129.6960  126.4680   68.5330 N   0  0  0  0  0  0  0  0  0  0  0  0
  129.2770  127.7450   68.7330 C   0  0  0  0  0  0  0  0  0  0  0  0
  129.2110  128.1990   70.1620 C   0  0  0  0  0  0  0  0  0  0  0  0
  130.3050  128.8420   70.7620 C   0  0  0  0  0  0  0  0  0  0  0  0
  130.2520  129.2670   72.0870 C   0  0  0  0  0  0  0  0  0  0  0  0
  129.0970  129.0560   72.8320 C   0  0  0  0  0  0  0  0  0  0  0  0
  127.9960  128.4240   72.2630 C   0  0  0  0  0  0  0  0  0  0  0  0
  128.0550  128.0010   70.9380 C   0  0  0  0  0  0  0  0  0  0  0  0
  128.9460  128.5900   67.6700 C   0  0  0  0  0  0  0  0  0  0  0  0
  129.0110  128.1490   66.3390 C   0  0  0  0  0  0  0  0  0  0  0  0
  128.6290  129.1260   65.2220 C   0  0  0  0  0  0  0  0  0  0  0  0
  129.4330  129.0480   64.1590 F   0  0  0  0  0  0  0  0  0  0  0  0
  127.3900  128.8710   64.8040 F   0  0  0  0  0  0  0  0  0  0  0  0
  128.6920  130.3780   65.6760 F   0  0  0  0  0  0  0  0  0  0  0  0
  129.4320  126.8050   66.1170 C   0  0  0  0  0  0  0  0  0  0  0  0
  1  2  1  0
  2  3  2  0
  3  4  1  0
  4  5  2  0
  4  6  1  0
  6  7  1  0
  7  8  2  0
  8  9  1  0
  9 10  2  0
 10 11  1  0
 11 12  2  0
  3 13  1  0
 13 14  1  0
 14 15  2  0
 15 16  1  0
 16 17  1  0
 17 18  2  0
 18 19  1  0
 19 20  2  0
 20 21  1  0
 21 22  2  0
 16 23  2  0
 23 24  1  0
 24 25  1  0
 25 26  1  0
 25 27  1  0
 25 28  1  0
 24 29  2  0
 29  2  1  0
 12  7  1  0
 29 14  1  0
 22 17  1  0
M  END
>  <Binding energies>  (34) 
[-6.88]

>  <Ligand effiencies>  (34) 
[-0.215]

>  <Interactions>  (34) 
["V-B:ALA:541:CB:9860, V-B:TYR:539:CE2:9844, V-B:TYR:539:CD2:9842, V-B:TYR:539:C:9835, V-A:HIS:456:CE1:4064, H-A:GLU:543:OE2:4905, H-A:TYR:484:OH:4343, H-A:GLU:543:OE1:4904, V-B:GLU:543:CD:9876, V-B:GLU:543:CG:9875, H-A:HIS:456:NE2:4065, V-B:GLU:543:CB:9874, V-A:GLU:543:CD:4903, H-B:GLU:543:OE2:9878, V-A:GLU:543:CB:4901, V-A:TYR:484:CZ:4342, V-B:HIS:456:CE1:9037, V-A:GLU:543:CG:4902, V-A:GLU:543:C:4897, V-B:HIS:456:CD2:9035, V-A:LYS:547:CE:4945, V-A:TYR:484:CE1:4340, V-A:GLY:544:C:4907"]

$$$$
4ci_Grossjean_2025
     RDKit          3D

 28 31  0  0  0  0  0  0  0  0999 V2000
  129.2740  126.5030   63.7630 N   0  0  0  0  0  0  0  0  0  0  0  0
  129.5490  126.0070   65.0100 C   0  0  0  0  0  0  0  0  0  0  0  0
  129.9650  124.6850   65.2380 C   0  0  0  0  0  0  0  0  0  0  0  0
  130.1950  123.6180   64.2590 C   0  0  0  0  0  0  0  0  0  0  0  0
  130.9860  122.7030   64.4990 O   0  0  0  0  0  0  0  0  0  0  0  0
  129.4960  123.7290   63.1010 N   0  0  0  0  0  0  0  0  0  0  0  0
  129.5250  122.8690   62.0110 C   0  0  0  0  0  0  0  0  0  0  0  0
  130.7030  122.4900   61.3680 C   0  0  0  0  0  0  0  0  0  0  0  0
  130.3050  121.6470   60.3570 C   0  0  0  0  0  0  0  0  0  0  0  0
  128.9560  121.5230   60.3890 O   0  0  0  0  0  0  0  0  0  0  0  0
  128.4730  122.3030   61.4410 N   0  0  0  0  0  0  0  0  0  0  0  0
  130.2400  124.3890   66.9530 S   0  0  0  0  0  0  0  0  0  0  0  0
  129.7880  126.0300   67.3540 C   0  0  0  0  0  0  0  0  0  0  0  0
  129.7920  126.4650   68.6120 N   0  0  0  0  0  0  0  0  0  0  0  0
  129.4300  127.7560   68.8260 C   0  0  0  0  0  0  0  0  0  0  0  0
  129.4390  128.2160   70.2550 C   0  0  0  0  0  0  0  0  0  0  0  0
  130.6040  128.7470   70.8330 C   0  0  0  0  0  0  0  0  0  0  0  0
  130.6190  129.1760   72.1580 C   0  0  0  0  0  0  0  0  0  0  0  0
  129.4650  129.0780   72.9280 C   0  0  0  0  0  0  0  0  0  0  0  0
  128.2990  128.5520   72.3830 C   0  0  0  0  0  0  0  0  0  0  0  0
  128.2890  128.1230   71.0580 C   0  0  0  0  0  0  0  0  0  0  0  0
  129.0480  128.5980   67.7760 C   0  0  0  0  0  0  0  0  0  0  0  0
  129.0400  128.1500   66.4450 C   0  0  0  0  0  0  0  0  0  0  0  0
  128.6100  129.1270   65.3440 C   0  0  0  0  0  0  0  0  0  0  0  0
  129.3640  129.0440   64.2470 F   0  0  0  0  0  0  0  0  0  0  0  0
  127.3520  128.8730   64.9840 F   0  0  0  0  0  0  0  0  0  0  0  0
  128.6950  130.3790   65.7940 F   0  0  0  0  0  0  0  0  0  0  0  0
  129.4310  126.8010   66.2090 C   0  0  0  0  0  0  0  0  0  0  0  0
  1  2  1  0
  2  3  2  0
  3  4  1  0
  4  5  2  0
  4  6  1  0
  6  7  1  0
  7  8  1  0
  8  9  2  0
  9 10  1  0
 10 11  1  0
  3 12  1  0
 12 13  1  0
 13 14  2  0
 14 15  1  0
 15 16  1  0
 16 17  2  0
 17 18  1  0
 18 19  2  0
 19 20  1  0
 20 21  2  0
 15 22  2  0
 22 23  1  0
 23 24  1  0
 24 25  1  0
 24 26  1  0
 24 27  1  0
 23 28  2  0
 28  2  1  0
 11  7  2  0
 28 13  1  0
 21 16  1  0
M  END
>  <Binding energies>  (35) 
[-6.82]

>  <Ligand effiencies>  (35) 
[-0.22]

>  <Interactions>  (35) 
["V-B:ALA:541:CB:9860, V-A:HIS:456:CE1:4064, H-A:GLU:543:OE2:4905, H-A:TYR:484:OH:4343, H-A:GLU:543:OE1:4904, V-B:GLU:543:CD:9876, V-B:GLU:543:CG:9875, H-A:HIS:456:NE2:4065, V-B:GLU:543:CB:9874, V-A:GLU:543:CD:4903, H-B:ALA:541:N:9859, H-B:GLU:543:OE2:9878, V-A:GLU:543:CB:4901, V-A:TYR:484:CZ:4342, V-B:HIS:456:CE1:9037, V-A:GLU:543:CG:4902, V-A:GLU:543:C:4897, V-B:HIS:456:CD2:9035, V-A:LYS:547:CE:4945, V-A:TYR:484:CE1:4340, H-B:GLU:543:OE1:9877, V-A:GLY:544:CA:4909, V-A:GLY:544:C:4907"]

$$$$
8a_Ghoteimi_2023
     RDKit          3D

 40 44  0  0  0  0  0  0  0  0999 V2000
  129.9110  124.3310   71.9970 C   0  0  0  0  0  0  0  0  0  0  0  0
  130.5040  125.5160   72.7620 C   0  0  0  0  0  0  0  0  0  0  0  0
  129.4590  126.3960   73.1560 O   0  0  0  0  0  0  0  0  0  0  0  0
  129.4340  127.6880   72.7360 C   0  0  0  0  0  0  0  0  0  0  0  0
  129.4470  128.6530   73.5070 O   0  0  0  0  0  0  0  0  0  0  0  0
  129.3840  127.8260   71.2420 C   0  0  0  0  0  0  0  0  0  0  0  0
  130.3370  128.6250   70.5970 C   0  0  0  0  0  0  0  0  0  0  0  0
  130.3160  128.7730   69.2130 C   0  0  0  0  0  0  0  0  0  0  0  0
  129.3440  128.1300   68.4450 C   0  0  0  0  0  0  0  0  0  0  0  0
  129.4180  128.3570   67.0560 N   0  0  0  0  0  0  0  0  0  0  0  0
  128.4310  128.5100   66.1390 C   0  0  0  0  0  0  0  0  0  0  0  0
  127.2290  128.4670   66.4000 O   0  0  0  0  0  0  0  0  0  0  0  0
  128.8870  128.7440   64.7660 C   0  0  0  0  0  0  0  0  0  0  0  0
  128.6680  130.3230   64.0110 S   0  0  0  0  0  0  0  0  0  0  0  0
  129.4050  129.7680   62.5260 C   0  0  0  0  0  0  0  0  0  0  0  0
  129.5250  130.5640   61.4640 N   0  0  0  0  0  0  0  0  0  0  0  0
  130.1080  130.0320   60.3570 C   0  0  0  0  0  0  0  0  0  0  0  0
  130.2140  130.9360   59.1710 C   0  0  0  0  0  0  0  0  0  0  0  0
  131.2150  130.7510   58.2070 C   0  0  0  0  0  0  0  0  0  0  0  0
  131.3150  131.6030   57.1110 C   0  0  0  0  0  0  0  0  0  0  0  0
  130.4180  132.6570   56.9490 C   0  0  0  0  0  0  0  0  0  0  0  0
  130.5950  133.4530   55.8330 O   0  0  0  0  0  0  0  0  0  0  0  0
  130.4890  132.8660   54.5400 C   0  0  0  0  0  0  0  0  0  0  0  0
  129.4100  132.8470   57.9040 C   0  0  0  0  0  0  0  0  0  0  0  0
  129.3130  131.9950   59.0010 C   0  0  0  0  0  0  0  0  0  0  0  0
  130.5740  128.7160   60.3190 C   0  0  0  0  0  0  0  0  0  0  0  0
  130.4650  127.8820   61.4370 C   0  0  0  0  0  0  0  0  0  0  0  0
  131.0060  126.5010   61.3530 C   0  0  0  0  0  0  0  0  0  0  0  0
  131.9900  126.0760   62.2480 C   0  0  0  0  0  0  0  0  0  0  0  0
  132.4850  124.7770   62.1850 C   0  0  0  0  0  0  0  0  0  0  0  0
  132.0020  123.8790   61.2330 C   0  0  0  0  0  0  0  0  0  0  0  0
  132.5510  122.6110   61.2460 O   0  0  0  0  0  0  0  0  0  0  0  0
  133.5080  122.2790   62.2450 C   0  0  0  0  0  0  0  0  0  0  0  0
  131.0070  124.3020   60.3380 C   0  0  0  0  0  0  0  0  0  0  0  0
  130.5130  125.6020   60.4040 C   0  0  0  0  0  0  0  0  0  0  0  0
  129.8370  128.4110   62.6000 C   0  0  0  0  0  0  0  0  0  0  0  0
  129.5120  127.8450   63.8860 C   0  0  0  0  0  0  0  0  0  0  0  0
  129.7780  126.5370   64.2040 N   0  0  0  0  0  0  0  0  0  0  0  0
  128.3890  127.3240   69.0830 C   0  0  0  0  0  0  0  0  0  0  0  0
  128.4110  127.1760   70.4670 C   0  0  0  0  0  0  0  0  0  0  0  0
  1  2  1  0
  2  3  1  0
  3  4  1  0
  4  5  2  0
  4  6  1  0
  6  7  2  0
  7  8  1  0
  8  9  2  0
  9 10  1  0
 10 11  1  0
 11 12  2  0
 11 13  1  0
 13 14  1  0
 14 15  1  0
 15 16  2  0
 16 17  1  0
 17 18  1  0
 18 19  2  0
 19 20  1  0
 20 21  2  0
 21 22  1  0
 22 23  1  0
 21 24  1  0
 24 25  2  0
 17 26  2  0
 26 27  1  0
 27 28  1  0
 28 29  2  0
 29 30  1  0
 30 31  2  0
 31 32  1  0
 32 33  1  0
 31 34  1  0
 34 35  2  0
 27 36  2  0
 36 37  1  0
 37 38  1  0
  9 39  1  0
 39 40  2  0
 40  6  1  0
 37 13  2  0
 36 15  1  0
 25 18  1  0
 35 28  1  0
M  END
>  <Binding energies>  (36) 
[-8.89]

>  <Ligand effiencies>  (36) 
[-0.20674418604651165]

>  <Interactions>  (36) 
["V-A:HIS:456:CE1:4064, V-A:ASP:366:CG:3208, H-A:GLU:543:OE1:4904, V-B:GLU:543:CD:9876, V-A:GLU:543:CD:4903, H-B:GLU:543:OE2:9878, V-A:PRO:540:N:4879, V-A:TYR:539:C:4862, V-A:TYR:539:CD1:4868, V-A:PRO:540:CA:4878, V-A:TYR:539:CG:4867, V-A:PRO:540:CD:4882, V-A:ILE:538:CA:4855, V-A:PRO:540:CB:4880, V-A:GLY:454:CA:4044, V-A:GLU:543:CB:4901, V-B:HIS:456:CE1:9037, V-A:ILE:369:CD1:3234, V-A:LEU:475:CD2:4254, H-A:TYR:539:N:4865, V-A:GLU:543:CG:4902, V-A:ILE:538:CD1:4860, V-A:GLU:543:C:4897, H-B:LYS:547:NZ:9919, H-A:LYS:547:NZ:4946, V-A:HIS:456:CG:4061, V-A:GLY:544:C:4907"]

$$$$
8c_Ghoteimi_2023
     RDKit          3D

 34 38  0  0  0  0  0  0  0  0999 V2000
  128.0290  130.2460   74.6370 C   0  0  0  0  0  0  0  0  0  0  0  0
  129.0330  129.3150   74.2490 O   0  0  0  0  0  0  0  0  0  0  0  0
  129.1420  128.9570   72.9190 C   0  0  0  0  0  0  0  0  0  0  0  0
  128.0140  128.3860   72.3330 C   0  0  0  0  0  0  0  0  0  0  0  0
  128.0340  127.9910   70.9980 C   0  0  0  0  0  0  0  0  0  0  0  0
  129.1840  128.1590   70.2140 C   0  0  0  0  0  0  0  0  0  0  0  0
  129.2130  127.7340   68.7800 C   0  0  0  0  0  0  0  0  0  0  0  0
  128.6510  128.5170   67.7670 C   0  0  0  0  0  0  0  0  0  0  0  0
  128.6940  128.0970   66.4330 C   0  0  0  0  0  0  0  0  0  0  0  0
  128.0820  128.9470   65.3860 C   0  0  0  0  0  0  0  0  0  0  0  0
  126.8430  128.6060   64.8390 C   0  0  0  0  0  0  0  0  0  0  0  0
  126.2650  129.4100   63.8610 C   0  0  0  0  0  0  0  0  0  0  0  0
  126.9150  130.5620   63.4140 C   0  0  0  0  0  0  0  0  0  0  0  0
  126.2650  131.3000   62.4440 O   0  0  0  0  0  0  0  0  0  0  0  0
  126.6820  132.6380   62.1940 C   0  0  0  0  0  0  0  0  0  0  0  0
  128.1620  130.9010   63.9630 C   0  0  0  0  0  0  0  0  0  0  0  0
  128.7390  130.0950   64.9410 C   0  0  0  0  0  0  0  0  0  0  0  0
  129.3270  126.8600   66.1420 C   0  0  0  0  0  0  0  0  0  0  0  0
  129.5500  126.1430   64.9150 C   0  0  0  0  0  0  0  0  0  0  0  0
  129.1270  126.6180   63.6990 N   0  0  0  0  0  0  0  0  0  0  0  0
  130.2330  124.9280   65.0810 C   0  0  0  0  0  0  0  0  0  0  0  0
  130.6280  123.9560   64.0590 C   0  0  0  0  0  0  0  0  0  0  0  0
  131.7670  123.4850   64.0440 O   0  0  0  0  0  0  0  0  0  0  0  0
  129.6640  123.6330   63.1620 N   0  0  0  0  0  0  0  0  0  0  0  0
  129.7740  122.7420   62.1030 C   0  0  0  0  0  0  0  0  0  0  0  0
  129.3170  122.8830   60.8780 N   0  0  0  0  0  0  0  0  0  0  0  0
  129.6070  121.8380   60.1290 C   0  0  0  0  0  0  0  0  0  0  0  0
  130.3160  120.8140   60.7480 C   0  0  0  0  0  0  0  0  0  0  0  0
  130.6140  121.2550   62.4040 S   0  0  0  0  0  0  0  0  0  0  0  0
  130.6230  124.6440   66.7780 S   0  0  0  0  0  0  0  0  0  0  0  0
  129.8690  126.1480   67.2520 C   0  0  0  0  0  0  0  0  0  0  0  0
  129.8270  126.5470   68.5230 N   0  0  0  0  0  0  0  0  0  0  0  0
  130.3130  128.7360   70.8100 C   0  0  0  0  0  0  0  0  0  0  0  0
  130.2970  129.1310   72.1440 C   0  0  0  0  0  0  0  0  0  0  0  0
  1  2  1  0
  2  3  1  0
  3  4  2  0
  4  5  1  0
  5  6  2  0
  6  7  1  0
  7  8  2  0
  8  9  1  0
  9 10  1  0
 10 11  2  0
 11 12  1  0
 12 13  2  0
 13 14  1  0
 14 15  1  0
 13 16  1  0
 16 17  2  0
  9 18  2  0
 18 19  1  0
 19 20  1  0
 19 21  2  0
 21 22  1  0
 22 23  2  0
 22 24  1  0
 24 25  1  0
 25 26  2  0
 26 27  1  0
 27 28  2  0
 28 29  1  0
 21 30  1  0
 30 31  1  0
 31 32  2  0
  6 33  1  0
 33 34  2  0
 34  3  1  0
 32  7  1  0
 17 10  1  0
 31 18  1  0
 29 25  1  0
M  END
>  <Binding energies>  (37) 
[-8.08]

>  <Ligand effiencies>  (37) 
[-0.21837837837837837]

>  <Interactions>  (37) 
["V-B:ALA:541:CB:9860, V-B:TYR:539:CD2:9842, V-A:HIS:456:CE1:4064, H-A:TYR:484:OH:4343, H-A:GLU:543:OE1:4904, V-B:GLU:543:CD:9876, V-B:GLU:543:CG:9875, H-A:HIS:456:NE2:4065, V-B:GLU:543:CB:9874, V-A:GLU:543:CD:4903, H-B:GLU:543:OE2:9878, V-A:GLU:543:CB:4901, V-A:TYR:484:CZ:4342, V-B:HIS:456:CE1:9037, V-A:LEU:475:CD2:4254, V-A:GLU:543:CG:4902, V-A:GLU:543:C:4897, V-B:HIS:456:CD2:9035, V-A:LYS:547:CE:4945, H-A:LYS:547:NZ:4946, V-A:TYR:484:CE1:4340, H-B:GLU:543:OE1:9877, V-A:GLY:544:C:4907"]

$$$$
8d_Ghoteimi_2023
     RDKit          3D

 30 33  0  0  0  0  0  0  0  0999 V2000
  134.5140  125.0010   63.3750 C   0  0  0  0  0  0  0  0  0  0  0  0
  134.0180  124.7540   64.6830 O   0  0  0  0  0  0  0  0  0  0  0  0
  132.7000  124.9120   64.9700 C   0  0  0  0  0  0  0  0  0  0  0  0
  132.2480  125.0070   66.1140 O   0  0  0  0  0  0  0  0  0  0  0  0
  131.8490  124.9580   63.7600 C   0  0  0  0  0  0  0  0  0  0  0  0
  131.2500  123.4600   63.0470 S   0  0  0  0  0  0  0  0  0  0  0  0
  130.4210  124.3450   61.7870 C   0  0  0  0  0  0  0  0  0  0  0  0
  129.7150  123.7260   60.8400 N   0  0  0  0  0  0  0  0  0  0  0  0
  129.1090  124.5090   59.9090 C   0  0  0  0  0  0  0  0  0  0  0  0
  128.3270  123.7900   58.8560 C   0  0  0  0  0  0  0  0  0  0  0  0
  126.9250  123.8230   58.8440 C   0  0  0  0  0  0  0  0  0  0  0  0
  126.2030  123.1510   57.8630 C   0  0  0  0  0  0  0  0  0  0  0  0
  126.8600  122.4290   56.8670 C   0  0  0  0  0  0  0  0  0  0  0  0
  126.0630  121.7950   55.9350 O   0  0  0  0  0  0  0  0  0  0  0  0
  124.6550  122.0040   55.9670 C   0  0  0  0  0  0  0  0  0  0  0  0
  128.2620  122.3910   56.8680 C   0  0  0  0  0  0  0  0  0  0  0  0
  128.9810  123.0650   57.8520 C   0  0  0  0  0  0  0  0  0  0  0  0
  129.2160  125.9030   59.9220 C   0  0  0  0  0  0  0  0  0  0  0  0
  129.9540  126.5520   60.9170 C   0  0  0  0  0  0  0  0  0  0  0  0
  130.0410  128.0310   60.9090 C   0  0  0  0  0  0  0  0  0  0  0  0
  129.2000  128.7880   61.7260 C   0  0  0  0  0  0  0  0  0  0  0  0
  129.2760  130.1780   61.7120 C   0  0  0  0  0  0  0  0  0  0  0  0
  130.1930  130.8300   60.8880 C   0  0  0  0  0  0  0  0  0  0  0  0
  130.1970  132.2100   60.9390 O   0  0  0  0  0  0  0  0  0  0  0  0
  128.9990  132.9200   60.6430 C   0  0  0  0  0  0  0  0  0  0  0  0
  131.0410  130.0660   60.0690 C   0  0  0  0  0  0  0  0  0  0  0  0
  130.9630  128.6760   60.0840 C   0  0  0  0  0  0  0  0  0  0  0  0
  130.5930  125.7540   61.9020 C   0  0  0  0  0  0  0  0  0  0  0  0
  131.4130  126.0750   63.0370 C   0  0  0  0  0  0  0  0  0  0  0  0
  131.7390  127.3650   63.3720 N   0  0  0  0  0  0  0  0  0  0  0  0
  1  2  1  0
  2  3  1  0
  3  4  2  0
  3  5  1  0
  5  6  1  0
  6  7  1  0
  7  8  2  0
  8  9  1  0
  9 10  1  0
 10 11  2  0
 11 12  1  0
 12 13  2  0
 13 14  1  0
 14 15  1  0
 13 16  1  0
 16 17  2  0
  9 18  2  0
 18 19  1  0
 19 20  1  0
 20 21  2  0
 21 22  1  0
 22 23  2  0
 23 24  1  0
 24 25  1  0
 23 26  1  0
 26 27  2  0
 19 28  2  0
 28 29  1  0
 29 30  1  0
 29  5  2  0
 28  7  1  0
 17 10  1  0
 27 20  1  0
M  END
>  <Binding energies>  (38) 
[-6.72]

>  <Ligand effiencies>  (38) 
[-0.21]

>  <Interactions>  (38) 
["V-B:TYR:539:CE2:9844, V-B:MET:535:CE:9803, V-B:PRO:540:CD:9855, V-B:PRO:540:CA:9851, V-B:TYR:539:CD2:9842, V-B:PRO:540:N:9852, V-B:PRO:540:CB:9853, V-B:TYR:539:CE1:9843, V-B:TYR:539:C:9835, V-B:TYR:539:CZ:9845, V-A:ASP:366:CG:3208, H-A:GLU:543:OE2:4905, H-A:TYR:484:OH:4343, H-A:GLY:454:N:4045, H-A:GLU:543:OE1:4904, V-A:ARG:545:CZ:4921, H-A:HIS:456:NE2:4065, V-A:GLU:543:CD:4903, V-A:PRO:540:CA:4878, H-A:ALA:541:N:4886, H-A:ASP:366:OD2:3210, V-A:GLY:453:CA:4039, V-A:GLY:453:C:4037, V-B:LEU:363:CD1:8156, H-B:TYR:539:N:9838, V-B:PRO:540:CG:9854, V-B:ILE:538:CG2:9831, V-B:TYR:539:CD1:9841, V-B:TYR:539:CA:9837, V-B:TYR:539:CG:9840, V-B:ILE:538:CA:9828, V-B:ILE:538:CB:9830"]

$$$$
9a_Ghoteimi_2023
     RDKit          3D

 48 54  0  0  0  0  0  0  0  0999 V2000
  124.8300  130.0870   57.8570 C   0  0  0  0  0  0  0  0  0  0  0  0
  123.8610  130.7090   58.8680 C   0  0  0  0  0  0  0  0  0  0  0  0
  124.2400  132.0570   59.1210 O   0  0  0  0  0  0  0  0  0  0  0  0
  124.2800  132.5480   60.3850 C   0  0  0  0  0  0  0  0  0  0  0  0
  123.7100  133.5890   60.7290 O   0  0  0  0  0  0  0  0  0  0  0  0
  125.0930  131.7050   61.3250 C   0  0  0  0  0  0  0  0  0  0  0  0
  124.4410  130.7910   62.1630 C   0  0  0  0  0  0  0  0  0  0  0  0
  125.1670  129.9970   63.0460 C   0  0  0  0  0  0  0  0  0  0  0  0
  126.5560  130.0970   63.1100 C   0  0  0  0  0  0  0  0  0  0  0  0
  127.1850  129.2460   64.0390 N   0  0  0  0  0  0  0  0  0  0  0  0
  127.9590  129.5370   65.1140 C   0  0  0  0  0  0  0  0  0  0  0  0
  128.2510  130.6800   65.4670 O   0  0  0  0  0  0  0  0  0  0  0  0
  128.4450  128.3780   65.8680 C   0  0  0  0  0  0  0  0  0  0  0  0
  128.2370  128.3030   67.6190 S   0  0  0  0  0  0  0  0  0  0  0  0
  129.0100  126.7370   67.6890 C   0  0  0  0  0  0  0  0  0  0  0  0
  129.1530  126.0800   68.8400 N   0  0  0  0  0  0  0  0  0  0  0  0
  129.7570  124.8630   68.7840 C   0  0  0  0  0  0  0  0  0  0  0  0
  129.8970  124.1390   70.0840 C   0  0  0  0  0  0  0  0  0  0  0  0
  130.0560  122.7490   70.1110 C   0  0  0  0  0  0  0  0  0  0  0  0
  130.1880  122.0670   71.3170 C   0  0  0  0  0  0  0  0  0  0  0  0
  130.1790  122.7520   72.5430 C   0  0  0  0  0  0  0  0  0  0  0  0
  130.2910  122.0790   73.7630 N   0  0  0  0  0  0  0  0  0  0  0  0
  130.9150  120.7430   73.8530 C   0  0  0  0  0  0  0  0  0  0  0  0
  130.6290  120.0100   75.1810 C   0  0  0  0  0  0  0  0  0  0  0  0
  131.0100  120.8250   76.2780 O   0  0  0  0  0  0  0  0  0  0  0  0
  130.2920  122.0480   76.2910 C   0  0  0  0  0  0  0  0  0  0  0  0
  130.5740  122.8400   74.9980 C   0  0  0  0  0  0  0  0  0  0  0  0
  130.0050  124.1440   72.5110 C   0  0  0  0  0  0  0  0  0  0  0  0
  129.8700  124.8240   71.3050 C   0  0  0  0  0  0  0  0  0  0  0  0
  130.2380  124.3230   67.5890 C   0  0  0  0  0  0  0  0  0  0  0  0
  130.1080  125.0200   66.3820 C   0  0  0  0  0  0  0  0  0  0  0  0
  130.6700  124.4160   65.1470 C   0  0  0  0  0  0  0  0  0  0  0  0
  131.8220  124.9440   64.5570 C   0  0  0  0  0  0  0  0  0  0  0  0
  132.3550  124.3690   63.4080 C   0  0  0  0  0  0  0  0  0  0  0  0
  131.7600  123.2380   62.8250 C   0  0  0  0  0  0  0  0  0  0  0  0
  132.2710  122.6510   61.6650 N   0  0  0  0  0  0  0  0  0  0  0  0
  132.4800  123.4880   60.4670 C   0  0  0  0  0  0  0  0  0  0  0  0
  133.3840  122.8220   59.4080 C   0  0  0  0  0  0  0  0  0  0  0  0
  132.8620  121.5510   59.0520 O   0  0  0  0  0  0  0  0  0  0  0  0
  132.7890  120.6830   60.1720 C   0  0  0  0  0  0  0  0  0  0  0  0
  131.8690  121.2910   61.2520 C   0  0  0  0  0  0  0  0  0  0  0  0
  130.6060  122.7150   63.4270 C   0  0  0  0  0  0  0  0  0  0  0  0
  130.0710  123.2930   64.5740 C   0  0  0  0  0  0  0  0  0  0  0  0
  129.4460  126.2800   66.4110 C   0  0  0  0  0  0  0  0  0  0  0  0
  129.0880  127.2280   65.3850 C   0  0  0  0  0  0  0  0  0  0  0  0
  129.3450  127.0080   64.0560 N   0  0  0  0  0  0  0  0  0  0  0  0
  127.2190  131.0080   62.2720 C   0  0  0  0  0  0  0  0  0  0  0  0
  126.4920  131.8020   61.3890 C   0  0  0  0  0  0  0  0  0  0  0  0
  1  2  1  0
  2  3  1  0
  3  4  1  0
  4  5  2  0
  4  6  1  0
  6  7  2  0
  7  8  1  0
  8  9  2  0
  9 10  1  0
 10 11  1  0
 11 12  2  0
 11 13  1  0
 13 14  1  0
 14 15  1  0
 15 16  2  0
 16 17  1  0
 17 18  1  0
 18 19  2  0
 19 20  1  0
 20 21  2  0
 21 22  1  0
 22 23  1  0
 23 24  1  0
 24 25  1  0
 25 26  1  0
 26 27  1  0
 21 28  1  0
 28 29  2  0
 17 30  2  0
 30 31  1  0
 31 32  1  0
 32 33  2  0
 33 34  1  0
 34 35  2  0
 35 36  1  0
 36 37  1  0
 37 38  1  0
 38 39  1  0
 39 40  1  0
 40 41  1  0
 35 42  1  0
 42 43  2  0
 31 44  2  0
 44 45  1  0
 45 46  1  0
  9 47  1  0
 47 48  2  0
 48  6  1  0
 45 13  2  0
 44 15  1  0
 29 18  1  0
 43 32  1  0
 27 22  1  0
 41 36  1  0
M  END
>  <Binding energies>  (39) 
[-9.17]

>  <Ligand effiencies>  (39) 
[-0.17980392156862746]

>  <Interactions>  (39) 
["V-B:ALA:541:CB:9860, V-B:TYR:539:CE2:9844, V-A:TRP:381:CH2:3367, V-B:GLU:543:C:9870, V-A:HIS:456:CE1:4064, H-A:GLU:543:OE2:4905, H-A:GLU:543:OE1:4904, V-B:GLU:543:CD:9876, V-B:GLU:543:CG:9875, V-B:GLU:543:CB:9874, V-A:GLU:543:CD:4903, H-B:GLU:543:OE2:9878, V-A:TYR:539:CE2:4871, V-A:TYR:484:CZ:4342, V-A:HIS:456:CD2:4063, V-B:HIS:456:CE1:9037, V-A:ILE:369:CG2:3232, V-A:ILE:369:CD1:3234, V-A:LEU:475:CD2:4254, H-B:TYR:484:OH:9315, V-A:GLU:543:CG:4902, V-A:TYR:484:CG:4337, V-A:TYR:484:CB:4336, V-B:GLU:543:CA:9872, V-A:TYR:484:CD1:4338, V-A:ASP:473:CB:4234, V-B:ASP:366:CG:8180, V-B:ASP:366:CB:8179, H-A:TYR:539:OH:4873, V-A:TYR:484:CE1:4340, V-A:ILE:369:CB:3231, V-A:ASP:473:CG:4235, V-B:ILE:369:CD1:8206, V-A:TYR:484:CE2:4341, V-A:TYR:484:CD2:4339, V-B:ILE:369:CG2:8204, V-B:ASP:366:CA:8177, V-B:ASP:366:C:8175, H-A:LYS:471:NZ:4216"]

$$$$
9b_Ghoteimi_2023
     RDKit          3D

 42 48  0  0  0  0  0  0  0  0999 V2000
  129.8250  127.3020   65.3600 N   0  0  0  0  0  0  0  0  0  0  0  0
  129.5240  127.2720   66.6990 C   0  0  0  0  0  0  0  0  0  0  0  0
  129.0410  128.3830   67.4080 C   0  0  0  0  0  0  0  0  0  0  0  0
  128.7440  129.7280   66.9080 C   0  0  0  0  0  0  0  0  0  0  0  0
  128.6030  130.6720   67.6880 O   0  0  0  0  0  0  0  0  0  0  0  0
  128.6360  129.8380   65.5600 N   0  0  0  0  0  0  0  0  0  0  0  0
  128.3530  130.9810   64.8230 C   0  0  0  0  0  0  0  0  0  0  0  0
  127.5660  130.9690   63.6730 C   0  0  0  0  0  0  0  0  0  0  0  0
  127.5260  132.2790   63.2530 C   0  0  0  0  0  0  0  0  0  0  0  0
  128.2520  133.0400   64.1070 O   0  0  0  0  0  0  0  0  0  0  0  0
  128.7710  132.2060   65.0980 N   0  0  0  0  0  0  0  0  0  0  0  0
  128.7930  127.9940   69.1100 S   0  0  0  0  0  0  0  0  0  0  0  0
  129.3540  126.3580   68.8650 C   0  0  0  0  0  0  0  0  0  0  0  0
  129.4360  125.4900   69.8710 N   0  0  0  0  0  0  0  0  0  0  0  0
  129.9020  124.2470   69.5780 C   0  0  0  0  0  0  0  0  0  0  0  0
  130.0030  123.2990   70.7290 C   0  0  0  0  0  0  0  0  0  0  0  0
  129.1610  122.1850   70.8250 C   0  0  0  0  0  0  0  0  0  0  0  0
  129.2510  121.3140   71.9070 C   0  0  0  0  0  0  0  0  0  0  0  0
  130.1760  121.5330   72.9390 C   0  0  0  0  0  0  0  0  0  0  0  0
  130.2790  120.6640   74.0320 N   0  0  0  0  0  0  0  0  0  0  0  0
  130.4030  121.1750   75.4120 C   0  0  0  0  0  0  0  0  0  0  0  0
  130.1580  120.1060   76.4960 C   0  0  0  0  0  0  0  0  0  0  0  0
  131.0160  118.9970   76.2870 O   0  0  0  0  0  0  0  0  0  0  0  0
  130.7860  118.3910   75.0260 C   0  0  0  0  0  0  0  0  0  0  0  0
  131.0460  119.4080   73.8930 C   0  0  0  0  0  0  0  0  0  0  0  0
  131.0290  122.6390   72.8270 C   0  0  0  0  0  0  0  0  0  0  0  0
  130.9430  123.5090   71.7430 C   0  0  0  0  0  0  0  0  0  0  0  0
  130.2560  123.8700   68.2800 C   0  0  0  0  0  0  0  0  0  0  0  0
  130.1520  124.7730   67.2160 C   0  0  0  0  0  0  0  0  0  0  0  0
  130.5140  124.3140   65.8500 C   0  0  0  0  0  0  0  0  0  0  0  0
  131.5300  124.9530   65.1380 C   0  0  0  0  0  0  0  0  0  0  0  0
  131.8830  124.5130   63.8660 C   0  0  0  0  0  0  0  0  0  0  0  0
  131.2300  123.4220   63.2710 C   0  0  0  0  0  0  0  0  0  0  0  0
  131.5800  122.9540   62.0020 N   0  0  0  0  0  0  0  0  0  0  0  0
  132.8530  123.3900   61.3970 C   0  0  0  0  0  0  0  0  0  0  0  0
  132.9230  123.1340   59.8760 C   0  0  0  0  0  0  0  0  0  0  0  0
  132.6820  121.7610   59.6040 O   0  0  0  0  0  0  0  0  0  0  0  0
  131.4020  121.3520   60.0610 C   0  0  0  0  0  0  0  0  0  0  0  0
  131.2900  121.5680   61.5850 C   0  0  0  0  0  0  0  0  0  0  0  0
  130.2230  122.7770   64.0040 C   0  0  0  0  0  0  0  0  0  0  0  0
  129.8690  123.2170   65.2770 C   0  0  0  0  0  0  0  0  0  0  0  0
  129.7000  126.0910   67.5060 C   0  0  0  0  0  0  0  0  0  0  0  0
  1  2  1  0
  2  3  2  0
  3  4  1  0
  4  5  2  0
  4  6  1  0
  6  7  1  0
  7  8  1  0
  8  9  2  0
  9 10  1  0
 10 11  1  0
  3 12  1  0
 12 13  1  0
 13 14  2  0
 14 15  1  0
 15 16  1  0
 16 17  2  0
 17 18  1  0
 18 19  2  0
 19 20  1  0
 20 21  1  0
 21 22  1  0
 22 23  1  0
 23 24  1  0
 24 25  1  0
 19 26  1  0
 26 27  2  0
 15 28  2  0
 28 29  1  0
 29 30  1  0
 30 31  2  0
 31 32  1  0
 32 33  2  0
 33 34  1  0
 34 35  1  0
 35 36  1  0
 36 37  1  0
 37 38  1  0
 38 39  1  0
 33 40  1  0
 40 41  2  0
 29 42  2  0
 42  2  1  0
 11  7  2  0
 42 13  1  0
 27 16  1  0
 41 30  1  0
 25 20  1  0
 39 34  1  0
M  END
>  <Binding energies>  (40) 
[-9.37]

>  <Ligand effiencies>  (40) 
[-0.2082222222222222]

>  <Interactions>  (40) 
["V-B:ALA:541:CB:9860, V-B:TYR:539:CE2:9844, V-B:TYR:539:CD2:9842, V-B:GLU:543:C:9870, V-A:HIS:456:CE1:4064, H-A:GLU:543:OE2:4905, H-A:GLU:543:OE1:4904, V-B:GLU:543:CD:9876, V-B:GLU:543:CG:9875, H-A:HIS:456:NE2:4065, V-B:GLU:543:CB:9874, V-A:GLU:543:CD:4903, H-B:GLU:543:OE2:9878, V-A:GLU:543:CB:4901, V-A:TYR:484:CZ:4342, V-A:HIS:456:CD2:4063, V-B:HIS:456:CE1:9037, V-A:ILE:369:CD1:3234, V-A:LEU:475:CD2:4254, H-B:TYR:484:OH:9315, V-A:GLU:543:CG:4902, V-A:TYR:484:CG:4337, V-A:TYR:484:CB:4336, V-B:GLU:543:CA:9872, V-A:TYR:484:CD1:4338, V-A:ASP:473:CB:4234, V-A:HIS:456:CG:4061, V-B:TYR:484:CZ:9314, V-A:TYR:484:CE1:4340, V-A:ASP:473:CG:4235, V-A:TYR:484:C:4332, H-A:LYS:471:NZ:4216, V-A:PRO:486:CD:4361, V-A:ASP:485:CA:4348"]

$$$$
9c_Ghoteimi_2023
     RDKit          3D

 42 48  0  0  0  0  0  0  0  0999 V2000
  129.8240  127.2050   65.1250 N   0  0  0  0  0  0  0  0  0  0  0  0
  129.5110  127.2240   66.4610 C   0  0  0  0  0  0  0  0  0  0  0  0
  129.0120  128.3570   67.1220 C   0  0  0  0  0  0  0  0  0  0  0  0
  128.7140  129.6800   66.5670 C   0  0  0  0  0  0  0  0  0  0  0  0
  128.6130  130.6650   67.3030 O   0  0  0  0  0  0  0  0  0  0  0  0
  128.5570  129.7250   65.2210 N   0  0  0  0  0  0  0  0  0  0  0  0
  128.2570  130.8410   64.4530 C   0  0  0  0  0  0  0  0  0  0  0  0
  128.7410  132.0590   64.5720 N   0  0  0  0  0  0  0  0  0  0  0  0
  128.2280  132.8750   63.6710 C   0  0  0  0  0  0  0  0  0  0  0  0
  127.3020  132.3180   62.7930 C   0  0  0  0  0  0  0  0  0  0  0  0
  127.1010  130.6350   63.1760 S   0  0  0  0  0  0  0  0  0  0  0  0
  128.7500  128.0310   68.8350 S   0  0  0  0  0  0  0  0  0  0  0  0
  129.3250  126.3910   68.6590 C   0  0  0  0  0  0  0  0  0  0  0  0
  129.4020  125.5620   69.6990 N   0  0  0  0  0  0  0  0  0  0  0  0
  129.8790  124.3140   69.4580 C   0  0  0  0  0  0  0  0  0  0  0  0
  129.9750  123.4120   70.6460 C   0  0  0  0  0  0  0  0  0  0  0  0
  130.6450  123.8120   71.8070 C   0  0  0  0  0  0  0  0  0  0  0  0
  130.7390  122.9650   72.9070 C   0  0  0  0  0  0  0  0  0  0  0  0
  130.1760  121.6790   72.8810 C   0  0  0  0  0  0  0  0  0  0  0  0
  130.2550  120.8180   73.9820 N   0  0  0  0  0  0  0  0  0  0  0  0
  130.3750  121.3390   75.3590 C   0  0  0  0  0  0  0  0  0  0  0  0
  130.0990  120.2840   76.4510 C   0  0  0  0  0  0  0  0  0  0  0  0
  130.9410  119.1580   76.2600 O   0  0  0  0  0  0  0  0  0  0  0  0
  130.7110  118.5460   75.0020 C   0  0  0  0  0  0  0  0  0  0  0  0
  131.0010  119.5470   73.8620 C   0  0  0  0  0  0  0  0  0  0  0  0
  129.4890  121.2910   71.7220 C   0  0  0  0  0  0  0  0  0  0  0  0
  129.3920  122.1400   70.6240 C   0  0  0  0  0  0  0  0  0  0  0  0
  130.2500  123.8900   68.1790 C   0  0  0  0  0  0  0  0  0  0  0  0
  130.1510  124.7500   67.0800 C   0  0  0  0  0  0  0  0  0  0  0  0
  130.5280  124.2430   65.7380 C   0  0  0  0  0  0  0  0  0  0  0  0
  131.5520  124.8560   65.0150 C   0  0  0  0  0  0  0  0  0  0  0  0
  131.9200  124.3730   63.7620 C   0  0  0  0  0  0  0  0  0  0  0  0
  131.2720  123.2640   63.1980 C   0  0  0  0  0  0  0  0  0  0  0  0
  131.6320  122.7540   61.9470 N   0  0  0  0  0  0  0  0  0  0  0  0
  132.9330  123.1350   61.3620 C   0  0  0  0  0  0  0  0  0  0  0  0
  133.0330  122.8340   59.8510 C   0  0  0  0  0  0  0  0  0  0  0  0
  132.7560  121.4630   59.6090 O   0  0  0  0  0  0  0  0  0  0  0  0
  131.4520  121.1070   60.0430 C   0  0  0  0  0  0  0  0  0  0  0  0
  131.3090  121.3680   61.5580 C   0  0  0  0  0  0  0  0  0  0  0  0
  130.2580  122.6420   63.9420 C   0  0  0  0  0  0  0  0  0  0  0  0
  129.8900  123.1260   65.1950 C   0  0  0  0  0  0  0  0  0  0  0  0
  129.6860  126.0760   67.3150 C   0  0  0  0  0  0  0  0  0  0  0  0
  1  2  1  0
  2  3  2  0
  3  4  1  0
  4  5  2  0
  4  6  1  0
  6  7  1  0
  7  8  2  0
  8  9  1  0
  9 10  2  0
 10 11  1  0
  3 12  1  0
 12 13  1  0
 13 14  2  0
 14 15  1  0
 15 16  1  0
 16 17  2  0
 17 18  1  0
 18 19  2  0
 19 20  1  0
 20 21  1  0
 21 22  1  0
 22 23  1  0
 23 24  1  0
 24 25  1  0
 19 26  1  0
 26 27  2  0
 15 28  2  0
 28 29  1  0
 29 30  1  0
 30 31  2  0
 31 32  1  0
 32 33  2  0
 33 34  1  0
 34 35  1  0
 35 36  1  0
 36 37  1  0
 37 38  1  0
 38 39  1  0
 33 40  1  0
 40 41  2  0
 29 42  2  0
 42  2  1  0
 11  7  1  0
 42 13  1  0
 27 16  1  0
 41 30  1  0
 25 20  1  0
 39 34  1  0
M  END
>  <Binding energies>  (41) 
[-9.0]

>  <Ligand effiencies>  (41) 
[-0.2]

>  <Interactions>  (41) 
["V-B:ALA:541:CB:9860, V-B:TYR:539:CE2:9844, V-B:TYR:539:CD2:9842, V-B:GLU:543:C:9870, V-A:HIS:456:CE1:4064, H-A:GLU:543:OE2:4905, H-A:GLU:543:OE1:4904, V-B:GLU:543:CD:9876, V-B:GLU:543:CG:9875, H-A:HIS:456:NE2:4065, V-B:GLU:543:CB:9874, V-A:GLU:543:CD:4903, H-B:GLU:543:OE2:9878, V-A:GLU:543:CB:4901, V-A:TYR:484:CZ:4342, V-A:HIS:456:CD2:4063, V-B:HIS:456:CE1:9037, V-A:ILE:369:CD1:3234, V-A:LEU:475:CD2:4254, H-B:TYR:484:OH:9315, V-A:GLU:543:CG:4902, V-A:ALA:541:CB:4887, V-A:TYR:484:CG:4337, V-A:TYR:484:CB:4336, V-B:GLU:543:CA:9872, V-A:TYR:484:CD1:4338, V-A:ASP:473:CB:4234, V-A:HIS:456:CG:4061, V-A:TYR:484:CE1:4340, V-A:ASP:473:CG:4235, H-A:LYS:471:NZ:4216"]

$$$$
RR11_Rahimova_2017
     RDKit          3D

 33 38  0  0  0  0  0  0  0  0999 V2000
  126.5890  128.7140   54.4850 N   0  0  0  0  0  0  0  0  0  0  0  0
  127.5030  128.0140   55.2700 C   0  0  0  0  0  0  0  0  0  0  0  0
  127.4460  128.1170   56.6590 C   0  0  0  0  0  0  0  0  0  0  0  0
  128.3580  127.4150   57.4420 C   0  0  0  0  0  0  0  0  0  0  0  0
  129.3340  126.6060   56.8460 C   0  0  0  0  0  0  0  0  0  0  0  0
  130.3120  125.8460   57.6930 C   0  0  0  0  0  0  0  0  0  0  0  0
  130.1550  125.6060   58.9760 N   0  0  0  0  0  0  0  0  0  0  0  0
  131.2580  124.8830   59.3470 C   0  0  0  0  0  0  0  0  0  0  0  0
  131.5940  124.3610   60.6040 C   0  0  0  0  0  0  0  0  0  0  0  0
  132.7830  123.6310   60.7260 C   0  0  0  0  0  0  0  0  0  0  0  0
  133.1760  123.0570   62.0800 C   0  0  0  0  0  0  0  0  0  0  0  0
  132.2610  123.5130   63.2070 C   0  0  0  0  0  0  0  0  0  0  0  0
  131.1180  122.7640   63.5110 C   0  0  0  0  0  0  0  0  0  0  0  0
  130.2520  123.1370   64.5420 C   0  0  0  0  0  0  0  0  0  0  0  0
  130.5600  124.2880   65.2790 C   0  0  0  0  0  0  0  0  0  0  0  0
  129.8760  124.8610   66.3200 N   0  0  0  0  0  0  0  0  0  0  0  0
  130.5780  125.9230   66.6540 C   0  0  0  0  0  0  0  0  0  0  0  0
  130.2020  126.8790   67.7480 C   0  0  0  0  0  0  0  0  0  0  0  0
  128.9700  126.7600   68.4040 C   0  0  0  0  0  0  0  0  0  0  0  0
  128.6160  127.6530   69.4120 C   0  0  0  0  0  0  0  0  0  0  0  0
  129.4930  128.6740   69.7710 C   0  0  0  0  0  0  0  0  0  0  0  0
  129.1370  129.5720   70.7770 N   0  0  0  0  0  0  0  0  0  0  0  0
  130.7220  128.8030   69.1310 C   0  0  0  0  0  0  0  0  0  0  0  0
  131.0750  127.9090   68.1230 C   0  0  0  0  0  0  0  0  0  0  0  0
  131.7050  126.0640   65.8710 N   0  0  0  0  0  0  0  0  0  0  0  0
  131.7260  125.0280   64.9680 C   0  0  0  0  0  0  0  0  0  0  0  0
  132.5990  124.6570   63.9420 C   0  0  0  0  0  0  0  0  0  0  0  0
  133.6260  123.4520   59.6230 C   0  0  0  0  0  0  0  0  0  0  0  0
  133.3220  123.9640   58.3590 C   0  0  0  0  0  0  0  0  0  0  0  0
  132.1250  124.6760   58.2480 C   0  0  0  0  0  0  0  0  0  0  0  0
  131.4870  125.3100   57.2070 N   0  0  0  0  0  0  0  0  0  0  0  0
  129.3810  126.5130   55.4490 C   0  0  0  0  0  0  0  0  0  0  0  0
  128.4690  127.2140   54.6630 C   0  0  0  0  0  0  0  0  0  0  0  0
  1  2  1  0
  2  3  2  0
  3  4  1  0
  4  5  2  0
  5  6  1  0
  6  7  2  0
  7  8  1  0
  8  9  2  0
  9 10  1  0
 10 11  1  0
 11 12  1  0
 12 13  2  0
 13 14  1  0
 14 15  2  0
 15 16  1  0
 16 17  2  0
 17 18  1  0
 18 19  2  0
 19 20  1  0
 20 21  2  0
 21 22  1  0
 21 23  1  0
 23 24  2  0
 17 25  1  0
 25 26  1  0
 26 27  2  0
 10 28  2  0
 28 29  1  0
 29 30  2  0
 30 31  1  0
  5 32  1  0
 32 33  2  0
 33  2  1  0
 31  6  1  0
 30  8  1  0
 27 12  1  0
 26 15  1  0
 24 18  1  0
M  END
>  <Binding energies>  (42) 
[-7.8]

>  <Ligand effiencies>  (42) 
[-0.19999999999999998]

>  <Interactions>  (42) 
["H-B:TYR:531:OH:9763, V-A:HIS:456:CE1:4064, V-A:ASP:366:CG:3208, H-A:GLU:543:OE1:4904, V-B:GLU:543:CG:9875, V-B:GLU:543:CB:9874, V-A:GLU:543:CD:4903, V-A:ASP:366:CB:3207, H-A:TYR:531:OH:4790, V-A:GLU:543:CB:4901, V-A:TYR:484:CZ:4342, V-B:HIS:456:CE1:9037, V-A:ILE:369:CD1:3234, V-A:TYR:531:CE1:4787, V-A:TYR:531:CZ:4789, V-A:MET:535:CG:4828, V-A:GLU:543:C:4897, V-A:GLU:543:CA:4899, V-B:HIS:456:CD2:9035, H-A:GLU:543:O:4898, H-B:HIS:456:NE2:9038, V-B:TYR:531:CE1:9760, V-B:TYR:531:CZ:9762, V-A:MET:535:CE:4830, V-A:TYR:484:CE1:4340, H-B:TYR:539:OH:9846, V-A:ASP:366:CA:3205, H-A:MET:535:SD:4829"]

$$$$
RR16_Rahimova_2017
     RDKit          3D

 44 49  0  0  0  0  0  0  0  0999 V2000
  131.4660  126.9420   73.1230 O   0  0  0  0  0  0  0  0  0  0  0  0
  129.9990  126.8850   73.1480 S   0  0  0  0  0  0  0  0  0  0  0  0
  129.2390  127.5510   74.2120 O   0  0  0  0  0  0  0  0  0  0  0  0
  129.5320  125.1840   73.1210 N   0  0  0  0  0  0  0  0  0  0  0  0
  130.3420  124.1610   73.8230 C   0  0  0  0  0  0  0  0  0  0  0  0
  129.3950  123.1750   74.5550 C   0  0  0  0  0  0  0  0  0  0  0  0
  128.3830  122.3950   73.6940 C   0  0  0  0  0  0  0  0  0  0  0  0
  129.0140  121.6650   72.4960 C   0  0  0  0  0  0  0  0  0  0  0  0
  129.4000  122.5520   71.2970 C   0  0  0  0  0  0  0  0  0  0  0  0
  130.7310  123.3240   71.3910 C   0  0  0  0  0  0  0  0  0  0  0  0
  131.3150  123.5230   72.8030 C   0  0  0  0  0  0  0  0  0  0  0  0
  129.4290  127.5290   71.5790 C   0  0  0  0  0  0  0  0  0  0  0  0
  128.1370  127.2490   71.1300 C   0  0  0  0  0  0  0  0  0  0  0  0
  127.7480  127.6510   69.8550 C   0  0  0  0  0  0  0  0  0  0  0  0
  128.6520  128.3320   69.0370 C   0  0  0  0  0  0  0  0  0  0  0  0
  128.2030  128.7260   67.3480 S   0  0  0  0  0  0  0  0  0  0  0  0
  128.6770  130.0890   67.0740 O   0  0  0  0  0  0  0  0  0  0  0  0
  126.7840  128.3870   67.1790 O   0  0  0  0  0  0  0  0  0  0  0  0
  129.1600  127.5970   66.3700 N   0  0  0  0  0  0  0  0  0  0  0  0
  129.5410  126.3440   67.0720 C   0  0  0  0  0  0  0  0  0  0  0  0
  130.6150  125.5810   66.2700 C   0  0  0  0  0  0  0  0  0  0  0  0
  130.1760  125.3430   64.8040 C   0  0  0  0  0  0  0  0  0  0  0  0
  131.2480  124.6270   63.9780 C   0  0  0  0  0  0  0  0  0  0  0  0
  132.5880  125.0260   64.0820 C   0  0  0  0  0  0  0  0  0  0  0  0
  133.5990  124.3960   63.3540 C   0  0  0  0  0  0  0  0  0  0  0  0
  134.9050  124.7970   63.4720 O   0  0  0  0  0  0  0  0  0  0  0  0
  133.2420  123.3390   62.5040 C   0  0  0  0  0  0  0  0  0  0  0  0
  134.0020  122.5400   61.6990 N   0  0  0  0  0  0  0  0  0  0  0  0
  133.1570  121.6330   61.0980 N   0  0  0  0  0  0  0  0  0  0  0  0
  131.8970  121.8990   61.4930 N   0  0  0  0  0  0  0  0  0  0  0  0
  130.8000  121.0350   61.0750 C   0  0  0  0  0  0  0  0  0  0  0  0
  129.6670  121.8050   60.4120 C   0  0  0  0  0  0  0  0  0  0  0  0
  128.6000  122.2840   61.1810 C   0  0  0  0  0  0  0  0  0  0  0  0
  127.5710  123.0090   60.5790 C   0  0  0  0  0  0  0  0  0  0  0  0
  127.6030  123.2600   59.2070 C   0  0  0  0  0  0  0  0  0  0  0  0
  128.6650  122.7870   58.4350 C   0  0  0  0  0  0  0  0  0  0  0  0
  128.7130  123.1050   56.7400 Cl  0  0  0  0  0  0  0  0  0  0  0  0
  129.6930  122.0580   59.0360 C   0  0  0  0  0  0  0  0  0  0  0  0
  131.8870  122.9470   62.3980 C   0  0  0  0  0  0  0  0  0  0  0  0
  130.8720  123.5800   63.1240 C   0  0  0  0  0  0  0  0  0  0  0  0
  129.6610  126.6390   64.1260 C   0  0  0  0  0  0  0  0  0  0  0  0
  128.6260  127.3740   65.0010 C   0  0  0  0  0  0  0  0  0  0  0  0
  129.9300  128.6480   69.5040 C   0  0  0  0  0  0  0  0  0  0  0  0
  130.3200  128.2420   70.7750 C   0  0  0  0  0  0  0  0  0  0  0  0
  1  2  2  0
  2  3  2  0
  2  4  1  0
  4  5  1  0
  5  6  1  0
  6  7  1  0
  7  8  1  0
  8  9  1  0
  9 10  1  0
 10 11  1  0
  2 12  1  0
 12 13  2  0
 13 14  1  0
 14 15  2  0
 15 16  1  0
 16 17  2  0
 16 18  2  0
 16 19  1  0
 19 20  1  0
 20 21  1  0
 21 22  1  0
 22 23  1  0
 23 24  2  0
 24 25  1  0
 25 26  1  0
 25 27  2  0
 27 28  1  0
 28 29  2  0
 29 30  1  0
 30 31  1  0
 31 32  1  0
 32 33  2  0
 33 34  1  0
 34 35  2  0
 35 36  1  0
 36 37  1  0
 36 38  2  0
 30 39  1  0
 39 40  2  0
 22 41  1  0
 41 42  1  0
 15 43  1  0
 43 44  2  0
 11  5  1  0
 44 12  1  0
 42 19  1  0
 40 23  1  0
 39 27  1  0
 38 32  1  0
M  END
>  <Binding energies>  (43) 
[-10.04]

>  <Ligand effiencies>  (43) 
[-0.20916666666666664]

>  <Interactions>  (43) 
["V-B:ALA:541:CB:9860, V-B:TYR:539:CE2:9844, V-B:MET:535:CE:9803, V-B:PRO:540:CA:9851, V-B:TYR:539:CD2:9842, V-B:PRO:540:C:9849, V-B:TYR:539:CE1:9843, V-B:TYR:539:C:9835, V-B:TYR:539:CZ:9845, V-B:GLU:543:C:9870, V-A:HIS:456:CE1:4064, H-A:GLY:454:N:4045, V-B:GLU:543:CD:9876, V-B:GLU:543:CG:9875, V-B:GLU:543:CB:9874, H-A:ARG:545:NH2:4923, H-A:ASP:366:OD2:3210, V-A:GLU:543:CB:4901, V-A:HIS:456:CD2:4063, V-B:HIS:456:CE1:9037, V-A:LEU:475:CD2:4254, H-B:TYR:484:OH:9315, V-A:GLU:543:C:4897, V-B:HIS:456:CD2:9035, V-A:TYR:484:CG:4337, H-B:LYS:547:NZ:9919, V-B:LYS:547:CE:9918, H-A:LYS:547:NZ:4946, V-A:TYR:484:CD1:4338, V-A:HIS:456:CG:4061, H-B:GLU:543:O:9871, H-A:ARG:545:NH1:4922, H-A:ASP:366:OD1:3209, V-A:HIS:456:CB:4060"]

$$$$
RR18_Rahimova_2017
     RDKit          3D

 36 41  0  0  0  0  0  0  0  0999 V2000
  134.0000  130.8500   59.4960 C   0  0  0  0  0  0  0  0  0  0  0  0
  132.6570  130.6040   60.1370 C   0  0  0  0  0  0  0  0  0  0  0  0
  131.9120  131.2630   61.1010 C   0  0  0  0  0  0  0  0  0  0  0  0
  130.7360  130.5320   61.2690 C   0  0  0  0  0  0  0  0  0  0  0  0
  130.8050  129.4540   60.4010 C   0  0  0  0  0  0  0  0  0  0  0  0
  129.8680  128.2920   60.0810 C   0  0  1  0  0  0  0  0  0  0  0  0
  130.0280  127.8190   58.6060 C   0  0  0  0  0  0  0  0  0  0  0  0
  129.6700  128.7060   57.5030 C   0  0  0  0  0  0  0  0  0  0  0  0
  128.5290  128.7340   57.0360 O   0  0  0  0  0  0  0  0  0  0  0  0
  130.6850  129.4850   57.0660 N   0  0  0  0  0  0  0  0  0  0  0  0
  130.7230  130.4350   56.0220 C   0  0  0  0  0  0  0  0  0  0  0  0
  130.9630  130.1000   54.6770 C   0  0  0  0  0  0  0  0  0  0  0  0
  130.9940  131.0880   53.6950 C   0  0  0  0  0  0  0  0  0  0  0  0
  130.7940  132.4220   54.0380 C   0  0  0  0  0  0  0  0  0  0  0  0
  130.5670  132.7700   55.3680 C   0  0  0  0  0  0  0  0  0  0  0  0
  130.5320  131.7890   56.3650 C   0  0  0  0  0  0  0  0  0  0  0  0
  130.2830  132.2240   57.8060 C   0  0  0  0  0  0  0  0  0  0  0  0
  130.6020  126.6100   58.3720 C   0  0  0  0  0  0  0  0  0  0  0  0
  130.9470  125.7140   59.3380 N   0  0  0  0  0  0  0  0  0  0  0  0
  130.6540  125.9610   60.5610 C   0  0  0  0  0  0  0  0  0  0  0  0
  130.8960  124.8470   61.8850 S   0  0  0  0  0  0  0  0  0  0  0  0
  130.1960  126.0050   63.0590 C   0  0  0  0  0  0  0  0  0  0  0  0
  130.0330  125.8210   64.4150 C   0  0  0  0  0  0  0  0  0  0  0  0
  130.3750  124.5330   65.0350 C   0  0  0  0  0  0  0  0  0  0  0  0
  130.8410  123.5110   64.5320 O   0  0  0  0  0  0  0  0  0  0  0  0
  130.0680  124.6210   66.3330 N   0  0  0  0  0  0  0  0  0  0  0  0
  129.5820  125.8450   66.6820 C   0  0  0  0  0  0  0  0  0  0  0  0
  129.1810  126.2770   67.9460 C   0  0  0  0  0  0  0  0  0  0  0  0
  128.7400  127.5880   68.0990 C   0  0  0  0  0  0  0  0  0  0  0  0
  128.7160  128.4410   66.9980 C   0  0  0  0  0  0  0  0  0  0  0  0
  129.1220  127.9840   65.7410 C   0  0  0  0  0  0  0  0  0  0  0  0
  129.5490  126.6550   65.5600 C   0  0  0  0  0  0  0  0  0  0  0  0
  129.8010  127.2080   62.3250 C   0  0  0  0  0  0  0  0  0  0  0  0
  129.2390  128.1950   62.7900 O   0  0  0  0  0  0  0  0  0  0  0  0
  130.1080  127.1250   61.0020 N   0  0  0  0  0  0  0  0  0  0  0  0
  131.9780  129.5050   59.7160 O   0  0  0  0  0  0  0  0  0  0  0  0
  1  2  1  0
  2  3  2  0
  3  4  1  0
  4  5  2  0
  6  5  1  1
  6  7  1  0
  7  8  1  0
  8  9  2  0
  8 10  1  0
 10 11  1  0
 11 12  2  0
 12 13  1  0
 13 14  2  0
 14 15  1  0
 15 16  2  0
 16 17  1  0
  7 18  2  0
 18 19  1  0
 19 20  2  0
 20 21  1  0
 21 22  1  0
 22 23  2  0
 23 24  1  0
 24 25  2  0
 24 26  1  0
 26 27  1  0
 27 28  2  0
 28 29  1  0
 29 30  2  0
 30 31  1  0
 31 32  2  0
 22 33  1  0
 33 34  2  0
 33 35  1  0
  5 36  1  0
 36  2  1  0
 35  6  1  0
 16 11  1  0
 35 20  1  0
 32 23  1  0
 32 27  1  0
M  END
>  <Binding energies>  (44) 
[-8.22]

>  <Ligand effiencies>  (44) 
[-0.21631578947368424]

>  <Interactions>  (44) 
["V-A:HIS:456:CE1:4064, H-A:TYR:484:OH:4343, V-B:GLU:543:CD:9876, V-B:GLU:543:CG:9875, V-B:GLU:543:CB:9874, V-A:GLU:543:CD:4903, V-A:PRO:540:N:4879, V-A:LEU:363:CA:3180, V-A:ASN:362:C:3167, V-A:PRO:540:CA:4878, V-A:LEU:363:CB:3182, H-A:TYR:531:OH:4790, V-A:ILE:538:CA:4855, V-A:PRO:540:CB:4880, V-A:TYR:484:CZ:4342, V-A:TYR:531:CE1:4787, V-A:TYR:531:CZ:4789, V-A:GLU:543:CG:4902, V-A:ILE:538:CD1:4860, V-A:TYR:484:CE1:4340"]

$$$$
RR20_Rahimova_2017
     RDKit          3D

 38 43  0  0  0  0  0  0  0  0999 V2000
  124.8000  123.1080   57.5010 C   0  0  0  0  0  0  0  0  0  0  0  0
  126.1960  123.4760   57.0310 C   0  0  0  0  0  0  0  0  0  0  0  0
  126.5680  124.8180   56.9420 C   0  0  0  0  0  0  0  0  0  0  0  0
  127.8500  125.1570   56.5200 C   0  0  0  0  0  0  0  0  0  0  0  0
  128.7670  124.1590   56.1700 C   0  0  0  0  0  0  0  0  0  0  0  0
  130.1620  124.5480   55.7330 C   0  0  0  0  0  0  0  0  0  0  0  0
  130.2850  125.0890   54.6320 O   0  0  0  0  0  0  0  0  0  0  0  0
  131.2160  124.3050   56.5660 N   0  0  0  0  0  0  0  0  0  0  0  0
  132.5990  124.2540   56.0650 C   0  0  0  0  0  0  0  0  0  0  0  0
  133.4920  124.1180   57.2870 C   0  0  0  0  0  0  0  0  0  0  0  0
  132.5740  124.4820   58.4140 C   0  0  0  0  0  0  0  0  0  0  0  0
  132.8610  124.6190   59.7720 C   0  0  0  0  0  0  0  0  0  0  0  0
  131.8310  124.8050   60.7030 C   0  0  0  0  0  0  0  0  0  0  0  0
  132.1400  124.9610   62.1660 C   0  0  0  0  0  0  0  0  0  0  0  0
  131.2850  125.6330   62.9210 N   0  0  0  0  0  0  0  0  0  0  0  0
  131.6440  125.6890   64.1790 C   0  0  0  0  0  0  0  0  0  0  0  0
  130.9800  126.3050   65.2290 N   0  0  0  0  0  0  0  0  0  0  0  0
  130.7190  125.7750   66.4490 C   0  0  0  0  0  0  0  0  0  0  0  0
  131.0680  124.6470   66.8000 O   0  0  0  0  0  0  0  0  0  0  0  0
  129.9570  126.6500   67.4730 C   0  0  0  0  0  0  0  0  0  0  0  0
  128.6300  127.0770   66.9920 N   0  0  0  0  0  0  0  0  0  0  0  0
  127.6410  127.1630   68.0770 C   0  0  0  0  0  0  0  0  0  0  0  0
  126.2230  127.3480   67.4910 C   0  0  0  0  0  0  0  0  0  0  0  0
  126.1660  128.4070   66.3890 C   0  0  0  0  0  0  0  0  0  0  0  0
  124.9410  128.9030   65.9290 C   0  0  0  0  0  0  0  0  0  0  0  0
  124.8880  129.8390   64.8990 C   0  0  0  0  0  0  0  0  0  0  0  0
  126.0660  130.2930   64.3150 C   0  0  0  0  0  0  0  0  0  0  0  0
  127.2930  129.8130   64.7690 C   0  0  0  0  0  0  0  0  0  0  0  0
  127.3610  128.8720   65.8030 C   0  0  0  0  0  0  0  0  0  0  0  0
  128.7080  128.3900   66.3400 C   0  0  0  0  0  0  0  0  0  0  0  0
  133.1280  124.8950   64.5310 S   0  0  0  0  0  0  0  0  0  0  0  0
  133.2730  124.4630   62.8440 C   0  0  0  0  0  0  0  0  0  0  0  0
  134.4860  123.7060   62.3480 C   0  0  0  0  0  0  0  0  0  0  0  0
  130.5050  124.7950   60.2450 C   0  0  0  0  0  0  0  0  0  0  0  0
  130.2140  124.6400   58.8900 C   0  0  0  0  0  0  0  0  0  0  0  0
  131.2560  124.5390   57.9590 C   0  0  0  0  0  0  0  0  0  0  0  0
  128.3960  122.8140   56.2890 C   0  0  0  0  0  0  0  0  0  0  0  0
  127.1140  122.4730   56.7130 C   0  0  0  0  0  0  0  0  0  0  0  0
  1  2  1  0
  2  3  2  0
  3  4  1  0
  4  5  2  0
  5  6  1  0
  6  7  2  0
  6  8  1  0
  8  9  1  0
  9 10  1  0
 10 11  1  0
 11 12  2  0
 12 13  1  0
 13 14  1  0
 14 15  1  0
 15 16  2  0
 16 17  1  0
 17 18  1  0
 18 19  2  0
 18 20  1  0
 20 21  1  0
 21 22  1  0
 22 23  1  0
 23 24  1  0
 24 25  2  0
 25 26  1  0
 26 27  2  0
 27 28  1  0
 28 29  2  0
 29 30  1  0
 16 31  1  0
 31 32  1  0
 32 33  1  0
 13 34  2  0
 34 35  1  0
 35 36  2  0
  5 37  1  0
 37 38  2  0
 38  2  1  0
 36  8  1  0
 36 11  1  0
 32 14  2  0
 30 21  1  0
 29 24  1  0
M  END
>  <Binding energies>  (45) 
[-10.73]

>  <Ligand effiencies>  (45) 
[-0.2751282051282051]

>  <Interactions>  (45) 
["V-B:TYR:539:CE2:9844, V-B:MET:535:CE:9803, V-B:PRO:540:CD:9855, V-B:PRO:540:CA:9851, V-B:PRO:540:N:9852, V-B:PRO:540:CB:9853, V-B:TYR:539:CE1:9843, V-B:TYR:539:C:9835, V-B:TYR:539:CZ:9845, V-A:HIS:456:CE1:4064, V-A:ASP:366:CG:3208, H-A:GLU:543:OE2:4905, H-A:TYR:484:OH:4343, H-A:GLU:543:OE1:4904, V-A:ARG:545:CZ:4921, H-A:HIS:456:NE2:4065, V-B:GLU:543:CB:9874, V-A:GLU:543:CD:4903, V-A:ASP:366:CB:3207, V-A:GLY:454:CA:4044, V-A:GLY:453:CA:4039, V-A:GLY:453:C:4037, V-B:ARG:545:CG:9890, V-B:HIS:456:CE1:9037, V-A:ILE:369:CD1:3234, H-A:LYS:534:NZ:4818, V-B:LEU:363:CD1:8156, V-A:TYR:531:CE1:4787, V-A:TYR:531:CZ:4789, V-A:GLU:543:CG:4902, V-B:ARG:545:CZ:9894, V-B:ARG:545:CD:9891, V-B:PRO:540:CG:9854, V-A:ASN:370:CB:3240, V-A:ASP:366:C:3203, H-B:TYR:539:OH:9846, V-B:TYR:539:CD1:9841, V-B:TYR:539:CG:9840, V-A:ASP:366:CA:3205"]

$$$$
RR21_Rahimova_2017
     RDKit          3D

 40 45  0  0  0  0  0  0  0  0999 V2000
  134.2270  123.8640   62.2400 C   0  0  0  0  0  0  0  0  0  0  0  0
  134.3060  124.2500   63.6090 O   0  0  0  0  0  0  0  0  0  0  0  0
  133.2180  124.8610   64.2030 C   0  0  0  0  0  0  0  0  0  0  0  0
  131.9590  124.9980   63.5940 C   0  0  0  0  0  0  0  0  0  0  0  0
  130.9100  125.6270   64.2640 C   0  0  0  0  0  0  0  0  0  0  0  0
  131.0900  126.1310   65.5580 C   0  0  0  0  0  0  0  0  0  0  0  0
  129.9600  126.8010   66.2780 C   0  0  0  0  0  0  0  0  0  0  0  0
  129.9840  126.8930   67.5930 N   0  0  0  0  0  0  0  0  0  0  0  0
  128.8610  127.5330   67.9540 N   0  0  0  0  0  0  0  0  0  0  0  0
  128.5770  127.8200   69.3150 C   0  0  0  0  0  0  0  0  0  0  0  0
  129.4220  128.6530   70.0650 C   0  0  0  0  0  0  0  0  0  0  0  0
  129.1300  128.9300   71.3970 C   0  0  0  0  0  0  0  0  0  0  0  0
  127.9940  128.3770   71.9850 C   0  0  0  0  0  0  0  0  0  0  0  0
  127.1490  127.5470   71.2530 C   0  0  0  0  0  0  0  0  0  0  0  0
  127.4390  127.2670   69.9200 C   0  0  0  0  0  0  0  0  0  0  0  0
  128.1260  127.8640   66.8440 C   0  0  0  0  0  0  0  0  0  0  0  0
  128.8000  127.3920   65.7280 C   0  0  0  0  0  0  0  0  0  0  0  0
  128.4340  127.5420   64.3270 C   0  0  0  0  0  0  0  0  0  0  0  0
  128.3850  128.6770   63.5920 C   0  0  0  0  0  0  0  0  0  0  0  0
  128.7440  130.3360   64.1190 S   0  0  0  0  0  0  0  0  0  0  0  0
  128.4140  130.9100   62.4910 C   0  0  0  0  0  0  0  0  0  0  0  0
  128.4890  132.1260   62.0460 N   0  0  0  0  0  0  0  0  0  0  0  0
  128.2050  132.4560   60.6920 C   0  0  0  0  0  0  0  0  0  0  0  0
  128.2720  133.5770   60.1880 O   0  0  0  0  0  0  0  0  0  0  0  0
  127.8000  131.2770   59.8510 C   0  0  0  0  0  0  0  0  0  0  0  0
  127.4490  131.5140   58.3760 C   0  0  0  0  0  0  0  0  0  0  0  0
  128.6510  131.8220   57.4860 C   0  0  0  0  0  0  0  0  0  0  0  0
  128.5290  131.7480   56.0950 C   0  0  0  0  0  0  0  0  0  0  0  0
  129.6210  132.0450   55.2830 C   0  0  0  0  0  0  0  0  0  0  0  0
  130.8370  132.4190   55.8590 C   0  0  0  0  0  0  0  0  0  0  0  0
  132.0200  132.7530   54.9690 C   0  0  0  0  0  0  0  0  0  0  0  0
  130.9580  132.5040   57.2480 C   0  0  0  0  0  0  0  0  0  0  0  0
  129.8670  132.2070   58.0600 C   0  0  0  0  0  0  0  0  0  0  0  0
  127.7240  130.0710   60.3100 N   0  0  0  0  0  0  0  0  0  0  0  0
  128.0430  129.8850   61.6610 N   0  0  0  0  0  0  0  0  0  0  0  0
  127.9980  128.6370   62.1890 C   0  0  0  0  0  0  0  0  0  0  0  0
  127.6800  127.6190   61.5630 O   0  0  0  0  0  0  0  0  0  0  0  0
  132.3440  126.0000   66.1620 C   0  0  0  0  0  0  0  0  0  0  0  0
  133.3950  125.3720   65.4930 C   0  0  0  0  0  0  0  0  0  0  0  0
  134.5960  125.2610   66.1070 F   0  0  0  0  0  0  0  0  0  0  0  0
  1  2  1  0
  2  3  1  0
  3  4  2  0
  4  5  1  0
  5  6  2  0
  6  7  1  0
  7  8  2  0
  8  9  1  0
  9 10  1  0
 10 11  2  0
 11 12  1  0
 12 13  2  0
 13 14  1  0
 14 15  2  0
  9 16  1  0
 16 17  2  0
 17 18  1  0
 18 19  2  0
 19 20  1  0
 20 21  1  0
 21 22  2  0
 22 23  1  0
 23 24  2  0
 23 25  1  0
 25 26  1  0
 26 27  1  0
 27 28  2  0
 28 29  1  0
 29 30  2  0
 30 31  1  0
 30 32  1  0
 32 33  2  0
 25 34  2  0
 34 35  1  0
 35 36  1  0
 36 37  2  0
  6 38  1  0
 38 39  2  0
 39 40  1  0
 39  3  1  0
 17  7  1  0
 36 19  1  0
 15 10  1  0
 35 21  1  0
 33 27  1  0
M  END
>  <Binding energies>  (46) 
[-9.51]

>  <Ligand effiencies>  (46) 
[-0.23775]

>  <Interactions>  (46) 
["V-B:GLU:543:C:9870, V-A:HIS:456:CE1:4064, V-A:ASP:366:CG:3208, H-A:GLY:454:N:4045, V-B:GLU:543:CD:9876, V-A:ARG:545:CZ:4921, V-A:GLU:543:CD:4903, V-A:TYR:539:CZ:4872, V-A:LEU:363:CD1:3184, V-A:PRO:540:N:4879, V-A:TYR:539:CE1:4870, V-A:TYR:539:C:4862, V-A:TYR:539:CD1:4868, V-A:PRO:540:CA:4878, V-A:PRO:540:CD:4882, V-A:ILE:538:CA:4855, V-A:PRO:540:CB:4880, V-A:TYR:539:CE2:4871, V-A:ARG:545:CD:4918, V-A:ARG:545:CG:4917, V-A:GLY:453:CA:4039, V-A:GLY:453:C:4037, V-A:HIS:456:CD2:4063, V-B:HIS:456:CE1:9037, V-A:ILE:369:CD1:3234, V-A:ILE:538:CG2:4858, V-A:GLU:543:CG:4902, V-A:ILE:538:CD1:4860, V-A:ILE:538:CB:4857, V-B:HIS:456:CD2:9035, V-B:GLY:544:C:9880, V-B:HIS:456:CG:9033"]

$$$$
RR23_Rahimova_2017
     RDKit          3D

 39 44  0  0  0  0  0  0  0  0999 V2000
  130.6320  128.6020   71.4530 C   0  0  0  0  0  0  0  0  0  0  0  0
  129.6390  128.3450   70.3350 C   0  0  0  0  0  0  0  0  0  0  0  0
  129.8050  128.9670   69.0970 C   0  0  0  0  0  0  0  0  0  0  0  0
  128.8980  128.7230   68.0680 C   0  0  0  0  0  0  0  0  0  0  0  0
  127.8120  127.8650   68.2740 C   0  0  0  0  0  0  0  0  0  0  0  0
  126.8500  127.5970   67.1380 C   0  0  0  0  0  0  0  0  0  0  0  0
  125.7570  127.1000   67.4200 O   0  0  0  0  0  0  0  0  0  0  0  0
  127.2120  127.9240   65.8610 N   0  0  0  0  0  0  0  0  0  0  0  0
  128.3490  127.2710   65.1920 C   0  0  0  0  0  0  0  0  0  0  0  0
  128.3510  127.7780   63.7600 C   0  0  0  0  0  0  0  0  0  0  0  0
  126.9910  128.3920   63.6210 C   0  0  0  0  0  0  0  0  0  0  0  0
  126.3870  128.9450   62.4910 C   0  0  0  0  0  0  0  0  0  0  0  0
  125.1620  129.6190   62.6000 C   0  0  0  0  0  0  0  0  0  0  0  0
  124.4630  130.2420   61.3820 C   0  0  2  0  0  0  0  0  0  0  0  0
  124.9790  129.7250   60.1330 N   0  0  0  0  0  0  0  0  0  0  0  0
  124.9390  130.5960   59.2070 C   0  0  0  0  0  0  0  0  0  0  0  0
  125.3620  130.4730   57.9200 N   0  0  0  0  0  0  0  0  0  0  0  0
  126.0490  129.4510   57.3540 C   0  0  0  0  0  0  0  0  0  0  0  0
  126.3820  128.4090   57.9230 O   0  0  0  0  0  0  0  0  0  0  0  0
  126.4320  129.6480   55.8780 C   0  0  0  0  0  0  0  0  0  0  0  0
  127.6890  130.4260   55.8030 N   0  0  0  0  0  0  0  0  0  0  0  0
  127.7340  131.5640   56.5980 N   0  0  0  0  0  0  0  0  0  0  0  0
  128.7760  132.3320   56.6210 N   0  0  0  0  0  0  0  0  0  0  0  0
  129.8880  132.0170   55.8360 C   0  0  0  0  0  0  0  0  0  0  0  0
  130.9950  132.8670   55.8830 C   0  0  0  0  0  0  0  0  0  0  0  0
  132.1210  132.5800   55.1090 C   0  0  0  0  0  0  0  0  0  0  0  0
  132.1400  131.4490   54.2890 C   0  0  0  0  0  0  0  0  0  0  0  0
  131.0340  130.5990   54.2400 C   0  0  0  0  0  0  0  0  0  0  0  0
  129.9060  130.8860   55.0180 C   0  0  0  0  0  0  0  0  0  0  0  0
  128.6970  129.9810   54.9770 C   0  0  0  0  0  0  0  0  0  0  0  0
  128.6210  128.9690   54.2740 O   0  0  0  0  0  0  0  0  0  0  0  0
  124.2610  132.1960   59.6280 S   0  0  0  0  0  0  0  0  0  0  0  0
  124.4590  131.7880   61.3720 C   0  0  2  0  0  0  0  0  0  0  0  0
  125.7250  132.4870   61.9110 C   0  0  0  0  0  0  0  0  0  0  0  0
  124.5840  129.7690   63.8660 C   0  0  0  0  0  0  0  0  0  0  0  0
  125.1980  129.2350   65.0000 C   0  0  0  0  0  0  0  0  0  0  0  0
  126.3800  128.4930   64.8720 C   0  0  0  0  0  0  0  0  0  0  0  0
  127.6670  127.2230   69.5100 C   0  0  0  0  0  0  0  0  0  0  0  0
  128.5740  127.4660   70.5380 C   0  0  0  0  0  0  0  0  0  0  0  0
  1  2  1  0
  2  3  2  0
  3  4  1  0
  4  5  2  0
  5  6  1  0
  6  7  2  0
  6  8  1  0
  8  9  1  0
  9 10  1  0
 10 11  1  0
 11 12  2  0
 12 13  1  0
 14 13  1  1
 14 15  1  0
 15 16  2  0
 16 17  1  0
 17 18  1  0
 18 19  2  0
 18 20  1  0
 20 21  1  0
 21 22  1  0
 22 23  2  0
 23 24  1  0
 24 25  2  0
 25 26  1  0
 26 27  2  0
 27 28  1  0
 28 29  2  0
 29 30  1  0
 30 31  2  0
 16 32  1  0
 32 33  1  0
 33 34  1  6
 13 35  2  0
 35 36  1  0
 36 37  2  0
  5 38  1  0
 38 39  2  0
 39  2  1  0
 37  8  1  0
 37 11  1  0
 33 14  1  0
 30 21  1  0
 29 24  1  0
M  END
>  <Binding energies>  (47) 
[-10.48]

>  <Ligand effiencies>  (47) 
[-0.262]

>  <Interactions>  (47) 
["H-B:TYR:531:OH:9763, V-B:GLU:543:C:9870, V-A:HIS:456:CE1:4064, V-B:GLU:543:CD:9876, V-B:GLU:543:CG:9875, V-B:GLU:543:CB:9874, V-A:TYR:539:CZ:4872, V-A:LEU:363:CD1:3184, V-A:PRO:540:N:4879, V-A:TYR:539:CE1:4870, V-A:PRO:540:CD:4882, V-A:ILE:538:CA:4855, V-A:GLU:543:CB:4901, V-B:ARG:545:CG:9890, V-B:HIS:456:CE1:9037, V-A:ILE:538:CG2:4858, V-B:ARG:545:CZ:9894, V-A:ILE:538:CD1:4860, V-A:MET:535:CG:4828, V-A:GLU:543:C:4897, H-B:ARG:545:NE:9892, V-B:ASP:366:CG:8180, H-A:TYR:539:OH:4873, V-A:GLY:544:C:4907, V-B:ILE:369:CD1:8206"]

$$$$
RR26_Rahimova_2017
     RDKit          3D

 38 44  0  0  0  0  0  0  0  0999 V2000
  126.1230  130.1170   75.0450 C   0  0  0  0  0  0  0  0  0  0  0  0
  127.3570  130.9670   75.3210 C   0  0  0  0  0  0  0  0  0  0  0  0
  127.3780  131.7460   76.4820 C   0  0  0  0  0  0  0  0  0  0  0  0
  128.4970  132.5120   76.8050 C   0  0  0  0  0  0  0  0  0  0  0  0
  129.6100  132.4980   75.9710 C   0  0  0  0  0  0  0  0  0  0  0  0
  129.6010  131.7260   74.8110 C   0  0  0  0  0  0  0  0  0  0  0  0
  128.4810  130.9560   74.4650 C   0  0  0  0  0  0  0  0  0  0  0  0
  128.5480  130.1640   73.1910 C   0  0  0  0  0  0  0  0  0  0  0  0
  129.4020  130.4590   72.2140 N   0  0  0  0  0  0  0  0  0  0  0  0
  129.1330  129.5350   71.3320 C   0  0  0  0  0  0  0  0  0  0  0  0
  129.7140  129.1170   69.7630 S   0  0  0  0  0  0  0  0  0  0  0  0
  128.5530  127.7370   69.7260 C   0  0  0  0  0  0  0  0  0  0  0  0
  128.3670  126.8380   68.7340 C   0  0  0  0  0  0  0  0  0  0  0  0
  129.0580  126.7570   67.4570 C   0  0  0  0  0  0  0  0  0  0  0  0
  130.2430  126.0980   67.1650 C   0  0  0  0  0  0  0  0  0  0  0  0
  130.4940  126.2550   65.8260 N   0  0  0  0  0  0  0  0  0  0  0  0
  131.5870  125.7530   65.0730 C   0  0  0  0  0  0  0  0  0  0  0  0
  131.3970  125.2580   63.7740 C   0  0  0  0  0  0  0  0  0  0  0  0
  132.4780  124.7650   63.0470 C   0  0  0  0  0  0  0  0  0  0  0  0
  133.7500  124.7690   63.6140 C   0  0  0  0  0  0  0  0  0  0  0  0
  133.9520  125.2610   64.9010 C   0  0  0  0  0  0  0  0  0  0  0  0
  132.8740  125.7520   65.6310 C   0  0  0  0  0  0  0  0  0  0  0  0
  129.5090  126.9590   65.2470 N   0  0  0  0  0  0  0  0  0  0  0  0
  128.6550  127.2670   66.2030 C   0  0  0  0  0  0  0  0  0  0  0  0
  127.4320  128.0700   65.8800 C   0  0  0  0  0  0  0  0  0  0  0  0
  126.2420  127.8700   66.5950 C   0  0  0  0  0  0  0  0  0  0  0  0
  125.0960  128.6110   66.2980 C   0  0  0  0  0  0  0  0  0  0  0  0
  125.1330  129.5610   65.2800 C   0  0  0  0  0  0  0  0  0  0  0  0
  126.3230  129.7840   64.5710 C   0  0  0  0  0  0  0  0  0  0  0  0
  127.4630  129.0380   64.8640 C   0  0  0  0  0  0  0  0  0  0  0  0
  126.3940  130.6830   63.5250 O   0  0  0  0  0  0  0  0  0  0  0  0
  125.3410  131.6520   63.5140 C   0  0  0  0  0  0  0  0  0  0  0  0
  123.9760  130.9760   63.7880 C   0  0  0  0  0  0  0  0  0  0  0  0
  123.9930  130.3050   65.0530 O   0  0  0  0  0  0  0  0  0  0  0  0
  127.7480  127.6570   70.9410 C   0  0  0  0  0  0  0  0  0  0  0  0
  126.8670  126.8480   71.2380 O   0  0  0  0  0  0  0  0  0  0  0  0
  128.1610  128.7130   71.7670 N   0  0  0  0  0  0  0  0  0  0  0  0
  127.7740  129.1100   72.9830 N   0  0  0  0  0  0  0  0  0  0  0  0
  1  2  1  0
  2  3  2  0
  3  4  1  0
  4  5  2  0
  5  6  1  0
  6  7  2  0
  7  8  1  0
  8  9  1  0
  9 10  2  0
 10 11  1  0
 11 12  1  0
 12 13  2  0
 13 14  1  0
 14 15  2  0
 15 16  1  0
 16 17  1  0
 17 18  2  0
 18 19  1  0
 19 20  2  0
 20 21  1  0
 21 22  2  0
 16 23  1  0
 23 24  2  0
 24 25  1  0
 25 26  2  0
 26 27  1  0
 27 28  2  0
 28 29  1  0
 29 30  2  0
 29 31  1  0
 31 32  1  0
 32 33  1  0
 33 34  1  0
 12 35  1  0
 35 36  2  0
 35 37  1  0
 37 38  1  0
  7  2  1  0
 38  8  2  0
 37 10  1  0
 24 14  1  0
 30 25  1  0
 22 17  1  0
 34 28  1  0
M  END
>  <Binding energies>  (48) 
[-9.15]

>  <Ligand effiencies>  (48) 
[-0.24078947368421053]

>  <Interactions>  (48) 
["V-B:GLU:543:C:9870, V-A:HIS:456:CE1:4064, V-B:GLU:543:CD:9876, V-A:ARG:545:CZ:4921, V-B:GLU:543:CB:9874, V-A:ARG:545:CD:4918, V-A:GLU:543:CB:4901, V-A:GLY:453:CA:4039, V-B:ARG:545:CG:9890, V-B:HIS:456:CE1:9037, H-B:TYR:484:OH:9315, V-B:ARG:545:CZ:9894, V-B:ARG:545:CD:9891, H-B:GLY:454:N:9017, V-A:GLU:543:C:4897, V-B:HIS:456:CD2:9035, V-A:LYS:547:CE:4945, H-B:LYS:547:NZ:9919, V-B:ASP:473:CG:9207, V-B:HIS:456:CG:9033, H-B:ARG:545:N:9888, V-B:HIS:456:CB:9032"]

$$$$
RR2_Rahimova_2017
     RDKit          3D

 46 50  0  0  0  0  0  0  0  0999 V2000
  129.5770  127.8550   54.1420 C   0  0  0  0  0  0  0  0  0  0  0  0
  129.8800  126.4740   53.9790 O   0  0  0  0  0  0  0  0  0  0  0  0
  129.5830  125.5930   55.0020 C   0  0  0  0  0  0  0  0  0  0  0  0
  128.2960  125.3770   55.5120 C   0  0  0  0  0  0  0  0  0  0  0  0
  128.0930  124.4700   56.5480 C   0  0  0  0  0  0  0  0  0  0  0  0
  129.1700  123.7620   57.1010 C   0  0  0  0  0  0  0  0  0  0  0  0
  128.9230  122.7850   58.2340 C   0  0  0  0  0  0  0  0  0  0  0  0
  127.7810  122.6150   58.6730 O   0  0  0  0  0  0  0  0  0  0  0  0
  130.0180  122.1520   58.7160 N   0  0  0  0  0  0  0  0  0  0  0  0
  129.8620  121.3160   59.8160 N   0  0  0  0  0  0  0  0  0  0  0  0
  130.9190  121.1310   60.6320 C   0  0  0  0  0  0  0  0  0  0  0  0
  132.0720  121.5010   60.3880 O   0  0  0  0  0  0  0  0  0  0  0  0
  130.6150  120.4240   61.9600 C   0  0  0  0  0  0  0  0  0  0  0  0
  130.3310  121.5390   63.3840 S   0  0  0  0  0  0  0  0  0  0  0  0
  129.9110  123.0370   62.5460 C   0  0  0  0  0  0  0  0  0  0  0  0
  129.0880  123.0790   61.5280 N   0  0  0  0  0  0  0  0  0  0  0  0
  129.0480  124.3910   61.0770 N   0  0  0  0  0  0  0  0  0  0  0  0
  129.8270  125.1000   61.8600 C   0  0  0  0  0  0  0  0  0  0  0  0
  130.0300  126.5720   61.7010 C   0  0  0  0  0  0  0  0  0  0  0  0
  130.7840  127.0570   60.6290 C   0  0  0  0  0  0  0  0  0  0  0  0
  130.9860  128.4250   60.4770 C   0  0  0  0  0  0  0  0  0  0  0  0
  130.4200  129.3250   61.3870 C   0  0  0  0  0  0  0  0  0  0  0  0
  130.5980  130.7130   61.2890 N   0  0  0  0  0  0  0  0  0  0  0  0
  129.4980  131.8170   60.4350 S   0  0  0  0  0  0  0  0  0  0  0  0
  129.6460  133.1220   61.0910 O   0  0  0  0  0  0  0  0  0  0  0  0
  128.1850  131.1680   60.3410 O   0  0  0  0  0  0  0  0  0  0  0  0
  130.1850  131.9850   58.7900 C   0  0  0  0  0  0  0  0  0  0  0  0
  131.3960  131.3740   58.4590 C   0  0  0  0  0  0  0  0  0  0  0  0
  131.9220  131.5290   57.1790 C   0  0  0  0  0  0  0  0  0  0  0  0
  131.2340  132.2900   56.2300 C   0  0  0  0  0  0  0  0  0  0  0  0
  131.8160  132.4710   54.8400 C   0  0  0  0  0  0  0  0  0  0  0  0
  130.0250  132.9030   56.5650 C   0  0  0  0  0  0  0  0  0  0  0  0
  129.5000  132.7500   57.8450 C   0  0  0  0  0  0  0  0  0  0  0  0
  129.6640  128.8400   62.4550 C   0  0  0  0  0  0  0  0  0  0  0  0
  129.4680  127.4710   62.6120 C   0  0  0  0  0  0  0  0  0  0  0  0
  130.4150  124.2950   62.8210 N   0  0  0  0  0  0  0  0  0  0  0  0
  131.3450  124.6560   63.8180 C   0  0  0  0  0  0  0  0  0  0  0  0
  132.7130  124.5470   63.5670 C   0  0  0  0  0  0  0  0  0  0  0  0
  133.6260  124.9090   64.5540 C   0  0  0  0  0  0  0  0  0  0  0  0
  133.1840  125.3800   65.7910 C   0  0  0  0  0  0  0  0  0  0  0  0
  134.1640  125.7140   66.7070 O   0  0  0  0  0  0  0  0  0  0  0  0
  135.3660  124.9510   66.7470 C   0  0  0  0  0  0  0  0  0  0  0  0
  131.8050  125.4860   66.0350 C   0  0  0  0  0  0  0  0  0  0  0  0
  130.8890  125.1270   65.0510 C   0  0  0  0  0  0  0  0  0  0  0  0
  130.4550  123.9800   56.5820 C   0  0  0  0  0  0  0  0  0  0  0  0
  130.6550  124.8860   55.5440 C   0  0  0  0  0  0  0  0  0  0  0  0
  1  2  1  0
  2  3  1  0
  3  4  2  0
  4  5  1  0
  5  6  2  0
  6  7  1  0
  7  8  2  0
  7  9  1  0
  9 10  1  0
 10 11  1  0
 11 12  2  0
 11 13  1  0
 13 14  1  0
 14 15  1  0
 15 16  2  0
 16 17  1  0
 17 18  2  0
 18 19  1  0
 19 20  2  0
 20 21  1  0
 21 22  2  0
 22 23  1  0
 23 24  1  0
 24 25  2  0
 24 26  2  0
 24 27  1  0
 27 28  2  0
 28 29  1  0
 29 30  2  0
 30 31  1  0
 30 32  1  0
 32 33  2  0
 22 34  1  0
 34 35  2  0
 18 36  1  0
 36 37  1  0
 37 38  2  0
 38 39  1  0
 39 40  2  0
 40 41  1  0
 41 42  1  0
 40 43  1  0
 43 44  2  0
  6 45  1  0
 45 46  2  0
 46  3  1  0
 36 15  1  0
 44 37  1  0
 35 19  1  0
 33 27  1  0
M  END
>  <Binding energies>  (49) 
[-10.08]

>  <Ligand effiencies>  (49) 
[-0.2057142857142857]

>  <Interactions>  (49) 
["V-B:ALA:541:CB:9860, V-B:TYR:539:CE2:9844, H-B:TYR:539:O:9836, V-B:MET:535:CE:9803, V-B:TYR:539:CD2:9842, V-B:TYR:539:C:9835, V-B:TYR:539:CZ:9845, H-A:ARG:545:NE:4919, H-A:GLU:543:OE2:4905, H-A:TYR:484:OH:4343, V-A:ARG:545:CZ:4921, H-A:HIS:456:NE2:4065, V-A:GLU:543:CD:4903, V-A:LEU:363:CD1:3184, V-A:PRO:540:N:4879, V-A:TYR:539:CE1:4870, V-A:TYR:539:C:4862, V-A:TYR:539:CD1:4868, V-A:PRO:540:CA:4878, H-A:ALA:541:N:4886, V-A:PRO:540:CD:4882, V-A:ILE:538:CA:4855, V-A:PRO:540:CB:4880, V-A:ARG:545:CD:4918, V-A:GLY:454:CA:4044, V-A:ARG:545:CG:4917, V-A:GLY:453:CA:4039, V-A:GLY:453:C:4037, V-A:HIS:456:CD2:4063, V-A:LEU:475:CD2:4254, H-A:LYS:534:NZ:4818, V-A:ILE:538:CG2:4858, V-A:TYR:531:CE1:4787, V-A:TYR:531:CZ:4789, V-A:ILE:538:CD1:4860, V-A:MET:535:CG:4828, V-A:LEU:475:CD1:4253, V-A:ILE:455:C:4047"]

$$$$
RR33_Rahimova_2017
     RDKit          3D

 18 19  0  0  0  0  0  0  0  0999 V2000
  129.8500  127.5950   53.6400 C   0  0  0  0  0  0  0  0  0  0  0  0
  129.1100  126.5060   54.4230 C   0  0  0  0  0  0  0  0  0  0  0  0
  129.8840  125.3110   54.3890 O   0  0  0  0  0  0  0  0  0  0  0  0
  130.0640  124.5860   55.5510 C   0  0  0  0  0  0  0  0  0  0  0  0
  131.3360  124.6320   56.1210 C   0  0  0  0  0  0  0  0  0  0  0  0
  131.6130  123.9310   57.2920 C   0  0  0  0  0  0  0  0  0  0  0  0
  130.6170  123.1700   57.9120 C   0  0  0  0  0  0  0  0  0  0  0  0
  130.9160  122.4170   59.1680 C   0  0  0  0  0  0  0  0  0  0  0  0
  130.2280  121.4280   59.6940 N   0  0  0  0  0  0  0  0  0  0  0  0
  130.8840  121.0930   60.7940 C   0  0  0  0  0  0  0  0  0  0  0  0
  130.3950  119.9650   61.6780 C   0  0  0  0  0  0  0  0  0  0  0  0
  129.2930  119.2560   61.0430 N   0  0  0  0  0  0  0  0  0  0  0  0
  129.7680  118.0450   60.3950 C   0  0  0  0  0  0  0  0  0  0  0  0
  132.0020  121.9040   60.9370 C   0  0  0  0  0  0  0  0  0  0  0  0
  133.1220  122.0220   61.9420 C   0  0  0  0  0  0  0  0  0  0  0  0
  132.0180  122.7570   59.8870 O   0  0  0  0  0  0  0  0  0  0  0  0
  129.3400  123.1250   57.3460 C   0  0  0  0  0  0  0  0  0  0  0  0
  129.0620  123.8260   56.1740 C   0  0  0  0  0  0  0  0  0  0  0  0
  1  2  1  0
  2  3  1  0
  3  4  1  0
  4  5  2  0
  5  6  1  0
  6  7  2  0
  7  8  1  0
  8  9  2  0
  9 10  1  0
 10 11  1  0
 11 12  1  0
 12 13  1  0
 10 14  2  0
 14 15  1  0
 14 16  1  0
  7 17  1  0
 17 18  2  0
 18  4  1  0
 16  8  1  0
M  END
>  <Binding energies>  (50) 
[-5.37]

>  <Ligand effiencies>  (50) 
[-0.2826315789473684]

>  <Interactions>  (50) 
["V-B:ALA:541:CB:9860, V-B:TYR:539:CE2:9844, H-B:TYR:539:O:9836, V-B:MET:535:CE:9803, V-A:TRP:381:CH2:3367, V-B:TYR:539:CD2:9842, V-B:TYR:539:CE1:9843, V-B:TYR:539:C:9835, V-B:TYR:539:CZ:9845, H-B:ALA:541:N:9859, V-A:ILE:369:CD1:3234, V-A:TRP:381:CZ3:3366, V-A:LEU:475:CD2:4254, V-A:LYS:534:CD:4816, H-A:LYS:534:NZ:4818, V-A:TYR:531:CE1:4787, V-A:TYR:531:CZ:4789, V-A:MET:535:CG:4828, V-A:TRP:381:CZ2:3365, V-A:PRO:482:CG:4322, V-A:PRO:482:CB:4321, V-A:LEU:475:CD1:4253, V-A:TRP:381:CE3:3363, V-B:TYR:539:CB:9839, V-A:TRP:381:CE2:3362, V-A:TRP:381:CD2:3360"]

$$$$
RR3_Rahimova_2017
     RDKit          3D

 38 44  0  0  0  0  0  0  0  0999 V2000
  131.2170  133.1900   54.7840 C   0  0  0  0  0  0  0  0  0  0  0  0
  132.1750  132.8150   55.7190 C   0  0  0  0  0  0  0  0  0  0  0  0
  131.7850  132.1490   56.8770 C   0  0  0  0  0  0  0  0  0  0  0  0
  130.4350  131.8490   57.1160 C   0  0  0  0  0  0  0  0  0  0  0  0
  130.0170  131.1320   58.3610 C   0  0  0  0  0  0  0  0  0  0  0  0
  130.4520  129.8250   58.6210 C   0  0  0  0  0  0  0  0  0  0  0  0
  130.0600  129.1570   59.7770 C   0  0  0  0  0  0  0  0  0  0  0  0
  129.2160  129.7800   60.7000 C   0  0  0  0  0  0  0  0  0  0  0  0
  128.7860  129.0660   61.9430 C   0  0  0  0  0  0  0  0  0  0  0  0
  129.0460  129.5910   63.1350 N   0  0  0  0  0  0  0  0  0  0  0  0
  128.5220  128.7820   64.0240 C   0  0  0  0  0  0  0  0  0  0  0  0
  128.5710  128.9750   65.4710 C   0  0  0  0  0  0  0  0  0  0  0  0
  128.3140  130.1600   66.1390 C   0  0  0  0  0  0  0  0  0  0  0  0
  128.4440  129.9780   67.4910 N   0  0  0  0  0  0  0  0  0  0  0  0
  128.7920  128.6720   67.7570 C   0  0  0  0  0  0  0  0  0  0  0  0
  129.0330  128.0200   68.9710 C   0  0  0  0  0  0  0  0  0  0  0  0
  129.3730  126.6700   68.9080 C   0  0  0  0  0  0  0  0  0  0  0  0
  129.4710  125.9940   67.6960 C   0  0  0  0  0  0  0  0  0  0  0  0
  129.2310  126.6420   66.4870 C   0  0  0  0  0  0  0  0  0  0  0  0
  128.8840  128.0060   66.4940 C   0  0  0  0  0  0  0  0  0  0  0  0
  127.9190  127.7150   63.4180 N   0  0  0  0  0  0  0  0  0  0  0  0
  128.0890  127.8510   62.0640 C   0  0  0  0  0  0  0  0  0  0  0  0
  127.6120  126.8340   61.0800 C   0  0  0  0  0  0  0  0  0  0  0  0
  128.1990  125.5690   61.0400 C   0  0  0  0  0  0  0  0  0  0  0  0
  127.7650  124.6240   60.1160 C   0  0  0  0  0  0  0  0  0  0  0  0
  126.7320  124.9180   59.2140 C   0  0  0  0  0  0  0  0  0  0  0  0
  126.2820  123.9050   58.2090 C   0  0  0  0  0  0  0  0  0  0  0  0
  127.2100  123.0900   57.5430 C   0  0  0  0  0  0  0  0  0  0  0  0
  126.7900  122.1440   56.6110 C   0  0  0  0  0  0  0  0  0  0  0  0
  125.4340  122.0030   56.3340 C   0  0  0  0  0  0  0  0  0  0  0  0
  124.4960  122.8000   56.9830 C   0  0  0  0  0  0  0  0  0  0  0  0
  124.9190  123.7450   57.9140 C   0  0  0  0  0  0  0  0  0  0  0  0
  126.1390  126.1870   59.2760 C   0  0  0  0  0  0  0  0  0  0  0  0
  126.5710  127.1350   60.1990 C   0  0  0  0  0  0  0  0  0  0  0  0
  128.7870  131.0870   60.4570 C   0  0  0  0  0  0  0  0  0  0  0  0
  129.1810  131.7520   59.2990 C   0  0  0  0  0  0  0  0  0  0  0  0
  129.4860  132.2390   56.1590 C   0  0  0  0  0  0  0  0  0  0  0  0
  129.8730  132.9050   54.9990 C   0  0  0  0  0  0  0  0  0  0  0  0
  1  2  2  0
  2  3  1  0
  3  4  2  0
  4  5  1  0
  5  6  2  0
  6  7  1  0
  7  8  2  0
  8  9  1  0
  9 10  1  0
 10 11  2  0
 11 12  1  0
 12 13  2  0
 13 14  1  0
 14 15  1  0
 15 16  2  0
 16 17  1  0
 17 18  2  0
 18 19  1  0
 19 20  2  0
 11 21  1  0
 21 22  1  0
 22 23  1  0
 23 24  2  0
 24 25  1  0
 25 26  2  0
 26 27  1  0
 27 28  2  0
 28 29  1  0
 29 30  2  0
 30 31  1  0
 31 32  2  0
 26 33  1  0
 33 34  2  0
  8 35  1  0
 35 36  2  0
  4 37  1  0
 37 38  2  0
 38  1  1  0
 36  5  1  0
 22  9  2  0
 34 23  1  0
 20 12  1  0
 32 27  1  0
 20 15  1  0
M  END
>  <Binding energies>  (51) 
[-9.26]

>  <Ligand effiencies>  (51) 
[-0.23149999999999998]

>  <Interactions>  (51) 
["V-B:MET:535:CE:9803, V-B:PRO:540:CD:9855, V-B:PRO:540:CA:9851, V-B:PRO:540:N:9852, V-B:PRO:540:CB:9853, V-B:TYR:539:C:9835, V-A:HIS:456:CE1:4064, V-B:GLU:543:CD:9876, V-B:GLU:543:CG:9875, V-B:GLU:543:CB:9874, V-A:GLU:543:CD:4903, H-B:GLU:543:OE2:9878, V-A:LEU:363:CD1:3184, V-A:PRO:540:N:4879, V-A:TYR:539:CE1:4870, V-A:TYR:539:CD1:4868, V-A:PRO:540:CG:4881, V-A:PRO:540:CA:4878, V-A:PRO:540:CD:4882, V-A:ILE:538:CA:4855, V-A:PRO:540:CB:4880, V-A:GLU:543:CB:4901, V-B:HIS:456:CE1:9037, V-A:ILE:538:CG2:4858, V-B:LEU:363:CD1:8156, H-B:TYR:484:OH:9315, V-A:GLU:543:CG:4902, V-A:ILE:538:CD1:4860, V-A:ILE:538:C:4853, V-A:ILE:538:CB:4857, H-A:GLU:543:O:4898, V-B:TYR:484:CZ:9314, V-B:TYR:484:CE1:9312, H-B:HIS:456:NE2:9038, V-B:PRO:540:CG:9854, V-B:ILE:538:CG2:9831, V-B:ASP:366:CG:8180, V-B:TYR:539:CA:9837, H-B:GLU:543:OE1:9877"]

$$$$
RR4_Rahimova_2017
     RDKit          3D

 40 44  0  0  0  0  0  0  0  0999 V2000
  128.4560  129.1280   72.7030 C   0  0  0  0  0  0  0  0  0  0  0  0
  127.9020  128.0130   72.0140 O   0  0  0  0  0  0  0  0  0  0  0  0
  128.1510  127.8630   70.6630 C   0  0  0  0  0  0  0  0  0  0  0  0
  129.3700  128.3490   70.1950 C   0  0  0  0  0  0  0  0  0  0  0  0
  129.7070  128.2400   68.8490 C   0  0  0  0  0  0  0  0  0  0  0  0
  128.8330  127.6430   67.9290 C   0  0  0  0  0  0  0  0  0  0  0  0
  129.1990  127.5290   66.4780 C   0  0  0  0  0  0  0  0  0  0  0  0
  130.1100  126.5810   65.9990 C   0  0  0  0  0  0  0  0  0  0  0  0
  130.4160  126.5110   64.6330 C   0  0  0  0  0  0  0  0  0  0  0  0
  131.3760  125.4540   64.1920 C   0  0  0  0  0  0  0  0  0  0  0  0
  130.9030  124.2050   63.7780 C   0  0  0  0  0  0  0  0  0  0  0  0
  131.7890  123.2190   63.3540 C   0  0  0  0  0  0  0  0  0  0  0  0
  133.1620  123.4630   63.3290 C   0  0  0  0  0  0  0  0  0  0  0  0
  133.9640  122.4260   62.8920 O   0  0  0  0  0  0  0  0  0  0  0  0
  133.5640  121.6690   61.7550 C   0  0  0  0  0  0  0  0  0  0  0  0
  133.6400  124.7170   63.7370 C   0  0  0  0  0  0  0  0  0  0  0  0
  132.7520  125.7020   64.1610 C   0  0  0  0  0  0  0  0  0  0  0  0
  129.8050  127.4400   63.7560 C   0  0  0  0  0  0  0  0  0  0  0  0
  130.0890  127.4110   62.3180 C   0  0  0  0  0  0  0  0  0  0  0  0
  130.3140  127.3880   61.1840 N   0  0  0  0  0  0  0  0  0  0  0  0
  128.9180  128.3900   64.3120 C   0  0  0  0  0  0  0  0  0  0  0  0
  128.0720  129.6370   63.3650 S   0  0  0  0  0  0  0  0  0  0  0  0
  128.9590  131.2130   63.6020 C   0  0  0  0  0  0  0  0  0  0  0  0
  129.6770  131.7350   62.3500 C   0  0  0  0  0  0  0  0  0  0  0  0
  130.6430  132.4950   62.4530 O   0  0  0  0  0  0  0  0  0  0  0  0
  129.1540  131.3070   61.1780 N   0  0  0  0  0  0  0  0  0  0  0  0
  129.5790  131.5990   59.8790 C   0  0  0  0  0  0  0  0  0  0  0  0
  128.5430  132.3360   58.6860 S   0  0  0  0  0  0  0  0  0  0  0  0
  129.8040  132.3090   57.4930 C   0  0  0  0  0  0  0  0  0  0  0  0
  130.9850  131.7450   58.0020 C   0  0  0  0  0  0  0  0  0  0  0  0
  130.8590  131.3580   59.3580 C   0  0  0  0  0  0  0  0  0  0  0  0
  131.9480  130.7640   60.1290 C   0  0  0  0  0  0  0  0  0  0  0  0
  132.8100  130.2920   60.7390 N   0  0  0  0  0  0  0  0  0  0  0  0
  132.2570  131.6440   57.1530 C   0  0  0  0  0  0  0  0  0  0  0  0
  132.1620  132.5650   55.9160 C   0  0  0  0  0  0  0  0  0  0  0  0
  130.8040  132.4410   55.2020 C   0  0  0  0  0  0  0  0  0  0  0  0
  129.6350  132.9000   56.0990 C   0  0  0  0  0  0  0  0  0  0  0  0
  128.6150  128.4150   65.6310 N   0  0  0  0  0  0  0  0  0  0  0  0
  127.6090  127.1530   68.4120 C   0  0  0  0  0  0  0  0  0  0  0  0
  127.2680  127.2610   69.7570 C   0  0  0  0  0  0  0  0  0  0  0  0
  1  2  1  0
  2  3  1  0
  3  4  2  0
  4  5  1  0
  5  6  2  0
  6  7  1  0
  7  8  2  0
  8  9  1  0
  9 10  1  0
 10 11  2  0
 11 12  1  0
 12 13  2  0
 13 14  1  0
 14 15  1  0
 13 16  1  0
 16 17  2  0
  9 18  2  0
 18 19  1  0
 19 20  3  0
 18 21  1  0
 21 22  1  0
 22 23  1  0
 23 24  1  0
 24 25  2  0
 24 26  1  0
 26 27  1  0
 27 28  1  0
 28 29  1  0
 29 30  2  0
 30 31  1  0
 31 32  1  0
 32 33  3  0
 30 34  1  0
 34 35  1  0
 35 36  1  0
 36 37  1  0
 21 38  2  0
  6 39  1  0
 39 40  2  0
 40  3  1  0
 38  7  1  0
 17 10  1  0
 31 27  2  0
 37 29  1  0
M  END
>  <Binding energies>  (52) 
[-10.09]

>  <Ligand effiencies>  (52) 
[-0.24609756097560975]

>  <Interactions>  (52) 
["V-B:GLU:543:C:9870, V-A:HIS:456:CE1:4064, H-A:GLY:454:N:4045, V-A:ARG:545:CZ:4921, V-B:GLU:543:CB:9874, V-A:GLU:543:CD:4903, V-A:TYR:539:CZ:4872, H-A:ARG:545:NH2:4923, V-A:LEU:363:CD1:3184, V-A:PRO:540:N:4879, V-A:TYR:539:CE1:4870, V-A:TYR:539:CD1:4868, V-A:PRO:540:CG:4881, V-A:PRO:540:CA:4878, V-A:TYR:539:CG:4867, H-A:ALA:541:N:4886, V-A:PRO:540:CD:4882, V-A:PRO:540:CB:4880, V-A:TYR:539:CE2:4871, V-A:GLY:454:CA:4044, V-A:GLU:543:CB:4901, V-B:HIS:456:CE1:9037, V-A:ILE:369:CD1:3234, V-A:LEU:475:CD2:4254, V-A:ILE:538:CG2:4858, V-A:GLU:543:CG:4902, V-B:HIS:456:CD2:9035, H-B:LYS:547:NZ:9919, V-B:GLY:544:C:9880"]

$$$$
RR6_Rahimova_2017
     RDKit          3D

 38 41  0  0  0  0  0  0  0  0999 V2000
  129.5200  132.8320   54.8530 C   0  0  0  0  0  0  0  0  0  0  0  0
  130.0650  133.2470   56.0970 O   0  0  0  0  0  0  0  0  0  0  0  0
  131.3100  132.8610   56.4780 C   0  0  0  0  0  0  0  0  0  0  0  0
  132.3390  133.2140   55.8930 O   0  0  0  0  0  0  0  0  0  0  0  0
  131.3120  131.9640   57.6820 C   0  0  0  0  0  0  0  0  0  0  0  0
  130.2710  131.9790   58.6220 C   0  0  0  0  0  0  0  0  0  0  0  0
  130.3050  131.1390   59.7330 C   0  0  0  0  0  0  0  0  0  0  0  0
  131.3890  130.2690   59.9240 C   0  0  0  0  0  0  0  0  0  0  0  0
  131.5380  129.4020   61.0220 N   0  0  0  0  0  0  0  0  0  0  0  0
  130.9130  128.2320   61.2800 C   0  0  0  0  0  0  0  0  0  0  0  0
  130.0730  127.6970   60.5570 O   0  0  0  0  0  0  0  0  0  0  0  0
  131.2590  127.5790   62.6230 C   0  0  0  0  0  0  0  0  0  0  0  0
  129.9370  126.5080   63.2800 S   0  0  0  0  0  0  0  0  0  0  0  0
  129.1260  127.4270   64.5720 C   0  0  0  0  0  0  0  0  0  0  0  0
  128.2860  128.3920   64.1270 N   0  0  0  0  0  0  0  0  0  0  0  0
  127.5880  129.1400   65.0180 C   0  0  0  0  0  0  0  0  0  0  0  0
  126.6330  130.1450   64.4430 C   0  0  0  0  0  0  0  0  0  0  0  0
  125.2490  130.0210   64.6380 C   0  0  0  0  0  0  0  0  0  0  0  0
  124.3630  130.9460   64.0930 C   0  0  0  0  0  0  0  0  0  0  0  0
  124.8460  132.0190   63.3450 C   0  0  0  0  0  0  0  0  0  0  0  0
  123.8760  133.0200   62.7450 C   0  0  0  0  0  0  0  0  0  0  0  0
  126.2170  132.1610   63.1420 C   0  0  0  0  0  0  0  0  0  0  0  0
  127.0980  131.2350   63.6890 C   0  0  0  0  0  0  0  0  0  0  0  0
  127.7350  128.9360   66.3940 C   0  0  0  0  0  0  0  0  0  0  0  0
  128.6020  127.9460   66.8790 C   0  0  0  0  0  0  0  0  0  0  0  0
  128.6970  127.7700   68.3590 C   0  0  0  0  0  0  0  0  0  0  0  0
  129.8430  128.1850   69.0440 C   0  0  0  0  0  0  0  0  0  0  0  0
  129.9340  128.0390   70.4260 C   0  0  0  0  0  0  0  0  0  0  0  0
  128.8810  127.4800   71.1490 C   0  0  0  0  0  0  0  0  0  0  0  0
  129.0580  127.3760   72.5160 O   0  0  0  0  0  0  0  0  0  0  0  0
  130.3740  127.2160   73.0340 C   0  0  0  0  0  0  0  0  0  0  0  0
  127.7270  127.0660   70.4670 C   0  0  0  0  0  0  0  0  0  0  0  0
  127.6390  127.2150   69.0860 C   0  0  0  0  0  0  0  0  0  0  0  0
  129.3270  127.1690   65.9430 C   0  0  0  0  0  0  0  0  0  0  0  0
  130.2720  126.1370   66.3830 C   0  0  0  0  0  0  0  0  0  0  0  0
  131.0160  125.3220   66.7310 N   0  0  0  0  0  0  0  0  0  0  0  0
  132.4180  130.2390   58.9820 C   0  0  0  0  0  0  0  0  0  0  0  0
  132.3830  131.0820   57.8740 C   0  0  0  0  0  0  0  0  0  0  0  0
  1  2  1  0
  2  3  1  0
  3  4  2  0
  3  5  1  0
  5  6  2  0
  6  7  1  0
  7  8  2  0
  8  9  1  0
  9 10  1  0
 10 11  2  0
 10 12  1  0
 12 13  1  0
 13 14  1  0
 14 15  2  0
 15 16  1  0
 16 17  1  0
 17 18  2  0
 18 19  1  0
 19 20  2  0
 20 21  1  0
 20 22  1  0
 22 23  2  0
 16 24  2  0
 24 25  1  0
 25 26  1  0
 26 27  2  0
 27 28  1  0
 28 29  2  0
 29 30  1  0
 30 31  1  0
 29 32  1  0
 32 33  2  0
 25 34  2  0
 34 35  1  0
 35 36  3  0
  8 37  1  0
 37 38  2  0
 38  5  1  0
 34 14  1  0
 23 17  1  0
 33 26  1  0
M  END
>  <Binding energies>  (53) 
[-9.84]

>  <Ligand effiencies>  (53) 
[-0.2523076923076923]

>  <Interactions>  (53) 
["V-B:GLU:543:C:9870, V-A:HIS:456:CE1:4064, H-A:GLU:543:OE2:4905, H-A:TYR:484:OH:4343, V-B:GLU:543:CD:9876, H-A:HIS:456:NE2:4065, V-B:GLU:543:CB:9874, V-A:GLU:543:CD:4903, V-A:LEU:363:CD1:3184, V-A:PRO:540:N:4879, V-A:TYR:539:CE1:4870, V-A:TYR:539:CD1:4868, V-A:PRO:540:CG:4881, V-A:PRO:540:CA:4878, V-A:PRO:540:CD:4882, V-A:ILE:538:CA:4855, H-A:ASP:366:OD2:3210, V-A:PRO:540:CB:4880, V-A:GLU:543:CB:4901, V-B:HIS:456:CE1:9037, H-A:TYR:539:N:4865, V-B:GLY:454:CA:9016, V-A:LYS:547:CE:4945, H-B:LYS:547:NZ:9919, V-B:GLY:544:C:9880, V-B:LEU:475:CD2:9226, V-B:ILE:369:CD1:8206"]

$$$$
RR7_Rahimova_2017
     RDKit          3D

 47 53  0  0  0  0  0  0  0  0999 V2000
  124.6490  132.9490   60.7620 C   0  0  0  0  0  0  0  0  0  0  0  0
  125.9060  133.5700   60.5100 O   0  0  0  0  0  0  0  0  0  0  0  0
  126.9100  132.8360   59.9090 C   0  0  0  0  0  0  0  0  0  0  0  0
  128.1900  133.3860   59.9430 C   0  0  0  0  0  0  0  0  0  0  0  0
  129.2660  132.7170   59.3680 C   0  0  0  0  0  0  0  0  0  0  0  0
  129.0840  131.4810   58.7320 C   0  0  0  0  0  0  0  0  0  0  0  0
  130.2770  130.6920   58.1080 C   0  0  0  0  0  0  0  0  0  0  0  0
  129.8230  129.3310   57.9410 O   0  0  0  0  0  0  0  0  0  0  0  0
  129.6560  128.4860   59.0850 C   0  0  0  0  0  0  0  0  0  0  0  0
  130.9660  127.7220   59.3380 C   0  0  1  0  0  0  0  0  0  0  0  0
  131.2320  127.8110   60.7350 O   0  0  0  0  0  0  0  0  0  0  0  0
  131.3130  126.5500   61.3340 C   0  0  1  0  0  0  0  0  0  0  0  0
  130.8160  126.6110   62.6960 N   0  0  0  0  0  0  0  0  0  0  0  0
  129.6830  127.2530   63.1620 C   0  0  0  0  0  0  0  0  0  0  0  0
  129.4930  127.1870   64.4570 N   0  0  0  0  0  0  0  0  0  0  0  0
  130.5840  126.4970   64.9120 C   0  0  0  0  0  0  0  0  0  0  0  0
  130.9810  126.1090   66.2060 C   0  0  0  0  0  0  0  0  0  0  0  0
  130.1520  126.4400   67.2950 N   0  0  0  0  0  0  0  0  0  0  0  0
  130.3050  127.4220   68.2140 C   0  0  0  0  0  0  0  0  0  0  0  0
  131.2590  128.2040   68.2440 O   0  0  0  0  0  0  0  0  0  0  0  0
  129.2240  127.5040   69.2710 C   0  0  0  0  0  0  0  0  0  0  0  0
  127.9000  127.1810   68.9360 C   0  0  0  0  0  0  0  0  0  0  0  0
  126.8920  127.2440   69.8940 C   0  0  0  0  0  0  0  0  0  0  0  0
  127.1990  127.6260   71.1960 C   0  0  0  0  0  0  0  0  0  0  0  0
  128.5070  127.9470   71.5490 C   0  0  0  0  0  0  0  0  0  0  0  0
  129.5170  127.8850   70.5920 C   0  0  0  0  0  0  0  0  0  0  0  0
  132.1550  125.4280   66.3680 N   0  0  0  0  0  0  0  0  0  0  0  0
  132.8900  125.1580   65.2580 C   0  0  0  0  0  0  0  0  0  0  0  0
  132.6010  125.4810   63.9690 N   0  0  0  0  0  0  0  0  0  0  0  0
  131.4420  126.1410   63.8400 C   0  0  0  0  0  0  0  0  0  0  0  0
  130.5400  125.6160   60.4090 C   0  0  0  0  0  0  0  0  0  0  0  0
  130.9020  126.2130   59.0600 C   0  0  2  0  0  0  0  0  0  0  0  0
  132.1270  125.7020   58.5630 O   0  0  0  0  0  0  0  0  0  0  0  0
  130.6590  131.2180   56.6980 C   0  0  0  0  0  0  0  0  0  0  0  0
  130.7420  130.3330   55.6110 C   0  0  0  0  0  0  0  0  0  0  0  0
  131.0970  130.7900   54.3460 C   0  0  0  0  0  0  0  0  0  0  0  0
  131.3740  132.1400   54.1550 C   0  0  0  0  0  0  0  0  0  0  0  0
  131.2990  133.0350   55.2170 C   0  0  0  0  0  0  0  0  0  0  0  0
  130.9450  132.5760   56.4830 C   0  0  0  0  0  0  0  0  0  0  0  0
  131.5980  130.7020   58.9290 C   0  0  0  0  0  0  0  0  0  0  0  0
  132.8170  130.3720   58.3170 C   0  0  0  0  0  0  0  0  0  0  0  0
  134.0030  130.3680   59.0450 C   0  0  0  0  0  0  0  0  0  0  0  0
  133.9800  130.6870   60.4000 C   0  0  0  0  0  0  0  0  0  0  0  0
  132.7810  131.0040   61.0300 C   0  0  0  0  0  0  0  0  0  0  0  0
  131.5970  131.0070   60.3000 C   0  0  0  0  0  0  0  0  0  0  0  0
  127.7960  130.9240   58.7130 C   0  0  0  0  0  0  0  0  0  0  0  0
  126.7200  131.5930   59.2880 C   0  0  0  0  0  0  0  0  0  0  0  0
  1  2  1  0
  2  3  1  0
  3  4  2  0
  4  5  1  0
  5  6  2  0
  6  7  1  0
  7  8  1  0
  8  9  1  0
 10  9  1  1
 10 11  1  0
 11 12  1  0
 12 13  1  1
 13 14  1  0
 14 15  2  0
 15 16  1  0
 16 17  2  0
 17 18  1  0
 18 19  1  0
 19 20  2  0
 19 21  1  0
 21 22  2  0
 22 23  1  0
 23 24  2  0
 24 25  1  0
 25 26  2  0
 17 27  1  0
 27 28  2  0
 28 29  1  0
 29 30  2  0
 12 31  1  0
 31 32  1  0
 32 33  1  1
  7 34  1  0
 34 35  2  0
 35 36  1  0
 36 37  2  0
 37 38  1  0
 38 39  2  0
  7 40  1  0
 40 41  2  0
 41 42  1  0
 42 43  2  0
 43 44  1  0
 44 45  2  0
  6 46  1  0
 46 47  2  0
 47  3  1  0
 32 10  1  0
 39 34  1  0
 45 40  1  0
 30 13  1  0
 30 16  1  0
 26 21  1  0
M  END
>  <Binding energies>  (54) 
[-10.19]

>  <Ligand effiencies>  (54) 
[-0.20795918367346938]

>  <Interactions>  (54) 
["V-B:GLU:543:C:9870, V-A:HIS:456:CE1:4064, V-A:ASP:366:CG:3208, H-A:TYR:484:OH:4343, H-A:HIS:456:NE2:4065, V-B:GLU:543:CB:9874, V-A:GLU:543:CD:4903, V-A:TYR:539:CZ:4872, H-A:ARG:545:NH2:4923, V-A:PRO:540:N:4879, V-A:LEU:363:CA:3180, V-A:ASN:362:C:3167, V-A:TYR:539:C:4862, V-A:ASP:366:CB:3207, V-A:PRO:540:CA:4878, V-A:LEU:363:CB:3182, H-A:TYR:531:OH:4790, V-A:PRO:540:CD:4882, V-A:ILE:538:CA:4855, H-A:ASP:366:OD2:3210, V-A:TYR:531:CE2:4788, V-A:PRO:540:CB:4880, V-A:TYR:539:CE2:4871, V-A:TYR:539:CD2:4869, V-B:HIS:456:CE1:9037, V-A:ILE:538:CG2:4858, V-A:TYR:531:CZ:4789, V-A:ILE:538:CD1:4860, V-A:ILE:538:C:4853, V-A:ILE:538:CB:4857, V-B:HIS:456:CD2:9035, H-B:GLU:543:O:9871, V-A:ASN:362:CB:3171, V-A:ASN:362:CA:3169, V-B:GLY:544:C:9880, V-B:ILE:369:CD1:8206, V-B:HIS:456:CG:9033"]

$$$$
RR8_A_Rahimova_2017
     RDKit          3D

 42 46  0  0  0  0  0  0  0  0999 V2000
  131.5510  123.7370   72.8470 O   0  0  0  0  0  0  0  0  0  0  0  0
  130.3250  123.6710   72.7100 C   0  0  0  0  0  0  0  0  0  0  0  0
  129.4610  124.7010   72.9690 O   0  0  0  0  0  0  0  0  0  0  0  0
  129.8610  125.9910   72.5970 C   0  0  1  0  0  0  0  0  0  0  0  0
  128.9940  126.5480   71.6520 O   0  0  0  0  0  0  0  0  0  0  0  0
  128.7870  127.9400   71.8780 C   0  0  2  0  0  0  0  0  0  0  0  0
  129.1530  128.7050   70.5940 C   0  0  0  0  0  0  0  0  0  0  0  0
  129.8330  127.8220   69.7130 O   0  0  0  0  0  0  0  0  0  0  0  0
  130.0130  128.3400   68.4010 C   0  0  0  0  0  0  0  0  0  0  0  0
  128.6860  128.3300   67.6570 C   0  0  0  0  0  0  0  0  0  0  0  0
  128.4270  129.2980   66.6830 C   0  0  0  0  0  0  0  0  0  0  0  0
  127.2150  129.2880   65.9950 C   0  0  0  0  0  0  0  0  0  0  0  0
  126.2670  128.3070   66.2810 C   0  0  0  0  0  0  0  0  0  0  0  0
  126.5200  127.3350   67.2470 C   0  0  0  0  0  0  0  0  0  0  0  0
  127.7320  127.3450   67.9330 C   0  0  0  0  0  0  0  0  0  0  0  0
  129.6620  128.2450   73.1010 C   0  0  1  0  0  0  0  0  0  0  0  0
  129.0580  129.1650   74.0080 O   0  0  0  0  0  0  0  0  0  0  0  0
  128.0040  129.9570   73.4720 C   0  0  0  0  0  0  0  0  0  0  0  0
  126.8930  130.1090   74.5020 C   0  0  0  0  0  0  0  0  0  0  0  0
  125.7730  129.2740   74.4430 C   0  0  0  0  0  0  0  0  0  0  0  0
  124.7500  129.4140   75.3760 C   0  0  0  0  0  0  0  0  0  0  0  0
  124.8460  130.3910   76.3650 C   0  0  0  0  0  0  0  0  0  0  0  0
  125.9550  131.2310   76.4280 C   0  0  0  0  0  0  0  0  0  0  0  0
  126.9780  131.0930   75.4930 C   0  0  0  0  0  0  0  0  0  0  0  0
  129.7530  126.9060   73.8090 C   0  0  2  0  0  0  0  0  0  0  0  0
  130.8950  126.8650   74.6620 O   0  0  0  0  0  0  0  0  0  0  0  0
  131.1880  125.5980   75.2390 C   0  0  0  0  0  0  0  0  0  0  0  0
  132.6930  125.3830   75.2790 C   0  0  0  0  0  0  0  0  0  0  0  0
  133.5440  126.2180   74.5470 C   0  0  0  0  0  0  0  0  0  0  0  0
  134.9210  126.0230   74.5950 C   0  0  0  0  0  0  0  0  0  0  0  0
  135.4470  124.9970   75.3770 C   0  0  0  0  0  0  0  0  0  0  0  0
  134.6070  124.1640   76.1140 C   0  0  0  0  0  0  0  0  0  0  0  0
  133.2280  124.3580   76.0670 C   0  0  0  0  0  0  0  0  0  0  0  0
  129.6240  122.4360   72.2230 C   0  0  0  0  0  0  0  0  0  0  0  0
  129.1690  122.3130   70.9010 C   0  0  0  0  0  0  0  0  0  0  0  0
  128.5210  121.1550   70.4800 C   0  0  0  0  0  0  0  0  0  0  0  0
  128.3090  120.0930   71.3680 C   0  0  0  0  0  0  0  0  0  0  0  0
  127.6190  118.8590   70.9180 N   0  0  0  0  0  0  0  0  0  0  0  0
  127.5130  117.9240   71.7050 O   0  0  0  0  0  0  0  0  0  0  0  0
  127.1780  118.8160   69.7730 O   0  0  0  0  0  0  0  0  0  0  0  0
  128.7600  120.2170   72.6880 C   0  0  0  0  0  0  0  0  0  0  0  0
  129.4080  121.3740   73.1100 C   0  0  0  0  0  0  0  0  0  0  0  0
  1  2  2  0
  2  3  1  0
  4  3  1  1
  4  5  1  0
  5  6  1  0
  6  7  1  6
  7  8  1  0
  8  9  1  0
  9 10  1  0
 10 11  2  0
 11 12  1  0
 12 13  2  0
 13 14  1  0
 14 15  2  0
  6 16  1  0
 16 17  1  1
 17 18  1  0
 18 19  1  0
 19 20  2  0
 20 21  1  0
 21 22  2  0
 22 23  1  0
 23 24  2  0
 16 25  1  0
 25 26  1  1
 26 27  1  0
 27 28  1  0
 28 29  2  0
 29 30  1  0
 30 31  2  0
 31 32  1  0
 32 33  2  0
  2 34  1  0
 34 35  2  0
 35 36  1  0
 36 37  2  0
 37 38  1  0
 38 39  2  0
 38 40  1  0
 37 41  1  0
 41 42  2  0
 25  4  1  0
 33 28  1  0
 42 34  1  0
 15 10  1  0
 24 19  1  0
M  CHG  2  38   1  40  -1
M  END
>  <Binding energies>  (55) 
[-10.48]

>  <Ligand effiencies>  (55) 
[-0.24952380952380954]

>  <Interactions>  (55) 
["V-B:GLU:543:C:9870, V-A:HIS:456:CE1:4064, V-B:GLU:543:CD:9876, V-B:GLU:543:CB:9874, V-A:GLU:543:CD:4903, V-A:GLU:543:CB:4901, V-B:ARG:545:CG:9890, V-B:HIS:456:CE1:9037, V-A:GLU:543:CG:4902, V-A:TYR:484:CA:4334, V-B:HIS:456:CD2:9035, V-A:LYS:547:CE:4945, V-A:TYR:484:CG:4337, H-A:TYR:484:N:4335, V-A:TYR:484:CB:4336, H-B:LYS:547:NZ:9919, V-B:GLU:543:CA:9872, V-B:LYS:547:CE:9918, H-A:LYS:547:NZ:4946, V-A:SER:483:CB:4328, V-A:TYR:484:CD1:4338, V-A:HIS:456:CG:4061, V-A:TYR:484:CE1:4340, V-A:HIS:456:CB:4060, V-A:ASP:473:CG:4235, V-B:ASP:473:CG:9207, V-B:HIS:456:CG:9033, V-A:LYS:547:CD:4944, V-A:VAL:457:C:4068, V-A:VAL:458:CG2:4082, V-A:HIS:456:C:4056, V-A:VAL:457:CA:4070, V-B:HIS:456:CB:9032, V-B:LYS:547:CD:9917, V-B:HIS:456:C:9028, V-B:VAL:458:CG2:9054, V-A:HIS:456:CA:4058"]

$$$$
RR8_B_Rahimova_2017
     RDKit          3D

 42 46  0  0  0  0  0  0  0  0999 V2000
  128.7000  132.8420   64.7050 O   0  0  0  0  0  0  0  0  0  0  0  0
  128.4140  131.7830   64.1380 C   0  0  0  0  0  0  0  0  0  0  0  0
  127.9390  131.6940   62.8590 O   0  0  0  0  0  0  0  0  0  0  0  0
  127.7260  132.8880   62.1450 C   0  0  2  0  0  0  0  0  0  0  0  0
  126.4930  132.8870   61.4840 O   0  0  0  0  0  0  0  0  0  0  0  0
  126.6140  132.3830   60.1540 C   0  0  2  0  0  0  0  0  0  0  0  0
  125.6860  131.1680   59.9800 C   0  0  0  0  0  0  0  0  0  0  0  0
  125.6010  130.4630   61.2120 O   0  0  0  0  0  0  0  0  0  0  0  0
  124.5150  130.8420   62.0440 C   0  0  0  0  0  0  0  0  0  0  0  0
  124.6900  130.2090   63.4160 C   0  0  0  0  0  0  0  0  0  0  0  0
  124.1650  130.8440   64.5460 C   0  0  0  0  0  0  0  0  0  0  0  0
  124.3430  130.2830   65.8080 C   0  0  0  0  0  0  0  0  0  0  0  0
  125.0450  129.0850   65.9350 C   0  0  0  0  0  0  0  0  0  0  0  0
  125.5660  128.4440   64.8140 C   0  0  0  0  0  0  0  0  0  0  0  0
  125.3900  129.0070   63.5520 C   0  0  0  0  0  0  0  0  0  0  0  0
  128.1110  132.0980   59.9920 C   0  0  1  0  0  0  0  0  0  0  0  0
  128.5180  132.3870   58.6500 O   0  0  0  0  0  0  0  0  0  0  0  0
  129.8650  132.8260   58.4590 C   0  0  0  0  0  0  0  0  0  0  0  0
  130.3330  132.6430   57.0190 C   0  0  0  0  0  0  0  0  0  0  0  0
  131.6990  132.5840   56.7280 C   0  0  0  0  0  0  0  0  0  0  0  0
  132.1230  132.3840   55.4170 C   0  0  0  0  0  0  0  0  0  0  0  0
  131.1800  132.2490   54.4010 C   0  0  0  0  0  0  0  0  0  0  0  0
  129.8170  132.3110   54.6820 C   0  0  0  0  0  0  0  0  0  0  0  0
  129.3920  132.5070   55.9950 C   0  0  0  0  0  0  0  0  0  0  0  0
  128.7630  133.0060   61.0290 C   0  0  2  0  0  0  0  0  0  0  0  0
  130.0510  132.5090   61.3850 O   0  0  0  0  0  0  0  0  0  0  0  0
  130.2270  131.1070   61.2510 C   0  0  0  0  0  0  0  0  0  0  0  0
  131.5550  130.8600   60.5560 C   0  0  0  0  0  0  0  0  0  0  0  0
  131.6010  130.1470   59.3550 C   0  0  0  0  0  0  0  0  0  0  0  0
  132.8260  129.9090   58.7370 C   0  0  0  0  0  0  0  0  0  0  0  0
  133.9980  130.3830   59.3210 C   0  0  0  0  0  0  0  0  0  0  0  0
  133.9590  131.0950   60.5180 C   0  0  0  0  0  0  0  0  0  0  0  0
  132.7350  131.3340   61.1360 C   0  0  0  0  0  0  0  0  0  0  0  0
  128.5170  130.4410   64.8050 C   0  0  0  0  0  0  0  0  0  0  0  0
  128.7790  129.2720   64.0760 C   0  0  0  0  0  0  0  0  0  0  0  0
  128.8610  128.0420   64.7190 C   0  0  0  0  0  0  0  0  0  0  0  0
  128.6740  127.9460   66.1030 C   0  0  0  0  0  0  0  0  0  0  0  0
  128.7360  126.6290   66.7830 N   0  0  0  0  0  0  0  0  0  0  0  0
  129.3950  125.7300   66.2670 O   0  0  0  0  0  0  0  0  0  0  0  0
  128.1290  126.4840   67.8420 O   0  0  0  0  0  0  0  0  0  0  0  0
  128.4190  129.1150   66.8320 C   0  0  0  0  0  0  0  0  0  0  0  0
  128.3440  130.3470   66.1910 C   0  0  0  0  0  0  0  0  0  0  0  0
  1  2  2  0
  2  3  1  0
  4  3  1  6
  4  5  1  0
  5  6  1  0
  6  7  1  1
  7  8  1  0
  8  9  1  0
  9 10  1  0
 10 11  2  0
 11 12  1  0
 12 13  2  0
 13 14  1  0
 14 15  2  0
  6 16  1  0
 16 17  1  6
 17 18  1  0
 18 19  1  0
 19 20  2  0
 20 21  1  0
 21 22  2  0
 22 23  1  0
 23 24  2  0
 16 25  1  0
 25 26  1  1
 26 27  1  0
 27 28  1  0
 28 29  2  0
 29 30  1  0
 30 31  2  0
 31 32  1  0
 32 33  2  0
  2 34  1  0
 34 35  2  0
 35 36  1  0
 36 37  2  0
 37 38  1  0
 38 39  2  0
 38 40  1  0
 37 41  1  0
 41 42  2  0
 25  4  1  0
 33 28  1  0
 42 34  1  0
 15 10  1  0
 24 19  1  0
M  CHG  2  38   1  40  -1
M  END
>  <Binding energies>  (56) 
[-9.82]

>  <Ligand effiencies>  (56) 
[-0.23380952380952383]

>  <Interactions>  (56) 
["V-A:ASP:366:CG:3208, V-B:GLU:543:CD:9876, V-B:GLU:543:CG:9875, V-B:GLU:543:CB:9874, V-A:GLU:543:CD:4903, V-A:LEU:363:CD1:3184, V-A:PRO:540:N:4879, V-A:LEU:363:CA:3180, V-A:TYR:539:CE1:4870, V-A:ASN:362:C:3167, V-A:TYR:539:C:4862, V-A:TYR:539:CD1:4868, V-A:PRO:540:CG:4881, V-A:PRO:540:CA:4878, V-A:LEU:363:CB:3182, H-A:ALA:541:N:4886, V-A:PRO:540:CD:4882, V-A:ILE:538:CA:4855, V-A:TYR:531:CE2:4788, V-A:PRO:540:CB:4880, V-A:TYR:539:CE2:4871, V-A:GLU:543:CB:4901, V-B:ARG:545:CG:9890, V-B:HIS:456:CE1:9037, V-A:ILE:538:CG2:4858, H-B:TYR:484:OH:9315, V-A:GLU:543:CG:4902, V-B:ARG:545:CZ:9894, V-B:GLY:454:CA:9016, V-B:ARG:545:CD:9891, V-A:ILE:538:CD1:4860, V-A:ALA:541:CB:4887, V-B:TYR:484:CZ:9314, V-B:TYR:484:CE1:9312, V-A:ASN:362:CB:3171, V-A:ASN:362:CA:3169"]

$$$$
RR9_Rahimova_2017
     RDKit          3D

 36 40  0  0  0  0  0  0  0  0999 V2000
  129.5070  118.2060   60.3850 C   0  0  0  0  0  0  0  0  0  0  0  0
  130.2780  118.2880   61.7060 C   0  0  0  0  0  0  0  0  0  0  0  0
  130.2920  119.6430   62.1450 O   0  0  0  0  0  0  0  0  0  0  0  0
  130.2830  120.6590   61.2090 C   0  0  0  0  0  0  0  0  0  0  0  0
  129.1160  121.4150   61.1210 C   0  0  0  0  0  0  0  0  0  0  0  0
  129.0140  122.4580   60.2050 C   0  0  0  0  0  0  0  0  0  0  0  0
  130.0800  122.7750   59.3500 C   0  0  0  0  0  0  0  0  0  0  0  0
  129.9750  123.8950   58.3580 C   0  0  0  0  0  0  0  0  0  0  0  0
  130.0580  125.2390   58.7540 C   0  0  0  0  0  0  0  0  0  0  0  0
  129.9720  126.2850   57.8180 C   0  0  0  0  0  0  0  0  0  0  0  0
  130.1690  127.6990   58.2910 C   0  0  0  0  0  0  0  0  0  0  0  0
  129.3400  128.5680   58.0200 O   0  0  0  0  0  0  0  0  0  0  0  0
  131.3000  127.9310   58.9880 N   0  0  0  0  0  0  0  0  0  0  0  0
  131.7770  129.2420   59.4390 C   0  0  0  0  0  0  0  0  0  0  0  0
  132.4890  130.0440   58.3240 C   0  0  0  0  0  0  0  0  0  0  0  0
  131.6470  131.1520   57.7000 C   0  0  0  0  0  0  0  0  0  0  0  0
  130.4200  131.5060   58.2700 C   0  0  0  0  0  0  0  0  0  0  0  0
  129.6700  132.5410   57.7180 C   0  0  0  0  0  0  0  0  0  0  0  0
  130.1460  133.2150   56.5950 C   0  0  0  0  0  0  0  0  0  0  0  0
  131.3660  132.8640   56.0190 C   0  0  0  0  0  0  0  0  0  0  0  0
  132.1170  131.8290   56.5720 C   0  0  0  0  0  0  0  0  0  0  0  0
  129.7630  125.9040   56.4690 C   0  0  0  0  0  0  0  0  0  0  0  0
  129.5730  126.5280   55.1810 C   0  0  0  0  0  0  0  0  0  0  0  0
  129.4510  127.9760   54.8370 C   0  0  0  0  0  0  0  0  0  0  0  0
  128.2970  128.6860   55.1830 C   0  0  0  0  0  0  0  0  0  0  0  0
  128.1780  130.0330   54.8470 C   0  0  0  0  0  0  0  0  0  0  0  0
  129.2150  130.6750   54.1670 C   0  0  0  0  0  0  0  0  0  0  0  0
  129.0780  132.1370   53.7840 C   0  0  0  0  0  0  0  0  0  0  0  0
  130.3670  129.9690   53.8180 C   0  0  0  0  0  0  0  0  0  0  0  0
  130.4850  128.6240   54.1570 C   0  0  0  0  0  0  0  0  0  0  0  0
  129.4830  125.6190   54.2370 N   0  0  0  0  0  0  0  0  0  0  0  0
  129.5430  124.4110   54.8200 N   0  0  0  0  0  0  0  0  0  0  0  0
  129.7020  124.5200   56.1810 C   0  0  0  0  0  0  0  0  0  0  0  0
  129.7930  123.5230   57.0600 N   0  0  0  0  0  0  0  0  0  0  0  0
  131.2510  122.0080   59.4440 C   0  0  0  0  0  0  0  0  0  0  0  0
  131.3560  120.9640   60.3600 C   0  0  0  0  0  0  0  0  0  0  0  0
  1  2  1  0
  2  3  1  0
  3  4  1  0
  4  5  2  0
  5  6  1  0
  6  7  2  0
  7  8  1  0
  8  9  2  0
  9 10  1  0
 10 11  1  0
 11 12  2  0
 11 13  1  0
 13 14  1  0
 14 15  1  0
 15 16  1  0
 16 17  2  0
 17 18  1  0
 18 19  2  0
 19 20  1  0
 20 21  2  0
 10 22  2  0
 22 23  1  0
 23 24  1  0
 24 25  2  0
 25 26  1  0
 26 27  2  0
 27 28  1  0
 27 29  1  0
 29 30  2  0
 23 31  2  0
 31 32  1  0
 32 33  1  0
 33 34  2  0
  7 35  1  0
 35 36  2  0
 36  4  1  0
 34  8  1  0
 21 16  1  0
 33 22  1  0
 30 24  1  0
M  END
>  <Binding energies>  (57) 
[-9.26]

>  <Ligand effiencies>  (57) 
[-0.24368421052631578]

>  <Interactions>  (57) 
["V-B:ALA:541:CB:9860, V-B:TYR:539:CE2:9844, V-B:MET:535:CE:9803, V-A:TRP:381:CH2:3367, V-B:TYR:539:CD2:9842, V-B:ALA:541:CA:9858, V-B:PRO:540:C:9849, V-B:TYR:539:CE1:9843, V-B:TYR:539:C:9835, V-B:TYR:539:CZ:9845, V-A:LEU:363:CD1:3184, V-A:PRO:540:N:4879, V-A:TYR:539:CE1:4870, V-A:TYR:539:C:4862, V-A:TYR:539:CD1:4868, V-A:PRO:540:CA:4878, H-A:TYR:531:OH:4790, V-A:TYR:539:CA:4864, V-A:TYR:539:CG:4867, V-A:PRO:540:CD:4882, H-A:ASP:366:OD2:3210, V-A:TYR:531:CE2:4788, V-A:PRO:540:CB:4880, V-A:TRP:381:CZ3:3366, V-A:LEU:475:CD2:4254, H-A:LYS:534:NZ:4818, V-A:ILE:538:CG2:4858, V-A:TYR:531:CE1:4787, V-A:TYR:531:CZ:4789, V-A:MET:535:CB:4827, V-A:MET:535:CG:4828, V-A:TRP:381:CZ2:3365, V-A:PRO:482:CG:4322, V-A:PRO:482:CB:4321, V-A:LEU:475:CD1:4253, H-B:TYR:539:OH:9846, V-B:TYR:539:CB:9839, V-A:TRP:381:CE2:3362, V-A:LEU:475:CG:4252"]

$$$$
