1a_Ghoteimi_2023
     RDKit          3D

 67 70  0  0  0  0  0  0  0  0999 V2000
  131.3830  131.4530   53.9240 C   0  0  0  0  0  0  0  0  0  0  0  0
  130.2660  132.4990   53.9910 C   0  0  0  0  0  0  0  0  0  0  0  0
  130.4710  133.3350   55.1240 O   0  0  0  0  0  0  0  0  0  0  0  0
  130.7740  132.8090   56.3380 C   0  0  0  0  0  0  0  0  0  0  0  0
  131.9290  132.6250   56.7320 O   0  0  0  0  0  0  0  0  0  0  0  0
  129.5600  132.4780   57.1590 C   0  0  0  0  0  0  0  0  0  0  0  0
  128.6320  131.5070   56.7530 C   0  0  0  0  0  0  0  0  0  0  0  0
  127.5150  131.2240   57.5340 C   0  0  0  0  0  0  0  0  0  0  0  0
  127.3070  131.9070   58.7420 C   0  0  0  0  0  0  0  0  0  0  0  0
  126.2130  131.7040   59.6050 N   0  0  0  0  0  0  0  0  0  0  0  0
  125.0430  131.0660   59.3830 C   0  0  0  0  0  0  0  0  0  0  0  0
  124.7190  130.5070   58.3360 O   0  0  0  0  0  0  0  0  0  0  0  0
  124.0680  131.0540   60.5610 C   0  0  0  0  0  0  0  0  0  0  0  0
  124.6620  132.0820   61.9360 S   0  0  0  0  0  0  0  0  0  0  0  0
  126.0020  131.1840   62.6840 C   0  0  0  0  0  0  0  0  0  0  0  0
  127.1560  131.2290   61.9770 N   0  0  0  0  0  0  0  0  0  0  0  0
  128.2600  130.5860   62.4420 C   0  0  0  0  0  0  0  0  0  0  0  0
  129.5050  130.7010   61.6120 C   0  0  0  0  0  0  0  0  0  0  0  0
  130.4800  131.6740   61.8890 C   0  0  0  0  0  0  0  0  0  0  0  0
  131.6340  131.7780   61.1180 C   0  0  0  0  0  0  0  0  0  0  0  0
  131.8500  130.9150   60.0460 C   0  0  0  0  0  0  0  0  0  0  0  0
  133.0240  131.0890   59.3380 O   0  0  0  0  0  0  0  0  0  0  0  0
  133.6210  129.9660   58.6990 C   0  0  0  0  0  0  0  0  0  0  0  0
  130.8850  129.9410   59.7550 C   0  0  0  0  0  0  0  0  0  0  0  0
  129.7330  129.8400   60.5270 C   0  0  0  0  0  0  0  0  0  0  0  0
  128.2130  129.8750   63.6480 C   0  0  0  0  0  0  0  0  0  0  0  0
  127.0240  129.7930   64.3840 C   0  0  0  0  0  0  0  0  0  0  0  0
  127.0410  128.9900   65.6440 C   0  0  0  0  0  0  0  0  0  0  0  0
  126.0630  128.0210   65.8900 C   0  0  0  0  0  0  0  0  0  0  0  0
  126.0940  127.2670   67.0600 C   0  0  0  0  0  0  0  0  0  0  0  0
  127.1050  127.4600   68.0020 C   0  0  0  0  0  0  0  0  0  0  0  0
  127.0550  126.6660   69.1300 O   0  0  0  0  0  0  0  0  0  0  0  0
  127.2390  127.2640   70.4090 C   0  0  0  0  0  0  0  0  0  0  0  0
  128.0930  128.4250   67.7540 C   0  0  0  0  0  0  0  0  0  0  0  0
  128.0590  129.1790   66.5840 C   0  0  0  0  0  0  0  0  0  0  0  0
  125.8810  130.4690   63.8950 C   0  0  0  0  0  0  0  0  0  0  0  0
  124.6120  130.4320   64.6300 C   0  0  0  0  0  0  0  0  0  0  0  0
  123.6110  130.4030   65.2100 N   0  0  0  0  0  0  0  0  0  0  0  0
  128.2260  132.8750   59.1460 C   0  0  0  0  0  0  0  0  0  0  0  0
  129.3440  133.1580   58.3640 C   0  0  0  0  0  0  0  0  0  0  0  0
  131.6835  131.1716   54.9441 H   0  0  0  0  0  0  0  0  0  0  0  0
  131.0199  130.5625   53.3899 H   0  0  0  0  0  0  0  0  0  0  0  0
  132.2477  131.8737   53.3899 H   0  0  0  0  0  0  0  0  0  0  0  0
  130.2796  133.1100   53.0764 H   0  0  0  0  0  0  0  0  0  0  0  0
  129.2929  131.9935   54.0777 H   0  0  0  0  0  0  0  0  0  0  0  0
  128.7886  130.9645   55.8090 H   0  0  0  0  0  0  0  0  0  0  0  0
  126.7932  130.4627   57.2032 H   0  0  0  0  0  0  0  0  0  0  0  0
  126.3500  132.0690   60.5350 H   0  0  0  0  0  0  0  0  0  0  0  0
  123.0950  131.4394   60.2223 H   0  0  0  0  0  0  0  0  0  0  0  0
  123.9783  130.0185   60.9211 H   0  0  0  0  0  0  0  0  0  0  0  0
  130.3285  132.3661   62.7305 H   0  0  0  0  0  0  0  0  0  0  0  0
  132.3820  132.5483   61.3572 H   0  0  0  0  0  0  0  0  0  0  0  0
  133.9933  129.2656   59.4611 H   0  0  0  0  0  0  0  0  0  0  0  0
  132.8725  129.4607   58.0710 H   0  0  0  0  0  0  0  0  0  0  0  0
  134.4586  130.3039   58.0710 H   0  0  0  0  0  0  0  0  0  0  0  0
  131.0399  129.2526   58.9111 H   0  0  0  0  0  0  0  0  0  0  0  0
  128.9858  129.0705   60.2828 H   0  0  0  0  0  0  0  0  0  0  0  0
  129.1194  129.3758   64.0210 H   0  0  0  0  0  0  0  0  0  0  0  0
  125.2633  127.8533   65.1536 H   0  0  0  0  0  0  0  0  0  0  0  0
  125.3147  126.5126   67.2433 H   0  0  0  0  0  0  0  0  0  0  0  0
  127.0124  126.5276   71.1941 H   0  0  0  0  0  0  0  0  0  0  0  0
  128.2818  127.5991   70.5105 H   0  0  0  0  0  0  0  0  0  0  0  0
  126.5649  128.1273   70.5105 H   0  0  0  0  0  0  0  0  0  0  0  0
  128.8974  128.5864   68.4867 H   0  0  0  0  0  0  0  0  0  0  0  0
  128.8403  129.9305   66.3973 H   0  0  0  0  0  0  0  0  0  0  0  0
  128.0672  133.4190   60.0888 H   0  0  0  0  0  0  0  0  0  0  0  0
  130.0627  133.9217   58.6959 H   0  0  0  0  0  0  0  0  0  0  0  0
  1  2  1  0
  2  3  1  0
  3  4  1  0
  4  5  2  0
  4  6  1  0
  6  7  2  0
  7  8  1  0
  8  9  2  0
  9 10  1  0
 10 11  1  0
 11 12  2  0
 11 13  1  0
 13 14  1  0
 14 15  1  0
 15 16  2  0
 16 17  1  0
 17 18  1  0
 18 19  2  0
 19 20  1  0
 20 21  2  0
 21 22  1  0
 22 23  1  0
 21 24  1  0
 24 25  2  0
 17 26  2  0
 26 27  1  0
 27 28  1  0
 28 29  2  0
 29 30  1  0
 30 31  2  0
 31 32  1  0
 32 33  1  0
 31 34  1  0
 34 35  2  0
 27 36  2  0
 36 37  1  0
 37 38  3  0
  9 39  1  0
 39 40  2  0
 40  6  1  0
 36 15  1  0
 25 18  1  0
 35 28  1  0
  1 41  1  0
  1 42  1  0
  1 43  1  0
  2 44  1  0
  2 45  1  0
  7 46  1  0
  8 47  1  0
 10 48  1  0
 13 49  1  0
 13 50  1  0
 19 51  1  0
 20 52  1  0
 23 53  1  0
 23 54  1  0
 23 55  1  0
 24 56  1  0
 25 57  1  0
 26 58  1  0
 29 59  1  0
 30 60  1  0
 33 61  1  0
 33 62  1  0
 33 63  1  0
 34 64  1  0
 35 65  1  0
 39 66  1  0
 40 67  1  0
M  END
>  <Binding energies>  (1) 
[-8.84]

>  <Ligand effiencies>  (1) 
[-0.21560975609756097]

>  <Interactions>  (1) 
["V-B:GLU:543:C:9870, V-A:ASP:366:CG:3208, V-B:GLU:543:CD:9876, V-B:GLU:543:CG:9875, V-B:GLU:543:CB:9874, V-A:GLU:543:CD:4903, V-A:TYR:539:CZ:4872, V-A:PRO:540:C:4876, V-A:PRO:540:N:4879, V-A:LEU:363:CA:3180, V-A:TYR:539:CE1:4870, V-A:TYR:539:C:4862, V-A:TYR:539:CD1:4868, V-A:ASP:366:CB:3207, V-A:PRO:540:CA:4878, V-A:TYR:539:CG:4867, V-A:PRO:540:CD:4882, V-A:ILE:538:CA:4855, V-A:TYR:531:CE2:4788, V-A:PRO:540:CB:4880, V-A:TYR:539:CE2:4871, V-A:TYR:539:CD2:4869, V-B:ARG:545:CG:9890, V-B:HIS:456:CE1:9037, H-A:TYR:539:N:4865, V-A:TYR:531:CZ:4789, H-B:TYR:484:OH:9315, V-A:GLU:543:CG:4902, V-B:ARG:545:CD:9891, V-A:ILE:538:CD1:4860, H-B:GLY:454:N:9017, V-B:HIS:456:CD2:9035, H-A:TYR:539:OH:4873, V-B:GLY:544:C:9880"]

$$$$
1a_Grossjean_2025
     RDKit          3D

 45 46  0  0  0  0  0  0  0  0999 V2000
  124.0670  123.9520   58.5150 C   0  0  0  0  0  0  0  0  0  0  0  0
  124.5690  123.8790   57.0710 C   0  0  0  0  0  0  0  0  0  0  0  0
  125.9880  123.9660   57.0570 O   0  0  0  0  0  0  0  0  0  0  0  0
  126.7580  122.8470   57.0130 C   0  0  0  0  0  0  0  0  0  0  0  0
  126.5700  121.9240   56.2160 O   0  0  0  0  0  0  0  0  0  0  0  0
  127.8520  122.8390   58.0410 C   0  0  0  0  0  0  0  0  0  0  0  0
  129.1860  122.7700   57.6200 C   0  0  0  0  0  0  0  0  0  0  0  0
  130.2220  122.7560   58.5490 C   0  0  0  0  0  0  0  0  0  0  0  0
  129.9490  122.8090   59.9160 C   0  0  0  0  0  0  0  0  0  0  0  0
  131.0720  122.7860   60.7650 N   0  0  0  0  0  0  0  0  0  0  0  0
  132.1850  122.0240   60.7120 C   0  0  0  0  0  0  0  0  0  0  0  0
  132.4260  121.1680   59.8600 O   0  0  0  0  0  0  0  0  0  0  0  0
  133.2070  122.2780   61.8210 C   0  0  0  0  0  0  0  0  0  0  0  0
  133.7440  124.0140   61.8750 S   0  0  0  0  0  0  0  0  0  0  0  0
  133.2900  124.6640   63.4680 C   0  0  0  0  0  0  0  0  0  0  0  0
  134.2930  124.6250   64.3810 N   0  0  0  0  0  0  0  0  0  0  0  0
  134.0550  125.0910   65.6290 C   0  0  0  0  0  0  0  0  0  0  0  0
  135.2180  125.0030   66.5990 C   0  0  0  0  0  0  0  0  0  0  0  0
  132.8240  125.6190   66.0130 C   0  0  0  0  0  0  0  0  0  0  0  0
  131.7900  125.6840   65.0730 C   0  0  0  0  0  0  0  0  0  0  0  0
  130.4540  126.2810   65.5120 C   0  0  0  0  0  0  0  0  0  0  0  0
  132.0160  125.2060   63.7620 C   0  0  0  0  0  0  0  0  0  0  0  0
  130.9640  125.3080   62.7470 C   0  0  0  0  0  0  0  0  0  0  0  0
  130.1310  125.3900   61.9480 N   0  0  0  0  0  0  0  0  0  0  0  0
  128.6160  122.8860   60.3470 C   0  0  0  0  0  0  0  0  0  0  0  0
  127.5800  122.9000   59.4170 C   0  0  0  0  0  0  0  0  0  0  0  0
  124.9150  123.8287   59.2047 H   0  0  0  0  0  0  0  0  0  0  0  0
  123.5918  124.9287   58.6891 H   0  0  0  0  0  0  0  0  0  0  0  0
  123.3333  123.1511   58.6891 H   0  0  0  0  0  0  0  0  0  0  0  0
  124.2558  122.9250   56.6218 H   0  0  0  0  0  0  0  0  0  0  0  0
  124.1450  124.7134   56.4931 H   0  0  0  0  0  0  0  0  0  0  0  0
  129.4169  122.7265   56.5454 H   0  0  0  0  0  0  0  0  0  0  0  0
  131.2647  122.7027   58.2026 H   0  0  0  0  0  0  0  0  0  0  0  0
  131.0390  123.4700   61.5060 H   0  0  0  0  0  0  0  0  0  0  0  0
  132.7524  122.0175   62.7882 H   0  0  0  0  0  0  0  0  0  0  0  0
  134.0912  121.6571   61.6142 H   0  0  0  0  0  0  0  0  0  0  0  0
  134.8378  125.0318   67.6308 H   0  0  0  0  0  0  0  0  0  0  0  0
  135.7620  124.0611   66.4348 H   0  0  0  0  0  0  0  0  0  0  0  0
  135.8975  125.8523   66.4348 H   0  0  0  0  0  0  0  0  0  0  0  0
  132.6675  125.9795   67.0404 H   0  0  0  0  0  0  0  0  0  0  0  0
  130.4054  126.3027   66.6107 H   0  0  0  0  0  0  0  0  0  0  0  0
  130.3637  127.3051   65.1207 H   0  0  0  0  0  0  0  0  0  0  0  0
  129.6309  125.6651   65.1207 H   0  0  0  0  0  0  0  0  0  0  0  0
  128.3889  122.9354   61.4222 H   0  0  0  0  0  0  0  0  0  0  0  0
  126.5378  122.9595   59.7638 H   0  0  0  0  0  0  0  0  0  0  0  0
  1  2  1  0
  2  3  1  0
  3  4  1  0
  4  5  2  0
  4  6  1  0
  6  7  2  0
  7  8  1  0
  8  9  2  0
  9 10  1  0
 10 11  1  0
 11 12  2  0
 11 13  1  0
 13 14  1  0
 14 15  1  0
 15 16  2  0
 16 17  1  0
 17 18  1  0
 17 19  2  0
 19 20  1  0
 20 21  1  0
 20 22  2  0
 22 23  1  0
 23 24  3  0
  9 25  1  0
 25 26  2  0
 26  6  1  0
 22 15  1  0
  1 27  1  0
  1 28  1  0
  1 29  1  0
  2 30  1  0
  2 31  1  0
  7 32  1  0
  8 33  1  0
 10 34  1  0
 13 35  1  0
 13 36  1  0
 18 37  1  0
 18 38  1  0
 18 39  1  0
 19 40  1  0
 21 41  1  0
 21 42  1  0
 21 43  1  0
 25 44  1  0
 26 45  1  0
M  END
>  <Binding energies>  (1) 
[-7.49]

>  <Ligand effiencies>  (1) 
[-0.27740740740740744]

>  <Interactions>  (1) 
["V-B:TYR:539:CE2:9844, V-B:MET:535:CE:9803, V-B:PRO:540:CA:9851, V-B:TYR:539:CD2:9842, V-B:PRO:540:N:9852, V-B:PRO:540:CB:9853, V-B:TYR:539:C:9835, V-B:TYR:539:CZ:9845, H-A:TYR:484:OH:4343, H-A:GLY:454:N:4045, V-A:ARG:545:CZ:4921, V-A:GLU:543:CD:4903, V-A:ARG:545:CD:4918, V-A:GLY:454:CA:4044, V-A:ARG:545:CG:4917, V-A:GLY:453:CA:4039, V-A:GLY:453:C:4037, V-A:HIS:456:CD2:4063, V-A:ILE:369:CD1:3234, V-A:LEU:475:CD2:4254, V-B:LEU:363:CA:8152, V-B:LEU:363:CD1:8156, H-B:TYR:539:N:9838, V-B:ASP:366:CG:8180, V-B:LEU:363:CB:8154, V-B:TYR:531:CE2:9761, V-A:ILE:455:C:4047"]

$$$$
1aa_Ghoteimi_2023
     RDKit          3D

 67 70  0  0  0  0  0  0  0  0999 V2000
  132.1260  131.7690   54.4830 C   0  0  0  0  0  0  0  0  0  0  0  0
  132.2730  132.8730   55.5340 C   0  0  0  0  0  0  0  0  0  0  0  0
  131.0320  133.5530   55.6840 O   0  0  0  0  0  0  0  0  0  0  0  0
  129.8710  132.8660   55.8310 C   0  0  0  0  0  0  0  0  0  0  0  0
  129.0970  132.6300   54.8970 O   0  0  0  0  0  0  0  0  0  0  0  0
  129.6180  132.4210   57.2420 C   0  0  0  0  0  0  0  0  0  0  0  0
  130.2120  131.2670   57.7750 C   0  0  0  0  0  0  0  0  0  0  0  0
  129.9590  130.8790   59.0890 C   0  0  0  0  0  0  0  0  0  0  0  0
  129.1060  131.6440   59.8970 C   0  0  0  0  0  0  0  0  0  0  0  0
  128.7770  131.3510   61.2330 N   0  0  0  0  0  0  0  0  0  0  0  0
  129.4070  131.6820   62.3840 C   0  0  0  0  0  0  0  0  0  0  0  0
  130.4400  132.3470   62.4540 O   0  0  0  0  0  0  0  0  0  0  0  0
  128.7780  131.1900   63.6970 C   0  0  0  0  0  0  0  0  0  0  0  0
  127.7870  130.1880   63.4350 O   0  0  0  0  0  0  0  0  0  0  0  0
  128.1480  128.9770   62.8610 C   0  0  0  0  0  0  0  0  0  0  0  0
  129.2280  128.3230   63.3720 N   0  0  0  0  0  0  0  0  0  0  0  0
  129.6210  127.1420   62.8280 C   0  0  0  0  0  0  0  0  0  0  0  0
  130.8190  126.4830   63.4490 C   0  0  0  0  0  0  0  0  0  0  0  0
  131.9280  126.1200   62.6710 C   0  0  0  0  0  0  0  0  0  0  0  0
  133.0390  125.5070   63.2440 C   0  0  0  0  0  0  0  0  0  0  0  0
  133.0770  125.2400   64.6110 C   0  0  0  0  0  0  0  0  0  0  0  0
  134.2190  124.6290   65.0910 O   0  0  0  0  0  0  0  0  0  0  0  0
  134.7040  124.9800   66.3830 C   0  0  0  0  0  0  0  0  0  0  0  0
  131.9790  125.6010   65.4020 C   0  0  0  0  0  0  0  0  0  0  0  0
  130.8700  126.2140   64.8270 C   0  0  0  0  0  0  0  0  0  0  0  0
  128.9150  126.5780   61.7580 C   0  0  0  0  0  0  0  0  0  0  0  0
  127.7940  127.2250   61.2210 C   0  0  0  0  0  0  0  0  0  0  0  0
  127.0770  126.5680   60.0880 C   0  0  0  0  0  0  0  0  0  0  0  0
  126.4250  125.3460   60.2830 C   0  0  0  0  0  0  0  0  0  0  0  0
  125.7470  124.7310   59.2340 C   0  0  0  0  0  0  0  0  0  0  0  0
  125.7010  125.3260   57.9730 C   0  0  0  0  0  0  0  0  0  0  0  0
  125.0060  124.6440   56.9940 O   0  0  0  0  0  0  0  0  0  0  0  0
  124.9840  123.2210   57.0200 C   0  0  0  0  0  0  0  0  0  0  0  0
  126.3470  126.5550   57.7760 C   0  0  0  0  0  0  0  0  0  0  0  0
  127.0260  127.1680   58.8260 C   0  0  0  0  0  0  0  0  0  0  0  0
  127.4060  128.4640   61.7840 C   0  0  0  0  0  0  0  0  0  0  0  0
  126.2760  129.2340   61.2620 C   0  0  0  0  0  0  0  0  0  0  0  0
  125.3830  129.8440   60.8510 N   0  0  0  0  0  0  0  0  0  0  0  0
  128.5110  132.7920   59.3690 C   0  0  0  0  0  0  0  0  0  0  0  0
  128.7640  133.1780   58.0560 C   0  0  0  0  0  0  0  0  0  0  0  0
  131.9969  130.7991   54.9856 H   0  0  0  0  0  0  0  0  0  0  0  0
  131.2475  131.9760   53.8542 H   0  0  0  0  0  0  0  0  0  0  0  0
  133.0281  131.7389   53.8542 H   0  0  0  0  0  0  0  0  0  0  0  0
  132.5654  132.4269   56.4960 H   0  0  0  0  0  0  0  0  0  0  0  0
  133.0455  133.5864   55.2110 H   0  0  0  0  0  0  0  0  0  0  0  0
  130.8845  130.6623   57.1489 H   0  0  0  0  0  0  0  0  0  0  0  0
  130.4295  129.9706   59.4933 H   0  0  0  0  0  0  0  0  0  0  0  0
  127.9300  130.8090   61.3380 H   0  0  0  0  0  0  0  0  0  0  0  0
  129.5641  130.7629   64.3371 H   0  0  0  0  0  0  0  0  0  0  0  0
  128.2981  132.0412   64.2021 H   0  0  0  0  0  0  0  0  0  0  0  0
  131.9199  126.3230   61.5899 H   0  0  0  0  0  0  0  0  0  0  0  0
  133.8953  125.2307   62.6112 H   0  0  0  0  0  0  0  0  0  0  0  0
  134.0666  124.5187   67.1517 H   0  0  0  0  0  0  0  0  0  0  0  0
  135.7366  124.6186   66.4977 H   0  0  0  0  0  0  0  0  0  0  0  0
  134.6835  126.0738   66.4977 H   0  0  0  0  0  0  0  0  0  0  0  0
  131.9934  125.3989   66.4832 H   0  0  0  0  0  0  0  0  0  0  0  0
  130.0173  126.4932   65.4633 H   0  0  0  0  0  0  0  0  0  0  0  0
  129.2438  125.6174   61.3348 H   0  0  0  0  0  0  0  0  0  0  0  0
  126.4481  124.8671   61.2730 H   0  0  0  0  0  0  0  0  0  0  0  0
  125.2432  123.7675   59.4009 H   0  0  0  0  0  0  0  0  0  0  0  0
  124.9786  122.8734   58.0636 H   0  0  0  0  0  0  0  0  0  0  0  0
  124.0801  122.8588   56.5082 H   0  0  0  0  0  0  0  0  0  0  0  0
  125.8762  122.8311   56.5082 H   0  0  0  0  0  0  0  0  0  0  0  0
  126.3173  127.0370   56.7877 H   0  0  0  0  0  0  0  0  0  0  0  0
  127.5269  128.1333   58.6611 H   0  0  0  0  0  0  0  0  0  0  0  0
  127.8376  133.3954   59.9954 H   0  0  0  0  0  0  0  0  0  0  0  0
  128.2896  134.0851   57.6534 H   0  0  0  0  0  0  0  0  0  0  0  0
  1  2  1  0
  2  3  1  0
  3  4  1  0
  4  5  2  0
  4  6  1  0
  6  7  2  0
  7  8  1  0
  8  9  2  0
  9 10  1  0
 10 11  1  0
 11 12  2  0
 11 13  1  0
 13 14  1  0
 14 15  1  0
 15 16  2  0
 16 17  1  0
 17 18  1  0
 18 19  2  0
 19 20  1  0
 20 21  2  0
 21 22  1  0
 22 23  1  0
 21 24  1  0
 24 25  2  0
 17 26  2  0
 26 27  1  0
 27 28  1  0
 28 29  2  0
 29 30  1  0
 30 31  2  0
 31 32  1  0
 32 33  1  0
 31 34  1  0
 34 35  2  0
 27 36  2  0
 36 37  1  0
 37 38  3  0
  9 39  1  0
 39 40  2  0
 40  6  1  0
 36 15  1  0
 25 18  1  0
 35 28  1  0
  1 41  1  0
  1 42  1  0
  1 43  1  0
  2 44  1  0
  2 45  1  0
  7 46  1  0
  8 47  1  0
 10 48  1  0
 13 49  1  0
 13 50  1  0
 19 51  1  0
 20 52  1  0
 23 53  1  0
 23 54  1  0
 23 55  1  0
 24 56  1  0
 25 57  1  0
 26 58  1  0
 29 59  1  0
 30 60  1  0
 33 61  1  0
 33 62  1  0
 33 63  1  0
 34 64  1  0
 35 65  1  0
 39 66  1  0
 40 67  1  0
M  END
>  <Binding energies>  (1) 
[-8.77]

>  <Ligand effiencies>  (1) 
[-0.21390243902439024]

>  <Interactions>  (1) 
["H-B:TYR:531:OH:9763, V-B:MET:535:CE:9803, V-B:PRO:540:CD:9855, V-B:PRO:540:CA:9851, V-B:PRO:540:N:9852, V-B:PRO:540:CB:9853, V-A:ASP:366:CG:3208, H-A:TYR:484:OH:4343, H-A:GLY:454:N:4045, V-A:ARG:545:CZ:4921, V-A:GLU:543:CD:4903, V-A:TYR:539:CZ:4872, V-A:LEU:363:CD1:3184, V-A:PRO:540:N:4879, V-A:TYR:539:CE1:4870, V-A:TYR:539:C:4862, V-A:TYR:539:CD1:4868, V-A:PRO:540:CA:4878, V-A:TYR:539:CG:4867, H-A:ALA:541:N:4886, V-A:PRO:540:CD:4882, V-A:ILE:538:CA:4855, V-A:TYR:539:CE2:4871, V-A:TYR:539:CD2:4869, V-A:ARG:545:CD:4918, V-A:ARG:545:CG:4917, V-A:GLY:453:CA:4039, V-A:GLY:453:C:4037, V-A:HIS:456:CD2:4063, H-A:TYR:539:N:4865, V-A:ILE:538:CG2:4858, V-B:LEU:363:CD1:8156, V-A:GLU:543:CG:4902, V-A:ILE:538:CD1:4860"]

$$$$
1b_Ghoteimi_2023
     RDKit          3D

 54 57  0  0  0  0  0  0  0  0999 V2000
  124.5990  122.1050   55.9010 C   0  0  0  0  0  0  0  0  0  0  0  0
  124.8440  123.1240   56.8630 O   0  0  0  0  0  0  0  0  0  0  0  0
  126.0500  123.1370   57.5380 C   0  0  0  0  0  0  0  0  0  0  0  0
  126.0310  123.6260   58.8420 C   0  0  0  0  0  0  0  0  0  0  0  0
  127.1980  123.6780   59.5980 C   0  0  0  0  0  0  0  0  0  0  0  0
  128.4220  123.2380   59.0730 C   0  0  0  0  0  0  0  0  0  0  0  0
  129.6820  123.2980   59.8920 C   0  0  0  0  0  0  0  0  0  0  0  0
  129.7030  123.7230   61.2240 C   0  0  0  0  0  0  0  0  0  0  0  0
  130.9040  123.7560   61.9450 C   0  0  0  0  0  0  0  0  0  0  0  0
  130.8530  124.2260   63.3620 C   0  0  0  0  0  0  0  0  0  0  0  0
  130.2510  123.4370   64.3460 C   0  0  0  0  0  0  0  0  0  0  0  0
  130.1930  123.8740   65.6660 C   0  0  0  0  0  0  0  0  0  0  0  0
  130.7320  125.1090   66.0280 C   0  0  0  0  0  0  0  0  0  0  0  0
  130.6280  125.4600   67.3600 O   0  0  0  0  0  0  0  0  0  0  0  0
  129.5360  126.2700   67.7820 C   0  0  0  0  0  0  0  0  0  0  0  0
  131.3300  125.9080   65.0430 C   0  0  0  0  0  0  0  0  0  0  0  0
  131.3850  125.4680   63.7230 C   0  0  0  0  0  0  0  0  0  0  0  0
  132.0920  123.3380   61.2960 C   0  0  0  0  0  0  0  0  0  0  0  0
  133.3560  123.2630   62.0340 C   0  0  0  0  0  0  0  0  0  0  0  0
  134.3540  123.2040   62.6180 N   0  0  0  0  0  0  0  0  0  0  0  0
  132.0040  122.9410   59.9430 C   0  0  0  0  0  0  0  0  0  0  0  0
  133.3900  122.3940   58.9690 S   0  0  0  0  0  0  0  0  0  0  0  0
  134.0010  123.8220   58.0120 C   0  0  0  0  0  0  0  0  0  0  0  0
  133.1410  124.2080   56.7990 C   0  0  0  0  0  0  0  0  0  0  0  0
  133.6280  124.2400   55.6670 O   0  0  0  0  0  0  0  0  0  0  0  0
  131.8540  124.4990   57.0920 N   0  0  0  0  0  0  0  0  0  0  0  0
  130.8540  124.8760   56.2030 C   0  0  0  0  0  0  0  0  0  0  0  0
  129.7540  125.6470   56.5760 C   0  0  0  0  0  0  0  0  0  0  0  0
  129.0140  125.7950   55.4250 C   0  0  0  0  0  0  0  0  0  0  0  0
  129.6380  125.1490   54.4110 O   0  0  0  0  0  0  0  0  0  0  0  0
  130.8030  124.5700   54.9160 N   0  0  0  0  0  0  0  0  0  0  0  0
  130.8260  122.9050   59.2740 N   0  0  0  0  0  0  0  0  0  0  0  0
  128.4310  122.7490   57.7570 C   0  0  0  0  0  0  0  0  0  0  0  0
  127.2660  122.6960   56.9970 C   0  0  0  0  0  0  0  0  0  0  0  0
  124.3719  121.1605   56.4171 H   0  0  0  0  0  0  0  0  0  0  0  0
  123.7446  122.3933   55.2710 H   0  0  0  0  0  0  0  0  0  0  0  0
  125.4911  121.9733   55.2710 H   0  0  0  0  0  0  0  0  0  0  0  0
  125.0836  123.9747   59.2788 H   0  0  0  0  0  0  0  0  0  0  0  0
  127.1600  124.0708   60.6248 H   0  0  0  0  0  0  0  0  0  0  0  0
  128.7671  124.0346   61.7108 H   0  0  0  0  0  0  0  0  0  0  0  0
  129.8193  122.4623   64.0748 H   0  0  0  0  0  0  0  0  0  0  0  0
  129.7184  123.2407   66.4300 H   0  0  0  0  0  0  0  0  0  0  0  0
  129.5017  126.2955   68.8812 H   0  0  0  0  0  0  0  0  0  0  0  0
  129.6664  127.2916   67.3955 H   0  0  0  0  0  0  0  0  0  0  0  0
  128.5962  125.8488   67.3955 H   0  0  0  0  0  0  0  0  0  0  0  0
  131.7568  126.8850   65.3138 H   0  0  0  0  0  0  0  0  0  0  0  0
  131.8517  126.1039   62.9563 H   0  0  0  0  0  0  0  0  0  0  0  0
  134.0481  124.6896   58.6866 H   0  0  0  0  0  0  0  0  0  0  0  0
  134.9816  123.5259   57.6112 H   0  0  0  0  0  0  0  0  0  0  0  0
  131.5710  124.4270   58.0580 H   0  0  0  0  0  0  0  0  0  0  0  0
  129.5267  126.0498   57.5740 H   0  0  0  0  0  0  0  0  0  0  0  0
  128.0674  126.3491   55.3418 H   0  0  0  0  0  0  0  0  0  0  0  0
  129.3775  122.4008   57.3178 H   0  0  0  0  0  0  0  0  0  0  0  0
  127.2995  122.3069   55.9687 H   0  0  0  0  0  0  0  0  0  0  0  0
  1  2  1  0
  2  3  1  0
  3  4  2  0
  4  5  1  0
  5  6  2  0
  6  7  1  0
  7  8  2  0
  8  9  1  0
  9 10  1  0
 10 11  2  0
 11 12  1  0
 12 13  2  0
 13 14  1  0
 14 15  1  0
 13 16  1  0
 16 17  2  0
  9 18  2  0
 18 19  1  0
 19 20  3  0
 18 21  1  0
 21 22  1  0
 22 23  1  0
 23 24  1  0
 24 25  2  0
 24 26  1  0
 26 27  1  0
 27 28  1  0
 28 29  2  0
 29 30  1  0
 30 31  1  0
 21 32  2  0
  6 33  1  0
 33 34  2  0
 34  3  1  0
 32  7  1  0
 17 10  1  0
 31 27  2  0
  1 35  1  0
  1 36  1  0
  1 37  1  0
  4 38  1  0
  5 39  1  0
  8 40  1  0
 11 41  1  0
 12 42  1  0
 15 43  1  0
 15 44  1  0
 15 45  1  0
 16 46  1  0
 17 47  1  0
 23 48  1  0
 23 49  1  0
 26 50  1  0
 28 51  1  0
 29 52  1  0
 33 53  1  0
 34 54  1  0
M  END
>  <Binding energies>  (1) 
[-8.7]

>  <Ligand effiencies>  (1) 
[-0.24857142857142855]

>  <Interactions>  (1) 
["V-B:TYR:539:CE2:9844, V-B:MET:535:CE:9803, V-B:PRO:540:CD:9855, V-B:PRO:540:CA:9851, V-B:TYR:539:CD2:9842, V-B:PRO:540:N:9852, V-B:PRO:540:CB:9853, V-B:TYR:539:C:9835, V-B:TYR:539:CZ:9845, V-A:HIS:456:CE1:4064, V-A:ASP:366:CG:3208, H-A:GLY:454:N:4045, V-B:GLU:543:CD:9876, V-B:GLU:543:CG:9875, H-A:HIS:456:NE2:4065, V-B:GLU:543:CB:9874, V-A:ASP:366:CB:3207, H-A:TYR:531:OH:4790, V-A:TYR:484:CZ:4342, V-A:ILE:369:CD1:3234, H-A:LYS:534:NZ:4818, V-B:LEU:363:CD1:8156, V-A:TYR:531:CE1:4787, V-A:TYR:531:CZ:4789, V-B:ILE:538:CG2:9831, V-A:ASP:366:C:3203, V-A:TYR:484:CE1:4340, V-A:ILE:369:CB:3231, H-B:TYR:539:OH:9846, V-A:ASP:366:CA:3205, H-A:ASN:370:N:3239, V-B:ILE:538:CA:9828, V-B:ILE:538:CB:9830"]

$$$$
1b_Grossjean_2025
     RDKit          3D

 42 43  0  0  0  0  0  0  0  0999 V2000
  130.0900  127.2470   72.0960 C   0  0  0  0  0  0  0  0  0  0  0  0
  128.9660  126.4910   71.6670 O   0  0  0  0  0  0  0  0  0  0  0  0
  128.2010  126.9070   70.6260 C   0  0  0  0  0  0  0  0  0  0  0  0
  127.0500  127.3350   70.7550 O   0  0  0  0  0  0  0  0  0  0  0  0
  128.8970  126.8020   69.2990 C   0  0  0  0  0  0  0  0  0  0  0  0
  129.4900  125.6070   68.8640 C   0  0  0  0  0  0  0  0  0  0  0  0
  130.1280  125.5430   67.6300 C   0  0  0  0  0  0  0  0  0  0  0  0
  130.1880  126.6660   66.8040 C   0  0  0  0  0  0  0  0  0  0  0  0
  130.8600  126.4870   65.5800 N   0  0  0  0  0  0  0  0  0  0  0  0
  131.9410  125.7330   65.2820 C   0  0  0  0  0  0  0  0  0  0  0  0
  132.5600  125.0250   66.0760 O   0  0  0  0  0  0  0  0  0  0  0  0
  132.3920  125.7840   63.8220 C   0  0  0  0  0  0  0  0  0  0  0  0
  133.6410  124.5170   63.4450 S   0  0  0  0  0  0  0  0  0  0  0  0
  132.9990  123.5160   62.1200 C   0  0  0  0  0  0  0  0  0  0  0  0
  133.6300  123.7080   60.9350 N   0  0  0  0  0  0  0  0  0  0  0  0
  133.2220  122.9970   59.8590 C   0  0  0  0  0  0  0  0  0  0  0  0
  133.9830  123.2520   58.5710 C   0  0  0  0  0  0  0  0  0  0  0  0
  132.1730  122.0820   59.9160 C   0  0  0  0  0  0  0  0  0  0  0  0
  131.5010  121.8930   61.1280 C   0  0  0  0  0  0  0  0  0  0  0  0
  130.3430  120.8970   61.1630 C   0  0  0  0  0  0  0  0  0  0  0  0
  131.9090  122.6260   62.2660 C   0  0  0  0  0  0  0  0  0  0  0  0
  131.1930  122.4770   63.5350 C   0  0  0  0  0  0  0  0  0  0  0  0
  130.6250  122.3570   64.5360 N   0  0  0  0  0  0  0  0  0  0  0  0
  129.5980  127.8650   67.2320 C   0  0  0  0  0  0  0  0  0  0  0  0
  128.9590  127.9270   68.4660 C   0  0  0  0  0  0  0  0  0  0  0  0
  130.1202  127.2673   73.1954 H   0  0  0  0  0  0  0  0  0  0  0  0
  131.0112  126.7842   71.7124 H   0  0  0  0  0  0  0  0  0  0  0  0
  130.0087  128.2747   71.7124 H   0  0  0  0  0  0  0  0  0  0  0  0
  129.4499  124.7135   69.5043 H   0  0  0  0  0  0  0  0  0  0  0  0
  130.5890  124.5995   67.3024 H   0  0  0  0  0  0  0  0  0  0  0  0
  130.4690  127.0200   64.8170 H   0  0  0  0  0  0  0  0  0  0  0  0
  131.5171  125.6227   63.1750 H   0  0  0  0  0  0  0  0  0  0  0  0
  132.8458  126.7699   63.6427 H   0  0  0  0  0  0  0  0  0  0  0  0
  135.0014  123.5933   58.8083 H   0  0  0  0  0  0  0  0  0  0  0  0
  134.0349  122.3222   57.9856 H   0  0  0  0  0  0  0  0  0  0  0  0
  133.4642  124.0254   57.9856 H   0  0  0  0  0  0  0  0  0  0  0  0
  131.8774  121.5161   59.0203 H   0  0  0  0  0  0  0  0  0  0  0  0
  130.0831  120.6735   62.2082 H   0  0  0  0  0  0  0  0  0  0  0  0
  129.4704  121.3311   60.6530 H   0  0  0  0  0  0  0  0  0  0  0  0
  130.6417  119.9693   60.6530 H   0  0  0  0  0  0  0  0  0  0  0  0
  129.6409  128.7576   66.5905 H   0  0  0  0  0  0  0  0  0  0  0  0
  128.4968  128.8705   68.7918 H   0  0  0  0  0  0  0  0  0  0  0  0
  1  2  1  0
  2  3  1  0
  3  4  2  0
  3  5  1  0
  5  6  2  0
  6  7  1  0
  7  8  2  0
  8  9  1  0
  9 10  1  0
 10 11  2  0
 10 12  1  0
 12 13  1  0
 13 14  1  0
 14 15  2  0
 15 16  1  0
 16 17  1  0
 16 18  2  0
 18 19  1  0
 19 20  1  0
 19 21  2  0
 21 22  1  0
 22 23  3  0
  8 24  1  0
 24 25  2  0
 25  5  1  0
 21 14  1  0
  1 26  1  0
  1 27  1  0
  1 28  1  0
  6 29  1  0
  7 30  1  0
  9 31  1  0
 12 32  1  0
 12 33  1  0
 17 34  1  0
 17 35  1  0
 17 36  1  0
 18 37  1  0
 20 38  1  0
 20 39  1  0
 20 40  1  0
 24 41  1  0
 25 42  1  0
M  END
>  <Binding energies>  (1) 
[-7.39]

>  <Ligand effiencies>  (1) 
[-0.28423076923076923]

>  <Interactions>  (1) 
["V-B:ALA:541:CB:9860, V-B:TYR:539:CE2:9844, V-B:GLU:543:C:9870, V-A:HIS:456:CE1:4064, H-A:GLU:543:OE2:4905, H-A:TYR:484:OH:4343, H-A:GLY:454:N:4045, H-A:GLU:543:OE1:4904, V-A:ARG:545:CZ:4921, H-A:HIS:456:NE2:4065, V-B:GLU:543:CB:9874, V-A:GLU:543:CD:4903, V-A:ASP:366:CB:3207, V-A:GLU:543:CB:4901, V-A:ILE:369:CG2:3232, V-A:ILE:369:CD1:3234, V-A:LEU:475:CD2:4254, H-B:LYS:547:NZ:9919, V-A:ASP:366:C:3203, V-A:ILE:369:CB:3231, V-A:ASP:366:CA:3205, V-A:ILE:369:CG1:3233"]

$$$$
1c_Ghoteimi_2023
     RDKit          3D

 54 57  0  0  0  0  0  0  0  0999 V2000
  124.1450  132.1600   61.7100 C   0  0  0  0  0  0  0  0  0  0  0  0
  124.4960  132.3400   63.0780 O   0  0  0  0  0  0  0  0  0  0  0  0
  125.2750  131.3880   63.7070 C   0  0  0  0  0  0  0  0  0  0  0  0
  124.6160  130.4990   64.5520 C   0  0  0  0  0  0  0  0  0  0  0  0
  125.3220  129.5090   65.2290 C   0  0  0  0  0  0  0  0  0  0  0  0
  126.7120  129.3780   65.0810 C   0  0  0  0  0  0  0  0  0  0  0  0
  127.4790  128.3150   65.8120 C   0  0  0  0  0  0  0  0  0  0  0  0
  128.5930  127.6720   65.2620 C   0  0  0  0  0  0  0  0  0  0  0  0
  129.2920  126.7040   65.9940 C   0  0  0  0  0  0  0  0  0  0  0  0
  130.5110  126.1080   65.3710 C   0  0  0  0  0  0  0  0  0  0  0  0
  131.7190  126.0610   66.0740 C   0  0  0  0  0  0  0  0  0  0  0  0
  132.8590  125.5250   65.4840 C   0  0  0  0  0  0  0  0  0  0  0  0
  132.8150  125.0290   64.1810 C   0  0  0  0  0  0  0  0  0  0  0  0
  133.9950  124.5150   63.6770 O   0  0  0  0  0  0  0  0  0  0  0  0
  134.0080  123.9660   62.3630 C   0  0  0  0  0  0  0  0  0  0  0  0
  131.6060  125.0800   63.4700 C   0  0  0  0  0  0  0  0  0  0  0  0
  130.4670  125.6170   64.0630 C   0  0  0  0  0  0  0  0  0  0  0  0
  128.8280  126.3730   67.2890 C   0  0  0  0  0  0  0  0  0  0  0  0
  129.4960  125.3440   68.0930 C   0  0  0  0  0  0  0  0  0  0  0  0
  130.0250  124.5330   68.7260 N   0  0  0  0  0  0  0  0  0  0  0  0
  127.7100  127.0720   67.7890 C   0  0  0  0  0  0  0  0  0  0  0  0
  127.1230  126.8810   69.4580 S   0  0  0  0  0  0  0  0  0  0  0  0
  128.3290  127.7830   70.4830 C   0  0  0  0  0  0  0  0  0  0  0  0
  128.9140  126.9060   71.5950 C   0  0  0  0  0  0  0  0  0  0  0  0
  129.1140  127.3900   72.7100 O   0  0  0  0  0  0  0  0  0  0  0  0
  129.1290  125.6160   71.2570 N   0  0  0  0  0  0  0  0  0  0  0  0
  129.5020  124.5880   72.1080 C   0  0  0  0  0  0  0  0  0  0  0  0
  129.1600  124.4170   73.3670 N   0  0  0  0  0  0  0  0  0  0  0  0
  129.6670  123.3030   73.8590 C   0  0  0  0  0  0  0  0  0  0  0  0
  130.4390  122.5410   72.9880 C   0  0  0  0  0  0  0  0  0  0  0  0
  130.5020  123.3360   71.4440 S   0  0  0  0  0  0  0  0  0  0  0  0
  127.0610  128.0210   67.0720 N   0  0  0  0  0  0  0  0  0  0  0  0
  127.3650  130.2740   64.2220 C   0  0  0  0  0  0  0  0  0  0  0  0
  126.6630  131.2670   63.5440 C   0  0  0  0  0  0  0  0  0  0  0  0
  123.1679  131.6589   61.6450 H   0  0  0  0  0  0  0  0  0  0  0  0
  124.0881  133.1402   61.2140 H   0  0  0  0  0  0  0  0  0  0  0  0
  124.9078  131.5418   61.2140 H   0  0  0  0  0  0  0  0  0  0  0  0
  123.5272  130.5799   64.6857 H   0  0  0  0  0  0  0  0  0  0  0  0
  124.7815  128.8170   65.8916 H   0  0  0  0  0  0  0  0  0  0  0  0
  128.9232  127.9292   64.2447 H   0  0  0  0  0  0  0  0  0  0  0  0
  131.7681  126.4509   67.1014 H   0  0  0  0  0  0  0  0  0  0  0  0
  133.8021  125.4920   66.0491 H   0  0  0  0  0  0  0  0  0  0  0  0
  134.0340  122.8680   62.4246 H   0  0  0  0  0  0  0  0  0  0  0  0
  133.1021  124.2817   61.8247 H   0  0  0  0  0  0  0  0  0  0  0  0
  134.8979  124.3242   61.8247 H   0  0  0  0  0  0  0  0  0  0  0  0
  131.5584  124.6944   62.4409 H   0  0  0  0  0  0  0  0  0  0  0  0
  129.5242  125.6553   63.4975 H   0  0  0  0  0  0  0  0  0  0  0  0
  129.1494  128.1330   69.8393 H   0  0  0  0  0  0  0  0  0  0  0  0
  127.8053  128.6258   70.9578 H   0  0  0  0  0  0  0  0  0  0  0  0
  128.9310  125.3460   70.3050 H   0  0  0  0  0  0  0  0  0  0  0  0
  129.4893  122.9939   74.8996 H   0  0  0  0  0  0  0  0  0  0  0  0
  130.9304  121.5887   73.2366 H   0  0  0  0  0  0  0  0  0  0  0  0
  128.4528  130.1906   64.0812 H   0  0  0  0  0  0  0  0  0  0  0  0
  127.1989  131.9593   62.8780 H   0  0  0  0  0  0  0  0  0  0  0  0
  1  2  1  0
  2  3  1  0
  3  4  2  0
  4  5  1  0
  5  6  2  0
  6  7  1  0
  7  8  2  0
  8  9  1  0
  9 10  1  0
 10 11  2  0
 11 12  1  0
 12 13  2  0
 13 14  1  0
 14 15  1  0
 13 16  1  0
 16 17  2  0
  9 18  2  0
 18 19  1  0
 19 20  3  0
 18 21  1  0
 21 22  1  0
 22 23  1  0
 23 24  1  0
 24 25  2  0
 24 26  1  0
 26 27  1  0
 27 28  2  0
 28 29  1  0
 29 30  2  0
 30 31  1  0
 21 32  2  0
  6 33  1  0
 33 34  2  0
 34  3  1  0
 32  7  1  0
 17 10  1  0
 31 27  1  0
  1 35  1  0
  1 36  1  0
  1 37  1  0
  4 38  1  0
  5 39  1  0
  8 40  1  0
 11 41  1  0
 12 42  1  0
 15 43  1  0
 15 44  1  0
 15 45  1  0
 16 46  1  0
 17 47  1  0
 23 48  1  0
 23 49  1  0
 26 50  1  0
 29 51  1  0
 30 52  1  0
 33 53  1  0
 34 54  1  0
M  END
>  <Binding energies>  (1) 
[-8.39]

>  <Ligand effiencies>  (1) 
[-0.23971428571428574]

>  <Interactions>  (1) 
["V-B:GLU:543:C:9870, V-A:HIS:456:CE1:4064, V-A:ASP:366:CG:3208, H-A:TYR:484:OH:4343, H-A:GLY:454:N:4045, V-B:GLU:543:CD:9876, V-B:GLU:543:CG:9875, V-A:ARG:545:CZ:4921, H-A:HIS:456:NE2:4065, V-B:GLU:543:CB:9874, V-A:HIS:456:CD2:4063, V-B:HIS:456:CE1:9037, V-A:ILE:369:CD1:3234, V-B:ARG:545:CZ:9894, V-B:HIS:456:CD2:9035, H-B:LYS:547:NZ:9919, V-B:GLU:543:CA:9872, V-B:LYS:547:CE:9918, V-A:HIS:456:CG:4061, H-B:GLU:543:O:9871, V-B:ILE:369:CD1:8206"]

$$$$
1c_Grossjean_2025
     RDKit          3D

 40 41  0  0  0  0  0  0  0  0999 V2000
  129.4530  126.7420   54.4420 C   0  0  0  0  0  0  0  0  0  0  0  0
  129.8600  125.3800   54.3780 O   0  0  0  0  0  0  0  0  0  0  0  0
  129.7340  124.5860   55.5030 C   0  0  0  0  0  0  0  0  0  0  0  0
  130.5970  124.8660   56.5620 C   0  0  0  0  0  0  0  0  0  0  0  0
  130.5460  124.1230   57.7370 C   0  0  0  0  0  0  0  0  0  0  0  0
  129.6140  123.0830   57.8690 C   0  0  0  0  0  0  0  0  0  0  0  0
  129.4840  122.2640   59.0070 N   0  0  0  0  0  0  0  0  0  0  0  0
  128.5820  122.3260   60.0100 C   0  0  0  0  0  0  0  0  0  0  0  0
  127.6630  123.1410   60.0950 O   0  0  0  0  0  0  0  0  0  0  0  0
  128.7480  121.2730   61.1080 C   0  0  0  0  0  0  0  0  0  0  0  0
  130.3840  120.4830   61.0470 S   0  0  0  0  0  0  0  0  0  0  0  0
  131.6190  121.7580   60.8960 C   0  0  0  0  0  0  0  0  0  0  0  0
  132.1880  121.8150   59.6650 N   0  0  0  0  0  0  0  0  0  0  0  0
  133.1420  122.7460   59.4320 C   0  0  0  0  0  0  0  0  0  0  0  0
  133.7240  122.7560   58.0300 C   0  0  0  0  0  0  0  0  0  0  0  0
  133.5730  123.6420   60.4070 C   0  0  0  0  0  0  0  0  0  0  0  0
  133.0110  123.5760   61.6860 C   0  0  0  0  0  0  0  0  0  0  0  0
  133.5120  124.5580   62.7440 C   0  0  0  0  0  0  0  0  0  0  0  0
  132.0140  122.6100   61.9540 C   0  0  0  0  0  0  0  0  0  0  0  0
  131.4530  122.4900   63.3030 C   0  0  0  0  0  0  0  0  0  0  0  0
  131.0100  122.3960   64.3670 N   0  0  0  0  0  0  0  0  0  0  0  0
  128.7560  122.7920   56.8070 C   0  0  0  0  0  0  0  0  0  0  0  0
  128.8110  123.5380   55.6330 C   0  0  0  0  0  0  0  0  0  0  0  0
  129.3615  127.0483   55.4945 H   0  0  0  0  0  0  0  0  0  0  0  0
  130.2020  127.3725   53.9405 H   0  0  0  0  0  0  0  0  0  0  0  0
  128.4809  126.8582   53.9405 H   0  0  0  0  0  0  0  0  0  0  0  0
  131.3265  125.6838   56.4672 H   0  0  0  0  0  0  0  0  0  0  0  0
  131.2364  124.3510   58.5624 H   0  0  0  0  0  0  0  0  0  0  0  0
  130.1360  121.4940   59.0420 H   0  0  0  0  0  0  0  0  0  0  0  0
  128.6234  121.7578   62.0875 H   0  0  0  0  0  0  0  0  0  0  0  0
  127.9871  120.4942   60.9516 H   0  0  0  0  0  0  0  0  0  0  0  0
  134.8223  122.7749   58.0890 H   0  0  0  0  0  0  0  0  0  0  0  0
  133.4012  121.8522   57.4925 H   0  0  0  0  0  0  0  0  0  0  0  0
  133.3703  123.6482   57.4925 H   0  0  0  0  0  0  0  0  0  0  0  0
  134.3444  124.3909   60.1746 H   0  0  0  0  0  0  0  0  0  0  0  0
  133.3059  124.1540   63.7461 H   0  0  0  0  0  0  0  0  0  0  0  0
  134.5954  124.7053   62.6238 H   0  0  0  0  0  0  0  0  0  0  0  0
  132.9954  125.5217   62.6238 H   0  0  0  0  0  0  0  0  0  0  0  0
  128.0324  121.9686   56.8984 H   0  0  0  0  0  0  0  0  0  0  0  0
  128.1274  123.3045   54.8034 H   0  0  0  0  0  0  0  0  0  0  0  0
  1  2  1  0
  2  3  1  0
  3  4  2  0
  4  5  1  0
  5  6  2  0
  6  7  1  0
  7  8  1  0
  8  9  2  0
  8 10  1  0
 10 11  1  0
 11 12  1  0
 12 13  2  0
 13 14  1  0
 14 15  1  0
 14 16  2  0
 16 17  1  0
 17 18  1  0
 17 19  2  0
 19 20  1  0
 20 21  3  0
  6 22  1  0
 22 23  2  0
 23  3  1  0
 19 12  1  0
  1 24  1  0
  1 25  1  0
  1 26  1  0
  4 27  1  0
  5 28  1  0
  7 29  1  0
 10 30  1  0
 10 31  1  0
 15 32  1  0
 15 33  1  0
 15 34  1  0
 16 35  1  0
 18 36  1  0
 18 37  1  0
 18 38  1  0
 22 39  1  0
 23 40  1  0
M  END
>  <Binding energies>  (1) 
[-6.93]

>  <Ligand effiencies>  (1) 
[-0.28875]

>  <Interactions>  (1) 
["V-B:ALA:541:CB:9860, V-B:TYR:539:CE2:9844, H-B:TYR:539:O:9836, V-B:MET:535:CE:9803, V-B:PRO:540:CA:9851, V-B:TYR:539:CD2:9842, V-B:ALA:541:CA:9858, V-B:PRO:540:C:9849, V-B:TYR:539:CE1:9843, V-B:TYR:539:C:9835, V-B:TYR:539:CZ:9845, V-A:ASP:366:CG:3208, H-A:TYR:484:OH:4343, V-A:ASP:366:CB:3207, V-A:ILE:369:CG2:3232, V-A:ILE:369:CD1:3234, V-A:LEU:475:CD2:4254, H-A:LYS:534:NZ:4818, V-A:TYR:531:CE1:4787, V-A:ILE:369:CB:3231, V-B:TYR:539:CD1:9841, V-B:TYR:539:CG:9840"]

$$$$
1d_Ghoteimi_2023
     RDKit          3D

 50 52  0  0  0  0  0  0  0  0999 V2000
  133.6320  124.9530   62.9990 C   0  0  0  0  0  0  0  0  0  0  0  0
  134.3060  124.6470   64.2100 O   0  0  0  0  0  0  0  0  0  0  0  0
  133.8810  125.1670   65.3800 C   0  0  0  0  0  0  0  0  0  0  0  0
  134.4170  125.0210   66.4800 O   0  0  0  0  0  0  0  0  0  0  0  0
  132.6070  125.9930   65.2200 C   0  0  0  0  0  0  0  0  0  0  0  0
  131.3720  125.3260   66.3740 S   0  0  0  0  0  0  0  0  0  0  0  0
  130.2170  126.6350   66.7160 C   0  0  0  0  0  0  0  0  0  0  0  0
  130.1160  126.9440   68.0310 N   0  0  0  0  0  0  0  0  0  0  0  0
  129.2670  127.9240   68.4330 C   0  0  0  0  0  0  0  0  0  0  0  0
  129.2190  128.2080   69.9070 C   0  0  0  0  0  0  0  0  0  0  0  0
  128.0540  127.9770   70.6560 C   0  0  0  0  0  0  0  0  0  0  0  0
  128.0100  128.2470   72.0200 C   0  0  0  0  0  0  0  0  0  0  0  0
  129.1250  128.7580   72.6790 C   0  0  0  0  0  0  0  0  0  0  0  0
  128.9890  128.9990   74.0320 O   0  0  0  0  0  0  0  0  0  0  0  0
  128.0270  129.9510   74.4730 C   0  0  0  0  0  0  0  0  0  0  0  0
  130.2960  128.9940   71.9450 C   0  0  0  0  0  0  0  0  0  0  0  0
  130.3370  128.7220   70.5800 C   0  0  0  0  0  0  0  0  0  0  0  0
  128.4990  128.6290   67.4990 C   0  0  0  0  0  0  0  0  0  0  0  0
  128.5730  128.3210   66.1350 C   0  0  0  0  0  0  0  0  0  0  0  0
  127.7190  129.1080   65.1940 C   0  0  0  0  0  0  0  0  0  0  0  0
  126.3950  128.7260   64.9570 C   0  0  0  0  0  0  0  0  0  0  0  0
  125.5950  129.4550   64.0820 C   0  0  0  0  0  0  0  0  0  0  0  0
  126.0980  130.5810   63.4310 C   0  0  0  0  0  0  0  0  0  0  0  0
  125.2350  131.2380   62.5760 O   0  0  0  0  0  0  0  0  0  0  0  0
  123.9840  130.6380   62.2540 C   0  0  0  0  0  0  0  0  0  0  0  0
  127.4220  130.9760   63.6750 C   0  0  0  0  0  0  0  0  0  0  0  0
  128.2200  130.2460   64.5520 C   0  0  0  0  0  0  0  0  0  0  0  0
  129.4410  127.2790   65.7260 C   0  0  0  0  0  0  0  0  0  0  0  0
  129.4800  126.8440   64.3260 C   0  0  0  0  0  0  0  0  0  0  0  0
  129.5110  126.5020   63.2210 N   0  0  0  0  0  0  0  0  0  0  0  0
  132.6521  125.3979   63.2270 H   0  0  0  0  0  0  0  0  0  0  0  0
  134.2320  125.6670   62.4157 H   0  0  0  0  0  0  0  0  0  0  0  0
  133.4895  124.0313   62.4157 H   0  0  0  0  0  0  0  0  0  0  0  0
  132.8113  127.0475   65.4573 H   0  0  0  0  0  0  0  0  0  0  0  0
  132.2383  125.9383   64.1851 H   0  0  0  0  0  0  0  0  0  0  0  0
  127.1605  127.5755   70.1555 H   0  0  0  0  0  0  0  0  0  0  0  0
  127.0851  128.0549   72.5835 H   0  0  0  0  0  0  0  0  0  0  0  0
  128.0076  129.9702   75.5727 H   0  0  0  0  0  0  0  0  0  0  0  0
  128.2968  130.9476   74.0936 H   0  0  0  0  0  0  0  0  0  0  0  0
  127.0333  129.6708   74.0936 H   0  0  0  0  0  0  0  0  0  0  0  0
  131.1867  129.3960   72.4499 H   0  0  0  0  0  0  0  0  0  0  0  0
  131.2636  128.9138   70.0190 H   0  0  0  0  0  0  0  0  0  0  0  0
  127.8305  129.4332   67.8400 H   0  0  0  0  0  0  0  0  0  0  0  0
  125.9825  127.8424   65.4661 H   0  0  0  0  0  0  0  0  0  0  0  0
  124.5565  129.1401   63.9023 H   0  0  0  0  0  0  0  0  0  0  0  0
  123.4506  130.3822   63.1813 H   0  0  0  0  0  0  0  0  0  0  0  0
  123.3792  131.3441   61.6660 H   0  0  0  0  0  0  0  0  0  0  0  0
  124.1561  129.7244   61.6660 H   0  0  0  0  0  0  0  0  0  0  0  0
  127.8307  131.8648   63.1721 H   0  0  0  0  0  0  0  0  0  0  0  0
  129.2548  130.5671   64.7421 H   0  0  0  0  0  0  0  0  0  0  0  0
  1  2  1  0
  2  3  1  0
  3  4  2  0
  3  5  1  0
  5  6  1  0
  6  7  1  0
  7  8  2  0
  8  9  1  0
  9 10  1  0
 10 11  2  0
 11 12  1  0
 12 13  2  0
 13 14  1  0
 14 15  1  0
 13 16  1  0
 16 17  2  0
  9 18  2  0
 18 19  1  0
 19 20  1  0
 20 21  2  0
 21 22  1  0
 22 23  2  0
 23 24  1  0
 24 25  1  0
 23 26  1  0
 26 27  2  0
 19 28  2  0
 28 29  1  0
 29 30  3  0
 28  7  1  0
 17 10  1  0
 27 20  1  0
  1 31  1  0
  1 32  1  0
  1 33  1  0
  5 34  1  0
  5 35  1  0
 11 36  1  0
 12 37  1  0
 15 38  1  0
 15 39  1  0
 15 40  1  0
 16 41  1  0
 17 42  1  0
 18 43  1  0
 21 44  1  0
 22 45  1  0
 25 46  1  0
 25 47  1  0
 25 48  1  0
 26 49  1  0
 27 50  1  0
M  END
>  <Binding energies>  (1) 
[-7.47]

>  <Ligand effiencies>  (1) 
[-0.249]

>  <Interactions>  (1) 
["V-A:HIS:456:CE1:4064, V-A:ASP:366:CG:3208, H-A:ARG:545:NE:4919, H-A:TYR:484:OH:4343, H-A:GLY:454:N:4045, V-B:GLU:543:CD:9876, V-A:ARG:545:CZ:4921, H-A:HIS:456:NE2:4065, V-A:GLU:543:CD:4903, V-A:ARG:545:CD:4918, V-B:HIS:456:CE1:9037, V-A:GLU:543:CG:4902, V-B:ARG:545:CZ:9894, V-A:GLU:543:C:4897, V-B:HIS:456:CD2:9035, H-B:LYS:547:NZ:9919, H-A:LYS:547:NZ:4946, H-A:ARG:545:NH1:4922, V-A:GLY:544:C:4907"]

$$$$
1d_Grossjean_2025
     RDKit          3D

 36 37  0  0  0  0  0  0  0  0999 V2000
  129.4600  122.3440   61.0580 C   0  0  0  0  0  0  0  0  0  0  0  0
  128.1420  122.7650   60.4370 C   0  0  0  0  0  0  0  0  0  0  0  0
  127.0490  123.1280   61.2210 C   0  0  0  0  0  0  0  0  0  0  0  0
  125.8610  123.5170   60.5940 C   0  0  0  0  0  0  0  0  0  0  0  0
  124.6820  123.9270   61.4750 C   0  0  0  0  0  0  0  0  0  0  0  0
  125.7950  123.5240   59.1820 C   0  0  0  0  0  0  0  0  0  0  0  0
  124.5780  123.9730   58.5030 C   0  0  0  0  0  0  0  0  0  0  0  0
  123.6140  124.3290   57.9700 N   0  0  0  0  0  0  0  0  0  0  0  0
  126.9450  123.1160   58.4660 C   0  0  0  0  0  0  0  0  0  0  0  0
  127.0380  123.0620   56.6900 S   0  0  0  0  0  0  0  0  0  0  0  0
  127.8810  124.5780   56.1450 C   0  0  0  0  0  0  0  0  0  0  0  0
  129.4020  124.4140   56.1160 C   0  0  0  0  0  0  0  0  0  0  0  0
  130.0080  124.6210   55.0650 O   0  0  0  0  0  0  0  0  0  0  0  0
  129.9680  124.0660   57.2910 N   0  0  0  0  0  0  0  0  0  0  0  0
  131.3180  123.8200   57.6040 C   0  0  0  0  0  0  0  0  0  0  0  0
  132.2540  124.3630   56.7200 C   0  0  0  0  0  0  0  0  0  0  0  0
  133.6160  124.1830   56.9400 C   0  0  0  0  0  0  0  0  0  0  0  0
  134.0460  123.4640   58.0520 C   0  0  0  0  0  0  0  0  0  0  0  0
  133.1250  122.9250   58.9470 C   0  0  0  0  0  0  0  0  0  0  0  0
  131.7610  123.1020   58.7280 C   0  0  0  0  0  0  0  0  0  0  0  0
  128.1000  122.7600   59.0840 N   0  0  0  0  0  0  0  0  0  0  0  0
  129.3741  122.3714   62.1543 H   0  0  0  0  0  0  0  0  0  0  0  0
  129.7076  121.3220   60.7351 H   0  0  0  0  0  0  0  0  0  0  0  0
  130.2542  123.0332   60.7351 H   0  0  0  0  0  0  0  0  0  0  0  0
  127.1195  123.1089   62.3186 H   0  0  0  0  0  0  0  0  0  0  0  0
  124.9639  123.8290   62.5337 H   0  0  0  0  0  0  0  0  0  0  0  0
  124.4116  124.9719   61.2628 H   0  0  0  0  0  0  0  0  0  0  0  0
  123.8216  123.2753   61.2628 H   0  0  0  0  0  0  0  0  0  0  0  0
  127.5327  124.8330   55.1332 H   0  0  0  0  0  0  0  0  0  0  0  0
  127.6406  125.3754   56.8635 H   0  0  0  0  0  0  0  0  0  0  0  0
  129.3410  123.9790   58.0780 H   0  0  0  0  0  0  0  0  0  0  0  0
  131.9122  124.9359   55.8454 H   0  0  0  0  0  0  0  0  0  0  0  0
  134.3497  124.6068   56.2386 H   0  0  0  0  0  0  0  0  0  0  0  0
  135.1227  123.3204   58.2252 H   0  0  0  0  0  0  0  0  0  0  0  0
  133.4740  122.3610   59.8245 H   0  0  0  0  0  0  0  0  0  0  0  0
  131.0309  122.6801   59.4344 H   0  0  0  0  0  0  0  0  0  0  0  0
  1  2  1  0
  2  3  2  0
  3  4  1  0
  4  5  1  0
  4  6  2  0
  6  7  1  0
  7  8  3  0
  6  9  1  0
  9 10  1  0
 10 11  1  0
 11 12  1  0
 12 13  2  0
 12 14  1  0
 14 15  1  0
 15 16  2  0
 16 17  1  0
 17 18  2  0
 18 19  1  0
 19 20  2  0
  9 21  2  0
 21  2  1  0
 20 15  1  0
  1 22  1  0
  1 23  1  0
  1 24  1  0
  3 25  1  0
  5 26  1  0
  5 27  1  0
  5 28  1  0
 11 29  1  0
 11 30  1  0
 14 31  1  0
 16 32  1  0
 17 33  1  0
 18 34  1  0
 19 35  1  0
 20 36  1  0
M  END
>  <Binding energies>  (1) 
[-6.71]

>  <Ligand effiencies>  (1) 
[-0.305]

>  <Interactions>  (1) 
["V-B:ALA:541:CB:9860, V-B:TYR:539:CE2:9844, V-B:MET:535:CE:9803, V-B:PRO:540:CA:9851, V-B:PRO:540:N:9852, V-B:PRO:540:CB:9853, V-B:PRO:540:C:9849, V-B:TYR:539:C:9835, V-B:TYR:539:CZ:9845, V-B:GLU:543:CD:9876, V-B:ASN:362:CB:8143, V-A:ASP:366:CB:3207, V-A:ILE:369:CG2:3232, V-A:ILE:369:CD1:3234, H-A:LYS:534:NZ:4818, V-A:TYR:531:CE1:4787, V-A:TYR:531:CZ:4789, V-A:ASN:370:CB:3240, V-A:ASP:366:C:3203, V-A:ILE:369:CB:3231, H-B:TYR:539:OH:9846, V-A:ASP:366:CA:3205"]

$$$$
1e_Grossjean_2025
     RDKit          3D

 38 39  0  0  0  0  0  0  0  0999 V2000
  134.9800  124.9930   66.5130 C   0  0  0  0  0  0  0  0  0  0  0  0
  133.8080  125.2130   65.5760 C   0  0  0  0  0  0  0  0  0  0  0  0
  132.5780  125.6850   66.0430 C   0  0  0  0  0  0  0  0  0  0  0  0
  131.5440  125.8620   65.1230 C   0  0  0  0  0  0  0  0  0  0  0  0
  131.7590  125.5640   63.7760 C   0  0  0  0  0  0  0  0  0  0  0  0
  133.0170  125.1000   63.3750 C   0  0  0  0  0  0  0  0  0  0  0  0
  133.1700  124.8070   62.0080 N   0  0  0  0  0  0  0  0  0  0  0  0
  133.7520  123.7280   61.4400 C   0  0  0  0  0  0  0  0  0  0  0  0
  134.2700  122.7960   62.0580 O   0  0  0  0  0  0  0  0  0  0  0  0
  133.7730  123.7120   59.9100 C   0  0  0  0  0  0  0  0  0  0  0  0
  133.1910  122.1250   59.2380 S   0  0  0  0  0  0  0  0  0  0  0  0
  131.6290  121.7240   59.9950 C   0  0  0  0  0  0  0  0  0  0  0  0
  131.4050  120.3880   60.0940 N   0  0  0  0  0  0  0  0  0  0  0  0
  130.2480  119.9600   60.6510 C   0  0  0  0  0  0  0  0  0  0  0  0
  130.0720  118.4560   60.7340 C   0  0  0  0  0  0  0  0  0  0  0  0
  129.2700  120.8350   61.1170 C   0  0  0  0  0  0  0  0  0  0  0  0
  129.4780  122.2130   60.9970 C   0  0  0  0  0  0  0  0  0  0  0  0
  128.3820  123.1520   61.4990 C   0  0  0  0  0  0  0  0  0  0  0  0
  130.6780  122.6840   60.4160 C   0  0  0  0  0  0  0  0  0  0  0  0
  130.8860  124.1220   60.2310 C   0  0  0  0  0  0  0  0  0  0  0  0
  131.0490  125.2580   60.0850 N   0  0  0  0  0  0  0  0  0  0  0  0
  134.0330  124.9210   64.2700 N   0  0  0  0  0  0  0  0  0  0  0  0
  134.6336  125.0580   67.5550 H   0  0  0  0  0  0  0  0  0  0  0  0
  135.4125  123.9980   66.3318 H   0  0  0  0  0  0  0  0  0  0  0  0
  135.7439  125.7634   66.3318 H   0  0  0  0  0  0  0  0  0  0  0  0
  132.4289  125.9112   67.1091 H   0  0  0  0  0  0  0  0  0  0  0  0
  130.5644  126.2344   65.4572 H   0  0  0  0  0  0  0  0  0  0  0  0
  130.9512  125.6921   63.0405 H   0  0  0  0  0  0  0  0  0  0  0  0
  132.8460  125.5290   61.3820 H   0  0  0  0  0  0  0  0  0  0  0  0
  133.1213  124.5160   59.5373 H   0  0  0  0  0  0  0  0  0  0  0  0
  134.8128  123.8592   59.5826 H   0  0  0  0  0  0  0  0  0  0  0  0
  130.0360  118.1487   61.7896 H   0  0  0  0  0  0  0  0  0  0  0  0
  129.1341  118.1686   60.2363 H   0  0  0  0  0  0  0  0  0  0  0  0
  130.9182  117.9598   60.2363 H   0  0  0  0  0  0  0  0  0  0  0  0
  128.3469  120.4479   61.5731 H   0  0  0  0  0  0  0  0  0  0  0  0
  128.3777  123.1556   62.5990 H   0  0  0  0  0  0  0  0  0  0  0  0
  128.5740  124.1702   61.1297 H   0  0  0  0  0  0  0  0  0  0  0  0
  127.4053  122.8061   61.1297 H   0  0  0  0  0  0  0  0  0  0  0  0
  1  2  1  0
  2  3  2  0
  3  4  1  0
  4  5  2  0
  5  6  1  0
  6  7  1  0
  7  8  1  0
  8  9  2  0
  8 10  1  0
 10 11  1  0
 11 12  1  0
 12 13  2  0
 13 14  1  0
 14 15  1  0
 14 16  2  0
 16 17  1  0
 17 18  1  0
 17 19  2  0
 19 20  1  0
 20 21  3  0
  6 22  2  0
 22  2  1  0
 19 12  1  0
  1 23  1  0
  1 24  1  0
  1 25  1  0
  3 26  1  0
  4 27  1  0
  5 28  1  0
  7 29  1  0
 10 30  1  0
 10 31  1  0
 15 32  1  0
 15 33  1  0
 15 34  1  0
 16 35  1  0
 18 36  1  0
 18 37  1  0
 18 38  1  0
M  END
>  <Binding energies>  (1) 
[-6.94]

>  <Ligand effiencies>  (1) 
[-0.3017391304347826]

>  <Interactions>  (1) 
["V-B:ALA:541:CB:9860, V-B:TYR:539:CE2:9844, V-A:TRP:381:CH2:3367, V-B:TYR:539:CD2:9842, V-B:ALA:541:CA:9858, V-B:PRO:540:C:9849, V-A:ASP:366:CG:3208, H-A:TYR:484:OH:4343, H-A:GLY:454:N:4045, V-B:GLU:543:CD:9876, V-A:ARG:545:CZ:4921, H-A:ARG:545:NH2:4923, V-A:ASP:366:CB:3207, H-A:ASP:366:OD2:3210, V-A:ARG:545:CD:4918, V-A:GLY:454:CA:4044, V-A:ARG:545:CG:4917, V-A:GLY:453:CA:4039, V-A:GLY:453:C:4037, V-A:HIS:456:CD2:4063, V-A:ILE:369:CD1:3234, V-A:TRP:381:CZ3:3366, V-A:LEU:475:CD2:4254, V-A:TRP:381:CZ2:3365, V-A:PRO:482:CG:4322, V-A:PRO:482:CB:4321, V-A:ASP:366:CA:3205, H-A:ARG:545:NH1:4922, H-A:ASP:366:OD1:3209, V-A:TRP:381:CE2:3362"]

$$$$
1f_Grossjean_2025
     RDKit          3D

 35 36  0  0  0  0  0  0  0  0999 V2000
  128.3680  132.8770   57.7240 C   0  0  0  0  0  0  0  0  0  0  0  0
  128.3860  132.7750   59.2380 C   0  0  0  0  0  0  0  0  0  0  0  0
  127.2290  132.9460   59.9940 C   0  0  0  0  0  0  0  0  0  0  0  0
  127.3090  132.8520   61.3880 C   0  0  0  0  0  0  0  0  0  0  0  0
  126.0310  133.0620   62.1970 C   0  0  0  0  0  0  0  0  0  0  0  0
  128.5580  132.5780   61.9920 C   0  0  0  0  0  0  0  0  0  0  0  0
  128.6720  132.5320   63.4520 C   0  0  0  0  0  0  0  0  0  0  0  0
  128.7610  132.4960   64.6050 N   0  0  0  0  0  0  0  0  0  0  0  0
  129.6750  132.3910   61.1440 C   0  0  0  0  0  0  0  0  0  0  0  0
  131.3230  132.0400   61.7220 S   0  0  0  0  0  0  0  0  0  0  0  0
  131.9840  130.6360   60.7610 C   0  0  0  0  0  0  0  0  0  0  0  0
  132.4700  130.9920   59.3480 C   0  0  0  0  0  0  0  0  0  0  0  0
  133.6750  131.0820   59.1060 O   0  0  0  0  0  0  0  0  0  0  0  0
  131.4830  131.2100   58.4530 N   0  0  0  0  0  0  0  0  0  0  0  0
  131.5650  131.5440   57.0880 C   0  0  0  0  0  0  0  0  0  0  0  0
  131.8860  130.6550   56.0450 C   0  0  0  0  0  0  0  0  0  0  0  0
  131.9290  131.1220   54.7280 C   0  0  0  0  0  0  0  0  0  0  0  0
  131.6470  132.4670   54.4860 C   0  0  0  0  0  0  0  0  0  0  0  0
  131.3300  133.3420   55.4720 N   0  0  0  0  0  0  0  0  0  0  0  0
  131.2930  132.8740   56.7470 C   0  0  0  0  0  0  0  0  0  0  0  0
  129.5900  132.5080   59.7950 N   0  0  0  0  0  0  0  0  0  0  0  0
  128.1838  133.9206   57.4290 H   0  0  0  0  0  0  0  0  0  0  0  0
  129.3380  132.5483   57.3228 H   0  0  0  0  0  0  0  0  0  0  0  0
  127.5691  132.2361   57.3228 H   0  0  0  0  0  0  0  0  0  0  0  0
  126.2666  133.1519   59.5027 H   0  0  0  0  0  0  0  0  0  0  0  0
  126.2663  133.0233   63.2708 H   0  0  0  0  0  0  0  0  0  0  0  0
  125.5987  134.0432   61.9515 H   0  0  0  0  0  0  0  0  0  0  0  0
  125.3074  132.2707   61.9515 H   0  0  0  0  0  0  0  0  0  0  0  0
  132.8323  130.2103   61.3171 H   0  0  0  0  0  0  0  0  0  0  0  0
  131.1502  129.9302   60.6321 H   0  0  0  0  0  0  0  0  0  0  0  0
  130.5400  131.1410   58.8070 H   0  0  0  0  0  0  0  0  0  0  0  0
  132.1018  129.5990   56.2649 H   0  0  0  0  0  0  0  0  0  0  0  0
  132.1800  130.4432   53.8996 H   0  0  0  0  0  0  0  0  0  0  0  0
  131.6835  132.8336   53.4495 H   0  0  0  0  0  0  0  0  0  0  0  0
  131.0359  133.5769   57.5532 H   0  0  0  0  0  0  0  0  0  0  0  0
  1  2  1  0
  2  3  2  0
  3  4  1  0
  4  5  1  0
  4  6  2  0
  6  7  1  0
  7  8  3  0
  6  9  1  0
  9 10  1  0
 10 11  1  0
 11 12  1  0
 12 13  2  0
 12 14  1  0
 14 15  1  0
 15 16  2  0
 16 17  1  0
 17 18  2  0
 18 19  1  0
 19 20  2  0
  9 21  2  0
 21  2  1  0
 20 15  1  0
  1 22  1  0
  1 23  1  0
  1 24  1  0
  3 25  1  0
  5 26  1  0
  5 27  1  0
  5 28  1  0
 11 29  1  0
 11 30  1  0
 14 31  1  0
 16 32  1  0
 17 33  1  0
 18 34  1  0
 20 35  1  0
M  END
>  <Binding energies>  (1) 
[-6.91]

>  <Ligand effiencies>  (1) 
[-0.3140909090909091]

>  <Interactions>  (1) 
["V-A:TYR:539:CZ:4872, V-A:LEU:363:CD1:3184, V-A:PRO:540:C:4876, V-A:PRO:540:N:4879, V-A:TYR:539:CE1:4870, V-A:TYR:539:C:4862, V-A:TYR:539:CD1:4868, V-A:PRO:540:CG:4881, V-A:PRO:540:CA:4878, V-A:TYR:539:CG:4867, H-A:ALA:541:N:4886, V-A:PRO:540:CD:4882, V-A:ILE:538:CA:4855, V-A:TYR:531:CE2:4788, V-A:PRO:540:CB:4880, V-A:TYR:539:CE2:4871, V-A:TYR:539:CD2:4869, H-A:TYR:539:N:4865, V-A:ILE:538:CG2:4858, V-A:TYR:531:CZ:4789, H-B:TYR:484:OH:9315, V-A:GLU:543:CG:4902, V-A:ILE:538:CD1:4860, V-A:ALA:541:CB:4887, V-B:LEU:475:CD2:9226, H-A:LEU:363:N:3181"]

$$$$
1g_Grossjean_2025
     RDKit          3D

 39 40  0  0  0  0  0  0  0  0999 V2000
  129.7680  121.6970   60.9550 C   0  0  0  0  0  0  0  0  0  0  0  0
  128.7080  122.3810   60.1120 C   0  0  0  0  0  0  0  0  0  0  0  0
  127.5830  122.9680   60.6880 C   0  0  0  0  0  0  0  0  0  0  0  0
  126.6310  123.5700   59.8580 C   0  0  0  0  0  0  0  0  0  0  0  0
  125.3980  124.1940   60.5120 C   0  0  0  0  0  0  0  0  0  0  0  0
  126.8370  123.5770   58.4600 C   0  0  0  0  0  0  0  0  0  0  0  0
  125.8290  124.1550   57.5690 C   0  0  0  0  0  0  0  0  0  0  0  0
  125.0300  124.6120   56.8670 N   0  0  0  0  0  0  0  0  0  0  0  0
  128.0200  122.9800   57.9650 C   0  0  0  0  0  0  0  0  0  0  0  0
  128.4420  122.9080   56.2380 S   0  0  0  0  0  0  0  0  0  0  0  0
  129.1010  124.5380   55.7750 C   0  0  0  0  0  0  0  0  0  0  0  0
  130.3440  124.9050   56.5870 C   0  0  0  0  0  0  0  0  0  0  0  0
  130.2740  125.7610   57.4700 O   0  0  0  0  0  0  0  0  0  0  0  0
  131.4760  124.2520   56.2710 N   0  0  0  0  0  0  0  0  0  0  0  0
  132.7610  124.4020   56.9530 C   0  0  0  0  0  0  0  0  0  0  0  0
  132.8180  123.7570   58.3340 C   0  0  0  0  0  0  0  0  0  0  0  0
  132.4820  124.5030   59.4680 C   0  0  0  0  0  0  0  0  0  0  0  0
  132.5340  123.9140   60.7290 C   0  0  0  0  0  0  0  0  0  0  0  0
  132.9160  122.5790   60.8510 C   0  0  0  0  0  0  0  0  0  0  0  0
  133.2470  121.8290   59.7250 C   0  0  0  0  0  0  0  0  0  0  0  0
  133.1980  122.4180   58.4640 C   0  0  0  0  0  0  0  0  0  0  0  0
  128.9270  122.3780   58.7760 N   0  0  0  0  0  0  0  0  0  0  0  0
  129.5400  121.8441   62.0210 H   0  0  0  0  0  0  0  0  0  0  0  0
  129.7793  120.6208   60.7276 H   0  0  0  0  0  0  0  0  0  0  0  0
  130.7532  122.1302   60.7276 H   0  0  0  0  0  0  0  0  0  0  0  0
  127.4454  122.9582   61.7793 H   0  0  0  0  0  0  0  0  0  0  0  0
  125.4981  124.1433   61.6063 H   0  0  0  0  0  0  0  0  0  0  0  0
  125.3099  125.2452   60.2001 H   0  0  0  0  0  0  0  0  0  0  0  0
  124.4988  123.6425   60.2001 H   0  0  0  0  0  0  0  0  0  0  0  0
  129.3656  124.5239   54.7074 H   0  0  0  0  0  0  0  0  0  0  0  0
  128.3252  125.2897   55.9827 H   0  0  0  0  0  0  0  0  0  0  0  0
  131.4390  123.5500   55.5460 H   0  0  0  0  0  0  0  0  0  0  0  0
  133.5394  123.9428   56.3260 H   0  0  0  0  0  0  0  0  0  0  0  0
  132.9139  125.4810   57.1028 H   0  0  0  0  0  0  0  0  0  0  0  0
  132.1767  125.5547   59.3641 H   0  0  0  0  0  0  0  0  0  0  0  0
  132.2750  124.4991   61.6238 H   0  0  0  0  0  0  0  0  0  0  0  0
  132.9564  122.1131   61.8466 H   0  0  0  0  0  0  0  0  0  0  0  0
  133.5459  120.7757   59.8313 H   0  0  0  0  0  0  0  0  0  0  0  0
  133.4580  121.8303   57.5713 H   0  0  0  0  0  0  0  0  0  0  0  0
  1  2  1  0
  2  3  2  0
  3  4  1  0
  4  5  1  0
  4  6  2  0
  6  7  1  0
  7  8  3  0
  6  9  1  0
  9 10  1  0
 10 11  1  0
 11 12  1  0
 12 13  2  0
 12 14  1  0
 14 15  1  0
 15 16  1  0
 16 17  2  0
 17 18  1  0
 18 19  2  0
 19 20  1  0
 20 21  2  0
  9 22  2  0
 22  2  1  0
 21 16  1  0
  1 23  1  0
  1 24  1  0
  1 25  1  0
  3 26  1  0
  5 27  1  0
  5 28  1  0
  5 29  1  0
 11 30  1  0
 11 31  1  0
 14 32  1  0
 15 33  1  0
 15 34  1  0
 17 35  1  0
 18 36  1  0
 19 37  1  0
 20 38  1  0
 21 39  1  0
M  END
>  <Binding energies>  (1) 
[-6.79]

>  <Ligand effiencies>  (1) 
[-0.2952173913043478]

>  <Interactions>  (1) 
["H-B:TYR:531:OH:9763, V-B:ALA:541:CB:9860, V-B:TYR:539:CE2:9844, V-B:MET:535:CE:9803, V-B:PRO:540:CA:9851, V-B:PRO:540:CB:9853, V-B:PRO:540:C:9849, V-B:TYR:539:C:9835, V-B:TYR:539:CZ:9845, V-A:ASP:366:CG:3208, V-A:ASP:366:CB:3207, H-A:TYR:531:OH:4790, V-A:ILE:369:CG2:3232, V-A:ILE:369:CD1:3234, V-A:TYR:531:CE1:4787, V-A:TYR:531:CZ:4789, V-A:ILE:369:CB:3231, H-B:TYR:539:OH:9846"]

$$$$
1h_Grossjean_2025
     RDKit          3D

 51 52  0  0  0  0  0  0  0  0999 V2000
  132.5320  131.2610   54.1550 C   0  0  0  0  0  0  0  0  0  0  0  0
  132.5210  132.3110   55.1150 O   0  0  0  0  0  0  0  0  0  0  0  0
  132.0450  132.0610   56.3890 C   0  0  0  0  0  0  0  0  0  0  0  0
  132.7500  131.3310   57.3590 C   0  0  0  0  0  0  0  0  0  0  0  0
  132.2010  131.1050   58.6220 C   0  0  0  0  0  0  0  0  0  0  0  0
  132.9870  130.3300   59.6750 C   0  0  0  0  0  0  0  0  0  0  0  0
  132.1550  129.5030   60.5490 N   0  0  0  0  0  0  0  0  0  0  0  0
  131.3180  128.5350   60.1370 C   0  0  0  0  0  0  0  0  0  0  0  0
  131.1750  128.2120   58.9580 O   0  0  0  0  0  0  0  0  0  0  0  0
  130.5120  127.8230   61.2230 C   0  0  0  0  0  0  0  0  0  0  0  0
  131.5820  126.9210   62.3840 S   0  0  0  0  0  0  0  0  0  0  0  0
  131.9340  125.3170   61.6820 C   0  0  0  0  0  0  0  0  0  0  0  0
  131.3010  125.0340   60.5130 N   0  0  0  0  0  0  0  0  0  0  0  0
  131.5260  123.8370   59.9230 C   0  0  0  0  0  0  0  0  0  0  0  0
  130.7880  123.5960   58.6200 C   0  0  0  0  0  0  0  0  0  0  0  0
  132.3790  122.8790   60.4670 C   0  0  0  0  0  0  0  0  0  0  0  0
  133.0350  123.1580   61.6710 C   0  0  0  0  0  0  0  0  0  0  0  0
  133.9670  122.0950   62.2480 C   0  0  0  0  0  0  0  0  0  0  0  0
  132.8150  124.4030   62.3040 C   0  0  0  0  0  0  0  0  0  0  0  0
  133.4860  124.7210   63.5670 C   0  0  0  0  0  0  0  0  0  0  0  0
  134.0160  124.9720   64.5650 N   0  0  0  0  0  0  0  0  0  0  0  0
  130.9520  131.6430   58.9360 C   0  0  0  0  0  0  0  0  0  0  0  0
  130.2280  132.3810   57.9870 C   0  0  0  0  0  0  0  0  0  0  0  0
  128.9860  132.9410   58.2280 O   0  0  0  0  0  0  0  0  0  0  0  0
  128.5990  133.2360   59.5670 C   0  0  0  0  0  0  0  0  0  0  0  0
  130.7810  132.5740   56.7130 C   0  0  0  0  0  0  0  0  0  0  0  0
  130.0860  133.3000   55.7760 O   0  0  0  0  0  0  0  0  0  0  0  0
  129.4820  132.5090   54.7630 C   0  0  0  0  0  0  0  0  0  0  0  0
  132.5422  130.2907   54.6730 H   0  0  0  0  0  0  0  0  0  0  0  0
  131.6331  131.3309   53.5249 H   0  0  0  0  0  0  0  0  0  0  0  0
  133.4293  131.3497   53.5249 H   0  0  0  0  0  0  0  0  0  0  0  0
  133.7471  130.9323   57.1207 H   0  0  0  0  0  0  0  0  0  0  0  0
  133.7041  129.6749   59.1587 H   0  0  0  0  0  0  0  0  0  0  0  0
  133.4801  131.0751   60.3166 H   0  0  0  0  0  0  0  0  0  0  0  0
  132.2010  129.7130   61.5360 H   0  0  0  0  0  0  0  0  0  0  0  0
  129.9318  128.5713   61.7828 H   0  0  0  0  0  0  0  0  0  0  0  0
  129.8514  127.0930   60.7324 H   0  0  0  0  0  0  0  0  0  0  0  0
  129.7627  123.2612   58.8358 H   0  0  0  0  0  0  0  0  0  0  0  0
  130.7542  124.5298   58.0396 H   0  0  0  0  0  0  0  0  0  0  0  0
  131.3119  122.8222   58.0396 H   0  0  0  0  0  0  0  0  0  0  0  0
  132.5345  121.9168   59.9571 H   0  0  0  0  0  0  0  0  0  0  0  0
  133.9324  122.1344   63.3468 H   0  0  0  0  0  0  0  0  0  0  0  0
  133.6447  121.1003   61.9065 H   0  0  0  0  0  0  0  0  0  0  0  0
  134.9953  122.2845   61.9065 H   0  0  0  0  0  0  0  0  0  0  0  0
  130.5299  131.4866   59.9397 H   0  0  0  0  0  0  0  0  0  0  0  0
  129.2746  132.7210   60.2658 H   0  0  0  0  0  0  0  0  0  0  0  0
  128.6563  134.3217   59.7345 H   0  0  0  0  0  0  0  0  0  0  0  0
  127.5673  132.8931   59.7345 H   0  0  0  0  0  0  0  0  0  0  0  0
  128.8771  131.7168   55.2283 H   0  0  0  0  0  0  0  0  0  0  0  0
  128.8367  133.1438   54.1380 H   0  0  0  0  0  0  0  0  0  0  0  0
  130.2644  132.0537   54.1380 H   0  0  0  0  0  0  0  0  0  0  0  0
  1  2  1  0
  2  3  1  0
  3  4  2  0
  4  5  1  0
  5  6  1  0
  6  7  1  0
  7  8  1  0
  8  9  2  0
  8 10  1  0
 10 11  1  0
 11 12  1  0
 12 13  2  0
 13 14  1  0
 14 15  1  0
 14 16  2  0
 16 17  1  0
 17 18  1  0
 17 19  2  0
 19 20  1  0
 20 21  3  0
  5 22  2  0
 22 23  1  0
 23 24  1  0
 24 25  1  0
 23 26  2  0
 26 27  1  0
 27 28  1  0
 26  3  1  0
 19 12  1  0
  1 29  1  0
  1 30  1  0
  1 31  1  0
  4 32  1  0
  6 33  1  0
  6 34  1  0
  7 35  1  0
 10 36  1  0
 10 37  1  0
 15 38  1  0
 15 39  1  0
 15 40  1  0
 16 41  1  0
 18 42  1  0
 18 43  1  0
 18 44  1  0
 22 45  1  0
 25 46  1  0
 25 47  1  0
 25 48  1  0
 28 49  1  0
 28 50  1  0
 28 51  1  0
M  END
>  <Binding energies>  (1) 
[-6.91]

>  <Ligand effiencies>  (1) 
[-0.23827586206896553]

>  <Interactions>  (1) 
["V-B:TYR:539:CE2:9844, V-A:ASP:366:CG:3208, H-A:ARG:545:NE:4919, H-A:GLU:543:OE2:4905, H-A:TYR:484:OH:4343, H-A:GLY:454:N:4045, V-A:ARG:545:CZ:4921, H-A:ARG:545:NH2:4923, V-A:LEU:363:CD1:3184, V-A:PRO:540:N:4879, V-A:TYR:539:CE1:4870, V-A:TYR:539:C:4862, V-A:TYR:539:CD1:4868, V-A:PRO:540:CA:4878, H-A:TYR:531:OH:4790, V-A:PRO:540:CD:4882, H-A:ASP:366:OD2:3210, V-A:TYR:531:CE2:4788, V-A:PRO:540:CB:4880, V-A:TYR:539:CE2:4871, V-A:TYR:539:CD2:4869, V-A:GLY:454:CA:4044, V-A:ILE:369:CD1:3234, V-A:LEU:475:CD2:4254, H-A:TYR:539:N:4865, V-A:ILE:538:CD1:4860, V-A:TYR:531:CD2:4786, H-A:ARG:545:NH1:4922"]

$$$$
1i_Grossjean_2025
     RDKit          3D

 32 33  0  0  0  0  0  0  0  0999 V2000
  128.3930  122.0580   61.0110 C   0  0  0  0  0  0  0  0  0  0  0  0
  129.7390  122.2540   60.3380 C   0  0  0  0  0  0  0  0  0  0  0  0
  130.7740  121.3350   60.4970 C   0  0  0  0  0  0  0  0  0  0  0  0
  131.9900  121.5630   59.8440 C   0  0  0  0  0  0  0  0  0  0  0  0
  133.1050  120.5330   60.0190 C   0  0  0  0  0  0  0  0  0  0  0  0
  132.1410  122.7200   59.0460 C   0  0  0  0  0  0  0  0  0  0  0  0
  133.3880  122.9520   58.3130 C   0  0  0  0  0  0  0  0  0  0  0  0
  134.3740  123.1320   57.7340 N   0  0  0  0  0  0  0  0  0  0  0  0
  131.0450  123.6110   58.9620 C   0  0  0  0  0  0  0  0  0  0  0  0
  131.0600  125.1110   58.0060 S   0  0  0  0  0  0  0  0  0  0  0  0
  130.9850  124.6460   56.2500 C   0  0  0  0  0  0  0  0  0  0  0  0
  129.5830  124.1970   55.8330 C   0  0  0  0  0  0  0  0  0  0  0  0
  129.1480  124.5240   54.7280 O   0  0  0  0  0  0  0  0  0  0  0  0
  128.9170  123.4500   56.7410 N   0  0  0  0  0  0  0  0  0  0  0  0
  127.6400  122.9210   56.6200 C   0  0  0  0  0  0  0  0  0  0  0  0
  126.5340  123.4430   57.2890 C   0  0  0  0  0  0  0  0  0  0  0  0
  125.4770  122.6490   56.9080 C   0  0  0  0  0  0  0  0  0  0  0  0
  125.9240  121.6970   56.0540 O   0  0  0  0  0  0  0  0  0  0  0  0
  127.2970  121.8790   55.8810 N   0  0  0  0  0  0  0  0  0  0  0  0
  129.8620  123.3710   59.5830 N   0  0  0  0  0  0  0  0  0  0  0  0
  128.5229  122.0769   62.1031 H   0  0  0  0  0  0  0  0  0  0  0  0
  127.7108  122.8663   60.7088 H   0  0  0  0  0  0  0  0  0  0  0  0
  127.9696  121.0887   60.7088 H   0  0  0  0  0  0  0  0  0  0  0  0
  130.6371  120.4435   61.1266 H   0  0  0  0  0  0  0  0  0  0  0  0
  133.2853  120.3664   61.0913 H   0  0  0  0  0  0  0  0  0  0  0  0
  132.8067  119.5858   59.5459 H   0  0  0  0  0  0  0  0  0  0  0  0
  134.0256  120.9053   59.5459 H   0  0  0  0  0  0  0  0  0  0  0  0
  131.2753  125.5144   55.6404 H   0  0  0  0  0  0  0  0  0  0  0  0
  131.6718  123.8011   56.0936 H   0  0  0  0  0  0  0  0  0  0  0  0
  129.3760  123.2770   57.6240 H   0  0  0  0  0  0  0  0  0  0  0  0
  126.5113  124.3037   57.9736 H   0  0  0  0  0  0  0  0  0  0  0  0
  124.4360  122.7680   57.2430 H   0  0  0  0  0  0  0  0  0  0  0  0
  1  2  1  0
  2  3  2  0
  3  4  1  0
  4  5  1  0
  4  6  2  0
  6  7  1  0
  7  8  3  0
  6  9  1  0
  9 10  1  0
 10 11  1  0
 11 12  1  0
 12 13  2  0
 12 14  1  0
 14 15  1  0
 15 16  1  0
 16 17  2  0
 17 18  1  0
 18 19  1  0
  9 20  2  0
 20  2  1  0
 19 15  2  0
  1 21  1  0
  1 22  1  0
  1 23  1  0
  3 24  1  0
  5 25  1  0
  5 26  1  0
  5 27  1  0
 11 28  1  0
 11 29  1  0
 14 30  1  0
 16 31  1  0
 17 32  1  0
M  END
>  <Binding energies>  (1) 
[-6.98]

>  <Ligand effiencies>  (1) 
[-0.3323809523809524]

>  <Interactions>  (1) 
["V-B:ALA:541:CB:9860, V-B:TYR:539:CE2:9844, V-B:MET:535:CE:9803, V-B:PRO:540:CD:9855, V-B:PRO:540:CA:9851, V-A:TRP:381:CH2:3367, V-B:TYR:539:CD2:9842, V-B:ALA:541:CA:9858, V-B:PRO:540:N:9852, V-B:PRO:540:CB:9853, V-B:PRO:540:C:9849, V-B:TYR:539:CE1:9843, V-B:TYR:539:C:9835, V-B:TYR:539:CZ:9845, H-A:TYR:531:OH:4790, V-A:ILE:369:CG2:3232, V-A:ILE:369:CD1:3234, V-A:LEU:475:CD2:4254, H-A:LYS:534:NZ:4818, V-A:TYR:531:CE1:4787, V-A:TYR:531:CZ:4789, H-B:TYR:539:N:9838, V-A:ILE:369:CB:3231, H-A:ASN:370:N:3239"]

$$$$
1j_Grossjean_2025
     RDKit          3D

 32 33  0  0  0  0  0  0  0  0999 V2000
  129.5180  121.9260   60.9660 C   0  0  0  0  0  0  0  0  0  0  0  0
  128.3810  122.5090   60.1470 C   0  0  0  0  0  0  0  0  0  0  0  0
  127.2650  123.0810   60.7530 C   0  0  0  0  0  0  0  0  0  0  0  0
  126.2540  123.6150   59.9480 C   0  0  0  0  0  0  0  0  0  0  0  0
  125.0470  124.2530   60.6360 C   0  0  0  0  0  0  0  0  0  0  0  0
  126.3850  123.5540   58.5420 C   0  0  0  0  0  0  0  0  0  0  0  0
  125.3640  124.1550   57.6800 C   0  0  0  0  0  0  0  0  0  0  0  0
  124.5560  124.6310   57.0020 N   0  0  0  0  0  0  0  0  0  0  0  0
  127.5400  122.9310   58.0130 C   0  0  0  0  0  0  0  0  0  0  0  0
  127.8680  122.7640   56.2720 S   0  0  0  0  0  0  0  0  0  0  0  0
  128.6820  124.2900   55.7140 C   0  0  0  0  0  0  0  0  0  0  0  0
  130.1880  124.2680   55.9820 C   0  0  0  0  0  0  0  0  0  0  0  0
  130.9650  124.6160   55.0920 O   0  0  0  0  0  0  0  0  0  0  0  0
  130.5540  123.8570   57.2160 N   0  0  0  0  0  0  0  0  0  0  0  0
  131.8500  123.7430   57.7000 C   0  0  0  0  0  0  0  0  0  0  0  0
  132.9570  123.5710   57.0100 N   0  0  0  0  0  0  0  0  0  0  0  0
  134.0120  123.5050   57.7980 C   0  0  0  0  0  0  0  0  0  0  0  0
  133.7700  123.6270   59.1630 C   0  0  0  0  0  0  0  0  0  0  0  0
  132.0640  123.8400   59.4180 S   0  0  0  0  0  0  0  0  0  0  0  0
  128.5260  122.4360   58.8030 N   0  0  0  0  0  0  0  0  0  0  0  0
  129.2947  122.0405   62.0370 H   0  0  0  0  0  0  0  0  0  0  0  0
  129.6319  120.8583   60.7273 H   0  0  0  0  0  0  0  0  0  0  0  0
  130.4515  122.4567   60.7273 H   0  0  0  0  0  0  0  0  0  0  0  0
  127.1801  123.1122   61.8493 H   0  0  0  0  0  0  0  0  0  0  0  0
  125.1701  124.1879   61.7271 H   0  0  0  0  0  0  0  0  0  0  0  0
  124.9709  125.3091   60.3379 H   0  0  0  0  0  0  0  0  0  0  0  0
  124.1315  123.7210   60.3379 H   0  0  0  0  0  0  0  0  0  0  0  0
  128.5155  124.4063   54.6329 H   0  0  0  0  0  0  0  0  0  0  0  0
  128.2494  125.1306   56.2763 H   0  0  0  0  0  0  0  0  0  0  0  0
  129.8220  123.5740   57.8500 H   0  0  0  0  0  0  0  0  0  0  0  0
  135.0269  123.3615   57.3988 H   0  0  0  0  0  0  0  0  0  0  0  0
  134.5348  123.5940   59.9529 H   0  0  0  0  0  0  0  0  0  0  0  0
  1  2  1  0
  2  3  2  0
  3  4  1  0
  4  5  1  0
  4  6  2  0
  6  7  1  0
  7  8  3  0
  6  9  1  0
  9 10  1  0
 10 11  1  0
 11 12  1  0
 12 13  2  0
 12 14  1  0
 14 15  1  0
 15 16  2  0
 16 17  1  0
 17 18  2  0
 18 19  1  0
  9 20  2  0
 20  2  1  0
 19 15  1  0
  1 21  1  0
  1 22  1  0
  1 23  1  0
  3 24  1  0
  5 25  1  0
  5 26  1  0
  5 27  1  0
 11 28  1  0
 11 29  1  0
 14 30  1  0
 17 31  1  0
 18 32  1  0
M  END
>  <Binding energies>  (1) 
[-6.29]

>  <Ligand effiencies>  (1) 
[-0.2995238095238095]

>  <Interactions>  (1) 
["H-B:TYR:531:OH:9763, V-B:ALA:541:CB:9860, V-B:TYR:539:CE2:9844, V-B:MET:535:CE:9803, V-B:PRO:540:CA:9851, V-B:PRO:540:N:9852, V-B:PRO:540:CB:9853, V-B:PRO:540:C:9849, V-B:TYR:539:C:9835, V-B:TYR:539:CZ:9845, V-A:ASP:366:CG:3208, V-A:ASP:366:CB:3207, H-A:TYR:531:OH:4790, V-A:ILE:369:CG2:3232, V-A:ILE:369:CD1:3234, H-A:LYS:534:NZ:4818, V-A:ASP:366:C:3203, V-B:ASP:366:CG:8180, V-A:ILE:369:CB:3231, H-B:TYR:539:OH:9846, V-A:ASP:366:CA:3205"]

$$$$
1k_Grossjean_2025
     RDKit          3D

 50 50  0  0  0  0  0  0  0  0999 V2000
  133.3370  124.9410   63.1770 C   0  0  0  0  0  0  0  0  0  0  0  0
  134.3650  124.6290   64.1030 O   0  0  0  0  0  0  0  0  0  0  0  0
  134.0610  125.0120   65.4370 C   0  0  0  0  0  0  0  0  0  0  0  0
  132.8030  125.8920   65.4440 C   0  0  0  0  0  0  0  0  0  0  0  0
  131.8680  125.3730   66.3810 O   0  0  0  0  0  0  0  0  0  0  0  0
  130.5430  125.2810   65.8750 C   0  0  0  0  0  0  0  0  0  0  0  0
  130.0110  123.8600   66.0960 C   0  0  0  0  0  0  0  0  0  0  0  0
  130.2690  123.0710   64.9410 O   0  0  0  0  0  0  0  0  0  0  0  0
  129.9520  123.7260   63.7200 C   0  0  0  0  0  0  0  0  0  0  0  0
  129.6680  122.6760   62.6300 C   0  0  0  0  0  0  0  0  0  0  0  0
  129.2760  123.2480   61.3410 N   0  0  0  0  0  0  0  0  0  0  0  0
  128.0260  123.2590   60.8450 C   0  0  0  0  0  0  0  0  0  0  0  0
  127.0610  122.7820   61.4450 O   0  0  0  0  0  0  0  0  0  0  0  0
  127.8670  123.9070   59.4610 C   0  0  0  0  0  0  0  0  0  0  0  0
  128.6460  123.0080   58.0740 S   0  0  0  0  0  0  0  0  0  0  0  0
  130.4230  123.1200   58.2260 C   0  0  0  0  0  0  0  0  0  0  0  0
  130.9600  122.5530   59.3370 N   0  0  0  0  0  0  0  0  0  0  0  0
  132.2990  122.6110   59.5190 C   0  0  0  0  0  0  0  0  0  0  0  0
  132.8210  121.9630   60.7870 C   0  0  0  0  0  0  0  0  0  0  0  0
  133.1560  123.2220   58.6060 C   0  0  0  0  0  0  0  0  0  0  0  0
  132.6160  123.8040   57.4530 C   0  0  0  0  0  0  0  0  0  0  0  0
  133.5720  124.4690   56.4660 C   0  0  0  0  0  0  0  0  0  0  0  0
  131.2190  123.7580   57.2470 C   0  0  0  0  0  0  0  0  0  0  0  0
  130.6260  124.3620   56.0500 C   0  0  0  0  0  0  0  0  0  0  0  0
  130.1590  124.8400   55.1050 N   0  0  0  0  0  0  0  0  0  0  0  0
  132.4233  125.2183   63.7232 H   0  0  0  0  0  0  0  0  0  0  0  0
  133.6560  125.7828   62.5448 H   0  0  0  0  0  0  0  0  0  0  0  0
  133.1344  124.0639   62.5448 H   0  0  0  0  0  0  0  0  0  0  0  0
  133.8825  124.1127   66.0448 H   0  0  0  0  0  0  0  0  0  0  0  0
  134.9058  125.5775   65.8571 H   0  0  0  0  0  0  0  0  0  0  0  0
  133.0754  126.9192   65.7281 H   0  0  0  0  0  0  0  0  0  0  0  0
  132.3528  125.8969   64.4404 H   0  0  0  0  0  0  0  0  0  0  0  0
  129.8983  126.0002   66.4014 H   0  0  0  0  0  0  0  0  0  0  0  0
  130.5438  125.5098   64.7991 H   0  0  0  0  0  0  0  0  0  0  0  0
  130.5135  123.4117   66.9658 H   0  0  0  0  0  0  0  0  0  0  0  0
  128.9269  123.8991   66.2781 H   0  0  0  0  0  0  0  0  0  0  0  0
  129.0615  124.3558   63.8627 H   0  0  0  0  0  0  0  0  0  0  0  0
  130.8007  124.3537   63.4107 H   0  0  0  0  0  0  0  0  0  0  0  0
  130.5787  122.0775   62.4804 H   0  0  0  0  0  0  0  0  0  0  0  0
  128.8183  122.0728   62.9824 H   0  0  0  0  0  0  0  0  0  0  0  0
  130.0170  123.6560   60.7900 H   0  0  0  0  0  0  0  0  0  0  0  0
  126.7910  123.9908   59.2482 H   0  0  0  0  0  0  0  0  0  0  0  0
  128.3854  124.8754   59.5208 H   0  0  0  0  0  0  0  0  0  0  0  0
  132.4033  122.4816   61.6625 H   0  0  0  0  0  0  0  0  0  0  0  0
  132.5197  120.9053   60.8091 H   0  0  0  0  0  0  0  0  0  0  0  0
  133.9186  122.0322   60.8091 H   0  0  0  0  0  0  0  0  0  0  0  0
  134.2405  123.2467   58.7884 H   0  0  0  0  0  0  0  0  0  0  0  0
  134.3521  125.0116   57.0201 H   0  0  0  0  0  0  0  0  0  0  0  0
  134.0393  123.7000   55.8333 H   0  0  0  0  0  0  0  0  0  0  0  0
  133.0135  125.1746   55.8333 H   0  0  0  0  0  0  0  0  0  0  0  0
  1  2  1  0
  2  3  1  0
  3  4  1  0
  4  5  1  0
  5  6  1  0
  6  7  1  0
  7  8  1  0
  8  9  1  0
  9 10  1  0
 10 11  1  0
 11 12  1  0
 12 13  2  0
 12 14  1  0
 14 15  1  0
 15 16  1  0
 16 17  2  0
 17 18  1  0
 18 19  1  0
 18 20  2  0
 20 21  1  0
 21 22  1  0
 21 23  2  0
 23 24  1  0
 24 25  3  0
 23 16  1  0
  1 26  1  0
  1 27  1  0
  1 28  1  0
  3 29  1  0
  3 30  1  0
  4 31  1  0
  4 32  1  0
  6 33  1  0
  6 34  1  0
  7 35  1  0
  7 36  1  0
  9 37  1  0
  9 38  1  0
 10 39  1  0
 10 40  1  0
 11 41  1  0
 14 42  1  0
 14 43  1  0
 19 44  1  0
 19 45  1  0
 19 46  1  0
 20 47  1  0
 22 48  1  0
 22 49  1  0
 22 50  1  0
M  END
>  <Binding energies>  (1) 
[-6.47]

>  <Ligand effiencies>  (1) 
[-0.24884615384615383]

>  <Interactions>  (1) 
["V-B:ALA:541:CB:9860, V-B:TYR:539:CE2:9844, V-B:TYR:539:CD2:9842, V-B:TYR:539:CZ:9845, V-A:ASP:366:CG:3208, H-A:TYR:484:OH:4343, H-A:GLY:454:N:4045, V-B:GLU:543:CD:9876, V-B:GLU:543:CG:9875, V-A:ARG:545:CZ:4921, H-A:HIS:456:NE2:4065, V-B:GLU:543:CB:9874, H-B:ALA:541:N:9859, V-A:ASP:366:CB:3207, V-A:ARG:545:CD:4918, V-A:TYR:484:CZ:4342, V-A:GLY:453:CA:4039, V-A:ILE:369:CD1:3234, H-A:LYS:534:NZ:4818, V-A:TYR:531:CE1:4787, V-A:TYR:531:CZ:4789, V-A:ASN:370:CB:3240, V-A:ASP:366:C:3203, V-A:TYR:484:CE1:4340, H-B:TYR:539:OH:9846, V-A:ASP:366:CA:3205, H-A:ARG:545:NH1:4922"]

$$$$
1l_Grossjean_2025
     RDKit          3D

 30 30  0  0  0  0  0  0  0  0999 V2000
  129.8990  119.6980   60.8930 C   0  0  0  0  0  0  0  0  0  0  0  0
  128.7560  120.5090   61.1240 O   0  0  0  0  0  0  0  0  0  0  0  0
  128.7880  121.6240   60.2870 N   0  0  0  0  0  0  0  0  0  0  0  0
  127.9610  122.6560   60.5410 C   0  0  0  0  0  0  0  0  0  0  0  0
  127.3320  122.7850   61.5960 O   0  0  0  0  0  0  0  0  0  0  0  0
  127.8540  123.6980   59.4190 C   0  0  0  0  0  0  0  0  0  0  0  0
  128.6050  123.2020   57.8310 S   0  0  0  0  0  0  0  0  0  0  0  0
  130.3790  123.2570   58.0140 C   0  0  0  0  0  0  0  0  0  0  0  0
  130.8750  122.6690   59.1340 N   0  0  0  0  0  0  0  0  0  0  0  0
  132.2140  122.6750   59.3370 C   0  0  0  0  0  0  0  0  0  0  0  0
  132.6910  122.0000   60.6090 C   0  0  0  0  0  0  0  0  0  0  0  0
  133.1070  123.2600   58.4420 C   0  0  0  0  0  0  0  0  0  0  0  0
  132.6090  123.8670   57.2850 C   0  0  0  0  0  0  0  0  0  0  0  0
  133.6070  124.5010   56.3170 C   0  0  0  0  0  0  0  0  0  0  0  0
  131.2150  123.8720   57.0540 C   0  0  0  0  0  0  0  0  0  0  0  0
  130.6650  124.5010   55.8490 C   0  0  0  0  0  0  0  0  0  0  0  0
  130.2330  124.9980   54.8980 N   0  0  0  0  0  0  0  0  0  0  0  0
  130.3316  119.3910   61.8567 H   0  0  0  0  0  0  0  0  0  0  0  0
  129.6056  118.8050   60.3217 H   0  0  0  0  0  0  0  0  0  0  0  0
  130.6450  120.2699   60.3217 H   0  0  0  0  0  0  0  0  0  0  0  0
  129.1420  121.4010   59.3670 H   0  0  0  0  0  0  0  0  0  0  0  0
  126.7874  123.9017   59.2431 H   0  0  0  0  0  0  0  0  0  0  0  0
  128.4161  124.5788   59.7630 H   0  0  0  0  0  0  0  0  0  0  0  0
  132.3044  122.5470   61.4815 H   0  0  0  0  0  0  0  0  0  0  0  0
  132.3237  120.9634   60.6339 H   0  0  0  0  0  0  0  0  0  0  0  0
  133.7907  122.0001   60.6339 H   0  0  0  0  0  0  0  0  0  0  0  0
  134.1884  123.2446   58.6426 H   0  0  0  0  0  0  0  0  0  0  0  0
  134.4010  125.0054   56.8872 H   0  0  0  0  0  0  0  0  0  0  0  0
  134.0508  123.7189   55.6835 H   0  0  0  0  0  0  0  0  0  0  0  0
  133.0876  125.2351   55.6835 H   0  0  0  0  0  0  0  0  0  0  0  0
  1  2  1  0
  2  3  1  0
  3  4  1  0
  4  5  2  0
  4  6  1  0
  6  7  1  0
  7  8  1  0
  8  9  2  0
  9 10  1  0
 10 11  1  0
 10 12  2  0
 12 13  1  0
 13 14  1  0
 13 15  2  0
 15 16  1  0
 16 17  3  0
 15  8  1  0
  1 18  1  0
  1 19  1  0
  1 20  1  0
  3 21  1  0
  6 22  1  0
  6 23  1  0
 11 24  1  0
 11 25  1  0
 11 26  1  0
 12 27  1  0
 14 28  1  0
 14 29  1  0
 14 30  1  0
M  END
>  <Binding energies>  (1) 
[-5.6]

>  <Ligand effiencies>  (1) 
[-0.3111111111111111]

>  <Interactions>  (1) 
["V-B:ALA:541:CB:9860, V-B:TYR:539:CE2:9844, H-B:TYR:539:O:9836, V-B:PRO:540:CA:9851, V-B:TYR:539:CD2:9842, V-B:PRO:540:C:9849, V-B:TYR:539:C:9835, V-B:TYR:539:CZ:9845, H-B:ALA:541:N:9859, V-A:ASP:366:CB:3207, V-A:ILE:369:CD1:3234, H-A:LYS:534:NZ:4818, V-A:TYR:531:CE1:4787, V-A:TYR:531:CZ:4789, V-A:ASN:370:CB:3240, V-A:ASP:366:C:3203, H-B:TYR:539:OH:9846, V-A:ASP:366:CA:3205, V-A:TYR:531:CD1:4785"]

$$$$
1m_Grossjean_2025
     RDKit          3D

 35 35  0  0  0  0  0  0  0  0999 V2000
  129.7000  123.0940   63.9660 C   0  0  0  0  0  0  0  0  0  0  0  0
  130.6150  123.3430   65.0230 O   0  0  0  0  0  0  0  0  0  0  0  0
  131.0880  124.5870   65.2410 C   0  0  0  0  0  0  0  0  0  0  0  0
  131.3890  125.0580   66.3430 O   0  0  0  0  0  0  0  0  0  0  0  0
  131.2270  125.3790   63.9240 C   0  0  0  0  0  0  0  0  0  0  0  0
  132.0750  124.6960   62.9360 N   0  0  0  0  0  0  0  0  0  0  0  0
  133.3660  124.3540   63.1100 C   0  0  0  0  0  0  0  0  0  0  0  0
  133.9930  124.6020   64.1420 O   0  0  0  0  0  0  0  0  0  0  0  0
  134.0260  123.6350   61.9260 C   0  0  0  0  0  0  0  0  0  0  0  0
  133.0660  123.6850   60.3730 S   0  0  0  0  0  0  0  0  0  0  0  0
  131.6410  122.6370   60.5730 C   0  0  0  0  0  0  0  0  0  0  0  0
  130.4700  123.3210   60.6320 N   0  0  0  0  0  0  0  0  0  0  0  0
  129.3170  122.6260   60.7770 C   0  0  0  0  0  0  0  0  0  0  0  0
  128.0480  123.4560   60.8150 C   0  0  0  0  0  0  0  0  0  0  0  0
  129.2840  121.2370   60.8800 C   0  0  0  0  0  0  0  0  0  0  0  0
  130.4880  120.5240   60.8470 C   0  0  0  0  0  0  0  0  0  0  0  0
  130.4280  119.0040   60.9780 C   0  0  0  0  0  0  0  0  0  0  0  0
  131.7040  121.2280   60.6970 C   0  0  0  0  0  0  0  0  0  0  0  0
  132.9790  120.5060   60.7100 C   0  0  0  0  0  0  0  0  0  0  0  0
  133.9850  119.9360   60.7200 N   0  0  0  0  0  0  0  0  0  0  0  0
  128.7189  122.8270   64.3856 H   0  0  0  0  0  0  0  0  0  0  0  0
  129.6003  123.9977   63.3468 H   0  0  0  0  0  0  0  0  0  0  0  0
  130.0720  122.2644   63.3468 H   0  0  0  0  0  0  0  0  0  0  0  0
  130.2257  125.5193   63.4908 H   0  0  0  0  0  0  0  0  0  0  0  0
  131.7057  126.3399   64.1640 H   0  0  0  0  0  0  0  0  0  0  0  0
  131.6390  124.4820   62.0500 H   0  0  0  0  0  0  0  0  0  0  0  0
  135.0028  124.1055   61.7405 H   0  0  0  0  0  0  0  0  0  0  0  0
  134.1037  122.5751   62.2098 H   0  0  0  0  0  0  0  0  0  0  0  0
  127.7630  123.6424   61.8610 H   0  0  0  0  0  0  0  0  0  0  0  0
  128.2220  124.4154   60.3058 H   0  0  0  0  0  0  0  0  0  0  0  0
  127.2387  122.9121   60.3058 H   0  0  0  0  0  0  0  0  0  0  0  0
  128.3253  120.7081   60.9858 H   0  0  0  0  0  0  0  0  0  0  0  0
  130.4171  118.7279   62.0427 H   0  0  0  0  0  0  0  0  0  0  0  0
  129.5144  118.6299   60.4928 H   0  0  0  0  0  0  0  0  0  0  0  0
  131.3093  118.5591   60.4928 H   0  0  0  0  0  0  0  0  0  0  0  0
  1  2  1  0
  2  3  1  0
  3  4  2  0
  3  5  1  0
  5  6  1  0
  6  7  1  0
  7  8  2  0
  7  9  1  0
  9 10  1  0
 10 11  1  0
 11 12  2  0
 12 13  1  0
 13 14  1  0
 13 15  2  0
 15 16  1  0
 16 17  1  0
 16 18  2  0
 18 19  1  0
 19 20  3  0
 18 11  1  0
  1 21  1  0
  1 22  1  0
  1 23  1  0
  5 24  1  0
  5 25  1  0
  6 26  1  0
  9 27  1  0
  9 28  1  0
 14 29  1  0
 14 30  1  0
 14 31  1  0
 15 32  1  0
 17 33  1  0
 17 34  1  0
 17 35  1  0
M  END
>  <Binding energies>  (1) 
[-5.68]

>  <Ligand effiencies>  (1) 
[-0.2704761904761905]

>  <Interactions>  (1) 
["V-B:ALA:541:CB:9860, V-A:TRP:381:CH2:3367, V-B:TYR:539:CD2:9842, V-B:PRO:540:C:9849, V-A:ASP:366:CG:3208, H-A:TYR:484:OH:4343, H-A:GLY:454:N:4045, V-B:GLU:543:CD:9876, V-B:GLU:543:CG:9875, H-A:HIS:456:NE2:4065, V-A:TYR:484:CZ:4342, V-A:ILE:369:CG2:3232, V-A:ILE:369:CD1:3234, V-A:LEU:475:CD2:4254, V-A:TRP:381:CZ2:3365"]

$$$$
1n_Grossjean_2025
     RDKit          3D

 48 49  0  0  0  0  0  0  0  0999 V2000
  130.3430  128.7230   71.1710 C   0  0  0  0  0  0  0  0  0  0  0  0
  129.4500  128.0890   72.2420 C   0  0  0  0  0  0  0  0  0  0  0  0
  128.7140  127.0150   71.6690 O   0  0  0  0  0  0  0  0  0  0  0  0
  127.8230  127.2310   70.6680 C   0  0  0  0  0  0  0  0  0  0  0  0
  126.6900  127.6840   70.8520 O   0  0  0  0  0  0  0  0  0  0  0  0
  128.3590  126.8760   69.3100 C   0  0  0  0  0  0  0  0  0  0  0  0
  129.4100  125.9610   69.1430 C   0  0  0  0  0  0  0  0  0  0  0  0
  129.8850  125.6560   67.8710 C   0  0  0  0  0  0  0  0  0  0  0  0
  129.3300  126.2630   66.7430 C   0  0  0  0  0  0  0  0  0  0  0  0
  129.8900  125.8860   65.5070 N   0  0  0  0  0  0  0  0  0  0  0  0
  131.1440  125.4790   65.2160 C   0  0  0  0  0  0  0  0  0  0  0  0
  132.0610  125.3530   66.0280 O   0  0  0  0  0  0  0  0  0  0  0  0
  131.4090  125.1510   63.7400 C   0  0  0  0  0  0  0  0  0  0  0  0
  132.8550  125.4630   63.3010 C   0  0  0  0  0  0  0  0  0  0  0  0
  133.8780  123.9960   62.9750 S   0  0  0  0  0  0  0  0  0  0  0  0
  133.0490  123.0250   61.7350 C   0  0  0  0  0  0  0  0  0  0  0  0
  133.5410  123.2090   60.4840 N   0  0  0  0  0  0  0  0  0  0  0  0
  132.9970  122.5090   59.4610 C   0  0  0  0  0  0  0  0  0  0  0  0
  133.6040  122.7580   58.0940 C   0  0  0  0  0  0  0  0  0  0  0  0
  131.9470  121.6100   59.6400 C   0  0  0  0  0  0  0  0  0  0  0  0
  131.4200  121.4290   60.9230 C   0  0  0  0  0  0  0  0  0  0  0  0
  130.2600  120.4490   61.0930 C   0  0  0  0  0  0  0  0  0  0  0  0
  131.9690  122.1530   62.0050 C   0  0  0  0  0  0  0  0  0  0  0  0
  131.3980  122.0180   63.3470 C   0  0  0  0  0  0  0  0  0  0  0  0
  130.9450  121.9100   64.4060 N   0  0  0  0  0  0  0  0  0  0  0  0
  128.2730  127.1710   66.9020 C   0  0  0  0  0  0  0  0  0  0  0  0
  127.7960  127.4720   68.1750 C   0  0  0  0  0  0  0  0  0  0  0  0
  131.1480  129.2945   71.6561 H   0  0  0  0  0  0  0  0  0  0  0  0
  130.7811  127.9325   70.5439 H   0  0  0  0  0  0  0  0  0  0  0  0
  129.7412  129.3972   70.5439 H   0  0  0  0  0  0  0  0  0  0  0  0
  130.0754  127.7084   73.0629 H   0  0  0  0  0  0  0  0  0  0  0  0
  128.7527  128.8446   72.6331 H   0  0  0  0  0  0  0  0  0  0  0  0
  129.8616  125.4814   70.0240 H   0  0  0  0  0  0  0  0  0  0  0  0
  130.7040  124.9311   67.7535 H   0  0  0  0  0  0  0  0  0  0  0  0
  129.2350  125.8900   64.7400 H   0  0  0  0  0  0  0  0  0  0  0  0
  131.2178  124.0797   63.5796 H   0  0  0  0  0  0  0  0  0  0  0  0
  130.7397  125.7833   63.1381 H   0  0  0  0  0  0  0  0  0  0  0  0
  132.8124  126.0635   62.3803 H   0  0  0  0  0  0  0  0  0  0  0  0
  133.3286  125.9941   64.1399 H   0  0  0  0  0  0  0  0  0  0  0  0
  134.6158  123.1731   58.2122 H   0  0  0  0  0  0  0  0  0  0  0  0
  133.6591  121.8098   57.5391 H   0  0  0  0  0  0  0  0  0  0  0  0
  132.9774  123.4717   57.5391 H   0  0  0  0  0  0  0  0  0  0  0  0
  131.5388  121.0511   58.7850 H   0  0  0  0  0  0  0  0  0  0  0  0
  130.0698  120.2883   62.1644 H   0  0  0  0  0  0  0  0  0  0  0  0
  129.3580  120.8627   60.6185 H   0  0  0  0  0  0  0  0  0  0  0  0
  130.5172  119.4905   60.6185 H   0  0  0  0  0  0  0  0  0  0  0  0
  127.8200  127.6462   66.0194 H   0  0  0  0  0  0  0  0  0  0  0  0
  126.9674  128.1862   68.2903 H   0  0  0  0  0  0  0  0  0  0  0  0
  1  2  1  0
  2  3  1  0
  3  4  1  0
  4  5  2  0
  4  6  1  0
  6  7  2  0
  7  8  1  0
  8  9  2  0
  9 10  1  0
 10 11  1  0
 11 12  2  0
 11 13  1  0
 13 14  1  0
 14 15  1  0
 15 16  1  0
 16 17  2  0
 17 18  1  0
 18 19  1  0
 18 20  2  0
 20 21  1  0
 21 22  1  0
 21 23  2  0
 23 24  1  0
 24 25  3  0
  9 26  1  0
 26 27  2  0
 27  6  1  0
 23 16  1  0
  1 28  1  0
  1 29  1  0
  1 30  1  0
  2 31  1  0
  2 32  1  0
  7 33  1  0
  8 34  1  0
 10 35  1  0
 13 36  1  0
 13 37  1  0
 14 38  1  0
 14 39  1  0
 19 40  1  0
 19 41  1  0
 19 42  1  0
 20 43  1  0
 22 44  1  0
 22 45  1  0
 22 46  1  0
 26 47  1  0
 27 48  1  0
M  END
>  <Binding energies>  (1) 
[-7.59]

>  <Ligand effiencies>  (1) 
[-0.2710714285714286]

>  <Interactions>  (1) 
["V-B:ALA:541:CB:9860, V-B:TYR:539:CE2:9844, V-B:TYR:539:CD2:9842, V-B:TYR:539:CZ:9845, V-B:GLU:543:C:9870, V-A:HIS:456:CE1:4064, H-A:TYR:484:OH:4343, H-A:GLY:454:N:4045, V-B:GLU:543:CD:9876, V-B:GLU:543:CG:9875, V-A:ARG:545:CZ:4921, H-A:HIS:456:NE2:4065, V-B:GLU:543:CB:9874, H-B:GLU:543:OE2:9878, V-B:HIS:456:CE1:9037, V-A:ILE:369:CG2:3232, V-A:ILE:369:CD1:3234, V-A:LEU:475:CD2:4254, H-B:LYS:547:NZ:9919, V-A:ILE:369:CB:3231, V-A:GLY:544:C:4907, H-B:HIS:456:ND1:9034"]

$$$$
1o_Grossjean_2025
     RDKit          3D

 45 46  0  0  0  0  0  0  0  0999 V2000
  124.7590  123.8950   59.4960 C   0  0  0  0  0  0  0  0  0  0  0  0
  124.3100  123.4650   58.2190 O   0  0  0  0  0  0  0  0  0  0  0  0
  124.8920  123.9270   57.0820 C   0  0  0  0  0  0  0  0  0  0  0  0
  124.2550  124.2570   56.0770 O   0  0  0  0  0  0  0  0  0  0  0  0
  126.3900  123.9990   57.1680 C   0  0  0  0  0  0  0  0  0  0  0  0
  127.1960  122.8560   57.0680 C   0  0  0  0  0  0  0  0  0  0  0  0
  128.5820  122.9590   57.1500 C   0  0  0  0  0  0  0  0  0  0  0  0
  129.1900  124.2000   57.3390 C   0  0  0  0  0  0  0  0  0  0  0  0
  130.5970  124.1900   57.3980 N   0  0  0  0  0  0  0  0  0  0  0  0
  131.5070  124.3680   56.4140 C   0  0  0  0  0  0  0  0  0  0  0  0
  131.2410  124.6270   55.2410 O   0  0  0  0  0  0  0  0  0  0  0  0
  132.9770  124.2590   56.8460 C   0  0  0  0  0  0  0  0  0  0  0  0
  133.2570  123.0510   57.7620 C   0  0  0  0  0  0  0  0  0  0  0  0
  132.9500  123.3750   59.5240 S   0  0  0  0  0  0  0  0  0  0  0  0
  131.5280  122.4300   60.0320 C   0  0  0  0  0  0  0  0  0  0  0  0
  130.3900  123.1650   60.1070 N   0  0  0  0  0  0  0  0  0  0  0  0
  129.2410  122.5510   60.4750 C   0  0  0  0  0  0  0  0  0  0  0  0
  128.0080  123.4330   60.5220 C   0  0  0  0  0  0  0  0  0  0  0  0
  129.1820  121.1960   60.7940 C   0  0  0  0  0  0  0  0  0  0  0  0
  130.3540  120.4340   60.7450 C   0  0  0  0  0  0  0  0  0  0  0  0
  130.2660  118.9540   61.1120 C   0  0  0  0  0  0  0  0  0  0  0  0
  131.5670  121.0550   60.3670 C   0  0  0  0  0  0  0  0  0  0  0  0
  132.8140  120.2870   60.3670 C   0  0  0  0  0  0  0  0  0  0  0  0
  133.7980  119.6780   60.3670 N   0  0  0  0  0  0  0  0  0  0  0  0
  128.3900  125.3490   57.4350 C   0  0  0  0  0  0  0  0  0  0  0  0
  127.0050  125.2450   57.3510 C   0  0  0  0  0  0  0  0  0  0  0  0
  124.2015  123.3611   60.2796 H   0  0  0  0  0  0  0  0  0  0  0  0
  125.8328  123.6798   59.5987 H   0  0  0  0  0  0  0  0  0  0  0  0
  124.5904  124.9771   59.5987 H   0  0  0  0  0  0  0  0  0  0  0  0
  126.7296  121.8703   56.9236 H   0  0  0  0  0  0  0  0  0  0  0  0
  129.2024  122.0546   57.0651 H   0  0  0  0  0  0  0  0  0  0  0  0
  130.9700  124.0500   58.3260 H   0  0  0  0  0  0  0  0  0  0  0  0
  133.5996  124.1646   55.9441 H   0  0  0  0  0  0  0  0  0  0  0  0
  133.2148  125.1656   57.4217 H   0  0  0  0  0  0  0  0  0  0  0  0
  132.6107  122.2191   57.4452 H   0  0  0  0  0  0  0  0  0  0  0  0
  134.3271  122.8165   57.6625 H   0  0  0  0  0  0  0  0  0  0  0  0
  127.7361  123.6275   61.5700 H   0  0  0  0  0  0  0  0  0  0  0  0
  128.2194  124.3861   60.0151 H   0  0  0  0  0  0  0  0  0  0  0  0
  127.1743  122.9251   60.0151 H   0  0  0  0  0  0  0  0  0  0  0  0
  128.2268  120.7318   61.0805 H   0  0  0  0  0  0  0  0  0  0  0  0
  130.2597  118.8475   62.2068 H   0  0  0  0  0  0  0  0  0  0  0  0
  129.3409  118.5276   60.6968 H   0  0  0  0  0  0  0  0  0  0  0  0
  131.1340  118.4210   60.6968 H   0  0  0  0  0  0  0  0  0  0  0  0
  128.8588  126.3339   57.5770 H   0  0  0  0  0  0  0  0  0  0  0  0
  126.3859  126.1509   57.4291 H   0  0  0  0  0  0  0  0  0  0  0  0
  1  2  1  0
  2  3  1  0
  3  4  2  0
  3  5  1  0
  5  6  2  0
  6  7  1  0
  7  8  2  0
  8  9  1  0
  9 10  1  0
 10 11  2  0
 10 12  1  0
 12 13  1  0
 13 14  1  0
 14 15  1  0
 15 16  2  0
 16 17  1  0
 17 18  1  0
 17 19  2  0
 19 20  1  0
 20 21  1  0
 20 22  2  0
 22 23  1  0
 23 24  3  0
  8 25  1  0
 25 26  2  0
 26  5  1  0
 22 15  1  0
  1 27  1  0
  1 28  1  0
  1 29  1  0
  6 30  1  0
  7 31  1  0
  9 32  1  0
 12 33  1  0
 12 34  1  0
 13 35  1  0
 13 36  1  0
 18 37  1  0
 18 38  1  0
 18 39  1  0
 19 40  1  0
 21 41  1  0
 21 42  1  0
 21 43  1  0
 25 44  1  0
 26 45  1  0
M  END
>  <Binding energies>  (1) 
[-7.23]

>  <Ligand effiencies>  (1) 
[-0.2677777777777778]

>  <Interactions>  (1) 
["H-B:TYR:531:OH:9763, V-B:ALA:541:CB:9860, V-B:TYR:539:CE2:9844, V-B:MET:535:CE:9803, V-B:PRO:540:CA:9851, V-A:TRP:381:CH2:3367, V-B:TYR:539:CD2:9842, V-B:PRO:540:N:9852, V-B:PRO:540:CB:9853, V-B:PRO:540:C:9849, V-B:TYR:539:C:9835, V-B:TYR:539:CZ:9845, V-A:ASP:366:CB:3207, H-A:TYR:531:OH:4790, V-A:ILE:369:CG2:3232, V-A:LEU:475:CD2:4254, H-A:LYS:534:NZ:4818, V-B:LEU:363:CD1:8156, V-A:TYR:531:CE1:4787, V-A:TYR:531:CZ:4789, V-A:TRP:381:CZ2:3365, V-A:PRO:482:CB:4321, V-A:ILE:369:CB:3231, H-B:TYR:539:OH:9846"]

$$$$
1p_Grossjean_2025
     RDKit          3D

 35 36  0  0  0  0  0  0  0  0999 V2000
  124.6150  123.7660   61.9320 C   0  0  0  0  0  0  0  0  0  0  0  0
  125.4920  123.5410   60.7160 C   0  0  0  0  0  0  0  0  0  0  0  0
  125.0770  123.9170   59.4390 C   0  0  0  0  0  0  0  0  0  0  0  0
  125.9220  123.6740   58.3510 C   0  0  0  0  0  0  0  0  0  0  0  0
  125.4410  124.0800   56.9590 C   0  0  0  0  0  0  0  0  0  0  0  0
  127.1760  123.0610   58.5730 C   0  0  0  0  0  0  0  0  0  0  0  0
  128.0570  122.7520   57.4460 C   0  0  0  0  0  0  0  0  0  0  0  0
  128.7540  122.5080   56.5530 N   0  0  0  0  0  0  0  0  0  0  0  0
  127.5240  122.7340   59.9050 C   0  0  0  0  0  0  0  0  0  0  0  0
  129.0640  121.9710   60.3610 S   0  0  0  0  0  0  0  0  0  0  0  0
  130.1160  123.2800   61.0540 C   0  0  0  0  0  0  0  0  0  0  0  0
  129.6670  123.7680   62.4440 C   0  0  0  0  0  0  0  0  0  0  0  0
  130.7760  123.7050   63.5050 C   0  0  0  0  0  0  0  0  0  0  0  0
  130.8180  122.7510   64.2840 O   0  0  0  0  0  0  0  0  0  0  0  0
  131.6580  124.7300   63.4900 N   0  0  0  0  0  0  0  0  0  0  0  0
  132.7460  124.9140   64.3330 C   0  0  0  0  0  0  0  0  0  0  0  0
  132.6280  125.4040   65.6340 C   0  0  0  0  0  0  0  0  0  0  0  0
  133.9140  125.4350   66.1230 C   0  0  0  0  0  0  0  0  0  0  0  0
  134.7620  124.9910   65.1660 O   0  0  0  0  0  0  0  0  0  0  0  0
  134.0110  124.6640   64.0360 N   0  0  0  0  0  0  0  0  0  0  0  0
  126.6890  122.9560   60.9520 N   0  0  0  0  0  0  0  0  0  0  0  0
  125.2086  123.6137   62.8455 H   0  0  0  0  0  0  0  0  0  0  0  0
  124.2232  124.7937   61.9164 H   0  0  0  0  0  0  0  0  0  0  0  0
  123.7768  123.0538   61.9164 H   0  0  0  0  0  0  0  0  0  0  0  0
  124.0991  124.3979   59.2893 H   0  0  0  0  0  0  0  0  0  0  0  0
  124.6034  124.7870   57.0522 H   0  0  0  0  0  0  0  0  0  0  0  0
  126.2659  124.5590   56.4112 H   0  0  0  0  0  0  0  0  0  0  0  0
  125.1073  123.1864   56.4112 H   0  0  0  0  0  0  0  0  0  0  0  0
  131.1421  122.8925   61.1373 H   0  0  0  0  0  0  0  0  0  0  0  0
  130.0451  124.1416   60.3738 H   0  0  0  0  0  0  0  0  0  0  0  0
  129.3302  124.8113   62.3543 H   0  0  0  0  0  0  0  0  0  0  0  0
  128.8624  123.0962   62.7777 H   0  0  0  0  0  0  0  0  0  0  0  0
  131.5150  125.4530   62.8010 H   0  0  0  0  0  0  0  0  0  0  0  0
  131.7065  125.7012   66.1559 H   0  0  0  0  0  0  0  0  0  0  0  0
  134.2060  125.7673   67.1301 H   0  0  0  0  0  0  0  0  0  0  0  0
  1  2  1  0
  2  3  2  0
  3  4  1  0
  4  5  1  0
  4  6  2  0
  6  7  1  0
  7  8  3  0
  6  9  1  0
  9 10  1  0
 10 11  1  0
 11 12  1  0
 12 13  1  0
 13 14  2  0
 13 15  1  0
 15 16  1  0
 16 17  1  0
 17 18  2  0
 18 19  1  0
 19 20  1  0
  9 21  2  0
 21  2  1  0
 20 16  2  0
  1 22  1  0
  1 23  1  0
  1 24  1  0
  3 25  1  0
  5 26  1  0
  5 27  1  0
  5 28  1  0
 11 29  1  0
 11 30  1  0
 12 31  1  0
 12 32  1  0
 15 33  1  0
 17 34  1  0
 18 35  1  0
M  END
>  <Binding energies>  (1) 
[-7.68]

>  <Ligand effiencies>  (1) 
[-0.34909090909090906]

>  <Interactions>  (1) 
["V-B:MET:535:CE:9803, V-B:PRO:540:CA:9851, V-B:PRO:540:N:9852, V-B:PRO:540:CB:9853, V-B:PRO:540:C:9849, V-B:TYR:539:C:9835, H-A:ARG:545:NE:4919, H-A:TYR:484:OH:4343, H-A:GLY:454:N:4045, V-B:GLU:543:CD:9876, V-A:ARG:545:CZ:4921, V-B:ASN:362:CB:8143, H-B:ALA:541:N:9859, V-A:ARG:545:CD:4918, V-A:ARG:545:CG:4917, V-A:HIS:456:CD2:4063, H-A:ARG:545:NH1:4922"]

$$$$
1q_Grossjean_2025
     RDKit          3D

 38 38  0  0  0  0  0  0  0  0999 V2000
  128.6850  123.0470   56.1040 C   0  0  0  0  0  0  0  0  0  0  0  0
  127.7340  122.0080   56.2930 O   0  0  0  0  0  0  0  0  0  0  0  0
  126.4940  122.2880   56.7640 C   0  0  0  0  0  0  0  0  0  0  0  0
  125.4350  122.0240   56.1920 O   0  0  0  0  0  0  0  0  0  0  0  0
  126.4880  123.0260   58.1200 C   0  0  0  0  0  0  0  0  0  0  0  0
  127.6420  122.6860   58.9650 N   0  0  0  0  0  0  0  0  0  0  0  0
  127.6780  122.7380   60.3100 C   0  0  0  0  0  0  0  0  0  0  0  0
  126.7160  123.0850   60.9970 O   0  0  0  0  0  0  0  0  0  0  0  0
  129.0030  122.3180   60.9640 C   0  0  0  0  0  0  0  0  0  0  0  0
  129.1860  120.7930   61.1010 C   0  0  0  0  0  0  0  0  0  0  0  0
  130.8730  120.2270   60.7280 S   0  0  0  0  0  0  0  0  0  0  0  0
  131.9400  121.6500   60.6280 C   0  0  0  0  0  0  0  0  0  0  0  0
  132.4040  121.8890   59.3750 N   0  0  0  0  0  0  0  0  0  0  0  0
  133.2270  122.9440   59.1750 C   0  0  0  0  0  0  0  0  0  0  0  0
  133.7170  123.1360   57.7520 C   0  0  0  0  0  0  0  0  0  0  0  0
  133.6110  123.8040   60.2010 C   0  0  0  0  0  0  0  0  0  0  0  0
  133.1190  123.5820   61.4910 C   0  0  0  0  0  0  0  0  0  0  0  0
  133.5410  124.5500   62.5970 C   0  0  0  0  0  0  0  0  0  0  0  0
  132.2560  122.4890   61.7250 C   0  0  0  0  0  0  0  0  0  0  0  0
  131.6860  122.2750   63.0570 C   0  0  0  0  0  0  0  0  0  0  0  0
  131.2380  122.1100   64.1120 N   0  0  0  0  0  0  0  0  0  0  0  0
  129.0235  123.4168   57.0831 H   0  0  0  0  0  0  0  0  0  0  0  0
  129.5463  122.6578   55.5413 H   0  0  0  0  0  0  0  0  0  0  0  0
  128.2213  123.8706   55.5413 H   0  0  0  0  0  0  0  0  0  0  0  0
  126.5004  124.1093   57.9294 H   0  0  0  0  0  0  0  0  0  0  0  0
  125.5819  122.7140   58.6600 H   0  0  0  0  0  0  0  0  0  0  0  0
  128.4830  122.4150   58.4750 H   0  0  0  0  0  0  0  0  0  0  0  0
  129.8289  122.7108   60.3528 H   0  0  0  0  0  0  0  0  0  0  0  0
  128.9950  122.7279   61.9847 H   0  0  0  0  0  0  0  0  0  0  0  0
  128.9428  120.5048   62.1344 H   0  0  0  0  0  0  0  0  0  0  0  0
  128.5170  120.3202   60.3669 H   0  0  0  0  0  0  0  0  0  0  0  0
  134.7411  123.5373   57.7678 H   0  0  0  0  0  0  0  0  0  0  0  0
  133.7103  122.1687   57.2282 H   0  0  0  0  0  0  0  0  0  0  0  0
  133.0549  123.8412   57.2282 H   0  0  0  0  0  0  0  0  0  0  0  0
  134.2909  124.6450   59.9997 H   0  0  0  0  0  0  0  0  0  0  0  0
  133.3424  124.0945   63.5784 H   0  0  0  0  0  0  0  0  0  0  0  0
  134.6154  124.7670   62.5041 H   0  0  0  0  0  0  0  0  0  0  0  0
  132.9688  125.4848   62.5041 H   0  0  0  0  0  0  0  0  0  0  0  0
  1  2  1  0
  2  3  1  0
  3  4  2  0
  3  5  1  0
  5  6  1  0
  6  7  1  0
  7  8  2  0
  7  9  1  0
  9 10  1  0
 10 11  1  0
 11 12  1  0
 12 13  2  0
 13 14  1  0
 14 15  1  0
 14 16  2  0
 16 17  1  0
 17 18  1  0
 17 19  2  0
 19 20  1  0
 20 21  3  0
 19 12  1  0
  1 22  1  0
  1 23  1  0
  1 24  1  0
  5 25  1  0
  5 26  1  0
  6 27  1  0
  9 28  1  0
  9 29  1  0
 10 30  1  0
 10 31  1  0
 15 32  1  0
 15 33  1  0
 15 34  1  0
 16 35  1  0
 18 36  1  0
 18 37  1  0
 18 38  1  0
M  END
>  <Binding energies>  (1) 
[-6.44]

>  <Ligand effiencies>  (1) 
[-0.2927272727272727]

>  <Interactions>  (1) 
["V-B:ALA:541:CB:9860, V-B:TYR:539:CE2:9844, H-B:TYR:539:O:9836, V-B:MET:535:CE:9803, V-B:PRO:540:CD:9855, V-B:PRO:540:CA:9851, V-B:ALA:541:CA:9858, V-B:PRO:540:N:9852, V-B:PRO:540:CB:9853, V-B:PRO:540:C:9849, V-B:TYR:539:CE1:9843, V-B:TYR:539:C:9835, V-B:TYR:539:CZ:9845, V-A:ASP:366:CG:3208, H-A:TYR:484:OH:4343, H-B:ALA:541:N:9859, V-A:ASP:366:CB:3207, V-A:ILE:369:CG2:3232, V-A:ILE:369:CD1:3234, V-A:LEU:475:CD2:4254, H-B:TYR:539:N:9838, V-A:ILE:369:CB:3231, V-B:TYR:539:CD1:9841, V-B:TYR:539:CA:9837"]

$$$$
2a_Ghoteimi_2023
     RDKit          3D

 85 90  0  0  0  0  0  0  0  0999 V2000
  129.1070  132.1530   54.3350 C   0  0  0  0  0  0  0  0  0  0  0  0
  130.4730  132.8450   54.3620 C   0  0  0  0  0  0  0  0  0  0  0  0
  130.6910  133.4080   55.6490 O   0  0  0  0  0  0  0  0  0  0  0  0
  131.2380  132.6750   56.6520 C   0  0  0  0  0  0  0  0  0  0  0  0
  132.4510  132.6310   56.8790 O   0  0  0  0  0  0  0  0  0  0  0  0
  130.2190  131.9270   57.4640 C   0  0  0  0  0  0  0  0  0  0  0  0
  130.3070  130.5430   57.6740 C   0  0  0  0  0  0  0  0  0  0  0  0
  129.3470  129.8810   58.4330 C   0  0  0  0  0  0  0  0  0  0  0  0
  128.2830  130.5850   58.9990 C   0  0  0  0  0  0  0  0  0  0  0  0
  127.3680  129.8150   59.7430 N   0  0  0  0  0  0  0  0  0  0  0  0
  126.0540  129.5850   59.5270 C   0  0  0  0  0  0  0  0  0  0  0  0
  125.3890  130.0770   58.6150 O   0  0  0  0  0  0  0  0  0  0  0  0
  125.3770  128.6630   60.5490 C   0  0  0  0  0  0  0  0  0  0  0  0
  125.2940  129.3410   62.2380 S   0  0  0  0  0  0  0  0  0  0  0  0
  126.7140  128.6910   63.0870 C   0  0  0  0  0  0  0  0  0  0  0  0
  127.6090  128.0840   62.2730 N   0  0  0  0  0  0  0  0  0  0  0  0
  128.7320  127.5390   62.8050 C   0  0  0  0  0  0  0  0  0  0  0  0
  129.6690  126.8770   61.8470 C   0  0  0  0  0  0  0  0  0  0  0  0
  129.8170  127.3450   60.5360 C   0  0  0  0  0  0  0  0  0  0  0  0
  130.6830  126.7180   59.6450 C   0  0  0  0  0  0  0  0  0  0  0  0
  131.4400  125.6030   60.0330 C   0  0  0  0  0  0  0  0  0  0  0  0
  132.2840  124.9650   59.1180 N   0  0  0  0  0  0  0  0  0  0  0  0
  131.8780  124.7550   57.7130 C   0  0  0  0  0  0  0  0  0  0  0  0
  133.0450  124.3750   56.7780 C   0  0  0  0  0  0  0  0  0  0  0  0
  133.7260  123.2390   57.2860 O   0  0  0  0  0  0  0  0  0  0  0  0
  134.2670  123.4920   58.5720 C   0  0  0  0  0  0  0  0  0  0  0  0
  133.1390  123.8450   59.5640 C   0  0  0  0  0  0  0  0  0  0  0  0
  131.2790  125.1310   61.3460 C   0  0  0  0  0  0  0  0  0  0  0  0
  130.4150  125.7600   62.2370 C   0  0  0  0  0  0  0  0  0  0  0  0
  128.9870  127.6060   64.1770 C   0  0  0  0  0  0  0  0  0  0  0  0
  128.0750  128.2290   65.0400 C   0  0  0  0  0  0  0  0  0  0  0  0
  128.4070  128.2590   66.4960 C   0  0  0  0  0  0  0  0  0  0  0  0
  128.7960  129.4550   67.1040 C   0  0  0  0  0  0  0  0  0  0  0  0
  129.1270  129.4890   68.4550 C   0  0  0  0  0  0  0  0  0  0  0  0
  129.0760  128.3280   69.2410 C   0  0  0  0  0  0  0  0  0  0  0  0
  129.4210  128.3370   70.5950 N   0  0  0  0  0  0  0  0  0  0  0  0
  129.1930  127.1250   71.4080 C   0  0  0  0  0  0  0  0  0  0  0  0
  129.9620  127.1350   72.7460 C   0  0  0  0  0  0  0  0  0  0  0  0
  129.6410  128.3040   73.4830 O   0  0  0  0  0  0  0  0  0  0  0  0
  129.9840  129.4840   72.7730 C   0  0  0  0  0  0  0  0  0  0  0  0
  129.2200  129.5350   71.4340 C   0  0  0  0  0  0  0  0  0  0  0  0
  128.6960  127.1290   68.6210 C   0  0  0  0  0  0  0  0  0  0  0  0
  128.3670  127.0950   67.2690 C   0  0  0  0  0  0  0  0  0  0  0  0
  126.9030  128.7970   64.4830 C   0  0  0  0  0  0  0  0  0  0  0  0
  125.9390  129.5110   65.3270 C   0  0  0  0  0  0  0  0  0  0  0  0
  125.1790  130.0730   65.9950 N   0  0  0  0  0  0  0  0  0  0  0  0
  128.1830  131.9680   58.7860 C   0  0  0  0  0  0  0  0  0  0  0  0
  129.1460  132.6290   58.0280 C   0  0  0  0  0  0  0  0  0  0  0  0
  128.7637  131.9791   55.3655 H   0  0  0  0  0  0  0  0  0  0  0  0
  128.3822  132.7927   53.8101 H   0  0  0  0  0  0  0  0  0  0  0  0
  129.1940  131.1903   53.8101 H   0  0  0  0  0  0  0  0  0  0  0  0
  131.2615  132.1095   54.1447 H   0  0  0  0  0  0  0  0  0  0  0  0
  130.4969  133.6413   53.6035 H   0  0  0  0  0  0  0  0  0  0  0  0
  131.1416  129.9765   57.2352 H   0  0  0  0  0  0  0  0  0  0  0  0
  129.4272  128.7949   58.5881 H   0  0  0  0  0  0  0  0  0  0  0  0
  127.7600  129.3980   60.5730 H   0  0  0  0  0  0  0  0  0  0  0  0
  124.3503  128.4658   60.2069 H   0  0  0  0  0  0  0  0  0  0  0  0
  125.9929  127.7534   60.6065 H   0  0  0  0  0  0  0  0  0  0  0  0
  129.2403  128.2213   60.2051 H   0  0  0  0  0  0  0  0  0  0  0  0
  130.7753  127.1036   58.6189 H   0  0  0  0  0  0  0  0  0  0  0  0
  131.1331  123.9461   57.6844 H   0  0  0  0  0  0  0  0  0  0  0  0
  131.4746  125.7117   57.3496 H   0  0  0  0  0  0  0  0  0  0  0  0
  132.6497  124.1451   55.7776 H   0  0  0  0  0  0  0  0  0  0  0  0
  133.7477  125.2191   56.7176 H   0  0  0  0  0  0  0  0  0  0  0  0
  134.7955  122.5949   58.9269 H   0  0  0  0  0  0  0  0  0  0  0  0
  134.9663  124.3386   58.5073 H   0  0  0  0  0  0  0  0  0  0  0  0
  132.5048  122.9565   59.6991 H   0  0  0  0  0  0  0  0  0  0  0  0
  133.6219  124.1624   60.5000 H   0  0  0  0  0  0  0  0  0  0  0  0
  131.8462  124.2481   61.6759 H   0  0  0  0  0  0  0  0  0  0  0  0
  130.3173  125.3735   63.2622 H   0  0  0  0  0  0  0  0  0  0  0  0
  129.9102  127.1667   64.5829 H   0  0  0  0  0  0  0  0  0  0  0  0
  128.8411  130.3790   66.5088 H   0  0  0  0  0  0  0  0  0  0  0  0
  129.4333  130.4407   68.9138 H   0  0  0  0  0  0  0  0  0  0  0  0
  128.1173  127.0465   71.6239 H   0  0  0  0  0  0  0  0  0  0  0  0
  129.5621  126.2676   70.8260 H   0  0  0  0  0  0  0  0  0  0  0  0
  129.6836  126.2470   73.3325 H   0  0  0  0  0  0  0  0  0  0  0  0
  131.0426  127.1237   72.5408 H   0  0  0  0  0  0  0  0  0  0  0  0
  129.7180  130.3634   73.3779 H   0  0  0  0  0  0  0  0  0  0  0  0
  131.0654  129.4828   72.5718 H   0  0  0  0  0  0  0  0  0  0  0  0
  128.1458  129.6328   71.6496 H   0  0  0  0  0  0  0  0  0  0  0  0
  129.6124  130.3942   70.8703 H   0  0  0  0  0  0  0  0  0  0  0  0
  128.6574  126.2019   69.2117 H   0  0  0  0  0  0  0  0  0  0  0  0
  128.0725  126.1425   66.8041 H   0  0  0  0  0  0  0  0  0  0  0  0
  127.3427  132.5310   59.2184 H   0  0  0  0  0  0  0  0  0  0  0  0
  129.0632  133.7145   57.8703 H   0  0  0  0  0  0  0  0  0  0  0  0
  1  2  1  0
  2  3  1  0
  3  4  1  0
  4  5  2  0
  4  6  1  0
  6  7  2  0
  7  8  1  0
  8  9  2  0
  9 10  1  0
 10 11  1  0
 11 12  2  0
 11 13  1  0
 13 14  1  0
 14 15  1  0
 15 16  2  0
 16 17  1  0
 17 18  1  0
 18 19  2  0
 19 20  1  0
 20 21  2  0
 21 22  1  0
 22 23  1  0
 23 24  1  0
 24 25  1  0
 25 26  1  0
 26 27  1  0
 21 28  1  0
 28 29  2  0
 17 30  2  0
 30 31  1  0
 31 32  1  0
 32 33  2  0
 33 34  1  0
 34 35  2  0
 35 36  1  0
 36 37  1  0
 37 38  1  0
 38 39  1  0
 39 40  1  0
 40 41  1  0
 35 42  1  0
 42 43  2  0
 31 44  2  0
 44 45  1  0
 45 46  3  0
  9 47  1  0
 47 48  2  0
 48  6  1  0
 44 15  1  0
 29 18  1  0
 43 32  1  0
 27 22  1  0
 41 36  1  0
  1 49  1  0
  1 50  1  0
  1 51  1  0
  2 52  1  0
  2 53  1  0
  7 54  1  0
  8 55  1  0
 10 56  1  0
 13 57  1  0
 13 58  1  0
 19 59  1  0
 20 60  1  0
 23 61  1  0
 23 62  1  0
 24 63  1  0
 24 64  1  0
 26 65  1  0
 26 66  1  0
 27 67  1  0
 27 68  1  0
 28 69  1  0
 29 70  1  0
 30 71  1  0
 33 72  1  0
 34 73  1  0
 37 74  1  0
 37 75  1  0
 38 76  1  0
 38 77  1  0
 40 78  1  0
 40 79  1  0
 41 80  1  0
 41 81  1  0
 42 82  1  0
 43 83  1  0
 47 84  1  0
 48 85  1  0
M  END
>  <Binding energies>  (1) 
[-9.74]

>  <Ligand effiencies>  (1) 
[-0.19877551020408163]

>  <Interactions>  (1) 
["V-A:HIS:456:CE1:4064, V-A:ASP:366:CG:3208, V-B:GLU:543:CD:9876, V-B:GLU:543:CB:9874, V-A:GLU:543:CD:4903, V-A:TYR:539:CZ:4872, V-A:PRO:540:N:4879, V-A:TYR:539:CE1:4870, V-A:TYR:539:C:4862, V-A:TYR:539:CD1:4868, V-A:ASP:366:CB:3207, V-A:PRO:540:CG:4881, V-A:PRO:540:CA:4878, V-A:PRO:540:CD:4882, V-A:ILE:538:CA:4855, V-A:PRO:540:CB:4880, V-A:TYR:539:CE2:4871, V-A:GLU:543:CB:4901, V-B:HIS:456:CE1:9037, V-A:ILE:369:CG2:3232, V-A:ILE:369:CD1:3234, H-A:TYR:539:N:4865, V-A:TYR:531:CE1:4787, V-A:TYR:531:CZ:4789, H-B:TYR:484:OH:9315, V-A:GLU:543:CG:4902, V-A:ILE:538:CD1:4860, V-A:GLU:543:C:4897, V-A:GLU:543:CA:4899, V-B:HIS:456:CD2:9035, V-A:LYS:547:CE:4945, H-B:LYS:547:NZ:9919, H-A:LYS:547:NZ:4946, H-B:ARG:545:NH2:9896, V-A:ASP:366:C:3203, V-B:ASP:366:CG:8180, V-B:ASP:366:CB:8179, H-A:TYR:539:OH:4873, V-A:ILE:369:CB:3231, H-B:TYR:539:OH:9846, V-A:ASP:366:CA:3205, V-A:ILE:369:CG1:3233"]

$$$$
2a_Grossjean_2025
     RDKit          3D

 45 46  0  0  0  0  0  0  0  0999 V2000
  129.9630  128.6380   72.2230 C   0  0  0  0  0  0  0  0  0  0  0  0
  130.2140  127.1290   72.3010 C   0  0  0  0  0  0  0  0  0  0  0  0
  129.0510  126.4360   71.8610 O   0  0  0  0  0  0  0  0  0  0  0  0
  128.3580  126.8540   70.7700 C   0  0  0  0  0  0  0  0  0  0  0  0
  127.2030  127.2870   70.8230 O   0  0  0  0  0  0  0  0  0  0  0  0
  129.1470  126.7570   69.4950 C   0  0  0  0  0  0  0  0  0  0  0  0
  129.4980  125.5220   68.9330 C   0  0  0  0  0  0  0  0  0  0  0  0
  130.2310  125.4670   67.7510 C   0  0  0  0  0  0  0  0  0  0  0  0
  130.6340  126.6410   67.1120 C   0  0  0  0  0  0  0  0  0  0  0  0
  131.3810  126.4660   65.9330 N   0  0  0  0  0  0  0  0  0  0  0  0
  131.1340  125.6910   64.8550 C   0  0  0  0  0  0  0  0  0  0  0  0
  130.1670  124.9400   64.7210 O   0  0  0  0  0  0  0  0  0  0  0  0
  132.1680  125.7790   63.7270 C   0  0  0  0  0  0  0  0  0  0  0  0
  133.2490  124.3130   63.6240 S   0  0  0  0  0  0  0  0  0  0  0  0
  132.7850  123.3180   62.2120 C   0  0  0  0  0  0  0  0  0  0  0  0
  133.4840  123.5520   61.0720 N   0  0  0  0  0  0  0  0  0  0  0  0
  133.1780  122.8450   59.9610 C   0  0  0  0  0  0  0  0  0  0  0  0
  133.9840  123.1810   58.7200 C   0  0  0  0  0  0  0  0  0  0  0  0
  132.1780  121.8770   59.9390 C   0  0  0  0  0  0  0  0  0  0  0  0
  131.4480  121.6130   61.1080 C   0  0  0  0  0  0  0  0  0  0  0  0
  130.3450  120.5380   61.0670 C   0  0  0  0  0  0  0  0  0  0  0  0
  130.4570  119.7270   62.1180 F   0  0  0  0  0  0  0  0  0  0  0  0
  129.1440  121.1170   61.0920 F   0  0  0  0  0  0  0  0  0  0  0  0
  130.4030  119.7820   59.9680 F   0  0  0  0  0  0  0  0  0  0  0  0
  131.7570  122.3500   62.2790 C   0  0  0  0  0  0  0  0  0  0  0  0
  131.0230  122.1170   63.5280 C   0  0  0  0  0  0  0  0  0  0  0  0
  130.4440  121.9330   64.5130 N   0  0  0  0  0  0  0  0  0  0  0  0
  130.2790  127.8800   67.6640 C   0  0  0  0  0  0  0  0  0  0  0  0
  129.5420  127.9330   68.8440 C   0  0  0  0  0  0  0  0  0  0  0  0
  129.8943  129.0513   73.2401 H   0  0  0  0  0  0  0  0  0  0  0  0
  130.7932  129.1206   71.6865 H   0  0  0  0  0  0  0  0  0  0  0  0
  129.0213  128.8258   71.6865 H   0  0  0  0  0  0  0  0  0  0  0  0
  131.0654  126.8642   71.6568 H   0  0  0  0  0  0  0  0  0  0  0  0
  130.4411  126.8461   73.3394 H   0  0  0  0  0  0  0  0  0  0  0  0
  129.1920  124.5894   69.4296 H   0  0  0  0  0  0  0  0  0  0  0  0
  130.4947  124.4912   67.3171 H   0  0  0  0  0  0  0  0  0  0  0  0
  132.2040  127.0470   65.8780 H   0  0  0  0  0  0  0  0  0  0  0  0
  131.6340  125.8870   62.7714 H   0  0  0  0  0  0  0  0  0  0  0  0
  132.8120  126.6445   63.9418 H   0  0  0  0  0  0  0  0  0  0  0  0
  134.9616  123.5885   59.0169 H   0  0  0  0  0  0  0  0  0  0  0  0
  134.1329  122.2700   58.1217 H   0  0  0  0  0  0  0  0  0  0  0  0
  133.4417  123.9280   58.1217 H   0  0  0  0  0  0  0  0  0  0  0  0
  131.9618  121.3237   59.0132 H   0  0  0  0  0  0  0  0  0  0  0  0
  130.5832  128.8114   67.1641 H   0  0  0  0  0  0  0  0  0  0  0  0
  129.2668  128.9091   69.2699 H   0  0  0  0  0  0  0  0  0  0  0  0
  1  2  1  0
  2  3  1  0
  3  4  1  0
  4  5  2  0
  4  6  1  0
  6  7  2  0
  7  8  1  0
  8  9  2  0
  9 10  1  0
 10 11  1  0
 11 12  2  0
 11 13  1  0
 13 14  1  0
 14 15  1  0
 15 16  2  0
 16 17  1  0
 17 18  1  0
 17 19  2  0
 19 20  1  0
 20 21  1  0
 21 22  1  0
 21 23  1  0
 21 24  1  0
 20 25  2  0
 25 26  1  0
 26 27  3  0
  9 28  1  0
 28 29  2  0
 29  6  1  0
 25 15  1  0
  1 30  1  0
  1 31  1  0
  1 32  1  0
  2 33  1  0
  2 34  1  0
  7 35  1  0
  8 36  1  0
 10 37  1  0
 13 38  1  0
 13 39  1  0
 18 40  1  0
 18 41  1  0
 18 42  1  0
 19 43  1  0
 28 44  1  0
 29 45  1  0
M  END
>  <Binding energies>  (1) 
[-6.84]

>  <Ligand effiencies>  (1) 
[-0.228]

>  <Interactions>  (1) 
["V-B:ALA:541:CB:9860, V-B:TYR:539:CE2:9844, V-A:TRP:381:CH2:3367, V-B:TYR:539:CD2:9842, V-B:ALA:541:CA:9858, V-B:PRO:540:C:9849, V-B:TYR:539:C:9835, V-B:GLU:543:C:9870, V-A:HIS:456:CE1:4064, H-A:GLU:543:OE2:4905, H-A:TYR:484:OH:4343, H-A:GLY:454:N:4045, H-A:GLU:543:OE1:4904, V-A:ARG:545:CZ:4921, V-B:GLU:543:CB:9874, V-A:GLU:543:CD:4903, V-A:ASP:366:CB:3207, V-A:GLU:543:CB:4901, V-A:ILE:369:CG2:3232, V-A:ILE:369:CD1:3234, V-A:LEU:475:CD2:4254, H-B:LYS:547:NZ:9919, V-B:GLU:543:CA:9872, V-A:LEU:475:CD1:4253, V-A:ILE:369:CB:3231, V-A:ASP:366:CA:3205, V-A:ILE:369:CG1:3233, V-A:LEU:475:CG:4252"]

$$$$
2aa_Ghoteimi_2023
     RDKit          3D

 85 90  0  0  0  0  0  0  0  0999 V2000
  131.1260  132.3550   54.3300 C   0  0  0  0  0  0  0  0  0  0  0  0
  129.7110  132.7870   54.7270 C   0  0  0  0  0  0  0  0  0  0  0  0
  129.7490  133.4050   56.0070 O   0  0  0  0  0  0  0  0  0  0  0  0
  130.0970  132.7010   57.1160 C   0  0  0  0  0  0  0  0  0  0  0  0
  131.2430  132.2930   57.3310 O   0  0  0  0  0  0  0  0  0  0  0  0
  128.9520  132.4830   58.0630 C   0  0  0  0  0  0  0  0  0  0  0  0
  128.7950  133.2530   59.2250 C   0  0  0  0  0  0  0  0  0  0  0  0
  127.7210  133.0290   60.0810 C   0  0  0  0  0  0  0  0  0  0  0  0
  126.7890  132.0280   59.8000 C   0  0  0  0  0  0  0  0  0  0  0  0
  125.7410  131.8900   60.7310 N   0  0  0  0  0  0  0  0  0  0  0  0
  124.5120  132.4510   60.7400 C   0  0  0  0  0  0  0  0  0  0  0  0
  124.0690  133.2000   59.8670 O   0  0  0  0  0  0  0  0  0  0  0  0
  123.6440  132.0670   61.9450 C   0  0  0  0  0  0  0  0  0  0  0  0
  123.5470  130.6420   62.0340 O   0  0  0  0  0  0  0  0  0  0  0  0
  124.6810  129.8790   62.2790 C   0  0  0  0  0  0  0  0  0  0  0  0
  125.3350  129.3430   61.2100 N   0  0  0  0  0  0  0  0  0  0  0  0
  126.4490  128.5960   61.4140 C   0  0  0  0  0  0  0  0  0  0  0  0
  127.1110  128.0360   60.1950 C   0  0  0  0  0  0  0  0  0  0  0  0
  126.4800  128.0960   58.9480 C   0  0  0  0  0  0  0  0  0  0  0  0
  127.0940  127.5820   57.8090 C   0  0  0  0  0  0  0  0  0  0  0  0
  128.3710  127.0010   57.8720 C   0  0  0  0  0  0  0  0  0  0  0  0
  128.9970  126.4680   56.7400 N   0  0  0  0  0  0  0  0  0  0  0  0
  129.7370  125.1910   56.7980 C   0  0  0  0  0  0  0  0  0  0  0  0
  130.6460  124.9410   55.5760 C   0  0  0  0  0  0  0  0  0  0  0  0
  129.8890  125.0350   54.3810 O   0  0  0  0  0  0  0  0  0  0  0  0
  129.3070  126.3210   54.2330 C   0  0  0  0  0  0  0  0  0  0  0  0
  128.3580  126.6110   55.4150 C   0  0  0  0  0  0  0  0  0  0  0  0
  128.9900  126.9240   59.1280 C   0  0  0  0  0  0  0  0  0  0  0  0
  128.3740  127.4360   60.2670 C   0  0  0  0  0  0  0  0  0  0  0  0
  126.9310  128.3540   62.7040 C   0  0  0  0  0  0  0  0  0  0  0  0
  126.2710  128.8840   63.8200 C   0  0  0  0  0  0  0  0  0  0  0  0
  126.8180  128.5680   65.1750 C   0  0  0  0  0  0  0  0  0  0  0  0
  126.1830  127.6280   65.9900 C   0  0  0  0  0  0  0  0  0  0  0  0
  126.6750  127.3440   67.2610 C   0  0  0  0  0  0  0  0  0  0  0  0
  127.8100  128.0040   67.7590 C   0  0  0  0  0  0  0  0  0  0  0  0
  128.3240  127.7320   69.0300 N   0  0  0  0  0  0  0  0  0  0  0  0
  127.5180  127.0400   70.0540 C   0  0  0  0  0  0  0  0  0  0  0  0
  128.3520  126.5180   71.2430 C   0  0  0  0  0  0  0  0  0  0  0  0
  129.0940  127.5830   71.8190 O   0  0  0  0  0  0  0  0  0  0  0  0
  129.9850  128.1660   70.8800 C   0  0  0  0  0  0  0  0  0  0  0  0
  129.1950  128.7310   69.6820 C   0  0  0  0  0  0  0  0  0  0  0  0
  128.4440  128.9400   66.9300 C   0  0  0  0  0  0  0  0  0  0  0  0
  127.9520  129.2230   65.6600 C   0  0  0  0  0  0  0  0  0  0  0  0
  125.1230  129.6800   63.5990 C   0  0  0  0  0  0  0  0  0  0  0  0
  124.3990  130.3160   64.7010 C   0  0  0  0  0  0  0  0  0  0  0  0
  123.8270  130.8190   65.5730 N   0  0  0  0  0  0  0  0  0  0  0  0
  126.9350  131.2590   58.6370 C   0  0  0  0  0  0  0  0  0  0  0  0
  128.0080  131.4870   57.7800 C   0  0  0  0  0  0  0  0  0  0  0  0
  131.7218  132.1731   55.2366 H   0  0  0  0  0  0  0  0  0  0  0  0
  131.0739  131.4318   53.7341 H   0  0  0  0  0  0  0  0  0  0  0  0
  131.5984  133.1498   53.7341 H   0  0  0  0  0  0  0  0  0  0  0  0
  129.3235  133.5013   53.9857 H   0  0  0  0  0  0  0  0  0  0  0  0
  129.0537  131.9057   54.7632 H   0  0  0  0  0  0  0  0  0  0  0  0
  129.5264  134.0399   59.4613 H   0  0  0  0  0  0  0  0  0  0  0  0
  127.6055  133.6447   60.9852 H   0  0  0  0  0  0  0  0  0  0  0  0
  125.9380  131.2420   61.4790 H   0  0  0  0  0  0  0  0  0  0  0  0
  124.1006  132.4607   62.8650 H   0  0  0  0  0  0  0  0  0  0  0  0
  122.6379  132.4939   61.8205 H   0  0  0  0  0  0  0  0  0  0  0  0
  125.4842  128.5560   58.8661 H   0  0  0  0  0  0  0  0  0  0  0  0
  126.5699  127.6318   56.8432 H   0  0  0  0  0  0  0  0  0  0  0  0
  130.3642  125.1945   57.7017 H   0  0  0  0  0  0  0  0  0  0  0  0
  128.9868  124.3866   56.8088 H   0  0  0  0  0  0  0  0  0  0  0  0
  131.4484  125.6932   55.5590 H   0  0  0  0  0  0  0  0  0  0  0  0
  131.0807  123.9332   55.6496 H   0  0  0  0  0  0  0  0  0  0  0  0
  130.1026  127.0803   54.2100 H   0  0  0  0  0  0  0  0  0  0  0  0
  128.7341  126.3518   53.2945 H   0  0  0  0  0  0  0  0  0  0  0  0
  127.9875  127.6422   55.3178 H   0  0  0  0  0  0  0  0  0  0  0  0
  127.5488  125.8675   55.3669 H   0  0  0  0  0  0  0  0  0  0  0  0
  129.9793  126.4510   59.2149 H   0  0  0  0  0  0  0  0  0  0  0  0
  128.8872  127.3681   61.2376 H   0  0  0  0  0  0  0  0  0  0  0  0
  127.8350  127.7430   62.8435 H   0  0  0  0  0  0  0  0  0  0  0  0
  125.2858  127.1073   65.6241 H   0  0  0  0  0  0  0  0  0  0  0  0
  126.1677  126.5923   67.8836 H   0  0  0  0  0  0  0  0  0  0  0  0
  126.7651  127.7436   70.4388 H   0  0  0  0  0  0  0  0  0  0  0  0
  127.0610  126.1645   69.5696 H   0  0  0  0  0  0  0  0  0  0  0  0
  127.6787  126.0911   72.0010 H   0  0  0  0  0  0  0  0  0  0  0  0
  129.0477  125.7448   70.8849 H   0  0  0  0  0  0  0  0  0  0  0  0
  130.5431  128.9805   71.3648 H   0  0  0  0  0  0  0  0  0  0  0  0
  130.6840  127.3966   70.5204 H   0  0  0  0  0  0  0  0  0  0  0  0
  128.5674  129.5611   70.0385 H   0  0  0  0  0  0  0  0  0  0  0  0
  129.9311  129.0582   68.9329 H   0  0  0  0  0  0  0  0  0  0  0  0
  129.3448  129.4589   67.2895 H   0  0  0  0  0  0  0  0  0  0  0  0
  128.4607  129.9694   65.0322 H   0  0  0  0  0  0  0  0  0  0  0  0
  126.2008  130.4745   58.4014 H   0  0  0  0  0  0  0  0  0  0  0  0
  128.1160  130.8783   56.8702 H   0  0  0  0  0  0  0  0  0  0  0  0
  1  2  1  0
  2  3  1  0
  3  4  1  0
  4  5  2  0
  4  6  1  0
  6  7  2  0
  7  8  1  0
  8  9  2  0
  9 10  1  0
 10 11  1  0
 11 12  2  0
 11 13  1  0
 13 14  1  0
 14 15  1  0
 15 16  2  0
 16 17  1  0
 17 18  1  0
 18 19  2  0
 19 20  1  0
 20 21  2  0
 21 22  1  0
 22 23  1  0
 23 24  1  0
 24 25  1  0
 25 26  1  0
 26 27  1  0
 21 28  1  0
 28 29  2  0
 17 30  2  0
 30 31  1  0
 31 32  1  0
 32 33  2  0
 33 34  1  0
 34 35  2  0
 35 36  1  0
 36 37  1  0
 37 38  1  0
 38 39  1  0
 39 40  1  0
 40 41  1  0
 35 42  1  0
 42 43  2  0
 31 44  2  0
 44 45  1  0
 45 46  3  0
  9 47  1  0
 47 48  2  0
 48  6  1  0
 44 15  1  0
 29 18  1  0
 43 32  1  0
 27 22  1  0
 41 36  1  0
  1 49  1  0
  1 50  1  0
  1 51  1  0
  2 52  1  0
  2 53  1  0
  7 54  1  0
  8 55  1  0
 10 56  1  0
 13 57  1  0
 13 58  1  0
 19 59  1  0
 20 60  1  0
 23 61  1  0
 23 62  1  0
 24 63  1  0
 24 64  1  0
 26 65  1  0
 26 66  1  0
 27 67  1  0
 27 68  1  0
 28 69  1  0
 29 70  1  0
 30 71  1  0
 33 72  1  0
 34 73  1  0
 37 74  1  0
 37 75  1  0
 38 76  1  0
 38 77  1  0
 40 78  1  0
 40 79  1  0
 41 80  1  0
 41 81  1  0
 42 82  1  0
 43 83  1  0
 47 84  1  0
 48 85  1  0
M  END
>  <Binding energies>  (1) 
[-10.36]

>  <Ligand effiencies>  (1) 
[-0.2114285714285714]

>  <Interactions>  (1) 
["V-B:TYR:539:CZ:9845, V-B:GLU:543:C:9870, V-A:HIS:456:CE1:4064, V-B:GLU:543:CD:9876, V-B:GLU:543:CB:9874, V-A:TYR:539:CZ:4872, V-A:PRO:540:N:4879, V-A:TYR:539:CE1:4870, V-A:TYR:539:C:4862, V-A:TYR:539:CD1:4868, V-A:PRO:540:CA:4878, V-A:TYR:539:CG:4867, V-A:PRO:540:CD:4882, V-A:ILE:538:CA:4855, V-A:TYR:539:CE2:4871, V-A:TYR:539:CD2:4869, V-B:ARG:545:CG:9890, V-B:HIS:456:CE1:9037, H-A:TYR:539:N:4865, V-A:LYS:534:CD:4816, H-A:LYS:534:NZ:4818, V-A:ILE:538:CG2:4858, V-A:TYR:531:CE1:4787, V-A:TYR:531:CZ:4789, H-B:TYR:484:OH:9315, V-A:GLU:543:CG:4902, V-B:ARG:545:CZ:9894, V-A:ILE:538:CD1:4860, H-B:GLY:454:N:9017, V-B:HIS:456:CD2:9035, H-B:LYS:547:NZ:9919, V-B:ASP:366:CG:8180, H-A:TYR:539:OH:4873, V-B:GLY:544:C:9880, V-A:LYS:534:CE:4817, V-B:ILE:369:CD1:8206"]

$$$$
2b_Ghoteimi_2023
     RDKit          3D

 72 77  0  0  0  0  0  0  0  0999 V2000
  130.6260  122.7450   64.5900 N   0  0  0  0  0  0  0  0  0  0  0  0
  130.6310  123.6400   63.8570 C   0  0  0  0  0  0  0  0  0  0  0  0
  130.6370  124.7770   62.9320 C   0  0  0  0  0  0  0  0  0  0  0  0
  130.3540  126.0860   63.3980 C   0  0  0  0  0  0  0  0  0  0  0  0
  130.0370  126.4100   64.8210 C   0  0  0  0  0  0  0  0  0  0  0  0
  130.9070  126.0210   65.8420 C   0  0  0  0  0  0  0  0  0  0  0  0
  130.6160  126.3200   67.1700 C   0  0  0  0  0  0  0  0  0  0  0  0
  129.4380  127.0010   67.5150 C   0  0  0  0  0  0  0  0  0  0  0  0
  129.1310  127.3230   68.8380 N   0  0  0  0  0  0  0  0  0  0  0  0
  129.8310  128.4520   69.4840 C   0  0  0  0  0  0  0  0  0  0  0  0
  129.6870  128.4610   71.0210 C   0  0  0  0  0  0  0  0  0  0  0  0
  128.3150  128.4350   71.3840 O   0  0  0  0  0  0  0  0  0  0  0  0
  127.6630  127.2760   70.8880 C   0  0  0  0  0  0  0  0  0  0  0  0
  127.7480  127.2440   69.3480 C   0  0  0  0  0  0  0  0  0  0  0  0
  128.5700  127.3840   66.4830 C   0  0  0  0  0  0  0  0  0  0  0  0
  128.8620  127.0890   65.1550 C   0  0  0  0  0  0  0  0  0  0  0  0
  130.3760  127.1410   62.4780 C   0  0  0  0  0  0  0  0  0  0  0  0
  130.7030  126.9060   61.1400 C   0  0  0  0  0  0  0  0  0  0  0  0
  130.7700  128.0020   60.1240 C   0  0  0  0  0  0  0  0  0  0  0  0
  130.2120  127.8320   58.8520 C   0  0  0  0  0  0  0  0  0  0  0  0
  130.2560  128.8540   57.9080 C   0  0  0  0  0  0  0  0  0  0  0  0
  130.8730  130.0820   58.1950 C   0  0  0  0  0  0  0  0  0  0  0  0
  130.8990  131.1290   57.2670 N   0  0  0  0  0  0  0  0  0  0  0  0
  129.7190  132.0050   57.1110 C   0  0  0  0  0  0  0  0  0  0  0  0
  129.7370  132.8410   55.8140 C   0  0  0  0  0  0  0  0  0  0  0  0
  130.9400  133.5890   55.7350 O   0  0  0  0  0  0  0  0  0  0  0  0
  132.0780  132.7430   55.7170 C   0  0  0  0  0  0  0  0  0  0  0  0
  132.1310  131.9000   57.0100 C   0  0  0  0  0  0  0  0  0  0  0  0
  131.4250  130.2510   59.4730 C   0  0  0  0  0  0  0  0  0  0  0  0
  131.3770  129.2290   60.4180 C   0  0  0  0  0  0  0  0  0  0  0  0
  130.9750  125.6530   60.6950 N   0  0  0  0  0  0  0  0  0  0  0  0
  130.9270  124.6110   61.5590 C   0  0  0  0  0  0  0  0  0  0  0  0
  131.3060  123.0440   60.8070 S   0  0  0  0  0  0  0  0  0  0  0  0
  130.8160  123.1410   59.0580 C   0  0  0  0  0  0  0  0  0  0  0  0
  129.3430  122.7880   58.8530 C   0  0  0  0  0  0  0  0  0  0  0  0
  128.6790  122.3850   59.8100 O   0  0  0  0  0  0  0  0  0  0  0  0
  128.8760  122.9470   57.5960 N   0  0  0  0  0  0  0  0  0  0  0  0
  127.5860  122.7130   57.1400 C   0  0  0  0  0  0  0  0  0  0  0  0
  126.4560  123.2720   57.7340 C   0  0  0  0  0  0  0  0  0  0  0  0
  125.3950  122.8010   56.9980 C   0  0  0  0  0  0  0  0  0  0  0  0
  125.8610  122.0000   56.0120 O   0  0  0  0  0  0  0  0  0  0  0  0
  127.2530  121.9520   56.1100 N   0  0  0  0  0  0  0  0  0  0  0  0
  131.8290  125.4743   65.5949 H   0  0  0  0  0  0  0  0  0  0  0  0
  131.3191  126.0183   67.9603 H   0  0  0  0  0  0  0  0  0  0  0  0
  130.9003  128.3888   69.2339 H   0  0  0  0  0  0  0  0  0  0  0  0
  129.3714  129.3781   69.1084 H   0  0  0  0  0  0  0  0  0  0  0  0
  130.1903  127.5765   71.4385 H   0  0  0  0  0  0  0  0  0  0  0  0
  130.1469  129.3773   71.4197 H   0  0  0  0  0  0  0  0  0  0  0  0
  128.1503  126.3795   71.2989 H   0  0  0  0  0  0  0  0  0  0  0  0
  126.6060  127.2972   71.1919 H   0  0  0  0  0  0  0  0  0  0  0  0
  127.2980  126.3052   68.9929 H   0  0  0  0  0  0  0  0  0  0  0  0
  127.2116  128.1283   68.9736 H   0  0  0  0  0  0  0  0  0  0  0  0
  127.6443  127.9258   66.7267 H   0  0  0  0  0  0  0  0  0  0  0  0
  128.1627  127.3925   64.3620 H   0  0  0  0  0  0  0  0  0  0  0  0
  130.1344  128.1613   62.8105 H   0  0  0  0  0  0  0  0  0  0  0  0
  129.7315  126.8766   58.5943 H   0  0  0  0  0  0  0  0  0  0  0  0
  129.7993  128.6967   56.9197 H   0  0  0  0  0  0  0  0  0  0  0  0
  128.8169  131.3756   57.1065 H   0  0  0  0  0  0  0  0  0  0  0  0
  129.7304  132.7141   57.9519 H   0  0  0  0  0  0  0  0  0  0  0  0
  129.6687  132.1685   54.9462 H   0  0  0  0  0  0  0  0  0  0  0  0
  128.8816  133.5326   55.8185 H   0  0  0  0  0  0  0  0  0  0  0  0
  132.0194  132.0722   54.8471 H   0  0  0  0  0  0  0  0  0  0  0  0
  132.9858  133.3608   55.6517 H   0  0  0  0  0  0  0  0  0  0  0  0
  132.9716  131.1949   56.9306 H   0  0  0  0  0  0  0  0  0  0  0  0
  132.2504  132.6033   57.8474 H   0  0  0  0  0  0  0  0  0  0  0  0
  131.9038  131.2065   59.7334 H   0  0  0  0  0  0  0  0  0  0  0  0
  131.8229  129.3883   61.4109 H   0  0  0  0  0  0  0  0  0  0  0  0
  130.9886  124.1659   58.6976 H   0  0  0  0  0  0  0  0  0  0  0  0
  131.4200  122.4133   58.4962 H   0  0  0  0  0  0  0  0  0  0  0  0
  129.5210  123.3000   56.9040 H   0  0  0  0  0  0  0  0  0  0  0  0
  126.4208  123.9446   58.6037 H   0  0  0  0  0  0  0  0  0  0  0  0
  124.3364  123.0374   57.1812 H   0  0  0  0  0  0  0  0  0  0  0  0
  1  2  3  0
  2  3  1  0
  3  4  2  0
  4  5  1  0
  5  6  2  0
  6  7  1  0
  7  8  2  0
  8  9  1  0
  9 10  1  0
 10 11  1  0
 11 12  1  0
 12 13  1  0
 13 14  1  0
  8 15  1  0
 15 16  2  0
  4 17  1  0
 17 18  2  0
 18 19  1  0
 19 20  2  0
 20 21  1  0
 21 22  2  0
 22 23  1  0
 23 24  1  0
 24 25  1  0
 25 26  1  0
 26 27  1  0
 27 28  1  0
 22 29  1  0
 29 30  2  0
 18 31  1  0
 31 32  2  0
 32 33  1  0
 33 34  1  0
 34 35  1  0
 35 36  2  0
 35 37  1  0
 37 38  1  0
 38 39  1  0
 39 40  2  0
 40 41  1  0
 41 42  1  0
 32  3  1  0
 42 38  2  0
 16  5  1  0
 30 19  1  0
 14  9  1  0
 28 23  1  0
  6 43  1  0
  7 44  1  0
 10 45  1  0
 10 46  1  0
 11 47  1  0
 11 48  1  0
 13 49  1  0
 13 50  1  0
 14 51  1  0
 14 52  1  0
 15 53  1  0
 16 54  1  0
 17 55  1  0
 20 56  1  0
 21 57  1  0
 24 58  1  0
 24 59  1  0
 25 60  1  0
 25 61  1  0
 27 62  1  0
 27 63  1  0
 28 64  1  0
 28 65  1  0
 29 66  1  0
 30 67  1  0
 34 68  1  0
 34 69  1  0
 37 70  1  0
 39 71  1  0
 40 72  1  0
M  END
>  <Binding energies>  (1) 
[-11.22]

>  <Ligand effiencies>  (1) 
[-0.2609302325581396]

>  <Interactions>  (1) 
["V-B:TYR:539:CE2:9844, V-B:MET:535:CE:9803, V-B:PRO:540:CD:9855, V-B:PRO:540:CA:9851, V-B:TYR:539:CD2:9842, V-B:PRO:540:N:9852, V-B:PRO:540:CB:9853, V-B:TYR:539:C:9835, V-B:TYR:539:CZ:9845, V-B:GLU:543:C:9870, V-A:HIS:456:CE1:4064, H-A:TYR:484:OH:4343, V-B:GLU:543:CD:9876, V-B:GLU:543:CG:9875, V-B:GLU:543:CB:9874, V-A:GLU:543:CD:4903, V-A:LEU:363:CD1:3184, V-A:TYR:539:CE1:4870, V-A:TYR:539:CD1:4868, V-A:PRO:540:CG:4881, V-A:PRO:540:CD:4882, V-A:PRO:540:CB:4880, V-B:HIS:456:CE1:9037, H-A:TYR:539:N:4865, V-A:ILE:538:CG2:4858, V-B:HIS:456:CD2:9035, H-B:LYS:547:NZ:9919, H-B:TYR:539:N:9838, H-B:TYR:539:OH:9846, V-B:GLY:544:C:9880"]

$$$$
2b_Grossjean_2025
     RDKit          3D

 42 43  0  0  0  0  0  0  0  0999 V2000
  131.6740  132.8330   55.5690 C   0  0  0  0  0  0  0  0  0  0  0  0
  130.2830  133.1180   55.5010 O   0  0  0  0  0  0  0  0  0  0  0  0
  129.4410  132.3250   54.7910 C   0  0  0  0  0  0  0  0  0  0  0  0
  128.6030  132.7630   53.9970 O   0  0  0  0  0  0  0  0  0  0  0  0
  129.6270  130.8610   55.0700 C   0  0  0  0  0  0  0  0  0  0  0  0
  130.0840  129.9710   54.0880 C   0  0  0  0  0  0  0  0  0  0  0  0
  130.2450  128.6190   54.3800 C   0  0  0  0  0  0  0  0  0  0  0  0
  129.9590  128.1310   55.6540 C   0  0  0  0  0  0  0  0  0  0  0  0
  130.1500  126.7480   55.8380 N   0  0  0  0  0  0  0  0  0  0  0  0
  129.7600  125.7140   55.0640 C   0  0  0  0  0  0  0  0  0  0  0  0
  129.1130  125.8090   54.0200 O   0  0  0  0  0  0  0  0  0  0  0  0
  130.1630  124.3270   55.5760 C   0  0  0  0  0  0  0  0  0  0  0  0
  128.7410  123.2160   55.8330 S   0  0  0  0  0  0  0  0  0  0  0  0
  128.3810  123.0800   57.5790 C   0  0  0  0  0  0  0  0  0  0  0  0
  129.3510  122.5090   58.3380 N   0  0  0  0  0  0  0  0  0  0  0  0
  129.1440  122.3690   59.6660 C   0  0  0  0  0  0  0  0  0  0  0  0
  130.2700  121.7100   60.4400 C   0  0  0  0  0  0  0  0  0  0  0  0
  127.9770  122.7960   60.2940 C   0  0  0  0  0  0  0  0  0  0  0  0
  126.9640  123.3960   59.5310 C   0  0  0  0  0  0  0  0  0  0  0  0
  125.6810  123.8680   60.2410 C   0  0  0  0  0  0  0  0  0  0  0  0
  125.7510  125.1770   60.4870 F   0  0  0  0  0  0  0  0  0  0  0  0
  124.6170  123.6280   59.4740 F   0  0  0  0  0  0  0  0  0  0  0  0
  125.4800  123.2510   61.4080 F   0  0  0  0  0  0  0  0  0  0  0  0
  127.1650  123.5440   58.1340 C   0  0  0  0  0  0  0  0  0  0  0  0
  126.1380  124.1580   57.2880 C   0  0  0  0  0  0  0  0  0  0  0  0
  125.3270  124.6440   56.6200 N   0  0  0  0  0  0  0  0  0  0  0  0
  129.4940  129.0130   56.6400 C   0  0  0  0  0  0  0  0  0  0  0  0
  129.3330  130.3650   56.3470 C   0  0  0  0  0  0  0  0  0  0  0  0
  131.9842  132.7694   56.6224 H   0  0  0  0  0  0  0  0  0  0  0  0
  131.8768  131.8746   55.0686 H   0  0  0  0  0  0  0  0  0  0  0  0
  132.2374  133.6344   55.0686 H   0  0  0  0  0  0  0  0  0  0  0  0
  130.3171  130.3433   53.0795 H   0  0  0  0  0  0  0  0  0  0  0  0
  130.6007  127.9307   53.5992 H   0  0  0  0  0  0  0  0  0  0  0  0
  130.6070  126.5060   56.7050 H   0  0  0  0  0  0  0  0  0  0  0  0
  130.8388  123.8656   54.8409 H   0  0  0  0  0  0  0  0  0  0  0  0
  130.6491  124.4674   56.5527 H   0  0  0  0  0  0  0  0  0  0  0  0
  130.0855  121.8180   61.5190 H   0  0  0  0  0  0  0  0  0  0  0  0
  130.3168  120.6419   60.1811 H   0  0  0  0  0  0  0  0  0  0  0  0
  131.2242  122.1922   60.1811 H   0  0  0  0  0  0  0  0  0  0  0  0
  127.8504  122.6641   61.3787 H   0  0  0  0  0  0  0  0  0  0  0  0
  129.2562  128.6367   57.6459 H   0  0  0  0  0  0  0  0  0  0  0  0
  128.9710  131.0511   57.1269 H   0  0  0  0  0  0  0  0  0  0  0  0
  1  2  1  0
  2  3  1  0
  3  4  2  0
  3  5  1  0
  5  6  2  0
  6  7  1  0
  7  8  2  0
  8  9  1  0
  9 10  1  0
 10 11  2  0
 10 12  1  0
 12 13  1  0
 13 14  1  0
 14 15  2  0
 15 16  1  0
 16 17  1  0
 16 18  2  0
 18 19  1  0
 19 20  1  0
 20 21  1  0
 20 22  1  0
 20 23  1  0
 19 24  2  0
 24 25  1  0
 25 26  3  0
  8 27  1  0
 27 28  2  0
 28  5  1  0
 24 14  1  0
  1 29  1  0
  1 30  1  0
  1 31  1  0
  6 32  1  0
  7 33  1  0
  9 34  1  0
 12 35  1  0
 12 36  1  0
 17 37  1  0
 17 38  1  0
 17 39  1  0
 18 40  1  0
 27 41  1  0
 28 42  1  0
M  END
>  <Binding energies>  (1) 
[-7.52]

>  <Ligand effiencies>  (1) 
[-0.2593103448275862]

>  <Interactions>  (1) 
["H-B:TYR:531:OH:9763, V-B:MET:535:CE:9803, V-B:PRO:540:CA:9851, V-B:PRO:540:CB:9853, V-B:PRO:540:C:9849, V-B:TYR:539:CE1:9843, V-B:TYR:539:CZ:9845, V-B:GLU:543:CD:9876, V-A:LEU:363:CD1:3184, V-A:TYR:539:CE1:4870, V-A:TYR:539:CD1:4868, H-A:TYR:531:OH:4790, V-A:PRO:540:CD:4882, V-A:ILE:538:CA:4855, H-A:TYR:539:N:4865, H-A:LYS:534:NZ:4818, V-A:ILE:538:CG2:4858, V-A:TYR:531:CE1:4787, V-A:TYR:531:CZ:4789, V-A:MET:535:CG:4828, V-B:ASP:366:CG:8180"]

$$$$
2c_Ghoteimi_2023
     RDKit          3D

 72 77  0  0  0  0  0  0  0  0999 V2000
  130.3620  122.6370   64.5380 N   0  0  0  0  0  0  0  0  0  0  0  0
  130.4000  123.5350   63.8110 C   0  0  0  0  0  0  0  0  0  0  0  0
  130.4480  124.6790   62.8940 C   0  0  0  0  0  0  0  0  0  0  0  0
  130.2510  125.9970   63.3740 C   0  0  0  0  0  0  0  0  0  0  0  0
  129.9840  126.3300   64.8060 C   0  0  0  0  0  0  0  0  0  0  0  0
  130.8520  125.8840   65.8040 C   0  0  0  0  0  0  0  0  0  0  0  0
  130.6130  126.1940   67.1400 C   0  0  0  0  0  0  0  0  0  0  0  0
  129.4900  126.9470   67.5170 C   0  0  0  0  0  0  0  0  0  0  0  0
  129.2410  127.2870   68.8490 N   0  0  0  0  0  0  0  0  0  0  0  0
  130.0090  128.3850   69.4700 C   0  0  0  0  0  0  0  0  0  0  0  0
  129.9200  128.3950   71.0110 C   0  0  0  0  0  0  0  0  0  0  0  0
  128.5610  128.4330   71.4190 O   0  0  0  0  0  0  0  0  0  0  0  0
  127.8390  127.3060   70.9480 C   0  0  0  0  0  0  0  0  0  0  0  0
  127.8750  127.2660   69.4050 C   0  0  0  0  0  0  0  0  0  0  0  0
  128.6220  127.3870   66.5070 C   0  0  0  0  0  0  0  0  0  0  0  0
  128.8630  127.0790   65.1720 C   0  0  0  0  0  0  0  0  0  0  0  0
  130.3100  127.0560   62.4590 C   0  0  0  0  0  0  0  0  0  0  0  0
  130.5830  126.8110   61.1090 C   0  0  0  0  0  0  0  0  0  0  0  0
  130.6730  127.9070   60.0970 C   0  0  0  0  0  0  0  0  0  0  0  0
  130.0470  127.7830   58.8520 C   0  0  0  0  0  0  0  0  0  0  0  0
  130.1220  128.8030   57.9070 C   0  0  0  0  0  0  0  0  0  0  0  0
  130.8390  129.9820   58.1670 C   0  0  0  0  0  0  0  0  0  0  0  0
  130.9040  131.0260   57.2390 N   0  0  0  0  0  0  0  0  0  0  0  0
  129.8220  132.0310   57.1850 C   0  0  0  0  0  0  0  0  0  0  0  0
  129.8240  132.8740   55.8920 C   0  0  0  0  0  0  0  0  0  0  0  0
  131.0910  133.4870   55.7140 O   0  0  0  0  0  0  0  0  0  0  0  0
  132.1240  132.5210   55.6010 C   0  0  0  0  0  0  0  0  0  0  0  0
  132.1890  131.6620   56.8820 C   0  0  0  0  0  0  0  0  0  0  0  0
  131.4540  130.1070   59.4210 C   0  0  0  0  0  0  0  0  0  0  0  0
  131.3770  129.0870   60.3660 C   0  0  0  0  0  0  0  0  0  0  0  0
  130.7730  125.5470   60.6520 N   0  0  0  0  0  0  0  0  0  0  0  0
  130.6900  124.5040   61.5130 C   0  0  0  0  0  0  0  0  0  0  0  0
  130.9540  122.9230   60.7420 S   0  0  0  0  0  0  0  0  0  0  0  0
  129.5280  121.8720   61.1510 C   0  0  0  0  0  0  0  0  0  0  0  0
  128.2190  122.4390   60.5980 C   0  0  0  0  0  0  0  0  0  0  0  0
  127.3430  122.8100   61.3810 O   0  0  0  0  0  0  0  0  0  0  0  0
  128.1270  122.4850   59.2520 N   0  0  0  0  0  0  0  0  0  0  0  0
  127.0590  122.9680   58.5100 C   0  0  0  0  0  0  0  0  0  0  0  0
  126.5180  122.4390   57.4340 N   0  0  0  0  0  0  0  0  0  0  0  0
  125.5120  123.1650   56.9900 C   0  0  0  0  0  0  0  0  0  0  0  0
  125.2160  124.3160   57.7150 C   0  0  0  0  0  0  0  0  0  0  0  0
  126.3240  124.4440   59.0480 S   0  0  0  0  0  0  0  0  0  0  0  0
  131.7322  125.2826   65.5326 H   0  0  0  0  0  0  0  0  0  0  0  0
  131.3145  125.8437   67.9115 H   0  0  0  0  0  0  0  0  0  0  0  0
  131.0653  128.2792   69.1817 H   0  0  0  0  0  0  0  0  0  0  0  0
  129.5750  129.3302   69.1118 H   0  0  0  0  0  0  0  0  0  0  0  0
  130.3945  127.4859   71.4091 H   0  0  0  0  0  0  0  0  0  0  0  0
  130.4376  129.2857   71.3966 H   0  0  0  0  0  0  0  0  0  0  0  0
  128.2948  126.3880   71.3474 H   0  0  0  0  0  0  0  0  0  0  0  0
  126.7941  127.3791   71.2840 H   0  0  0  0  0  0  0  0  0  0  0  0
  127.3760  126.3452   69.0686 H   0  0  0  0  0  0  0  0  0  0  0  0
  127.3646  128.1716   69.0452 H   0  0  0  0  0  0  0  0  0  0  0  0
  127.7378  127.9843   66.7744 H   0  0  0  0  0  0  0  0  0  0  0  0
  128.1645  127.4284   64.3974 H   0  0  0  0  0  0  0  0  0  0  0  0
  130.1406  128.0866   62.8041 H   0  0  0  0  0  0  0  0  0  0  0  0
  129.4872  126.8660   58.6161 H   0  0  0  0  0  0  0  0  0  0  0  0
  129.6109  128.6831   56.9404 H   0  0  0  0  0  0  0  0  0  0  0  0
  128.8573  131.5073   57.2569 H   0  0  0  0  0  0  0  0  0  0  0  0
  129.9853  132.7253   58.0224 H   0  0  0  0  0  0  0  0  0  0  0  0
  129.6107  132.2222   55.0319 H   0  0  0  0  0  0  0  0  0  0  0  0
  129.0529  133.6547   55.9689 H   0  0  0  0  0  0  0  0  0  0  0  0
  131.9215  131.8711   54.7369 H   0  0  0  0  0  0  0  0  0  0  0  0
  133.0859  133.0367   55.4640 H   0  0  0  0  0  0  0  0  0  0  0  0
  132.9377  130.8704   56.7312 H   0  0  0  0  0  0  0  0  0  0  0  0
  132.4524  132.3384   57.7085 H   0  0  0  0  0  0  0  0  0  0  0  0
  132.0069  131.0268   59.6625 H   0  0  0  0  0  0  0  0  0  0  0  0
  131.8767  129.2102   61.3382 H   0  0  0  0  0  0  0  0  0  0  0  0
  129.6902  120.8716   60.7233 H   0  0  0  0  0  0  0  0  0  0  0  0
  129.4424  121.8279   62.2468 H   0  0  0  0  0  0  0  0  0  0  0  0
  128.9200  122.1600   58.7180 H   0  0  0  0  0  0  0  0  0  0  0  0
  124.9382  122.8777   56.0966 H   0  0  0  0  0  0  0  0  0  0  0  0
  124.4113  125.0289   57.4820 H   0  0  0  0  0  0  0  0  0  0  0  0
  1  2  3  0
  2  3  1  0
  3  4  2  0
  4  5  1  0
  5  6  2  0
  6  7  1  0
  7  8  2  0
  8  9  1  0
  9 10  1  0
 10 11  1  0
 11 12  1  0
 12 13  1  0
 13 14  1  0
  8 15  1  0
 15 16  2  0
  4 17  1  0
 17 18  2  0
 18 19  1  0
 19 20  2  0
 20 21  1  0
 21 22  2  0
 22 23  1  0
 23 24  1  0
 24 25  1  0
 25 26  1  0
 26 27  1  0
 27 28  1  0
 22 29  1  0
 29 30  2  0
 18 31  1  0
 31 32  2  0
 32 33  1  0
 33 34  1  0
 34 35  1  0
 35 36  2  0
 35 37  1  0
 37 38  1  0
 38 39  2  0
 39 40  1  0
 40 41  2  0
 41 42  1  0
 32  3  1  0
 42 38  1  0
 16  5  1  0
 30 19  1  0
 14  9  1  0
 28 23  1  0
  6 43  1  0
  7 44  1  0
 10 45  1  0
 10 46  1  0
 11 47  1  0
 11 48  1  0
 13 49  1  0
 13 50  1  0
 14 51  1  0
 14 52  1  0
 15 53  1  0
 16 54  1  0
 17 55  1  0
 20 56  1  0
 21 57  1  0
 24 58  1  0
 24 59  1  0
 25 60  1  0
 25 61  1  0
 27 62  1  0
 27 63  1  0
 28 64  1  0
 28 65  1  0
 29 66  1  0
 30 67  1  0
 34 68  1  0
 34 69  1  0
 37 70  1  0
 40 71  1  0
 41 72  1  0
M  END
>  <Binding energies>  (1) 
[-10.58]

>  <Ligand effiencies>  (1) 
[-0.24604651162790697]

>  <Interactions>  (1) 
["V-B:ALA:541:CB:9860, H-B:TYR:539:O:9836, V-B:MET:535:CE:9803, V-B:PRO:540:CA:9851, V-B:PRO:540:N:9852, V-B:PRO:540:CB:9853, V-B:PRO:540:C:9849, V-B:TYR:539:C:9835, V-A:HIS:456:CE1:4064, H-A:TYR:484:OH:4343, V-B:GLU:543:CD:9876, V-B:GLU:543:CG:9875, V-B:GLU:543:CB:9874, H-B:ALA:541:N:9859, V-A:LEU:363:CD1:3184, V-A:TYR:539:CE1:4870, V-A:TYR:539:CD1:4868, V-A:PRO:540:CD:4882, V-A:PRO:540:CB:4880, V-A:GLU:543:CB:4901, V-B:HIS:456:CE1:9037, H-A:TYR:539:N:4865, V-A:ILE:538:CG2:4858"]

$$$$
2c_Grossjean_2025
     RDKit          3D

 40 41  0  0  0  0  0  0  0  0999 V2000
  129.3790  126.8150   54.3860 C   0  0  0  0  0  0  0  0  0  0  0  0
  129.8570  125.4740   54.3770 O   0  0  0  0  0  0  0  0  0  0  0  0
  129.8000  124.7300   55.5400 C   0  0  0  0  0  0  0  0  0  0  0  0
  128.7530  123.8150   55.6430 C   0  0  0  0  0  0  0  0  0  0  0  0
  128.6110  123.0210   56.7770 C   0  0  0  0  0  0  0  0  0  0  0  0
  129.5220  123.1450   57.8370 C   0  0  0  0  0  0  0  0  0  0  0  0
  129.4710  122.3750   59.0130 N   0  0  0  0  0  0  0  0  0  0  0  0
  128.5170  122.3590   59.9690 C   0  0  0  0  0  0  0  0  0  0  0  0
  127.5250  123.0910   59.9820 O   0  0  0  0  0  0  0  0  0  0  0  0
  128.7640  121.3630   61.1120 C   0  0  0  0  0  0  0  0  0  0  0  0
  130.4250  120.6040   61.1480 S   0  0  0  0  0  0  0  0  0  0  0  0
  131.6670  121.8890   61.0740 C   0  0  0  0  0  0  0  0  0  0  0  0
  132.2860  122.0400   59.8750 N   0  0  0  0  0  0  0  0  0  0  0  0
  133.2420  122.9860   59.7480 C   0  0  0  0  0  0  0  0  0  0  0  0
  133.8970  123.0810   58.3840 C   0  0  0  0  0  0  0  0  0  0  0  0
  133.6160  123.8210   60.7980 C   0  0  0  0  0  0  0  0  0  0  0  0
  132.9860  123.6880   62.0430 C   0  0  0  0  0  0  0  0  0  0  0  0
  133.4090  124.6210   63.1950 C   0  0  0  0  0  0  0  0  0  0  0  0
  134.6880  124.9730   63.0510 F   0  0  0  0  0  0  0  0  0  0  0  0
  132.6550  125.7210   63.1940 F   0  0  0  0  0  0  0  0  0  0  0  0
  133.2830  124.0490   64.3950 F   0  0  0  0  0  0  0  0  0  0  0  0
  131.9840  122.6960   62.1920 C   0  0  0  0  0  0  0  0  0  0  0  0
  131.2920  122.5110   63.4730 C   0  0  0  0  0  0  0  0  0  0  0  0
  130.7470  122.3650   64.4830 N   0  0  0  0  0  0  0  0  0  0  0  0
  130.5810  124.0490   57.7320 C   0  0  0  0  0  0  0  0  0  0  0  0
  130.7190  124.8400   56.5950 C   0  0  0  0  0  0  0  0  0  0  0  0
  129.2581  127.1542   55.4254 H   0  0  0  0  0  0  0  0  0  0  0  0
  130.1008  127.4650   53.8698 H   0  0  0  0  0  0  0  0  0  0  0  0
  128.4088  126.8619   53.8698 H   0  0  0  0  0  0  0  0  0  0  0  0
  128.0311  123.7197   54.8186 H   0  0  0  0  0  0  0  0  0  0  0  0
  127.7855  122.2970   56.8423 H   0  0  0  0  0  0  0  0  0  0  0  0
  130.2900  121.8110   59.1830 H   0  0  0  0  0  0  0  0  0  0  0  0
  128.6136  121.8946   62.0632 H   0  0  0  0  0  0  0  0  0  0  0  0
  128.0573  120.5358   60.9499 H   0  0  0  0  0  0  0  0  0  0  0  0
  134.9788  123.2379   58.5069 H   0  0  0  0  0  0  0  0  0  0  0  0
  133.7226  122.1482   57.8277 H   0  0  0  0  0  0  0  0  0  0  0  0
  133.4648  123.9259   57.8277 H   0  0  0  0  0  0  0  0  0  0  0  0
  134.3996  124.5789   60.6514 H   0  0  0  0  0  0  0  0  0  0  0  0
  131.3095  124.1365   58.5515 H   0  0  0  0  0  0  0  0  0  0  0  0
  131.5522  125.5546   56.5230 H   0  0  0  0  0  0  0  0  0  0  0  0
  1  2  1  0
  2  3  1  0
  3  4  2  0
  4  5  1  0
  5  6  2  0
  6  7  1  0
  7  8  1  0
  8  9  2  0
  8 10  1  0
 10 11  1  0
 11 12  1  0
 12 13  2  0
 13 14  1  0
 14 15  1  0
 14 16  2  0
 16 17  1  0
 17 18  1  0
 18 19  1  0
 18 20  1  0
 18 21  1  0
 17 22  2  0
 22 23  1  0
 23 24  3  0
  6 25  1  0
 25 26  2  0
 26  3  1  0
 22 12  1  0
  1 27  1  0
  1 28  1  0
  1 29  1  0
  4 30  1  0
  5 31  1  0
  7 32  1  0
 10 33  1  0
 10 34  1  0
 15 35  1  0
 15 36  1  0
 15 37  1  0
 16 38  1  0
 25 39  1  0
 26 40  1  0
M  END
>  <Binding energies>  (1) 
[-6.64]

>  <Ligand effiencies>  (1) 
[-0.2459259259259259]

>  <Interactions>  (1) 
["V-B:ALA:541:CB:9860, V-B:TYR:539:CE2:9844, H-B:TYR:539:O:9836, V-B:MET:535:CE:9803, V-B:PRO:540:CA:9851, V-B:TYR:539:CD2:9842, V-B:ALA:541:CA:9858, V-B:PRO:540:C:9849, V-B:TYR:539:CE1:9843, V-B:TYR:539:C:9835, V-B:TYR:539:CZ:9845, V-A:ASP:366:CG:3208, H-A:TYR:484:OH:4343, V-A:ARG:545:CZ:4921, V-A:ASP:366:CB:3207, V-A:GLY:454:CA:4044, V-A:GLY:453:CA:4039, V-A:GLY:453:C:4037, V-A:ILE:369:CG2:3232, V-A:ILE:369:CD1:3234, V-A:LEU:475:CD2:4254, H-A:LYS:534:NZ:4818, V-A:TYR:531:CE1:4787, V-A:TYR:531:CZ:4789, V-A:ILE:369:CB:3231, V-A:ASP:366:CA:3205, V-A:ILE:369:CG1:3233"]

$$$$
2d_Ghoteimi_2023
     RDKit          3D

 68 72  0  0  0  0  0  0  0  0999 V2000
  130.2750  119.8130   60.6690 C   0  0  0  0  0  0  0  0  0  0  0  0
  129.5520  120.7110   61.4980 O   0  0  0  0  0  0  0  0  0  0  0  0
  129.0590  121.8620   60.9950 C   0  0  0  0  0  0  0  0  0  0  0  0
  127.9940  122.3900   61.3260 O   0  0  0  0  0  0  0  0  0  0  0  0
  130.0040  122.4600   59.9420 C   0  0  0  0  0  0  0  0  0  0  0  0
  131.5100  123.1420   60.7160 S   0  0  0  0  0  0  0  0  0  0  0  0
  131.0920  124.6940   61.4830 C   0  0  0  0  0  0  0  0  0  0  0  0
  131.0780  125.7340   60.6140 N   0  0  0  0  0  0  0  0  0  0  0  0
  130.7820  126.9800   61.0630 C   0  0  0  0  0  0  0  0  0  0  0  0
  130.8040  128.0790   60.0500 C   0  0  0  0  0  0  0  0  0  0  0  0
  130.1660  127.9220   58.8150 C   0  0  0  0  0  0  0  0  0  0  0  0
  130.1820  128.9420   57.8670 C   0  0  0  0  0  0  0  0  0  0  0  0
  130.8280  130.1610   58.1250 C   0  0  0  0  0  0  0  0  0  0  0  0
  130.8700  131.1890   57.1760 N   0  0  0  0  0  0  0  0  0  0  0  0
  129.6970  132.0470   56.9160 C   0  0  0  0  0  0  0  0  0  0  0  0
  129.8010  132.8560   55.6070 C   0  0  0  0  0  0  0  0  0  0  0  0
  130.9970  133.6210   55.6050 O   0  0  0  0  0  0  0  0  0  0  0  0
  132.1450  132.7930   55.6960 C   0  0  0  0  0  0  0  0  0  0  0  0
  132.1070  131.9760   57.0050 C   0  0  0  0  0  0  0  0  0  0  0  0
  131.4770  130.3080   59.3590 C   0  0  0  0  0  0  0  0  0  0  0  0
  131.4630  129.2880   60.3060 C   0  0  0  0  0  0  0  0  0  0  0  0
  130.4850  127.2090   62.4090 C   0  0  0  0  0  0  0  0  0  0  0  0
  130.4590  126.1470   63.3210 C   0  0  0  0  0  0  0  0  0  0  0  0
  130.1070  126.4620   64.7380 C   0  0  0  0  0  0  0  0  0  0  0  0
  128.9640  127.2100   65.0280 C   0  0  0  0  0  0  0  0  0  0  0  0
  128.6200  127.4990   66.3450 C   0  0  0  0  0  0  0  0  0  0  0  0
  129.4130  127.0490   67.4130 C   0  0  0  0  0  0  0  0  0  0  0  0
  129.0800  127.3160   68.7440 N   0  0  0  0  0  0  0  0  0  0  0  0
  127.6820  127.2510   69.2150 C   0  0  0  0  0  0  0  0  0  0  0  0
  127.5520  127.2190   70.7530 C   0  0  0  0  0  0  0  0  0  0  0  0
  128.2280  128.3300   71.3200 O   0  0  0  0  0  0  0  0  0  0  0  0
  129.6090  128.3260   70.9940 C   0  0  0  0  0  0  0  0  0  0  0  0
  129.7910  128.3910   69.4630 C   0  0  0  0  0  0  0  0  0  0  0  0
  130.5480  126.2830   67.1140 C   0  0  0  0  0  0  0  0  0  0  0  0
  130.8910  125.9940   65.7960 C   0  0  0  0  0  0  0  0  0  0  0  0
  130.7660  124.8460   62.8510 C   0  0  0  0  0  0  0  0  0  0  0  0
  130.7330  123.6990   63.7630 C   0  0  0  0  0  0  0  0  0  0  0  0
  130.7060  122.7950   64.4860 N   0  0  0  0  0  0  0  0  0  0  0  0
  130.8414  119.1095   61.2969 H   0  0  0  0  0  0  0  0  0  0  0  0
  129.5723  119.2537   60.0339 H   0  0  0  0  0  0  0  0  0  0  0  0
  130.9714  120.3802   60.0339 H   0  0  0  0  0  0  0  0  0  0  0  0
  130.2919  121.6725   59.2300 H   0  0  0  0  0  0  0  0  0  0  0  0
  129.4777  123.2766   59.4260 H   0  0  0  0  0  0  0  0  0  0  0  0
  129.6446  126.9800   58.5896 H   0  0  0  0  0  0  0  0  0  0  0  0
  129.6801  128.7898   56.9001 H   0  0  0  0  0  0  0  0  0  0  0  0
  128.8040  131.4072   56.8592 H   0  0  0  0  0  0  0  0  0  0  0  0
  129.6399  132.7733   57.7401 H   0  0  0  0  0  0  0  0  0  0  0  0
  129.8086  132.1652   54.7510 H   0  0  0  0  0  0  0  0  0  0  0  0
  128.9378  133.5336   55.5307 H   0  0  0  0  0  0  0  0  0  0  0  0
  132.1663  132.1049   54.8381 H   0  0  0  0  0  0  0  0  0  0  0  0
  133.0457  133.4244   55.6916 H   0  0  0  0  0  0  0  0  0  0  0  0
  132.9622  131.2842   57.0078 H   0  0  0  0  0  0  0  0  0  0  0  0
  132.1479  132.6962   57.8354 H   0  0  0  0  0  0  0  0  0  0  0  0
  132.0065  131.2458   59.5827 H   0  0  0  0  0  0  0  0  0  0  0  0
  131.9762  129.4334   61.2680 H   0  0  0  0  0  0  0  0  0  0  0  0
  130.2701  128.2310   62.7546 H   0  0  0  0  0  0  0  0  0  0  0  0
  128.3291  127.5745   64.2070 H   0  0  0  0  0  0  0  0  0  0  0  0
  127.7144  128.0880   66.5523 H   0  0  0  0  0  0  0  0  0  0  0  0
  127.1461  128.1348   68.8385 H   0  0  0  0  0  0  0  0  0  0  0  0
  127.2553  126.3113   68.8343 H   0  0  0  0  0  0  0  0  0  0  0  0
  126.4881  127.2599   71.0296 H   0  0  0  0  0  0  0  0  0  0  0  0
  128.0010  126.2900   71.1342 H   0  0  0  0  0  0  0  0  0  0  0  0
  130.0946  129.1983   71.4558 H   0  0  0  0  0  0  0  0  0  0  0  0
  130.0663  127.4000   71.3726 H   0  0  0  0  0  0  0  0  0  0  0  0
  129.4106  129.3598   69.1071 H   0  0  0  0  0  0  0  0  0  0  0  0
  130.8643  128.2659   69.2571 H   0  0  0  0  0  0  0  0  0  0  0  0
  131.1772  125.9045   67.9330 H   0  0  0  0  0  0  0  0  0  0  0  0
  131.7872  125.3919   65.5855 H   0  0  0  0  0  0  0  0  0  0  0  0
  1  2  1  0
  2  3  1  0
  3  4  2  0
  3  5  1  0
  5  6  1  0
  6  7  1  0
  7  8  2  0
  8  9  1  0
  9 10  1  0
 10 11  2  0
 11 12  1  0
 12 13  2  0
 13 14  1  0
 14 15  1  0
 15 16  1  0
 16 17  1  0
 17 18  1  0
 18 19  1  0
 13 20  1  0
 20 21  2  0
  9 22  2  0
 22 23  1  0
 23 24  1  0
 24 25  2  0
 25 26  1  0
 26 27  2  0
 27 28  1  0
 28 29  1  0
 29 30  1  0
 30 31  1  0
 31 32  1  0
 32 33  1  0
 27 34  1  0
 34 35  2  0
 23 36  2  0
 36 37  1  0
 37 38  3  0
 36  7  1  0
 21 10  1  0
 35 24  1  0
 19 14  1  0
 33 28  1  0
  1 39  1  0
  1 40  1  0
  1 41  1  0
  5 42  1  0
  5 43  1  0
 11 44  1  0
 12 45  1  0
 15 46  1  0
 15 47  1  0
 16 48  1  0
 16 49  1  0
 18 50  1  0
 18 51  1  0
 19 52  1  0
 19 53  1  0
 20 54  1  0
 21 55  1  0
 22 56  1  0
 25 57  1  0
 26 58  1  0
 29 59  1  0
 29 60  1  0
 30 61  1  0
 30 62  1  0
 32 63  1  0
 32 64  1  0
 33 65  1  0
 33 66  1  0
 34 67  1  0
 35 68  1  0
M  END
>  <Binding energies>  (1) 
[-9.07]

>  <Ligand effiencies>  (1) 
[-0.2386842105263158]

>  <Interactions>  (1) 
["V-B:ALA:541:CB:9860, V-B:TYR:539:CD2:9842, V-B:GLU:543:C:9870, V-A:HIS:456:CE1:4064, H-A:TYR:484:OH:4343, V-B:GLU:543:CD:9876, V-A:GLU:543:CD:4903, H-B:ALA:541:N:9859, V-A:LEU:363:CD1:3184, V-A:TYR:539:CE1:4870, V-A:TYR:539:CD1:4868, V-A:PRO:540:CG:4881, V-A:PRO:540:CD:4882, V-A:PRO:540:CB:4880, V-B:HIS:456:CE1:9037, V-A:LEU:475:CD2:4254, H-A:TYR:539:N:4865, V-A:ILE:538:CG2:4858, H-B:LYS:547:NZ:9919, V-B:GLY:544:C:9880"]

$$$$
2d_Grossjean_2025
     RDKit          3D

 36 37  0  0  0  0  0  0  0  0999 V2000
  126.8970  128.0430   54.3920 C   0  0  0  0  0  0  0  0  0  0  0  0
  127.5230  129.2760   55.0160 C   0  0  0  0  0  0  0  0  0  0  0  0
  127.1210  129.7460   56.2640 C   0  0  0  0  0  0  0  0  0  0  0  0
  127.7330  130.8880   56.8010 C   0  0  0  0  0  0  0  0  0  0  0  0
  127.2820  131.3880   58.1870 C   0  0  0  0  0  0  0  0  0  0  0  0
  125.9600  131.2650   58.3080 F   0  0  0  0  0  0  0  0  0  0  0  0
  127.8720  130.6710   59.1460 F   0  0  0  0  0  0  0  0  0  0  0  0
  127.5870  132.6690   58.3990 F   0  0  0  0  0  0  0  0  0  0  0  0
  128.7450  131.5340   56.0450 C   0  0  0  0  0  0  0  0  0  0  0  0
  129.4470  132.7020   56.5810 C   0  0  0  0  0  0  0  0  0  0  0  0
  130.0030  133.6240   57.0070 N   0  0  0  0  0  0  0  0  0  0  0  0
  129.0710  130.9990   54.7760 C   0  0  0  0  0  0  0  0  0  0  0  0
  130.2920  131.7020   53.6830 S   0  0  0  0  0  0  0  0  0  0  0  0
  131.9450  131.1520   54.2210 C   0  0  0  0  0  0  0  0  0  0  0  0
  132.2850  131.5870   55.6500 C   0  0  0  0  0  0  0  0  0  0  0  0
  132.5710  132.7660   55.8640 O   0  0  0  0  0  0  0  0  0  0  0  0
  132.2740  130.6070   56.5770 N   0  0  0  0  0  0  0  0  0  0  0  0
  132.5350  130.6880   57.9580 C   0  0  0  0  0  0  0  0  0  0  0  0
  131.4430  131.0000   58.7710 C   0  0  0  0  0  0  0  0  0  0  0  0
  131.6030  131.1080   60.1500 C   0  0  0  0  0  0  0  0  0  0  0  0
  132.8610  130.9120   60.7160 C   0  0  0  0  0  0  0  0  0  0  0  0
  133.9590  130.6140   59.9140 C   0  0  0  0  0  0  0  0  0  0  0  0
  133.8030  130.5040   58.5360 C   0  0  0  0  0  0  0  0  0  0  0  0
  128.4830  129.8820   54.2810 N   0  0  0  0  0  0  0  0  0  0  0  0
  126.5526  127.3646   55.1865 H   0  0  0  0  0  0  0  0  0  0  0  0
  126.0414  128.3418   53.7685 H   0  0  0  0  0  0  0  0  0  0  0  0
  127.6431  127.5286   53.7685 H   0  0  0  0  0  0  0  0  0  0  0  0
  126.3299  129.2257   56.8239 H   0  0  0  0  0  0  0  0  0  0  0  0
  131.9826  130.0538   54.1706 H   0  0  0  0  0  0  0  0  0  0  0  0
  132.6815  131.6193   53.5508 H   0  0  0  0  0  0  0  0  0  0  0  0
  132.1090  129.6710   56.2370 H   0  0  0  0  0  0  0  0  0  0  0  0
  130.4527  131.1610   58.3201 H   0  0  0  0  0  0  0  0  0  0  0  0
  130.7404  131.3469   60.7894 H   0  0  0  0  0  0  0  0  0  0  0  0
  132.9875  130.9934   61.8057 H   0  0  0  0  0  0  0  0  0  0  0  0
  134.9492  130.4656   60.3695 H   0  0  0  0  0  0  0  0  0  0  0  0
  134.6703  130.2735   57.8999 H   0  0  0  0  0  0  0  0  0  0  0  0
  1  2  1  0
  2  3  2  0
  3  4  1  0
  4  5  1  0
  5  6  1  0
  5  7  1  0
  5  8  1  0
  4  9  2  0
  9 10  1  0
 10 11  3  0
  9 12  1  0
 12 13  1  0
 13 14  1  0
 14 15  1  0
 15 16  2  0
 15 17  1  0
 17 18  1  0
 18 19  2  0
 19 20  1  0
 20 21  2  0
 21 22  1  0
 22 23  2  0
 12 24  2  0
 24  2  1  0
 23 18  1  0
  1 25  1  0
  1 26  1  0
  1 27  1  0
  3 28  1  0
 14 29  1  0
 14 30  1  0
 17 31  1  0
 19 32  1  0
 20 33  1  0
 21 34  1  0
 22 35  1  0
 23 36  1  0
M  END
>  <Binding energies>  (1) 
[-6.78]

>  <Ligand effiencies>  (1) 
[-0.2712]

>  <Interactions>  (1) 
["V-A:ASP:366:CG:3208, V-A:TYR:539:CZ:4872, V-A:LEU:363:CD1:3184, V-A:LEU:363:CA:3180, V-A:TYR:539:CE1:4870, V-A:ASN:362:C:3167, V-A:TYR:539:CD1:4868, V-A:PRO:540:CA:4878, V-A:LEU:363:CB:3182, H-A:TYR:531:OH:4790, V-A:TYR:539:CG:4867, V-A:TYR:531:CE2:4788, V-A:PRO:540:CB:4880, V-A:TYR:539:CE2:4871, V-A:TYR:539:CD2:4869, H-A:TYR:539:N:4865, V-A:TYR:531:CZ:4789, V-A:ILE:538:CD1:4860, V-A:MET:535:CG:4828, V-A:ASN:362:CB:3171, V-B:TYR:531:CZ:9762"]

$$$$
2e_Grossjean_2025
     RDKit          3D

 38 39  0  0  0  0  0  0  0  0999 V2000
  130.4210  131.7650   60.9820 C   0  0  0  0  0  0  0  0  0  0  0  0
  131.5070  131.3720   59.9990 C   0  0  0  0  0  0  0  0  0  0  0  0
  132.7800  130.9890   60.4300 C   0  0  0  0  0  0  0  0  0  0  0  0
  133.7260  130.6300   59.4680 C   0  0  0  0  0  0  0  0  0  0  0  0
  133.3820  130.6620   58.1150 C   0  0  0  0  0  0  0  0  0  0  0  0
  132.0910  131.0640   57.7520 C   0  0  0  0  0  0  0  0  0  0  0  0
  131.7850  131.0370   56.3810 N   0  0  0  0  0  0  0  0  0  0  0  0
  131.4160  132.0680   55.5880 C   0  0  0  0  0  0  0  0  0  0  0  0
  131.3590  133.2460   55.9430 O   0  0  0  0  0  0  0  0  0  0  0  0
  131.0020  131.6960   54.1610 C   0  0  0  0  0  0  0  0  0  0  0  0
  130.7160  129.9070   53.9760 S   0  0  0  0  0  0  0  0  0  0  0  0
  129.4390  129.5070   55.1480 C   0  0  0  0  0  0  0  0  0  0  0  0
  129.0170  130.5510   55.9030 N   0  0  0  0  0  0  0  0  0  0  0  0
  128.0800  130.3250   56.8510 C   0  0  0  0  0  0  0  0  0  0  0  0
  127.6530  131.5370   57.6580 C   0  0  0  0  0  0  0  0  0  0  0  0
  127.5360  129.0640   57.0870 C   0  0  0  0  0  0  0  0  0  0  0  0
  127.9680  127.9710   56.3210 C   0  0  0  0  0  0  0  0  0  0  0  0
  127.3730  126.5800   56.6070 C   0  0  0  0  0  0  0  0  0  0  0  0
  126.4660  126.6610   57.5810 F   0  0  0  0  0  0  0  0  0  0  0  0
  126.7880  126.1000   55.5090 F   0  0  0  0  0  0  0  0  0  0  0  0
  128.2960  125.6940   56.9910 F   0  0  0  0  0  0  0  0  0  0  0  0
  128.9460  128.1930   55.3190 C   0  0  0  0  0  0  0  0  0  0  0  0
  129.4610  127.0870   54.5050 C   0  0  0  0  0  0  0  0  0  0  0  0
  129.8680  126.2140   53.8630 N   0  0  0  0  0  0  0  0  0  0  0  0
  131.1580  131.4100   58.6870 N   0  0  0  0  0  0  0  0  0  0  0  0
  130.7905  131.6313   62.0094 H   0  0  0  0  0  0  0  0  0  0  0  0
  130.1480  132.8189   60.8248 H   0  0  0  0  0  0  0  0  0  0  0  0
  129.5368  131.1298   60.8248 H   0  0  0  0  0  0  0  0  0  0  0  0
  133.0305  130.9708   61.5009 H   0  0  0  0  0  0  0  0  0  0  0  0
  134.7371  130.3235   59.7743 H   0  0  0  0  0  0  0  0  0  0  0  0
  134.1144  130.3756   57.3459 H   0  0  0  0  0  0  0  0  0  0  0  0
  131.8940  130.1370   55.9380 H   0  0  0  0  0  0  0  0  0  0  0  0
  130.0746  132.2315   53.9096 H   0  0  0  0  0  0  0  0  0  0  0  0
  131.8221  131.9799   53.4851 H   0  0  0  0  0  0  0  0  0  0  0  0
  127.7331  131.3097   58.7313 H   0  0  0  0  0  0  0  0  0  0  0  0
  128.3053  132.3884   57.4139 H   0  0  0  0  0  0  0  0  0  0  0  0
  126.6111  131.7915   57.4139 H   0  0  0  0  0  0  0  0  0  0  0  0
  126.7736  128.9266   57.8680 H   0  0  0  0  0  0  0  0  0  0  0  0
  1  2  1  0
  2  3  2  0
  3  4  1  0
  4  5  2  0
  5  6  1  0
  6  7  1  0
  7  8  1  0
  8  9  2  0
  8 10  1  0
 10 11  1  0
 11 12  1  0
 12 13  2  0
 13 14  1  0
 14 15  1  0
 14 16  2  0
 16 17  1  0
 17 18  1  0
 18 19  1  0
 18 20  1  0
 18 21  1  0
 17 22  2  0
 22 23  1  0
 23 24  3  0
  6 25  2  0
 25  2  1  0
 22 12  1  0
  1 26  1  0
  1 27  1  0
  1 28  1  0
  3 29  1  0
  4 30  1  0
  5 31  1  0
  7 32  1  0
 10 33  1  0
 10 34  1  0
 15 35  1  0
 15 36  1  0
 15 37  1  0
 16 38  1  0
M  END
>  <Binding energies>  (1) 
[-6.43]

>  <Ligand effiencies>  (1) 
[-0.24730769230769228]

>  <Interactions>  (1) 
["V-B:MET:535:CE:9803, V-A:TYR:539:CZ:4872, V-A:LEU:363:CD1:3184, V-A:LEU:363:CA:3180, V-A:TYR:539:CE1:4870, V-A:ASN:362:C:3167, V-A:PRO:540:CA:4878, H-A:TYR:531:OH:4790, V-A:TYR:531:CE2:4788, V-A:PRO:540:CB:4880, V-A:TYR:539:CE2:4871, H-A:TYR:539:N:4865, H-A:LYS:534:NZ:4818, V-A:TYR:531:CE1:4787, V-A:TYR:531:CZ:4789, V-A:ILE:538:CD1:4860, V-B:TYR:531:CZ:9762"]

$$$$
2f_Grossjean_2025
     RDKit          3D

 35 36  0  0  0  0  0  0  0  0999 V2000
  126.8630  128.0540   54.3520 C   0  0  0  0  0  0  0  0  0  0  0  0
  127.5310  129.2530   54.9990 C   0  0  0  0  0  0  0  0  0  0  0  0
  127.1660  129.6950   56.2690 C   0  0  0  0  0  0  0  0  0  0  0  0
  127.8080  130.8140   56.8210 C   0  0  0  0  0  0  0  0  0  0  0  0
  127.3810  131.2940   58.2220 C   0  0  0  0  0  0  0  0  0  0  0  0
  128.0900  130.6610   59.1590 F   0  0  0  0  0  0  0  0  0  0  0  0
  127.5900  132.6060   58.3360 F   0  0  0  0  0  0  0  0  0  0  0  0
  126.0910  131.0690   58.4760 F   0  0  0  0  0  0  0  0  0  0  0  0
  128.8190  131.4580   56.0640 C   0  0  0  0  0  0  0  0  0  0  0  0
  129.4780  132.6640   56.5730 C   0  0  0  0  0  0  0  0  0  0  0  0
  129.9990  133.6160   56.9760 N   0  0  0  0  0  0  0  0  0  0  0  0
  129.1420  130.9240   54.7940 C   0  0  0  0  0  0  0  0  0  0  0  0
  130.3900  131.5950   53.7150 S   0  0  0  0  0  0  0  0  0  0  0  0
  132.0220  131.0580   54.3320 C   0  0  0  0  0  0  0  0  0  0  0  0
  132.3820  131.5580   55.7390 C   0  0  0  0  0  0  0  0  0  0  0  0
  132.6660  132.7410   55.9310 O   0  0  0  0  0  0  0  0  0  0  0  0
  132.3750  130.6020   56.6920 N   0  0  0  0  0  0  0  0  0  0  0  0
  132.6430  130.7100   58.0700 C   0  0  0  0  0  0  0  0  0  0  0  0
  133.8790  130.4390   58.6850 C   0  0  0  0  0  0  0  0  0  0  0  0
  134.0130  130.5920   60.0660 C   0  0  0  0  0  0  0  0  0  0  0  0
  132.9050  131.0170   60.8010 C   0  0  0  0  0  0  0  0  0  0  0  0
  131.7050  131.2930   60.2310 N   0  0  0  0  0  0  0  0  0  0  0  0
  131.5910  131.1400   58.8870 C   0  0  0  0  0  0  0  0  0  0  0  0
  128.4960  129.8550   54.2670 N   0  0  0  0  0  0  0  0  0  0  0  0
  126.4864  127.3780   55.1337 H   0  0  0  0  0  0  0  0  0  0  0  0
  126.0246  128.3945   53.7266 H   0  0  0  0  0  0  0  0  0  0  0  0
  127.5938  127.5203   53.7266 H   0  0  0  0  0  0  0  0  0  0  0  0
  126.3811  129.1711   56.8342 H   0  0  0  0  0  0  0  0  0  0  0  0
  132.0359  129.9582   54.3470 H   0  0  0  0  0  0  0  0  0  0  0  0
  132.7668  131.4956   53.6509 H   0  0  0  0  0  0  0  0  0  0  0  0
  132.1810  129.6610   56.3800 H   0  0  0  0  0  0  0  0  0  0  0  0
  134.7361  130.1080   58.0802 H   0  0  0  0  0  0  0  0  0  0  0  0
  134.9710  130.3822   60.5643 H   0  0  0  0  0  0  0  0  0  0  0  0
  133.0093  131.1332   61.8899 H   0  0  0  0  0  0  0  0  0  0  0  0
  130.6228  131.3654   58.4161 H   0  0  0  0  0  0  0  0  0  0  0  0
  1  2  1  0
  2  3  2  0
  3  4  1  0
  4  5  1  0
  5  6  1  0
  5  7  1  0
  5  8  1  0
  4  9  2  0
  9 10  1  0
 10 11  3  0
  9 12  1  0
 12 13  1  0
 13 14  1  0
 14 15  1  0
 15 16  2  0
 15 17  1  0
 17 18  1  0
 18 19  2  0
 19 20  1  0
 20 21  2  0
 21 22  1  0
 22 23  2  0
 12 24  2  0
 24  2  1  0
 23 18  1  0
  1 25  1  0
  1 26  1  0
  1 27  1  0
  3 28  1  0
 14 29  1  0
 14 30  1  0
 17 31  1  0
 19 32  1  0
 20 33  1  0
 21 34  1  0
 23 35  1  0
M  END
>  <Binding energies>  (1) 
[-6.3]

>  <Ligand effiencies>  (1) 
[-0.252]

>  <Interactions>  (1) 
["V-A:ASP:366:CG:3208, V-A:TYR:539:CZ:4872, V-A:LEU:363:CD1:3184, V-A:LEU:363:CA:3180, V-A:TYR:539:CE1:4870, V-A:ASN:362:C:3167, V-A:TYR:539:CD1:4868, V-A:PRO:540:CA:4878, V-A:LEU:363:CB:3182, H-A:TYR:531:OH:4790, V-A:TYR:539:CG:4867, V-A:TYR:531:CE2:4788, V-A:PRO:540:CB:4880, V-A:TYR:539:CE2:4871, V-A:TYR:539:CD2:4869, H-A:TYR:539:N:4865, V-A:TYR:531:CZ:4789, V-A:ILE:538:CD1:4860, V-A:MET:535:CG:4828, V-A:ASN:362:CB:3171, V-B:TYR:531:CE1:9760, V-B:TYR:531:CZ:9762"]

$$$$
2g_Grossjean_2025
     RDKit          3D

 39 40  0  0  0  0  0  0  0  0999 V2000
  129.8960  121.6110   60.7910 C   0  0  0  0  0  0  0  0  0  0  0  0
  128.7970  122.3150   60.0190 C   0  0  0  0  0  0  0  0  0  0  0  0
  127.6860  122.8570   60.6610 C   0  0  0  0  0  0  0  0  0  0  0  0
  126.6920  123.4920   59.9010 C   0  0  0  0  0  0  0  0  0  0  0  0
  125.4660  124.0780   60.6280 C   0  0  0  0  0  0  0  0  0  0  0  0
  125.3140  123.4980   61.8200 F   0  0  0  0  0  0  0  0  0  0  0  0
  125.6300  125.3900   60.8050 F   0  0  0  0  0  0  0  0  0  0  0  0
  124.3300  123.9010   59.9510 F   0  0  0  0  0  0  0  0  0  0  0  0
  126.8570  123.5670   58.4940 C   0  0  0  0  0  0  0  0  0  0  0  0
  125.8220  124.1690   57.6490 C   0  0  0  0  0  0  0  0  0  0  0  0
  125.0040  124.6440   56.9830 N   0  0  0  0  0  0  0  0  0  0  0  0
  128.0340  123.0150   57.9320 C   0  0  0  0  0  0  0  0  0  0  0  0
  128.4120  123.0440   56.1930 S   0  0  0  0  0  0  0  0  0  0  0  0
  129.1180  124.6840   55.8140 C   0  0  0  0  0  0  0  0  0  0  0  0
  130.3760  125.0420   56.6180 C   0  0  0  0  0  0  0  0  0  0  0  0
  130.3690  125.9530   57.4480 O   0  0  0  0  0  0  0  0  0  0  0  0
  131.4660  124.3030   56.3460 N   0  0  0  0  0  0  0  0  0  0  0  0
  132.7740  124.4500   56.9870 C   0  0  0  0  0  0  0  0  0  0  0  0
  132.8770  123.8010   58.3630 C   0  0  0  0  0  0  0  0  0  0  0  0
  132.5800  124.5470   59.5080 C   0  0  0  0  0  0  0  0  0  0  0  0
  132.6360  123.9450   60.7630 C   0  0  0  0  0  0  0  0  0  0  0  0
  132.9780  122.6000   60.8690 C   0  0  0  0  0  0  0  0  0  0  0  0
  133.2630  121.8480   59.7300 C   0  0  0  0  0  0  0  0  0  0  0  0
  133.2060  122.4480   58.4760 C   0  0  0  0  0  0  0  0  0  0  0  0
  128.9730  122.3850   58.6800 N   0  0  0  0  0  0  0  0  0  0  0  0
  129.7171  121.7256   61.8703 H   0  0  0  0  0  0  0  0  0  0  0  0
  129.8996  120.5421   60.5314 H   0  0  0  0  0  0  0  0  0  0  0  0
  130.8685  122.0547   60.5314 H   0  0  0  0  0  0  0  0  0  0  0  0
  127.5887  122.7878   61.7545 H   0  0  0  0  0  0  0  0  0  0  0  0
  129.3764  124.7071   54.7450 H   0  0  0  0  0  0  0  0  0  0  0  0
  128.3519  125.4235   56.0900 H   0  0  0  0  0  0  0  0  0  0  0  0
  131.3850  123.5570   55.6700 H   0  0  0  0  0  0  0  0  0  0  0  0
  133.5310  123.9924   56.3331 H   0  0  0  0  0  0  0  0  0  0  0  0
  132.9316  125.5285   57.1357 H   0  0  0  0  0  0  0  0  0  0  0  0
  132.3026  125.6076   59.4178 H   0  0  0  0  0  0  0  0  0  0  0  0
  132.4108  124.5303   61.6667 H   0  0  0  0  0  0  0  0  0  0  0  0
  133.0239  122.1259   61.8605 H   0  0  0  0  0  0  0  0  0  0  0  0
  133.5317  120.7853   59.8224 H   0  0  0  0  0  0  0  0  0  0  0  0
  133.4200  121.8569   57.5733 H   0  0  0  0  0  0  0  0  0  0  0  0
  1  2  1  0
  2  3  2  0
  3  4  1  0
  4  5  1  0
  5  6  1  0
  5  7  1  0
  5  8  1  0
  4  9  2  0
  9 10  1  0
 10 11  3  0
  9 12  1  0
 12 13  1  0
 13 14  1  0
 14 15  1  0
 15 16  2  0
 15 17  1  0
 17 18  1  0
 18 19  1  0
 19 20  2  0
 20 21  1  0
 21 22  2  0
 22 23  1  0
 23 24  2  0
 12 25  2  0
 25  2  1  0
 24 19  1  0
  1 26  1  0
  1 27  1  0
  1 28  1  0
  3 29  1  0
 14 30  1  0
 14 31  1  0
 17 32  1  0
 18 33  1  0
 18 34  1  0
 20 35  1  0
 21 36  1  0
 22 37  1  0
 23 38  1  0
 24 39  1  0
M  END
>  <Binding energies>  (1) 
[-6.48]

>  <Ligand effiencies>  (1) 
[-0.24923076923076926]

>  <Interactions>  (1) 
["H-B:TYR:531:OH:9763, V-B:ALA:541:CB:9860, V-B:TYR:539:CE2:9844, V-B:MET:535:CE:9803, V-B:PRO:540:CA:9851, V-B:PRO:540:CB:9853, V-B:PRO:540:C:9849, V-B:TYR:539:C:9835, V-B:TYR:539:CZ:9845, V-A:ASP:366:CG:3208, V-B:GLU:543:CD:9876, V-A:ASP:366:CB:3207, H-A:TYR:531:OH:4790, V-A:ILE:369:CG2:3232, V-A:ILE:369:CD1:3234, V-B:LEU:363:CA:8152, V-A:TYR:531:CE1:4787, V-A:TYR:531:CZ:4789, V-B:ASP:366:CG:8180, V-A:ILE:369:CB:3231, H-B:TYR:539:OH:9846"]

$$$$
2h_Grossjean_2025
     RDKit          3D

 51 52  0  0  0  0  0  0  0  0999 V2000
  128.6960  127.8940   70.1200 C   0  0  0  0  0  0  0  0  0  0  0  0
  128.1240  126.8960   69.2820 O   0  0  0  0  0  0  0  0  0  0  0  0
  128.7570  126.5610   68.0980 C   0  0  0  0  0  0  0  0  0  0  0  0
  129.5820  125.4350   67.9420 C   0  0  0  0  0  0  0  0  0  0  0  0
  130.1790  125.1570   66.7150 C   0  0  0  0  0  0  0  0  0  0  0  0
  129.9670  125.9940   65.6180 C   0  0  0  0  0  0  0  0  0  0  0  0
  130.6170  125.6580   64.2770 C   0  0  0  0  0  0  0  0  0  0  0  0
  129.9090  124.6210   63.5260 N   0  0  0  0  0  0  0  0  0  0  0  0
  130.1080  123.2980   63.6630 C   0  0  0  0  0  0  0  0  0  0  0  0
  130.9810  122.8180   64.3890 O   0  0  0  0  0  0  0  0  0  0  0  0
  129.1640  122.3980   62.8540 C   0  0  0  0  0  0  0  0  0  0  0  0
  129.2960  122.5720   61.0430 S   0  0  0  0  0  0  0  0  0  0  0  0
  127.6750  123.0020   60.4470 C   0  0  0  0  0  0  0  0  0  0  0  0
  126.7500  123.1320   61.4300 N   0  0  0  0  0  0  0  0  0  0  0  0
  125.4800  123.4390   61.0860 C   0  0  0  0  0  0  0  0  0  0  0  0
  124.4970  123.5610   62.2360 C   0  0  0  0  0  0  0  0  0  0  0  0
  125.0830  123.6330   59.7650 C   0  0  0  0  0  0  0  0  0  0  0  0
  126.0310  123.5220   58.7360 C   0  0  0  0  0  0  0  0  0  0  0  0
  125.5760  123.7490   57.2810 C   0  0  0  0  0  0  0  0  0  0  0  0
  126.2730  124.7460   56.7360 F   0  0  0  0  0  0  0  0  0  0  0  0
  125.7500  122.6720   56.5120 F   0  0  0  0  0  0  0  0  0  0  0  0
  124.2790  124.0590   57.2500 F   0  0  0  0  0  0  0  0  0  0  0  0
  127.3700  123.2080   59.0800 C   0  0  0  0  0  0  0  0  0  0  0  0
  128.4100  123.1390   58.0500 C   0  0  0  0  0  0  0  0  0  0  0  0
  129.2290  123.0890   57.2350 N   0  0  0  0  0  0  0  0  0  0  0  0
  129.1650  127.1360   65.7650 C   0  0  0  0  0  0  0  0  0  0  0  0
  128.9540  127.9670   64.6910 O   0  0  0  0  0  0  0  0  0  0  0  0
  127.6440  127.8960   64.1420 C   0  0  0  0  0  0  0  0  0  0  0  0
  128.5470  127.4040   66.9990 C   0  0  0  0  0  0  0  0  0  0  0  0
  127.7450  128.5110   67.1420 O   0  0  0  0  0  0  0  0  0  0  0  0
  128.4480  129.7460   67.1110 C   0  0  0  0  0  0  0  0  0  0  0  0
  128.5397  127.6213   71.1741 H   0  0  0  0  0  0  0  0  0  0  0  0
  129.7744  127.9694   69.9168 H   0  0  0  0  0  0  0  0  0  0  0  0
  128.2160  128.8626   69.9168 H   0  0  0  0  0  0  0  0  0  0  0  0
  129.7582  124.7662   68.7974 H   0  0  0  0  0  0  0  0  0  0  0  0
  130.8225  124.2712   66.6093 H   0  0  0  0  0  0  0  0  0  0  0  0
  130.6453  126.5720   63.6656 H   0  0  0  0  0  0  0  0  0  0  0  0
  131.6225  125.2687   64.4946 H   0  0  0  0  0  0  0  0  0  0  0  0
  129.1520  124.9370   62.9360 H   0  0  0  0  0  0  0  0  0  0  0  0
  129.3845  121.3520   63.1132 H   0  0  0  0  0  0  0  0  0  0  0  0
  128.1423  122.7077   63.1188 H   0  0  0  0  0  0  0  0  0  0  0  0
  125.0393  123.4937   63.1906 H   0  0  0  0  0  0  0  0  0  0  0  0
  123.9802  124.5302   62.1754 H   0  0  0  0  0  0  0  0  0  0  0  0
  123.7590  122.7476   62.1754 H   0  0  0  0  0  0  0  0  0  0  0  0
  124.0351  123.8712   59.5302 H   0  0  0  0  0  0  0  0  0  0  0  0
  126.9065  127.8560   64.9572 H   0  0  0  0  0  0  0  0  0  0  0  0
  127.4575  128.7854   63.5221 H   0  0  0  0  0  0  0  0  0  0  0  0
  127.5547  126.9917   63.5221 H   0  0  0  0  0  0  0  0  0  0  0  0
  128.6405  130.0842   68.1398 H   0  0  0  0  0  0  0  0  0  0  0  0
  129.4043  129.6104   66.5846 H   0  0  0  0  0  0  0  0  0  0  0  0
  127.8432  130.4991   66.5846 H   0  0  0  0  0  0  0  0  0  0  0  0
  1  2  1  0
  2  3  1  0
  3  4  2  0
  4  5  1  0
  5  6  2  0
  6  7  1  0
  7  8  1  0
  8  9  1  0
  9 10  2  0
  9 11  1  0
 11 12  1  0
 12 13  1  0
 13 14  2  0
 14 15  1  0
 15 16  1  0
 15 17  2  0
 17 18  1  0
 18 19  1  0
 19 20  1  0
 19 21  1  0
 19 22  1  0
 18 23  2  0
 23 24  1  0
 24 25  3  0
  6 26  1  0
 26 27  1  0
 27 28  1  0
 26 29  2  0
 29 30  1  0
 30 31  1  0
 29  3  1  0
 23 13  1  0
  1 32  1  0
  1 33  1  0
  1 34  1  0
  4 35  1  0
  5 36  1  0
  7 37  1  0
  7 38  1  0
  8 39  1  0
 11 40  1  0
 11 41  1  0
 16 42  1  0
 16 43  1  0
 16 44  1  0
 17 45  1  0
 28 46  1  0
 28 47  1  0
 28 48  1  0
 31 49  1  0
 31 50  1  0
 31 51  1  0
M  END
>  <Binding energies>  (1) 
[-6.49]

>  <Ligand effiencies>  (1) 
[-0.2028125]

>  <Interactions>  (1) 
["V-B:ALA:541:CB:9860, V-B:MET:535:CE:9803, V-B:PRO:540:CD:9855, V-B:PRO:540:CA:9851, V-B:ALA:541:CA:9858, V-B:PRO:540:N:9852, V-B:PRO:540:CB:9853, V-B:PRO:540:C:9849, V-B:TYR:539:C:9835, V-A:HIS:456:CE1:4064, H-A:TYR:484:OH:4343, V-B:GLU:543:CD:9876, V-B:GLU:543:CG:9875, V-B:GLU:543:CB:9874, V-A:GLU:543:CD:4903, V-B:ASN:362:CB:8143, H-B:ALA:541:N:9859, H-B:GLU:543:OE2:9878, V-A:GLU:543:CB:4901, V-B:HIS:456:CE1:9037, V-B:LEU:363:CD1:8156, V-A:GLU:543:CG:4902, V-B:GLU:543:CA:9872, V-B:TYR:531:CE2:9761, V-B:ASN:362:CG:8144"]

$$$$
2i_Grossjean_2025
     RDKit          3D

 32 33  0  0  0  0  0  0  0  0999 V2000
  128.0120  122.7470   61.2800 C   0  0  0  0  0  0  0  0  0  0  0  0
  129.3430  122.6980   60.5540 C   0  0  0  0  0  0  0  0  0  0  0  0
  130.2320  121.6410   60.7300 C   0  0  0  0  0  0  0  0  0  0  0  0
  131.4500  121.6410   60.0340 C   0  0  0  0  0  0  0  0  0  0  0  0
  132.4220  120.4640   60.2410 C   0  0  0  0  0  0  0  0  0  0  0  0
  132.9170  120.0690   59.0660 F   0  0  0  0  0  0  0  0  0  0  0  0
  133.4290  120.8350   61.0320 F   0  0  0  0  0  0  0  0  0  0  0  0
  131.8380  119.4050   60.8060 F   0  0  0  0  0  0  0  0  0  0  0  0
  131.7350  122.7270   59.1680 C   0  0  0  0  0  0  0  0  0  0  0  0
  132.9920  122.7780   58.4150 C   0  0  0  0  0  0  0  0  0  0  0  0
  133.9840  122.8180   57.8200 N   0  0  0  0  0  0  0  0  0  0  0  0
  130.7760  123.7600   59.0510 C   0  0  0  0  0  0  0  0  0  0  0  0
  131.0290  125.1800   57.9980 S   0  0  0  0  0  0  0  0  0  0  0  0
  130.9900  124.6160   56.2690 C   0  0  0  0  0  0  0  0  0  0  0  0
  129.5950  124.1570   55.8410 C   0  0  0  0  0  0  0  0  0  0  0  0
  129.1900  124.4440   54.7130 O   0  0  0  0  0  0  0  0  0  0  0  0
  128.8880  123.4780   56.7700 N   0  0  0  0  0  0  0  0  0  0  0  0
  127.6050  122.9770   56.6290 C   0  0  0  0  0  0  0  0  0  0  0  0
  126.3930  123.4340   57.1670 C   0  0  0  0  0  0  0  0  0  0  0  0
  125.4460  122.5550   56.6920 C   0  0  0  0  0  0  0  0  0  0  0  0
  126.0530  121.6300   55.9100 O   0  0  0  0  0  0  0  0  0  0  0  0
  127.4190  121.9140   55.8760 N   0  0  0  0  0  0  0  0  0  0  0  0
  129.6020  123.7400   59.7330 N   0  0  0  0  0  0  0  0  0  0  0  0
  128.1863  122.7406   62.3661 H   0  0  0  0  0  0  0  0  0  0  0  0
  127.4753  123.6655   61.0002 H   0  0  0  0  0  0  0  0  0  0  0  0
  127.4092  121.8704   61.0002 H   0  0  0  0  0  0  0  0  0  0  0  0
  129.9814  120.8128   61.4092 H   0  0  0  0  0  0  0  0  0  0  0  0
  131.3047  125.4456   55.6188 H   0  0  0  0  0  0  0  0  0  0  0  0
  131.6701  123.7561   56.1794 H   0  0  0  0  0  0  0  0  0  0  0  0
  129.3140  123.3400   57.6750 H   0  0  0  0  0  0  0  0  0  0  0  0
  126.2343  124.3025   57.8232 H   0  0  0  0  0  0  0  0  0  0  0  0
  124.3691  122.5969   56.9121 H   0  0  0  0  0  0  0  0  0  0  0  0
  1  2  1  0
  2  3  2  0
  3  4  1  0
  4  5  1  0
  5  6  1  0
  5  7  1  0
  5  8  1  0
  4  9  2  0
  9 10  1  0
 10 11  3  0
  9 12  1  0
 12 13  1  0
 13 14  1  0
 14 15  1  0
 15 16  2  0
 15 17  1  0
 17 18  1  0
 18 19  1  0
 19 20  2  0
 20 21  1  0
 21 22  1  0
 12 23  2  0
 23  2  1  0
 22 18  2  0
  1 24  1  0
  1 25  1  0
  1 26  1  0
  3 27  1  0
 14 28  1  0
 14 29  1  0
 17 30  1  0
 19 31  1  0
 20 32  1  0
M  END
>  <Binding energies>  (1) 
[-6.65]

>  <Ligand effiencies>  (1) 
[-0.27708333333333335]

>  <Interactions>  (1) 
["V-B:ALA:541:CB:9860, V-B:TYR:539:CE2:9844, V-B:MET:535:CE:9803, V-B:PRO:540:CD:9855, V-B:PRO:540:CA:9851, V-A:TRP:381:CH2:3367, V-B:TYR:539:CD2:9842, V-B:PRO:540:N:9852, V-B:PRO:540:CB:9853, V-B:PRO:540:C:9849, V-B:TYR:539:CE1:9843, V-B:TYR:539:C:9835, V-B:TYR:539:CZ:9845, H-A:TYR:531:OH:4790, V-A:ILE:369:CG2:3232, V-A:ILE:369:CD1:3234, V-A:TRP:381:CZ3:3366, V-A:LEU:475:CD2:4254, H-A:LYS:534:NZ:4818, V-A:TYR:531:CE1:4787, V-A:TYR:531:CZ:4789, V-A:TRP:381:CZ2:3365, H-B:TYR:539:N:9838, H-B:TYR:539:OH:9846"]

$$$$
2j_Grossjean_2025
     RDKit          3D

 32 33  0  0  0  0  0  0  0  0999 V2000
  128.0150  122.7160   61.2140 C   0  0  0  0  0  0  0  0  0  0  0  0
  129.3600  122.6590   60.5130 C   0  0  0  0  0  0  0  0  0  0  0  0
  130.2370  121.5950   60.7030 C   0  0  0  0  0  0  0  0  0  0  0  0
  131.4680  121.5860   60.0290 C   0  0  0  0  0  0  0  0  0  0  0  0
  132.4260  120.4000   60.2510 C   0  0  0  0  0  0  0  0  0  0  0  0
  133.4270  120.7660   61.0530 F   0  0  0  0  0  0  0  0  0  0  0  0
  131.7720  119.3820   60.8120 F   0  0  0  0  0  0  0  0  0  0  0  0
  132.9650  119.9530   59.1140 F   0  0  0  0  0  0  0  0  0  0  0  0
  131.7780  122.6710   59.1720 C   0  0  0  0  0  0  0  0  0  0  0  0
  133.0490  122.7140   58.4430 C   0  0  0  0  0  0  0  0  0  0  0  0
  134.0530  122.7470   57.8670 N   0  0  0  0  0  0  0  0  0  0  0  0
  130.8270  123.7110   59.0370 C   0  0  0  0  0  0  0  0  0  0  0  0
  131.1100  125.1260   57.9830 S   0  0  0  0  0  0  0  0  0  0  0  0
  130.9390  124.5920   56.2460 C   0  0  0  0  0  0  0  0  0  0  0  0
  129.5150  124.1940   55.8310 C   0  0  0  0  0  0  0  0  0  0  0  0
  129.1270  124.3600   54.6720 O   0  0  0  0  0  0  0  0  0  0  0  0
  128.7590  123.6760   56.8250 N   0  0  0  0  0  0  0  0  0  0  0  0
  127.4460  123.2350   56.7250 C   0  0  0  0  0  0  0  0  0  0  0  0
  127.0150  122.0830   56.2580 N   0  0  0  0  0  0  0  0  0  0  0  0
  125.7000  121.9980   56.3140 C   0  0  0  0  0  0  0  0  0  0  0  0
  125.0340  123.1020   56.8380 C   0  0  0  0  0  0  0  0  0  0  0  0
  126.2030  124.3110   57.2770 S   0  0  0  0  0  0  0  0  0  0  0  0
  129.6400  123.7000   59.6970 N   0  0  0  0  0  0  0  0  0  0  0  0
  128.1686  122.7095   62.3032 H   0  0  0  0  0  0  0  0  0  0  0  0
  127.4888  123.6373   60.9234 H   0  0  0  0  0  0  0  0  0  0  0  0
  127.4128  121.8426   60.9234 H   0  0  0  0  0  0  0  0  0  0  0  0
  129.9674  120.7678   61.3761 H   0  0  0  0  0  0  0  0  0  0  0  0
  131.2646  125.4205   55.5998 H   0  0  0  0  0  0  0  0  0  0  0  0
  131.5566  123.6882   56.1380 H   0  0  0  0  0  0  0  0  0  0  0  0
  129.1800  123.5970   57.7390 H   0  0  0  0  0  0  0  0  0  0  0  0
  125.1601  121.1049   55.9662 H   0  0  0  0  0  0  0  0  0  0  0  0
  123.9442  123.1945   56.9553 H   0  0  0  0  0  0  0  0  0  0  0  0
  1  2  1  0
  2  3  2  0
  3  4  1  0
  4  5  1  0
  5  6  1  0
  5  7  1  0
  5  8  1  0
  4  9  2  0
  9 10  1  0
 10 11  3  0
  9 12  1  0
 12 13  1  0
 13 14  1  0
 14 15  1  0
 15 16  2  0
 15 17  1  0
 17 18  1  0
 18 19  2  0
 19 20  1  0
 20 21  2  0
 21 22  1  0
 12 23  2  0
 23  2  1  0
 22 18  1  0
  1 24  1  0
  1 25  1  0
  1 26  1  0
  3 27  1  0
 14 28  1  0
 14 29  1  0
 17 30  1  0
 20 31  1  0
 21 32  1  0
M  END
>  <Binding energies>  (1) 
[-5.86]

>  <Ligand effiencies>  (1) 
[-0.24416666666666667]

>  <Interactions>  (1) 
["V-B:ALA:541:CB:9860, V-B:TYR:539:CE2:9844, V-B:MET:535:CE:9803, V-B:PRO:540:CD:9855, V-B:PRO:540:CA:9851, V-A:TRP:381:CH2:3367, V-B:TYR:539:CD2:9842, V-B:PRO:540:N:9852, V-B:PRO:540:CB:9853, V-B:PRO:540:C:9849, V-B:TYR:539:C:9835, V-B:TYR:539:CZ:9845, H-A:TYR:531:OH:4790, V-A:ILE:369:CG2:3232, V-A:ILE:369:CD1:3234, V-A:TRP:381:CZ3:3366, V-A:LEU:475:CD2:4254, H-A:LYS:534:NZ:4818, V-B:LEU:363:CD1:8156, V-A:TYR:531:CE1:4787, V-A:TYR:531:CZ:4789, V-A:TRP:381:CZ2:3365, H-B:TYR:539:N:9838, V-B:ILE:538:CG2:9831, V-A:ILE:369:CB:3231, H-B:TYR:539:OH:9846, V-B:TYR:539:CA:9837"]

$$$$
2k_Grossjean_2025
     RDKit          3D

 50 50  0  0  0  0  0  0  0  0999 V2000
  127.3420  122.3160   56.6110 C   0  0  0  0  0  0  0  0  0  0  0  0
  126.1290  121.6820   56.2370 O   0  0  0  0  0  0  0  0  0  0  0  0
  124.9690  122.4050   56.6280 C   0  0  0  0  0  0  0  0  0  0  0  0
  125.3500  123.4830   57.6510 C   0  0  0  0  0  0  0  0  0  0  0  0
  125.3080  124.7550   57.0210 O   0  0  0  0  0  0  0  0  0  0  0  0
  126.2130  125.7070   57.5660 C   0  0  0  0  0  0  0  0  0  0  0  0
  126.8250  125.1190   58.8440 C   0  0  0  0  0  0  0  0  0  0  0  0
  128.0560  125.7830   59.0820 O   0  0  0  0  0  0  0  0  0  0  0  0
  129.1000  124.9600   59.5800 C   0  0  0  0  0  0  0  0  0  0  0  0
  129.2270  123.7160   58.6800 C   0  0  0  0  0  0  0  0  0  0  0  0
  129.4340  122.4810   59.4390 N   0  0  0  0  0  0  0  0  0  0  0  0
  128.6550  122.0390   60.4450 C   0  0  0  0  0  0  0  0  0  0  0  0
  127.6410  122.6280   60.8260 O   0  0  0  0  0  0  0  0  0  0  0  0
  129.1160  120.7420   61.1260 C   0  0  0  0  0  0  0  0  0  0  0  0
  130.8320  120.2340   60.7600 S   0  0  0  0  0  0  0  0  0  0  0  0
  131.8880  121.6770   60.7440 C   0  0  0  0  0  0  0  0  0  0  0  0
  132.4330  121.9940   59.5420 N   0  0  0  0  0  0  0  0  0  0  0  0
  133.2460  123.0710   59.4570 C   0  0  0  0  0  0  0  0  0  0  0  0
  133.8240  123.3520   58.0840 C   0  0  0  0  0  0  0  0  0  0  0  0
  133.5400  123.8780   60.5520 C   0  0  0  0  0  0  0  0  0  0  0  0
  132.9810  123.5740   61.8030 C   0  0  0  0  0  0  0  0  0  0  0  0
  133.3130  124.4810   63.0040 C   0  0  0  0  0  0  0  0  0  0  0  0
  133.0410  123.9060   64.1760 F   0  0  0  0  0  0  0  0  0  0  0  0
  134.6110  124.7890   62.9990 F   0  0  0  0  0  0  0  0  0  0  0  0
  132.6020  125.6070   62.9350 F   0  0  0  0  0  0  0  0  0  0  0  0
  132.1330  122.4430   61.9090 C   0  0  0  0  0  0  0  0  0  0  0  0
  131.5250  122.0760   63.1910 C   0  0  0  0  0  0  0  0  0  0  0  0
  131.0450  121.7870   64.2050 N   0  0  0  0  0  0  0  0  0  0  0  0
  127.4132  122.3532   57.7081 H   0  0  0  0  0  0  0  0  0  0  0  0
  128.1926  121.7472   56.2074 H   0  0  0  0  0  0  0  0  0  0  0  0
  127.3606  123.3391   56.2074 H   0  0  0  0  0  0  0  0  0  0  0  0
  124.5207  122.8823   55.7441 H   0  0  0  0  0  0  0  0  0  0  0  0
  124.2448  121.7126   57.0820 H   0  0  0  0  0  0  0  0  0  0  0  0
  124.6384  123.4633   58.4896 H   0  0  0  0  0  0  0  0  0  0  0  0
  126.3637  123.2910   58.0325 H   0  0  0  0  0  0  0  0  0  0  0  0
  127.0091  125.9216   56.8379 H   0  0  0  0  0  0  0  0  0  0  0  0
  125.6826  126.6425   57.7974 H   0  0  0  0  0  0  0  0  0  0  0  0
  126.1437  125.2788   59.6927 H   0  0  0  0  0  0  0  0  0  0  0  0
  126.9885  124.0373   58.7287 H   0  0  0  0  0  0  0  0  0  0  0  0
  130.0470  125.5196   59.5723 H   0  0  0  0  0  0  0  0  0  0  0  0
  128.8724  124.6523   60.6113 H   0  0  0  0  0  0  0  0  0  0  0  0
  128.3044  123.6145   58.0897 H   0  0  0  0  0  0  0  0  0  0  0  0
  130.1095  123.8612   58.0396 H   0  0  0  0  0  0  0  0  0  0  0  0
  130.2390  121.9290   59.1800 H   0  0  0  0  0  0  0  0  0  0  0  0
  129.0271  120.8794   62.2138 H   0  0  0  0  0  0  0  0  0  0  0  0
  128.4716  119.9443   60.7279 H   0  0  0  0  0  0  0  0  0  0  0  0
  134.8085  123.8306   58.1916 H   0  0  0  0  0  0  0  0  0  0  0  0
  133.9341  122.4069   57.5321 H   0  0  0  0  0  0  0  0  0  0  0  0
  133.1487  124.0224   57.5321 H   0  0  0  0  0  0  0  0  0  0  0  0
  134.2049  124.7468   60.4380 H   0  0  0  0  0  0  0  0  0  0  0  0
  1  2  1  0
  2  3  1  0
  3  4  1  0
  4  5  1  0
  5  6  1  0
  6  7  1  0
  7  8  1  0
  8  9  1  0
  9 10  1  0
 10 11  1  0
 11 12  1  0
 12 13  2  0
 12 14  1  0
 14 15  1  0
 15 16  1  0
 16 17  2  0
 17 18  1  0
 18 19  1  0
 18 20  2  0
 20 21  1  0
 21 22  1  0
 22 23  1  0
 22 24  1  0
 22 25  1  0
 21 26  2  0
 26 27  1  0
 27 28  3  0
 26 16  1  0
  1 29  1  0
  1 30  1  0
  1 31  1  0
  3 32  1  0
  3 33  1  0
  4 34  1  0
  4 35  1  0
  6 36  1  0
  6 37  1  0
  7 38  1  0
  7 39  1  0
  9 40  1  0
  9 41  1  0
 10 42  1  0
 10 43  1  0
 11 44  1  0
 14 45  1  0
 14 46  1  0
 19 47  1  0
 19 48  1  0
 19 49  1  0
 20 50  1  0
M  END
>  <Binding energies>  (1) 
[-5.24]

>  <Ligand effiencies>  (1) 
[-0.1806896551724138]

>  <Interactions>  (1) 
["H-B:TYR:531:OH:9763, V-B:ALA:541:CB:9860, H-B:TYR:539:O:9836, V-B:MET:535:CE:9803, V-B:PRO:540:CD:9855, V-B:PRO:540:CA:9851, V-B:ALA:541:CA:9858, V-B:PRO:540:N:9852, V-B:PRO:540:CB:9853, V-B:PRO:540:C:9849, V-B:TYR:539:C:9835, V-A:ASP:366:CG:3208, H-A:TYR:484:OH:4343, V-A:ARG:545:CZ:4921, H-B:ALA:541:N:9859, V-A:ASP:366:CB:3207, V-A:GLY:454:CA:4044, V-A:GLY:453:CA:4039, V-A:GLY:453:C:4037, V-A:ILE:369:CG2:3232, V-A:ILE:369:CD1:3234, V-A:LEU:475:CD2:4254, V-B:LEU:363:CD1:8156, H-B:TYR:539:N:9838, V-B:PRO:540:CG:9854, V-B:ILE:538:CG2:9831, V-A:ASP:366:C:3203, V-A:ILE:369:CB:3231, V-B:TYR:539:CD1:9841, V-B:TYR:539:CA:9837, V-B:TYR:539:CG:9840, V-A:ASP:366:CA:3205"]

$$$$
3aa_Grossjean_2025
     RDKit          3D

 52 54  0  0  0  0  0  0  0  0999 V2000
  132.3080  132.8400   55.8200 C   0  0  0  0  0  0  0  0  0  0  0  0
  131.1820  132.8310   54.7820 C   0  0  0  0  0  0  0  0  0  0  0  0
  129.9820  133.3070   55.3790 O   0  0  0  0  0  0  0  0  0  0  0  0
  129.4290  132.6670   56.4410 C   0  0  0  0  0  0  0  0  0  0  0  0
  128.9110  133.2550   57.3950 O   0  0  0  0  0  0  0  0  0  0  0  0
  129.5230  131.1700   56.3470 C   0  0  0  0  0  0  0  0  0  0  0  0
  129.0120  130.4600   55.2510 C   0  0  0  0  0  0  0  0  0  0  0  0
  129.1200  129.0730   55.1940 C   0  0  0  0  0  0  0  0  0  0  0  0
  129.7460  128.3700   56.2240 C   0  0  0  0  0  0  0  0  0  0  0  0
  129.8060  126.9710   56.0670 N   0  0  0  0  0  0  0  0  0  0  0  0
  129.8790  126.2340   54.9360 C   0  0  0  0  0  0  0  0  0  0  0  0
  129.8840  126.6840   53.7900 O   0  0  0  0  0  0  0  0  0  0  0  0
  129.9480  124.7210   55.1390 C   0  0  0  0  0  0  0  0  0  0  0  0
  131.1750  124.2640   56.4020 S   0  0  0  0  0  0  0  0  0  0  0  0
  130.2860  123.4940   57.7370 C   0  0  0  0  0  0  0  0  0  0  0  0
  128.9440  123.6670   57.6680 N   0  0  0  0  0  0  0  0  0  0  0  0
  128.1460  123.1320   58.6270 C   0  0  0  0  0  0  0  0  0  0  0  0
  126.6720  123.3550   58.4720 C   0  0  0  0  0  0  0  0  0  0  0  0
  126.0600  123.2410   57.2130 C   0  0  0  0  0  0  0  0  0  0  0  0
  124.6910  123.4460   57.0610 C   0  0  0  0  0  0  0  0  0  0  0  0
  123.9140  123.7680   58.1690 C   0  0  0  0  0  0  0  0  0  0  0  0
  124.4960  123.8840   59.4270 C   0  0  0  0  0  0  0  0  0  0  0  0
  125.8640  123.6760   59.5760 C   0  0  0  0  0  0  0  0  0  0  0  0
  128.6880  122.3940   59.6840 C   0  0  0  0  0  0  0  0  0  0  0  0
  130.0770  122.2160   59.7870 C   0  0  0  0  0  0  0  0  0  0  0  0
  130.6370  121.4080   60.9720 C   0  0  0  0  0  0  0  0  0  0  0  0
  131.5950  122.0580   61.6360 F   0  0  0  0  0  0  0  0  0  0  0  0
  129.6640  121.1350   61.8430 F   0  0  0  0  0  0  0  0  0  0  0  0
  131.1590  120.2610   60.5340 F   0  0  0  0  0  0  0  0  0  0  0  0
  130.9060  122.7910   58.7930 C   0  0  0  0  0  0  0  0  0  0  0  0
  132.3660  122.6860   58.8800 C   0  0  0  0  0  0  0  0  0  0  0  0
  133.5190  122.6040   58.9490 N   0  0  0  0  0  0  0  0  0  0  0  0
  130.2470  129.0720   57.3310 C   0  0  0  0  0  0  0  0  0  0  0  0
  130.1360  130.4580   57.3860 C   0  0  0  0  0  0  0  0  0  0  0  0
  131.8747  132.8365   56.8311 H   0  0  0  0  0  0  0  0  0  0  0  0
  132.9362  131.9468   55.6873 H   0  0  0  0  0  0  0  0  0  0  0  0
  132.9219  133.7431   55.6873 H   0  0  0  0  0  0  0  0  0  0  0  0
  131.4554  133.4825   53.9390 H   0  0  0  0  0  0  0  0  0  0  0  0
  131.0278  131.8046   54.4177 H   0  0  0  0  0  0  0  0  0  0  0  0
  128.5219  131.0032   54.4296 H   0  0  0  0  0  0  0  0  0  0  0  0
  128.7092  128.5279   54.3314 H   0  0  0  0  0  0  0  0  0  0  0  0
  129.7360  126.4530   56.9310 H   0  0  0  0  0  0  0  0  0  0  0  0
  128.9589  124.3588   55.4560 H   0  0  0  0  0  0  0  0  0  0  0  0
  130.2506  124.2617   54.1864 H   0  0  0  0  0  0  0  0  0  0  0  0
  126.6708  122.9861   56.3344 H   0  0  0  0  0  0  0  0  0  0  0  0
  124.2258  123.3537   56.0685 H   0  0  0  0  0  0  0  0  0  0  0  0
  122.8328  123.9319   58.0496 H   0  0  0  0  0  0  0  0  0  0  0  0
  123.8777  124.1390   60.3003 H   0  0  0  0  0  0  0  0  0  0  0  0
  126.3198  123.7642   60.5732 H   0  0  0  0  0  0  0  0  0  0  0  0
  128.0224  121.9504   60.4391 H   0  0  0  0  0  0  0  0  0  0  0  0
  130.7279  128.5261   58.1561 H   0  0  0  0  0  0  0  0  0  0  0  0
  130.5344  131.0010   58.2557 H   0  0  0  0  0  0  0  0  0  0  0  0
  1  2  1  0
  2  3  1  0
  3  4  1  0
  4  5  2  0
  4  6  1  0
  6  7  2  0
  7  8  1  0
  8  9  2  0
  9 10  1  0
 10 11  1  0
 11 12  2  0
 11 13  1  0
 13 14  1  0
 14 15  1  0
 15 16  2  0
 16 17  1  0
 17 18  1  0
 18 19  2  0
 19 20  1  0
 20 21  2  0
 21 22  1  0
 22 23  2  0
 17 24  2  0
 24 25  1  0
 25 26  1  0
 26 27  1  0
 26 28  1  0
 26 29  1  0
 25 30  2  0
 30 31  1  0
 31 32  3  0
  9 33  1  0
 33 34  2  0
 34  6  1  0
 30 15  1  0
 23 18  1  0
  1 35  1  0
  1 36  1  0
  1 37  1  0
  2 38  1  0
  2 39  1  0
  7 40  1  0
  8 41  1  0
 10 42  1  0
 13 43  1  0
 13 44  1  0
 19 45  1  0
 20 46  1  0
 21 47  1  0
 22 48  1  0
 23 49  1  0
 24 50  1  0
 33 51  1  0
 34 52  1  0
M  END
>  <Binding energies>  (1) 
[-7.81]

>  <Ligand effiencies>  (1) 
[-0.22314285714285714]

>  <Interactions>  (1) 
["V-B:ALA:541:CB:9860, V-B:TYR:539:CE2:9844, V-B:MET:535:CE:9803, V-B:PRO:540:CA:9851, V-A:TRP:381:CH2:3367, V-B:TYR:539:CD2:9842, V-B:ALA:541:CA:9858, V-B:PRO:540:N:9852, V-B:PRO:540:CB:9853, V-B:TYR:539:C:9835, V-B:TYR:539:CZ:9845, V-A:LEU:363:CD1:3184, V-A:TYR:539:CE1:4870, V-A:TYR:539:CD1:4868, V-A:PRO:540:CG:4881, H-A:TYR:531:OH:4790, V-A:TYR:539:CG:4867, V-A:PRO:540:CD:4882, V-A:ILE:538:CA:4855, V-A:PRO:540:CB:4880, V-A:LEU:475:CD2:4254, V-B:LEU:363:CA:8152, H-A:TYR:539:N:4865, H-A:LYS:534:NZ:4818, V-A:ILE:538:CG2:4858, V-B:LEU:363:CD1:8156, V-A:TYR:531:CE1:4787, V-A:TYR:531:CZ:4789, V-A:ILE:538:CD1:4860, V-A:ILE:538:CB:4857, V-B:ASP:366:CG:8180, V-B:LEU:363:CB:8154, H-B:TYR:539:OH:9846"]

$$$$
3ab_Grossjean_2025
     RDKit          3D

 49 51  0  0  0  0  0  0  0  0999 V2000
  129.2570  132.3850   54.3650 C   0  0  0  0  0  0  0  0  0  0  0  0
  129.8830  133.2810   55.2730 O   0  0  0  0  0  0  0  0  0  0  0  0
  130.8990  132.8690   56.0730 C   0  0  0  0  0  0  0  0  0  0  0  0
  132.0700  132.7790   55.6940 O   0  0  0  0  0  0  0  0  0  0  0  0
  130.4570  132.5370   57.4690 C   0  0  0  0  0  0  0  0  0  0  0  0
  131.1810  131.6570   58.2880 C   0  0  0  0  0  0  0  0  0  0  0  0
  130.7480  131.3670   59.5790 C   0  0  0  0  0  0  0  0  0  0  0  0
  129.5750  131.9560   60.0760 C   0  0  0  0  0  0  0  0  0  0  0  0
  129.0490  131.7420   61.3640 N   0  0  0  0  0  0  0  0  0  0  0  0
  129.5890  131.9970   62.5740 C   0  0  0  0  0  0  0  0  0  0  0  0
  130.7050  132.4760   62.7730 O   0  0  0  0  0  0  0  0  0  0  0  0
  128.7070  131.6420   63.7740 C   0  0  0  0  0  0  0  0  0  0  0  0
  127.6860  130.1710   63.4610 S   0  0  0  0  0  0  0  0  0  0  0  0
  128.4850  128.7880   64.2480 C   0  0  0  0  0  0  0  0  0  0  0  0
  128.1250  128.6190   65.5420 N   0  0  0  0  0  0  0  0  0  0  0  0
  128.6540  127.5980   66.2640 C   0  0  0  0  0  0  0  0  0  0  0  0
  128.2010  127.4780   67.6890 C   0  0  0  0  0  0  0  0  0  0  0  0
  129.0500  127.8450   68.7460 C   0  0  0  0  0  0  0  0  0  0  0  0
  128.6340  127.7370   70.0700 C   0  0  0  0  0  0  0  0  0  0  0  0
  127.3600  127.2580   70.3570 C   0  0  0  0  0  0  0  0  0  0  0  0
  126.5010  126.8830   69.3290 C   0  0  0  0  0  0  0  0  0  0  0  0
  126.9210  126.9930   68.0070 C   0  0  0  0  0  0  0  0  0  0  0  0
  129.5880  126.7260   65.6930 C   0  0  0  0  0  0  0  0  0  0  0  0
  129.9920  126.8920   64.3600 C   0  0  0  0  0  0  0  0  0  0  0  0
  131.0260  125.9140   63.7700 C   0  0  0  0  0  0  0  0  0  0  0  0
  132.1440  126.5230   63.3690 F   0  0  0  0  0  0  0  0  0  0  0  0
  131.3730  125.0050   64.6830 F   0  0  0  0  0  0  0  0  0  0  0  0
  130.5080  125.2870   62.7120 F   0  0  0  0  0  0  0  0  0  0  0  0
  129.4340  127.9580   63.6110 C   0  0  0  0  0  0  0  0  0  0  0  0
  129.8640  128.2100   62.2330 C   0  0  0  0  0  0  0  0  0  0  0  0
  130.2050  128.4070   61.1450 N   0  0  0  0  0  0  0  0  0  0  0  0
  128.8560  132.8370   59.2660 C   0  0  0  0  0  0  0  0  0  0  0  0
  129.2900  133.1230   57.9750 C   0  0  0  0  0  0  0  0  0  0  0  0
  128.7159  131.6106   54.9284 H   0  0  0  0  0  0  0  0  0  0  0  0
  128.5490  132.9398   53.7318 H   0  0  0  0  0  0  0  0  0  0  0  0
  130.0215  131.9110   53.7318 H   0  0  0  0  0  0  0  0  0  0  0  0
  132.1011  131.1910   57.9056 H   0  0  0  0  0  0  0  0  0  0  0  0
  131.3257  130.6756   60.2101 H   0  0  0  0  0  0  0  0  0  0  0  0
  128.1420  131.2980   61.3670 H   0  0  0  0  0  0  0  0  0  0  0  0
  129.3524  131.4474   64.6433 H   0  0  0  0  0  0  0  0  0  0  0  0
  128.0314  132.4898   63.9603 H   0  0  0  0  0  0  0  0  0  0  0  0
  130.0588  128.2234   68.5242 H   0  0  0  0  0  0  0  0  0  0  0  0
  129.3105  128.0295   70.8866 H   0  0  0  0  0  0  0  0  0  0  0  0
  127.0298  127.1752   71.4030 H   0  0  0  0  0  0  0  0  0  0  0  0
  125.4954  126.5017   69.5599 H   0  0  0  0  0  0  0  0  0  0  0  0
  126.2392  126.6951   67.1968 H   0  0  0  0  0  0  0  0  0  0  0  0
  130.0079  125.9054   66.2933 H   0  0  0  0  0  0  0  0  0  0  0  0
  127.9398  133.3085   59.6510 H   0  0  0  0  0  0  0  0  0  0  0  0
  128.7112  133.8156   57.3463 H   0  0  0  0  0  0  0  0  0  0  0  0
  1  2  1  0
  2  3  1  0
  3  4  2  0
  3  5  1  0
  5  6  2  0
  6  7  1  0
  7  8  2  0
  8  9  1  0
  9 10  1  0
 10 11  2  0
 10 12  1  0
 12 13  1  0
 13 14  1  0
 14 15  2  0
 15 16  1  0
 16 17  1  0
 17 18  2  0
 18 19  1  0
 19 20  2  0
 20 21  1  0
 21 22  2  0
 16 23  2  0
 23 24  1  0
 24 25  1  0
 25 26  1  0
 25 27  1  0
 25 28  1  0
 24 29  2  0
 29 30  1  0
 30 31  3  0
  8 32  1  0
 32 33  2  0
 33  5  1  0
 29 14  1  0
 22 17  1  0
  1 34  1  0
  1 35  1  0
  1 36  1  0
  6 37  1  0
  7 38  1  0
  9 39  1  0
 12 40  1  0
 12 41  1  0
 18 42  1  0
 19 43  1  0
 20 44  1  0
 21 45  1  0
 22 46  1  0
 23 47  1  0
 32 48  1  0
 33 49  1  0
M  END
>  <Binding energies>  (1) 
[-7.47]

>  <Ligand effiencies>  (1) 
[-0.21970588235294117]

>  <Interactions>  (1) 
["V-B:GLU:543:C:9870, V-B:GLU:543:CD:9876, V-A:ARG:545:CZ:4921, V-B:GLU:543:CB:9874, V-A:GLU:543:CD:4903, V-A:PRO:540:N:4879, V-A:TYR:539:CE1:4870, V-A:TYR:539:C:4862, V-A:TYR:539:CD1:4868, V-A:PRO:540:CA:4878, V-A:TYR:539:CA:4864, V-A:TYR:539:CG:4867, H-A:ALA:541:N:4886, V-A:PRO:540:CD:4882, V-A:PRO:540:CB:4880, V-A:TYR:539:CD2:4869, V-B:ARG:545:CG:9890, V-B:HIS:456:CE1:9037, H-A:TYR:539:N:4865, V-A:GLU:543:CG:4902, V-A:ALA:541:CB:4887, V-B:HIS:456:CD2:9035, V-B:GLY:544:C:9880, V-B:ARG:545:CA:9887"]

$$$$
3ac_Grossjean_2025
     RDKit          3D

 47 49  0  0  0  0  0  0  0  0999 V2000
  131.6950  132.6190   55.1400 C   0  0  0  0  0  0  0  0  0  0  0  0
  130.6410  133.2480   55.8620 O   0  0  0  0  0  0  0  0  0  0  0  0
  130.3240  132.7930   57.1280 C   0  0  0  0  0  0  0  0  0  0  0  0
  129.1170  133.2380   57.6650 C   0  0  0  0  0  0  0  0  0  0  0  0
  128.7120  132.8300   58.9320 C   0  0  0  0  0  0  0  0  0  0  0  0
  129.5160  131.9740   59.6870 C   0  0  0  0  0  0  0  0  0  0  0  0
  129.0130  131.6010   60.9470 N   0  0  0  0  0  0  0  0  0  0  0  0
  129.5420  131.8120   62.1720 C   0  0  0  0  0  0  0  0  0  0  0  0
  130.5810  132.4330   62.4000 O   0  0  0  0  0  0  0  0  0  0  0  0
  128.7550  131.2190   63.3410 C   0  0  0  0  0  0  0  0  0  0  0  0
  128.1290  129.5510   62.9730 S   0  0  0  0  0  0  0  0  0  0  0  0
  128.6260  128.4520   64.2860 C   0  0  0  0  0  0  0  0  0  0  0  0
  129.7260  127.7210   63.9820 N   0  0  0  0  0  0  0  0  0  0  0  0
  130.2270  126.8430   64.8890 C   0  0  0  0  0  0  0  0  0  0  0  0
  131.4420  126.0690   64.4720 C   0  0  0  0  0  0  0  0  0  0  0  0
  132.4370  125.7350   65.4050 C   0  0  0  0  0  0  0  0  0  0  0  0
  133.5640  125.0120   65.0250 C   0  0  0  0  0  0  0  0  0  0  0  0
  133.7130  124.6130   63.7010 C   0  0  0  0  0  0  0  0  0  0  0  0
  132.7460  124.9340   62.7560 C   0  0  0  0  0  0  0  0  0  0  0  0
  131.6200  125.6580   63.1400 C   0  0  0  0  0  0  0  0  0  0  0  0
  129.6110  126.6670   66.1320 C   0  0  0  0  0  0  0  0  0  0  0  0
  128.4580  127.3940   66.4630 C   0  0  0  0  0  0  0  0  0  0  0  0
  127.8080  127.1650   67.8410 C   0  0  0  0  0  0  0  0  0  0  0  0
  126.5010  126.9090   67.7610 F   0  0  0  0  0  0  0  0  0  0  0  0
  128.3790  126.1270   68.4540 F   0  0  0  0  0  0  0  0  0  0  0  0
  127.9610  128.2520   68.6000 F   0  0  0  0  0  0  0  0  0  0  0  0
  127.9350  128.3060   65.5110 C   0  0  0  0  0  0  0  0  0  0  0  0
  126.6910  129.0300   65.7810 C   0  0  0  0  0  0  0  0  0  0  0  0
  125.7080  129.6010   65.9940 N   0  0  0  0  0  0  0  0  0  0  0  0
  130.7290  131.5160   59.1500 C   0  0  0  0  0  0  0  0  0  0  0  0
  131.1310  131.9260   57.8820 C   0  0  0  0  0  0  0  0  0  0  0  0
  132.4179  132.1876   55.8480 H   0  0  0  0  0  0  0  0  0  0  0  0
  131.2804  131.8205   54.5071 H   0  0  0  0  0  0  0  0  0  0  0  0
  132.2009  133.3630   54.5071 H   0  0  0  0  0  0  0  0  0  0  0  0
  128.4788  133.9180   57.0816 H   0  0  0  0  0  0  0  0  0  0  0  0
  127.7539  133.1835   59.3407 H   0  0  0  0  0  0  0  0  0  0  0  0
  128.1070  131.1560   60.9200 H   0  0  0  0  0  0  0  0  0  0  0  0
  129.4141  131.1640   64.2200 H   0  0  0  0  0  0  0  0  0  0  0  0
  127.8890  131.8704   63.5298 H   0  0  0  0  0  0  0  0  0  0  0  0
  132.3239  126.0498   66.4529 H   0  0  0  0  0  0  0  0  0  0  0  0
  134.3335  124.7573   65.7686 H   0  0  0  0  0  0  0  0  0  0  0  0
  134.6021  124.0396   63.3999 H   0  0  0  0  0  0  0  0  0  0  0  0
  132.8693  124.6178   61.7097 H   0  0  0  0  0  0  0  0  0  0  0  0
  130.8578  125.9122   62.3887 H   0  0  0  0  0  0  0  0  0  0  0  0
  130.0334  125.9537   66.8550 H   0  0  0  0  0  0  0  0  0  0  0  0
  131.3634  130.8316   59.7323 H   0  0  0  0  0  0  0  0  0  0  0  0
  132.0858  131.5690   57.4686 H   0  0  0  0  0  0  0  0  0  0  0  0
  1  2  1  0
  2  3  1  0
  3  4  2  0
  4  5  1  0
  5  6  2  0
  6  7  1  0
  7  8  1  0
  8  9  2  0
  8 10  1  0
 10 11  1  0
 11 12  1  0
 12 13  2  0
 13 14  1  0
 14 15  1  0
 15 16  2  0
 16 17  1  0
 17 18  2  0
 18 19  1  0
 19 20  2  0
 14 21  2  0
 21 22  1  0
 22 23  1  0
 23 24  1  0
 23 25  1  0
 23 26  1  0
 22 27  2  0
 27 28  1  0
 28 29  3  0
  6 30  1  0
 30 31  2  0
 31  3  1  0
 27 12  1  0
 20 15  1  0
  1 32  1  0
  1 33  1  0
  1 34  1  0
  4 35  1  0
  5 36  1  0
  7 37  1  0
 10 38  1  0
 10 39  1  0
 16 40  1  0
 17 41  1  0
 18 42  1  0
 19 43  1  0
 20 44  1  0
 21 45  1  0
 30 46  1  0
 31 47  1  0
M  END
>  <Binding energies>  (1) 
[-7.42]

>  <Ligand effiencies>  (1) 
[-0.231875]

>  <Interactions>  (1) 
["V-B:GLU:543:C:9870, V-A:ASP:366:CG:3208, V-B:GLU:543:CD:9876, V-B:GLU:543:CG:9875, V-A:ARG:545:CZ:4921, V-B:GLU:543:CB:9874, V-A:GLU:543:CD:4903, V-A:TYR:539:CZ:4872, V-A:LEU:363:CD1:3184, V-A:PRO:540:N:4879, V-A:TYR:539:CE1:4870, V-A:TYR:539:C:4862, V-A:TYR:539:CD1:4868, V-A:PRO:540:CA:4878, V-A:TYR:539:CA:4864, V-A:TYR:539:CG:4867, H-A:ALA:541:N:4886, V-A:PRO:540:CD:4882, V-A:ILE:538:CA:4855, V-A:PRO:540:CB:4880, V-A:TYR:539:CE2:4871, V-A:TYR:539:CD2:4869, V-B:ARG:545:CG:9890, V-B:HIS:456:CE1:9037, H-A:TYR:539:N:4865, V-A:ILE:538:CG2:4858, H-B:TYR:484:OH:9315, V-A:GLU:543:CG:4902, V-A:ILE:538:CD1:4860, V-B:GLU:543:CA:9872"]

$$$$
3ad_Grossjean_2025
     RDKit          3D

 43 45  0  0  0  0  0  0  0  0999 V2000
  124.2480  124.3830   57.4520 N   0  0  0  0  0  0  0  0  0  0  0  0
  125.1810  123.9910   58.0120 C   0  0  0  0  0  0  0  0  0  0  0  0
  126.3620  123.4930   58.7250 C   0  0  0  0  0  0  0  0  0  0  0  0
  126.4020  123.4850   60.1400 C   0  0  0  0  0  0  0  0  0  0  0  0
  125.2160  123.9450   61.0100 C   0  0  0  0  0  0  0  0  0  0  0  0
  124.0420  123.8300   60.3870 F   0  0  0  0  0  0  0  0  0  0  0  0
  125.1550  123.2090   62.1220 F   0  0  0  0  0  0  0  0  0  0  0  0
  125.3650  125.2270   61.3470 F   0  0  0  0  0  0  0  0  0  0  0  0
  127.5730  123.0430   60.7740 C   0  0  0  0  0  0  0  0  0  0  0  0
  128.6730  122.6250   60.0180 C   0  0  0  0  0  0  0  0  0  0  0  0
  129.9540  122.1580   60.6430 C   0  0  0  0  0  0  0  0  0  0  0  0
  130.3780  122.6720   61.8790 C   0  0  0  0  0  0  0  0  0  0  0  0
  131.5640  122.2420   62.4650 C   0  0  0  0  0  0  0  0  0  0  0  0
  132.3470  121.2880   61.8210 C   0  0  0  0  0  0  0  0  0  0  0  0
  131.9470  120.7610   60.5980 C   0  0  0  0  0  0  0  0  0  0  0  0
  130.7590  121.1930   60.0150 C   0  0  0  0  0  0  0  0  0  0  0  0
  128.6310  122.6410   58.6610 N   0  0  0  0  0  0  0  0  0  0  0  0
  127.5050  123.0440   58.0270 C   0  0  0  0  0  0  0  0  0  0  0  0
  127.6260  122.9880   56.2530 S   0  0  0  0  0  0  0  0  0  0  0  0
  128.4770  124.5040   55.7220 C   0  0  0  0  0  0  0  0  0  0  0  0
  129.9850  124.4390   55.9760 C   0  0  0  0  0  0  0  0  0  0  0  0
  130.7590  124.6660   55.0460 O   0  0  0  0  0  0  0  0  0  0  0  0
  130.3460  124.1290   57.2400 N   0  0  0  0  0  0  0  0  0  0  0  0
  131.6290  124.0020   57.8040 C   0  0  0  0  0  0  0  0  0  0  0  0
  131.7320  124.3450   59.1560 C   0  0  0  0  0  0  0  0  0  0  0  0
  132.9570  124.2600   59.8110 C   0  0  0  0  0  0  0  0  0  0  0  0
  134.0850  123.8350   59.1140 C   0  0  0  0  0  0  0  0  0  0  0  0
  133.9980  123.4970   57.7670 C   0  0  0  0  0  0  0  0  0  0  0  0
  132.7740  123.5810   57.1070 C   0  0  0  0  0  0  0  0  0  0  0  0
  127.6263  123.0251   61.8726 H   0  0  0  0  0  0  0  0  0  0  0  0
  129.7629  123.4262   62.3917 H   0  0  0  0  0  0  0  0  0  0  0  0
  131.8821  122.6544   63.4339 H   0  0  0  0  0  0  0  0  0  0  0  0
  133.2867  120.9494   62.2819 H   0  0  0  0  0  0  0  0  0  0  0  0
  132.5670  120.0056   60.0931 H   0  0  0  0  0  0  0  0  0  0  0  0
  130.4458  120.7724   59.0480 H   0  0  0  0  0  0  0  0  0  0  0  0
  128.3049  124.6483   54.6452 H   0  0  0  0  0  0  0  0  0  0  0  0
  128.0714  125.3421   56.3078 H   0  0  0  0  0  0  0  0  0  0  0  0
  129.5930  123.9170   57.8780 H   0  0  0  0  0  0  0  0  0  0  0  0
  130.8405  124.6836   59.7043 H   0  0  0  0  0  0  0  0  0  0  0  0
  133.0338  124.5275   60.8752 H   0  0  0  0  0  0  0  0  0  0  0  0
  135.0527  123.7659   59.6324 H   0  0  0  0  0  0  0  0  0  0  0  0
  134.8947  123.1638   57.2239 H   0  0  0  0  0  0  0  0  0  0  0  0
  132.7040  123.3180   56.0412 H   0  0  0  0  0  0  0  0  0  0  0  0
  1  2  3  0
  2  3  1  0
  3  4  2  0
  4  5  1  0
  5  6  1  0
  5  7  1  0
  5  8  1  0
  4  9  1  0
  9 10  2  0
 10 11  1  0
 11 12  2  0
 12 13  1  0
 13 14  2  0
 14 15  1  0
 15 16  2  0
 10 17  1  0
 17 18  2  0
 18 19  1  0
 19 20  1  0
 20 21  1  0
 21 22  2  0
 21 23  1  0
 23 24  1  0
 24 25  2  0
 25 26  1  0
 26 27  2  0
 27 28  1  0
 28 29  2  0
 18  3  1  0
 29 24  1  0
 16 11  1  0
  9 30  1  0
 12 31  1  0
 13 32  1  0
 14 33  1  0
 15 34  1  0
 16 35  1  0
 20 36  1  0
 20 37  1  0
 23 38  1  0
 25 39  1  0
 26 40  1  0
 27 41  1  0
 28 42  1  0
 29 43  1  0
M  END
>  <Binding energies>  (1) 
[-7.18]

>  <Ligand effiencies>  (1) 
[-0.23933333333333331]

>  <Interactions>  (1) 
["H-B:TYR:531:OH:9763, V-B:TYR:539:CE2:9844, V-B:MET:535:CE:9803, V-B:PRO:540:CA:9851, V-B:TYR:539:CD2:9842, V-B:ALA:541:CA:9858, V-B:PRO:540:N:9852, V-B:PRO:540:CB:9853, V-B:PRO:540:C:9849, V-B:TYR:539:C:9835, V-B:TYR:539:CZ:9845, V-A:ASP:366:CG:3208, V-B:GLU:543:CD:9876, V-B:ASN:362:CB:8143, V-A:ASP:366:CB:3207, V-A:ILE:369:CG2:3232, V-A:ILE:369:CD1:3234, V-A:LEU:475:CD2:4254, V-B:LEU:363:CA:8152, H-A:LYS:534:NZ:4818, V-A:ASP:366:C:3203, V-B:ASP:366:CG:8180, V-A:ILE:369:CB:3231, H-B:TYR:539:OH:9846, V-A:ASP:366:CA:3205, V-A:ILE:369:CG1:3233, V-B:ASN:362:C:8139, V-B:ALA:541:C:9856"]

$$$$
3af_Grossjean_2025
     RDKit          3D

 42 44  0  0  0  0  0  0  0  0999 V2000
  133.9130  121.7670   62.6740 N   0  0  0  0  0  0  0  0  0  0  0  0
  132.9610  121.9710   62.0480 C   0  0  0  0  0  0  0  0  0  0  0  0
  131.7560  122.2290   61.2560 C   0  0  0  0  0  0  0  0  0  0  0  0
  130.5120  122.4630   61.8900 C   0  0  0  0  0  0  0  0  0  0  0  0
  130.3540  122.5100   63.4220 C   0  0  0  0  0  0  0  0  0  0  0  0
  130.7150  121.3700   64.0160 F   0  0  0  0  0  0  0  0  0  0  0  0
  131.1120  123.4840   63.9280 F   0  0  0  0  0  0  0  0  0  0  0  0
  129.0810  122.7410   63.7450 F   0  0  0  0  0  0  0  0  0  0  0  0
  129.3750  122.6510   61.0880 C   0  0  0  0  0  0  0  0  0  0  0  0
  129.4780  122.6050   59.6940 C   0  0  0  0  0  0  0  0  0  0  0  0
  128.2940  122.7810   58.7910 C   0  0  0  0  0  0  0  0  0  0  0  0
  128.3480  122.3750   57.4480 C   0  0  0  0  0  0  0  0  0  0  0  0
  127.2510  122.5330   56.6060 C   0  0  0  0  0  0  0  0  0  0  0  0
  126.0810  123.1010   57.0970 C   0  0  0  0  0  0  0  0  0  0  0  0
  125.9990  123.5090   58.4240 C   0  0  0  0  0  0  0  0  0  0  0  0
  127.0980  123.3480   59.2640 C   0  0  0  0  0  0  0  0  0  0  0  0
  130.6720  122.3770   59.0910 N   0  0  0  0  0  0  0  0  0  0  0  0
  131.7870  122.2150   59.8420 C   0  0  0  0  0  0  0  0  0  0  0  0
  133.2580  121.9420   58.8740 S   0  0  0  0  0  0  0  0  0  0  0  0
  133.8660  123.5590   58.3070 C   0  0  0  0  0  0  0  0  0  0  0  0
  132.9930  124.1360   57.1930 C   0  0  0  0  0  0  0  0  0  0  0  0
  133.4720  124.2730   56.0670 O   0  0  0  0  0  0  0  0  0  0  0  0
  131.7340  124.4640   57.5560 N   0  0  0  0  0  0  0  0  0  0  0  0
  130.6930  125.0180   56.7850 C   0  0  0  0  0  0  0  0  0  0  0  0
  129.7230  125.9270   57.2470 C   0  0  0  0  0  0  0  0  0  0  0  0
  128.7430  126.3960   56.3700 C   0  0  0  0  0  0  0  0  0  0  0  0
  128.7540  125.9420   55.0500 C   0  0  0  0  0  0  0  0  0  0  0  0
  129.6770  125.0670   54.5810 N   0  0  0  0  0  0  0  0  0  0  0  0
  130.6240  124.6210   55.4450 C   0  0  0  0  0  0  0  0  0  0  0  0
  128.3980  122.8355   61.5586 H   0  0  0  0  0  0  0  0  0  0  0  0
  129.2717  121.9250   57.0551 H   0  0  0  0  0  0  0  0  0  0  0  0
  127.3096  122.2097   55.5562 H   0  0  0  0  0  0  0  0  0  0  0  0
  125.2144  123.2286   56.4316 H   0  0  0  0  0  0  0  0  0  0  0  0
  125.0706  123.9567   58.8082 H   0  0  0  0  0  0  0  0  0  0  0  0
  127.0290  123.6695   60.3137 H   0  0  0  0  0  0  0  0  0  0  0  0
  133.8659  124.2572   59.1570 H   0  0  0  0  0  0  0  0  0  0  0  0
  134.8818  123.4211   57.9081 H   0  0  0  0  0  0  0  0  0  0  0  0
  131.4870  124.2840   58.5170 H   0  0  0  0  0  0  0  0  0  0  0  0
  129.7368  126.2661   58.2933 H   0  0  0  0  0  0  0  0  0  0  0  0
  127.9780  127.1086   56.7122 H   0  0  0  0  0  0  0  0  0  0  0  0
  127.9801  126.3103   54.3605 H   0  0  0  0  0  0  0  0  0  0  0  0
  131.3765  123.9104   55.0724 H   0  0  0  0  0  0  0  0  0  0  0  0
  1  2  3  0
  2  3  1  0
  3  4  2  0
  4  5  1  0
  5  6  1  0
  5  7  1  0
  5  8  1  0
  4  9  1  0
  9 10  2  0
 10 11  1  0
 11 12  2  0
 12 13  1  0
 13 14  2  0
 14 15  1  0
 15 16  2  0
 10 17  1  0
 17 18  2  0
 18 19  1  0
 19 20  1  0
 20 21  1  0
 21 22  2  0
 21 23  1  0
 23 24  1  0
 24 25  2  0
 25 26  1  0
 26 27  2  0
 27 28  1  0
 28 29  2  0
 18  3  1  0
 29 24  1  0
 16 11  1  0
  9 30  1  0
 12 31  1  0
 13 32  1  0
 14 33  1  0
 15 34  1  0
 16 35  1  0
 20 36  1  0
 20 37  1  0
 23 38  1  0
 25 39  1  0
 26 40  1  0
 27 41  1  0
 29 42  1  0
M  END
>  <Binding energies>  (1) 
[-7.12]

>  <Ligand effiencies>  (1) 
[-0.23733333333333334]

>  <Interactions>  (1) 
["V-B:ALA:541:CB:9860, V-B:TYR:539:CE2:9844, V-B:MET:535:CE:9803, V-B:PRO:540:CA:9851, V-B:TYR:539:CD2:9842, V-B:PRO:540:N:9852, V-B:PRO:540:CB:9853, V-B:TYR:539:C:9835, V-B:TYR:539:CZ:9845, V-A:ASP:366:CG:3208, H-A:GLY:454:N:4045, V-B:GLU:543:CD:9876, V-B:GLU:543:CG:9875, V-A:ASP:366:CB:3207, H-A:TYR:531:OH:4790, V-A:TYR:484:CZ:4342, V-A:ILE:369:CG2:3232, V-A:ILE:369:CD1:3234, V-A:LEU:475:CD2:4254, H-A:LYS:534:NZ:4818, V-A:TYR:531:CE1:4787, V-A:TYR:531:CZ:4789, V-A:ASP:366:C:3203, V-A:TYR:484:CE1:4340, V-A:LEU:475:CD1:4253, V-A:ILE:369:CB:3231, H-B:TYR:539:OH:9846, V-B:TYR:539:CG:9840, V-A:ASP:366:CA:3205, V-A:LEU:475:CG:4252"]

$$$$
3ag_Grossjean_2025
     RDKit          3D

 46 48  0  0  0  0  0  0  0  0999 V2000
  124.3070  124.4770   57.4170 N   0  0  0  0  0  0  0  0  0  0  0  0
  125.2270  124.0670   57.9880 C   0  0  0  0  0  0  0  0  0  0  0  0
  126.3890  123.5470   58.7130 C   0  0  0  0  0  0  0  0  0  0  0  0
  126.3980  123.5020   60.1290 C   0  0  0  0  0  0  0  0  0  0  0  0
  125.1890  123.9310   60.9830 C   0  0  0  0  0  0  0  0  0  0  0  0
  125.0390  123.1850   62.0790 F   0  0  0  0  0  0  0  0  0  0  0  0
  125.3360  125.1970   61.3740 F   0  0  0  0  0  0  0  0  0  0  0  0
  124.0650  123.8260   60.2720 F   0  0  0  0  0  0  0  0  0  0  0  0
  127.5550  123.0460   60.7790 C   0  0  0  0  0  0  0  0  0  0  0  0
  128.6760  122.6590   60.0370 C   0  0  0  0  0  0  0  0  0  0  0  0
  129.9380  122.1670   60.6780 C   0  0  0  0  0  0  0  0  0  0  0  0
  130.2140  122.4460   62.0260 C   0  0  0  0  0  0  0  0  0  0  0  0
  131.3840  121.9920   62.6280 C   0  0  0  0  0  0  0  0  0  0  0  0
  132.2990  121.2510   61.8870 C   0  0  0  0  0  0  0  0  0  0  0  0
  132.0510  120.9630   60.5490 C   0  0  0  0  0  0  0  0  0  0  0  0
  130.8810  121.4190   59.9500 C   0  0  0  0  0  0  0  0  0  0  0  0
  128.6600  122.6910   58.6790 N   0  0  0  0  0  0  0  0  0  0  0  0
  127.5460  123.1090   58.0300 C   0  0  0  0  0  0  0  0  0  0  0  0
  127.7040  123.0830   56.2580 S   0  0  0  0  0  0  0  0  0  0  0  0
  128.4260  124.6740   55.7560 C   0  0  0  0  0  0  0  0  0  0  0  0
  129.9550  124.6430   55.7620 C   0  0  0  0  0  0  0  0  0  0  0  0
  130.5800  124.9740   54.7530 O   0  0  0  0  0  0  0  0  0  0  0  0
  130.5390  124.2490   56.9070 N   0  0  0  0  0  0  0  0  0  0  0  0
  131.9810  124.1800   57.1440 C   0  0  0  0  0  0  0  0  0  0  0  0
  132.3750  124.2740   58.6140 C   0  0  0  0  0  0  0  0  0  0  0  0
  133.5720  123.7000   59.0500 C   0  0  0  0  0  0  0  0  0  0  0  0
  133.9500  123.8100   60.3850 C   0  0  0  0  0  0  0  0  0  0  0  0
  133.1340  124.5010   61.2790 C   0  0  0  0  0  0  0  0  0  0  0  0
  131.9470  125.0890   60.8480 C   0  0  0  0  0  0  0  0  0  0  0  0
  131.5690  124.9800   59.5120 C   0  0  0  0  0  0  0  0  0  0  0  0
  127.5806  122.9926   61.8774 H   0  0  0  0  0  0  0  0  0  0  0  0
  129.4942  123.0327   62.6157 H   0  0  0  0  0  0  0  0  0  0  0  0
  131.5844  122.2183   63.6857 H   0  0  0  0  0  0  0  0  0  0  0  0
  133.2236  120.8909   62.3618 H   0  0  0  0  0  0  0  0  0  0  0  0
  132.7772  120.3769   59.9666 H   0  0  0  0  0  0  0  0  0  0  0  0
  130.6904  121.1911   58.8909 H   0  0  0  0  0  0  0  0  0  0  0  0
  128.0807  124.9146   54.7397 H   0  0  0  0  0  0  0  0  0  0  0  0
  128.1012  125.4354   56.4804 H   0  0  0  0  0  0  0  0  0  0  0  0
  129.9490  124.0040   57.6890 H   0  0  0  0  0  0  0  0  0  0  0  0
  132.3509  123.2229   56.7476 H   0  0  0  0  0  0  0  0  0  0  0  0
  132.4276  125.0495   56.6395 H   0  0  0  0  0  0  0  0  0  0  0  0
  134.2153  123.1615   58.3385 H   0  0  0  0  0  0  0  0  0  0  0  0
  134.8885  123.3537   60.7329 H   0  0  0  0  0  0  0  0  0  0  0  0
  133.4302  124.5828   62.3352 H   0  0  0  0  0  0  0  0  0  0  0  0
  131.3114  125.6367   61.5593 H   0  0  0  0  0  0  0  0  0  0  0  0
  130.6370  125.4490   59.1636 H   0  0  0  0  0  0  0  0  0  0  0  0
  1  2  3  0
  2  3  1  0
  3  4  2  0
  4  5  1  0
  5  6  1  0
  5  7  1  0
  5  8  1  0
  4  9  1  0
  9 10  2  0
 10 11  1  0
 11 12  2  0
 12 13  1  0
 13 14  2  0
 14 15  1  0
 15 16  2  0
 10 17  1  0
 17 18  2  0
 18 19  1  0
 19 20  1  0
 20 21  1  0
 21 22  2  0
 21 23  1  0
 23 24  1  0
 24 25  1  0
 25 26  2  0
 26 27  1  0
 27 28  2  0
 28 29  1  0
 29 30  2  0
 18  3  1  0
 30 25  1  0
 16 11  1  0
  9 31  1  0
 12 32  1  0
 13 33  1  0
 14 34  1  0
 15 35  1  0
 16 36  1  0
 20 37  1  0
 20 38  1  0
 23 39  1  0
 24 40  1  0
 24 41  1  0
 26 42  1  0
 27 43  1  0
 28 44  1  0
 29 45  1  0
 30 46  1  0
M  END
>  <Binding energies>  (1) 
[-6.96]

>  <Ligand effiencies>  (1) 
[-0.22451612903225807]

>  <Interactions>  (1) 
["H-B:TYR:531:OH:9763, V-B:ALA:541:CB:9860, V-B:TYR:539:CE2:9844, V-B:MET:535:CE:9803, V-B:PRO:540:CA:9851, V-B:TYR:539:CD2:9842, V-B:PRO:540:N:9852, V-B:PRO:540:CB:9853, V-B:PRO:540:C:9849, V-B:TYR:539:C:9835, V-B:TYR:539:CZ:9845, V-A:ASP:366:CG:3208, V-B:GLU:543:CD:9876, V-B:ASN:362:CB:8143, V-A:ASP:366:CB:3207, V-A:ILE:369:CD1:3234, V-A:LEU:475:CD2:4254, V-B:LEU:363:CA:8152, H-A:LYS:534:NZ:4818, V-B:ARG:545:CZ:9894, V-B:ASP:366:CG:8180, H-B:TYR:539:OH:9846, V-A:ASP:366:CA:3205, V-B:ASN:362:C:8139, V-B:ALA:541:C:9856"]

$$$$
3ai_Grossjean_2025
     RDKit          3D

 39 41  0  0  0  0  0  0  0  0999 V2000
  133.9510  121.8230   62.6120 N   0  0  0  0  0  0  0  0  0  0  0  0
  132.9880  122.0090   61.9990 C   0  0  0  0  0  0  0  0  0  0  0  0
  131.7660  122.2460   61.2240 C   0  0  0  0  0  0  0  0  0  0  0  0
  130.5160  122.3970   61.8710 C   0  0  0  0  0  0  0  0  0  0  0  0
  130.3640  122.3690   63.4040 C   0  0  0  0  0  0  0  0  0  0  0  0
  129.1250  122.6590   63.8070 F   0  0  0  0  0  0  0  0  0  0  0  0
  130.6650  121.1550   63.8690 F   0  0  0  0  0  0  0  0  0  0  0  0
  131.1830  123.2610   63.9630 F   0  0  0  0  0  0  0  0  0  0  0  0
  129.3690  122.5740   61.0820 C   0  0  0  0  0  0  0  0  0  0  0  0
  129.4670  122.5970   59.6870 C   0  0  0  0  0  0  0  0  0  0  0  0
  128.2750  122.7720   58.7950 C   0  0  0  0  0  0  0  0  0  0  0  0
  127.0910  123.3480   59.2860 C   0  0  0  0  0  0  0  0  0  0  0  0
  125.9820  123.5170   58.4630 C   0  0  0  0  0  0  0  0  0  0  0  0
  126.0410  123.1150   57.1320 C   0  0  0  0  0  0  0  0  0  0  0  0
  127.2030  122.5450   56.6210 C   0  0  0  0  0  0  0  0  0  0  0  0
  128.3100  122.3770   57.4470 C   0  0  0  0  0  0  0  0  0  0  0  0
  130.6660  122.4440   59.0700 N   0  0  0  0  0  0  0  0  0  0  0  0
  131.7910  122.2960   59.8110 C   0  0  0  0  0  0  0  0  0  0  0  0
  133.2690  122.1320   58.8320 S   0  0  0  0  0  0  0  0  0  0  0  0
  133.7080  123.7860   58.1990 C   0  0  0  0  0  0  0  0  0  0  0  0
  132.9250  124.2340   56.9560 C   0  0  0  0  0  0  0  0  0  0  0  0
  133.4960  124.3880   55.8730 O   0  0  0  0  0  0  0  0  0  0  0  0
  131.6050  124.4360   57.1640 N   0  0  0  0  0  0  0  0  0  0  0  0
  130.6580  124.8350   56.2300 C   0  0  0  0  0  0  0  0  0  0  0  0
  129.5240  125.5750   56.5610 C   0  0  0  0  0  0  0  0  0  0  0  0
  128.8540  125.7580   55.3740 C   0  0  0  0  0  0  0  0  0  0  0  0
  129.5490  125.1590   54.3770 O   0  0  0  0  0  0  0  0  0  0  0  0
  130.6900  124.5780   54.9320 N   0  0  0  0  0  0  0  0  0  0  0  0
  128.3874  122.6953   61.5634 H   0  0  0  0  0  0  0  0  0  0  0  0
  127.0402  123.6700   60.3366 H   0  0  0  0  0  0  0  0  0  0  0  0
  125.0614  123.9670   58.8631 H   0  0  0  0  0  0  0  0  0  0  0  0
  125.1647  123.2485   56.4806 H   0  0  0  0  0  0  0  0  0  0  0  0
  127.2462  122.2285   55.5684 H   0  0  0  0  0  0  0  0  0  0  0  0
  129.2271  121.9278   57.0382 H   0  0  0  0  0  0  0  0  0  0  0  0
  133.5247  124.5176   58.9998 H   0  0  0  0  0  0  0  0  0  0  0  0
  134.7631  123.7282   57.8934 H   0  0  0  0  0  0  0  0  0  0  0  0
  131.2530  124.2790   58.0970 H   0  0  0  0  0  0  0  0  0  0  0  0
  129.2285  125.9352   57.5575 H   0  0  0  0  0  0  0  0  0  0  0  0
  127.9062  126.3031   55.2534 H   0  0  0  0  0  0  0  0  0  0  0  0
  1  2  3  0
  2  3  1  0
  3  4  2  0
  4  5  1  0
  5  6  1  0
  5  7  1  0
  5  8  1  0
  4  9  1  0
  9 10  2  0
 10 11  1  0
 11 12  2  0
 12 13  1  0
 13 14  2  0
 14 15  1  0
 15 16  2  0
 10 17  1  0
 17 18  2  0
 18 19  1  0
 19 20  1  0
 20 21  1  0
 21 22  2  0
 21 23  1  0
 23 24  1  0
 24 25  1  0
 25 26  2  0
 26 27  1  0
 27 28  1  0
 18  3  1  0
 28 24  2  0
 16 11  1  0
  9 29  1  0
 12 30  1  0
 13 31  1  0
 14 32  1  0
 15 33  1  0
 16 34  1  0
 20 35  1  0
 20 36  1  0
 23 37  1  0
 25 38  1  0
 26 39  1  0
M  END
>  <Binding energies>  (1) 
[-7.6]

>  <Ligand effiencies>  (1) 
[-0.26206896551724135]

>  <Interactions>  (1) 
["V-B:ALA:541:CB:9860, V-B:TYR:539:CE2:9844, V-B:MET:535:CE:9803, V-B:PRO:540:CA:9851, V-B:TYR:539:CD2:9842, V-B:PRO:540:N:9852, V-B:PRO:540:CB:9853, V-B:TYR:539:C:9835, V-B:TYR:539:CZ:9845, V-A:ASP:366:CG:3208, H-A:GLY:454:N:4045, V-B:GLU:543:CD:9876, V-B:GLU:543:CG:9875, V-A:ASP:366:CB:3207, H-A:TYR:531:OH:4790, V-A:TYR:484:CZ:4342, V-A:ILE:369:CD1:3234, V-A:LEU:475:CD2:4254, H-A:LYS:534:NZ:4818, V-A:TYR:531:CE1:4787, V-A:TYR:531:CZ:4789, V-A:ASP:366:C:3203, V-A:TYR:484:CE1:4340, V-A:LEU:475:CD1:4253, V-A:ILE:369:CB:3231, H-B:TYR:539:OH:9846, V-B:TYR:539:CG:9840, V-A:ASP:366:CA:3205, V-A:LEU:475:CG:4252"]

$$$$
3aj_Grossjean_2025
     RDKit          3D

 39 41  0  0  0  0  0  0  0  0999 V2000
  133.9520  121.8990   62.5750 N   0  0  0  0  0  0  0  0  0  0  0  0
  132.9910  122.0760   61.9560 C   0  0  0  0  0  0  0  0  0  0  0  0
  131.7720  122.3020   61.1730 C   0  0  0  0  0  0  0  0  0  0  0  0
  130.5260  122.5020   61.8150 C   0  0  0  0  0  0  0  0  0  0  0  0
  130.3770  122.5390   63.3490 C   0  0  0  0  0  0  0  0  0  0  0  0
  131.0570  123.5410   63.9110 F   0  0  0  0  0  0  0  0  0  0  0  0
  129.0940  122.6870   63.6790 F   0  0  0  0  0  0  0  0  0  0  0  0
  130.8320  121.4030   63.8790 F   0  0  0  0  0  0  0  0  0  0  0  0
  129.3810  122.6670   61.0200 C   0  0  0  0  0  0  0  0  0  0  0  0
  129.4770  122.6290   59.6250 C   0  0  0  0  0  0  0  0  0  0  0  0
  128.2860  122.7890   58.7300 C   0  0  0  0  0  0  0  0  0  0  0  0
  127.1020  123.3670   59.2110 C   0  0  0  0  0  0  0  0  0  0  0  0
  125.9920  123.5230   58.3840 C   0  0  0  0  0  0  0  0  0  0  0  0
  126.0540  123.0990   57.0600 C   0  0  0  0  0  0  0  0  0  0  0  0
  127.2170  122.5230   56.5590 C   0  0  0  0  0  0  0  0  0  0  0  0
  128.3230  122.3710   57.3890 C   0  0  0  0  0  0  0  0  0  0  0  0
  130.6730  122.4290   59.0140 N   0  0  0  0  0  0  0  0  0  0  0  0
  131.7960  122.2920   59.7590 C   0  0  0  0  0  0  0  0  0  0  0  0
  133.2690  122.0630   58.7870 S   0  0  0  0  0  0  0  0  0  0  0  0
  133.6090  123.6260   57.9100 C   0  0  0  0  0  0  0  0  0  0  0  0
  132.3790  124.5090   57.6550 C   0  0  0  0  0  0  0  0  0  0  0  0
  132.0440  125.3750   58.4670 O   0  0  0  0  0  0  0  0  0  0  0  0
  131.7290  124.2510   56.4980 N   0  0  0  0  0  0  0  0  0  0  0  0
  130.5980  124.9000   56.0200 C   0  0  0  0  0  0  0  0  0  0  0  0
  130.2430  125.0860   54.7670 N   0  0  0  0  0  0  0  0  0  0  0  0
  129.1020  125.7420   54.6780 C   0  0  0  0  0  0  0  0  0  0  0  0
  128.5050  126.1040   55.8820 C   0  0  0  0  0  0  0  0  0  0  0  0
  129.5010  125.5520   57.1950 S   0  0  0  0  0  0  0  0  0  0  0  0
  128.4027  122.8271   61.4967 H   0  0  0  0  0  0  0  0  0  0  0  0
  127.0492  123.7022   60.2573 H   0  0  0  0  0  0  0  0  0  0  0  0
  125.0708  123.9792   58.7756 H   0  0  0  0  0  0  0  0  0  0  0  0
  125.1781  123.2200   56.4056 H   0  0  0  0  0  0  0  0  0  0  0  0
  127.2618  122.1894   55.5118 H   0  0  0  0  0  0  0  0  0  0  0  0
  129.2413  121.9163   56.9891 H   0  0  0  0  0  0  0  0  0  0  0  0
  134.3259  124.2051   58.5106 H   0  0  0  0  0  0  0  0  0  0  0  0
  133.9954  123.3444   56.9194 H   0  0  0  0  0  0  0  0  0  0  0  0
  132.0990  123.5210   55.9080 H   0  0  0  0  0  0  0  0  0  0  0  0
  128.6480  125.9890   53.7070 H   0  0  0  0  0  0  0  0  0  0  0  0
  127.5563  126.6510   55.9858 H   0  0  0  0  0  0  0  0  0  0  0  0
  1  2  3  0
  2  3  1  0
  3  4  2  0
  4  5  1  0
  5  6  1  0
  5  7  1  0
  5  8  1  0
  4  9  1  0
  9 10  2  0
 10 11  1  0
 11 12  2  0
 12 13  1  0
 13 14  2  0
 14 15  1  0
 15 16  2  0
 10 17  1  0
 17 18  2  0
 18 19  1  0
 19 20  1  0
 20 21  1  0
 21 22  2  0
 21 23  1  0
 23 24  1  0
 24 25  2  0
 25 26  1  0
 26 27  2  0
 27 28  1  0
 18  3  1  0
 28 24  1  0
 16 11  1  0
  9 29  1  0
 12 30  1  0
 13 31  1  0
 14 32  1  0
 15 33  1  0
 16 34  1  0
 20 35  1  0
 20 36  1  0
 23 37  1  0
 26 38  1  0
 27 39  1  0
M  END
>  <Binding energies>  (1) 
[-7.02]

>  <Ligand effiencies>  (1) 
[-0.24206896551724136]

>  <Interactions>  (1) 
["V-B:ALA:541:CB:9860, V-B:TYR:539:CE2:9844, V-B:MET:535:CE:9803, V-B:PRO:540:CA:9851, V-B:TYR:539:CD2:9842, V-B:PRO:540:N:9852, V-B:PRO:540:CB:9853, V-B:TYR:539:C:9835, V-B:TYR:539:CZ:9845, H-A:GLY:454:N:4045, V-B:GLU:543:CD:9876, V-B:GLU:543:CG:9875, V-A:ASP:366:CB:3207, H-A:TYR:531:OH:4790, V-A:TYR:484:CZ:4342, V-A:ILE:369:CD1:3234, V-A:LEU:475:CD2:4254, H-A:LYS:534:NZ:4818, V-A:TYR:531:CE1:4787, V-A:TYR:531:CZ:4789, V-A:ASP:366:C:3203, V-A:TYR:484:CE1:4340, V-A:LEU:475:CD1:4253, V-A:ILE:369:CB:3231, H-B:TYR:539:OH:9846, V-B:TYR:539:CG:9840, V-A:ASP:366:CA:3205, V-A:LEU:475:CG:4252"]

$$$$
3ak_Grossjean_2025
     RDKit          3D

 57 58  0  0  0  0  0  0  0  0999 V2000
  133.8540  125.2840   65.7210 C   0  0  0  0  0  0  0  0  0  0  0  0
  134.3330  124.7630   64.4910 O   0  0  0  0  0  0  0  0  0  0  0  0
  133.4190  124.9230   63.4160 C   0  0  0  0  0  0  0  0  0  0  0  0
  132.0330  125.2530   63.9830 C   0  0  0  0  0  0  0  0  0  0  0  0
  131.1650  125.6030   62.9100 O   0  0  0  0  0  0  0  0  0  0  0  0
  131.7930  125.7690   61.6410 C   0  0  0  0  0  0  0  0  0  0  0  0
  130.8080  126.0730   60.4970 C   0  0  0  0  0  0  0  0  0  0  0  0
  130.9260  125.0680   59.5000 O   0  0  0  0  0  0  0  0  0  0  0  0
  132.2120  125.0020   58.8980 C   0  0  0  0  0  0  0  0  0  0  0  0
  132.0950  124.4950   57.4490 C   0  0  0  0  0  0  0  0  0  0  0  0
  130.7160  124.2470   57.0240 N   0  0  0  0  0  0  0  0  0  0  0  0
  130.2490  124.3350   55.7640 C   0  0  0  0  0  0  0  0  0  0  0  0
  130.9660  124.6270   54.8060 O   0  0  0  0  0  0  0  0  0  0  0  0
  128.7580  124.0610   55.5060 C   0  0  0  0  0  0  0  0  0  0  0  0
  128.0650  122.5390   56.2500 S   0  0  0  0  0  0  0  0  0  0  0  0
  127.9410  122.7690   58.0170 C   0  0  0  0  0  0  0  0  0  0  0  0
  129.0600  122.4810   58.7250 N   0  0  0  0  0  0  0  0  0  0  0  0
  129.0630  122.6190   60.0760 C   0  0  0  0  0  0  0  0  0  0  0  0
  130.3430  122.2790   60.7790 C   0  0  0  0  0  0  0  0  0  0  0  0
  130.4240  122.3170   62.1790 C   0  0  0  0  0  0  0  0  0  0  0  0
  131.6090  121.9990   62.8380 C   0  0  0  0  0  0  0  0  0  0  0  0
  132.7320  121.6360   62.1020 C   0  0  0  0  0  0  0  0  0  0  0  0
  132.6780  121.5880   60.7140 C   0  0  0  0  0  0  0  0  0  0  0  0
  131.4910  121.9050   60.0580 C   0  0  0  0  0  0  0  0  0  0  0  0
  127.9250  123.0730   60.7520 C   0  0  0  0  0  0  0  0  0  0  0  0
  126.7550  123.3790   60.0430 C   0  0  0  0  0  0  0  0  0  0  0  0
  125.5210  123.8740   60.8230 C   0  0  0  0  0  0  0  0  0  0  0  0
  125.4240  123.2250   61.9830 F   0  0  0  0  0  0  0  0  0  0  0  0
  125.6290  125.1810   61.0670 F   0  0  0  0  0  0  0  0  0  0  0  0
  124.3780  123.6850   60.1600 F   0  0  0  0  0  0  0  0  0  0  0  0
  126.7560  123.2240   58.6360 C   0  0  0  0  0  0  0  0  0  0  0  0
  125.5610  123.5290   57.8430 C   0  0  0  0  0  0  0  0  0  0  0  0
  124.6170  123.7690   57.2160 N   0  0  0  0  0  0  0  0  0  0  0  0
  134.3386  124.7569   66.5560 H   0  0  0  0  0  0  0  0  0  0  0  0
  134.0872  126.3574   65.7802 H   0  0  0  0  0  0  0  0  0  0  0  0
  132.7649  125.1416   65.7802 H   0  0  0  0  0  0  0  0  0  0  0  0
  133.7557  125.7431   62.7648 H   0  0  0  0  0  0  0  0  0  0  0  0
  133.3687  123.9935   62.8299 H   0  0  0  0  0  0  0  0  0  0  0  0
  131.6318  124.3752   64.5107 H   0  0  0  0  0  0  0  0  0  0  0  0
  132.1103  126.0937   64.6881 H   0  0  0  0  0  0  0  0  0  0  0  0
  132.5081  126.6017   61.7138 H   0  0  0  0  0  0  0  0  0  0  0  0
  132.2829  124.8146   61.3978 H   0  0  0  0  0  0  0  0  0  0  0  0
  129.7804  126.0833   60.8892 H   0  0  0  0  0  0  0  0  0  0  0  0
  131.0401  127.0557   60.0606 H   0  0  0  0  0  0  0  0  0  0  0  0
  132.6646  126.0046   58.8968 H   0  0  0  0  0  0  0  0  0  0  0  0
  132.8419  124.3065   59.4720 H   0  0  0  0  0  0  0  0  0  0  0  0
  132.5346  125.2495   56.7801 H   0  0  0  0  0  0  0  0  0  0  0  0
  132.6254  123.5326   57.4003 H   0  0  0  0  0  0  0  0  0  0  0  0
  130.0680  123.9830   57.7530 H   0  0  0  0  0  0  0  0  0  0  0  0
  128.1883  124.9151   55.9010 H   0  0  0  0  0  0  0  0  0  0  0  0
  128.6729  123.9176   54.4187 H   0  0  0  0  0  0  0  0  0  0  0  0
  129.5380  122.6023   62.7652 H   0  0  0  0  0  0  0  0  0  0  0  0
  131.6566  122.0348   63.9364 H   0  0  0  0  0  0  0  0  0  0  0  0
  133.6686  121.3854   62.6216 H   0  0  0  0  0  0  0  0  0  0  0  0
  133.5689  121.3009   60.1361 H   0  0  0  0  0  0  0  0  0  0  0  0
  131.4509  121.8622   58.9596 H   0  0  0  0  0  0  0  0  0  0  0  0
  127.9486  123.1904   61.8455 H   0  0  0  0  0  0  0  0  0  0  0  0
  1  2  1  0
  2  3  1  0
  3  4  1  0
  4  5  1  0
  5  6  1  0
  6  7  1  0
  7  8  1  0
  8  9  1  0
  9 10  1  0
 10 11  1  0
 11 12  1  0
 12 13  2  0
 12 14  1  0
 14 15  1  0
 15 16  1  0
 16 17  2  0
 17 18  1  0
 18 19  1  0
 19 20  2  0
 20 21  1  0
 21 22  2  0
 22 23  1  0
 23 24  2  0
 18 25  2  0
 25 26  1  0
 26 27  1  0
 27 28  1  0
 27 29  1  0
 27 30  1  0
 26 31  2  0
 31 32  1  0
 32 33  3  0
 31 16  1  0
 24 19  1  0
  1 34  1  0
  1 35  1  0
  1 36  1  0
  3 37  1  0
  3 38  1  0
  4 39  1  0
  4 40  1  0
  6 41  1  0
  6 42  1  0
  7 43  1  0
  7 44  1  0
  9 45  1  0
  9 46  1  0
 10 47  1  0
 10 48  1  0
 11 49  1  0
 14 50  1  0
 14 51  1  0
 20 52  1  0
 21 53  1  0
 22 54  1  0
 23 55  1  0
 24 56  1  0
 25 57  1  0
M  END
>  <Binding energies>  (1) 
[-5.98]

>  <Ligand effiencies>  (1) 
[-0.1758823529411765]

>  <Interactions>  (1) 
["V-B:ALA:541:CB:9860, V-B:TYR:539:CE2:9844, V-B:MET:535:CE:9803, V-B:PRO:540:CA:9851, V-B:ALA:541:CA:9858, V-B:PRO:540:N:9852, V-B:PRO:540:CB:9853, V-B:PRO:540:C:9849, V-B:TYR:539:C:9835, V-B:TYR:539:CZ:9845, V-A:ASP:366:CG:3208, H-A:TYR:484:OH:4343, H-A:GLY:454:N:4045, V-B:GLU:543:CD:9876, V-A:ARG:545:CZ:4921, V-A:ASP:366:CB:3207, V-A:ARG:545:CD:4918, V-A:ARG:545:CG:4917, V-A:ILE:369:CD1:3234, V-A:LEU:475:CD2:4254, H-A:LYS:534:NZ:4818, V-A:TYR:531:CZ:4789, V-B:ASP:366:CG:8180, H-B:TYR:539:OH:9846, H-A:ARG:545:NH1:4922, V-B:ALA:541:C:9856"]

$$$$
3bc_Grossjean_2025
     RDKit          3D

 47 49  0  0  0  0  0  0  0  0999 V2000
  129.7690  126.5470   54.2780 C   0  0  0  0  0  0  0  0  0  0  0  0
  130.2540  125.2170   54.4250 O   0  0  0  0  0  0  0  0  0  0  0  0
  129.8580  124.4730   55.5210 C   0  0  0  0  0  0  0  0  0  0  0  0
  130.6220  124.6200   56.6790 C   0  0  0  0  0  0  0  0  0  0  0  0
  130.3020  123.9110   57.8340 C   0  0  0  0  0  0  0  0  0  0  0  0
  129.2130  123.0370   57.8430 C   0  0  0  0  0  0  0  0  0  0  0  0
  128.9590  122.3740   59.0580 N   0  0  0  0  0  0  0  0  0  0  0  0
  129.5080  122.5840   60.2740 C   0  0  0  0  0  0  0  0  0  0  0  0
  130.3350  123.4620   60.5280 O   0  0  0  0  0  0  0  0  0  0  0  0
  128.9920  121.6530   61.3800 C   0  0  0  0  0  0  0  0  0  0  0  0
  130.2690  121.0210   62.5200 S   0  0  0  0  0  0  0  0  0  0  0  0
  131.2510  122.4040   63.0580 C   0  0  0  0  0  0  0  0  0  0  0  0
  130.6570  123.1540   64.0190 N   0  0  0  0  0  0  0  0  0  0  0  0
  131.2980  124.2410   64.5220 C   0  0  0  0  0  0  0  0  0  0  0  0
  130.5650  125.0290   65.5660 C   0  0  0  0  0  0  0  0  0  0  0  0
  130.2830  124.4680   66.8210 C   0  0  0  0  0  0  0  0  0  0  0  0
  129.6020  125.1930   67.7950 C   0  0  0  0  0  0  0  0  0  0  0  0
  129.1920  126.4940   67.5250 C   0  0  0  0  0  0  0  0  0  0  0  0
  129.4550  127.0730   66.2880 C   0  0  0  0  0  0  0  0  0  0  0  0
  130.1350  126.3430   65.3160 C   0  0  0  0  0  0  0  0  0  0  0  0
  132.5690  124.6020   64.0610 C   0  0  0  0  0  0  0  0  0  0  0  0
  133.2050  123.8260   63.0870 C   0  0  0  0  0  0  0  0  0  0  0  0
  134.6000  124.2480   62.6260 C   0  0  0  0  0  0  0  0  0  0  0  0
  132.5460  122.6900   62.5700 C   0  0  0  0  0  0  0  0  0  0  0  0
  133.2130  121.8350   61.5850 C   0  0  0  0  0  0  0  0  0  0  0  0
  133.7410  121.1620   60.8060 N   0  0  0  0  0  0  0  0  0  0  0  0
  128.4320  122.8940   56.6860 C   0  0  0  0  0  0  0  0  0  0  0  0
  128.7560  123.6050   55.5330 C   0  0  0  0  0  0  0  0  0  0  0  0
  129.6074  126.9903   55.2717 H   0  0  0  0  0  0  0  0  0  0  0  0
  130.5062  127.1470   53.7244 H   0  0  0  0  0  0  0  0  0  0  0  0
  128.8186  126.5316   53.7244 H   0  0  0  0  0  0  0  0  0  0  0  0
  131.4850  125.3021   56.6797 H   0  0  0  0  0  0  0  0  0  0  0  0
  130.9091  124.0398   58.7422 H   0  0  0  0  0  0  0  0  0  0  0  0
  128.2200  121.6880   59.0130 H   0  0  0  0  0  0  0  0  0  0  0  0
  128.2501  122.2076   61.9734 H   0  0  0  0  0  0  0  0  0  0  0  0
  128.5755  120.7725   60.8689 H   0  0  0  0  0  0  0  0  0  0  0  0
  130.6052  123.4390   67.0386 H   0  0  0  0  0  0  0  0  0  0  0  0
  129.3892  124.7387   68.7739 H   0  0  0  0  0  0  0  0  0  0  0  0
  128.6562  127.0690   68.2947 H   0  0  0  0  0  0  0  0  0  0  0  0
  129.1277  128.1020   66.0784 H   0  0  0  0  0  0  0  0  0  0  0  0
  130.3385  126.8024   64.3375 H   0  0  0  0  0  0  0  0  0  0  0  0
  133.0675  125.4957   64.4646 H   0  0  0  0  0  0  0  0  0  0  0  0
  135.2340  124.4398   63.5042 H   0  0  0  0  0  0  0  0  0  0  0  0
  135.0450  123.4443   62.0210 H   0  0  0  0  0  0  0  0  0  0  0  0
  134.5249  125.1636   62.0210 H   0  0  0  0  0  0  0  0  0  0  0  0
  127.5630  122.2197   56.6896 H   0  0  0  0  0  0  0  0  0  0  0  0
  128.1443  123.4852   54.6266 H   0  0  0  0  0  0  0  0  0  0  0  0
  1  2  1  0
  2  3  1  0
  3  4  2  0
  4  5  1  0
  5  6  2  0
  6  7  1  0
  7  8  1  0
  8  9  2  0
  8 10  1  0
 10 11  1  0
 11 12  1  0
 12 13  2  0
 13 14  1  0
 14 15  1  0
 15 16  2  0
 16 17  1  0
 17 18  2  0
 18 19  1  0
 19 20  2  0
 14 21  2  0
 21 22  1  0
 22 23  1  0
 22 24  2  0
 24 25  1  0
 25 26  3  0
  6 27  1  0
 27 28  2  0
 28  3  1  0
 24 12  1  0
 20 15  1  0
  1 29  1  0
  1 30  1  0
  1 31  1  0
  4 32  1  0
  5 33  1  0
  7 34  1  0
 10 35  1  0
 10 36  1  0
 16 37  1  0
 17 38  1  0
 18 39  1  0
 19 40  1  0
 20 41  1  0
 21 42  1  0
 23 43  1  0
 23 44  1  0
 23 45  1  0
 27 46  1  0
 28 47  1  0
M  END
>  <Binding energies>  (1) 
[-7.63]

>  <Ligand effiencies>  (1) 
[-0.2631034482758621]

>  <Interactions>  (1) 
["V-B:ALA:541:CB:9860, V-B:TYR:539:CE2:9844, H-B:TYR:539:O:9836, V-B:MET:535:CE:9803, V-B:TYR:539:CD2:9842, V-B:ALA:541:CA:9858, V-B:PRO:540:C:9849, V-B:TYR:539:CE1:9843, V-B:TYR:539:C:9835, V-B:TYR:539:CZ:9845, V-B:GLU:543:C:9870, V-A:HIS:456:CE1:4064, V-A:ASP:366:CG:3208, H-A:TYR:484:OH:4343, V-B:GLU:543:CG:9875, V-B:GLU:543:CB:9874, V-A:GLU:543:CD:4903, V-A:GLY:454:CA:4044, V-A:TYR:484:CZ:4342, V-A:GLY:453:CA:4039, V-A:GLY:453:C:4037, V-A:ILE:369:CD1:3234, V-A:LEU:475:CD2:4254, V-A:LYS:534:CD:4816, H-A:LYS:534:NZ:4818, V-A:TYR:531:CE1:4787, V-A:TYR:531:CZ:4789, V-B:GLU:543:CA:9872, V-A:TYR:484:CE1:4340, V-B:TYR:539:CD1:9841, V-A:LYS:534:CE:4817"]

$$$$
3bd_Grossjean_2025
     RDKit          3D

 43 45  0  0  0  0  0  0  0  0999 V2000
  124.5800  123.8770   61.3790 C   0  0  0  0  0  0  0  0  0  0  0  0
  125.7960  123.4980   60.5340 C   0  0  0  0  0  0  0  0  0  0  0  0
  126.9720  123.1290   61.1960 C   0  0  0  0  0  0  0  0  0  0  0  0
  128.1090  122.7790   60.4590 C   0  0  0  0  0  0  0  0  0  0  0  0
  129.4000  122.3710   61.1040 C   0  0  0  0  0  0  0  0  0  0  0  0
  129.9970  123.1760   62.0870 C   0  0  0  0  0  0  0  0  0  0  0  0
  131.1970  122.8030   62.6880 C   0  0  0  0  0  0  0  0  0  0  0  0
  131.8170  121.6160   62.3140 C   0  0  0  0  0  0  0  0  0  0  0  0
  131.2470  120.8010   61.3410 C   0  0  0  0  0  0  0  0  0  0  0  0
  130.0490  121.1780   60.7420 C   0  0  0  0  0  0  0  0  0  0  0  0
  128.0830  122.7790   59.1000 N   0  0  0  0  0  0  0  0  0  0  0  0
  126.9510  123.1350   58.4420 C   0  0  0  0  0  0  0  0  0  0  0  0
  127.0510  123.1050   56.6590 S   0  0  0  0  0  0  0  0  0  0  0  0
  127.9220  124.6060   56.1190 C   0  0  0  0  0  0  0  0  0  0  0  0
  129.4400  124.4240   56.1310 C   0  0  0  0  0  0  0  0  0  0  0  0
  130.0710  124.5930   55.0870 O   0  0  0  0  0  0  0  0  0  0  0  0
  129.9780  124.0670   57.3170 N   0  0  0  0  0  0  0  0  0  0  0  0
  131.3290  123.8530   57.6490 C   0  0  0  0  0  0  0  0  0  0  0  0
  132.2680  124.2780   56.7050 C   0  0  0  0  0  0  0  0  0  0  0  0
  133.6290  124.1010   56.9420 C   0  0  0  0  0  0  0  0  0  0  0  0
  134.0510  123.4890   58.1190 C   0  0  0  0  0  0  0  0  0  0  0  0
  133.1240  123.0480   59.0610 C   0  0  0  0  0  0  0  0  0  0  0  0
  131.7630  123.2250   58.8280 C   0  0  0  0  0  0  0  0  0  0  0  0
  125.7720  123.5070   59.1230 C   0  0  0  0  0  0  0  0  0  0  0  0
  124.5550  123.8870   58.4000 C   0  0  0  0  0  0  0  0  0  0  0  0
  123.5930  124.1860   57.8310 N   0  0  0  0  0  0  0  0  0  0  0  0
  124.8357  123.7973   62.4459 H   0  0  0  0  0  0  0  0  0  0  0  0
  124.2819  124.9107   61.1496 H   0  0  0  0  0  0  0  0  0  0  0  0
  123.7474  123.1958   61.1496 H   0  0  0  0  0  0  0  0  0  0  0  0
  127.0029  123.1140   62.2955 H   0  0  0  0  0  0  0  0  0  0  0  0
  129.5098  124.1155   62.3872 H   0  0  0  0  0  0  0  0  0  0  0  0
  131.6526  123.4454   63.4559 H   0  0  0  0  0  0  0  0  0  0  0  0
  132.7634  121.3196   62.7900 H   0  0  0  0  0  0  0  0  0  0  0  0
  131.7410  119.8632   61.0467 H   0  0  0  0  0  0  0  0  0  0  0  0
  129.6024  120.5315   59.9722 H   0  0  0  0  0  0  0  0  0  0  0  0
  127.6022  124.8533   55.0960 H   0  0  0  0  0  0  0  0  0  0  0  0
  127.6716  125.4149   56.8212 H   0  0  0  0  0  0  0  0  0  0  0  0
  129.3270  123.8730   58.0640 H   0  0  0  0  0  0  0  0  0  0  0  0
  131.9311  124.7537   55.7721 H   0  0  0  0  0  0  0  0  0  0  0  0
  134.3675  124.4434   56.2021 H   0  0  0  0  0  0  0  0  0  0  0  0
  135.1262  123.3523   58.3070 H   0  0  0  0  0  0  0  0  0  0  0  0
  133.4665  122.5614   59.9861 H   0  0  0  0  0  0  0  0  0  0  0  0
  131.0279  122.8732   59.5668 H   0  0  0  0  0  0  0  0  0  0  0  0
  1  2  1  0
  2  3  2  0
  3  4  1  0
  4  5  1  0
  5  6  2  0
  6  7  1  0
  7  8  2  0
  8  9  1  0
  9 10  2  0
  4 11  2  0
 11 12  1  0
 12 13  1  0
 13 14  1  0
 14 15  1  0
 15 16  2  0
 15 17  1  0
 17 18  1  0
 18 19  2  0
 19 20  1  0
 20 21  2  0
 21 22  1  0
 22 23  2  0
 12 24  2  0
 24 25  1  0
 25 26  3  0
 24  2  1  0
 10  5  1  0
 23 18  1  0
  1 27  1  0
  1 28  1  0
  1 29  1  0
  3 30  1  0
  6 31  1  0
  7 32  1  0
  8 33  1  0
  9 34  1  0
 10 35  1  0
 14 36  1  0
 14 37  1  0
 17 38  1  0
 19 39  1  0
 20 40  1  0
 21 41  1  0
 22 42  1  0
 23 43  1  0
M  END
>  <Binding energies>  (1) 
[-7.92]

>  <Ligand effiencies>  (1) 
[-0.29333333333333333]

>  <Interactions>  (1) 
["V-B:ALA:541:CB:9860, V-B:TYR:539:CE2:9844, V-B:MET:535:CE:9803, V-B:PRO:540:CA:9851, V-B:PRO:540:N:9852, V-B:PRO:540:CB:9853, V-B:PRO:540:C:9849, V-B:TYR:539:C:9835, V-B:TYR:539:CZ:9845, V-B:GLU:543:CD:9876, V-B:ASN:362:CB:8143, V-A:ASP:366:CB:3207, V-A:ILE:369:CG2:3232, V-A:ILE:369:CD1:3234, V-A:LEU:475:CD2:4254, H-A:LYS:534:NZ:4818, V-B:LEU:363:CD1:8156, V-A:TYR:531:CE1:4787, V-A:TYR:531:CZ:4789, V-A:ASN:370:CB:3240, V-A:ASP:366:C:3203, V-A:ILE:369:CB:3231, H-B:TYR:539:OH:9846, V-A:ASP:366:CA:3205"]

$$$$
3be_Grossjean_2025
     RDKit          3D

 45 47  0  0  0  0  0  0  0  0999 V2000
  130.1230  128.6810   53.9970 C   0  0  0  0  0  0  0  0  0  0  0  0
  130.9680  129.6270   54.8270 C   0  0  0  0  0  0  0  0  0  0  0  0
  131.8190  130.5610   54.2320 C   0  0  0  0  0  0  0  0  0  0  0  0
  132.5700  131.3980   55.0590 C   0  0  0  0  0  0  0  0  0  0  0  0
  132.4520  131.2820   56.4460 C   0  0  0  0  0  0  0  0  0  0  0  0
  131.5780  130.3270   56.9770 C   0  0  0  0  0  0  0  0  0  0  0  0
  131.5130  130.2520   58.3810 N   0  0  0  0  0  0  0  0  0  0  0  0
  132.5230  130.2720   59.2770 C   0  0  0  0  0  0  0  0  0  0  0  0
  133.7170  130.3560   58.9830 O   0  0  0  0  0  0  0  0  0  0  0  0
  132.0820  130.1810   60.7460 C   0  0  0  0  0  0  0  0  0  0  0  0
  131.5240  131.7530   61.4870 S   0  0  0  0  0  0  0  0  0  0  0  0
  129.9590  132.1840   60.7580 C   0  0  0  0  0  0  0  0  0  0  0  0
  129.9580  132.1290   59.4030 N   0  0  0  0  0  0  0  0  0  0  0  0
  128.8250  132.4300   58.7140 C   0  0  0  0  0  0  0  0  0  0  0  0
  128.9120  132.3590   57.2180 C   0  0  0  0  0  0  0  0  0  0  0  0
  129.7770  133.2070   56.5080 C   0  0  0  0  0  0  0  0  0  0  0  0
  129.8600  133.1490   55.1200 C   0  0  0  0  0  0  0  0  0  0  0  0
  129.0770  132.2380   54.4200 C   0  0  0  0  0  0  0  0  0  0  0  0
  128.2100  131.3880   55.0980 C   0  0  0  0  0  0  0  0  0  0  0  0
  128.1290  131.4510   56.4860 C   0  0  0  0  0  0  0  0  0  0  0  0
  127.6550  132.8010   59.3840 C   0  0  0  0  0  0  0  0  0  0  0  0
  127.6320  132.8380   60.7820 C   0  0  0  0  0  0  0  0  0  0  0  0
  126.3270  133.2310   61.4720 C   0  0  0  0  0  0  0  0  0  0  0  0
  128.8030  132.5130   61.5010 C   0  0  0  0  0  0  0  0  0  0  0  0
  128.7860  132.4930   62.9650 C   0  0  0  0  0  0  0  0  0  0  0  0
  128.7700  132.4770   64.1220 N   0  0  0  0  0  0  0  0  0  0  0  0
  130.8440  129.5030   56.1730 N   0  0  0  0  0  0  0  0  0  0  0  0
  129.5403  128.0287   54.6641 H   0  0  0  0  0  0  0  0  0  0  0  0
  129.4379  129.2622   53.3623 H   0  0  0  0  0  0  0  0  0  0  0  0
  130.7776  128.0656   53.3623 H   0  0  0  0  0  0  0  0  0  0  0  0
  131.8957  130.6353   53.1372 H   0  0  0  0  0  0  0  0  0  0  0  0
  133.2500  132.1438   54.6215 H   0  0  0  0  0  0  0  0  0  0  0  0
  133.0382  131.9325   57.1117 H   0  0  0  0  0  0  0  0  0  0  0  0
  130.5800  130.1440   58.7530 H   0  0  0  0  0  0  0  0  0  0  0  0
  131.2522  129.4616   60.8085 H   0  0  0  0  0  0  0  0  0  0  0  0
  132.9725  129.8741   61.3142 H   0  0  0  0  0  0  0  0  0  0  0  0
  130.3990  133.9288   57.0577 H   0  0  0  0  0  0  0  0  0  0  0  0
  130.5423  133.8211   54.5790 H   0  0  0  0  0  0  0  0  0  0  0  0
  129.1437  132.1893   53.3231 H   0  0  0  0  0  0  0  0  0  0  0  0
  127.5914  130.6696   54.5402 H   0  0  0  0  0  0  0  0  0  0  0  0
  127.4404  130.7786   57.0187 H   0  0  0  0  0  0  0  0  0  0  0  0
  126.7530  133.0637   58.8118 H   0  0  0  0  0  0  0  0  0  0  0  0
  126.4623  133.1903   62.5629 H   0  0  0  0  0  0  0  0  0  0  0  0
  126.0485  134.2529   61.1750 H   0  0  0  0  0  0  0  0  0  0  0  0
  125.5305  132.5329   61.1750 H   0  0  0  0  0  0  0  0  0  0  0  0
  1  2  1  0
  2  3  2  0
  3  4  1  0
  4  5  2  0
  5  6  1  0
  6  7  1  0
  7  8  1  0
  8  9  2  0
  8 10  1  0
 10 11  1  0
 11 12  1  0
 12 13  2  0
 13 14  1  0
 14 15  1  0
 15 16  2  0
 16 17  1  0
 17 18  2  0
 18 19  1  0
 19 20  2  0
 14 21  2  0
 21 22  1  0
 22 23  1  0
 22 24  2  0
 24 25  1  0
 25 26  3  0
  6 27  2  0
 27  2  1  0
 24 12  1  0
 20 15  1  0
  1 28  1  0
  1 29  1  0
  1 30  1  0
  3 31  1  0
  4 32  1  0
  5 33  1  0
  7 34  1  0
 10 35  1  0
 10 36  1  0
 16 37  1  0
 17 38  1  0
 18 39  1  0
 19 40  1  0
 20 41  1  0
 21 42  1  0
 23 43  1  0
 23 44  1  0
 23 45  1  0
M  END
>  <Binding energies>  (1) 
[-7.8]

>  <Ligand effiencies>  (1) 
[-0.2785714285714286]

>  <Interactions>  (1) 
["V-A:TYR:539:CZ:4872, V-A:LEU:363:CD1:3184, V-A:PRO:540:N:4879, V-A:TYR:539:CE1:4870, V-A:TYR:539:C:4862, V-A:TYR:539:CD1:4868, V-A:PRO:540:CA:4878, H-A:TYR:531:OH:4790, V-A:TYR:539:CA:4864, V-A:TYR:539:CG:4867, H-A:ALA:541:N:4886, V-A:PRO:540:CD:4882, V-A:ILE:538:CA:4855, V-A:TYR:531:CE2:4788, V-A:PRO:540:CB:4880, V-A:TYR:539:CE2:4871, V-A:TYR:539:CD2:4869, V-A:TYR:531:CE1:4787, V-A:TYR:531:CZ:4789, H-B:TYR:484:OH:9315, V-A:ALA:541:CB:4887, V-A:ILE:538:C:4853, V-A:MET:535:CG:4828, V-B:LEU:475:CD2:9226"]

$$$$
3bf_Grossjean_2025
     RDKit          3D

 42 44  0  0  0  0  0  0  0  0999 V2000
  125.5140  129.8800   57.7070 C   0  0  0  0  0  0  0  0  0  0  0  0
  126.5850  130.9080   58.0630 C   0  0  0  0  0  0  0  0  0  0  0  0
  127.6310  131.1120   57.1580 C   0  0  0  0  0  0  0  0  0  0  0  0
  128.6250  132.0560   57.4380 C   0  0  0  0  0  0  0  0  0  0  0  0
  129.7600  132.3370   56.4990 C   0  0  0  0  0  0  0  0  0  0  0  0
  131.0660  132.5080   56.9850 C   0  0  0  0  0  0  0  0  0  0  0  0
  132.1240  132.7700   56.1200 C   0  0  0  0  0  0  0  0  0  0  0  0
  131.8900  132.8650   54.7520 C   0  0  0  0  0  0  0  0  0  0  0  0
  130.6050  132.7020   54.2450 C   0  0  0  0  0  0  0  0  0  0  0  0
  129.5490  132.4410   55.1150 C   0  0  0  0  0  0  0  0  0  0  0  0
  128.5910  132.7840   58.5860 N   0  0  0  0  0  0  0  0  0  0  0  0
  127.5980  132.5800   59.4850 C   0  0  0  0  0  0  0  0  0  0  0  0
  127.7190  133.6160   60.9280 S   0  0  0  0  0  0  0  0  0  0  0  0
  128.7260  132.7390   62.1720 C   0  0  0  0  0  0  0  0  0  0  0  0
  127.9410  132.1730   63.3650 C   0  0  0  0  0  0  0  0  0  0  0  0
  128.3810  132.2750   64.5120 O   0  0  0  0  0  0  0  0  0  0  0  0
  126.7580  131.6070   63.0430 N   0  0  0  0  0  0  0  0  0  0  0  0
  125.8140  130.9930   63.8880 C   0  0  0  0  0  0  0  0  0  0  0  0
  126.2570  129.9180   64.6650 C   0  0  0  0  0  0  0  0  0  0  0  0
  125.3710  129.2750   65.5340 C   0  0  0  0  0  0  0  0  0  0  0  0
  124.0560  129.7350   65.6040 C   0  0  0  0  0  0  0  0  0  0  0  0
  123.6020  130.7820   64.8700 N   0  0  0  0  0  0  0  0  0  0  0  0
  124.4750  131.3970   64.0300 C   0  0  0  0  0  0  0  0  0  0  0  0
  126.5520  131.6580   59.2590 C   0  0  0  0  0  0  0  0  0  0  0  0
  125.4380  131.4970   60.1980 C   0  0  0  0  0  0  0  0  0  0  0  0
  124.5590  131.3670   60.9400 N   0  0  0  0  0  0  0  0  0  0  0  0
  125.0823  129.4656   58.6300 H   0  0  0  0  0  0  0  0  0  0  0  0
  124.7221  130.3648   57.1172 H   0  0  0  0  0  0  0  0  0  0  0  0
  125.9659  129.0689   57.1172 H   0  0  0  0  0  0  0  0  0  0  0  0
  127.6725  130.5301   56.2254 H   0  0  0  0  0  0  0  0  0  0  0  0
  131.2558  132.4337   58.0660 H   0  0  0  0  0  0  0  0  0  0  0  0
  133.1416  132.9015   56.5164 H   0  0  0  0  0  0  0  0  0  0  0  0
  132.7260  133.0702   54.0672 H   0  0  0  0  0  0  0  0  0  0  0  0
  130.4237  132.7788   53.1628 H   0  0  0  0  0  0  0  0  0  0  0  0
  128.5337  132.3144   54.7112 H   0  0  0  0  0  0  0  0  0  0  0  0
  129.2340  131.9021   61.6705 H   0  0  0  0  0  0  0  0  0  0  0  0
  129.4181  133.4862   62.5877 H   0  0  0  0  0  0  0  0  0  0  0  0
  126.4790  131.6640   62.0750 H   0  0  0  0  0  0  0  0  0  0  0  0
  127.3009  129.5790   64.5924 H   0  0  0  0  0  0  0  0  0  0  0  0
  125.7032  128.4255   66.1488 H   0  0  0  0  0  0  0  0  0  0  0  0
  123.3565  129.2267   66.2840 H   0  0  0  0  0  0  0  0  0  0  0  0
  124.1179  132.2498   63.4340 H   0  0  0  0  0  0  0  0  0  0  0  0
  1  2  1  0
  2  3  2  0
  3  4  1  0
  4  5  1  0
  5  6  2  0
  6  7  1  0
  7  8  2  0
  8  9  1  0
  9 10  2  0
  4 11  2  0
 11 12  1  0
 12 13  1  0
 13 14  1  0
 14 15  1  0
 15 16  2  0
 15 17  1  0
 17 18  1  0
 18 19  2  0
 19 20  1  0
 20 21  2  0
 21 22  1  0
 22 23  2  0
 12 24  2  0
 24 25  1  0
 25 26  3  0
 24  2  1  0
 10  5  1  0
 23 18  1  0
  1 27  1  0
  1 28  1  0
  1 29  1  0
  3 30  1  0
  6 31  1  0
  7 32  1  0
  8 33  1  0
  9 34  1  0
 10 35  1  0
 14 36  1  0
 14 37  1  0
 17 38  1  0
 19 39  1  0
 20 40  1  0
 21 41  1  0
 23 42  1  0
M  END
>  <Binding energies>  (1) 
[-7.98]

>  <Ligand effiencies>  (1) 
[-0.29555555555555557]

>  <Interactions>  (1) 
["V-A:TYR:539:CZ:4872, V-A:LEU:363:CD1:3184, V-A:PRO:540:N:4879, V-A:TYR:539:CE1:4870, V-A:TYR:539:CD1:4868, V-A:PRO:540:CG:4881, V-A:PRO:540:CA:4878, V-A:PRO:540:CD:4882, V-A:ILE:538:CA:4855, V-A:PRO:540:CB:4880, V-A:TYR:539:CE2:4871, V-A:TYR:539:CD2:4869, V-B:ARG:545:CG:9890, V-B:HIS:456:CE1:9037, V-A:ILE:538:CG2:4858, H-B:TYR:484:OH:9315, V-B:ARG:545:CZ:9894, V-B:GLY:454:CA:9016, V-B:ARG:545:CD:9891, V-A:ILE:538:CD1:4860, H-B:GLY:454:N:9017, V-A:ALA:541:CB:4887, V-A:ILE:538:CB:4857"]

$$$$
3bg_Grossjean_2025
     RDKit          3D

 46 48  0  0  0  0  0  0  0  0999 V2000
  125.4260  124.5370   61.1250 C   0  0  0  0  0  0  0  0  0  0  0  0
  126.3840  123.7900   60.2000 C   0  0  0  0  0  0  0  0  0  0  0  0
  127.5970  123.3380   60.7290 C   0  0  0  0  0  0  0  0  0  0  0  0
  128.5020  122.6420   59.9170 C   0  0  0  0  0  0  0  0  0  0  0  0
  129.8170  122.1190   60.4260 C   0  0  0  0  0  0  0  0  0  0  0  0
  130.2600  122.4150   61.7260 C   0  0  0  0  0  0  0  0  0  0  0  0
  131.4670  121.9180   62.2070 C   0  0  0  0  0  0  0  0  0  0  0  0
  132.2570  121.1150   61.3910 C   0  0  0  0  0  0  0  0  0  0  0  0
  131.8510  120.8150   60.0960 C   0  0  0  0  0  0  0  0  0  0  0  0
  130.6430  121.3160   59.6190 C   0  0  0  0  0  0  0  0  0  0  0  0
  128.2040  122.3840   58.6150 N   0  0  0  0  0  0  0  0  0  0  0  0
  127.0300  122.8140   58.0860 C   0  0  0  0  0  0  0  0  0  0  0  0
  126.7470  122.3810   56.3770 S   0  0  0  0  0  0  0  0  0  0  0  0
  128.3530  122.3750   55.5150 C   0  0  0  0  0  0  0  0  0  0  0  0
  129.1090  123.6930   55.7090 C   0  0  0  0  0  0  0  0  0  0  0  0
  129.2760  124.4500   54.7520 O   0  0  0  0  0  0  0  0  0  0  0  0
  129.5770  123.9380   56.9450 N   0  0  0  0  0  0  0  0  0  0  0  0
  130.4730  125.0350   57.3110 C   0  0  0  0  0  0  0  0  0  0  0  0
  131.7120  124.5330   58.0440 C   0  0  0  0  0  0  0  0  0  0  0  0
  132.7470  123.9190   57.3310 C   0  0  0  0  0  0  0  0  0  0  0  0
  133.8730  123.4510   58.0010 C   0  0  0  0  0  0  0  0  0  0  0  0
  133.9690  123.6100   59.3830 C   0  0  0  0  0  0  0  0  0  0  0  0
  132.9520  124.2380   60.0980 C   0  0  0  0  0  0  0  0  0  0  0  0
  131.8240  124.7050   59.4260 C   0  0  0  0  0  0  0  0  0  0  0  0
  126.0840  123.5340   58.8450 C   0  0  0  0  0  0  0  0  0  0  0  0
  124.8190  123.9890   58.2640 C   0  0  0  0  0  0  0  0  0  0  0  0
  123.8190  124.3480   57.8060 N   0  0  0  0  0  0  0  0  0  0  0  0
  125.6914  124.3300   62.1722 H   0  0  0  0  0  0  0  0  0  0  0  0
  125.5005  125.6178   60.9346 H   0  0  0  0  0  0  0  0  0  0  0  0
  124.3959  124.2013   60.9346 H   0  0  0  0  0  0  0  0  0  0  0  0
  127.8410  123.5292   61.7844 H   0  0  0  0  0  0  0  0  0  0  0  0
  129.6410  123.0515   62.3755 H   0  0  0  0  0  0  0  0  0  0  0  0
  131.7954  122.1591   63.2288 H   0  0  0  0  0  0  0  0  0  0  0  0
  133.2081  120.7153   61.7726 H   0  0  0  0  0  0  0  0  0  0  0  0
  132.4811  120.1848   59.4512 H   0  0  0  0  0  0  0  0  0  0  0  0
  130.3286  121.0795   58.5918 H   0  0  0  0  0  0  0  0  0  0  0  0
  128.9660  121.5516   55.9104 H   0  0  0  0  0  0  0  0  0  0  0  0
  128.1626  122.2457   54.4393 H   0  0  0  0  0  0  0  0  0  0  0  0
  129.3950  123.2570   57.6670 H   0  0  0  0  0  0  0  0  0  0  0  0
  130.7880  125.5579   56.3960 H   0  0  0  0  0  0  0  0  0  0  0  0
  129.9275  125.7118   57.9851 H   0  0  0  0  0  0  0  0  0  0  0  0
  132.6706  123.8060   56.2395 H   0  0  0  0  0  0  0  0  0  0  0  0
  134.6832  122.9582   57.4435 H   0  0  0  0  0  0  0  0  0  0  0  0
  134.8568  123.2357   59.9138 H   0  0  0  0  0  0  0  0  0  0  0  0
  133.0387  124.3647   61.1872 H   0  0  0  0  0  0  0  0  0  0  0  0
  131.0213  125.2093   59.9840 H   0  0  0  0  0  0  0  0  0  0  0  0
  1  2  1  0
  2  3  2  0
  3  4  1  0
  4  5  1  0
  5  6  2  0
  6  7  1  0
  7  8  2  0
  8  9  1  0
  9 10  2  0
  4 11  2  0
 11 12  1  0
 12 13  1  0
 13 14  1  0
 14 15  1  0
 15 16  2  0
 15 17  1  0
 17 18  1  0
 18 19  1  0
 19 20  2  0
 20 21  1  0
 21 22  2  0
 22 23  1  0
 23 24  2  0
 12 25  2  0
 25 26  1  0
 26 27  3  0
 25  2  1  0
 10  5  1  0
 24 19  1  0
  1 28  1  0
  1 29  1  0
  1 30  1  0
  3 31  1  0
  6 32  1  0
  7 33  1  0
  8 34  1  0
  9 35  1  0
 10 36  1  0
 14 37  1  0
 14 38  1  0
 17 39  1  0
 18 40  1  0
 18 41  1  0
 20 42  1  0
 21 43  1  0
 22 44  1  0
 23 45  1  0
 24 46  1  0
M  END
>  <Binding energies>  (1) 
[-7.47]

>  <Ligand effiencies>  (1) 
[-0.2667857142857143]

>  <Interactions>  (1) 
["V-B:TYR:539:CE2:9844, V-B:MET:535:CE:9803, V-B:PRO:540:CA:9851, V-B:TYR:539:CD2:9842, V-B:PRO:540:N:9852, V-B:PRO:540:CB:9853, V-B:TYR:539:CE1:9843, V-B:TYR:539:C:9835, V-B:TYR:539:CZ:9845, V-A:ASP:366:CG:3208, V-B:GLU:543:CD:9876, V-A:ASP:366:CB:3207, V-A:ILE:369:CG2:3232, V-A:ILE:369:CD1:3234, V-A:LEU:475:CD2:4254, H-A:LYS:534:NZ:4818, H-B:TYR:539:N:9838, V-A:ASP:366:C:3203, V-A:ILE:369:CB:3231, V-B:TYR:539:CD1:9841, V-B:TYR:539:CG:9840, V-A:ASP:366:CA:3205, V-A:ILE:369:CG1:3233"]

$$$$
3bk_Grossjean_2025
     RDKit          3D

 57 58  0  0  0  0  0  0  0  0999 V2000
  129.8430  132.9060   57.1900 C   0  0  0  0  0  0  0  0  0  0  0  0
  130.4770  133.3480   55.9990 O   0  0  0  0  0  0  0  0  0  0  0  0
  130.8740  132.2860   55.1420 C   0  0  0  0  0  0  0  0  0  0  0  0
  130.2440  132.4800   53.7560 C   0  0  0  0  0  0  0  0  0  0  0  0
  128.9680  131.8550   53.7280 O   0  0  0  0  0  0  0  0  0  0  0  0
  128.9200  130.6150   54.4200 C   0  0  0  0  0  0  0  0  0  0  0  0
  127.8150  130.6710   55.4830 C   0  0  0  0  0  0  0  0  0  0  0  0
  127.7610  129.4290   56.1730 O   0  0  0  0  0  0  0  0  0  0  0  0
  128.3920  128.3590   55.4820 C   0  0  0  0  0  0  0  0  0  0  0  0
  128.0100  127.0280   56.1440 C   0  0  0  0  0  0  0  0  0  0  0  0
  129.1340  126.0910   56.2020 N   0  0  0  0  0  0  0  0  0  0  0  0
  129.7810  125.5820   55.1400 C   0  0  0  0  0  0  0  0  0  0  0  0
  129.5080  125.8660   53.9720 O   0  0  0  0  0  0  0  0  0  0  0  0
  130.9330  124.6200   55.4400 C   0  0  0  0  0  0  0  0  0  0  0  0
  131.5190  124.7730   57.1570 S   0  0  0  0  0  0  0  0  0  0  0  0
  130.4670  123.7990   58.2190 C   0  0  0  0  0  0  0  0  0  0  0  0
  129.1350  123.8850   57.9760 N   0  0  0  0  0  0  0  0  0  0  0  0
  128.2570  123.1800   58.7370 C   0  0  0  0  0  0  0  0  0  0  0  0
  126.8060  123.3160   58.3870 C   0  0  0  0  0  0  0  0  0  0  0  0
  125.8900  123.8410   59.3130 C   0  0  0  0  0  0  0  0  0  0  0  0
  124.5400  123.9640   58.9950 C   0  0  0  0  0  0  0  0  0  0  0  0
  124.0860  123.5640   57.7430 C   0  0  0  0  0  0  0  0  0  0  0  0
  124.9730  123.0440   56.8060 C   0  0  0  0  0  0  0  0  0  0  0  0
  126.3220  122.9230   57.1270 C   0  0  0  0  0  0  0  0  0  0  0  0
  128.7080  122.3540   59.7730 C   0  0  0  0  0  0  0  0  0  0  0  0
  130.0790  122.2550   60.0390 C   0  0  0  0  0  0  0  0  0  0  0  0
  130.5280  121.3430   61.1800 C   0  0  0  0  0  0  0  0  0  0  0  0
  130.9890  122.9890   59.2510 C   0  0  0  0  0  0  0  0  0  0  0  0
  132.4300  122.9020   59.5050 C   0  0  0  0  0  0  0  0  0  0  0  0
  133.5680  122.8340   59.7060 N   0  0  0  0  0  0  0  0  0  0  0  0
  130.3929  133.2894   58.0621 H   0  0  0  0  0  0  0  0  0  0  0  0
  128.8088  133.2799   57.2153 H   0  0  0  0  0  0  0  0  0  0  0  0
  129.8361  131.8063   57.2153 H   0  0  0  0  0  0  0  0  0  0  0  0
  131.9700  132.2812   55.0485 H   0  0  0  0  0  0  0  0  0  0  0  0
  130.5364  131.3288   55.5660 H   0  0  0  0  0  0  0  0  0  0  0  0
  130.1312  133.5548   53.5509 H   0  0  0  0  0  0  0  0  0  0  0  0
  130.8921  132.0286   52.9904 H   0  0  0  0  0  0  0  0  0  0  0  0
  128.7044  129.8048   53.7079 H   0  0  0  0  0  0  0  0  0  0  0  0
  129.8890  130.4254   54.9049 H   0  0  0  0  0  0  0  0  0  0  0  0
  128.0333  131.4786   56.1973 H   0  0  0  0  0  0  0  0  0  0  0  0
  126.8471  130.8643   54.9974 H   0  0  0  0  0  0  0  0  0  0  0  0
  128.0621  128.3548   54.4326 H   0  0  0  0  0  0  0  0  0  0  0  0
  129.4835  128.4891   55.5222 H   0  0  0  0  0  0  0  0  0  0  0  0
  127.6646  127.2294   57.1688 H   0  0  0  0  0  0  0  0  0  0  0  0
  127.2187  126.5656   55.5357 H   0  0  0  0  0  0  0  0  0  0  0  0
  129.4610  125.8520   57.1260 H   0  0  0  0  0  0  0  0  0  0  0  0
  130.5875  123.5891   55.2731 H   0  0  0  0  0  0  0  0  0  0  0  0
  131.7694  124.8722   54.7716 H   0  0  0  0  0  0  0  0  0  0  0  0
  126.2443  124.1598   60.3044 H   0  0  0  0  0  0  0  0  0  0  0  0
  123.8349  124.3763   59.7318 H   0  0  0  0  0  0  0  0  0  0  0  0
  123.0193  123.6593   57.4921 H   0  0  0  0  0  0  0  0  0  0  0  0
  124.6101  122.7300   55.8162 H   0  0  0  0  0  0  0  0  0  0  0  0
  127.0207  122.5132   56.3827 H   0  0  0  0  0  0  0  0  0  0  0  0
  127.9868  121.7838   60.3770 H   0  0  0  0  0  0  0  0  0  0  0  0
  130.2937  121.8189   62.1437 H   0  0  0  0  0  0  0  0  0  0  0  0
  130.0010  120.3801   61.1088 H   0  0  0  0  0  0  0  0  0  0  0  0
  131.6125  121.1735   61.1088 H   0  0  0  0  0  0  0  0  0  0  0  0
  1  2  1  0
  2  3  1  0
  3  4  1  0
  4  5  1  0
  5  6  1  0
  6  7  1  0
  7  8  1  0
  8  9  1  0
  9 10  1  0
 10 11  1  0
 11 12  1  0
 12 13  2  0
 12 14  1  0
 14 15  1  0
 15 16  1  0
 16 17  2  0
 17 18  1  0
 18 19  1  0
 19 20  2  0
 20 21  1  0
 21 22  2  0
 22 23  1  0
 23 24  2  0
 18 25  2  0
 25 26  1  0
 26 27  1  0
 26 28  2  0
 28 29  1  0
 29 30  3  0
 28 16  1  0
 24 19  1  0
  1 31  1  0
  1 32  1  0
  1 33  1  0
  3 34  1  0
  3 35  1  0
  4 36  1  0
  4 37  1  0
  6 38  1  0
  6 39  1  0
  7 40  1  0
  7 41  1  0
  9 42  1  0
  9 43  1  0
 10 44  1  0
 10 45  1  0
 11 46  1  0
 14 47  1  0
 14 48  1  0
 20 49  1  0
 21 50  1  0
 22 51  1  0
 23 52  1  0
 24 53  1  0
 25 54  1  0
 27 55  1  0
 27 56  1  0
 27 57  1  0
M  END
>  <Binding energies>  (1) 
[-6.62]

>  <Ligand effiencies>  (1) 
[-0.2135483870967742]

>  <Interactions>  (1) 
["V-B:ALA:541:CB:9860, V-B:TYR:539:CE2:9844, V-B:MET:535:CE:9803, V-B:PRO:540:CD:9855, V-B:PRO:540:CA:9851, V-B:PRO:540:N:9852, V-B:PRO:540:CB:9853, V-B:TYR:539:C:9835, V-B:TYR:539:CZ:9845, V-A:PRO:540:N:4879, V-A:TYR:539:CE1:4870, V-A:TYR:539:C:4862, V-A:TYR:539:CD1:4868, V-A:PRO:540:CA:4878, H-A:TYR:531:OH:4790, V-A:TYR:539:CG:4867, V-A:PRO:540:CD:4882, V-A:ILE:538:CA:4855, V-B:LEU:363:CA:8152, H-A:TYR:539:N:4865, H-A:LYS:534:NZ:4818, V-B:LEU:363:CD1:8156, V-A:TYR:531:CE1:4787, V-A:TYR:531:CZ:4789, V-A:ILE:538:CD1:4860, V-A:VAL:537:C:4845, V-A:MET:535:CB:4827, V-A:MET:535:CG:4828, V-B:LEU:363:CB:8154, H-B:TYR:539:OH:9846"]

$$$$
3ca_Grossjean_2025
     RDKit          3D

 52 54  0  0  0  0  0  0  0  0999 V2000
  123.8830  123.8430   58.2260 C   0  0  0  0  0  0  0  0  0  0  0  0
  124.9710  124.8190   57.7690 C   0  0  0  0  0  0  0  0  0  0  0  0
  125.7270  124.2280   56.7190 O   0  0  0  0  0  0  0  0  0  0  0  0
  126.2250  122.9710   56.8360 C   0  0  0  0  0  0  0  0  0  0  0  0
  125.7580  121.9960   56.2380 O   0  0  0  0  0  0  0  0  0  0  0  0
  127.4060  122.8830   57.7600 C   0  0  0  0  0  0  0  0  0  0  0  0
  127.1990  122.9590   59.1430 C   0  0  0  0  0  0  0  0  0  0  0  0
  128.2730  122.8820   60.0250 C   0  0  0  0  0  0  0  0  0  0  0  0
  129.5750  122.7330   59.5440 C   0  0  0  0  0  0  0  0  0  0  0  0
  130.5860  122.6640   60.5210 N   0  0  0  0  0  0  0  0  0  0  0  0
  131.8830  122.3070   60.3950 C   0  0  0  0  0  0  0  0  0  0  0  0
  132.4340  121.9830   59.3440 O   0  0  0  0  0  0  0  0  0  0  0  0
  132.7000  122.3450   61.6910 C   0  0  0  0  0  0  0  0  0  0  0  0
  133.6360  123.8960   61.9040 S   0  0  0  0  0  0  0  0  0  0  0  0
  133.2990  124.5910   63.5160 C   0  0  0  0  0  0  0  0  0  0  0  0
  134.3540  124.6360   64.3690 N   0  0  0  0  0  0  0  0  0  0  0  0
  134.1780  125.1680   65.5980 C   0  0  0  0  0  0  0  0  0  0  0  0
  135.4070  125.1990   66.4840 C   0  0  0  0  0  0  0  0  0  0  0  0
  132.9490  125.6590   66.0330 C   0  0  0  0  0  0  0  0  0  0  0  0
  131.8410  125.6080   65.1780 C   0  0  0  0  0  0  0  0  0  0  0  0
  130.5400  126.1340   65.6920 C   0  0  0  0  0  0  0  0  0  0  0  0
  130.0670  125.7320   66.9470 C   0  0  0  0  0  0  0  0  0  0  0  0
  128.8510  126.2100   67.4310 C   0  0  0  0  0  0  0  0  0  0  0  0
  128.1010  127.0910   66.6570 C   0  0  0  0  0  0  0  0  0  0  0  0
  128.5540  127.4950   65.4030 C   0  0  0  0  0  0  0  0  0  0  0  0
  129.7700  127.0140   64.9230 C   0  0  0  0  0  0  0  0  0  0  0  0
  132.0160  125.0670   63.8780 C   0  0  0  0  0  0  0  0  0  0  0  0
  130.9050  125.0340   62.9220 C   0  0  0  0  0  0  0  0  0  0  0  0
  130.0270  125.0080   62.1680 N   0  0  0  0  0  0  0  0  0  0  0  0
  129.7900  122.6480   58.1600 C   0  0  0  0  0  0  0  0  0  0  0  0
  128.7140  122.7240   57.2790 C   0  0  0  0  0  0  0  0  0  0  0  0
  123.8529  123.8160   59.3253 H   0  0  0  0  0  0  0  0  0  0  0  0
  122.9076  124.1745   57.8405 H   0  0  0  0  0  0  0  0  0  0  0  0
  124.1070  122.8374   57.8405 H   0  0  0  0  0  0  0  0  0  0  0  0
  124.5032  125.7464   57.4070 H   0  0  0  0  0  0  0  0  0  0  0  0
  125.6356  125.0497   58.6146 H   0  0  0  0  0  0  0  0  0  0  0  0
  126.1787  123.0806   59.5357 H   0  0  0  0  0  0  0  0  0  0  0  0
  128.0945  122.9390   61.1089 H   0  0  0  0  0  0  0  0  0  0  0  0
  130.2980  122.9750   61.4360 H   0  0  0  0  0  0  0  0  0  0  0  0
  132.0118  122.2321   62.5417 H   0  0  0  0  0  0  0  0  0  0  0  0
  133.4319  121.5254   61.6406 H   0  0  0  0  0  0  0  0  0  0  0  0
  135.0982  125.1912   67.5397 H   0  0  0  0  0  0  0  0  0  0  0  0
  136.0301  124.3163   66.2777 H   0  0  0  0  0  0  0  0  0  0  0  0
  135.9848  126.1120   66.2777 H   0  0  0  0  0  0  0  0  0  0  0  0
  132.8494  126.0844   67.0425 H   0  0  0  0  0  0  0  0  0  0  0  0
  130.6600  125.0334   67.5556 H   0  0  0  0  0  0  0  0  0  0  0  0
  128.4858  125.8930   68.4190 H   0  0  0  0  0  0  0  0  0  0  0  0
  127.1422  127.4716   67.0389 H   0  0  0  0  0  0  0  0  0  0  0  0
  127.9551  128.1896   64.7956 H   0  0  0  0  0  0  0  0  0  0  0  0
  130.1279  127.3284   63.9315 H   0  0  0  0  0  0  0  0  0  0  0  0
  130.8107  122.5211   57.7700 H   0  0  0  0  0  0  0  0  0  0  0  0
  128.8916  122.6587   56.1954 H   0  0  0  0  0  0  0  0  0  0  0  0
  1  2  1  0
  2  3  1  0
  3  4  1  0
  4  5  2  0
  4  6  1  0
  6  7  2  0
  7  8  1  0
  8  9  2  0
  9 10  1  0
 10 11  1  0
 11 12  2  0
 11 13  1  0
 13 14  1  0
 14 15  1  0
 15 16  2  0
 16 17  1  0
 17 18  1  0
 17 19  2  0
 19 20  1  0
 20 21  1  0
 21 22  2  0
 22 23  1  0
 23 24  2  0
 24 25  1  0
 25 26  2  0
 20 27  2  0
 27 28  1  0
 28 29  3  0
  9 30  1  0
 30 31  2  0
 31  6  1  0
 27 15  1  0
 26 21  1  0
  1 32  1  0
  1 33  1  0
  1 34  1  0
  2 35  1  0
  2 36  1  0
  7 37  1  0
  8 38  1  0
 10 39  1  0
 13 40  1  0
 13 41  1  0
 18 42  1  0
 18 43  1  0
 18 44  1  0
 19 45  1  0
 22 46  1  0
 23 47  1  0
 24 48  1  0
 25 49  1  0
 26 50  1  0
 30 51  1  0
 31 52  1  0
M  END
>  <Binding energies>  (1) 
[-8.49]

>  <Ligand effiencies>  (1) 
[-0.2653125]

>  <Interactions>  (1) 
["H-B:TYR:531:OH:9763, V-B:TYR:539:CE2:9844, V-B:MET:535:CE:9803, V-B:PRO:540:CA:9851, V-B:TYR:539:CD2:9842, V-B:PRO:540:N:9852, V-B:PRO:540:CB:9853, V-B:TYR:539:CE1:9843, V-B:TYR:539:C:9835, V-B:TYR:539:CZ:9845, V-A:HIS:456:CE1:4064, H-A:TYR:484:OH:4343, H-A:GLY:454:N:4045, V-B:GLU:543:CD:9876, V-B:GLU:543:CG:9875, V-A:ARG:545:CZ:4921, V-B:GLU:543:CB:9874, V-A:GLU:543:CD:4903, V-A:ARG:545:CD:4918, V-A:ARG:545:CG:4917, V-A:GLY:453:CA:4039, V-A:GLY:453:C:4037, V-A:HIS:456:CD2:4063, V-A:ILE:369:CD1:3234, V-A:LEU:475:CD2:4254, V-B:LEU:363:CA:8152, V-B:LEU:363:CD1:8156, H-B:TYR:539:N:9838, V-B:LEU:363:CB:8154, V-B:TYR:539:CG:9840, H-A:ARG:545:NH1:4922, V-A:ARG:545:CB:4916"]

$$$$
3cb_Grossjean_2025
     RDKit          3D

 49 51  0  0  0  0  0  0  0  0999 V2000
  124.7340  124.0130   57.7800 C   0  0  0  0  0  0  0  0  0  0  0  0
  125.9760  123.9920   57.0920 O   0  0  0  0  0  0  0  0  0  0  0  0
  126.7160  122.8560   57.0210 C   0  0  0  0  0  0  0  0  0  0  0  0
  126.4580  121.9230   56.2550 O   0  0  0  0  0  0  0  0  0  0  0  0
  127.8810  122.8460   57.9690 C   0  0  0  0  0  0  0  0  0  0  0  0
  129.2080  122.9260   57.5190 C   0  0  0  0  0  0  0  0  0  0  0  0
  130.2640  122.9170   58.4250 C   0  0  0  0  0  0  0  0  0  0  0  0
  130.0210  122.8230   59.7960 C   0  0  0  0  0  0  0  0  0  0  0  0
  131.1630  122.8260   60.6220 N   0  0  0  0  0  0  0  0  0  0  0  0
  132.0990  121.8700   60.8120 C   0  0  0  0  0  0  0  0  0  0  0  0
  132.1160  120.7770   60.2450 O   0  0  0  0  0  0  0  0  0  0  0  0
  133.2020  122.2500   61.8110 C   0  0  0  0  0  0  0  0  0  0  0  0
  133.6480  124.0200   61.8300 S   0  0  0  0  0  0  0  0  0  0  0  0
  133.2990  124.6530   63.4570 C   0  0  0  0  0  0  0  0  0  0  0  0
  134.3700  124.6290   64.2870 N   0  0  0  0  0  0  0  0  0  0  0  0
  134.2230  125.0860   65.5500 C   0  0  0  0  0  0  0  0  0  0  0  0
  135.4660  125.0400   66.4180 C   0  0  0  0  0  0  0  0  0  0  0  0
  133.0130  125.5750   66.0340 C   0  0  0  0  0  0  0  0  0  0  0  0
  131.8870  125.5950   65.1990 C   0  0  0  0  0  0  0  0  0  0  0  0
  130.6100  126.1250   65.7670 C   0  0  0  0  0  0  0  0  0  0  0  0
  129.8260  127.0170   65.0250 C   0  0  0  0  0  0  0  0  0  0  0  0
  128.6290  127.5070   65.5400 C   0  0  0  0  0  0  0  0  0  0  0  0
  128.2070  127.1020   66.8040 C   0  0  0  0  0  0  0  0  0  0  0  0
  128.9700  126.2100   67.5520 C   0  0  0  0  0  0  0  0  0  0  0  0
  130.1650  125.7200   67.0330 C   0  0  0  0  0  0  0  0  0  0  0  0
  132.0230  125.1060   63.8740 C   0  0  0  0  0  0  0  0  0  0  0  0
  130.8580  125.0160   62.9880 C   0  0  0  0  0  0  0  0  0  0  0  0
  129.9390  124.9460   62.2880 N   0  0  0  0  0  0  0  0  0  0  0  0
  128.6970  122.7470   60.2550 C   0  0  0  0  0  0  0  0  0  0  0  0
  127.6410  122.7570   59.3480 C   0  0  0  0  0  0  0  0  0  0  0  0
  124.9157  124.0099   58.8649 H   0  0  0  0  0  0  0  0  0  0  0  0
  124.1773  124.9207   57.5040 H   0  0  0  0  0  0  0  0  0  0  0  0
  124.1469  123.1247   57.5040 H   0  0  0  0  0  0  0  0  0  0  0  0
  129.4150  122.9964   56.4409 H   0  0  0  0  0  0  0  0  0  0  0  0
  131.2986  122.9845   58.0576 H   0  0  0  0  0  0  0  0  0  0  0  0
  131.3050  123.6910   61.1230 H   0  0  0  0  0  0  0  0  0  0  0  0
  132.8596  121.9734   62.8191 H   0  0  0  0  0  0  0  0  0  0  0  0
  134.1051  121.7085   61.4930 H   0  0  0  0  0  0  0  0  0  0  0  0
  135.1734  125.0508   67.4783 H   0  0  0  0  0  0  0  0  0  0  0  0
  136.0298  124.1204   66.2026 H   0  0  0  0  0  0  0  0  0  0  0  0
  136.0962  125.9154   66.2026 H   0  0  0  0  0  0  0  0  0  0  0  0
  132.9405  125.9443   67.0676 H   0  0  0  0  0  0  0  0  0  0  0  0
  130.1591  127.3336   64.0256 H   0  0  0  0  0  0  0  0  0  0  0  0
  128.0202  128.2098   64.9522 H   0  0  0  0  0  0  0  0  0  0  0  0
  127.2632  127.4902   67.2144 H   0  0  0  0  0  0  0  0  0  0  0  0
  128.6300  125.8936   68.5492 H   0  0  0  0  0  0  0  0  0  0  0  0
  130.7647  125.0095   67.6208 H   0  0  0  0  0  0  0  0  0  0  0  0
  128.4932  122.6794   61.3338 H   0  0  0  0  0  0  0  0  0  0  0  0
  126.6066  122.6944   59.7170 H   0  0  0  0  0  0  0  0  0  0  0  0
  1  2  1  0
  2  3  1  0
  3  4  2  0
  3  5  1  0
  5  6  2  0
  6  7  1  0
  7  8  2  0
  8  9  1  0
  9 10  1  0
 10 11  2  0
 10 12  1  0
 12 13  1  0
 13 14  1  0
 14 15  2  0
 15 16  1  0
 16 17  1  0
 16 18  2  0
 18 19  1  0
 19 20  1  0
 20 21  2  0
 21 22  1  0
 22 23  2  0
 23 24  1  0
 24 25  2  0
 19 26  2  0
 26 27  1  0
 27 28  3  0
  8 29  1  0
 29 30  2  0
 30  5  1  0
 26 14  1  0
 25 20  1  0
  1 31  1  0
  1 32  1  0
  1 33  1  0
  6 34  1  0
  7 35  1  0
  9 36  1  0
 12 37  1  0
 12 38  1  0
 17 39  1  0
 17 40  1  0
 17 41  1  0
 18 42  1  0
 21 43  1  0
 22 44  1  0
 23 45  1  0
 24 46  1  0
 25 47  1  0
 29 48  1  0
 30 49  1  0
M  END
>  <Binding energies>  (1) 
[-8.33]

>  <Ligand effiencies>  (1) 
[-0.26870967741935486]

>  <Interactions>  (1) 
["V-B:TYR:539:CE2:9844, V-B:MET:535:CE:9803, V-B:PRO:540:CA:9851, V-B:TYR:539:CD2:9842, V-B:PRO:540:N:9852, V-B:PRO:540:CB:9853, V-B:TYR:539:C:9835, V-B:TYR:539:CZ:9845, V-A:HIS:456:CE1:4064, H-A:TYR:484:OH:4343, H-A:GLY:454:N:4045, V-B:GLU:543:CD:9876, V-B:GLU:543:CG:9875, V-A:ARG:545:CZ:4921, V-B:GLU:543:CB:9874, V-A:GLU:543:CD:4903, V-A:ARG:545:CD:4918, V-A:GLY:454:CA:4044, V-A:ARG:545:CG:4917, V-A:GLY:453:CA:4039, V-A:GLY:453:C:4037, V-A:HIS:456:CD2:4063, V-A:ILE:369:CD1:3234, V-A:LEU:475:CD2:4254, V-B:LEU:363:CD1:8156, H-B:TYR:539:N:9838, H-A:ARG:545:NH1:4922, V-A:ILE:455:C:4047"]

$$$$
3ce_Grossjean_2025
     RDKit          3D

 45 47  0  0  0  0  0  0  0  0999 V2000
  129.5230  122.3600   59.2470 C   0  0  0  0  0  0  0  0  0  0  0  0
  130.5610  123.1330   58.4570 C   0  0  0  0  0  0  0  0  0  0  0  0
  131.9170  122.7980   58.5070 C   0  0  0  0  0  0  0  0  0  0  0  0
  132.8140  123.5470   57.7460 C   0  0  0  0  0  0  0  0  0  0  0  0
  132.3420  124.6030   56.9630 C   0  0  0  0  0  0  0  0  0  0  0  0
  130.9730  124.8920   56.9670 C   0  0  0  0  0  0  0  0  0  0  0  0
  130.5520  125.9520   56.1460 N   0  0  0  0  0  0  0  0  0  0  0  0
  129.8870  125.8860   54.9720 C   0  0  0  0  0  0  0  0  0  0  0  0
  129.5260  124.8440   54.4210 O   0  0  0  0  0  0  0  0  0  0  0  0
  129.5690  127.2280   54.3140 C   0  0  0  0  0  0  0  0  0  0  0  0
  128.4720  128.2470   55.3440 S   0  0  0  0  0  0  0  0  0  0  0  0
  129.4630  129.6130   55.9020 C   0  0  0  0  0  0  0  0  0  0  0  0
  129.4310  130.6900   55.0790 N   0  0  0  0  0  0  0  0  0  0  0  0
  130.1400  131.7890   55.4240 C   0  0  0  0  0  0  0  0  0  0  0  0
  130.0480  132.9610   54.4660 C   0  0  0  0  0  0  0  0  0  0  0  0
  130.9110  131.8510   56.5810 C   0  0  0  0  0  0  0  0  0  0  0  0
  130.9780  130.7390   57.4310 C   0  0  0  0  0  0  0  0  0  0  0  0
  131.8380  130.8450   58.6480 C   0  0  0  0  0  0  0  0  0  0  0  0
  131.2880  131.2680   59.8640 C   0  0  0  0  0  0  0  0  0  0  0  0
  132.0850  131.3750   61.0000 C   0  0  0  0  0  0  0  0  0  0  0  0
  133.4400  131.0650   60.9250 C   0  0  0  0  0  0  0  0  0  0  0  0
  134.0050  130.6530   59.7210 C   0  0  0  0  0  0  0  0  0  0  0  0
  133.2060  130.5460   58.5860 C   0  0  0  0  0  0  0  0  0  0  0  0
  130.2310  129.5840   57.0900 C   0  0  0  0  0  0  0  0  0  0  0  0
  130.2510  128.3950   57.9480 C   0  0  0  0  0  0  0  0  0  0  0  0
  130.2670  127.4580   58.6270 N   0  0  0  0  0  0  0  0  0  0  0  0
  130.0870  124.1580   57.7030 N   0  0  0  0  0  0  0  0  0  0  0  0
  129.7054  122.4958   60.3232 H   0  0  0  0  0  0  0  0  0  0  0  0
  128.5189  122.7320   58.9954 H   0  0  0  0  0  0  0  0  0  0  0  0
  129.5917  121.2914   58.9954 H   0  0  0  0  0  0  0  0  0  0  0  0
  132.2683  121.9635   59.1317 H   0  0  0  0  0  0  0  0  0  0  0  0
  133.8875  123.3075   57.7623 H   0  0  0  0  0  0  0  0  0  0  0  0
  133.0364  125.1987   56.3522 H   0  0  0  0  0  0  0  0  0  0  0  0
  130.6940  126.8730   56.5350 H   0  0  0  0  0  0  0  0  0  0  0  0
  130.5093  127.7742   54.1483 H   0  0  0  0  0  0  0  0  0  0  0  0
  129.0533  127.0270   53.3634 H   0  0  0  0  0  0  0  0  0  0  0  0
  129.9745  133.8975   55.0383 H   0  0  0  0  0  0  0  0  0  0  0  0
  130.9468  132.9881   53.8324 H   0  0  0  0  0  0  0  0  0  0  0  0
  129.1560  132.8475   53.8324 H   0  0  0  0  0  0  0  0  0  0  0  0
  131.4653  132.7687   56.8271 H   0  0  0  0  0  0  0  0  0  0  0  0
  130.2183  131.5176   59.9220 H   0  0  0  0  0  0  0  0  0  0  0  0
  131.6458  131.7033   61.9536 H   0  0  0  0  0  0  0  0  0  0  0  0
  134.0691  131.1461   61.8237 H   0  0  0  0  0  0  0  0  0  0  0  0
  135.0772  130.4133   59.6669 H   0  0  0  0  0  0  0  0  0  0  0  0
  133.6517  130.2243   57.6332 H   0  0  0  0  0  0  0  0  0  0  0  0
  1  2  1  0
  2  3  2  0
  3  4  1  0
  4  5  2  0
  5  6  1  0
  6  7  1  0
  7  8  1  0
  8  9  2  0
  8 10  1  0
 10 11  1  0
 11 12  1  0
 12 13  2  0
 13 14  1  0
 14 15  1  0
 14 16  2  0
 16 17  1  0
 17 18  1  0
 18 19  2  0
 19 20  1  0
 20 21  2  0
 21 22  1  0
 22 23  2  0
 17 24  2  0
 24 25  1  0
 25 26  3  0
  6 27  2  0
 27  2  1  0
 24 12  1  0
 23 18  1  0
  1 28  1  0
  1 29  1  0
  1 30  1  0
  3 31  1  0
  4 32  1  0
  5 33  1  0
  7 34  1  0
 10 35  1  0
 10 36  1  0
 15 37  1  0
 15 38  1  0
 15 39  1  0
 16 40  1  0
 19 41  1  0
 20 42  1  0
 21 43  1  0
 22 44  1  0
 23 45  1  0
M  END
>  <Binding energies>  (1) 
[-7.86]

>  <Ligand effiencies>  (1) 
[-0.28071428571428575]

>  <Interactions>  (1) 
["V-B:TYR:539:CE2:9844, V-B:TYR:539:CD2:9842, V-B:TYR:539:CZ:9845, V-A:LEU:363:CD1:3184, V-A:LEU:363:CA:3180, V-A:TYR:539:CE1:4870, V-A:ASN:362:C:3167, V-A:TYR:539:CD1:4868, V-A:PRO:540:CA:4878, V-A:LEU:363:CB:3182, H-A:TYR:531:OH:4790, V-A:ILE:538:CA:4855, V-A:TYR:531:CE2:4788, V-A:PRO:540:CB:4880, H-A:LYS:534:NZ:4818, V-A:TYR:531:CE1:4787, V-A:TYR:531:CZ:4789, V-A:ILE:538:CD1:4860, V-A:ILE:538:C:4853, V-A:VAL:537:C:4845, V-A:ASN:362:CB:3171"]

$$$$
3ch_Grossjean_2025
     RDKit          3D

 55 57  0  0  0  0  0  0  0  0999 V2000
  129.1590  123.7610   55.9330 C   0  0  0  0  0  0  0  0  0  0  0  0
  128.6440  122.6920   56.7190 O   0  0  0  0  0  0  0  0  0  0  0  0
  128.7750  122.7320   58.0950 C   0  0  0  0  0  0  0  0  0  0  0  0
  130.0080  122.7430   58.7670 C   0  0  0  0  0  0  0  0  0  0  0  0
  130.0650  122.7940   60.1670 C   0  0  0  0  0  0  0  0  0  0  0  0
  131.2500  122.8130   60.9260 N   0  0  0  0  0  0  0  0  0  0  0  0
  132.1990  121.8630   61.0690 C   0  0  0  0  0  0  0  0  0  0  0  0
  132.1950  120.7610   60.5190 O   0  0  0  0  0  0  0  0  0  0  0  0
  133.3800  122.2390   61.9630 C   0  0  0  0  0  0  0  0  0  0  0  0
  133.7510  124.0170   61.8970 S   0  0  0  0  0  0  0  0  0  0  0  0
  133.3340  124.6670   63.5000 C   0  0  0  0  0  0  0  0  0  0  0  0
  134.3540  124.6270   64.3930 N   0  0  0  0  0  0  0  0  0  0  0  0
  134.1360  125.0910   65.6440 C   0  0  0  0  0  0  0  0  0  0  0  0
  135.3170  125.0110   66.5930 C   0  0  0  0  0  0  0  0  0  0  0  0
  132.9080  125.6070   66.0500 C   0  0  0  0  0  0  0  0  0  0  0  0
  131.8430  125.6650   65.1400 C   0  0  0  0  0  0  0  0  0  0  0  0
  130.5410  126.2180   65.6230 C   0  0  0  0  0  0  0  0  0  0  0  0
  130.0240  125.8180   66.8610 C   0  0  0  0  0  0  0  0  0  0  0  0
  128.8080  126.3220   67.3140 C   0  0  0  0  0  0  0  0  0  0  0  0
  128.1000  127.2270   66.5270 C   0  0  0  0  0  0  0  0  0  0  0  0
  128.5970  127.6290   65.2900 C   0  0  0  0  0  0  0  0  0  0  0  0
  129.8140  127.1220   64.8400 C   0  0  0  0  0  0  0  0  0  0  0  0
  132.0620  125.2000   63.8180 C   0  0  0  0  0  0  0  0  0  0  0  0
  131.0150  125.3230   62.7990 C   0  0  0  0  0  0  0  0  0  0  0  0
  130.1890  125.4190   61.9950 N   0  0  0  0  0  0  0  0  0  0  0  0
  128.8730  122.8140   60.8940 C   0  0  0  0  0  0  0  0  0  0  0  0
  127.6280  122.8010   60.2470 C   0  0  0  0  0  0  0  0  0  0  0  0
  126.4120  122.8270   60.9080 O   0  0  0  0  0  0  0  0  0  0  0  0
  125.7550  124.0730   61.1160 C   0  0  0  0  0  0  0  0  0  0  0  0
  127.5930  122.7580   58.8470 C   0  0  0  0  0  0  0  0  0  0  0  0
  126.3800  122.7630   58.2000 O   0  0  0  0  0  0  0  0  0  0  0  0
  125.9730  124.0450   57.7420 C   0  0  0  0  0  0  0  0  0  0  0  0
  129.5402  124.5524   56.5951 H   0  0  0  0  0  0  0  0  0  0  0  0
  129.9765  123.3886   55.2982 H   0  0  0  0  0  0  0  0  0  0  0  0
  128.3582  124.1682   55.2982 H   0  0  0  0  0  0  0  0  0  0  0  0
  130.9421  122.7112   58.1870 H   0  0  0  0  0  0  0  0  0  0  0  0
  131.4240  123.6890   61.3980 H   0  0  0  0  0  0  0  0  0  0  0  0
  133.1399  121.9654   63.0010 H   0  0  0  0  0  0  0  0  0  0  0  0
  134.2649  121.6953   61.6005 H   0  0  0  0  0  0  0  0  0  0  0  0
  134.9552  125.0355   67.6315 H   0  0  0  0  0  0  0  0  0  0  0  0
  135.8653  124.0737   66.4178 H   0  0  0  0  0  0  0  0  0  0  0  0
  135.9867  125.8658   66.4178 H   0  0  0  0  0  0  0  0  0  0  0  0
  132.7741  125.9677   67.0805 H   0  0  0  0  0  0  0  0  0  0  0  0
  130.5825  125.1005   67.4801 H   0  0  0  0  0  0  0  0  0  0  0  0
  128.4081  126.0069   68.2891 H   0  0  0  0  0  0  0  0  0  0  0  0
  127.1403  127.6275   66.8856 H   0  0  0  0  0  0  0  0  0  0  0  0
  128.0322  128.3425   64.6720 H   0  0  0  0  0  0  0  0  0  0  0  0
  130.2068  127.4347   63.8613 H   0  0  0  0  0  0  0  0  0  0  0  0
  128.9107  122.8404   61.9930 H   0  0  0  0  0  0  0  0  0  0  0  0
  125.6565  124.2598   62.1955 H   0  0  0  0  0  0  0  0  0  0  0  0
  126.3449  124.8798   60.6566 H   0  0  0  0  0  0  0  0  0  0  0  0
  124.7560  124.0420   60.6566 H   0  0  0  0  0  0  0  0  0  0  0  0
  125.7668  124.6944   58.6056 H   0  0  0  0  0  0  0  0  0  0  0  0
  126.7746  124.4883   57.1329 H   0  0  0  0  0  0  0  0  0  0  0  0
  125.0625  123.9447   57.1329 H   0  0  0  0  0  0  0  0  0  0  0  0
  1  2  1  0
  2  3  1  0
  3  4  2  0
  4  5  1  0
  5  6  1  0
  6  7  1  0
  7  8  2  0
  7  9  1  0
  9 10  1  0
 10 11  1  0
 11 12  2  0
 12 13  1  0
 13 14  1  0
 13 15  2  0
 15 16  1  0
 16 17  1  0
 17 18  2  0
 18 19  1  0
 19 20  2  0
 20 21  1  0
 21 22  2  0
 16 23  2  0
 23 24  1  0
 24 25  3  0
  5 26  2  0
 26 27  1  0
 27 28  1  0
 28 29  1  0
 27 30  2  0
 30 31  1  0
 31 32  1  0
 30  3  1  0
 23 11  1  0
 22 17  1  0
  1 33  1  0
  1 34  1  0
  1 35  1  0
  4 36  1  0
  6 37  1  0
  9 38  1  0
  9 39  1  0
 14 40  1  0
 14 41  1  0
 14 42  1  0
 15 43  1  0
 18 44  1  0
 19 45  1  0
 20 46  1  0
 21 47  1  0
 22 48  1  0
 26 49  1  0
 29 50  1  0
 29 51  1  0
 29 52  1  0
 32 53  1  0
 32 54  1  0
 32 55  1  0
M  END
>  <Binding energies>  (1) 
[-7.62]

>  <Ligand effiencies>  (1) 
[-0.23090909090909092]

>  <Interactions>  (1) 
["V-B:TYR:539:CE2:9844, V-B:MET:535:CE:9803, V-B:PRO:540:CA:9851, V-B:TYR:539:CD2:9842, V-B:PRO:540:N:9852, V-B:PRO:540:C:9849, V-B:TYR:539:CE1:9843, V-B:TYR:539:C:9835, V-B:TYR:539:CZ:9845, V-A:HIS:456:CE1:4064, H-A:TYR:484:OH:4343, H-A:GLY:454:N:4045, V-B:GLU:543:CD:9876, V-B:GLU:543:CG:9875, V-A:ARG:545:CZ:4921, V-B:GLU:543:CB:9874, V-A:GLU:543:CD:4903, H-B:ALA:541:N:9859, V-A:ARG:545:CD:4918, V-A:GLY:454:CA:4044, V-A:ARG:545:CG:4917, V-A:GLY:453:CA:4039, V-A:GLY:453:C:4037, V-A:HIS:456:CD2:4063, V-A:ILE:369:CD1:3234, V-A:LEU:475:CD2:4254, V-A:ILE:455:C:4047"]

$$$$
3ci_Grossjean_2025
     RDKit          3D

 39 41  0  0  0  0  0  0  0  0999 V2000
  130.2540  118.7060   61.7140 C   0  0  0  0  0  0  0  0  0  0  0  0
  130.2940  120.0600   61.0290 C   0  0  0  0  0  0  0  0  0  0  0  0
  129.1330  120.7850   60.7760 C   0  0  0  0  0  0  0  0  0  0  0  0
  129.2220  122.0390   60.1550 C   0  0  0  0  0  0  0  0  0  0  0  0
  127.9520  122.7880   59.9170 C   0  0  0  0  0  0  0  0  0  0  0  0
  127.2180  123.3140   60.9880 C   0  0  0  0  0  0  0  0  0  0  0  0
  126.0300  124.0040   60.7610 C   0  0  0  0  0  0  0  0  0  0  0  0
  125.5670  124.1660   59.4590 C   0  0  0  0  0  0  0  0  0  0  0  0
  126.2800  123.6430   58.3830 C   0  0  0  0  0  0  0  0  0  0  0  0
  127.4670  122.9530   58.6140 C   0  0  0  0  0  0  0  0  0  0  0  0
  130.5060  122.5220   59.7930 C   0  0  0  0  0  0  0  0  0  0  0  0
  130.6570  123.8080   59.1030 C   0  0  0  0  0  0  0  0  0  0  0  0
  130.7750  124.8230   58.5590 N   0  0  0  0  0  0  0  0  0  0  0  0
  131.6340  121.7220   60.0930 C   0  0  0  0  0  0  0  0  0  0  0  0
  133.3000  122.2430   59.7020 S   0  0  0  0  0  0  0  0  0  0  0  0
  133.6610  123.8140   60.5530 C   0  0  0  0  0  0  0  0  0  0  0  0
  133.3430  123.7810   62.0520 C   0  0  0  0  0  0  0  0  0  0  0  0
  132.8630  122.7570   62.5430 O   0  0  0  0  0  0  0  0  0  0  0  0
  133.6080  124.9180   62.7340 N   0  0  0  0  0  0  0  0  0  0  0  0
  133.4410  125.1410   64.0930 C   0  0  0  0  0  0  0  0  0  0  0  0
  132.2670  125.6580   64.6400 C   0  0  0  0  0  0  0  0  0  0  0  0
  132.5030  125.7290   65.9940 C   0  0  0  0  0  0  0  0  0  0  0  0
  133.7550  125.2770   66.2480 O   0  0  0  0  0  0  0  0  0  0  0  0
  134.3390  124.9090   65.0360 N   0  0  0  0  0  0  0  0  0  0  0  0
  131.5220  120.5100   60.6940 N   0  0  0  0  0  0  0  0  0  0  0  0
  130.2582  118.8467   62.8050 H   0  0  0  0  0  0  0  0  0  0  0  0
  129.3397  118.1716   61.4167 H   0  0  0  0  0  0  0  0  0  0  0  0
  131.1352  118.1185   61.4167 H   0  0  0  0  0  0  0  0  0  0  0  0
  128.1522  120.3769   61.0614 H   0  0  0  0  0  0  0  0  0  0  0  0
  127.5832  123.1808   62.0170 H   0  0  0  0  0  0  0  0  0  0  0  0
  125.4609  124.4186   61.6061 H   0  0  0  0  0  0  0  0  0  0  0  0
  124.6294  124.7120   59.2779 H   0  0  0  0  0  0  0  0  0  0  0  0
  125.9074  123.7743   57.3564 H   0  0  0  0  0  0  0  0  0  0  0  0
  128.0284  122.5341   57.7659 H   0  0  0  0  0  0  0  0  0  0  0  0
  134.7302  124.0405   60.4282 H   0  0  0  0  0  0  0  0  0  0  0  0
  133.0176  124.5834   60.1013 H   0  0  0  0  0  0  0  0  0  0  0  0
  133.9950  125.6890   62.2120 H   0  0  0  0  0  0  0  0  0  0  0  0
  131.3503  125.9467   64.1048 H   0  0  0  0  0  0  0  0  0  0  0  0
  131.7903  126.0938   66.7483 H   0  0  0  0  0  0  0  0  0  0  0  0
  1  2  1  0
  2  3  2  0
  3  4  1  0
  4  5  1  0
  5  6  2  0
  6  7  1  0
  7  8  2  0
  8  9  1  0
  9 10  2  0
  4 11  2  0
 11 12  1  0
 12 13  3  0
 11 14  1  0
 14 15  1  0
 15 16  1  0
 16 17  1  0
 17 18  2  0
 17 19  1  0
 19 20  1  0
 20 21  1  0
 21 22  2  0
 22 23  1  0
 23 24  1  0
 14 25  2  0
 25  2  1  0
 10  5  1  0
 24 20  2  0
  1 26  1  0
  1 27  1  0
  1 28  1  0
  3 29  1  0
  6 30  1  0
  7 31  1  0
  8 32  1  0
  9 33  1  0
 10 34  1  0
 16 35  1  0
 16 36  1  0
 19 37  1  0
 21 38  1  0
 22 39  1  0
M  END
>  <Binding energies>  (1) 
[-7.85]

>  <Ligand effiencies>  (1) 
[-0.3019230769230769]

>  <Interactions>  (1) 
["V-B:ALA:541:CB:9860, V-B:TYR:539:CE2:9844, V-B:PRO:540:CA:9851, V-A:TRP:381:CH2:3367, V-B:TYR:539:CD2:9842, V-B:ALA:541:CA:9858, V-B:PRO:540:N:9852, V-B:PRO:540:CB:9853, V-B:PRO:540:C:9849, V-B:TYR:539:C:9835, V-A:ASP:366:CG:3208, H-A:ARG:545:NE:4919, H-A:TYR:484:OH:4343, H-A:GLY:454:N:4045, V-B:GLU:543:CD:9876, V-A:ARG:545:CZ:4921, H-A:HIS:456:NE2:4065, V-A:ASP:366:CB:3207, H-A:ASP:366:OD2:3210, V-A:ILE:369:CD1:3234, V-A:LEU:475:CD2:4254, V-A:TRP:381:CZ2:3365, V-A:PRO:482:CB:4321, V-A:LEU:475:CD1:4253, H-A:ASP:366:OD1:3209, V-A:LEU:475:CG:4252"]

$$$$
3cj_Grossjean_2025
     RDKit          3D

 39 41  0  0  0  0  0  0  0  0999 V2000
  124.6530  131.2320   58.8820 C   0  0  0  0  0  0  0  0  0  0  0  0
  125.4370  131.4620   60.1600 C   0  0  0  0  0  0  0  0  0  0  0  0
  125.0280  130.9140   61.3740 C   0  0  0  0  0  0  0  0  0  0  0  0
  125.7960  131.1340   62.5260 C   0  0  0  0  0  0  0  0  0  0  0  0
  125.3560  130.4740   63.7900 C   0  0  0  0  0  0  0  0  0  0  0  0
  124.2670  130.9760   64.5130 C   0  0  0  0  0  0  0  0  0  0  0  0
  123.8660  130.3670   65.6990 C   0  0  0  0  0  0  0  0  0  0  0  0
  124.5590  129.2550   66.1700 C   0  0  0  0  0  0  0  0  0  0  0  0
  125.6490  128.7500   65.4680 C   0  0  0  0  0  0  0  0  0  0  0  0
  126.0480  129.3600   64.2810 C   0  0  0  0  0  0  0  0  0  0  0  0
  126.9540  131.9430   62.4200 C   0  0  0  0  0  0  0  0  0  0  0  0
  127.7820  132.2330   63.5950 C   0  0  0  0  0  0  0  0  0  0  0  0
  128.4360  132.4600   64.5230 N   0  0  0  0  0  0  0  0  0  0  0  0
  127.2960  132.4540   61.1480 C   0  0  0  0  0  0  0  0  0  0  0  0
  128.7930  133.3700   60.8510 S   0  0  0  0  0  0  0  0  0  0  0  0
  130.0340  132.1090   60.4180 C   0  0  0  0  0  0  0  0  0  0  0  0
  130.3460  132.1080   58.9180 C   0  0  0  0  0  0  0  0  0  0  0  0
  131.4450  131.7090   58.5270 O   0  0  0  0  0  0  0  0  0  0  0  0
  129.3410  132.5230   58.1170 N   0  0  0  0  0  0  0  0  0  0  0  0
  129.3190  132.4900   56.7320 C   0  0  0  0  0  0  0  0  0  0  0  0
  129.9940  133.2480   55.8950 N   0  0  0  0  0  0  0  0  0  0  0  0
  129.7510  132.9180   54.6420 C   0  0  0  0  0  0  0  0  0  0  0  0
  128.8580  131.8690   54.4420 C   0  0  0  0  0  0  0  0  0  0  0  0
  128.3100  131.2910   55.9870 S   0  0  0  0  0  0  0  0  0  0  0  0
  126.5560  132.2100   60.0370 N   0  0  0  0  0  0  0  0  0  0  0  0
  123.6250  130.9304   59.1317 H   0  0  0  0  0  0  0  0  0  0  0  0
  124.6299  132.1612   58.2938 H   0  0  0  0  0  0  0  0  0  0  0  0
  125.1355  130.4376   58.2938 H   0  0  0  0  0  0  0  0  0  0  0  0
  124.1085  130.3127   61.4282 H   0  0  0  0  0  0  0  0  0  0  0  0
  123.7245  131.8578   64.1413 H   0  0  0  0  0  0  0  0  0  0  0  0
  123.0067  130.7620   66.2607 H   0  0  0  0  0  0  0  0  0  0  0  0
  124.2419  128.7713   67.1057 H   0  0  0  0  0  0  0  0  0  0  0  0
  126.1931  127.8731   65.8486 H   0  0  0  0  0  0  0  0  0  0  0  0
  126.9115  128.9644   63.7262 H   0  0  0  0  0  0  0  0  0  0  0  0
  130.9603  132.3156   60.9741 H   0  0  0  0  0  0  0  0  0  0  0  0
  129.6253  131.1226   60.6825 H   0  0  0  0  0  0  0  0  0  0  0  0
  128.4810  132.8090   58.5630 H   0  0  0  0  0  0  0  0  0  0  0  0
  130.2276  133.4427   53.8009 H   0  0  0  0  0  0  0  0  0  0  0  0
  128.5491  131.4704   53.4644 H   0  0  0  0  0  0  0  0  0  0  0  0
  1  2  1  0
  2  3  2  0
  3  4  1  0
  4  5  1  0
  5  6  2  0
  6  7  1  0
  7  8  2  0
  8  9  1  0
  9 10  2  0
  4 11  2  0
 11 12  1  0
 12 13  3  0
 11 14  1  0
 14 15  1  0
 15 16  1  0
 16 17  1  0
 17 18  2  0
 17 19  1  0
 19 20  1  0
 20 21  2  0
 21 22  1  0
 22 23  2  0
 23 24  1  0
 14 25  2  0
 25  2  1  0
 10  5  1  0
 24 20  1  0
  1 26  1  0
  1 27  1  0
  1 28  1  0
  3 29  1  0
  6 30  1  0
  7 31  1  0
  8 32  1  0
  9 33  1  0
 10 34  1  0
 16 35  1  0
 16 36  1  0
 19 37  1  0
 22 38  1  0
 23 39  1  0
M  END
>  <Binding energies>  (1) 
[-7.24]

>  <Ligand effiencies>  (1) 
[-0.2784615384615385]

>  <Interactions>  (1) 
["V-A:TYR:539:CZ:4872, V-A:PRO:540:N:4879, V-A:TYR:539:CE1:4870, V-A:TYR:539:C:4862, V-A:TYR:539:CD1:4868, V-A:PRO:540:CA:4878, V-A:TYR:539:CG:4867, H-A:ALA:541:N:4886, V-A:ILE:538:CA:4855, V-A:PRO:540:CB:4880, V-A:TYR:539:CE2:4871, V-B:ARG:545:CG:9890, V-B:HIS:456:CE1:9037, H-A:TYR:539:N:4865, H-B:TYR:484:OH:9315, V-B:ARG:545:CZ:9894, V-B:GLY:454:CA:9016, V-B:ARG:545:CD:9891, V-A:ALA:541:CB:4887, V-A:MET:535:CB:4827, H-A:TYR:539:O:4863"]

$$$$
3ck_Grossjean_2025
     RDKit          3D

 57 58  0  0  0  0  0  0  0  0999 V2000
  129.9080  125.2120   55.6810 C   0  0  0  0  0  0  0  0  0  0  0  0
  129.1620  124.4460   54.7480 O   0  0  0  0  0  0  0  0  0  0  0  0
  128.8350  123.1450   55.2160 C   0  0  0  0  0  0  0  0  0  0  0  0
  127.9420  123.2550   56.4590 C   0  0  0  0  0  0  0  0  0  0  0  0
  126.8170  122.4000   56.3070 O   0  0  0  0  0  0  0  0  0  0  0  0
  125.7740  122.6480   57.2410 C   0  0  0  0  0  0  0  0  0  0  0  0
  124.8090  123.6830   56.6510 C   0  0  0  0  0  0  0  0  0  0  0  0
  125.4640  124.9430   56.6270 O   0  0  0  0  0  0  0  0  0  0  0  0
  125.7980  125.4660   57.9040 C   0  0  0  0  0  0  0  0  0  0  0  0
  126.9750  126.4490   57.7670 C   0  0  0  0  0  0  0  0  0  0  0  0
  127.0500  127.1010   56.4550 N   0  0  0  0  0  0  0  0  0  0  0  0
  127.8890  128.0990   56.1230 C   0  0  0  0  0  0  0  0  0  0  0  0
  128.7240  128.5660   56.8990 O   0  0  0  0  0  0  0  0  0  0  0  0
  127.7480  128.6300   54.6870 C   0  0  0  0  0  0  0  0  0  0  0  0
  127.3230  130.4000   54.5450 S   0  0  0  0  0  0  0  0  0  0  0  0
  128.4060  131.3480   55.6040 C   0  0  0  0  0  0  0  0  0  0  0  0
  129.4950  131.8840   54.9990 N   0  0  0  0  0  0  0  0  0  0  0  0
  130.3600  132.6110   55.7420 C   0  0  0  0  0  0  0  0  0  0  0  0
  131.5550  133.1750   54.9980 C   0  0  0  0  0  0  0  0  0  0  0  0
  130.1780  132.8300   57.1050 C   0  0  0  0  0  0  0  0  0  0  0  0
  129.0640  132.2810   57.7520 C   0  0  0  0  0  0  0  0  0  0  0  0
  128.9220  132.5230   59.2190 C   0  0  0  0  0  0  0  0  0  0  0  0
  129.7470  131.8470   60.1260 C   0  0  0  0  0  0  0  0  0  0  0  0
  129.6130  132.0610   61.4970 C   0  0  0  0  0  0  0  0  0  0  0  0
  128.6480  132.9470   61.9650 C   0  0  0  0  0  0  0  0  0  0  0  0
  127.8140  133.6210   61.0760 C   0  0  0  0  0  0  0  0  0  0  0  0
  127.9500  133.4060   59.7070 C   0  0  0  0  0  0  0  0  0  0  0  0
  128.1410  131.5270   56.9820 C   0  0  0  0  0  0  0  0  0  0  0  0
  126.9340  130.9630   57.5980 C   0  0  0  0  0  0  0  0  0  0  0  0
  125.9820  130.5190   58.0840 N   0  0  0  0  0  0  0  0  0  0  0  0
  129.6250  124.9214   56.7035 H   0  0  0  0  0  0  0  0  0  0  0  0
  130.9820  125.0275   55.5314 H   0  0  0  0  0  0  0  0  0  0  0  0
  129.6952  126.2808   55.5314 H   0  0  0  0  0  0  0  0  0  0  0  0
  128.2991  122.5962   54.4276 H   0  0  0  0  0  0  0  0  0  0  0  0
  129.7587  122.6072   55.4760 H   0  0  0  0  0  0  0  0  0  0  0  0
  128.5136  122.9551   57.3497 H   0  0  0  0  0  0  0  0  0  0  0  0
  127.6014  124.2943   56.5769 H   0  0  0  0  0  0  0  0  0  0  0  0
  125.2318  121.7129   57.4448 H   0  0  0  0  0  0  0  0  0  0  0  0
  126.2002  123.0311   58.1799 H   0  0  0  0  0  0  0  0  0  0  0  0
  124.5295  123.3899   55.6283 H   0  0  0  0  0  0  0  0  0  0  0  0
  123.8972  123.7423   57.2634 H   0  0  0  0  0  0  0  0  0  0  0  0
  124.9279  125.9926   58.3230 H   0  0  0  0  0  0  0  0  0  0  0  0
  126.0862  124.6416   58.5728 H   0  0  0  0  0  0  0  0  0  0  0  0
  126.8680  127.2280   58.5362 H   0  0  0  0  0  0  0  0  0  0  0  0
  127.8983  125.8634   57.8878 H   0  0  0  0  0  0  0  0  0  0  0  0
  126.4060  126.7630   55.7550 H   0  0  0  0  0  0  0  0  0  0  0  0
  128.7053  128.4682   54.1698 H   0  0  0  0  0  0  0  0  0  0  0  0
  126.9064  128.0794   54.2414 H   0  0  0  0  0  0  0  0  0  0  0  0
  132.3041  133.5285   55.7218 H   0  0  0  0  0  0  0  0  0  0  0  0
  131.9972  132.3906   54.3663 H   0  0  0  0  0  0  0  0  0  0  0  0
  131.2305  134.0150   54.3663 H   0  0  0  0  0  0  0  0  0  0  0  0
  130.9054  133.4310   57.6705 H   0  0  0  0  0  0  0  0  0  0  0  0
  130.5057  131.1425   59.7544 H   0  0  0  0  0  0  0  0  0  0  0  0
  130.2672  131.5318   62.2054 H   0  0  0  0  0  0  0  0  0  0  0  0
  128.5426  133.1168   63.0467 H   0  0  0  0  0  0  0  0  0  0  0  0
  127.0523  134.3192   61.4533 H   0  0  0  0  0  0  0  0  0  0  0  0
  127.2892  133.9335   59.0033 H   0  0  0  0  0  0  0  0  0  0  0  0
  1  2  1  0
  2  3  1  0
  3  4  1  0
  4  5  1  0
  5  6  1  0
  6  7  1  0
  7  8  1  0
  8  9  1  0
  9 10  1  0
 10 11  1  0
 11 12  1  0
 12 13  2  0
 12 14  1  0
 14 15  1  0
 15 16  1  0
 16 17  2  0
 17 18  1  0
 18 19  1  0
 18 20  2  0
 20 21  1  0
 21 22  1  0
 22 23  2  0
 23 24  1  0
 24 25  2  0
 25 26  1  0
 26 27  2  0
 21 28  2  0
 28 29  1  0
 29 30  3  0
 28 16  1  0
 27 22  1  0
  1 31  1  0
  1 32  1  0
  1 33  1  0
  3 34  1  0
  3 35  1  0
  4 36  1  0
  4 37  1  0
  6 38  1  0
  6 39  1  0
  7 40  1  0
  7 41  1  0
  9 42  1  0
  9 43  1  0
 10 44  1  0
 10 45  1  0
 11 46  1  0
 14 47  1  0
 14 48  1  0
 19 49  1  0
 19 50  1  0
 19 51  1  0
 20 52  1  0
 23 53  1  0
 24 54  1  0
 25 55  1  0
 26 56  1  0
 27 57  1  0
M  END
>  <Binding energies>  (1) 
[-6.66]

>  <Ligand effiencies>  (1) 
[-0.21483870967741936]

>  <Interactions>  (1) 
["H-B:TYR:531:OH:9763, V-B:TYR:539:CE2:9844, V-B:MET:535:CE:9803, V-B:PRO:540:CD:9855, V-B:PRO:540:CA:9851, V-B:PRO:540:N:9852, V-B:PRO:540:CB:9853, V-B:TYR:539:CE1:9843, V-B:TYR:539:C:9835, V-B:TYR:539:CZ:9845, V-A:TYR:539:CZ:4872, V-A:PRO:540:N:4879, V-A:TYR:539:CE1:4870, V-A:TYR:539:C:4862, V-A:TYR:539:CD1:4868, V-A:PRO:540:CA:4878, V-A:TYR:539:CG:4867, V-A:PRO:540:CD:4882, V-A:ILE:538:CA:4855, V-A:PRO:540:CB:4880, V-A:TYR:539:CE2:4871, V-A:TYR:539:CD2:4869, H-A:LYS:534:NZ:4818, V-A:ILE:538:CG2:4858, V-B:LEU:363:CD1:8156, V-A:TYR:531:CE1:4787, V-A:ILE:538:CD1:4860, V-A:ALA:541:CB:4887, V-A:ILE:538:C:4853, V-A:ILE:538:CB:4857, V-A:MET:535:CG:4828, H-B:TYR:539:N:9838, H-A:TYR:539:OH:4873, V-B:TYR:531:CE2:9761, V-B:TYR:539:CD1:9841, H-B:MET:535:SD:9802"]

$$$$
4aa_Grossjean_2025
     RDKit          3D

 45 47  0  0  0  0  0  0  0  0999 V2000
  129.5540  129.0870   69.0050 C   0  0  0  0  0  0  0  0  0  0  0  0
  129.5320  127.9290   68.0020 C   0  0  0  0  0  0  0  0  0  0  0  0
  128.2460  127.3230   68.0090 O   0  0  0  0  0  0  0  0  0  0  0  0
  127.2630  127.7530   67.1760 C   0  0  0  0  0  0  0  0  0  0  0  0
  126.0590  127.5960   67.4040 O   0  0  0  0  0  0  0  0  0  0  0  0
  127.7860  128.4360   65.9450 C   0  0  0  0  0  0  0  0  0  0  0  0
  128.2360  127.6590   64.8700 C   0  0  0  0  0  0  0  0  0  0  0  0
  128.7310  128.2620   63.7170 C   0  0  0  0  0  0  0  0  0  0  0  0
  128.7780  129.6530   63.6110 C   0  0  0  0  0  0  0  0  0  0  0  0
  129.3040  130.1570   62.4060 N   0  0  0  0  0  0  0  0  0  0  0  0
  129.8240  131.3750   62.1220 C   0  0  0  0  0  0  0  0  0  0  0  0
  129.8800  132.3080   62.9240 O   0  0  0  0  0  0  0  0  0  0  0  0
  130.3130  131.5420   60.7520 C   0  0  0  0  0  0  0  0  0  0  0  0
  129.3820  132.4820   59.5830 S   0  0  0  0  0  0  0  0  0  0  0  0
  130.5480  132.1570   58.3220 C   0  0  0  0  0  0  0  0  0  0  0  0
  130.4020  132.6350   57.0850 N   0  0  0  0  0  0  0  0  0  0  0  0
  131.3760  132.3040   56.2010 C   0  0  0  0  0  0  0  0  0  0  0  0
  131.1880  132.8540   54.7990 C   0  0  0  0  0  0  0  0  0  0  0  0
  132.4810  131.5200   56.5220 C   0  0  0  0  0  0  0  0  0  0  0  0
  132.6310  131.0210   57.8210 C   0  0  0  0  0  0  0  0  0  0  0  0
  133.8550  130.1690   58.1240 C   0  0  0  0  0  0  0  0  0  0  0  0
  131.6290  131.3420   58.7750 C   0  0  0  0  0  0  0  0  0  0  0  0
  131.4670  131.0020   60.1640 C   0  0  0  0  0  0  0  0  0  0  0  0
  132.3740  130.2220   60.8360 N   0  0  0  0  0  0  0  0  0  0  0  0
  128.3350  130.4400   64.6840 C   0  0  0  0  0  0  0  0  0  0  0  0
  127.8430  129.8340   65.8380 C   0  0  0  0  0  0  0  0  0  0  0  0
  129.5464  128.6853   70.0290 H   0  0  0  0  0  0  0  0  0  0  0  0
  130.4637  129.6865   68.8530 H   0  0  0  0  0  0  0  0  0  0  0  0
  128.6677  129.7206   68.8530 H   0  0  0  0  0  0  0  0  0  0  0  0
  129.7519  128.3118   66.9945 H   0  0  0  0  0  0  0  0  0  0  0  0
  130.2908  127.1842   68.2838 H   0  0  0  0  0  0  0  0  0  0  0  0
  128.1979  126.5617   64.9375 H   0  0  0  0  0  0  0  0  0  0  0  0
  129.0874  127.6382   62.8840 H   0  0  0  0  0  0  0  0  0  0  0  0
  129.2710  129.5030   61.6370 H   0  0  0  0  0  0  0  0  0  0  0  0
  130.8327  133.8934   54.8575 H   0  0  0  0  0  0  0  0  0  0  0  0
  132.1474  132.8241   54.2617 H   0  0  0  0  0  0  0  0  0  0  0  0
  130.4476  132.2431   54.2617 H   0  0  0  0  0  0  0  0  0  0  0  0
  133.2359  131.2929   55.7548 H   0  0  0  0  0  0  0  0  0  0  0  0
  133.9804  130.0817   59.2133 H   0  0  0  0  0  0  0  0  0  0  0  0
  133.7215  129.1676   57.6888 H   0  0  0  0  0  0  0  0  0  0  0  0
  134.7478  130.6419   57.6888 H   0  0  0  0  0  0  0  0  0  0  0  0
  132.5760  130.3630   61.8160 H   0  0  0  0  0  0  0  0  0  0  0  0
  132.8740  129.4780   60.3710 H   0  0  0  0  0  0  0  0  0  0  0  0
  128.3760  131.5370   64.6144 H   0  0  0  0  0  0  0  0  0  0  0  0
  127.4954  130.4582   66.6744 H   0  0  0  0  0  0  0  0  0  0  0  0
  1  2  1  0
  2  3  1  0
  3  4  1  0
  4  5  2  0
  4  6  1  0
  6  7  2  0
  7  8  1  0
  8  9  2  0
  9 10  1  0
 10 11  1  0
 11 12  2  0
 11 13  1  0
 13 14  1  0
 14 15  1  0
 15 16  2  0
 16 17  1  0
 17 18  1  0
 17 19  2  0
 19 20  1  0
 20 21  1  0
 20 22  2  0
 22 23  1  0
 23 24  1  0
  9 25  1  0
 25 26  2  0
 26  6  1  0
 23 13  2  0
 22 15  1  0
  1 27  1  0
  1 28  1  0
  1 29  1  0
  2 30  1  0
  2 31  1  0
  7 32  1  0
  8 33  1  0
 10 34  1  0
 18 35  1  0
 18 36  1  0
 18 37  1  0
 19 38  1  0
 21 39  1  0
 21 40  1  0
 21 41  1  0
 24 42  1  0
 24 43  1  0
 25 44  1  0
 26 45  1  0
M  END
>  <Binding energies>  (1) 
[-7.15]

>  <Ligand effiencies>  (1) 
[-0.24655172413793106]

>  <Interactions>  (1) 
["H-A:GLU:543:OE2:4905, V-B:GLU:543:CD:9876, V-B:GLU:543:CB:9874, V-A:GLU:543:CD:4903, V-A:LEU:363:CD1:3184, V-A:PRO:540:N:4879, V-A:LEU:363:CA:3180, V-A:ASP:366:CB:3207, V-A:PRO:540:CA:4878, V-A:LEU:363:CB:3182, H-A:ALA:541:N:4886, V-A:PRO:540:CD:4882, V-A:ILE:538:CA:4855, H-A:ASP:366:OD2:3210, V-A:TYR:531:CE2:4788, V-A:PRO:540:CB:4880, V-A:GLU:543:CB:4901, V-B:HIS:456:CE1:9037, V-A:ILE:538:CG2:4858, V-A:TYR:531:CZ:4789, V-A:GLU:543:CG:4902, V-A:ILE:538:CD1:4860, V-A:ILE:538:CB:4857, V-A:GLU:543:C:4897"]

$$$$
4ab_Grossjean_2025
     RDKit          3D

 42 44  0  0  0  0  0  0  0  0999 V2000
  123.8710  124.8120   57.6330 C   0  0  0  0  0  0  0  0  0  0  0  0
  124.6840  124.3100   56.5810 O   0  0  0  0  0  0  0  0  0  0  0  0
  125.5880  123.3230   56.8070 C   0  0  0  0  0  0  0  0  0  0  0  0
  125.5490  122.2230   56.2460 O   0  0  0  0  0  0  0  0  0  0  0  0
  126.6370  123.6980   57.8140 C   0  0  0  0  0  0  0  0  0  0  0  0
  127.0470  122.7500   58.7600 C   0  0  0  0  0  0  0  0  0  0  0  0
  128.0160  123.0690   59.7080 C   0  0  0  0  0  0  0  0  0  0  0  0
  128.6010  124.3350   59.7230 C   0  0  0  0  0  0  0  0  0  0  0  0
  129.5640  124.5500   60.7280 N   0  0  0  0  0  0  0  0  0  0  0  0
  130.8180  125.0550   60.6410 C   0  0  0  0  0  0  0  0  0  0  0  0
  131.3590  125.3900   59.5870 O   0  0  0  0  0  0  0  0  0  0  0  0
  131.5360  125.1650   61.9130 C   0  0  0  0  0  0  0  0  0  0  0  0
  133.2220  124.6560   62.0300 S   0  0  0  0  0  0  0  0  0  0  0  0
  133.2710  125.0470   63.7340 C   0  0  0  0  0  0  0  0  0  0  0  0
  134.3710  124.8710   64.4680 N   0  0  0  0  0  0  0  0  0  0  0  0
  134.2750  125.2110   65.7760 C   0  0  0  0  0  0  0  0  0  0  0  0
  135.5350  124.9990   66.5940 C   0  0  0  0  0  0  0  0  0  0  0  0
  133.1180  125.7210   66.3620 C   0  0  0  0  0  0  0  0  0  0  0  0
  131.9650  125.9040   65.5890 C   0  0  0  0  0  0  0  0  0  0  0  0
  130.7270  126.4620   66.2740 C   0  0  0  0  0  0  0  0  0  0  0  0
  132.0260  125.5550   64.2130 C   0  0  0  0  0  0  0  0  0  0  0  0
  131.0530  125.6050   63.1550 C   0  0  0  0  0  0  0  0  0  0  0  0
  129.7710  126.0520   63.3610 N   0  0  0  0  0  0  0  0  0  0  0  0
  128.1940  125.2930   58.7820 C   0  0  0  0  0  0  0  0  0  0  0  0
  127.2230  124.9730   57.8370 C   0  0  0  0  0  0  0  0  0  0  0  0
  124.3145  124.5382   58.6017 H   0  0  0  0  0  0  0  0  0  0  0  0
  123.8065  125.9074   57.5558 H   0  0  0  0  0  0  0  0  0  0  0  0
  122.8628  124.3790   57.5558 H   0  0  0  0  0  0  0  0  0  0  0  0
  126.5998  121.7450   58.7541 H   0  0  0  0  0  0  0  0  0  0  0  0
  128.3222  122.3171   60.4503 H   0  0  0  0  0  0  0  0  0  0  0  0
  129.2660  124.2680   61.6500 H   0  0  0  0  0  0  0  0  0  0  0  0
  135.2881  125.0405   67.6651 H   0  0  0  0  0  0  0  0  0  0  0  0
  135.9662  124.0157   66.3550 H   0  0  0  0  0  0  0  0  0  0  0  0
  136.2643  125.7871   66.3550 H   0  0  0  0  0  0  0  0  0  0  0  0
  133.1106  125.9796   67.4311 H   0  0  0  0  0  0  0  0  0  0  0  0
  130.8544  126.4046   67.3651 H   0  0  0  0  0  0  0  0  0  0  0  0
  130.5847  127.5113   65.9762 H   0  0  0  0  0  0  0  0  0  0  0  0
  129.8466  125.8737   65.9762 H   0  0  0  0  0  0  0  0  0  0  0  0
  129.5710  127.0160   63.5790 H   0  0  0  0  0  0  0  0  0  0  0  0
  128.9820  125.4220   63.3050 H   0  0  0  0  0  0  0  0  0  0  0  0
  128.6424  126.2974   58.7910 H   0  0  0  0  0  0  0  0  0  0  0  0
  126.9116  125.7280   57.1001 H   0  0  0  0  0  0  0  0  0  0  0  0
  1  2  1  0
  2  3  1  0
  3  4  2  0
  3  5  1  0
  5  6  2  0
  6  7  1  0
  7  8  2  0
  8  9  1  0
  9 10  1  0
 10 11  2  0
 10 12  1  0
 12 13  1  0
 13 14  1  0
 14 15  2  0
 15 16  1  0
 16 17  1  0
 16 18  2  0
 18 19  1  0
 19 20  1  0
 19 21  2  0
 21 22  1  0
 22 23  1  0
  8 24  1  0
 24 25  2  0
 25  5  1  0
 22 12  2  0
 21 14  1  0
  1 26  1  0
  1 27  1  0
  1 28  1  0
  6 29  1  0
  7 30  1  0
  9 31  1  0
 17 32  1  0
 17 33  1  0
 17 34  1  0
 18 35  1  0
 20 36  1  0
 20 37  1  0
 20 38  1  0
 23 39  1  0
 23 40  1  0
 24 41  1  0
 25 42  1  0
M  END
>  <Binding energies>  (1) 
[-7.06]

>  <Ligand effiencies>  (1) 
[-0.2521428571428571]

>  <Interactions>  (1) 
["H-B:TYR:531:OH:9763, V-B:MET:535:CE:9803, V-B:PRO:540:CA:9851, V-B:PRO:540:N:9852, V-B:PRO:540:CB:9853, V-B:TYR:539:C:9835, V-A:HIS:456:CE1:4064, V-A:ASP:366:CG:3208, H-A:ARG:545:NE:4919, H-A:TYR:484:OH:4343, H-A:GLY:454:N:4045, H-A:GLU:543:OE1:4904, V-B:GLU:543:CD:9876, V-A:ARG:545:CZ:4921, V-A:GLU:543:CD:4903, H-B:GLU:543:OE2:9878, V-A:ARG:545:CD:4918, V-A:GLY:454:CA:4044, V-A:ARG:545:CG:4917, V-A:GLY:453:CA:4039, V-A:GLY:453:C:4037, V-A:HIS:456:CD2:4063, V-B:LEU:363:CA:8152, V-B:LEU:363:CD1:8156, H-B:TYR:539:N:9838, V-B:ASP:366:CG:8180, V-B:TYR:531:CZ:9762, V-B:ASP:366:CB:8179, V-B:TYR:531:CE2:9761, H-A:ARG:545:NH1:4922, V-A:ILE:455:C:4047"]

$$$$
4ac_Grossjean_2025
     RDKit          3D

 40 42  0  0  0  0  0  0  0  0999 V2000
  125.0080  122.3430   56.5180 C   0  0  0  0  0  0  0  0  0  0  0  0
  126.3730  122.0400   56.2480 O   0  0  0  0  0  0  0  0  0  0  0  0
  127.3360  122.3790   57.1780 C   0  0  0  0  0  0  0  0  0  0  0  0
  126.8760  122.7570   58.4400 C   0  0  0  0  0  0  0  0  0  0  0  0
  127.7730  123.1160   59.4430 C   0  0  0  0  0  0  0  0  0  0  0  0
  129.1470  123.0920   59.1980 C   0  0  0  0  0  0  0  0  0  0  0  0
  129.9750  123.4830   60.2660 N   0  0  0  0  0  0  0  0  0  0  0  0
  131.1310  124.1890   60.2400 C   0  0  0  0  0  0  0  0  0  0  0  0
  131.6730  124.5870   59.2070 O   0  0  0  0  0  0  0  0  0  0  0  0
  131.7310  124.4590   61.5490 C   0  0  0  0  0  0  0  0  0  0  0  0
  133.4230  124.0630   61.8540 S   0  0  0  0  0  0  0  0  0  0  0  0
  133.3140  124.6520   63.4980 C   0  0  0  0  0  0  0  0  0  0  0  0
  134.3580  124.6260   64.3270 N   0  0  0  0  0  0  0  0  0  0  0  0
  134.1400  125.1110   65.5730 C   0  0  0  0  0  0  0  0  0  0  0  0
  135.3400  125.0730   66.5020 C   0  0  0  0  0  0  0  0  0  0  0  0
  132.9140  125.6150   66.0060 C   0  0  0  0  0  0  0  0  0  0  0  0
  131.8210  125.6410   65.1320 C   0  0  0  0  0  0  0  0  0  0  0  0
  130.5050  126.2000   65.6500 C   0  0  0  0  0  0  0  0  0  0  0  0
  132.0130  125.1420   63.8160 C   0  0  0  0  0  0  0  0  0  0  0  0
  131.1300  125.0220   62.6870 C   0  0  0  0  0  0  0  0  0  0  0  0
  129.8190  125.4260   62.7360 N   0  0  0  0  0  0  0  0  0  0  0  0
  129.6170  122.7250   57.9280 C   0  0  0  0  0  0  0  0  0  0  0  0
  128.7160  122.3680   56.9280 C   0  0  0  0  0  0  0  0  0  0  0  0
  124.8485  122.3784   57.6058 H   0  0  0  0  0  0  0  0  0  0  0  0
  124.7552  123.3191   56.0784 H   0  0  0  0  0  0  0  0  0  0  0  0
  124.3659  121.5655   56.0784 H   0  0  0  0  0  0  0  0  0  0  0  0
  125.7953  122.7716   58.6444 H   0  0  0  0  0  0  0  0  0  0  0  0
  127.3976  123.4194   60.4314 H   0  0  0  0  0  0  0  0  0  0  0  0
  129.6720  123.1570   61.1730 H   0  0  0  0  0  0  0  0  0  0  0  0
  134.9955  125.0839   67.5466 H   0  0  0  0  0  0  0  0  0  0  0  0
  135.9186  124.1561   66.3163 H   0  0  0  0  0  0  0  0  0  0  0  0
  135.9754  125.9515   66.3163 H   0  0  0  0  0  0  0  0  0  0  0  0
  132.8059  125.9919   67.0338 H   0  0  0  0  0  0  0  0  0  0  0  0
  130.5128  126.1967   66.7500 H   0  0  0  0  0  0  0  0  0  0  0  0
  130.3763  127.2305   65.2874 H   0  0  0  0  0  0  0  0  0  0  0  0
  129.6740  125.5772   65.2874 H   0  0  0  0  0  0  0  0  0  0  0  0
  129.0730  124.7880   62.9710 H   0  0  0  0  0  0  0  0  0  0  0  0
  129.5580  126.3820   62.5410 H   0  0  0  0  0  0  0  0  0  0  0  0
  130.6975  122.7193   57.7221 H   0  0  0  0  0  0  0  0  0  0  0  0
  129.0891  122.0754   55.9354 H   0  0  0  0  0  0  0  0  0  0  0  0
  1  2  1  0
  2  3  1  0
  3  4  2  0
  4  5  1  0
  5  6  2  0
  6  7  1  0
  7  8  1  0
  8  9  2  0
  8 10  1  0
 10 11  1  0
 11 12  1  0
 12 13  2  0
 13 14  1  0
 14 15  1  0
 14 16  2  0
 16 17  1  0
 17 18  1  0
 17 19  2  0
 19 20  1  0
 20 21  1  0
  6 22  1  0
 22 23  2  0
 23  3  1  0
 20 10  2  0
 19 12  1  0
  1 24  1  0
  1 25  1  0
  1 26  1  0
  4 27  1  0
  5 28  1  0
  7 29  1  0
 15 30  1  0
 15 31  1  0
 15 32  1  0
 16 33  1  0
 18 34  1  0
 18 35  1  0
 18 36  1  0
 21 37  1  0
 21 38  1  0
 22 39  1  0
 23 40  1  0
M  END
>  <Binding energies>  (1) 
[-7.15]

>  <Ligand effiencies>  (1) 
[-0.275]

>  <Interactions>  (1) 
["V-B:TYR:539:CE2:9844, V-B:MET:535:CE:9803, V-B:PRO:540:CD:9855, V-B:PRO:540:CA:9851, V-B:TYR:539:CD2:9842, V-B:PRO:540:N:9852, V-B:PRO:540:CB:9853, V-B:TYR:539:CE1:9843, V-B:TYR:539:C:9835, V-B:TYR:539:CZ:9845, V-A:ASP:366:CG:3208, H-A:TYR:484:OH:4343, H-A:GLY:454:N:4045, V-B:GLU:543:CD:9876, V-A:ARG:545:CZ:4921, H-B:GLU:543:OE2:9878, V-A:ARG:545:CD:4918, V-A:GLY:454:CA:4044, V-A:ARG:545:CG:4917, V-A:GLY:453:CA:4039, V-A:GLY:453:C:4037, V-A:HIS:456:CD2:4063, V-A:ILE:369:CD1:3234, V-B:LEU:363:CD1:8156, H-B:TYR:539:N:9838, V-B:PRO:540:CG:9854, V-B:ILE:538:CG2:9831, V-B:TYR:539:CD1:9841, V-B:TYR:539:CA:9837, V-B:TYR:539:CG:9840, H-A:ARG:545:NH1:4922, V-A:ILE:455:C:4047"]

$$$$
4ad_Grossjean_2025
     RDKit          3D

 36 38  0  0  0  0  0  0  0  0999 V2000
  131.1000  132.8800   54.6290 C   0  0  0  0  0  0  0  0  0  0  0  0
  131.2260  132.3780   56.0550 C   0  0  0  0  0  0  0  0  0  0  0  0
  132.2960  131.5720   56.4400 C   0  0  0  0  0  0  0  0  0  0  0  0
  132.3910  131.1180   57.7610 C   0  0  0  0  0  0  0  0  0  0  0  0
  133.5760  130.2390   58.1330 C   0  0  0  0  0  0  0  0  0  0  0  0
  131.3710  131.5070   58.6710 C   0  0  0  0  0  0  0  0  0  0  0  0
  131.1580  131.2300   60.0660 C   0  0  0  0  0  0  0  0  0  0  0  0
  132.0260  130.4600   60.7990 N   0  0  0  0  0  0  0  0  0  0  0  0
  129.9970  131.8160   60.5940 C   0  0  0  0  0  0  0  0  0  0  0  0
  129.4710  131.7290   61.9570 C   0  0  0  0  0  0  0  0  0  0  0  0
  129.8770  132.4920   62.8370 O   0  0  0  0  0  0  0  0  0  0  0  0
  128.5250  130.7790   62.1560 N   0  0  0  0  0  0  0  0  0  0  0  0
  127.8580  130.4120   63.3410 C   0  0  0  0  0  0  0  0  0  0  0  0
  126.4930  130.1360   63.2140 C   0  0  0  0  0  0  0  0  0  0  0  0
  125.7480  129.7560   64.3260 C   0  0  0  0  0  0  0  0  0  0  0  0
  126.3690  129.6420   65.5670 C   0  0  0  0  0  0  0  0  0  0  0  0
  127.7310  129.9010   65.7040 C   0  0  0  0  0  0  0  0  0  0  0  0
  128.4780  130.2830   64.5940 C   0  0  0  0  0  0  0  0  0  0  0  0
  129.1340  132.7390   59.3620 S   0  0  0  0  0  0  0  0  0  0  0  0
  130.3280  132.3330   58.1520 C   0  0  0  0  0  0  0  0  0  0  0  0
  130.2360  132.7670   56.8940 N   0  0  0  0  0  0  0  0  0  0  0  0
  130.8322  133.9469   54.6382 H   0  0  0  0  0  0  0  0  0  0  0  0
  132.0593  132.7472   54.1074 H   0  0  0  0  0  0  0  0  0  0  0  0
  130.3171  132.3099   54.1074 H   0  0  0  0  0  0  0  0  0  0  0  0
  133.0660  131.2925   55.7058 H   0  0  0  0  0  0  0  0  0  0  0  0
  133.6579  130.1782   59.2283 H   0  0  0  0  0  0  0  0  0  0  0  0
  133.4283  129.2303   57.7198 H   0  0  0  0  0  0  0  0  0  0  0  0
  134.4985  130.6730   57.7198 H   0  0  0  0  0  0  0  0  0  0  0  0
  132.1600  130.6010   61.7890 H   0  0  0  0  0  0  0  0  0  0  0  0
  132.5590  129.7160   60.3680 H   0  0  0  0  0  0  0  0  0  0  0  0
  128.2370  130.2620   61.3380 H   0  0  0  0  0  0  0  0  0  0  0  0
  126.0063  130.2196   62.2311 H   0  0  0  0  0  0  0  0  0  0  0  0
  124.6729  129.5465   64.2251 H   0  0  0  0  0  0  0  0  0  0  0  0
  125.7792  129.3449   66.4467 H   0  0  0  0  0  0  0  0  0  0  0  0
  128.2146  129.8038   66.6872 H   0  0  0  0  0  0  0  0  0  0  0  0
  129.5545  130.4839   64.6982 H   0  0  0  0  0  0  0  0  0  0  0  0
  1  2  1  0
  2  3  2  0
  3  4  1  0
  4  5  1  0
  4  6  2  0
  6  7  1  0
  7  8  1  0
  7  9  2  0
  9 10  1  0
 10 11  2  0
 10 12  1  0
 12 13  1  0
 13 14  2  0
 14 15  1  0
 15 16  2  0
 16 17  1  0
 17 18  2  0
  9 19  1  0
 19 20  1  0
 20 21  2  0
 21  2  1  0
 20  6  1  0
 18 13  1  0
  1 22  1  0
  1 23  1  0
  1 24  1  0
  3 25  1  0
  5 26  1  0
  5 27  1  0
  5 28  1  0
  8 29  1  0
  8 30  1  0
 12 31  1  0
 14 32  1  0
 15 33  1  0
 16 34  1  0
 17 35  1  0
 18 36  1  0
M  END
>  <Binding energies>  (1) 
[-6.74]

>  <Ligand effiencies>  (1) 
[-0.2808333333333333]

>  <Interactions>  (1) 
["H-A:GLU:543:OE2:4905, V-A:GLU:543:CD:4903, V-A:LEU:363:CD1:3184, V-A:PRO:540:N:4879, V-A:LEU:363:CA:3180, V-A:TYR:539:C:4862, V-A:PRO:540:CA:4878, H-A:ALA:541:N:4886, V-A:PRO:540:CD:4882, V-A:ILE:538:CA:4855, H-A:ASP:366:OD2:3210, V-A:TYR:531:CE2:4788, V-A:PRO:540:CB:4880, V-B:HIS:456:CE1:9037, H-A:TYR:539:N:4865, V-A:ILE:538:CG2:4858, V-A:TYR:531:CZ:4789, V-A:GLU:543:CG:4902, V-A:ILE:538:CD1:4860, V-A:ILE:538:CB:4857"]

$$$$
4ae_Grossjean_2025
     RDKit          3D

 38 40  0  0  0  0  0  0  0  0999 V2000
  128.7290  130.2900   67.1220 C   0  0  0  0  0  0  0  0  0  0  0  0
  127.9990  130.0700   65.8110 C   0  0  0  0  0  0  0  0  0  0  0  0
  126.7290  129.4910   65.7690 C   0  0  0  0  0  0  0  0  0  0  0  0
  126.1210  129.3120   64.5260 C   0  0  0  0  0  0  0  0  0  0  0  0
  126.7910  129.7110   63.3670 C   0  0  0  0  0  0  0  0  0  0  0  0
  128.0590  130.2930   63.4810 C   0  0  0  0  0  0  0  0  0  0  0  0
  128.6910  130.6550   62.2790 N   0  0  0  0  0  0  0  0  0  0  0  0
  129.5390  131.6880   62.0440 C   0  0  0  0  0  0  0  0  0  0  0  0
  129.8840  132.5000   62.9030 O   0  0  0  0  0  0  0  0  0  0  0  0
  130.0340  131.7920   60.6700 C   0  0  0  0  0  0  0  0  0  0  0  0
  129.1350  132.7170   59.4660 S   0  0  0  0  0  0  0  0  0  0  0  0
  130.2950  132.3180   58.2210 C   0  0  0  0  0  0  0  0  0  0  0  0
  130.1640  132.7530   56.9680 N   0  0  0  0  0  0  0  0  0  0  0  0
  131.1280  132.3670   56.0990 C   0  0  0  0  0  0  0  0  0  0  0  0
  130.9550  132.8680   54.6770 C   0  0  0  0  0  0  0  0  0  0  0  0
  132.2130  131.5650   56.4510 C   0  0  0  0  0  0  0  0  0  0  0  0
  132.3490  131.1110   57.7680 C   0  0  0  0  0  0  0  0  0  0  0  0
  133.5470  130.2350   58.1030 C   0  0  0  0  0  0  0  0  0  0  0  0
  131.3540  131.4940   58.7080 C   0  0  0  0  0  0  0  0  0  0  0  0
  131.1820  131.2100   60.1080 C   0  0  0  0  0  0  0  0  0  0  0  0
  132.0700  130.4380   60.8140 N   0  0  0  0  0  0  0  0  0  0  0  0
  128.6620  130.4640   64.6940 N   0  0  0  0  0  0  0  0  0  0  0  0
  128.0471  130.0845   67.9603 H   0  0  0  0  0  0  0  0  0  0  0  0
  129.5938  129.6126   67.1783 H   0  0  0  0  0  0  0  0  0  0  0  0
  129.0755  131.3325   67.1783 H   0  0  0  0  0  0  0  0  0  0  0  0
  126.2198  129.1832   66.6942 H   0  0  0  0  0  0  0  0  0  0  0  0
  125.1206  128.8596   64.4591 H   0  0  0  0  0  0  0  0  0  0  0  0
  126.3288  129.5699   62.3789 H   0  0  0  0  0  0  0  0  0  0  0  0
  128.4340  130.0940   61.4800 H   0  0  0  0  0  0  0  0  0  0  0  0
  130.5960  133.9076   54.6956 H   0  0  0  0  0  0  0  0  0  0  0  0
  131.9207  132.8229   54.1523 H   0  0  0  0  0  0  0  0  0  0  0  0
  130.2228  132.2366   54.1523 H   0  0  0  0  0  0  0  0  0  0  0  0
  132.9618  131.2892   55.6939 H   0  0  0  0  0  0  0  0  0  0  0  0
  133.6514  130.1587   59.1954 H   0  0  0  0  0  0  0  0  0  0  0  0
  133.3977  129.2315   57.6779 H   0  0  0  0  0  0  0  0  0  0  0  0
  134.4580  130.6815   57.6779 H   0  0  0  0  0  0  0  0  0  0  0  0
  132.5990  129.6970   60.3760 H   0  0  0  0  0  0  0  0  0  0  0  0
  132.2250  130.5870   61.8020 H   0  0  0  0  0  0  0  0  0  0  0  0
  1  2  1  0
  2  3  2  0
  3  4  1  0
  4  5  2  0
  5  6  1  0
  6  7  1  0
  7  8  1  0
  8  9  2  0
  8 10  1  0
 10 11  1  0
 11 12  1  0
 12 13  2  0
 13 14  1  0
 14 15  1  0
 14 16  2  0
 16 17  1  0
 17 18  1  0
 17 19  2  0
 19 20  1  0
 20 21  1  0
  6 22  2  0
 22  2  1  0
 20 10  2  0
 19 12  1  0
  1 23  1  0
  1 24  1  0
  1 25  1  0
  3 26  1  0
  4 27  1  0
  5 28  1  0
  7 29  1  0
 15 30  1  0
 15 31  1  0
 15 32  1  0
 16 33  1  0
 18 34  1  0
 18 35  1  0
 18 36  1  0
 21 37  1  0
 21 38  1  0
M  END
>  <Binding energies>  (1) 
[-6.98]

>  <Ligand effiencies>  (1) 
[-0.2792]

>  <Interactions>  (1) 
["H-A:GLU:543:OE2:4905, V-A:GLU:543:CD:4903, V-A:LEU:363:CD1:3184, V-A:PRO:540:N:4879, V-A:LEU:363:CA:3180, V-A:TYR:539:C:4862, V-A:PRO:540:CA:4878, H-A:ALA:541:N:4886, V-A:PRO:540:CD:4882, V-A:ILE:538:CA:4855, H-A:ASP:366:OD2:3210, V-A:TYR:531:CE2:4788, V-A:PRO:540:CB:4880, V-A:GLU:543:CB:4901, V-B:HIS:456:CE1:9037, H-A:TYR:539:N:4865, V-A:ILE:538:CG2:4858, V-A:TYR:531:CZ:4789, H-B:TYR:484:OH:9315, V-A:GLU:543:CG:4902, V-A:ILE:538:CD1:4860, V-A:ILE:538:CB:4857, V-A:GLU:543:CA:4899, V-B:TYR:484:CZ:9314, V-B:TYR:484:CE1:9312"]

$$$$
4af_Grossjean_2025
     RDKit          3D

 35 37  0  0  0  0  0  0  0  0999 V2000
  130.5130  132.8790   55.4940 C   0  0  0  0  0  0  0  0  0  0  0  0
  130.4510  132.4680   56.9540 C   0  0  0  0  0  0  0  0  0  0  0  0
  131.4970  131.7640   57.5460 C   0  0  0  0  0  0  0  0  0  0  0  0
  131.4170  131.3930   58.8940 C   0  0  0  0  0  0  0  0  0  0  0  0
  132.5830  130.6240   59.4950 C   0  0  0  0  0  0  0  0  0  0  0  0
  130.2470  131.7570   59.6130 C   0  0  0  0  0  0  0  0  0  0  0  0
  129.8400  131.5410   60.9760 C   0  0  0  0  0  0  0  0  0  0  0  0
  130.6290  130.8720   61.8780 N   0  0  0  0  0  0  0  0  0  0  0  0
  128.5800  132.0750   61.2870 C   0  0  0  0  0  0  0  0  0  0  0  0
  127.8510  132.0140   62.5560 C   0  0  0  0  0  0  0  0  0  0  0  0
  128.1240  132.7890   63.4730 O   0  0  0  0  0  0  0  0  0  0  0  0
  126.8770  131.0730   62.6200 N   0  0  0  0  0  0  0  0  0  0  0  0
  126.0370  130.7260   63.6950 C   0  0  0  0  0  0  0  0  0  0  0  0
  126.3800  129.8650   64.7530 C   0  0  0  0  0  0  0  0  0  0  0  0
  125.4430  129.5900   65.7510 C   0  0  0  0  0  0  0  0  0  0  0  0
  124.1810  130.1800   65.6650 C   0  0  0  0  0  0  0  0  0  0  0  0
  123.8240  131.0080   64.6510 N   0  0  0  0  0  0  0  0  0  0  0  0
  124.7450  131.2650   63.6890 C   0  0  0  0  0  0  0  0  0  0  0  0
  127.8580  132.8630   59.8820 S   0  0  0  0  0  0  0  0  0  0  0  0
  129.2480  132.4770   58.8920 C   0  0  0  0  0  0  0  0  0  0  0  0
  129.3210  132.8330   57.6090 N   0  0  0  0  0  0  0  0  0  0  0  0
  130.6768  133.9646   55.4253 H   0  0  0  0  0  0  0  0  0  0  0  0
  131.3417  132.3512   54.9994 H   0  0  0  0  0  0  0  0  0  0  0  0
  129.5655  132.6191   54.9994 H   0  0  0  0  0  0  0  0  0  0  0  0
  132.3860  131.4994   56.9546 H   0  0  0  0  0  0  0  0  0  0  0  0
  132.5220  130.6642   60.5926 H   0  0  0  0  0  0  0  0  0  0  0  0
  132.5408  129.5760   59.1636 H   0  0  0  0  0  0  0  0  0  0  0  0
  133.5297  131.0755   59.1636 H   0  0  0  0  0  0  0  0  0  0  0  0
  130.8660  129.8970   61.7600 H   0  0  0  0  0  0  0  0  0  0  0  0
  131.0040  131.3370   62.6930 H   0  0  0  0  0  0  0  0  0  0  0  0
  126.7170  130.5400   61.7780 H   0  0  0  0  0  0  0  0  0  0  0  0
  127.3810  129.4108   64.7940 H   0  0  0  0  0  0  0  0  0  0  0  0
  125.6943  128.9220   66.5880 H   0  0  0  0  0  0  0  0  0  0  0  0
  123.4443  129.9645   66.4529 H   0  0  0  0  0  0  0  0  0  0  0  0
  124.4620  131.9316   62.8610 H   0  0  0  0  0  0  0  0  0  0  0  0
  1  2  1  0
  2  3  2  0
  3  4  1  0
  4  5  1  0
  4  6  2  0
  6  7  1  0
  7  8  1  0
  7  9  2  0
  9 10  1  0
 10 11  2  0
 10 12  1  0
 12 13  1  0
 13 14  2  0
 14 15  1  0
 15 16  2  0
 16 17  1  0
 17 18  2  0
  9 19  1  0
 19 20  1  0
 20 21  2  0
 21  2  1  0
 20  6  1  0
 18 13  1  0
  1 22  1  0
  1 23  1  0
  1 24  1  0
  3 25  1  0
  5 26  1  0
  5 27  1  0
  5 28  1  0
  8 29  1  0
  8 30  1  0
 12 31  1  0
 14 32  1  0
 15 33  1  0
 16 34  1  0
 18 35  1  0
M  END
>  <Binding energies>  (1) 
[-6.6]

>  <Ligand effiencies>  (1) 
[-0.27499999999999997]

>  <Interactions>  (1) 
["H-A:GLU:543:OE2:4905, V-A:GLU:543:CD:4903, V-A:PRO:540:N:4879, V-A:TYR:539:C:4862, V-A:TYR:539:CD1:4868, V-A:PRO:540:CA:4878, V-A:PRO:540:CD:4882, V-A:ILE:538:CA:4855, V-A:PRO:540:CB:4880, V-A:TYR:539:CE2:4871, V-A:TYR:539:CD2:4869, V-B:HIS:456:CE1:9037, H-B:TYR:484:OH:9315, V-A:GLU:543:CG:4902, V-B:ARG:545:CD:9891, H-B:GLY:454:N:9017"]

$$$$
4ag_Grossjean_2025
     RDKit          3D

 39 41  0  0  0  0  0  0  0  0999 V2000
  129.5090  121.2650   61.2220 C   0  0  0  0  0  0  0  0  0  0  0  0
  130.0660  122.0520   60.0500 C   0  0  0  0  0  0  0  0  0  0  0  0
  131.4380  122.1040   59.8090 C   0  0  0  0  0  0  0  0  0  0  0  0
  131.9300  122.8350   58.7220 C   0  0  0  0  0  0  0  0  0  0  0  0
  133.4350  122.8610   58.5000 C   0  0  0  0  0  0  0  0  0  0  0  0
  130.9910  123.5050   57.8940 C   0  0  0  0  0  0  0  0  0  0  0  0
  131.1440  124.3250   56.7230 C   0  0  0  0  0  0  0  0  0  0  0  0
  132.3720  124.6040   56.1770 N   0  0  0  0  0  0  0  0  0  0  0  0
  129.9330  124.8050   56.2030 C   0  0  0  0  0  0  0  0  0  0  0  0
  129.7200  125.6480   55.0270 C   0  0  0  0  0  0  0  0  0  0  0  0
  129.1120  125.2310   54.0380 O   0  0  0  0  0  0  0  0  0  0  0  0
  130.2410  126.8920   55.0850 N   0  0  0  0  0  0  0  0  0  0  0  0
  130.1270  127.9090   54.0400 C   0  0  0  0  0  0  0  0  0  0  0  0
  130.6640  129.2760   54.4460 C   0  0  0  0  0  0  0  0  0  0  0  0
  131.6380  129.9010   53.6620 C   0  0  0  0  0  0  0  0  0  0  0  0
  132.1130  131.1620   54.0160 C   0  0  0  0  0  0  0  0  0  0  0  0
  131.6040  131.7980   55.1470 C   0  0  0  0  0  0  0  0  0  0  0  0
  130.6220  131.1880   55.9230 C   0  0  0  0  0  0  0  0  0  0  0  0
  130.1460  129.9280   55.5690 C   0  0  0  0  0  0  0  0  0  0  0  0
  128.5590  124.2400   57.1530 S   0  0  0  0  0  0  0  0  0  0  0  0
  129.6140  123.3730   58.2470 C   0  0  0  0  0  0  0  0  0  0  0  0
  129.1420  122.6760   59.2810 N   0  0  0  0  0  0  0  0  0  0  0  0
  129.8371  121.7286   62.1640 H   0  0  0  0  0  0  0  0  0  0  0  0
  128.4100  121.2668   61.1757 H   0  0  0  0  0  0  0  0  0  0  0  0
  129.8762  120.2291   61.1757 H   0  0  0  0  0  0  0  0  0  0  0  0
  132.1338  121.5705   60.4732 H   0  0  0  0  0  0  0  0  0  0  0  0
  133.9490  122.8699   59.4725 H   0  0  0  0  0  0  0  0  0  0  0  0
  133.7376  121.9679   57.9335 H   0  0  0  0  0  0  0  0  0  0  0  0
  133.7065  123.7640   57.9335 H   0  0  0  0  0  0  0  0  0  0  0  0
  132.8560  125.4700   56.3690 H   0  0  0  0  0  0  0  0  0  0  0  0
  132.8360  123.9470   55.5650 H   0  0  0  0  0  0  0  0  0  0  0  0
  130.6760  127.1870   55.9470 H   0  0  0  0  0  0  0  0  0  0  0  0
  130.6882  127.5644   53.1589 H   0  0  0  0  0  0  0  0  0  0  0  0
  129.0538  128.0362   53.8347 H   0  0  0  0  0  0  0  0  0  0  0  0
  132.0293  129.3974   52.7658 H   0  0  0  0  0  0  0  0  0  0  0  0
  132.8856  131.6531   53.4062 H   0  0  0  0  0  0  0  0  0  0  0  0
  131.9819  132.7917   55.4293 H   0  0  0  0  0  0  0  0  0  0  0  0
  130.2238  131.6991   56.8119 H   0  0  0  0  0  0  0  0  0  0  0  0
  129.3629  129.4460   56.1727 H   0  0  0  0  0  0  0  0  0  0  0  0
  1  2  1  0
  2  3  2  0
  3  4  1  0
  4  5  1  0
  4  6  2  0
  6  7  1  0
  7  8  1  0
  7  9  2  0
  9 10  1  0
 10 11  2  0
 10 12  1  0
 12 13  1  0
 13 14  1  0
 14 15  2  0
 15 16  1  0
 16 17  2  0
 17 18  1  0
 18 19  2  0
  9 20  1  0
 20 21  1  0
 21 22  2  0
 22  2  1  0
 21  6  1  0
 19 14  1  0
  1 23  1  0
  1 24  1  0
  1 25  1  0
  3 26  1  0
  5 27  1  0
  5 28  1  0
  5 29  1  0
  8 30  1  0
  8 31  1  0
 12 32  1  0
 13 33  1  0
 13 34  1  0
 15 35  1  0
 16 36  1  0
 17 37  1  0
 18 38  1  0
 19 39  1  0
M  END
>  <Binding energies>  (1) 
[-7.58]

>  <Ligand effiencies>  (1) 
[-0.3032]

>  <Interactions>  (1) 
["V-B:ALA:541:CB:9860, V-B:TYR:539:CE2:9844, V-B:TYR:539:CD2:9842, V-B:TYR:539:CZ:9845, V-A:LEU:363:CD1:3184, H-A:TYR:531:OH:4790, V-A:TYR:531:CE2:4788, V-A:ILE:369:CG2:3232, V-A:ILE:369:CD1:3234, H-A:LYS:534:NZ:4818, V-A:TYR:531:CE1:4787, V-A:TYR:531:CZ:4789, V-A:ILE:538:CD1:4860, V-A:ILE:369:CB:3231, H-B:TYR:539:OH:9846, H-A:ASN:370:OD1:3242, V-A:TYR:531:CD1:4785, H-A:ASP:366:O:3204"]

$$$$
4ah_Grossjean_2025
     RDKit          3D

 51 53  0  0  0  0  0  0  0  0999 V2000
  132.4950  132.9200   55.8690 C   0  0  0  0  0  0  0  0  0  0  0  0
  131.8120  132.4160   54.7280 O   0  0  0  0  0  0  0  0  0  0  0  0
  130.8260  131.4590   54.8950 C   0  0  0  0  0  0  0  0  0  0  0  0
  130.9070  130.1530   54.3870 C   0  0  0  0  0  0  0  0  0  0  0  0
  129.8710  129.2410   54.5930 C   0  0  0  0  0  0  0  0  0  0  0  0
  129.9980  127.8120   54.0740 C   0  0  0  0  0  0  0  0  0  0  0  0
  130.1100  126.8120   55.1350 N   0  0  0  0  0  0  0  0  0  0  0  0
  129.6930  125.5310   55.0490 C   0  0  0  0  0  0  0  0  0  0  0  0
  129.1280  125.0820   54.0500 O   0  0  0  0  0  0  0  0  0  0  0  0
  129.9120  124.7050   56.2350 C   0  0  0  0  0  0  0  0  0  0  0  0
  128.5410  124.1620   57.2030 S   0  0  0  0  0  0  0  0  0  0  0  0
  129.6020  123.3550   58.3360 C   0  0  0  0  0  0  0  0  0  0  0  0
  129.1340  122.6900   59.3920 N   0  0  0  0  0  0  0  0  0  0  0  0
  130.0620  122.1090   60.1890 C   0  0  0  0  0  0  0  0  0  0  0  0
  129.5070  121.3600   61.3870 C   0  0  0  0  0  0  0  0  0  0  0  0
  131.4340  122.1750   59.9580 C   0  0  0  0  0  0  0  0  0  0  0  0
  131.9240  122.8760   58.8490 C   0  0  0  0  0  0  0  0  0  0  0  0
  133.4300  122.9210   58.6390 C   0  0  0  0  0  0  0  0  0  0  0  0
  130.9800  123.5010   57.9900 C   0  0  0  0  0  0  0  0  0  0  0  0
  131.1290  124.2860   56.7940 C   0  0  0  0  0  0  0  0  0  0  0  0
  132.3560  124.5810   56.2570 N   0  0  0  0  0  0  0  0  0  0  0  0
  128.7550  129.6230   55.3370 C   0  0  0  0  0  0  0  0  0  0  0  0
  128.6440  130.9240   55.8520 C   0  0  0  0  0  0  0  0  0  0  0  0
  127.5600  131.3750   56.5840 O   0  0  0  0  0  0  0  0  0  0  0  0
  126.5460  130.4520   56.9690 C   0  0  0  0  0  0  0  0  0  0  0  0
  129.6840  131.8340   55.6180 C   0  0  0  0  0  0  0  0  0  0  0  0
  129.5970  133.1060   56.1330 O   0  0  0  0  0  0  0  0  0  0  0  0
  129.5500  133.1540   57.5520 C   0  0  0  0  0  0  0  0  0  0  0  0
  132.0016  132.5559   56.7822 H   0  0  0  0  0  0  0  0  0  0  0  0
  133.5392  132.5743   55.8537 H   0  0  0  0  0  0  0  0  0  0  0  0
  132.4726  134.0197   55.8537 H   0  0  0  0  0  0  0  0  0  0  0  0
  131.7977  129.8447   53.8198 H   0  0  0  0  0  0  0  0  0  0  0  0
  129.1078  127.5807   53.4706 H   0  0  0  0  0  0  0  0  0  0  0  0
  130.9262  127.7636   53.4856 H   0  0  0  0  0  0  0  0  0  0  0  0
  130.6370  127.0870   55.9500 H   0  0  0  0  0  0  0  0  0  0  0  0
  129.8602  121.8367   62.3133 H   0  0  0  0  0  0  0  0  0  0  0  0
  128.4077  121.3850   61.3579 H   0  0  0  0  0  0  0  0  0  0  0  0
  129.8509  120.3156   61.3579 H   0  0  0  0  0  0  0  0  0  0  0  0
  132.1324  121.6767   60.6464 H   0  0  0  0  0  0  0  0  0  0  0  0
  133.9361  122.9361   59.6155 H   0  0  0  0  0  0  0  0  0  0  0  0
  133.7483  122.0320   58.0748 H   0  0  0  0  0  0  0  0  0  0  0  0
  133.6946  123.8275   58.0748 H   0  0  0  0  0  0  0  0  0  0  0  0
  132.8710  123.9120   55.7030 H   0  0  0  0  0  0  0  0  0  0  0  0
  132.7900  125.4820   56.4050 H   0  0  0  0  0  0  0  0  0  0  0  0
  127.9513  128.8953   55.5226 H   0  0  0  0  0  0  0  0  0  0  0  0
  126.4923  130.4031   58.0666 H   0  0  0  0  0  0  0  0  0  0  0  0
  125.5767  130.7842   56.5689 H   0  0  0  0  0  0  0  0  0  0  0  0
  126.7859  129.4558   56.5689 H   0  0  0  0  0  0  0  0  0  0  0  0
  130.2626  132.4262   57.9673 H   0  0  0  0  0  0  0  0  0  0  0  0
  129.8172  134.1648   57.8937 H   0  0  0  0  0  0  0  0  0  0  0  0
  128.5338  132.9081   57.8937 H   0  0  0  0  0  0  0  0  0  0  0  0
  1  2  1  0
  2  3  1  0
  3  4  2  0
  4  5  1  0
  5  6  1  0
  6  7  1  0
  7  8  1  0
  8  9  2  0
  8 10  1  0
 10 11  1  0
 11 12  1  0
 12 13  2  0
 13 14  1  0
 14 15  1  0
 14 16  2  0
 16 17  1  0
 17 18  1  0
 17 19  2  0
 19 20  1  0
 20 21  1  0
  5 22  2  0
 22 23  1  0
 23 24  1  0
 24 25  1  0
 23 26  2  0
 26 27  1  0
 27 28  1  0
 26  3  1  0
 20 10  2  0
 19 12  1  0
  1 29  1  0
  1 30  1  0
  1 31  1  0
  4 32  1  0
  6 33  1  0
  6 34  1  0
  7 35  1  0
 15 36  1  0
 15 37  1  0
 15 38  1  0
 16 39  1  0
 18 40  1  0
 18 41  1  0
 18 42  1  0
 21 43  1  0
 21 44  1  0
 22 45  1  0
 25 46  1  0
 25 47  1  0
 25 48  1  0
 28 49  1  0
 28 50  1  0
 28 51  1  0
M  END
>  <Binding energies>  (1) 
[-7.66]

>  <Ligand effiencies>  (1) 
[-0.2470967741935484]

>  <Interactions>  (1) 
["V-B:ALA:541:CB:9860, V-B:TYR:539:CE2:9844, V-B:TYR:539:CZ:9845, V-A:TYR:539:CZ:4872, V-A:LEU:363:CD1:3184, V-A:PRO:540:N:4879, V-A:TYR:539:CE1:4870, V-A:TYR:539:C:4862, V-A:TYR:539:CD1:4868, V-A:PRO:540:CG:4881, V-A:PRO:540:CA:4878, H-A:TYR:531:OH:4790, V-A:TYR:539:CA:4864, V-A:TYR:539:CG:4867, V-A:PRO:540:CD:4882, V-A:PRO:540:CB:4880, V-A:TYR:539:CD2:4869, V-A:ILE:369:CG2:3232, V-A:ILE:369:CD1:3234, H-A:TYR:539:N:4865, H-A:LYS:534:NZ:4818, V-A:ILE:538:CG2:4858, V-A:TYR:531:CE1:4787, V-A:TYR:531:CZ:4789, V-A:MET:535:CG:4828, H-A:TYR:539:OH:4873, V-A:ILE:369:CB:3231, H-B:TYR:539:OH:9846, H-A:ASP:366:O:3204"]

$$$$
4ai_Grossjean_2025
     RDKit          3D

 32 34  0  0  0  0  0  0  0  0999 V2000
  130.9740  132.6620   54.4190 C   0  0  0  0  0  0  0  0  0  0  0  0
  131.1030  132.2710   55.8800 C   0  0  0  0  0  0  0  0  0  0  0  0
  132.1550  131.4690   56.3180 C   0  0  0  0  0  0  0  0  0  0  0  0
  132.2580  131.1260   57.6710 C   0  0  0  0  0  0  0  0  0  0  0  0
  133.4250  130.2500   58.1000 C   0  0  0  0  0  0  0  0  0  0  0  0
  131.2640  131.6210   58.5580 C   0  0  0  0  0  0  0  0  0  0  0  0
  131.0670  131.4700   59.9740 C   0  0  0  0  0  0  0  0  0  0  0  0
  131.9160  130.7280   60.7570 N   0  0  0  0  0  0  0  0  0  0  0  0
  129.9430  132.1490   60.4700 C   0  0  0  0  0  0  0  0  0  0  0  0
  129.4440  132.2030   61.8460 C   0  0  0  0  0  0  0  0  0  0  0  0
  129.1280  133.2780   62.3590 O   0  0  0  0  0  0  0  0  0  0  0  0
  129.3480  131.0050   62.4760 N   0  0  0  0  0  0  0  0  0  0  0  0
  128.9000  130.7640   63.7680 C   0  0  0  0  0  0  0  0  0  0  0  0
  128.5380  129.4970   64.2260 C   0  0  0  0  0  0  0  0  0  0  0  0
  128.1550  129.6840   65.5340 C   0  0  0  0  0  0  0  0  0  0  0  0
  128.2800  130.9950   65.8480 O   0  0  0  0  0  0  0  0  0  0  0  0
  128.7540  131.6700   64.7220 N   0  0  0  0  0  0  0  0  0  0  0  0
  129.0800  132.9810   59.1750 S   0  0  0  0  0  0  0  0  0  0  0  0
  130.2390  132.4320   57.9850 C   0  0  0  0  0  0  0  0  0  0  0  0
  130.1370  132.7600   56.6960 N   0  0  0  0  0  0  0  0  0  0  0  0
  130.6301  133.7044   54.3474 H   0  0  0  0  0  0  0  0  0  0  0  0
  131.9521  132.5639   53.9254 H   0  0  0  0  0  0  0  0  0  0  0  0
  130.2463  132.0011   53.9254 H   0  0  0  0  0  0  0  0  0  0  0  0
  132.9048  131.1053   55.6000 H   0  0  0  0  0  0  0  0  0  0  0  0
  133.4724  130.2144   59.1984 H   0  0  0  0  0  0  0  0  0  0  0  0
  133.2841  129.2327   57.7059 H   0  0  0  0  0  0  0  0  0  0  0  0
  134.3625  130.6693   57.7059 H   0  0  0  0  0  0  0  0  0  0  0  0
  131.9670  130.8540   61.7570 H   0  0  0  0  0  0  0  0  0  0  0  0
  132.5260  130.0300   60.3530 H   0  0  0  0  0  0  0  0  0  0  0  0
  129.6220  130.1870   61.9530 H   0  0  0  0  0  0  0  0  0  0  0  0
  128.5551  128.5523   63.6628 H   0  0  0  0  0  0  0  0  0  0  0  0
  127.8036  128.8951   66.2153 H   0  0  0  0  0  0  0  0  0  0  0  0
  1  2  1  0
  2  3  2  0
  3  4  1  0
  4  5  1  0
  4  6  2  0
  6  7  1  0
  7  8  1  0
  7  9  2  0
  9 10  1  0
 10 11  2  0
 10 12  1  0
 12 13  1  0
 13 14  1  0
 14 15  2  0
 15 16  1  0
 16 17  1  0
  9 18  1  0
 18 19  1  0
 19 20  2  0
 20  2  1  0
 19  6  1  0
 17 13  2  0
  1 21  1  0
  1 22  1  0
  1 23  1  0
  3 24  1  0
  5 25  1  0
  5 26  1  0
  5 27  1  0
  8 28  1  0
  8 29  1  0
 12 30  1  0
 14 31  1  0
 15 32  1  0
M  END
>  <Binding energies>  (1) 
[-6.62]

>  <Ligand effiencies>  (1) 
[-0.28782608695652173]

>  <Interactions>  (1) 
["H-A:GLU:543:OE2:4905, V-A:GLU:543:CD:4903, V-A:LEU:363:CD1:3184, V-A:PRO:540:N:4879, V-A:LEU:363:CA:3180, V-A:TYR:539:C:4862, V-A:PRO:540:CA:4878, H-A:ALA:541:N:4886, V-A:PRO:540:CD:4882, V-A:ILE:538:CA:4855, H-A:ASP:366:OD2:3210, V-A:TYR:531:CE2:4788, V-A:PRO:540:CB:4880, H-A:TYR:539:N:4865, V-A:ILE:538:CG2:4858, V-A:TYR:531:CZ:4789, H-B:TYR:484:OH:9315, V-A:GLU:543:CG:4902, V-A:ILE:538:CD1:4860, V-A:ALA:541:CB:4887"]

$$$$
4aj_Grossjean_2025
     RDKit          3D

 32 34  0  0  0  0  0  0  0  0999 V2000
  130.8490  132.7190   54.7990 C   0  0  0  0  0  0  0  0  0  0  0  0
  131.0910  132.2280   56.2140 C   0  0  0  0  0  0  0  0  0  0  0  0
  132.2070  131.4540   56.5240 C   0  0  0  0  0  0  0  0  0  0  0  0
  132.4080  131.0070   57.8350 C   0  0  0  0  0  0  0  0  0  0  0  0
  133.6410  130.1650   58.1220 C   0  0  0  0  0  0  0  0  0  0  0  0
  131.4450  131.3700   58.8140 C   0  0  0  0  0  0  0  0  0  0  0  0
  131.3400  131.0900   60.2210 C   0  0  0  0  0  0  0  0  0  0  0  0
  132.2710  130.3360   60.8890 N   0  0  0  0  0  0  0  0  0  0  0  0
  130.2120  131.6590   60.8320 C   0  0  0  0  0  0  0  0  0  0  0  0
  129.7910  131.5680   62.2320 C   0  0  0  0  0  0  0  0  0  0  0  0
  129.9670  132.5130   63.0050 O   0  0  0  0  0  0  0  0  0  0  0  0
  129.1990  130.4010   62.5880 N   0  0  0  0  0  0  0  0  0  0  0  0
  128.7030  130.0660   63.8400 C   0  0  0  0  0  0  0  0  0  0  0  0
  128.3930  130.8770   64.8290 N   0  0  0  0  0  0  0  0  0  0  0  0
  127.9430  130.2130   65.8770 C   0  0  0  0  0  0  0  0  0  0  0  0
  127.8810  128.8280   65.7480 C   0  0  0  0  0  0  0  0  0  0  0  0
  128.4450  128.3830   64.1650 S   0  0  0  0  0  0  0  0  0  0  0  0
  129.2350  132.5510   59.6640 S   0  0  0  0  0  0  0  0  0  0  0  0
  130.3480  132.1680   58.3700 C   0  0  0  0  0  0  0  0  0  0  0  0
  130.1530  132.5950   57.1220 N   0  0  0  0  0  0  0  0  0  0  0  0
  130.3629  133.7052   54.8312 H   0  0  0  0  0  0  0  0  0  0  0  0
  131.8099  132.8009   54.2699 H   0  0  0  0  0  0  0  0  0  0  0  0
  130.1987  132.0068   54.2699 H   0  0  0  0  0  0  0  0  0  0  0  0
  132.9309  131.1939   55.7377 H   0  0  0  0  0  0  0  0  0  0  0  0
  133.7767  130.0723   59.2097 H   0  0  0  0  0  0  0  0  0  0  0  0
  133.5127  129.1650   57.6820 H   0  0  0  0  0  0  0  0  0  0  0  0
  134.5257  130.6484   57.6820 H   0  0  0  0  0  0  0  0  0  0  0  0
  132.7700  129.5830   60.4390 H   0  0  0  0  0  0  0  0  0  0  0  0
  132.4880  130.5100   61.8610 H   0  0  0  0  0  0  0  0  0  0  0  0
  129.1000  129.6960   61.8730 H   0  0  0  0  0  0  0  0  0  0  0  0
  127.6343  130.7249   66.8004 H   0  0  0  0  0  0  0  0  0  0  0  0
  127.5318  128.1289   66.5221 H   0  0  0  0  0  0  0  0  0  0  0  0
  1  2  1  0
  2  3  2  0
  3  4  1  0
  4  5  1  0
  4  6  2  0
  6  7  1  0
  7  8  1  0
  7  9  2  0
  9 10  1  0
 10 11  2  0
 10 12  1  0
 12 13  1  0
 13 14  2  0
 14 15  1  0
 15 16  2  0
 16 17  1  0
  9 18  1  0
 18 19  1  0
 19 20  2  0
 20  2  1  0
 19  6  1  0
 17 13  1  0
  1 21  1  0
  1 22  1  0
  1 23  1  0
  3 24  1  0
  5 25  1  0
  5 26  1  0
  5 27  1  0
  8 28  1  0
  8 29  1  0
 12 30  1  0
 15 31  1  0
 16 32  1  0
M  END
>  <Binding energies>  (1) 
[-6.48]

>  <Ligand effiencies>  (1) 
[-0.2817391304347826]

>  <Interactions>  (1) 
["H-A:GLU:543:OE2:4905, V-A:GLU:543:CD:4903, V-A:LEU:363:CD1:3184, V-A:PRO:540:N:4879, V-A:LEU:363:CA:3180, V-A:ASP:366:CB:3207, V-A:PRO:540:CA:4878, H-A:ALA:541:N:4886, V-A:PRO:540:CD:4882, V-A:ILE:538:CA:4855, H-A:ASP:366:OD2:3210, V-A:TYR:531:CE2:4788, V-A:PRO:540:CB:4880, V-B:HIS:456:CE1:9037, V-A:ILE:538:CG2:4858, V-A:TYR:531:CZ:4789, H-B:TYR:484:OH:9315, V-A:GLU:543:CG:4902, V-A:ILE:538:CD1:4860, V-B:TYR:484:CZ:9314"]

$$$$
4ak_Grossjean_2025
     RDKit          3D

 50 51  0  0  0  0  0  0  0  0999 V2000
  132.5360  131.3000   54.0620 C   0  0  0  0  0  0  0  0  0  0  0  0
  132.4540  132.4660   54.8660 O   0  0  0  0  0  0  0  0  0  0  0  0
  132.1380  132.1940   56.2260 C   0  0  0  0  0  0  0  0  0  0  0  0
  130.7570  132.7750   56.5560 C   0  0  0  0  0  0  0  0  0  0  0  0
  130.2190  133.3980   55.3970 O   0  0  0  0  0  0  0  0  0  0  0  0
  129.4540  132.5240   54.5770 C   0  0  0  0  0  0  0  0  0  0  0  0
  128.7890  131.4580   55.4560 C   0  0  0  0  0  0  0  0  0  0  0  0
  128.7770  130.2180   54.7610 O   0  0  0  0  0  0  0  0  0  0  0  0
  129.5830  129.2140   55.3640 C   0  0  0  0  0  0  0  0  0  0  0  0
  129.0800  127.8260   54.9230 C   0  0  0  0  0  0  0  0  0  0  0  0
  129.4260  126.7540   55.8560 N   0  0  0  0  0  0  0  0  0  0  0  0
  129.5740  125.4540   55.5310 C   0  0  0  0  0  0  0  0  0  0  0  0
  129.4480  125.0440   54.3760 O   0  0  0  0  0  0  0  0  0  0  0  0
  129.9050  124.5500   56.6300 C   0  0  0  0  0  0  0  0  0  0  0  0
  128.6240  123.8150   57.5940 S   0  0  0  0  0  0  0  0  0  0  0  0
  129.7900  122.9580   58.5760 C   0  0  0  0  0  0  0  0  0  0  0  0
  129.4190  122.1590   59.5770 N   0  0  0  0  0  0  0  0  0  0  0  0
  130.4220  121.5560   60.2600 C   0  0  0  0  0  0  0  0  0  0  0  0
  129.9790  120.6510   61.3950 C   0  0  0  0  0  0  0  0  0  0  0  0
  131.7730  121.7300   59.9670 C   0  0  0  0  0  0  0  0  0  0  0  0
  132.1600  122.5680   58.9150 C   0  0  0  0  0  0  0  0  0  0  0  0
  133.6460  122.7290   58.6360 C   0  0  0  0  0  0  0  0  0  0  0  0
  131.1360  123.2190   58.1760 C   0  0  0  0  0  0  0  0  0  0  0  0
  131.1720  124.1260   57.0610 C   0  0  0  0  0  0  0  0  0  0  0  0
  132.3480  124.5320   56.4830 N   0  0  0  0  0  0  0  0  0  0  0  0
  132.5984  130.4124   54.7087 H   0  0  0  0  0  0  0  0  0  0  0  0
  131.6406  131.2288   53.4270 H   0  0  0  0  0  0  0  0  0  0  0  0
  133.4325  131.3548   53.4270 H   0  0  0  0  0  0  0  0  0  0  0  0
  132.1268  131.1063   56.3894 H   0  0  0  0  0  0  0  0  0  0  0  0
  132.8950  132.6548   56.8776 H   0  0  0  0  0  0  0  0  0  0  0  0
  130.0869  131.9662   56.8828 H   0  0  0  0  0  0  0  0  0  0  0  0
  130.8532  133.5175   57.3619 H   0  0  0  0  0  0  0  0  0  0  0  0
  128.6800  133.0996   54.0483 H   0  0  0  0  0  0  0  0  0  0  0  0
  130.1122  132.0377   53.8419 H   0  0  0  0  0  0  0  0  0  0  0  0
  129.3548  131.3488   56.3930 H   0  0  0  0  0  0  0  0  0  0  0  0
  127.7572  131.7615   55.6870 H   0  0  0  0  0  0  0  0  0  0  0  0
  130.6288  129.3434   55.0485 H   0  0  0  0  0  0  0  0  0  0  0  0
  129.5200  129.2985   56.4589 H   0  0  0  0  0  0  0  0  0  0  0  0
  127.9846  127.8664   54.8304 H   0  0  0  0  0  0  0  0  0  0  0  0
  129.5724  127.5932   53.9673 H   0  0  0  0  0  0  0  0  0  0  0  0
  129.5490  127.0260   56.8220 H   0  0  0  0  0  0  0  0  0  0  0  0
  130.2130  121.1290   62.3577 H   0  0  0  0  0  0  0  0  0  0  0  0
  128.8948  120.4789   61.3249 H   0  0  0  0  0  0  0  0  0  0  0  0
  130.5082  119.6892   61.3249 H   0  0  0  0  0  0  0  0  0  0  0  0
  132.5362  121.2082   60.5631 H   0  0  0  0  0  0  0  0  0  0  0  0
  134.1935  122.7883   59.5882 H   0  0  0  0  0  0  0  0  0  0  0  0
  134.0065  121.8647   58.0590 H   0  0  0  0  0  0  0  0  0  0  0  0
  133.8130  123.6505   58.0590 H   0  0  0  0  0  0  0  0  0  0  0  0
  132.8800  123.9270   55.8730 H   0  0  0  0  0  0  0  0  0  0  0  0
  132.7220  125.4560   56.6480 H   0  0  0  0  0  0  0  0  0  0  0  0
  1  2  1  0
  2  3  1  0
  3  4  1  0
  4  5  1  0
  5  6  1  0
  6  7  1  0
  7  8  1  0
  8  9  1  0
  9 10  1  0
 10 11  1  0
 11 12  1  0
 12 13  2  0
 12 14  1  0
 14 15  1  0
 15 16  1  0
 16 17  2  0
 17 18  1  0
 18 19  1  0
 18 20  2  0
 20 21  1  0
 21 22  1  0
 21 23  2  0
 23 24  1  0
 24 25  1  0
 24 14  2  0
 23 16  1  0
  1 26  1  0
  1 27  1  0
  1 28  1  0
  3 29  1  0
  3 30  1  0
  4 31  1  0
  4 32  1  0
  6 33  1  0
  6 34  1  0
  7 35  1  0
  7 36  1  0
  9 37  1  0
  9 38  1  0
 10 39  1  0
 10 40  1  0
 11 41  1  0
 19 42  1  0
 19 43  1  0
 19 44  1  0
 20 45  1  0
 22 46  1  0
 22 47  1  0
 22 48  1  0
 25 49  1  0
 25 50  1  0
M  END
>  <Binding energies>  (1) 
[-6.54]

>  <Ligand effiencies>  (1) 
[-0.23357142857142857]

>  <Interactions>  (1) 
["V-B:ALA:541:CB:9860, V-B:TYR:539:CE2:9844, V-B:TYR:539:CD2:9842, V-B:TYR:539:CZ:9845, V-A:LEU:363:CD1:3184, V-A:PRO:540:N:4879, V-A:TYR:539:CE1:4870, V-A:TYR:539:C:4862, V-A:TYR:539:CD1:4868, V-A:PRO:540:CA:4878, H-A:TYR:531:OH:4790, V-A:PRO:540:CD:4882, V-A:TYR:531:CE2:4788, V-A:PRO:540:CB:4880, V-A:ILE:369:CG2:3232, V-A:ILE:369:CD1:3234, H-A:TYR:539:N:4865, H-A:LYS:534:NZ:4818, V-A:TYR:531:CE1:4787, V-A:TYR:531:CZ:4789, V-A:ILE:538:CD1:4860, V-A:TYR:531:CD2:4786, V-A:ILE:369:CB:3231, H-B:TYR:539:OH:9846, V-A:ILE:369:CG1:3233, H-A:ASP:366:O:3204"]

$$$$
4al_Grossjean_2025
     RDKit          3D

 28 29  0  0  0  0  0  0  0  0999 V2000
  127.2900  133.5270   62.9200 C   0  0  0  0  0  0  0  0  0  0  0  0
  127.9050  132.9960   61.7550 O   0  0  0  0  0  0  0  0  0  0  0  0
  129.2160  132.6400   61.7590 C   0  0  0  0  0  0  0  0  0  0  0  0
  129.8840  132.4820   62.7840 O   0  0  0  0  0  0  0  0  0  0  0  0
  129.7680  132.4590   60.3990 C   0  0  0  0  0  0  0  0  0  0  0  0
  128.9870  133.2360   59.0200 S   0  0  0  0  0  0  0  0  0  0  0  0
  130.1680  132.5630   57.9200 C   0  0  0  0  0  0  0  0  0  0  0  0
  130.1250  132.8000   56.6080 N   0  0  0  0  0  0  0  0  0  0  0  0
  131.0990  132.2180   55.8650 C   0  0  0  0  0  0  0  0  0  0  0  0
  131.0320  132.5010   54.3760 C   0  0  0  0  0  0  0  0  0  0  0  0
  132.1040  131.4130   56.3990 C   0  0  0  0  0  0  0  0  0  0  0  0
  132.1460  131.1660   57.7750 C   0  0  0  0  0  0  0  0  0  0  0  0
  133.2600  130.2810   58.3100 C   0  0  0  0  0  0  0  0  0  0  0  0
  131.1410  131.7590   58.5860 C   0  0  0  0  0  0  0  0  0  0  0  0
  130.8870  131.7180   59.9990 C   0  0  0  0  0  0  0  0  0  0  0  0
  131.6770  131.0140   60.8710 N   0  0  0  0  0  0  0  0  0  0  0  0
  127.7751  133.1082   63.8140 H   0  0  0  0  0  0  0  0  0  0  0  0
  127.3963  134.6218   62.9241 H   0  0  0  0  0  0  0  0  0  0  0  0
  126.2223  133.2622   62.9241 H   0  0  0  0  0  0  0  0  0  0  0  0
  130.7813  133.5599   54.2149 H   0  0  0  0  0  0  0  0  0  0  0  0
  132.0070  132.2811   53.9167 H   0  0  0  0  0  0  0  0  0  0  0  0
  130.2591  131.8672   53.9167 H   0  0  0  0  0  0  0  0  0  0  0  0
  132.8644  130.9718   55.7378 H   0  0  0  0  0  0  0  0  0  0  0  0
  133.2429  130.2946   59.4098 H   0  0  0  0  0  0  0  0  0  0  0  0
  133.1130  129.2507   57.9537 H   0  0  0  0  0  0  0  0  0  0  0  0
  134.2303  130.6572   57.9537 H   0  0  0  0  0  0  0  0  0  0  0  0
  131.5290  131.0440   61.8700 H   0  0  0  0  0  0  0  0  0  0  0  0
  132.4390  130.4370   60.5410 H   0  0  0  0  0  0  0  0  0  0  0  0
  1  2  1  0
  2  3  1  0
  3  4  2  0
  3  5  1  0
  5  6  1  0
  6  7  1  0
  7  8  2  0
  8  9  1  0
  9 10  1  0
  9 11  2  0
 11 12  1  0
 12 13  1  0
 12 14  2  0
 14 15  1  0
 15 16  1  0
 15  5  2  0
 14  7  1  0
  1 17  1  0
  1 18  1  0
  1 19  1  0
 10 20  1  0
 10 21  1  0
 10 22  1  0
 11 23  1  0
 13 24  1  0
 13 25  1  0
 13 26  1  0
 16 27  1  0
 16 28  1  0
M  END
>  <Binding energies>  (1) 
[-5.39]

>  <Ligand effiencies>  (1) 
[-0.2994444444444444]

>  <Interactions>  (1) 
["H-A:GLU:543:OE2:4905, V-A:LEU:363:CD1:3184, V-A:PRO:540:C:4876, V-A:PRO:540:N:4879, V-A:LEU:363:CA:3180, V-A:TYR:539:C:4862, V-A:PRO:540:CA:4878, V-A:TYR:539:CG:4867, H-A:ALA:541:N:4886, V-A:PRO:540:CD:4882, V-A:ILE:538:CA:4855, H-A:ASP:366:OD2:3210, V-A:TYR:531:CE2:4788, V-A:PRO:540:CB:4880, V-A:TYR:539:CE2:4871, V-A:TYR:539:CD2:4869, H-A:TYR:539:N:4865, V-A:ILE:538:CG2:4858, V-A:TYR:531:CZ:4789, V-A:ILE:538:CD1:4860, V-A:ALA:541:CB:4887, V-B:LEU:475:CD2:9226, V-B:LEU:475:CD1:9225"]

$$$$
4ba_Grossjean_2025
     RDKit          3D

 44 46  0  0  0  0  0  0  0  0999 V2000
  123.8860  124.5510   57.5560 C   0  0  0  0  0  0  0  0  0  0  0  0
  124.6240  123.8270   56.4140 C   0  0  0  0  0  0  0  0  0  0  0  0
  125.6200  122.7390   56.8650 C   0  0  0  0  0  0  0  0  0  0  0  0
  125.6160  121.6410   56.3030 O   0  0  0  0  0  0  0  0  0  0  0  0
  126.5650  123.0780   57.9810 C   0  0  0  0  0  0  0  0  0  0  0  0
  127.9400  122.8860   57.7990 C   0  0  0  0  0  0  0  0  0  0  0  0
  128.8390  123.1900   58.8170 C   0  0  0  0  0  0  0  0  0  0  0  0
  128.3830  123.6950   60.0360 C   0  0  0  0  0  0  0  0  0  0  0  0
  129.3760  123.9600   60.9980 N   0  0  0  0  0  0  0  0  0  0  0  0
  130.7260  123.9810   60.8750 C   0  0  0  0  0  0  0  0  0  0  0  0
  131.3310  123.7110   59.8360 O   0  0  0  0  0  0  0  0  0  0  0  0
  131.4590  124.3300   62.0940 C   0  0  0  0  0  0  0  0  0  0  0  0
  133.1830  123.9860   62.2210 S   0  0  0  0  0  0  0  0  0  0  0  0
  133.2350  124.6090   63.8520 C   0  0  0  0  0  0  0  0  0  0  0  0
  134.3670  124.6220   64.5550 N   0  0  0  0  0  0  0  0  0  0  0  0
  134.2830  125.1280   65.8070 C   0  0  0  0  0  0  0  0  0  0  0  0
  135.5820  125.1230   66.5930 C   0  0  0  0  0  0  0  0  0  0  0  0
  133.1080  125.6210   66.3660 C   0  0  0  0  0  0  0  0  0  0  0  0
  131.9120  125.6120   65.6300 C   0  0  0  0  0  0  0  0  0  0  0  0
  130.6440  126.1680   66.2860 C   0  0  0  0  0  0  0  0  0  0  0  0
  129.9590  126.9890   65.4870 F   0  0  0  0  0  0  0  0  0  0  0  0
  129.8300  125.1660   66.6200 F   0  0  0  0  0  0  0  0  0  0  0  0
  130.9680  126.8560   67.3810 F   0  0  0  0  0  0  0  0  0  0  0  0
  131.9650  125.0790   64.3070 C   0  0  0  0  0  0  0  0  0  0  0  0
  130.9660  124.8970   63.2810 C   0  0  0  0  0  0  0  0  0  0  0  0
  129.6530  125.2500   63.4560 N   0  0  0  0  0  0  0  0  0  0  0  0
  127.0070  123.8850   60.2280 C   0  0  0  0  0  0  0  0  0  0  0  0
  126.1090  123.5790   59.2080 C   0  0  0  0  0  0  0  0  0  0  0  0
  124.2592  124.1849   58.5238 H   0  0  0  0  0  0  0  0  0  0  0  0
  124.0649  125.6337   57.4798 H   0  0  0  0  0  0  0  0  0  0  0  0
  122.8069  124.3514   57.4798 H   0  0  0  0  0  0  0  0  0  0  0  0
  123.8705  123.3526   55.7681 H   0  0  0  0  0  0  0  0  0  0  0  0
  125.2209  124.5946   55.8998 H   0  0  0  0  0  0  0  0  0  0  0  0
  128.3131  122.4912   56.8425 H   0  0  0  0  0  0  0  0  0  0  0  0
  129.9161  123.0313   58.6600 H   0  0  0  0  0  0  0  0  0  0  0  0
  129.0150  124.1490   61.9210 H   0  0  0  0  0  0  0  0  0  0  0  0
  135.3588  125.1239   67.6701 H   0  0  0  0  0  0  0  0  0  0  0  0
  136.1607  124.2226   66.3392 H   0  0  0  0  0  0  0  0  0  0  0  0
  136.1676  126.0189   66.3392 H   0  0  0  0  0  0  0  0  0  0  0  0
  133.1160  126.0203   67.3909 H   0  0  0  0  0  0  0  0  0  0  0  0
  129.1590  125.0650   64.3180 H   0  0  0  0  0  0  0  0  0  0  0  0
  129.1280  125.7040   62.7210 H   0  0  0  0  0  0  0  0  0  0  0  0
  126.6358  124.2767   61.1865 H   0  0  0  0  0  0  0  0  0  0  0  0
  125.0314  123.7321   59.3671 H   0  0  0  0  0  0  0  0  0  0  0  0
  1  2  1  0
  2  3  1  0
  3  4  2  0
  3  5  1  0
  5  6  2  0
  6  7  1  0
  7  8  2  0
  8  9  1  0
  9 10  1  0
 10 11  2  0
 10 12  1  0
 12 13  1  0
 13 14  1  0
 14 15  2  0
 15 16  1  0
 16 17  1  0
 16 18  2  0
 18 19  1  0
 19 20  1  0
 20 21  1  0
 20 22  1  0
 20 23  1  0
 19 24  2  0
 24 25  1  0
 25 26  1  0
  8 27  1  0
 27 28  2  0
 28  5  1  0
 25 12  2  0
 24 14  1  0
  1 29  1  0
  1 30  1  0
  1 31  1  0
  2 32  1  0
  2 33  1  0
  6 34  1  0
  7 35  1  0
  9 36  1  0
 17 37  1  0
 17 38  1  0
 17 39  1  0
 18 40  1  0
 26 41  1  0
 26 42  1  0
 27 43  1  0
 28 44  1  0
M  END
>  <Binding energies>  (1) 
[-7.83]

>  <Ligand effiencies>  (1) 
[-0.2525806451612903]

>  <Interactions>  (1) 
["V-B:MET:535:CE:9803, V-B:PRO:540:CD:9855, V-B:PRO:540:CA:9851, V-B:PRO:540:N:9852, V-B:PRO:540:CB:9853, V-B:TYR:539:C:9835, V-A:HIS:456:CE1:4064, V-A:ASP:366:CG:3208, H-A:TYR:484:OH:4343, H-A:GLY:454:N:4045, V-B:GLU:543:CD:9876, V-B:GLU:543:CG:9875, V-A:ARG:545:CZ:4921, V-B:GLU:543:CB:9874, V-A:GLU:543:CD:4903, H-B:GLU:543:OE2:9878, V-A:ARG:545:CD:4918, V-A:ARG:545:CG:4917, V-A:GLY:453:CA:4039, V-A:GLY:453:C:4037, V-A:HIS:456:CD2:4063, V-B:LEU:363:CA:8152, V-B:LEU:363:CD1:8156, H-B:TYR:539:N:9838, V-B:ASP:366:CG:8180, V-B:ASP:366:CB:8179, V-B:LEU:363:CB:8154, V-B:TYR:531:CE2:9761, V-A:ILE:455:C:4047, V-A:ARG:545:CB:4916"]

$$$$
4bb_Grossjean_2025
     RDKit          3D

 41 43  0  0  0  0  0  0  0  0999 V2000
  124.6040  123.5630   56.6150 C   0  0  0  0  0  0  0  0  0  0  0  0
  125.7980  122.6100   56.7070 C   0  0  0  0  0  0  0  0  0  0  0  0
  125.8220  121.6370   55.9520 O   0  0  0  0  0  0  0  0  0  0  0  0
  126.8660  122.9050   57.7170 C   0  0  0  0  0  0  0  0  0  0  0  0
  126.5100  123.4510   58.9560 C   0  0  0  0  0  0  0  0  0  0  0  0
  127.4820  123.7340   59.9100 C   0  0  0  0  0  0  0  0  0  0  0  0
  128.8280  123.4710   59.6480 C   0  0  0  0  0  0  0  0  0  0  0  0
  129.7280  123.7980   60.6820 N   0  0  0  0  0  0  0  0  0  0  0  0
  131.0830  123.7910   60.6910 C   0  0  0  0  0  0  0  0  0  0  0  0
  131.7800  123.4460   59.7380 O   0  0  0  0  0  0  0  0  0  0  0  0
  131.7000  124.2030   61.9550 C   0  0  0  0  0  0  0  0  0  0  0  0
  133.4080  123.8890   62.2520 S   0  0  0  0  0  0  0  0  0  0  0  0
  133.3090  124.5920   63.8500 C   0  0  0  0  0  0  0  0  0  0  0  0
  134.3740  124.6610   64.6470 N   0  0  0  0  0  0  0  0  0  0  0  0
  134.1720  125.2260   65.8590 C   0  0  0  0  0  0  0  0  0  0  0  0
  135.3990  125.2960   66.7510 C   0  0  0  0  0  0  0  0  0  0  0  0
  132.9430  125.7190   66.2900 C   0  0  0  0  0  0  0  0  0  0  0  0
  131.8180  125.6490   65.4540 C   0  0  0  0  0  0  0  0  0  0  0  0
  130.4870  126.2050   65.9720 C   0  0  0  0  0  0  0  0  0  0  0  0
  129.5880  125.2510   66.2290 F   0  0  0  0  0  0  0  0  0  0  0  0
  130.6890  126.8780   67.1050 F   0  0  0  0  0  0  0  0  0  0  0  0
  129.9540  127.0210   65.0630 F   0  0  0  0  0  0  0  0  0  0  0  0
  131.9960  125.0580   64.1670 C   0  0  0  0  0  0  0  0  0  0  0  0
  131.0970  124.8170   63.0660 C   0  0  0  0  0  0  0  0  0  0  0  0
  129.7710  125.1660   63.1020 N   0  0  0  0  0  0  0  0  0  0  0  0
  129.1930  122.9300   58.4060 C   0  0  0  0  0  0  0  0  0  0  0  0
  128.2190  122.6490   57.4520 C   0  0  0  0  0  0  0  0  0  0  0  0
  124.2692  123.8302   57.6282 H   0  0  0  0  0  0  0  0  0  0  0  0
  124.9026  124.4738   56.0754 H   0  0  0  0  0  0  0  0  0  0  0  0
  123.7820  123.0699   56.0754 H   0  0  0  0  0  0  0  0  0  0  0  0
  125.4525  123.6580   59.1770 H   0  0  0  0  0  0  0  0  0  0  0  0
  127.1883  124.1679   60.8772 H   0  0  0  0  0  0  0  0  0  0  0  0
  129.2810  124.0560   61.5500 H   0  0  0  0  0  0  0  0  0  0  0  0
  135.0871  125.2782   67.8057 H   0  0  0  0  0  0  0  0  0  0  0  0
  136.0505  124.4336   66.5467 H   0  0  0  0  0  0  0  0  0  0  0  0
  135.9482  126.2269   66.5467 H   0  0  0  0  0  0  0  0  0  0  0  0
  132.8535  126.1657   67.2912 H   0  0  0  0  0  0  0  0  0  0  0  0
  129.3290  125.6690   62.3440 H   0  0  0  0  0  0  0  0  0  0  0  0
  129.1870  124.9320   63.8930 H   0  0  0  0  0  0  0  0  0  0  0  0
  130.2515  122.7274   58.1856 H   0  0  0  0  0  0  0  0  0  0  0  0
  128.5133  122.2224   56.4817 H   0  0  0  0  0  0  0  0  0  0  0  0
  1  2  1  0
  2  3  2  0
  2  4  1  0
  4  5  2  0
  5  6  1  0
  6  7  2  0
  7  8  1  0
  8  9  1  0
  9 10  2  0
  9 11  1  0
 11 12  1  0
 12 13  1  0
 13 14  2  0
 14 15  1  0
 15 16  1  0
 15 17  2  0
 17 18  1  0
 18 19  1  0
 19 20  1  0
 19 21  1  0
 19 22  1  0
 18 23  2  0
 23 24  1  0
 24 25  1  0
  7 26  1  0
 26 27  2  0
 27  4  1  0
 24 11  2  0
 23 13  1  0
  1 28  1  0
  1 29  1  0
  1 30  1  0
  5 31  1  0
  6 32  1  0
  8 33  1  0
 16 34  1  0
 16 35  1  0
 16 36  1  0
 17 37  1  0
 25 38  1  0
 25 39  1  0
 26 40  1  0
 27 41  1  0
M  END
>  <Binding energies>  (1) 
[-7.6]

>  <Ligand effiencies>  (1) 
[-0.2533333333333333]

>  <Interactions>  (1) 
["V-B:TYR:539:CE2:9844, V-B:MET:535:CE:9803, V-B:PRO:540:CD:9855, V-B:PRO:540:CA:9851, V-B:TYR:539:CD2:9842, V-B:PRO:540:N:9852, V-B:PRO:540:CB:9853, V-B:TYR:539:C:9835, V-A:HIS:456:CE1:4064, V-A:ASP:366:CG:3208, H-A:TYR:484:OH:4343, H-A:GLY:454:N:4045, V-B:GLU:543:CD:9876, V-B:GLU:543:CG:9875, V-A:ARG:545:CZ:4921, V-B:GLU:543:CB:9874, V-A:GLU:543:CD:4903, H-B:GLU:543:OE2:9878, V-A:ARG:545:CD:4918, V-A:ARG:545:CG:4917, V-A:GLY:453:CA:4039, V-A:GLY:453:C:4037, V-A:HIS:456:CD2:4063, V-A:ILE:369:CD1:3234, V-B:LEU:363:CD1:8156, H-B:TYR:539:N:9838, V-B:TYR:531:CE2:9761, V-A:ILE:455:C:4047, V-A:ARG:545:CB:4916"]

$$$$
4bc_Grossjean_2025
     RDKit          3D

 40 42  0  0  0  0  0  0  0  0999 V2000
  125.0250  122.3710   56.5150 C   0  0  0  0  0  0  0  0  0  0  0  0
  126.3910  122.0710   56.2440 O   0  0  0  0  0  0  0  0  0  0  0  0
  127.3510  122.4010   57.1810 C   0  0  0  0  0  0  0  0  0  0  0  0
  126.8880  122.7800   58.4400 C   0  0  0  0  0  0  0  0  0  0  0  0
  127.7810  123.1310   59.4490 C   0  0  0  0  0  0  0  0  0  0  0  0
  129.1570  123.0990   59.2120 C   0  0  0  0  0  0  0  0  0  0  0  0
  129.9820  123.4840   60.2850 N   0  0  0  0  0  0  0  0  0  0  0  0
  131.1500  124.1720   60.2640 C   0  0  0  0  0  0  0  0  0  0  0  0
  131.7060  124.5500   59.2330 O   0  0  0  0  0  0  0  0  0  0  0  0
  131.7420  124.4450   61.5770 C   0  0  0  0  0  0  0  0  0  0  0  0
  133.4340  124.0600   61.8840 S   0  0  0  0  0  0  0  0  0  0  0  0
  133.3170  124.6460   63.5260 C   0  0  0  0  0  0  0  0  0  0  0  0
  134.3650  124.6230   64.3490 N   0  0  0  0  0  0  0  0  0  0  0  0
  134.1530  125.1020   65.5960 C   0  0  0  0  0  0  0  0  0  0  0  0
  135.3600  125.0720   66.5150 C   0  0  0  0  0  0  0  0  0  0  0  0
  132.9280  125.5990   66.0360 C   0  0  0  0  0  0  0  0  0  0  0  0
  131.8200  125.6250   65.1740 C   0  0  0  0  0  0  0  0  0  0  0  0
  130.4930  126.1780   65.7060 C   0  0  0  0  0  0  0  0  0  0  0  0
  129.9510  127.0950   64.9020 F   0  0  0  0  0  0  0  0  0  0  0  0
  129.6120  125.1870   65.8330 F   0  0  0  0  0  0  0  0  0  0  0  0
  130.6860  126.7520   66.8930 F   0  0  0  0  0  0  0  0  0  0  0  0
  132.0120  125.1280   63.8500 C   0  0  0  0  0  0  0  0  0  0  0  0
  131.1340  125.0020   62.7120 C   0  0  0  0  0  0  0  0  0  0  0  0
  129.8200  125.3940   62.7450 N   0  0  0  0  0  0  0  0  0  0  0  0
  129.6310  122.7320   57.9430 C   0  0  0  0  0  0  0  0  0  0  0  0
  128.7340  122.3820   56.9370 C   0  0  0  0  0  0  0  0  0  0  0  0
  124.8661  122.4059   57.6029 H   0  0  0  0  0  0  0  0  0  0  0  0
  124.7697  123.3466   56.0757 H   0  0  0  0  0  0  0  0  0  0  0  0
  124.3844  121.5921   56.0757 H   0  0  0  0  0  0  0  0  0  0  0  0
  125.8063  122.8020   58.6384 H   0  0  0  0  0  0  0  0  0  0  0  0
  127.4015  123.4344   60.4359 H   0  0  0  0  0  0  0  0  0  0  0  0
  129.6630  123.1710   61.1900 H   0  0  0  0  0  0  0  0  0  0  0  0
  135.0237  125.0804   67.5623 H   0  0  0  0  0  0  0  0  0  0  0  0
  135.9433  124.1591   66.3245 H   0  0  0  0  0  0  0  0  0  0  0  0
  135.9880  125.9548   66.3245 H   0  0  0  0  0  0  0  0  0  0  0  0
  132.8283  125.9735   67.0655 H   0  0  0  0  0  0  0  0  0  0  0  0
  129.5370  126.3360   62.5160 H   0  0  0  0  0  0  0  0  0  0  0  0
  129.0860  124.7470   62.9970 H   0  0  0  0  0  0  0  0  0  0  0  0
  130.7126  122.7208   57.7428 H   0  0  0  0  0  0  0  0  0  0  0  0
  129.1106  122.0891   55.9459 H   0  0  0  0  0  0  0  0  0  0  0  0
  1  2  1  0
  2  3  1  0
  3  4  2  0
  4  5  1  0
  5  6  2  0
  6  7  1  0
  7  8  1  0
  8  9  2  0
  8 10  1  0
 10 11  1  0
 11 12  1  0
 12 13  2  0
 13 14  1  0
 14 15  1  0
 14 16  2  0
 16 17  1  0
 17 18  1  0
 18 19  1  0
 18 20  1  0
 18 21  1  0
 17 22  2  0
 22 23  1  0
 23 24  1  0
  6 25  1  0
 25 26  2  0
 26  3  1  0
 23 10  2  0
 22 12  1  0
  1 27  1  0
  1 28  1  0
  1 29  1  0
  4 30  1  0
  5 31  1  0
  7 32  1  0
 15 33  1  0
 15 34  1  0
 15 35  1  0
 16 36  1  0
 24 37  1  0
 24 38  1  0
 25 39  1  0
 26 40  1  0
M  END
>  <Binding energies>  (1) 
[-6.79]

>  <Ligand effiencies>  (1) 
[-0.23413793103448277]

>  <Interactions>  (1) 
["V-B:TYR:539:CE2:9844, V-B:MET:535:CE:9803, V-B:PRO:540:CD:9855, V-B:PRO:540:CA:9851, V-B:TYR:539:CD2:9842, V-B:PRO:540:N:9852, V-B:PRO:540:CB:9853, V-B:TYR:539:CE1:9843, V-B:TYR:539:C:9835, V-B:TYR:539:CZ:9845, V-A:HIS:456:CE1:4064, V-A:ASP:366:CG:3208, H-A:TYR:484:OH:4343, H-A:GLY:454:N:4045, V-B:GLU:543:CD:9876, V-B:GLU:543:CG:9875, V-A:ARG:545:CZ:4921, V-B:GLU:543:CB:9874, V-A:GLU:543:CD:4903, H-B:GLU:543:OE2:9878, V-A:ARG:545:CD:4918, V-A:GLY:454:CA:4044, V-A:ARG:545:CG:4917, V-A:GLY:453:CA:4039, V-A:GLY:453:C:4037, V-A:HIS:456:CD2:4063, V-A:ILE:369:CD1:3234, V-B:LEU:363:CD1:8156, H-B:TYR:539:N:9838, V-B:PRO:540:CG:9854, V-B:ILE:538:CG2:9831, V-B:TYR:539:CD1:9841, V-B:TYR:539:CA:9837, V-B:TYR:539:CG:9840, H-A:ARG:545:NH1:4922, V-A:ILE:455:C:4047"]

$$$$
4bd_Grossjean_2025
     RDKit          3D

 36 38  0  0  0  0  0  0  0  0999 V2000
  131.5290  132.8700   54.7100 C   0  0  0  0  0  0  0  0  0  0  0  0
  131.3700  132.4610   56.1630 C   0  0  0  0  0  0  0  0  0  0  0  0
  132.3130  131.6510   56.7880 C   0  0  0  0  0  0  0  0  0  0  0  0
  132.1520  131.2780   58.1320 C   0  0  0  0  0  0  0  0  0  0  0  0
  133.2150  130.3820   58.7760 C   0  0  0  0  0  0  0  0  0  0  0  0
  133.7090  130.8890   59.9080 F   0  0  0  0  0  0  0  0  0  0  0  0
  132.6880  129.1940   59.0690 F   0  0  0  0  0  0  0  0  0  0  0  0
  134.2360  130.2170   57.9360 F   0  0  0  0  0  0  0  0  0  0  0  0
  130.9950  131.7640   58.8100 C   0  0  0  0  0  0  0  0  0  0  0  0
  130.5030  131.5990   60.1560 C   0  0  0  0  0  0  0  0  0  0  0  0
  131.1680  130.8590   61.0990 N   0  0  0  0  0  0  0  0  0  0  0  0
  129.2900  132.2600   60.4100 C   0  0  0  0  0  0  0  0  0  0  0  0
  128.5080  132.2900   61.6490 C   0  0  0  0  0  0  0  0  0  0  0  0
  129.0080  132.7010   62.6970 O   0  0  0  0  0  0  0  0  0  0  0  0
  127.2280  131.8550   61.5400 N   0  0  0  0  0  0  0  0  0  0  0  0
  126.2420  131.7190   62.5340 C   0  0  0  0  0  0  0  0  0  0  0  0
  125.9900  130.4160   62.9730 C   0  0  0  0  0  0  0  0  0  0  0  0
  125.0390  130.1780   63.9620 C   0  0  0  0  0  0  0  0  0  0  0  0
  124.3430  131.2470   64.5200 C   0  0  0  0  0  0  0  0  0  0  0  0
  124.5940  132.5510   64.1020 C   0  0  0  0  0  0  0  0  0  0  0  0
  125.5440  132.7920   63.1130 C   0  0  0  0  0  0  0  0  0  0  0  0
  128.7210  133.1180   58.9800 S   0  0  0  0  0  0  0  0  0  0  0  0
  130.1040  132.5870   58.0530 C   0  0  0  0  0  0  0  0  0  0  0  0
  130.2630  132.9380   56.7780 N   0  0  0  0  0  0  0  0  0  0  0  0
  131.9271  133.8941   54.6588 H   0  0  0  0  0  0  0  0  0  0  0  0
  132.2247  132.1807   54.2091 H   0  0  0  0  0  0  0  0  0  0  0  0
  130.5504  132.8316   54.2091 H   0  0  0  0  0  0  0  0  0  0  0  0
  133.1907  131.3004   56.2253 H   0  0  0  0  0  0  0  0  0  0  0  0
  131.6860  130.0260   60.8590 H   0  0  0  0  0  0  0  0  0  0  0  0
  131.1670  131.1270   62.0740 H   0  0  0  0  0  0  0  0  0  0  0  0
  126.9220  131.6040   60.6120 H   0  0  0  0  0  0  0  0  0  0  0  0
  126.5460  129.5740   62.5348 H   0  0  0  0  0  0  0  0  0  0  0  0
  124.8387  129.1508   64.3006 H   0  0  0  0  0  0  0  0  0  0  0  0
  123.5882  131.0596   65.2979 H   0  0  0  0  0  0  0  0  0  0  0  0
  124.0427  133.3896   64.5523 H   0  0  0  0  0  0  0  0  0  0  0  0
  125.7479  133.8220   62.7852 H   0  0  0  0  0  0  0  0  0  0  0  0
  1  2  1  0
  2  3  2  0
  3  4  1  0
  4  5  1  0
  5  6  1  0
  5  7  1  0
  5  8  1  0
  4  9  2  0
  9 10  1  0
 10 11  1  0
 10 12  2  0
 12 13  1  0
 13 14  2  0
 13 15  1  0
 15 16  1  0
 16 17  2  0
 17 18  1  0
 18 19  2  0
 19 20  1  0
 20 21  2  0
 12 22  1  0
 22 23  1  0
 23 24  2  0
 24  2  1  0
 23  9  1  0
 21 16  1  0
  1 25  1  0
  1 26  1  0
  1 27  1  0
  3 28  1  0
 11 29  1  0
 11 30  1  0
 15 31  1  0
 17 32  1  0
 18 33  1  0
 19 34  1  0
 20 35  1  0
 21 36  1  0
M  END
>  <Binding energies>  (1) 
[-6.21]

>  <Ligand effiencies>  (1) 
[-0.23]

>  <Interactions>  (1) 
["V-A:ASP:366:CG:3208, H-A:GLU:543:OE2:4905, V-A:LEU:363:CD1:3184, V-A:PRO:540:N:4879, V-A:LEU:363:C:3178, V-A:LEU:363:CA:3180, V-A:ASN:362:C:3167, V-A:TYR:539:C:4862, V-A:ASP:366:CB:3207, V-A:PRO:540:CA:4878, V-A:LEU:363:CB:3182, V-A:TYR:539:CG:4867, H-A:ALA:541:N:4886, V-A:PRO:540:CD:4882, V-A:ILE:538:CA:4855, H-A:ASP:366:OD2:3210, V-A:TYR:531:CE2:4788, V-A:PRO:540:CB:4880, V-A:TYR:539:CE2:4871, V-A:TYR:539:CD2:4869, H-A:TYR:539:N:4865, V-A:ILE:538:CG2:4858, V-A:TYR:531:CZ:4789, V-B:GLY:454:CA:9016, V-A:ILE:538:CD1:4860, V-A:ILE:538:CB:4857, V-B:TYR:484:CZ:9314, V-A:ASN:362:CB:3171, V-B:LEU:475:CD2:9226, V-A:LEU:363:CG:3183"]

$$$$
4be_Grossjean_2025
     RDKit          3D

 38 40  0  0  0  0  0  0  0  0999 V2000
  127.5220  122.5270   56.9150 C   0  0  0  0  0  0  0  0  0  0  0  0
  127.1810  123.1630   58.2490 C   0  0  0  0  0  0  0  0  0  0  0  0
  125.8660  123.4960   58.5840 C   0  0  0  0  0  0  0  0  0  0  0  0
  125.6260  124.0810   59.8280 C   0  0  0  0  0  0  0  0  0  0  0  0
  126.6940  124.3170   60.6970 C   0  0  0  0  0  0  0  0  0  0  0  0
  127.9860  123.9540   60.3000 C   0  0  0  0  0  0  0  0  0  0  0  0
  129.0170  124.2240   61.2170 N   0  0  0  0  0  0  0  0  0  0  0  0
  130.3420  124.3970   60.9830 C   0  0  0  0  0  0  0  0  0  0  0  0
  130.8530  124.3430   59.8620 O   0  0  0  0  0  0  0  0  0  0  0  0
  131.1660  124.6380   62.1710 C   0  0  0  0  0  0  0  0  0  0  0  0
  132.8670  124.1790   62.1760 S   0  0  0  0  0  0  0  0  0  0  0  0
  133.0580  124.7320   63.8230 C   0  0  0  0  0  0  0  0  0  0  0  0
  134.2290  124.6490   64.4530 N   0  0  0  0  0  0  0  0  0  0  0  0
  134.2540  125.1120   65.7240 C   0  0  0  0  0  0  0  0  0  0  0  0
  135.5960  125.0060   66.4250 C   0  0  0  0  0  0  0  0  0  0  0  0
  133.1470  125.6510   66.3730 C   0  0  0  0  0  0  0  0  0  0  0  0
  131.9100  125.7420   65.7150 C   0  0  0  0  0  0  0  0  0  0  0  0
  130.7210  126.3470   66.4690 C   0  0  0  0  0  0  0  0  0  0  0  0
  129.9870  127.1670   65.7130 F   0  0  0  0  0  0  0  0  0  0  0  0
  129.9170  125.3740   66.8970 F   0  0  0  0  0  0  0  0  0  0  0  0
  131.1580  127.0490   67.5140 F   0  0  0  0  0  0  0  0  0  0  0  0
  131.8490  125.2590   64.3740 C   0  0  0  0  0  0  0  0  0  0  0  0
  130.7810  125.1810   63.4070 C   0  0  0  0  0  0  0  0  0  0  0  0
  129.5060  125.6090   63.6750 N   0  0  0  0  0  0  0  0  0  0  0  0
  128.2290  123.3860   59.0830 N   0  0  0  0  0  0  0  0  0  0  0  0
  128.0355  121.5693   57.0860 H   0  0  0  0  0  0  0  0  0  0  0  0
  126.5974  122.3508   56.3458 H   0  0  0  0  0  0  0  0  0  0  0  0
  128.1805  123.1996   56.3458 H   0  0  0  0  0  0  0  0  0  0  0  0
  125.0399  123.3017   57.8841 H   0  0  0  0  0  0  0  0  0  0  0  0
  124.6021  124.3546   60.1225 H   0  0  0  0  0  0  0  0  0  0  0  0
  126.5220  124.7815   61.6792 H   0  0  0  0  0  0  0  0  0  0  0  0
  128.7250  124.2520   62.1830 H   0  0  0  0  0  0  0  0  0  0  0  0
  135.4427  125.0181   67.5142 H   0  0  0  0  0  0  0  0  0  0  0  0
  136.0882  124.0662   66.1344 H   0  0  0  0  0  0  0  0  0  0  0  0
  136.2297  125.8569   66.1344 H   0  0  0  0  0  0  0  0  0  0  0  0
  133.2419  126.0083   67.4090 H   0  0  0  0  0  0  0  0  0  0  0  0
  129.0850  125.5000   64.5860 H   0  0  0  0  0  0  0  0  0  0  0  0
  128.9380  126.0440   62.9610 H   0  0  0  0  0  0  0  0  0  0  0  0
  1  2  1  0
  2  3  2  0
  3  4  1  0
  4  5  2  0
  5  6  1  0
  6  7  1  0
  7  8  1  0
  8  9  2  0
  8 10  1  0
 10 11  1  0
 11 12  1  0
 12 13  2  0
 13 14  1  0
 14 15  1  0
 14 16  2  0
 16 17  1  0
 17 18  1  0
 18 19  1  0
 18 20  1  0
 18 21  1  0
 17 22  2  0
 22 23  1  0
 23 24  1  0
  6 25  2  0
 25  2  1  0
 23 10  2  0
 22 12  1  0
  1 26  1  0
  1 27  1  0
  1 28  1  0
  3 29  1  0
  4 30  1  0
  5 31  1  0
  7 32  1  0
 15 33  1  0
 15 34  1  0
 15 35  1  0
 16 36  1  0
 24 37  1  0
 24 38  1  0
M  END
>  <Binding energies>  (1) 
[-6.47]

>  <Ligand effiencies>  (1) 
[-0.23107142857142857]

>  <Interactions>  (1) 
["V-B:MET:535:CE:9803, V-B:PRO:540:CA:9851, V-B:PRO:540:N:9852, V-B:PRO:540:CB:9853, V-B:TYR:539:C:9835, V-A:HIS:456:CE1:4064, V-A:ASP:366:CG:3208, H-A:TYR:484:OH:4343, H-A:GLY:454:N:4045, V-B:GLU:543:CD:9876, V-B:GLU:543:CG:9875, V-A:ARG:545:CZ:4921, V-B:GLU:543:CB:9874, V-A:GLU:543:CD:4903, H-B:GLU:543:OE2:9878, V-A:ARG:545:CD:4918, V-A:GLY:454:CA:4044, V-A:ARG:545:CG:4917, V-A:GLY:453:CA:4039, V-A:GLY:453:C:4037, V-A:HIS:456:CD2:4063, V-A:ILE:455:C:4047"]

$$$$
4bf_Grossjean_2025
     RDKit          3D

 35 37  0  0  0  0  0  0  0  0999 V2000
  130.4710  132.8710   55.4740 C   0  0  0  0  0  0  0  0  0  0  0  0
  130.4330  132.4600   56.9350 C   0  0  0  0  0  0  0  0  0  0  0  0
  131.4960  131.7710   57.5140 C   0  0  0  0  0  0  0  0  0  0  0  0
  131.4470  131.3940   58.8650 C   0  0  0  0  0  0  0  0  0  0  0  0
  132.6390  130.6350   59.4570 C   0  0  0  0  0  0  0  0  0  0  0  0
  133.2010  131.2690   60.4900 F   0  0  0  0  0  0  0  0  0  0  0  0
  132.2420  129.4390   59.8920 F   0  0  0  0  0  0  0  0  0  0  0  0
  133.5810  130.4760   58.5270 F   0  0  0  0  0  0  0  0  0  0  0  0
  130.2750  131.7470   59.5990 C   0  0  0  0  0  0  0  0  0  0  0  0
  129.8740  131.5340   60.9670 C   0  0  0  0  0  0  0  0  0  0  0  0
  130.6660  130.8820   61.8780 N   0  0  0  0  0  0  0  0  0  0  0  0
  128.6080  132.0560   61.2830 C   0  0  0  0  0  0  0  0  0  0  0  0
  127.8850  131.9920   62.5570 C   0  0  0  0  0  0  0  0  0  0  0  0
  128.1830  132.7440   63.4860 O   0  0  0  0  0  0  0  0  0  0  0  0
  126.8870  131.0760   62.6120 N   0  0  0  0  0  0  0  0  0  0  0  0
  126.0450  130.7330   63.6870 C   0  0  0  0  0  0  0  0  0  0  0  0
  126.3870  129.8780   64.7490 C   0  0  0  0  0  0  0  0  0  0  0  0
  125.4490  129.6070   65.7480 C   0  0  0  0  0  0  0  0  0  0  0  0
  124.1870  130.1940   65.6560 C   0  0  0  0  0  0  0  0  0  0  0  0
  123.8290  131.0150   64.6380 N   0  0  0  0  0  0  0  0  0  0  0  0
  124.7520  131.2700   63.6740 C   0  0  0  0  0  0  0  0  0  0  0  0
  127.8700  132.8270   59.8810 S   0  0  0  0  0  0  0  0  0  0  0  0
  129.2580  132.4540   58.8860 C   0  0  0  0  0  0  0  0  0  0  0  0
  129.3100  132.8100   57.6030 N   0  0  0  0  0  0  0  0  0  0  0  0
  130.5721  133.9641   55.4031 H   0  0  0  0  0  0  0  0  0  0  0  0
  131.3286  132.3907   54.9802 H   0  0  0  0  0  0  0  0  0  0  0  0
  129.5399  132.5561   54.9802 H   0  0  0  0  0  0  0  0  0  0  0  0
  132.3796  131.5207   56.9085 H   0  0  0  0  0  0  0  0  0  0  0  0
  131.0170  131.3410   62.7060 H   0  0  0  0  0  0  0  0  0  0  0  0
  130.9260  129.9140   61.7500 H   0  0  0  0  0  0  0  0  0  0  0  0
  126.7060  130.5640   61.7610 H   0  0  0  0  0  0  0  0  0  0  0  0
  127.3882  129.4246   64.7932 H   0  0  0  0  0  0  0  0  0  0  0  0
  125.7003  128.9446   66.5895 H   0  0  0  0  0  0  0  0  0  0  0  0
  123.4496  129.9815   66.4441 H   0  0  0  0  0  0  0  0  0  0  0  0
  124.4693  131.9314   62.8418 H   0  0  0  0  0  0  0  0  0  0  0  0
  1  2  1  0
  2  3  2  0
  3  4  1  0
  4  5  1  0
  5  6  1  0
  5  7  1  0
  5  8  1  0
  4  9  2  0
  9 10  1  0
 10 11  1  0
 10 12  2  0
 12 13  1  0
 13 14  2  0
 13 15  1  0
 15 16  1  0
 16 17  2  0
 17 18  1  0
 18 19  2  0
 19 20  1  0
 20 21  2  0
 12 22  1  0
 22 23  1  0
 23 24  2  0
 24  2  1  0
 23  9  1  0
 21 16  1  0
  1 25  1  0
  1 26  1  0
  1 27  1  0
  3 28  1  0
 11 29  1  0
 11 30  1  0
 15 31  1  0
 17 32  1  0
 18 33  1  0
 19 34  1  0
 21 35  1  0
M  END
>  <Binding energies>  (1) 
[-6.38]

>  <Ligand effiencies>  (1) 
[-0.23629629629629628]

>  <Interactions>  (1) 
["V-A:ASP:366:CG:3208, H-A:GLU:543:OE2:4905, V-A:GLU:543:CD:4903, V-A:LEU:363:CD1:3184, V-A:PRO:540:N:4879, V-A:LEU:363:CA:3180, V-A:TYR:539:C:4862, V-A:TYR:539:CD1:4868, V-A:PRO:540:CA:4878, V-A:PRO:540:CD:4882, V-A:ILE:538:CA:4855, V-A:TYR:531:CE2:4788, V-A:PRO:540:CB:4880, V-A:TYR:539:CE2:4871, V-A:TYR:539:CD2:4869, V-B:HIS:456:CE1:9037, H-B:TYR:484:OH:9315, V-A:GLU:543:CG:4902, V-B:ARG:545:CD:9891, H-B:GLY:454:N:9017, V-A:ASN:362:CB:3171"]

$$$$
4bg_Grossjean_2025
     RDKit          3D

 39 41  0  0  0  0  0  0  0  0999 V2000
  129.1560  121.3830   61.2370 C   0  0  0  0  0  0  0  0  0  0  0  0
  129.7800  122.1330   60.0740 C   0  0  0  0  0  0  0  0  0  0  0  0
  131.1580  122.1400   59.8800 C   0  0  0  0  0  0  0  0  0  0  0  0
  131.7220  122.8420   58.8030 C   0  0  0  0  0  0  0  0  0  0  0  0
  133.2440  122.8210   58.6310 C   0  0  0  0  0  0  0  0  0  0  0  0
  133.8080  124.0160   58.8220 F   0  0  0  0  0  0  0  0  0  0  0  0
  133.7860  121.9790   59.5120 F   0  0  0  0  0  0  0  0  0  0  0  0
  133.5550  122.4260   57.3970 F   0  0  0  0  0  0  0  0  0  0  0  0
  130.8250  123.5330   57.9350 C   0  0  0  0  0  0  0  0  0  0  0  0
  131.0270  124.3450   56.7600 C   0  0  0  0  0  0  0  0  0  0  0  0
  132.2710  124.6150   56.2480 N   0  0  0  0  0  0  0  0  0  0  0  0
  129.8400  124.8240   56.1850 C   0  0  0  0  0  0  0  0  0  0  0  0
  129.6770  125.6920   55.0190 C   0  0  0  0  0  0  0  0  0  0  0  0
  129.1070  125.2990   54.0000 O   0  0  0  0  0  0  0  0  0  0  0  0
  130.1510  126.9490   55.1470 N   0  0  0  0  0  0  0  0  0  0  0  0
  130.1120  127.9800   54.1110 C   0  0  0  0  0  0  0  0  0  0  0  0
  130.6660  129.3240   54.5660 C   0  0  0  0  0  0  0  0  0  0  0  0
  130.4770  129.7500   55.8840 C   0  0  0  0  0  0  0  0  0  0  0  0
  131.0180  130.9610   56.3080 C   0  0  0  0  0  0  0  0  0  0  0  0
  131.7580  131.7360   55.4180 C   0  0  0  0  0  0  0  0  0  0  0  0
  131.9650  131.3090   54.1080 C   0  0  0  0  0  0  0  0  0  0  0  0
  131.4230  130.0990   53.6830 C   0  0  0  0  0  0  0  0  0  0  0  0
  128.4290  124.3150   57.1080 S   0  0  0  0  0  0  0  0  0  0  0  0
  129.4320  123.4400   58.2400 C   0  0  0  0  0  0  0  0  0  0  0  0
  128.9030  122.7730   59.2660 N   0  0  0  0  0  0  0  0  0  0  0  0
  129.5134  121.8126   62.1844 H   0  0  0  0  0  0  0  0  0  0  0  0
  128.0608  121.4709   61.1846 H   0  0  0  0  0  0  0  0  0  0  0  0
  129.4416  120.3220   61.1846 H   0  0  0  0  0  0  0  0  0  0  0  0
  131.8101  121.5915   60.5756 H   0  0  0  0  0  0  0  0  0  0  0  0
  132.6780  125.5370   56.2910 H   0  0  0  0  0  0  0  0  0  0  0  0
  132.8210  123.8950   55.7990 H   0  0  0  0  0  0  0  0  0  0  0  0
  130.6760  127.1770   55.9790 H   0  0  0  0  0  0  0  0  0  0  0  0
  130.7049  127.6324   53.2521 H   0  0  0  0  0  0  0  0  0  0  0  0
  129.0544  128.1380   53.8532 H   0  0  0  0  0  0  0  0  0  0  0  0
  129.9012  129.1288   56.5858 H   0  0  0  0  0  0  0  0  0  0  0  0
  130.8617  131.3042   57.3413 H   0  0  0  0  0  0  0  0  0  0  0  0
  132.1828  132.6939   55.7525 H   0  0  0  0  0  0  0  0  0  0  0  0
  132.5540  131.9251   53.4127 H   0  0  0  0  0  0  0  0  0  0  0  0
  131.5906  129.7530   52.6524 H   0  0  0  0  0  0  0  0  0  0  0  0
  1  2  1  0
  2  3  2  0
  3  4  1  0
  4  5  1  0
  5  6  1  0
  5  7  1  0
  5  8  1  0
  4  9  2  0
  9 10  1  0
 10 11  1  0
 10 12  2  0
 12 13  1  0
 13 14  2  0
 13 15  1  0
 15 16  1  0
 16 17  1  0
 17 18  2  0
 18 19  1  0
 19 20  2  0
 20 21  1  0
 21 22  2  0
 12 23  1  0
 23 24  1  0
 24 25  2  0
 25  2  1  0
 24  9  1  0
 22 17  1  0
  1 26  1  0
  1 27  1  0
  1 28  1  0
  3 29  1  0
 11 30  1  0
 11 31  1  0
 15 32  1  0
 16 33  1  0
 16 34  1  0
 18 35  1  0
 19 36  1  0
 20 37  1  0
 21 38  1  0
 22 39  1  0
M  END
>  <Binding energies>  (1) 
[-7.32]

>  <Ligand effiencies>  (1) 
[-0.26142857142857145]

>  <Interactions>  (1) 
["V-B:ALA:541:CB:9860, V-B:TYR:539:CE2:9844, V-B:TYR:539:CD2:9842, V-B:ALA:541:CA:9858, V-B:PRO:540:C:9849, V-B:TYR:539:CZ:9845, V-A:ASP:366:CG:3208, V-A:LEU:363:CD1:3184, V-A:ASP:366:CB:3207, H-A:TYR:531:OH:4790, V-A:ILE:369:CG2:3232, V-A:ILE:369:CD1:3234, H-A:LYS:534:NZ:4818, V-A:TYR:531:CE1:4787, V-A:TYR:531:CZ:4789, V-A:ILE:538:CD1:4860, V-A:ASP:366:C:3203, V-A:ILE:369:CB:3231, H-B:TYR:539:OH:9846, V-A:ASP:366:CA:3205, V-A:ILE:369:CG1:3233, H-A:ASP:366:O:3204"]

$$$$
4bh_Grossjean_2025
     RDKit          3D

 51 53  0  0  0  0  0  0  0  0999 V2000
  132.1650  133.0160   55.6140 C   0  0  0  0  0  0  0  0  0  0  0  0
  130.7460  133.0940   55.6910 O   0  0  0  0  0  0  0  0  0  0  0  0
  130.0100  131.9350   55.8570 C   0  0  0  0  0  0  0  0  0  0  0  0
  130.2920  130.7270   55.2000 C   0  0  0  0  0  0  0  0  0  0  0  0
  129.5040  129.5950   55.4130 C   0  0  0  0  0  0  0  0  0  0  0  0
  129.8530  128.2800   54.7260 C   0  0  0  0  0  0  0  0  0  0  0  0
  129.9450  127.1470   55.6460 N   0  0  0  0  0  0  0  0  0  0  0  0
  129.7880  125.8500   55.3080 C   0  0  0  0  0  0  0  0  0  0  0  0
  129.5060  125.4930   54.1630 O   0  0  0  0  0  0  0  0  0  0  0  0
  129.9290  124.8810   56.3950 C   0  0  0  0  0  0  0  0  0  0  0  0
  128.5060  124.3250   57.2710 S   0  0  0  0  0  0  0  0  0  0  0  0
  129.4880  123.3290   58.3200 C   0  0  0  0  0  0  0  0  0  0  0  0
  128.9430  122.5850   59.2820 N   0  0  0  0  0  0  0  0  0  0  0  0
  129.8040  121.8550   60.0270 C   0  0  0  0  0  0  0  0  0  0  0  0
  129.1630  121.0170   61.1200 C   0  0  0  0  0  0  0  0  0  0  0  0
  131.1830  121.8480   59.8350 C   0  0  0  0  0  0  0  0  0  0  0  0
  131.7630  122.6300   58.8230 C   0  0  0  0  0  0  0  0  0  0  0  0
  133.2850  122.5880   58.6470 C   0  0  0  0  0  0  0  0  0  0  0  0
  133.8760  123.7520   58.9250 F   0  0  0  0  0  0  0  0  0  0  0  0
  133.8080  121.6710   59.4600 F   0  0  0  0  0  0  0  0  0  0  0  0
  133.5830  122.2790   57.3850 F   0  0  0  0  0  0  0  0  0  0  0  0
  130.8830  123.4150   58.0200 C   0  0  0  0  0  0  0  0  0  0  0  0
  131.1050  124.3220   56.9220 C   0  0  0  0  0  0  0  0  0  0  0  0
  132.3540  124.6060   56.4330 N   0  0  0  0  0  0  0  0  0  0  0  0
  128.4390  129.6580   56.3130 C   0  0  0  0  0  0  0  0  0  0  0  0
  128.1290  130.8550   56.9780 C   0  0  0  0  0  0  0  0  0  0  0  0
  127.0810  130.9930   57.8710 O   0  0  0  0  0  0  0  0  0  0  0  0
  125.9280  130.1700   57.7260 C   0  0  0  0  0  0  0  0  0  0  0  0
  128.9190  131.9880   56.7360 C   0  0  0  0  0  0  0  0  0  0  0  0
  128.6370  133.1610   57.3950 O   0  0  0  0  0  0  0  0  0  0  0  0
  128.8700  133.1070   58.7960 C   0  0  0  0  0  0  0  0  0  0  0  0
  132.5866  132.9928   56.6297 H   0  0  0  0  0  0  0  0  0  0  0  0
  132.4533  132.1007   55.0764 H   0  0  0  0  0  0  0  0  0  0  0  0
  132.5519  133.8942   55.0764 H   0  0  0  0  0  0  0  0  0  0  0  0
  131.1454  130.6719   54.5081 H   0  0  0  0  0  0  0  0  0  0  0  0
  129.0754  128.0601   53.9797 H   0  0  0  0  0  0  0  0  0  0  0  0
  130.8457  128.4072   54.2696 H   0  0  0  0  0  0  0  0  0  0  0  0
  130.2580  127.3600   56.5830 H   0  0  0  0  0  0  0  0  0  0  0  0
  129.4616  121.4074   62.1041 H   0  0  0  0  0  0  0  0  0  0  0  0
  128.0682  121.0641   61.0237 H   0  0  0  0  0  0  0  0  0  0  0  0
  129.4950  119.9727   61.0237 H   0  0  0  0  0  0  0  0  0  0  0  0
  131.8218  121.2264   60.4797 H   0  0  0  0  0  0  0  0  0  0  0  0
  132.8070  125.4930   56.6060 H   0  0  0  0  0  0  0  0  0  0  0  0
  132.8630  123.9370   55.8720 H   0  0  0  0  0  0  0  0  0  0  0  0
  127.8350  128.7586   56.5036 H   0  0  0  0  0  0  0  0  0  0  0  0
  125.5452  129.8967   58.7204 H   0  0  0  0  0  0  0  0  0  0  0  0
  125.1523  130.7198   57.1728 H   0  0  0  0  0  0  0  0  0  0  0  0
  126.1959  129.2577   57.1728 H   0  0  0  0  0  0  0  0  0  0  0  0
  127.9342  133.3239   59.3320 H   0  0  0  0  0  0  0  0  0  0  0  0
  129.2253  132.1027   59.0702 H   0  0  0  0  0  0  0  0  0  0  0  0
  129.6308  133.8526   59.0702 H   0  0  0  0  0  0  0  0  0  0  0  0
  1  2  1  0
  2  3  1  0
  3  4  2  0
  4  5  1  0
  5  6  1  0
  6  7  1  0
  7  8  1  0
  8  9  2  0
  8 10  1  0
 10 11  1  0
 11 12  1  0
 12 13  2  0
 13 14  1  0
 14 15  1  0
 14 16  2  0
 16 17  1  0
 17 18  1  0
 18 19  1  0
 18 20  1  0
 18 21  1  0
 17 22  2  0
 22 23  1  0
 23 24  1  0
  5 25  2  0
 25 26  1  0
 26 27  1  0
 27 28  1  0
 26 29  2  0
 29 30  1  0
 30 31  1  0
 29  3  1  0
 23 10  2  0
 22 12  1  0
  1 32  1  0
  1 33  1  0
  1 34  1  0
  4 35  1  0
  6 36  1  0
  6 37  1  0
  7 38  1  0
 15 39  1  0
 15 40  1  0
 15 41  1  0
 16 42  1  0
 24 43  1  0
 24 44  1  0
 25 45  1  0
 28 46  1  0
 28 47  1  0
 28 48  1  0
 31 49  1  0
 31 50  1  0
 31 51  1  0
M  END
>  <Binding energies>  (1) 
[-7.3]

>  <Ligand effiencies>  (1) 
[-0.21470588235294116]

>  <Interactions>  (1) 
["V-B:ALA:541:CB:9860, V-B:TYR:539:CE2:9844, V-B:TYR:539:CD2:9842, V-B:ALA:541:CA:9858, V-B:PRO:540:C:9849, V-B:TYR:539:CZ:9845, V-A:ASP:366:CG:3208, V-A:TYR:539:CZ:4872, V-A:LEU:363:CD1:3184, V-A:PRO:540:N:4879, V-A:TYR:539:CE1:4870, V-A:TYR:539:C:4862, V-A:TYR:539:CD1:4868, V-A:ASP:366:CB:3207, V-A:PRO:540:CG:4881, V-A:PRO:540:CA:4878, H-A:TYR:531:OH:4790, V-A:TYR:539:CG:4867, V-A:PRO:540:CD:4882, V-A:ILE:538:CA:4855, V-A:TYR:539:CE2:4871, V-A:TYR:539:CD2:4869, V-A:ILE:369:CG2:3232, V-A:ILE:369:CD1:3234, H-A:TYR:539:N:4865, H-A:LYS:534:NZ:4818, V-A:ILE:538:CG2:4858, V-A:TYR:531:CE1:4787, V-A:TYR:531:CZ:4789, V-A:ASP:366:C:3203, H-A:TYR:539:OH:4873, V-A:ILE:369:CB:3231, H-B:TYR:539:OH:9846, V-A:ASP:366:CA:3205, V-A:ILE:369:CG1:3233, H-A:ASP:366:O:3204"]

$$$$
4bi_Grossjean_2025
     RDKit          3D

 32 34  0  0  0  0  0  0  0  0999 V2000
  130.9950  132.8690   54.5900 C   0  0  0  0  0  0  0  0  0  0  0  0
  131.0670  132.4530   56.0480 C   0  0  0  0  0  0  0  0  0  0  0  0
  132.1210  131.6740   56.5200 C   0  0  0  0  0  0  0  0  0  0  0  0
  132.1780  131.3010   57.8730 C   0  0  0  0  0  0  0  0  0  0  0  0
  133.3600  130.4500   58.3480 C   0  0  0  0  0  0  0  0  0  0  0  0
  134.2900  130.2760   57.4060 F   0  0  0  0  0  0  0  0  0  0  0  0
  133.9520  131.0400   59.3870 F   0  0  0  0  0  0  0  0  0  0  0  0
  132.9300  129.2420   58.7130 F   0  0  0  0  0  0  0  0  0  0  0  0
  131.1190  131.7480   58.7180 C   0  0  0  0  0  0  0  0  0  0  0  0
  130.8400  131.5660   60.1210 C   0  0  0  0  0  0  0  0  0  0  0  0
  131.6540  130.8370   60.9500 N   0  0  0  0  0  0  0  0  0  0  0  0
  129.6700  132.2060   60.5630 C   0  0  0  0  0  0  0  0  0  0  0  0
  129.0870  132.2180   61.9070 C   0  0  0  0  0  0  0  0  0  0  0  0
  128.4620  133.2010   62.3130 O   0  0  0  0  0  0  0  0  0  0  0  0
  129.2720  131.0880   62.6330 N   0  0  0  0  0  0  0  0  0  0  0  0
  128.8210  130.8250   63.9200 C   0  0  0  0  0  0  0  0  0  0  0  0
  128.3790  129.5680   64.3300 C   0  0  0  0  0  0  0  0  0  0  0  0
  128.0240  129.7270   65.6510 C   0  0  0  0  0  0  0  0  0  0  0  0
  128.2410  131.0130   66.0160 O   0  0  0  0  0  0  0  0  0  0  0  0
  128.7460  131.6990   64.9090 N   0  0  0  0  0  0  0  0  0  0  0  0
  128.8600  133.0370   59.2370 S   0  0  0  0  0  0  0  0  0  0  0  0
  130.0990  132.5410   58.1080 C   0  0  0  0  0  0  0  0  0  0  0  0
  130.0510  132.8940   56.8240 N   0  0  0  0  0  0  0  0  0  0  0  0
  130.8077  133.9511   54.5263 H   0  0  0  0  0  0  0  0  0  0  0  0
  131.9475  132.6319   54.0936 H   0  0  0  0  0  0  0  0  0  0  0  0
  130.1776  132.3255   54.0936 H   0  0  0  0  0  0  0  0  0  0  0  0
  132.9131  131.3492   55.8293 H   0  0  0  0  0  0  0  0  0  0  0  0
  132.2170  130.0710   60.6070 H   0  0  0  0  0  0  0  0  0  0  0  0
  131.7150  131.0390   61.9380 H   0  0  0  0  0  0  0  0  0  0  0  0
  129.7890  130.3400   62.1940 H   0  0  0  0  0  0  0  0  0  0  0  0
  128.3254  128.6485   63.7287 H   0  0  0  0  0  0  0  0  0  0  0  0
  127.6277  128.9362   66.3049 H   0  0  0  0  0  0  0  0  0  0  0  0
  1  2  1  0
  2  3  2  0
  3  4  1  0
  4  5  1  0
  5  6  1  0
  5  7  1  0
  5  8  1  0
  4  9  2  0
  9 10  1  0
 10 11  1  0
 10 12  2  0
 12 13  1  0
 13 14  2  0
 13 15  1  0
 15 16  1  0
 16 17  1  0
 17 18  2  0
 18 19  1  0
 19 20  1  0
 12 21  1  0
 21 22  1  0
 22 23  2  0
 23  2  1  0
 22  9  1  0
 20 16  2  0
  1 24  1  0
  1 25  1  0
  1 26  1  0
  3 27  1  0
 11 28  1  0
 11 29  1  0
 15 30  1  0
 17 31  1  0
 18 32  1  0
M  END
>  <Binding energies>  (1) 
[-6.15]

>  <Ligand effiencies>  (1) 
[-0.23653846153846156]

>  <Interactions>  (1) 
["V-A:ASP:366:CG:3208, H-A:GLU:543:OE2:4905, V-A:GLU:543:CD:4903, V-A:LEU:363:CD1:3184, V-A:PRO:540:N:4879, V-A:LEU:363:C:3178, V-A:LEU:363:CA:3180, V-A:ASN:362:C:3167, V-A:TYR:539:C:4862, V-A:ASP:366:CB:3207, V-A:PRO:540:CA:4878, V-A:LEU:363:CB:3182, H-A:ALA:541:N:4886, V-A:PRO:540:CD:4882, V-A:ILE:538:CA:4855, H-A:ASP:366:OD2:3210, V-A:TYR:531:CE2:4788, V-A:PRO:540:CB:4880, V-A:TYR:539:CE2:4871, V-A:TYR:539:CD2:4869, H-A:TYR:539:N:4865, V-A:ILE:538:CG2:4858, V-A:TYR:531:CZ:4789, H-B:TYR:484:OH:9315, V-A:GLU:543:CG:4902, V-A:ILE:538:CD1:4860, V-A:ILE:538:CB:4857, V-A:TYR:531:CD2:4786, V-A:LEU:363:CG:3183"]

$$$$
4bj_Grossjean_2025
     RDKit          3D

 32 34  0  0  0  0  0  0  0  0999 V2000
  131.8840  132.4990   54.4820 C   0  0  0  0  0  0  0  0  0  0  0  0
  131.6110  132.2320   55.9510 C   0  0  0  0  0  0  0  0  0  0  0  0
  132.4780  131.4520   56.7110 C   0  0  0  0  0  0  0  0  0  0  0  0
  132.2100  131.2090   58.0680 C   0  0  0  0  0  0  0  0  0  0  0  0
  133.1920  130.3420   58.8640 C   0  0  0  0  0  0  0  0  0  0  0  0
  133.6560  130.9490   59.9580 F   0  0  0  0  0  0  0  0  0  0  0  0
  132.5890  129.2200   59.2540 F   0  0  0  0  0  0  0  0  0  0  0  0
  134.2420  130.0360   58.1010 F   0  0  0  0  0  0  0  0  0  0  0  0
  131.0280  131.7920   58.6140 C   0  0  0  0  0  0  0  0  0  0  0  0
  130.4360  131.7610   59.9300 C   0  0  0  0  0  0  0  0  0  0  0  0
  130.9940  131.0740   60.9780 N   0  0  0  0  0  0  0  0  0  0  0  0
  129.2470  132.4990   60.0410 C   0  0  0  0  0  0  0  0  0  0  0  0
  128.3870  132.6740   61.2140 C   0  0  0  0  0  0  0  0  0  0  0  0
  128.8740  132.8800   62.3280 O   0  0  0  0  0  0  0  0  0  0  0  0
  127.0550  132.6070   60.9750 N   0  0  0  0  0  0  0  0  0  0  0  0
  126.0330  132.7500   61.9030 C   0  0  0  0  0  0  0  0  0  0  0  0
  126.0690  132.4880   63.1920 N   0  0  0  0  0  0  0  0  0  0  0  0
  124.9150  132.7470   63.7730 C   0  0  0  0  0  0  0  0  0  0  0  0
  123.9050  133.2300   62.9460 C   0  0  0  0  0  0  0  0  0  0  0  0
  124.5110  133.3470   61.3210 S   0  0  0  0  0  0  0  0  0  0  0  0
  128.8100  133.2410   58.5030 S   0  0  0  0  0  0  0  0  0  0  0  0
  130.2270  132.5740   57.7270 C   0  0  0  0  0  0  0  0  0  0  0  0
  130.4840  132.8000   56.4390 N   0  0  0  0  0  0  0  0  0  0  0  0
  132.6675  133.2653   54.3880 H   0  0  0  0  0  0  0  0  0  0  0  0
  132.2191  131.5705   53.9967 H   0  0  0  0  0  0  0  0  0  0  0  0
  130.9632  132.8547   53.9967 H   0  0  0  0  0  0  0  0  0  0  0  0
  133.3781  131.0235   56.2461 H   0  0  0  0  0  0  0  0  0  0  0  0
  130.7420  131.2630   61.9370 H   0  0  0  0  0  0  0  0  0  0  0  0
  131.6870  130.3540   60.8230 H   0  0  0  0  0  0  0  0  0  0  0  0
  126.7620  132.4430   60.0230 H   0  0  0  0  0  0  0  0  0  0  0  0
  124.7587  132.5904   64.8505 H   0  0  0  0  0  0  0  0  0  0  0  0
  122.8873  133.4950   63.2687 H   0  0  0  0  0  0  0  0  0  0  0  0
  1  2  1  0
  2  3  2  0
  3  4  1  0
  4  5  1  0
  5  6  1  0
  5  7  1  0
  5  8  1  0
  4  9  2  0
  9 10  1  0
 10 11  1  0
 10 12  2  0
 12 13  1  0
 13 14  2  0
 13 15  1  0
 15 16  1  0
 16 17  2  0
 17 18  1  0
 18 19  2  0
 19 20  1  0
 12 21  1  0
 21 22  1  0
 22 23  2  0
 23  2  1  0
 22  9  1  0
 20 16  1  0
  1 24  1  0
  1 25  1  0
  1 26  1  0
  3 27  1  0
 11 28  1  0
 11 29  1  0
 15 30  1  0
 18 31  1  0
 19 32  1  0
M  END
>  <Binding energies>  (1) 
[-5.66]

>  <Ligand effiencies>  (1) 
[-0.21769230769230768]

>  <Interactions>  (1) 
["V-A:ASP:366:CG:3208, H-A:GLU:543:OE2:4905, V-A:TYR:539:CZ:4872, V-A:LEU:363:CD1:3184, V-A:PRO:540:N:4879, V-A:LEU:363:C:3178, V-A:LEU:363:CA:3180, V-A:TYR:539:CE1:4870, V-A:ASN:362:C:3167, V-A:TYR:539:C:4862, V-A:TYR:539:CD1:4868, V-A:ASP:366:CB:3207, V-A:PRO:540:CA:4878, V-A:LEU:363:CB:3182, V-A:TYR:539:CG:4867, H-A:ALA:541:N:4886, V-A:PRO:540:CD:4882, V-A:ILE:538:CA:4855, V-A:TYR:531:CE2:4788, V-A:PRO:540:CB:4880, V-A:TYR:539:CE2:4871, V-A:TYR:539:CD2:4869, H-A:TYR:539:N:4865, V-A:ILE:538:CG2:4858, V-A:TYR:531:CZ:4789, H-B:TYR:484:OH:9315, V-B:GLY:454:CA:9016, V-A:ILE:538:CD1:4860, V-A:ILE:538:CB:4857, V-A:ASN:362:CB:3171, V-B:LEU:475:CD2:9226, V-B:ILE:369:CD1:8206"]

$$$$
4bk_Grossjean_2025
     RDKit          3D

 50 51  0  0  0  0  0  0  0  0999 V2000
  129.7760  132.8730   57.6910 C   0  0  0  0  0  0  0  0  0  0  0  0
  130.6010  133.2500   56.5990 O   0  0  0  0  0  0  0  0  0  0  0  0
  131.0640  132.1450   55.8330 C   0  0  0  0  0  0  0  0  0  0  0  0
  131.0600  132.5170   54.3450 C   0  0  0  0  0  0  0  0  0  0  0  0
  129.7670  132.2840   53.8040 O   0  0  0  0  0  0  0  0  0  0  0  0
  128.7680  132.0460   54.7860 C   0  0  0  0  0  0  0  0  0  0  0  0
  127.7420  131.0440   54.2390 C   0  0  0  0  0  0  0  0  0  0  0  0
  128.3880  129.8050   53.9820 O   0  0  0  0  0  0  0  0  0  0  0  0
  128.8840  129.1620   55.1510 C   0  0  0  0  0  0  0  0  0  0  0  0
  129.9480  128.1260   54.7500 C   0  0  0  0  0  0  0  0  0  0  0  0
  130.0630  127.0090   55.6890 N   0  0  0  0  0  0  0  0  0  0  0  0
  129.7600  125.7230   55.4120 C   0  0  0  0  0  0  0  0  0  0  0  0
  129.3650  125.3620   54.3020 O   0  0  0  0  0  0  0  0  0  0  0  0
  129.9360  124.7700   56.5090 C   0  0  0  0  0  0  0  0  0  0  0  0
  128.5330  124.1460   57.3710 S   0  0  0  0  0  0  0  0  0  0  0  0
  129.5460  123.1520   58.3900 C   0  0  0  0  0  0  0  0  0  0  0  0
  129.0280  122.3710   59.3380 N   0  0  0  0  0  0  0  0  0  0  0  0
  129.9120  121.6470   60.0620 C   0  0  0  0  0  0  0  0  0  0  0  0
  129.2990  120.7630   61.1330 C   0  0  0  0  0  0  0  0  0  0  0  0
  131.2900  121.6850   59.8630 C   0  0  0  0  0  0  0  0  0  0  0  0
  131.8430  122.5060   58.8680 C   0  0  0  0  0  0  0  0  0  0  0  0
  133.3650  122.5170   58.6900 C   0  0  0  0  0  0  0  0  0  0  0  0
  133.9150  123.6990   58.9740 F   0  0  0  0  0  0  0  0  0  0  0  0
  133.9200  121.6130   59.4960 F   0  0  0  0  0  0  0  0  0  0  0  0
  133.6730  122.2280   57.4270 F   0  0  0  0  0  0  0  0  0  0  0  0
  130.9370  123.2830   58.0850 C   0  0  0  0  0  0  0  0  0  0  0  0
  131.1270  124.2130   57.0000 C   0  0  0  0  0  0  0  0  0  0  0  0
  132.3640  124.5260   56.4980 N   0  0  0  0  0  0  0  0  0  0  0  0
  130.2885  133.1072   58.6357 H   0  0  0  0  0  0  0  0  0  0  0  0
  128.8268  133.4267   57.6417 H   0  0  0  0  0  0  0  0  0  0  0  0
  129.5734  131.7929   57.6417 H   0  0  0  0  0  0  0  0  0  0  0  0
  132.0871  131.8865   56.1436 H   0  0  0  0  0  0  0  0  0  0  0  0
  130.4020  131.2820   55.9970 H   0  0  0  0  0  0  0  0  0  0  0  0
  131.3192  133.5800   54.2317 H   0  0  0  0  0  0  0  0  0  0  0  0
  131.7985  131.9016   53.8103 H   0  0  0  0  0  0  0  0  0  0  0  0
  129.2356  131.6342   55.6925 H   0  0  0  0  0  0  0  0  0  0  0  0
  128.2624  132.9915   55.0317 H   0  0  0  0  0  0  0  0  0  0  0  0
  126.9425  130.8951   54.9797 H   0  0  0  0  0  0  0  0  0  0  0  0
  127.3068  131.4334   53.3069 H   0  0  0  0  0  0  0  0  0  0  0  0
  129.3341  129.9110   55.8192 H   0  0  0  0  0  0  0  0  0  0  0  0
  128.0572  128.6575   55.6724 H   0  0  0  0  0  0  0  0  0  0  0  0
  129.6851  127.7229   53.7609 H   0  0  0  0  0  0  0  0  0  0  0  0
  130.9178  128.6451   54.7466 H   0  0  0  0  0  0  0  0  0  0  0  0
  130.3820  127.2400   56.6180 H   0  0  0  0  0  0  0  0  0  0  0  0
  129.5679  121.1508   62.1266 H   0  0  0  0  0  0  0  0  0  0  0  0
  128.2044  120.7606   61.0242 H   0  0  0  0  0  0  0  0  0  0  0  0
  129.6805  119.7370   61.0242 H   0  0  0  0  0  0  0  0  0  0  0  0
  131.9496  121.0672   60.4901 H   0  0  0  0  0  0  0  0  0  0  0  0
  132.8770  123.8890   55.9040 H   0  0  0  0  0  0  0  0  0  0  0  0
  132.8050  125.4120   56.7030 H   0  0  0  0  0  0  0  0  0  0  0  0
  1  2  1  0
  2  3  1  0
  3  4  1  0
  4  5  1  0
  5  6  1  0
  6  7  1  0
  7  8  1  0
  8  9  1  0
  9 10  1  0
 10 11  1  0
 11 12  1  0
 12 13  2  0
 12 14  1  0
 14 15  1  0
 15 16  1  0
 16 17  2  0
 17 18  1  0
 18 19  1  0
 18 20  2  0
 20 21  1  0
 21 22  1  0
 22 23  1  0
 22 24  1  0
 22 25  1  0
 21 26  2  0
 26 27  1  0
 27 28  1  0
 27 14  2  0
 26 16  1  0
  1 29  1  0
  1 30  1  0
  1 31  1  0
  3 32  1  0
  3 33  1  0
  4 34  1  0
  4 35  1  0
  6 36  1  0
  6 37  1  0
  7 38  1  0
  7 39  1  0
  9 40  1  0
  9 41  1  0
 10 42  1  0
 10 43  1  0
 11 44  1  0
 19 45  1  0
 19 46  1  0
 19 47  1  0
 20 48  1  0
 28 49  1  0
 28 50  1  0
M  END
>  <Binding energies>  (1) 
[-6.03]

>  <Ligand effiencies>  (1) 
[-0.19451612903225807]

>  <Interactions>  (1) 
["V-B:ALA:541:CB:9860, V-B:TYR:539:CE2:9844, V-B:TYR:539:CD2:9842, V-B:ALA:541:CA:9858, V-B:PRO:540:C:9849, V-B:TYR:539:CZ:9845, V-A:ASP:366:CG:3208, V-A:PRO:540:N:4879, V-A:TYR:539:CE1:4870, V-A:TYR:539:C:4862, V-A:TYR:539:CD1:4868, V-A:ASP:366:CB:3207, V-A:PRO:540:CA:4878, H-A:TYR:531:OH:4790, V-A:PRO:540:CD:4882, V-A:ILE:538:CA:4855, V-A:PRO:540:CB:4880, V-A:ILE:369:CG2:3232, V-A:ILE:369:CD1:3234, H-A:TYR:539:N:4865, H-A:LYS:534:NZ:4818, V-A:ILE:538:CG2:4858, V-A:TYR:531:CE1:4787, V-A:TYR:531:CZ:4789, V-A:ILE:538:CD1:4860, V-A:MET:535:CB:4827, V-A:MET:535:CG:4828, V-A:ASP:366:C:3203, V-A:ILE:369:CB:3231, H-B:TYR:539:OH:9846, V-A:ASP:366:CA:3205, V-A:ILE:369:CG1:3233, H-A:ASP:366:O:3204"]

$$$$
4ca_Grossjean_2025
     RDKit          3D

 52 55  0  0  0  0  0  0  0  0999 V2000
  129.0550  131.6240   54.8180 C   0  0  0  0  0  0  0  0  0  0  0  0
  129.8240  132.8760   54.3850 C   0  0  0  0  0  0  0  0  0  0  0  0
  130.5520  133.3910   55.4920 O   0  0  0  0  0  0  0  0  0  0  0  0
  131.7000  132.8000   55.9130 C   0  0  0  0  0  0  0  0  0  0  0  0
  132.7820  132.9230   55.3290 O   0  0  0  0  0  0  0  0  0  0  0  0
  131.5240  131.9850   57.1610 C   0  0  0  0  0  0  0  0  0  0  0  0
  130.3500  132.1280   57.9120 C   0  0  0  0  0  0  0  0  0  0  0  0
  130.1550  131.3830   59.0710 C   0  0  0  0  0  0  0  0  0  0  0  0
  131.1300  130.4860   59.5070 C   0  0  0  0  0  0  0  0  0  0  0  0
  130.8260  129.7770   60.6860 N   0  0  0  0  0  0  0  0  0  0  0  0
  129.9930  128.7260   60.8820 C   0  0  0  0  0  0  0  0  0  0  0  0
  129.3670  128.1630   59.9840 O   0  0  0  0  0  0  0  0  0  0  0  0
  129.8850  128.2640   62.2680 C   0  0  0  0  0  0  0  0  0  0  0  0
  128.6100  128.8870   63.3130 S   0  0  0  0  0  0  0  0  0  0  0  0
  129.1360  127.8710   64.6350 C   0  0  0  0  0  0  0  0  0  0  0  0
  128.5120  127.8840   65.8100 N   0  0  0  0  0  0  0  0  0  0  0  0
  128.9830  127.0500   66.7730 C   0  0  0  0  0  0  0  0  0  0  0  0
  128.2510  127.0800   68.0840 C   0  0  0  0  0  0  0  0  0  0  0  0
  126.8560  126.9280   68.1320 C   0  0  0  0  0  0  0  0  0  0  0  0
  126.1720  126.9600   69.3440 C   0  0  0  0  0  0  0  0  0  0  0  0
  126.8750  127.1470   70.5300 C   0  0  0  0  0  0  0  0  0  0  0  0
  128.2570  127.3030   70.5100 C   0  0  0  0  0  0  0  0  0  0  0  0
  128.9380  127.2700   69.2960 C   0  0  0  0  0  0  0  0  0  0  0  0
  130.0920  126.2250   66.5580 C   0  0  0  0  0  0  0  0  0  0  0  0
  130.7600  126.2080   65.3240 C   0  0  0  0  0  0  0  0  0  0  0  0
  131.9670  125.2770   65.1560 C   0  0  0  0  0  0  0  0  0  0  0  0
  131.6550  124.1140   64.5820 F   0  0  0  0  0  0  0  0  0  0  0  0
  132.8880  125.8640   64.3920 F   0  0  0  0  0  0  0  0  0  0  0  0
  132.4950  125.0030   66.3490 F   0  0  0  0  0  0  0  0  0  0  0  0
  130.2640  127.0660   64.3010 C   0  0  0  0  0  0  0  0  0  0  0  0
  130.6690  127.3100   62.9390 C   0  0  0  0  0  0  0  0  0  0  0  0
  131.7300  126.6660   62.3550 N   0  0  0  0  0  0  0  0  0  0  0  0
  132.3060  130.3300   58.7600 C   0  0  0  0  0  0  0  0  0  0  0  0
  132.4990  131.0750   57.5980 C   0  0  0  0  0  0  0  0  0  0  0  0
  129.0244  131.5741   55.9164 H   0  0  0  0  0  0  0  0  0  0  0  0
  128.0289  131.6695   54.4243 H   0  0  0  0  0  0  0  0  0  0  0  0
  129.5595  130.7293   54.4243 H   0  0  0  0  0  0  0  0  0  0  0  0
  130.5223  132.6159   53.5758 H   0  0  0  0  0  0  0  0  0  0  0  0
  129.1147  133.6365   54.0266 H   0  0  0  0  0  0  0  0  0  0  0  0
  129.5751  132.8358   57.5824 H   0  0  0  0  0  0  0  0  0  0  0  0
  129.2256  131.5023   59.6472 H   0  0  0  0  0  0  0  0  0  0  0  0
  131.3200  130.1050   61.5030 H   0  0  0  0  0  0  0  0  0  0  0  0
  126.2949  126.7813   67.1973 H   0  0  0  0  0  0  0  0  0  0  0  0
  125.0790  126.8378   69.3640 H   0  0  0  0  0  0  0  0  0  0  0  0
  126.3352  127.1716   71.4881 H   0  0  0  0  0  0  0  0  0  0  0  0
  128.8096  127.4518   71.4494 H   0  0  0  0  0  0  0  0  0  0  0  0
  130.0309  127.3946   69.2849 H   0  0  0  0  0  0  0  0  0  0  0  0
  130.4475  125.5767   67.3724 H   0  0  0  0  0  0  0  0  0  0  0  0
  131.8240  125.6600   62.3800 H   0  0  0  0  0  0  0  0  0  0  0  0
  132.4590  127.1780   61.8750 H   0  0  0  0  0  0  0  0  0  0  0  0
  133.0771  129.6189   59.0913 H   0  0  0  0  0  0  0  0  0  0  0  0
  133.4248  130.9485   57.0176 H   0  0  0  0  0  0  0  0  0  0  0  0
  1  2  1  0
  2  3  1  0
  3  4  1  0
  4  5  2  0
  4  6  1  0
  6  7  2  0
  7  8  1  0
  8  9  2  0
  9 10  1  0
 10 11  1  0
 11 12  2  0
 11 13  1  0
 13 14  1  0
 14 15  1  0
 15 16  2  0
 16 17  1  0
 17 18  1  0
 18 19  2  0
 19 20  1  0
 20 21  2  0
 21 22  1  0
 22 23  2  0
 17 24  2  0
 24 25  1  0
 25 26  1  0
 26 27  1  0
 26 28  1  0
 26 29  1  0
 25 30  2  0
 30 31  1  0
 31 32  1  0
  9 33  1  0
 33 34  2  0
 34  6  1  0
 31 13  2  0
 30 15  1  0
 23 18  1  0
  1 35  1  0
  1 36  1  0
  1 37  1  0
  2 38  1  0
  2 39  1  0
  7 40  1  0
  8 41  1  0
 10 42  1  0
 19 43  1  0
 20 44  1  0
 21 45  1  0
 22 46  1  0
 23 47  1  0
 24 48  1  0
 32 49  1  0
 32 50  1  0
 33 51  1  0
 34 52  1  0
M  END
>  <Binding energies>  (1) 
[-7.72]

>  <Ligand effiencies>  (1) 
[-0.20864864864864865]

>  <Interactions>  (1) 
["V-B:GLU:543:C:9870, V-A:HIS:456:CE1:4064, V-A:ASP:366:CG:3208, H-A:GLU:543:OE2:4905, V-A:ARG:545:CZ:4921, V-B:GLU:543:CB:9874, V-A:GLU:543:CD:4903, V-A:LEU:363:CD1:3184, V-A:PRO:540:N:4879, V-A:TYR:539:CE1:4870, V-A:TYR:539:CD1:4868, V-A:PRO:540:CA:4878, V-A:PRO:540:CD:4882, V-A:ILE:538:CA:4855, H-A:ASP:366:OD2:3210, V-A:TYR:531:CE2:4788, V-A:PRO:540:CB:4880, V-A:TYR:484:CZ:4342, V-A:HIS:456:CD2:4063, V-B:ARG:545:CG:9890, V-B:HIS:456:CE1:9037, H-A:TYR:539:N:4865, V-A:ILE:538:CG2:4858, V-A:ILE:538:CD1:4860, V-A:VAL:537:C:4845, V-B:HIS:456:CD2:9035, V-B:GLY:544:C:9880, H-A:ASP:366:OD1:3209, V-B:ARG:545:CA:9887"]

$$$$
4cb_Grossjean_2025
     RDKit          3D

 49 52  0  0  0  0  0  0  0  0999 V2000
  129.7310  132.7700   54.4220 C   0  0  0  0  0  0  0  0  0  0  0  0
  130.6940  133.2660   55.3420 O   0  0  0  0  0  0  0  0  0  0  0  0
  131.7700  132.5190   55.6980 C   0  0  0  0  0  0  0  0  0  0  0  0
  132.7980  132.4360   55.0180 O   0  0  0  0  0  0  0  0  0  0  0  0
  131.5870  131.8010   57.0050 C   0  0  0  0  0  0  0  0  0  0  0  0
  130.2910  131.4990   57.4440 C   0  0  0  0  0  0  0  0  0  0  0  0
  130.0900  130.8270   58.6460 C   0  0  0  0  0  0  0  0  0  0  0  0
  131.1760  130.4500   59.4370 C   0  0  0  0  0  0  0  0  0  0  0  0
  130.8570  129.7630   60.6240 N   0  0  0  0  0  0  0  0  0  0  0  0
  129.8780  128.8600   60.8740 C   0  0  0  0  0  0  0  0  0  0  0  0
  129.0910  128.4400   60.0250 O   0  0  0  0  0  0  0  0  0  0  0  0
  129.8120  128.3750   62.2560 C   0  0  0  0  0  0  0  0  0  0  0  0
  128.5680  128.9780   63.3490 S   0  0  0  0  0  0  0  0  0  0  0  0
  129.1350  127.9440   64.6390 C   0  0  0  0  0  0  0  0  0  0  0  0
  128.5480  127.9360   65.8330 N   0  0  0  0  0  0  0  0  0  0  0  0
  129.0530  127.0910   66.7690 C   0  0  0  0  0  0  0  0  0  0  0  0
  128.3660  127.1010   68.1040 C   0  0  0  0  0  0  0  0  0  0  0  0
  129.1030  127.2590   69.2880 C   0  0  0  0  0  0  0  0  0  0  0  0
  128.4730  127.2660   70.5300 C   0  0  0  0  0  0  0  0  0  0  0  0
  127.0920  127.1130   70.6050 C   0  0  0  0  0  0  0  0  0  0  0  0
  126.3390  126.9520   69.4460 C   0  0  0  0  0  0  0  0  0  0  0  0
  126.9730  126.9440   68.2080 C   0  0  0  0  0  0  0  0  0  0  0  0
  130.1580  126.2740   66.5060 C   0  0  0  0  0  0  0  0  0  0  0  0
  130.7860  126.2770   65.2520 C   0  0  0  0  0  0  0  0  0  0  0  0
  131.9920  125.3550   65.0320 C   0  0  0  0  0  0  0  0  0  0  0  0
  132.5930  125.0000   66.1700 F   0  0  0  0  0  0  0  0  0  0  0  0
  131.5980  124.2360   64.4240 F   0  0  0  0  0  0  0  0  0  0  0  0
  132.9000  125.9710   64.2760 F   0  0  0  0  0  0  0  0  0  0  0  0
  130.2550  127.1480   64.2580 C   0  0  0  0  0  0  0  0  0  0  0  0
  130.6170  127.4120   62.8860 C   0  0  0  0  0  0  0  0  0  0  0  0
  131.6580  126.7770   62.2600 N   0  0  0  0  0  0  0  0  0  0  0  0
  132.4770  130.7450   59.0030 C   0  0  0  0  0  0  0  0  0  0  0  0
  132.6770  131.4150   57.8000 C   0  0  0  0  0  0  0  0  0  0  0  0
  128.8857  132.3346   54.9751 H   0  0  0  0  0  0  0  0  0  0  0  0
  129.3697  133.5942   53.7894 H   0  0  0  0  0  0  0  0  0  0  0  0
  130.1922  131.9973   53.7894 H   0  0  0  0  0  0  0  0  0  0  0  0
  129.4253  131.7955   56.8335 H   0  0  0  0  0  0  0  0  0  0  0  0
  129.0672  130.5912   58.9751 H   0  0  0  0  0  0  0  0  0  0  0  0
  131.4650  129.9790   61.4010 H   0  0  0  0  0  0  0  0  0  0  0  0
  130.1951  127.3792   69.2341 H   0  0  0  0  0  0  0  0  0  0  0  0
  129.0650  127.3920   71.4485 H   0  0  0  0  0  0  0  0  0  0  0  0
  126.5931  127.1194   71.5853 H   0  0  0  0  0  0  0  0  0  0  0  0
  125.2474  126.8316   69.5086 H   0  0  0  0  0  0  0  0  0  0  0  0
  126.3741  126.8126   67.2947 H   0  0  0  0  0  0  0  0  0  0  0  0
  130.5421  125.6157   67.2992 H   0  0  0  0  0  0  0  0  0  0  0  0
  132.1980  127.2250   61.5330 H   0  0  0  0  0  0  0  0  0  0  0  0
  131.9250  125.8340   62.5070 H   0  0  0  0  0  0  0  0  0  0  0  0
  133.3408  130.4460   59.6150 H   0  0  0  0  0  0  0  0  0  0  0  0
  133.7005  131.6445   57.4686 H   0  0  0  0  0  0  0  0  0  0  0  0
  1  2  1  0
  2  3  1  0
  3  4  2  0
  3  5  1  0
  5  6  2  0
  6  7  1  0
  7  8  2  0
  8  9  1  0
  9 10  1  0
 10 11  2  0
 10 12  1  0
 12 13  1  0
 13 14  1  0
 14 15  2  0
 15 16  1  0
 16 17  1  0
 17 18  2  0
 18 19  1  0
 19 20  2  0
 20 21  1  0
 21 22  2  0
 16 23  2  0
 23 24  1  0
 24 25  1  0
 25 26  1  0
 25 27  1  0
 25 28  1  0
 24 29  2  0
 29 30  1  0
 30 31  1  0
  8 32  1  0
 32 33  2  0
 33  5  1  0
 30 12  2  0
 29 14  1  0
 22 17  1  0
  1 34  1  0
  1 35  1  0
  1 36  1  0
  6 37  1  0
  7 38  1  0
  9 39  1  0
 18 40  1  0
 19 41  1  0
 20 42  1  0
 21 43  1  0
 22 44  1  0
 23 45  1  0
 31 46  1  0
 31 47  1  0
 32 48  1  0
 33 49  1  0
M  END
>  <Binding energies>  (1) 
[-7.29]

>  <Ligand effiencies>  (1) 
[-0.2025]

>  <Interactions>  (1) 
["V-B:GLU:543:C:9870, V-A:HIS:456:CE1:4064, V-A:ASP:366:CG:3208, H-A:GLU:543:OE2:4905, V-A:ARG:545:CZ:4921, V-B:GLU:543:CB:9874, V-A:GLU:543:CD:4903, V-A:LEU:363:CD1:3184, V-A:TYR:539:CE1:4870, V-A:TYR:539:CD1:4868, V-A:PRO:540:CG:4881, V-A:PRO:540:CD:4882, V-A:ILE:538:CA:4855, H-A:ASP:366:OD2:3210, V-A:PRO:540:CB:4880, V-A:TYR:484:CZ:4342, V-A:HIS:456:CD2:4063, V-B:ARG:545:CG:9890, V-B:HIS:456:CE1:9037, H-A:TYR:539:N:4865, V-A:ILE:538:CG2:4858, V-A:VAL:537:C:4845, V-B:HIS:456:CD2:9035, V-B:GLY:544:C:9880, H-A:ASP:366:OD1:3209, V-B:ARG:545:CA:9887"]

$$$$
4cc_Grossjean_2025
     RDKit          3D

 47 50  0  0  0  0  0  0  0  0999 V2000
  129.8040  118.1050   60.4040 C   0  0  0  0  0  0  0  0  0  0  0  0
  130.1750  119.4060   59.9600 O   0  0  0  0  0  0  0  0  0  0  0  0
  130.0030  120.4830   60.8080 C   0  0  0  0  0  0  0  0  0  0  0  0
  130.6390  120.4070   62.0470 C   0  0  0  0  0  0  0  0  0  0  0  0
  130.5260  121.4450   62.9680 C   0  0  0  0  0  0  0  0  0  0  0  0
  129.7610  122.5730   62.6640 C   0  0  0  0  0  0  0  0  0  0  0  0
  129.7180  123.5770   63.6500 N   0  0  0  0  0  0  0  0  0  0  0  0
  130.7210  124.0710   64.4150 C   0  0  0  0  0  0  0  0  0  0  0  0
  131.8960  123.7140   64.3230 O   0  0  0  0  0  0  0  0  0  0  0  0
  130.3240  125.0900   65.3920 C   0  0  0  0  0  0  0  0  0  0  0  0
  130.6290  124.8390   67.1090 S   0  0  0  0  0  0  0  0  0  0  0  0
  129.9210  126.3870   67.5060 C   0  0  0  0  0  0  0  0  0  0  0  0
  129.8490  126.8160   68.7640 N   0  0  0  0  0  0  0  0  0  0  0  0
  129.2910  128.0360   68.9740 C   0  0  0  0  0  0  0  0  0  0  0  0
  129.2210  128.4920   70.4020 C   0  0  0  0  0  0  0  0  0  0  0  0
  130.3310  129.0910   71.0200 C   0  0  0  0  0  0  0  0  0  0  0  0
  130.2740  129.5150   72.3460 C   0  0  0  0  0  0  0  0  0  0  0  0
  129.1020  129.3440   73.0750 C   0  0  0  0  0  0  0  0  0  0  0  0
  127.9890  128.7500   72.4880 C   0  0  0  0  0  0  0  0  0  0  0  0
  128.0510  128.3270   71.1630 C   0  0  0  0  0  0  0  0  0  0  0  0
  128.7940  128.8120   67.9220 C   0  0  0  0  0  0  0  0  0  0  0  0
  128.8630  128.3680   66.5910 C   0  0  0  0  0  0  0  0  0  0  0  0
  128.3030  129.2730   65.4880 C   0  0  0  0  0  0  0  0  0  0  0  0
  129.1050  129.3580   64.4230 F   0  0  0  0  0  0  0  0  0  0  0  0
  127.1320  128.7980   65.0660 F   0  0  0  0  0  0  0  0  0  0  0  0
  128.1330  130.5080   65.9590 F   0  0  0  0  0  0  0  0  0  0  0  0
  129.4540  127.0940   66.3590 C   0  0  0  0  0  0  0  0  0  0  0  0
  129.6950  126.3240   65.1630 C   0  0  0  0  0  0  0  0  0  0  0  0
  129.3400  126.7660   63.9140 N   0  0  0  0  0  0  0  0  0  0  0  0
  129.1290  122.6630   61.4150 C   0  0  0  0  0  0  0  0  0  0  0  0
  129.2460  121.6230   60.4970 C   0  0  0  0  0  0  0  0  0  0  0  0
  129.7971  118.0810   61.5037 H   0  0  0  0  0  0  0  0  0  0  0  0
  128.8004  117.8608   60.0256 H   0  0  0  0  0  0  0  0  0  0  0  0
  130.5278  117.3682   60.0256 H   0  0  0  0  0  0  0  0  0  0  0  0
  131.2359  119.5180   62.2990 H   0  0  0  0  0  0  0  0  0  0  0  0
  131.0407  121.3764   63.9377 H   0  0  0  0  0  0  0  0  0  0  0  0
  128.8100  124.0010   63.7750 H   0  0  0  0  0  0  0  0  0  0  0  0
  131.2605  129.2276   70.4478 H   0  0  0  0  0  0  0  0  0  0  0  0
  131.1524  129.9831   72.8144 H   0  0  0  0  0  0  0  0  0  0  0  0
  129.0546  129.6802   74.1213 H   0  0  0  0  0  0  0  0  0  0  0  0
  127.0643  128.6152   73.0682 H   0  0  0  0  0  0  0  0  0  0  0  0
  127.1694  127.8557   70.7040 H   0  0  0  0  0  0  0  0  0  0  0  0
  128.3399  129.7896   68.1412 H   0  0  0  0  0  0  0  0  0  0  0  0
  128.6740  126.2680   63.3400 H   0  0  0  0  0  0  0  0  0  0  0  0
  129.7370  127.6090   63.5230 H   0  0  0  0  0  0  0  0  0  0  0  0
  128.5401  123.5566   61.1605 H   0  0  0  0  0  0  0  0  0  0  0  0
  128.7420  121.6953   59.5219 H   0  0  0  0  0  0  0  0  0  0  0  0
  1  2  1  0
  2  3  1  0
  3  4  2  0
  4  5  1  0
  5  6  2  0
  6  7  1  0
  7  8  1  0
  8  9  2  0
  8 10  1  0
 10 11  1  0
 11 12  1  0
 12 13  2  0
 13 14  1  0
 14 15  1  0
 15 16  2  0
 16 17  1  0
 17 18  2  0
 18 19  1  0
 19 20  2  0
 14 21  2  0
 21 22  1  0
 22 23  1  0
 23 24  1  0
 23 25  1  0
 23 26  1  0
 22 27  2  0
 27 28  1  0
 28 29  1  0
  6 30  1  0
 30 31  2  0
 31  3  1  0
 28 10  2  0
 27 12  1  0
 20 15  1  0
  1 32  1  0
  1 33  1  0
  1 34  1  0
  4 35  1  0
  5 36  1  0
  7 37  1  0
 16 38  1  0
 17 39  1  0
 18 40  1  0
 19 41  1  0
 20 42  1  0
 21 43  1  0
 29 44  1  0
 29 45  1  0
 30 46  1  0
 31 47  1  0
M  END
>  <Binding energies>  (1) 
[-7.16]

>  <Ligand effiencies>  (1) 
[-0.21058823529411766]

>  <Interactions>  (1) 
["V-B:ALA:541:CB:9860, V-A:TRP:381:CH2:3367, V-B:TYR:539:CD2:9842, V-B:TYR:539:C:9835, V-A:HIS:456:CE1:4064, H-A:GLU:543:OE2:4905, H-A:TYR:484:OH:4343, H-A:GLU:543:OE1:4904, V-B:GLU:543:CD:9876, V-B:GLU:543:CG:9875, H-A:HIS:456:NE2:4065, V-A:GLU:543:CD:4903, H-B:GLU:543:OE2:9878, V-A:GLU:543:CB:4901, V-A:TYR:484:CZ:4342, V-B:HIS:456:CE1:9037, V-A:TRP:381:CZ3:3366, V-A:LEU:475:CD2:4254, V-A:GLU:543:CG:4902, V-A:TRP:381:CZ2:3365, V-A:GLU:543:C:4897, V-B:HIS:456:CD2:9035, V-A:LYS:547:CE:4945, V-B:TYR:484:CZ:9314, V-B:TYR:484:CE1:9312, V-A:PRO:482:CG:4322, V-A:PRO:482:CB:4321, V-A:TYR:484:CE1:4340, V-A:LEU:475:CD1:4253, V-A:TRP:381:CE3:3363, V-A:TRP:381:CE2:3362, V-A:TRP:381:CD2:3360, V-A:GLY:544:CA:4909, V-A:GLY:544:C:4907, V-B:HIS:456:CG:9033"]

$$$$
4cd_Grossjean_2025
     RDKit          3D

 43 46  0  0  0  0  0  0  0  0999 V2000
  129.3760  126.5150   63.6940 N   0  0  0  0  0  0  0  0  0  0  0  0
  129.6200  126.0090   64.9460 C   0  0  0  0  0  0  0  0  0  0  0  0
  130.0540  124.6930   65.1730 C   0  0  0  0  0  0  0  0  0  0  0  0
  130.3070  123.6330   64.1930 C   0  0  0  0  0  0  0  0  0  0  0  0
  131.0030  122.6610   64.4850 O   0  0  0  0  0  0  0  0  0  0  0  0
  129.7190  123.8080   62.9840 N   0  0  0  0  0  0  0  0  0  0  0  0
  129.8010  123.0150   61.8240 C   0  0  0  0  0  0  0  0  0  0  0  0
  129.3080  123.5930   60.6510 C   0  0  0  0  0  0  0  0  0  0  0  0
  129.3560  122.8930   59.4490 C   0  0  0  0  0  0  0  0  0  0  0  0
  129.9060  121.6150   59.4170 C   0  0  0  0  0  0  0  0  0  0  0  0
  130.4140  121.0320   60.5750 C   0  0  0  0  0  0  0  0  0  0  0  0
  130.3660  121.7290   61.7800 C   0  0  0  0  0  0  0  0  0  0  0  0
  130.2790  124.3860   66.8940 S   0  0  0  0  0  0  0  0  0  0  0  0
  129.7840  126.0120   67.2950 C   0  0  0  0  0  0  0  0  0  0  0  0
  129.7360  126.4330   68.5570 N   0  0  0  0  0  0  0  0  0  0  0  0
  129.3250  127.7100   68.7720 C   0  0  0  0  0  0  0  0  0  0  0  0
  129.2790  128.1540   70.2050 C   0  0  0  0  0  0  0  0  0  0  0  0
  128.1120  127.9940   70.9690 C   0  0  0  0  0  0  0  0  0  0  0  0
  128.0620  128.4030   72.2990 C   0  0  0  0  0  0  0  0  0  0  0  0
  129.1830  128.9800   72.8860 C   0  0  0  0  0  0  0  0  0  0  0  0
  130.3530  129.1480   72.1520 C   0  0  0  0  0  0  0  0  0  0  0  0
  130.3990  128.7350   70.8240 C   0  0  0  0  0  0  0  0  0  0  0  0
  128.9830  128.5630   67.7180 C   0  0  0  0  0  0  0  0  0  0  0  0
  129.0340  128.1310   66.3830 C   0  0  0  0  0  0  0  0  0  0  0  0
  128.6430  129.1180   65.2770 C   0  0  0  0  0  0  0  0  0  0  0  0
  129.4330  129.0430   64.2040 F   0  0  0  0  0  0  0  0  0  0  0  0
  127.3970  128.8720   64.8730 F   0  0  0  0  0  0  0  0  0  0  0  0
  128.7170  130.3660   65.7400 F   0  0  0  0  0  0  0  0  0  0  0  0
  129.4520  126.7900   66.1470 C   0  0  0  0  0  0  0  0  0  0  0  0
  129.9460  127.2450   63.2920 H   0  0  0  0  0  0  0  0  0  0  0  0
  128.6140  126.1690   63.1280 H   0  0  0  0  0  0  0  0  0  0  0  0
  129.1210  124.6160   62.8930 H   0  0  0  0  0  0  0  0  0  0  0  0
  128.8800  124.6060   60.6778 H   0  0  0  0  0  0  0  0  0  0  0  0
  128.9610  123.3478   58.5286 H   0  0  0  0  0  0  0  0  0  0  0  0
  129.9397  121.0601   58.4678 H   0  0  0  0  0  0  0  0  0  0  0  0
  130.8521  120.0237   60.5383 H   0  0  0  0  0  0  0  0  0  0  0  0
  130.7699  121.2734   62.6961 H   0  0  0  0  0  0  0  0  0  0  0  0
  127.2227  127.5381   70.5094 H   0  0  0  0  0  0  0  0  0  0  0  0
  127.1394  128.2703   72.8832 H   0  0  0  0  0  0  0  0  0  0  0  0
  129.1445  129.3053   73.9361 H   0  0  0  0  0  0  0  0  0  0  0  0
  131.2376  129.6052   72.6194 H   0  0  0  0  0  0  0  0  0  0  0  0
  131.3276  128.8655   70.2490 H   0  0  0  0  0  0  0  0  0  0  0  0
  128.6676  129.5933   67.9393 H   0  0  0  0  0  0  0  0  0  0  0  0
  1  2  1  0
  2  3  2  0
  3  4  1  0
  4  5  2  0
  4  6  1  0
  6  7  1  0
  7  8  2  0
  8  9  1  0
  9 10  2  0
 10 11  1  0
 11 12  2  0
  3 13  1  0
 13 14  1  0
 14 15  2  0
 15 16  1  0
 16 17  1  0
 17 18  2  0
 18 19  1  0
 19 20  2  0
 20 21  1  0
 21 22  2  0
 16 23  2  0
 23 24  1  0
 24 25  1  0
 25 26  1  0
 25 27  1  0
 25 28  1  0
 24 29  2  0
 29  2  1  0
 12  7  1  0
 29 14  1  0
 22 17  1  0
  1 30  1  0
  1 31  1  0
  6 32  1  0
  8 33  1  0
  9 34  1  0
 10 35  1  0
 11 36  1  0
 12 37  1  0
 18 38  1  0
 19 39  1  0
 20 40  1  0
 21 41  1  0
 22 42  1  0
 23 43  1  0
M  END
>  <Binding energies>  (1) 
[-7.14]

>  <Ligand effiencies>  (1) 
[-0.223125]

>  <Interactions>  (1) 
["V-B:ALA:541:CB:9860, V-B:TYR:539:CE2:9844, V-B:TYR:539:CD2:9842, V-B:TYR:539:C:9835, V-A:HIS:456:CE1:4064, H-A:GLU:543:OE2:4905, H-A:TYR:484:OH:4343, H-A:GLU:543:OE1:4904, V-B:GLU:543:CD:9876, V-B:GLU:543:CG:9875, H-A:HIS:456:NE2:4065, V-B:GLU:543:CB:9874, V-A:GLU:543:CD:4903, H-B:GLU:543:OE2:9878, V-A:GLU:543:CB:4901, V-A:TYR:484:CZ:4342, V-B:HIS:456:CE1:9037, V-A:GLU:543:CG:4902, V-A:GLU:543:C:4897, V-B:HIS:456:CD2:9035, V-A:LYS:547:CE:4945, V-A:TYR:484:CE1:4340, V-A:GLY:544:C:4907"]

$$$$
4ce_Grossjean_2025
     RDKit          3D

 45 48  0  0  0  0  0  0  0  0999 V2000
  129.9970  119.5010   60.9680 C   0  0  0  0  0  0  0  0  0  0  0  0
  129.9120  121.0050   60.7900 C   0  0  0  0  0  0  0  0  0  0  0  0
  129.8780  121.5900   59.5220 C   0  0  0  0  0  0  0  0  0  0  0  0
  129.7910  122.9800   59.4340 C   0  0  0  0  0  0  0  0  0  0  0  0
  129.7400  123.7430   60.6020 C   0  0  0  0  0  0  0  0  0  0  0  0
  129.7840  123.0930   61.8410 C   0  0  0  0  0  0  0  0  0  0  0  0
  129.7040  123.9140   62.9800 N   0  0  0  0  0  0  0  0  0  0  0  0
  130.2800  123.7370   64.1960 C   0  0  0  0  0  0  0  0  0  0  0  0
  131.0070  122.7820   64.4770 O   0  0  0  0  0  0  0  0  0  0  0  0
  129.9840  124.7710   65.1890 C   0  0  0  0  0  0  0  0  0  0  0  0
  130.2570  124.4600   66.9020 S   0  0  0  0  0  0  0  0  0  0  0  0
  129.7390  126.0750   67.3240 C   0  0  0  0  0  0  0  0  0  0  0  0
  129.7230  126.4910   68.5880 N   0  0  0  0  0  0  0  0  0  0  0  0
  129.3200  127.7680   68.8160 C   0  0  0  0  0  0  0  0  0  0  0  0
  129.3180  128.2070   70.2510 C   0  0  0  0  0  0  0  0  0  0  0  0
  130.4740  128.7520   70.8340 C   0  0  0  0  0  0  0  0  0  0  0  0
  130.4820  129.1550   72.1670 C   0  0  0  0  0  0  0  0  0  0  0  0
  129.3310  129.0210   72.9360 C   0  0  0  0  0  0  0  0  0  0  0  0
  128.1740  128.4840   72.3830 C   0  0  0  0  0  0  0  0  0  0  0  0
  128.1700  128.0790   71.0500 C   0  0  0  0  0  0  0  0  0  0  0  0
  128.9140  128.6130   67.7780 C   0  0  0  0  0  0  0  0  0  0  0  0
  128.9220  128.1820   66.4420 C   0  0  0  0  0  0  0  0  0  0  0  0
  128.4670  129.1600   65.3530 C   0  0  0  0  0  0  0  0  0  0  0  0
  129.2290  129.1180   64.2590 F   0  0  0  0  0  0  0  0  0  0  0  0
  127.2190  128.8730   64.9820 F   0  0  0  0  0  0  0  0  0  0  0  0
  128.5100  130.4070   65.8220 F   0  0  0  0  0  0  0  0  0  0  0  0
  129.3590  126.8500   66.1890 C   0  0  0  0  0  0  0  0  0  0  0  0
  129.5070  126.0770   64.9800 C   0  0  0  0  0  0  0  0  0  0  0  0
  129.2100  126.5770   63.7390 N   0  0  0  0  0  0  0  0  0  0  0  0
  129.8640  121.7340   61.9350 N   0  0  0  0  0  0  0  0  0  0  0  0
  130.0107  119.2590   62.0410 H   0  0  0  0  0  0  0  0  0  0  0  0
  129.1243  119.0260   60.4961 H   0  0  0  0  0  0  0  0  0  0  0  0
  130.9177  119.1274   60.4961 H   0  0  0  0  0  0  0  0  0  0  0  0
  129.9188  120.9698   58.6144 H   0  0  0  0  0  0  0  0  0  0  0  0
  129.7628  123.4715   58.4503 H   0  0  0  0  0  0  0  0  0  0  0  0
  129.6663  124.8393   60.5494 H   0  0  0  0  0  0  0  0  0  0  0  0
  129.1770  124.7650   62.8520 H   0  0  0  0  0  0  0  0  0  0  0  0
  131.3860  128.8620   70.2289 H   0  0  0  0  0  0  0  0  0  0  0  0
  131.3956  129.5779   72.6102 H   0  0  0  0  0  0  0  0  0  0  0  0
  129.3361  129.3418   73.9882 H   0  0  0  0  0  0  0  0  0  0  0  0
  127.2660  128.3794   72.9951 H   0  0  0  0  0  0  0  0  0  0  0  0
  127.2535  127.6523   70.6165 H   0  0  0  0  0  0  0  0  0  0  0  0
  128.5820  129.6350   68.0131 H   0  0  0  0  0  0  0  0  0  0  0  0
  129.7560  127.3130   63.3130 H   0  0  0  0  0  0  0  0  0  0  0  0
  128.4280  126.2250   63.2040 H   0  0  0  0  0  0  0  0  0  0  0  0
  1  2  1  0
  2  3  2  0
  3  4  1  0
  4  5  2  0
  5  6  1  0
  6  7  1  0
  7  8  1  0
  8  9  2  0
  8 10  1  0
 10 11  1  0
 11 12  1  0
 12 13  2  0
 13 14  1  0
 14 15  1  0
 15 16  2  0
 16 17  1  0
 17 18  2  0
 18 19  1  0
 19 20  2  0
 14 21  2  0
 21 22  1  0
 22 23  1  0
 23 24  1  0
 23 25  1  0
 23 26  1  0
 22 27  2  0
 27 28  1  0
 28 29  1  0
  6 30  2  0
 30  2  1  0
 28 10  2  0
 27 12  1  0
 20 15  1  0
  1 31  1  0
  1 32  1  0
  1 33  1  0
  3 34  1  0
  4 35  1  0
  5 36  1  0
  7 37  1  0
 16 38  1  0
 17 39  1  0
 18 40  1  0
 19 41  1  0
 20 42  1  0
 21 43  1  0
 29 44  1  0
 29 45  1  0
M  END
>  <Binding energies>  (1) 
[-7.49]

>  <Ligand effiencies>  (1) 
[-0.226969696969697]

>  <Interactions>  (1) 
["V-B:ALA:541:CB:9860, V-B:TYR:539:CE2:9844, V-B:TYR:539:CD2:9842, V-B:TYR:539:C:9835, V-A:HIS:456:CE1:4064, H-A:GLU:543:OE2:4905, H-A:TYR:484:OH:4343, H-A:GLU:543:OE1:4904, V-B:GLU:543:CD:9876, V-B:GLU:543:CG:9875, H-A:HIS:456:NE2:4065, V-B:GLU:543:CB:9874, V-A:GLU:543:CD:4903, H-B:GLU:543:OE2:9878, V-A:GLU:543:CB:4901, V-A:TYR:484:CZ:4342, V-B:HIS:456:CE1:9037, V-A:LEU:475:CD2:4254, V-A:GLU:543:CG:4902, V-A:GLU:543:C:4897, V-B:HIS:456:CD2:9035, V-A:LYS:547:CE:4945, V-B:TYR:484:CZ:9314, V-B:TYR:484:CE1:9312, V-A:TYR:484:CE1:4340, H-B:GLU:543:OE1:9877, V-A:GLY:544:CA:4909, V-A:GLY:544:C:4907"]

$$$$
4cf_Grossjean_2025
     RDKit          3D

 42 45  0  0  0  0  0  0  0  0999 V2000
  129.3670  126.5070   63.6670 N   0  0  0  0  0  0  0  0  0  0  0  0
  129.6080  126.0150   64.9240 C   0  0  0  0  0  0  0  0  0  0  0  0
  130.0450  124.7020   65.1650 C   0  0  0  0  0  0  0  0  0  0  0  0
  130.2880  123.6280   64.1980 C   0  0  0  0  0  0  0  0  0  0  0  0
  130.9810  122.6550   64.5020 O   0  0  0  0  0  0  0  0  0  0  0  0
  129.6950  123.7880   62.9900 N   0  0  0  0  0  0  0  0  0  0  0  0
  129.7650  122.9790   61.8400 C   0  0  0  0  0  0  0  0  0  0  0  0
  130.0460  121.6000   61.8280 C   0  0  0  0  0  0  0  0  0  0  0  0
  130.1000  120.9170   60.6110 C   0  0  0  0  0  0  0  0  0  0  0  0
  129.8740  121.6300   59.4330 C   0  0  0  0  0  0  0  0  0  0  0  0
  129.6090  122.9610   59.4170 N   0  0  0  0  0  0  0  0  0  0  0  0
  129.5610  123.6110   60.6080 C   0  0  0  0  0  0  0  0  0  0  0  0
  130.2600  124.4090   66.8890 S   0  0  0  0  0  0  0  0  0  0  0  0
  129.7570  126.0380   67.2740 C   0  0  0  0  0  0  0  0  0  0  0  0
  129.6960  126.4680   68.5330 N   0  0  0  0  0  0  0  0  0  0  0  0
  129.2770  127.7450   68.7330 C   0  0  0  0  0  0  0  0  0  0  0  0
  129.2110  128.1990   70.1620 C   0  0  0  0  0  0  0  0  0  0  0  0
  130.3050  128.8420   70.7620 C   0  0  0  0  0  0  0  0  0  0  0  0
  130.2520  129.2670   72.0870 C   0  0  0  0  0  0  0  0  0  0  0  0
  129.0970  129.0560   72.8320 C   0  0  0  0  0  0  0  0  0  0  0  0
  127.9960  128.4240   72.2630 C   0  0  0  0  0  0  0  0  0  0  0  0
  128.0550  128.0010   70.9380 C   0  0  0  0  0  0  0  0  0  0  0  0
  128.9460  128.5900   67.6700 C   0  0  0  0  0  0  0  0  0  0  0  0
  129.0110  128.1490   66.3390 C   0  0  0  0  0  0  0  0  0  0  0  0
  128.6290  129.1260   65.2220 C   0  0  0  0  0  0  0  0  0  0  0  0
  129.4330  129.0480   64.1590 F   0  0  0  0  0  0  0  0  0  0  0  0
  127.3900  128.8710   64.8040 F   0  0  0  0  0  0  0  0  0  0  0  0
  128.6920  130.3780   65.6760 F   0  0  0  0  0  0  0  0  0  0  0  0
  129.4320  126.8050   66.1170 C   0  0  0  0  0  0  0  0  0  0  0  0
  128.6270  126.1430   63.0830 H   0  0  0  0  0  0  0  0  0  0  0  0
  129.9240  127.2580   63.2810 H   0  0  0  0  0  0  0  0  0  0  0  0
  129.1090  124.6050   62.8890 H   0  0  0  0  0  0  0  0  0  0  0  0
  130.2221  121.0632   62.7718 H   0  0  0  0  0  0  0  0  0  0  0  0
  130.3163  119.8389   60.5817 H   0  0  0  0  0  0  0  0  0  0  0  0
  129.9123  121.0897   58.4756 H   0  0  0  0  0  0  0  0  0  0  0  0
  129.3508  124.6907   60.6045 H   0  0  0  0  0  0  0  0  0  0  0  0
  131.2198  129.0131   70.1755 H   0  0  0  0  0  0  0  0  0  0  0  0
  131.1196  129.7672   72.5421 H   0  0  0  0  0  0  0  0  0  0  0  0
  129.0536  129.3912   73.8788 H   0  0  0  0  0  0  0  0  0  0  0  0
  127.0845  128.2595   72.8564 H   0  0  0  0  0  0  0  0  0  0  0  0
  127.1822  127.5032   70.4902 H   0  0  0  0  0  0  0  0  0  0  0  0
  128.6281  129.6217   67.8808 H   0  0  0  0  0  0  0  0  0  0  0  0
  1  2  1  0
  2  3  2  0
  3  4  1  0
  4  5  2  0
  4  6  1  0
  6  7  1  0
  7  8  2  0
  8  9  1  0
  9 10  2  0
 10 11  1  0
 11 12  2  0
  3 13  1  0
 13 14  1  0
 14 15  2  0
 15 16  1  0
 16 17  1  0
 17 18  2  0
 18 19  1  0
 19 20  2  0
 20 21  1  0
 21 22  2  0
 16 23  2  0
 23 24  1  0
 24 25  1  0
 25 26  1  0
 25 27  1  0
 25 28  1  0
 24 29  2  0
 29  2  1  0
 12  7  1  0
 29 14  1  0
 22 17  1  0
  1 30  1  0
  1 31  1  0
  6 32  1  0
  8 33  1  0
  9 34  1  0
 10 35  1  0
 12 36  1  0
 18 37  1  0
 19 38  1  0
 20 39  1  0
 21 40  1  0
 22 41  1  0
 23 42  1  0
M  END
>  <Binding energies>  (1) 
[-6.88]

>  <Ligand effiencies>  (1) 
[-0.215]

>  <Interactions>  (1) 
["V-B:ALA:541:CB:9860, V-B:TYR:539:CE2:9844, V-B:TYR:539:CD2:9842, V-B:TYR:539:C:9835, V-A:HIS:456:CE1:4064, H-A:GLU:543:OE2:4905, H-A:TYR:484:OH:4343, H-A:GLU:543:OE1:4904, V-B:GLU:543:CD:9876, V-B:GLU:543:CG:9875, H-A:HIS:456:NE2:4065, V-B:GLU:543:CB:9874, V-A:GLU:543:CD:4903, H-B:GLU:543:OE2:9878, V-A:GLU:543:CB:4901, V-A:TYR:484:CZ:4342, V-B:HIS:456:CE1:9037, V-A:GLU:543:CG:4902, V-A:GLU:543:C:4897, V-B:HIS:456:CD2:9035, V-A:LYS:547:CE:4945, V-A:TYR:484:CE1:4340, V-A:GLY:544:C:4907"]

$$$$
4cg_Grossjean_2025
     RDKit          3D

 46 49  0  0  0  0  0  0  0  0999 V2000
  129.2990  126.5000   63.6330 N   0  0  0  0  0  0  0  0  0  0  0  0
  129.5510  125.9930   64.8830 C   0  0  0  0  0  0  0  0  0  0  0  0
  129.9360  124.6640   65.1090 C   0  0  0  0  0  0  0  0  0  0  0  0
  130.1860  123.6080   64.1290 C   0  0  0  0  0  0  0  0  0  0  0  0
  130.9980  122.7070   64.3500 O   0  0  0  0  0  0  0  0  0  0  0  0
  129.5090  123.7060   62.9660 N   0  0  0  0  0  0  0  0  0  0  0  0
  129.5850  122.7560   61.8580 C   0  0  0  0  0  0  0  0  0  0  0  0
  128.5440  123.0050   60.7720 C   0  0  0  0  0  0  0  0  0  0  0  0
  128.8490  122.7190   59.4390 C   0  0  0  0  0  0  0  0  0  0  0  0
  127.8900  122.9150   58.4480 C   0  0  0  0  0  0  0  0  0  0  0  0
  126.6270  123.3880   58.7960 C   0  0  0  0  0  0  0  0  0  0  0  0
  126.3110  123.6600   60.1260 C   0  0  0  0  0  0  0  0  0  0  0  0
  127.2690  123.4620   61.1160 C   0  0  0  0  0  0  0  0  0  0  0  0
  130.1970  124.3540   66.8230 S   0  0  0  0  0  0  0  0  0  0  0  0
  129.7680  126.0000   67.2280 C   0  0  0  0  0  0  0  0  0  0  0  0
  129.7700  126.4270   68.4870 N   0  0  0  0  0  0  0  0  0  0  0  0
  129.4260  127.7240   68.7050 C   0  0  0  0  0  0  0  0  0  0  0  0
  129.4370  128.1760   70.1380 C   0  0  0  0  0  0  0  0  0  0  0  0
  128.2970  128.0340   70.9470 C   0  0  0  0  0  0  0  0  0  0  0  0
  128.3020  128.4520   72.2740 C   0  0  0  0  0  0  0  0  0  0  0  0
  129.4500  129.0220   72.8150 C   0  0  0  0  0  0  0  0  0  0  0  0
  130.5910  129.1780   72.0360 C   0  0  0  0  0  0  0  0  0  0  0  0
  130.5820  128.7580   70.7090 C   0  0  0  0  0  0  0  0  0  0  0  0
  129.0640  128.5780   67.6570 C   0  0  0  0  0  0  0  0  0  0  0  0
  129.0580  128.1370   66.3250 C   0  0  0  0  0  0  0  0  0  0  0  0
  128.6510  129.1250   65.2260 C   0  0  0  0  0  0  0  0  0  0  0  0
  129.4210  129.0460   64.1390 F   0  0  0  0  0  0  0  0  0  0  0  0
  127.3960  128.8820   64.8450 F   0  0  0  0  0  0  0  0  0  0  0  0
  128.7370  130.3720   65.6860 F   0  0  0  0  0  0  0  0  0  0  0  0
  129.4310  126.7830   66.0840 C   0  0  0  0  0  0  0  0  0  0  0  0
  129.8610  127.2360   63.2310 H   0  0  0  0  0  0  0  0  0  0  0  0
  128.5420  126.1440   63.0650 H   0  0  0  0  0  0  0  0  0  0  0  0
  128.8070  124.4270   62.8840 H   0  0  0  0  0  0  0  0  0  0  0  0
  130.5849  122.8282   61.4052 H   0  0  0  0  0  0  0  0  0  0  0  0
  129.3869  121.7570   62.2737 H   0  0  0  0  0  0  0  0  0  0  0  0
  129.8462  122.3391   59.1721 H   0  0  0  0  0  0  0  0  0  0  0  0
  128.1288  122.6975   57.3965 H   0  0  0  0  0  0  0  0  0  0  0  0
  125.8711  123.5485   58.0131 H   0  0  0  0  0  0  0  0  0  0  0  0
  125.3095  124.0293   60.3918 H   0  0  0  0  0  0  0  0  0  0  0  0
  127.0227  123.6651   62.1686 H   0  0  0  0  0  0  0  0  0  0  0  0
  127.3860  127.5852   70.5244 H   0  0  0  0  0  0  0  0  0  0  0  0
  127.4010  128.3322   72.8935 H   0  0  0  0  0  0  0  0  0  0  0  0
  129.4550  129.3510   73.8646 H   0  0  0  0  0  0  0  0  0  0  0  0
  131.4963  129.6311   72.4662 H   0  0  0  0  0  0  0  0  0  0  0  0
  131.4869  128.8838   70.0963 H   0  0  0  0  0  0  0  0  0  0  0  0
  128.7784  129.6161   67.8821 H   0  0  0  0  0  0  0  0  0  0  0  0
  1  2  1  0
  2  3  2  0
  3  4  1  0
  4  5  2  0
  4  6  1  0
  6  7  1  0
  7  8  1  0
  8  9  2  0
  9 10  1  0
 10 11  2  0
 11 12  1  0
 12 13  2  0
  3 14  1  0
 14 15  1  0
 15 16  2  0
 16 17  1  0
 17 18  1  0
 18 19  2  0
 19 20  1  0
 20 21  2  0
 21 22  1  0
 22 23  2  0
 17 24  2  0
 24 25  1  0
 25 26  1  0
 26 27  1  0
 26 28  1  0
 26 29  1  0
 25 30  2  0
 30  2  1  0
 13  8  1  0
 30 15  1  0
 23 18  1  0
  1 31  1  0
  1 32  1  0
  6 33  1  0
  7 34  1  0
  7 35  1  0
  9 36  1  0
 10 37  1  0
 11 38  1  0
 12 39  1  0
 13 40  1  0
 19 41  1  0
 20 42  1  0
 21 43  1  0
 22 44  1  0
 23 45  1  0
 24 46  1  0
M  END
>  <Binding energies>  (1) 
[-7.36]

>  <Ligand effiencies>  (1) 
[-0.22303030303030305]

>  <Interactions>  (1) 
["V-B:ALA:541:CB:9860, V-B:PRO:540:CA:9851, V-B:PRO:540:N:9852, V-B:PRO:540:CB:9853, V-B:TYR:539:C:9835, V-A:HIS:456:CE1:4064, H-A:GLU:543:OE2:4905, H-A:TYR:484:OH:4343, H-A:GLU:543:OE1:4904, V-B:GLU:543:CD:9876, V-B:GLU:543:CG:9875, H-A:HIS:456:NE2:4065, V-B:GLU:543:CB:9874, V-A:GLU:543:CD:4903, H-B:GLU:543:OE2:9878, V-A:GLU:543:CB:4901, V-A:TYR:484:CZ:4342, V-B:HIS:456:CE1:9037, V-A:GLU:543:CG:4902, V-A:GLU:543:C:4897, V-B:HIS:456:CD2:9035, V-A:LYS:547:CE:4945, V-A:TYR:484:CE1:4340, V-A:GLY:544:CA:4909, V-A:GLY:544:C:4907"]

$$$$
4ch_Grossjean_2025
     RDKit          3D

 58 61  0  0  0  0  0  0  0  0999 V2000
  124.5860  123.5440   61.8830 C   0  0  0  0  0  0  0  0  0  0  0  0
  125.0500  123.8350   60.5690 O   0  0  0  0  0  0  0  0  0  0  0  0
  126.3360  123.4750   60.2090 C   0  0  0  0  0  0  0  0  0  0  0  0
  127.4040  123.3730   61.1150 C   0  0  0  0  0  0  0  0  0  0  0  0
  128.6780  123.0020   60.6810 C   0  0  0  0  0  0  0  0  0  0  0  0
  129.8310  122.9230   61.6750 C   0  0  0  0  0  0  0  0  0  0  0  0
  129.7090  123.8380   62.8110 N   0  0  0  0  0  0  0  0  0  0  0  0
  130.2760  123.6640   64.0230 C   0  0  0  0  0  0  0  0  0  0  0  0
  130.9960  122.6980   64.2850 O   0  0  0  0  0  0  0  0  0  0  0  0
  130.0170  124.7140   65.0080 C   0  0  0  0  0  0  0  0  0  0  0  0
  130.3090  124.4100   66.7180 S   0  0  0  0  0  0  0  0  0  0  0  0
  129.8190  126.0350   67.1350 C   0  0  0  0  0  0  0  0  0  0  0  0
  129.8130  126.4560   68.3970 N   0  0  0  0  0  0  0  0  0  0  0  0
  129.4220  127.7380   68.6230 C   0  0  0  0  0  0  0  0  0  0  0  0
  129.4210  128.1800   70.0590 C   0  0  0  0  0  0  0  0  0  0  0  0
  130.5640  128.7580   70.6340 C   0  0  0  0  0  0  0  0  0  0  0  0
  130.5700  129.1690   71.9650 C   0  0  0  0  0  0  0  0  0  0  0  0
  129.4280  129.0080   72.7410 C   0  0  0  0  0  0  0  0  0  0  0  0
  128.2830  128.4350   72.1980 C   0  0  0  0  0  0  0  0  0  0  0  0
  128.2830  128.0230   70.8680 C   0  0  0  0  0  0  0  0  0  0  0  0
  129.0230  128.5830   67.5830 C   0  0  0  0  0  0  0  0  0  0  0  0
  129.0240  128.1480   66.2480 C   0  0  0  0  0  0  0  0  0  0  0  0
  128.5750  129.1260   65.1570 C   0  0  0  0  0  0  0  0  0  0  0  0
  128.5720  130.3990   65.5620 F   0  0  0  0  0  0  0  0  0  0  0  0
  129.3940  129.0430   64.1100 F   0  0  0  0  0  0  0  0  0  0  0  0
  127.3340  128.8300   64.7680 F   0  0  0  0  0  0  0  0  0  0  0  0
  129.4450  126.8110   65.9980 C   0  0  0  0  0  0  0  0  0  0  0  0
  129.5800  126.0300   64.7920 C   0  0  0  0  0  0  0  0  0  0  0  0
  129.2950  126.5300   63.5470 N   0  0  0  0  0  0  0  0  0  0  0  0
  128.8960  122.7470   59.3270 C   0  0  0  0  0  0  0  0  0  0  0  0
  127.8470  122.8430   58.3990 C   0  0  0  0  0  0  0  0  0  0  0  0
  127.9910  122.6020   57.0440 O   0  0  0  0  0  0  0  0  0  0  0  0
  128.7760  123.4910   56.2560 C   0  0  0  0  0  0  0  0  0  0  0  0
  126.5700  123.2020   58.8540 C   0  0  0  0  0  0  0  0  0  0  0  0
  125.5380  123.3140   57.9540 O   0  0  0  0  0  0  0  0  0  0  0  0
  125.0640  124.6420   57.7800 C   0  0  0  0  0  0  0  0  0  0  0  0
  125.2775  123.9777   62.6204 H   0  0  0  0  0  0  0  0  0  0  0  0
  123.5838  123.9756   62.0219 H   0  0  0  0  0  0  0  0  0  0  0  0
  124.5382  122.4539   62.0219 H   0  0  0  0  0  0  0  0  0  0  0  0
  127.2346  123.5882   62.1804 H   0  0  0  0  0  0  0  0  0  0  0  0
  129.8811  121.8953   62.0639 H   0  0  0  0  0  0  0  0  0  0  0  0
  130.7393  123.2173   61.1288 H   0  0  0  0  0  0  0  0  0  0  0  0
  129.0880  124.6240   62.6830 H   0  0  0  0  0  0  0  0  0  0  0  0
  131.4697  128.8885   70.0235 H   0  0  0  0  0  0  0  0  0  0  0  0
  131.4745  129.6190   72.4001 H   0  0  0  0  0  0  0  0  0  0  0  0
  129.4299  129.3358   73.7910 H   0  0  0  0  0  0  0  0  0  0  0  0
  127.3820  128.3079   72.8161 H   0  0  0  0  0  0  0  0  0  0  0  0
  127.3766  127.5668   70.4434 H   0  0  0  0  0  0  0  0  0  0  0  0
  128.7019  129.6091   67.8153 H   0  0  0  0  0  0  0  0  0  0  0  0
  128.5340  126.1700   62.9870 H   0  0  0  0  0  0  0  0  0  0  0  0
  129.8370  127.2840   63.1470 H   0  0  0  0  0  0  0  0  0  0  0  0
  129.9024  122.4672   58.9821 H   0  0  0  0  0  0  0  0  0  0  0  0
  129.3580  124.1501   56.9169 H   0  0  0  0  0  0  0  0  0  0  0  0
  129.4614  122.9103   55.6212 H   0  0  0  0  0  0  0  0  0  0  0  0
  128.1150  124.0993   55.6212 H   0  0  0  0  0  0  0  0  0  0  0  0
  124.8990  125.1043   58.7644 H   0  0  0  0  0  0  0  0  0  0  0  0
  125.8089  125.2268   57.2205 H   0  0  0  0  0  0  0  0  0  0  0  0
  124.1171  124.6230   57.2205 H   0  0  0  0  0  0  0  0  0  0  0  0
  1  2  1  0
  2  3  1  0
  3  4  2  0
  4  5  1  0
  5  6  1  0
  6  7  1  0
  7  8  1  0
  8  9  2  0
  8 10  1  0
 10 11  1  0
 11 12  1  0
 12 13  2  0
 13 14  1  0
 14 15  1  0
 15 16  2  0
 16 17  1  0
 17 18  2  0
 18 19  1  0
 19 20  2  0
 14 21  2  0
 21 22  1  0
 22 23  1  0
 23 24  1  0
 23 25  1  0
 23 26  1  0
 22 27  2  0
 27 28  1  0
 28 29  1  0
  5 30  2  0
 30 31  1  0
 31 32  1  0
 32 33  1  0
 31 34  2  0
 34 35  1  0
 35 36  1  0
 34  3  1  0
 28 10  2  0
 27 12  1  0
 20 15  1  0
  1 37  1  0
  1 38  1  0
  1 39  1  0
  4 40  1  0
  6 41  1  0
  6 42  1  0
  7 43  1  0
 16 44  1  0
 17 45  1  0
 18 46  1  0
 19 47  1  0
 20 48  1  0
 21 49  1  0
 29 50  1  0
 29 51  1  0
 30 52  1  0
 33 53  1  0
 33 54  1  0
 33 55  1  0
 36 56  1  0
 36 57  1  0
 36 58  1  0
M  END
>  <Binding energies>  (1) 
[-7.64]

>  <Ligand effiencies>  (1) 
[-0.19589743589743588]

>  <Interactions>  (1) 
["V-B:MET:535:CE:9803, V-B:PRO:540:CA:9851, V-B:PRO:540:N:9852, V-B:PRO:540:CB:9853, V-B:TYR:539:CE1:9843, V-B:TYR:539:C:9835, V-B:TYR:539:CZ:9845, V-A:HIS:456:CE1:4064, H-A:GLU:543:OE2:4905, H-A:TYR:484:OH:4343, H-A:GLU:543:OE1:4904, V-B:GLU:543:CD:9876, V-B:GLU:543:CG:9875, H-A:HIS:456:NE2:4065, V-B:GLU:543:CB:9874, V-A:GLU:543:CD:4903, V-B:ASN:362:CB:8143, H-B:GLU:543:OE2:9878, V-A:GLU:543:CB:4901, V-A:TYR:484:CZ:4342, V-B:HIS:456:CE1:9037, V-A:GLU:543:CG:4902, V-A:GLU:543:C:4897, V-B:HIS:456:CD2:9035, V-A:LYS:547:CE:4945, V-A:TYR:484:CE1:4340, V-A:GLY:544:CA:4909, V-A:GLY:544:C:4907"]

$$$$
4ci_Grossjean_2025
     RDKit          3D

 39 42  0  0  0  0  0  0  0  0999 V2000
  129.2740  126.5030   63.7630 N   0  0  0  0  0  0  0  0  0  0  0  0
  129.5490  126.0070   65.0100 C   0  0  0  0  0  0  0  0  0  0  0  0
  129.9650  124.6850   65.2380 C   0  0  0  0  0  0  0  0  0  0  0  0
  130.1950  123.6180   64.2590 C   0  0  0  0  0  0  0  0  0  0  0  0
  130.9860  122.7030   64.4990 O   0  0  0  0  0  0  0  0  0  0  0  0
  129.4960  123.7290   63.1010 N   0  0  0  0  0  0  0  0  0  0  0  0
  129.5250  122.8690   62.0110 C   0  0  0  0  0  0  0  0  0  0  0  0
  130.7030  122.4900   61.3680 C   0  0  0  0  0  0  0  0  0  0  0  0
  130.3050  121.6470   60.3570 C   0  0  0  0  0  0  0  0  0  0  0  0
  128.9560  121.5230   60.3890 O   0  0  0  0  0  0  0  0  0  0  0  0
  128.4730  122.3030   61.4410 N   0  0  0  0  0  0  0  0  0  0  0  0
  130.2400  124.3890   66.9530 S   0  0  0  0  0  0  0  0  0  0  0  0
  129.7880  126.0300   67.3540 C   0  0  0  0  0  0  0  0  0  0  0  0
  129.7920  126.4650   68.6120 N   0  0  0  0  0  0  0  0  0  0  0  0
  129.4300  127.7560   68.8260 C   0  0  0  0  0  0  0  0  0  0  0  0
  129.4390  128.2160   70.2550 C   0  0  0  0  0  0  0  0  0  0  0  0
  130.6040  128.7470   70.8330 C   0  0  0  0  0  0  0  0  0  0  0  0
  130.6190  129.1760   72.1580 C   0  0  0  0  0  0  0  0  0  0  0  0
  129.4650  129.0780   72.9280 C   0  0  0  0  0  0  0  0  0  0  0  0
  128.2990  128.5520   72.3830 C   0  0  0  0  0  0  0  0  0  0  0  0
  128.2890  128.1230   71.0580 C   0  0  0  0  0  0  0  0  0  0  0  0
  129.0480  128.5980   67.7760 C   0  0  0  0  0  0  0  0  0  0  0  0
  129.0400  128.1500   66.4450 C   0  0  0  0  0  0  0  0  0  0  0  0
  128.6100  129.1270   65.3440 C   0  0  0  0  0  0  0  0  0  0  0  0
  129.3640  129.0440   64.2470 F   0  0  0  0  0  0  0  0  0  0  0  0
  127.3520  128.8730   64.9840 F   0  0  0  0  0  0  0  0  0  0  0  0
  128.6950  130.3790   65.7940 F   0  0  0  0  0  0  0  0  0  0  0  0
  129.4310  126.8010   66.2090 C   0  0  0  0  0  0  0  0  0  0  0  0
  128.5250  126.1350   63.1930 H   0  0  0  0  0  0  0  0  0  0  0  0
  129.8110  127.2650   63.3710 H   0  0  0  0  0  0  0  0  0  0  0  0
  128.8830  124.5250   63.0090 H   0  0  0  0  0  0  0  0  0  0  0  0
  131.7292  122.7988   61.6160 H   0  0  0  0  0  0  0  0  0  0  0  0
  130.9744  121.1526   59.6377 H   0  0  0  0  0  0  0  0  0  0  0  0
  131.5199  128.8253   70.2289 H   0  0  0  0  0  0  0  0  0  0  0  0
  131.5400  129.5907   72.5937 H   0  0  0  0  0  0  0  0  0  0  0  0
  129.4748  129.4185   73.9739 H   0  0  0  0  0  0  0  0  0  0  0  0
  127.3886  128.4750   72.9955 H   0  0  0  0  0  0  0  0  0  0  0  0
  127.3652  127.7041   70.6325 H   0  0  0  0  0  0  0  0  0  0  0  0
  128.7476  129.6327   67.9976 H   0  0  0  0  0  0  0  0  0  0  0  0
  1  2  1  0
  2  3  2  0
  3  4  1  0
  4  5  2  0
  4  6  1  0
  6  7  1  0
  7  8  1  0
  8  9  2  0
  9 10  1  0
 10 11  1  0
  3 12  1  0
 12 13  1  0
 13 14  2  0
 14 15  1  0
 15 16  1  0
 16 17  2  0
 17 18  1  0
 18 19  2  0
 19 20  1  0
 20 21  2  0
 15 22  2  0
 22 23  1  0
 23 24  1  0
 24 25  1  0
 24 26  1  0
 24 27  1  0
 23 28  2  0
 28  2  1  0
 11  7  2  0
 28 13  1  0
 21 16  1  0
  1 29  1  0
  1 30  1  0
  6 31  1  0
  8 32  1  0
  9 33  1  0
 17 34  1  0
 18 35  1  0
 19 36  1  0
 20 37  1  0
 21 38  1  0
 22 39  1  0
M  END
>  <Binding energies>  (1) 
[-6.82]

>  <Ligand effiencies>  (1) 
[-0.22]

>  <Interactions>  (1) 
["V-B:ALA:541:CB:9860, V-A:HIS:456:CE1:4064, H-A:GLU:543:OE2:4905, H-A:TYR:484:OH:4343, H-A:GLU:543:OE1:4904, V-B:GLU:543:CD:9876, V-B:GLU:543:CG:9875, H-A:HIS:456:NE2:4065, V-B:GLU:543:CB:9874, V-A:GLU:543:CD:4903, H-B:ALA:541:N:9859, H-B:GLU:543:OE2:9878, V-A:GLU:543:CB:4901, V-A:TYR:484:CZ:4342, V-B:HIS:456:CE1:9037, V-A:GLU:543:CG:4902, V-A:GLU:543:C:4897, V-B:HIS:456:CD2:9035, V-A:LYS:547:CE:4945, V-A:TYR:484:CE1:4340, H-B:GLU:543:OE1:9877, V-A:GLY:544:CA:4909, V-A:GLY:544:C:4907"]

$$$$
4cj_Grossjean_2025
     RDKit          3D

 39 42  0  0  0  0  0  0  0  0999 V2000
  129.2060  126.5620   63.7840 N   0  0  0  0  0  0  0  0  0  0  0  0
  129.5000  126.0640   65.0280 C   0  0  0  0  0  0  0  0  0  0  0  0
  129.9500  124.7520   65.2440 C   0  0  0  0  0  0  0  0  0  0  0  0
  130.1960  123.6970   64.2580 C   0  0  0  0  0  0  0  0  0  0  0  0
  130.9890  122.7820   64.4970 O   0  0  0  0  0  0  0  0  0  0  0  0
  129.5090  123.8140   63.0950 N   0  0  0  0  0  0  0  0  0  0  0  0
  129.5600  122.9540   62.0060 C   0  0  0  0  0  0  0  0  0  0  0  0
  128.5530  122.3850   61.3790 N   0  0  0  0  0  0  0  0  0  0  0  0
  128.9690  121.6290   60.3820 C   0  0  0  0  0  0  0  0  0  0  0  0
  130.3450  121.5750   60.1820 C   0  0  0  0  0  0  0  0  0  0  0  0
  131.1290  122.5730   61.3710 S   0  0  0  0  0  0  0  0  0  0  0  0
  130.2430  124.4530   66.9560 S   0  0  0  0  0  0  0  0  0  0  0  0
  129.7600  126.0810   67.3680 C   0  0  0  0  0  0  0  0  0  0  0  0
  129.7710  126.5100   68.6270 N   0  0  0  0  0  0  0  0  0  0  0  0
  129.3870  127.7930   68.8510 C   0  0  0  0  0  0  0  0  0  0  0  0
  129.4220  128.2500   70.2810 C   0  0  0  0  0  0  0  0  0  0  0  0
  128.2670  128.2070   71.0780 C   0  0  0  0  0  0  0  0  0  0  0  0
  128.2910  128.6340   72.4030 C   0  0  0  0  0  0  0  0  0  0  0  0
  129.4760  129.1140   72.9520 C   0  0  0  0  0  0  0  0  0  0  0  0
  130.6340  129.1690   72.1840 C   0  0  0  0  0  0  0  0  0  0  0  0
  130.6050  128.7400   70.8600 C   0  0  0  0  0  0  0  0  0  0  0  0
  128.9710  128.6310   67.8110 C   0  0  0  0  0  0  0  0  0  0  0  0
  128.9540  128.1890   66.4790 C   0  0  0  0  0  0  0  0  0  0  0  0
  128.4900  129.1610   65.3870 C   0  0  0  0  0  0  0  0  0  0  0  0
  129.2420  129.1100   64.2860 F   0  0  0  0  0  0  0  0  0  0  0  0
  127.2390  128.8720   65.0310 F   0  0  0  0  0  0  0  0  0  0  0  0
  128.5380  130.4110   65.8470 F   0  0  0  0  0  0  0  0  0  0  0  0
  129.3730  126.8500   66.2310 C   0  0  0  0  0  0  0  0  0  0  0  0
  129.7310  127.3220   63.3740 H   0  0  0  0  0  0  0  0  0  0  0  0
  128.4510  126.1800   63.2310 H   0  0  0  0  0  0  0  0  0  0  0  0
  128.8980  124.6110   62.9960 H   0  0  0  0  0  0  0  0  0  0  0  0
  128.2673  121.0719   59.7438 H   0  0  0  0  0  0  0  0  0  0  0  0
  130.8545  120.9949   59.3985 H   0  0  0  0  0  0  0  0  0  0  0  0
  127.3273  127.8296   70.6484 H   0  0  0  0  0  0  0  0  0  0  0  0
  127.3768  128.5921   73.0133 H   0  0  0  0  0  0  0  0  0  0  0  0
  129.4969  129.4516   73.9987 H   0  0  0  0  0  0  0  0  0  0  0  0
  131.5689  129.5499   72.6209 H   0  0  0  0  0  0  0  0  0  0  0  0
  131.5237  128.7853   70.2567 H   0  0  0  0  0  0  0  0  0  0  0  0
  128.6506  129.6576   68.0419 H   0  0  0  0  0  0  0  0  0  0  0  0
  1  2  1  0
  2  3  2  0
  3  4  1  0
  4  5  2  0
  4  6  1  0
  6  7  1  0
  7  8  2  0
  8  9  1  0
  9 10  2  0
 10 11  1  0
  3 12  1  0
 12 13  1  0
 13 14  2  0
 14 15  1  0
 15 16  1  0
 16 17  2  0
 17 18  1  0
 18 19  2  0
 19 20  1  0
 20 21  2  0
 15 22  2  0
 22 23  1  0
 23 24  1  0
 24 25  1  0
 24 26  1  0
 24 27  1  0
 23 28  2  0
 28  2  1  0
 11  7  1  0
 28 13  1  0
 21 16  1  0
  1 29  1  0
  1 30  1  0
  6 31  1  0
  9 32  1  0
 10 33  1  0
 17 34  1  0
 18 35  1  0
 19 36  1  0
 20 37  1  0
 21 38  1  0
 22 39  1  0
M  END
>  <Binding energies>  (1) 
[-6.84]

>  <Ligand effiencies>  (1) 
[-0.22064516129032258]

>  <Interactions>  (1) 
["V-B:ALA:541:CB:9860, V-B:TYR:539:CE2:9844, V-B:PRO:540:CA:9851, V-B:TYR:539:CD2:9842, V-B:PRO:540:C:9849, V-B:TYR:539:C:9835, V-A:HIS:456:CE1:4064, H-A:GLU:543:OE2:4905, H-A:TYR:484:OH:4343, H-A:GLU:543:OE1:4904, V-B:GLU:543:CD:9876, V-B:GLU:543:CG:9875, H-A:HIS:456:NE2:4065, V-B:GLU:543:CB:9874, V-A:GLU:543:CD:4903, H-B:ALA:541:N:9859, H-B:GLU:543:OE2:9878, V-A:GLU:543:CB:4901, V-A:TYR:484:CZ:4342, V-B:HIS:456:CE1:9037, V-A:GLU:543:CG:4902, V-A:GLU:543:C:4897, V-B:HIS:456:CD2:9035, V-A:LYS:547:CE:4945, V-B:TYR:484:CZ:9314, V-B:TYR:484:CE1:9312, V-A:TYR:484:CE1:4340, H-B:GLU:543:OE1:9877, V-A:GLY:544:CA:4909, V-A:GLY:544:C:4907"]

$$$$
4ck_Grossjean_2025
     RDKit          3D

 57 59  0  0  0  0  0  0  0  0999 V2000
  129.7670  132.8770   56.8240 C   0  0  0  0  0  0  0  0  0  0  0  0
  130.6030  133.5350   55.8850 O   0  0  0  0  0  0  0  0  0  0  0  0
  131.1860  132.6550   54.9350 C   0  0  0  0  0  0  0  0  0  0  0  0
  130.1330  132.2820   53.8840 C   0  0  0  0  0  0  0  0  0  0  0  0
  129.7020  130.9470   54.1130 O   0  0  0  0  0  0  0  0  0  0  0  0
  130.7290  130.0960   54.6040 C   0  0  0  0  0  0  0  0  0  0  0  0
  130.3210  129.5600   55.9830 C   0  0  0  0  0  0  0  0  0  0  0  0
  129.5190  128.4000   55.8040 O   0  0  0  0  0  0  0  0  0  0  0  0
  129.5250  127.8970   54.4740 C   0  0  0  0  0  0  0  0  0  0  0  0
  129.8720  126.4010   54.4910 C   0  0  0  0  0  0  0  0  0  0  0  0
  130.1710  125.9200   55.8400 N   0  0  0  0  0  0  0  0  0  0  0  0
  129.9640  124.6680   56.2970 C   0  0  0  0  0  0  0  0  0  0  0  0
  129.5120  123.7670   55.5880 O   0  0  0  0  0  0  0  0  0  0  0  0
  130.3200  124.4310   57.6960 C   0  0  0  0  0  0  0  0  0  0  0  0
  131.1620  125.6750   58.6170 S   0  0  0  0  0  0  0  0  0  0  0  0
  131.1380  124.6850   60.0570 C   0  0  0  0  0  0  0  0  0  0  0  0
  131.6700  125.1090   61.2010 N   0  0  0  0  0  0  0  0  0  0  0  0
  131.6050  124.2690   62.2670 C   0  0  0  0  0  0  0  0  0  0  0  0
  132.1990  124.7850   63.5460 C   0  0  0  0  0  0  0  0  0  0  0  0
  133.5900  124.8210   63.7310 C   0  0  0  0  0  0  0  0  0  0  0  0
  134.1470  125.2960   64.9160 C   0  0  0  0  0  0  0  0  0  0  0  0
  133.3160  125.7430   65.9380 C   0  0  0  0  0  0  0  0  0  0  0  0
  131.9340  125.7230   65.7800 C   0  0  0  0  0  0  0  0  0  0  0  0
  131.3820  125.2490   64.5920 C   0  0  0  0  0  0  0  0  0  0  0  0
  130.9990  123.0120   62.1820 C   0  0  0  0  0  0  0  0  0  0  0  0
  130.4350  122.5540   60.9800 C   0  0  0  0  0  0  0  0  0  0  0  0
  129.7890  121.1630   60.9560 C   0  0  0  0  0  0  0  0  0  0  0  0
  128.4650  121.2040   60.7980 F   0  0  0  0  0  0  0  0  0  0  0  0
  130.2900  120.4520   59.9470 F   0  0  0  0  0  0  0  0  0  0  0  0
  130.0360  120.5330   62.1050 F   0  0  0  0  0  0  0  0  0  0  0  0
  130.5000  123.4260   59.8550 C   0  0  0  0  0  0  0  0  0  0  0  0
  130.0340  123.3120   58.4940 C   0  0  0  0  0  0  0  0  0  0  0  0
  129.3750  122.2050   58.0240 N   0  0  0  0  0  0  0  0  0  0  0  0
  130.0903  133.1314   57.8442 H   0  0  0  0  0  0  0  0  0  0  0  0
  128.7259  133.2005   56.6779 H   0  0  0  0  0  0  0  0  0  0  0  0
  129.8368  131.7890   56.6779 H   0  0  0  0  0  0  0  0  0  0  0  0
  132.0356  133.1528   54.4447 H   0  0  0  0  0  0  0  0  0  0  0  0
  131.5421  131.7459   55.4417 H   0  0  0  0  0  0  0  0  0  0  0  0
  129.2746  132.9653   53.9636 H   0  0  0  0  0  0  0  0  0  0  0  0
  130.5682  132.3641   52.8771 H   0  0  0  0  0  0  0  0  0  0  0  0
  130.8735  129.2549   53.9100 H   0  0  0  0  0  0  0  0  0  0  0  0
  131.6690  130.6610   54.6894 H   0  0  0  0  0  0  0  0  0  0  0  0
  131.2209  129.3019   56.5605 H   0  0  0  0  0  0  0  0  0  0  0  0
  129.7525  130.3271   56.5292 H   0  0  0  0  0  0  0  0  0  0  0  0
  128.5306  128.0372   54.0250 H   0  0  0  0  0  0  0  0  0  0  0  0
  130.2762  128.4397   53.8814 H   0  0  0  0  0  0  0  0  0  0  0  0
  129.0170  125.8342   54.0938 H   0  0  0  0  0  0  0  0  0  0  0  0
  130.7700  126.2548   53.8728 H   0  0  0  0  0  0  0  0  0  0  0  0
  130.6270  126.5800   56.4540 H   0  0  0  0  0  0  0  0  0  0  0  0
  134.2516  124.4680   62.9262 H   0  0  0  0  0  0  0  0  0  0  0  0
  135.2394  125.3175   65.0431 H   0  0  0  0  0  0  0  0  0  0  0  0
  133.7540  126.1143   66.8762 H   0  0  0  0  0  0  0  0  0  0  0  0
  131.2801  126.0798   66.5894 H   0  0  0  0  0  0  0  0  0  0  0  0
  130.2888  125.2375   64.4703 H   0  0  0  0  0  0  0  0  0  0  0  0
  130.9632  122.3691   63.0739 H   0  0  0  0  0  0  0  0  0  0  0  0
  129.1180  122.1060   57.0520 H   0  0  0  0  0  0  0  0  0  0  0  0
  129.1270  121.4410   58.6390 H   0  0  0  0  0  0  0  0  0  0  0  0
  1  2  1  0
  2  3  1  0
  3  4  1  0
  4  5  1  0
  5  6  1  0
  6  7  1  0
  7  8  1  0
  8  9  1  0
  9 10  1  0
 10 11  1  0
 11 12  1  0
 12 13  2  0
 12 14  1  0
 14 15  1  0
 15 16  1  0
 16 17  2  0
 17 18  1  0
 18 19  1  0
 19 20  2  0
 20 21  1  0
 21 22  2  0
 22 23  1  0
 23 24  2  0
 18 25  2  0
 25 26  1  0
 26 27  1  0
 27 28  1  0
 27 29  1  0
 27 30  1  0
 26 31  2  0
 31 32  1  0
 32 33  1  0
 32 14  2  0
 31 16  1  0
 24 19  1  0
  1 34  1  0
  1 35  1  0
  1 36  1  0
  3 37  1  0
  3 38  1  0
  4 39  1  0
  4 40  1  0
  6 41  1  0
  6 42  1  0
  7 43  1  0
  7 44  1  0
  9 45  1  0
  9 46  1  0
 10 47  1  0
 10 48  1  0
 11 49  1  0
 20 50  1  0
 21 51  1  0
 22 52  1  0
 23 53  1  0
 24 54  1  0
 25 55  1  0
 33 56  1  0
 33 57  1  0
M  END
>  <Binding energies>  (1) 
[-6.06]

>  <Ligand effiencies>  (1) 
[-0.16833333333333333]

>  <Interactions>  (1) 
["V-B:ALA:541:CB:9860, V-B:TYR:539:CE2:9844, H-B:TYR:539:O:9836, V-B:PRO:540:CA:9851, V-B:TYR:539:CD2:9842, V-B:ALA:541:CA:9858, V-B:PRO:540:N:9852, V-B:PRO:540:C:9849, V-B:TYR:539:C:9835, V-B:TYR:539:CZ:9845, V-A:ARG:545:CZ:4921, V-A:PRO:540:N:4879, V-A:TYR:539:CE1:4870, V-A:TYR:539:C:4862, V-A:TYR:539:CD1:4868, H-A:TYR:531:OH:4790, V-A:TYR:539:CG:4867, V-A:ILE:538:CA:4855, V-A:ARG:545:CD:4918, V-A:ARG:545:CG:4917, V-A:GLY:453:CA:4039, V-A:LEU:475:CD2:4254, H-A:TYR:539:N:4865, H-A:LYS:534:NZ:4818, V-A:ILE:538:CG2:4858, V-A:TYR:531:CE1:4787, V-A:TYR:531:CZ:4789, V-A:ILE:538:CD1:4860, V-A:LEU:475:CD1:4253, H-B:TYR:539:OH:9846, V-B:TYR:539:CG:9840, V-A:LYS:534:CE:4817"]

$$$$
4dd_Grossjean_2025
     RDKit          3D

 43 46  0  0  0  0  0  0  0  0999 V2000
  128.7490  129.0900   65.2630 C   0  0  0  0  0  0  0  0  0  0  0  0
  129.0970  128.1110   66.3730 C   0  0  0  0  0  0  0  0  0  0  0  0
  129.0260  128.5610   67.6970 C   0  0  0  0  0  0  0  0  0  0  0  0
  129.3340  127.7080   68.7640 C   0  0  0  0  0  0  0  0  0  0  0  0
  129.2720  128.1650   70.1920 C   0  0  0  0  0  0  0  0  0  0  0  0
  128.1010  128.0010   70.9500 C   0  0  0  0  0  0  0  0  0  0  0  0
  128.0380  128.4190   72.2760 C   0  0  0  0  0  0  0  0  0  0  0  0
  129.1480  129.0120   72.8660 C   0  0  0  0  0  0  0  0  0  0  0  0
  130.3220  129.1860   72.1400 C   0  0  0  0  0  0  0  0  0  0  0  0
  130.3820  128.7630   70.8140 C   0  0  0  0  0  0  0  0  0  0  0  0
  129.7240  126.4190   68.5650 N   0  0  0  0  0  0  0  0  0  0  0  0
  129.7860  125.9880   67.3060 C   0  0  0  0  0  0  0  0  0  0  0  0
  130.2550  124.3500   66.9080 S   0  0  0  0  0  0  0  0  0  0  0  0
  130.0630  124.6650   65.1820 C   0  0  0  0  0  0  0  0  0  0  0  0
  130.3080  123.6040   64.2040 C   0  0  0  0  0  0  0  0  0  0  0  0
  131.0010  122.6270   64.4970 O   0  0  0  0  0  0  0  0  0  0  0  0
  129.7210  123.7810   62.9950 N   0  0  0  0  0  0  0  0  0  0  0  0
  129.8000  122.9890   61.8350 C   0  0  0  0  0  0  0  0  0  0  0  0
  130.2520  121.6790   62.0200 C   0  0  0  0  0  0  0  0  0  0  0  0
  130.3510  120.8110   60.9350 C   0  0  0  0  0  0  0  0  0  0  0  0
  129.9900  121.2510   59.6650 C   0  0  0  0  0  0  0  0  0  0  0  0
  129.5260  122.5490   59.4690 C   0  0  0  0  0  0  0  0  0  0  0  0
  129.4260  123.4190   60.5510 C   0  0  0  0  0  0  0  0  0  0  0  0
  129.6580  125.9890   64.9520 C   0  0  0  0  0  0  0  0  0  0  0  0
  129.4360  126.5130   63.7030 N   0  0  0  0  0  0  0  0  0  0  0  0
  129.4900  126.7660   66.1510 C   0  0  0  0  0  0  0  0  0  0  0  0
  128.4115  130.0395   65.7040 H   0  0  0  0  0  0  0  0  0  0  0  0
  129.6381  129.2702   64.6409 H   0  0  0  0  0  0  0  0  0  0  0  0
  127.9456  128.6686   64.6409 H   0  0  0  0  0  0  0  0  0  0  0  0
  128.7242  129.5988   67.9018 H   0  0  0  0  0  0  0  0  0  0  0  0
  127.2187  127.5342   70.4878 H   0  0  0  0  0  0  0  0  0  0  0  0
  127.1130  128.2806   72.8550 H   0  0  0  0  0  0  0  0  0  0  0  0
  129.0980  129.3457   73.9130 H   0  0  0  0  0  0  0  0  0  0  0  0
  131.1985  129.6553   72.6107 H   0  0  0  0  0  0  0  0  0  0  0  0
  131.3131  128.8991   70.2443 H   0  0  0  0  0  0  0  0  0  0  0  0
  129.1280  124.5920   62.9050 H   0  0  0  0  0  0  0  0  0  0  0  0
  130.5305  121.3324   63.0261 H   0  0  0  0  0  0  0  0  0  0  0  0
  130.7128  119.7826   61.0813 H   0  0  0  0  0  0  0  0  0  0  0  0
  130.0720  120.5666   58.8077 H   0  0  0  0  0  0  0  0  0  0  0  0
  129.2392  122.8860   58.4619 H   0  0  0  0  0  0  0  0  0  0  0  0
  129.0541  124.4432   60.4006 H   0  0  0  0  0  0  0  0  0  0  0  0
  128.7300  126.1390   63.0840 H   0  0  0  0  0  0  0  0  0  0  0  0
  129.9720  127.2980   63.3610 H   0  0  0  0  0  0  0  0  0  0  0  0
  1  2  1  0
  2  3  2  0
  3  4  1  0
  4  5  1  0
  5  6  2  0
  6  7  1  0
  7  8  2  0
  8  9  1  0
  9 10  2  0
  4 11  2  0
 11 12  1  0
 12 13  1  0
 13 14  1  0
 14 15  1  0
 15 16  2  0
 15 17  1  0
 17 18  1  0
 18 19  2  0
 19 20  1  0
 20 21  2  0
 21 22  1  0
 22 23  2  0
 14 24  2  0
 24 25  1  0
 24 26  1  0
 26  2  1  0
 10  5  1  0
 26 12  2  0
 23 18  1  0
  1 27  1  0
  1 28  1  0
  1 29  1  0
  3 30  1  0
  6 31  1  0
  7 32  1  0
  8 33  1  0
  9 34  1  0
 10 35  1  0
 17 36  1  0
 19 37  1  0
 20 38  1  0
 21 39  1  0
 22 40  1  0
 23 41  1  0
 25 42  1  0
 25 43  1  0
M  END
>  <Binding energies>  (1) 
[-7.6]

>  <Ligand effiencies>  (1) 
[-0.26206896551724135]

>  <Interactions>  (1) 
["V-B:ALA:541:CB:9860, V-B:TYR:539:CE2:9844, V-B:TYR:539:CD2:9842, V-B:TYR:539:C:9835, V-A:HIS:456:CE1:4064, H-A:GLU:543:OE2:4905, H-A:TYR:484:OH:4343, H-A:GLU:543:OE1:4904, V-B:GLU:543:CD:9876, V-B:GLU:543:CG:9875, H-A:HIS:456:NE2:4065, V-B:GLU:543:CB:9874, V-A:GLU:543:CD:4903, H-B:GLU:543:OE2:9878, V-A:GLU:543:CB:4901, V-A:TYR:484:CZ:4342, V-B:HIS:456:CE1:9037, V-A:GLU:543:CG:4902, V-A:GLU:543:C:4897, V-B:HIS:456:CD2:9035, V-A:LYS:547:CE:4945, V-A:TYR:484:CE1:4340, V-A:GLY:544:C:4907"]

$$$$
4dg_Grossjean_2025
     RDKit          3D

 46 49  0  0  0  0  0  0  0  0999 V2000
  128.7870  129.0760   65.2690 C   0  0  0  0  0  0  0  0  0  0  0  0
  129.1240  128.0960   66.3830 C   0  0  0  0  0  0  0  0  0  0  0  0
  129.0910  128.5590   67.7030 C   0  0  0  0  0  0  0  0  0  0  0  0
  129.3910  127.7070   68.7730 C   0  0  0  0  0  0  0  0  0  0  0  0
  129.3620  128.1760   70.2010 C   0  0  0  0  0  0  0  0  0  0  0  0
  130.4940  128.7620   70.7900 C   0  0  0  0  0  0  0  0  0  0  0  0
  130.4740  129.1940   72.1140 C   0  0  0  0  0  0  0  0  0  0  0  0
  129.3170  129.0460   72.8710 C   0  0  0  0  0  0  0  0  0  0  0  0
  128.1820  128.4650   72.3130 C   0  0  0  0  0  0  0  0  0  0  0  0
  128.2070  128.0340   70.9900 C   0  0  0  0  0  0  0  0  0  0  0  0
  129.7080  126.3980   68.5810 N   0  0  0  0  0  0  0  0  0  0  0  0
  129.7400  125.9550   67.3240 C   0  0  0  0  0  0  0  0  0  0  0  0
  130.1390  124.2980   66.9370 S   0  0  0  0  0  0  0  0  0  0  0  0
  129.9440  124.6080   65.2120 C   0  0  0  0  0  0  0  0  0  0  0  0
  130.1970  123.5450   64.2410 C   0  0  0  0  0  0  0  0  0  0  0  0
  130.9990  122.6390   64.4750 O   0  0  0  0  0  0  0  0  0  0  0  0
  129.5310  123.6450   63.0710 N   0  0  0  0  0  0  0  0  0  0  0  0
  129.6110  122.6890   61.9680 C   0  0  0  0  0  0  0  0  0  0  0  0
  128.6340  122.9870   60.8360 C   0  0  0  0  0  0  0  0  0  0  0  0
  129.0080  122.7380   59.5120 C   0  0  0  0  0  0  0  0  0  0  0  0
  128.1070  122.9790   58.4790 C   0  0  0  0  0  0  0  0  0  0  0  0
  126.8330  123.4590   58.7720 C   0  0  0  0  0  0  0  0  0  0  0  0
  126.4470  123.6940   60.0900 C   0  0  0  0  0  0  0  0  0  0  0  0
  127.3480  123.4510   61.1240 C   0  0  0  0  0  0  0  0  0  0  0  0
  129.6010  125.9470   64.9700 C   0  0  0  0  0  0  0  0  0  0  0  0
  129.4020  126.4700   63.7180 N   0  0  0  0  0  0  0  0  0  0  0  0
  129.4670  126.7360   66.1660 C   0  0  0  0  0  0  0  0  0  0  0  0
  128.4589  130.0302   65.7069 H   0  0  0  0  0  0  0  0  0  0  0  0
  129.6786  129.2452   64.6473 H   0  0  0  0  0  0  0  0  0  0  0  0
  127.9799  128.6611   64.6473 H   0  0  0  0  0  0  0  0  0  0  0  0
  128.8255  129.6076   67.9031 H   0  0  0  0  0  0  0  0  0  0  0  0
  131.4119  128.8819   70.1958 H   0  0  0  0  0  0  0  0  0  0  0  0
  131.3703  129.6506   72.5592 H   0  0  0  0  0  0  0  0  0  0  0  0
  129.2987  129.3897   73.9158 H   0  0  0  0  0  0  0  0  0  0  0  0
  127.2691  128.3470   72.9152 H   0  0  0  0  0  0  0  0  0  0  0  0
  127.3077  127.5744   70.5541 H   0  0  0  0  0  0  0  0  0  0  0  0
  128.8330  124.3690   62.9810 H   0  0  0  0  0  0  0  0  0  0  0  0
  130.6328  122.7106   61.5613 H   0  0  0  0  0  0  0  0  0  0  0  0
  129.3458  121.7018   62.3742 H   0  0  0  0  0  0  0  0  0  0  0  0
  130.0132  122.3521   59.2871 H   0  0  0  0  0  0  0  0  0  0  0  0
  128.4000  122.7911   57.4355 H   0  0  0  0  0  0  0  0  0  0  0  0
  126.1239  123.6547   57.9542 H   0  0  0  0  0  0  0  0  0  0  0  0
  125.4371  124.0690   60.3125 H   0  0  0  0  0  0  0  0  0  0  0  0
  127.0470  123.6245   62.1677 H   0  0  0  0  0  0  0  0  0  0  0  0
  129.9050  127.2810   63.3910 H   0  0  0  0  0  0  0  0  0  0  0  0
  128.7430  126.0520   63.0750 H   0  0  0  0  0  0  0  0  0  0  0  0
  1  2  1  0
  2  3  2  0
  3  4  1  0
  4  5  1  0
  5  6  2  0
  6  7  1  0
  7  8  2  0
  8  9  1  0
  9 10  2  0
  4 11  2  0
 11 12  1  0
 12 13  1  0
 13 14  1  0
 14 15  1  0
 15 16  2  0
 15 17  1  0
 17 18  1  0
 18 19  1  0
 19 20  2  0
 20 21  1  0
 21 22  2  0
 22 23  1  0
 23 24  2  0
 14 25  2  0
 25 26  1  0
 25 27  1  0
 27  2  1  0
 10  5  1  0
 27 12  2  0
 24 19  1  0
  1 28  1  0
  1 29  1  0
  1 30  1  0
  3 31  1  0
  6 32  1  0
  7 33  1  0
  8 34  1  0
  9 35  1  0
 10 36  1  0
 17 37  1  0
 18 38  1  0
 18 39  1  0
 20 40  1  0
 21 41  1  0
 22 42  1  0
 23 43  1  0
 24 44  1  0
 26 45  1  0
 26 46  1  0
M  END
>  <Binding energies>  (1) 
[-7.75]

>  <Ligand effiencies>  (1) 
[-0.25833333333333336]

>  <Interactions>  (1) 
["V-B:ALA:541:CB:9860, V-B:PRO:540:CA:9851, V-B:PRO:540:N:9852, V-B:PRO:540:CB:9853, V-B:TYR:539:C:9835, V-A:HIS:456:CE1:4064, H-A:GLU:543:OE2:4905, H-A:TYR:484:OH:4343, H-A:GLU:543:OE1:4904, V-B:GLU:543:CD:9876, V-B:GLU:543:CG:9875, H-A:HIS:456:NE2:4065, V-B:GLU:543:CB:9874, V-A:GLU:543:CD:4903, H-B:GLU:543:OE2:9878, V-A:GLU:543:CB:4901, V-A:TYR:484:CZ:4342, V-B:HIS:456:CE1:9037, V-A:GLU:543:CG:4902, V-A:GLU:543:C:4897, V-B:HIS:456:CD2:9035, V-A:LYS:547:CE:4945, V-B:GLU:543:CA:9872, V-A:TYR:484:CE1:4340, V-A:GLY:544:CA:4909, V-A:GLY:544:C:4907"]

$$$$
4dj_Grossjean_2025
     RDKit          3D

 39 42  0  0  0  0  0  0  0  0999 V2000
  128.7580  129.1650   65.3680 C   0  0  0  0  0  0  0  0  0  0  0  0
  129.1420  128.1790   66.4610 C   0  0  0  0  0  0  0  0  0  0  0  0
  129.1330  128.6270   67.7870 C   0  0  0  0  0  0  0  0  0  0  0  0
  129.4780  127.7700   68.8380 C   0  0  0  0  0  0  0  0  0  0  0  0
  129.4730  128.2220   70.2710 C   0  0  0  0  0  0  0  0  0  0  0  0
  128.3100  128.1220   71.0530 C   0  0  0  0  0  0  0  0  0  0  0  0
  128.2980  128.5390   72.3820 C   0  0  0  0  0  0  0  0  0  0  0  0
  129.4530  129.0680   72.9490 C   0  0  0  0  0  0  0  0  0  0  0  0
  130.6170  129.1820   72.1970 C   0  0  0  0  0  0  0  0  0  0  0  0
  130.6250  128.7630   70.8700 C   0  0  0  0  0  0  0  0  0  0  0  0
  129.8180  126.4700   68.6230 N   0  0  0  0  0  0  0  0  0  0  0  0
  129.8270  126.0420   67.3620 C   0  0  0  0  0  0  0  0  0  0  0  0
  130.2520  124.3970   66.9420 S   0  0  0  0  0  0  0  0  0  0  0  0
  130.0070  124.7220   65.2250 C   0  0  0  0  0  0  0  0  0  0  0  0
  130.2250  123.6680   64.2340 C   0  0  0  0  0  0  0  0  0  0  0  0
  130.9980  122.7340   64.4670 O   0  0  0  0  0  0  0  0  0  0  0  0
  129.5360  123.8040   63.0750 N   0  0  0  0  0  0  0  0  0  0  0  0
  129.5650  122.9510   61.9810 C   0  0  0  0  0  0  0  0  0  0  0  0
  128.5450  122.3910   61.3660 N   0  0  0  0  0  0  0  0  0  0  0  0
  128.9420  121.6360   60.3590 C   0  0  0  0  0  0  0  0  0  0  0  0
  130.3140  121.5750   60.1390 C   0  0  0  0  0  0  0  0  0  0  0  0
  131.1210  122.5620   61.3200 S   0  0  0  0  0  0  0  0  0  0  0  0
  129.6170  126.0540   65.0130 C   0  0  0  0  0  0  0  0  0  0  0  0
  129.3610  126.5860   63.7740 N   0  0  0  0  0  0  0  0  0  0  0  0
  129.5040  126.8290   66.2190 C   0  0  0  0  0  0  0  0  0  0  0  0
  128.3950  130.0970   65.8259 H   0  0  0  0  0  0  0  0  0  0  0  0
  129.6376  129.3814   64.7439 H   0  0  0  0  0  0  0  0  0  0  0  0
  127.9637  128.7296   64.7439 H   0  0  0  0  0  0  0  0  0  0  0  0
  128.8508  129.6674   68.0060 H   0  0  0  0  0  0  0  0  0  0  0  0
  127.3934  127.7074   70.6082 H   0  0  0  0  0  0  0  0  0  0  0  0
  127.3793  128.4504   72.9805 H   0  0  0  0  0  0  0  0  0  0  0  0
  129.4454  129.3980   73.9983 H   0  0  0  0  0  0  0  0  0  0  0  0
  131.5277  129.6016   72.6492 H   0  0  0  0  0  0  0  0  0  0  0  0
  131.5482  128.8565   70.2793 H   0  0  0  0  0  0  0  0  0  0  0  0
  128.9360  124.6120   62.9850 H   0  0  0  0  0  0  0  0  0  0  0  0
  128.2278  121.0857   59.7289 H   0  0  0  0  0  0  0  0  0  0  0  0
  130.8085  120.9955   59.3455 H   0  0  0  0  0  0  0  0  0  0  0  0
  128.6750  126.1850   63.1520 H   0  0  0  0  0  0  0  0  0  0  0  0
  129.8550  127.4030   63.4420 H   0  0  0  0  0  0  0  0  0  0  0  0
  1  2  1  0
  2  3  2  0
  3  4  1  0
  4  5  1  0
  5  6  2  0
  6  7  1  0
  7  8  2  0
  8  9  1  0
  9 10  2  0
  4 11  2  0
 11 12  1  0
 12 13  1  0
 13 14  1  0
 14 15  1  0
 15 16  2  0
 15 17  1  0
 17 18  1  0
 18 19  2  0
 19 20  1  0
 20 21  2  0
 21 22  1  0
 14 23  2  0
 23 24  1  0
 23 25  1  0
 25  2  1  0
 10  5  1  0
 25 12  2  0
 22 18  1  0
  1 26  1  0
  1 27  1  0
  1 28  1  0
  3 29  1  0
  6 30  1  0
  7 31  1  0
  8 32  1  0
  9 33  1  0
 10 34  1  0
 17 35  1  0
 20 36  1  0
 21 37  1  0
 24 38  1  0
 24 39  1  0
M  END
>  <Binding energies>  (1) 
[-7.2]

>  <Ligand effiencies>  (1) 
[-0.2571428571428572]

>  <Interactions>  (1) 
["V-B:ALA:541:CB:9860, V-B:TYR:539:CE2:9844, V-B:PRO:540:CA:9851, V-B:TYR:539:CD2:9842, V-B:PRO:540:C:9849, V-B:TYR:539:C:9835, V-A:HIS:456:CE1:4064, H-A:GLU:543:OE2:4905, H-A:TYR:484:OH:4343, H-A:GLU:543:OE1:4904, V-B:GLU:543:CD:9876, V-B:GLU:543:CG:9875, H-A:HIS:456:NE2:4065, V-B:GLU:543:CB:9874, V-A:GLU:543:CD:4903, H-B:ALA:541:N:9859, H-B:GLU:543:OE2:9878, V-A:GLU:543:CB:4901, V-A:TYR:484:CZ:4342, V-B:HIS:456:CE1:9037, V-A:GLU:543:CG:4902, V-A:GLU:543:C:4897, V-B:HIS:456:CD2:9035, V-A:LYS:547:CE:4945, V-A:TYR:484:CE1:4340, V-A:GLY:544:CA:4909, V-A:GLY:544:C:4907"]

$$$$
4ea_Grossjean_2025
     RDKit          3D

 52 55  0  0  0  0  0  0  0  0999 V2000
  132.0500  132.4490   54.7530 C   0  0  0  0  0  0  0  0  0  0  0  0
  130.5860  132.8540   54.9450 C   0  0  0  0  0  0  0  0  0  0  0  0
  130.4480  133.5540   56.1740 O   0  0  0  0  0  0  0  0  0  0  0  0
  129.7200  133.0380   57.1980 C   0  0  0  0  0  0  0  0  0  0  0  0
  128.7540  133.6170   57.7050 O   0  0  0  0  0  0  0  0  0  0  0  0
  130.2080  131.6930   57.6530 C   0  0  0  0  0  0  0  0  0  0  0  0
  129.2850  130.6520   57.8180 C   0  0  0  0  0  0  0  0  0  0  0  0
  129.7060  129.3930   58.2390 C   0  0  0  0  0  0  0  0  0  0  0  0
  131.0540  129.1490   58.5030 C   0  0  0  0  0  0  0  0  0  0  0  0
  131.3620  127.8400   58.9210 N   0  0  0  0  0  0  0  0  0  0  0  0
  130.8330  126.6500   58.5450 C   0  0  0  0  0  0  0  0  0  0  0  0
  129.9330  126.5230   57.7150 O   0  0  0  0  0  0  0  0  0  0  0  0
  131.4110  125.4740   59.2020 C   0  0  0  0  0  0  0  0  0  0  0  0
  131.7600  124.0130   58.2740 S   0  0  0  0  0  0  0  0  0  0  0  0
  132.3650  123.1960   59.6970 C   0  0  0  0  0  0  0  0  0  0  0  0
  132.8230  121.9440   59.6490 N   0  0  0  0  0  0  0  0  0  0  0  0
  133.2640  121.4260   60.8220 C   0  0  0  0  0  0  0  0  0  0  0  0
  133.7800  120.0010   60.7450 C   0  0  0  0  0  0  0  0  0  0  0  0
  133.2580  122.1230   62.0280 C   0  0  0  0  0  0  0  0  0  0  0  0
  132.7780  123.4360   62.0730 C   0  0  0  0  0  0  0  0  0  0  0  0
  132.7780  124.1630   63.3620 C   0  0  0  0  0  0  0  0  0  0  0  0
  133.9700  124.6910   63.8710 C   0  0  0  0  0  0  0  0  0  0  0  0
  133.9710  125.3780   65.0820 C   0  0  0  0  0  0  0  0  0  0  0  0
  132.7790  125.5340   65.7870 C   0  0  0  0  0  0  0  0  0  0  0  0
  131.5880  125.0080   65.2920 C   0  0  0  0  0  0  0  0  0  0  0  0
  131.5890  124.3220   64.0810 C   0  0  0  0  0  0  0  0  0  0  0  0
  132.3060  124.0160   60.8640 C   0  0  0  0  0  0  0  0  0  0  0  0
  131.7570  125.3110   60.5530 C   0  0  0  0  0  0  0  0  0  0  0  0
  131.5950  126.2840   61.5050 N   0  0  0  0  0  0  0  0  0  0  0  0
  131.9850  130.1860   58.3400 C   0  0  0  0  0  0  0  0  0  0  0  0
  131.5630  131.4440   57.9200 C   0  0  0  0  0  0  0  0  0  0  0  0
  132.5259  132.3173   55.7359 H   0  0  0  0  0  0  0  0  0  0  0  0
  132.0985  131.5037   54.1926 H   0  0  0  0  0  0  0  0  0  0  0  0
  132.5774  133.2350   54.1926 H   0  0  0  0  0  0  0  0  0  0  0  0
  130.2731  133.5044   54.1149 H   0  0  0  0  0  0  0  0  0  0  0  0
  129.9545  131.9535   54.9617 H   0  0  0  0  0  0  0  0  0  0  0  0
  128.2191  130.8305   57.6133 H   0  0  0  0  0  0  0  0  0  0  0  0
  128.9702  128.5850   58.3643 H   0  0  0  0  0  0  0  0  0  0  0  0
  132.0960  127.7940   59.6120 H   0  0  0  0  0  0  0  0  0  0  0  0
  133.9226  119.6072   61.7622 H   0  0  0  0  0  0  0  0  0  0  0  0
  133.0512  119.3756   60.2085 H   0  0  0  0  0  0  0  0  0  0  0  0
  134.7402  119.9872   60.2085 H   0  0  0  0  0  0  0  0  0  0  0  0
  133.6304  121.6413   62.9441 H   0  0  0  0  0  0  0  0  0  0  0  0
  134.9090  124.5628   63.3126 H   0  0  0  0  0  0  0  0  0  0  0  0
  134.9076  125.7954   65.4802 H   0  0  0  0  0  0  0  0  0  0  0  0
  132.7787  126.0776   66.7433 H   0  0  0  0  0  0  0  0  0  0  0  0
  130.6516  125.1341   65.8552 H   0  0  0  0  0  0  0  0  0  0  0  0
  130.6509  123.9032   63.6878 H   0  0  0  0  0  0  0  0  0  0  0  0
  130.8840  126.2170   62.2200 H   0  0  0  0  0  0  0  0  0  0  0  0
  132.1840  127.1060   61.5240 H   0  0  0  0  0  0  0  0  0  0  0  0
  133.0504  130.0044   58.5446 H   0  0  0  0  0  0  0  0  0  0  0  0
  132.2994  132.2517   57.7960 H   0  0  0  0  0  0  0  0  0  0  0  0
  1  2  1  0
  2  3  1  0
  3  4  1  0
  4  5  2  0
  4  6  1  0
  6  7  2  0
  7  8  1  0
  8  9  2  0
  9 10  1  0
 10 11  1  0
 11 12  2  0
 11 13  1  0
 13 14  1  0
 14 15  1  0
 15 16  2  0
 16 17  1  0
 17 18  1  0
 17 19  2  0
 19 20  1  0
 20 21  1  0
 21 22  2  0
 22 23  1  0
 23 24  2  0
 24 25  1  0
 25 26  2  0
 20 27  2  0
 27 28  1  0
 28 29  1  0
  9 30  1  0
 30 31  2  0
 31  6  1  0
 28 13  2  0
 27 15  1  0
 26 21  1  0
  1 32  1  0
  1 33  1  0
  1 34  1  0
  2 35  1  0
  2 36  1  0
  7 37  1  0
  8 38  1  0
 10 39  1  0
 18 40  1  0
 18 41  1  0
 18 42  1  0
 19 43  1  0
 22 44  1  0
 23 45  1  0
 24 46  1  0
 25 47  1  0
 26 48  1  0
 29 49  1  0
 29 50  1  0
 30 51  1  0
 31 52  1  0
M  END
>  <Binding energies>  (1) 
[-8.23]

>  <Ligand effiencies>  (1) 
[-0.24205882352941177]

>  <Interactions>  (1) 
["V-B:TYR:539:CE2:9844, V-A:TRP:381:CH2:3367, V-A:ASP:366:CG:3208, H-A:GLU:543:OE2:4905, V-A:ARG:545:CZ:4921, V-A:LEU:363:CD1:3184, V-A:PRO:540:N:4879, V-A:TYR:539:CE1:4870, V-A:TYR:539:C:4862, V-A:TYR:539:CD1:4868, V-A:PRO:540:CA:4878, H-A:TYR:531:OH:4790, V-A:TYR:539:CA:4864, V-A:TYR:539:CG:4867, V-A:PRO:540:CD:4882, V-A:ILE:538:CA:4855, H-A:ASP:366:OD2:3210, V-A:PRO:540:CB:4880, V-A:ARG:545:CD:4918, V-A:GLY:453:CA:4039, V-A:GLY:453:C:4037, V-A:ILE:369:CG2:3232, V-A:ILE:369:CD1:3234, V-A:LEU:475:CD2:4254, H-A:TYR:539:N:4865, V-A:ILE:538:CG2:4858, V-A:TYR:531:CZ:4789, V-A:ILE:538:CD1:4860, V-A:TRP:381:CZ2:3365, H-A:ASP:366:OD1:3209"]

$$$$
4eb_Grossjean_2025
     RDKit          3D

 49 52  0  0  0  0  0  0  0  0999 V2000
  123.8660  124.6310   57.6080 C   0  0  0  0  0  0  0  0  0  0  0  0
  124.7500  124.1480   56.6070 O   0  0  0  0  0  0  0  0  0  0  0  0
  125.5250  123.0540   56.8280 C   0  0  0  0  0  0  0  0  0  0  0  0
  125.3340  121.9640   56.2810 O   0  0  0  0  0  0  0  0  0  0  0  0
  126.6380  123.3040   57.8040 C   0  0  0  0  0  0  0  0  0  0  0  0
  126.3250  123.5780   59.1420 C   0  0  0  0  0  0  0  0  0  0  0  0
  127.3340  123.8140   60.0710 C   0  0  0  0  0  0  0  0  0  0  0  0
  128.6740  123.7810   59.6850 C   0  0  0  0  0  0  0  0  0  0  0  0
  129.6080  124.0340   60.7090 N   0  0  0  0  0  0  0  0  0  0  0  0
  130.9630  124.0140   60.6860 C   0  0  0  0  0  0  0  0  0  0  0  0
  131.6360  123.7500   59.6890 O   0  0  0  0  0  0  0  0  0  0  0  0
  131.6140  124.3340   61.9590 C   0  0  0  0  0  0  0  0  0  0  0  0
  133.3290  123.9890   62.1950 S   0  0  0  0  0  0  0  0  0  0  0  0
  133.2820  124.6230   63.8240 C   0  0  0  0  0  0  0  0  0  0  0  0
  134.3640  124.6460   64.6040 N   0  0  0  0  0  0  0  0  0  0  0  0
  134.1940  125.1620   65.8450 C   0  0  0  0  0  0  0  0  0  0  0  0
  135.4390  125.1780   66.7140 C   0  0  0  0  0  0  0  0  0  0  0  0
  132.9800  125.6510   66.3210 C   0  0  0  0  0  0  0  0  0  0  0  0
  131.8470  125.6250   65.5000 C   0  0  0  0  0  0  0  0  0  0  0  0
  130.5630  126.1490   66.0200 C   0  0  0  0  0  0  0  0  0  0  0  0
  130.0360  125.6550   67.2170 C   0  0  0  0  0  0  0  0  0  0  0  0
  128.8300  126.1480   67.7080 C   0  0  0  0  0  0  0  0  0  0  0  0
  128.1490  127.1350   66.9990 C   0  0  0  0  0  0  0  0  0  0  0  0
  128.6650  127.6320   65.8040 C   0  0  0  0  0  0  0  0  0  0  0  0
  129.8710  127.1380   65.3150 C   0  0  0  0  0  0  0  0  0  0  0  0
  131.9840  125.0910   64.1900 C   0  0  0  0  0  0  0  0  0  0  0  0
  131.0530  124.9140   63.1070 C   0  0  0  0  0  0  0  0  0  0  0  0
  129.7350  125.2860   63.2060 N   0  0  0  0  0  0  0  0  0  0  0  0
  128.9980  123.5070   58.3470 C   0  0  0  0  0  0  0  0  0  0  0  0
  127.9870  123.2720   57.4190 C   0  0  0  0  0  0  0  0  0  0  0  0
  124.2793  124.4052   58.6021 H   0  0  0  0  0  0  0  0  0  0  0  0
  123.7476  125.7191   57.4986 H   0  0  0  0  0  0  0  0  0  0  0  0
  122.8864  124.1428   57.4986 H   0  0  0  0  0  0  0  0  0  0  0  0
  125.2726  123.6068   59.4609 H   0  0  0  0  0  0  0  0  0  0  0  0
  127.0728  124.0282   61.1178 H   0  0  0  0  0  0  0  0  0  0  0  0
  129.1890  124.2670   61.5970 H   0  0  0  0  0  0  0  0  0  0  0  0
  135.1461  125.1742   67.7743 H   0  0  0  0  0  0  0  0  0  0  0  0
  136.0479  124.2876   66.4986 H   0  0  0  0  0  0  0  0  0  0  0  0
  136.0249  126.0837   66.4986 H   0  0  0  0  0  0  0  0  0  0  0  0
  132.9118  126.0572   67.3410 H   0  0  0  0  0  0  0  0  0  0  0  0
  130.5759  124.8742   67.7727 H   0  0  0  0  0  0  0  0  0  0  0  0
  128.4171  125.7601   68.6509 H   0  0  0  0  0  0  0  0  0  0  0  0
  127.1960  127.5252   67.3858 H   0  0  0  0  0  0  0  0  0  0  0  0
  128.1217  128.4113   65.2494 H   0  0  0  0  0  0  0  0  0  0  0  0
  130.2806  127.5270   64.3711 H   0  0  0  0  0  0  0  0  0  0  0  0
  129.2890  125.8510   62.4980 H   0  0  0  0  0  0  0  0  0  0  0  0
  129.1660  125.0060   63.9940 H   0  0  0  0  0  0  0  0  0  0  0  0
  130.0514  123.4779   58.0314 H   0  0  0  0  0  0  0  0  0  0  0  0
  128.2487  123.0588   56.3721 H   0  0  0  0  0  0  0  0  0  0  0  0
  1  2  1  0
  2  3  1  0
  3  4  2  0
  3  5  1  0
  5  6  2  0
  6  7  1  0
  7  8  2  0
  8  9  1  0
  9 10  1  0
 10 11  2  0
 10 12  1  0
 12 13  1  0
 13 14  1  0
 14 15  2  0
 15 16  1  0
 16 17  1  0
 16 18  2  0
 18 19  1  0
 19 20  1  0
 20 21  2  0
 21 22  1  0
 22 23  2  0
 23 24  1  0
 24 25  2  0
 19 26  2  0
 26 27  1  0
 27 28  1  0
  8 29  1  0
 29 30  2  0
 30  5  1  0
 27 12  2  0
 26 14  1  0
 25 20  1  0
  1 31  1  0
  1 32  1  0
  1 33  1  0
  6 34  1  0
  7 35  1  0
  9 36  1  0
 17 37  1  0
 17 38  1  0
 17 39  1  0
 18 40  1  0
 21 41  1  0
 22 42  1  0
 23 43  1  0
 24 44  1  0
 25 45  1  0
 28 46  1  0
 28 47  1  0
 29 48  1  0
 30 49  1  0
M  END
>  <Binding energies>  (1) 
[-8.8]

>  <Ligand effiencies>  (1) 
[-0.26666666666666666]

>  <Interactions>  (1) 
["H-B:TYR:531:OH:9763, V-B:MET:535:CE:9803, V-B:PRO:540:CD:9855, V-B:PRO:540:CA:9851, V-B:PRO:540:N:9852, V-B:PRO:540:CB:9853, V-B:TYR:539:C:9835, V-A:HIS:456:CE1:4064, V-A:ASP:366:CG:3208, H-A:TYR:484:OH:4343, H-A:GLY:454:N:4045, V-B:GLU:543:CD:9876, V-B:GLU:543:CG:9875, V-A:ARG:545:CZ:4921, V-B:GLU:543:CB:9874, V-A:GLU:543:CD:4903, H-B:GLU:543:OE2:9878, V-A:ARG:545:CD:4918, V-A:ARG:545:CG:4917, V-A:GLY:453:CA:4039, V-A:GLY:453:C:4037, V-A:HIS:456:CD2:4063, V-B:LEU:363:CA:8152, V-B:LEU:363:CD1:8156, V-B:GLU:543:CA:9872, H-B:TYR:539:N:9838, V-B:ASP:366:CG:8180, V-B:ASP:366:CB:8179, V-B:TYR:531:CE2:9761, V-A:ILE:455:C:4047, V-A:ARG:545:CB:4916"]

$$$$
8a_Ghoteimi_2023
     RDKit          3D

 67 71  0  0  0  0  0  0  0  0999 V2000
  129.9110  124.3310   71.9970 C   0  0  0  0  0  0  0  0  0  0  0  0
  130.5040  125.5160   72.7620 C   0  0  0  0  0  0  0  0  0  0  0  0
  129.4590  126.3960   73.1560 O   0  0  0  0  0  0  0  0  0  0  0  0
  129.4340  127.6880   72.7360 C   0  0  0  0  0  0  0  0  0  0  0  0
  129.4470  128.6530   73.5070 O   0  0  0  0  0  0  0  0  0  0  0  0
  129.3840  127.8260   71.2420 C   0  0  0  0  0  0  0  0  0  0  0  0
  130.3370  128.6250   70.5970 C   0  0  0  0  0  0  0  0  0  0  0  0
  130.3160  128.7730   69.2130 C   0  0  0  0  0  0  0  0  0  0  0  0
  129.3440  128.1300   68.4450 C   0  0  0  0  0  0  0  0  0  0  0  0
  129.4180  128.3570   67.0560 N   0  0  0  0  0  0  0  0  0  0  0  0
  128.4310  128.5100   66.1390 C   0  0  0  0  0  0  0  0  0  0  0  0
  127.2290  128.4670   66.4000 O   0  0  0  0  0  0  0  0  0  0  0  0
  128.8870  128.7440   64.7660 C   0  0  0  0  0  0  0  0  0  0  0  0
  128.6680  130.3230   64.0110 S   0  0  0  0  0  0  0  0  0  0  0  0
  129.4050  129.7680   62.5260 C   0  0  0  0  0  0  0  0  0  0  0  0
  129.5250  130.5640   61.4640 N   0  0  0  0  0  0  0  0  0  0  0  0
  130.1080  130.0320   60.3570 C   0  0  0  0  0  0  0  0  0  0  0  0
  130.2140  130.9360   59.1710 C   0  0  0  0  0  0  0  0  0  0  0  0
  131.2150  130.7510   58.2070 C   0  0  0  0  0  0  0  0  0  0  0  0
  131.3150  131.6030   57.1110 C   0  0  0  0  0  0  0  0  0  0  0  0
  130.4180  132.6570   56.9490 C   0  0  0  0  0  0  0  0  0  0  0  0
  130.5950  133.4530   55.8330 O   0  0  0  0  0  0  0  0  0  0  0  0
  130.4890  132.8660   54.5400 C   0  0  0  0  0  0  0  0  0  0  0  0
  129.4100  132.8470   57.9040 C   0  0  0  0  0  0  0  0  0  0  0  0
  129.3130  131.9950   59.0010 C   0  0  0  0  0  0  0  0  0  0  0  0
  130.5740  128.7160   60.3190 C   0  0  0  0  0  0  0  0  0  0  0  0
  130.4650  127.8820   61.4370 C   0  0  0  0  0  0  0  0  0  0  0  0
  131.0060  126.5010   61.3530 C   0  0  0  0  0  0  0  0  0  0  0  0
  131.9900  126.0760   62.2480 C   0  0  0  0  0  0  0  0  0  0  0  0
  132.4850  124.7770   62.1850 C   0  0  0  0  0  0  0  0  0  0  0  0
  132.0020  123.8790   61.2330 C   0  0  0  0  0  0  0  0  0  0  0  0
  132.5510  122.6110   61.2460 O   0  0  0  0  0  0  0  0  0  0  0  0
  133.5080  122.2790   62.2450 C   0  0  0  0  0  0  0  0  0  0  0  0
  131.0070  124.3020   60.3380 C   0  0  0  0  0  0  0  0  0  0  0  0
  130.5130  125.6020   60.4040 C   0  0  0  0  0  0  0  0  0  0  0  0
  129.8370  128.4110   62.6000 C   0  0  0  0  0  0  0  0  0  0  0  0
  129.5120  127.8450   63.8860 C   0  0  0  0  0  0  0  0  0  0  0  0
  129.7780  126.5370   64.2040 N   0  0  0  0  0  0  0  0  0  0  0  0
  128.3890  127.3240   69.0830 C   0  0  0  0  0  0  0  0  0  0  0  0
  128.4110  127.1760   70.4670 C   0  0  0  0  0  0  0  0  0  0  0  0
  129.5368  123.5833   72.7118 H   0  0  0  0  0  0  0  0  0  0  0  0
  129.0817  124.6808   71.3646 H   0  0  0  0  0  0  0  0  0  0  0  0
  130.6881  123.8769   71.3646 H   0  0  0  0  0  0  0  0  0  0  0  0
  131.0309  125.1492   73.6552 H   0  0  0  0  0  0  0  0  0  0  0  0
  131.2117  126.0538   72.1140 H   0  0  0  0  0  0  0  0  0  0  0  0
  131.1082  129.1396   71.1890 H   0  0  0  0  0  0  0  0  0  0  0  0
  131.0720  129.4021   68.7204 H   0  0  0  0  0  0  0  0  0  0  0  0
  130.3600  128.4260   66.7020 H   0  0  0  0  0  0  0  0  0  0  0  0
  131.9300  129.9225   58.3182 H   0  0  0  0  0  0  0  0  0  0  0  0
  132.1088  131.4430   56.3664 H   0  0  0  0  0  0  0  0  0  0  0  0
  130.2944  131.7881   54.6415 H   0  0  0  0  0  0  0  0  0  0  0  0
  129.6615  133.3378   53.9898 H   0  0  0  0  0  0  0  0  0  0  0  0
  131.4292  133.0186   53.9898 H   0  0  0  0  0  0  0  0  0  0  0  0
  128.6926  133.6725   57.7864 H   0  0  0  0  0  0  0  0  0  0  0  0
  128.5181  132.1557   59.7442 H   0  0  0  0  0  0  0  0  0  0  0  0
  131.0332  128.3298   59.3971 H   0  0  0  0  0  0  0  0  0  0  0  0
  132.3761  126.7721   63.0072 H   0  0  0  0  0  0  0  0  0  0  0  0
  133.2639  124.4555   62.8920 H   0  0  0  0  0  0  0  0  0  0  0  0
  133.0666  122.4321   63.2409 H   0  0  0  0  0  0  0  0  0  0  0  0
  133.8043  121.2256   62.1333 H   0  0  0  0  0  0  0  0  0  0  0  0
  134.3930  122.9226   62.1333 H   0  0  0  0  0  0  0  0  0  0  0  0
  130.6164  123.6045   59.5824 H   0  0  0  0  0  0  0  0  0  0  0  0
  129.7284  125.9238   59.7034 H   0  0  0  0  0  0  0  0  0  0  0  0
  130.6340  126.2730   64.6710 H   0  0  0  0  0  0  0  0  0  0  0  0
  129.1270  125.7950   63.9890 H   0  0  0  0  0  0  0  0  0  0  0  0
  127.6211  126.8078   68.4881 H   0  0  0  0  0  0  0  0  0  0  0  0
  127.6577  126.5428   70.9585 H   0  0  0  0  0  0  0  0  0  0  0  0
  1  2  1  0
  2  3  1  0
  3  4  1  0
  4  5  2  0
  4  6  1  0
  6  7  2  0
  7  8  1  0
  8  9  2  0
  9 10  1  0
 10 11  1  0
 11 12  2  0
 11 13  1  0
 13 14  1  0
 14 15  1  0
 15 16  2  0
 16 17  1  0
 17 18  1  0
 18 19  2  0
 19 20  1  0
 20 21  2  0
 21 22  1  0
 22 23  1  0
 21 24  1  0
 24 25  2  0
 17 26  2  0
 26 27  1  0
 27 28  1  0
 28 29  2  0
 29 30  1  0
 30 31  2  0
 31 32  1  0
 32 33  1  0
 31 34  1  0
 34 35  2  0
 27 36  2  0
 36 37  1  0
 37 38  1  0
  9 39  1  0
 39 40  2  0
 40  6  1  0
 37 13  2  0
 36 15  1  0
 25 18  1  0
 35 28  1  0
  1 41  1  0
  1 42  1  0
  1 43  1  0
  2 44  1  0
  2 45  1  0
  7 46  1  0
  8 47  1  0
 10 48  1  0
 19 49  1  0
 20 50  1  0
 23 51  1  0
 23 52  1  0
 23 53  1  0
 24 54  1  0
 25 55  1  0
 26 56  1  0
 29 57  1  0
 30 58  1  0
 33 59  1  0
 33 60  1  0
 33 61  1  0
 34 62  1  0
 35 63  1  0
 38 64  1  0
 38 65  1  0
 39 66  1  0
 40 67  1  0
M  END
>  <Binding energies>  (1) 
[-8.89]

>  <Ligand effiencies>  (1) 
[-0.20674418604651165]

>  <Interactions>  (1) 
["V-A:HIS:456:CE1:4064, V-A:ASP:366:CG:3208, H-A:GLU:543:OE1:4904, V-B:GLU:543:CD:9876, V-A:GLU:543:CD:4903, H-B:GLU:543:OE2:9878, V-A:PRO:540:N:4879, V-A:TYR:539:C:4862, V-A:TYR:539:CD1:4868, V-A:PRO:540:CA:4878, V-A:TYR:539:CG:4867, V-A:PRO:540:CD:4882, V-A:ILE:538:CA:4855, V-A:PRO:540:CB:4880, V-A:GLY:454:CA:4044, V-A:GLU:543:CB:4901, V-B:HIS:456:CE1:9037, V-A:ILE:369:CD1:3234, V-A:LEU:475:CD2:4254, H-A:TYR:539:N:4865, V-A:GLU:543:CG:4902, V-A:ILE:538:CD1:4860, V-A:GLU:543:C:4897, H-B:LYS:547:NZ:9919, H-A:LYS:547:NZ:4946, V-A:HIS:456:CG:4061, V-A:GLY:544:C:4907"]

$$$$
8b_Ghoteimi_2023
     RDKit          3D

 54 58  0  0  0  0  0  0  0  0999 V2000
  128.0350  130.2750   74.6310 C   0  0  0  0  0  0  0  0  0  0  0  0
  129.0320  129.3330   74.2470 O   0  0  0  0  0  0  0  0  0  0  0  0
  129.1400  128.9710   72.9180 C   0  0  0  0  0  0  0  0  0  0  0  0
  128.0110  128.4030   72.3340 C   0  0  0  0  0  0  0  0  0  0  0  0
  128.0270  128.0060   71.0000 C   0  0  0  0  0  0  0  0  0  0  0  0
  129.1780  128.1680   70.2150 C   0  0  0  0  0  0  0  0  0  0  0  0
  129.2020  127.7410   68.7810 C   0  0  0  0  0  0  0  0  0  0  0  0
  128.6670  128.5410   67.7650 C   0  0  0  0  0  0  0  0  0  0  0  0
  128.7030  128.1190   66.4330 C   0  0  0  0  0  0  0  0  0  0  0  0
  128.1190  128.9850   65.3830 C   0  0  0  0  0  0  0  0  0  0  0  0
  126.9510  128.6000   64.7230 C   0  0  0  0  0  0  0  0  0  0  0  0
  126.3980  129.4200   63.7430 C   0  0  0  0  0  0  0  0  0  0  0  0
  127.0040  130.6320   63.4070 C   0  0  0  0  0  0  0  0  0  0  0  0
  126.3840  131.3800   62.4240 O   0  0  0  0  0  0  0  0  0  0  0  0
  126.7170  132.7570   62.2860 C   0  0  0  0  0  0  0  0  0  0  0  0
  128.1810  131.0140   64.0680 C   0  0  0  0  0  0  0  0  0  0  0  0
  128.7330  130.1940   65.0490 C   0  0  0  0  0  0  0  0  0  0  0  0
  129.3040  126.8640   66.1440 C   0  0  0  0  0  0  0  0  0  0  0  0
  129.5140  126.1420   64.9170 C   0  0  0  0  0  0  0  0  0  0  0  0
  129.1110  126.6290   63.7000 N   0  0  0  0  0  0  0  0  0  0  0  0
  130.1630  124.9090   65.0870 C   0  0  0  0  0  0  0  0  0  0  0  0
  130.5370  123.9270   64.0670 C   0  0  0  0  0  0  0  0  0  0  0  0
  131.6270  123.3530   64.1160 O   0  0  0  0  0  0  0  0  0  0  0  0
  129.6120  123.7150   63.0970 N   0  0  0  0  0  0  0  0  0  0  0  0
  129.7010  122.8450   62.0190 C   0  0  0  0  0  0  0  0  0  0  0  0
  130.8870  122.6120   61.3250 C   0  0  0  0  0  0  0  0  0  0  0  0
  130.5560  121.7060   60.3440 C   0  0  0  0  0  0  0  0  0  0  0  0
  129.2400  121.4050   60.4440 O   0  0  0  0  0  0  0  0  0  0  0  0
  128.7080  122.1320   61.5110 N   0  0  0  0  0  0  0  0  0  0  0  0
  130.5350  124.6140   66.7870 S   0  0  0  0  0  0  0  0  0  0  0  0
  129.8200  126.1390   67.2560 C   0  0  0  0  0  0  0  0  0  0  0  0
  129.7830  126.5380   68.5270 N   0  0  0  0  0  0  0  0  0  0  0  0
  130.3100  128.7420   70.8080 C   0  0  0  0  0  0  0  0  0  0  0  0
  130.2970  129.1390   72.1430 C   0  0  0  0  0  0  0  0  0  0  0  0
  127.9816  130.3255   75.7285 H   0  0  0  0  0  0  0  0  0  0  0  0
  128.2936  131.2663   74.2305 H   0  0  0  0  0  0  0  0  0  0  0  0
  127.0599  129.9607   74.2305 H   0  0  0  0  0  0  0  0  0  0  0  0
  127.0980  128.2667   72.9323 H   0  0  0  0  0  0  0  0  0  0  0  0
  127.1253  127.5594   70.5557 H   0  0  0  0  0  0  0  0  0  0  0  0
  128.2139  129.5111   68.0171 H   0  0  0  0  0  0  0  0  0  0  0  0
  126.4660  127.6461   64.9778 H   0  0  0  0  0  0  0  0  0  0  0  0
  125.4760  129.1103   63.2292 H   0  0  0  0  0  0  0  0  0  0  0  0
  126.8264  133.2094   63.2827 H   0  0  0  0  0  0  0  0  0  0  0  0
  127.6639  132.8517   61.7343 H   0  0  0  0  0  0  0  0  0  0  0  0
  125.9180  133.2740   61.7343 H   0  0  0  0  0  0  0  0  0  0  0  0
  128.6699  131.9651   63.8104 H   0  0  0  0  0  0  0  0  0  0  0  0
  129.6563  130.4998   65.5628 H   0  0  0  0  0  0  0  0  0  0  0  0
  129.5140  127.4710   63.3110 H   0  0  0  0  0  0  0  0  0  0  0  0
  128.3980  126.1680   63.1520 H   0  0  0  0  0  0  0  0  0  0  0  0
  128.7540  124.2440   63.1590 H   0  0  0  0  0  0  0  0  0  0  0  0
  131.8742  123.0564   61.5196 H   0  0  0  0  0  0  0  0  0  0  0  0
  131.2500  121.2922   59.5975 H   0  0  0  0  0  0  0  0  0  0  0  0
  131.2229  128.8813   70.2103 H   0  0  0  0  0  0  0  0  0  0  0  0
  131.1969  129.5857   72.5910 H   0  0  0  0  0  0  0  0  0  0  0  0
  1  2  1  0
  2  3  1  0
  3  4  2  0
  4  5  1  0
  5  6  2  0
  6  7  1  0
  7  8  2  0
  8  9  1  0
  9 10  1  0
 10 11  2  0
 11 12  1  0
 12 13  2  0
 13 14  1  0
 14 15  1  0
 13 16  1  0
 16 17  2  0
  9 18  2  0
 18 19  1  0
 19 20  1  0
 19 21  2  0
 21 22  1  0
 22 23  2  0
 22 24  1  0
 24 25  1  0
 25 26  1  0
 26 27  2  0
 27 28  1  0
 28 29  1  0
 21 30  1  0
 30 31  1  0
 31 32  2  0
  6 33  1  0
 33 34  2  0
 34  3  1  0
 32  7  1  0
 17 10  1  0
 31 18  1  0
 29 25  2  0
  1 35  1  0
  1 36  1  0
  1 37  1  0
  4 38  1  0
  5 39  1  0
  8 40  1  0
 11 41  1  0
 12 42  1  0
 15 43  1  0
 15 44  1  0
 15 45  1  0
 16 46  1  0
 17 47  1  0
 20 48  1  0
 20 49  1  0
 24 50  1  0
 26 51  1  0
 27 52  1  0
 33 53  1  0
 34 54  1  0
M  END
>  <Binding energies>  (1) 
[-7.89]

>  <Ligand effiencies>  (1) 
[-0.21324324324324323]

>  <Interactions>  (1) 
["V-B:ALA:541:CB:9860, V-A:HIS:456:CE1:4064, H-A:GLU:543:OE2:4905, H-A:TYR:484:OH:4343, H-A:GLU:543:OE1:4904, V-B:GLU:543:CD:9876, V-B:GLU:543:CG:9875, H-A:HIS:456:NE2:4065, V-B:GLU:543:CB:9874, V-A:GLU:543:CD:4903, H-B:ALA:541:N:9859, H-B:GLU:543:OE2:9878, V-A:GLU:543:CB:4901, V-A:TYR:484:CZ:4342, V-B:HIS:456:CE1:9037, V-A:GLU:543:CG:4902, V-A:GLU:543:C:4897, V-B:HIS:456:CD2:9035, V-A:LYS:547:CE:4945, H-A:LYS:547:NZ:4946, V-A:TYR:484:CE1:4340, H-B:GLU:543:OE1:9877, V-A:GLY:544:C:4907"]

$$$$
8c_Ghoteimi_2023
     RDKit          3D

 54 58  0  0  0  0  0  0  0  0999 V2000
  128.0290  130.2460   74.6370 C   0  0  0  0  0  0  0  0  0  0  0  0
  129.0330  129.3150   74.2490 O   0  0  0  0  0  0  0  0  0  0  0  0
  129.1420  128.9570   72.9190 C   0  0  0  0  0  0  0  0  0  0  0  0
  128.0140  128.3860   72.3330 C   0  0  0  0  0  0  0  0  0  0  0  0
  128.0340  127.9910   70.9980 C   0  0  0  0  0  0  0  0  0  0  0  0
  129.1840  128.1590   70.2140 C   0  0  0  0  0  0  0  0  0  0  0  0
  129.2130  127.7340   68.7800 C   0  0  0  0  0  0  0  0  0  0  0  0
  128.6510  128.5170   67.7670 C   0  0  0  0  0  0  0  0  0  0  0  0
  128.6940  128.0970   66.4330 C   0  0  0  0  0  0  0  0  0  0  0  0
  128.0820  128.9470   65.3860 C   0  0  0  0  0  0  0  0  0  0  0  0
  126.8430  128.6060   64.8390 C   0  0  0  0  0  0  0  0  0  0  0  0
  126.2650  129.4100   63.8610 C   0  0  0  0  0  0  0  0  0  0  0  0
  126.9150  130.5620   63.4140 C   0  0  0  0  0  0  0  0  0  0  0  0
  126.2650  131.3000   62.4440 O   0  0  0  0  0  0  0  0  0  0  0  0
  126.6820  132.6380   62.1940 C   0  0  0  0  0  0  0  0  0  0  0  0
  128.1620  130.9010   63.9630 C   0  0  0  0  0  0  0  0  0  0  0  0
  128.7390  130.0950   64.9410 C   0  0  0  0  0  0  0  0  0  0  0  0
  129.3270  126.8600   66.1420 C   0  0  0  0  0  0  0  0  0  0  0  0
  129.5500  126.1430   64.9150 C   0  0  0  0  0  0  0  0  0  0  0  0
  129.1270  126.6180   63.6990 N   0  0  0  0  0  0  0  0  0  0  0  0
  130.2330  124.9280   65.0810 C   0  0  0  0  0  0  0  0  0  0  0  0
  130.6280  123.9560   64.0590 C   0  0  0  0  0  0  0  0  0  0  0  0
  131.7670  123.4850   64.0440 O   0  0  0  0  0  0  0  0  0  0  0  0
  129.6640  123.6330   63.1620 N   0  0  0  0  0  0  0  0  0  0  0  0
  129.7740  122.7420   62.1030 C   0  0  0  0  0  0  0  0  0  0  0  0
  129.3170  122.8830   60.8780 N   0  0  0  0  0  0  0  0  0  0  0  0
  129.6070  121.8380   60.1290 C   0  0  0  0  0  0  0  0  0  0  0  0
  130.3160  120.8140   60.7480 C   0  0  0  0  0  0  0  0  0  0  0  0
  130.6140  121.2550   62.4040 S   0  0  0  0  0  0  0  0  0  0  0  0
  130.6230  124.6440   66.7780 S   0  0  0  0  0  0  0  0  0  0  0  0
  129.8690  126.1480   67.2520 C   0  0  0  0  0  0  0  0  0  0  0  0
  129.8270  126.5470   68.5230 N   0  0  0  0  0  0  0  0  0  0  0  0
  130.3130  128.7360   70.8100 C   0  0  0  0  0  0  0  0  0  0  0  0
  130.2970  129.1310   72.1440 C   0  0  0  0  0  0  0  0  0  0  0  0
  127.9777  130.2936   75.7348 H   0  0  0  0  0  0  0  0  0  0  0  0
  128.2773  131.2406   74.2381 H   0  0  0  0  0  0  0  0  0  0  0  0
  127.0560  129.9234   74.2381 H   0  0  0  0  0  0  0  0  0  0  0  0
  127.1006  128.2462   72.9298 H   0  0  0  0  0  0  0  0  0  0  0  0
  127.1348  127.5408   70.5522 H   0  0  0  0  0  0  0  0  0  0  0  0
  128.1701  129.4730   68.0214 H   0  0  0  0  0  0  0  0  0  0  0  0
  126.3226  127.6996   65.1821 H   0  0  0  0  0  0  0  0  0  0  0  0
  125.2879  129.1356   63.4367 H   0  0  0  0  0  0  0  0  0  0  0  0
  126.8436  133.1565   63.1506 H   0  0  0  0  0  0  0  0  0  0  0  0
  127.6198  132.6284   61.6191 H   0  0  0  0  0  0  0  0  0  0  0  0
  125.9048  133.1629   61.6191 H   0  0  0  0  0  0  0  0  0  0  0  0
  128.6847  131.8059   63.6196 H   0  0  0  0  0  0  0  0  0  0  0  0
  129.7176  130.3645   65.3649 H   0  0  0  0  0  0  0  0  0  0  0  0
  128.3960  126.1540   63.1770 H   0  0  0  0  0  0  0  0  0  0  0  0
  129.5300  127.4440   63.2820 H   0  0  0  0  0  0  0  0  0  0  0  0
  128.7640  124.0780   63.2690 H   0  0  0  0  0  0  0  0  0  0  0  0
  129.3050  121.7790   59.0729 H   0  0  0  0  0  0  0  0  0  0  0  0
  130.6363  119.8774   60.2682 H   0  0  0  0  0  0  0  0  0  0  0  0
  131.2264  128.8790   70.2140 H   0  0  0  0  0  0  0  0  0  0  0  0
  131.1946  129.5818   72.5924 H   0  0  0  0  0  0  0  0  0  0  0  0
  1  2  1  0
  2  3  1  0
  3  4  2  0
  4  5  1  0
  5  6  2  0
  6  7  1  0
  7  8  2  0
  8  9  1  0
  9 10  1  0
 10 11  2  0
 11 12  1  0
 12 13  2  0
 13 14  1  0
 14 15  1  0
 13 16  1  0
 16 17  2  0
  9 18  2  0
 18 19  1  0
 19 20  1  0
 19 21  2  0
 21 22  1  0
 22 23  2  0
 22 24  1  0
 24 25  1  0
 25 26  2  0
 26 27  1  0
 27 28  2  0
 28 29  1  0
 21 30  1  0
 30 31  1  0
 31 32  2  0
  6 33  1  0
 33 34  2  0
 34  3  1  0
 32  7  1  0
 17 10  1  0
 31 18  1  0
 29 25  1  0
  1 35  1  0
  1 36  1  0
  1 37  1  0
  4 38  1  0
  5 39  1  0
  8 40  1  0
 11 41  1  0
 12 42  1  0
 15 43  1  0
 15 44  1  0
 15 45  1  0
 16 46  1  0
 17 47  1  0
 20 48  1  0
 20 49  1  0
 24 50  1  0
 27 51  1  0
 28 52  1  0
 33 53  1  0
 34 54  1  0
M  END
>  <Binding energies>  (1) 
[-8.08]

>  <Ligand effiencies>  (1) 
[-0.21837837837837837]

>  <Interactions>  (1) 
["V-B:ALA:541:CB:9860, V-B:TYR:539:CD2:9842, V-A:HIS:456:CE1:4064, H-A:TYR:484:OH:4343, H-A:GLU:543:OE1:4904, V-B:GLU:543:CD:9876, V-B:GLU:543:CG:9875, H-A:HIS:456:NE2:4065, V-B:GLU:543:CB:9874, V-A:GLU:543:CD:4903, H-B:GLU:543:OE2:9878, V-A:GLU:543:CB:4901, V-A:TYR:484:CZ:4342, V-B:HIS:456:CE1:9037, V-A:LEU:475:CD2:4254, V-A:GLU:543:CG:4902, V-A:GLU:543:C:4897, V-B:HIS:456:CD2:9035, V-A:LYS:547:CE:4945, H-A:LYS:547:NZ:4946, V-A:TYR:484:CE1:4340, H-B:GLU:543:OE1:9877, V-A:GLY:544:C:4907"]

$$$$
8d_Ghoteimi_2023
     RDKit          3D

 50 53  0  0  0  0  0  0  0  0999 V2000
  134.5140  125.0010   63.3750 C   0  0  0  0  0  0  0  0  0  0  0  0
  134.0180  124.7540   64.6830 O   0  0  0  0  0  0  0  0  0  0  0  0
  132.7000  124.9120   64.9700 C   0  0  0  0  0  0  0  0  0  0  0  0
  132.2480  125.0070   66.1140 O   0  0  0  0  0  0  0  0  0  0  0  0
  131.8490  124.9580   63.7600 C   0  0  0  0  0  0  0  0  0  0  0  0
  131.2500  123.4600   63.0470 S   0  0  0  0  0  0  0  0  0  0  0  0
  130.4210  124.3450   61.7870 C   0  0  0  0  0  0  0  0  0  0  0  0
  129.7150  123.7260   60.8400 N   0  0  0  0  0  0  0  0  0  0  0  0
  129.1090  124.5090   59.9090 C   0  0  0  0  0  0  0  0  0  0  0  0
  128.3270  123.7900   58.8560 C   0  0  0  0  0  0  0  0  0  0  0  0
  126.9250  123.8230   58.8440 C   0  0  0  0  0  0  0  0  0  0  0  0
  126.2030  123.1510   57.8630 C   0  0  0  0  0  0  0  0  0  0  0  0
  126.8600  122.4290   56.8670 C   0  0  0  0  0  0  0  0  0  0  0  0
  126.0630  121.7950   55.9350 O   0  0  0  0  0  0  0  0  0  0  0  0
  124.6550  122.0040   55.9670 C   0  0  0  0  0  0  0  0  0  0  0  0
  128.2620  122.3910   56.8680 C   0  0  0  0  0  0  0  0  0  0  0  0
  128.9810  123.0650   57.8520 C   0  0  0  0  0  0  0  0  0  0  0  0
  129.2160  125.9030   59.9220 C   0  0  0  0  0  0  0  0  0  0  0  0
  129.9540  126.5520   60.9170 C   0  0  0  0  0  0  0  0  0  0  0  0
  130.0410  128.0310   60.9090 C   0  0  0  0  0  0  0  0  0  0  0  0
  129.2000  128.7880   61.7260 C   0  0  0  0  0  0  0  0  0  0  0  0
  129.2760  130.1780   61.7120 C   0  0  0  0  0  0  0  0  0  0  0  0
  130.1930  130.8300   60.8880 C   0  0  0  0  0  0  0  0  0  0  0  0
  130.1970  132.2100   60.9390 O   0  0  0  0  0  0  0  0  0  0  0  0
  128.9990  132.9200   60.6430 C   0  0  0  0  0  0  0  0  0  0  0  0
  131.0410  130.0660   60.0690 C   0  0  0  0  0  0  0  0  0  0  0  0
  130.9630  128.6760   60.0840 C   0  0  0  0  0  0  0  0  0  0  0  0
  130.5930  125.7540   61.9020 C   0  0  0  0  0  0  0  0  0  0  0  0
  131.4130  126.0750   63.0370 C   0  0  0  0  0  0  0  0  0  0  0  0
  131.7390  127.3650   63.3720 N   0  0  0  0  0  0  0  0  0  0  0  0
  135.4968  125.4904   63.4419 H   0  0  0  0  0  0  0  0  0  0  0  0
  134.6150  124.0479   62.8351 H   0  0  0  0  0  0  0  0  0  0  0  0
  133.8143  125.6559   62.8351 H   0  0  0  0  0  0  0  0  0  0  0  0
  126.3890  124.3879   59.6209 H   0  0  0  0  0  0  0  0  0  0  0  0
  125.1037  123.1895   57.8730 H   0  0  0  0  0  0  0  0  0  0  0  0
  124.3155  122.0544   57.0121 H   0  0  0  0  0  0  0  0  0  0  0  0
  124.4127  122.9479   55.4568 H   0  0  0  0  0  0  0  0  0  0  0  0
  124.1490  121.1711   55.4568 H   0  0  0  0  0  0  0  0  0  0  0  0
  128.7955  121.8269   56.0888 H   0  0  0  0  0  0  0  0  0  0  0  0
  130.0803  123.0273   57.8404 H   0  0  0  0  0  0  0  0  0  0  0  0
  128.7148  126.4950   59.1420 H   0  0  0  0  0  0  0  0  0  0  0  0
  128.4751  128.2849   62.3828 H   0  0  0  0  0  0  0  0  0  0  0  0
  128.6070  130.7671   62.3564 H   0  0  0  0  0  0  0  0  0  0  0  0
  128.5050  133.2128   61.5812 H   0  0  0  0  0  0  0  0  0  0  0  0
  129.2411  133.8205   60.0596 H   0  0  0  0  0  0  0  0  0  0  0  0
  128.3253  132.2752   60.0596 H   0  0  0  0  0  0  0  0  0  0  0  0
  131.7687  130.5674   59.4140 H   0  0  0  0  0  0  0  0  0  0  0  0
  131.6316  128.0834   59.4423 H   0  0  0  0  0  0  0  0  0  0  0  0
  132.2380  127.5790   64.2240 H   0  0  0  0  0  0  0  0  0  0  0  0
  131.4990  128.1440   62.7760 H   0  0  0  0  0  0  0  0  0  0  0  0
  1  2  1  0
  2  3  1  0
  3  4  2  0
  3  5  1  0
  5  6  1  0
  6  7  1  0
  7  8  2  0
  8  9  1  0
  9 10  1  0
 10 11  2  0
 11 12  1  0
 12 13  2  0
 13 14  1  0
 14 15  1  0
 13 16  1  0
 16 17  2  0
  9 18  2  0
 18 19  1  0
 19 20  1  0
 20 21  2  0
 21 22  1  0
 22 23  2  0
 23 24  1  0
 24 25  1  0
 23 26  1  0
 26 27  2  0
 19 28  2  0
 28 29  1  0
 29 30  1  0
 29  5  2  0
 28  7  1  0
 17 10  1  0
 27 20  1  0
  1 31  1  0
  1 32  1  0
  1 33  1  0
 11 34  1  0
 12 35  1  0
 15 36  1  0
 15 37  1  0
 15 38  1  0
 16 39  1  0
 17 40  1  0
 18 41  1  0
 21 42  1  0
 22 43  1  0
 25 44  1  0
 25 45  1  0
 25 46  1  0
 26 47  1  0
 27 48  1  0
 30 49  1  0
 30 50  1  0
M  END
>  <Binding energies>  (1) 
[-6.72]

>  <Ligand effiencies>  (1) 
[-0.21]

>  <Interactions>  (1) 
["V-B:TYR:539:CE2:9844, V-B:MET:535:CE:9803, V-B:PRO:540:CD:9855, V-B:PRO:540:CA:9851, V-B:TYR:539:CD2:9842, V-B:PRO:540:N:9852, V-B:PRO:540:CB:9853, V-B:TYR:539:CE1:9843, V-B:TYR:539:C:9835, V-B:TYR:539:CZ:9845, V-A:ASP:366:CG:3208, H-A:GLU:543:OE2:4905, H-A:TYR:484:OH:4343, H-A:GLY:454:N:4045, H-A:GLU:543:OE1:4904, V-A:ARG:545:CZ:4921, H-A:HIS:456:NE2:4065, V-A:GLU:543:CD:4903, V-A:PRO:540:CA:4878, H-A:ALA:541:N:4886, H-A:ASP:366:OD2:3210, V-A:GLY:453:CA:4039, V-A:GLY:453:C:4037, V-B:LEU:363:CD1:8156, H-B:TYR:539:N:9838, V-B:PRO:540:CG:9854, V-B:ILE:538:CG2:9831, V-B:TYR:539:CD1:9841, V-B:TYR:539:CA:9837, V-B:TYR:539:CG:9840, V-B:ILE:538:CA:9828, V-B:ILE:538:CB:9830"]

$$$$
9a_Ghoteimi_2023
     RDKit          3D

 85 91  0  0  0  0  0  0  0  0999 V2000
  124.8300  130.0870   57.8570 C   0  0  0  0  0  0  0  0  0  0  0  0
  123.8610  130.7090   58.8680 C   0  0  0  0  0  0  0  0  0  0  0  0
  124.2400  132.0570   59.1210 O   0  0  0  0  0  0  0  0  0  0  0  0
  124.2800  132.5480   60.3850 C   0  0  0  0  0  0  0  0  0  0  0  0
  123.7100  133.5890   60.7290 O   0  0  0  0  0  0  0  0  0  0  0  0
  125.0930  131.7050   61.3250 C   0  0  0  0  0  0  0  0  0  0  0  0
  124.4410  130.7910   62.1630 C   0  0  0  0  0  0  0  0  0  0  0  0
  125.1670  129.9970   63.0460 C   0  0  0  0  0  0  0  0  0  0  0  0
  126.5560  130.0970   63.1100 C   0  0  0  0  0  0  0  0  0  0  0  0
  127.1850  129.2460   64.0390 N   0  0  0  0  0  0  0  0  0  0  0  0
  127.9590  129.5370   65.1140 C   0  0  0  0  0  0  0  0  0  0  0  0
  128.2510  130.6800   65.4670 O   0  0  0  0  0  0  0  0  0  0  0  0
  128.4450  128.3780   65.8680 C   0  0  0  0  0  0  0  0  0  0  0  0
  128.2370  128.3030   67.6190 S   0  0  0  0  0  0  0  0  0  0  0  0
  129.0100  126.7370   67.6890 C   0  0  0  0  0  0  0  0  0  0  0  0
  129.1530  126.0800   68.8400 N   0  0  0  0  0  0  0  0  0  0  0  0
  129.7570  124.8630   68.7840 C   0  0  0  0  0  0  0  0  0  0  0  0
  129.8970  124.1390   70.0840 C   0  0  0  0  0  0  0  0  0  0  0  0
  130.0560  122.7490   70.1110 C   0  0  0  0  0  0  0  0  0  0  0  0
  130.1880  122.0670   71.3170 C   0  0  0  0  0  0  0  0  0  0  0  0
  130.1790  122.7520   72.5430 C   0  0  0  0  0  0  0  0  0  0  0  0
  130.2910  122.0790   73.7630 N   0  0  0  0  0  0  0  0  0  0  0  0
  130.9150  120.7430   73.8530 C   0  0  0  0  0  0  0  0  0  0  0  0
  130.6290  120.0100   75.1810 C   0  0  0  0  0  0  0  0  0  0  0  0
  131.0100  120.8250   76.2780 O   0  0  0  0  0  0  0  0  0  0  0  0
  130.2920  122.0480   76.2910 C   0  0  0  0  0  0  0  0  0  0  0  0
  130.5740  122.8400   74.9980 C   0  0  0  0  0  0  0  0  0  0  0  0
  130.0050  124.1440   72.5110 C   0  0  0  0  0  0  0  0  0  0  0  0
  129.8700  124.8240   71.3050 C   0  0  0  0  0  0  0  0  0  0  0  0
  130.2380  124.3230   67.5890 C   0  0  0  0  0  0  0  0  0  0  0  0
  130.1080  125.0200   66.3820 C   0  0  0  0  0  0  0  0  0  0  0  0
  130.6700  124.4160   65.1470 C   0  0  0  0  0  0  0  0  0  0  0  0
  131.8220  124.9440   64.5570 C   0  0  0  0  0  0  0  0  0  0  0  0
  132.3550  124.3690   63.4080 C   0  0  0  0  0  0  0  0  0  0  0  0
  131.7600  123.2380   62.8250 C   0  0  0  0  0  0  0  0  0  0  0  0
  132.2710  122.6510   61.6650 N   0  0  0  0  0  0  0  0  0  0  0  0
  132.4800  123.4880   60.4670 C   0  0  0  0  0  0  0  0  0  0  0  0
  133.3840  122.8220   59.4080 C   0  0  0  0  0  0  0  0  0  0  0  0
  132.8620  121.5510   59.0520 O   0  0  0  0  0  0  0  0  0  0  0  0
  132.7890  120.6830   60.1720 C   0  0  0  0  0  0  0  0  0  0  0  0
  131.8690  121.2910   61.2520 C   0  0  0  0  0  0  0  0  0  0  0  0
  130.6060  122.7150   63.4270 C   0  0  0  0  0  0  0  0  0  0  0  0
  130.0710  123.2930   64.5740 C   0  0  0  0  0  0  0  0  0  0  0  0
  129.4460  126.2800   66.4110 C   0  0  0  0  0  0  0  0  0  0  0  0
  129.0880  127.2280   65.3850 C   0  0  0  0  0  0  0  0  0  0  0  0
  129.3450  127.0080   64.0560 N   0  0  0  0  0  0  0  0  0  0  0  0
  127.2190  131.0080   62.2720 C   0  0  0  0  0  0  0  0  0  0  0  0
  126.4920  131.8020   61.3890 C   0  0  0  0  0  0  0  0  0  0  0  0
  125.6377  129.5685   58.3944 H   0  0  0  0  0  0  0  0  0  0  0  0
  124.2888  129.3671   57.2254 H   0  0  0  0  0  0  0  0  0  0  0  0
  125.2591  130.8788   57.2254 H   0  0  0  0  0  0  0  0  0  0  0  0
  122.8400  130.6857   58.4594 H   0  0  0  0  0  0  0  0  0  0  0  0
  123.8934  130.1367   59.8068 H   0  0  0  0  0  0  0  0  0  0  0  0
  123.3455  130.7001   62.1228 H   0  0  0  0  0  0  0  0  0  0  0  0
  124.6406  129.2849   63.6985 H   0  0  0  0  0  0  0  0  0  0  0  0
  127.0230  128.2640   63.8700 H   0  0  0  0  0  0  0  0  0  0  0  0
  130.0770  122.1873   69.1655 H   0  0  0  0  0  0  0  0  0  0  0  0
  130.3013  120.9729   71.3098 H   0  0  0  0  0  0  0  0  0  0  0  0
  130.5330  120.1254   73.0268 H   0  0  0  0  0  0  0  0  0  0  0  0
  132.0033  120.8933   73.7980 H   0  0  0  0  0  0  0  0  0  0  0  0
  129.5541  119.7866   75.2494 H   0  0  0  0  0  0  0  0  0  0  0  0
  131.2074  119.0747   75.2085 H   0  0  0  0  0  0  0  0  0  0  0  0
  129.2147  121.8370   76.3611 H   0  0  0  0  0  0  0  0  0  0  0  0
  130.6128  122.6454   77.1571 H   0  0  0  0  0  0  0  0  0  0  0  0
  129.9473  123.7440   75.0005 H   0  0  0  0  0  0  0  0  0  0  0  0
  131.6486  123.0752   74.9923 H   0  0  0  0  0  0  0  0  0  0  0  0
  129.9748  124.7070   73.4555 H   0  0  0  0  0  0  0  0  0  0  0  0
  129.7401  125.9163   71.3106 H   0  0  0  0  0  0  0  0  0  0  0  0
  130.7254  123.3369   67.5965 H   0  0  0  0  0  0  0  0  0  0  0  0
  132.3111  125.8215   65.0051 H   0  0  0  0  0  0  0  0  0  0  0  0
  133.2545  124.8059   62.9498 H   0  0  0  0  0  0  0  0  0  0  0  0
  131.5009  123.6948   60.0102 H   0  0  0  0  0  0  0  0  0  0  0  0
  132.9860  124.4077   60.7959 H   0  0  0  0  0  0  0  0  0  0  0  0
  133.4283  123.4608   58.5136 H   0  0  0  0  0  0  0  0  0  0  0  0
  134.3934  122.6929   59.8256 H   0  0  0  0  0  0  0  0  0  0  0  0
  132.3842  119.7110   59.8538 H   0  0  0  0  0  0  0  0  0  0  0  0
  133.7972  120.5482   60.5907 H   0  0  0  0  0  0  0  0  0  0  0  0
  130.8449  121.3358   60.8531 H   0  0  0  0  0  0  0  0  0  0  0  0
  131.9403  120.6466   62.1406 H   0  0  0  0  0  0  0  0  0  0  0  0
  130.1165  121.8344   62.9855 H   0  0  0  0  0  0  0  0  0  0  0  0
  129.1691  122.8616   65.0327 H   0  0  0  0  0  0  0  0  0  0  0  0
  128.7900  126.3680   63.5040 H   0  0  0  0  0  0  0  0  0  0  0  0
  130.1020  127.4810   63.5810 H   0  0  0  0  0  0  0  0  0  0  0  0
  128.3148  131.0945   62.3132 H   0  0  0  0  0  0  0  0  0  0  0  0
  127.0191  132.5123   60.7351 H   0  0  0  0  0  0  0  0  0  0  0  0
  1  2  1  0
  2  3  1  0
  3  4  1  0
  4  5  2  0
  4  6  1  0
  6  7  2  0
  7  8  1  0
  8  9  2  0
  9 10  1  0
 10 11  1  0
 11 12  2  0
 11 13  1  0
 13 14  1  0
 14 15  1  0
 15 16  2  0
 16 17  1  0
 17 18  1  0
 18 19  2  0
 19 20  1  0
 20 21  2  0
 21 22  1  0
 22 23  1  0
 23 24  1  0
 24 25  1  0
 25 26  1  0
 26 27  1  0
 21 28  1  0
 28 29  2  0
 17 30  2  0
 30 31  1  0
 31 32  1  0
 32 33  2  0
 33 34  1  0
 34 35  2  0
 35 36  1  0
 36 37  1  0
 37 38  1  0
 38 39  1  0
 39 40  1  0
 40 41  1  0
 35 42  1  0
 42 43  2  0
 31 44  2  0
 44 45  1  0
 45 46  1  0
  9 47  1  0
 47 48  2  0
 48  6  1  0
 45 13  2  0
 44 15  1  0
 29 18  1  0
 43 32  1  0
 27 22  1  0
 41 36  1  0
  1 49  1  0
  1 50  1  0
  1 51  1  0
  2 52  1  0
  2 53  1  0
  7 54  1  0
  8 55  1  0
 10 56  1  0
 19 57  1  0
 20 58  1  0
 23 59  1  0
 23 60  1  0
 24 61  1  0
 24 62  1  0
 26 63  1  0
 26 64  1  0
 27 65  1  0
 27 66  1  0
 28 67  1  0
 29 68  1  0
 30 69  1  0
 33 70  1  0
 34 71  1  0
 37 72  1  0
 37 73  1  0
 38 74  1  0
 38 75  1  0
 40 76  1  0
 40 77  1  0
 41 78  1  0
 41 79  1  0
 42 80  1  0
 43 81  1  0
 46 82  1  0
 46 83  1  0
 47 84  1  0
 48 85  1  0
M  END
>  <Binding energies>  (1) 
[-9.17]

>  <Ligand effiencies>  (1) 
[-0.17980392156862746]

>  <Interactions>  (1) 
["V-B:ALA:541:CB:9860, V-B:TYR:539:CE2:9844, V-A:TRP:381:CH2:3367, V-B:GLU:543:C:9870, V-A:HIS:456:CE1:4064, H-A:GLU:543:OE2:4905, H-A:GLU:543:OE1:4904, V-B:GLU:543:CD:9876, V-B:GLU:543:CG:9875, V-B:GLU:543:CB:9874, V-A:GLU:543:CD:4903, H-B:GLU:543:OE2:9878, V-A:TYR:539:CE2:4871, V-A:TYR:484:CZ:4342, V-A:HIS:456:CD2:4063, V-B:HIS:456:CE1:9037, V-A:ILE:369:CG2:3232, V-A:ILE:369:CD1:3234, V-A:LEU:475:CD2:4254, H-B:TYR:484:OH:9315, V-A:GLU:543:CG:4902, V-A:TYR:484:CG:4337, V-A:TYR:484:CB:4336, V-B:GLU:543:CA:9872, V-A:TYR:484:CD1:4338, V-A:ASP:473:CB:4234, V-B:ASP:366:CG:8180, V-B:ASP:366:CB:8179, H-A:TYR:539:OH:4873, V-A:TYR:484:CE1:4340, V-A:ILE:369:CB:3231, V-A:ASP:473:CG:4235, V-B:ILE:369:CD1:8206, V-A:TYR:484:CE2:4341, V-A:TYR:484:CD2:4339, V-B:ILE:369:CG2:8204, V-B:ASP:366:CA:8177, V-B:ASP:366:C:8175, H-A:LYS:471:NZ:4216"]

$$$$
9b_Ghoteimi_2023
     RDKit          3D

 72 78  0  0  0  0  0  0  0  0999 V2000
  129.8250  127.3020   65.3600 N   0  0  0  0  0  0  0  0  0  0  0  0
  129.5240  127.2720   66.6990 C   0  0  0  0  0  0  0  0  0  0  0  0
  129.0410  128.3830   67.4080 C   0  0  0  0  0  0  0  0  0  0  0  0
  128.7440  129.7280   66.9080 C   0  0  0  0  0  0  0  0  0  0  0  0
  128.6030  130.6720   67.6880 O   0  0  0  0  0  0  0  0  0  0  0  0
  128.6360  129.8380   65.5600 N   0  0  0  0  0  0  0  0  0  0  0  0
  128.3530  130.9810   64.8230 C   0  0  0  0  0  0  0  0  0  0  0  0
  127.5660  130.9690   63.6730 C   0  0  0  0  0  0  0  0  0  0  0  0
  127.5260  132.2790   63.2530 C   0  0  0  0  0  0  0  0  0  0  0  0
  128.2520  133.0400   64.1070 O   0  0  0  0  0  0  0  0  0  0  0  0
  128.7710  132.2060   65.0980 N   0  0  0  0  0  0  0  0  0  0  0  0
  128.7930  127.9940   69.1100 S   0  0  0  0  0  0  0  0  0  0  0  0
  129.3540  126.3580   68.8650 C   0  0  0  0  0  0  0  0  0  0  0  0
  129.4360  125.4900   69.8710 N   0  0  0  0  0  0  0  0  0  0  0  0
  129.9020  124.2470   69.5780 C   0  0  0  0  0  0  0  0  0  0  0  0
  130.0030  123.2990   70.7290 C   0  0  0  0  0  0  0  0  0  0  0  0
  129.1610  122.1850   70.8250 C   0  0  0  0  0  0  0  0  0  0  0  0
  129.2510  121.3140   71.9070 C   0  0  0  0  0  0  0  0  0  0  0  0
  130.1760  121.5330   72.9390 C   0  0  0  0  0  0  0  0  0  0  0  0
  130.2790  120.6640   74.0320 N   0  0  0  0  0  0  0  0  0  0  0  0
  130.4030  121.1750   75.4120 C   0  0  0  0  0  0  0  0  0  0  0  0
  130.1580  120.1060   76.4960 C   0  0  0  0  0  0  0  0  0  0  0  0
  131.0160  118.9970   76.2870 O   0  0  0  0  0  0  0  0  0  0  0  0
  130.7860  118.3910   75.0260 C   0  0  0  0  0  0  0  0  0  0  0  0
  131.0460  119.4080   73.8930 C   0  0  0  0  0  0  0  0  0  0  0  0
  131.0290  122.6390   72.8270 C   0  0  0  0  0  0  0  0  0  0  0  0
  130.9430  123.5090   71.7430 C   0  0  0  0  0  0  0  0  0  0  0  0
  130.2560  123.8700   68.2800 C   0  0  0  0  0  0  0  0  0  0  0  0
  130.1520  124.7730   67.2160 C   0  0  0  0  0  0  0  0  0  0  0  0
  130.5140  124.3140   65.8500 C   0  0  0  0  0  0  0  0  0  0  0  0
  131.5300  124.9530   65.1380 C   0  0  0  0  0  0  0  0  0  0  0  0
  131.8830  124.5130   63.8660 C   0  0  0  0  0  0  0  0  0  0  0  0
  131.2300  123.4220   63.2710 C   0  0  0  0  0  0  0  0  0  0  0  0
  131.5800  122.9540   62.0020 N   0  0  0  0  0  0  0  0  0  0  0  0
  132.8530  123.3900   61.3970 C   0  0  0  0  0  0  0  0  0  0  0  0
  132.9230  123.1340   59.8760 C   0  0  0  0  0  0  0  0  0  0  0  0
  132.6820  121.7610   59.6040 O   0  0  0  0  0  0  0  0  0  0  0  0
  131.4020  121.3520   60.0610 C   0  0  0  0  0  0  0  0  0  0  0  0
  131.2900  121.5680   61.5850 C   0  0  0  0  0  0  0  0  0  0  0  0
  130.2230  122.7770   64.0040 C   0  0  0  0  0  0  0  0  0  0  0  0
  129.8690  123.2170   65.2770 C   0  0  0  0  0  0  0  0  0  0  0  0
  129.7000  126.0910   67.5060 C   0  0  0  0  0  0  0  0  0  0  0  0
  130.7370  127.5820   65.0260 H   0  0  0  0  0  0  0  0  0  0  0  0
  129.1420  127.0450   64.6610 H   0  0  0  0  0  0  0  0  0  0  0  0
  128.7800  128.9990   65.0180 H   0  0  0  0  0  0  0  0  0  0  0  0
  127.0816  130.1005   63.2028 H   0  0  0  0  0  0  0  0  0  0  0  0
  126.9905  132.6488   62.3662 H   0  0  0  0  0  0  0  0  0  0  0  0
  128.4189  121.9955   70.0355 H   0  0  0  0  0  0  0  0  0  0  0  0
  128.5857  120.4392   71.9538 H   0  0  0  0  0  0  0  0  0  0  0  0
  131.4190  121.5757   75.5434 H   0  0  0  0  0  0  0  0  0  0  0  0
  129.6272  121.9443   75.5396 H   0  0  0  0  0  0  0  0  0  0  0  0
  130.3582  120.5396   77.4869 H   0  0  0  0  0  0  0  0  0  0  0  0
  129.1125  119.7688   76.4403 H   0  0  0  0  0  0  0  0  0  0  0  0
  131.4627  117.5321   74.9063 H   0  0  0  0  0  0  0  0  0  0  0  0
  129.7403  118.0537   74.9740 H   0  0  0  0  0  0  0  0  0  0  0  0
  132.1179  119.6549   73.8876 H   0  0  0  0  0  0  0  0  0  0  0  0
  130.7187  118.9344   72.9557 H   0  0  0  0  0  0  0  0  0  0  0  0
  131.7800  122.8233   73.6093 H   0  0  0  0  0  0  0  0  0  0  0  0
  131.6227  124.3719   71.6836 H   0  0  0  0  0  0  0  0  0  0  0  0
  130.6214  122.8496   68.0919 H   0  0  0  0  0  0  0  0  0  0  0  0
  132.0551  125.8099   65.5852 H   0  0  0  0  0  0  0  0  0  0  0  0
  132.6860  125.0279   63.3183 H   0  0  0  0  0  0  0  0  0  0  0  0
  132.9737  124.4686   61.5759 H   0  0  0  0  0  0  0  0  0  0  0  0
  133.6557  122.8011   61.8648 H   0  0  0  0  0  0  0  0  0  0  0  0
  132.1624  123.7452   59.3681 H   0  0  0  0  0  0  0  0  0  0  0  0
  133.9241  123.4049   59.5094 H   0  0  0  0  0  0  0  0  0  0  0  0
  130.6274  121.9440   59.5516 H   0  0  0  0  0  0  0  0  0  0  0  0
  131.2638  120.2839   59.8373 H   0  0  0  0  0  0  0  0  0  0  0  0
  130.2663  121.3161   61.8989 H   0  0  0  0  0  0  0  0  0  0  0  0
  132.0412  120.9209   62.0615 H   0  0  0  0  0  0  0  0  0  0  0  0
  129.7051  121.9106   63.5668 H   0  0  0  0  0  0  0  0  0  0  0  0
  129.0761  122.6967   65.8343 H   0  0  0  0  0  0  0  0  0  0  0  0
  1  2  1  0
  2  3  2  0
  3  4  1  0
  4  5  2  0
  4  6  1  0
  6  7  1  0
  7  8  1  0
  8  9  2  0
  9 10  1  0
 10 11  1  0
  3 12  1  0
 12 13  1  0
 13 14  2  0
 14 15  1  0
 15 16  1  0
 16 17  2  0
 17 18  1  0
 18 19  2  0
 19 20  1  0
 20 21  1  0
 21 22  1  0
 22 23  1  0
 23 24  1  0
 24 25  1  0
 19 26  1  0
 26 27  2  0
 15 28  2  0
 28 29  1  0
 29 30  1  0
 30 31  2  0
 31 32  1  0
 32 33  2  0
 33 34  1  0
 34 35  1  0
 35 36  1  0
 36 37  1  0
 37 38  1  0
 38 39  1  0
 33 40  1  0
 40 41  2  0
 29 42  2  0
 42  2  1  0
 11  7  2  0
 42 13  1  0
 27 16  1  0
 41 30  1  0
 25 20  1  0
 39 34  1  0
  1 43  1  0
  1 44  1  0
  6 45  1  0
  8 46  1  0
  9 47  1  0
 17 48  1  0
 18 49  1  0
 21 50  1  0
 21 51  1  0
 22 52  1  0
 22 53  1  0
 24 54  1  0
 24 55  1  0
 25 56  1  0
 25 57  1  0
 26 58  1  0
 27 59  1  0
 28 60  1  0
 31 61  1  0
 32 62  1  0
 35 63  1  0
 35 64  1  0
 36 65  1  0
 36 66  1  0
 38 67  1  0
 38 68  1  0
 39 69  1  0
 39 70  1  0
 40 71  1  0
 41 72  1  0
M  END
>  <Binding energies>  (1) 
[-9.37]

>  <Ligand effiencies>  (1) 
[-0.2082222222222222]

>  <Interactions>  (1) 
["V-B:ALA:541:CB:9860, V-B:TYR:539:CE2:9844, V-B:TYR:539:CD2:9842, V-B:GLU:543:C:9870, V-A:HIS:456:CE1:4064, H-A:GLU:543:OE2:4905, H-A:GLU:543:OE1:4904, V-B:GLU:543:CD:9876, V-B:GLU:543:CG:9875, H-A:HIS:456:NE2:4065, V-B:GLU:543:CB:9874, V-A:GLU:543:CD:4903, H-B:GLU:543:OE2:9878, V-A:GLU:543:CB:4901, V-A:TYR:484:CZ:4342, V-A:HIS:456:CD2:4063, V-B:HIS:456:CE1:9037, V-A:ILE:369:CD1:3234, V-A:LEU:475:CD2:4254, H-B:TYR:484:OH:9315, V-A:GLU:543:CG:4902, V-A:TYR:484:CG:4337, V-A:TYR:484:CB:4336, V-B:GLU:543:CA:9872, V-A:TYR:484:CD1:4338, V-A:ASP:473:CB:4234, V-A:HIS:456:CG:4061, V-B:TYR:484:CZ:9314, V-A:TYR:484:CE1:4340, V-A:ASP:473:CG:4235, V-A:TYR:484:C:4332, H-A:LYS:471:NZ:4216, V-A:PRO:486:CD:4361, V-A:ASP:485:CA:4348"]

$$$$
9c_Ghoteimi_2023
     RDKit          3D

 72 78  0  0  0  0  0  0  0  0999 V2000
  129.8240  127.2050   65.1250 N   0  0  0  0  0  0  0  0  0  0  0  0
  129.5110  127.2240   66.4610 C   0  0  0  0  0  0  0  0  0  0  0  0
  129.0120  128.3570   67.1220 C   0  0  0  0  0  0  0  0  0  0  0  0
  128.7140  129.6800   66.5670 C   0  0  0  0  0  0  0  0  0  0  0  0
  128.6130  130.6650   67.3030 O   0  0  0  0  0  0  0  0  0  0  0  0
  128.5570  129.7250   65.2210 N   0  0  0  0  0  0  0  0  0  0  0  0
  128.2570  130.8410   64.4530 C   0  0  0  0  0  0  0  0  0  0  0  0
  128.7410  132.0590   64.5720 N   0  0  0  0  0  0  0  0  0  0  0  0
  128.2280  132.8750   63.6710 C   0  0  0  0  0  0  0  0  0  0  0  0
  127.3020  132.3180   62.7930 C   0  0  0  0  0  0  0  0  0  0  0  0
  127.1010  130.6350   63.1760 S   0  0  0  0  0  0  0  0  0  0  0  0
  128.7500  128.0310   68.8350 S   0  0  0  0  0  0  0  0  0  0  0  0
  129.3250  126.3910   68.6590 C   0  0  0  0  0  0  0  0  0  0  0  0
  129.4020  125.5620   69.6990 N   0  0  0  0  0  0  0  0  0  0  0  0
  129.8790  124.3140   69.4580 C   0  0  0  0  0  0  0  0  0  0  0  0
  129.9750  123.4120   70.6460 C   0  0  0  0  0  0  0  0  0  0  0  0
  130.6450  123.8120   71.8070 C   0  0  0  0  0  0  0  0  0  0  0  0
  130.7390  122.9650   72.9070 C   0  0  0  0  0  0  0  0  0  0  0  0
  130.1760  121.6790   72.8810 C   0  0  0  0  0  0  0  0  0  0  0  0
  130.2550  120.8180   73.9820 N   0  0  0  0  0  0  0  0  0  0  0  0
  130.3750  121.3390   75.3590 C   0  0  0  0  0  0  0  0  0  0  0  0
  130.0990  120.2840   76.4510 C   0  0  0  0  0  0  0  0  0  0  0  0
  130.9410  119.1580   76.2600 O   0  0  0  0  0  0  0  0  0  0  0  0
  130.7110  118.5460   75.0020 C   0  0  0  0  0  0  0  0  0  0  0  0
  131.0010  119.5470   73.8620 C   0  0  0  0  0  0  0  0  0  0  0  0
  129.4890  121.2910   71.7220 C   0  0  0  0  0  0  0  0  0  0  0  0
  129.3920  122.1400   70.6240 C   0  0  0  0  0  0  0  0  0  0  0  0
  130.2500  123.8900   68.1790 C   0  0  0  0  0  0  0  0  0  0  0  0
  130.1510  124.7500   67.0800 C   0  0  0  0  0  0  0  0  0  0  0  0
  130.5280  124.2430   65.7380 C   0  0  0  0  0  0  0  0  0  0  0  0
  131.5520  124.8560   65.0150 C   0  0  0  0  0  0  0  0  0  0  0  0
  131.9200  124.3730   63.7620 C   0  0  0  0  0  0  0  0  0  0  0  0
  131.2720  123.2640   63.1980 C   0  0  0  0  0  0  0  0  0  0  0  0
  131.6320  122.7540   61.9470 N   0  0  0  0  0  0  0  0  0  0  0  0
  132.9330  123.1350   61.3620 C   0  0  0  0  0  0  0  0  0  0  0  0
  133.0330  122.8340   59.8510 C   0  0  0  0  0  0  0  0  0  0  0  0
  132.7560  121.4630   59.6090 O   0  0  0  0  0  0  0  0  0  0  0  0
  131.4520  121.1070   60.0430 C   0  0  0  0  0  0  0  0  0  0  0  0
  131.3090  121.3680   61.5580 C   0  0  0  0  0  0  0  0  0  0  0  0
  130.2580  122.6420   63.9420 C   0  0  0  0  0  0  0  0  0  0  0  0
  129.8900  123.1260   65.1950 C   0  0  0  0  0  0  0  0  0  0  0  0
  129.6860  126.0760   67.3150 C   0  0  0  0  0  0  0  0  0  0  0  0
  130.6960  127.5800   64.7770 H   0  0  0  0  0  0  0  0  0  0  0  0
  129.1910  126.8150   64.4420 H   0  0  0  0  0  0  0  0  0  0  0  0
  128.6700  128.8610   64.7120 H   0  0  0  0  0  0  0  0  0  0  0  0
  128.5156  133.9353   63.6166 H   0  0  0  0  0  0  0  0  0  0  0  0
  126.7817  132.8564   61.9871 H   0  0  0  0  0  0  0  0  0  0  0  0
  131.1042  124.8106   71.8510 H   0  0  0  0  0  0  0  0  0  0  0  0
  131.2627  123.3084   73.8113 H   0  0  0  0  0  0  0  0  0  0  0  0
  131.3970  121.7217   75.4971 H   0  0  0  0  0  0  0  0  0  0  0  0
  129.6124  122.1237   75.4720 H   0  0  0  0  0  0  0  0  0  0  0  0
  130.2962  120.7230   77.4401 H   0  0  0  0  0  0  0  0  0  0  0  0
  129.0482  119.9647   76.3880 H   0  0  0  0  0  0  0  0  0  0  0  0
  131.3719  117.6731   74.8962 H   0  0  0  0  0  0  0  0  0  0  0  0
  129.6592  118.2294   74.9433 H   0  0  0  0  0  0  0  0  0  0  0  0
  132.0772  119.7745   73.8652 H   0  0  0  0  0  0  0  0  0  0  0  0
  130.6751  119.0705   72.9256 H   0  0  0  0  0  0  0  0  0  0  0  0
  129.0183  120.2977   71.6800 H   0  0  0  0  0  0  0  0  0  0  0  0
  128.8498  121.8070   69.7267 H   0  0  0  0  0  0  0  0  0  0  0  0
  130.6250  122.8660   68.0345 H   0  0  0  0  0  0  0  0  0  0  0  0
  132.0726  125.7277   65.4383 H   0  0  0  0  0  0  0  0  0  0  0  0
  132.7302  124.8680   63.2066 H   0  0  0  0  0  0  0  0  0  0  0  0
  133.0818  124.2142   61.5139 H   0  0  0  0  0  0  0  0  0  0  0  0
  133.7056  122.5359   61.8661 H   0  0  0  0  0  0  0  0  0  0  0  0
  132.3051  123.4541   59.3072 H   0  0  0  0  0  0  0  0  0  0  0  0
  134.0515  123.0630   59.5042 H   0  0  0  0  0  0  0  0  0  0  0  0
  130.7099  121.7091   59.4982 H   0  0  0  0  0  0  0  0  0  0  0  0
  131.2848  120.0382   59.8438 H   0  0  0  0  0  0  0  0  0  0  0  0
  130.2702  121.1565   61.8517 H   0  0  0  0  0  0  0  0  0  0  0  0
  132.0278  120.7112   62.0698 H   0  0  0  0  0  0  0  0  0  0  0  0
  129.7465  121.7597   63.5299 H   0  0  0  0  0  0  0  0  0  0  0  0
  129.0910  122.6247   65.7609 H   0  0  0  0  0  0  0  0  0  0  0  0
  1  2  1  0
  2  3  2  0
  3  4  1  0
  4  5  2  0
  4  6  1  0
  6  7  1  0
  7  8  2  0
  8  9  1  0
  9 10  2  0
 10 11  1  0
  3 12  1  0
 12 13  1  0
 13 14  2  0
 14 15  1  0
 15 16  1  0
 16 17  2  0
 17 18  1  0
 18 19  2  0
 19 20  1  0
 20 21  1  0
 21 22  1  0
 22 23  1  0
 23 24  1  0
 24 25  1  0
 19 26  1  0
 26 27  2  0
 15 28  2  0
 28 29  1  0
 29 30  1  0
 30 31  2  0
 31 32  1  0
 32 33  2  0
 33 34  1  0
 34 35  1  0
 35 36  1  0
 36 37  1  0
 37 38  1  0
 38 39  1  0
 33 40  1  0
 40 41  2  0
 29 42  2  0
 42  2  1  0
 11  7  1  0
 42 13  1  0
 27 16  1  0
 41 30  1  0
 25 20  1  0
 39 34  1  0
  1 43  1  0
  1 44  1  0
  6 45  1  0
  9 46  1  0
 10 47  1  0
 17 48  1  0
 18 49  1  0
 21 50  1  0
 21 51  1  0
 22 52  1  0
 22 53  1  0
 24 54  1  0
 24 55  1  0
 25 56  1  0
 25 57  1  0
 26 58  1  0
 27 59  1  0
 28 60  1  0
 31 61  1  0
 32 62  1  0
 35 63  1  0
 35 64  1  0
 36 65  1  0
 36 66  1  0
 38 67  1  0
 38 68  1  0
 39 69  1  0
 39 70  1  0
 40 71  1  0
 41 72  1  0
M  END
>  <Binding energies>  (1) 
[-9.0]

>  <Ligand effiencies>  (1) 
[-0.2]

>  <Interactions>  (1) 
["V-B:ALA:541:CB:9860, V-B:TYR:539:CE2:9844, V-B:TYR:539:CD2:9842, V-B:GLU:543:C:9870, V-A:HIS:456:CE1:4064, H-A:GLU:543:OE2:4905, H-A:GLU:543:OE1:4904, V-B:GLU:543:CD:9876, V-B:GLU:543:CG:9875, H-A:HIS:456:NE2:4065, V-B:GLU:543:CB:9874, V-A:GLU:543:CD:4903, H-B:GLU:543:OE2:9878, V-A:GLU:543:CB:4901, V-A:TYR:484:CZ:4342, V-A:HIS:456:CD2:4063, V-B:HIS:456:CE1:9037, V-A:ILE:369:CD1:3234, V-A:LEU:475:CD2:4254, H-B:TYR:484:OH:9315, V-A:GLU:543:CG:4902, V-A:ALA:541:CB:4887, V-A:TYR:484:CG:4337, V-A:TYR:484:CB:4336, V-B:GLU:543:CA:9872, V-A:TYR:484:CD1:4338, V-A:ASP:473:CB:4234, V-A:HIS:456:CG:4061, V-A:TYR:484:CE1:4340, V-A:ASP:473:CG:4235, H-A:LYS:471:NZ:4216"]

$$$$
9d_Ghoteimi_2023
     RDKit          3D

 68 73  0  0  0  0  0  0  0  0999 V2000
  133.9760  123.1070   57.1710 C   0  0  0  0  0  0  0  0  0  0  0  0
  132.8350  123.2580   58.0040 O   0  0  0  0  0  0  0  0  0  0  0  0
  132.8440  122.8080   59.2850 C   0  0  0  0  0  0  0  0  0  0  0  0
  133.2870  121.7080   59.6270 O   0  0  0  0  0  0  0  0  0  0  0  0
  132.2600  123.7760   60.2400 C   0  0  0  0  0  0  0  0  0  0  0  0
  131.8420  123.2550   61.8720 S   0  0  0  0  0  0  0  0  0  0  0  0
  131.3030  124.8650   62.2900 C   0  0  0  0  0  0  0  0  0  0  0  0
  130.8580  125.1570   63.5110 N   0  0  0  0  0  0  0  0  0  0  0  0
  130.4790  126.4410   63.7390 C   0  0  0  0  0  0  0  0  0  0  0  0
  130.0080  126.7510   65.1240 C   0  0  0  0  0  0  0  0  0  0  0  0
  130.4440  125.9860   66.2110 C   0  0  0  0  0  0  0  0  0  0  0  0
  130.0090  126.2650   67.5030 C   0  0  0  0  0  0  0  0  0  0  0  0
  129.1300  127.3290   67.7590 C   0  0  0  0  0  0  0  0  0  0  0  0
  128.6700  127.6110   69.0500 N   0  0  0  0  0  0  0  0  0  0  0  0
  127.4710  126.9480   69.6000 C   0  0  0  0  0  0  0  0  0  0  0  0
  126.9150  127.6200   70.8730 C   0  0  0  0  0  0  0  0  0  0  0  0
  127.9340  127.7220   71.8530 O   0  0  0  0  0  0  0  0  0  0  0  0
  129.0220  128.5060   71.3910 C   0  0  0  0  0  0  0  0  0  0  0  0
  129.6440  127.8640   70.1330 C   0  0  0  0  0  0  0  0  0  0  0  0
  128.6840  128.0840   66.6640 C   0  0  0  0  0  0  0  0  0  0  0  0
  129.1170  127.8030   65.3710 C   0  0  0  0  0  0  0  0  0  0  0  0
  130.5140  127.4180   62.7410 C   0  0  0  0  0  0  0  0  0  0  0  0
  130.9620  127.1120   61.4510 C   0  0  0  0  0  0  0  0  0  0  0  0
  130.9530  128.1810   60.4190 C   0  0  0  0  0  0  0  0  0  0  0  0
  131.7450  129.3220   60.5670 C   0  0  0  0  0  0  0  0  0  0  0  0
  131.7480  130.3130   59.5880 C   0  0  0  0  0  0  0  0  0  0  0  0
  130.9690  130.1800   58.4270 C   0  0  0  0  0  0  0  0  0  0  0  0
  130.9470  131.1640   57.4360 N   0  0  0  0  0  0  0  0  0  0  0  0
  132.2080  131.8310   57.0580 C   0  0  0  0  0  0  0  0  0  0  0  0
  132.1180  132.5890   55.7170 C   0  0  0  0  0  0  0  0  0  0  0  0
  131.0440  133.5180   55.7530 O   0  0  0  0  0  0  0  0  0  0  0  0
  129.8000  132.8720   55.9790 C   0  0  0  0  0  0  0  0  0  0  0  0
  129.8320  132.1250   57.3290 C   0  0  0  0  0  0  0  0  0  0  0  0
  130.1770  129.0310   58.2900 C   0  0  0  0  0  0  0  0  0  0  0  0
  130.1740  128.0420   59.2690 C   0  0  0  0  0  0  0  0  0  0  0  0
  131.4040  125.7820   61.2020 C   0  0  0  0  0  0  0  0  0  0  0  0
  131.9730  125.1330   60.0500 C   0  0  0  0  0  0  0  0  0  0  0  0
  132.2320  125.7920   58.8760 N   0  0  0  0  0  0  0  0  0  0  0  0
  134.8733  122.9883   57.7962 H   0  0  0  0  0  0  0  0  0  0  0  0
  133.8512  122.2175   56.5360 H   0  0  0  0  0  0  0  0  0  0  0  0
  134.0869  123.9983   56.5360 H   0  0  0  0  0  0  0  0  0  0  0  0
  131.1408  125.1518   66.0420 H   0  0  0  0  0  0  0  0  0  0  0  0
  130.3600  125.6410   68.3381 H   0  0  0  0  0  0  0  0  0  0  0  0
  126.6850  126.9594   68.8306 H   0  0  0  0  0  0  0  0  0  0  0  0
  127.7705  125.9277   69.8817 H   0  0  0  0  0  0  0  0  0  0  0  0
  126.5483  128.6265   70.6229 H   0  0  0  0  0  0  0  0  0  0  0  0
  126.0907  127.0106   71.2719 H   0  0  0  0  0  0  0  0  0  0  0  0
  128.6632  129.5161   71.1441 H   0  0  0  0  0  0  0  0  0  0  0  0
  129.7856  128.5618   72.1808 H   0  0  0  0  0  0  0  0  0  0  0  0
  130.4232  128.5384   69.7484 H   0  0  0  0  0  0  0  0  0  0  0  0
  130.0467  126.8866   70.4372 H   0  0  0  0  0  0  0  0  0  0  0  0
  127.9798  128.9126   66.8299 H   0  0  0  0  0  0  0  0  0  0  0  0
  128.7545  128.4154   64.5322 H   0  0  0  0  0  0  0  0  0  0  0  0
  130.1849  128.4418   62.9723 H   0  0  0  0  0  0  0  0  0  0  0  0
  132.3713  129.4389   61.4637 H   0  0  0  0  0  0  0  0  0  0  0  0
  132.3682  131.2109   59.7260 H   0  0  0  0  0  0  0  0  0  0  0  0
  132.4739  132.5489   57.8479 H   0  0  0  0  0  0  0  0  0  0  0  0
  132.9693  131.0460   56.9387 H   0  0  0  0  0  0  0  0  0  0  0  0
  133.0601  133.1286   55.5400 H   0  0  0  0  0  0  0  0  0  0  0  0
  131.9425  131.8668   54.9061 H   0  0  0  0  0  0  0  0  0  0  0  0
  128.9970  133.6236   55.9973 H   0  0  0  0  0  0  0  0  0  0  0  0
  129.6156  132.1495   55.1703 H   0  0  0  0  0  0  0  0  0  0  0  0
  129.9304  132.8658   58.1361 H   0  0  0  0  0  0  0  0  0  0  0  0
  128.8971  131.5506   57.4067 H   0  0  0  0  0  0  0  0  0  0  0  0
  129.5487  128.9096   57.3953 H   0  0  0  0  0  0  0  0  0  0  0  0
  129.5531  127.1439   59.1356 H   0  0  0  0  0  0  0  0  0  0  0  0
  132.5110  126.7630   58.8610 H   0  0  0  0  0  0  0  0  0  0  0  0
  132.1570  125.3270   57.9820 H   0  0  0  0  0  0  0  0  0  0  0  0
  1  2  1  0
  2  3  1  0
  3  4  2  0
  3  5  1  0
  5  6  1  0
  6  7  1  0
  7  8  2  0
  8  9  1  0
  9 10  1  0
 10 11  2  0
 11 12  1  0
 12 13  2  0
 13 14  1  0
 14 15  1  0
 15 16  1  0
 16 17  1  0
 17 18  1  0
 18 19  1  0
 13 20  1  0
 20 21  2  0
  9 22  2  0
 22 23  1  0
 23 24  1  0
 24 25  2  0
 25 26  1  0
 26 27  2  0
 27 28  1  0
 28 29  1  0
 29 30  1  0
 30 31  1  0
 31 32  1  0
 32 33  1  0
 27 34  1  0
 34 35  2  0
 23 36  2  0
 36 37  1  0
 37 38  1  0
 37  5  2  0
 36  7  1  0
 21 10  1  0
 35 24  1  0
 19 14  1  0
 33 28  1  0
  1 39  1  0
  1 40  1  0
  1 41  1  0
 11 42  1  0
 12 43  1  0
 15 44  1  0
 15 45  1  0
 16 46  1  0
 16 47  1  0
 18 48  1  0
 18 49  1  0
 19 50  1  0
 19 51  1  0
 20 52  1  0
 21 53  1  0
 22 54  1  0
 25 55  1  0
 26 56  1  0
 29 57  1  0
 29 58  1  0
 30 59  1  0
 30 60  1  0
 32 61  1  0
 32 62  1  0
 33 63  1  0
 33 64  1  0
 34 65  1  0
 35 66  1  0
 38 67  1  0
 38 68  1  0
M  END
>  <Binding energies>  (1) 
[-8.59]

>  <Ligand effiencies>  (1) 
[-0.21475]

>  <Interactions>  (1) 
["V-B:TYR:539:CE2:9844, V-B:TYR:539:CZ:9845, V-B:GLU:543:C:9870, V-A:HIS:456:CE1:4064, V-A:ASP:366:CG:3208, V-B:GLU:543:CB:9874, V-A:GLU:543:CD:4903, V-A:LEU:363:CD1:3184, V-A:TYR:539:CE1:4870, V-A:TYR:539:CD1:4868, V-A:ASP:366:CB:3207, V-A:PRO:540:CG:4881, H-A:TYR:531:OH:4790, V-A:PRO:540:CD:4882, H-A:ASP:366:OD2:3210, V-A:PRO:540:CB:4880, V-B:HIS:456:CE1:9037, V-A:ILE:369:CG2:3232, V-A:ILE:369:CD1:3234, H-A:TYR:539:N:4865, V-A:ILE:538:CG2:4858, V-A:TYR:531:CZ:4789, V-B:HIS:456:CD2:9035, H-B:LYS:547:NZ:9919, V-A:ASN:370:CB:3240, V-A:ASP:366:C:3203, V-A:ILE:369:CB:3231, H-B:TYR:539:OH:9846, V-B:GLY:544:C:9880, V-B:HIS:456:CG:9033"]

$$$$
RR10_Rahimova_2017
     RDKit          3D

 66 70  0  0  0  0  0  0  0  0999 V2000
  133.6050  123.6250   57.0420 C   0  0  0  0  0  0  0  0  0  0  0  0
  133.5190  123.3730   58.5570 C   0  0  1  0  0  0  0  0  0  0  0  0
  132.7860  124.5190   59.2920 C   0  0  0  0  0  0  0  0  0  0  0  0
  132.7410  124.2620   60.8150 C   0  0  0  0  0  0  0  0  0  0  0  0
  132.0550  122.9150   61.1610 C   0  0  1  0  0  0  0  0  0  0  0  0
  130.6210  122.9660   60.8470 N   0  0  0  0  0  0  0  0  0  0  0  0
  129.7800  121.9150   60.8620 C   0  0  0  0  0  0  0  0  0  0  0  0
  130.1360  120.7760   61.1720 O   0  0  0  0  0  0  0  0  0  0  0  0
  128.3180  122.1900   60.4550 C   0  0  1  0  0  0  0  0  0  0  0  0
  127.6930  123.2140   61.4380 C   0  0  0  0  0  0  0  0  0  0  0  0
  126.2570  123.5610   60.9780 C   0  0  0  0  0  0  0  0  0  0  0  0
  126.1980  123.9970   59.4960 C   0  0  0  0  0  0  0  0  0  0  0  0
  126.8730  122.9950   58.6270 N   0  0  0  0  0  0  0  0  0  0  0  0
  126.6110  123.2330   56.8910 S   0  0  0  0  0  0  0  0  0  0  0  0
  125.2480  123.7450   56.7020 O   0  0  0  0  0  0  0  0  0  0  0  0
  127.0450  122.0140   56.1980 O   0  0  0  0  0  0  0  0  0  0  0  0
  127.7270  124.5580   56.4290 C   0  0  0  0  0  0  0  0  0  0  0  0
  129.0540  124.2540   56.1080 C   0  0  0  0  0  0  0  0  0  0  0  0
  129.9750  125.2400   55.7430 C   0  0  0  0  0  0  0  0  0  0  0  0
  129.5020  126.5540   55.7100 C   0  0  0  0  0  0  0  0  0  0  0  0
  130.0780  127.7670   55.4140 N   0  0  0  0  0  0  0  0  0  0  0  0
  129.1120  128.7420   55.5540 C   0  0  0  0  0  0  0  0  0  0  0  0
  129.3670  130.2030   55.3230 C   0  0  0  0  0  0  0  0  0  0  0  0
  129.4700  131.0860   56.4070 C   0  0  0  0  0  0  0  0  0  0  0  0
  129.7100  132.4410   56.1950 C   0  0  0  0  0  0  0  0  0  0  0  0
  129.8480  132.9210   54.8950 C   0  0  0  0  0  0  0  0  0  0  0  0
  129.7490  132.0580   53.8080 C   0  0  0  0  0  0  0  0  0  0  0  0
  129.5090  130.7030   54.0210 C   0  0  0  0  0  0  0  0  0  0  0  0
  127.9520  128.2370   55.9130 N   0  0  0  0  0  0  0  0  0  0  0  0
  128.1620  126.8880   56.0200 C   0  0  0  0  0  0  0  0  0  0  0  0
  127.2600  125.8770   56.3810 C   0  0  0  0  0  0  0  0  0  0  0  0
  128.2860  122.7390   59.0070 C   0  0  0  0  0  0  0  0  0  0  0  0
  132.7900  121.7770   60.4030 C   0  0  0  0  0  0  0  0  0  0  0  0
  132.8300  122.0260   58.8790 C   0  0  0  0  0  0  0  0  0  0  0  0
  133.9554  124.6518   56.8604 H   0  0  0  0  0  0  0  0  0  0  0  0
  134.3106  122.9116   56.5911 H   0  0  0  0  0  0  0  0  0  0  0  0
  132.6105  123.4918   56.5911 H   0  0  0  0  0  0  0  0  0  0  0  0
  134.5568  123.3319   58.9192 H   0  0  0  0  0  0  0  0  0  0  0  0
  133.3155  125.4644   59.1024 H   0  0  0  0  0  0  0  0  0  0  0  0
  131.7538  124.5726   58.9154 H   0  0  0  0  0  0  0  0  0  0  0  0
  133.7705  124.2451   61.2021 H   0  0  0  0  0  0  0  0  0  0  0  0
  132.1532  125.0691   61.2767 H   0  0  0  0  0  0  0  0  0  0  0  0
  132.1255  122.7163   62.2406 H   0  0  0  0  0  0  0  0  0  0  0  0
  130.2800  123.8440   60.4810 H   0  0  0  0  0  0  0  0  0  0  0  0
  127.7342  121.2586   60.4964 H   0  0  0  0  0  0  0  0  0  0  0  0
  127.6594  122.7793   62.4479 H   0  0  0  0  0  0  0  0  0  0  0  0
  128.3043  124.1284   61.4523 H   0  0  0  0  0  0  0  0  0  0  0  0
  125.6204  122.6737   61.1101 H   0  0  0  0  0  0  0  0  0  0  0  0
  125.9059  124.4059   61.5887 H   0  0  0  0  0  0  0  0  0  0  0  0
  125.1460  124.0915   59.1887 H   0  0  0  0  0  0  0  0  0  0  0  0
  126.7140  124.9626   59.3900 H   0  0  0  0  0  0  0  0  0  0  0  0
  129.3834  123.2051   56.1440 H   0  0  0  0  0  0  0  0  0  0  0  0
  131.0180  124.9941   55.4947 H   0  0  0  0  0  0  0  0  0  0  0  0
  131.0320  127.9640   55.1440 H   0  0  0  0  0  0  0  0  0  0  0  0
  129.3603  130.7053   57.4332 H   0  0  0  0  0  0  0  0  0  0  0  0
  129.7902  133.1287   57.0498 H   0  0  0  0  0  0  0  0  0  0  0  0
  130.0369  133.9914   54.7261 H   0  0  0  0  0  0  0  0  0  0  0  0
  129.8599  132.4447   52.7842 H   0  0  0  0  0  0  0  0  0  0  0  0
  129.4303  130.0204   53.1620 H   0  0  0  0  0  0  0  0  0  0  0  0
  126.2128  126.1140   56.6202 H   0  0  0  0  0  0  0  0  0  0  0  0
  128.7260  122.0002   58.3210 H   0  0  0  0  0  0  0  0  0  0  0  0
  128.8658  123.6718   58.9465 H   0  0  0  0  0  0  0  0  0  0  0  0
  133.8217  121.7092   60.7786 H   0  0  0  0  0  0  0  0  0  0  0  0
  132.2390  120.8414   60.5792 H   0  0  0  0  0  0  0  0  0  0  0  0
  133.3889  121.2111   58.3956 H   0  0  0  0  0  0  0  0  0  0  0  0
  131.7973  122.0607   58.5016 H   0  0  0  0  0  0  0  0  0  0  0  0
  1  2  1  0
  2  3  1  0
  3  4  1  0
  4  5  1  0
  5  6  1  0
  6  7  1  0
  7  8  2  0
  7  9  1  0
  9 10  1  0
 10 11  1  0
 11 12  1  0
 12 13  1  0
 13 14  1  0
 14 15  2  0
 14 16  2  0
 14 17  1  0
 17 18  2  0
 18 19  1  0
 19 20  2  0
 20 21  1  0
 21 22  1  0
 22 23  1  0
 23 24  2  0
 24 25  1  0
 25 26  2  0
 26 27  1  0
 27 28  2  0
 22 29  2  0
 29 30  1  0
 30 31  2  0
 13 32  1  0
  5 33  1  0
 33 34  1  0
 34  2  1  0
 32  9  1  0
 31 17  1  0
 30 20  1  0
 28 23  1  0
  1 35  1  0
  1 36  1  0
  1 37  1  0
  2 38  1  1
  3 39  1  0
  3 40  1  0
  4 41  1  0
  4 42  1  0
  5 43  1  1
  6 44  1  0
  9 45  1  6
 10 46  1  0
 10 47  1  0
 11 48  1  0
 11 49  1  0
 12 50  1  0
 12 51  1  0
 18 52  1  0
 19 53  1  0
 21 54  1  0
 24 55  1  0
 25 56  1  0
 26 57  1  0
 27 58  1  0
 28 59  1  0
 31 60  1  0
 32 61  1  0
 32 62  1  0
 33 63  1  0
 33 64  1  0
 34 65  1  0
 34 66  1  0
M  END
>  <Binding energies>  (1) 
[-10.5]

>  <Ligand effiencies>  (1) 
[-0.2916666666666667]

>  <Interactions>  (1) 
["V-B:TYR:539:CE2:9844, V-B:MET:535:CE:9803, V-B:PRO:540:CA:9851, V-B:TYR:539:CD2:9842, V-B:PRO:540:N:9852, V-B:PRO:540:CB:9853, V-B:PRO:540:C:9849, V-B:TYR:539:C:9835, V-B:TYR:539:CZ:9845, V-A:ASP:366:CG:3208, V-B:GLU:543:CD:9876, V-A:TYR:539:CE1:4870, V-A:TYR:539:CD1:4868, V-A:ASP:366:CB:3207, H-A:TYR:531:OH:4790, V-A:ILE:538:CA:4855, V-A:ILE:369:CG2:3232, V-A:ILE:369:CD1:3234, V-A:TYR:531:CE1:4787, V-A:TYR:531:CZ:4789, V-A:ILE:538:CD1:4860, V-A:MET:535:CB:4827, V-A:MET:535:CG:4828, H-B:TYR:539:N:9838, V-A:ASN:370:CB:3240, V-A:ASP:366:C:3203, V-A:ILE:369:CB:3231, V-A:ASP:366:CA:3205"]

$$$$
RR11_Rahimova_2017
     RDKit          3D

 55 60  0  0  0  0  0  0  0  0999 V2000
  126.5890  128.7140   54.4850 N   0  0  0  0  0  0  0  0  0  0  0  0
  127.5030  128.0140   55.2700 C   0  0  0  0  0  0  0  0  0  0  0  0
  127.4460  128.1170   56.6590 C   0  0  0  0  0  0  0  0  0  0  0  0
  128.3580  127.4150   57.4420 C   0  0  0  0  0  0  0  0  0  0  0  0
  129.3340  126.6060   56.8460 C   0  0  0  0  0  0  0  0  0  0  0  0
  130.3120  125.8460   57.6930 C   0  0  0  0  0  0  0  0  0  0  0  0
  130.1550  125.6060   58.9760 N   0  0  0  0  0  0  0  0  0  0  0  0
  131.2580  124.8830   59.3470 C   0  0  0  0  0  0  0  0  0  0  0  0
  131.5940  124.3610   60.6040 C   0  0  0  0  0  0  0  0  0  0  0  0
  132.7830  123.6310   60.7260 C   0  0  0  0  0  0  0  0  0  0  0  0
  133.1760  123.0570   62.0800 C   0  0  0  0  0  0  0  0  0  0  0  0
  132.2610  123.5130   63.2070 C   0  0  0  0  0  0  0  0  0  0  0  0
  131.1180  122.7640   63.5110 C   0  0  0  0  0  0  0  0  0  0  0  0
  130.2520  123.1370   64.5420 C   0  0  0  0  0  0  0  0  0  0  0  0
  130.5600  124.2880   65.2790 C   0  0  0  0  0  0  0  0  0  0  0  0
  129.8760  124.8610   66.3200 N   0  0  0  0  0  0  0  0  0  0  0  0
  130.5780  125.9230   66.6540 C   0  0  0  0  0  0  0  0  0  0  0  0
  130.2020  126.8790   67.7480 C   0  0  0  0  0  0  0  0  0  0  0  0
  128.9700  126.7600   68.4040 C   0  0  0  0  0  0  0  0  0  0  0  0
  128.6160  127.6530   69.4120 C   0  0  0  0  0  0  0  0  0  0  0  0
  129.4930  128.6740   69.7710 C   0  0  0  0  0  0  0  0  0  0  0  0
  129.1370  129.5720   70.7770 N   0  0  0  0  0  0  0  0  0  0  0  0
  130.7220  128.8030   69.1310 C   0  0  0  0  0  0  0  0  0  0  0  0
  131.0750  127.9090   68.1230 C   0  0  0  0  0  0  0  0  0  0  0  0
  131.7050  126.0640   65.8710 N   0  0  0  0  0  0  0  0  0  0  0  0
  131.7260  125.0280   64.9680 C   0  0  0  0  0  0  0  0  0  0  0  0
  132.5990  124.6570   63.9420 C   0  0  0  0  0  0  0  0  0  0  0  0
  133.6260  123.4520   59.6230 C   0  0  0  0  0  0  0  0  0  0  0  0
  133.3220  123.9640   58.3590 C   0  0  0  0  0  0  0  0  0  0  0  0
  132.1250  124.6760   58.2480 C   0  0  0  0  0  0  0  0  0  0  0  0
  131.4870  125.3100   57.2070 N   0  0  0  0  0  0  0  0  0  0  0  0
  129.3810  126.5130   55.4490 C   0  0  0  0  0  0  0  0  0  0  0  0
  128.4690  127.2140   54.6630 C   0  0  0  0  0  0  0  0  0  0  0  0
  126.8860  129.5500   54.0010 H   0  0  0  0  0  0  0  0  0  0  0  0
  125.6520  128.3560   54.3760 H   0  0  0  0  0  0  0  0  0  0  0  0
  126.6830  128.7508   57.1346 H   0  0  0  0  0  0  0  0  0  0  0  0
  128.3119  127.4962   58.5380 H   0  0  0  0  0  0  0  0  0  0  0  0
  130.9395  124.5209   61.4735 H   0  0  0  0  0  0  0  0  0  0  0  0
  133.1379  121.9593   62.0199 H   0  0  0  0  0  0  0  0  0  0  0  0
  134.1883  123.4206   62.3104 H   0  0  0  0  0  0  0  0  0  0  0  0
  130.8964  121.8603   62.9242 H   0  0  0  0  0  0  0  0  0  0  0  0
  129.3538  122.5438   64.7686 H   0  0  0  0  0  0  0  0  0  0  0  0
  128.2766  125.9545   68.1205 H   0  0  0  0  0  0  0  0  0  0  0  0
  127.6471  127.5526   69.9231 H   0  0  0  0  0  0  0  0  0  0  0  0
  129.6040  130.4660   70.8330 H   0  0  0  0  0  0  0  0  0  0  0  0
  128.3920  129.3330   71.4160 H   0  0  0  0  0  0  0  0  0  0  0  0
  131.4127  129.6087   69.4204 H   0  0  0  0  0  0  0  0  0  0  0  0
  132.0465  128.0123   67.6174 H   0  0  0  0  0  0  0  0  0  0  0  0
  132.3640  126.8200   65.9790 H   0  0  0  0  0  0  0  0  0  0  0  0
  133.5083  125.2355   63.7218 H   0  0  0  0  0  0  0  0  0  0  0  0
  134.5611  122.8882   59.7560 H   0  0  0  0  0  0  0  0  0  0  0  0
  133.9893  123.8145   57.4974 H   0  0  0  0  0  0  0  0  0  0  0  0
  131.7790  125.3920   56.2450 H   0  0  0  0  0  0  0  0  0  0  0  0
  130.1435  125.8819   54.9692 H   0  0  0  0  0  0  0  0  0  0  0  0
  128.5114  127.1362   53.5666 H   0  0  0  0  0  0  0  0  0  0  0  0
  1  2  1  0
  2  3  2  0
  3  4  1  0
  4  5  2  0
  5  6  1  0
  6  7  2  0
  7  8  1  0
  8  9  2  0
  9 10  1  0
 10 11  1  0
 11 12  1  0
 12 13  2  0
 13 14  1  0
 14 15  2  0
 15 16  1  0
 16 17  2  0
 17 18  1  0
 18 19  2  0
 19 20  1  0
 20 21  2  0
 21 22  1  0
 21 23  1  0
 23 24  2  0
 17 25  1  0
 25 26  1  0
 26 27  2  0
 10 28  2  0
 28 29  1  0
 29 30  2  0
 30 31  1  0
  5 32  1  0
 32 33  2  0
 33  2  1  0
 31  6  1  0
 30  8  1  0
 27 12  1  0
 26 15  1  0
 24 18  1  0
  1 34  1  0
  1 35  1  0
  3 36  1  0
  4 37  1  0
  9 38  1  0
 11 39  1  0
 11 40  1  0
 13 41  1  0
 14 42  1  0
 19 43  1  0
 20 44  1  0
 22 45  1  0
 22 46  1  0
 23 47  1  0
 24 48  1  0
 25 49  1  0
 27 50  1  0
 28 51  1  0
 29 52  1  0
 31 53  1  0
 32 54  1  0
 33 55  1  0
M  END
>  <Binding energies>  (1) 
[-7.8]

>  <Ligand effiencies>  (1) 
[-0.19999999999999998]

>  <Interactions>  (1) 
["H-B:TYR:531:OH:9763, V-A:HIS:456:CE1:4064, V-A:ASP:366:CG:3208, H-A:GLU:543:OE1:4904, V-B:GLU:543:CG:9875, V-B:GLU:543:CB:9874, V-A:GLU:543:CD:4903, V-A:ASP:366:CB:3207, H-A:TYR:531:OH:4790, V-A:GLU:543:CB:4901, V-A:TYR:484:CZ:4342, V-B:HIS:456:CE1:9037, V-A:ILE:369:CD1:3234, V-A:TYR:531:CE1:4787, V-A:TYR:531:CZ:4789, V-A:MET:535:CG:4828, V-A:GLU:543:C:4897, V-A:GLU:543:CA:4899, V-B:HIS:456:CD2:9035, H-A:GLU:543:O:4898, H-B:HIS:456:NE2:9038, V-B:TYR:531:CE1:9760, V-B:TYR:531:CZ:9762, V-A:MET:535:CE:4830, V-A:TYR:484:CE1:4340, H-B:TYR:539:OH:9846, V-A:ASP:366:CA:3205, H-A:MET:535:SD:4829"]

$$$$
RR11_Rahimova_2017-again1
     RDKit          3D

 56 61  0  0  0  0  0  0  0  0999 V2000
  133.3020  123.8780   77.2460 N   0  0  0  0  0  0  0  0  0  0  0  0
  132.6450  124.5100   76.1910 C   0  0  0  0  0  0  0  0  0  0  0  0
  131.2980  124.2450   75.9530 C   0  0  0  0  0  0  0  0  0  0  0  0
  130.6440  124.8750   74.8970 C   0  0  0  0  0  0  0  0  0  0  0  0
  131.3310  125.7730   74.0700 C   0  0  0  0  0  0  0  0  0  0  0  0
  130.6280  126.4450   72.9270 C   0  0  0  0  0  0  0  0  0  0  0  0
  129.4360  126.1080   72.4880 N   0  0  0  0  0  0  0  0  0  0  0  0
  129.1860  126.9490   71.4350 C   0  0  0  0  0  0  0  0  0  0  0  0
  128.0610  127.0200   70.6030 C   0  0  0  0  0  0  0  0  0  0  0  0
  128.0580  127.9690   69.5800 C   0  0  0  0  0  0  0  0  0  0  0  0
  129.1410  128.8320   69.3760 C   0  0  0  0  0  0  0  0  0  0  0  0
  129.0870  129.8450   68.2420 C   0  0  0  0  0  0  0  0  0  0  0  0
  128.6160  129.2330   66.9300 C   0  0  0  0  0  0  0  0  0  0  0  0
  128.7330  127.8530   66.7300 C   0  0  0  0  0  0  0  0  0  0  0  0
  128.3210  127.2350   65.5470 C   0  0  0  0  0  0  0  0  0  0  0  0
  127.7770  128.0660   64.5630 C   0  0  0  0  0  0  0  0  0  0  0  0
  127.2880  127.7970   63.2910 N   0  0  0  0  0  0  0  0  0  0  0  0
  126.8610  128.9610   62.6940 C   0  0  0  0  0  0  0  0  0  0  0  0
  126.2860  129.1090   61.3230 C   0  0  0  0  0  0  0  0  0  0  0  0
  125.3330  130.1010   61.0640 C   0  0  0  0  0  0  0  0  0  0  0  0
  124.8000  130.2490   59.7860 C   0  0  0  0  0  0  0  0  0  0  0  0
  125.2170  129.4030   58.7600 C   0  0  0  0  0  0  0  0  0  0  0  0
  124.6860  129.5540   57.4800 N   0  0  0  0  0  0  0  0  0  0  0  0
  126.1650  128.4100   59.0070 C   0  0  0  0  0  0  0  0  0  0  0  0
  126.6970  128.2640   60.2850 C   0  0  0  0  0  0  0  0  0  0  0  0
  127.0790  129.9670   63.6070 N   0  0  0  0  0  0  0  0  0  0  0  0
  127.6440  129.4500   64.7630 C   0  0  0  0  0  0  0  0  0  0  0  0
  128.0520  130.0620   65.9510 C   0  0  0  0  0  0  0  0  0  0  0  0
  130.2660  128.7960   70.2100 C   0  0  0  0  0  0  0  0  0  0  0  0
  130.2670  127.8380   71.2270 C   0  0  0  0  0  0  0  0  0  0  0  0
  131.1680  127.4890   72.2050 N   0  0  0  0  0  0  0  0  0  0  0  0
  132.6850  126.0310   74.3220 C   0  0  0  0  0  0  0  0  0  0  0  0
  133.3400  125.4030   75.3780 C   0  0  0  0  0  0  0  0  0  0  0  0
  133.6820  122.9530   77.1110 H   0  0  0  0  0  0  0  0  0  0  0  0
  133.3540  124.3370   78.1440 H   0  0  0  0  0  0  0  0  0  0  0  0
  130.7525  123.5400   76.5975 H   0  0  0  0  0  0  0  0  0  0  0  0
  129.5802  124.6659   74.7110 H   0  0  0  0  0  0  0  0  0  0  0  0
  127.2041  126.3465   70.7520 H   0  0  0  0  0  0  0  0  0  0  0  0
  127.1828  128.0407   68.9175 H   0  0  0  0  0  0  0  0  0  0  0  0
  128.3937  130.6514   68.5231 H   0  0  0  0  0  0  0  0  0  0  0  0
  130.1080  130.2229   68.0849 H   0  0  0  0  0  0  0  0  0  0  0  0
  129.1637  127.2343   67.5310 H   0  0  0  0  0  0  0  0  0  0  0  0
  128.4195  126.1497   65.3972 H   0  0  0  0  0  0  0  0  0  0  0  0
  127.2380  126.9010   62.8290 H   0  0  0  0  0  0  0  0  0  0  0  0
  125.0032  130.7675   61.8746 H   0  0  0  0  0  0  0  0  0  0  0  0
  124.0524  131.0310   59.5870 H   0  0  0  0  0  0  0  0  0  0  0  0
  124.6400  130.4750   57.0660 H   0  0  0  0  0  0  0  0  0  0  0  0
  124.3270  128.7470   56.9920 H   0  0  0  0  0  0  0  0  0  0  0  0
  126.4912  127.7443   58.1943 H   0  0  0  0  0  0  0  0  0  0  0  0
  127.4442  127.4807   60.4804 H   0  0  0  0  0  0  0  0  0  0  0  0
  126.8480  130.9310   63.4120 H   0  0  0  0  0  0  0  0  0  0  0  0
  127.9359  131.1442   66.1104 H   0  0  0  0  0  0  0  0  0  0  0  0
  131.1087  129.4892   70.0708 H   0  0  0  0  0  0  0  0  0  0  0  0
  132.0760  127.8840   72.3970 H   0  0  0  0  0  0  0  0  0  0  0  0
  133.2348  126.7353   73.6804 H   0  0  0  0  0  0  0  0  0  0  0  0
  134.4029  125.6112   75.5699 H   0  0  0  0  0  0  0  0  0  0  0  0
  1  2  1  0
  2  3  2  0
  3  4  1  0
  4  5  2  0
  5  6  1  0
  6  7  2  0
  7  8  1  0
  8  9  2  0
  9 10  1  0
 10 11  2  0
 11 12  1  0
 12 13  1  0
 13 14  2  0
 14 15  1  0
 15 16  2  0
 16 17  1  0
 17 18  1  0
 18 19  1  0
 19 20  2  0
 20 21  1  0
 21 22  2  0
 22 23  1  0
 22 24  1  0
 24 25  2  0
 18 26  2  0
 26 27  1  0
 27 28  2  0
 11 29  1  0
 29 30  2  0
 30 31  1  0
  5 32  1  0
 32 33  2  0
 33  2  1  0
 31  6  1  0
 30  8  1  0
 28 13  1  0
 27 16  1  0
 25 19  1  0
  1 34  1  0
  1 35  1  0
  3 36  1  0
  4 37  1  0
  9 38  1  0
 10 39  1  0
 12 40  1  0
 12 41  1  0
 14 42  1  0
 15 43  1  0
 17 44  1  0
 20 45  1  0
 21 46  1  0
 23 47  1  0
 23 48  1  0
 24 49  1  0
 25 50  1  0
 26 51  1  0
 28 52  1  0
 29 53  1  0
 31 54  1  0
 32 55  1  0
 33 56  1  0
M  CHG  1  26   1
M  END
>  <Binding energies>  (1) 
[-8.73]

>  <Ligand effiencies>  (1) 
[-0.21825]

>  <Interactions>  (1) 
["H-B:TYR:531:OH:9763, V-A:HIS:456:CE1:4064, V-B:GLU:543:CD:9876, V-B:GLU:543:CG:9875, V-B:GLU:543:CB:9874, V-A:GLU:543:CD:4903, H-B:GLU:543:OE2:9878, V-A:GLU:543:CB:4901, V-B:HIS:456:CE1:9037, H-B:TYR:484:OH:9315, V-A:GLU:543:CG:4902, V-A:GLU:543:C:4897, V-A:GLU:543:CA:4899, V-B:HIS:456:CD2:9035, V-A:LYS:547:CE:4945, H-B:LYS:547:NZ:9919, V-B:LYS:547:CE:9918, V-A:HIS:456:CG:4061, V-B:TYR:484:CZ:9314, V-B:ASP:366:CG:8180, V-B:TYR:531:CZ:9762, V-B:ASP:366:CB:8179, H-A:TYR:539:OH:4873, V-A:HIS:456:CB:4060, H-B:GLU:543:OE1:9877, V-A:GLY:544:C:4907, H-A:ASP:473:OD1:4236, H-B:ASP:366:O:8176, H-A:GLY:544:O:4908, V-B:ASP:366:CA:8177, V-A:VAL:458:CG2:4082, V-A:LYS:471:CD:4214, H-A:HIS:456:ND1:4062, V-A:LYS:471:CE:4215, H-A:ASP:473:OD2:4237"]

$$$$
RR11_Rahimova_2017-again2
     RDKit          3D

 57 62  0  0  0  0  0  0  0  0999 V2000
  133.6200  123.8710   56.0300 N   0  0  0  0  0  0  0  0  0  0  0  0
  133.2980  124.0750   57.3700 C   0  0  0  0  0  0  0  0  0  0  0  0
  132.2650  124.9460   57.7110 C   0  0  0  0  0  0  0  0  0  0  0  0
  131.9480  125.1550   59.0500 C   0  0  0  0  0  0  0  0  0  0  0  0
  132.6620  124.4930   60.0570 C   0  0  0  0  0  0  0  0  0  0  0  0
  132.3280  124.7250   61.4950 C   0  0  0  0  0  0  0  0  0  0  0  0
  131.1420  124.4220   62.1240 N   0  0  0  0  0  0  0  0  0  0  0  0
  131.2150  124.7640   63.4680 C   0  0  0  0  0  0  0  0  0  0  0  0
  130.2890  124.6460   64.5080 C   0  0  0  0  0  0  0  0  0  0  0  0
  130.7000  125.0790   65.7750 C   0  0  0  0  0  0  0  0  0  0  0  0
  129.7380  124.9710   66.9500 C   0  0  0  0  0  0  0  0  0  0  0  0
  129.5880  126.2810   67.7120 C   0  0  0  0  0  0  0  0  0  0  0  0
  129.5420  127.4890   67.0060 C   0  0  0  0  0  0  0  0  0  0  0  0
  129.4050  128.7210   67.6500 C   0  0  0  0  0  0  0  0  0  0  0  0
  129.3120  128.6930   69.0440 C   0  0  0  0  0  0  0  0  0  0  0  0
  129.1820  129.7080   69.9820 N   0  0  0  0  0  0  0  0  0  0  0  0
  129.1350  129.1770   71.2500 C   0  0  0  0  0  0  0  0  0  0  0  0
  129.0170  129.9300   72.5350 C   0  0  0  0  0  0  0  0  0  0  0  0
  129.8220  131.0500   72.7730 C   0  0  0  0  0  0  0  0  0  0  0  0
  129.7060  131.7590   73.9650 C   0  0  0  0  0  0  0  0  0  0  0  0
  128.7820  131.3510   74.9260 C   0  0  0  0  0  0  0  0  0  0  0  0
  128.6610  132.0650   76.1180 N   0  0  0  0  0  0  0  0  0  0  0  0
  127.9780  130.2350   74.7020 C   0  0  0  0  0  0  0  0  0  0  0  0
  128.0950  129.5270   73.5080 C   0  0  0  0  0  0  0  0  0  0  0  0
  129.2270  127.8120   71.1020 N   0  0  0  0  0  0  0  0  0  0  0  0
  129.3430  127.4840   69.7570 C   0  0  0  0  0  0  0  0  0  0  0  0
  129.4730  126.2530   69.1080 C   0  0  0  0  0  0  0  0  0  0  0  0
  131.9710  125.6310   65.9750 C   0  0  0  0  0  0  0  0  0  0  0  0
  132.8980  125.7580   64.9370 C   0  0  0  0  0  0  0  0  0  0  0  0
  132.4930  125.3070   63.6780 C   0  0  0  0  0  0  0  0  0  0  0  0
  133.1490  125.2710   62.4550 N   0  0  0  0  0  0  0  0  0  0  0  0
  133.6950  123.6170   59.7030 C   0  0  0  0  0  0  0  0  0  0  0  0
  134.0130  123.4080   58.3640 C   0  0  0  0  0  0  0  0  0  0  0  0
  132.8830  123.6880   55.3640 H   0  0  0  0  0  0  0  0  0  0  0  0
  134.5900  123.8420   55.7490 H   0  0  0  0  0  0  0  0  0  0  0  0
  131.7012  125.4673   56.9234 H   0  0  0  0  0  0  0  0  0  0  0  0
  131.1330  125.8432   59.3187 H   0  0  0  0  0  0  0  0  0  0  0  0
  130.3630  124.0050   61.6370 H   0  0  0  0  0  0  0  0  0  0  0  0
  129.2839  124.2322   64.3393 H   0  0  0  0  0  0  0  0  0  0  0  0
  128.7506  124.6707   66.5694 H   0  0  0  0  0  0  0  0  0  0  0  0
  130.1497  124.2271   67.6479 H   0  0  0  0  0  0  0  0  0  0  0  0
  129.6161  127.4673   65.9087 H   0  0  0  0  0  0  0  0  0  0  0  0
  129.3720  129.6660   67.0879 H   0  0  0  0  0  0  0  0  0  0  0  0
  129.1320  130.7010   69.8100 H   0  0  0  0  0  0  0  0  0  0  0  0
  130.5502  131.3716   72.0139 H   0  0  0  0  0  0  0  0  0  0  0  0
  130.3411  132.6382   74.1483 H   0  0  0  0  0  0  0  0  0  0  0  0
  128.7830  133.0660   76.1140 H   0  0  0  0  0  0  0  0  0  0  0  0
  128.5170  131.5640   76.9840 H   0  0  0  0  0  0  0  0  0  0  0  0
  127.2536  129.9143   75.4652 H   0  0  0  0  0  0  0  0  0  0  0  0
  127.4598  128.6470   73.3290 H   0  0  0  0  0  0  0  0  0  0  0  0
  129.2170  127.1810   71.8900 H   0  0  0  0  0  0  0  0  0  0  0  0
  129.4845  125.3060   69.6674 H   0  0  0  0  0  0  0  0  0  0  0  0
  132.2489  125.9759   66.9819 H   0  0  0  0  0  0  0  0  0  0  0  0
  133.8956  126.1909   65.1026 H   0  0  0  0  0  0  0  0  0  0  0  0
  134.0870  125.5810   62.2500 H   0  0  0  0  0  0  0  0  0  0  0  0
  134.2587  123.0908   60.4875 H   0  0  0  0  0  0  0  0  0  0  0  0
  134.8257  122.7189   58.0910 H   0  0  0  0  0  0  0  0  0  0  0  0
  1  2  1  0
  2  3  2  0
  3  4  1  0
  4  5  2  0
  5  6  1  0
  6  7  1  0
  7  8  1  0
  8  9  2  0
  9 10  1  0
 10 11  1  0
 11 12  1  0
 12 13  2  0
 13 14  1  0
 14 15  2  0
 15 16  1  0
 16 17  1  0
 17 18  1  0
 18 19  2  0
 19 20  1  0
 20 21  2  0
 21 22  1  0
 21 23  1  0
 23 24  2  0
 17 25  2  0
 25 26  1  0
 26 27  2  0
 10 28  2  0
 28 29  1  0
 29 30  2  0
 30 31  1  0
  5 32  1  0
 32 33  2  0
 33  2  1  0
 31  6  2  0
 30  8  1  0
 27 12  1  0
 26 15  1  0
 24 18  1  0
  1 34  1  0
  1 35  1  0
  3 36  1  0
  4 37  1  0
  7 38  1  0
  9 39  1  0
 11 40  1  0
 11 41  1  0
 13 42  1  0
 14 43  1  0
 16 44  1  0
 19 45  1  0
 20 46  1  0
 22 47  1  0
 22 48  1  0
 23 49  1  0
 24 50  1  0
 25 51  1  0
 27 52  1  0
 28 53  1  0
 29 54  1  0
 31 55  1  0
 32 56  1  0
 33 57  1  0
M  CHG  2  25   1  31   1
M  END
>  <Binding energies>  (1) 
[-8.75]

>  <Ligand effiencies>  (1) 
[-0.21341463414634146]

>  <Interactions>  (1) 
["V-B:TYR:539:CZ:9845, V-A:HIS:456:CE1:4064, V-A:ASP:366:CG:3208, V-B:GLU:543:CD:9876, V-B:GLU:543:CG:9875, V-A:ARG:545:CZ:4921, V-B:GLU:543:CB:9874, V-A:GLU:543:CD:4903, V-A:ASP:366:CB:3207, H-A:ASP:366:OD2:3210, V-A:GLU:543:CB:4901, V-B:HIS:456:CE1:9037, V-A:ILE:369:CG2:3232, V-A:ILE:369:CD1:3234, V-A:TYR:531:CE1:4787, V-A:TYR:531:CZ:4789, V-A:GLU:543:CG:4902, V-A:GLU:543:C:4897, V-B:HIS:456:CD2:9035, V-A:LYS:547:CE:4945, V-B:GLU:543:CA:9872, H-A:GLU:543:O:4898, H-B:HIS:456:NE2:9038, V-A:ASN:370:CB:3240, V-A:ASP:366:C:3203, V-A:ILE:369:CB:3231, H-B:TYR:539:OH:9846, V-A:ASP:366:CA:3205, H-A:ASN:370:OD1:3242, V-A:ILE:369:CG1:3233, H-A:ASP:366:OD1:3209, V-A:GLY:544:CA:4909, H-A:ASP:366:O:3204, V-A:ASN:370:CA:3238"]

$$$$
RR12_Rahimova_2017
     RDKit          3D

 51 53  0  0  0  0  0  0  0  0999 V2000
  133.2250  124.2490   57.1670 C   0  0  0  0  0  0  0  0  0  0  0  0
  133.2920  123.0700   58.1470 C   0  0  0  0  0  0  0  0  0  0  0  0
  132.0280  122.9540   59.0190 C   0  0  0  0  0  0  0  0  0  0  0  0
  132.3840  122.7290   60.4180 N   0  0  0  0  0  0  0  0  0  0  0  0
  132.7280  121.5280   61.0180 C   0  0  0  0  0  0  0  0  0  0  0  0
  132.7460  120.1930   60.2940 C   0  0  0  0  0  0  0  0  0  0  0  0
  131.3300  119.6500   60.0280 C   0  0  0  0  0  0  0  0  0  0  0  0
  130.3080  120.1090   61.0850 C   0  0  0  0  0  0  0  0  0  0  0  0
  129.4720  121.2280   60.6510 N   0  0  0  0  0  0  0  0  0  0  0  0
  129.1520  122.2920   61.4100 C   0  0  0  0  0  0  0  0  0  0  0  0
  129.5360  122.4320   62.5740 O   0  0  0  0  0  0  0  0  0  0  0  0
  128.2670  123.3480   60.7340 C   0  0  0  0  0  0  0  0  0  0  0  0
  128.2940  123.1560   59.3190 O   0  0  0  0  0  0  0  0  0  0  0  0
  127.1100  123.2110   58.6070 C   0  0  0  0  0  0  0  0  0  0  0  0
  126.0490  123.8830   59.2170 C   0  0  0  0  0  0  0  0  0  0  0  0
  124.8190  123.9940   58.5750 C   0  0  0  0  0  0  0  0  0  0  0  0
  124.6470  123.4290   57.3150 C   0  0  0  0  0  0  0  0  0  0  0  0
  125.6930  122.7530   56.6920 C   0  0  0  0  0  0  0  0  0  0  0  0
  126.9240  122.6420   57.3360 C   0  0  0  0  0  0  0  0  0  0  0  0
  133.0230  121.6480   62.2890 N   0  0  0  0  0  0  0  0  0  0  0  0
  132.9000  122.9830   62.5530 C   0  0  0  0  0  0  0  0  0  0  0  0
  133.1120  123.6680   63.7600 C   0  0  0  0  0  0  0  0  0  0  0  0
  132.9240  125.0500   63.7730 C   0  0  0  0  0  0  0  0  0  0  0  0
  132.5360  125.7400   62.6230 C   0  0  0  0  0  0  0  0  0  0  0  0
  132.3160  125.0870   61.4090 C   0  0  0  0  0  0  0  0  0  0  0  0
  132.5030  123.6990   61.3960 C   0  0  0  0  0  0  0  0  0  0  0  0
  133.1714  125.1919   57.7309 H   0  0  0  0  0  0  0  0  0  0  0  0
  134.1245  124.2510   56.5338 H   0  0  0  0  0  0  0  0  0  0  0  0
  132.3311  124.1491   56.5338 H   0  0  0  0  0  0  0  0  0  0  0  0
  133.4102  122.1398   57.5719 H   0  0  0  0  0  0  0  0  0  0  0  0
  134.1461  123.2423   58.8185 H   0  0  0  0  0  0  0  0  0  0  0  0
  131.4478  123.8852   58.9394 H   0  0  0  0  0  0  0  0  0  0  0  0
  131.4312  122.1007   58.6645 H   0  0  0  0  0  0  0  0  0  0  0  0
  133.2621  120.3204   59.3310 H   0  0  0  0  0  0  0  0  0  0  0  0
  133.2670  119.4693   60.9381 H   0  0  0  0  0  0  0  0  0  0  0  0
  130.9976  120.0032   59.0407 H   0  0  0  0  0  0  0  0  0  0  0  0
  131.3820  118.5521   60.0715 H   0  0  0  0  0  0  0  0  0  0  0  0
  129.6524  119.2591   61.3255 H   0  0  0  0  0  0  0  0  0  0  0  0
  130.8825  120.4572   61.9561 H   0  0  0  0  0  0  0  0  0  0  0  0
  129.1220  121.1850   59.7050 H   0  0  0  0  0  0  0  0  0  0  0  0
  127.2338  123.2482   61.0980 H   0  0  0  0  0  0  0  0  0  0  0  0
  128.6450  124.3524   60.9752 H   0  0  0  0  0  0  0  0  0  0  0  0
  126.1863  124.3285   60.2133 H   0  0  0  0  0  0  0  0  0  0  0  0
  123.9875  124.5254   59.0610 H   0  0  0  0  0  0  0  0  0  0  0  0
  123.6757  123.5172   56.8063 H   0  0  0  0  0  0  0  0  0  0  0  0
  125.5483  122.3087   55.6962 H   0  0  0  0  0  0  0  0  0  0  0  0
  127.7522  122.1074   56.8478 H   0  0  0  0  0  0  0  0  0  0  0  0
  133.4177  123.1301   64.6695 H   0  0  0  0  0  0  0  0  0  0  0  0
  133.0846  125.6072   64.7077 H   0  0  0  0  0  0  0  0  0  0  0  0
  132.3996  126.8303   62.6751 H   0  0  0  0  0  0  0  0  0  0  0  0
  132.0105  125.6361   60.5061 H   0  0  0  0  0  0  0  0  0  0  0  0
  1  2  1  0
  2  3  1  0
  3  4  1  0
  4  5  1  0
  5  6  1  0
  6  7  1  0
  7  8  1  0
  8  9  1  0
  9 10  1  0
 10 11  2  0
 10 12  1  0
 12 13  1  0
 13 14  1  0
 14 15  2  0
 15 16  1  0
 16 17  2  0
 17 18  1  0
 18 19  2  0
  5 20  2  0
 20 21  1  0
 21 22  2  0
 22 23  1  0
 23 24  2  0
 24 25  1  0
 25 26  2  0
 26  4  1  0
 19 14  1  0
 26 21  1  0
  1 27  1  0
  1 28  1  0
  1 29  1  0
  2 30  1  0
  2 31  1  0
  3 32  1  0
  3 33  1  0
  6 34  1  0
  6 35  1  0
  7 36  1  0
  7 37  1  0
  8 38  1  0
  8 39  1  0
  9 40  1  0
 12 41  1  0
 12 42  1  0
 15 43  1  0
 16 44  1  0
 17 45  1  0
 18 46  1  0
 19 47  1  0
 22 48  1  0
 23 49  1  0
 24 50  1  0
 25 51  1  0
M  END
>  <Binding energies>  (1) 
[-6.37]

>  <Ligand effiencies>  (1) 
[-0.23592592592592593]

>  <Interactions>  (1) 
["V-B:ALA:541:CB:9860, V-B:TYR:539:CE2:9844, H-B:TYR:539:O:9836, V-B:MET:535:CE:9803, V-B:PRO:540:CD:9855, V-B:PRO:540:CA:9851, V-A:TRP:381:CH2:3367, V-B:TYR:539:CD2:9842, V-B:PRO:540:N:9852, V-B:PRO:540:CB:9853, V-B:TYR:539:C:9835, V-A:ASP:366:CG:3208, V-A:ARG:545:CZ:4921, V-A:ASP:366:CB:3207, V-A:GLY:454:CA:4044, V-A:ILE:369:CG2:3232, V-A:ILE:369:CD1:3234, V-A:TRP:381:CZ3:3366, V-A:LEU:475:CD2:4254, V-B:LEU:363:CD1:8156, V-A:TYR:531:CE1:4787, V-A:TYR:531:CZ:4789, V-A:TRP:381:CZ2:3365, V-A:ASP:366:C:3203, V-A:ILE:369:CB:3231"]

$$$$
RR13_Rahimova_2017
     RDKit          3D

 84 90  0  0  0  0  0  0  0  0999 V2000
  130.6360  121.8690   63.3700 Cl  0  0  0  0  0  0  0  0  0  0  0  0
  131.6660  122.5210   62.1410 C   0  0  0  0  0  0  0  0  0  0  0  0
  132.1380  121.6480   61.1570 C   0  0  0  0  0  0  0  0  0  0  0  0
  132.9870  122.1060   60.1540 C   0  0  0  0  0  0  0  0  0  0  0  0
  133.3740  123.4440   60.1280 C   0  0  0  0  0  0  0  0  0  0  0  0
  132.9070  124.3210   61.1060 C   0  0  0  0  0  0  0  0  0  0  0  0
  132.0400  123.8800   62.1190 C   0  0  0  0  0  0  0  0  0  0  0  0
  131.5580  124.8670   63.2050 C   0  0  1  0  0  0  0  0  0  0  0  0
  132.6120  125.0300   64.3110 C   0  0  0  0  0  0  0  0  0  0  0  0
  133.9180  124.9990   64.1610 N   0  0  0  0  0  0  0  0  0  0  0  0
  134.4510  125.1630   65.4360 N   0  0  0  0  0  0  0  0  0  0  0  0
  133.4350  125.2750   66.3640 N   0  0  0  0  0  0  0  0  0  0  0  0
  132.3100  125.1650   65.6490 N   0  0  0  0  0  0  0  0  0  0  0  0
  131.0090  125.2750   66.2990 C   0  0  0  0  0  0  0  0  0  0  0  0
  130.9250  126.5830   67.1070 C   0  0  0  0  0  0  0  0  0  0  0  0
  129.6180  127.3230   66.8680 C   0  0  0  0  0  0  0  0  0  0  0  0
  128.5270  126.6500   66.3100 C   0  0  0  0  0  0  0  0  0  0  0  0
  127.3330  127.3300   66.0850 C   0  0  0  0  0  0  0  0  0  0  0  0
  127.2340  128.6790   66.4190 C   0  0  0  0  0  0  0  0  0  0  0  0
  128.3170  129.3550   66.9740 C   0  0  0  0  0  0  0  0  0  0  0  0
  129.5120  128.6760   67.1990 C   0  0  0  0  0  0  0  0  0  0  0  0
  131.1050  126.1690   62.6610 N   0  0  0  0  0  0  0  0  0  0  0  0
  130.2180  126.8510   63.6210 C   0  0  0  0  0  0  0  0  0  0  0  0
  129.8490  128.2660   63.1180 C   0  0  0  0  0  0  0  0  0  0  0  0
  129.1300  128.1900   61.8360 N   0  0  0  0  0  0  0  0  0  0  0  0
  128.6840  129.5190   61.3570 C   0  0  1  0  0  0  0  0  0  0  0  0
  127.2560  129.9340   61.7750 C   0  0  0  0  0  0  0  0  0  0  0  0
  126.6620  129.2150   62.8220 C   0  0  0  0  0  0  0  0  0  0  0  0
  125.3830  129.5310   63.2780 C   0  0  0  0  0  0  0  0  0  0  0  0
  124.6720  130.5710   62.6860 C   0  0  0  0  0  0  0  0  0  0  0  0
  125.2370  131.2860   61.6340 C   0  0  0  0  0  0  0  0  0  0  0  0
  126.5170  130.9760   61.1670 C   0  0  0  0  0  0  0  0  0  0  0  0
  127.1040  131.8780   59.8100 Cl  0  0  0  0  0  0  0  0  0  0  0  0
  129.6730  130.6400   61.6840 C   0  0  0  0  0  0  0  0  0  0  0  0
  129.5100  131.5520   62.6140 N   0  0  0  0  0  0  0  0  0  0  0  0
  130.6510  132.3470   62.5730 N   0  0  0  0  0  0  0  0  0  0  0  0
  131.5170  131.8830   61.6050 N   0  0  0  0  0  0  0  0  0  0  0  0
  130.9020  130.8150   61.0830 N   0  0  0  0  0  0  0  0  0  0  0  0
  131.5280  130.0700   59.9960 C   0  0  0  0  0  0  0  0  0  0  0  0
  132.3750  131.0100   59.1190 C   0  0  0  0  0  0  0  0  0  0  0  0
  131.5580  131.6510   58.0090 C   0  0  0  0  0  0  0  0  0  0  0  0
  130.2570  132.0920   58.2660 C   0  0  0  0  0  0  0  0  0  0  0  0
  129.5110  132.6850   57.2510 C   0  0  0  0  0  0  0  0  0  0  0  0
  130.0680  132.8350   55.9820 C   0  0  0  0  0  0  0  0  0  0  0  0
  131.3660  132.3980   55.7200 C   0  0  0  0  0  0  0  0  0  0  0  0
  132.1120  131.8060   56.7350 C   0  0  0  0  0  0  0  0  0  0  0  0
  130.0210  127.5130   60.8770 C   0  0  0  0  0  0  0  0  0  0  0  0
  130.3790  126.0950   61.3810 C   0  0  0  0  0  0  0  0  0  0  0  0
  131.8360  120.5904   61.1755 H   0  0  0  0  0  0  0  0  0  0  0  0
  133.3522  121.4122   59.3825 H   0  0  0  0  0  0  0  0  0  0  0  0
  134.0467  123.8078   59.3374 H   0  0  0  0  0  0  0  0  0  0  0  0
  133.2225  125.3746   61.0839 H   0  0  0  0  0  0  0  0  0  0  0  0
  130.6614  124.4194   63.6586 H   0  0  0  0  0  0  0  0  0  0  0  0
  130.2191  125.2699   65.5334 H   0  0  0  0  0  0  0  0  0  0  0  0
  130.8768  124.4230   66.9821 H   0  0  0  0  0  0  0  0  0  0  0  0
  131.0060  126.3438   68.1776 H   0  0  0  0  0  0  0  0  0  0  0  0
  131.7475  127.2358   66.7792 H   0  0  0  0  0  0  0  0  0  0  0  0
  128.6118  125.5848   66.0491 H   0  0  0  0  0  0  0  0  0  0  0  0
  126.4721  126.8047   65.6457 H   0  0  0  0  0  0  0  0  0  0  0  0
  126.2901  129.2155   66.2423 H   0  0  0  0  0  0  0  0  0  0  0  0
  128.2294  130.4203   67.2336 H   0  0  0  0  0  0  0  0  0  0  0  0
  130.3715  129.2046   67.6369 H   0  0  0  0  0  0  0  0  0  0  0  0
  129.2980  126.2607   63.7441 H   0  0  0  0  0  0  0  0  0  0  0  0
  130.7444  126.9446   64.5823 H   0  0  0  0  0  0  0  0  0  0  0  0
  129.2074  128.7586   63.8635 H   0  0  0  0  0  0  0  0  0  0  0  0
  130.7744  128.8423   62.9715 H   0  0  0  0  0  0  0  0  0  0  0  0
  128.6531  129.3784   60.2665 H   0  0  0  0  0  0  0  0  0  0  0  0
  127.2144  128.3877   63.2915 H   0  0  0  0  0  0  0  0  0  0  0  0
  124.9362  128.9591   64.1047 H   0  0  0  0  0  0  0  0  0  0  0  0
  123.6657  130.8272   63.0489 H   0  0  0  0  0  0  0  0  0  0  0  0
  124.6699  132.1037   61.1652 H   0  0  0  0  0  0  0  0  0  0  0  0
  132.1753  129.2875   60.4187 H   0  0  0  0  0  0  0  0  0  0  0  0
  130.7414  129.6157   59.3756 H   0  0  0  0  0  0  0  0  0  0  0  0
  132.7947  131.8043   59.7538 H   0  0  0  0  0  0  0  0  0  0  0  0
  133.1692  130.4103   58.6505 H   0  0  0  0  0  0  0  0  0  0  0  0
  129.8228  131.9707   59.2694 H   0  0  0  0  0  0  0  0  0  0  0  0
  128.4868  133.0336   57.4496 H   0  0  0  0  0  0  0  0  0  0  0  0
  129.4781  133.3025   55.1798 H   0  0  0  0  0  0  0  0  0  0  0  0
  131.7983  132.5206   54.7160 H   0  0  0  0  0  0  0  0  0  0  0  0
  133.1369  131.4603   56.5348 H   0  0  0  0  0  0  0  0  0  0  0  0
  129.5136  127.4344   59.9042 H   0  0  0  0  0  0  0  0  0  0  0  0
  130.9462  128.0992   60.7748 H   0  0  0  0  0  0  0  0  0  0  0  0
  129.4538  125.5171   61.5227 H   0  0  0  0  0  0  0  0  0  0  0  0
  131.0224  125.6049   60.6355 H   0  0  0  0  0  0  0  0  0  0  0  0
  1  2  1  0
  2  3  2  0
  3  4  1  0
  4  5  2  0
  5  6  1  0
  6  7  2  0
  7  8  1  0
  8  9  1  0
  9 10  2  0
 10 11  1  0
 11 12  2  0
 12 13  1  0
 13 14  1  0
 14 15  1  0
 15 16  1  0
 16 17  2  0
 17 18  1  0
 18 19  2  0
 19 20  1  0
 20 21  2  0
  8 22  1  0
 22 23  1  0
 23 24  1  0
 24 25  1  0
 25 26  1  0
 26 27  1  0
 27 28  2  0
 28 29  1  0
 29 30  2  0
 30 31  1  0
 31 32  2  0
 32 33  1  0
 26 34  1  0
 34 35  2  0
 35 36  1  0
 36 37  2  0
 37 38  1  0
 38 39  1  0
 39 40  1  0
 40 41  1  0
 41 42  2  0
 42 43  1  0
 43 44  2  0
 44 45  1  0
 45 46  2  0
 25 47  1  0
 47 48  1  0
  7  2  1  0
 13  9  1  0
 21 16  1  0
 48 22  1  0
 32 27  1  0
 38 34  1  0
 46 41  1  0
  3 49  1  0
  4 50  1  0
  5 51  1  0
  6 52  1  0
  8 53  1  1
 14 54  1  0
 14 55  1  0
 15 56  1  0
 15 57  1  0
 17 58  1  0
 18 59  1  0
 19 60  1  0
 20 61  1  0
 21 62  1  0
 23 63  1  0
 23 64  1  0
 24 65  1  0
 24 66  1  0
 26 67  1  6
 28 68  1  0
 29 69  1  0
 30 70  1  0
 31 71  1  0
 39 72  1  0
 39 73  1  0
 40 74  1  0
 40 75  1  0
 42 76  1  0
 43 77  1  0
 44 78  1  0
 45 79  1  0
 46 80  1  0
 47 81  1  0
 47 82  1  0
 48 83  1  0
 48 84  1  0
M  END
>  <Binding energies>  (1) 
[-12.12]

>  <Ligand effiencies>  (1) 
[-0.2525]

>  <Interactions>  (1) 
["V-B:ALA:541:CB:9860, V-A:HIS:456:CE1:4064, V-A:ASP:366:CG:3208, H-A:ARG:545:NE:4919, H-A:TYR:484:OH:4343, H-A:GLY:454:N:4045, V-B:GLU:543:CD:9876, V-B:GLU:543:CG:9875, H-A:HIS:456:NE2:4065, V-B:GLU:543:CB:9874, V-A:GLU:543:CD:4903, H-A:ARG:545:NH2:4923, V-A:LEU:363:CD1:3184, V-A:PRO:540:N:4879, V-A:TYR:539:CE1:4870, V-A:TYR:539:C:4862, V-A:TYR:539:CD1:4868, V-A:PRO:540:CA:4878, V-A:TYR:539:CG:4867, H-A:ALA:541:N:4886, V-A:PRO:540:CD:4882, V-A:PRO:540:CB:4880, V-A:TYR:539:CE2:4871, V-A:GLU:543:CB:4901, V-A:TYR:484:CZ:4342, V-B:HIS:456:CE1:9037, V-A:ILE:369:CG2:3232, V-A:ILE:369:CD1:3234, V-A:LEU:475:CD2:4254, V-A:GLU:543:CG:4902, V-B:ARG:545:CZ:9894, H-A:ARG:545:NH1:4922"]

$$$$
RR14_Rahimova_2017
     RDKit          3D

 76 80  0  0  0  0  0  0  0  0999 V2000
  129.9250  123.3310   63.5840 C   0  0  0  0  0  0  0  0  0  0  0  0
  129.1570  122.3430   62.9050 O   0  0  0  0  0  0  0  0  0  0  0  0
  128.9530  122.4660   61.5450 C   0  0  0  0  0  0  0  0  0  0  0  0
  127.7580  123.0650   61.1460 C   0  0  0  0  0  0  0  0  0  0  0  0
  127.4540  123.2100   59.7960 C   0  0  0  0  0  0  0  0  0  0  0  0
  128.3470  122.7490   58.8260 C   0  0  0  0  0  0  0  0  0  0  0  0
  127.9890  122.8470   57.3480 C   0  0  0  0  0  0  0  0  0  0  0  0
  126.6340  123.3470   57.1130 N   0  0  0  0  0  0  0  0  0  0  0  0
  125.7250  122.5760   56.5040 N   0  0  0  0  0  0  0  0  0  0  0  0
  124.5940  123.3640   56.4240 N   0  0  0  0  0  0  0  0  0  0  0  0
  124.8410  124.6140   56.9840 N   0  0  0  0  0  0  0  0  0  0  0  0
  126.0890  124.5820   57.3890 C   0  0  0  0  0  0  0  0  0  0  0  0
  126.8260  125.7380   58.0510 C   0  0  0  0  0  0  0  0  0  0  0  0
  127.3030  126.7320   57.0750 N   0  0  0  0  0  0  0  0  0  0  0  0
  127.8920  127.9060   57.7320 C   0  0  0  0  0  0  0  0  0  0  0  0
  128.1780  129.0730   56.7610 C   0  0  0  0  0  0  0  0  0  0  0  0
  129.6640  129.2030   56.3680 C   0  0  0  0  0  0  0  0  0  0  0  0
  130.2200  130.5350   56.6310 N   0  0  0  0  0  0  0  0  0  0  0  0
  129.1390  131.5180   56.7820 C   0  0  0  0  0  0  0  0  0  0  0  0
  129.6920  132.9410   57.0080 C   0  0  0  0  0  0  0  0  0  0  0  0
  130.5950  133.2870   55.9630 O   0  0  0  0  0  0  0  0  0  0  0  0
  131.7030  132.3970   55.8920 C   0  0  0  0  0  0  0  0  0  0  0  0
  131.2110  130.9570   55.6300 C   0  0  0  0  0  0  0  0  0  0  0  0
  128.2720  126.1150   56.1580 C   0  0  0  0  0  0  0  0  0  0  0  0
  129.5010  125.4830   56.8060 C   0  0  0  0  0  0  0  0  0  0  0  0
  129.7680  125.6620   58.1230 C   0  0  0  0  0  0  0  0  0  0  0  0
  130.9710  125.0950   58.7650 C   0  0  0  0  0  0  0  0  0  0  0  0
  131.2680  125.2440   60.1300 C   0  0  0  0  0  0  0  0  0  0  0  0
  130.3510  126.0190   61.0670 C   0  0  0  0  0  0  0  0  0  0  0  0
  132.4330  124.6650   60.6400 C   0  0  0  0  0  0  0  0  0  0  0  0
  133.2930  123.9470   59.8100 C   0  0  0  0  0  0  0  0  0  0  0  0
  133.0050  123.7900   58.4510 C   0  0  0  0  0  0  0  0  0  0  0  0
  133.9630  122.9980   57.5710 C   0  0  0  0  0  0  0  0  0  0  0  0
  131.8370  124.3680   57.9290 C   0  0  0  0  0  0  0  0  0  0  0  0
  131.5070  124.2390   56.5630 N   0  0  0  0  0  0  0  0  0  0  0  0
  130.4170  124.7420   55.9320 C   0  0  0  0  0  0  0  0  0  0  0  0
  130.2590  124.5660   54.7240 O   0  0  0  0  0  0  0  0  0  0  0  0
  129.5590  122.1750   59.2140 C   0  0  0  0  0  0  0  0  0  0  0  0
  129.8610  122.0300   60.5650 C   0  0  0  0  0  0  0  0  0  0  0  0
  129.8192  123.1949   64.6704 H   0  0  0  0  0  0  0  0  0  0  0  0
  130.9837  123.2295   63.3031 H   0  0  0  0  0  0  0  0  0  0  0  0
  129.5655  124.3319   63.3031 H   0  0  0  0  0  0  0  0  0  0  0  0
  127.0493  123.4261   61.9059 H   0  0  0  0  0  0  0  0  0  0  0  0
  126.5106  123.6876   59.4927 H   0  0  0  0  0  0  0  0  0  0  0  0
  128.7020  123.5281   56.8604 H   0  0  0  0  0  0  0  0  0  0  0  0
  128.0376  121.8296   56.9326 H   0  0  0  0  0  0  0  0  0  0  0  0
  126.1433  126.2347   58.7561 H   0  0  0  0  0  0  0  0  0  0  0  0
  127.7058  125.3242   58.5655 H   0  0  0  0  0  0  0  0  0  0  0  0
  127.1945  128.2591   58.5058 H   0  0  0  0  0  0  0  0  0  0  0  0
  128.8574  127.5913   58.1550 H   0  0  0  0  0  0  0  0  0  0  0  0
  127.5892  128.9151   55.8454 H   0  0  0  0  0  0  0  0  0  0  0  0
  127.9014  130.0007   57.2833 H   0  0  0  0  0  0  0  0  0  0  0  0
  130.2426  128.4638   56.9414 H   0  0  0  0  0  0  0  0  0  0  0  0
  129.7302  129.0309   55.2836 H   0  0  0  0  0  0  0  0  0  0  0  0
  128.5238  131.5148   55.8701 H   0  0  0  0  0  0  0  0  0  0  0  0
  128.5401  131.2382   57.6612 H   0  0  0  0  0  0  0  0  0  0  0  0
  128.8577  133.6578   57.0200 H   0  0  0  0  0  0  0  0  0  0  0  0
  130.2256  132.9713   57.9694 H   0  0  0  0  0  0  0  0  0  0  0  0
  132.3682  132.7088   55.0733 H   0  0  0  0  0  0  0  0  0  0  0  0
  132.2476  132.4232   56.8474 H   0  0  0  0  0  0  0  0  0  0  0  0
  130.7516  130.9125   54.6315 H   0  0  0  0  0  0  0  0  0  0  0  0
  132.0757  130.2801   55.6941 H   0  0  0  0  0  0  0  0  0  0  0  0
  127.7479  125.3294   55.5940 H   0  0  0  0  0  0  0  0  0  0  0  0
  128.6556  126.9374   55.5362 H   0  0  0  0  0  0  0  0  0  0  0  0
  129.0657  126.2487   58.7333 H   0  0  0  0  0  0  0  0  0  0  0  0
  130.6176  125.7937   62.1102 H   0  0  0  0  0  0  0  0  0  0  0  0
  130.4663  127.0975   60.8838 H   0  0  0  0  0  0  0  0  0  0  0  0
  129.3068  125.7255   60.8838 H   0  0  0  0  0  0  0  0  0  0  0  0
  132.6741  124.7768   61.7074 H   0  0  0  0  0  0  0  0  0  0  0  0
  134.2068  123.4998   60.2284 H   0  0  0  0  0  0  0  0  0  0  0  0
  134.6555  122.4255   58.2056 H   0  0  0  0  0  0  0  0  0  0  0  0
  133.3904  122.3060   56.9359 H   0  0  0  0  0  0  0  0  0  0  0  0
  134.5350  123.6905   56.9359 H   0  0  0  0  0  0  0  0  0  0  0  0
  132.1380  123.7260   55.9670 H   0  0  0  0  0  0  0  0  0  0  0  0
  130.2760  121.8370   58.4513 H   0  0  0  0  0  0  0  0  0  0  0  0
  130.8145  121.5721   60.8669 H   0  0  0  0  0  0  0  0  0  0  0  0
  1  2  1  0
  2  3  1  0
  3  4  2  0
  4  5  1  0
  5  6  2  0
  6  7  1  0
  7  8  1  0
  8  9  1  0
  9 10  2  0
 10 11  1  0
 11 12  2  0
 12 13  1  0
 13 14  1  0
 14 15  1  0
 15 16  1  0
 16 17  1  0
 17 18  1  0
 18 19  1  0
 19 20  1  0
 20 21  1  0
 21 22  1  0
 22 23  1  0
 14 24  1  0
 24 25  1  0
 25 26  2  0
 26 27  1  0
 27 28  2  0
 28 29  1  0
 28 30  1  0
 30 31  2  0
 31 32  1  0
 32 33  1  0
 32 34  2  0
 34 35  1  0
 35 36  1  0
 36 37  2  0
  6 38  1  0
 38 39  2  0
 39  3  1  0
 12  8  1  0
 23 18  1  0
 36 25  1  0
 34 27  1  0
  1 40  1  0
  1 41  1  0
  1 42  1  0
  4 43  1  0
  5 44  1  0
  7 45  1  0
  7 46  1  0
 13 47  1  0
 13 48  1  0
 15 49  1  0
 15 50  1  0
 16 51  1  0
 16 52  1  0
 17 53  1  0
 17 54  1  0
 19 55  1  0
 19 56  1  0
 20 57  1  0
 20 58  1  0
 22 59  1  0
 22 60  1  0
 23 61  1  0
 23 62  1  0
 24 63  1  0
 24 64  1  0
 26 65  1  0
 29 66  1  0
 29 67  1  0
 29 68  1  0
 30 69  1  0
 31 70  1  0
 33 71  1  0
 33 72  1  0
 33 73  1  0
 35 74  1  0
 38 75  1  0
 39 76  1  0
M  END
>  <Binding energies>  (1) 
[-10.01]

>  <Ligand effiencies>  (1) 
[-0.25025]

>  <Interactions>  (1) 
["H-B:TYR:531:OH:9763, V-B:ALA:541:CB:9860, V-B:TYR:539:CE2:9844, V-B:MET:535:CE:9803, V-B:PRO:540:CA:9851, V-B:TYR:539:CD2:9842, V-B:PRO:540:N:9852, V-B:TYR:539:C:9835, V-B:TYR:539:CZ:9845, V-A:ASP:366:CG:3208, V-B:GLU:543:CD:9876, V-B:GLU:543:CG:9875, V-A:LEU:363:CD1:3184, V-A:PRO:540:N:4879, V-A:TYR:539:CE1:4870, V-A:TYR:539:C:4862, V-A:TYR:539:CD1:4868, V-A:ASP:366:CB:3207, V-A:PRO:540:CA:4878, V-A:TYR:539:CA:4864, V-A:TYR:539:CG:4867, V-A:PRO:540:CD:4882, V-A:ILE:369:CG2:3232, V-A:ILE:369:CD1:3234, H-A:TYR:539:N:4865, H-A:LYS:534:NZ:4818, V-A:TYR:531:CE1:4787, V-A:TYR:531:CZ:4789, V-A:ASP:366:C:3203, V-A:ILE:369:CB:3231, H-B:TYR:539:OH:9846"]

$$$$
RR15_Rahimova_2017
     RDKit          3D

 85 89  0  0  0  0  0  0  0  0999 V2000
  133.2490  122.4330   61.6880 C   0  0  0  0  0  0  0  0  0  0  0  0
  133.2880  121.9610   60.3450 O   0  0  0  0  0  0  0  0  0  0  0  0
  132.6530  122.6830   59.3500 C   0  0  0  0  0  0  0  0  0  0  0  0
  133.3330  123.4750   58.4100 C   0  0  0  0  0  0  0  0  0  0  0  0
  132.6330  124.1800   57.4340 C   0  0  0  0  0  0  0  0  0  0  0  0
  131.2370  124.1170   57.3690 C   0  0  0  0  0  0  0  0  0  0  0  0
  130.4810  124.8840   56.3200 C   0  0  0  0  0  0  0  0  0  0  0  0
  130.6330  124.6690   55.0200 N   0  0  0  0  0  0  0  0  0  0  0  0
  129.7900  125.5570   54.3840 N   0  0  0  0  0  0  0  0  0  0  0  0
  129.1850  126.1910   55.3900 N   0  0  0  0  0  0  0  0  0  0  0  0
  128.3160  127.3450   55.1670 C   0  0  0  0  0  0  0  0  0  0  0  0
  128.5470  128.5290   56.1390 C   0  0  0  0  0  0  0  0  0  0  0  0
  129.6620  129.0560   56.1600 O   0  0  0  0  0  0  0  0  0  0  0  0
  127.5150  128.9770   56.9180 N   0  0  0  0  0  0  0  0  0  0  0  0
  127.1070  128.2570   58.1400 C   0  0  0  0  0  0  0  0  0  0  0  0
  125.9730  127.2350   57.9060 C   0  0  0  0  0  0  0  0  0  0  0  0
  126.2280  125.8330   58.5090 C   0  0  0  0  0  0  0  0  0  0  0  0
  126.2480  124.7570   57.5140 N   0  0  0  0  0  0  0  0  0  0  0  0
  127.4080  123.8630   57.6380 C   0  0  0  0  0  0  0  0  0  0  0  0
  127.3360  122.7000   56.6240 C   0  0  0  0  0  0  0  0  0  0  0  0
  126.1020  122.0040   56.7620 O   0  0  0  0  0  0  0  0  0  0  0  0
  124.9770  122.8460   56.5400 C   0  0  0  0  0  0  0  0  0  0  0  0
  124.9820  124.0110   57.5530 C   0  0  0  0  0  0  0  0  0  0  0  0
  126.8530  130.3030   56.7220 C   0  0  2  0  0  0  0  0  0  0  0  0
  127.1430  130.9610   55.3360 C   0  0  0  0  0  0  0  0  0  0  0  0
  126.2420  131.1400   54.5170 O   0  0  0  0  0  0  0  0  0  0  0  0
  128.4150  131.3450   55.1300 N   0  0  0  0  0  0  0  0  0  0  0  0
  128.8990  132.0690   53.9600 C   0  0  0  0  0  0  0  0  0  0  0  0
  130.2220  132.7960   54.2630 C   0  0  2  0  0  0  0  0  0  0  0  0
  131.4890  131.9280   54.1620 C   0  0  0  0  0  0  0  0  0  0  0  0
  131.8360  131.5970   55.5940 C   0  0  0  0  0  0  0  0  0  0  0  0
  131.3850  132.8580   56.3100 C   0  0  0  0  0  0  0  0  0  0  0  0
  130.1650  133.1690   55.6460 O   0  0  0  0  0  0  0  0  0  0  0  0
  127.0170  131.1750   57.9610 C   0  0  0  0  0  0  0  0  0  0  0  0
  128.2330  131.8460   58.1390 C   0  0  0  0  0  0  0  0  0  0  0  0
  128.4400  132.6550   59.2530 C   0  0  0  0  0  0  0  0  0  0  0  0
  127.4290  132.8020   60.1970 C   0  0  0  0  0  0  0  0  0  0  0  0
  127.6290  133.5890   61.2780 F   0  0  0  0  0  0  0  0  0  0  0  0
  126.2120  132.1440   60.0360 C   0  0  0  0  0  0  0  0  0  0  0  0
  126.0070  131.3340   58.9230 C   0  0  0  0  0  0  0  0  0  0  0  0
  129.6110  125.8340   56.6080 N   0  0  0  0  0  0  0  0  0  0  0  0
  130.5620  123.3250   58.3070 C   0  0  0  0  0  0  0  0  0  0  0  0
  131.2540  122.6050   59.2950 C   0  0  0  0  0  0  0  0  0  0  0  0
  130.6330  121.8070   60.2400 O   0  0  0  0  0  0  0  0  0  0  0  0
  129.2520  122.0020   60.5270 C   0  0  0  0  0  0  0  0  0  0  0  0
  133.3195  121.5798   62.3787 H   0  0  0  0  0  0  0  0  0  0  0  0
  134.0938  123.1159   61.8613 H   0  0  0  0  0  0  0  0  0  0  0  0
  132.3036  122.9679   61.8613 H   0  0  0  0  0  0  0  0  0  0  0  0
  134.4306  123.5391   58.4452 H   0  0  0  0  0  0  0  0  0  0  0  0
  133.1841  124.7934   56.7059 H   0  0  0  0  0  0  0  0  0  0  0  0
  128.4832  127.7063   54.1416 H   0  0  0  0  0  0  0  0  0  0  0  0
  127.2874  126.9967   55.3418 H   0  0  0  0  0  0  0  0  0  0  0  0
  127.9820  127.7209   58.5363 H   0  0  0  0  0  0  0  0  0  0  0  0
  126.7229  129.0093   58.8446 H   0  0  0  0  0  0  0  0  0  0  0  0
  125.0521  127.6374   58.3532 H   0  0  0  0  0  0  0  0  0  0  0  0
  125.9019  127.0954   56.8172 H   0  0  0  0  0  0  0  0  0  0  0  0
  127.2002  125.8481   59.0234 H   0  0  0  0  0  0  0  0  0  0  0  0
  125.3934  125.6215   59.1936 H   0  0  0  0  0  0  0  0  0  0  0  0
  128.3260  124.4408   57.4549 H   0  0  0  0  0  0  0  0  0  0  0  0
  127.4095  123.4375   58.6524 H   0  0  0  0  0  0  0  0  0  0  0  0
  127.4142  123.1024   55.6032 H   0  0  0  0  0  0  0  0  0  0  0  0
  128.1650  122.0032   56.8171 H   0  0  0  0  0  0  0  0  0  0  0  0
  125.0212  123.2513   55.5184 H   0  0  0  0  0  0  0  0  0  0  0  0
  124.0555  122.2592   56.6688 H   0  0  0  0  0  0  0  0  0  0  0  0
  124.1562  124.6967   57.3125 H   0  0  0  0  0  0  0  0  0  0  0  0
  124.8619  123.5898   58.5621 H   0  0  0  0  0  0  0  0  0  0  0  0
  125.7675  130.1458   56.6387 H   0  0  0  0  0  0  0  0  0  0  0  0
  129.0900  131.1880   55.8640 H   0  0  0  0  0  0  0  0  0  0  0  0
  129.0615  131.3557   53.1386 H   0  0  0  0  0  0  0  0  0  0  0  0
  128.1457  132.8195   53.6786 H   0  0  0  0  0  0  0  0  0  0  0  0
  130.3015  133.6094   53.5268 H   0  0  0  0  0  0  0  0  0  0  0  0
  131.2874  131.0110   53.5889 H   0  0  0  0  0  0  0  0  0  0  0  0
  132.3092  132.4442   53.6416 H   0  0  0  0  0  0  0  0  0  0  0  0
  131.2840  130.7139   55.9481 H   0  0  0  0  0  0  0  0  0  0  0  0
  132.8944  131.3432   55.7534 H   0  0  0  0  0  0  0  0  0  0  0  0
  131.2180  132.6692   57.3807 H   0  0  0  0  0  0  0  0  0  0  0  0
  132.1243  133.6717   56.2732 H   0  0  0  0  0  0  0  0  0  0  0  0
  129.0322  131.7329   57.3917 H   0  0  0  0  0  0  0  0  0  0  0  0
  129.3996  133.1760   59.3862 H   0  0  0  0  0  0  0  0  0  0  0  0
  125.4160  132.2641   60.7856 H   0  0  0  0  0  0  0  0  0  0  0  0
  125.0459  130.8142   58.7961 H   0  0  0  0  0  0  0  0  0  0  0  0
  129.4643  123.2655   58.2689 H   0  0  0  0  0  0  0  0  0  0  0  0
  129.1034  122.0230   61.6167 H   0  0  0  0  0  0  0  0  0  0  0  0
  128.9185  122.9561   60.0930 H   0  0  0  0  0  0  0  0  0  0  0  0
  128.6673  121.1775   60.0930 H   0  0  0  0  0  0  0  0  0  0  0  0
  1  2  1  0
  2  3  1  0
  3  4  2  0
  4  5  1  0
  5  6  2  0
  6  7  1  0
  7  8  1  0
  8  9  2  0
  9 10  1  0
 10 11  1  0
 11 12  1  0
 12 13  2  0
 12 14  1  0
 14 15  1  0
 15 16  1  0
 16 17  1  0
 17 18  1  0
 18 19  1  0
 19 20  1  0
 20 21  1  0
 21 22  1  0
 22 23  1  0
 14 24  1  0
 24 25  1  0
 25 26  2  0
 25 27  1  0
 27 28  1  0
 28 29  1  0
 29 30  1  0
 30 31  1  0
 31 32  1  0
 32 33  1  0
 24 34  1  0
 34 35  2  0
 35 36  1  0
 36 37  2  0
 37 38  1  0
 37 39  1  0
 39 40  2  0
 10 41  1  0
  6 42  1  0
 42 43  2  0
 43 44  1  0
 44 45  1  0
 43  3  1  0
 41  7  2  0
 23 18  1  0
 33 29  1  0
 40 34  1  0
  1 46  1  0
  1 47  1  0
  1 48  1  0
  4 49  1  0
  5 50  1  0
 11 51  1  0
 11 52  1  0
 15 53  1  0
 15 54  1  0
 16 55  1  0
 16 56  1  0
 17 57  1  0
 17 58  1  0
 19 59  1  0
 19 60  1  0
 20 61  1  0
 20 62  1  0
 22 63  1  0
 22 64  1  0
 23 65  1  0
 23 66  1  0
 24 67  1  6
 27 68  1  0
 28 69  1  0
 28 70  1  0
 29 71  1  6
 30 72  1  0
 30 73  1  0
 31 74  1  0
 31 75  1  0
 32 76  1  0
 32 77  1  0
 35 78  1  0
 36 79  1  0
 39 80  1  0
 40 81  1  0
 42 82  1  0
 45 83  1  0
 45 84  1  0
 45 85  1  0
M  END
>  <Binding energies>  (1) 
[-9.92]

>  <Ligand effiencies>  (1) 
[-0.21565217391304348]

>  <Interactions>  (1) 
["V-B:TYR:539:CE2:9844, V-B:MET:535:CE:9803, V-B:PRO:540:CD:9855, V-B:PRO:540:CA:9851, V-B:TYR:539:CD2:9842, V-B:PRO:540:N:9852, V-B:PRO:540:CB:9853, V-B:TYR:539:C:9835, V-B:TYR:539:CZ:9845, V-A:TYR:539:CZ:4872, V-A:LEU:363:CD1:3184, V-A:PRO:540:N:4879, V-A:TYR:539:CE1:4870, V-A:TYR:539:CD1:4868, V-A:ASP:366:CB:3207, V-A:PRO:540:CG:4881, V-A:PRO:540:CA:4878, H-A:TYR:531:OH:4790, V-A:PRO:540:CD:4882, V-A:ILE:538:CA:4855, V-A:PRO:540:CB:4880, V-A:TYR:539:CE2:4871, V-A:TYR:539:CD2:4869, V-A:ILE:369:CD1:3234, V-A:LEU:475:CD2:4254, H-A:TYR:539:N:4865, H-A:LYS:534:NZ:4818, V-B:LEU:363:CD1:8156, V-A:TYR:531:CE1:4787, V-A:TYR:531:CZ:4789, V-A:ILE:538:CD1:4860, V-A:VAL:537:C:4845, V-A:MET:535:CB:4827, V-A:MET:535:CG:4828, H-B:TYR:539:N:9838, V-B:ASP:366:CG:8180, V-B:ASP:366:CB:8179, H-A:TYR:539:OH:4873, H-B:TYR:539:OH:9846"]

$$$$
RR16_Rahimova_2017
     RDKit          3D

 80 85  0  0  0  0  0  0  0  0999 V2000
  131.4660  126.9420   73.1230 O   0  0  0  0  0  0  0  0  0  0  0  0
  129.9990  126.8850   73.1480 S   0  0  0  0  0  0  0  0  0  0  0  0
  129.2390  127.5510   74.2120 O   0  0  0  0  0  0  0  0  0  0  0  0
  129.5320  125.1840   73.1210 N   0  0  0  0  0  0  0  0  0  0  0  0
  130.3420  124.1610   73.8230 C   0  0  0  0  0  0  0  0  0  0  0  0
  129.3950  123.1750   74.5550 C   0  0  0  0  0  0  0  0  0  0  0  0
  128.3830  122.3950   73.6940 C   0  0  0  0  0  0  0  0  0  0  0  0
  129.0140  121.6650   72.4960 C   0  0  0  0  0  0  0  0  0  0  0  0
  129.4000  122.5520   71.2970 C   0  0  0  0  0  0  0  0  0  0  0  0
  130.7310  123.3240   71.3910 C   0  0  0  0  0  0  0  0  0  0  0  0
  131.3150  123.5230   72.8030 C   0  0  0  0  0  0  0  0  0  0  0  0
  129.4290  127.5290   71.5790 C   0  0  0  0  0  0  0  0  0  0  0  0
  128.1370  127.2490   71.1300 C   0  0  0  0  0  0  0  0  0  0  0  0
  127.7480  127.6510   69.8550 C   0  0  0  0  0  0  0  0  0  0  0  0
  128.6520  128.3320   69.0370 C   0  0  0  0  0  0  0  0  0  0  0  0
  128.2030  128.7260   67.3480 S   0  0  0  0  0  0  0  0  0  0  0  0
  128.6770  130.0890   67.0740 O   0  0  0  0  0  0  0  0  0  0  0  0
  126.7840  128.3870   67.1790 O   0  0  0  0  0  0  0  0  0  0  0  0
  129.1600  127.5970   66.3700 N   0  0  0  0  0  0  0  0  0  0  0  0
  129.5410  126.3440   67.0720 C   0  0  0  0  0  0  0  0  0  0  0  0
  130.6150  125.5810   66.2700 C   0  0  0  0  0  0  0  0  0  0  0  0
  130.1760  125.3430   64.8040 C   0  0  0  0  0  0  0  0  0  0  0  0
  131.2480  124.6270   63.9780 C   0  0  0  0  0  0  0  0  0  0  0  0
  132.5880  125.0260   64.0820 C   0  0  0  0  0  0  0  0  0  0  0  0
  133.5990  124.3960   63.3540 C   0  0  0  0  0  0  0  0  0  0  0  0
  134.9050  124.7970   63.4720 O   0  0  0  0  0  0  0  0  0  0  0  0
  133.2420  123.3390   62.5040 C   0  0  0  0  0  0  0  0  0  0  0  0
  134.0020  122.5400   61.6990 N   0  0  0  0  0  0  0  0  0  0  0  0
  133.1570  121.6330   61.0980 N   0  0  0  0  0  0  0  0  0  0  0  0
  131.8970  121.8990   61.4930 N   0  0  0  0  0  0  0  0  0  0  0  0
  130.8000  121.0350   61.0750 C   0  0  0  0  0  0  0  0  0  0  0  0
  129.6670  121.8050   60.4120 C   0  0  0  0  0  0  0  0  0  0  0  0
  128.6000  122.2840   61.1810 C   0  0  0  0  0  0  0  0  0  0  0  0
  127.5710  123.0090   60.5790 C   0  0  0  0  0  0  0  0  0  0  0  0
  127.6030  123.2600   59.2070 C   0  0  0  0  0  0  0  0  0  0  0  0
  128.6650  122.7870   58.4350 C   0  0  0  0  0  0  0  0  0  0  0  0
  128.7130  123.1050   56.7400 Cl  0  0  0  0  0  0  0  0  0  0  0  0
  129.6930  122.0580   59.0360 C   0  0  0  0  0  0  0  0  0  0  0  0
  131.8870  122.9470   62.3980 C   0  0  0  0  0  0  0  0  0  0  0  0
  130.8720  123.5800   63.1240 C   0  0  0  0  0  0  0  0  0  0  0  0
  129.6610  126.6390   64.1260 C   0  0  0  0  0  0  0  0  0  0  0  0
  128.6260  127.3740   65.0010 C   0  0  0  0  0  0  0  0  0  0  0  0
  129.9300  128.6480   69.5040 C   0  0  0  0  0  0  0  0  0  0  0  0
  130.3200  128.2420   70.7750 C   0  0  0  0  0  0  0  0  0  0  0  0
  128.5370  124.9770   73.0030 H   0  0  0  0  0  0  0  0  0  0  0  0
  130.9748  124.5893   74.6143 H   0  0  0  0  0  0  0  0  0  0  0  0
  130.0240  122.4374   75.0748 H   0  0  0  0  0  0  0  0  0  0  0  0
  128.7788  123.8091   75.2094 H   0  0  0  0  0  0  0  0  0  0  0  0
  127.8881  121.6485   74.3326 H   0  0  0  0  0  0  0  0  0  0  0  0
  127.6788  123.1332   73.2826 H   0  0  0  0  0  0  0  0  0  0  0  0
  129.9254  121.1610   72.8500 H   0  0  0  0  0  0  0  0  0  0  0  0
  128.2392  120.9792   72.1227 H   0  0  0  0  0  0  0  0  0  0  0  0
  129.4555  121.9036   70.4101 H   0  0  0  0  0  0  0  0  0  0  0  0
  128.6233  123.3300   71.2584 H   0  0  0  0  0  0  0  0  0  0  0  0
  131.4768  122.7771   70.7954 H   0  0  0  0  0  0  0  0  0  0  0  0
  130.5054  124.3365   71.0251 H   0  0  0  0  0  0  0  0  0  0  0  0
  131.6192  122.5391   73.1894 H   0  0  0  0  0  0  0  0  0  0  0  0
  132.1549  124.2251   72.6949 H   0  0  0  0  0  0  0  0  0  0  0  0
  127.4298  126.7134   71.7804 H   0  0  0  0  0  0  0  0  0  0  0  0
  126.7323  127.4330   69.4933 H   0  0  0  0  0  0  0  0  0  0  0  0
  129.9404  126.5931   68.0662 H   0  0  0  0  0  0  0  0  0  0  0  0
  128.6502  125.7062   67.1703 H   0  0  0  0  0  0  0  0  0  0  0  0
  131.5453  126.1679   66.2724 H   0  0  0  0  0  0  0  0  0  0  0  0
  130.7653  124.6006   66.7457 H   0  0  0  0  0  0  0  0  0  0  0  0
  129.3180  124.6558   64.8437 H   0  0  0  0  0  0  0  0  0  0  0  0
  132.8494  125.8565   64.7543 H   0  0  0  0  0  0  0  0  0  0  0  0
  135.2120  125.3120   62.7230 H   0  0  0  0  0  0  0  0  0  0  0  0
  131.1879  120.2944   60.3602 H   0  0  0  0  0  0  0  0  0  0  0  0
  130.3927  120.5547   61.9769 H   0  0  0  0  0  0  0  0  0  0  0  0
  128.5726  122.0883   62.2631 H   0  0  0  0  0  0  0  0  0  0  0  0
  126.7338  123.3830   61.1867 H   0  0  0  0  0  0  0  0  0  0  0  0
  126.7907  123.8310   58.7335 H   0  0  0  0  0  0  0  0  0  0  0  0
  130.5267  121.6810   58.4254 H   0  0  0  0  0  0  0  0  0  0  0  0
  129.8212  123.2689   63.0287 H   0  0  0  0  0  0  0  0  0  0  0  0
  130.5144  127.3093   63.9459 H   0  0  0  0  0  0  0  0  0  0  0  0
  129.1710  126.3581   63.1821 H   0  0  0  0  0  0  0  0  0  0  0  0
  128.3904  128.3457   64.5425 H   0  0  0  0  0  0  0  0  0  0  0  0
  127.7190  126.7555   65.0713 H   0  0  0  0  0  0  0  0  0  0  0  0
  130.6252  129.2160   68.8684 H   0  0  0  0  0  0  0  0  0  0  0  0
  131.3274  128.4818   71.1460 H   0  0  0  0  0  0  0  0  0  0  0  0
  1  2  2  0
  2  3  2  0
  2  4  1  0
  4  5  1  0
  5  6  1  0
  6  7  1  0
  7  8  1  0
  8  9  1  0
  9 10  1  0
 10 11  1  0
  2 12  1  0
 12 13  2  0
 13 14  1  0
 14 15  2  0
 15 16  1  0
 16 17  2  0
 16 18  2  0
 16 19  1  0
 19 20  1  0
 20 21  1  0
 21 22  1  0
 22 23  1  0
 23 24  2  0
 24 25  1  0
 25 26  1  0
 25 27  2  0
 27 28  1  0
 28 29  2  0
 29 30  1  0
 30 31  1  0
 31 32  1  0
 32 33  2  0
 33 34  1  0
 34 35  2  0
 35 36  1  0
 36 37  1  0
 36 38  2  0
 30 39  1  0
 39 40  2  0
 22 41  1  0
 41 42  1  0
 15 43  1  0
 43 44  2  0
 11  5  1  0
 44 12  1  0
 42 19  1  0
 40 23  1  0
 39 27  1  0
 38 32  1  0
  4 45  1  0
  5 46  1  0
  6 47  1  0
  6 48  1  0
  7 49  1  0
  7 50  1  0
  8 51  1  0
  8 52  1  0
  9 53  1  0
  9 54  1  0
 10 55  1  0
 10 56  1  0
 11 57  1  0
 11 58  1  0
 13 59  1  0
 14 60  1  0
 20 61  1  0
 20 62  1  0
 21 63  1  0
 21 64  1  0
 22 65  1  0
 24 66  1  0
 26 67  1  0
 31 68  1  0
 31 69  1  0
 33 70  1  0
 34 71  1  0
 35 72  1  0
 38 73  1  0
 40 74  1  0
 41 75  1  0
 41 76  1  0
 42 77  1  0
 42 78  1  0
 43 79  1  0
 44 80  1  0
M  END
>  <Binding energies>  (1) 
[-10.04]

>  <Ligand effiencies>  (1) 
[-0.20916666666666664]

>  <Interactions>  (1) 
["V-B:ALA:541:CB:9860, V-B:TYR:539:CE2:9844, V-B:MET:535:CE:9803, V-B:PRO:540:CA:9851, V-B:TYR:539:CD2:9842, V-B:PRO:540:C:9849, V-B:TYR:539:CE1:9843, V-B:TYR:539:C:9835, V-B:TYR:539:CZ:9845, V-B:GLU:543:C:9870, V-A:HIS:456:CE1:4064, H-A:GLY:454:N:4045, V-B:GLU:543:CD:9876, V-B:GLU:543:CG:9875, V-B:GLU:543:CB:9874, H-A:ARG:545:NH2:4923, H-A:ASP:366:OD2:3210, V-A:GLU:543:CB:4901, V-A:HIS:456:CD2:4063, V-B:HIS:456:CE1:9037, V-A:LEU:475:CD2:4254, H-B:TYR:484:OH:9315, V-A:GLU:543:C:4897, V-B:HIS:456:CD2:9035, V-A:TYR:484:CG:4337, H-B:LYS:547:NZ:9919, V-B:LYS:547:CE:9918, H-A:LYS:547:NZ:4946, V-A:TYR:484:CD1:4338, V-A:HIS:456:CG:4061, H-B:GLU:543:O:9871, H-A:ARG:545:NH1:4922, H-A:ASP:366:OD1:3209, V-A:HIS:456:CB:4060"]

$$$$
RR17_Rahimova_2017
     RDKit          3D

 63 66  0  0  0  0  0  0  0  0999 V2000
  124.8340  122.3870   56.5640 C   0  0  0  0  0  0  0  0  0  0  0  0
  126.1030  122.7490   57.3420 C   0  0  0  0  0  0  0  0  0  0  0  0
  127.2300  122.2220   56.6480 O   0  0  0  0  0  0  0  0  0  0  0  0
  128.4780  122.7790   56.8590 C   0  0  0  0  0  0  0  0  0  0  0  0
  129.1350  122.4110   58.0320 C   0  0  0  0  0  0  0  0  0  0  0  0
  130.3930  122.9220   58.3310 C   0  0  0  0  0  0  0  0  0  0  0  0
  131.0240  123.8190   57.4580 C   0  0  0  0  0  0  0  0  0  0  0  0
  132.3830  124.3540   57.8060 C   0  0  0  0  0  0  0  0  0  0  0  0
  133.2600  124.5360   56.9560 O   0  0  0  0  0  0  0  0  0  0  0  0
  132.6570  124.6580   59.2960 C   0  0  0  0  0  0  0  0  0  0  0  0
  133.5460  123.2920   60.1260 S   0  0  0  0  0  0  0  0  0  0  0  0
  133.4530  123.8450   61.8060 C   0  0  0  0  0  0  0  0  0  0  0  0
  134.4710  124.2390   62.5340 N   0  0  0  0  0  0  0  0  0  0  0  0
  133.9860  124.5990   63.7850 N   0  0  0  0  0  0  0  0  0  0  0  0
  132.6900  124.4130   63.7640 C   0  0  0  0  0  0  0  0  0  0  0  0
  131.7580  124.6960   64.9330 C   0  0  0  0  0  0  0  0  0  0  0  0
  131.4640  126.1150   65.1230 N   0  0  0  0  0  0  0  0  0  0  0  0
  130.1790  126.6160   65.3970 C   0  0  0  0  0  0  0  0  0  0  0  0
  129.4740  127.1890   64.3380 C   0  0  0  0  0  0  0  0  0  0  0  0
  128.1990  127.7090   64.5410 C   0  0  0  0  0  0  0  0  0  0  0  0
  127.6100  127.6580   65.8080 C   0  0  0  0  0  0  0  0  0  0  0  0
  126.2120  128.2390   66.0140 C   0  0  0  0  0  0  0  0  0  0  0  0
  125.4130  128.0170   64.9690 F   0  0  0  0  0  0  0  0  0  0  0  0
  125.6390  127.7000   67.0920 F   0  0  0  0  0  0  0  0  0  0  0  0
  126.3090  129.5560   66.1950 F   0  0  0  0  0  0  0  0  0  0  0  0
  128.3120  127.0750   66.8680 C   0  0  0  0  0  0  0  0  0  0  0  0
  129.5860  126.5550   66.6650 C   0  0  0  0  0  0  0  0  0  0  0  0
  132.2860  123.9230   62.5390 N   0  0  0  0  0  0  0  0  0  0  0  0
  130.9830  123.6090   62.1260 C   0  0  0  0  0  0  0  0  0  0  0  0
  130.5400  122.2890   62.1950 C   0  0  0  0  0  0  0  0  0  0  0  0
  129.2480  121.9770   61.7810 C   0  0  0  0  0  0  0  0  0  0  0  0
  128.3960  122.9840   61.2980 C   0  0  0  0  0  0  0  0  0  0  0  0
  127.1010  122.7670   60.8680 O   0  0  0  0  0  0  0  0  0  0  0  0
  126.1130  123.7640   61.1090 C   0  0  0  0  0  0  0  0  0  0  0  0
  128.8580  124.3000   61.2350 C   0  0  0  0  0  0  0  0  0  0  0  0
  130.1490  124.6190   61.6480 C   0  0  0  0  0  0  0  0  0  0  0  0
  130.3630  124.1890   56.2770 C   0  0  0  0  0  0  0  0  0  0  0  0
  129.1040  123.6750   55.9800 C   0  0  0  0  0  0  0  0  0  0  0  0
  124.0238  122.1559   57.2712 H   0  0  0  0  0  0  0  0  0  0  0  0
  124.5371  123.2363   55.9311 H   0  0  0  0  0  0  0  0  0  0  0  0
  125.0299  121.5089   55.9311 H   0  0  0  0  0  0  0  0  0  0  0  0
  126.1923  123.8429   57.4163 H   0  0  0  0  0  0  0  0  0  0  0  0
  126.0550  122.3247   58.3558 H   0  0  0  0  0  0  0  0  0  0  0  0
  128.6531  121.7090   58.7284 H   0  0  0  0  0  0  0  0  0  0  0  0
  130.8975  122.6198   59.2606 H   0  0  0  0  0  0  0  0  0  0  0  0
  133.2663  125.5712   59.3653 H   0  0  0  0  0  0  0  0  0  0  0  0
  131.6872  124.7855   59.7991 H   0  0  0  0  0  0  0  0  0  0  0  0
  130.8103  124.1660   64.7571 H   0  0  0  0  0  0  0  0  0  0  0  0
  132.2711  124.3506   65.8426 H   0  0  0  0  0  0  0  0  0  0  0  0
  132.1730  126.7760   64.8430 H   0  0  0  0  0  0  0  0  0  0  0  0
  129.9284  127.2300   63.3371 H   0  0  0  0  0  0  0  0  0  0  0  0
  127.6523  128.1621   63.7009 H   0  0  0  0  0  0  0  0  0  0  0  0
  127.8543  127.0275   67.8671 H   0  0  0  0  0  0  0  0  0  0  0  0
  130.1299  126.0943   67.5028 H   0  0  0  0  0  0  0  0  0  0  0  0
  131.2063  121.4999   62.5737 H   0  0  0  0  0  0  0  0  0  0  0  0
  128.8927  120.9372   61.8323 H   0  0  0  0  0  0  0  0  0  0  0  0
  125.9822  123.8960   62.1932 H   0  0  0  0  0  0  0  0  0  0  0  0
  126.4348  124.7152   60.6600 H   0  0  0  0  0  0  0  0  0  0  0  0
  125.1589  123.4508   60.6600 H   0  0  0  0  0  0  0  0  0  0  0  0
  128.1960  125.0923   60.8556 H   0  0  0  0  0  0  0  0  0  0  0  0
  130.5074  125.6578   61.5976 H   0  0  0  0  0  0  0  0  0  0  0  0
  130.8437  124.8912   55.5800 H   0  0  0  0  0  0  0  0  0  0  0  0
  128.5970  123.9732   55.0505 H   0  0  0  0  0  0  0  0  0  0  0  0
  1  2  1  0
  2  3  1  0
  3  4  1  0
  4  5  2  0
  5  6  1  0
  6  7  2  0
  7  8  1  0
  8  9  2  0
  8 10  1  0
 10 11  1  0
 11 12  1  0
 12 13  2  0
 13 14  1  0
 14 15  2  0
 15 16  1  0
 16 17  1  0
 17 18  1  0
 18 19  2  0
 19 20  1  0
 20 21  2  0
 21 22  1  0
 22 23  1  0
 22 24  1  0
 22 25  1  0
 21 26  1  0
 26 27  2  0
 15 28  1  0
 28 29  1  0
 29 30  2  0
 30 31  1  0
 31 32  2  0
 32 33  1  0
 33 34  1  0
 32 35  1  0
 35 36  2  0
  7 37  1  0
 37 38  2  0
 38  4  1  0
 28 12  1  0
 36 29  1  0
 27 18  1  0
  1 39  1  0
  1 40  1  0
  1 41  1  0
  2 42  1  0
  2 43  1  0
  5 44  1  0
  6 45  1  0
 10 46  1  0
 10 47  1  0
 16 48  1  0
 16 49  1  0
 17 50  1  0
 19 51  1  0
 20 52  1  0
 26 53  1  0
 27 54  1  0
 30 55  1  0
 31 56  1  0
 34 57  1  0
 34 58  1  0
 34 59  1  0
 35 60  1  0
 36 61  1  0
 37 62  1  0
 38 63  1  0
M  END
>  <Binding energies>  (1) 
[-8.52]

>  <Ligand effiencies>  (1) 
[-0.21846153846153846]

>  <Interactions>  (1) 
["V-B:ALA:541:CB:9860, V-B:TYR:539:CE2:9844, V-B:MET:535:CE:9803, V-B:PRO:540:CD:9855, V-B:PRO:540:CA:9851, V-B:TYR:539:CD2:9842, V-B:PRO:540:N:9852, V-B:PRO:540:CB:9853, V-B:TYR:539:CE1:9843, V-B:TYR:539:C:9835, V-B:TYR:539:CZ:9845, V-A:ASP:366:CG:3208, H-A:GLU:543:OE2:4905, H-A:TYR:484:OH:4343, H-A:GLY:454:N:4045, H-A:GLU:543:OE1:4904, V-B:GLU:543:CD:9876, V-B:GLU:543:CG:9875, V-B:GLU:543:CB:9874, V-A:GLU:543:CD:4903, H-B:ALA:541:N:9859, V-A:ASP:366:CB:3207, H-A:TYR:531:OH:4790, V-B:ARG:545:CG:9890, V-B:HIS:456:CE1:9037, V-A:ILE:369:CD1:3234, V-B:LEU:363:CD1:8156, V-B:ARG:545:CZ:9894, V-B:ARG:545:CD:9891, V-B:TYR:484:CZ:9314, H-B:TYR:539:N:9838, V-B:PRO:540:CG:9854, V-B:ILE:538:CG2:9831, H-B:TYR:539:OH:9846, V-B:TYR:539:CD1:9841, V-B:TYR:539:CG:9840"]

$$$$
RR18_Rahimova_2017
     RDKit          3D

 56 61  0  0  0  0  0  0  0  0999 V2000
  134.0000  130.8500   59.4960 C   0  0  0  0  0  0  0  0  0  0  0  0
  132.6570  130.6040   60.1370 C   0  0  0  0  0  0  0  0  0  0  0  0
  131.9120  131.2630   61.1010 C   0  0  0  0  0  0  0  0  0  0  0  0
  130.7360  130.5320   61.2690 C   0  0  0  0  0  0  0  0  0  0  0  0
  130.8050  129.4540   60.4010 C   0  0  0  0  0  0  0  0  0  0  0  0
  129.8680  128.2920   60.0810 C   0  0  1  0  0  0  0  0  0  0  0  0
  130.0280  127.8190   58.6060 C   0  0  0  0  0  0  0  0  0  0  0  0
  129.6700  128.7060   57.5030 C   0  0  0  0  0  0  0  0  0  0  0  0
  128.5290  128.7340   57.0360 O   0  0  0  0  0  0  0  0  0  0  0  0
  130.6850  129.4850   57.0660 N   0  0  0  0  0  0  0  0  0  0  0  0
  130.7230  130.4350   56.0220 C   0  0  0  0  0  0  0  0  0  0  0  0
  130.9630  130.1000   54.6770 C   0  0  0  0  0  0  0  0  0  0  0  0
  130.9940  131.0880   53.6950 C   0  0  0  0  0  0  0  0  0  0  0  0
  130.7940  132.4220   54.0380 C   0  0  0  0  0  0  0  0  0  0  0  0
  130.5670  132.7700   55.3680 C   0  0  0  0  0  0  0  0  0  0  0  0
  130.5320  131.7890   56.3650 C   0  0  0  0  0  0  0  0  0  0  0  0
  130.2830  132.2240   57.8060 C   0  0  0  0  0  0  0  0  0  0  0  0
  130.6020  126.6100   58.3720 C   0  0  0  0  0  0  0  0  0  0  0  0
  130.9470  125.7140   59.3380 N   0  0  0  0  0  0  0  0  0  0  0  0
  130.6540  125.9610   60.5610 C   0  0  0  0  0  0  0  0  0  0  0  0
  130.8960  124.8470   61.8850 S   0  0  0  0  0  0  0  0  0  0  0  0
  130.1960  126.0050   63.0590 C   0  0  0  0  0  0  0  0  0  0  0  0
  130.0330  125.8210   64.4150 C   0  0  0  0  0  0  0  0  0  0  0  0
  130.3750  124.5330   65.0350 C   0  0  0  0  0  0  0  0  0  0  0  0
  130.8410  123.5110   64.5320 O   0  0  0  0  0  0  0  0  0  0  0  0
  130.0680  124.6210   66.3330 N   0  0  0  0  0  0  0  0  0  0  0  0
  129.5820  125.8450   66.6820 C   0  0  0  0  0  0  0  0  0  0  0  0
  129.1810  126.2770   67.9460 C   0  0  0  0  0  0  0  0  0  0  0  0
  128.7400  127.5880   68.0990 C   0  0  0  0  0  0  0  0  0  0  0  0
  128.7160  128.4410   66.9980 C   0  0  0  0  0  0  0  0  0  0  0  0
  129.1220  127.9840   65.7410 C   0  0  0  0  0  0  0  0  0  0  0  0
  129.5490  126.6550   65.5600 C   0  0  0  0  0  0  0  0  0  0  0  0
  129.8010  127.2080   62.3250 C   0  0  0  0  0  0  0  0  0  0  0  0
  129.2390  128.1950   62.7900 O   0  0  0  0  0  0  0  0  0  0  0  0
  130.1080  127.1250   61.0020 N   0  0  0  0  0  0  0  0  0  0  0  0
  131.9780  129.5050   59.7160 O   0  0  0  0  0  0  0  0  0  0  0  0
  134.7600  130.9892   60.2790 H   0  0  0  0  0  0  0  0  0  0  0  0
  134.2715  129.9867   58.8708 H   0  0  0  0  0  0  0  0  0  0  0  0
  133.9479  131.7535   58.8708 H   0  0  0  0  0  0  0  0  0  0  0  0
  132.1934  132.1846   61.6315 H   0  0  0  0  0  0  0  0  0  0  0  0
  129.9116  130.7664   61.9585 H   0  0  0  0  0  0  0  0  0  0  0  0
  128.8432  128.6635   60.2284 H   0  0  0  0  0  0  0  0  0  0  0  0
  131.5440  129.4230   57.5910 H   0  0  0  0  0  0  0  0  0  0  0  0
  131.1277  129.0488   54.3981 H   0  0  0  0  0  0  0  0  0  0  0  0
  131.1770  130.8129   52.6458 H   0  0  0  0  0  0  0  0  0  0  0  0
  130.8151  133.2000   53.2607 H   0  0  0  0  0  0  0  0  0  0  0  0
  130.4139  133.8257   55.6366 H   0  0  0  0  0  0  0  0  0  0  0  0
  130.7098  131.4784   58.4930 H   0  0  0  0  0  0  0  0  0  0  0  0
  130.7593  133.1998   57.9820 H   0  0  0  0  0  0  0  0  0  0  0  0
  129.2004  132.3074   57.9820 H   0  0  0  0  0  0  0  0  0  0  0  0
  130.8027  126.3347   57.3261 H   0  0  0  0  0  0  0  0  0  0  0  0
  130.2050  123.8630   66.9850 H   0  0  0  0  0  0  0  0  0  0  0  0
  129.2128  125.5933   68.8071 H   0  0  0  0  0  0  0  0  0  0  0  0
  128.4119  127.9490   69.0849 H   0  0  0  0  0  0  0  0  0  0  0  0
  128.3756  129.4801   67.1185 H   0  0  0  0  0  0  0  0  0  0  0  0
  129.1076  128.6715   64.8825 H   0  0  0  0  0  0  0  0  0  0  0  0
  1  2  1  0
  2  3  2  0
  3  4  1  0
  4  5  2  0
  5  6  1  0
  6  7  1  0
  7  8  1  0
  8  9  2  0
  8 10  1  0
 10 11  1  0
 11 12  2  0
 12 13  1  0
 13 14  2  0
 14 15  1  0
 15 16  2  0
 16 17  1  0
  7 18  2  0
 18 19  1  0
 19 20  2  0
 20 21  1  0
 21 22  1  0
 22 23  2  0
 23 24  1  0
 24 25  2  0
 24 26  1  0
 26 27  1  0
 27 28  2  0
 28 29  1  0
 29 30  2  0
 30 31  1  0
 31 32  2  0
 22 33  1  0
 33 34  2  0
 33 35  1  0
  5 36  1  0
 36  2  1  0
 35  6  1  0
 16 11  1  0
 35 20  1  0
 32 23  1  0
 32 27  1  0
  1 37  1  0
  1 38  1  0
  1 39  1  0
  3 40  1  0
  4 41  1  0
  6 42  1  6
 10 43  1  0
 12 44  1  0
 13 45  1  0
 14 46  1  0
 15 47  1  0
 17 48  1  0
 17 49  1  0
 17 50  1  0
 18 51  1  0
 26 52  1  0
 28 53  1  0
 29 54  1  0
 30 55  1  0
 31 56  1  0
M  END
>  <Binding energies>  (1) 
[-8.22]

>  <Ligand effiencies>  (1) 
[-0.21631578947368424]

>  <Interactions>  (1) 
["V-A:HIS:456:CE1:4064, H-A:TYR:484:OH:4343, V-B:GLU:543:CD:9876, V-B:GLU:543:CG:9875, V-B:GLU:543:CB:9874, V-A:GLU:543:CD:4903, V-A:PRO:540:N:4879, V-A:LEU:363:CA:3180, V-A:ASN:362:C:3167, V-A:PRO:540:CA:4878, V-A:LEU:363:CB:3182, H-A:TYR:531:OH:4790, V-A:ILE:538:CA:4855, V-A:PRO:540:CB:4880, V-A:TYR:484:CZ:4342, V-A:TYR:531:CE1:4787, V-A:TYR:531:CZ:4789, V-A:GLU:543:CG:4902, V-A:ILE:538:CD1:4860, V-A:TYR:484:CE1:4340"]

$$$$
RR19_Rahimova_2017
     RDKit          3D

 72 77  0  0  0  0  0  0  0  0999 V2000
  130.6160  125.3020   54.7070 O   0  0  0  0  0  0  0  0  0  0  0  0
  130.3630  125.4200   55.9090 C   0  0  0  0  0  0  0  0  0  0  0  0
  131.0740  124.8770   56.9300 N   0  0  0  0  0  0  0  0  0  0  0  0
  132.3070  124.2750   56.9960 C   0  0  0  0  0  0  0  0  0  0  0  0
  133.4610  124.2540   55.7580 S   0  0  0  0  0  0  0  0  0  0  0  0
  132.4460  123.6960   58.2330 N   0  0  0  0  0  0  0  0  0  0  0  0
  133.4940  123.1090   58.8650 C   0  0  0  0  0  0  0  0  0  0  0  0
  134.6720  123.1280   58.5010 O   0  0  0  0  0  0  0  0  0  0  0  0
  133.1000  122.3380   60.1510 C   0  0  2  0  0  0  0  0  0  0  0  0
  132.0020  121.2540   59.9510 C   0  0  0  0  0  0  0  0  0  0  0  0
  130.5760  121.7250   60.1910 C   0  0  0  0  0  0  0  0  0  0  0  0
  130.0460  121.7920   61.4980 C   0  0  0  0  0  0  0  0  0  0  0  0
  128.7710  122.2990   61.7050 C   0  0  0  0  0  0  0  0  0  0  0  0
  128.0170  122.7580   60.6320 C   0  0  0  0  0  0  0  0  0  0  0  0
  128.5370  122.7260   59.3440 C   0  0  0  0  0  0  0  0  0  0  0  0
  129.8110  122.2250   59.1160 C   0  0  0  0  0  0  0  0  0  0  0  0
  132.7520  123.2730   61.2560 N   0  0  0  0  0  0  0  0  0  0  0  0
  131.8580  124.2860   61.0720 C   0  0  0  0  0  0  0  0  0  0  0  0
  131.2680  124.5810   60.0320 O   0  0  0  0  0  0  0  0  0  0  0  0
  131.7430  124.9560   62.3910 C   0  0  0  0  0  0  0  0  0  0  0  0
  130.9820  126.0540   62.7950 C   0  0  0  0  0  0  0  0  0  0  0  0
  131.0650  126.4720   64.1280 C   0  0  0  0  0  0  0  0  0  0  0  0
  131.8980  125.7950   65.0300 C   0  0  0  0  0  0  0  0  0  0  0  0
  132.6520  124.6960   64.6040 C   0  0  0  0  0  0  0  0  0  0  0  0
  132.5560  124.2960   63.2710 C   0  0  0  0  0  0  0  0  0  0  0  0
  133.2130  123.1840   62.5390 C   0  0  0  0  0  0  0  0  0  0  0  0
  133.9990  122.3540   62.9990 O   0  0  0  0  0  0  0  0  0  0  0  0
  129.1240  126.2410   56.3540 C   0  0  2  0  0  0  0  0  0  0  0  0
  127.7650  125.6140   55.9250 C   0  0  0  0  0  0  0  0  0  0  0  0
  126.9540  125.0540   57.0790 C   0  0  0  0  0  0  0  0  0  0  0  0
  126.9280  125.7270   58.3190 C   0  0  0  0  0  0  0  0  0  0  0  0
  126.1060  125.2690   59.3410 C   0  0  0  0  0  0  0  0  0  0  0  0
  125.2870  124.1650   59.1400 C   0  0  0  0  0  0  0  0  0  0  0  0
  125.2730  123.5160   57.9120 C   0  0  0  0  0  0  0  0  0  0  0  0
  126.0890  123.9580   56.8780 C   0  0  0  0  0  0  0  0  0  0  0  0
  129.2030  127.6820   55.9780 N   0  0  0  0  0  0  0  0  0  0  0  0
  129.3290  128.6620   56.9160 C   0  0  0  0  0  0  0  0  0  0  0  0
  129.3760  128.5220   58.1390 O   0  0  0  0  0  0  0  0  0  0  0  0
  129.3990  129.9320   56.1510 C   0  0  0  0  0  0  0  0  0  0  0  0
  129.5240  131.2530   56.5830 C   0  0  0  0  0  0  0  0  0  0  0  0
  129.5680  132.2700   55.6230 C   0  0  0  0  0  0  0  0  0  0  0  0
  129.4910  131.9570   54.2590 C   0  0  0  0  0  0  0  0  0  0  0  0
  129.3690  130.6260   53.8460 C   0  0  0  0  0  0  0  0  0  0  0  0
  129.3240  129.6260   54.8200 C   0  0  0  0  0  0  0  0  0  0  0  0
  129.2040  128.1540   54.6960 C   0  0  0  0  0  0  0  0  0  0  0  0
  129.1230  127.4970   53.6570 O   0  0  0  0  0  0  0  0  0  0  0  0
  130.6530  125.0310   57.8350 H   0  0  0  0  0  0  0  0  0  0  0  0
  131.5760  123.6040   58.7360 H   0  0  0  0  0  0  0  0  0  0  0  0
  134.0011  121.7744   60.4347 H   0  0  0  0  0  0  0  0  0  0  0  0
  132.0698  120.8878   58.9160 H   0  0  0  0  0  0  0  0  0  0  0  0
  132.1982  120.4778   60.7054 H   0  0  0  0  0  0  0  0  0  0  0  0
  130.6440  121.4422   62.3524 H   0  0  0  0  0  0  0  0  0  0  0  0
  128.3555  122.3377   62.7228 H   0  0  0  0  0  0  0  0  0  0  0  0
  127.0031  123.1488   60.8031 H   0  0  0  0  0  0  0  0  0  0  0  0
  127.9364  123.0993   58.5014 H   0  0  0  0  0  0  0  0  0  0  0  0
  130.2246  122.2177   58.0967 H   0  0  0  0  0  0  0  0  0  0  0  0
  130.3309  126.5796   62.0809 H   0  0  0  0  0  0  0  0  0  0  0  0
  130.4745  127.3350   64.4694 H   0  0  0  0  0  0  0  0  0  0  0  0
  131.9590  126.1290   66.0763 H   0  0  0  0  0  0  0  0  0  0  0  0
  133.3069  124.1586   65.3056 H   0  0  0  0  0  0  0  0  0  0  0  0
  129.1528  126.1946   57.4526 H   0  0  0  0  0  0  0  0  0  0  0  0
  127.1671  126.3912   55.4266 H   0  0  0  0  0  0  0  0  0  0  0  0
  127.9990  124.7695   55.2601 H   0  0  0  0  0  0  0  0  0  0  0  0
  127.5587  126.6144   58.4764 H   0  0  0  0  0  0  0  0  0  0  0  0
  126.1036  125.7828   60.3137 H   0  0  0  0  0  0  0  0  0  0  0  0
  124.6463  123.8029   59.9576 H   0  0  0  0  0  0  0  0  0  0  0  0
  124.6136  122.6492   57.7576 H   0  0  0  0  0  0  0  0  0  0  0  0
  126.0605  123.4526   55.9014 H   0  0  0  0  0  0  0  0  0  0  0  0
  129.5866  131.4898   57.6554 H   0  0  0  0  0  0  0  0  0  0  0  0
  129.6634  133.3190   55.9400 H   0  0  0  0  0  0  0  0  0  0  0  0
  129.5267  132.7616   53.5098 H   0  0  0  0  0  0  0  0  0  0  0  0
  129.3098  130.3725   52.7773 H   0  0  0  0  0  0  0  0  0  0  0  0
  1  2  2  0
  2  3  1  0
  3  4  1  0
  4  5  2  0
  4  6  1  0
  6  7  1  0
  7  8  2  0
  7  9  1  0
  9 10  1  0
 10 11  1  0
 11 12  2  0
 12 13  1  0
 13 14  2  0
 14 15  1  0
 15 16  2  0
  9 17  1  0
 17 18  1  0
 18 19  2  0
 18 20  1  0
 20 21  2  0
 21 22  1  0
 22 23  2  0
 23 24  1  0
 24 25  2  0
 25 26  1  0
 26 27  2  0
  2 28  1  0
 28 29  1  0
 29 30  1  0
 30 31  2  0
 31 32  1  0
 32 33  2  0
 33 34  1  0
 34 35  2  0
 28 36  1  0
 36 37  1  0
 37 38  2  0
 37 39  1  0
 39 40  2  0
 40 41  1  0
 41 42  2  0
 42 43  1  0
 43 44  2  0
 44 45  1  0
 45 46  2  0
 16 11  1  0
 26 17  1  0
 35 30  1  0
 45 36  1  0
 25 20  1  0
 44 39  1  0
  3 47  1  0
  6 48  1  0
  9 49  1  1
 10 50  1  0
 10 51  1  0
 12 52  1  0
 13 53  1  0
 14 54  1  0
 15 55  1  0
 16 56  1  0
 21 57  1  0
 22 58  1  0
 23 59  1  0
 24 60  1  0
 28 61  1  1
 29 62  1  0
 29 63  1  0
 31 64  1  0
 32 65  1  0
 33 66  1  0
 34 67  1  0
 35 68  1  0
 40 69  1  0
 41 70  1  0
 42 71  1  0
 43 72  1  0
M  END
>  <Binding energies>  (1) 
[-10.36]

>  <Ligand effiencies>  (1) 
[-0.21583333333333332]

>  <Interactions>  (1) 
["V-B:ALA:541:CB:9860, V-B:TYR:539:CE2:9844, V-B:MET:535:CE:9803, V-B:PRO:540:CA:9851, V-B:TYR:539:CD2:9842, V-B:ALA:541:CA:9858, V-B:PRO:540:N:9852, V-B:PRO:540:CB:9853, V-B:PRO:540:C:9849, V-B:TYR:539:C:9835, V-B:TYR:539:CZ:9845, H-A:GLY:454:N:4045, V-A:GLU:543:CD:4903, V-A:TYR:539:CE1:4870, V-A:TYR:539:CD1:4868, H-A:TYR:531:OH:4790, V-A:ILE:369:CG2:3232, V-A:ILE:369:CD1:3234, H-A:LYS:534:NZ:4818, V-A:TYR:531:CE1:4787, V-A:TYR:531:CZ:4789, V-A:MET:535:CB:4827, V-A:MET:535:CG:4828, V-A:ASN:370:CB:3240, V-A:ASP:366:C:3203, V-A:ILE:369:CB:3231, H-B:TYR:539:OH:9846, V-A:TYR:531:CD1:4785, V-A:ASN:370:CA:3238, V-A:ASN:370:CG:3241"]

$$$$
RR19_Rahimova_2017-again1
     RDKit          3D

 71 76  0  0  0  0  0  0  0  0999 V2000
  130.5670  130.8460   55.5140 O   0  0  0  0  0  0  0  0  0  0  0  0
  130.1340  130.1550   56.4390 C   0  0  0  0  0  0  0  0  0  0  0  0
  129.5750  128.9280   56.3160 N   0  0  0  0  0  0  0  0  0  0  0  0
  129.4520  128.0650   55.2630 C   0  0  0  0  0  0  0  0  0  0  0  0
  129.8640  128.2610   53.6460 S   0  0  0  0  0  0  0  0  0  0  0  0
  128.9670  126.8770   55.7790 N   0  0  0  0  0  0  0  0  0  0  0  0
  129.1130  125.6710   55.3330 C   0  0  0  0  0  0  0  0  0  0  0  0
  129.7880  125.2400   54.3780 O   0  0  0  0  0  0  0  0  0  0  0  0
  128.3030  124.5700   56.0970 C   0  0  2  0  0  0  0  0  0  0  0  0
  126.8560  125.0590   56.4390 C   0  0  0  0  0  0  0  0  0  0  0  0
  126.5080  125.0200   57.9250 C   0  0  0  0  0  0  0  0  0  0  0  0
  126.8290  126.1050   58.7440 C   0  0  0  0  0  0  0  0  0  0  0  0
  126.4990  126.0770   60.0970 C   0  0  0  0  0  0  0  0  0  0  0  0
  125.8500  124.9620   60.6260 C   0  0  0  0  0  0  0  0  0  0  0  0
  125.5310  123.8750   59.8140 C   0  0  0  0  0  0  0  0  0  0  0  0
  125.8630  123.9030   58.4630 C   0  0  0  0  0  0  0  0  0  0  0  0
  129.0480  123.9700   57.2520 N   0  0  0  0  0  0  0  0  0  0  0  0
  129.7770  124.7400   58.1100 C   0  0  0  0  0  0  0  0  0  0  0  0
  129.9380  125.9600   58.0660 O   0  0  0  0  0  0  0  0  0  0  0  0
  130.3390  123.7950   59.1080 C   0  0  0  0  0  0  0  0  0  0  0  0
  131.1640  124.0150   60.2120 C   0  0  0  0  0  0  0  0  0  0  0  0
  131.5450  122.9180   60.9910 C   0  0  0  0  0  0  0  0  0  0  0  0
  131.1020  121.6300   60.6640 C   0  0  0  0  0  0  0  0  0  0  0  0
  130.2760  121.4300   59.5530 C   0  0  0  0  0  0  0  0  0  0  0  0
  129.9080  122.5370   58.7870 C   0  0  0  0  0  0  0  0  0  0  0  0
  129.0580  122.6410   57.5770 C   0  0  0  0  0  0  0  0  0  0  0  0
  128.4840  121.7230   56.9930 O   0  0  0  0  0  0  0  0  0  0  0  0
  130.2080  130.6890   57.9000 C   0  0  2  0  0  0  0  0  0  0  0  0
  131.1680  129.8770   58.8160 C   0  0  0  0  0  0  0  0  0  0  0  0
  131.9230  130.7250   59.8240 C   0  0  0  0  0  0  0  0  0  0  0  0
  131.2220  131.4130   60.8360 C   0  0  0  0  0  0  0  0  0  0  0  0
  131.9190  132.1070   61.8160 C   0  0  0  0  0  0  0  0  0  0  0  0
  133.3090  132.1060   61.8210 C   0  0  0  0  0  0  0  0  0  0  0  0
  134.0130  131.4010   60.8520 C   0  0  0  0  0  0  0  0  0  0  0  0
  133.3340  130.7010   59.8640 C   0  0  0  0  0  0  0  0  0  0  0  0
  128.8730  130.9050   58.5370 N   0  0  0  0  0  0  0  0  0  0  0  0
  128.4940  132.1280   59.0040 C   0  0  0  0  0  0  0  0  0  0  0  0
  129.1720  133.1550   59.0480 O   0  0  0  0  0  0  0  0  0  0  0  0
  127.0860  131.9650   59.4410 C   0  0  0  0  0  0  0  0  0  0  0  0
  126.1860  132.8810   59.9880 C   0  0  0  0  0  0  0  0  0  0  0  0
  124.8900  132.4480   60.2910 C   0  0  0  0  0  0  0  0  0  0  0  0
  124.5150  131.1200   60.0490 C   0  0  0  0  0  0  0  0  0  0  0  0
  125.4320  130.2150   59.5030 C   0  0  0  0  0  0  0  0  0  0  0  0
  126.7180  130.6680   59.2050 C   0  0  0  0  0  0  0  0  0  0  0  0
  127.8810  129.9690   58.6040 C   0  0  0  0  0  0  0  0  0  0  0  0
  127.9330  128.7950   58.2320 O   0  0  0  0  0  0  0  0  0  0  0  0
  129.2610  128.5340   57.1900 H   0  0  0  0  0  0  0  0  0  0  0  0
  128.1796  123.7221   55.4071 H   0  0  0  0  0  0  0  0  0  0  0  0
  126.7527  126.0968   56.0893 H   0  0  0  0  0  0  0  0  0  0  0  0
  126.1652  124.3648   55.9381 H   0  0  0  0  0  0  0  0  0  0  0  0
  127.3421  126.9811   58.3207 H   0  0  0  0  0  0  0  0  0  0  0  0
  126.7491  126.9301   60.7448 H   0  0  0  0  0  0  0  0  0  0  0  0
  125.5874  124.9401   61.6940 H   0  0  0  0  0  0  0  0  0  0  0  0
  125.0192  122.9991   60.2392 H   0  0  0  0  0  0  0  0  0  0  0  0
  125.6178  123.0460   57.8185 H   0  0  0  0  0  0  0  0  0  0  0  0
  131.5071  125.0293   60.4639 H   0  0  0  0  0  0  0  0  0  0  0  0
  132.1959  123.0673   61.8651 H   0  0  0  0  0  0  0  0  0  0  0  0
  131.4048  120.7727   61.2832 H   0  0  0  0  0  0  0  0  0  0  0  0
  129.9241  120.4219   59.2888 H   0  0  0  0  0  0  0  0  0  0  0  0
  130.6565  131.6878   57.7935 H   0  0  0  0  0  0  0  0  0  0  0  0
  130.5740  129.1324   59.3662 H   0  0  0  0  0  0  0  0  0  0  0  0
  131.9210  129.4165   58.1596 H   0  0  0  0  0  0  0  0  0  0  0  0
  130.1222  131.3998   60.8490 H   0  0  0  0  0  0  0  0  0  0  0  0
  131.3689  132.6599   62.5917 H   0  0  0  0  0  0  0  0  0  0  0  0
  133.8542  132.6657   62.5953 H   0  0  0  0  0  0  0  0  0  0  0  0
  135.1129  131.3977   60.8680 H   0  0  0  0  0  0  0  0  0  0  0  0
  133.8956  130.1274   59.1120 H   0  0  0  0  0  0  0  0  0  0  0  0
  126.4890  133.9214   60.1770 H   0  0  0  0  0  0  0  0  0  0  0  0
  124.1632  133.1530   60.7207 H   0  0  0  0  0  0  0  0  0  0  0  0
  123.4945  130.7871   60.2894 H   0  0  0  0  0  0  0  0  0  0  0  0
  125.1457  129.1701   59.3129 H   0  0  0  0  0  0  0  0  0  0  0  0
  1  2  2  0
  2  3  1  0
  3  4  1  0
  4  5  2  0
  4  6  1  0
  6  7  2  0
  7  8  1  0
  7  9  1  0
  9 10  1  0
 10 11  1  0
 11 12  2  0
 12 13  1  0
 13 14  2  0
 14 15  1  0
 15 16  2  0
  9 17  1  0
 17 18  1  0
 18 19  2  0
 18 20  1  0
 20 21  2  0
 21 22  1  0
 22 23  2  0
 23 24  1  0
 24 25  2  0
 25 26  1  0
 26 27  2  0
  2 28  1  0
 28 29  1  0
 29 30  1  0
 30 31  2  0
 31 32  1  0
 32 33  2  0
 33 34  1  0
 34 35  2  0
 28 36  1  0
 36 37  1  0
 37 38  2  0
 37 39  1  0
 39 40  2  0
 40 41  1  0
 41 42  2  0
 42 43  1  0
 43 44  2  0
 44 45  1  0
 45 46  2  0
 16 11  1  0
 26 17  1  0
 35 30  1  0
 45 36  1  0
 25 20  1  0
 44 39  1  0
  3 47  1  0
  9 48  1  6
 10 49  1  0
 10 50  1  0
 12 51  1  0
 13 52  1  0
 14 53  1  0
 15 54  1  0
 16 55  1  0
 21 56  1  0
 22 57  1  0
 23 58  1  0
 24 59  1  0
 28 60  1  6
 29 61  1  0
 29 62  1  0
 31 63  1  0
 32 64  1  0
 33 65  1  0
 34 66  1  0
 35 67  1  0
 40 68  1  0
 41 69  1  0
 42 70  1  0
 43 71  1  0
M  CHG  1   8  -1
M  END
>  <Binding energies>  (1) 
[-9.86]

>  <Ligand effiencies>  (1) 
[-0.20978723404255317]

>  <Interactions>  (1) 
["V-B:TYR:539:CE2:9844, V-B:MET:535:CE:9803, V-B:PRO:540:CA:9851, V-B:TYR:539:CD2:9842, V-B:PRO:540:CB:9853, V-B:TYR:539:C:9835, V-B:TYR:539:CZ:9845, V-A:GLU:543:CD:4903, V-A:TYR:539:CZ:4872, V-A:PRO:540:C:4876, V-A:LEU:363:CA:3180, V-A:ASN:362:C:3167, V-A:PRO:540:CA:4878, H-A:TYR:531:OH:4790, V-A:PRO:540:CB:4880, V-A:TYR:539:CE2:4871, V-A:TYR:539:CD2:4869, H-A:LYS:534:NZ:4818, V-A:TYR:531:CE1:4787, V-A:TYR:531:CZ:4789, V-A:MET:535:CG:4828, H-B:TYR:539:N:9838, V-A:ASN:362:CB:3171, V-A:ASN:362:CA:3169, V-B:TYR:539:CG:9840, V-A:ALA:541:CA:4885"]

$$$$
RR1_Rahimova_2017
     RDKit          3D

 68 71  0  0  0  0  0  0  0  0999 V2000
  129.4580  131.4490   62.9290 C   0  0  0  0  0  0  0  0  0  0  0  0
  129.8590  132.5290   62.0930 O   0  0  0  0  0  0  0  0  0  0  0  0
  129.6680  132.4320   60.7280 C   0  0  0  0  0  0  0  0  0  0  0  0
  128.6250  133.0580   60.0280 C   0  0  0  0  0  0  0  0  0  0  0  0
  128.5080  132.8960   58.6510 C   0  0  0  0  0  0  0  0  0  0  0  0
  129.4290  132.1160   57.9500 C   0  0  0  0  0  0  0  0  0  0  0  0
  129.1990  131.9760   56.5680 N   0  0  0  0  0  0  0  0  0  0  0  0
  129.8180  132.5820   55.5330 C   0  0  0  0  0  0  0  0  0  0  0  0
  130.6820  133.4520   55.6440 O   0  0  0  0  0  0  0  0  0  0  0  0
  129.3560  132.1080   54.1450 C   0  0  0  0  0  0  0  0  0  0  0  0
  127.5700  131.7580   53.9910 S   0  0  0  0  0  0  0  0  0  0  0  0
  127.5670  130.1760   54.7660 C   0  0  0  0  0  0  0  0  0  0  0  0
  128.5730  129.3390   54.7330 N   0  0  0  0  0  0  0  0  0  0  0  0
  128.1460  128.3000   55.4440 C   0  0  0  0  0  0  0  0  0  0  0  0
  128.9980  127.0870   55.6860 C   0  0  0  0  0  0  0  0  0  0  0  0
  129.4090  126.7240   56.9780 C   0  0  0  0  0  0  0  0  0  0  0  0
  130.2040  125.5920   57.1710 C   0  0  0  0  0  0  0  0  0  0  0  0
  130.5710  124.8400   56.0570 C   0  0  0  0  0  0  0  0  0  0  0  0
  130.1920  125.1620   54.7940 N   0  0  0  0  0  0  0  0  0  0  0  0
  129.4190  126.2650   54.6280 C   0  0  0  0  0  0  0  0  0  0  0  0
  126.9230  128.4110   55.9280 N   0  0  0  0  0  0  0  0  0  0  0  0
  126.5480  129.6160   55.4920 N   0  0  0  0  0  0  0  0  0  0  0  0
  125.2310  130.1540   55.8330 C   0  0  0  0  0  0  0  0  0  0  0  0
  124.9270  130.2220   57.3400 C   0  0  0  0  0  0  0  0  0  0  0  0
  123.7940  130.5020   57.7460 O   0  0  0  0  0  0  0  0  0  0  0  0
  125.9770  129.9620   58.1430 N   0  0  0  0  0  0  0  0  0  0  0  0
  125.7470  129.8600   59.5080 N   0  0  0  0  0  0  0  0  0  0  0  0
  126.6920  129.2610   60.2640 C   0  0  0  0  0  0  0  0  0  0  0  0
  127.7900  128.8910   59.8350 O   0  0  0  0  0  0  0  0  0  0  0  0
  126.3440  129.0790   61.7270 C   0  0  0  0  0  0  0  0  0  0  0  0
  127.0620  128.1670   62.5080 C   0  0  0  0  0  0  0  0  0  0  0  0
  126.7510  127.9750   63.8500 C   0  0  0  0  0  0  0  0  0  0  0  0
  125.7020  128.6880   64.4540 C   0  0  0  0  0  0  0  0  0  0  0  0
  125.3330  128.5350   65.7780 O   0  0  0  0  0  0  0  0  0  0  0  0
  126.1260  127.7230   66.6370 C   0  0  0  0  0  0  0  0  0  0  0  0
  124.9660  129.6010   63.6860 C   0  0  0  0  0  0  0  0  0  0  0  0
  123.9290  130.2630   64.3230 O   0  0  0  0  0  0  0  0  0  0  0  0
  124.1960  131.0290   65.4920 C   0  0  0  0  0  0  0  0  0  0  0  0
  125.2950  129.7900   62.3320 C   0  0  0  0  0  0  0  0  0  0  0  0
  130.4740  131.4890   58.6460 C   0  0  0  0  0  0  0  0  0  0  0  0
  130.5880  131.6540   60.0240 C   0  0  0  0  0  0  0  0  0  0  0  0
  129.5667  131.7418   63.9837 H   0  0  0  0  0  0  0  0  0  0  0  0
  128.4067  131.1979   62.7247 H   0  0  0  0  0  0  0  0  0  0  0  0
  130.0907  130.5727   62.7247 H   0  0  0  0  0  0  0  0  0  0  0  0
  127.8970  133.6793   60.5702 H   0  0  0  0  0  0  0  0  0  0  0  0
  127.6842  133.3859   58.1113 H   0  0  0  0  0  0  0  0  0  0  0  0
  128.4380  131.3540   56.3330 H   0  0  0  0  0  0  0  0  0  0  0  0
  129.6124  132.8911   53.4163 H   0  0  0  0  0  0  0  0  0  0  0  0
  129.8689  131.1516   53.9651 H   0  0  0  0  0  0  0  0  0  0  0  0
  129.1039  127.3332   57.8416 H   0  0  0  0  0  0  0  0  0  0  0  0
  130.5329  125.3008   58.1795 H   0  0  0  0  0  0  0  0  0  0  0  0
  131.1949  123.9466   56.2075 H   0  0  0  0  0  0  0  0  0  0  0  0
  129.1046  126.5300   53.6077 H   0  0  0  0  0  0  0  0  0  0  0  0
  125.1624  131.1731   55.4247 H   0  0  0  0  0  0  0  0  0  0  0  0
  124.4943  129.4604   55.4016 H   0  0  0  0  0  0  0  0  0  0  0  0
  126.8420  129.5330   57.8430 H   0  0  0  0  0  0  0  0  0  0  0  0
  124.7640  129.7450   59.7090 H   0  0  0  0  0  0  0  0  0  0  0  0
  127.8840  127.5938   62.0544 H   0  0  0  0  0  0  0  0  0  0  0  0
  127.3333  127.2564   64.4454 H   0  0  0  0  0  0  0  0  0  0  0  0
  125.8930  127.9616   67.6852 H   0  0  0  0  0  0  0  0  0  0  0  0
  125.9064  126.6624   66.4448 H   0  0  0  0  0  0  0  0  0  0  0  0
  127.1915  127.9175   66.4448 H   0  0  0  0  0  0  0  0  0  0  0  0
  123.9844  130.4218   66.3845 H   0  0  0  0  0  0  0  0  0  0  0  0
  125.2531  131.3331   65.4976 H   0  0  0  0  0  0  0  0  0  0  0  0
  123.5569  131.9243   65.4976 H   0  0  0  0  0  0  0  0  0  0  0  0
  124.7181  130.5105   61.7337 H   0  0  0  0  0  0  0  0  0  0  0  0
  131.2021  130.8680   58.1037 H   0  0  0  0  0  0  0  0  0  0  0  0
  131.4127  131.1655   60.5637 H   0  0  0  0  0  0  0  0  0  0  0  0
  1  2  1  0
  2  3  1  0
  3  4  2  0
  4  5  1  0
  5  6  2  0
  6  7  1  0
  7  8  1  0
  8  9  2  0
  8 10  1  0
 10 11  1  0
 11 12  1  0
 12 13  2  0
 13 14  1  0
 14 15  1  0
 15 16  2  0
 16 17  1  0
 17 18  2  0
 18 19  1  0
 19 20  2  0
 14 21  2  0
 21 22  1  0
 22 23  1  0
 23 24  1  0
 24 25  2  0
 24 26  1  0
 26 27  1  0
 27 28  1  0
 28 29  2  0
 28 30  1  0
 30 31  2  0
 31 32  1  0
 32 33  2  0
 33 34  1  0
 34 35  1  0
 33 36  1  0
 36 37  1  0
 37 38  1  0
 36 39  2  0
  6 40  1  0
 40 41  2  0
 41  3  1  0
 22 12  1  0
 39 30  1  0
 20 15  1  0
  1 42  1  0
  1 43  1  0
  1 44  1  0
  4 45  1  0
  5 46  1  0
  7 47  1  0
 10 48  1  0
 10 49  1  0
 16 50  1  0
 17 51  1  0
 18 52  1  0
 20 53  1  0
 23 54  1  0
 23 55  1  0
 26 56  1  0
 27 57  1  0
 31 58  1  0
 32 59  1  0
 35 60  1  0
 35 61  1  0
 35 62  1  0
 38 63  1  0
 38 64  1  0
 38 65  1  0
 39 66  1  0
 40 67  1  0
 41 68  1  0
M  END
>  <Binding energies>  (1) 
[-8.17]

>  <Ligand effiencies>  (1) 
[-0.18568181818181817]

>  <Interactions>  (1) 
["H-B:TYR:531:OH:9763, V-B:TYR:539:CZ:9845, V-B:GLU:543:CD:9876, V-B:GLU:543:CB:9874, V-A:GLU:543:CD:4903, V-A:TYR:539:CZ:4872, V-A:PRO:540:C:4876, V-A:PRO:540:N:4879, V-A:TYR:539:CE1:4870, V-A:TYR:539:C:4862, V-A:TYR:539:CD1:4868, V-A:PRO:540:CA:4878, V-A:TYR:539:CG:4867, H-A:ALA:541:N:4886, V-A:PRO:540:CB:4880, V-A:TYR:539:CE2:4871, V-A:TYR:539:CD2:4869, V-B:ARG:545:CG:9890, V-B:HIS:456:CE1:9037, H-A:TYR:539:N:4865, H-A:LYS:534:NZ:4818, V-A:TYR:531:CE1:4787, V-A:TYR:531:CZ:4789, V-A:GLU:543:CG:4902, V-B:ARG:545:CZ:9894, V-B:GLY:454:CA:9016, H-B:GLY:454:N:9017, V-A:MET:535:CB:4827, V-A:MET:535:CG:4828, V-B:TYR:484:CZ:9314, H-B:ARG:545:NE:9892, V-B:TYR:531:CE1:9760, V-B:TYR:531:CZ:9762, V-B:ASP:366:CB:8179, H-A:TYR:539:OH:4873, H-B:TYR:539:OH:9846, H-B:ASP:366:OD1:8181"]

$$$$
RR20_Rahimova_2017
     RDKit          3D

 68 73  0  0  0  0  0  0  0  0999 V2000
  124.8000  123.1080   57.5010 C   0  0  0  0  0  0  0  0  0  0  0  0
  126.1960  123.4760   57.0310 C   0  0  0  0  0  0  0  0  0  0  0  0
  126.5680  124.8180   56.9420 C   0  0  0  0  0  0  0  0  0  0  0  0
  127.8500  125.1570   56.5200 C   0  0  0  0  0  0  0  0  0  0  0  0
  128.7670  124.1590   56.1700 C   0  0  0  0  0  0  0  0  0  0  0  0
  130.1620  124.5480   55.7330 C   0  0  0  0  0  0  0  0  0  0  0  0
  130.2850  125.0890   54.6320 O   0  0  0  0  0  0  0  0  0  0  0  0
  131.2160  124.3050   56.5660 N   0  0  0  0  0  0  0  0  0  0  0  0
  132.5990  124.2540   56.0650 C   0  0  0  0  0  0  0  0  0  0  0  0
  133.4920  124.1180   57.2870 C   0  0  0  0  0  0  0  0  0  0  0  0
  132.5740  124.4820   58.4140 C   0  0  0  0  0  0  0  0  0  0  0  0
  132.8610  124.6190   59.7720 C   0  0  0  0  0  0  0  0  0  0  0  0
  131.8310  124.8050   60.7030 C   0  0  0  0  0  0  0  0  0  0  0  0
  132.1400  124.9610   62.1660 C   0  0  0  0  0  0  0  0  0  0  0  0
  131.2850  125.6330   62.9210 N   0  0  0  0  0  0  0  0  0  0  0  0
  131.6440  125.6890   64.1790 C   0  0  0  0  0  0  0  0  0  0  0  0
  130.9800  126.3050   65.2290 N   0  0  0  0  0  0  0  0  0  0  0  0
  130.7190  125.7750   66.4490 C   0  0  0  0  0  0  0  0  0  0  0  0
  131.0680  124.6470   66.8000 O   0  0  0  0  0  0  0  0  0  0  0  0
  129.9570  126.6500   67.4730 C   0  0  0  0  0  0  0  0  0  0  0  0
  128.6300  127.0770   66.9920 N   0  0  0  0  0  0  0  0  0  0  0  0
  127.6410  127.1630   68.0770 C   0  0  0  0  0  0  0  0  0  0  0  0
  126.2230  127.3480   67.4910 C   0  0  0  0  0  0  0  0  0  0  0  0
  126.1660  128.4070   66.3890 C   0  0  0  0  0  0  0  0  0  0  0  0
  124.9410  128.9030   65.9290 C   0  0  0  0  0  0  0  0  0  0  0  0
  124.8880  129.8390   64.8990 C   0  0  0  0  0  0  0  0  0  0  0  0
  126.0660  130.2930   64.3150 C   0  0  0  0  0  0  0  0  0  0  0  0
  127.2930  129.8130   64.7690 C   0  0  0  0  0  0  0  0  0  0  0  0
  127.3610  128.8720   65.8030 C   0  0  0  0  0  0  0  0  0  0  0  0
  128.7080  128.3900   66.3400 C   0  0  0  0  0  0  0  0  0  0  0  0
  133.1280  124.8950   64.5310 S   0  0  0  0  0  0  0  0  0  0  0  0
  133.2730  124.4630   62.8440 C   0  0  0  0  0  0  0  0  0  0  0  0
  134.4860  123.7060   62.3480 C   0  0  0  0  0  0  0  0  0  0  0  0
  130.5050  124.7950   60.2450 C   0  0  0  0  0  0  0  0  0  0  0  0
  130.2140  124.6400   58.8900 C   0  0  0  0  0  0  0  0  0  0  0  0
  131.2560  124.5390   57.9590 C   0  0  0  0  0  0  0  0  0  0  0  0
  128.3960  122.8140   56.2890 C   0  0  0  0  0  0  0  0  0  0  0  0
  127.1140  122.4730   56.7130 C   0  0  0  0  0  0  0  0  0  0  0  0
  124.7733  123.1010   58.6007 H   0  0  0  0  0  0  0  0  0  0  0  0
  124.0787  123.8467   57.1214 H   0  0  0  0  0  0  0  0  0  0  0  0
  124.5366  122.1097   57.1214 H   0  0  0  0  0  0  0  0  0  0  0  0
  125.8484  125.6073   57.2052 H   0  0  0  0  0  0  0  0  0  0  0  0
  128.1444  126.2152   56.4611 H   0  0  0  0  0  0  0  0  0  0  0  0
  132.7309  123.3886   55.3990 H   0  0  0  0  0  0  0  0  0  0  0  0
  132.8478  125.1563   55.4871 H   0  0  0  0  0  0  0  0  0  0  0  0
  133.8615  123.0875   57.3945 H   0  0  0  0  0  0  0  0  0  0  0  0
  134.3926  124.7478   57.2394 H   0  0  0  0  0  0  0  0  0  0  0  0
  133.9055  124.5806   60.1150 H   0  0  0  0  0  0  0  0  0  0  0  0
  130.6530  127.2450   65.0570 H   0  0  0  0  0  0  0  0  0  0  0  0
  129.8245  126.0710   68.3988 H   0  0  0  0  0  0  0  0  0  0  0  0
  130.5548  127.5584   67.6386 H   0  0  0  0  0  0  0  0  0  0  0  0
  127.6712  126.2375   68.6708 H   0  0  0  0  0  0  0  0  0  0  0  0
  127.8817  128.0259   68.7154 H   0  0  0  0  0  0  0  0  0  0  0  0
  125.8887  126.3875   67.0719 H   0  0  0  0  0  0  0  0  0  0  0  0
  125.5705  127.6882   68.3087 H   0  0  0  0  0  0  0  0  0  0  0  0
  124.0062  128.5484   66.3876 H   0  0  0  0  0  0  0  0  0  0  0  0
  123.9169  130.2183   64.5482 H   0  0  0  0  0  0  0  0  0  0  0  0
  126.0292  131.0283   63.4977 H   0  0  0  0  0  0  0  0  0  0  0  0
  128.2221  130.1791   64.3078 H   0  0  0  0  0  0  0  0  0  0  0  0
  129.4160  128.3229   65.5008 H   0  0  0  0  0  0  0  0  0  0  0  0
  129.0375  129.1148   67.0990 H   0  0  0  0  0  0  0  0  0  0  0  0
  135.0682  123.3426   63.2076 H   0  0  0  0  0  0  0  0  0  0  0  0
  134.1602  122.8506   61.7379 H   0  0  0  0  0  0  0  0  0  0  0  0
  135.1112  124.3745   61.7379 H   0  0  0  0  0  0  0  0  0  0  0  0
  129.6822  124.9112   60.9658 H   0  0  0  0  0  0  0  0  0  0  0  0
  129.1679  124.5971   58.5527 H   0  0  0  0  0  0  0  0  0  0  0  0
  129.1207  122.0229   56.0464 H   0  0  0  0  0  0  0  0  0  0  0  0
  126.8250  121.4150   56.7973 H   0  0  0  0  0  0  0  0  0  0  0  0
  1  2  1  0
  2  3  2  0
  3  4  1  0
  4  5  2  0
  5  6  1  0
  6  7  2  0
  6  8  1  0
  8  9  1  0
  9 10  1  0
 10 11  1  0
 11 12  2  0
 12 13  1  0
 13 14  1  0
 14 15  1  0
 15 16  2  0
 16 17  1  0
 17 18  1  0
 18 19  2  0
 18 20  1  0
 20 21  1  0
 21 22  1  0
 22 23  1  0
 23 24  1  0
 24 25  2  0
 25 26  1  0
 26 27  2  0
 27 28  1  0
 28 29  2  0
 29 30  1  0
 16 31  1  0
 31 32  1  0
 32 33  1  0
 13 34  2  0
 34 35  1  0
 35 36  2  0
  5 37  1  0
 37 38  2  0
 38  2  1  0
 36  8  1  0
 36 11  1  0
 32 14  2  0
 30 21  1  0
 29 24  1  0
  1 39  1  0
  1 40  1  0
  1 41  1  0
  3 42  1  0
  4 43  1  0
  9 44  1  0
  9 45  1  0
 10 46  1  0
 10 47  1  0
 12 48  1  0
 17 49  1  0
 20 50  1  0
 20 51  1  0
 22 52  1  0
 22 53  1  0
 23 54  1  0
 23 55  1  0
 25 56  1  0
 26 57  1  0
 27 58  1  0
 28 59  1  0
 30 60  1  0
 30 61  1  0
 33 62  1  0
 33 63  1  0
 33 64  1  0
 34 65  1  0
 35 66  1  0
 37 67  1  0
 38 68  1  0
M  END
>  <Binding energies>  (1) 
[-10.73]

>  <Ligand effiencies>  (1) 
[-0.2751282051282051]

>  <Interactions>  (1) 
["V-B:TYR:539:CE2:9844, V-B:MET:535:CE:9803, V-B:PRO:540:CD:9855, V-B:PRO:540:CA:9851, V-B:PRO:540:N:9852, V-B:PRO:540:CB:9853, V-B:TYR:539:CE1:9843, V-B:TYR:539:C:9835, V-B:TYR:539:CZ:9845, V-A:HIS:456:CE1:4064, V-A:ASP:366:CG:3208, H-A:GLU:543:OE2:4905, H-A:TYR:484:OH:4343, H-A:GLU:543:OE1:4904, V-A:ARG:545:CZ:4921, H-A:HIS:456:NE2:4065, V-B:GLU:543:CB:9874, V-A:GLU:543:CD:4903, V-A:ASP:366:CB:3207, V-A:GLY:454:CA:4044, V-A:GLY:453:CA:4039, V-A:GLY:453:C:4037, V-B:ARG:545:CG:9890, V-B:HIS:456:CE1:9037, V-A:ILE:369:CD1:3234, H-A:LYS:534:NZ:4818, V-B:LEU:363:CD1:8156, V-A:TYR:531:CE1:4787, V-A:TYR:531:CZ:4789, V-A:GLU:543:CG:4902, V-B:ARG:545:CZ:9894, V-B:ARG:545:CD:9891, V-B:PRO:540:CG:9854, V-A:ASN:370:CB:3240, V-A:ASP:366:C:3203, H-B:TYR:539:OH:9846, V-B:TYR:539:CD1:9841, V-B:TYR:539:CG:9840, V-A:ASP:366:CA:3205"]

$$$$
RR20_Rahimova_2017-again1
     RDKit          3D

 68 73  0  0  0  0  0  0  0  0999 V2000
  124.2620  133.4170   61.9540 C   0  0  0  0  0  0  0  0  0  0  0  0
  125.1830  132.4570   62.6850 C   0  0  0  0  0  0  0  0  0  0  0  0
  124.6570  131.3160   63.2940 C   0  0  0  0  0  0  0  0  0  0  0  0
  125.5020  130.4310   63.9580 C   0  0  0  0  0  0  0  0  0  0  0  0
  126.8770  130.6840   64.0290 C   0  0  0  0  0  0  0  0  0  0  0  0
  127.7810  129.7020   64.7400 C   0  0  0  0  0  0  0  0  0  0  0  0
  128.9480  129.6140   64.3530 O   0  0  0  0  0  0  0  0  0  0  0  0
  127.2860  128.9780   65.7870 N   0  0  0  0  0  0  0  0  0  0  0  0
  126.2870  127.9170   65.5830 C   0  0  0  0  0  0  0  0  0  0  0  0
  126.0940  127.2440   66.9320 C   0  0  0  0  0  0  0  0  0  0  0  0
  127.2760  127.7300   67.7170 C   0  0  0  0  0  0  0  0  0  0  0  0
  127.6770  127.3800   69.0070 C   0  0  0  0  0  0  0  0  0  0  0  0
  128.7220  128.0690   69.6420 C   0  0  0  0  0  0  0  0  0  0  0  0
  129.1500  127.6980   71.0330 C   0  0  0  0  0  0  0  0  0  0  0  0
  129.1220  126.4190   71.3760 N   0  0  0  0  0  0  0  0  0  0  0  0
  129.5020  126.1880   72.6090 C   0  0  0  0  0  0  0  0  0  0  0  0
  129.5500  124.9990   73.2880 N   0  0  0  0  0  0  0  0  0  0  0  0
  130.5230  124.6170   74.0450 C   0  0  0  0  0  0  0  0  0  0  0  0
  131.5650  125.1970   74.4070 O   0  0  0  0  0  0  0  0  0  0  0  0
  130.3540  123.1910   74.6090 C   0  0  0  0  0  0  0  0  0  0  0  0
  131.2280  122.1930   73.7950 N   0  0  2  0  0  0  0  0  0  0  0  0
  131.4810  122.6690   72.3500 C   0  0  0  0  0  0  0  0  0  0  0  0
  130.1570  122.6940   71.5650 C   0  0  0  0  0  0  0  0  0  0  0  0
  129.3510  121.4050   71.7050 C   0  0  0  0  0  0  0  0  0  0  0  0
  128.3660  121.0970   70.7590 C   0  0  0  0  0  0  0  0  0  0  0  0
  127.5790  119.9540   70.8810 C   0  0  0  0  0  0  0  0  0  0  0  0
  127.7720  119.0980   71.9570 C   0  0  0  0  0  0  0  0  0  0  0  0
  128.7570  119.3840   72.8990 C   0  0  0  0  0  0  0  0  0  0  0  0
  129.5630  120.5230   72.7900 C   0  0  0  0  0  0  0  0  0  0  0  0
  130.6650  120.7520   73.8320 C   0  0  0  0  0  0  0  0  0  0  0  0
  129.9160  127.6210   73.4730 S   0  0  0  0  0  0  0  0  0  0  0  0
  129.5900  128.5730   72.0450 C   0  0  0  0  0  0  0  0  0  0  0  0
  129.8150  130.0710   72.0520 C   0  0  0  0  0  0  0  0  0  0  0  0
  129.3200  129.1420   68.9680 C   0  0  0  0  0  0  0  0  0  0  0  0
  128.9090  129.5050   67.6850 C   0  0  0  0  0  0  0  0  0  0  0  0
  127.9180  128.7610   67.0320 C   0  0  0  0  0  0  0  0  0  0  0  0
  127.4010  131.8150   63.3890 C   0  0  0  0  0  0  0  0  0  0  0  0
  126.5560  132.7000   62.7250 C   0  0  0  0  0  0  0  0  0  0  0  0
  123.6938  134.0093   62.6863 H   0  0  0  0  0  0  0  0  0  0  0  0
  124.8605  134.0905   61.3230 H   0  0  0  0  0  0  0  0  0  0  0  0
  123.5643  132.8469   61.3230 H   0  0  0  0  0  0  0  0  0  0  0  0
  123.5762  131.1166   63.2492 H   0  0  0  0  0  0  0  0  0  0  0  0
  125.0869  129.5280   64.4294 H   0  0  0  0  0  0  0  0  0  0  0  0
  125.3378  128.3502   65.2347 H   0  0  0  0  0  0  0  0  0  0  0  0
  126.6206  127.1962   64.8219 H   0  0  0  0  0  0  0  0  0  0  0  0
  125.1501  127.5592   67.4008 H   0  0  0  0  0  0  0  0  0  0  0  0
  126.0347  126.1475   66.8675 H   0  0  0  0  0  0  0  0  0  0  0  0
  127.1695  126.5566   69.5309 H   0  0  0  0  0  0  0  0  0  0  0  0
  130.6686  123.1759   75.6629 H   0  0  0  0  0  0  0  0  0  0  0  0
  129.2977  122.8937   74.5322 H   0  0  0  0  0  0  0  0  0  0  0  0
  132.1310  122.1770   74.2530 H   0  0  0  0  0  0  0  0  0  0  0  0
  131.9120  123.6809   72.3699 H   0  0  0  0  0  0  0  0  0  0  0  0
  132.1795  121.9759   71.8584 H   0  0  0  0  0  0  0  0  0  0  0  0
  129.5463  123.5303   71.9359 H   0  0  0  0  0  0  0  0  0  0  0  0
  130.4099  122.8077   70.5005 H   0  0  0  0  0  0  0  0  0  0  0  0
  128.2105  121.7703   69.9031 H   0  0  0  0  0  0  0  0  0  0  0  0
  126.8084  119.7307   70.1285 H   0  0  0  0  0  0  0  0  0  0  0  0
  127.1494  118.1976   72.0650 H   0  0  0  0  0  0  0  0  0  0  0  0
  128.9048  118.6996   73.7474 H   0  0  0  0  0  0  0  0  0  0  0  0
  130.2491  120.5617   74.8324 H   0  0  0  0  0  0  0  0  0  0  0  0
  131.4919  120.0649   73.5993 H   0  0  0  0  0  0  0  0  0  0  0  0
  129.8687  130.4289   73.0908 H   0  0  0  0  0  0  0  0  0  0  0  0
  130.7580  130.3026   71.5352 H   0  0  0  0  0  0  0  0  0  0  0  0
  128.9816  130.5694   71.5352 H   0  0  0  0  0  0  0  0  0  0  0  0
  130.1264  129.7072   69.4582 H   0  0  0  0  0  0  0  0  0  0  0  0
  129.3627  130.3745   67.1869 H   0  0  0  0  0  0  0  0  0  0  0  0
  128.4843  132.0044   63.4113 H   0  0  0  0  0  0  0  0  0  0  0  0
  126.9712  133.5912   62.2317 H   0  0  0  0  0  0  0  0  0  0  0  0
  1  2  1  0
  2  3  2  0
  3  4  1  0
  4  5  2  0
  5  6  1  0
  6  7  2  0
  6  8  1  0
  8  9  1  0
  9 10  1  0
 10 11  1  0
 11 12  2  0
 12 13  1  0
 13 14  1  0
 14 15  1  0
 15 16  2  0
 16 17  1  0
 17 18  2  0
 18 19  1  0
 18 20  1  0
 20 21  1  0
 21 22  1  0
 22 23  1  0
 23 24  1  0
 24 25  2  0
 25 26  1  0
 26 27  2  0
 27 28  1  0
 28 29  2  0
 29 30  1  0
 16 31  1  0
 31 32  1  0
 32 33  1  0
 13 34  2  0
 34 35  1  0
 35 36  2  0
  5 37  1  0
 37 38  2  0
 38  2  1  0
 36  8  1  0
 36 11  1  0
 32 14  2  0
 30 21  1  0
 29 24  1  0
  1 39  1  0
  1 40  1  0
  1 41  1  0
  3 42  1  0
  4 43  1  0
  9 44  1  0
  9 45  1  0
 10 46  1  0
 10 47  1  0
 12 48  1  0
 20 49  1  0
 20 50  1  0
 21 51  1  1
 22 52  1  0
 22 53  1  0
 23 54  1  0
 23 55  1  0
 25 56  1  0
 26 57  1  0
 27 58  1  0
 28 59  1  0
 30 60  1  0
 30 61  1  0
 33 62  1  0
 33 63  1  0
 33 64  1  0
 34 65  1  0
 35 66  1  0
 37 67  1  0
 38 68  1  0
M  CHG  2  19  -1  21   1
M  END
>  <Binding energies>  (1) 
[-9.63]

>  <Ligand effiencies>  (1) 
[-0.24692307692307694]

>  <Interactions>  (1) 
["V-B:GLU:543:C:9870, V-A:HIS:456:CE1:4064, V-B:GLU:543:CD:9876, V-B:GLU:543:CG:9875, V-B:GLU:543:CB:9874, V-A:GLU:543:CB:4901, V-A:HIS:456:CD2:4063, V-B:ARG:545:CG:9890, V-B:HIS:456:CE1:9037, V-A:GLU:543:CG:4902, V-B:ARG:545:CD:9891, V-A:GLU:543:C:4897, V-B:HIS:456:CD2:9035, V-A:LYS:547:CE:4945, V-A:TYR:484:CG:4337, V-A:TYR:484:CB:4336, H-B:LYS:547:NZ:9919, V-B:GLU:543:CA:9872, V-B:LYS:547:CE:9918, V-A:TYR:484:CD1:4338, V-A:ASP:473:CB:4234, V-A:HIS:456:CG:4061, V-A:HIS:456:CB:4060, V-A:ASP:473:CG:4235, H-A:ASP:473:OD1:4236, V-B:LEU:475:CD2:9226, V-B:ILE:369:CD1:8206, V-B:VAL:542:C:9862"]

$$$$
RR21_Rahimova_2017
     RDKit          3D

 62 67  0  0  0  0  0  0  0  0999 V2000
  134.2270  123.8640   62.2400 C   0  0  0  0  0  0  0  0  0  0  0  0
  134.3060  124.2500   63.6090 O   0  0  0  0  0  0  0  0  0  0  0  0
  133.2180  124.8610   64.2030 C   0  0  0  0  0  0  0  0  0  0  0  0
  131.9590  124.9980   63.5940 C   0  0  0  0  0  0  0  0  0  0  0  0
  130.9100  125.6270   64.2640 C   0  0  0  0  0  0  0  0  0  0  0  0
  131.0900  126.1310   65.5580 C   0  0  0  0  0  0  0  0  0  0  0  0
  129.9600  126.8010   66.2780 C   0  0  0  0  0  0  0  0  0  0  0  0
  129.9840  126.8930   67.5930 N   0  0  0  0  0  0  0  0  0  0  0  0
  128.8610  127.5330   67.9540 N   0  0  0  0  0  0  0  0  0  0  0  0
  128.5770  127.8200   69.3150 C   0  0  0  0  0  0  0  0  0  0  0  0
  129.4220  128.6530   70.0650 C   0  0  0  0  0  0  0  0  0  0  0  0
  129.1300  128.9300   71.3970 C   0  0  0  0  0  0  0  0  0  0  0  0
  127.9940  128.3770   71.9850 C   0  0  0  0  0  0  0  0  0  0  0  0
  127.1490  127.5470   71.2530 C   0  0  0  0  0  0  0  0  0  0  0  0
  127.4390  127.2670   69.9200 C   0  0  0  0  0  0  0  0  0  0  0  0
  128.1260  127.8640   66.8440 C   0  0  0  0  0  0  0  0  0  0  0  0
  128.8000  127.3920   65.7280 C   0  0  0  0  0  0  0  0  0  0  0  0
  128.4340  127.5420   64.3270 C   0  0  0  0  0  0  0  0  0  0  0  0
  128.3850  128.6770   63.5920 C   0  0  0  0  0  0  0  0  0  0  0  0
  128.7440  130.3360   64.1190 S   0  0  0  0  0  0  0  0  0  0  0  0
  128.4140  130.9100   62.4910 C   0  0  0  0  0  0  0  0  0  0  0  0
  128.4890  132.1260   62.0460 N   0  0  0  0  0  0  0  0  0  0  0  0
  128.2050  132.4560   60.6920 C   0  0  0  0  0  0  0  0  0  0  0  0
  128.2720  133.5770   60.1880 O   0  0  0  0  0  0  0  0  0  0  0  0
  127.8000  131.2770   59.8510 C   0  0  0  0  0  0  0  0  0  0  0  0
  127.4490  131.5140   58.3760 C   0  0  0  0  0  0  0  0  0  0  0  0
  128.6510  131.8220   57.4860 C   0  0  0  0  0  0  0  0  0  0  0  0
  128.5290  131.7480   56.0950 C   0  0  0  0  0  0  0  0  0  0  0  0
  129.6210  132.0450   55.2830 C   0  0  0  0  0  0  0  0  0  0  0  0
  130.8370  132.4190   55.8590 C   0  0  0  0  0  0  0  0  0  0  0  0
  132.0200  132.7530   54.9690 C   0  0  0  0  0  0  0  0  0  0  0  0
  130.9580  132.5040   57.2480 C   0  0  0  0  0  0  0  0  0  0  0  0
  129.8670  132.2070   58.0600 C   0  0  0  0  0  0  0  0  0  0  0  0
  127.7240  130.0710   60.3100 N   0  0  0  0  0  0  0  0  0  0  0  0
  128.0430  129.8850   61.6610 N   0  0  0  0  0  0  0  0  0  0  0  0
  127.9980  128.6370   62.1890 C   0  0  0  0  0  0  0  0  0  0  0  0
  127.6800  127.6190   61.5630 O   0  0  0  0  0  0  0  0  0  0  0  0
  132.3440  126.0000   66.1620 C   0  0  0  0  0  0  0  0  0  0  0  0
  133.3950  125.3720   65.4930 C   0  0  0  0  0  0  0  0  0  0  0  0
  134.5960  125.2610   66.1070 F   0  0  0  0  0  0  0  0  0  0  0  0
  134.0068  122.7883   62.1745 H   0  0  0  0  0  0  0  0  0  0  0  0
  133.4267  124.4329   61.7442 H   0  0  0  0  0  0  0  0  0  0  0  0
  135.1865  124.0728   61.7442 H   0  0  0  0  0  0  0  0  0  0  0  0
  131.7993  124.6053   62.5790 H   0  0  0  0  0  0  0  0  0  0  0  0
  129.9318  125.7282   63.7712 H   0  0  0  0  0  0  0  0  0  0  0  0
  130.3179  129.0882   69.5982 H   0  0  0  0  0  0  0  0  0  0  0  0
  129.7932  129.5829   71.9835 H   0  0  0  0  0  0  0  0  0  0  0  0
  127.7627  128.5983   73.0374 H   0  0  0  0  0  0  0  0  0  0  0  0
  126.2553  127.1139   71.7261 H   0  0  0  0  0  0  0  0  0  0  0  0
  126.7737  126.6104   69.3401 H   0  0  0  0  0  0  0  0  0  0  0  0
  127.1700  128.4082   66.8400 H   0  0  0  0  0  0  0  0  0  0  0  0
  128.1631  126.6157   63.7993 H   0  0  0  0  0  0  0  0  0  0  0  0
  126.9567  130.6095   57.9893 H   0  0  0  0  0  0  0  0  0  0  0  0
  126.7987  132.4007   58.3453 H   0  0  0  0  0  0  0  0  0  0  0  0
  127.5704  131.4552   55.6419 H   0  0  0  0  0  0  0  0  0  0  0  0
  129.5257  131.9850   54.1888 H   0  0  0  0  0  0  0  0  0  0  0  0
  132.8911  132.9990   55.5940 H   0  0  0  0  0  0  0  0  0  0  0  0
  132.2572  131.8867   54.3340 H   0  0  0  0  0  0  0  0  0  0  0  0
  131.7691  133.6154   54.3340 H   0  0  0  0  0  0  0  0  0  0  0  0
  131.9146  132.8054   57.6998 H   0  0  0  0  0  0  0  0  0  0  0  0
  129.9613  132.2751   59.1538 H   0  0  0  0  0  0  0  0  0  0  0  0
  132.5038  126.3963   67.1756 H   0  0  0  0  0  0  0  0  0  0  0  0
  1  2  1  0
  2  3  1  0
  3  4  2  0
  4  5  1  0
  5  6  2  0
  6  7  1  0
  7  8  2  0
  8  9  1  0
  9 10  1  0
 10 11  2  0
 11 12  1  0
 12 13  2  0
 13 14  1  0
 14 15  2  0
  9 16  1  0
 16 17  2  0
 17 18  1  0
 18 19  2  0
 19 20  1  0
 20 21  1  0
 21 22  2  0
 22 23  1  0
 23 24  2  0
 23 25  1  0
 25 26  1  0
 26 27  1  0
 27 28  2  0
 28 29  1  0
 29 30  2  0
 30 31  1  0
 30 32  1  0
 32 33  2  0
 25 34  2  0
 34 35  1  0
 35 36  1  0
 36 37  2  0
  6 38  1  0
 38 39  2  0
 39 40  1  0
 39  3  1  0
 17  7  1  0
 36 19  1  0
 15 10  1  0
 35 21  1  0
 33 27  1  0
  1 41  1  0
  1 42  1  0
  1 43  1  0
  4 44  1  0
  5 45  1  0
 11 46  1  0
 12 47  1  0
 13 48  1  0
 14 49  1  0
 15 50  1  0
 16 51  1  0
 18 52  1  0
 26 53  1  0
 26 54  1  0
 28 55  1  0
 29 56  1  0
 31 57  1  0
 31 58  1  0
 31 59  1  0
 32 60  1  0
 33 61  1  0
 38 62  1  0
M  END
>  <Binding energies>  (1) 
[-9.51]

>  <Ligand effiencies>  (1) 
[-0.23775]

>  <Interactions>  (1) 
["V-B:GLU:543:C:9870, V-A:HIS:456:CE1:4064, V-A:ASP:366:CG:3208, H-A:GLY:454:N:4045, V-B:GLU:543:CD:9876, V-A:ARG:545:CZ:4921, V-A:GLU:543:CD:4903, V-A:TYR:539:CZ:4872, V-A:LEU:363:CD1:3184, V-A:PRO:540:N:4879, V-A:TYR:539:CE1:4870, V-A:TYR:539:C:4862, V-A:TYR:539:CD1:4868, V-A:PRO:540:CA:4878, V-A:PRO:540:CD:4882, V-A:ILE:538:CA:4855, V-A:PRO:540:CB:4880, V-A:TYR:539:CE2:4871, V-A:ARG:545:CD:4918, V-A:ARG:545:CG:4917, V-A:GLY:453:CA:4039, V-A:GLY:453:C:4037, V-A:HIS:456:CD2:4063, V-B:HIS:456:CE1:9037, V-A:ILE:369:CD1:3234, V-A:ILE:538:CG2:4858, V-A:GLU:543:CG:4902, V-A:ILE:538:CD1:4860, V-A:ILE:538:CB:4857, V-B:HIS:456:CD2:9035, V-B:GLY:544:C:9880, V-B:HIS:456:CG:9033"]

$$$$
RR22_Rahimova_2017
     RDKit          3D

 49 54  0  0  0  0  0  0  0  0999 V2000
  130.4460  118.6330   61.6750 O   0  0  0  0  0  0  0  0  0  0  0  0
  130.6350  119.8340   61.5000 C   0  0  0  0  0  0  0  0  0  0  0  0
  130.9730  120.4730   60.3200 N   0  0  0  0  0  0  0  0  0  0  0  0
  131.0980  121.8980   60.2720 C   0  0  1  0  0  0  0  0  0  0  0  0
  132.4140  122.1430   59.7690 O   0  0  0  0  0  0  0  0  0  0  0  0
  132.5470  122.8670   58.5840 C   0  0  0  0  0  0  0  0  0  0  0  0
  133.7770  122.7740   57.9320 C   0  0  0  0  0  0  0  0  0  0  0  0
  133.9980  123.5020   56.7630 C   0  0  0  0  0  0  0  0  0  0  0  0
  132.9950  124.3260   56.2530 C   0  0  0  0  0  0  0  0  0  0  0  0
  131.7650  124.4200   56.9050 C   0  0  0  0  0  0  0  0  0  0  0  0
  131.5190  123.6770   58.0640 C   0  0  0  0  0  0  0  0  0  0  0  0
  130.2400  123.7410   58.8670 C   0  0  1  0  0  0  0  0  0  0  0  0
  128.8890  123.9940   58.2280 C   0  0  0  0  0  0  0  0  0  0  0  0
  127.9910  123.2210   59.1990 C   0  0  0  0  0  0  0  0  0  0  0  0
  126.5340  123.4390   59.2830 C   0  0  0  0  0  0  0  0  0  0  0  0
  125.9080  123.6070   60.5280 C   0  0  0  0  0  0  0  0  0  0  0  0
  124.5340  123.8130   60.6020 C   0  0  0  0  0  0  0  0  0  0  0  0
  123.7760  123.8540   59.4350 C   0  0  0  0  0  0  0  0  0  0  0  0
  124.3820  123.6900   58.1910 C   0  0  0  0  0  0  0  0  0  0  0  0
  125.7570  123.4850   58.1150 C   0  0  0  0  0  0  0  0  0  0  0  0
  128.6680  122.3740   59.8790 N   0  0  0  0  0  0  0  0  0  0  0  0
  130.0070  122.4590   59.4610 N   0  0  0  0  0  0  0  0  0  0  0  0
  131.0730  122.3850   61.7140 C   0  0  0  0  0  0  0  0  0  0  0  0
  131.5030  123.6140   62.0840 C   0  0  0  0  0  0  0  0  0  0  0  0
  131.5160  124.2170   63.4310 C   0  0  0  0  0  0  0  0  0  0  0  0
  130.3870  124.2680   64.2600 C   0  0  0  0  0  0  0  0  0  0  0  0
  130.4740  124.8540   65.5230 C   0  0  0  0  0  0  0  0  0  0  0  0
  131.6990  125.3850   65.9260 C   0  0  0  0  0  0  0  0  0  0  0  0
  132.8060  125.3580   65.1430 N   0  0  0  0  0  0  0  0  0  0  0  0
  132.7010  124.7820   63.9180 C   0  0  0  0  0  0  0  0  0  0  0  0
  130.5140  121.1030   62.7980 S   0  0  0  0  0  0  0  0  0  0  0  0
  131.1780  119.9440   59.4860 H   0  0  0  0  0  0  0  0  0  0  0  0
  134.5697  122.1288   58.3385 H   0  0  0  0  0  0  0  0  0  0  0  0
  134.9643  123.4262   56.2428 H   0  0  0  0  0  0  0  0  0  0  0  0
  133.1741  124.9035   55.3341 H   0  0  0  0  0  0  0  0  0  0  0  0
  130.9837  125.0829   56.5048 H   0  0  0  0  0  0  0  0  0  0  0  0
  130.4775  124.6217   59.4818 H   0  0  0  0  0  0  0  0  0  0  0  0
  128.6410  125.0655   58.2066 H   0  0  0  0  0  0  0  0  0  0  0  0
  128.8080  123.6865   57.1750 H   0  0  0  0  0  0  0  0  0  0  0  0
  126.5069  123.5756   61.4501 H   0  0  0  0  0  0  0  0  0  0  0  0
  124.0478  123.9431   61.5801 H   0  0  0  0  0  0  0  0  0  0  0  0
  122.6899  124.0172   59.4954 H   0  0  0  0  0  0  0  0  0  0  0  0
  123.7767  123.7224   57.2731 H   0  0  0  0  0  0  0  0  0  0  0  0
  126.2374  123.3583   57.1336 H   0  0  0  0  0  0  0  0  0  0  0  0
  131.8944  124.2468   61.2738 H   0  0  0  0  0  0  0  0  0  0  0  0
  129.4318  123.8457   63.9145 H   0  0  0  0  0  0  0  0  0  0  0  0
  129.5969  124.8963   66.1855 H   0  0  0  0  0  0  0  0  0  0  0  0
  131.7704  125.8458   66.9223 H   0  0  0  0  0  0  0  0  0  0  0  0
  133.5930  124.7580   63.2748 H   0  0  0  0  0  0  0  0  0  0  0  0
  1  2  2  0
  2  3  1  0
  3  4  1  0
  4  5  1  6
  5  6  1  0
  6  7  2  0
  7  8  1  0
  8  9  2  0
  9 10  1  0
 10 11  2  0
 11 12  1  0
 12 13  1  0
 13 14  1  0
 14 15  1  0
 15 16  2  0
 16 17  1  0
 17 18  2  0
 18 19  1  0
 19 20  2  0
 14 21  2  0
 21 22  1  0
  4 23  1  0
 23 24  2  0
 24 25  1  0
 25 26  2  0
 26 27  1  0
 27 28  2  0
 28 29  1  0
 29 30  2  0
 23 31  1  0
 31  2  1  0
 22  4  1  0
 30 25  1  0
 11  6  1  0
 22 12  1  0
 20 15  1  0
  3 32  1  0
  7 33  1  0
  8 34  1  0
  9 35  1  0
 10 36  1  0
 12 37  1  1
 13 38  1  0
 13 39  1  0
 16 40  1  0
 17 41  1  0
 18 42  1  0
 19 43  1  0
 20 44  1  0
 24 45  1  0
 26 46  1  0
 27 47  1  0
 28 48  1  0
 30 49  1  0
M  END
>  <Binding energies>  (1) 
[-8.72]

>  <Ligand effiencies>  (1) 
[-0.2725]

>  <Interactions>  (1) 
["V-B:ALA:541:CB:9860, V-B:TYR:539:CE2:9844, H-B:TYR:539:O:9836, V-B:PRO:540:CA:9851, V-B:TYR:539:CD2:9842, V-B:PRO:540:N:9852, V-B:PRO:540:CB:9853, V-B:TYR:539:CZ:9845, H-A:TYR:484:OH:4343, V-B:GLU:543:CD:9876, V-B:GLU:543:CG:9875, V-B:ASN:362:CB:8143, V-A:ASP:366:CB:3207, V-A:ILE:369:CG2:3232, V-A:ILE:369:CD1:3234, V-A:LEU:475:CD2:4254, V-B:LEU:363:CA:8152, V-B:LEU:363:CD1:8156, V-A:TYR:531:CE1:4787, V-A:TYR:531:CZ:4789, V-A:ASN:370:CB:3240, V-A:ASP:366:C:3203, V-B:ASP:366:CG:8180, V-B:LEU:363:CB:8154, V-A:ILE:369:CB:3231, V-A:ASP:366:CA:3205, V-B:ASN:362:C:8139, V-A:ASN:370:CA:3238"]

$$$$
RR23_Rahimova_2017
     RDKit          3D

 65 70  0  0  0  0  0  0  0  0999 V2000
  130.6320  128.6020   71.4530 C   0  0  0  0  0  0  0  0  0  0  0  0
  129.6390  128.3450   70.3350 C   0  0  0  0  0  0  0  0  0  0  0  0
  129.8050  128.9670   69.0970 C   0  0  0  0  0  0  0  0  0  0  0  0
  128.8980  128.7230   68.0680 C   0  0  0  0  0  0  0  0  0  0  0  0
  127.8120  127.8650   68.2740 C   0  0  0  0  0  0  0  0  0  0  0  0
  126.8500  127.5970   67.1380 C   0  0  0  0  0  0  0  0  0  0  0  0
  125.7570  127.1000   67.4200 O   0  0  0  0  0  0  0  0  0  0  0  0
  127.2120  127.9240   65.8610 N   0  0  0  0  0  0  0  0  0  0  0  0
  128.3490  127.2710   65.1920 C   0  0  0  0  0  0  0  0  0  0  0  0
  128.3510  127.7780   63.7600 C   0  0  0  0  0  0  0  0  0  0  0  0
  126.9910  128.3920   63.6210 C   0  0  0  0  0  0  0  0  0  0  0  0
  126.3870  128.9450   62.4910 C   0  0  0  0  0  0  0  0  0  0  0  0
  125.1620  129.6190   62.6000 C   0  0  0  0  0  0  0  0  0  0  0  0
  124.4630  130.2420   61.3820 C   0  0  2  0  0  0  0  0  0  0  0  0
  124.9790  129.7250   60.1330 N   0  0  0  0  0  0  0  0  0  0  0  0
  124.9390  130.5960   59.2070 C   0  0  0  0  0  0  0  0  0  0  0  0
  125.3620  130.4730   57.9200 N   0  0  0  0  0  0  0  0  0  0  0  0
  126.0490  129.4510   57.3540 C   0  0  0  0  0  0  0  0  0  0  0  0
  126.3820  128.4090   57.9230 O   0  0  0  0  0  0  0  0  0  0  0  0
  126.4320  129.6480   55.8780 C   0  0  0  0  0  0  0  0  0  0  0  0
  127.6890  130.4260   55.8030 N   0  0  0  0  0  0  0  0  0  0  0  0
  127.7340  131.5640   56.5980 N   0  0  0  0  0  0  0  0  0  0  0  0
  128.7760  132.3320   56.6210 N   0  0  0  0  0  0  0  0  0  0  0  0
  129.8880  132.0170   55.8360 C   0  0  0  0  0  0  0  0  0  0  0  0
  130.9950  132.8670   55.8830 C   0  0  0  0  0  0  0  0  0  0  0  0
  132.1210  132.5800   55.1090 C   0  0  0  0  0  0  0  0  0  0  0  0
  132.1400  131.4490   54.2890 C   0  0  0  0  0  0  0  0  0  0  0  0
  131.0340  130.5990   54.2400 C   0  0  0  0  0  0  0  0  0  0  0  0
  129.9060  130.8860   55.0180 C   0  0  0  0  0  0  0  0  0  0  0  0
  128.6970  129.9810   54.9770 C   0  0  0  0  0  0  0  0  0  0  0  0
  128.6210  128.9690   54.2740 O   0  0  0  0  0  0  0  0  0  0  0  0
  124.2610  132.1960   59.6280 S   0  0  0  0  0  0  0  0  0  0  0  0
  124.4590  131.7880   61.3720 C   0  0  2  0  0  0  0  0  0  0  0  0
  125.7250  132.4870   61.9110 C   0  0  0  0  0  0  0  0  0  0  0  0
  124.5840  129.7690   63.8660 C   0  0  0  0  0  0  0  0  0  0  0  0
  125.1980  129.2350   65.0000 C   0  0  0  0  0  0  0  0  0  0  0  0
  126.3800  128.4930   64.8720 C   0  0  0  0  0  0  0  0  0  0  0  0
  127.6670  127.2230   69.5100 C   0  0  0  0  0  0  0  0  0  0  0  0
  128.5740  127.4660   70.5380 C   0  0  0  0  0  0  0  0  0  0  0  0
  130.1322  128.4726   72.4243 H   0  0  0  0  0  0  0  0  0  0  0  0
  131.4669  127.8903   71.3726 H   0  0  0  0  0  0  0  0  0  0  0  0
  131.0168  129.6293   71.3726 H   0  0  0  0  0  0  0  0  0  0  0  0
  130.6518  129.6498   68.9335 H   0  0  0  0  0  0  0  0  0  0  0  0
  129.0361  129.2067   67.0898 H   0  0  0  0  0  0  0  0  0  0  0  0
  129.2909  127.5401   65.6924 H   0  0  0  0  0  0  0  0  0  0  0  0
  128.2577  126.1754   65.2276 H   0  0  0  0  0  0  0  0  0  0  0  0
  129.1413  128.5276   63.6066 H   0  0  0  0  0  0  0  0  0  0  0  0
  128.5493  126.9888   63.0198 H   0  0  0  0  0  0  0  0  0  0  0  0
  126.8745  128.8517   61.5093 H   0  0  0  0  0  0  0  0  0  0  0  0
  123.4118  129.9339   61.4819 H   0  0  0  0  0  0  0  0  0  0  0  0
  125.1820  131.2620   57.3180 H   0  0  0  0  0  0  0  0  0  0  0  0
  126.5768  128.6674   55.4011 H   0  0  0  0  0  0  0  0  0  0  0  0
  125.6294  130.1898   55.3562 H   0  0  0  0  0  0  0  0  0  0  0  0
  130.9799  133.7587   56.5270 H   0  0  0  0  0  0  0  0  0  0  0  0
  132.9956  133.2462   55.1449 H   0  0  0  0  0  0  0  0  0  0  0  0
  133.0291  131.2278   53.6803 H   0  0  0  0  0  0  0  0  0  0  0  0
  131.0485  129.7089   53.5939 H   0  0  0  0  0  0  0  0  0  0  0  0
  123.6691  132.1432   62.0501 H   0  0  0  0  0  0  0  0  0  0  0  0
  125.7087  132.4780   63.0108 H   0  0  0  0  0  0  0  0  0  0  0  0
  126.6184  131.9543   61.5532 H   0  0  0  0  0  0  0  0  0  0  0  0
  125.7502  133.5269   61.5532 H   0  0  0  0  0  0  0  0  0  0  0  0
  123.6342  130.3144   63.9684 H   0  0  0  0  0  0  0  0  0  0  0  0
  124.7544  129.3964   65.9936 H   0  0  0  0  0  0  0  0  0  0  0  0
  126.8330  126.5237   69.6694 H   0  0  0  0  0  0  0  0  0  0  0  0
  128.4513  126.9654   71.5098 H   0  0  0  0  0  0  0  0  0  0  0  0
  1  2  1  0
  2  3  2  0
  3  4  1  0
  4  5  2  0
  5  6  1  0
  6  7  2  0
  6  8  1  0
  8  9  1  0
  9 10  1  0
 10 11  1  0
 11 12  2  0
 12 13  1  0
 13 14  1  0
 14 15  1  0
 15 16  2  0
 16 17  1  0
 17 18  1  0
 18 19  2  0
 18 20  1  0
 20 21  1  0
 21 22  1  0
 22 23  2  0
 23 24  1  0
 24 25  2  0
 25 26  1  0
 26 27  2  0
 27 28  1  0
 28 29  2  0
 29 30  1  0
 30 31  2  0
 16 32  1  0
 32 33  1  0
 33 34  1  0
 13 35  2  0
 35 36  1  0
 36 37  2  0
  5 38  1  0
 38 39  2  0
 39  2  1  0
 37  8  1  0
 37 11  1  0
 33 14  1  0
 30 21  1  0
 29 24  1  0
  1 40  1  0
  1 41  1  0
  1 42  1  0
  3 43  1  0
  4 44  1  0
  9 45  1  0
  9 46  1  0
 10 47  1  0
 10 48  1  0
 12 49  1  0
 14 50  1  1
 17 51  1  0
 20 52  1  0
 20 53  1  0
 25 54  1  0
 26 55  1  0
 27 56  1  0
 28 57  1  0
 33 58  1  1
 34 59  1  0
 34 60  1  0
 34 61  1  0
 35 62  1  0
 36 63  1  0
 38 64  1  0
 39 65  1  0
M  END
>  <Binding energies>  (1) 
[-10.48]

>  <Ligand effiencies>  (1) 
[-0.262]

>  <Interactions>  (1) 
["H-B:TYR:531:OH:9763, V-B:GLU:543:C:9870, V-A:HIS:456:CE1:4064, V-B:GLU:543:CD:9876, V-B:GLU:543:CG:9875, V-B:GLU:543:CB:9874, V-A:TYR:539:CZ:4872, V-A:LEU:363:CD1:3184, V-A:PRO:540:N:4879, V-A:TYR:539:CE1:4870, V-A:PRO:540:CD:4882, V-A:ILE:538:CA:4855, V-A:GLU:543:CB:4901, V-B:ARG:545:CG:9890, V-B:HIS:456:CE1:9037, V-A:ILE:538:CG2:4858, V-B:ARG:545:CZ:9894, V-A:ILE:538:CD1:4860, V-A:MET:535:CG:4828, V-A:GLU:543:C:4897, H-B:ARG:545:NE:9892, V-B:ASP:366:CG:8180, H-A:TYR:539:OH:4873, V-A:GLY:544:C:4907, V-B:ILE:369:CD1:8206"]

$$$$
RR24_Rahimova_2017
     RDKit          3D

 65 71  0  0  0  0  0  0  0  0999 V2000
  129.6360  133.2000   54.7500 C   0  0  0  0  0  0  0  0  0  0  0  0
  129.7320  131.7050   55.0890 C   0  0  2  0  0  0  0  0  0  0  0  0
  128.3420  131.0220   55.2530 C   0  0  0  0  0  0  0  0  0  0  0  0
  127.5220  131.3980   56.0970 O   0  0  0  0  0  0  0  0  0  0  0  0
  128.1690  129.9760   54.3930 O   0  0  0  0  0  0  0  0  0  0  0  0
  128.2080  128.6870   54.8740 C   0  0  0  0  0  0  0  0  0  0  0  0
  127.7260  128.4200   56.1570 C   0  0  0  0  0  0  0  0  0  0  0  0
  127.7510  127.1190   56.6500 C   0  0  0  0  0  0  0  0  0  0  0  0
  128.2510  126.0790   55.8620 C   0  0  0  0  0  0  0  0  0  0  0  0
  128.2950  124.6510   56.4190 C   0  0  1  0  0  0  0  0  0  0  0  0
  129.7050  124.2730   56.9320 C   0  0  0  0  0  0  0  0  0  0  0  0
  129.9190  123.7560   58.1550 C   0  0  0  0  0  0  0  0  0  0  0  0
  128.8970  123.5250   59.0430 N   0  0  0  0  0  0  0  0  0  0  0  0
  127.5920  123.8160   58.7210 C   0  0  0  0  0  0  0  0  0  0  0  0
  126.7030  123.5200   59.7030 N   0  0  0  0  0  0  0  0  0  0  0  0
  125.3770  123.8110   59.5960 C   0  0  0  0  0  0  0  0  0  0  0  0
  124.6790  123.8220   60.6120 O   0  0  0  0  0  0  0  0  0  0  0  0
  124.9920  124.2360   58.3340 N   0  0  0  0  0  0  0  0  0  0  0  0
  123.5470  124.4780   58.1390 C   0  0  0  0  0  0  0  0  0  0  0  0
  125.8100  124.5670   57.2680 C   0  0  0  0  0  0  0  0  0  0  0  0
  125.3980  124.9900   56.1830 O   0  0  0  0  0  0  0  0  0  0  0  0
  127.2380  124.3480   57.5220 C   0  0  0  0  0  0  0  0  0  0  0  0
  131.3340  123.5000   58.3670 C   0  0  0  0  0  0  0  0  0  0  0  0
  132.0570  122.9840   59.4440 C   0  0  0  0  0  0  0  0  0  0  0  0
  133.4440  122.8590   59.3370 C   0  0  0  0  0  0  0  0  0  0  0  0
  134.0970  123.2450   58.1620 C   0  0  0  0  0  0  0  0  0  0  0  0
  133.3680  123.7600   57.0870 C   0  0  0  0  0  0  0  0  0  0  0  0
  131.9820  123.8840   57.2010 C   0  0  0  0  0  0  0  0  0  0  0  0
  130.9810  124.3860   56.2350 C   0  0  0  0  0  0  0  0  0  0  0  0
  131.1360  124.8120   55.0920 O   0  0  0  0  0  0  0  0  0  0  0  0
  128.7170  126.3460   54.5700 C   0  0  0  0  0  0  0  0  0  0  0  0
  128.6900  127.6470   54.0750 C   0  0  0  0  0  0  0  0  0  0  0  0
  130.6310  131.4510   56.2540 N   0  0  0  0  0  0  0  0  0  0  0  0
  130.2290  131.7010   57.5320 C   0  0  0  0  0  0  0  0  0  0  0  0
  129.1430  132.1530   57.9000 O   0  0  0  0  0  0  0  0  0  0  0  0
  131.3780  131.3160   58.3890 C   0  0  0  0  0  0  0  0  0  0  0  0
  131.5380  131.3570   59.7750 C   0  0  0  0  0  0  0  0  0  0  0  0
  132.7500  130.9210   60.3220 C   0  0  0  0  0  0  0  0  0  0  0  0
  133.7730  130.4530   59.4880 C   0  0  0  0  0  0  0  0  0  0  0  0
  133.5930  130.4180   58.1010 C   0  0  0  0  0  0  0  0  0  0  0  0
  132.3780  130.8590   57.5740 C   0  0  0  0  0  0  0  0  0  0  0  0
  131.8970  130.9400   56.1730 C   0  0  0  0  0  0  0  0  0  0  0  0
  132.5070  130.6110   55.1550 O   0  0  0  0  0  0  0  0  0  0  0  0
  129.5984  133.7853   55.6806 H   0  0  0  0  0  0  0  0  0  0  0  0
  130.5167  133.5002   54.1633 H   0  0  0  0  0  0  0  0  0  0  0  0
  128.7241  133.3851   54.1633 H   0  0  0  0  0  0  0  0  0  0  0  0
  130.1963  131.2253   54.2147 H   0  0  0  0  0  0  0  0  0  0  0  0
  127.3273  129.2366   56.7768 H   0  0  0  0  0  0  0  0  0  0  0  0
  127.3762  126.9087   57.6626 H   0  0  0  0  0  0  0  0  0  0  0  0
  128.0346  124.0221   55.5549 H   0  0  0  0  0  0  0  0  0  0  0  0
  129.1040  123.1310   59.9500 H   0  0  0  0  0  0  0  0  0  0  0  0
  127.0070  123.0940   60.5660 H   0  0  0  0  0  0  0  0  0  0  0  0
  123.0536  124.5606   59.1187 H   0  0  0  0  0  0  0  0  0  0  0  0
  123.4044  125.4125   57.5766 H   0  0  0  0  0  0  0  0  0  0  0  0
  123.1077  123.6409   57.5766 H   0  0  0  0  0  0  0  0  0  0  0  0
  131.5404  122.6794   60.3661 H   0  0  0  0  0  0  0  0  0  0  0  0
  134.0247  122.4556   60.1797 H   0  0  0  0  0  0  0  0  0  0  0  0
  135.1894  123.1427   58.0838 H   0  0  0  0  0  0  0  0  0  0  0  0
  133.8799  124.0641   56.1621 H   0  0  0  0  0  0  0  0  0  0  0  0
  129.1048  125.5279   53.9453 H   0  0  0  0  0  0  0  0  0  0  0  0
  129.0477  127.8559   53.0560 H   0  0  0  0  0  0  0  0  0  0  0  0
  130.7288  131.7241   60.4234 H   0  0  0  0  0  0  0  0  0  0  0  0
  132.8998  130.9460   61.4115 H   0  0  0  0  0  0  0  0  0  0  0  0
  134.7226  130.1113   59.9255 H   0  0  0  0  0  0  0  0  0  0  0  0
  134.3919  130.0508   57.4399 H   0  0  0  0  0  0  0  0  0  0  0  0
  1  2  1  0
  2  3  1  0
  3  4  2  0
  3  5  1  0
  5  6  1  0
  6  7  2  0
  7  8  1  0
  8  9  2  0
  9 10  1  0
 10 11  1  0
 11 12  2  0
 12 13  1  0
 13 14  1  0
 14 15  1  0
 15 16  1  0
 16 17  2  0
 16 18  1  0
 18 19  1  0
 18 20  1  0
 20 21  2  0
 20 22  1  0
 12 23  1  0
 23 24  2  0
 24 25  1  0
 25 26  2  0
 26 27  1  0
 27 28  2  0
 28 29  1  0
 29 30  2  0
  9 31  1  0
 31 32  2  0
  2 33  1  0
 33 34  1  0
 34 35  2  0
 34 36  1  0
 36 37  2  0
 37 38  1  0
 38 39  2  0
 39 40  1  0
 40 41  2  0
 41 42  1  0
 42 43  2  0
 32  6  1  0
 42 33  1  0
 22 10  1  0
 28 23  1  0
 41 36  1  0
 29 11  1  0
 22 14  2  0
  1 44  1  0
  1 45  1  0
  1 46  1  0
  2 47  1  6
  7 48  1  0
  8 49  1  0
 10 50  1  6
 13 51  1  0
 15 52  1  0
 19 53  1  0
 19 54  1  0
 19 55  1  0
 24 56  1  0
 25 57  1  0
 26 58  1  0
 27 59  1  0
 31 60  1  0
 32 61  1  0
 37 62  1  0
 38 63  1  0
 39 64  1  0
 40 65  1  0
M  END
>  <Binding energies>  (1) 
[-11.48]

>  <Ligand effiencies>  (1) 
[-0.2551111111111111]

>  <Interactions>  (1) 
["H-B:TYR:531:OH:9763, V-B:TYR:539:CE2:9844, V-B:MET:535:CE:9803, V-B:PRO:540:CA:9851, V-B:PRO:540:CB:9853, V-B:TYR:539:CZ:9845, V-A:ASP:366:CG:3208, H-B:GLU:543:OE2:9878, V-A:LEU:363:CD1:3184, V-A:LEU:363:CA:3180, V-A:TYR:539:CE1:4870, V-A:ASN:362:C:3167, V-A:TYR:539:CD1:4868, V-A:ASP:366:CB:3207, V-A:PRO:540:CA:4878, V-A:LEU:363:CB:3182, H-A:TYR:531:OH:4790, V-A:ILE:538:CA:4855, V-A:TYR:531:CE2:4788, V-A:PRO:540:CB:4880, V-A:ILE:369:CG2:3232, V-A:ILE:369:CD1:3234, V-B:LEU:363:CA:8152, H-A:LYS:534:NZ:4818, V-B:LEU:363:CD1:8156, V-A:TYR:531:CE1:4787, V-A:TYR:531:CZ:4789, V-A:ILE:538:C:4853, V-A:VAL:537:C:4845, V-A:MET:535:CG:4828, V-A:ASP:366:C:3203, V-B:ASP:366:CG:8180, V-B:ASP:366:CB:8179, H-A:TYR:539:OH:4873, V-B:LEU:363:CB:8154, V-A:ILE:369:CB:3231, H-B:TYR:539:OH:9846, V-A:ASP:366:CA:3205, V-A:ILE:369:CG1:3233"]

$$$$
RR24_Rahimova_2017-again1
     RDKit          3D

 63 69  0  0  0  0  0  0  0  0999 V2000
  129.8460  133.2140   55.0740 C   0  0  0  0  0  0  0  0  0  0  0  0
  129.7770  131.7400   55.4950 C   0  0  2  0  0  0  0  0  0  0  0  0
  128.3260  131.2400   55.7560 C   0  0  0  0  0  0  0  0  0  0  0  0
  127.6490  131.6580   56.7030 O   0  0  0  0  0  0  0  0  0  0  0  0
  127.9240  130.2960   54.8540 O   0  0  0  0  0  0  0  0  0  0  0  0
  127.9860  128.9640   55.1900 C   0  0  0  0  0  0  0  0  0  0  0  0
  128.9900  128.1620   54.6440 C   0  0  0  0  0  0  0  0  0  0  0  0
  129.0720  126.8180   54.9940 C   0  0  0  0  0  0  0  0  0  0  0  0
  128.1560  126.2690   55.8980 C   0  0  0  0  0  0  0  0  0  0  0  0
  128.2430  124.7870   56.2870 C   0  0  1  0  0  0  0  0  0  0  0  0
  129.6770  124.4010   56.7180 C   0  0  0  0  0  0  0  0  0  0  0  0
  130.8510  124.3740   56.0470 C   0  0  0  0  0  0  0  0  0  0  0  0
  130.9940  124.6590   54.7980 O   0  0  0  0  0  0  0  0  0  0  0  0
  131.9410  124.0020   56.9480 C   0  0  0  0  0  0  0  0  0  0  0  0
  133.3190  123.8480   56.7510 C   0  0  0  0  0  0  0  0  0  0  0  0
  134.1330  123.4830   57.8250 C   0  0  0  0  0  0  0  0  0  0  0  0
  133.5730  123.2720   59.0860 C   0  0  0  0  0  0  0  0  0  0  0  0
  132.1990  123.4240   59.2780 C   0  0  0  0  0  0  0  0  0  0  0  0
  131.3870  123.7930   58.2030 C   0  0  0  0  0  0  0  0  0  0  0  0
  129.9550  124.0080   58.0890 C   0  0  0  0  0  0  0  0  0  0  0  0
  129.0330  123.8880   58.9690 N   0  0  0  0  0  0  0  0  0  0  0  0
  127.7150  124.0140   58.6450 C   0  0  0  0  0  0  0  0  0  0  0  0
  126.8780  123.6920   59.6750 N   0  0  0  0  0  0  0  0  0  0  0  0
  125.6070  123.7860   59.5060 C   0  0  0  0  0  0  0  0  0  0  0  0
  124.9440  123.4730   60.5090 O   0  0  0  0  0  0  0  0  0  0  0  0
  125.0420  124.1980   58.2990 N   0  0  0  0  0  0  0  0  0  0  0  0
  123.5820  124.3170   58.0750 C   0  0  0  0  0  0  0  0  0  0  0  0
  125.8100  124.5260   57.1990 C   0  0  0  0  0  0  0  0  0  0  0  0
  125.3510  124.8720   56.1060 O   0  0  0  0  0  0  0  0  0  0  0  0
  127.2560  124.4240   57.4220 C   0  0  0  0  0  0  0  0  0  0  0  0
  127.1600  127.0780   56.4530 C   0  0  0  0  0  0  0  0  0  0  0  0
  127.0790  128.4230   56.1050 C   0  0  0  0  0  0  0  0  0  0  0  0
  130.6930  131.4400   56.6350 N   0  0  0  0  0  0  0  0  0  0  0  0
  130.3550  131.7420   57.9200 C   0  0  0  0  0  0  0  0  0  0  0  0
  129.3180  132.2760   58.3160 O   0  0  0  0  0  0  0  0  0  0  0  0
  131.5040  131.2930   58.7460 C   0  0  0  0  0  0  0  0  0  0  0  0
  131.7180  131.3520   60.1240 C   0  0  0  0  0  0  0  0  0  0  0  0
  132.9160  130.8440   60.6380 C   0  0  0  0  0  0  0  0  0  0  0  0
  133.8740  130.2880   59.7800 C   0  0  0  0  0  0  0  0  0  0  0  0
  133.6410  130.2380   58.4010 C   0  0  0  0  0  0  0  0  0  0  0  0
  132.4400  130.7520   57.9080 C   0  0  0  0  0  0  0  0  0  0  0  0
  131.9150  130.8370   56.5220 C   0  0  0  0  0  0  0  0  0  0  0  0
  132.4640  130.4450   55.4910 O   0  0  0  0  0  0  0  0  0  0  0  0
  129.8758  133.8504   55.9707 H   0  0  0  0  0  0  0  0  0  0  0  0
  130.7530  133.3821   54.4748 H   0  0  0  0  0  0  0  0  0  0  0  0
  128.9587  133.4661   54.4748 H   0  0  0  0  0  0  0  0  0  0  0  0
  130.1370  131.1630   54.6304 H   0  0  0  0  0  0  0  0  0  0  0  0
  129.7154  128.5923   53.9379 H   0  0  0  0  0  0  0  0  0  0  0  0
  129.8593  126.1851   54.5587 H   0  0  0  0  0  0  0  0  0  0  0  0
  127.9672  124.2165   55.3879 H   0  0  0  0  0  0  0  0  0  0  0  0
  133.7575  124.0137   55.7559 H   0  0  0  0  0  0  0  0  0  0  0  0
  135.2163  123.3616   57.6773 H   0  0  0  0  0  0  0  0  0  0  0  0
  134.2164  122.9851   59.9308 H   0  0  0  0  0  0  0  0  0  0  0  0
  131.7576  123.2540   60.2711 H   0  0  0  0  0  0  0  0  0  0  0  0
  123.0645  124.3592   59.0447 H   0  0  0  0  0  0  0  0  0  0  0  0
  123.3718  125.2353   57.5070 H   0  0  0  0  0  0  0  0  0  0  0  0
  123.2259  123.4449   57.5070 H   0  0  0  0  0  0  0  0  0  0  0  0
  126.4393  126.6508   57.1658 H   0  0  0  0  0  0  0  0  0  0  0  0
  126.3009  129.0603   56.5503 H   0  0  0  0  0  0  0  0  0  0  0  0
  130.9608  131.7887   60.7918 H   0  0  0  0  0  0  0  0  0  0  0  0
  133.1066  130.8813   61.7207 H   0  0  0  0  0  0  0  0  0  0  0  0
  134.8128  129.8893   60.1919 H   0  0  0  0  0  0  0  0  0  0  0  0
  134.3877  129.8032   57.7203 H   0  0  0  0  0  0  0  0  0  0  0  0
  1  2  1  0
  2  3  1  0
  3  4  2  0
  3  5  1  0
  5  6  1  0
  6  7  2  0
  7  8  1  0
  8  9  2  0
  9 10  1  0
 10 11  1  0
 11 12  2  0
 12 13  1  0
 12 14  1  0
 14 15  2  0
 15 16  1  0
 16 17  2  0
 17 18  1  0
 18 19  2  0
 19 20  1  0
 20 21  2  0
 21 22  1  0
 22 23  1  0
 23 24  2  0
 24 25  1  0
 24 26  1  0
 26 27  1  0
 26 28  1  0
 28 29  2  0
 28 30  1  0
  9 31  1  0
 31 32  2  0
  2 33  1  0
 33 34  1  0
 34 35  2  0
 34 36  1  0
 36 37  2  0
 37 38  1  0
 38 39  2  0
 39 40  1  0
 40 41  2  0
 41 42  1  0
 42 43  2  0
 32  6  1  0
 42 33  1  0
 30 10  1  0
 41 36  1  0
 20 11  1  0
 30 22  2  0
 19 14  1  0
  1 44  1  0
  1 45  1  0
  1 46  1  0
  2 47  1  6
  7 48  1  0
  8 49  1  0
 10 50  1  6
 15 51  1  0
 16 52  1  0
 17 53  1  0
 18 54  1  0
 27 55  1  0
 27 56  1  0
 27 57  1  0
 31 58  1  0
 32 59  1  0
 37 60  1  0
 38 61  1  0
 39 62  1  0
 40 63  1  0
M  CHG  2  13  -1  25  -1
M  END
>  <Binding energies>  (1) 
[-10.41]

>  <Ligand effiencies>  (1) 
[-0.24209302325581394]

>  <Interactions>  (1) 
["H-B:TYR:531:OH:9763, V-B:TYR:539:CE2:9844, V-B:MET:535:CE:9803, V-B:PRO:540:CA:9851, V-B:PRO:540:CB:9853, V-B:TYR:539:CZ:9845, V-A:ASP:366:CG:3208, V-A:TYR:539:CZ:4872, V-A:LEU:363:CD1:3184, V-A:LEU:363:CA:3180, V-A:TYR:539:CE1:4870, V-A:ASN:362:C:3167, V-A:TYR:539:CD1:4868, V-A:ASP:366:CB:3207, V-A:PRO:540:CA:4878, H-A:TYR:531:OH:4790, V-A:ILE:538:CA:4855, V-A:TYR:531:CE2:4788, V-A:PRO:540:CB:4880, V-A:ILE:369:CG2:3232, V-A:ILE:369:CD1:3234, V-B:LEU:363:CA:8152, H-A:LYS:534:NZ:4818, V-B:LEU:363:CD1:8156, V-A:TYR:531:CE1:4787, V-A:TYR:531:CZ:4789, V-A:ILE:538:C:4853, V-A:MET:535:CG:4828, V-A:ASN:370:CB:3240, V-A:ASP:366:C:3203, V-B:ASP:366:CG:8180, V-B:ASP:366:CB:8179, H-A:TYR:539:OH:4873, V-B:LEU:363:CB:8154, V-A:ILE:369:CB:3231, H-B:TYR:539:OH:9846, V-A:ASP:366:CA:3205, V-B:LEU:363:CG:8155"]

$$$$
RR25_Rahimova_2017
     RDKit          3D

 63 68  0  0  0  0  0  0  0  0999 V2000
  133.8690  125.4340   66.4450 O   0  0  0  0  0  0  0  0  0  0  0  0
  132.7530  125.7060   66.0000 C   0  0  0  0  0  0  0  0  0  0  0  0
  131.7490  125.8470   66.9260 O   0  0  0  0  0  0  0  0  0  0  0  0
  130.5240  126.3910   66.5840 C   0  0  0  0  0  0  0  0  0  0  0  0
  129.8000  126.9980   67.6090 C   0  0  0  0  0  0  0  0  0  0  0  0
  128.5540  127.5590   67.3370 C   0  0  0  0  0  0  0  0  0  0  0  0
  128.0130  127.5170   66.0430 C   0  0  0  0  0  0  0  0  0  0  0  0
  126.6890  128.1220   65.7550 N   0  0  0  0  0  0  0  0  0  0  0  0
  125.7590  127.8930   66.5230 O   0  0  0  0  0  0  0  0  0  0  0  0
  126.5710  128.8290   64.7580 O   0  0  0  0  0  0  0  0  0  0  0  0
  128.7530  126.8890   65.0280 C   0  0  0  0  0  0  0  0  0  0  0  0
  130.0010  126.3150   65.2860 C   0  0  0  0  0  0  0  0  0  0  0  0
  130.8430  125.6350   64.2210 C   0  0  0  0  0  0  0  0  0  0  0  0
  132.3510  125.8870   64.5080 C   0  0  2  0  0  0  0  0  0  0  0  0
  133.2500  125.1220   63.4920 C   0  0  0  0  0  0  0  0  0  0  0  0
  134.2830  124.6250   63.9500 O   0  0  0  0  0  0  0  0  0  0  0  0
  132.8620  124.9010   62.2000 N   0  0  0  0  0  0  0  0  0  0  0  0
  131.8240  125.7100   61.5260 C   0  0  0  0  0  0  0  0  0  0  0  0
  130.9980  124.7940   60.5990 C   0  0  0  0  0  0  0  0  0  0  0  0
  131.8560  124.0710   59.6570 N   0  0  0  0  0  0  0  0  0  0  0  0
  131.0630  123.3010   58.6880 C   0  0  0  0  0  0  0  0  0  0  0  0
  130.0660  122.3250   59.3670 C   0  0  0  0  0  0  0  0  0  0  0  0
  128.6380  122.7590   59.3920 N   0  0  0  0  0  0  0  0  0  0  0  0
  128.0870  123.0430   58.1610 C   0  0  0  0  0  0  0  0  0  0  0  0
  128.7250  122.9840   57.1040 O   0  0  0  0  0  0  0  0  0  0  0  0
  126.6180  123.4190   58.1980 C   0  0  0  0  0  0  0  0  0  0  0  0
  125.9500  123.7030   57.0000 C   0  0  0  0  0  0  0  0  0  0  0  0
  124.5990  124.0440   56.9970 C   0  0  0  0  0  0  0  0  0  0  0  0
  123.8730  124.1080   58.1850 C   0  0  0  0  0  0  0  0  0  0  0  0
  124.5060  123.8300   59.4200 C   0  0  0  0  0  0  0  0  0  0  0  0
  123.8290  123.8760   60.6620 C   0  0  0  0  0  0  0  0  0  0  0  0
  124.5120  123.5870   61.8420 C   0  0  0  0  0  0  0  0  0  0  0  0
  125.8640  123.2510   61.8230 C   0  0  0  0  0  0  0  0  0  0  0  0
  126.5750  123.1930   60.6170 C   0  0  0  0  0  0  0  0  0  0  0  0
  125.8860  123.4850   59.4110 C   0  0  0  0  0  0  0  0  0  0  0  0
  128.0440  122.8150   60.6370 C   0  0  0  0  0  0  0  0  0  0  0  0
  128.6420  122.5650   61.6880 O   0  0  0  0  0  0  0  0  0  0  0  0
  132.7900  123.2160   60.3920 C   0  0  0  0  0  0  0  0  0  0  0  0
  133.7000  124.0400   61.3340 C   0  0  0  0  0  0  0  0  0  0  0  0
  130.2109  127.0339   68.6287 H   0  0  0  0  0  0  0  0  0  0  0  0
  127.9871  128.0410   68.1471 H   0  0  0  0  0  0  0  0  0  0  0  0
  128.3418  126.8480   64.0086 H   0  0  0  0  0  0  0  0  0  0  0  0
  130.6440  124.5532   64.2325 H   0  0  0  0  0  0  0  0  0  0  0  0
  130.5854  126.0464   63.2339 H   0  0  0  0  0  0  0  0  0  0  0  0
  132.5371  126.9577   64.3380 H   0  0  0  0  0  0  0  0  0  0  0  0
  131.1637  126.1647   62.2792 H   0  0  0  0  0  0  0  0  0  0  0  0
  132.2989  126.5068   60.9348 H   0  0  0  0  0  0  0  0  0  0  0  0
  130.4481  124.0658   61.2133 H   0  0  0  0  0  0  0  0  0  0  0  0
  130.3036  125.4222   60.0218 H   0  0  0  0  0  0  0  0  0  0  0  0
  130.4948  124.0041   58.0612 H   0  0  0  0  0  0  0  0  0  0  0  0
  131.7635  122.6973   58.0922 H   0  0  0  0  0  0  0  0  0  0  0  0
  130.1166  121.3657   58.8310 H   0  0  0  0  0  0  0  0  0  0  0  0
  130.3771  122.2697   60.4207 H   0  0  0  0  0  0  0  0  0  0  0  0
  126.4996  123.6562   56.0483 H   0  0  0  0  0  0  0  0  0  0  0  0
  124.0981  124.2659   56.0431 H   0  0  0  0  0  0  0  0  0  0  0  0
  122.8061  124.3750   58.1627 H   0  0  0  0  0  0  0  0  0  0  0  0
  122.7618  124.1403   60.6961 H   0  0  0  0  0  0  0  0  0  0  0  0
  123.9761  123.6247   62.8019 H   0  0  0  0  0  0  0  0  0  0  0  0
  126.3806  123.0281   62.7682 H   0  0  0  0  0  0  0  0  0  0  0  0
  132.2161  122.4944   60.9920 H   0  0  0  0  0  0  0  0  0  0  0  0
  133.4303  122.7001   59.6613 H   0  0  0  0  0  0  0  0  0  0  0  0
  134.2939  123.3576   61.9598 H   0  0  0  0  0  0  0  0  0  0  0  0
  134.3752  124.6685   60.7348 H   0  0  0  0  0  0  0  0  0  0  0  0
  1  2  2  0
  2  3  1  0
  3  4  1  0
  4  5  2  0
  5  6  1  0
  6  7  2  0
  7  8  1  0
  8  9  2  0
  8 10  1  0
  7 11  1  0
 11 12  2  0
 12 13  1  0
 13 14  1  0
 14 15  1  0
 15 16  2  0
 15 17  1  0
 17 18  1  0
 18 19  1  0
 19 20  1  0
 20 21  1  0
 21 22  1  0
 22 23  1  0
 23 24  1  0
 24 25  2  0
 24 26  1  0
 26 27  2  0
 27 28  1  0
 28 29  2  0
 29 30  1  0
 30 31  2  0
 31 32  1  0
 32 33  2  0
 33 34  1  0
 34 35  2  0
 34 36  1  0
 36 37  2  0
 20 38  1  0
 38 39  1  0
 14  2  1  0
 39 17  1  0
 12  4  1  0
 36 23  1  0
 35 26  1  0
 35 30  1  0
  5 40  1  0
  6 41  1  0
 11 42  1  0
 13 43  1  0
 13 44  1  0
 14 45  1  6
 18 46  1  0
 18 47  1  0
 19 48  1  0
 19 49  1  0
 21 50  1  0
 21 51  1  0
 22 52  1  0
 22 53  1  0
 27 54  1  0
 28 55  1  0
 29 56  1  0
 31 57  1  0
 32 58  1  0
 33 59  1  0
 38 60  1  0
 38 61  1  0
 39 62  1  0
 39 63  1  0
M  CHG  2   8   1  10  -1
M  END
>  <Binding energies>  (1) 
[-10.9]

>  <Ligand effiencies>  (1) 
[-0.2794871794871795]

>  <Interactions>  (1) 
["V-B:TYR:539:CE2:9844, V-B:MET:535:CE:9803, V-B:PRO:540:CA:9851, V-B:TYR:539:CD2:9842, V-B:ALA:541:CA:9858, V-B:PRO:540:N:9852, V-B:PRO:540:CB:9853, V-B:PRO:540:C:9849, V-B:TYR:539:C:9835, V-A:HIS:456:CE1:4064, V-A:ASP:366:CG:3208, H-A:ARG:545:NE:4919, H-A:TYR:484:OH:4343, H-A:GLY:454:N:4045, V-B:GLU:543:CD:9876, V-B:GLU:543:CG:9875, V-A:ARG:545:CZ:4921, H-A:HIS:456:NE2:4065, V-B:GLU:543:CB:9874, V-B:ASN:362:CB:8143, H-B:ALA:541:N:9859, V-A:ARG:545:CD:4918, V-A:ARG:545:CG:4917, V-B:HIS:456:CE1:9037, V-A:ILE:369:CD1:3234, V-B:LEU:363:CA:8152, V-B:LEU:363:CD1:8156, H-B:ARG:545:NE:9892, V-B:ASP:366:CG:8180, V-B:LEU:363:CB:8154, V-B:TYR:531:CE2:9761, H-A:ARG:545:NH1:4922, V-B:ASN:362:C:8139"]

$$$$
RR26_Rahimova_2017
     RDKit          3D

 59 65  0  0  0  0  0  0  0  0999 V2000
  126.1230  130.1170   75.0450 C   0  0  0  0  0  0  0  0  0  0  0  0
  127.3570  130.9670   75.3210 C   0  0  0  0  0  0  0  0  0  0  0  0
  127.3780  131.7460   76.4820 C   0  0  0  0  0  0  0  0  0  0  0  0
  128.4970  132.5120   76.8050 C   0  0  0  0  0  0  0  0  0  0  0  0
  129.6100  132.4980   75.9710 C   0  0  0  0  0  0  0  0  0  0  0  0
  129.6010  131.7260   74.8110 C   0  0  0  0  0  0  0  0  0  0  0  0
  128.4810  130.9560   74.4650 C   0  0  0  0  0  0  0  0  0  0  0  0
  128.5480  130.1640   73.1910 C   0  0  0  0  0  0  0  0  0  0  0  0
  129.4020  130.4590   72.2140 N   0  0  0  0  0  0  0  0  0  0  0  0
  129.1330  129.5350   71.3320 C   0  0  0  0  0  0  0  0  0  0  0  0
  129.7140  129.1170   69.7630 S   0  0  0  0  0  0  0  0  0  0  0  0
  128.5530  127.7370   69.7260 C   0  0  0  0  0  0  0  0  0  0  0  0
  128.3670  126.8380   68.7340 C   0  0  0  0  0  0  0  0  0  0  0  0
  129.0580  126.7570   67.4570 C   0  0  0  0  0  0  0  0  0  0  0  0
  130.2430  126.0980   67.1650 C   0  0  0  0  0  0  0  0  0  0  0  0
  130.4940  126.2550   65.8260 N   0  0  0  0  0  0  0  0  0  0  0  0
  131.5870  125.7530   65.0730 C   0  0  0  0  0  0  0  0  0  0  0  0
  131.3970  125.2580   63.7740 C   0  0  0  0  0  0  0  0  0  0  0  0
  132.4780  124.7650   63.0470 C   0  0  0  0  0  0  0  0  0  0  0  0
  133.7500  124.7690   63.6140 C   0  0  0  0  0  0  0  0  0  0  0  0
  133.9520  125.2610   64.9010 C   0  0  0  0  0  0  0  0  0  0  0  0
  132.8740  125.7520   65.6310 C   0  0  0  0  0  0  0  0  0  0  0  0
  129.5090  126.9590   65.2470 N   0  0  0  0  0  0  0  0  0  0  0  0
  128.6550  127.2670   66.2030 C   0  0  0  0  0  0  0  0  0  0  0  0
  127.4320  128.0700   65.8800 C   0  0  0  0  0  0  0  0  0  0  0  0
  126.2420  127.8700   66.5950 C   0  0  0  0  0  0  0  0  0  0  0  0
  125.0960  128.6110   66.2980 C   0  0  0  0  0  0  0  0  0  0  0  0
  125.1330  129.5610   65.2800 C   0  0  0  0  0  0  0  0  0  0  0  0
  126.3230  129.7840   64.5710 C   0  0  0  0  0  0  0  0  0  0  0  0
  127.4630  129.0380   64.8640 C   0  0  0  0  0  0  0  0  0  0  0  0
  126.3940  130.6830   63.5250 O   0  0  0  0  0  0  0  0  0  0  0  0
  125.3410  131.6520   63.5140 C   0  0  0  0  0  0  0  0  0  0  0  0
  123.9760  130.9760   63.7880 C   0  0  0  0  0  0  0  0  0  0  0  0
  123.9930  130.3050   65.0530 O   0  0  0  0  0  0  0  0  0  0  0  0
  127.7480  127.6570   70.9410 C   0  0  0  0  0  0  0  0  0  0  0  0
  126.8670  126.8480   71.2380 O   0  0  0  0  0  0  0  0  0  0  0  0
  128.1610  128.7130   71.7670 N   0  0  0  0  0  0  0  0  0  0  0  0
  127.7740  129.1100   72.9830 N   0  0  0  0  0  0  0  0  0  0  0  0
  125.6713  129.8059   75.9985 H   0  0  0  0  0  0  0  0  0  0  0  0
  125.3939  130.7054   74.4686 H   0  0  0  0  0  0  0  0  0  0  0  0
  126.4129  129.2261   74.4686 H   0  0  0  0  0  0  0  0  0  0  0  0
  126.5022  131.7545   77.1475 H   0  0  0  0  0  0  0  0  0  0  0  0
  128.4998  133.1262   77.7175 H   0  0  0  0  0  0  0  0  0  0  0  0
  130.4970  133.0961   76.2270 H   0  0  0  0  0  0  0  0  0  0  0  0
  130.4854  131.7204   74.1570 H   0  0  0  0  0  0  0  0  0  0  0  0
  127.5977  126.0729   68.9150 H   0  0  0  0  0  0  0  0  0  0  0  0
  130.8705  125.5469   67.8809 H   0  0  0  0  0  0  0  0  0  0  0  0
  130.3913  125.2593   63.3284 H   0  0  0  0  0  0  0  0  0  0  0  0
  132.3277  124.3743   62.0298 H   0  0  0  0  0  0  0  0  0  0  0  0
  134.6035  124.3797   63.0396 H   0  0  0  0  0  0  0  0  0  0  0  0
  134.9609  125.2615   65.3393 H   0  0  0  0  0  0  0  0  0  0  0  0
  133.0314  126.1403   66.6481 H   0  0  0  0  0  0  0  0  0  0  0  0
  126.2110  127.1204   67.3995 H   0  0  0  0  0  0  0  0  0  0  0  0
  124.1684  128.4451   66.8654 H   0  0  0  0  0  0  0  0  0  0  0  0
  128.3902  129.2083   64.2972 H   0  0  0  0  0  0  0  0  0  0  0  0
  125.5343  132.4048   64.2924 H   0  0  0  0  0  0  0  0  0  0  0  0
  125.3081  132.1289   62.5233 H   0  0  0  0  0  0  0  0  0  0  0  0
  123.1874  131.7429   63.7957 H   0  0  0  0  0  0  0  0  0  0  0  0
  123.7796  130.2377   62.9966 H   0  0  0  0  0  0  0  0  0  0  0  0
  1  2  1  0
  2  3  2  0
  3  4  1  0
  4  5  2  0
  5  6  1  0
  6  7  2  0
  7  8  1  0
  8  9  1  0
  9 10  2  0
 10 11  1  0
 11 12  1  0
 12 13  2  0
 13 14  1  0
 14 15  2  0
 15 16  1  0
 16 17  1  0
 17 18  2  0
 18 19  1  0
 19 20  2  0
 20 21  1  0
 21 22  2  0
 16 23  1  0
 23 24  2  0
 24 25  1  0
 25 26  2  0
 26 27  1  0
 27 28  2  0
 28 29  1  0
 29 30  2  0
 29 31  1  0
 31 32  1  0
 32 33  1  0
 33 34  1  0
 12 35  1  0
 35 36  2  0
 35 37  1  0
 37 38  1  0
  7  2  1  0
 38  8  2  0
 37 10  1  0
 24 14  1  0
 30 25  1  0
 22 17  1  0
 34 28  1  0
  1 39  1  0
  1 40  1  0
  1 41  1  0
  3 42  1  0
  4 43  1  0
  5 44  1  0
  6 45  1  0
 13 46  1  0
 15 47  1  0
 18 48  1  0
 19 49  1  0
 20 50  1  0
 21 51  1  0
 22 52  1  0
 26 53  1  0
 27 54  1  0
 30 55  1  0
 32 56  1  0
 32 57  1  0
 33 58  1  0
 33 59  1  0
M  END
>  <Binding energies>  (1) 
[-9.15]

>  <Ligand effiencies>  (1) 
[-0.24078947368421053]

>  <Interactions>  (1) 
["V-B:GLU:543:C:9870, V-A:HIS:456:CE1:4064, V-B:GLU:543:CD:9876, V-A:ARG:545:CZ:4921, V-B:GLU:543:CB:9874, V-A:ARG:545:CD:4918, V-A:GLU:543:CB:4901, V-A:GLY:453:CA:4039, V-B:ARG:545:CG:9890, V-B:HIS:456:CE1:9037, H-B:TYR:484:OH:9315, V-B:ARG:545:CZ:9894, V-B:ARG:545:CD:9891, H-B:GLY:454:N:9017, V-A:GLU:543:C:4897, V-B:HIS:456:CD2:9035, V-A:LYS:547:CE:4945, H-B:LYS:547:NZ:9919, V-B:ASP:473:CG:9207, V-B:HIS:456:CG:9033, H-B:ARG:545:N:9888, V-B:HIS:456:CB:9032"]

$$$$
RR27_Rahimova_2017
     RDKit          3D

 66 71  0  0  0  0  0  0  0  0999 V2000
  130.3190  123.0970   57.4300 O   0  0  0  0  0  0  0  0  0  0  0  0
  129.3830  123.2340   58.2240 C   0  0  0  0  0  0  0  0  0  0  0  0
  128.3160  124.3260   57.9260 C   0  0  0  0  0  0  0  0  0  0  0  0
  126.9340  123.7430   57.5760 C   0  0  0  0  0  0  0  0  0  0  0  0
  126.7950  122.5840   56.7970 C   0  0  0  0  0  0  0  0  0  0  0  0
  125.5310  122.0820   56.5010 C   0  0  0  0  0  0  0  0  0  0  0  0
  124.4000  122.7350   56.9830 C   0  0  0  0  0  0  0  0  0  0  0  0
  124.5220  123.8870   57.7550 C   0  0  0  0  0  0  0  0  0  0  0  0
  125.7860  124.3890   58.0500 C   0  0  0  0  0  0  0  0  0  0  0  0
  128.8420  125.3850   56.9370 C   0  0  0  0  0  0  0  0  0  0  0  0
  129.0050  126.7260   57.3110 C   0  0  0  0  0  0  0  0  0  0  0  0
  129.4730  127.6590   56.3890 C   0  0  0  0  0  0  0  0  0  0  0  0
  129.7720  127.2570   55.0900 C   0  0  0  0  0  0  0  0  0  0  0  0
  129.6040  125.9310   54.7020 C   0  0  0  0  0  0  0  0  0  0  0  0
  129.1360  124.9990   55.6240 C   0  0  0  0  0  0  0  0  0  0  0  0
  129.1880  122.3630   59.2550 N   0  0  0  0  0  0  0  0  0  0  0  0
  128.2570  122.6180   60.3650 C   0  0  0  0  0  0  0  0  0  0  0  0
  129.0410  123.4110   61.4340 C   0  0  0  0  0  0  0  0  0  0  0  0
  130.3510  122.6880   61.8810 C   0  0  0  0  0  0  0  0  0  0  0  0
  131.2280  123.4890   62.8620 C   0  0  0  0  0  0  0  0  0  0  0  0
  132.5350  123.6590   62.5080 N   0  0  0  0  0  0  0  0  0  0  0  0
  133.3470  124.3830   63.3280 C   0  0  0  0  0  0  0  0  0  0  0  0
  134.6720  124.6260   63.0790 O   0  0  0  0  0  0  0  0  0  0  0  0
  132.8050  124.9250   64.5090 C   0  0  0  0  0  0  0  0  0  0  0  0
  133.3200  125.6820   65.5200 N   0  0  0  0  0  0  0  0  0  0  0  0
  132.3000  125.9080   66.4250 N   0  0  0  0  0  0  0  0  0  0  0  0
  131.1770  125.3090   65.9750 N   0  0  0  0  0  0  0  0  0  0  0  0
  129.9430  125.3660   66.7540 C   0  0  0  0  0  0  0  0  0  0  0  0
  129.5300  126.7790   67.1430 C   0  0  0  0  0  0  0  0  0  0  0  0
  128.9590  127.6330   66.1930 C   0  0  0  0  0  0  0  0  0  0  0  0
  128.5700  128.9240   66.5530 C   0  0  0  0  0  0  0  0  0  0  0  0
  128.7450  129.3670   67.8640 C   0  0  0  0  0  0  0  0  0  0  0  0
  129.3060  128.5170   68.8190 C   0  0  0  0  0  0  0  0  0  0  0  0
  129.4990  129.0530   70.4490 Cl  0  0  0  0  0  0  0  0  0  0  0  0
  129.7010  127.2290   68.4580 C   0  0  0  0  0  0  0  0  0  0  0  0
  131.4420  124.6720   64.7740 C   0  0  0  0  0  0  0  0  0  0  0  0
  130.6260  123.9600   63.9920 N   0  0  0  0  0  0  0  0  0  0  0  0
  131.1460  122.1180   60.6660 C   0  0  0  0  0  0  0  0  0  0  0  0
  130.2430  121.4080   59.6260 C   0  0  0  0  0  0  0  0  0  0  0  0
  128.1361  124.8712   58.8643 H   0  0  0  0  0  0  0  0  0  0  0  0
  127.6902  122.0692   56.4181 H   0  0  0  0  0  0  0  0  0  0  0  0
  125.4263  121.1738   55.8893 H   0  0  0  0  0  0  0  0  0  0  0  0
  123.4009  122.3371   56.7518 H   0  0  0  0  0  0  0  0  0  0  0  0
  123.6232  124.3983   58.1302 H   0  0  0  0  0  0  0  0  0  0  0  0
  125.8837  125.2994   58.6596 H   0  0  0  0  0  0  0  0  0  0  0  0
  128.7625  127.0425   58.3362 H   0  0  0  0  0  0  0  0  0  0  0  0
  129.6059  128.7098   56.6860 H   0  0  0  0  0  0  0  0  0  0  0  0
  130.1445  127.9943   54.3636 H   0  0  0  0  0  0  0  0  0  0  0  0
  129.8396  125.6214   53.6731 H   0  0  0  0  0  0  0  0  0  0  0  0
  128.9962  123.9515   55.3186 H   0  0  0  0  0  0  0  0  0  0  0  0
  127.3983  123.2072   60.0109 H   0  0  0  0  0  0  0  0  0  0  0  0
  127.8697  121.6753   60.7789 H   0  0  0  0  0  0  0  0  0  0  0  0
  129.3061  124.3944   61.0185 H   0  0  0  0  0  0  0  0  0  0  0  0
  128.3945  123.5040   62.3191 H   0  0  0  0  0  0  0  0  0  0  0  0
  130.0163  121.8270   62.4782 H   0  0  0  0  0  0  0  0  0  0  0  0
  134.8080  125.3610   62.4770 H   0  0  0  0  0  0  0  0  0  0  0  0
  129.1342  124.9197   66.1567 H   0  0  0  0  0  0  0  0  0  0  0  0
  130.1269  124.8158   67.6886 H   0  0  0  0  0  0  0  0  0  0  0  0
  128.8163  127.2857   65.1591 H   0  0  0  0  0  0  0  0  0  0  0  0
  128.1248  129.5931   65.8019 H   0  0  0  0  0  0  0  0  0  0  0  0
  128.4410  130.3860   68.1454 H   0  0  0  0  0  0  0  0  0  0  0  0
  130.1492  126.5632   69.2102 H   0  0  0  0  0  0  0  0  0  0  0  0
  131.6667  122.9490   60.1678 H   0  0  0  0  0  0  0  0  0  0  0  0
  131.8478  121.3667   61.0573 H   0  0  0  0  0  0  0  0  0  0  0  0
  130.8322  121.1317   58.7392 H   0  0  0  0  0  0  0  0  0  0  0  0
  129.8113  120.4861   60.0429 H   0  0  0  0  0  0  0  0  0  0  0  0
  1  2  2  0
  2  3  1  0
  3  4  1  0
  4  5  2  0
  5  6  1  0
  6  7  2  0
  7  8  1  0
  8  9  2  0
  3 10  1  0
 10 11  2  0
 11 12  1  0
 12 13  2  0
 13 14  1  0
 14 15  2  0
  2 16  1  0
 16 17  1  0
 17 18  1  0
 18 19  1  0
 19 20  1  0
 20 21  2  0
 21 22  1  0
 22 23  1  0
 22 24  2  0
 24 25  1  0
 25 26  2  0
 26 27  1  0
 27 28  1  0
 28 29  1  0
 29 30  2  0
 30 31  1  0
 31 32  2  0
 32 33  1  0
 33 34  1  0
 33 35  2  0
 27 36  1  0
 36 37  2  0
 19 38  1  0
 38 39  1  0
  9  4  1  0
 15 10  1  0
 39 16  1  0
 37 20  1  0
 36 24  1  0
 35 29  1  0
  3 40  1  0
  5 41  1  0
  6 42  1  0
  7 43  1  0
  8 44  1  0
  9 45  1  0
 11 46  1  0
 12 47  1  0
 13 48  1  0
 14 49  1  0
 15 50  1  0
 17 51  1  0
 17 52  1  0
 18 53  1  0
 18 54  1  0
 19 55  1  0
 23 56  1  0
 28 57  1  0
 28 58  1  0
 30 59  1  0
 31 60  1  0
 32 61  1  0
 35 62  1  0
 38 63  1  0
 38 64  1  0
 39 65  1  0
 39 66  1  0
M  END
>  <Binding energies>  (1) 
[-10.96]

>  <Ligand effiencies>  (1) 
[-0.274]

>  <Interactions>  (1) 
["V-B:TYR:539:CE2:9844, V-B:MET:535:CE:9803, V-B:PRO:540:CD:9855, V-B:PRO:540:CA:9851, V-B:TYR:539:CD2:9842, V-B:PRO:540:N:9852, V-B:PRO:540:CB:9853, V-B:TYR:539:C:9835, V-A:HIS:456:CE1:4064, H-A:ARG:545:NE:4919, H-A:TYR:484:OH:4343, H-A:GLY:454:N:4045, V-B:GLU:543:CG:9875, H-A:HIS:456:NE2:4065, V-B:GLU:543:CB:9874, V-A:GLU:543:CD:4903, H-A:ASP:366:OD2:3210, V-A:GLU:543:CB:4901, V-B:HIS:456:CE1:9037, V-B:LEU:363:CD1:8156, V-A:TYR:531:CE1:4787, V-A:TYR:531:CZ:4789, V-A:GLU:543:CG:4902, V-B:HIS:456:CD2:9035, V-B:PRO:540:CG:9854, V-B:ILE:538:CG2:9831, H-B:TYR:539:OH:9846, V-B:TYR:539:CA:9837, H-A:ARG:545:NH1:4922, H-A:ASP:366:OD1:3209"]

$$$$
RR27_Rahimova_2017-again1
     RDKit          3D

 66 71  0  0  0  0  0  0  0  0999 V2000
  131.8590  121.9860   59.0270 O   0  0  0  0  0  0  0  0  0  0  0  0
  130.7170  122.3760   59.2910 C   0  0  0  0  0  0  0  0  0  0  0  0
  130.1510  123.5900   58.4950 C   0  0  0  0  0  0  0  0  0  0  0  0
  130.3000  124.9190   59.2590 C   0  0  0  0  0  0  0  0  0  0  0  0
  129.8110  126.1310   58.7490 C   0  0  0  0  0  0  0  0  0  0  0  0
  129.9640  127.3120   59.4710 C   0  0  0  0  0  0  0  0  0  0  0  0
  130.6060  127.2880   60.7060 C   0  0  0  0  0  0  0  0  0  0  0  0
  131.0950  126.0930   61.2260 C   0  0  0  0  0  0  0  0  0  0  0  0
  130.9420  124.9130   60.5040 C   0  0  0  0  0  0  0  0  0  0  0  0
  128.7220  123.3280   57.9810 C   0  0  0  0  0  0  0  0  0  0  0  0
  127.6160  124.0010   58.5200 C   0  0  0  0  0  0  0  0  0  0  0  0
  126.3310  123.7330   58.0540 C   0  0  0  0  0  0  0  0  0  0  0  0
  126.1470  122.7940   57.0430 C   0  0  0  0  0  0  0  0  0  0  0  0
  127.2340  122.1170   56.4990 C   0  0  0  0  0  0  0  0  0  0  0  0
  128.5180  122.3790   56.9710 C   0  0  0  0  0  0  0  0  0  0  0  0
  129.9070  121.6720   60.1340 N   0  0  0  0  0  0  0  0  0  0  0  0
  128.6640  122.2060   60.7070 C   0  0  0  0  0  0  0  0  0  0  0  0
  129.0360  123.0000   61.9810 C   0  0  0  0  0  0  0  0  0  0  0  0
  130.0750  122.3140   62.9280 C   0  0  0  0  0  0  0  0  0  0  0  0
  130.8630  123.3060   63.7890 C   0  0  0  0  0  0  0  0  0  0  0  0
  130.2890  123.9290   64.7700 N   0  0  0  0  0  0  0  0  0  0  0  0
  131.0840  124.7910   65.4620 C   0  0  0  0  0  0  0  0  0  0  0  0
  132.4220  125.0560   65.2130 C   0  0  0  0  0  0  0  0  0  0  0  0
  132.8810  125.9510   66.0700 N   0  0  0  0  0  0  0  0  0  0  0  0
  131.8320  126.2960   66.9160 N   0  0  0  0  0  0  0  0  0  0  0  0
  130.7620  125.5720   66.5420 N   0  0  0  0  0  0  0  0  0  0  0  0
  129.4830  125.7190   67.2240 C   0  0  0  0  0  0  0  0  0  0  0  0
  128.8510  127.0890   67.0340 C   0  0  0  0  0  0  0  0  0  0  0  0
  129.3960  128.2090   67.6710 C   0  0  0  0  0  0  0  0  0  0  0  0
  128.8130  129.4650   67.5050 C   0  0  0  0  0  0  0  0  0  0  0  0
  127.6840  129.6100   66.7000 C   0  0  0  0  0  0  0  0  0  0  0  0
  127.1380  128.4980   66.0570 C   0  0  0  0  0  0  0  0  0  0  0  0
  125.7380  128.6770   65.0640 Cl  0  0  0  0  0  0  0  0  0  0  0  0
  127.7210  127.2410   66.2210 C   0  0  0  0  0  0  0  0  0  0  0  0
  133.0950  124.3610   64.1170 C   0  0  0  0  0  0  0  0  0  0  0  0
  134.2640  124.4600   63.7500 O   0  0  0  0  0  0  0  0  0  0  0  0
  132.2060  123.5140   63.4890 N   0  0  0  0  0  0  0  0  0  0  0  0
  130.9970  121.2400   62.2700 C   0  0  0  0  0  0  0  0  0  0  0  0
  130.4690  120.5960   60.9630 C   0  0  0  0  0  0  0  0  0  0  0  0
  130.7747  123.7051   57.5962 H   0  0  0  0  0  0  0  0  0  0  0  0
  129.3038  126.1486   57.7731 H   0  0  0  0  0  0  0  0  0  0  0  0
  129.5791  128.2600   59.0670 H   0  0  0  0  0  0  0  0  0  0  0  0
  130.7279  128.2211   61.2756 H   0  0  0  0  0  0  0  0  0  0  0  0
  131.6001  126.0813   62.2031 H   0  0  0  0  0  0  0  0  0  0  0  0
  131.3282  123.9683   60.9142 H   0  0  0  0  0  0  0  0  0  0  0  0
  127.7642  124.7455   59.3161 H   0  0  0  0  0  0  0  0  0  0  0  0
  125.4662  124.2606   58.4826 H   0  0  0  0  0  0  0  0  0  0  0  0
  125.1331  122.5853   56.6708 H   0  0  0  0  0  0  0  0  0  0  0  0
  127.0800  121.3777   55.6992 H   0  0  0  0  0  0  0  0  0  0  0  0
  129.3770  121.8374   56.5481 H   0  0  0  0  0  0  0  0  0  0  0  0
  128.1725  122.8708   59.9815 H   0  0  0  0  0  0  0  0  0  0  0  0
  127.9704  121.3881   60.9518 H   0  0  0  0  0  0  0  0  0  0  0  0
  129.4530  123.9680   61.6663 H   0  0  0  0  0  0  0  0  0  0  0  0
  128.1073  123.0832   62.5646 H   0  0  0  0  0  0  0  0  0  0  0  0
  129.4320  121.7334   63.6059 H   0  0  0  0  0  0  0  0  0  0  0  0
  128.7905  124.9585   66.8340 H   0  0  0  0  0  0  0  0  0  0  0  0
  129.6730  125.5956   68.3004 H   0  0  0  0  0  0  0  0  0  0  0  0
  130.2879  128.0985   68.3053 H   0  0  0  0  0  0  0  0  0  0  0  0
  129.2443  130.3421   68.0097 H   0  0  0  0  0  0  0  0  0  0  0  0
  127.2236  130.6007   66.5716 H   0  0  0  0  0  0  0  0  0  0  0  0
  127.2916  126.3666   65.7100 H   0  0  0  0  0  0  0  0  0  0  0  0
  132.5920  122.9950   62.7140 H   0  0  0  0  0  0  0  0  0  0  0  0
  131.9612  121.7184   62.0432 H   0  0  0  0  0  0  0  0  0  0  0  0
  131.0606  120.4188   62.9991 H   0  0  0  0  0  0  0  0  0  0  0  0
  131.2937  120.1021   60.4283 H   0  0  0  0  0  0  0  0  0  0  0  0
  129.7023  119.8397   61.1868 H   0  0  0  0  0  0  0  0  0  0  0  0
  1  2  2  0
  2  3  1  0
  3  4  1  0
  4  5  2  0
  5  6  1  0
  6  7  2  0
  7  8  1  0
  8  9  2  0
  3 10  1  0
 10 11  2  0
 11 12  1  0
 12 13  2  0
 13 14  1  0
 14 15  2  0
  2 16  1  0
 16 17  1  0
 17 18  1  0
 18 19  1  0
 19 20  1  0
 20 21  2  0
 21 22  1  0
 22 23  2  0
 23 24  1  0
 24 25  2  0
 25 26  1  0
 26 27  1  0
 27 28  1  0
 28 29  2  0
 29 30  1  0
 30 31  2  0
 31 32  1  0
 32 33  1  0
 32 34  2  0
 23 35  1  0
 35 36  2  0
 35 37  1  0
 19 38  1  0
 38 39  1  0
  9  4  1  0
 15 10  1  0
 39 16  1  0
 37 20  1  0
 26 22  1  0
 34 28  1  0
  3 40  1  0
  5 41  1  0
  6 42  1  0
  7 43  1  0
  8 44  1  0
  9 45  1  0
 11 46  1  0
 12 47  1  0
 13 48  1  0
 14 49  1  0
 15 50  1  0
 17 51  1  0
 17 52  1  0
 18 53  1  0
 18 54  1  0
 19 55  1  0
 27 56  1  0
 27 57  1  0
 29 58  1  0
 30 59  1  0
 31 60  1  0
 34 61  1  0
 37 62  1  0
 38 63  1  0
 38 64  1  0
 39 65  1  0
 39 66  1  0
M  END
>  <Binding energies>  (1) 
[-10.07]

>  <Ligand effiencies>  (1) 
[-0.25175000000000003]

>  <Interactions>  (1) 
["V-B:ALA:541:CB:9860, V-B:TYR:539:CE2:9844, V-B:MET:535:CE:9803, V-B:PRO:540:CD:9855, V-B:PRO:540:CA:9851, V-B:TYR:539:CD2:9842, V-B:PRO:540:N:9852, V-B:PRO:540:CB:9853, V-B:PRO:540:C:9849, V-B:TYR:539:CE1:9843, V-B:TYR:539:C:9835, V-B:TYR:539:CZ:9845, V-A:HIS:456:CE1:4064, H-A:ARG:545:NE:4919, H-A:TYR:484:OH:4343, H-A:GLY:454:N:4045, V-B:GLU:543:CD:9876, V-B:GLU:543:CG:9875, H-A:HIS:456:NE2:4065, V-B:GLU:543:CB:9874, V-A:GLU:543:CB:4901, V-A:TYR:484:CZ:4342, V-B:HIS:456:CE1:9037, V-A:LEU:475:CD2:4254, V-A:GLU:543:CG:4902, V-B:ARG:545:CZ:9894, V-B:TYR:484:CZ:9314, V-B:TYR:539:CD1:9841, V-B:TYR:539:CA:9837, V-B:TYR:539:CG:9840"]

$$$$
RR28_Rahimova_2017
     RDKit          3D

 82 85  0  0  0  0  0  0  0  0999 V2000
  130.0250  118.0730   60.7710 C   0  0  0  0  0  0  0  0  0  0  0  0
  130.1120  119.5250   61.2260 C   0  0  0  0  0  0  0  0  0  0  0  0
  130.2550  119.7790   62.4210 O   0  0  0  0  0  0  0  0  0  0  0  0
  130.0230  120.4610   60.2600 N   0  0  0  0  0  0  0  0  0  0  0  0
  130.0670  121.9340   60.4040 C   0  0  0  0  0  0  0  0  0  0  0  0
  128.6880  122.5060   59.9670 C   0  0  0  0  0  0  0  0  0  0  0  0
  128.3770  122.5860   58.6010 C   0  0  0  0  0  0  0  0  0  0  0  0
  127.1550  123.0960   58.1740 C   0  0  0  0  0  0  0  0  0  0  0  0
  126.2150  123.5410   59.1040 C   0  0  0  0  0  0  0  0  0  0  0  0
  124.8800  124.1020   58.6160 C   0  0  0  0  0  0  0  0  0  0  0  0
  123.8880  123.8730   59.4790 F   0  0  0  0  0  0  0  0  0  0  0  0
  124.9710  125.4200   58.4330 F   0  0  0  0  0  0  0  0  0  0  0  0
  124.5620  123.5290   57.4540 F   0  0  0  0  0  0  0  0  0  0  0  0
  126.5120  123.4690   60.4670 C   0  0  0  0  0  0  0  0  0  0  0  0
  127.7350  122.9580   60.8940 C   0  0  0  0  0  0  0  0  0  0  0  0
  131.2800  122.5290   59.6040 C   0  0  0  0  0  0  0  0  0  0  0  0
  132.6580  122.0990   60.1690 C   0  0  0  0  0  0  0  0  0  0  0  0
  132.6950  122.5550   61.5680 N   0  0  0  0  0  0  0  0  0  0  0  0
  133.2420  123.7610   61.8840 C   0  0  0  0  0  0  0  0  0  0  0  0
  133.8670  124.4320   61.0590 O   0  0  0  0  0  0  0  0  0  0  0  0
  133.2200  124.2280   63.3590 C   0  0  0  0  0  0  0  0  0  0  0  0
  131.9230  124.9440   63.8260 C   0  0  0  0  0  0  0  0  0  0  0  0
  131.2050  124.2850   65.0270 C   0  0  0  0  0  0  0  0  0  0  0  0
  130.6830  123.1800   64.8530 O   0  0  0  0  0  0  0  0  0  0  0  0
  131.2820  124.8610   66.2600 N   0  0  0  0  0  0  0  0  0  0  0  0
  131.5970  126.2790   66.4700 C   0  0  0  0  0  0  0  0  0  0  0  0
  130.2640  127.0500   66.3490 C   0  0  0  0  0  0  0  0  0  0  0  0
  129.1370  126.5700   67.3290 C   0  0  0  0  0  0  0  0  0  0  0  0
  127.8340  127.0820   66.8570 N   0  0  0  0  0  0  0  0  0  0  0  0
  127.4780  128.3610   66.6220 C   0  0  0  0  0  0  0  0  0  0  0  0
  126.0440  128.5890   66.1540 C   0  0  0  0  0  0  0  0  0  0  0  0
  128.2320  129.3230   66.7640 O   0  0  0  0  0  0  0  0  0  0  0  0
  129.4220  127.2180   68.7230 C   0  0  0  0  0  0  0  0  0  0  0  0
  128.6840  126.9000   69.8750 C   0  0  0  0  0  0  0  0  0  0  0  0
  128.9710  127.5000   71.0980 C   0  0  0  0  0  0  0  0  0  0  0  0
  130.0010  128.4370   71.2010 C   0  0  0  0  0  0  0  0  0  0  0  0
  130.3310  129.1010   72.5370 C   0  0  0  0  0  0  0  0  0  0  0  0
  131.3550  128.4840   73.1290 F   0  0  0  0  0  0  0  0  0  0  0  0
  130.6660  130.3720   72.3220 F   0  0  0  0  0  0  0  0  0  0  0  0
  129.2960  129.0770   73.3790 F   0  0  0  0  0  0  0  0  0  0  0  0
  130.7380  128.7690   70.0630 C   0  0  0  0  0  0  0  0  0  0  0  0
  130.4490  128.1680   68.8420 C   0  0  0  0  0  0  0  0  0  0  0  0
  129.1280  124.9920   67.3680 C   0  0  0  0  0  0  0  0  0  0  0  0
  130.5190  124.3030   67.3830 C   0  0  0  0  0  0  0  0  0  0  0  0
  131.7110  121.8810   62.4270 C   0  0  0  0  0  0  0  0  0  0  0  0
  130.3050  122.2850   61.9090 C   0  0  0  0  0  0  0  0  0  0  0  0
  129.9856  117.4146   61.6513 H   0  0  0  0  0  0  0  0  0  0  0  0
  129.1168  117.9319   60.1666 H   0  0  0  0  0  0  0  0  0  0  0  0
  130.9099  117.8245   60.1666 H   0  0  0  0  0  0  0  0  0  0  0  0
  129.8860  120.1330   59.3150 H   0  0  0  0  0  0  0  0  0  0  0  0
  129.1099  122.2405   57.8571 H   0  0  0  0  0  0  0  0  0  0  0  0
  126.9290  123.1486   57.0987 H   0  0  0  0  0  0  0  0  0  0  0  0
  125.7762  123.8176   61.2067 H   0  0  0  0  0  0  0  0  0  0  0  0
  127.9572  122.9078   61.9702 H   0  0  0  0  0  0  0  0  0  0  0  0
  131.2096  122.1898   58.5600 H   0  0  0  0  0  0  0  0  0  0  0  0
  131.2205  123.6241   59.6893 H   0  0  0  0  0  0  0  0  0  0  0  0
  132.7635  121.0050   60.1227 H   0  0  0  0  0  0  0  0  0  0  0  0
  133.4818  122.5359   59.5856 H   0  0  0  0  0  0  0  0  0  0  0  0
  133.3632  123.3420   63.9950 H   0  0  0  0  0  0  0  0  0  0  0  0
  134.0206  124.9774   63.4454 H   0  0  0  0  0  0  0  0  0  0  0  0
  132.1856  125.9739   64.1095 H   0  0  0  0  0  0  0  0  0  0  0  0
  131.2210  124.8873   62.9811 H   0  0  0  0  0  0  0  0  0  0  0  0
  132.0318  126.4272   67.4695 H   0  0  0  0  0  0  0  0  0  0  0  0
  132.3301  126.6360   65.7317 H   0  0  0  0  0  0  0  0  0  0  0  0
  130.4635  128.1128   66.5507 H   0  0  0  0  0  0  0  0  0  0  0  0
  129.8898  126.8651   65.3313 H   0  0  0  0  0  0  0  0  0  0  0  0
  127.1210  126.3780   66.7360 H   0  0  0  0  0  0  0  0  0  0  0  0
  125.3851  128.6938   67.0286 H   0  0  0  0  0  0  0  0  0  0  0  0
  125.9975  129.5058   65.5480 H   0  0  0  0  0  0  0  0  0  0  0  0
  125.7154  127.7318   65.5480 H   0  0  0  0  0  0  0  0  0  0  0  0
  127.8672  126.1661   69.8099 H   0  0  0  0  0  0  0  0  0  0  0  0
  128.3827  127.2343   71.9887 H   0  0  0  0  0  0  0  0  0  0  0  0
  131.5498  129.5081   70.1318 H   0  0  0  0  0  0  0  0  0  0  0  0
  131.0361  128.4422   67.9531 H   0  0  0  0  0  0  0  0  0  0  0  0
  128.5887  124.6810   68.2749 H   0  0  0  0  0  0  0  0  0  0  0  0
  128.6506  124.6752   66.4290 H   0  0  0  0  0  0  0  0  0  0  0  0
  131.0347  124.5120   68.3319 H   0  0  0  0  0  0  0  0  0  0  0  0
  130.4194  123.2116   67.2884 H   0  0  0  0  0  0  0  0  0  0  0  0
  131.8381  120.7902   62.3633 H   0  0  0  0  0  0  0  0  0  0  0  0
  131.8414  122.1749   63.4790 H   0  0  0  0  0  0  0  0  0  0  0  0
  129.5486  121.7612   62.5119 H   0  0  0  0  0  0  0  0  0  0  0  0
  130.2297  123.3786   62.0007 H   0  0  0  0  0  0  0  0  0  0  0  0
  1  2  1  0
  2  3  2  0
  2  4  1  0
  4  5  1  0
  5  6  1  0
  6  7  2  0
  7  8  1  0
  8  9  2  0
  9 10  1  0
 10 11  1  0
 10 12  1  0
 10 13  1  0
  9 14  1  0
 14 15  2  0
  5 16  1  0
 16 17  1  0
 17 18  1  0
 18 19  1  0
 19 20  2  0
 19 21  1  0
 21 22  1  0
 22 23  1  0
 23 24  2  0
 23 25  1  0
 25 26  1  0
 26 27  1  0
 27 28  1  0
 28 29  1  0
 29 30  1  0
 30 31  1  0
 30 32  2  0
 28 33  1  0
 33 34  2  0
 34 35  1  0
 35 36  2  0
 36 37  1  0
 37 38  1  0
 37 39  1  0
 37 40  1  0
 36 41  1  0
 41 42  2  0
 28 43  1  0
 43 44  1  0
 18 45  1  0
 45 46  1  0
 46  5  1  0
 15  6  1  0
 44 25  1  0
 42 33  1  0
  1 47  1  0
  1 48  1  0
  1 49  1  0
  4 50  1  0
  7 51  1  0
  8 52  1  0
 14 53  1  0
 15 54  1  0
 16 55  1  0
 16 56  1  0
 17 57  1  0
 17 58  1  0
 21 59  1  0
 21 60  1  0
 22 61  1  0
 22 62  1  0
 26 63  1  0
 26 64  1  0
 27 65  1  0
 27 66  1  0
 29 67  1  0
 31 68  1  0
 31 69  1  0
 31 70  1  0
 34 71  1  0
 35 72  1  0
 41 73  1  0
 42 74  1  0
 43 75  1  0
 43 76  1  0
 44 77  1  0
 44 78  1  0
 45 79  1  0
 45 80  1  0
 46 81  1  0
 46 82  1  0
M  END
>  <Binding energies>  (1) 
[-9.26]

>  <Ligand effiencies>  (1) 
[-0.19291666666666665]

>  <Interactions>  (1) 
["V-B:ALA:541:CB:9860, V-B:TYR:539:CE2:9844, H-B:TYR:539:O:9836, V-B:PRO:540:CA:9851, V-A:TRP:381:CH2:3367, V-B:TYR:539:CD2:9842, V-B:PRO:540:N:9852, V-B:PRO:540:CB:9853, V-B:PRO:540:C:9849, V-B:TYR:539:C:9835, V-B:GLU:543:C:9870, V-A:HIS:456:CE1:4064, V-A:ASP:366:CG:3208, H-A:TYR:484:OH:4343, V-B:GLU:543:CD:9876, V-B:GLU:543:CG:9875, V-B:GLU:543:CB:9874, V-A:GLU:543:CD:4903, H-B:GLU:543:OE2:9878, V-A:GLU:543:CB:4901, V-A:TYR:484:CZ:4342, V-B:ARG:545:CG:9890, V-B:HIS:456:CE1:9037, V-A:ILE:369:CD1:3234, V-A:TRP:381:CZ3:3366, V-A:LEU:475:CD2:4254, V-B:LEU:363:CA:8152, V-B:LEU:363:CD1:8156, V-A:TRP:381:CZ2:3365, V-A:GLU:543:C:4897, V-A:LYS:547:CE:4945, V-B:GLU:543:CA:9872, V-B:ASP:366:CG:8180, V-A:PRO:482:CG:4322, V-A:PRO:482:CB:4321, V-B:ASP:366:CB:8179, V-B:LEU:363:CB:8154, V-A:TYR:484:CE1:4340, H-B:GLU:543:OE1:9877, V-A:TRP:381:CE3:3363, V-A:TRP:381:CE2:3362, V-A:TRP:381:CD2:3360, V-A:GLY:544:CA:4909, V-A:GLY:544:C:4907, V-B:ASN:362:C:8139"]

$$$$
RR29_Rahimova_2017
     RDKit          3D

 35 36  0  0  0  0  0  0  0  0999 V2000
  129.8740  124.2710   68.5490 C   0  0  0  0  0  0  0  0  0  0  0  0
  130.1860  125.3780   67.5520 C   0  0  0  0  0  0  0  0  0  0  0  0
  129.3830  126.6710   67.8160 C   0  0  0  0  0  0  0  0  0  0  0  0
  130.1280  127.6190   68.7790 C   0  0  0  0  0  0  0  0  0  0  0  0
  129.3190  127.9220   70.0310 C   0  0  0  0  0  0  0  0  0  0  0  0
  127.9640  127.5440   70.1010 C   0  0  0  0  0  0  0  0  0  0  0  0
  127.2000  127.8120   71.2460 C   0  0  0  0  0  0  0  0  0  0  0  0
  127.8270  128.4730   72.2960 C   0  0  0  0  0  0  0  0  0  0  0  0
  129.1410  128.8440   72.2320 C   0  0  0  0  0  0  0  0  0  0  0  0
  129.9250  128.5810   71.1150 C   0  0  0  0  0  0  0  0  0  0  0  0
  129.4980  129.4360   73.4030 O   0  0  0  0  0  0  0  0  0  0  0  0
  128.3030  129.6140   74.1170 C   0  0  0  0  0  0  0  0  0  0  0  0
  127.3200  128.8200   73.5090 O   0  0  0  0  0  0  0  0  0  0  0  0
  131.0390  125.1450   66.6240 N   0  0  0  0  0  0  0  0  0  0  0  0
  131.2600  126.1150   65.6710 N   0  0  0  0  0  0  0  0  0  0  0  0
  130.6970  126.1120   64.4520 C   0  0  0  0  0  0  0  0  0  0  0  0
  129.8410  125.1900   64.0090 N   0  0  0  0  0  0  0  0  0  0  0  0
  131.0130  127.0980   63.6250 N   0  0  0  0  0  0  0  0  0  0  0  0
  129.9831  124.6582   69.5728 H   0  0  0  0  0  0  0  0  0  0  0  0
  128.8422  123.9211   68.3974 H   0  0  0  0  0  0  0  0  0  0  0  0
  130.5712  123.4338   68.3974 H   0  0  0  0  0  0  0  0  0  0  0  0
  129.2193  127.1903   66.8602 H   0  0  0  0  0  0  0  0  0  0  0  0
  128.4265  126.3915   68.2817 H   0  0  0  0  0  0  0  0  0  0  0  0
  131.0765  127.1477   69.0761 H   0  0  0  0  0  0  0  0  0  0  0  0
  130.2995  128.5686   68.2510 H   0  0  0  0  0  0  0  0  0  0  0  0
  127.4988  127.0316   69.2460 H   0  0  0  0  0  0  0  0  0  0  0  0
  126.1441  127.5105   71.3109 H   0  0  0  0  0  0  0  0  0  0  0  0
  130.9835  128.8783   71.0802 H   0  0  0  0  0  0  0  0  0  0  0  0
  128.4417  129.3028   75.1629 H   0  0  0  0  0  0  0  0  0  0  0  0
  128.0030  130.6723   74.1078 H   0  0  0  0  0  0  0  0  0  0  0  0
  131.9100  126.8490   65.9140 H   0  0  0  0  0  0  0  0  0  0  0  0
  129.2250  125.3980   63.2360 H   0  0  0  0  0  0  0  0  0  0  0  0
  129.8070  124.2870   64.4600 H   0  0  0  0  0  0  0  0  0  0  0  0
  131.8640  127.6230   63.7660 H   0  0  0  0  0  0  0  0  0  0  0  0
  130.4050  127.3190   62.8500 H   0  0  0  0  0  0  0  0  0  0  0  0
  1  2  1  0
  2  3  1  0
  3  4  1  0
  4  5  1  0
  5  6  2  0
  6  7  1  0
  7  8  2  0
  8  9  1  0
  9 10  2  0
  9 11  1  0
 11 12  1  0
 12 13  1  0
  2 14  2  0
 14 15  1  0
 15 16  1  0
 16 17  1  0
 16 18  2  0
 10  5  1  0
 13  8  1  0
  1 19  1  0
  1 20  1  0
  1 21  1  0
  3 22  1  0
  3 23  1  0
  4 24  1  0
  4 25  1  0
  6 26  1  0
  7 27  1  0
 10 28  1  0
 12 29  1  0
 12 30  1  0
 15 31  1  0
 17 32  1  0
 17 33  1  0
 18 34  1  0
 18 35  1  0
M  CHG  1  18   1
M  END
>  <Binding energies>  (1) 
[-7.27]

>  <Ligand effiencies>  (1) 
[-0.3160869565217391]

>  <Interactions>  (1) 
["V-B:GLU:543:C:9870, V-A:HIS:456:CE1:4064, H-A:GLU:543:OE2:4905, H-A:TYR:484:OH:4343, H-A:GLU:543:OE1:4904, V-B:GLU:543:CD:9876, V-B:GLU:543:CG:9875, H-A:HIS:456:NE2:4065, V-B:GLU:543:CB:9874, V-A:GLU:543:CD:4903, H-B:GLU:543:OE2:9878, V-A:TYR:484:CZ:4342, V-B:HIS:456:CE1:9037, V-B:HIS:456:CD2:9035, H-B:LYS:547:NZ:9919, V-B:GLU:543:CA:9872, H-A:LYS:547:NZ:4946, V-A:TYR:484:CE1:4340, V-B:GLY:544:C:9880, V-B:HIS:456:CG:9033"]

$$$$
RR29_Rahimova_2017-again1
     RDKit          3D

 34 35  0  0  0  0  0  0  0  0999 V2000
  129.7210  122.0400   60.0820 C   0  0  0  0  0  0  0  0  0  0  0  0
  128.6680  122.6060   61.0240 C   0  0  0  0  0  0  0  0  0  0  0  0
  129.2480  123.1190   62.3560 C   0  0  0  0  0  0  0  0  0  0  0  0
  129.8640  124.5250   62.2010 C   0  0  0  0  0  0  0  0  0  0  0  0
  131.2080  124.6470   62.9020 C   0  0  0  0  0  0  0  0  0  0  0  0
  132.4000  124.4650   62.1730 C   0  0  0  0  0  0  0  0  0  0  0  0
  133.6500  124.5740   62.7980 C   0  0  0  0  0  0  0  0  0  0  0  0
  133.6660  124.8570   64.1590 C   0  0  0  0  0  0  0  0  0  0  0  0
  132.5130  125.0310   64.8720 C   0  0  0  0  0  0  0  0  0  0  0  0
  131.2600  124.9390   64.2760 C   0  0  0  0  0  0  0  0  0  0  0  0
  132.8230  125.3270   66.1620 O   0  0  0  0  0  0  0  0  0  0  0  0
  134.2050  125.1170   66.2760 C   0  0  0  0  0  0  0  0  0  0  0  0
  134.7330  125.0370   64.9800 O   0  0  0  0  0  0  0  0  0  0  0  0
  127.4340  122.5970   60.6630 N   0  0  0  0  0  0  0  0  0  0  0  0
  126.5670  123.0600   61.5040 N   0  0  0  0  0  0  0  0  0  0  0  0
  125.5910  123.7450   61.0290 C   0  0  0  0  0  0  0  0  0  0  0  0
  125.3310  124.0730   59.6690 N   0  0  0  0  0  0  0  0  0  0  0  0
  124.5960  124.2840   61.8720 N   0  0  0  0  0  0  0  0  0  0  0  0
  130.5400  121.5998   60.6697 H   0  0  0  0  0  0  0  0  0  0  0  0
  129.2668  121.2645   59.4478 H   0  0  0  0  0  0  0  0  0  0  0  0
  130.1172  122.8467   59.4478 H   0  0  0  0  0  0  0  0  0  0  0  0
  128.4422  123.1624   63.1035 H   0  0  0  0  0  0  0  0  0  0  0  0
  130.0420  122.4279   62.6753 H   0  0  0  0  0  0  0  0  0  0  0  0
  130.0034  124.7340   61.1301 H   0  0  0  0  0  0  0  0  0  0  0  0
  129.1758  125.2468   62.6650 H   0  0  0  0  0  0  0  0  0  0  0  0
  132.3490  124.2342   61.0987 H   0  0  0  0  0  0  0  0  0  0  0  0
  134.5839  124.4405   62.2323 H   0  0  0  0  0  0  0  0  0  0  0  0
  130.3402  125.0897   64.8603 H   0  0  0  0  0  0  0  0  0  0  0  0
  134.6677  125.9551   66.8178 H   0  0  0  0  0  0  0  0  0  0  0  0
  134.4089  124.1904   66.8326 H   0  0  0  0  0  0  0  0  0  0  0  0
  125.9410  123.7760   58.9210 H   0  0  0  0  0  0  0  0  0  0  0  0
  124.5350  124.6230   59.3870 H   0  0  0  0  0  0  0  0  0  0  0  0
  124.6160  124.1590   62.8740 H   0  0  0  0  0  0  0  0  0  0  0  0
  123.8230  124.8280   61.5190 H   0  0  0  0  0  0  0  0  0  0  0  0
  1  2  1  0
  2  3  1  0
  3  4  1  0
  4  5  1  0
  5  6  2  0
  6  7  1  0
  7  8  2  0
  8  9  1  0
  9 10  2  0
  9 11  1  0
 11 12  1  0
 12 13  1  0
  2 14  2  0
 14 15  1  0
 15 16  2  0
 16 17  1  0
 16 18  1  0
 10  5  1  0
 13  8  1  0
  1 19  1  0
  1 20  1  0
  1 21  1  0
  3 22  1  0
  3 23  1  0
  4 24  1  0
  4 25  1  0
  6 26  1  0
  7 27  1  0
 10 28  1  0
 12 29  1  0
 12 30  1  0
 17 31  1  0
 17 32  1  0
 18 33  1  0
 18 34  1  0
M  END
>  <Binding energies>  (1) 
[-6.58]

>  <Ligand effiencies>  (1) 
[-0.2990909090909091]

>  <Interactions>  (1) 
["V-B:ALA:541:CB:9860, V-B:PRO:540:CA:9851, V-B:PRO:540:CB:9853, V-A:ASP:366:CG:3208, H-A:ARG:545:NE:4919, H-A:TYR:484:OH:4343, H-A:GLY:454:N:4045, V-B:GLU:543:CD:9876, V-A:ARG:545:CZ:4921, H-A:HIS:456:NE2:4065, V-B:ASN:362:CB:8143, H-B:ALA:541:N:9859, H-B:GLU:543:OE2:9878, V-A:ARG:545:CD:4918, V-A:ARG:545:CG:4917, V-A:HIS:456:CD2:4063, V-B:ARG:545:CZ:9894, H-A:ARG:545:NH1:4922, H-B:GLU:543:OE1:9877, H-B:ASP:366:OD2:8182, H-B:ASP:366:OD1:8181, H-B:ALA:541:O:9857"]

$$$$
RR2_Rahimova_2017
     RDKit          3D

 76 80  0  0  0  0  0  0  0  0999 V2000
  129.5770  127.8550   54.1420 C   0  0  0  0  0  0  0  0  0  0  0  0
  129.8800  126.4740   53.9790 O   0  0  0  0  0  0  0  0  0  0  0  0
  129.5830  125.5930   55.0020 C   0  0  0  0  0  0  0  0  0  0  0  0
  128.2960  125.3770   55.5120 C   0  0  0  0  0  0  0  0  0  0  0  0
  128.0930  124.4700   56.5480 C   0  0  0  0  0  0  0  0  0  0  0  0
  129.1700  123.7620   57.1010 C   0  0  0  0  0  0  0  0  0  0  0  0
  128.9230  122.7850   58.2340 C   0  0  0  0  0  0  0  0  0  0  0  0
  127.7810  122.6150   58.6730 O   0  0  0  0  0  0  0  0  0  0  0  0
  130.0180  122.1520   58.7160 N   0  0  0  0  0  0  0  0  0  0  0  0
  129.8620  121.3160   59.8160 N   0  0  0  0  0  0  0  0  0  0  0  0
  130.9190  121.1310   60.6320 C   0  0  0  0  0  0  0  0  0  0  0  0
  132.0720  121.5010   60.3880 O   0  0  0  0  0  0  0  0  0  0  0  0
  130.6150  120.4240   61.9600 C   0  0  0  0  0  0  0  0  0  0  0  0
  130.3310  121.5390   63.3840 S   0  0  0  0  0  0  0  0  0  0  0  0
  129.9110  123.0370   62.5460 C   0  0  0  0  0  0  0  0  0  0  0  0
  129.0880  123.0790   61.5280 N   0  0  0  0  0  0  0  0  0  0  0  0
  129.0480  124.3910   61.0770 N   0  0  0  0  0  0  0  0  0  0  0  0
  129.8270  125.1000   61.8600 C   0  0  0  0  0  0  0  0  0  0  0  0
  130.0300  126.5720   61.7010 C   0  0  0  0  0  0  0  0  0  0  0  0
  130.7840  127.0570   60.6290 C   0  0  0  0  0  0  0  0  0  0  0  0
  130.9860  128.4250   60.4770 C   0  0  0  0  0  0  0  0  0  0  0  0
  130.4200  129.3250   61.3870 C   0  0  0  0  0  0  0  0  0  0  0  0
  130.5980  130.7130   61.2890 N   0  0  0  0  0  0  0  0  0  0  0  0
  129.4980  131.8170   60.4350 S   0  0  0  0  0  0  0  0  0  0  0  0
  129.6460  133.1220   61.0910 O   0  0  0  0  0  0  0  0  0  0  0  0
  128.1850  131.1680   60.3410 O   0  0  0  0  0  0  0  0  0  0  0  0
  130.1850  131.9850   58.7900 C   0  0  0  0  0  0  0  0  0  0  0  0
  131.3960  131.3740   58.4590 C   0  0  0  0  0  0  0  0  0  0  0  0
  131.9220  131.5290   57.1790 C   0  0  0  0  0  0  0  0  0  0  0  0
  131.2340  132.2900   56.2300 C   0  0  0  0  0  0  0  0  0  0  0  0
  131.8160  132.4710   54.8400 C   0  0  0  0  0  0  0  0  0  0  0  0
  130.0250  132.9030   56.5650 C   0  0  0  0  0  0  0  0  0  0  0  0
  129.5000  132.7500   57.8450 C   0  0  0  0  0  0  0  0  0  0  0  0
  129.6640  128.8400   62.4550 C   0  0  0  0  0  0  0  0  0  0  0  0
  129.4680  127.4710   62.6120 C   0  0  0  0  0  0  0  0  0  0  0  0
  130.4150  124.2950   62.8210 N   0  0  0  0  0  0  0  0  0  0  0  0
  131.3450  124.6560   63.8180 C   0  0  0  0  0  0  0  0  0  0  0  0
  132.7130  124.5470   63.5670 C   0  0  0  0  0  0  0  0  0  0  0  0
  133.6260  124.9090   64.5540 C   0  0  0  0  0  0  0  0  0  0  0  0
  133.1840  125.3800   65.7910 C   0  0  0  0  0  0  0  0  0  0  0  0
  134.1640  125.7140   66.7070 O   0  0  0  0  0  0  0  0  0  0  0  0
  135.3660  124.9510   66.7470 C   0  0  0  0  0  0  0  0  0  0  0  0
  131.8050  125.4860   66.0350 C   0  0  0  0  0  0  0  0  0  0  0  0
  130.8890  125.1270   65.0510 C   0  0  0  0  0  0  0  0  0  0  0  0
  130.4550  123.9800   56.5820 C   0  0  0  0  0  0  0  0  0  0  0  0
  130.6550  124.8860   55.5440 C   0  0  0  0  0  0  0  0  0  0  0  0
  129.5244  128.0948   55.2143 H   0  0  0  0  0  0  0  0  0  0  0  0
  130.3635  128.4613   53.6689 H   0  0  0  0  0  0  0  0  0  0  0  0
  128.6089  128.0763   53.6689 H   0  0  0  0  0  0  0  0  0  0  0  0
  127.4414  125.9272   55.0913 H   0  0  0  0  0  0  0  0  0  0  0  0
  127.0772  124.3067   56.9372 H   0  0  0  0  0  0  0  0  0  0  0  0
  130.9290  122.5900   58.7060 H   0  0  0  0  0  0  0  0  0  0  0  0
  128.9020  121.2320   60.1210 H   0  0  0  0  0  0  0  0  0  0  0  0
  129.7121  119.8112   61.8213 H   0  0  0  0  0  0  0  0  0  0  0  0
  131.5103  119.8341   62.2057 H   0  0  0  0  0  0  0  0  0  0  0  0
  131.2193  126.3547   59.9029 H   0  0  0  0  0  0  0  0  0  0  0  0
  131.5922  128.8003   59.6393 H   0  0  0  0  0  0  0  0  0  0  0  0
  131.3960  131.1180   61.7580 H   0  0  0  0  0  0  0  0  0  0  0  0
  131.9329  130.7721   59.2070 H   0  0  0  0  0  0  0  0  0  0  0  0
  132.8779  131.0530   56.9152 H   0  0  0  0  0  0  0  0  0  0  0  0
  132.8635  132.7968   54.9207 H   0  0  0  0  0  0  0  0  0  0  0  0
  131.7698  131.5161   54.2960 H   0  0  0  0  0  0  0  0  0  0  0  0
  131.2364  133.2313   54.2960 H   0  0  0  0  0  0  0  0  0  0  0  0
  129.4880  133.5062   55.8181 H   0  0  0  0  0  0  0  0  0  0  0  0
  128.5472  133.2310   58.1111 H   0  0  0  0  0  0  0  0  0  0  0  0
  129.2210  129.5428   63.1760 H   0  0  0  0  0  0  0  0  0  0  0  0
  128.8694  127.0956   63.4550 H   0  0  0  0  0  0  0  0  0  0  0  0
  133.0686  124.1769   62.5941 H   0  0  0  0  0  0  0  0  0  0  0  0
  134.7048  124.8230   64.3570 H   0  0  0  0  0  0  0  0  0  0  0  0
  135.6508  124.7702   67.7940 H   0  0  0  0  0  0  0  0  0  0  0  0
  135.2064  123.9885   66.2390 H   0  0  0  0  0  0  0  0  0  0  0  0
  136.1691  125.5050   66.2390 H   0  0  0  0  0  0  0  0  0  0  0  0
  131.4476  125.8543   67.0079 H   0  0  0  0  0  0  0  0  0  0  0  0
  129.8095  125.2139   65.2437 H   0  0  0  0  0  0  0  0  0  0  0  0
  131.3119  123.4304   56.9988 H   0  0  0  0  0  0  0  0  0  0  0  0
  131.6687  125.0454   55.1478 H   0  0  0  0  0  0  0  0  0  0  0  0
  1  2  1  0
  2  3  1  0
  3  4  2  0
  4  5  1  0
  5  6  2  0
  6  7  1  0
  7  8  2  0
  7  9  1  0
  9 10  1  0
 10 11  1  0
 11 12  2  0
 11 13  1  0
 13 14  1  0
 14 15  1  0
 15 16  2  0
 16 17  1  0
 17 18  2  0
 18 19  1  0
 19 20  2  0
 20 21  1  0
 21 22  2  0
 22 23  1  0
 23 24  1  0
 24 25  2  0
 24 26  2  0
 24 27  1  0
 27 28  2  0
 28 29  1  0
 29 30  2  0
 30 31  1  0
 30 32  1  0
 32 33  2  0
 22 34  1  0
 34 35  2  0
 18 36  1  0
 36 37  1  0
 37 38  2  0
 38 39  1  0
 39 40  2  0
 40 41  1  0
 41 42  1  0
 40 43  1  0
 43 44  2  0
  6 45  1  0
 45 46  2  0
 46  3  1  0
 36 15  1  0
 44 37  1  0
 35 19  1  0
 33 27  1  0
  1 47  1  0
  1 48  1  0
  1 49  1  0
  4 50  1  0
  5 51  1  0
  9 52  1  0
 10 53  1  0
 13 54  1  0
 13 55  1  0
 20 56  1  0
 21 57  1  0
 23 58  1  0
 28 59  1  0
 29 60  1  0
 31 61  1  0
 31 62  1  0
 31 63  1  0
 32 64  1  0
 33 65  1  0
 34 66  1  0
 35 67  1  0
 38 68  1  0
 39 69  1  0
 42 70  1  0
 42 71  1  0
 42 72  1  0
 43 73  1  0
 44 74  1  0
 45 75  1  0
 46 76  1  0
M  END
>  <Binding energies>  (1) 
[-10.08]

>  <Ligand effiencies>  (1) 
[-0.2057142857142857]

>  <Interactions>  (1) 
["V-B:ALA:541:CB:9860, V-B:TYR:539:CE2:9844, H-B:TYR:539:O:9836, V-B:MET:535:CE:9803, V-B:TYR:539:CD2:9842, V-B:TYR:539:C:9835, V-B:TYR:539:CZ:9845, H-A:ARG:545:NE:4919, H-A:GLU:543:OE2:4905, H-A:TYR:484:OH:4343, V-A:ARG:545:CZ:4921, H-A:HIS:456:NE2:4065, V-A:GLU:543:CD:4903, V-A:LEU:363:CD1:3184, V-A:PRO:540:N:4879, V-A:TYR:539:CE1:4870, V-A:TYR:539:C:4862, V-A:TYR:539:CD1:4868, V-A:PRO:540:CA:4878, H-A:ALA:541:N:4886, V-A:PRO:540:CD:4882, V-A:ILE:538:CA:4855, V-A:PRO:540:CB:4880, V-A:ARG:545:CD:4918, V-A:GLY:454:CA:4044, V-A:ARG:545:CG:4917, V-A:GLY:453:CA:4039, V-A:GLY:453:C:4037, V-A:HIS:456:CD2:4063, V-A:LEU:475:CD2:4254, H-A:LYS:534:NZ:4818, V-A:ILE:538:CG2:4858, V-A:TYR:531:CE1:4787, V-A:TYR:531:CZ:4789, V-A:ILE:538:CD1:4860, V-A:MET:535:CG:4828, V-A:LEU:475:CD1:4253, V-A:ILE:455:C:4047"]

$$$$
RR30_Rahimova_2017
     RDKit          3D

 29 30  0  0  0  0  0  0  0  0999 V2000
  132.2530  130.4320   59.7960 C   0  0  0  0  0  0  0  0  0  0  0  0
  132.4810  131.3830   60.9800 C   0  0  0  0  0  0  0  0  0  0  0  0
  131.1940  132.0150   61.4630 C   0  0  0  0  0  0  0  0  0  0  0  0
  130.8080  132.2240   62.6970 N   0  0  0  0  0  0  0  0  0  0  0  0
  129.5530  132.8200   62.6090 N   0  0  0  0  0  0  0  0  0  0  0  0
  129.2840  132.9110   61.3320 C   0  0  0  0  0  0  0  0  0  0  0  0
  127.8410  133.5940   60.5820 S   0  0  0  0  0  0  0  0  0  0  0  0
  127.2320  132.1300   59.6870 C   0  0  0  0  0  0  0  0  0  0  0  0
  127.9750  131.9080   58.3670 C   0  0  0  0  0  0  0  0  0  0  0  0
  127.5990  131.0130   57.6070 O   0  0  0  0  0  0  0  0  0  0  0  0
  129.0390  132.7120   58.1460 N   0  0  0  0  0  0  0  0  0  0  0  0
  129.8650  132.6980   57.0310 C   0  0  0  0  0  0  0  0  0  0  0  0
  129.9890  133.6160   56.0990 N   0  0  0  0  0  0  0  0  0  0  0  0
  130.9170  133.2600   55.1280 N   0  0  0  0  0  0  0  0  0  0  0  0
  131.4720  132.0890   55.3420 C   0  0  0  0  0  0  0  0  0  0  0  0
  132.5080  131.4840   54.4230 C   0  0  0  0  0  0  0  0  0  0  0  0
  130.8870  131.3150   56.7890 S   0  0  0  0  0  0  0  0  0  0  0  0
  130.2810  132.4250   60.5480 O   0  0  0  0  0  0  0  0  0  0  0  0
  132.0121  129.4274   60.1737 H   0  0  0  0  0  0  0  0  0  0  0  0
  131.4184  130.8031   59.1831 H   0  0  0  0  0  0  0  0  0  0  0  0
  133.1652  130.3843   59.1831 H   0  0  0  0  0  0  0  0  0  0  0  0
  132.9295  130.8154   61.8087 H   0  0  0  0  0  0  0  0  0  0  0  0
  133.1465  132.1904   60.6406 H   0  0  0  0  0  0  0  0  0  0  0  0
  127.3686  131.2435   60.3237 H   0  0  0  0  0  0  0  0  0  0  0  0
  126.1700  132.2952   59.4528 H   0  0  0  0  0  0  0  0  0  0  0  0
  129.2690  133.3910   58.8570 H   0  0  0  0  0  0  0  0  0  0  0  0
  133.3040  131.0192   55.0233 H   0  0  0  0  0  0  0  0  0  0  0  0
  132.0341  130.7206   53.7884 H   0  0  0  0  0  0  0  0  0  0  0  0
  132.9400  132.2718   53.7884 H   0  0  0  0  0  0  0  0  0  0  0  0
  1  2  1  0
  2  3  1  0
  3  4  2  0
  4  5  1  0
  5  6  2  0
  6  7  1  0
  7  8  1  0
  8  9  1  0
  9 10  2  0
  9 11  1  0
 11 12  1  0
 12 13  2  0
 13 14  1  0
 14 15  2  0
 15 16  1  0
 15 17  1  0
  6 18  1  0
 18  3  1  0
 17 12  1  0
  1 19  1  0
  1 20  1  0
  1 21  1  0
  2 22  1  0
  2 23  1  0
  8 24  1  0
  8 25  1  0
 11 26  1  0
 16 27  1  0
 16 28  1  0
 16 29  1  0
M  END
>  <Binding energies>  (1) 
[-6.82]

>  <Ligand effiencies>  (1) 
[-0.3589473684210526]

>  <Interactions>  (1) 
["V-A:TYR:539:CZ:4872, V-A:LEU:363:CD1:3184, V-A:PRO:540:C:4876, V-A:PRO:540:N:4879, V-A:TYR:539:CE1:4870, V-A:TYR:539:C:4862, V-A:TYR:539:CD1:4868, V-A:PRO:540:CA:4878, V-A:TYR:539:CG:4867, H-A:ALA:541:N:4886, V-A:TYR:531:CE2:4788, V-A:PRO:540:CB:4880, V-A:TYR:539:CE2:4871, V-A:TYR:539:CD2:4869, H-A:TYR:539:N:4865, V-A:ILE:538:CD1:4860, V-A:ALA:541:CB:4887, H-A:TYR:539:OH:4873, H-A:TYR:539:O:4863"]

$$$$
RR31_Rahimova_2017
     RDKit          3D

 44 45  0  0  0  0  0  0  0  0999 V2000
  134.4300  125.3600   65.8560 C   0  0  0  0  0  0  0  0  0  0  0  0
  133.3070  125.0300   64.8810 C   0  0  0  0  0  0  0  0  0  0  0  0
  133.6120  124.3680   63.6910 C   0  0  0  0  0  0  0  0  0  0  0  0
  132.6070  124.0490   62.7800 C   0  0  0  0  0  0  0  0  0  0  0  0
  131.2650  124.3750   63.0360 C   0  0  0  0  0  0  0  0  0  0  0  0
  130.2480  124.0720   62.1280 N   0  0  0  0  0  0  0  0  0  0  0  0
  129.4210  122.8560   62.2580 C   0  0  0  0  0  0  0  0  0  0  0  0
  128.6490  122.4780   60.9720 C   0  0  0  0  0  0  0  0  0  0  0  0
  127.8140  123.5920   60.5160 N   0  0  0  0  0  0  0  0  0  0  0  0
  127.0420  123.2510   59.3170 C   0  0  0  0  0  0  0  0  0  0  0  0
  125.6180  123.8430   59.3290 C   0  0  0  0  0  0  0  0  0  0  0  0
  125.0080  123.8660   60.7390 C   0  0  0  0  0  0  0  0  0  0  0  0
  125.5660  125.0540   61.5310 N   0  0  0  0  0  0  0  0  0  0  0  0
  128.7040  124.7160   60.2250 C   0  0  0  0  0  0  0  0  0  0  0  0
  129.4670  125.1540   61.4960 C   0  0  0  0  0  0  0  0  0  0  0  0
  130.9740  125.0490   64.2310 C   0  0  0  0  0  0  0  0  0  0  0  0
  131.9750  125.3760   65.1540 C   0  0  0  0  0  0  0  0  0  0  0  0
  131.5940  126.1110   66.4330 C   0  0  0  0  0  0  0  0  0  0  0  0
  134.0635  125.2523   66.8875 H   0  0  0  0  0  0  0  0  0  0  0  0
  135.2719  124.6713   65.6923 H   0  0  0  0  0  0  0  0  0  0  0  0
  134.7655  126.3947   65.6923 H   0  0  0  0  0  0  0  0  0  0  0  0
  134.6546  124.0957   63.4702 H   0  0  0  0  0  0  0  0  0  0  0  0
  132.8691  123.5331   61.8445 H   0  0  0  0  0  0  0  0  0  0  0  0
  130.0801  122.0167   62.5248 H   0  0  0  0  0  0  0  0  0  0  0  0
  128.6670  123.0658   63.0310 H   0  0  0  0  0  0  0  0  0  0  0  0
  129.3698  122.2214   60.1817 H   0  0  0  0  0  0  0  0  0  0  0  0
  127.9983  121.6190   61.1928 H   0  0  0  0  0  0  0  0  0  0  0  0
  127.5748  123.6371   58.4354 H   0  0  0  0  0  0  0  0  0  0  0  0
  126.9430  122.1558   59.2897 H   0  0  0  0  0  0  0  0  0  0  0  0
  125.6598  124.8729   58.9448 H   0  0  0  0  0  0  0  0  0  0  0  0
  124.9827  123.2043   58.6978 H   0  0  0  0  0  0  0  0  0  0  0  0
  123.9148  123.9607   60.6617 H   0  0  0  0  0  0  0  0  0  0  0  0
  125.2651  122.9317   61.2595 H   0  0  0  0  0  0  0  0  0  0  0  0
  126.5760  125.0490   61.5010 H   0  0  0  0  0  0  0  0  0  0  0  0
  125.2700  124.9990   62.4950 H   0  0  0  0  0  0  0  0  0  0  0  0
  125.2330  125.9230   61.1380 H   0  0  0  0  0  0  0  0  0  0  0  0
  129.4291  124.4123   59.4556 H   0  0  0  0  0  0  0  0  0  0  0  0
  128.0988  125.5621   59.8674 H   0  0  0  0  0  0  0  0  0  0  0  0
  130.1576  125.9655   61.2229 H   0  0  0  0  0  0  0  0  0  0  0  0
  128.7106  125.4716   62.2288 H   0  0  0  0  0  0  0  0  0  0  0  0
  129.9325  125.3280   64.4488 H   0  0  0  0  0  0  0  0  0  0  0  0
  131.9030  125.5149   67.3043 H   0  0  0  0  0  0  0  0  0  0  0  0
  132.0994  127.0877   66.4590 H   0  0  0  0  0  0  0  0  0  0  0  0
  130.5046  126.2610   66.4590 H   0  0  0  0  0  0  0  0  0  0  0  0
  1  2  1  0
  2  3  2  0
  3  4  1  0
  4  5  2  0
  5  6  1  0
  6  7  1  0
  7  8  1  0
  8  9  1  0
  9 10  1  0
 10 11  1  0
 11 12  1  0
 12 13  1  0
  9 14  1  0
 14 15  1  0
  5 16  1  0
 16 17  2  0
 17 18  1  0
 17  2  1  0
 15  6  1  0
  1 19  1  0
  1 20  1  0
  1 21  1  0
  3 22  1  0
  4 23  1  0
  7 24  1  0
  7 25  1  0
  8 26  1  0
  8 27  1  0
 10 28  1  0
 10 29  1  0
 11 30  1  0
 11 31  1  0
 12 32  1  0
 12 33  1  0
 13 34  1  0
 13 35  1  0
 13 36  1  0
 14 37  1  0
 14 38  1  0
 15 39  1  0
 15 40  1  0
 16 41  1  0
 18 42  1  0
 18 43  1  0
 18 44  1  0
M  CHG  1  13   1
M  END
>  <Binding energies>  (1) 
[-5.76]

>  <Ligand effiencies>  (1) 
[-0.2742857142857143]

>  <Interactions>  (1) 
["V-B:ALA:541:CB:9860, V-B:PRO:540:CA:9851, V-B:PRO:540:N:9852, V-B:PRO:540:CB:9853, V-A:HIS:456:CE1:4064, V-B:GLU:543:CD:9876, V-A:ARG:545:CZ:4921, H-B:GLU:543:OE2:9878, V-A:ARG:545:CD:4918, V-A:ARG:545:CG:4917, V-A:GLY:453:CA:4039, H-B:GLU:543:OE1:9877, H-B:ASP:366:OD2:8182, H-B:ASP:366:OD1:8181"]

$$$$
RR32_Rahimova_2017
     RDKit          3D

 37 39  0  0  0  0  0  0  0  0999 V2000
  133.3580  130.4300   58.0640 C   0  0  0  0  0  0  0  0  0  0  0  0
  132.0450  131.1830   57.8760 C   0  0  0  0  0  0  0  0  0  0  0  0
  131.2430  131.4000   58.9960 C   0  0  0  0  0  0  0  0  0  0  0  0
  130.0390  132.0870   58.8620 C   0  0  0  0  0  0  0  0  0  0  0  0
  129.2460  132.3000   59.9760 N   0  0  0  0  0  0  0  0  0  0  0  0
  129.9020  132.2380   61.2950 C   0  0  0  0  0  0  0  0  0  0  0  0
  128.9050  132.3080   62.4770 C   0  0  0  0  0  0  0  0  0  0  0  0
  128.1210  133.5400   62.4030 N   0  0  0  0  0  0  0  0  0  0  0  0
  127.2040  133.6220   63.5350 C   0  0  0  0  0  0  0  0  0  0  0  0
  127.3750  133.5260   61.1470 C   0  0  0  0  0  0  0  0  0  0  0  0
  128.3470  133.4710   59.9450 C   0  0  0  0  0  0  0  0  0  0  0  0
  129.5960  132.5630   57.6700 N   0  0  0  0  0  0  0  0  0  0  0  0
  130.3550  132.3640   56.5580 C   0  0  0  0  0  0  0  0  0  0  0  0
  129.8680  132.8690   55.3280 C   0  0  0  0  0  0  0  0  0  0  0  0
  130.6010  132.6950   54.1600 C   0  0  0  0  0  0  0  0  0  0  0  0
  131.8190  132.0260   54.1850 C   0  0  0  0  0  0  0  0  0  0  0  0
  132.3260  131.5170   55.3770 C   0  0  0  0  0  0  0  0  0  0  0  0
  131.6090  131.6710   56.5990 C   0  0  0  0  0  0  0  0  0  0  0  0
  133.5628  130.3126   59.1384 H   0  0  0  0  0  0  0  0  0  0  0  0
  133.2823  129.4381   57.5946 H   0  0  0  0  0  0  0  0  0  0  0  0
  134.1759  130.9963   57.5946 H   0  0  0  0  0  0  0  0  0  0  0  0
  131.5603  131.0298   59.9820 H   0  0  0  0  0  0  0  0  0  0  0  0
  130.4596  131.2923   61.3638 H   0  0  0  0  0  0  0  0  0  0  0  0
  130.5623  133.1143   61.3726 H   0  0  0  0  0  0  0  0  0  0  0  0
  128.2273  131.4427   62.4327 H   0  0  0  0  0  0  0  0  0  0  0  0
  129.4672  132.2962   63.4224 H   0  0  0  0  0  0  0  0  0  0  0  0
  127.7750  133.5709   64.4738 H   0  0  0  0  0  0  0  0  0  0  0  0
  126.6529  134.5730   63.4923 H   0  0  0  0  0  0  0  0  0  0  0  0
  126.4929  132.7839   63.4923 H   0  0  0  0  0  0  0  0  0  0  0  0
  126.7196  132.6429   61.1242 H   0  0  0  0  0  0  0  0  0  0  0  0
  126.7732  134.4442   61.0784 H   0  0  0  0  0  0  0  0  0  0  0  0
  127.7552  133.4328   59.0185 H   0  0  0  0  0  0  0  0  0  0  0  0
  128.9794  134.3696   59.9951 H   0  0  0  0  0  0  0  0  0  0  0  0
  128.9058  133.4011   55.2968 H   0  0  0  0  0  0  0  0  0  0  0  0
  130.2143  133.0897   53.2088 H   0  0  0  0  0  0  0  0  0  0  0  0
  132.3884  131.8974   53.2527 H   0  0  0  0  0  0  0  0  0  0  0  0
  133.2914  130.9897   55.3759 H   0  0  0  0  0  0  0  0  0  0  0  0
  1  2  1  0
  2  3  2  0
  3  4  1  0
  4  5  1  0
  5  6  1  0
  6  7  1  0
  7  8  1  0
  8  9  1  0
  8 10  1  0
 10 11  1  0
  4 12  2  0
 12 13  1  0
 13 14  2  0
 14 15  1  0
 15 16  2  0
 16 17  1  0
 17 18  2  0
 18  2  1  0
 11  5  1  0
 18 13  1  0
  1 19  1  0
  1 20  1  0
  1 21  1  0
  3 22  1  0
  6 23  1  0
  6 24  1  0
  7 25  1  0
  7 26  1  0
  9 27  1  0
  9 28  1  0
  9 29  1  0
 10 30  1  0
 10 31  1  0
 11 32  1  0
 11 33  1  0
 14 34  1  0
 15 35  1  0
 16 36  1  0
 17 37  1  0
M  END
>  <Binding energies>  (1) 
[-6.48]

>  <Ligand effiencies>  (1) 
[-0.36000000000000004]

>  <Interactions>  (1) 
["V-A:LEU:363:CD1:3184, V-A:PRO:540:C:4876, V-A:PRO:540:N:4879, V-A:LEU:363:CA:3180, V-A:TYR:539:CE1:4870, V-A:TYR:539:C:4862, V-A:TYR:539:CD1:4868, V-A:PRO:540:CA:4878, V-A:ILE:538:CA:4855, V-A:TYR:531:CE2:4788, V-A:PRO:540:CB:4880, V-A:TYR:539:CE2:4871, V-A:TYR:539:CD2:4869, V-A:ILE:538:CG2:4858, V-A:TYR:531:CZ:4789, V-A:ILE:538:CD1:4860, V-A:ALA:541:CB:4887, V-B:LEU:475:CD2:9226, V-B:LEU:475:CD1:9225"]

$$$$
RR32_Rahimova_2017-again1
     RDKit          3D

 38 40  0  0  0  0  0  0  0  0999 V2000
  133.5920  122.5450   58.7640 C   0  0  0  0  0  0  0  0  0  0  0  0
  132.9430  122.7490   60.1260 C   0  0  0  0  0  0  0  0  0  0  0  0
  133.2070  123.9020   60.8650 C   0  0  0  0  0  0  0  0  0  0  0  0
  132.6060  124.0900   62.1140 C   0  0  0  0  0  0  0  0  0  0  0  0
  132.8640  125.2340   62.8770 N   0  0  0  0  0  0  0  0  0  0  0  0
  132.1070  126.4780   62.6360 C   0  0  0  0  0  0  0  0  0  0  0  0
  130.7740  126.5240   63.4210 C   0  0  0  0  0  0  0  0  0  0  0  0
  131.0900  126.4550   64.9280 N   0  0  0  0  0  0  0  0  0  0  0  0
  129.7930  126.4800   65.7600 C   0  0  0  0  0  0  0  0  0  0  0  0
  131.8920  125.1670   65.2060 C   0  0  0  0  0  0  0  0  0  0  0  0
  133.1620  125.1770   64.3240 C   0  0  0  0  0  0  0  0  0  0  0  0
  131.7790  123.1510   62.6500 N   0  0  0  0  0  0  0  0  0  0  0  0
  131.5010  122.0170   61.9520 C   0  0  0  0  0  0  0  0  0  0  0  0
  130.6240  121.0690   62.5330 C   0  0  0  0  0  0  0  0  0  0  0  0
  130.3090  119.8970   61.8520 C   0  0  0  0  0  0  0  0  0  0  0  0
  130.8520  119.6410   60.5970 C   0  0  0  0  0  0  0  0  0  0  0  0
  131.7190  120.5530   60.0000 C   0  0  0  0  0  0  0  0  0  0  0  0
  132.0630  121.7630   60.6640 C   0  0  0  0  0  0  0  0  0  0  0  0
  134.6334  122.2177   58.8994 H   0  0  0  0  0  0  0  0  0  0  0  0
  133.0364  121.7782   58.2043 H   0  0  0  0  0  0  0  0  0  0  0  0
  133.5751  123.4918   58.2043 H   0  0  0  0  0  0  0  0  0  0  0  0
  133.8898  124.6657   60.4645 H   0  0  0  0  0  0  0  0  0  0  0  0
  132.7269  127.3330   62.9436 H   0  0  0  0  0  0  0  0  0  0  0  0
  131.8643  126.5184   61.5639 H   0  0  0  0  0  0  0  0  0  0  0  0
  130.2432  127.4608   63.1959 H   0  0  0  0  0  0  0  0  0  0  0  0
  130.1367  125.6757   63.1308 H   0  0  0  0  0  0  0  0  0  0  0  0
  131.6640  127.2490   65.1720 H   0  0  0  0  0  0  0  0  0  0  0  0
  130.0442  126.4752   66.8309 H   0  0  0  0  0  0  0  0  0  0  0  0
  129.2218  127.3893   65.5215 H   0  0  0  0  0  0  0  0  0  0  0  0
  129.1872  125.5934   65.5215 H   0  0  0  0  0  0  0  0  0  0  0  0
  132.1782  125.1304   66.2675 H   0  0  0  0  0  0  0  0  0  0  0  0
  131.2787  124.2844   64.9719 H   0  0  0  0  0  0  0  0  0  0  0  0
  133.7669  126.0559   64.5915 H   0  0  0  0  0  0  0  0  0  0  0  0
  133.6982  124.2349   64.5111 H   0  0  0  0  0  0  0  0  0  0  0  0
  130.1904  121.2596   63.5258 H   0  0  0  0  0  0  0  0  0  0  0  0
  129.6251  119.1671   62.3097 H   0  0  0  0  0  0  0  0  0  0  0  0
  130.5942  118.7097   60.0714 H   0  0  0  0  0  0  0  0  0  0  0  0
  132.1409  120.3359   59.0076 H   0  0  0  0  0  0  0  0  0  0  0  0
  1  2  1  0
  2  3  2  0
  3  4  1  0
  4  5  1  0
  5  6  1  0
  6  7  1  0
  7  8  1  0
  8  9  1  0
  8 10  1  0
 10 11  1  0
  4 12  2  0
 12 13  1  0
 13 14  2  0
 14 15  1  0
 15 16  2  0
 16 17  1  0
 17 18  2  0
 18  2  1  0
 11  5  1  0
 18 13  1  0
  1 19  1  0
  1 20  1  0
  1 21  1  0
  3 22  1  0
  6 23  1  0
  6 24  1  0
  7 25  1  0
  7 26  1  0
  8 27  1  0
  9 28  1  0
  9 29  1  0
  9 30  1  0
 10 31  1  0
 10 32  1  0
 11 33  1  0
 11 34  1  0
 14 35  1  0
 15 36  1  0
 16 37  1  0
 17 38  1  0
M  CHG  1   8   1
M  END
>  <Binding energies>  (1) 
[-6.36]

>  <Ligand effiencies>  (1) 
[-0.33473684210526317]

>  <Interactions>  (1) 
["V-B:ALA:541:CB:9860, V-B:TYR:539:CE2:9844, V-A:TRP:381:CH2:3367, V-B:TYR:539:CD2:9842, V-A:ASP:366:CG:3208, H-A:GLU:543:OE2:4905, H-A:GLU:543:OE1:4904, V-A:ARG:545:CZ:4921, V-A:GLU:543:CD:4903, V-A:ILE:369:CG2:3232, V-A:ILE:369:CD1:3234, V-A:LEU:475:CD2:4254, V-A:TRP:381:CZ2:3365, V-A:LEU:475:CD1:4253, V-A:ILE:369:CB:3231, V-A:ILE:369:CG1:3233"]

$$$$
RR32_Rahimova_2017-again2
     RDKit          3D

 39 41  0  0  0  0  0  0  0  0999 V2000
  133.6260  122.7470   58.6090 C   0  0  0  0  0  0  0  0  0  0  0  0
  132.9340  122.9520   59.9510 C   0  0  0  0  0  0  0  0  0  0  0  0
  133.1470  124.1260   60.6790 C   0  0  0  0  0  0  0  0  0  0  0  0
  132.5250  124.3290   61.9180 C   0  0  0  0  0  0  0  0  0  0  0  0
  132.6990  125.5270   62.7000 N   0  0  0  0  0  0  0  0  0  0  0  0
  131.7450  126.6620   62.5790 C   0  0  0  0  0  0  0  0  0  0  0  0
  130.5180  126.4500   63.5060 C   0  0  0  0  0  0  0  0  0  0  0  0
  130.9940  126.3330   64.9740 N   0  0  0  0  0  0  0  0  0  0  0  0
  129.8080  126.0650   65.9190 C   0  0  0  0  0  0  0  0  0  0  0  0
  132.0660  125.2250   65.1020 C   0  0  0  0  0  0  0  0  0  0  0  0
  133.2130  125.5040   64.0940 C   0  0  0  0  0  0  0  0  0  0  0  0
  131.7080  123.3610   62.3800 N   0  0  0  0  0  0  0  0  0  0  0  0
  131.4380  122.1760   61.7350 C   0  0  0  0  0  0  0  0  0  0  0  0
  130.5650  121.2250   62.3100 C   0  0  0  0  0  0  0  0  0  0  0  0
  130.3120  120.0380   61.6280 C   0  0  0  0  0  0  0  0  0  0  0  0
  130.9090  119.7880   60.3950 C   0  0  0  0  0  0  0  0  0  0  0  0
  131.7730  120.7170   59.8150 C   0  0  0  0  0  0  0  0  0  0  0  0
  132.0630  121.9450   60.4740 C   0  0  0  0  0  0  0  0  0  0  0  0
  134.6683  122.4382   58.7773 H   0  0  0  0  0  0  0  0  0  0  0  0
  133.0995  121.9662   58.0405 H   0  0  0  0  0  0  0  0  0  0  0  0
  133.6097  123.6885   58.0405 H   0  0  0  0  0  0  0  0  0  0  0  0
  133.8127  124.9020   60.2733 H   0  0  0  0  0  0  0  0  0  0  0  0
  132.2552  127.5942   62.8631 H   0  0  0  0  0  0  0  0  0  0  0  0
  131.3952  126.7199   61.5377 H   0  0  0  0  0  0  0  0  0  0  0  0
  129.8336  127.3057   63.4097 H   0  0  0  0  0  0  0  0  0  0  0  0
  129.9946  125.5271   63.2158 H   0  0  0  0  0  0  0  0  0  0  0  0
  131.4280  127.2110   65.2280 H   0  0  0  0  0  0  0  0  0  0  0  0
  130.1464  126.1415   66.9629 H   0  0  0  0  0  0  0  0  0  0  0  0
  129.0173  126.8071   65.7346 H   0  0  0  0  0  0  0  0  0  0  0  0
  129.4132  125.0550   65.7346 H   0  0  0  0  0  0  0  0  0  0  0  0
  132.4691  125.2198   66.1255 H   0  0  0  0  0  0  0  0  0  0  0  0
  131.6132  124.2464   64.8843 H   0  0  0  0  0  0  0  0  0  0  0  0
  133.6678  126.4782   64.3264 H   0  0  0  0  0  0  0  0  0  0  0  0
  133.9601  124.7012   64.1802 H   0  0  0  0  0  0  0  0  0  0  0  0
  131.2550  123.5220   63.2670 H   0  0  0  0  0  0  0  0  0  0  0  0
  130.0916  121.4201   63.2836 H   0  0  0  0  0  0  0  0  0  0  0  0
  129.6344  119.2909   62.0670 H   0  0  0  0  0  0  0  0  0  0  0  0
  130.6963  118.8445   59.8709 H   0  0  0  0  0  0  0  0  0  0  0  0
  132.2340  120.4988   58.8404 H   0  0  0  0  0  0  0  0  0  0  0  0
  1  2  1  0
  2  3  2  0
  3  4  1  0
  4  5  1  0
  5  6  1  0
  6  7  1  0
  7  8  1  0
  8  9  1  0
  8 10  1  0
 10 11  1  0
  4 12  2  0
 12 13  1  0
 13 14  2  0
 14 15  1  0
 15 16  2  0
 16 17  1  0
 17 18  2  0
 18  2  1  0
 11  5  1  0
 18 13  1  0
  1 19  1  0
  1 20  1  0
  1 21  1  0
  3 22  1  0
  6 23  1  0
  6 24  1  0
  7 25  1  0
  7 26  1  0
  8 27  1  0
  9 28  1  0
  9 29  1  0
  9 30  1  0
 10 31  1  0
 10 32  1  0
 11 33  1  0
 11 34  1  0
 12 35  1  0
 14 36  1  0
 15 37  1  0
 16 38  1  0
 17 39  1  0
M  CHG  2   8   1  12   1
M  END
>  <Binding energies>  (1) 
[-6.67]

>  <Ligand effiencies>  (1) 
[-0.3335]

>  <Interactions>  (1) 
["V-B:ALA:541:CB:9860, V-B:TYR:539:CE2:9844, V-A:TRP:381:CH2:3367, V-B:TYR:539:CD2:9842, V-A:ASP:366:CG:3208, H-A:GLU:543:OE2:4905, H-A:TYR:484:OH:4343, H-A:GLU:543:OE1:4904, V-B:GLU:543:CD:9876, V-B:GLU:543:CG:9875, V-A:ARG:545:CZ:4921, V-A:GLU:543:CD:4903, V-A:ASP:366:CB:3207, V-A:ILE:369:CG2:3232, V-A:ILE:369:CD1:3234, V-A:LEU:475:CD2:4254, V-A:TRP:381:CZ2:3365, V-A:ILE:369:CB:3231"]

$$$$
RR33_Rahimova_2017
     RDKit          3D

 36 37  0  0  0  0  0  0  0  0999 V2000
  129.8500  127.5950   53.6400 C   0  0  0  0  0  0  0  0  0  0  0  0
  129.1100  126.5060   54.4230 C   0  0  0  0  0  0  0  0  0  0  0  0
  129.8840  125.3110   54.3890 O   0  0  0  0  0  0  0  0  0  0  0  0
  130.0640  124.5860   55.5510 C   0  0  0  0  0  0  0  0  0  0  0  0
  131.3360  124.6320   56.1210 C   0  0  0  0  0  0  0  0  0  0  0  0
  131.6130  123.9310   57.2920 C   0  0  0  0  0  0  0  0  0  0  0  0
  130.6170  123.1700   57.9120 C   0  0  0  0  0  0  0  0  0  0  0  0
  130.9160  122.4170   59.1680 C   0  0  0  0  0  0  0  0  0  0  0  0
  130.2280  121.4280   59.6940 N   0  0  0  0  0  0  0  0  0  0  0  0
  130.8840  121.0930   60.7940 C   0  0  0  0  0  0  0  0  0  0  0  0
  130.3950  119.9650   61.6780 C   0  0  0  0  0  0  0  0  0  0  0  0
  129.2930  119.2560   61.0430 N   0  0  0  0  0  0  0  0  0  0  0  0
  129.7680  118.0450   60.3950 C   0  0  0  0  0  0  0  0  0  0  0  0
  132.0020  121.9040   60.9370 C   0  0  0  0  0  0  0  0  0  0  0  0
  133.1220  122.0220   61.9420 C   0  0  0  0  0  0  0  0  0  0  0  0
  132.0180  122.7570   59.8870 O   0  0  0  0  0  0  0  0  0  0  0  0
  129.3400  123.1250   57.3460 C   0  0  0  0  0  0  0  0  0  0  0  0
  129.0620  123.8260   56.1740 C   0  0  0  0  0  0  0  0  0  0  0  0
  130.3251  128.2941   54.3440 H   0  0  0  0  0  0  0  0  0  0  0  0
  130.6210  127.1316   53.0069 H   0  0  0  0  0  0  0  0  0  0  0  0
  129.1353  128.1412   53.0069 H   0  0  0  0  0  0  0  0  0  0  0  0
  128.9732  126.8285   55.4657 H   0  0  0  0  0  0  0  0  0  0  0  0
  128.1233  126.3256   53.9714 H   0  0  0  0  0  0  0  0  0  0  0  0
  132.1272  125.2271   55.6415 H   0  0  0  0  0  0  0  0  0  0  0  0
  132.6204  123.9761   57.7315 H   0  0  0  0  0  0  0  0  0  0  0  0
  131.2217  119.2618   61.8570 H   0  0  0  0  0  0  0  0  0  0  0  0
  130.0422  120.3884   62.6300 H   0  0  0  0  0  0  0  0  0  0  0  0
  128.8690  119.8550   60.3480 H   0  0  0  0  0  0  0  0  0  0  0  0
  130.0567  117.3090   61.1598 H   0  0  0  0  0  0  0  0  0  0  0  0
  128.9673  117.6267   59.7674 H   0  0  0  0  0  0  0  0  0  0  0  0
  130.6395  118.2827   59.7674 H   0  0  0  0  0  0  0  0  0  0  0  0
  132.7074  121.9783   62.9599 H   0  0  0  0  0  0  0  0  0  0  0  0
  133.8315  121.1936   61.7992 H   0  0  0  0  0  0  0  0  0  0  0  0
  133.6433  122.9800   61.7992 H   0  0  0  0  0  0  0  0  0  0  0  0
  128.5490  122.5323   57.8288 H   0  0  0  0  0  0  0  0  0  0  0  0
  128.0539  123.7835   55.7358 H   0  0  0  0  0  0  0  0  0  0  0  0
  1  2  1  0
  2  3  1  0
  3  4  1  0
  4  5  2  0
  5  6  1  0
  6  7  2  0
  7  8  1  0
  8  9  2  0
  9 10  1  0
 10 11  1  0
 11 12  1  0
 12 13  1  0
 10 14  2  0
 14 15  1  0
 14 16  1  0
  7 17  1  0
 17 18  2  0
 18  4  1  0
 16  8  1  0
  1 19  1  0
  1 20  1  0
  1 21  1  0
  2 22  1  0
  2 23  1  0
  5 24  1  0
  6 25  1  0
 11 26  1  0
 11 27  1  0
 12 28  1  0
 13 29  1  0
 13 30  1  0
 13 31  1  0
 15 32  1  0
 15 33  1  0
 15 34  1  0
 17 35  1  0
 18 36  1  0
M  END
>  <Binding energies>  (1) 
[-5.37]

>  <Ligand effiencies>  (1) 
[-0.2826315789473684]

>  <Interactions>  (1) 
["V-B:ALA:541:CB:9860, V-B:TYR:539:CE2:9844, H-B:TYR:539:O:9836, V-B:MET:535:CE:9803, V-A:TRP:381:CH2:3367, V-B:TYR:539:CD2:9842, V-B:TYR:539:CE1:9843, V-B:TYR:539:C:9835, V-B:TYR:539:CZ:9845, H-B:ALA:541:N:9859, V-A:ILE:369:CD1:3234, V-A:TRP:381:CZ3:3366, V-A:LEU:475:CD2:4254, V-A:LYS:534:CD:4816, H-A:LYS:534:NZ:4818, V-A:TYR:531:CE1:4787, V-A:TYR:531:CZ:4789, V-A:MET:535:CG:4828, V-A:TRP:381:CZ2:3365, V-A:PRO:482:CG:4322, V-A:PRO:482:CB:4321, V-A:LEU:475:CD1:4253, V-A:TRP:381:CE3:3363, V-B:TYR:539:CB:9839, V-A:TRP:381:CE2:3362, V-A:TRP:381:CD2:3360"]

$$$$
RR33_Rahimova_2017-again1
     RDKit          3D

 37 38  0  0  0  0  0  0  0  0999 V2000
  128.4400  126.8650   54.9890 C   0  0  0  0  0  0  0  0  0  0  0  0
  129.7510  126.4270   54.3300 C   0  0  0  0  0  0  0  0  0  0  0  0
  129.8370  125.0060   54.3810 O   0  0  0  0  0  0  0  0  0  0  0  0
  129.7850  124.3670   55.6050 C   0  0  0  0  0  0  0  0  0  0  0  0
  130.8630  124.5780   56.4640 C   0  0  0  0  0  0  0  0  0  0  0  0
  130.8990  123.9770   57.7200 C   0  0  0  0  0  0  0  0  0  0  0  0
  129.8500  123.1490   58.1340 C   0  0  0  0  0  0  0  0  0  0  0  0
  129.8840  122.5020   59.4820 C   0  0  0  0  0  0  0  0  0  0  0  0
  129.7540  123.0840   60.6540 N   0  0  0  0  0  0  0  0  0  0  0  0
  129.8510  122.1070   61.5440 C   0  0  0  0  0  0  0  0  0  0  0  0
  129.7610  122.3890   63.0320 C   0  0  0  0  0  0  0  0  0  0  0  0
  129.5000  123.8900   63.2440 N   0  0  0  0  0  0  0  0  0  0  0  0
  130.7670  124.6940   63.5680 C   0  0  0  0  0  0  0  0  0  0  0  0
  130.0530  120.8990   60.8870 C   0  0  0  0  0  0  0  0  0  0  0  0
  130.2430  119.4640   61.3110 C   0  0  0  0  0  0  0  0  0  0  0  0
  130.0710  121.1600   59.5590 O   0  0  0  0  0  0  0  0  0  0  0  0
  128.7660  122.9350   57.2750 C   0  0  0  0  0  0  0  0  0  0  0  0
  128.7320  123.5380   56.0210 C   0  0  0  0  0  0  0  0  0  0  0  0
  128.5494  126.8284   56.0829 H   0  0  0  0  0  0  0  0  0  0  0  0
  128.1990  127.8925   54.6787 H   0  0  0  0  0  0  0  0  0  0  0  0
  127.6298  126.1887   54.6787 H   0  0  0  0  0  0  0  0  0  0  0  0
  129.7680  126.7612   53.2821 H   0  0  0  0  0  0  0  0  0  0  0  0
  130.6044  126.8728   54.8620 H   0  0  0  0  0  0  0  0  0  0  0  0
  131.6934  125.2257   56.1464 H   0  0  0  0  0  0  0  0  0  0  0  0
  131.7546  124.1539   58.3883 H   0  0  0  0  0  0  0  0  0  0  0  0
  128.9363  121.8063   63.4683 H   0  0  0  0  0  0  0  0  0  0  0  0
  130.7039  122.1037   63.5213 H   0  0  0  0  0  0  0  0  0  0  0  0
  129.0750  124.2680   62.4100 H   0  0  0  0  0  0  0  0  0  0  0  0
  128.8420  123.9970   64.0040 H   0  0  0  0  0  0  0  0  0  0  0  0
  130.8848  124.7688   64.6591 H   0  0  0  0  0  0  0  0  0  0  0  0
  131.6433  124.1863   63.1385 H   0  0  0  0  0  0  0  0  0  0  0  0
  130.6808  125.7030   63.1385 H   0  0  0  0  0  0  0  0  0  0  0  0
  130.2509  119.4042   62.4093 H   0  0  0  0  0  0  0  0  0  0  0  0
  129.4179  118.8528   60.9164 H   0  0  0  0  0  0  0  0  0  0  0  0
  131.1987  119.0885   60.9164 H   0  0  0  0  0  0  0  0  0  0  0  0
  127.9362  122.2866   57.5927 H   0  0  0  0  0  0  0  0  0  0  0  0
  127.8757  123.3639   55.3529 H   0  0  0  0  0  0  0  0  0  0  0  0
  1  2  1  0
  2  3  1  0
  3  4  1  0
  4  5  2  0
  5  6  1  0
  6  7  2  0
  7  8  1  0
  8  9  2  0
  9 10  1  0
 10 11  1  0
 11 12  1  0
 12 13  1  0
 10 14  2  0
 14 15  1  0
 14 16  1  0
  7 17  1  0
 17 18  2  0
 18  4  1  0
 16  8  1  0
  1 19  1  0
  1 20  1  0
  1 21  1  0
  2 22  1  0
  2 23  1  0
  5 24  1  0
  6 25  1  0
 11 26  1  0
 11 27  1  0
 12 28  1  0
 12 29  1  0
 13 30  1  0
 13 31  1  0
 13 32  1  0
 15 33  1  0
 15 34  1  0
 15 35  1  0
 17 36  1  0
 18 37  1  0
M  CHG  1  12   1
M  END
>  <Binding energies>  (1) 
[-6.05]

>  <Ligand effiencies>  (1) 
[-0.3025]

>  <Interactions>  (1) 
["V-B:ALA:541:CB:9860, V-B:TYR:539:CE2:9844, V-B:MET:535:CE:9803, V-B:TYR:539:CD2:9842, V-B:TYR:539:CE1:9843, V-B:TYR:539:CZ:9845, V-B:GLU:543:CD:9876, V-B:GLU:543:CG:9875, H-B:GLU:543:OE2:9878, V-A:LEU:475:CD2:4254, V-A:LYS:534:CD:4816, H-A:LYS:534:NZ:4818, V-A:TYR:531:CE1:4787, V-A:LYS:534:CE:4817"]

$$$$
RR3_Rahimova_2017
     RDKit          3D

 63 69  0  0  0  0  0  0  0  0999 V2000
  131.2170  133.1900   54.7840 C   0  0  0  0  0  0  0  0  0  0  0  0
  132.1750  132.8150   55.7190 C   0  0  0  0  0  0  0  0  0  0  0  0
  131.7850  132.1490   56.8770 C   0  0  0  0  0  0  0  0  0  0  0  0
  130.4350  131.8490   57.1160 C   0  0  0  0  0  0  0  0  0  0  0  0
  130.0170  131.1320   58.3610 C   0  0  0  0  0  0  0  0  0  0  0  0
  130.4520  129.8250   58.6210 C   0  0  0  0  0  0  0  0  0  0  0  0
  130.0600  129.1570   59.7770 C   0  0  0  0  0  0  0  0  0  0  0  0
  129.2160  129.7800   60.7000 C   0  0  0  0  0  0  0  0  0  0  0  0
  128.7860  129.0660   61.9430 C   0  0  0  0  0  0  0  0  0  0  0  0
  129.0460  129.5910   63.1350 N   0  0  0  0  0  0  0  0  0  0  0  0
  128.5220  128.7820   64.0240 C   0  0  0  0  0  0  0  0  0  0  0  0
  128.5710  128.9750   65.4710 C   0  0  0  0  0  0  0  0  0  0  0  0
  128.3140  130.1600   66.1390 C   0  0  0  0  0  0  0  0  0  0  0  0
  128.4440  129.9780   67.4910 N   0  0  0  0  0  0  0  0  0  0  0  0
  128.7920  128.6720   67.7570 C   0  0  0  0  0  0  0  0  0  0  0  0
  129.0330  128.0200   68.9710 C   0  0  0  0  0  0  0  0  0  0  0  0
  129.3730  126.6700   68.9080 C   0  0  0  0  0  0  0  0  0  0  0  0
  129.4710  125.9940   67.6960 C   0  0  0  0  0  0  0  0  0  0  0  0
  129.2310  126.6420   66.4870 C   0  0  0  0  0  0  0  0  0  0  0  0
  128.8840  128.0060   66.4940 C   0  0  0  0  0  0  0  0  0  0  0  0
  127.9190  127.7150   63.4180 N   0  0  0  0  0  0  0  0  0  0  0  0
  128.0890  127.8510   62.0640 C   0  0  0  0  0  0  0  0  0  0  0  0
  127.6120  126.8340   61.0800 C   0  0  0  0  0  0  0  0  0  0  0  0
  128.1990  125.5690   61.0400 C   0  0  0  0  0  0  0  0  0  0  0  0
  127.7650  124.6240   60.1160 C   0  0  0  0  0  0  0  0  0  0  0  0
  126.7320  124.9180   59.2140 C   0  0  0  0  0  0  0  0  0  0  0  0
  126.2820  123.9050   58.2090 C   0  0  0  0  0  0  0  0  0  0  0  0
  127.2100  123.0900   57.5430 C   0  0  0  0  0  0  0  0  0  0  0  0
  126.7900  122.1440   56.6110 C   0  0  0  0  0  0  0  0  0  0  0  0
  125.4340  122.0030   56.3340 C   0  0  0  0  0  0  0  0  0  0  0  0
  124.4960  122.8000   56.9830 C   0  0  0  0  0  0  0  0  0  0  0  0
  124.9190  123.7450   57.9140 C   0  0  0  0  0  0  0  0  0  0  0  0
  126.1390  126.1870   59.2760 C   0  0  0  0  0  0  0  0  0  0  0  0
  126.5710  127.1350   60.1990 C   0  0  0  0  0  0  0  0  0  0  0  0
  128.7870  131.0870   60.4570 C   0  0  0  0  0  0  0  0  0  0  0  0
  129.1810  131.7520   59.2990 C   0  0  0  0  0  0  0  0  0  0  0  0
  129.4860  132.2390   56.1590 C   0  0  0  0  0  0  0  0  0  0  0  0
  129.8730  132.9050   54.9990 C   0  0  0  0  0  0  0  0  0  0  0  0
  131.5242  133.7157   53.8679 H   0  0  0  0  0  0  0  0  0  0  0  0
  133.2367  133.0437   55.5443 H   0  0  0  0  0  0  0  0  0  0  0  0
  132.5452  131.8537   57.6151 H   0  0  0  0  0  0  0  0  0  0  0  0
  131.1127  129.3202   57.9008 H   0  0  0  0  0  0  0  0  0  0  0  0
  130.4163  128.1335   59.9651 H   0  0  0  0  0  0  0  0  0  0  0  0
  128.0445  131.1101   65.6546 H   0  0  0  0  0  0  0  0  0  0  0  0
  128.2950  130.7230   68.1560 H   0  0  0  0  0  0  0  0  0  0  0  0
  128.9575  128.5493   69.9323 H   0  0  0  0  0  0  0  0  0  0  0  0
  129.5693  126.1238   69.8424 H   0  0  0  0  0  0  0  0  0  0  0  0
  129.7430  124.9282   67.6927 H   0  0  0  0  0  0  0  0  0  0  0  0
  129.3117  126.0938   65.5368 H   0  0  0  0  0  0  0  0  0  0  0  0
  127.4560  126.9480   63.8850 H   0  0  0  0  0  0  0  0  0  0  0  0
  129.0080  125.3179   61.7417 H   0  0  0  0  0  0  0  0  0  0  0  0
  128.2389  123.6316   60.0924 H   0  0  0  0  0  0  0  0  0  0  0  0
  128.2829  123.1996   57.7597 H   0  0  0  0  0  0  0  0  0  0  0  0
  127.5275  121.5109   56.0960 H   0  0  0  0  0  0  0  0  0  0  0  0
  125.1013  121.2569   55.5974 H   0  0  0  0  0  0  0  0  0  0  0  0
  123.4248  122.6840   56.7615 H   0  0  0  0  0  0  0  0  0  0  0  0
  124.1754  124.3743   58.4249 H   0  0  0  0  0  0  0  0  0  0  0  0
  125.3204  126.4370   58.5851 H   0  0  0  0  0  0  0  0  0  0  0  0
  126.0911  128.1242   60.2347 H   0  0  0  0  0  0  0  0  0  0  0  0
  128.1348  131.5932   61.1840 H   0  0  0  0  0  0  0  0  0  0  0  0
  128.8309  132.7790   59.1179 H   0  0  0  0  0  0  0  0  0  0  0  0
  128.4221  132.0157   56.3273 H   0  0  0  0  0  0  0  0  0  0  0  0
  129.1190  133.2043   54.2561 H   0  0  0  0  0  0  0  0  0  0  0  0
  1  2  2  0
  2  3  1  0
  3  4  2  0
  4  5  1  0
  5  6  2  0
  6  7  1  0
  7  8  2  0
  8  9  1  0
  9 10  1  0
 10 11  2  0
 11 12  1  0
 12 13  2  0
 13 14  1  0
 14 15  1  0
 15 16  2  0
 16 17  1  0
 17 18  2  0
 18 19  1  0
 19 20  2  0
 11 21  1  0
 21 22  1  0
 22 23  1  0
 23 24  2  0
 24 25  1  0
 25 26  2  0
 26 27  1  0
 27 28  2  0
 28 29  1  0
 29 30  2  0
 30 31  1  0
 31 32  2  0
 26 33  1  0
 33 34  2  0
  8 35  1  0
 35 36  2  0
  4 37  1  0
 37 38  2  0
 38  1  1  0
 36  5  1  0
 22  9  2  0
 34 23  1  0
 20 12  1  0
 32 27  1  0
 20 15  1  0
  1 39  1  0
  2 40  1  0
  3 41  1  0
  6 42  1  0
  7 43  1  0
 13 44  1  0
 14 45  1  0
 16 46  1  0
 17 47  1  0
 18 48  1  0
 19 49  1  0
 21 50  1  0
 24 51  1  0
 25 52  1  0
 28 53  1  0
 29 54  1  0
 30 55  1  0
 31 56  1  0
 32 57  1  0
 33 58  1  0
 34 59  1  0
 35 60  1  0
 36 61  1  0
 37 62  1  0
 38 63  1  0
M  END
>  <Binding energies>  (1) 
[-9.26]

>  <Ligand effiencies>  (1) 
[-0.23149999999999998]

>  <Interactions>  (1) 
["V-B:MET:535:CE:9803, V-B:PRO:540:CD:9855, V-B:PRO:540:CA:9851, V-B:PRO:540:N:9852, V-B:PRO:540:CB:9853, V-B:TYR:539:C:9835, V-A:HIS:456:CE1:4064, V-B:GLU:543:CD:9876, V-B:GLU:543:CG:9875, V-B:GLU:543:CB:9874, V-A:GLU:543:CD:4903, H-B:GLU:543:OE2:9878, V-A:LEU:363:CD1:3184, V-A:PRO:540:N:4879, V-A:TYR:539:CE1:4870, V-A:TYR:539:CD1:4868, V-A:PRO:540:CG:4881, V-A:PRO:540:CA:4878, V-A:PRO:540:CD:4882, V-A:ILE:538:CA:4855, V-A:PRO:540:CB:4880, V-A:GLU:543:CB:4901, V-B:HIS:456:CE1:9037, V-A:ILE:538:CG2:4858, V-B:LEU:363:CD1:8156, H-B:TYR:484:OH:9315, V-A:GLU:543:CG:4902, V-A:ILE:538:CD1:4860, V-A:ILE:538:C:4853, V-A:ILE:538:CB:4857, H-A:GLU:543:O:4898, V-B:TYR:484:CZ:9314, V-B:TYR:484:CE1:9312, H-B:HIS:456:NE2:9038, V-B:PRO:540:CG:9854, V-B:ILE:538:CG2:9831, V-B:ASP:366:CG:8180, V-B:TYR:539:CA:9837, H-B:GLU:543:OE1:9877"]

$$$$
RR4_Rahimova_2017
     RDKit          3D

 66 70  0  0  0  0  0  0  0  0999 V2000
  128.4560  129.1280   72.7030 C   0  0  0  0  0  0  0  0  0  0  0  0
  127.9020  128.0130   72.0140 O   0  0  0  0  0  0  0  0  0  0  0  0
  128.1510  127.8630   70.6630 C   0  0  0  0  0  0  0  0  0  0  0  0
  129.3700  128.3490   70.1950 C   0  0  0  0  0  0  0  0  0  0  0  0
  129.7070  128.2400   68.8490 C   0  0  0  0  0  0  0  0  0  0  0  0
  128.8330  127.6430   67.9290 C   0  0  0  0  0  0  0  0  0  0  0  0
  129.1990  127.5290   66.4780 C   0  0  0  0  0  0  0  0  0  0  0  0
  130.1100  126.5810   65.9990 C   0  0  0  0  0  0  0  0  0  0  0  0
  130.4160  126.5110   64.6330 C   0  0  0  0  0  0  0  0  0  0  0  0
  131.3760  125.4540   64.1920 C   0  0  0  0  0  0  0  0  0  0  0  0
  130.9030  124.2050   63.7780 C   0  0  0  0  0  0  0  0  0  0  0  0
  131.7890  123.2190   63.3540 C   0  0  0  0  0  0  0  0  0  0  0  0
  133.1620  123.4630   63.3290 C   0  0  0  0  0  0  0  0  0  0  0  0
  133.9640  122.4260   62.8920 O   0  0  0  0  0  0  0  0  0  0  0  0
  133.5640  121.6690   61.7550 C   0  0  0  0  0  0  0  0  0  0  0  0
  133.6400  124.7170   63.7370 C   0  0  0  0  0  0  0  0  0  0  0  0
  132.7520  125.7020   64.1610 C   0  0  0  0  0  0  0  0  0  0  0  0
  129.8050  127.4400   63.7560 C   0  0  0  0  0  0  0  0  0  0  0  0
  130.0890  127.4110   62.3180 C   0  0  0  0  0  0  0  0  0  0  0  0
  130.3140  127.3880   61.1840 N   0  0  0  0  0  0  0  0  0  0  0  0
  128.9180  128.3900   64.3120 C   0  0  0  0  0  0  0  0  0  0  0  0
  128.0720  129.6370   63.3650 S   0  0  0  0  0  0  0  0  0  0  0  0
  128.9590  131.2130   63.6020 C   0  0  0  0  0  0  0  0  0  0  0  0
  129.6770  131.7350   62.3500 C   0  0  0  0  0  0  0  0  0  0  0  0
  130.6430  132.4950   62.4530 O   0  0  0  0  0  0  0  0  0  0  0  0
  129.1540  131.3070   61.1780 N   0  0  0  0  0  0  0  0  0  0  0  0
  129.5790  131.5990   59.8790 C   0  0  0  0  0  0  0  0  0  0  0  0
  128.5430  132.3360   58.6860 S   0  0  0  0  0  0  0  0  0  0  0  0
  129.8040  132.3090   57.4930 C   0  0  0  0  0  0  0  0  0  0  0  0
  130.9850  131.7450   58.0020 C   0  0  0  0  0  0  0  0  0  0  0  0
  130.8590  131.3580   59.3580 C   0  0  0  0  0  0  0  0  0  0  0  0
  131.9480  130.7640   60.1290 C   0  0  0  0  0  0  0  0  0  0  0  0
  132.8100  130.2920   60.7390 N   0  0  0  0  0  0  0  0  0  0  0  0
  132.2570  131.6440   57.1530 C   0  0  0  0  0  0  0  0  0  0  0  0
  132.1620  132.5650   55.9160 C   0  0  0  0  0  0  0  0  0  0  0  0
  130.8040  132.4410   55.2020 C   0  0  0  0  0  0  0  0  0  0  0  0
  129.6350  132.9000   56.0990 C   0  0  0  0  0  0  0  0  0  0  0  0
  128.6150  128.4150   65.6310 N   0  0  0  0  0  0  0  0  0  0  0  0
  127.6090  127.1530   68.4120 C   0  0  0  0  0  0  0  0  0  0  0  0
  127.2680  127.2610   69.7570 C   0  0  0  0  0  0  0  0  0  0  0  0
  128.3753  128.9656   73.7879 H   0  0  0  0  0  0  0  0  0  0  0  0
  129.5148  129.2405   72.4268 H   0  0  0  0  0  0  0  0  0  0  0  0
  127.9061  130.0398   72.4268 H   0  0  0  0  0  0  0  0  0  0  0  0
  130.0727  128.8233   70.8959 H   0  0  0  0  0  0  0  0  0  0  0  0
  130.6754  128.6287   68.5009 H   0  0  0  0  0  0  0  0  0  0  0  0
  130.5906  125.8840   66.7013 H   0  0  0  0  0  0  0  0  0  0  0  0
  129.8223  124.0001   63.7875 H   0  0  0  0  0  0  0  0  0  0  0  0
  131.4032  122.2392   63.0360 H   0  0  0  0  0  0  0  0  0  0  0  0
  133.0739  120.7415   62.0859 H   0  0  0  0  0  0  0  0  0  0  0  0
  132.8604  122.2598   61.1502 H   0  0  0  0  0  0  0  0  0  0  0  0
  134.4486  121.4206   61.1502 H   0  0  0  0  0  0  0  0  0  0  0  0
  134.7204  124.9230   63.7219 H   0  0  0  0  0  0  0  0  0  0  0  0
  133.1361  126.6840   64.4744 H   0  0  0  0  0  0  0  0  0  0  0  0
  128.2303  131.9725   63.9216 H   0  0  0  0  0  0  0  0  0  0  0  0
  129.7397  131.0222   64.3531 H   0  0  0  0  0  0  0  0  0  0  0  0
  128.3610  130.6850   61.2360 H   0  0  0  0  0  0  0  0  0  0  0  0
  133.1224  131.9449   57.7617 H   0  0  0  0  0  0  0  0  0  0  0  0
  132.3733  130.6046   56.8122 H   0  0  0  0  0  0  0  0  0  0  0  0
  132.2985  133.6076   56.2392 H   0  0  0  0  0  0  0  0  0  0  0  0
  132.9456  132.2600   55.2068 H   0  0  0  0  0  0  0  0  0  0  0  0
  130.8214  133.0634   54.2952 H   0  0  0  0  0  0  0  0  0  0  0  0
  130.6461  131.3810   54.9541 H   0  0  0  0  0  0  0  0  0  0  0  0
  129.6316  133.9981   56.1639 H   0  0  0  0  0  0  0  0  0  0  0  0
  128.6836  132.5559   55.6671 H   0  0  0  0  0  0  0  0  0  0  0  0
  126.9062  126.6746   67.7140 H   0  0  0  0  0  0  0  0  0  0  0  0
  126.3015  126.8722   70.1101 H   0  0  0  0  0  0  0  0  0  0  0  0
  1  2  1  0
  2  3  1  0
  3  4  2  0
  4  5  1  0
  5  6  2  0
  6  7  1  0
  7  8  2  0
  8  9  1  0
  9 10  1  0
 10 11  2  0
 11 12  1  0
 12 13  2  0
 13 14  1  0
 14 15  1  0
 13 16  1  0
 16 17  2  0
  9 18  2  0
 18 19  1  0
 19 20  3  0
 18 21  1  0
 21 22  1  0
 22 23  1  0
 23 24  1  0
 24 25  2  0
 24 26  1  0
 26 27  1  0
 27 28  1  0
 28 29  1  0
 29 30  2  0
 30 31  1  0
 31 32  1  0
 32 33  3  0
 30 34  1  0
 34 35  1  0
 35 36  1  0
 36 37  1  0
 21 38  2  0
  6 39  1  0
 39 40  2  0
 40  3  1  0
 38  7  1  0
 17 10  1  0
 31 27  2  0
 37 29  1  0
  1 41  1  0
  1 42  1  0
  1 43  1  0
  4 44  1  0
  5 45  1  0
  8 46  1  0
 11 47  1  0
 12 48  1  0
 15 49  1  0
 15 50  1  0
 15 51  1  0
 16 52  1  0
 17 53  1  0
 23 54  1  0
 23 55  1  0
 26 56  1  0
 34 57  1  0
 34 58  1  0
 35 59  1  0
 35 60  1  0
 36 61  1  0
 36 62  1  0
 37 63  1  0
 37 64  1  0
 39 65  1  0
 40 66  1  0
M  END
>  <Binding energies>  (1) 
[-10.09]

>  <Ligand effiencies>  (1) 
[-0.24609756097560975]

>  <Interactions>  (1) 
["V-B:GLU:543:C:9870, V-A:HIS:456:CE1:4064, H-A:GLY:454:N:4045, V-A:ARG:545:CZ:4921, V-B:GLU:543:CB:9874, V-A:GLU:543:CD:4903, V-A:TYR:539:CZ:4872, H-A:ARG:545:NH2:4923, V-A:LEU:363:CD1:3184, V-A:PRO:540:N:4879, V-A:TYR:539:CE1:4870, V-A:TYR:539:CD1:4868, V-A:PRO:540:CG:4881, V-A:PRO:540:CA:4878, V-A:TYR:539:CG:4867, H-A:ALA:541:N:4886, V-A:PRO:540:CD:4882, V-A:PRO:540:CB:4880, V-A:TYR:539:CE2:4871, V-A:GLY:454:CA:4044, V-A:GLU:543:CB:4901, V-B:HIS:456:CE1:9037, V-A:ILE:369:CD1:3234, V-A:LEU:475:CD2:4254, V-A:ILE:538:CG2:4858, V-A:GLU:543:CG:4902, V-B:HIS:456:CD2:9035, H-B:LYS:547:NZ:9919, V-B:GLY:544:C:9880"]

$$$$
RR5_Rahimova_2017
     RDKit          3D

 77 82  0  0  0  0  0  0  0  0999 V2000
  131.0560  122.8060   62.5210 O   0  0  0  0  0  0  0  0  0  0  0  0
  130.4790  123.7990   62.0810 C   0  0  0  0  0  0  0  0  0  0  0  0
  130.2240  125.0060   63.0030 C   0  0  0  0  0  0  0  0  0  0  0  0
  131.4930  125.8960   63.2560 C   0  0  2  0  0  0  0  0  0  0  0  0
  131.4500  127.2340   62.6340 N   0  0  0  0  0  0  0  0  0  0  0  0
  131.1150  127.4050   61.2980 C   0  0  0  0  0  0  0  0  0  0  0  0
  130.7800  126.5220   60.5040 O   0  0  0  0  0  0  0  0  0  0  0  0
  131.2300  128.7100   60.9950 O   0  0  0  0  0  0  0  0  0  0  0  0
  131.4790  129.1440   59.6610 C   0  0  0  0  0  0  0  0  0  0  0  0
  131.6360  130.6790   59.6040 C   0  0  0  0  0  0  0  0  0  0  0  0
  131.5740  131.2460   58.1970 C   0  0  0  0  0  0  0  0  0  0  0  0
  132.3710  130.9560   57.0850 C   0  0  0  0  0  0  0  0  0  0  0  0
  132.1190  131.5870   55.8660 C   0  0  0  0  0  0  0  0  0  0  0  0
  131.0760  132.5080   55.7550 C   0  0  0  0  0  0  0  0  0  0  0  0
  130.2800  132.8010   56.8650 C   0  0  0  0  0  0  0  0  0  0  0  0
  130.5340  132.1690   58.0830 C   0  0  0  0  0  0  0  0  0  0  0  0
  129.8740  132.2910   59.3930 C   0  0  0  0  0  0  0  0  0  0  0  0
  128.8010  133.0810   59.8110 C   0  0  0  0  0  0  0  0  0  0  0  0
  128.3780  133.0220   61.1400 C   0  0  0  0  0  0  0  0  0  0  0  0
  129.0230  132.1750   62.0440 C   0  0  0  0  0  0  0  0  0  0  0  0
  130.0910  131.3850   61.6200 C   0  0  0  0  0  0  0  0  0  0  0  0
  130.5170  131.4380   60.2910 C   0  0  0  0  0  0  0  0  0  0  0  0
  132.7800  125.1560   62.8140 C   0  0  0  0  0  0  0  0  0  0  0  0
  133.5710  124.6310   63.5710 O   0  0  0  0  0  0  0  0  0  0  0  0
  132.8730  125.1710   61.4520 O   0  0  0  0  0  0  0  0  0  0  0  0
  130.0590  123.9440   60.8040 N   0  0  0  0  0  0  0  0  0  0  0  0
  130.1010  123.0580   59.6020 C   0  0  0  0  0  0  0  0  0  0  0  0
  128.6730  123.2650   58.9930 C   0  0  0  0  0  0  0  0  0  0  0  0
  128.3060  122.6810   57.7690 C   0  0  0  0  0  0  0  0  0  0  0  0
  127.0330  122.8710   57.2380 C   0  0  0  0  0  0  0  0  0  0  0  0
  126.1090  123.6570   57.9180 C   0  0  0  0  0  0  0  0  0  0  0  0
  126.4440  124.2460   59.1310 C   0  0  0  0  0  0  0  0  0  0  0  0
  127.7130  124.0470   59.6660 C   0  0  0  0  0  0  0  0  0  0  0  0
  131.2370  123.5930   58.6670 C   0  0  0  0  0  0  0  0  0  0  0  0
  132.5850  123.5780   59.0600 C   0  0  0  0  0  0  0  0  0  0  0  0
  133.5770  124.0770   58.2190 C   0  0  0  0  0  0  0  0  0  0  0  0
  133.2340  124.5990   56.9760 C   0  0  0  0  0  0  0  0  0  0  0  0
  131.9060  124.6210   56.5630 C   0  0  0  0  0  0  0  0  0  0  0  0
  130.9180  124.1140   57.4000 C   0  0  0  0  0  0  0  0  0  0  0  0
  130.3280  121.6050   60.1400 C   0  0  0  0  0  0  0  0  0  0  0  0
  131.5850  120.9820   60.0350 C   0  0  0  0  0  0  0  0  0  0  0  0
  131.7910  119.6880   60.5040 C   0  0  0  0  0  0  0  0  0  0  0  0
  130.7420  118.9940   61.0950 C   0  0  0  0  0  0  0  0  0  0  0  0
  129.4930  119.5870   61.2260 C   0  0  0  0  0  0  0  0  0  0  0  0
  129.2910  120.8820   60.7550 C   0  0  0  0  0  0  0  0  0  0  0  0
  129.4469  125.6343   62.5433 H   0  0  0  0  0  0  0  0  0  0  0  0
  129.9191  124.6017   63.9795 H   0  0  0  0  0  0  0  0  0  0  0  0
  131.5009  126.0688   64.3423 H   0  0  0  0  0  0  0  0  0  0  0  0
  131.8370  128.0130   63.1470 H   0  0  0  0  0  0  0  0  0  0  0  0
  132.4034  128.6731   59.2952 H   0  0  0  0  0  0  0  0  0  0  0  0
  130.6257  128.8532   59.0306 H   0  0  0  0  0  0  0  0  0  0  0  0
  132.6141  130.8126   60.0894 H   0  0  0  0  0  0  0  0  0  0  0  0
  133.1947  130.2321   57.1710 H   0  0  0  0  0  0  0  0  0  0  0  0
  132.7440  131.3579   54.9903 H   0  0  0  0  0  0  0  0  0  0  0  0
  130.8807  133.0036   54.7926 H   0  0  0  0  0  0  0  0  0  0  0  0
  129.4573  133.5261   56.7794 H   0  0  0  0  0  0  0  0  0  0  0  0
  128.2922  133.7457   59.0974 H   0  0  0  0  0  0  0  0  0  0  0  0
  127.5351  133.6438   61.4759 H   0  0  0  0  0  0  0  0  0  0  0  0
  128.6884  132.1311   63.0909 H   0  0  0  0  0  0  0  0  0  0  0  0
  130.5987  130.7191   62.3333 H   0  0  0  0  0  0  0  0  0  0  0  0
  132.8270  126.0600   61.0940 H   0  0  0  0  0  0  0  0  0  0  0  0
  129.5180  124.7800   60.6410 H   0  0  0  0  0  0  0  0  0  0  0  0
  129.0349  122.0647   57.2223 H   0  0  0  0  0  0  0  0  0  0  0  0
  126.7587  122.4003   56.2824 H   0  0  0  0  0  0  0  0  0  0  0  0
  125.1066  123.8134   57.4929 H   0  0  0  0  0  0  0  0  0  0  0  0
  125.7098  124.8665   59.6657 H   0  0  0  0  0  0  0  0  0  0  0  0
  127.9713  124.5080   60.6308 H   0  0  0  0  0  0  0  0  0  0  0  0
  132.8606  123.1677   60.0427 H   0  0  0  0  0  0  0  0  0  0  0  0
  134.6298  124.0583   58.5372 H   0  0  0  0  0  0  0  0  0  0  0  0
  134.0183  124.9970   56.3153 H   0  0  0  0  0  0  0  0  0  0  0  0
  131.6389  125.0369   55.5803 H   0  0  0  0  0  0  0  0  0  0  0  0
  129.8700  124.1205   57.0658 H   0  0  0  0  0  0  0  0  0  0  0  0
  132.4209  121.5280   59.5734 H   0  0  0  0  0  0  0  0  0  0  0  0
  132.7801  119.2165   60.4073 H   0  0  0  0  0  0  0  0  0  0  0  0
  130.9019  117.9691   61.4611 H   0  0  0  0  0  0  0  0  0  0  0  0
  128.6669  119.0363   61.6997 H   0  0  0  0  0  0  0  0  0  0  0  0
  128.3009  121.3481   60.8664 H   0  0  0  0  0  0  0  0  0  0  0  0
  1  2  2  0
  2  3  1  0
  3  4  1  0
  4  5  1  0
  5  6  1  0
  6  7  2  0
  6  8  1  0
  8  9  1  0
  9 10  1  0
 10 11  1  0
 11 12  2  0
 12 13  1  0
 13 14  2  0
 14 15  1  0
 15 16  2  0
 16 17  1  0
 17 18  2  0
 18 19  1  0
 19 20  2  0
 20 21  1  0
 21 22  2  0
  4 23  1  0
 23 24  2  0
 23 25  1  0
  2 26  1  0
 26 27  1  0
 27 28  1  0
 28 29  2  0
 29 30  1  0
 30 31  2  0
 31 32  1  0
 32 33  2  0
 27 34  1  0
 34 35  2  0
 35 36  1  0
 36 37  2  0
 37 38  1  0
 38 39  2  0
 27 40  1  0
 40 41  2  0
 41 42  1  0
 42 43  2  0
 43 44  1  0
 44 45  2  0
 22 10  1  0
 33 28  1  0
 39 34  1  0
 45 40  1  0
 16 11  1  0
 22 17  1  0
  3 46  1  0
  3 47  1  0
  4 48  1  1
  5 49  1  0
  9 50  1  0
  9 51  1  0
 10 52  1  0
 12 53  1  0
 13 54  1  0
 14 55  1  0
 15 56  1  0
 18 57  1  0
 19 58  1  0
 20 59  1  0
 21 60  1  0
 25 61  1  0
 26 62  1  0
 29 63  1  0
 30 64  1  0
 31 65  1  0
 32 66  1  0
 33 67  1  0
 35 68  1  0
 36 69  1  0
 37 70  1  0
 38 71  1  0
 39 72  1  0
 41 73  1  0
 42 74  1  0
 43 75  1  0
 44 76  1  0
 45 77  1  0
M  END
>  <Binding energies>  (1) 
[-11.15]

>  <Ligand effiencies>  (1) 
[-0.23229166666666667]

>  <Interactions>  (1) 
["V-B:ALA:541:CB:9860, V-B:TYR:539:CE2:9844, V-B:MET:535:CE:9803, V-B:PRO:540:CA:9851, V-A:TRP:381:CH2:3367, V-B:TYR:539:CD2:9842, V-B:ALA:541:CA:9858, V-B:PRO:540:N:9852, V-B:PRO:540:CB:9853, V-B:PRO:540:C:9849, V-B:TYR:539:C:9835, V-B:TYR:539:CZ:9845, V-A:ASP:366:CG:3208, H-A:GLU:543:OE2:4905, H-A:GLY:454:N:4045, H-A:GLU:543:OE1:4904, V-A:ARG:545:CZ:4921, V-A:GLU:543:CD:4903, H-A:ARG:545:NH2:4923, V-A:LEU:363:CD1:3184, V-A:PRO:540:N:4879, V-A:TYR:539:C:4862, V-A:TYR:539:CD1:4868, V-A:ASP:366:CB:3207, V-A:PRO:540:CA:4878, V-A:PRO:540:CD:4882, H-A:ASP:366:OD2:3210, V-A:TYR:531:CE2:4788, V-A:PRO:540:CB:4880, V-A:TRP:381:CZ3:3366, V-A:LEU:475:CD2:4254, V-A:TYR:531:CE1:4787, V-A:TYR:531:CZ:4789, V-A:TRP:381:CZ2:3365, V-A:ASP:366:C:3203, V-A:ASP:366:CA:3205, H-A:ASP:366:OD1:3209"]

$$$$
RR5_Rahimova_2017-again1
     RDKit          3D

 76 81  0  0  0  0  0  0  0  0999 V2000
  128.5330  129.1280   55.9820 O   0  0  0  0  0  0  0  0  0  0  0  0
  129.5480  128.5260   56.3330 C   0  0  0  0  0  0  0  0  0  0  0  0
  129.7960  127.1050   55.7840 C   0  0  0  0  0  0  0  0  0  0  0  0
  128.8560  125.9740   56.3140 C   0  0  2  0  0  0  0  0  0  0  0  0
  129.0210  125.8520   57.7770 N   0  0  0  0  0  0  0  0  0  0  0  0
  128.0790  125.2030   58.5680 C   0  0  0  0  0  0  0  0  0  0  0  0
  127.0250  124.6900   58.1810 O   0  0  0  0  0  0  0  0  0  0  0  0
  128.5010  125.2220   59.8460 O   0  0  0  0  0  0  0  0  0  0  0  0
  129.7180  124.5860   60.2230 C   0  0  0  0  0  0  0  0  0  0  0  0
  130.0490  123.4490   59.2380 C   0  0  0  0  0  0  0  0  0  0  0  0
  131.3940  123.6130   58.5530 C   0  0  0  0  0  0  0  0  0  0  0  0
  131.8580  124.6480   57.7370 C   0  0  0  0  0  0  0  0  0  0  0  0
  133.1540  124.5990   57.2190 C   0  0  0  0  0  0  0  0  0  0  0  0
  133.9850  123.5160   57.5110 C   0  0  0  0  0  0  0  0  0  0  0  0
  133.5230  122.4780   58.3210 C   0  0  0  0  0  0  0  0  0  0  0  0
  132.2270  122.5300   58.8390 C   0  0  0  0  0  0  0  0  0  0  0  0
  131.4890  121.5880   59.6940 C   0  0  0  0  0  0  0  0  0  0  0  0
  131.8620  120.3600   60.2430 C   0  0  0  0  0  0  0  0  0  0  0  0
  130.9500  119.6460   61.0230 C   0  0  0  0  0  0  0  0  0  0  0  0
  129.6720  120.1600   61.2530 C   0  0  0  0  0  0  0  0  0  0  0  0
  129.3020  121.3890   60.7040 C   0  0  0  0  0  0  0  0  0  0  0  0
  130.2140  122.1080   59.9250 C   0  0  0  0  0  0  0  0  0  0  0  0
  129.1100  124.5970   55.5760 C   0  0  0  0  0  0  0  0  0  0  0  0
  129.4770  124.7110   54.3830 O   0  0  0  0  0  0  0  0  0  0  0  0
  128.9610  123.5540   56.2570 O   0  0  0  0  0  0  0  0  0  0  0  0
  130.5170  129.0960   57.0800 N   0  0  0  0  0  0  0  0  0  0  0  0
  130.5550  130.4370   57.7170 C   0  0  0  0  0  0  0  0  0  0  0  0
  129.2290  130.6990   58.4980 C   0  0  0  0  0  0  0  0  0  0  0  0
  128.7070  131.9990   58.6220 C   0  0  0  0  0  0  0  0  0  0  0  0
  127.5190  132.2330   59.3070 C   0  0  0  0  0  0  0  0  0  0  0  0
  126.8300  131.1670   59.8750 C   0  0  0  0  0  0  0  0  0  0  0  0
  127.3210  129.8700   59.7640 C   0  0  0  0  0  0  0  0  0  0  0  0
  128.5110  129.6380   59.0800 C   0  0  0  0  0  0  0  0  0  0  0  0
  131.6640  130.6290   58.8010 C   0  0  0  0  0  0  0  0  0  0  0  0
  131.3600  131.1910   60.0530 C   0  0  0  0  0  0  0  0  0  0  0  0
  132.3450  131.3650   61.0200 C   0  0  0  0  0  0  0  0  0  0  0  0
  133.6520  130.9710   60.7510 C   0  0  0  0  0  0  0  0  0  0  0  0
  133.9780  130.4020   59.5240 C   0  0  0  0  0  0  0  0  0  0  0  0
  132.9890  130.2300   58.5580 C   0  0  0  0  0  0  0  0  0  0  0  0
  130.6910  131.4300   56.5110 C   0  0  0  0  0  0  0  0  0  0  0  0
  129.5750  131.8340   55.7570 C   0  0  0  0  0  0  0  0  0  0  0  0
  129.7090  132.7300   54.7010 C   0  0  0  0  0  0  0  0  0  0  0  0
  130.9610  133.2490   54.3910 C   0  0  0  0  0  0  0  0  0  0  0  0
  132.0780  132.8850   55.1350 C   0  0  0  0  0  0  0  0  0  0  0  0
  131.9410  131.9870   56.1900 C   0  0  0  0  0  0  0  0  0  0  0  0
  129.6845  127.1460   54.6904 H   0  0  0  0  0  0  0  0  0  0  0  0
  130.8027  126.8317   56.1331 H   0  0  0  0  0  0  0  0  0  0  0  0
  127.8136  126.2473   56.0932 H   0  0  0  0  0  0  0  0  0  0  0  0
  129.8740  126.1950   58.1980 H   0  0  0  0  0  0  0  0  0  0  0  0
  130.5329  125.3248   60.2127 H   0  0  0  0  0  0  0  0  0  0  0  0
  129.6063  124.1656   61.2333 H   0  0  0  0  0  0  0  0  0  0  0  0
  129.2001  123.4909   58.5397 H   0  0  0  0  0  0  0  0  0  0  0  0
  131.2033  125.5004   57.5029 H   0  0  0  0  0  0  0  0  0  0  0  0
  133.5207  125.4155   56.5796 H   0  0  0  0  0  0  0  0  0  0  0  0
  135.0055  123.4809   57.1019 H   0  0  0  0  0  0  0  0  0  0  0  0
  134.1762  121.6232   58.5504 H   0  0  0  0  0  0  0  0  0  0  0  0
  132.8693  119.9568   60.0621 H   0  0  0  0  0  0  0  0  0  0  0  0
  131.2386  118.6773   61.4569 H   0  0  0  0  0  0  0  0  0  0  0  0
  128.9556  119.5954   61.8679 H   0  0  0  0  0  0  0  0  0  0  0  0
  128.2942  121.7914   60.8840 H   0  0  0  0  0  0  0  0  0  0  0  0
  131.2730  128.4880   57.3610 H   0  0  0  0  0  0  0  0  0  0  0  0
  129.2467  132.8443   58.1701 H   0  0  0  0  0  0  0  0  0  0  0  0
  127.1265  133.2565   59.3989 H   0  0  0  0  0  0  0  0  0  0  0  0
  125.8900  131.3505   60.4160 H   0  0  0  0  0  0  0  0  0  0  0  0
  126.7709  129.0310   60.2151 H   0  0  0  0  0  0  0  0  0  0  0  0
  128.8954  128.6110   58.9933 H   0  0  0  0  0  0  0  0  0  0  0  0
  130.3267  131.4982   60.2717 H   0  0  0  0  0  0  0  0  0  0  0  0
  132.0917  131.8120   61.9926 H   0  0  0  0  0  0  0  0  0  0  0  0
  134.4326  131.1103   61.5134 H   0  0  0  0  0  0  0  0  0  0  0  0
  135.0122  130.0893   59.3175 H   0  0  0  0  0  0  0  0  0  0  0  0
  133.2493  129.7751   57.5909 H   0  0  0  0  0  0  0  0  0  0  0  0
  128.5804  131.4354   56.0059 H   0  0  0  0  0  0  0  0  0  0  0  0
  128.8276  133.0267   54.1135 H   0  0  0  0  0  0  0  0  0  0  0  0
  131.0687  133.9520   53.5519 H   0  0  0  0  0  0  0  0  0  0  0  0
  133.0651  133.3046   54.8911 H   0  0  0  0  0  0  0  0  0  0  0  0
  132.8254  131.7088   56.7820 H   0  0  0  0  0  0  0  0  0  0  0  0
  1  2  2  0
  2  3  1  0
  3  4  1  0
  4  5  1  0
  5  6  1  0
  6  7  2  0
  6  8  1  0
  8  9  1  0
  9 10  1  0
 10 11  1  0
 11 12  2  0
 12 13  1  0
 13 14  2  0
 14 15  1  0
 15 16  2  0
 16 17  1  0
 17 18  2  0
 18 19  1  0
 19 20  2  0
 20 21  1  0
 21 22  2  0
  4 23  1  0
 23 24  2  0
 23 25  1  0
  2 26  1  0
 26 27  1  0
 27 28  1  0
 28 29  2  0
 29 30  1  0
 30 31  2  0
 31 32  1  0
 32 33  2  0
 27 34  1  0
 34 35  2  0
 35 36  1  0
 36 37  2  0
 37 38  1  0
 38 39  2  0
 27 40  1  0
 40 41  2  0
 41 42  1  0
 42 43  2  0
 43 44  1  0
 44 45  2  0
 22 10  1  0
 33 28  1  0
 39 34  1  0
 45 40  1  0
 16 11  1  0
 22 17  1  0
  3 46  1  0
  3 47  1  0
  4 48  1  1
  5 49  1  0
  9 50  1  0
  9 51  1  0
 10 52  1  0
 12 53  1  0
 13 54  1  0
 14 55  1  0
 15 56  1  0
 18 57  1  0
 19 58  1  0
 20 59  1  0
 21 60  1  0
 26 61  1  0
 29 62  1  0
 30 63  1  0
 31 64  1  0
 32 65  1  0
 33 66  1  0
 35 67  1  0
 36 68  1  0
 37 69  1  0
 38 70  1  0
 39 71  1  0
 41 72  1  0
 42 73  1  0
 43 74  1  0
 44 75  1  0
 45 76  1  0
M  CHG  1  25  -1
M  END
>  <Binding energies>  (1) 
[-11.0]

>  <Ligand effiencies>  (1) 
[-0.23404255319148937]

>  <Interactions>  (1) 
["V-B:ALA:541:CB:9860, V-B:TYR:539:CE2:9844, V-B:MET:535:CE:9803, V-A:TRP:381:CH2:3367, V-B:TYR:539:CD2:9842, V-B:ALA:541:CA:9858, V-B:TYR:539:CZ:9845, V-A:ASP:366:CG:3208, V-A:TYR:539:CZ:4872, V-A:LEU:363:CD1:3184, V-A:LEU:363:CA:3180, V-A:TYR:539:CE1:4870, V-A:ASN:362:C:3167, V-A:TYR:539:CD1:4868, V-A:ASP:366:CB:3207, V-A:PRO:540:CA:4878, H-A:TYR:531:OH:4790, V-A:PRO:540:CD:4882, V-A:ILE:538:CA:4855, V-A:TYR:531:CE2:4788, V-A:PRO:540:CB:4880, V-A:TYR:539:CE2:4871, V-A:TYR:539:CD2:4869, V-A:ILE:369:CG2:3232, V-A:ILE:369:CD1:3234, V-A:LEU:475:CD2:4254, H-A:LYS:534:NZ:4818, V-A:ILE:538:CG2:4858, V-A:TYR:531:CE1:4787, V-A:TYR:531:CZ:4789, V-A:ILE:538:CD1:4860, V-A:ILE:538:C:4853, V-A:VAL:537:C:4845, V-A:ILE:538:CB:4857, V-A:TRP:381:CZ2:3365, V-A:ASP:366:C:3203, V-A:ASN:362:CB:3171, V-A:ILE:369:CB:3231, V-A:ASP:366:CA:3205, V-A:ILE:538:CG1:4859"]

$$$$
RR6_Rahimova_2017
     RDKit          3D

 63 66  0  0  0  0  0  0  0  0999 V2000
  129.5200  132.8320   54.8530 C   0  0  0  0  0  0  0  0  0  0  0  0
  130.0650  133.2470   56.0970 O   0  0  0  0  0  0  0  0  0  0  0  0
  131.3100  132.8610   56.4780 C   0  0  0  0  0  0  0  0  0  0  0  0
  132.3390  133.2140   55.8930 O   0  0  0  0  0  0  0  0  0  0  0  0
  131.3120  131.9640   57.6820 C   0  0  0  0  0  0  0  0  0  0  0  0
  130.2710  131.9790   58.6220 C   0  0  0  0  0  0  0  0  0  0  0  0
  130.3050  131.1390   59.7330 C   0  0  0  0  0  0  0  0  0  0  0  0
  131.3890  130.2690   59.9240 C   0  0  0  0  0  0  0  0  0  0  0  0
  131.5380  129.4020   61.0220 N   0  0  0  0  0  0  0  0  0  0  0  0
  130.9130  128.2320   61.2800 C   0  0  0  0  0  0  0  0  0  0  0  0
  130.0730  127.6970   60.5570 O   0  0  0  0  0  0  0  0  0  0  0  0
  131.2590  127.5790   62.6230 C   0  0  0  0  0  0  0  0  0  0  0  0
  129.9370  126.5080   63.2800 S   0  0  0  0  0  0  0  0  0  0  0  0
  129.1260  127.4270   64.5720 C   0  0  0  0  0  0  0  0  0  0  0  0
  128.2860  128.3920   64.1270 N   0  0  0  0  0  0  0  0  0  0  0  0
  127.5880  129.1400   65.0180 C   0  0  0  0  0  0  0  0  0  0  0  0
  126.6330  130.1450   64.4430 C   0  0  0  0  0  0  0  0  0  0  0  0
  125.2490  130.0210   64.6380 C   0  0  0  0  0  0  0  0  0  0  0  0
  124.3630  130.9460   64.0930 C   0  0  0  0  0  0  0  0  0  0  0  0
  124.8460  132.0190   63.3450 C   0  0  0  0  0  0  0  0  0  0  0  0
  123.8760  133.0200   62.7450 C   0  0  0  0  0  0  0  0  0  0  0  0
  126.2170  132.1610   63.1420 C   0  0  0  0  0  0  0  0  0  0  0  0
  127.0980  131.2350   63.6890 C   0  0  0  0  0  0  0  0  0  0  0  0
  127.7350  128.9360   66.3940 C   0  0  0  0  0  0  0  0  0  0  0  0
  128.6020  127.9460   66.8790 C   0  0  0  0  0  0  0  0  0  0  0  0
  128.6970  127.7700   68.3590 C   0  0  0  0  0  0  0  0  0  0  0  0
  129.8430  128.1850   69.0440 C   0  0  0  0  0  0  0  0  0  0  0  0
  129.9340  128.0390   70.4260 C   0  0  0  0  0  0  0  0  0  0  0  0
  128.8810  127.4800   71.1490 C   0  0  0  0  0  0  0  0  0  0  0  0
  129.0580  127.3760   72.5160 O   0  0  0  0  0  0  0  0  0  0  0  0
  130.3740  127.2160   73.0340 C   0  0  0  0  0  0  0  0  0  0  0  0
  127.7270  127.0660   70.4670 C   0  0  0  0  0  0  0  0  0  0  0  0
  127.6390  127.2150   69.0860 C   0  0  0  0  0  0  0  0  0  0  0  0
  129.3270  127.1690   65.9430 C   0  0  0  0  0  0  0  0  0  0  0  0
  130.2720  126.1370   66.3830 C   0  0  0  0  0  0  0  0  0  0  0  0
  131.0160  125.3220   66.7310 N   0  0  0  0  0  0  0  0  0  0  0  0
  132.4180  130.2390   58.9820 C   0  0  0  0  0  0  0  0  0  0  0  0
  132.3830  131.0820   57.8740 C   0  0  0  0  0  0  0  0  0  0  0  0
  128.6565  132.1745   55.0321 H   0  0  0  0  0  0  0  0  0  0  0  0
  129.1966  133.7146   54.2817 H   0  0  0  0  0  0  0  0  0  0  0  0
  130.2848  132.2855   54.2817 H   0  0  0  0  0  0  0  0  0  0  0  0
  129.4194  132.6607   58.4806 H   0  0  0  0  0  0  0  0  0  0  0  0
  129.4809  131.1579   60.4614 H   0  0  0  0  0  0  0  0  0  0  0  0
  132.1390  129.7550   61.7520 H   0  0  0  0  0  0  0  0  0  0  0  0
  132.1652  126.9699   62.4897 H   0  0  0  0  0  0  0  0  0  0  0  0
  131.4033  128.3932   63.3485 H   0  0  0  0  0  0  0  0  0  0  0  0
  124.8584  129.1804   65.2303 H   0  0  0  0  0  0  0  0  0  0  0  0
  123.2808  130.8304   64.2526 H   0  0  0  0  0  0  0  0  0  0  0  0
  123.3563  133.5563   63.5526 H   0  0  0  0  0  0  0  0  0  0  0  0
  124.4293  133.7396   62.1237 H   0  0  0  0  0  0  0  0  0  0  0  0
  123.1393  132.4896   62.1237 H   0  0  0  0  0  0  0  0  0  0  0  0
  126.6018  133.0044   62.5499 H   0  0  0  0  0  0  0  0  0  0  0  0
  128.1792  131.3582   63.5283 H   0  0  0  0  0  0  0  0  0  0  0  0
  127.1660  129.5571   67.1014 H   0  0  0  0  0  0  0  0  0  0  0  0
  130.6800  128.6307   68.4865 H   0  0  0  0  0  0  0  0  0  0  0  0
  130.8433  128.3671   70.9510 H   0  0  0  0  0  0  0  0  0  0  0  0
  130.3383  127.2203   74.1334 H   0  0  0  0  0  0  0  0  0  0  0  0
  130.7920  126.2604   72.6845 H   0  0  0  0  0  0  0  0  0  0  0  0
  131.0088  128.0436   72.6845 H   0  0  0  0  0  0  0  0  0  0  0  0
  126.8894  126.6224   71.0253 H   0  0  0  0  0  0  0  0  0  0  0  0
  126.7277  126.8929   68.5608 H   0  0  0  0  0  0  0  0  0  0  0  0
  133.2615  129.5457   59.1153 H   0  0  0  0  0  0  0  0  0  0  0  0
  133.2043  131.0549   57.1427 H   0  0  0  0  0  0  0  0  0  0  0  0
  1  2  1  0
  2  3  1  0
  3  4  2  0
  3  5  1  0
  5  6  2  0
  6  7  1  0
  7  8  2  0
  8  9  1  0
  9 10  1  0
 10 11  2  0
 10 12  1  0
 12 13  1  0
 13 14  1  0
 14 15  2  0
 15 16  1  0
 16 17  1  0
 17 18  2  0
 18 19  1  0
 19 20  2  0
 20 21  1  0
 20 22  1  0
 22 23  2  0
 16 24  2  0
 24 25  1  0
 25 26  1  0
 26 27  2  0
 27 28  1  0
 28 29  2  0
 29 30  1  0
 30 31  1  0
 29 32  1  0
 32 33  2  0
 25 34  2  0
 34 35  1  0
 35 36  3  0
  8 37  1  0
 37 38  2  0
 38  5  1  0
 34 14  1  0
 23 17  1  0
 33 26  1  0
  1 39  1  0
  1 40  1  0
  1 41  1  0
  6 42  1  0
  7 43  1  0
  9 44  1  0
 12 45  1  0
 12 46  1  0
 18 47  1  0
 19 48  1  0
 21 49  1  0
 21 50  1  0
 21 51  1  0
 22 52  1  0
 23 53  1  0
 24 54  1  0
 27 55  1  0
 28 56  1  0
 31 57  1  0
 31 58  1  0
 31 59  1  0
 32 60  1  0
 33 61  1  0
 37 62  1  0
 38 63  1  0
M  END
>  <Binding energies>  (1) 
[-9.84]

>  <Ligand effiencies>  (1) 
[-0.2523076923076923]

>  <Interactions>  (1) 
["V-B:GLU:543:C:9870, V-A:HIS:456:CE1:4064, H-A:GLU:543:OE2:4905, H-A:TYR:484:OH:4343, V-B:GLU:543:CD:9876, H-A:HIS:456:NE2:4065, V-B:GLU:543:CB:9874, V-A:GLU:543:CD:4903, V-A:LEU:363:CD1:3184, V-A:PRO:540:N:4879, V-A:TYR:539:CE1:4870, V-A:TYR:539:CD1:4868, V-A:PRO:540:CG:4881, V-A:PRO:540:CA:4878, V-A:PRO:540:CD:4882, V-A:ILE:538:CA:4855, H-A:ASP:366:OD2:3210, V-A:PRO:540:CB:4880, V-A:GLU:543:CB:4901, V-B:HIS:456:CE1:9037, H-A:TYR:539:N:4865, V-B:GLY:454:CA:9016, V-A:LYS:547:CE:4945, H-B:LYS:547:NZ:9919, V-B:GLY:544:C:9880, V-B:LEU:475:CD2:9226, V-B:ILE:369:CD1:8206"]

$$$$
RR7_Rahimova_2017
     RDKit          3D

 80 86  0  0  0  0  0  0  0  0999 V2000
  124.6490  132.9490   60.7620 C   0  0  0  0  0  0  0  0  0  0  0  0
  125.9060  133.5700   60.5100 O   0  0  0  0  0  0  0  0  0  0  0  0
  126.9100  132.8360   59.9090 C   0  0  0  0  0  0  0  0  0  0  0  0
  128.1900  133.3860   59.9430 C   0  0  0  0  0  0  0  0  0  0  0  0
  129.2660  132.7170   59.3680 C   0  0  0  0  0  0  0  0  0  0  0  0
  129.0840  131.4810   58.7320 C   0  0  0  0  0  0  0  0  0  0  0  0
  130.2770  130.6920   58.1080 C   0  0  0  0  0  0  0  0  0  0  0  0
  129.8230  129.3310   57.9410 O   0  0  0  0  0  0  0  0  0  0  0  0
  129.6560  128.4860   59.0850 C   0  0  0  0  0  0  0  0  0  0  0  0
  130.9660  127.7220   59.3380 C   0  0  1  0  0  0  0  0  0  0  0  0
  131.2320  127.8110   60.7350 O   0  0  0  0  0  0  0  0  0  0  0  0
  131.3130  126.5500   61.3340 C   0  0  1  0  0  0  0  0  0  0  0  0
  130.8160  126.6110   62.6960 N   0  0  0  0  0  0  0  0  0  0  0  0
  129.6830  127.2530   63.1620 C   0  0  0  0  0  0  0  0  0  0  0  0
  129.4930  127.1870   64.4570 N   0  0  0  0  0  0  0  0  0  0  0  0
  130.5840  126.4970   64.9120 C   0  0  0  0  0  0  0  0  0  0  0  0
  130.9810  126.1090   66.2060 C   0  0  0  0  0  0  0  0  0  0  0  0
  130.1520  126.4400   67.2950 N   0  0  0  0  0  0  0  0  0  0  0  0
  130.3050  127.4220   68.2140 C   0  0  0  0  0  0  0  0  0  0  0  0
  131.2590  128.2040   68.2440 O   0  0  0  0  0  0  0  0  0  0  0  0
  129.2240  127.5040   69.2710 C   0  0  0  0  0  0  0  0  0  0  0  0
  127.9000  127.1810   68.9360 C   0  0  0  0  0  0  0  0  0  0  0  0
  126.8920  127.2440   69.8940 C   0  0  0  0  0  0  0  0  0  0  0  0
  127.1990  127.6260   71.1960 C   0  0  0  0  0  0  0  0  0  0  0  0
  128.5070  127.9470   71.5490 C   0  0  0  0  0  0  0  0  0  0  0  0
  129.5170  127.8850   70.5920 C   0  0  0  0  0  0  0  0  0  0  0  0
  132.1550  125.4280   66.3680 N   0  0  0  0  0  0  0  0  0  0  0  0
  132.8900  125.1580   65.2580 C   0  0  0  0  0  0  0  0  0  0  0  0
  132.6010  125.4810   63.9690 N   0  0  0  0  0  0  0  0  0  0  0  0
  131.4420  126.1410   63.8400 C   0  0  0  0  0  0  0  0  0  0  0  0
  130.5400  125.6160   60.4090 C   0  0  0  0  0  0  0  0  0  0  0  0
  130.9020  126.2130   59.0600 C   0  0  2  0  0  0  0  0  0  0  0  0
  132.1270  125.7020   58.5630 O   0  0  0  0  0  0  0  0  0  0  0  0
  130.6590  131.2180   56.6980 C   0  0  0  0  0  0  0  0  0  0  0  0
  130.7420  130.3330   55.6110 C   0  0  0  0  0  0  0  0  0  0  0  0
  131.0970  130.7900   54.3460 C   0  0  0  0  0  0  0  0  0  0  0  0
  131.3740  132.1400   54.1550 C   0  0  0  0  0  0  0  0  0  0  0  0
  131.2990  133.0350   55.2170 C   0  0  0  0  0  0  0  0  0  0  0  0
  130.9450  132.5760   56.4830 C   0  0  0  0  0  0  0  0  0  0  0  0
  131.5980  130.7020   58.9290 C   0  0  0  0  0  0  0  0  0  0  0  0
  132.8170  130.3720   58.3170 C   0  0  0  0  0  0  0  0  0  0  0  0
  134.0030  130.3680   59.0450 C   0  0  0  0  0  0  0  0  0  0  0  0
  133.9800  130.6870   60.4000 C   0  0  0  0  0  0  0  0  0  0  0  0
  132.7810  131.0040   61.0300 C   0  0  0  0  0  0  0  0  0  0  0  0
  131.5970  131.0070   60.3000 C   0  0  0  0  0  0  0  0  0  0  0  0
  127.7960  130.9240   58.7130 C   0  0  0  0  0  0  0  0  0  0  0  0
  126.7200  131.5930   59.2880 C   0  0  0  0  0  0  0  0  0  0  0  0
  124.4899  132.8704   61.8476 H   0  0  0  0  0  0  0  0  0  0  0  0
  123.8454  133.5538   60.3165 H   0  0  0  0  0  0  0  0  0  0  0  0
  124.6410  131.9433   60.3165 H   0  0  0  0  0  0  0  0  0  0  0  0
  128.3514  134.3593   60.4295 H   0  0  0  0  0  0  0  0  0  0  0  0
  130.2706  133.1629   59.4130 H   0  0  0  0  0  0  0  0  0  0  0  0
  129.4112  129.0998   59.9644 H   0  0  0  0  0  0  0  0  0  0  0  0
  128.8385  127.7726   58.9041 H   0  0  0  0  0  0  0  0  0  0  0  0
  131.7137  128.1695   58.6667 H   0  0  0  0  0  0  0  0  0  0  0  0
  132.3412  126.1746   61.4432 H   0  0  0  0  0  0  0  0  0  0  0  0
  128.9894  127.7823   62.4921 H   0  0  0  0  0  0  0  0  0  0  0  0
  129.3360  125.8540   67.3930 H   0  0  0  0  0  0  0  0  0  0  0  0
  127.6567  126.8755   67.9077 H   0  0  0  0  0  0  0  0  0  0  0  0
  125.8561  126.9926   69.6224 H   0  0  0  0  0  0  0  0  0  0  0  0
  126.4020  127.6748   71.9526 H   0  0  0  0  0  0  0  0  0  0  0  0
  128.7419  128.2486   72.5804 H   0  0  0  0  0  0  0  0  0  0  0  0
  130.5508  128.1358   70.8717 H   0  0  0  0  0  0  0  0  0  0  0  0
  133.8314  124.6130   65.4213 H   0  0  0  0  0  0  0  0  0  0  0  0
  130.8850  124.5755   60.4998 H   0  0  0  0  0  0  0  0  0  0  0  0
  129.4606  125.5553   60.6119 H   0  0  0  0  0  0  0  0  0  0  0  0
  130.1728  125.9629   58.2753 H   0  0  0  0  0  0  0  0  0  0  0  0
  132.1770  125.8870   57.6220 H   0  0  0  0  0  0  0  0  0  0  0  0
  130.5237  129.2655   55.7616 H   0  0  0  0  0  0  0  0  0  0  0  0
  131.1584  130.0879   53.5014 H   0  0  0  0  0  0  0  0  0  0  0  0
  131.6548  132.5027   53.1552 H   0  0  0  0  0  0  0  0  0  0  0  0
  131.5184  134.1010   55.0574 H   0  0  0  0  0  0  0  0  0  0  0  0
  130.8888  133.2840   57.3230 H   0  0  0  0  0  0  0  0  0  0  0  0
  132.8353  130.1132   57.2480 H   0  0  0  0  0  0  0  0  0  0  0  0
  134.9533  130.1142   58.5526 H   0  0  0  0  0  0  0  0  0  0  0  0
  134.9168  130.6884   60.9766 H   0  0  0  0  0  0  0  0  0  0  0  0
  132.7692  131.2514   62.1017 H   0  0  0  0  0  0  0  0  0  0  0  0
  130.6492  131.2510   60.8021 H   0  0  0  0  0  0  0  0  0  0  0  0
  127.6350  129.9454   58.2372 H   0  0  0  0  0  0  0  0  0  0  0  0
  125.7159  131.1450   59.2554 H   0  0  0  0  0  0  0  0  0  0  0  0
  1  2  1  0
  2  3  1  0
  3  4  2  0
  4  5  1  0
  5  6  2  0
  6  7  1  0
  7  8  1  0
  8  9  1  0
  9 10  1  0
 10 11  1  0
 11 12  1  0
 12 13  1  0
 13 14  1  0
 14 15  2  0
 15 16  1  0
 16 17  2  0
 17 18  1  0
 18 19  1  0
 19 20  2  0
 19 21  1  0
 21 22  2  0
 22 23  1  0
 23 24  2  0
 24 25  1  0
 25 26  2  0
 17 27  1  0
 27 28  2  0
 28 29  1  0
 29 30  2  0
 12 31  1  0
 31 32  1  0
 32 33  1  0
  7 34  1  0
 34 35  2  0
 35 36  1  0
 36 37  2  0
 37 38  1  0
 38 39  2  0
  7 40  1  0
 40 41  2  0
 41 42  1  0
 42 43  2  0
 43 44  1  0
 44 45  2  0
  6 46  1  0
 46 47  2  0
 47  3  1  0
 32 10  1  0
 39 34  1  0
 45 40  1  0
 30 13  1  0
 30 16  1  0
 26 21  1  0
  1 48  1  0
  1 49  1  0
  1 50  1  0
  4 51  1  0
  5 52  1  0
  9 53  1  0
  9 54  1  0
 10 55  1  6
 12 56  1  1
 14 57  1  0
 18 58  1  0
 22 59  1  0
 23 60  1  0
 24 61  1  0
 25 62  1  0
 26 63  1  0
 28 64  1  0
 31 65  1  0
 31 66  1  0
 32 67  1  6
 33 68  1  0
 35 69  1  0
 36 70  1  0
 37 71  1  0
 38 72  1  0
 39 73  1  0
 41 74  1  0
 42 75  1  0
 43 76  1  0
 44 77  1  0
 45 78  1  0
 46 79  1  0
 47 80  1  0
M  END
>  <Binding energies>  (1) 
[-10.19]

>  <Ligand effiencies>  (1) 
[-0.20795918367346938]

>  <Interactions>  (1) 
["V-B:GLU:543:C:9870, V-A:HIS:456:CE1:4064, V-A:ASP:366:CG:3208, H-A:TYR:484:OH:4343, H-A:HIS:456:NE2:4065, V-B:GLU:543:CB:9874, V-A:GLU:543:CD:4903, V-A:TYR:539:CZ:4872, H-A:ARG:545:NH2:4923, V-A:PRO:540:N:4879, V-A:LEU:363:CA:3180, V-A:ASN:362:C:3167, V-A:TYR:539:C:4862, V-A:ASP:366:CB:3207, V-A:PRO:540:CA:4878, V-A:LEU:363:CB:3182, H-A:TYR:531:OH:4790, V-A:PRO:540:CD:4882, V-A:ILE:538:CA:4855, H-A:ASP:366:OD2:3210, V-A:TYR:531:CE2:4788, V-A:PRO:540:CB:4880, V-A:TYR:539:CE2:4871, V-A:TYR:539:CD2:4869, V-B:HIS:456:CE1:9037, V-A:ILE:538:CG2:4858, V-A:TYR:531:CZ:4789, V-A:ILE:538:CD1:4860, V-A:ILE:538:C:4853, V-A:ILE:538:CB:4857, V-B:HIS:456:CD2:9035, H-B:GLU:543:O:9871, V-A:ASN:362:CB:3171, V-A:ASN:362:CA:3169, V-B:GLY:544:C:9880, V-B:ILE:369:CD1:8206, V-B:HIS:456:CG:9033"]

$$$$
RR8_A_Rahimova_2017
     RDKit          3D

 73 77  0  0  0  0  0  0  0  0999 V2000
  131.5510  123.7370   72.8470 O   0  0  0  0  0  0  0  0  0  0  0  0
  130.3250  123.6710   72.7100 C   0  0  0  0  0  0  0  0  0  0  0  0
  129.4610  124.7010   72.9690 O   0  0  0  0  0  0  0  0  0  0  0  0
  129.8610  125.9910   72.5970 C   0  0  1  0  0  0  0  0  0  0  0  0
  128.9940  126.5480   71.6520 O   0  0  0  0  0  0  0  0  0  0  0  0
  128.7870  127.9400   71.8780 C   0  0  2  0  0  0  0  0  0  0  0  0
  129.1530  128.7050   70.5940 C   0  0  0  0  0  0  0  0  0  0  0  0
  129.8330  127.8220   69.7130 O   0  0  0  0  0  0  0  0  0  0  0  0
  130.0130  128.3400   68.4010 C   0  0  0  0  0  0  0  0  0  0  0  0
  128.6860  128.3300   67.6570 C   0  0  0  0  0  0  0  0  0  0  0  0
  128.4270  129.2980   66.6830 C   0  0  0  0  0  0  0  0  0  0  0  0
  127.2150  129.2880   65.9950 C   0  0  0  0  0  0  0  0  0  0  0  0
  126.2670  128.3070   66.2810 C   0  0  0  0  0  0  0  0  0  0  0  0
  126.5200  127.3350   67.2470 C   0  0  0  0  0  0  0  0  0  0  0  0
  127.7320  127.3450   67.9330 C   0  0  0  0  0  0  0  0  0  0  0  0
  129.6620  128.2450   73.1010 C   0  0  1  0  0  0  0  0  0  0  0  0
  129.0580  129.1650   74.0080 O   0  0  0  0  0  0  0  0  0  0  0  0
  128.0040  129.9570   73.4720 C   0  0  0  0  0  0  0  0  0  0  0  0
  126.8930  130.1090   74.5020 C   0  0  0  0  0  0  0  0  0  0  0  0
  125.7730  129.2740   74.4430 C   0  0  0  0  0  0  0  0  0  0  0  0
  124.7500  129.4140   75.3760 C   0  0  0  0  0  0  0  0  0  0  0  0
  124.8460  130.3910   76.3650 C   0  0  0  0  0  0  0  0  0  0  0  0
  125.9550  131.2310   76.4280 C   0  0  0  0  0  0  0  0  0  0  0  0
  126.9780  131.0930   75.4930 C   0  0  0  0  0  0  0  0  0  0  0  0
  129.7530  126.9060   73.8090 C   0  0  2  0  0  0  0  0  0  0  0  0
  130.8950  126.8650   74.6620 O   0  0  0  0  0  0  0  0  0  0  0  0
  131.1880  125.5980   75.2390 C   0  0  0  0  0  0  0  0  0  0  0  0
  132.6930  125.3830   75.2790 C   0  0  0  0  0  0  0  0  0  0  0  0
  133.5440  126.2180   74.5470 C   0  0  0  0  0  0  0  0  0  0  0  0
  134.9210  126.0230   74.5950 C   0  0  0  0  0  0  0  0  0  0  0  0
  135.4470  124.9970   75.3770 C   0  0  0  0  0  0  0  0  0  0  0  0
  134.6070  124.1640   76.1140 C   0  0  0  0  0  0  0  0  0  0  0  0
  133.2280  124.3580   76.0670 C   0  0  0  0  0  0  0  0  0  0  0  0
  129.6240  122.4360   72.2230 C   0  0  0  0  0  0  0  0  0  0  0  0
  129.1690  122.3130   70.9010 C   0  0  0  0  0  0  0  0  0  0  0  0
  128.5210  121.1550   70.4800 C   0  0  0  0  0  0  0  0  0  0  0  0
  128.3090  120.0930   71.3680 C   0  0  0  0  0  0  0  0  0  0  0  0
  127.6190  118.8590   70.9180 N   0  0  0  0  0  0  0  0  0  0  0  0
  127.5130  117.9240   71.7050 O   0  0  0  0  0  0  0  0  0  0  0  0
  127.1780  118.8160   69.7730 O   0  0  0  0  0  0  0  0  0  0  0  0
  128.7600  120.2170   72.6880 C   0  0  0  0  0  0  0  0  0  0  0  0
  129.4080  121.3740   73.1100 C   0  0  0  0  0  0  0  0  0  0  0  0
  130.8812  125.9090   72.1940 H   0  0  0  0  0  0  0  0  0  0  0  0
  127.7517  128.2448   72.0908 H   0  0  0  0  0  0  0  0  0  0  0  0
  128.2371  129.0763   70.1111 H   0  0  0  0  0  0  0  0  0  0  0  0
  129.8005  129.5596   70.8399 H   0  0  0  0  0  0  0  0  0  0  0  0
  130.3886  129.3719   68.4641 H   0  0  0  0  0  0  0  0  0  0  0  0
  130.7379  127.7144   67.8596 H   0  0  0  0  0  0  0  0  0  0  0  0
  129.1799  130.0681   66.4593 H   0  0  0  0  0  0  0  0  0  0  0  0
  127.0075  130.0506   65.2299 H   0  0  0  0  0  0  0  0  0  0  0  0
  125.3099  128.3000   65.7389 H   0  0  0  0  0  0  0  0  0  0  0  0
  125.7666  126.5641   67.4665 H   0  0  0  0  0  0  0  0  0  0  0  0
  127.9393  126.5772   68.6929 H   0  0  0  0  0  0  0  0  0  0  0  0
  130.6176  128.6913   72.7884 H   0  0  0  0  0  0  0  0  0  0  0  0
  128.3936  130.9509   73.2067 H   0  0  0  0  0  0  0  0  0  0  0  0
  127.6008  129.4635   72.5754 H   0  0  0  0  0  0  0  0  0  0  0  0
  125.7005  128.5061   73.6587 H   0  0  0  0  0  0  0  0  0  0  0  0
  123.8694  128.7563   75.3330 H   0  0  0  0  0  0  0  0  0  0  0  0
  124.0378  130.4998   77.1032 H   0  0  0  0  0  0  0  0  0  0  0  0
  126.0226  131.9995   77.2121 H   0  0  0  0  0  0  0  0  0  0  0  0
  127.8533  131.7580   75.5337 H   0  0  0  0  0  0  0  0  0  0  0  0
  128.9255  126.6484   74.4864 H   0  0  0  0  0  0  0  0  0  0  0  0
  130.7871  125.5619   76.2627 H   0  0  0  0  0  0  0  0  0  0  0  0
  130.7253  124.8072   74.6303 H   0  0  0  0  0  0  0  0  0  0  0  0
  133.1245  127.0289   73.9334 H   0  0  0  0  0  0  0  0  0  0  0  0
  135.5916  126.6765   74.0177 H   0  0  0  0  0  0  0  0  0  0  0  0
  136.5355  124.8429   75.4131 H   0  0  0  0  0  0  0  0  0  0  0  0
  135.0308  123.3571   76.7299 H   0  0  0  0  0  0  0  0  0  0  0  0
  132.5603  123.7057   76.6490 H   0  0  0  0  0  0  0  0  0  0  0  0
  129.3258  123.1387   70.1914 H   0  0  0  0  0  0  0  0  0  0  0  0
  128.1722  121.0734   69.4400 H   0  0  0  0  0  0  0  0  0  0  0  0
  128.6005  119.3921   73.3980 H   0  0  0  0  0  0  0  0  0  0  0  0
  129.7541  121.4552   74.1510 H   0  0  0  0  0  0  0  0  0  0  0  0
  1  2  2  0
  2  3  1  0
  3  4  1  0
  4  5  1  0
  5  6  1  0
  6  7  1  0
  7  8  1  0
  8  9  1  0
  9 10  1  0
 10 11  2  0
 11 12  1  0
 12 13  2  0
 13 14  1  0
 14 15  2  0
  6 16  1  0
 16 17  1  0
 17 18  1  0
 18 19  1  0
 19 20  2  0
 20 21  1  0
 21 22  2  0
 22 23  1  0
 23 24  2  0
 16 25  1  0
 25 26  1  0
 26 27  1  0
 27 28  1  0
 28 29  2  0
 29 30  1  0
 30 31  2  0
 31 32  1  0
 32 33  2  0
  2 34  1  0
 34 35  2  0
 35 36  1  0
 36 37  2  0
 37 38  1  0
 38 39  2  0
 38 40  1  0
 37 41  1  0
 41 42  2  0
 25  4  1  0
 33 28  1  0
 42 34  1  0
 15 10  1  0
 24 19  1  0
  4 43  1  6
  6 44  1  1
  7 45  1  0
  7 46  1  0
  9 47  1  0
  9 48  1  0
 11 49  1  0
 12 50  1  0
 13 51  1  0
 14 52  1  0
 15 53  1  0
 16 54  1  6
 18 55  1  0
 18 56  1  0
 20 57  1  0
 21 58  1  0
 22 59  1  0
 23 60  1  0
 24 61  1  0
 25 62  1  1
 27 63  1  0
 27 64  1  0
 29 65  1  0
 30 66  1  0
 31 67  1  0
 32 68  1  0
 33 69  1  0
 35 70  1  0
 36 71  1  0
 41 72  1  0
 42 73  1  0
M  CHG  2  38   1  40  -1
M  END
>  <Binding energies>  (1) 
[-10.48]

>  <Ligand effiencies>  (1) 
[-0.24952380952380954]

>  <Interactions>  (1) 
["V-B:GLU:543:C:9870, V-A:HIS:456:CE1:4064, V-B:GLU:543:CD:9876, V-B:GLU:543:CB:9874, V-A:GLU:543:CD:4903, V-A:GLU:543:CB:4901, V-B:ARG:545:CG:9890, V-B:HIS:456:CE1:9037, V-A:GLU:543:CG:4902, V-A:TYR:484:CA:4334, V-B:HIS:456:CD2:9035, V-A:LYS:547:CE:4945, V-A:TYR:484:CG:4337, H-A:TYR:484:N:4335, V-A:TYR:484:CB:4336, H-B:LYS:547:NZ:9919, V-B:GLU:543:CA:9872, V-B:LYS:547:CE:9918, H-A:LYS:547:NZ:4946, V-A:SER:483:CB:4328, V-A:TYR:484:CD1:4338, V-A:HIS:456:CG:4061, V-A:TYR:484:CE1:4340, V-A:HIS:456:CB:4060, V-A:ASP:473:CG:4235, V-B:ASP:473:CG:9207, V-B:HIS:456:CG:9033, V-A:LYS:547:CD:4944, V-A:VAL:457:C:4068, V-A:VAL:458:CG2:4082, V-A:HIS:456:C:4056, V-A:VAL:457:CA:4070, V-B:HIS:456:CB:9032, V-B:LYS:547:CD:9917, V-B:HIS:456:C:9028, V-B:VAL:458:CG2:9054, V-A:HIS:456:CA:4058"]

$$$$
RR8_B_Rahimova_2017
     RDKit          3D

 73 77  0  0  0  0  0  0  0  0999 V2000
  128.7000  132.8420   64.7050 O   0  0  0  0  0  0  0  0  0  0  0  0
  128.4140  131.7830   64.1380 C   0  0  0  0  0  0  0  0  0  0  0  0
  127.9390  131.6940   62.8590 O   0  0  0  0  0  0  0  0  0  0  0  0
  127.7260  132.8880   62.1450 C   0  0  2  0  0  0  0  0  0  0  0  0
  126.4930  132.8870   61.4840 O   0  0  0  0  0  0  0  0  0  0  0  0
  126.6140  132.3830   60.1540 C   0  0  2  0  0  0  0  0  0  0  0  0
  125.6860  131.1680   59.9800 C   0  0  0  0  0  0  0  0  0  0  0  0
  125.6010  130.4630   61.2120 O   0  0  0  0  0  0  0  0  0  0  0  0
  124.5150  130.8420   62.0440 C   0  0  0  0  0  0  0  0  0  0  0  0
  124.6900  130.2090   63.4160 C   0  0  0  0  0  0  0  0  0  0  0  0
  124.1650  130.8440   64.5460 C   0  0  0  0  0  0  0  0  0  0  0  0
  124.3430  130.2830   65.8080 C   0  0  0  0  0  0  0  0  0  0  0  0
  125.0450  129.0850   65.9350 C   0  0  0  0  0  0  0  0  0  0  0  0
  125.5660  128.4440   64.8140 C   0  0  0  0  0  0  0  0  0  0  0  0
  125.3900  129.0070   63.5520 C   0  0  0  0  0  0  0  0  0  0  0  0
  128.1110  132.0980   59.9920 C   0  0  1  0  0  0  0  0  0  0  0  0
  128.5180  132.3870   58.6500 O   0  0  0  0  0  0  0  0  0  0  0  0
  129.8650  132.8260   58.4590 C   0  0  0  0  0  0  0  0  0  0  0  0
  130.3330  132.6430   57.0190 C   0  0  0  0  0  0  0  0  0  0  0  0
  131.6990  132.5840   56.7280 C   0  0  0  0  0  0  0  0  0  0  0  0
  132.1230  132.3840   55.4170 C   0  0  0  0  0  0  0  0  0  0  0  0
  131.1800  132.2490   54.4010 C   0  0  0  0  0  0  0  0  0  0  0  0
  129.8170  132.3110   54.6820 C   0  0  0  0  0  0  0  0  0  0  0  0
  129.3920  132.5070   55.9950 C   0  0  0  0  0  0  0  0  0  0  0  0
  128.7630  133.0060   61.0290 C   0  0  2  0  0  0  0  0  0  0  0  0
  130.0510  132.5090   61.3850 O   0  0  0  0  0  0  0  0  0  0  0  0
  130.2270  131.1070   61.2510 C   0  0  0  0  0  0  0  0  0  0  0  0
  131.5550  130.8600   60.5560 C   0  0  0  0  0  0  0  0  0  0  0  0
  131.6010  130.1470   59.3550 C   0  0  0  0  0  0  0  0  0  0  0  0
  132.8260  129.9090   58.7370 C   0  0  0  0  0  0  0  0  0  0  0  0
  133.9980  130.3830   59.3210 C   0  0  0  0  0  0  0  0  0  0  0  0
  133.9590  131.0950   60.5180 C   0  0  0  0  0  0  0  0  0  0  0  0
  132.7350  131.3340   61.1360 C   0  0  0  0  0  0  0  0  0  0  0  0
  128.5170  130.4410   64.8050 C   0  0  0  0  0  0  0  0  0  0  0  0
  128.7790  129.2720   64.0760 C   0  0  0  0  0  0  0  0  0  0  0  0
  128.8610  128.0420   64.7190 C   0  0  0  0  0  0  0  0  0  0  0  0
  128.6740  127.9460   66.1030 C   0  0  0  0  0  0  0  0  0  0  0  0
  128.7360  126.6290   66.7830 N   0  0  0  0  0  0  0  0  0  0  0  0
  129.3950  125.7300   66.2670 O   0  0  0  0  0  0  0  0  0  0  0  0
  128.1290  126.4840   67.8420 O   0  0  0  0  0  0  0  0  0  0  0  0
  128.4190  129.1150   66.8320 C   0  0  0  0  0  0  0  0  0  0  0  0
  128.3440  130.3470   66.1910 C   0  0  0  0  0  0  0  0  0  0  0  0
  127.7803  133.7042   62.8805 H   0  0  0  0  0  0  0  0  0  0  0  0
  126.2928  133.0749   59.3615 H   0  0  0  0  0  0  0  0  0  0  0  0
  124.6839  131.5103   59.6823 H   0  0  0  0  0  0  0  0  0  0  0  0
  126.0897  130.5037   59.2017 H   0  0  0  0  0  0  0  0  0  0  0  0
  124.4934  131.9372   62.1444 H   0  0  0  0  0  0  0  0  0  0  0  0
  123.5703  130.4989   61.5970 H   0  0  0  0  0  0  0  0  0  0  0  0
  123.6107  131.7879   64.4378 H   0  0  0  0  0  0  0  0  0  0  0  0
  123.9326  130.7815   66.6986 H   0  0  0  0  0  0  0  0  0  0  0  0
  125.1888  128.6415   66.9313 H   0  0  0  0  0  0  0  0  0  0  0  0
  126.1144  127.4969   64.9245 H   0  0  0  0  0  0  0  0  0  0  0  0
  125.8016  128.5060   62.6634 H   0  0  0  0  0  0  0  0  0  0  0  0
  128.3941  131.0474   60.1538 H   0  0  0  0  0  0  0  0  0  0  0  0
  129.9300  133.8927   58.7196 H   0  0  0  0  0  0  0  0  0  0  0  0
  130.5134  132.2154   59.1045 H   0  0  0  0  0  0  0  0  0  0  0  0
  132.4387  132.6955   57.5345 H   0  0  0  0  0  0  0  0  0  0  0  0
  133.1970  132.3329   55.1849 H   0  0  0  0  0  0  0  0  0  0  0  0
  131.5152  132.0917   53.3652 H   0  0  0  0  0  0  0  0  0  0  0  0
  129.0801  132.2059   53.8721 H   0  0  0  0  0  0  0  0  0  0  0  0
  128.3173  132.5545   56.2247 H   0  0  0  0  0  0  0  0  0  0  0  0
  128.9689  134.0428   60.7245 H   0  0  0  0  0  0  0  0  0  0  0  0
  130.2335  130.6358   62.2449 H   0  0  0  0  0  0  0  0  0  0  0  0
  129.4040  130.6751   60.6627 H   0  0  0  0  0  0  0  0  0  0  0  0
  130.6718  129.7747   58.8989 H   0  0  0  0  0  0  0  0  0  0  0  0
  132.8677  129.3488   57.7913 H   0  0  0  0  0  0  0  0  0  0  0  0
  134.9649  130.1933   58.8320 H   0  0  0  0  0  0  0  0  0  0  0  0
  134.8898  131.4660   60.9718 H   0  0  0  0  0  0  0  0  0  0  0  0
  132.6963  131.8959   62.0809 H   0  0  0  0  0  0  0  0  0  0  0  0
  128.9208  129.3286   62.9866 H   0  0  0  0  0  0  0  0  0  0  0  0
  129.0750  127.1352   64.1343 H   0  0  0  0  0  0  0  0  0  0  0  0
  128.2768  129.0579   67.9213 H   0  0  0  0  0  0  0  0  0  0  0  0
  128.1469  131.2559   66.7785 H   0  0  0  0  0  0  0  0  0  0  0  0
  1  2  2  0
  2  3  1  0
  3  4  1  0
  4  5  1  0
  5  6  1  0
  6  7  1  0
  7  8  1  0
  8  9  1  0
  9 10  1  0
 10 11  2  0
 11 12  1  0
 12 13  2  0
 13 14  1  0
 14 15  2  0
  6 16  1  0
 16 17  1  0
 17 18  1  0
 18 19  1  0
 19 20  2  0
 20 21  1  0
 21 22  2  0
 22 23  1  0
 23 24  2  0
 16 25  1  0
 25 26  1  0
 26 27  1  0
 27 28  1  0
 28 29  2  0
 29 30  1  0
 30 31  2  0
 31 32  1  0
 32 33  2  0
  2 34  1  0
 34 35  2  0
 35 36  1  0
 36 37  2  0
 37 38  1  0
 38 39  2  0
 38 40  1  0
 37 41  1  0
 41 42  2  0
 25  4  1  0
 33 28  1  0
 42 34  1  0
 15 10  1  0
 24 19  1  0
  4 43  1  1
  6 44  1  6
  7 45  1  0
  7 46  1  0
  9 47  1  0
  9 48  1  0
 11 49  1  0
 12 50  1  0
 13 51  1  0
 14 52  1  0
 15 53  1  0
 16 54  1  1
 18 55  1  0
 18 56  1  0
 20 57  1  0
 21 58  1  0
 22 59  1  0
 23 60  1  0
 24 61  1  0
 25 62  1  6
 27 63  1  0
 27 64  1  0
 29 65  1  0
 30 66  1  0
 31 67  1  0
 32 68  1  0
 33 69  1  0
 35 70  1  0
 36 71  1  0
 41 72  1  0
 42 73  1  0
M  CHG  2  38   1  40  -1
M  END
>  <Binding energies>  (1) 
[-9.82]

>  <Ligand effiencies>  (1) 
[-0.23380952380952383]

>  <Interactions>  (1) 
["V-A:ASP:366:CG:3208, V-B:GLU:543:CD:9876, V-B:GLU:543:CG:9875, V-B:GLU:543:CB:9874, V-A:GLU:543:CD:4903, V-A:LEU:363:CD1:3184, V-A:PRO:540:N:4879, V-A:LEU:363:CA:3180, V-A:TYR:539:CE1:4870, V-A:ASN:362:C:3167, V-A:TYR:539:C:4862, V-A:TYR:539:CD1:4868, V-A:PRO:540:CG:4881, V-A:PRO:540:CA:4878, V-A:LEU:363:CB:3182, H-A:ALA:541:N:4886, V-A:PRO:540:CD:4882, V-A:ILE:538:CA:4855, V-A:TYR:531:CE2:4788, V-A:PRO:540:CB:4880, V-A:TYR:539:CE2:4871, V-A:GLU:543:CB:4901, V-B:ARG:545:CG:9890, V-B:HIS:456:CE1:9037, V-A:ILE:538:CG2:4858, H-B:TYR:484:OH:9315, V-A:GLU:543:CG:4902, V-B:ARG:545:CZ:9894, V-B:GLY:454:CA:9016, V-B:ARG:545:CD:9891, V-A:ILE:538:CD1:4860, V-A:ALA:541:CB:4887, V-B:TYR:484:CZ:9314, V-B:TYR:484:CE1:9312, V-A:ASN:362:CB:3171, V-A:ASN:362:CA:3169"]

$$$$
RR9_Rahimova_2017
     RDKit          3D

 64 68  0  0  0  0  0  0  0  0999 V2000
  129.5070  118.2060   60.3850 C   0  0  0  0  0  0  0  0  0  0  0  0
  130.2780  118.2880   61.7060 C   0  0  0  0  0  0  0  0  0  0  0  0
  130.2920  119.6430   62.1450 O   0  0  0  0  0  0  0  0  0  0  0  0
  130.2830  120.6590   61.2090 C   0  0  0  0  0  0  0  0  0  0  0  0
  129.1160  121.4150   61.1210 C   0  0  0  0  0  0  0  0  0  0  0  0
  129.0140  122.4580   60.2050 C   0  0  0  0  0  0  0  0  0  0  0  0
  130.0800  122.7750   59.3500 C   0  0  0  0  0  0  0  0  0  0  0  0
  129.9750  123.8950   58.3580 C   0  0  0  0  0  0  0  0  0  0  0  0
  130.0580  125.2390   58.7540 C   0  0  0  0  0  0  0  0  0  0  0  0
  129.9720  126.2850   57.8180 C   0  0  0  0  0  0  0  0  0  0  0  0
  130.1690  127.6990   58.2910 C   0  0  0  0  0  0  0  0  0  0  0  0
  129.3400  128.5680   58.0200 O   0  0  0  0  0  0  0  0  0  0  0  0
  131.3000  127.9310   58.9880 N   0  0  0  0  0  0  0  0  0  0  0  0
  131.7770  129.2420   59.4390 C   0  0  0  0  0  0  0  0  0  0  0  0
  132.4890  130.0440   58.3240 C   0  0  0  0  0  0  0  0  0  0  0  0
  131.6470  131.1520   57.7000 C   0  0  0  0  0  0  0  0  0  0  0  0
  130.4200  131.5060   58.2700 C   0  0  0  0  0  0  0  0  0  0  0  0
  129.6700  132.5410   57.7180 C   0  0  0  0  0  0  0  0  0  0  0  0
  130.1460  133.2150   56.5950 C   0  0  0  0  0  0  0  0  0  0  0  0
  131.3660  132.8640   56.0190 C   0  0  0  0  0  0  0  0  0  0  0  0
  132.1170  131.8290   56.5720 C   0  0  0  0  0  0  0  0  0  0  0  0
  129.7630  125.9040   56.4690 C   0  0  0  0  0  0  0  0  0  0  0  0
  129.5730  126.5280   55.1810 C   0  0  0  0  0  0  0  0  0  0  0  0
  129.4510  127.9760   54.8370 C   0  0  0  0  0  0  0  0  0  0  0  0
  128.2970  128.6860   55.1830 C   0  0  0  0  0  0  0  0  0  0  0  0
  128.1780  130.0330   54.8470 C   0  0  0  0  0  0  0  0  0  0  0  0
  129.2150  130.6750   54.1670 C   0  0  0  0  0  0  0  0  0  0  0  0
  129.0780  132.1370   53.7840 C   0  0  0  0  0  0  0  0  0  0  0  0
  130.3670  129.9690   53.8180 C   0  0  0  0  0  0  0  0  0  0  0  0
  130.4850  128.6240   54.1570 C   0  0  0  0  0  0  0  0  0  0  0  0
  129.4830  125.6190   54.2370 N   0  0  0  0  0  0  0  0  0  0  0  0
  129.5430  124.4110   54.8200 N   0  0  0  0  0  0  0  0  0  0  0  0
  129.7020  124.5200   56.1810 C   0  0  0  0  0  0  0  0  0  0  0  0
  129.7930  123.5230   57.0600 N   0  0  0  0  0  0  0  0  0  0  0  0
  131.2510  122.0080   59.4440 C   0  0  0  0  0  0  0  0  0  0  0  0
  131.3560  120.9640   60.3600 C   0  0  0  0  0  0  0  0  0  0  0  0
  128.4330  118.0918   60.5937 H   0  0  0  0  0  0  0  0  0  0  0  0
  129.6721  119.1268   59.8063 H   0  0  0  0  0  0  0  0  0  0  0  0
  129.8621  117.3406   59.8063 H   0  0  0  0  0  0  0  0  0  0  0  0
  129.7845  117.6594   62.4619 H   0  0  0  0  0  0  0  0  0  0  0  0
  131.3083  117.9312   61.5606 H   0  0  0  0  0  0  0  0  0  0  0  0
  128.2671  121.1854   61.7818 H   0  0  0  0  0  0  0  0  0  0  0  0
  128.0837  123.0424   60.1507 H   0  0  0  0  0  0  0  0  0  0  0  0
  130.1932  125.4792   59.8189 H   0  0  0  0  0  0  0  0  0  0  0  0
  131.8770  127.1410   59.2350 H   0  0  0  0  0  0  0  0  0  0  0  0
  130.9146  129.8254   59.7940 H   0  0  0  0  0  0  0  0  0  0  0  0
  132.5122  129.0669   60.2383 H   0  0  0  0  0  0  0  0  0  0  0  0
  133.3925  130.5010   58.7540 H   0  0  0  0  0  0  0  0  0  0  0  0
  132.7082  129.3285   57.5178 H   0  0  0  0  0  0  0  0  0  0  0  0
  130.0477  130.9671   59.1538 H   0  0  0  0  0  0  0  0  0  0  0  0
  128.7065  132.8253   58.1661 H   0  0  0  0  0  0  0  0  0  0  0  0
  129.5530  134.0323   56.1586 H   0  0  0  0  0  0  0  0  0  0  0  0
  131.7338  133.4014   55.1325 H   0  0  0  0  0  0  0  0  0  0  0  0
  133.0792  131.5451   56.1208 H   0  0  0  0  0  0  0  0  0  0  0  0
  127.4819  128.1803   55.7213 H   0  0  0  0  0  0  0  0  0  0  0  0
  127.2686  130.5898   55.1170 H   0  0  0  0  0  0  0  0  0  0  0  0
  129.0205  132.7508   54.6950 H   0  0  0  0  0  0  0  0  0  0  0  0
  129.9513  132.4437   53.1897 H   0  0  0  0  0  0  0  0  0  0  0  0
  128.1629  132.2762   53.1897 H   0  0  0  0  0  0  0  0  0  0  0  0
  131.1801  130.4742   53.2762 H   0  0  0  0  0  0  0  0  0  0  0  0
  131.3961  128.0692   53.8883 H   0  0  0  0  0  0  0  0  0  0  0  0
  129.4780  123.5680   54.2660 H   0  0  0  0  0  0  0  0  0  0  0  0
  132.1005  122.2350   58.7831 H   0  0  0  0  0  0  0  0  0  0  0  0
  132.2843  120.3767   60.4174 H   0  0  0  0  0  0  0  0  0  0  0  0
  1  2  1  0
  2  3  1  0
  3  4  1  0
  4  5  2  0
  5  6  1  0
  6  7  2  0
  7  8  1  0
  8  9  2  0
  9 10  1  0
 10 11  1  0
 11 12  2  0
 11 13  1  0
 13 14  1  0
 14 15  1  0
 15 16  1  0
 16 17  2  0
 17 18  1  0
 18 19  2  0
 19 20  1  0
 20 21  2  0
 10 22  2  0
 22 23  1  0
 23 24  1  0
 24 25  2  0
 25 26  1  0
 26 27  2  0
 27 28  1  0
 27 29  1  0
 29 30  2  0
 23 31  2  0
 31 32  1  0
 32 33  1  0
 33 34  2  0
  7 35  1  0
 35 36  2  0
 36  4  1  0
 34  8  1  0
 21 16  1  0
 33 22  1  0
 30 24  1  0
  1 37  1  0
  1 38  1  0
  1 39  1  0
  2 40  1  0
  2 41  1  0
  5 42  1  0
  6 43  1  0
  9 44  1  0
 13 45  1  0
 14 46  1  0
 14 47  1  0
 15 48  1  0
 15 49  1  0
 17 50  1  0
 18 51  1  0
 19 52  1  0
 20 53  1  0
 21 54  1  0
 25 55  1  0
 26 56  1  0
 28 57  1  0
 28 58  1  0
 28 59  1  0
 29 60  1  0
 30 61  1  0
 32 62  1  0
 35 63  1  0
 36 64  1  0
M  END
>  <Binding energies>  (1) 
[-9.26]

>  <Ligand effiencies>  (1) 
[-0.24368421052631578]

>  <Interactions>  (1) 
["V-B:ALA:541:CB:9860, V-B:TYR:539:CE2:9844, V-B:MET:535:CE:9803, V-A:TRP:381:CH2:3367, V-B:TYR:539:CD2:9842, V-B:ALA:541:CA:9858, V-B:PRO:540:C:9849, V-B:TYR:539:CE1:9843, V-B:TYR:539:C:9835, V-B:TYR:539:CZ:9845, V-A:LEU:363:CD1:3184, V-A:PRO:540:N:4879, V-A:TYR:539:CE1:4870, V-A:TYR:539:C:4862, V-A:TYR:539:CD1:4868, V-A:PRO:540:CA:4878, H-A:TYR:531:OH:4790, V-A:TYR:539:CA:4864, V-A:TYR:539:CG:4867, V-A:PRO:540:CD:4882, H-A:ASP:366:OD2:3210, V-A:TYR:531:CE2:4788, V-A:PRO:540:CB:4880, V-A:TRP:381:CZ3:3366, V-A:LEU:475:CD2:4254, H-A:LYS:534:NZ:4818, V-A:ILE:538:CG2:4858, V-A:TYR:531:CE1:4787, V-A:TYR:531:CZ:4789, V-A:MET:535:CB:4827, V-A:MET:535:CG:4828, V-A:TRP:381:CZ2:3365, V-A:PRO:482:CG:4322, V-A:PRO:482:CB:4321, V-A:LEU:475:CD1:4253, H-B:TYR:539:OH:9846, V-B:TYR:539:CB:9839, V-A:TRP:381:CE2:3362, V-A:LEU:475:CG:4252"]

$$$$
