lig1.pdb
 OpenBabel06022614543D

 34 36  0  0  1  0  0  0  0  0999 V2000
  157.2890  134.8630   61.0130 C   0  0  0  0  0  0  0  0  0  0  0  0
  151.2870  129.2370   58.5910 N   0  0  0  0  0  0  0  0  0  0  0  0
  156.9240  136.0230   60.2550 O   0  0  0  0  0  0  0  0  0  0  0  0
  156.0120  134.1980   61.5730 C   0  0  1  0  0  0  0  0  0  0  0  0
  152.1180  130.5500   60.4160 N   0  0  0  0  0  0  0  0  0  0  0  0
  155.1480  133.8000   60.4870 O   0  0  0  0  0  0  0  0  0  0  0  0
  156.2150  132.8800   62.3660 C   0  0  1  0  0  0  0  0  0  0  0  0
  152.3570  129.0930   56.6780 N   0  0  0  0  0  0  0  0  0  0  0  0
  156.7550  133.0750   63.6800 O   0  0  0  0  0  0  0  0  0  0  0  0
  154.7430  132.3690   62.3900 C   0  0  1  0  0  0  0  0  0  0  0  0
  154.6200  130.7160   57.8970 N   0  0  0  0  0  0  0  0  0  0  0  0
  153.9630  133.0270   63.4010 O   0  0  0  0  0  0  0  0  0  0  0  0
  154.2660  132.7470   60.9510 C   0  0  2  0  0  0  0  0  0  0  0  0
  154.2440  131.6720   59.9650 N   0  0  0  0  0  0  0  0  0  0  0  0
  151.2180  129.7350   59.8320 C   0  0  0  0  0  0  0  0  0  0  0  0
  153.2060  130.8280   59.6920 C   0  0  0  0  0  0  0  0  0  0  0  0
  153.4060  130.3230   58.4510 C   0  0  0  0  0  0  0  0  0  0  0  0
  152.3840  129.5380   57.9290 C   0  0  1  0  0  0  0  0  0  0  0  0
  155.1050  131.5100   58.8640 C   0  0  0  0  0  0  0  0  0  0  0  0
  156.0800  131.9610   58.7540 H   0  0  0  0  0  0  0  0  0  0  0  0
  155.4850  134.9150   62.2030 H   0  0  0  0  0  0  0  0  0  0  0  0
  156.8430  132.1930   61.7990 H   0  0  0  0  0  0  0  0  0  0  0  0
  154.7160  131.2880   62.5300 H   0  0  0  0  0  0  0  0  0  0  0  0
  153.2590  133.1580   61.0260 H   0  0  0  0  0  0  0  0  0  0  0  0
  150.3790  129.4890   60.4670 H   0  0  0  0  0  0  0  0  0  0  0  0
  156.3510  135.7640   59.5290 H   0  0  0  0  0  0  0  0  0  0  0  0
  156.5630  132.3070   64.2230 H   0  0  0  0  0  0  0  0  0  0  0  0
  153.8690  132.4480   64.1610 H   0  0  0  0  0  0  0  0  0  0  0  0
  157.9370  135.1580   61.8390 H   0  0  0  0  0  0  0  0  0  0  0  0
  157.8130  134.1580   60.3680 H   0  0  0  0  0  0  0  0  0  0  0  0
  153.1420  129.2610   56.0650 H   0  0  0  0  0  0  0  0  0  0  0  0
  151.5510  128.5870   56.3390 H   0  0  0  0  0  0  0  0  0  0  0  0
  151.9825  130.9175   61.3192 H   0  0  0  0  0  0  0  0  0  0  0  0
  153.3274  129.5315   58.4338 H   0  0  0  0  0  0  0  0  0  0  0  0
  1  4  1  0  0  0  0
  1 29  1  0  0  0  0
  2 15  2  0  0  0  0
  3  1  1  0  0  0  0
  4 21  1  0  0  0  0
  4  7  1  1  0  0  0
  5 33  1  0  0  0  0
  6 13  1  0  0  0  0
  6  4  1  0  0  0  0
  7 10  1  1  0  0  0
  7  9  1  0  0  0  0
  8 18  1  0  0  0  0
  9 27  1  0  0  0  0
 10 13  1  6  0  0  0
 10 23  1  0  0  0  0
 10 12  1  0  0  0  0
 11 17  1  0  0  0  0
 11 19  2  0  0  0  0
 12 28  1  0  0  0  0
 13 24  1  1  0  0  0
 14 13  1  0  0  0  0
 15  5  1  0  0  0  0
 15 25  1  0  0  0  0
 16 14  1  0  0  0  0
 16  5  1  0  0  0  0
 17 16  2  0  0  0  0
 18 17  1  0  0  0  0
 18  2  1  0  0  0  0
 18 34  1  1  0  0  0
 19 14  1  0  0  0  0
 20 19  1  0  0  0  0
 22  7  1  0  0  0  0
 26  3  1  0  0  0  0
 30  1  1  0  0  0  0
 31  8  1  0  0  0  0
 32  8  1  0  0  0  0
M  END
$$$$
