1a_Ghoteimi_2023
     RDKit          3D

 40 43  0  0  0  0  0  0  0  0999 V2000
  130.0800  124.0610   72.0640 C   0  0  0  0  0  0  0  0  0  0  0  0
  130.4390  125.2330   72.9830 C   0  0  0  0  0  0  0  0  0  0  0  0
  129.3780  126.1810   72.9730 O   0  0  0  0  0  0  0  0  0  0  0  0
  129.5920  127.4690   72.5990 C   0  0  0  0  0  0  0  0  0  0  0  0
  129.7460  128.3940   73.4010 O   0  0  0  0  0  0  0  0  0  0  0  0
  129.6260  127.6550   71.1090 C   0  0  0  0  0  0  0  0  0  0  0  0
  130.3780  128.6730   70.5050 C   0  0  0  0  0  0  0  0  0  0  0  0
  130.3880  128.8230   69.1210 C   0  0  0  0  0  0  0  0  0  0  0  0
  129.6460  127.9490   68.3120 C   0  0  0  0  0  0  0  0  0  0  0  0
  129.5800  128.0110   66.9070 N   0  0  0  0  0  0  0  0  0  0  0  0
  128.5050  127.9960   66.0900 C   0  0  0  0  0  0  0  0  0  0  0  0
  127.3300  127.9380   66.4530 O   0  0  0  0  0  0  0  0  0  0  0  0
  128.8150  128.0660   64.5950 C   0  0  0  0  0  0  0  0  0  0  0  0
  128.4710  129.7150   63.9130 S   0  0  0  0  0  0  0  0  0  0  0  0
  128.4330  129.5220   62.1450 C   0  0  0  0  0  0  0  0  0  0  0  0
  127.7630  128.4220   61.7270 N   0  0  0  0  0  0  0  0  0  0  0  0
  127.6560  128.1610   60.3980 C   0  0  0  0  0  0  0  0  0  0  0  0
  126.8810  126.9340   60.0130 C   0  0  0  0  0  0  0  0  0  0  0  0
  126.3560  126.7780   58.7200 C   0  0  0  0  0  0  0  0  0  0  0  0
  125.6380  125.6390   58.3670 C   0  0  0  0  0  0  0  0  0  0  0  0
  125.4210  124.6220   59.2930 C   0  0  0  0  0  0  0  0  0  0  0  0
  124.7000  123.5270   58.8540 O   0  0  0  0  0  0  0  0  0  0  0  0
  124.4980  123.3440   57.4580 C   0  0  0  0  0  0  0  0  0  0  0  0
  125.9350  124.7640   60.5890 C   0  0  0  0  0  0  0  0  0  0  0  0
  126.6520  125.9040   60.9390 C   0  0  0  0  0  0  0  0  0  0  0  0
  128.2340  129.0200   59.4550 C   0  0  0  0  0  0  0  0  0  0  0  0
  128.9530  130.1500   59.8640 C   0  0  0  0  0  0  0  0  0  0  0  0
  129.5700  131.0040   58.8040 C   0  0  0  0  0  0  0  0  0  0  0  0
  128.8600  132.0680   58.2370 C   0  0  0  0  0  0  0  0  0  0  0  0
  129.4470  132.8670   57.2600 C   0  0  0  0  0  0  0  0  0  0  0  0
  130.7530  132.6250   56.8360 C   0  0  0  0  0  0  0  0  0  0  0  0
  131.2520  133.4700   55.8640 O   0  0  0  0  0  0  0  0  0  0  0  0
  131.6410  132.9290   54.6070 C   0  0  0  0  0  0  0  0  0  0  0  0
  131.4710  131.5640   57.4080 C   0  0  0  0  0  0  0  0  0  0  0  0
  130.8820  130.7650   58.3850 C   0  0  0  0  0  0  0  0  0  0  0  0
  129.0560  130.4180   61.2510 C   0  0  0  0  0  0  0  0  0  0  0  0
  129.7830  131.5940   61.7390 C   0  0  0  0  0  0  0  0  0  0  0  0
  130.3560  132.5230   62.1240 N   0  0  0  0  0  0  0  0  0  0  0  0
  128.8940  126.9370   68.9100 C   0  0  0  0  0  0  0  0  0  0  0  0
  128.8850  126.7890   70.2940 C   0  0  0  0  0  0  0  0  0  0  0  0
  1  2  1  0
  2  3  1  0
  3  4  1  0
  4  5  2  0
  4  6  1  0
  6  7  2  0
  7  8  1  0
  8  9  2  0
  9 10  1  0
 10 11  1  0
 11 12  2  0
 11 13  1  0
 13 14  1  0
 14 15  1  0
 15 16  2  0
 16 17  1  0
 17 18  1  0
 18 19  2  0
 19 20  1  0
 20 21  2  0
 21 22  1  0
 22 23  1  0
 21 24  1  0
 24 25  2  0
 17 26  2  0
 26 27  1  0
 27 28  1  0
 28 29  2  0
 29 30  1  0
 30 31  2  0
 31 32  1  0
 32 33  1  0
 31 34  1  0
 34 35  2  0
 27 36  2  0
 36 37  1  0
 37 38  3  0
  9 39  1  0
 39 40  2  0
 40  6  1  0
 36 15  1  0
 25 18  1  0
 35 28  1  0
M  END
>  <Binding energies>  (1) 
[-9.21]

>  <Ligand effiencies>  (1) 
[-0.22463414634146345]

>  <Interactions>  (1) 
["V-A:GLU:543:CG:4902, H-A:ALA:541:N:4886, V-A:GLU:543:CD:4903, V-A:PRO:540:CB:4880, V-A:PRO:540:CA:4878, V-A:PRO:540:CD:4882, V-A:PRO:540:N:4879, V-A:ILE:538:CD1:4860, V-A:TYR:539:CG:4867, H-A:TYR:539:N:4865, V-A:TYR:539:CD1:4868, V-A:TYR:539:C:4862, V-A:ILE:538:CA:4855, V-A:HIS:456:CE1:4064, H-B:LYS:547:NZ:9919, H-A:LYS:547:NZ:4946, V-B:GLU:543:CD:9876, V-A:GLY:544:C:4907, V-A:GLU:543:C:4897, V-A:GLU:543:CB:4901, V-A:ILE:538:CB:4857, V-A:ILE:538:CG2:4858, V-A:TYR:539:CE1:4870, V-B:PRO:540:CB:9853, V-B:PRO:540:CA:9851, V-B:PRO:540:N:9852, V-B:ASP:366:CG:8180, V-B:LEU:363:CD1:8156, H-A:GLU:543:OE1:4904, V-A:ILE:538:CG1:4859, V-A:GLU:543:CA:4899"]

$$$$
1b_Ghoteimi_2023
     RDKit          3D

 34 37  0  0  0  0  0  0  0  0999 V2000
  130.3410  126.9060   74.1200 C   0  0  0  0  0  0  0  0  0  0  0  0
  129.8560  128.0780   73.4760 O   0  0  0  0  0  0  0  0  0  0  0  0
  129.6930  128.0740   72.1040 C   0  0  0  0  0  0  0  0  0  0  0  0
  128.6400  127.3100   71.6020 C   0  0  0  0  0  0  0  0  0  0  0  0
  128.4000  127.2440   70.2330 C   0  0  0  0  0  0  0  0  0  0  0  0
  129.2040  127.9450   69.3220 C   0  0  0  0  0  0  0  0  0  0  0  0
  128.9420  127.8700   67.8430 C   0  0  0  0  0  0  0  0  0  0  0  0
  127.8890  128.5490   67.2210 C   0  0  0  0  0  0  0  0  0  0  0  0
  127.6910  128.4490   65.8390 C   0  0  0  0  0  0  0  0  0  0  0  0
  126.5430  129.1970   65.2430 C   0  0  0  0  0  0  0  0  0  0  0  0
  125.2360  128.9350   65.6630 C   0  0  0  0  0  0  0  0  0  0  0  0
  124.1630  129.6240   65.1060 C   0  0  0  0  0  0  0  0  0  0  0  0
  124.3740  130.5840   64.1150 C   0  0  0  0  0  0  0  0  0  0  0  0
  123.2500  131.2160   63.6190 O   0  0  0  0  0  0  0  0  0  0  0  0
  122.6300  130.7090   62.4420 C   0  0  0  0  0  0  0  0  0  0  0  0
  125.6830  130.8440   63.6850 C   0  0  0  0  0  0  0  0  0  0  0  0
  126.7540  130.1540   64.2440 C   0  0  0  0  0  0  0  0  0  0  0  0
  128.5890  127.6550   65.0840 C   0  0  0  0  0  0  0  0  0  0  0  0
  128.4830  127.5940   63.6240 C   0  0  0  0  0  0  0  0  0  0  0  0
  128.3980  127.5470   62.4700 N   0  0  0  0  0  0  0  0  0  0  0  0
  129.6180  126.9790   65.7770 C   0  0  0  0  0  0  0  0  0  0  0  0
  130.8300  125.9330   64.9970 S   0  0  0  0  0  0  0  0  0  0  0  0
  130.5000  124.2130   65.5080 C   0  0  0  0  0  0  0  0  0  0  0  0
  130.2850  123.2220   64.3550 C   0  0  0  0  0  0  0  0  0  0  0  0
  130.8590  122.1310   64.3470 O   0  0  0  0  0  0  0  0  0  0  0  0
  129.4410  123.6540   63.3910 N   0  0  0  0  0  0  0  0  0  0  0  0
  129.0620  122.9750   62.2400 C   0  0  0  0  0  0  0  0  0  0  0  0
  129.9760  122.4090   61.3520 C   0  0  0  0  0  0  0  0  0  0  0  0
  129.2090  121.8390   60.3620 C   0  0  0  0  0  0  0  0  0  0  0  0
  127.9000  122.0490   60.6400 O   0  0  0  0  0  0  0  0  0  0  0  0
  127.8190  122.7690   61.8330 N   0  0  0  0  0  0  0  0  0  0  0  0
  129.7950  127.1050   67.1150 N   0  0  0  0  0  0  0  0  0  0  0  0
  130.2620  128.7100   69.8380 C   0  0  0  0  0  0  0  0  0  0  0  0
  130.5060  128.7770   71.2060 C   0  0  0  0  0  0  0  0  0  0  0  0
  1  2  1  0
  2  3  1  0
  3  4  2  0
  4  5  1  0
  5  6  2  0
  6  7  1  0
  7  8  2  0
  8  9  1  0
  9 10  1  0
 10 11  2  0
 11 12  1  0
 12 13  2  0
 13 14  1  0
 14 15  1  0
 13 16  1  0
 16 17  2  0
  9 18  2  0
 18 19  1  0
 19 20  3  0
 18 21  1  0
 21 22  1  0
 22 23  1  0
 23 24  1  0
 24 25  2  0
 24 26  1  0
 26 27  1  0
 27 28  1  0
 28 29  2  0
 29 30  1  0
 30 31  1  0
 21 32  2  0
  6 33  1  0
 33 34  2  0
 34  3  1  0
 32  7  1  0
 17 10  1  0
 31 27  2  0
M  END
>  <Binding energies>  (2) 
[-8.98]

>  <Ligand effiencies>  (2) 
[-0.25657142857142856]

>  <Interactions>  (2) 
["V-B:ILE:369:CD1:8206, V-A:GLU:543:CD:4903, V-B:ARG:545:CZ:9894, V-B:LYS:547:CE:9918, V-A:HIS:456:CE1:4064, H-B:LYS:547:NZ:9919, H-A:LYS:547:NZ:4946, V-A:LYS:547:CE:4945, V-B:GLU:543:CD:9876, V-B:HIS:456:CE1:9037, V-B:ARG:545:CD:9891, V-B:GLU:543:CG:9875, V-B:ARG:545:CG:9890, V-A:GLY:544:C:4907, V-A:GLU:543:C:4897, V-A:GLU:543:CB:4901, V-A:TYR:484:CZ:4342, V-A:TYR:484:CE1:4340, V-B:ALA:541:CB:9860, H-B:ALA:541:N:9859, H-A:TYR:484:OH:4343, H-B:GLY:454:N:9017, H-B:GLU:543:OE2:9878, V-B:GLY:453:CA:9011, V-B:GLY:453:C:9009"]

$$$$
1c_Ghoteimi_2023
     RDKit          3D

 34 37  0  0  0  0  0  0  0  0999 V2000
  124.4550  132.3360   61.6820 C   0  0  0  0  0  0  0  0  0  0  0  0
  125.0340  132.6090   62.9540 O   0  0  0  0  0  0  0  0  0  0  0  0
  125.7520  131.6170   63.5950 C   0  0  0  0  0  0  0  0  0  0  0  0
  125.0140  130.6460   64.2660 C   0  0  0  0  0  0  0  0  0  0  0  0
  125.6560  129.6110   64.9420 C   0  0  0  0  0  0  0  0  0  0  0  0
  127.0560  129.5190   64.9680 C   0  0  0  0  0  0  0  0  0  0  0  0
  127.7520  128.4080   65.7000 C   0  0  0  0  0  0  0  0  0  0  0  0
  128.8520  127.7250   65.1700 C   0  0  0  0  0  0  0  0  0  0  0  0
  129.4850  126.7130   65.9020 C   0  0  0  0  0  0  0  0  0  0  0  0
  130.6930  126.0740   65.3020 C   0  0  0  0  0  0  0  0  0  0  0  0
  131.8890  125.9960   66.0230 C   0  0  0  0  0  0  0  0  0  0  0  0
  133.0200  125.4190   65.4550 C   0  0  0  0  0  0  0  0  0  0  0  0
  132.9800  124.9130   64.1560 C   0  0  0  0  0  0  0  0  0  0  0  0
  134.1500  124.3580   63.6740 O   0  0  0  0  0  0  0  0  0  0  0  0
  134.2060  123.9240   62.3190 C   0  0  0  0  0  0  0  0  0  0  0  0
  131.7840  124.9940   63.4270 C   0  0  0  0  0  0  0  0  0  0  0  0
  130.6530  125.5730   63.9970 C   0  0  0  0  0  0  0  0  0  0  0  0
  128.9670  126.3790   67.1750 C   0  0  0  0  0  0  0  0  0  0  0  0
  129.5650  125.3060   67.9780 C   0  0  0  0  0  0  0  0  0  0  0  0
  130.0380  124.4600   68.6090 N   0  0  0  0  0  0  0  0  0  0  0  0
  127.8680  127.1190   67.6570 C   0  0  0  0  0  0  0  0  0  0  0  0
  127.2240  126.9240   69.3040 S   0  0  0  0  0  0  0  0  0  0  0  0
  128.3720  127.8560   70.3680 C   0  0  0  0  0  0  0  0  0  0  0  0
  128.9460  126.9920   71.4960 C   0  0  0  0  0  0  0  0  0  0  0  0
  129.1230  127.4850   72.6110 O   0  0  0  0  0  0  0  0  0  0  0  0
  129.1780  125.7010   71.1710 N   0  0  0  0  0  0  0  0  0  0  0  0
  129.5460  124.6820   72.0360 C   0  0  0  0  0  0  0  0  0  0  0  0
  129.3720  124.6270   73.3390 N   0  0  0  0  0  0  0  0  0  0  0  0
  129.8090  123.4860   73.8370 C   0  0  0  0  0  0  0  0  0  0  0  0
  130.3500  122.5840   72.9260 C   0  0  0  0  0  0  0  0  0  0  0  0
  130.2820  123.2780   71.3340 S   0  0  0  0  0  0  0  0  0  0  0  0
  127.2840  128.1110   66.9410 N   0  0  0  0  0  0  0  0  0  0  0  0
  127.7890  130.5000   64.2830 C   0  0  0  0  0  0  0  0  0  0  0  0
  127.1520  131.5360   63.6080 C   0  0  0  0  0  0  0  0  0  0  0  0
  1  2  1  0
  2  3  1  0
  3  4  2  0
  4  5  1  0
  5  6  2  0
  6  7  1  0
  7  8  2  0
  8  9  1  0
  9 10  1  0
 10 11  2  0
 11 12  1  0
 12 13  2  0
 13 14  1  0
 14 15  1  0
 13 16  1  0
 16 17  2  0
  9 18  2  0
 18 19  1  0
 19 20  3  0
 18 21  1  0
 21 22  1  0
 22 23  1  0
 23 24  1  0
 24 25  2  0
 24 26  1  0
 26 27  1  0
 27 28  2  0
 28 29  1  0
 29 30  2  0
 30 31  1  0
 21 32  2  0
  6 33  1  0
 33 34  2  0
 34  3  1  0
 32  7  1  0
 17 10  1  0
 31 27  1  0
M  END
>  <Binding energies>  (3) 
[-8.41]

>  <Ligand effiencies>  (3) 
[-0.2402857142857143]

>  <Interactions>  (3) 
["V-B:ILE:369:CD1:8206, V-A:GLU:543:CD:4903, H-B:TYR:484:OH:9315, V-B:LYS:547:CE:9918, V-B:GLU:543:C:9870, V-A:HIS:456:CG:4061, V-A:HIS:456:CE1:4064, H-B:LYS:547:NZ:9919, V-B:HIS:456:CD2:9035, V-B:GLU:543:CA:9872, V-B:GLU:543:CD:9876, V-B:HIS:456:CE1:9037, V-B:GLU:543:CG:9875, V-B:GLU:543:CB:9874, H-A:HIS:456:NE2:4065, V-A:ILE:369:CD1:3234, V-A:ASP:366:CG:3208, H-A:TYR:484:OH:4343, V-A:ARG:545:CZ:4921, V-A:HIS:456:CD2:4063, H-A:GLY:454:N:4045, H-B:GLU:543:O:9871"]

$$$$
1d_Ghoteimi_2023
     RDKit          3D

 30 32  0  0  0  0  0  0  0  0999 V2000
  124.0460  129.9210   63.4110 C   0  0  0  0  0  0  0  0  0  0  0  0
  123.4430  130.2890   64.6420 O   0  0  0  0  0  0  0  0  0  0  0  0
  124.0160  129.9450   65.8150 C   0  0  0  0  0  0  0  0  0  0  0  0
  123.7680  130.4340   66.9180 O   0  0  0  0  0  0  0  0  0  0  0  0
  125.0570  128.8410   65.6500 C   0  0  0  0  0  0  0  0  0  0  0  0
  126.6520  129.6410   65.3050 S   0  0  0  0  0  0  0  0  0  0  0  0
  127.9140  128.6290   66.0460 C   0  0  0  0  0  0  0  0  0  0  0  0
  127.9830  128.7430   67.3940 N   0  0  0  0  0  0  0  0  0  0  0  0
  128.9050  128.0280   68.0880 C   0  0  0  0  0  0  0  0  0  0  0  0
  128.9120  128.2070   69.5780 C   0  0  0  0  0  0  0  0  0  0  0  0
  130.0130  128.7740   70.2390 C   0  0  0  0  0  0  0  0  0  0  0  0
  130.0200  128.9340   71.6210 C   0  0  0  0  0  0  0  0  0  0  0  0
  128.9290  128.5310   72.3870 C   0  0  0  0  0  0  0  0  0  0  0  0
  129.0250  128.7240   73.7520 O   0  0  0  0  0  0  0  0  0  0  0  0
  128.2340  129.7360   74.3660 C   0  0  0  0  0  0  0  0  0  0  0  0
  127.8220  127.9620   71.7420 C   0  0  0  0  0  0  0  0  0  0  0  0
  127.8180  127.8050   70.3590 C   0  0  0  0  0  0  0  0  0  0  0  0
  129.7820  127.1620   67.4240 C   0  0  0  0  0  0  0  0  0  0  0  0
  129.7430  127.0350   66.0300 C   0  0  0  0  0  0  0  0  0  0  0  0
  130.7130  126.0980   65.3850 C   0  0  0  0  0  0  0  0  0  0  0  0
  132.0720  126.1620   65.7070 C   0  0  0  0  0  0  0  0  0  0  0  0
  132.9810  125.2920   65.1100 C   0  0  0  0  0  0  0  0  0  0  0  0
  132.5510  124.3400   64.1870 C   0  0  0  0  0  0  0  0  0  0  0  0
  133.5240  123.5250   63.6410 O   0  0  0  0  0  0  0  0  0  0  0  0
  134.1560  123.9140   62.4280 C   0  0  0  0  0  0  0  0  0  0  0  0
  131.1860  124.2640   63.8710 C   0  0  0  0  0  0  0  0  0  0  0  0
  130.2790  125.1340   64.4690 C   0  0  0  0  0  0  0  0  0  0  0  0
  128.7950  127.8050   65.3100 C   0  0  0  0  0  0  0  0  0  0  0  0
  128.7790  127.7910   63.8440 C   0  0  0  0  0  0  0  0  0  0  0  0
  128.7670  127.7790   62.6870 N   0  0  0  0  0  0  0  0  0  0  0  0
  1  2  1  0
  2  3  1  0
  3  4  2  0
  3  5  1  0
  5  6  1  0
  6  7  1  0
  7  8  2  0
  8  9  1  0
  9 10  1  0
 10 11  2  0
 11 12  1  0
 12 13  2  0
 13 14  1  0
 14 15  1  0
 13 16  1  0
 16 17  2  0
  9 18  2  0
 18 19  1  0
 19 20  1  0
 20 21  2  0
 21 22  1  0
 22 23  2  0
 23 24  1  0
 24 25  1  0
 23 26  1  0
 26 27  2  0
 19 28  2  0
 28 29  1  0
 29 30  3  0
 28  7  1  0
 17 10  1  0
 27 20  1  0
M  END
>  <Binding energies>  (4) 
[-7.54]

>  <Ligand effiencies>  (4) 
[-0.25133333333333335]

>  <Interactions>  (4) 
["V-A:GLU:543:CD:4903, V-B:ARG:545:CZ:9894, H-B:TYR:484:OH:9315, V-A:HIS:456:CE1:4064, H-B:LYS:547:NZ:9919, V-B:HIS:456:CD2:9035, H-A:LYS:547:NZ:4946, V-B:GLU:543:CD:9876, V-B:HIS:456:CE1:9037, V-B:ARG:545:CD:9891, V-B:GLU:543:CG:9875, V-B:ARG:545:CG:9890, V-A:GLU:543:C:4897, V-A:ILE:369:CD1:3234, V-A:ASP:366:CG:3208, H-A:TYR:484:OH:4343, H-B:ARG:545:NH1:9895, H-B:GLY:454:N:9017, V-A:ARG:545:CZ:4921, H-A:GLY:454:N:4045, H-B:HIS:456:ND1:9034"]

$$$$
1j_Grossjean_2025
     RDKit          3D

 20 21  0  0  0  0  0  0  0  0999 V2000
  129.5770  121.9530   60.9890 C   0  0  0  0  0  0  0  0  0  0  0  0
  128.4050  122.5400   60.2250 C   0  0  0  0  0  0  0  0  0  0  0  0
  127.3330  123.1390   60.8820 C   0  0  0  0  0  0  0  0  0  0  0  0
  126.2860  123.6750   60.1250 C   0  0  0  0  0  0  0  0  0  0  0  0
  125.1290  124.3430   60.8670 C   0  0  0  0  0  0  0  0  0  0  0  0
  126.3380  123.5880   58.7150 C   0  0  0  0  0  0  0  0  0  0  0  0
  125.2780  124.1890   57.9010 C   0  0  0  0  0  0  0  0  0  0  0  0
  124.4400  124.6660   57.2610 N   0  0  0  0  0  0  0  0  0  0  0  0
  127.4520  122.9390   58.1340 C   0  0  0  0  0  0  0  0  0  0  0  0
  127.6790  122.7370   56.3800 S   0  0  0  0  0  0  0  0  0  0  0  0
  128.4140  124.2710   55.7380 C   0  0  0  0  0  0  0  0  0  0  0  0
  129.9320  124.3030   55.9290 C   0  0  0  0  0  0  0  0  0  0  0  0
  130.6490  124.6780   55.0010 O   0  0  0  0  0  0  0  0  0  0  0  0
  130.3750  123.9070   57.1420 N   0  0  0  0  0  0  0  0  0  0  0  0
  131.6970  123.8400   57.5590 C   0  0  0  0  0  0  0  0  0  0  0  0
  132.7800  124.0760   56.8500 N   0  0  0  0  0  0  0  0  0  0  0  0
  133.8730  123.9180   57.5700 C   0  0  0  0  0  0  0  0  0  0  0  0
  133.6880  123.5460   58.8980 C   0  0  0  0  0  0  0  0  0  0  0  0
  131.9840  123.3990   59.2120 S   0  0  0  0  0  0  0  0  0  0  0  0
  128.4730  122.4420   58.8760 N   0  0  0  0  0  0  0  0  0  0  0  0
  1  2  1  0
  2  3  2  0
  3  4  1  0
  4  5  1  0
  4  6  2  0
  6  7  1  0
  7  8  3  0
  6  9  1  0
  9 10  1  0
 10 11  1  0
 11 12  1  0
 12 13  2  0
 12 14  1  0
 14 15  1  0
 15 16  2  0
 16 17  1  0
 17 18  2  0
 18 19  1  0
  9 20  2  0
 20  2  1  0
 19 15  1  0
M  END
>  <Binding energies>  (5) 
[-6.31]

>  <Ligand effiencies>  (5) 
[-0.30047619047619045]

>  <Interactions>  (5) 
["V-B:GLU:543:CD:9876, V-B:TYR:539:CE2:9844, V-B:TYR:539:CZ:9845, V-B:PRO:540:CB:9853, V-B:PRO:540:CA:9851, V-B:MET:535:CE:9803, V-B:PRO:540:C:9849, V-B:ALA:541:CB:9860, V-B:TYR:539:C:9835, V-B:PRO:540:N:9852, V-A:ILE:369:CD1:3234, V-A:ASP:366:CG:3208, H-A:LYS:534:NZ:4818, H-A:TYR:531:OH:4790, V-B:ASP:366:CG:8180, H-B:TYR:539:OH:9846, H-B:TYR:531:OH:9763, V-A:ASP:366:CA:3205, V-A:ASP:366:CB:3207, V-A:ASP:366:C:3203, V-A:ILE:369:CB:3231"]

$$$$
1o_Grossjean_2025
     RDKit          3D

 26 27  0  0  0  0  0  0  0  0999 V2000
  123.6970  124.9150   57.6250 C   0  0  0  0  0  0  0  0  0  0  0  0
  124.4940  124.3290   56.6060 O   0  0  0  0  0  0  0  0  0  0  0  0
  125.1710  123.1730   56.8260 C   0  0  0  0  0  0  0  0  0  0  0  0
  124.6350  122.0600   56.8270 O   0  0  0  0  0  0  0  0  0  0  0  0
  126.6390  123.3800   57.0640 C   0  0  0  0  0  0  0  0  0  0  0  0
  127.5960  122.4360   56.6650 C   0  0  0  0  0  0  0  0  0  0  0  0
  128.9510  122.6600   56.8990 C   0  0  0  0  0  0  0  0  0  0  0  0
  129.3750  123.8260   57.5380 C   0  0  0  0  0  0  0  0  0  0  0  0
  130.7670  123.9550   57.7150 N   0  0  0  0  0  0  0  0  0  0  0  0
  131.7270  124.2810   56.8220 C   0  0  0  0  0  0  0  0  0  0  0  0
  131.5280  124.5790   55.6440 O   0  0  0  0  0  0  0  0  0  0  0  0
  133.1620  124.2960   57.3690 C   0  0  0  0  0  0  0  0  0  0  0  0
  133.4900  123.0790   58.2560 C   0  0  0  0  0  0  0  0  0  0  0  0
  133.0730  123.3090   60.0100 S   0  0  0  0  0  0  0  0  0  0  0  0
  131.6690  122.2820   60.3950 C   0  0  0  0  0  0  0  0  0  0  0  0
  130.5040  122.9720   60.4880 N   0  0  0  0  0  0  0  0  0  0  0  0
  129.3660  122.2950   60.7690 C   0  0  0  0  0  0  0  0  0  0  0  0
  128.1020  123.1310   60.8430 C   0  0  0  0  0  0  0  0  0  0  0  0
  129.3440  120.9180   60.9800 C   0  0  0  0  0  0  0  0  0  0  0  0
  130.5430  120.2000   60.9120 C   0  0  0  0  0  0  0  0  0  0  0  0
  130.4950  118.6940   61.1600 C   0  0  0  0  0  0  0  0  0  0  0  0
  131.7450  120.8870   60.6240 C   0  0  0  0  0  0  0  0  0  0  0  0
  133.0170  120.1620   60.6070 C   0  0  0  0  0  0  0  0  0  0  0  0
  134.0220  119.5870   60.5930 N   0  0  0  0  0  0  0  0  0  0  0  0
  128.4230  124.7770   57.9340 C   0  0  0  0  0  0  0  0  0  0  0  0
  127.0700  124.5520   57.6990 C   0  0  0  0  0  0  0  0  0  0  0  0
  1  2  1  0
  2  3  1  0
  3  4  2  0
  3  5  1  0
  5  6  2  0
  6  7  1  0
  7  8  2  0
  8  9  1  0
  9 10  1  0
 10 11  2  0
 10 12  1  0
 12 13  1  0
 13 14  1  0
 14 15  1  0
 15 16  2  0
 16 17  1  0
 17 18  1  0
 17 19  2  0
 19 20  1  0
 20 21  1  0
 20 22  2  0
 22 23  1  0
 23 24  3  0
  8 25  1  0
 25 26  2  0
 26  5  1  0
 22 15  1  0
M  END
>  <Binding energies>  (6) 
[-7.52]

>  <Ligand effiencies>  (6) 
[-0.2785185185185185]

>  <Interactions>  (6) 
["V-A:TYR:531:CZ:4789, V-A:TYR:531:CE1:4787, V-B:TYR:539:CD2:9842, V-B:TYR:539:CE2:9844, V-A:TRP:381:CE2:3362, V-B:TYR:539:CZ:9845, V-B:PRO:540:CB:9853, V-A:LEU:475:CD2:4254, V-B:PRO:540:CA:9851, V-A:TRP:381:CZ2:3365, V-A:TRP:381:CH2:3367, V-B:TYR:539:CE1:9843, V-A:PRO:482:CB:4321, V-B:MET:535:CE:9803, V-B:TYR:539:CD1:9841, V-B:PRO:540:C:9849, V-B:ALA:541:CB:9860, V-B:TYR:539:C:9835, V-B:PRO:540:N:9852, V-B:TYR:539:CG:9840, V-B:TYR:531:CZ:9762, V-A:ILE:369:CD1:3234, H-A:TYR:531:OH:4790, V-B:ASP:366:CB:8179, V-B:ASP:366:CG:8180, H-B:TYR:539:OH:9846, H-B:TYR:531:OH:9763, V-A:ASP:366:CA:3205, V-A:ASP:366:CB:3207, V-A:ASP:366:C:3203, V-B:LEU:363:CD1:8156, V-A:ILE:369:CG2:3232, V-A:ILE:369:CB:3231, V-B:LEU:363:CA:8152, V-B:ALA:541:CA:9858, V-B:TYR:531:CE2:9761"]

$$$$
1p_Grossjean_2025
     RDKit          3D

 21 22  0  0  0  0  0  0  0  0999 V2000
  127.6060  123.3140   60.5640 C   0  0  0  0  0  0  0  0  0  0  0  0
  128.8730  122.4860   60.4730 C   0  0  0  0  0  0  0  0  0  0  0  0
  128.9340  121.1900   60.9820 C   0  0  0  0  0  0  0  0  0  0  0  0
  130.1330  120.4760   60.8830 C   0  0  0  0  0  0  0  0  0  0  0  0
  130.1820  119.0630   61.4620 C   0  0  0  0  0  0  0  0  0  0  0  0
  131.2490  121.0820   60.2630 C   0  0  0  0  0  0  0  0  0  0  0  0
  132.5280  120.3750   60.1890 C   0  0  0  0  0  0  0  0  0  0  0  0
  133.5400  119.8140   60.1320 N   0  0  0  0  0  0  0  0  0  0  0  0
  131.0900  122.3930   59.7540 C   0  0  0  0  0  0  0  0  0  0  0  0
  132.3860  123.2960   58.9370 S   0  0  0  0  0  0  0  0  0  0  0  0
  131.5850  124.6200   57.9840 C   0  0  0  0  0  0  0  0  0  0  0  0
  131.4500  124.3100   56.4810 C   0  0  0  0  0  0  0  0  0  0  0  0
  130.0090  124.0050   56.0450 C   0  0  0  0  0  0  0  0  0  0  0  0
  129.5870  124.4640   54.9820 O   0  0  0  0  0  0  0  0  0  0  0  0
  129.2990  123.2180   56.8830 N   0  0  0  0  0  0  0  0  0  0  0  0
  127.9850  122.7930   56.7270 C   0  0  0  0  0  0  0  0  0  0  0  0
  126.9020  123.4260   57.3370 C   0  0  0  0  0  0  0  0  0  0  0  0
  125.7970  122.7110   56.9360 C   0  0  0  0  0  0  0  0  0  0  0  0
  126.1930  121.7000   56.1280 O   0  0  0  0  0  0  0  0  0  0  0  0
  127.5830  121.7610   56.0040 N   0  0  0  0  0  0  0  0  0  0  0  0
  129.9280  123.0850   59.8740 N   0  0  0  0  0  0  0  0  0  0  0  0
  1  2  1  0
  2  3  2  0
  3  4  1  0
  4  5  1  0
  4  6  2  0
  6  7  1  0
  7  8  3  0
  6  9  1  0
  9 10  1  0
 10 11  1  0
 11 12  1  0
 12 13  1  0
 13 14  2  0
 13 15  1  0
 15 16  1  0
 16 17  1  0
 17 18  2  0
 18 19  1  0
 19 20  1  0
  9 21  2  0
 21  2  1  0
 20 16  2  0
M  END
>  <Binding energies>  (7) 
[-7.48]

>  <Ligand effiencies>  (7) 
[-0.34]

>  <Interactions>  (7) 
["V-A:TYR:531:CZ:4789, V-A:TYR:531:CE1:4787, V-B:TYR:539:CD2:9842, V-B:TYR:539:CE2:9844, V-B:TYR:539:CZ:9845, V-B:PRO:540:CB:9853, V-A:LEU:475:CD2:4254, V-B:PRO:540:CA:9851, V-A:TRP:381:CZ2:3365, V-A:TRP:381:CH2:3367, V-B:TYR:539:CE1:9843, V-A:PRO:482:CB:4321, V-B:MET:535:CE:9803, V-B:PRO:540:C:9849, V-B:ALA:541:CB:9860, V-B:TYR:539:C:9835, V-A:LEU:475:CD1:4253, V-B:PRO:540:N:9852, H-A:LYS:534:NZ:4818, V-B:PRO:540:CD:9855, H-B:TYR:539:OH:9846, H-B:TYR:539:N:9838, V-A:ILE:369:CG2:3232, V-B:ALA:541:CA:9858"]

$$$$
2a_Ghoteimi_2023
     RDKit          3D

 48 53  0  0  0  0  0  0  0  0999 V2000
  131.0750  132.3120   54.3210 C   0  0  0  0  0  0  0  0  0  0  0  0
  129.7410  132.8330   54.8620 C   0  0  0  0  0  0  0  0  0  0  0  0
  129.9490  133.4280   56.1370 O   0  0  0  0  0  0  0  0  0  0  0  0
  130.1990  132.6680   57.2340 C   0  0  0  0  0  0  0  0  0  0  0  0
  131.2870  132.1250   57.4510 O   0  0  0  0  0  0  0  0  0  0  0  0
  129.0230  132.5610   58.1620 C   0  0  0  0  0  0  0  0  0  0  0  0
  128.9430  133.3060   59.3480 C   0  0  0  0  0  0  0  0  0  0  0  0
  127.8380  133.1840   60.1850 C   0  0  0  0  0  0  0  0  0  0  0  0
  126.7900  132.3230   59.8550 C   0  0  0  0  0  0  0  0  0  0  0  0
  125.7250  132.2750   60.7750 N   0  0  0  0  0  0  0  0  0  0  0  0
  124.7730  133.1950   61.0450 C   0  0  0  0  0  0  0  0  0  0  0  0
  124.7030  134.3130   60.5340 O   0  0  0  0  0  0  0  0  0  0  0  0
  123.7480  132.7790   62.1080 C   0  0  0  0  0  0  0  0  0  0  0  0
  123.1700  131.0570   61.9640 S   0  0  0  0  0  0  0  0  0  0  0  0
  124.5690  130.0440   62.3830 C   0  0  0  0  0  0  0  0  0  0  0  0
  125.1580  129.4540   61.3170 N   0  0  0  0  0  0  0  0  0  0  0  0
  126.2320  128.6480   61.5090 C   0  0  0  0  0  0  0  0  0  0  0  0
  126.8240  128.0240   60.2860 C   0  0  0  0  0  0  0  0  0  0  0  0
  126.2650  128.2350   59.0200 C   0  0  0  0  0  0  0  0  0  0  0  0
  126.8130  127.6420   57.8870 C   0  0  0  0  0  0  0  0  0  0  0  0
  127.9460  126.8200   57.9750 C   0  0  0  0  0  0  0  0  0  0  0  0
  128.4680  126.2060   56.8310 N   0  0  0  0  0  0  0  0  0  0  0  0
  129.1650  124.9060   56.9050 C   0  0  0  0  0  0  0  0  0  0  0  0
  129.3460  124.2180   55.5360 C   0  0  0  0  0  0  0  0  0  0  0  0
  130.0020  125.0950   54.6340 O   0  0  0  0  0  0  0  0  0  0  0  0
  129.2510  126.2800   54.4260 C   0  0  0  0  0  0  0  0  0  0  0  0
  129.0650  127.0320   55.7610 C   0  0  0  0  0  0  0  0  0  0  0  0
  128.4960  126.6020   59.2480 C   0  0  0  0  0  0  0  0  0  0  0  0
  127.9490  127.1970   60.3810 C   0  0  0  0  0  0  0  0  0  0  0  0
  126.7500  128.4270   62.7880 C   0  0  0  0  0  0  0  0  0  0  0  0
  126.1580  129.0270   63.9070 C   0  0  0  0  0  0  0  0  0  0  0  0
  126.7580  128.7430   65.2450 C   0  0  0  0  0  0  0  0  0  0  0  0
  127.7580  129.5740   65.7580 C   0  0  0  0  0  0  0  0  0  0  0  0
  128.3370  129.3070   66.9950 C   0  0  0  0  0  0  0  0  0  0  0  0
  127.9330  128.2010   67.7580 C   0  0  0  0  0  0  0  0  0  0  0  0
  128.5160  127.9040   68.9930 N   0  0  0  0  0  0  0  0  0  0  0  0
  127.7360  127.1540   69.9990 C   0  0  0  0  0  0  0  0  0  0  0  0
  128.6060  126.5640   71.1290 C   0  0  0  0  0  0  0  0  0  0  0  0
  129.3660  127.5930   71.7450 O   0  0  0  0  0  0  0  0  0  0  0  0
  130.2280  128.2360   70.8190 C   0  0  0  0  0  0  0  0  0  0  0  0
  129.4020  128.8650   69.6780 C   0  0  0  0  0  0  0  0  0  0  0  0
  126.9390  127.3650   67.2310 C   0  0  0  0  0  0  0  0  0  0  0  0
  126.3600  127.6310   65.9930 C   0  0  0  0  0  0  0  0  0  0  0  0
  125.0360  129.8670   63.7050 C   0  0  0  0  0  0  0  0  0  0  0  0
  124.4080  130.5670   64.8300 C   0  0  0  0  0  0  0  0  0  0  0  0
  123.9130  131.1170   65.7210 N   0  0  0  0  0  0  0  0  0  0  0  0
  126.8670  131.5690   58.6740 C   0  0  0  0  0  0  0  0  0  0  0  0
  127.9720  131.6930   57.8370 C   0  0  0  0  0  0  0  0  0  0  0  0
  1  2  1  0
  2  3  1  0
  3  4  1  0
  4  5  2  0
  4  6  1  0
  6  7  2  0
  7  8  1  0
  8  9  2  0
  9 10  1  0
 10 11  1  0
 11 12  2  0
 11 13  1  0
 13 14  1  0
 14 15  1  0
 15 16  2  0
 16 17  1  0
 17 18  1  0
 18 19  2  0
 19 20  1  0
 20 21  2  0
 21 22  1  0
 22 23  1  0
 23 24  1  0
 24 25  1  0
 25 26  1  0
 26 27  1  0
 21 28  1  0
 28 29  2  0
 17 30  2  0
 30 31  1  0
 31 32  1  0
 32 33  2  0
 33 34  1  0
 34 35  2  0
 35 36  1  0
 36 37  1  0
 37 38  1  0
 38 39  1  0
 39 40  1  0
 40 41  1  0
 35 42  1  0
 42 43  2  0
 31 44  2  0
 44 45  1  0
 45 46  3  0
  9 47  1  0
 47 48  2  0
 48  6  1  0
 44 15  1  0
 29 18  1  0
 43 32  1  0
 27 22  1  0
 41 36  1  0
M  END
>  <Binding energies>  (8) 
[-10.92]

>  <Ligand effiencies>  (8) 
[-0.22285714285714286]

>  <Interactions>  (8) 
["V-A:GLU:543:CG:4902, V-B:ILE:369:CD1:8206, V-A:TYR:539:CE2:4871, V-A:TYR:539:CD2:4869, V-B:LEU:475:CD2:9226, V-A:PRO:540:CB:4880, V-A:PRO:540:CA:4878, V-A:PRO:540:CD:4882, V-A:PRO:540:N:4879, V-A:ILE:538:CD1:4860, H-A:TYR:539:N:4865, V-B:ARG:545:CZ:9894, V-A:TYR:539:CD1:4868, V-A:TYR:539:C:4862, V-A:ILE:538:CA:4855, H-B:TYR:484:OH:9315, V-B:GLU:543:C:9870, V-A:HIS:456:CE1:4064, H-B:LYS:547:NZ:9919, V-B:GLU:543:CD:9876, V-B:HIS:456:CE1:9037, V-B:ARG:545:CG:9890, V-B:GLU:543:CB:9874, V-A:GLU:543:CB:4901, V-A:TYR:531:CE1:4787, V-A:TYR:539:CZ:4872, V-A:TYR:539:CE1:4870, V-B:TYR:539:CZ:9845, V-B:TYR:539:CE1:9843, V-B:MET:535:CE:9803, H-A:LYS:534:NZ:4818, V-B:ASP:366:CG:8180, H-B:GLY:454:N:9017, V-A:LYS:534:CD:4816"]

$$$$
2aa_Ghoteimi_2023
     RDKit          3D

 48 53  0  0  0  0  0  0  0  0999 V2000
  131.3090  132.3650   54.4970 C   0  0  0  0  0  0  0  0  0  0  0  0
  129.9100  132.9260   54.7720 C   0  0  0  0  0  0  0  0  0  0  0  0
  129.8880  133.5250   56.0610 O   0  0  0  0  0  0  0  0  0  0  0  0
  130.0850  132.7850   57.1830 C   0  0  0  0  0  0  0  0  0  0  0  0
  131.2040  132.4890   57.6150 O   0  0  0  0  0  0  0  0  0  0  0  0
  128.8060  132.3750   57.8550 C   0  0  0  0  0  0  0  0  0  0  0  0
  127.9760  131.3790   57.3210 C   0  0  0  0  0  0  0  0  0  0  0  0
  126.7990  131.0180   57.9700 C   0  0  0  0  0  0  0  0  0  0  0  0
  126.4230  131.6490   59.1570 C   0  0  0  0  0  0  0  0  0  0  0  0
  125.2150  131.2040   59.7300 N   0  0  0  0  0  0  0  0  0  0  0  0
  124.2340  131.9080   60.3340 C   0  0  0  0  0  0  0  0  0  0  0  0
  124.2180  133.1330   60.4650 O   0  0  0  0  0  0  0  0  0  0  0  0
  123.0650  131.0580   60.8520 C   0  0  0  0  0  0  0  0  0  0  0  0
  123.3700  130.5690   62.1620 O   0  0  0  0  0  0  0  0  0  0  0  0
  124.5310  129.8390   62.3810 C   0  0  0  0  0  0  0  0  0  0  0  0
  125.1560  129.2910   61.3010 N   0  0  0  0  0  0  0  0  0  0  0  0
  126.2940  128.5750   61.4790 C   0  0  0  0  0  0  0  0  0  0  0  0
  126.9220  127.9990   60.2490 C   0  0  0  0  0  0  0  0  0  0  0  0
  128.3050  128.0670   60.0550 C   0  0  0  0  0  0  0  0  0  0  0  0
  128.8950  127.5270   58.9150 C   0  0  0  0  0  0  0  0  0  0  0  0
  128.1240  126.8850   57.9330 C   0  0  0  0  0  0  0  0  0  0  0  0
  128.6990  126.3480   56.7750 N   0  0  0  0  0  0  0  0  0  0  0  0
  128.8930  124.8920   56.6160 C   0  0  0  0  0  0  0  0  0  0  0  0
  129.8470  124.5140   55.4640 C   0  0  0  0  0  0  0  0  0  0  0  0
  129.4010  125.1010   54.2520 O   0  0  0  0  0  0  0  0  0  0  0  0
  129.3710  126.5170   54.3420 C   0  0  0  0  0  0  0  0  0  0  0  0
  128.4030  126.9560   55.4610 C   0  0  0  0  0  0  0  0  0  0  0  0
  126.7350  126.8390   58.1230 C   0  0  0  0  0  0  0  0  0  0  0  0
  126.1460  127.3820   59.2610 C   0  0  0  0  0  0  0  0  0  0  0  0
  126.8300  128.3760   62.7550 C   0  0  0  0  0  0  0  0  0  0  0  0
  126.2020  128.9190   63.8820 C   0  0  0  0  0  0  0  0  0  0  0  0
  126.8080  128.6500   65.2220 C   0  0  0  0  0  0  0  0  0  0  0  0
  126.2560  127.6820   66.0650 C   0  0  0  0  0  0  0  0  0  0  0  0
  126.8040  127.4410   67.3220 C   0  0  0  0  0  0  0  0  0  0  0  0
  127.9110  128.1720   67.7790 C   0  0  0  0  0  0  0  0  0  0  0  0
  128.4790  127.9440   69.0350 N   0  0  0  0  0  0  0  0  0  0  0  0
  127.7180  127.2890   70.1160 C   0  0  0  0  0  0  0  0  0  0  0  0
  128.6020  126.8090   71.2870 C   0  0  0  0  0  0  0  0  0  0  0  0
  129.3670  127.8920   71.7920 O   0  0  0  0  0  0  0  0  0  0  0  0
  130.2170  128.4410   70.7970 C   0  0  0  0  0  0  0  0  0  0  0  0
  129.3760  128.9650   69.6150 C   0  0  0  0  0  0  0  0  0  0  0  0
  128.4620  129.1360   66.9240 C   0  0  0  0  0  0  0  0  0  0  0  0
  127.9150  129.3770   65.6670 C   0  0  0  0  0  0  0  0  0  0  0  0
  125.0280  129.6830   63.6870 C   0  0  0  0  0  0  0  0  0  0  0  0
  124.3320  130.3310   64.8020 C   0  0  0  0  0  0  0  0  0  0  0  0
  123.7830  130.8420   65.6830 N   0  0  0  0  0  0  0  0  0  0  0  0
  127.2510  132.6410   59.7010 C   0  0  0  0  0  0  0  0  0  0  0  0
  128.4300  132.9970   59.0520 C   0  0  0  0  0  0  0  0  0  0  0  0
  1  2  1  0
  2  3  1  0
  3  4  1  0
  4  5  2  0
  4  6  1  0
  6  7  2  0
  7  8  1  0
  8  9  2  0
  9 10  1  0
 10 11  1  0
 11 12  2  0
 11 13  1  0
 13 14  1  0
 14 15  1  0
 15 16  2  0
 16 17  1  0
 17 18  1  0
 18 19  2  0
 19 20  1  0
 20 21  2  0
 21 22  1  0
 22 23  1  0
 23 24  1  0
 24 25  1  0
 25 26  1  0
 26 27  1  0
 21 28  1  0
 28 29  2  0
 17 30  2  0
 30 31  1  0
 31 32  1  0
 32 33  2  0
 33 34  1  0
 34 35  2  0
 35 36  1  0
 36 37  1  0
 37 38  1  0
 38 39  1  0
 39 40  1  0
 40 41  1  0
 35 42  1  0
 42 43  2  0
 31 44  2  0
 44 45  1  0
 45 46  3  0
  9 47  1  0
 47 48  2  0
 48  6  1  0
 44 15  1  0
 29 18  1  0
 43 32  1  0
 27 22  1  0
 41 36  1  0
M  END
>  <Binding energies>  (9) 
[-10.73]

>  <Ligand effiencies>  (9) 
[-0.2189795918367347]

>  <Interactions>  (9) 
["V-A:GLU:543:CG:4902, V-B:ILE:369:CD1:8206, V-A:TYR:539:CE2:4871, V-A:TYR:539:CD2:4869, V-A:PRO:540:CB:4880, V-A:PRO:540:CA:4878, V-A:PRO:540:CD:4882, V-A:PRO:540:N:4879, V-A:ILE:538:CD1:4860, V-A:TYR:539:CG:4867, H-A:TYR:539:N:4865, V-B:ARG:545:CZ:9894, V-A:TYR:539:CD1:4868, V-A:TYR:539:C:4862, V-A:ILE:538:CA:4855, H-B:TYR:484:OH:9315, V-A:HIS:456:CE1:4064, H-B:LYS:547:NZ:9919, V-B:GLU:543:CD:9876, V-B:HIS:456:CE1:9037, V-B:ARG:545:CG:9890, V-B:GLU:543:CB:9874, V-A:GLU:543:CB:4901, V-A:TYR:531:CE1:4787, V-A:TYR:539:CZ:4872, V-A:ILE:538:CG2:4858, V-A:TYR:539:CE1:4870, V-B:TYR:539:CZ:9845, H-A:LYS:534:NZ:4818, V-B:ASP:366:CG:8180, H-B:GLY:454:N:9017, V-B:ASP:366:CA:8177, H-B:ARG:545:NH2:9896, V-A:LYS:534:CD:4816, H-B:ASP:366:OD1:8181"]

$$$$
2b_Ghoteimi_2023
     RDKit          3D

 42 47  0  0  0  0  0  0  0  0999 V2000
  131.0860  122.8310   64.3620 N   0  0  0  0  0  0  0  0  0  0  0  0
  131.0300  123.7310   63.6370 C   0  0  0  0  0  0  0  0  0  0  0  0
  130.9580  124.8760   62.7240 C   0  0  0  0  0  0  0  0  0  0  0  0
  130.5060  126.1370   63.1850 C   0  0  0  0  0  0  0  0  0  0  0  0
  130.0820  126.4040   64.5920 C   0  0  0  0  0  0  0  0  0  0  0  0
  128.9220  127.1360   64.8500 C   0  0  0  0  0  0  0  0  0  0  0  0
  128.5220  127.3880   66.1590 C   0  0  0  0  0  0  0  0  0  0  0  0
  129.2810  126.9290   67.2470 C   0  0  0  0  0  0  0  0  0  0  0  0
  128.8940  127.1580   68.5680 N   0  0  0  0  0  0  0  0  0  0  0  0
  129.7140  128.0490   69.4140 C   0  0  0  0  0  0  0  0  0  0  0  0
  129.4040  127.9180   70.9200 C   0  0  0  0  0  0  0  0  0  0  0  0
  128.0190  128.1230   71.1540 O   0  0  0  0  0  0  0  0  0  0  0  0
  127.2240  127.1760   70.4580 C   0  0  0  0  0  0  0  0  0  0  0  0
  127.4720  127.2970   68.9400 C   0  0  0  0  0  0  0  0  0  0  0  0
  130.4460  126.1980   66.9770 C   0  0  0  0  0  0  0  0  0  0  0  0
  130.8440  125.9420   65.6680 C   0  0  0  0  0  0  0  0  0  0  0  0
  130.4590  127.2020   62.2770 C   0  0  0  0  0  0  0  0  0  0  0  0
  130.8800  127.0240   60.9560 C   0  0  0  0  0  0  0  0  0  0  0  0
  130.8780  128.1360   59.9550 C   0  0  0  0  0  0  0  0  0  0  0  0
  131.6430  129.2880   60.1670 C   0  0  0  0  0  0  0  0  0  0  0  0
  131.6590  130.3200   59.2320 C   0  0  0  0  0  0  0  0  0  0  0  0
  130.8980  130.2430   58.0540 C   0  0  0  0  0  0  0  0  0  0  0  0
  130.9280  131.2580   57.0910 N   0  0  0  0  0  0  0  0  0  0  0  0
  129.7410  132.1150   56.8880 C   0  0  0  0  0  0  0  0  0  0  0  0
  129.7700  132.9070   55.5640 C   0  0  0  0  0  0  0  0  0  0  0  0
  130.9660  133.6660   55.4770 O   0  0  0  0  0  0  0  0  0  0  0  0
  132.1130  132.8320   55.5060 C   0  0  0  0  0  0  0  0  0  0  0  0
  132.1550  132.0350   56.8270 C   0  0  0  0  0  0  0  0  0  0  0  0
  130.1390  129.0840   57.8430 C   0  0  0  0  0  0  0  0  0  0  0  0
  130.1260  128.0510   58.7770 C   0  0  0  0  0  0  0  0  0  0  0  0
  131.3130  125.8150   60.5160 N   0  0  0  0  0  0  0  0  0  0  0  0
  131.3370  124.7620   61.3670 C   0  0  0  0  0  0  0  0  0  0  0  0
  131.9260  123.2570   60.6230 S   0  0  0  0  0  0  0  0  0  0  0  0
  132.4740  123.6570   58.9360 C   0  0  0  0  0  0  0  0  0  0  0  0
  131.2980  123.8040   57.9690 C   0  0  0  0  0  0  0  0  0  0  0  0
  130.3680  122.9970   58.0230 O   0  0  0  0  0  0  0  0  0  0  0  0
  131.3820  124.8380   57.1040 N   0  0  0  0  0  0  0  0  0  0  0  0
  130.4570  125.2030   56.1360 C   0  0  0  0  0  0  0  0  0  0  0  0
  129.2910  125.9110   56.4270 C   0  0  0  0  0  0  0  0  0  0  0  0
  128.6580  126.0710   55.2170 C   0  0  0  0  0  0  0  0  0  0  0  0
  129.4040  125.4900   54.2470 O   0  0  0  0  0  0  0  0  0  0  0  0
  130.5430  124.9440   54.8420 N   0  0  0  0  0  0  0  0  0  0  0  0
  1  2  3  0
  2  3  1  0
  3  4  2  0
  4  5  1  0
  5  6  2  0
  6  7  1  0
  7  8  2  0
  8  9  1  0
  9 10  1  0
 10 11  1  0
 11 12  1  0
 12 13  1  0
 13 14  1  0
  8 15  1  0
 15 16  2  0
  4 17  1  0
 17 18  2  0
 18 19  1  0
 19 20  2  0
 20 21  1  0
 21 22  2  0
 22 23  1  0
 23 24  1  0
 24 25  1  0
 25 26  1  0
 26 27  1  0
 27 28  1  0
 22 29  1  0
 29 30  2  0
 18 31  1  0
 31 32  2  0
 32 33  1  0
 33 34  1  0
 34 35  1  0
 35 36  2  0
 35 37  1  0
 37 38  1  0
 38 39  1  0
 39 40  2  0
 40 41  1  0
 41 42  1  0
 32  3  1  0
 42 38  2  0
 16  5  1  0
 30 19  1  0
 14  9  1  0
 28 23  1  0
M  END
>  <Binding energies>  (10) 
[-11.24]

>  <Ligand effiencies>  (10) 
[-0.26139534883720933]

>  <Interactions>  (10) 
["V-A:LEU:363:CD1:3184, V-A:TYR:531:CZ:4789, V-A:GLU:543:CD:4903, V-A:PRO:540:CB:4880, V-A:PRO:540:CD:4882, V-A:ILE:538:CD1:4860, H-A:TYR:539:N:4865, V-A:TYR:539:CD1:4868, V-A:ILE:538:CA:4855, V-B:GLU:543:C:9870, V-A:HIS:456:CE1:4064, H-B:LYS:547:NZ:9919, V-B:HIS:456:CD2:9035, V-B:GLU:543:CD:9876, V-B:HIS:456:CE1:9037, V-B:GLU:543:CB:9874, V-A:TYR:531:CE1:4787, V-A:ILE:538:CG2:4858, V-A:TYR:539:CE1:4870, V-B:TYR:539:CE2:9844, V-B:TYR:539:CZ:9845, V-B:MET:535:CE:9803, H-A:LYS:534:NZ:4818, H-A:TYR:484:OH:4343, H-A:TYR:531:OH:4790, H-B:TYR:539:OH:9846, V-A:PRO:540:CG:4881, V-B:GLY:544:C:9880"]

$$$$
2c_Ghoteimi_2023
     RDKit          3D

 42 47  0  0  0  0  0  0  0  0999 V2000
  130.4900  122.5740   64.3940 N   0  0  0  0  0  0  0  0  0  0  0  0
  130.5130  123.4800   63.6740 C   0  0  0  0  0  0  0  0  0  0  0  0
  130.5410  124.6310   62.7670 C   0  0  0  0  0  0  0  0  0  0  0  0
  130.3530  125.9450   63.2630 C   0  0  0  0  0  0  0  0  0  0  0  0
  130.1140  126.2650   64.7020 C   0  0  0  0  0  0  0  0  0  0  0  0
  131.0170  125.8360   65.6760 C   0  0  0  0  0  0  0  0  0  0  0  0
  130.8040  126.1340   67.0200 C   0  0  0  0  0  0  0  0  0  0  0  0
  129.6730  126.8570   67.4280 C   0  0  0  0  0  0  0  0  0  0  0  0
  129.4500  127.1850   68.7680 N   0  0  0  0  0  0  0  0  0  0  0  0
  130.0670  128.4050   69.3260 C   0  0  0  0  0  0  0  0  0  0  0  0
  130.0650  128.4370   70.8690 C   0  0  0  0  0  0  0  0  0  0  0  0
  128.7430  128.2690   71.3580 O   0  0  0  0  0  0  0  0  0  0  0  0
  128.1850  127.0310   70.9460 C   0  0  0  0  0  0  0  0  0  0  0  0
  128.1380  126.9600   69.4050 C   0  0  0  0  0  0  0  0  0  0  0  0
  128.7700  127.2810   66.4430 C   0  0  0  0  0  0  0  0  0  0  0  0
  128.9850  126.9850   65.1000 C   0  0  0  0  0  0  0  0  0  0  0  0
  130.3930  127.0120   62.3560 C   0  0  0  0  0  0  0  0  0  0  0  0
  130.6390  126.7800   60.9990 C   0  0  0  0  0  0  0  0  0  0  0  0
  130.7090  127.8850   59.9950 C   0  0  0  0  0  0  0  0  0  0  0  0
  130.0580  127.7720   58.7620 C   0  0  0  0  0  0  0  0  0  0  0  0
  130.1140  128.8010   57.8240 C   0  0  0  0  0  0  0  0  0  0  0  0
  130.8350  129.9780   58.0820 C   0  0  0  0  0  0  0  0  0  0  0  0
  130.8800  131.0300   57.1610 N   0  0  0  0  0  0  0  0  0  0  0  0
  129.7760  132.0100   57.1090 C   0  0  0  0  0  0  0  0  0  0  0  0
  129.7660  132.8640   55.8230 C   0  0  0  0  0  0  0  0  0  0  0  0
  131.0180  133.5070   55.6570 O   0  0  0  0  0  0  0  0  0  0  0  0
  132.0740  132.5660   55.5430 C   0  0  0  0  0  0  0  0  0  0  0  0
  132.1520  131.6990   56.8170 C   0  0  0  0  0  0  0  0  0  0  0  0
  131.4750  130.0920   59.3240 C   0  0  0  0  0  0  0  0  0  0  0  0
  131.4160  129.0640   60.2610 C   0  0  0  0  0  0  0  0  0  0  0  0
  130.8220  125.5200   60.5270 N   0  0  0  0  0  0  0  0  0  0  0  0
  130.7570  124.4700   61.3790 C   0  0  0  0  0  0  0  0  0  0  0  0
  131.0070  122.8960   60.5890 S   0  0  0  0  0  0  0  0  0  0  0  0
  129.5890  121.8400   61.0150 C   0  0  0  0  0  0  0  0  0  0  0  0
  128.2700  122.4120   60.4910 C   0  0  0  0  0  0  0  0  0  0  0  0
  127.4220  122.8070   61.2920 O   0  0  0  0  0  0  0  0  0  0  0  0
  128.1370  122.4320   59.1470 N   0  0  0  0  0  0  0  0  0  0  0  0
  127.0530  122.9120   58.4280 C   0  0  0  0  0  0  0  0  0  0  0  0
  126.5400  122.4260   57.3180 N   0  0  0  0  0  0  0  0  0  0  0  0
  125.5050  123.1330   56.9120 C   0  0  0  0  0  0  0  0  0  0  0  0
  125.1570  124.2250   57.7020 C   0  0  0  0  0  0  0  0  0  0  0  0
  126.2530  124.3200   59.0480 S   0  0  0  0  0  0  0  0  0  0  0  0
  1  2  3  0
  2  3  1  0
  3  4  2  0
  4  5  1  0
  5  6  2  0
  6  7  1  0
  7  8  2  0
  8  9  1  0
  9 10  1  0
 10 11  1  0
 11 12  1  0
 12 13  1  0
 13 14  1  0
  8 15  1  0
 15 16  2  0
  4 17  1  0
 17 18  2  0
 18 19  1  0
 19 20  2  0
 20 21  1  0
 21 22  2  0
 22 23  1  0
 23 24  1  0
 24 25  1  0
 25 26  1  0
 26 27  1  0
 27 28  1  0
 22 29  1  0
 29 30  2  0
 18 31  1  0
 31 32  2  0
 32 33  1  0
 33 34  1  0
 34 35  1  0
 35 36  2  0
 35 37  1  0
 37 38  1  0
 38 39  2  0
 39 40  1  0
 40 41  2  0
 41 42  1  0
 32  3  1  0
 42 38  1  0
 16  5  1  0
 30 19  1  0
 14  9  1  0
 28 23  1  0
M  END
>  <Binding energies>  (11) 
[-10.66]

>  <Ligand effiencies>  (11) 
[-0.24790697674418605]

>  <Interactions>  (11) 
["V-A:LEU:363:CD1:3184, V-A:PRO:540:CB:4880, V-A:PRO:540:CD:4882, H-A:TYR:539:N:4865, V-A:TYR:539:CD1:4868, V-B:GLU:543:C:9870, V-A:HIS:456:CE1:4064, V-B:GLU:543:CD:9876, V-B:HIS:456:CE1:9037, V-B:GLU:543:CG:9875, V-B:GLU:543:CB:9874, V-A:GLU:543:CB:4901, V-A:ILE:538:CG2:4858, V-A:TYR:539:CE1:4870, V-B:PRO:540:CB:9853, V-B:PRO:540:CA:9851, V-B:MET:535:CE:9803, V-B:PRO:540:C:9849, V-B:ALA:541:CB:9860, V-B:TYR:539:C:9835, V-B:PRO:540:N:9852, H-B:TYR:539:O:9836, H-B:ALA:541:N:9859, H-A:TYR:484:OH:4343"]

$$$$
2j_Grossjean_2025
     RDKit          3D

 23 24  0  0  0  0  0  0  0  0999 V2000
  127.0930  127.8130   54.6000 C   0  0  0  0  0  0  0  0  0  0  0  0
  127.7180  129.0930   55.1230 C   0  0  0  0  0  0  0  0  0  0  0  0
  127.4230  129.5830   56.3930 C   0  0  0  0  0  0  0  0  0  0  0  0
  128.0280  130.7690   56.8330 C   0  0  0  0  0  0  0  0  0  0  0  0
  127.6910  131.2970   58.2410 C   0  0  0  0  0  0  0  0  0  0  0  0
  126.5020  130.8330   58.6280 F   0  0  0  0  0  0  0  0  0  0  0  0
  128.6170  130.8950   59.1130 F   0  0  0  0  0  0  0  0  0  0  0  0
  127.6400  132.6290   58.2940 F   0  0  0  0  0  0  0  0  0  0  0  0
  128.9260  131.4350   55.9610 C   0  0  0  0  0  0  0  0  0  0  0  0
  129.5870  132.6780   56.3680 C   0  0  0  0  0  0  0  0  0  0  0  0
  130.1090  133.6600   56.6910 N   0  0  0  0  0  0  0  0  0  0  0  0
  129.1670  130.8660   54.6870 C   0  0  0  0  0  0  0  0  0  0  0  0
  130.2810  131.6170   53.5080 S   0  0  0  0  0  0  0  0  0  0  0  0
  131.9910  131.1840   53.9760 C   0  0  0  0  0  0  0  0  0  0  0  0
  132.3690  131.5240   55.4250 C   0  0  0  0  0  0  0  0  0  0  0  0
  132.6610  132.6790   55.7460 O   0  0  0  0  0  0  0  0  0  0  0  0
  132.3620  130.4720   56.2740 N   0  0  0  0  0  0  0  0  0  0  0  0
  132.6600  130.4980   57.6300 C   0  0  0  0  0  0  0  0  0  0  0  0
  133.8270  130.7190   58.1950 N   0  0  0  0  0  0  0  0  0  0  0  0
  133.7470  130.6720   59.5110 C   0  0  0  0  0  0  0  0  0  0  0  0
  132.4870  130.4070   60.0410 C   0  0  0  0  0  0  0  0  0  0  0  0
  131.3550  130.2100   58.7360 S   0  0  0  0  0  0  0  0  0  0  0  0
  128.5730  129.7160   54.2810 N   0  0  0  0  0  0  0  0  0  0  0  0
  1  2  1  0
  2  3  2  0
  3  4  1  0
  4  5  1  0
  5  6  1  0
  5  7  1  0
  5  8  1  0
  4  9  2  0
  9 10  1  0
 10 11  3  0
  9 12  1  0
 12 13  1  0
 13 14  1  0
 14 15  1  0
 15 16  2  0
 15 17  1  0
 17 18  1  0
 18 19  2  0
 19 20  1  0
 20 21  2  0
 21 22  1  0
 12 23  2  0
 23  2  1  0
 22 18  1  0
M  END
>  <Binding energies>  (12) 
[-6.02]

>  <Ligand effiencies>  (12) 
[-0.2508333333333333]

>  <Interactions>  (12) 
["V-A:TYR:539:CE2:4871, V-A:LEU:363:CD1:3184, V-A:TYR:531:CZ:4789, V-A:TYR:539:CD2:4869, V-A:LEU:363:CA:3180, V-A:ASN:362:C:3167, V-A:TYR:531:CE2:4788, V-A:PRO:540:CB:4880, V-A:ILE:538:CD1:4860, V-A:TYR:539:CG:4867, H-A:TYR:539:N:4865, V-A:TYR:539:CD1:4868, V-A:MET:535:CG:4828, V-A:TYR:539:CZ:4872, V-A:TYR:539:CE1:4870, V-B:TYR:531:CZ:9762, H-A:TYR:531:OH:4790"]

$$$$
3ab_Grossjean_2025
     RDKit          3D

 33 35  0  0  0  0  0  0  0  0999 V2000
  123.2550  129.9260   66.1500 C   0  0  0  0  0  0  0  0  0  0  0  0
  123.2830  130.0310   64.7330 O   0  0  0  0  0  0  0  0  0  0  0  0
  123.9340  131.0520   64.1210 C   0  0  0  0  0  0  0  0  0  0  0  0
  124.1800  132.1300   64.6710 O   0  0  0  0  0  0  0  0  0  0  0  0
  124.3280  130.7410   62.7060 C   0  0  0  0  0  0  0  0  0  0  0  0
  125.4280  129.9250   62.4030 C   0  0  0  0  0  0  0  0  0  0  0  0
  125.7700  129.6520   61.0810 C   0  0  0  0  0  0  0  0  0  0  0  0
  125.0120  130.1970   60.0320 C   0  0  0  0  0  0  0  0  0  0  0  0
  125.2620  129.9840   58.6630 N   0  0  0  0  0  0  0  0  0  0  0  0
  124.5080  130.2920   57.5870 C   0  0  0  0  0  0  0  0  0  0  0  0
  123.4020  130.8320   57.6190 O   0  0  0  0  0  0  0  0  0  0  0  0
  125.1150  129.9200   56.2320 C   0  0  0  0  0  0  0  0  0  0  0  0
  126.7930  129.2390   56.3980 S   0  0  0  0  0  0  0  0  0  0  0  0
  127.8790  130.5890   56.8100 C   0  0  0  0  0  0  0  0  0  0  0  0
  127.5720  131.1910   57.9840 N   0  0  0  0  0  0  0  0  0  0  0  0
  128.3230  132.2340   58.4250 C   0  0  0  0  0  0  0  0  0  0  0  0
  127.9190  132.8440   59.7340 C   0  0  0  0  0  0  0  0  0  0  0  0
  126.5640  132.9980   60.0680 C   0  0  0  0  0  0  0  0  0  0  0  0
  126.1840  133.5620   61.2830 C   0  0  0  0  0  0  0  0  0  0  0  0
  127.1570  133.9840   62.1830 C   0  0  0  0  0  0  0  0  0  0  0  0
  128.5070  133.8470   61.8750 C   0  0  0  0  0  0  0  0  0  0  0  0
  128.8820  133.2820   60.6600 C   0  0  0  0  0  0  0  0  0  0  0  0
  129.4000  132.7100   57.6690 C   0  0  0  0  0  0  0  0  0  0  0  0
  129.7250  132.1160   56.4420 C   0  0  0  0  0  0  0  0  0  0  0  0
  130.9160  132.6740   55.6380 C   0  0  0  0  0  0  0  0  0  0  0  0
  131.5380  133.6750   56.2650 F   0  0  0  0  0  0  0  0  0  0  0  0
  131.8180  131.7150   55.4250 F   0  0  0  0  0  0  0  0  0  0  0  0
  130.4930  133.1370   54.4610 F   0  0  0  0  0  0  0  0  0  0  0  0
  128.9410  131.0260   55.9880 C   0  0  0  0  0  0  0  0  0  0  0  0
  129.2020  130.4060   54.6860 C   0  0  0  0  0  0  0  0  0  0  0  0
  129.4110  129.9180   53.6580 N   0  0  0  0  0  0  0  0  0  0  0  0
  123.9140  131.0040   60.3300 C   0  0  0  0  0  0  0  0  0  0  0  0
  123.5750  131.2760   61.6520 C   0  0  0  0  0  0  0  0  0  0  0  0
  1  2  1  0
  2  3  1  0
  3  4  2  0
  3  5  1  0
  5  6  2  0
  6  7  1  0
  7  8  2  0
  8  9  1  0
  9 10  1  0
 10 11  2  0
 10 12  1  0
 12 13  1  0
 13 14  1  0
 14 15  2  0
 15 16  1  0
 16 17  1  0
 17 18  2  0
 18 19  1  0
 19 20  2  0
 20 21  1  0
 21 22  2  0
 16 23  2  0
 23 24  1  0
 24 25  1  0
 25 26  1  0
 25 27  1  0
 25 28  1  0
 24 29  2  0
 29 30  1  0
 30 31  3  0
  8 32  1  0
 32 33  2  0
 33  5  1  0
 29 14  1  0
 22 17  1  0
M  END
>  <Binding energies>  (13) 
[-7.46]

>  <Ligand effiencies>  (13) 
[-0.21941176470588236]

>  <Interactions>  (13) 
["V-B:ILE:369:CD1:8206, V-A:TYR:539:CE2:4871, V-A:LEU:363:CD1:3184, V-A:TYR:539:CD2:4869, V-B:LEU:475:CD2:9226, V-A:ALA:541:CB:4887, V-A:ALA:541:CA:4885, V-A:PRO:540:CB:4880, V-A:PRO:540:CA:4878, V-A:PRO:540:CD:4882, V-A:PRO:540:N:4879, V-A:ILE:538:CD1:4860, V-A:TYR:539:CG:4867, V-B:ARG:545:CZ:9894, V-A:TYR:539:CD1:4868, V-A:TYR:539:C:4862, V-A:ILE:538:CA:4855, H-B:TYR:484:OH:9315, V-B:HIS:456:CE1:9037, V-B:ARG:545:CD:9891, V-B:ARG:545:CG:9890, V-A:ILE:538:CB:4857, V-B:TYR:531:CE1:9760, V-A:MET:535:CG:4828, V-A:TYR:539:CZ:4872, V-A:ILE:538:CG2:4858, V-A:TYR:539:CE1:4870, V-A:PRO:540:C:4876, V-B:TYR:531:CZ:9762, V-B:ASP:366:CB:8179, V-B:ASP:366:CG:8180, V-A:TYR:539:CA:4864, H-A:TYR:539:OH:4873, H-B:TYR:531:OH:9763, H-B:ARG:545:NH1:9895, H-B:GLY:454:N:9017, V-B:ASP:366:CA:8177, H-B:ARG:545:NE:9892, V-A:PRO:540:CG:4881, V-B:GLY:454:CA:9016, V-B:GLY:453:CA:9011, V-B:GLY:453:C:9009, V-A:ILE:538:C:4853, V-A:VAL:537:C:4845"]

$$$$
3ac_Grossjean_2025
     RDKit          3D

 31 33  0  0  0  0  0  0  0  0999 V2000
  131.0820  132.4470   54.3320 C   0  0  0  0  0  0  0  0  0  0  0  0
  130.8430  133.3540   55.4040 O   0  0  0  0  0  0  0  0  0  0  0  0
  130.5780  132.8540   56.6650 C   0  0  0  0  0  0  0  0  0  0  0  0
  129.3990  133.2880   57.2710 C   0  0  0  0  0  0  0  0  0  0  0  0
  129.0460  132.8350   58.5380 C   0  0  0  0  0  0  0  0  0  0  0  0
  129.8750  131.9460   59.2250 C   0  0  0  0  0  0  0  0  0  0  0  0
  129.4240  131.5290   60.4910 N   0  0  0  0  0  0  0  0  0  0  0  0
  129.9440  131.7930   61.7090 C   0  0  0  0  0  0  0  0  0  0  0  0
  130.9210  132.5110   61.9250 O   0  0  0  0  0  0  0  0  0  0  0  0
  129.2310  131.1300   62.8880 C   0  0  0  0  0  0  0  0  0  0  0  0
  127.4210  131.1720   62.7090 S   0  0  0  0  0  0  0  0  0  0  0  0
  126.6890  130.3370   64.1030 C   0  0  0  0  0  0  0  0  0  0  0  0
  127.5100  129.4190   64.6670 N   0  0  0  0  0  0  0  0  0  0  0  0
  127.0920  128.7070   65.7440 C   0  0  0  0  0  0  0  0  0  0  0  0
  128.0590  127.7060   66.3030 C   0  0  0  0  0  0  0  0  0  0  0  0
  129.0470  127.1290   65.4880 C   0  0  0  0  0  0  0  0  0  0  0  0
  129.9510  126.2040   66.0010 C   0  0  0  0  0  0  0  0  0  0  0  0
  129.8790  125.8400   67.3420 C   0  0  0  0  0  0  0  0  0  0  0  0
  128.9080  126.3920   68.1700 C   0  0  0  0  0  0  0  0  0  0  0  0
  128.0050  127.3170   67.6520 C   0  0  0  0  0  0  0  0  0  0  0  0
  125.8110  128.8950   66.2730 C   0  0  0  0  0  0  0  0  0  0  0  0
  124.9330  129.8220   65.6950 C   0  0  0  0  0  0  0  0  0  0  0  0
  123.5280  129.9940   66.3070 C   0  0  0  0  0  0  0  0  0  0  0  0
  122.5500  129.6790   65.4550 F   0  0  0  0  0  0  0  0  0  0  0  0
  123.3910  129.2070   67.3760 F   0  0  0  0  0  0  0  0  0  0  0  0
  123.3480  131.2620   66.6780 F   0  0  0  0  0  0  0  0  0  0  0  0
  125.3720  130.5600   64.5670 C   0  0  0  0  0  0  0  0  0  0  0  0
  124.4640  131.4830   63.8830 C   0  0  0  0  0  0  0  0  0  0  0  0
  123.7450  132.2120   63.3430 N   0  0  0  0  0  0  0  0  0  0  0  0
  131.0590  131.4980   58.6190 C   0  0  0  0  0  0  0  0  0  0  0  0
  131.4090  131.9530   57.3500 C   0  0  0  0  0  0  0  0  0  0  0  0
  1  2  1  0
  2  3  1  0
  3  4  2  0
  4  5  1  0
  5  6  2  0
  6  7  1  0
  7  8  1  0
  8  9  2  0
  8 10  1  0
 10 11  1  0
 11 12  1  0
 12 13  2  0
 13 14  1  0
 14 15  1  0
 15 16  2  0
 16 17  1  0
 17 18  2  0
 18 19  1  0
 19 20  2  0
 14 21  2  0
 21 22  1  0
 22 23  1  0
 23 24  1  0
 23 25  1  0
 23 26  1  0
 22 27  2  0
 27 28  1  0
 28 29  3  0
  6 30  1  0
 30 31  2  0
 31  3  1  0
 27 12  1  0
 20 15  1  0
M  END
>  <Binding energies>  (14) 
[-8.13]

>  <Ligand effiencies>  (14) 
[-0.2540625]

>  <Interactions>  (14) 
["V-A:GLU:543:CG:4902, H-A:ALA:541:N:4886, V-A:TYR:539:CE2:4871, V-A:TYR:539:CD2:4869, V-A:GLU:543:CD:4903, V-A:PRO:540:CB:4880, V-A:PRO:540:CA:4878, V-A:PRO:540:CD:4882, V-A:PRO:540:N:4879, V-A:ILE:538:CD1:4860, V-A:TYR:539:CG:4867, H-A:TYR:539:N:4865, V-B:ARG:545:CZ:9894, V-A:TYR:539:CD1:4868, V-A:TYR:539:C:4862, V-A:ILE:538:CA:4855, V-A:HIS:456:CE1:4064, V-B:GLU:543:CD:9876, V-B:HIS:456:CE1:9037, V-B:ARG:545:CD:9891, V-B:GLU:543:CG:9875, V-B:ARG:545:CG:9890, V-B:GLU:543:CB:9874, V-A:TYR:539:CZ:4872, V-A:ILE:538:CG2:4858, V-A:TYR:539:CE1:4870, V-A:TYR:539:CA:4864, H-B:GLY:454:N:9017, V-B:TYR:484:CZ:9314, V-B:GLY:454:CA:9016, V-B:GLY:453:CA:9011, V-B:GLY:453:C:9009, V-B:ARG:545:CB:9889, V-B:ARG:545:CA:9887, V-B:GLY:454:C:9014, V-B:ILE:455:C:9019, V-B:TYR:484:CE2:9313, V-B:ILE:455:CA:9021"]

$$$$
3af_Grossjean_2025
     RDKit          3D

 29 31  0  0  0  0  0  0  0  0999 V2000
  130.5060  132.4210   63.2360 N   0  0  0  0  0  0  0  0  0  0  0  0
  130.0130  132.1990   62.2120 C   0  0  0  0  0  0  0  0  0  0  0  0
  129.3890  131.9190   60.9160 C   0  0  0  0  0  0  0  0  0  0  0  0
  128.3430  132.7390   60.4270 C   0  0  0  0  0  0  0  0  0  0  0  0
  127.8360  133.9820   61.1830 C   0  0  0  0  0  0  0  0  0  0  0  0
  126.9200  134.6690   60.4970 F   0  0  0  0  0  0  0  0  0  0  0  0
  127.2810  133.6160   62.3390 F   0  0  0  0  0  0  0  0  0  0  0  0
  128.8500  134.8120   61.4330 F   0  0  0  0  0  0  0  0  0  0  0  0
  127.7400  132.3990   59.2060 C   0  0  0  0  0  0  0  0  0  0  0  0
  128.1670  131.2720   58.4960 C   0  0  0  0  0  0  0  0  0  0  0  0
  127.5450  130.8520   57.1980 C   0  0  0  0  0  0  0  0  0  0  0  0
  128.2440  130.9950   55.9880 C   0  0  0  0  0  0  0  0  0  0  0  0
  127.6730  130.6050   54.7800 C   0  0  0  0  0  0  0  0  0  0  0  0
  126.3920  130.0640   54.7650 C   0  0  0  0  0  0  0  0  0  0  0  0
  125.6790  129.9090   55.9490 C   0  0  0  0  0  0  0  0  0  0  0  0
  126.2540  130.3000   57.1560 C   0  0  0  0  0  0  0  0  0  0  0  0
  129.1670  130.4870   58.9710 N   0  0  0  0  0  0  0  0  0  0  0  0
  129.7810  130.8070   60.1360 C   0  0  0  0  0  0  0  0  0  0  0  0
  131.0760  129.6710   60.5880 S   0  0  0  0  0  0  0  0  0  0  0  0
  132.6690  130.4330   60.1550 C   0  0  0  0  0  0  0  0  0  0  0  0
  132.7920  130.6800   58.6520 C   0  0  0  0  0  0  0  0  0  0  0  0
  133.7940  130.2800   58.0590 O   0  0  0  0  0  0  0  0  0  0  0  0
  131.7590  131.3440   58.0880 N   0  0  0  0  0  0  0  0  0  0  0  0
  131.5660  131.7340   56.7480 C   0  0  0  0  0  0  0  0  0  0  0  0
  132.0970  131.0830   55.6190 C   0  0  0  0  0  0  0  0  0  0  0  0
  131.8250  131.5820   54.3430 C   0  0  0  0  0  0  0  0  0  0  0  0
  131.0280  132.7210   54.2270 C   0  0  0  0  0  0  0  0  0  0  0  0
  130.5050  133.3660   55.2990 N   0  0  0  0  0  0  0  0  0  0  0  0
  130.7780  132.8690   56.5320 C   0  0  0  0  0  0  0  0  0  0  0  0
  1  2  3  0
  2  3  1  0
  3  4  2  0
  4  5  1  0
  5  6  1  0
  5  7  1  0
  5  8  1  0
  4  9  1  0
  9 10  2  0
 10 11  1  0
 11 12  2  0
 12 13  1  0
 13 14  2  0
 14 15  1  0
 15 16  2  0
 10 17  1  0
 17 18  2  0
 18 19  1  0
 19 20  1  0
 20 21  1  0
 21 22  2  0
 21 23  1  0
 23 24  1  0
 24 25  2  0
 25 26  1  0
 26 27  2  0
 27 28  1  0
 28 29  2  0
 18  3  1  0
 29 24  1  0
 16 11  1  0
M  END
>  <Binding energies>  (15) 
[-7.64]

>  <Ligand effiencies>  (15) 
[-0.25466666666666665]

>  <Interactions>  (15) 
["V-A:GLU:543:CG:4902, H-A:ALA:541:N:4886, V-A:TYR:539:CE2:4871, V-A:LEU:363:CD1:3184, V-A:TYR:531:CZ:4789, V-A:TYR:539:CD2:4869, V-B:LEU:475:CD2:9226, V-A:ALA:541:CB:4887, V-A:ALA:541:CA:4885, V-A:TYR:531:CE2:4788, V-A:PRO:540:CB:4880, V-A:PRO:540:CA:4878, V-A:PRO:540:CD:4882, V-A:PRO:540:N:4879, V-A:ILE:538:CD1:4860, H-A:TYR:539:N:4865, V-A:TYR:539:C:4862, V-A:ILE:538:CA:4855, V-A:ILE:538:CB:4857, V-B:TYR:531:CE1:9760, V-A:MET:535:CG:4828, V-A:TYR:539:CZ:4872, V-A:ILE:538:CG2:4858, V-A:TYR:539:CE1:4870, V-A:PRO:540:C:4876, V-B:TYR:531:CZ:9762, H-A:TYR:531:OH:4790"]

$$$$
3ag_Grossjean_2025
     RDKit          3D

 30 32  0  0  0  0  0  0  0  0999 V2000
  124.9760  131.9820   61.1300 N   0  0  0  0  0  0  0  0  0  0  0  0
  125.7880  131.9620   60.3050 C   0  0  0  0  0  0  0  0  0  0  0  0
  126.8140  131.9350   59.2590 C   0  0  0  0  0  0  0  0  0  0  0  0
  126.7290  131.0150   58.1850 C   0  0  0  0  0  0  0  0  0  0  0  0
  125.5470  130.0420   58.0160 C   0  0  0  0  0  0  0  0  0  0  0  0
  124.3630  130.6570   58.0320 F   0  0  0  0  0  0  0  0  0  0  0  0
  125.6510  129.4010   56.8510 F   0  0  0  0  0  0  0  0  0  0  0  0
  125.5430  129.1460   59.0040 F   0  0  0  0  0  0  0  0  0  0  0  0
  127.7640  130.9920   57.2380 C   0  0  0  0  0  0  0  0  0  0  0  0
  128.8590  131.8530   57.3660 C   0  0  0  0  0  0  0  0  0  0  0  0
  129.9930  131.8690   56.3860 C   0  0  0  0  0  0  0  0  0  0  0  0
  130.9420  132.9040   56.4040 C   0  0  0  0  0  0  0  0  0  0  0  0
  131.9970  132.9250   55.4970 C   0  0  0  0  0  0  0  0  0  0  0  0
  132.1180  131.9080   54.5550 C   0  0  0  0  0  0  0  0  0  0  0  0
  131.1890  130.8730   54.5130 C   0  0  0  0  0  0  0  0  0  0  0  0
  130.1350  130.8560   55.4210 C   0  0  0  0  0  0  0  0  0  0  0  0
  128.9310  132.7430   58.3890 N   0  0  0  0  0  0  0  0  0  0  0  0
  127.9330  132.7970   59.3050 C   0  0  0  0  0  0  0  0  0  0  0  0
  128.1940  134.0200   60.5700 S   0  0  0  0  0  0  0  0  0  0  0  0
  128.5650  133.1340   62.1130 C   0  0  0  0  0  0  0  0  0  0  0  0
  129.7060  132.1300   61.9430 C   0  0  0  0  0  0  0  0  0  0  0  0
  130.8130  132.3710   62.4270 O   0  0  0  0  0  0  0  0  0  0  0  0
  129.4190  131.0090   61.2590 N   0  0  0  0  0  0  0  0  0  0  0  0
  130.3460  129.9060   61.0100 C   0  0  0  0  0  0  0  0  0  0  0  0
  131.5720  130.2960   60.1930 C   0  0  0  0  0  0  0  0  0  0  0  0
  132.7390  130.7040   60.8440 C   0  0  0  0  0  0  0  0  0  0  0  0
  133.8710  131.0330   60.1020 C   0  0  0  0  0  0  0  0  0  0  0  0
  133.8350  130.9430   58.7120 C   0  0  0  0  0  0  0  0  0  0  0  0
  132.6790  130.5230   58.0570 C   0  0  0  0  0  0  0  0  0  0  0  0
  131.5480  130.1930   58.7980 C   0  0  0  0  0  0  0  0  0  0  0  0
  1  2  3  0
  2  3  1  0
  3  4  2  0
  4  5  1  0
  5  6  1  0
  5  7  1  0
  5  8  1  0
  4  9  1  0
  9 10  2  0
 10 11  1  0
 11 12  2  0
 12 13  1  0
 13 14  2  0
 14 15  1  0
 15 16  2  0
 10 17  1  0
 17 18  2  0
 18 19  1  0
 19 20  1  0
 20 21  1  0
 21 22  2  0
 21 23  1  0
 23 24  1  0
 24 25  1  0
 25 26  2  0
 26 27  1  0
 27 28  2  0
 28 29  1  0
 29 30  2  0
 18  3  1  0
 30 25  1  0
 16 11  1  0
M  END
>  <Binding energies>  (16) 
[-7.72]

>  <Ligand effiencies>  (16) 
[-0.24903225806451612]

>  <Interactions>  (16) 
["H-A:ALA:541:N:4886, V-A:LEU:363:CB:3182, V-A:TYR:539:CE2:4871, V-A:LEU:363:CD1:3184, V-A:TYR:531:CZ:4789, V-A:TYR:539:CD2:4869, V-A:LEU:363:CA:3180, V-A:ALA:541:CB:4887, V-A:ASN:362:C:3167, V-A:TYR:531:CE2:4788, V-A:PRO:540:CB:4880, V-A:PRO:540:CA:4878, V-A:PRO:540:CD:4882, V-A:PRO:540:N:4879, V-A:ILE:538:CD1:4860, V-A:TYR:539:C:4862, V-A:ILE:538:CA:4855, V-A:TYR:539:CZ:4872, V-A:ILE:538:CG2:4858, V-A:TYR:539:CE1:4870, V-B:TYR:531:CZ:9762, V-B:ASP:366:CB:8179, V-B:ASP:366:CG:8180, V-B:ASP:366:CA:8177, V-A:ASN:362:CB:3171"]

$$$$
3bc_Grossjean_2025
     RDKit          3D

 28 30  0  0  0  0  0  0  0  0999 V2000
  129.3680  124.0530   55.2630 C   0  0  0  0  0  0  0  0  0  0  0  0
  129.3710  125.0590   54.2550 O   0  0  0  0  0  0  0  0  0  0  0  0
  129.5050  126.3840   54.6270 C   0  0  0  0  0  0  0  0  0  0  0  0
  129.7730  127.2920   53.6030 C   0  0  0  0  0  0  0  0  0  0  0  0
  129.9250  128.6480   53.8790 C   0  0  0  0  0  0  0  0  0  0  0  0
  129.8190  129.1140   55.1910 C   0  0  0  0  0  0  0  0  0  0  0  0
  129.9740  130.5010   55.3710 N   0  0  0  0  0  0  0  0  0  0  0  0
  129.2710  131.5160   54.8250 C   0  0  0  0  0  0  0  0  0  0  0  0
  128.3060  131.3750   54.0710 O   0  0  0  0  0  0  0  0  0  0  0  0
  129.7350  132.9180   55.2460 C   0  0  0  0  0  0  0  0  0  0  0  0
  131.2210  132.9580   56.3030 S   0  0  0  0  0  0  0  0  0  0  0  0
  130.7710  132.3120   57.8990 C   0  0  0  0  0  0  0  0  0  0  0  0
  129.5990  132.8000   58.3740 N   0  0  0  0  0  0  0  0  0  0  0  0
  129.1340  132.3880   59.5820 C   0  0  0  0  0  0  0  0  0  0  0  0
  127.8420  132.9920   60.0450 C   0  0  0  0  0  0  0  0  0  0  0  0
  126.6330  132.2920   59.9050 C   0  0  0  0  0  0  0  0  0  0  0  0
  125.4290  132.8460   60.3320 C   0  0  0  0  0  0  0  0  0  0  0  0
  125.4180  134.1130   60.9060 C   0  0  0  0  0  0  0  0  0  0  0  0
  126.6020  134.8300   61.0530 C   0  0  0  0  0  0  0  0  0  0  0  0
  127.8030  134.2720   60.6230 C   0  0  0  0  0  0  0  0  0  0  0  0
  129.8500  131.4640   60.3500 C   0  0  0  0  0  0  0  0  0  0  0  0
  131.0500  130.9330   59.8640 C   0  0  0  0  0  0  0  0  0  0  0  0
  131.7890  129.9130   60.7280 C   0  0  0  0  0  0  0  0  0  0  0  0
  131.5300  131.3500   58.6030 C   0  0  0  0  0  0  0  0  0  0  0  0
  132.7570  130.7720   58.0530 C   0  0  0  0  0  0  0  0  0  0  0  0
  133.7280  130.3130   57.6210 N   0  0  0  0  0  0  0  0  0  0  0  0
  129.5360  128.2090   56.2250 C   0  0  0  0  0  0  0  0  0  0  0  0
  129.3840  126.8530   55.9440 C   0  0  0  0  0  0  0  0  0  0  0  0
  1  2  1  0
  2  3  1  0
  3  4  2  0
  4  5  1  0
  5  6  2  0
  6  7  1  0
  7  8  1  0
  8  9  2  0
  8 10  1  0
 10 11  1  0
 11 12  1  0
 12 13  2  0
 13 14  1  0
 14 15  1  0
 15 16  2  0
 16 17  1  0
 17 18  2  0
 18 19  1  0
 19 20  2  0
 14 21  2  0
 21 22  1  0
 22 23  1  0
 22 24  2  0
 24 25  1  0
 25 26  3  0
  6 27  1  0
 27 28  2  0
 28  3  1  0
 24 12  1  0
 20 15  1  0
M  END
>  <Binding energies>  (17) 
[-7.99]

>  <Ligand effiencies>  (17) 
[-0.27551724137931033]

>  <Interactions>  (17) 
["V-A:TYR:539:CE2:4871, V-A:LEU:363:CD1:3184, V-A:TYR:531:CZ:4789, V-A:TYR:539:CD2:4869, V-B:LEU:475:CD2:9226, V-A:TYR:531:CE2:4788, V-A:PRO:540:CB:4880, V-A:PRO:540:CA:4878, V-A:PRO:540:CD:4882, V-A:PRO:540:N:4879, H-A:TYR:539:N:4865, V-A:TYR:539:CD1:4868, V-A:TYR:539:C:4862, V-A:ILE:538:CA:4855, V-A:TYR:531:CE1:4787, V-A:MET:535:CG:4828, V-A:TYR:539:CZ:4872, V-A:TYR:539:CE1:4870, V-B:TRP:381:CH2:8339, V-B:TYR:539:CZ:9845, V-B:TYR:539:CE1:9843, V-B:MET:535:CE:9803, H-A:LYS:534:NZ:4818, H-A:TYR:531:OH:4790, V-A:LYS:534:CE:4817, V-A:LYS:534:CD:4816"]

$$$$
3bd_Grossjean_2025
     RDKit          3D

 26 28  0  0  0  0  0  0  0  0999 V2000
  125.3410  129.9540   57.6150 C   0  0  0  0  0  0  0  0  0  0  0  0
  126.4660  130.9300   57.9560 C   0  0  0  0  0  0  0  0  0  0  0  0
  127.5200  131.0690   57.0460 C   0  0  0  0  0  0  0  0  0  0  0  0
  128.5710  131.9510   57.3230 C   0  0  0  0  0  0  0  0  0  0  0  0
  129.7280  132.1510   56.3900 C   0  0  0  0  0  0  0  0  0  0  0  0
  130.9290  132.7170   56.8470 C   0  0  0  0  0  0  0  0  0  0  0  0
  132.0060  132.9080   55.9850 C   0  0  0  0  0  0  0  0  0  0  0  0
  131.8960  132.5350   54.6500 C   0  0  0  0  0  0  0  0  0  0  0  0
  130.7160  131.9750   54.1710 C   0  0  0  0  0  0  0  0  0  0  0  0
  129.6420  131.7860   55.0350 C   0  0  0  0  0  0  0  0  0  0  0  0
  128.5770  132.6880   58.4650 N   0  0  0  0  0  0  0  0  0  0  0  0
  127.5640  132.5640   59.3590 C   0  0  0  0  0  0  0  0  0  0  0  0
  127.6970  133.5780   60.8230 S   0  0  0  0  0  0  0  0  0  0  0  0
  128.4010  132.5580   62.1530 C   0  0  0  0  0  0  0  0  0  0  0  0
  129.8690  132.2170   61.8960 C   0  0  0  0  0  0  0  0  0  0  0  0
  130.7120  132.5280   62.7380 O   0  0  0  0  0  0  0  0  0  0  0  0
  130.1300  131.5940   60.7260 N   0  0  0  0  0  0  0  0  0  0  0  0
  131.3610  131.1340   60.2230 C   0  0  0  0  0  0  0  0  0  0  0  0
  132.4890  131.4320   60.9920 C   0  0  0  0  0  0  0  0  0  0  0  0
  133.7530  131.0250   60.5700 C   0  0  0  0  0  0  0  0  0  0  0  0
  133.8890  130.3280   59.3730 C   0  0  0  0  0  0  0  0  0  0  0  0
  132.7740  130.0370   58.5910 C   0  0  0  0  0  0  0  0  0  0  0  0
  131.5100  130.4410   59.0100 C   0  0  0  0  0  0  0  0  0  0  0  0
  126.4780  131.6890   59.1460 C   0  0  0  0  0  0  0  0  0  0  0  0
  125.3880  131.5660   60.1190 C   0  0  0  0  0  0  0  0  0  0  0  0
  124.5270  131.4690   60.8860 N   0  0  0  0  0  0  0  0  0  0  0  0
  1  2  1  0
  2  3  2  0
  3  4  1  0
  4  5  1  0
  5  6  2  0
  6  7  1  0
  7  8  2  0
  8  9  1  0
  9 10  2  0
  4 11  2  0
 11 12  1  0
 12 13  1  0
 13 14  1  0
 14 15  1  0
 15 16  2  0
 15 17  1  0
 17 18  1  0
 18 19  2  0
 19 20  1  0
 20 21  2  0
 21 22  1  0
 22 23  2  0
 12 24  2  0
 24 25  1  0
 25 26  3  0
 24  2  1  0
 10  5  1  0
 23 18  1  0
M  END
>  <Binding energies>  (18) 
[-8.25]

>  <Ligand effiencies>  (18) 
[-0.3055555555555556]

>  <Interactions>  (18) 
["H-A:ALA:541:N:4886, V-A:TYR:539:CE2:4871, V-A:LEU:363:CD1:3184, V-A:TYR:531:CZ:4789, V-A:TYR:539:CD2:4869, V-A:LEU:363:CA:3180, V-A:ALA:541:CB:4887, V-A:ASN:362:C:3167, V-A:TYR:531:CE2:4788, V-A:PRO:540:CB:4880, V-A:PRO:540:CA:4878, V-A:PRO:540:CD:4882, V-A:PRO:540:N:4879, V-A:ILE:538:CD1:4860, V-A:TYR:539:CD1:4868, V-A:TYR:539:C:4862, V-A:ILE:538:CA:4855, V-A:ILE:538:CB:4857, V-A:TYR:539:CZ:4872, V-A:ILE:538:CG2:4858, V-A:TYR:539:CE1:4870, V-A:ASP:366:CG:3208, V-B:ASP:366:CB:8179, V-A:ASN:362:CB:3171, V-A:PRO:540:CG:4881"]

$$$$
3be_Grossjean_2025
     RDKit          3D

 27 29  0  0  0  0  0  0  0  0999 V2000
  123.0500  130.2540   66.5540 C   0  0  0  0  0  0  0  0  0  0  0  0
  124.0860  130.2960   65.4480 C   0  0  0  0  0  0  0  0  0  0  0  0
  124.9540  129.2260   65.2180 C   0  0  0  0  0  0  0  0  0  0  0  0
  125.8840  129.3350   64.1840 C   0  0  0  0  0  0  0  0  0  0  0  0
  125.9230  130.4990   63.4110 C   0  0  0  0  0  0  0  0  0  0  0  0
  125.0220  131.5320   63.6920 C   0  0  0  0  0  0  0  0  0  0  0  0
  125.1180  132.6810   62.8860 N   0  0  0  0  0  0  0  0  0  0  0  0
  124.9940  132.7860   61.5450 C   0  0  0  0  0  0  0  0  0  0  0  0
  124.7730  131.8400   60.7860 O   0  0  0  0  0  0  0  0  0  0  0  0
  125.1500  134.2130   60.9950 C   0  0  0  0  0  0  0  0  0  0  0  0
  126.8510  134.8730   61.0220 S   0  0  0  0  0  0  0  0  0  0  0  0
  127.9660  133.5440   60.6280 C   0  0  0  0  0  0  0  0  0  0  0  0
  128.2540  133.4490   59.3070 N   0  0  0  0  0  0  0  0  0  0  0  0
  129.0980  132.4790   58.8650 C   0  0  0  0  0  0  0  0  0  0  0  0
  129.3520  132.4330   57.3870 C   0  0  0  0  0  0  0  0  0  0  0  0
  128.4290  131.8300   56.5180 C   0  0  0  0  0  0  0  0  0  0  0  0
  128.6590  131.7830   55.1470 C   0  0  0  0  0  0  0  0  0  0  0  0
  129.8220  132.3380   54.6230 C   0  0  0  0  0  0  0  0  0  0  0  0
  130.7540  132.9400   55.4610 C   0  0  0  0  0  0  0  0  0  0  0  0
  130.5190  132.9850   56.8330 C   0  0  0  0  0  0  0  0  0  0  0  0
  129.6750  131.5690   59.7580 C   0  0  0  0  0  0  0  0  0  0  0  0
  129.4080  131.6690   61.1270 C   0  0  0  0  0  0  0  0  0  0  0  0
  130.0750  130.6650   62.0660 C   0  0  0  0  0  0  0  0  0  0  0  0
  128.5430  132.6840   61.5900 C   0  0  0  0  0  0  0  0  0  0  0  0
  128.2930  132.8400   63.0250 C   0  0  0  0  0  0  0  0  0  0  0  0
  128.0970  132.9620   64.1590 N   0  0  0  0  0  0  0  0  0  0  0  0
  124.1110  131.4320   64.7050 N   0  0  0  0  0  0  0  0  0  0  0  0
  1  2  1  0
  2  3  2  0
  3  4  1  0
  4  5  2  0
  5  6  1  0
  6  7  1  0
  7  8  1  0
  8  9  2  0
  8 10  1  0
 10 11  1  0
 11 12  1  0
 12 13  2  0
 13 14  1  0
 14 15  1  0
 15 16  2  0
 16 17  1  0
 17 18  2  0
 18 19  1  0
 19 20  2  0
 14 21  2  0
 21 22  1  0
 22 23  1  0
 22 24  2  0
 24 25  1  0
 25 26  3  0
  6 27  2  0
 27  2  1  0
 24 12  1  0
 20 15  1  0
M  END
>  <Binding energies>  (19) 
[-8.39]

>  <Ligand effiencies>  (19) 
[-0.29964285714285716]

>  <Interactions>  (19) 
["V-A:GLU:543:CG:4902, V-A:TYR:539:CE2:4871, V-A:TYR:539:CD2:4869, V-B:LEU:475:CD2:9226, V-A:ALA:541:CB:4887, V-A:GLU:543:CD:4903, V-A:PRO:540:CB:4880, V-A:PRO:540:CA:4878, V-A:PRO:540:CD:4882, V-A:PRO:540:N:4879, V-B:ARG:545:CZ:9894, V-A:TYR:539:CD1:4868, V-A:TYR:539:C:4862, V-A:ILE:538:CA:4855, H-B:TYR:484:OH:9315, V-B:HIS:456:CE1:9037, V-B:ARG:545:CD:9891, V-B:ARG:545:CG:9890, V-A:TYR:539:CZ:4872, V-A:ILE:538:CG2:4858, V-A:TYR:539:CE1:4870, V-A:TYR:539:CA:4864, H-B:GLY:454:N:9017, V-B:GLY:454:CA:9016, V-B:GLY:453:CA:9011, V-B:GLY:453:C:9009"]

$$$$
3bf_Grossjean_2025
     RDKit          3D

 26 28  0  0  0  0  0  0  0  0999 V2000
  127.6780  135.6060   61.8780 C   0  0  0  0  0  0  0  0  0  0  0  0
  127.7350  134.2570   61.1640 C   0  0  0  0  0  0  0  0  0  0  0  0
  128.9830  133.6420   61.0160 C   0  0  0  0  0  0  0  0  0  0  0  0
  129.0780  132.3990   60.3810 C   0  0  0  0  0  0  0  0  0  0  0  0
  130.3820  131.6770   60.2100 C   0  0  0  0  0  0  0  0  0  0  0  0
  130.6000  130.8460   59.1010 C   0  0  0  0  0  0  0  0  0  0  0  0
  131.8070  130.1720   58.9350 C   0  0  0  0  0  0  0  0  0  0  0  0
  132.8150  130.3210   59.8820 C   0  0  0  0  0  0  0  0  0  0  0  0
  132.6240  131.1380   60.9910 C   0  0  0  0  0  0  0  0  0  0  0  0
  131.4140  131.8090   61.1530 C   0  0  0  0  0  0  0  0  0  0  0  0
  127.9700  131.7730   59.9020 N   0  0  0  0  0  0  0  0  0  0  0  0
  126.7570  132.3680   60.0160 C   0  0  0  0  0  0  0  0  0  0  0  0
  125.4250  131.4090   59.3280 S   0  0  0  0  0  0  0  0  0  0  0  0
  126.1520  130.0870   58.3010 C   0  0  0  0  0  0  0  0  0  0  0  0
  126.8890  130.5700   57.0430 C   0  0  0  0  0  0  0  0  0  0  0  0
  126.4220  130.3600   55.9210 O   0  0  0  0  0  0  0  0  0  0  0  0
  128.0330  131.2450   57.2850 N   0  0  0  0  0  0  0  0  0  0  0  0
  128.9400  131.8040   56.3650 C   0  0  0  0  0  0  0  0  0  0  0  0
  128.8970  131.3220   55.0520 C   0  0  0  0  0  0  0  0  0  0  0  0
  129.7620  131.8460   54.0900 C   0  0  0  0  0  0  0  0  0  0  0  0
  130.6510  132.8520   54.4700 C   0  0  0  0  0  0  0  0  0  0  0  0
  130.7080  133.3460   55.7320 N   0  0  0  0  0  0  0  0  0  0  0  0
  129.8600  132.8260   56.6580 C   0  0  0  0  0  0  0  0  0  0  0  0
  126.5840  133.6130   60.6620 C   0  0  0  0  0  0  0  0  0  0  0  0
  125.2620  134.2160   60.8500 C   0  0  0  0  0  0  0  0  0  0  0  0
  124.2180  134.6940   60.9990 N   0  0  0  0  0  0  0  0  0  0  0  0
  1  2  1  0
  2  3  2  0
  3  4  1  0
  4  5  1  0
  5  6  2  0
  6  7  1  0
  7  8  2  0
  8  9  1  0
  9 10  2  0
  4 11  2  0
 11 12  1  0
 12 13  1  0
 13 14  1  0
 14 15  1  0
 15 16  2  0
 15 17  1  0
 17 18  1  0
 18 19  2  0
 19 20  1  0
 20 21  2  0
 21 22  1  0
 22 23  2  0
 12 24  2  0
 24 25  1  0
 25 26  3  0
 24  2  1  0
 10  5  1  0
 23 18  1  0
M  END
>  <Binding energies>  (20) 
[-7.8]

>  <Ligand effiencies>  (20) 
[-0.28888888888888886]

>  <Interactions>  (20) 
["V-A:TYR:539:CE2:4871, V-A:TYR:539:CD2:4869, V-B:LEU:475:CD2:9226, V-A:ALA:541:CB:4887, V-A:PRO:540:CB:4880, V-A:PRO:540:CA:4878, V-A:PRO:540:N:4879, V-B:LEU:475:CD1:9225, V-A:ILE:538:CD1:4860, H-A:TYR:539:N:4865, V-A:TYR:539:CD1:4868, V-A:TYR:539:C:4862, V-A:ILE:538:CA:4855, V-A:TYR:539:CZ:4872, V-A:ILE:538:CG2:4858, V-A:TYR:539:CE1:4870, V-A:PRO:540:C:4876, H-A:TYR:539:OH:4873, V-B:PRO:482:CB:9293"]

$$$$
3bg_Grossjean_2025
     RDKit          3D

 27 29  0  0  0  0  0  0  0  0999 V2000
  124.8940  124.1750   61.4230 C   0  0  0  0  0  0  0  0  0  0  0  0
  125.9510  123.6350   60.4620 C   0  0  0  0  0  0  0  0  0  0  0  0
  127.1690  123.2020   60.9950 C   0  0  0  0  0  0  0  0  0  0  0  0
  128.1640  122.6930   60.1490 C   0  0  0  0  0  0  0  0  0  0  0  0
  129.4900  122.1990   60.6580 C   0  0  0  0  0  0  0  0  0  0  0  0
  130.3010  121.3620   59.8730 C   0  0  0  0  0  0  0  0  0  0  0  0
  131.5370  120.9180   60.3330 C   0  0  0  0  0  0  0  0  0  0  0  0
  131.9840  121.3030   61.5930 C   0  0  0  0  0  0  0  0  0  0  0  0
  131.1980  122.1210   62.3960 C   0  0  0  0  0  0  0  0  0  0  0  0
  129.9620  122.5610   61.9330 C   0  0  0  0  0  0  0  0  0  0  0  0
  127.9500  122.5980   58.8100 N   0  0  0  0  0  0  0  0  0  0  0  0
  126.7710  123.0120   58.2770 C   0  0  0  0  0  0  0  0  0  0  0  0
  126.6050  122.8020   56.5110 S   0  0  0  0  0  0  0  0  0  0  0  0
  128.2510  122.4340   55.8210 C   0  0  0  0  0  0  0  0  0  0  0  0
  129.1890  123.6420   55.9090 C   0  0  0  0  0  0  0  0  0  0  0  0
  129.7020  124.0960   54.8850 O   0  0  0  0  0  0  0  0  0  0  0  0
  129.4200  124.1320   57.1390 N   0  0  0  0  0  0  0  0  0  0  0  0
  130.4130  125.1530   57.4740 C   0  0  0  0  0  0  0  0  0  0  0  0
  131.7410  124.5350   57.8950 C   0  0  0  0  0  0  0  0  0  0  0  0
  132.0820  124.4640   59.2490 C   0  0  0  0  0  0  0  0  0  0  0  0
  133.2990  123.9090   59.6330 C   0  0  0  0  0  0  0  0  0  0  0  0
  134.1690  123.4150   58.6620 C   0  0  0  0  0  0  0  0  0  0  0  0
  133.8280  123.4630   57.3130 C   0  0  0  0  0  0  0  0  0  0  0  0
  132.6090  124.0200   56.9290 C   0  0  0  0  0  0  0  0  0  0  0  0
  125.7370  123.5500   59.0700 C   0  0  0  0  0  0  0  0  0  0  0  0
  124.4680  123.9890   58.4840 C   0  0  0  0  0  0  0  0  0  0  0  0
  123.4660  124.3360   58.0220 N   0  0  0  0  0  0  0  0  0  0  0  0
  1  2  1  0
  2  3  2  0
  3  4  1  0
  4  5  1  0
  5  6  2  0
  6  7  1  0
  7  8  2  0
  8  9  1  0
  9 10  2  0
  4 11  2  0
 11 12  1  0
 12 13  1  0
 13 14  1  0
 14 15  1  0
 15 16  2  0
 15 17  1  0
 17 18  1  0
 18 19  1  0
 19 20  2  0
 20 21  1  0
 21 22  2  0
 22 23  1  0
 23 24  2  0
 12 25  2  0
 25 26  1  0
 26 27  3  0
 25  2  1  0
 10  5  1  0
 24 19  1  0
M  END
>  <Binding energies>  (21) 
[-7.92]

>  <Ligand effiencies>  (21) 
[-0.28285714285714286]

>  <Interactions>  (21) 
["V-A:TYR:531:CZ:4789, V-B:GLU:543:CD:9876, V-A:TYR:531:CE1:4787, V-B:TYR:539:CD2:9842, V-B:TYR:539:CE2:9844, V-B:TYR:539:CZ:9845, V-B:PRO:540:CB:9853, V-A:LEU:475:CD2:4254, V-B:PRO:540:CA:9851, V-B:TYR:539:CE1:9843, V-B:MET:535:CE:9803, V-B:TYR:539:CD1:9841, V-B:PRO:540:C:9849, V-B:ALA:541:CB:9860, V-B:TYR:539:C:9835, V-B:ASN:362:CB:8143, V-B:PRO:540:N:9852, V-B:TYR:539:CG:9840, V-A:ILE:369:CD1:3234, V-A:ASP:366:CG:3208, H-A:LYS:534:NZ:4818, H-B:TYR:539:OH:9846, V-A:ASP:366:CA:3205, V-A:ASP:366:CB:3207, V-A:ASP:366:C:3203, V-B:LEU:363:CD1:8156, V-A:ILE:369:CG2:3232, V-A:ILE:369:CB:3231, V-B:LEU:363:CA:8152, V-A:ILE:369:CG1:3233"]

$$$$
3ca_Grossjean_2025
     RDKit          3D

 31 33  0  0  0  0  0  0  0  0999 V2000
  124.0590  123.6070   58.0050 C   0  0  0  0  0  0  0  0  0  0  0  0
  125.1560  124.6270   57.6870 C   0  0  0  0  0  0  0  0  0  0  0  0
  126.0360  124.0860   56.7100 O   0  0  0  0  0  0  0  0  0  0  0  0
  126.6080  122.8670   56.8780 C   0  0  0  0  0  0  0  0  0  0  0  0
  126.2800  121.8670   56.2320 O   0  0  0  0  0  0  0  0  0  0  0  0
  127.6840  122.8550   57.9260 C   0  0  0  0  0  0  0  0  0  0  0  0
  129.0270  122.8620   57.5280 C   0  0  0  0  0  0  0  0  0  0  0  0
  130.0470  122.8510   58.4750 C   0  0  0  0  0  0  0  0  0  0  0  0
  129.7460  122.8250   59.8380 C   0  0  0  0  0  0  0  0  0  0  0  0
  130.8520  122.8180   60.7090 N   0  0  0  0  0  0  0  0  0  0  0  0
  131.9790  122.0750   60.6650 C   0  0  0  0  0  0  0  0  0  0  0  0
  132.2530  121.2480   59.7960 O   0  0  0  0  0  0  0  0  0  0  0  0
  132.9780  122.3340   61.7980 C   0  0  0  0  0  0  0  0  0  0  0  0
  133.4830  124.0810   61.9240 S   0  0  0  0  0  0  0  0  0  0  0  0
  133.1820  124.6820   63.5810 C   0  0  0  0  0  0  0  0  0  0  0  0
  134.2450  124.6410   64.4230 N   0  0  0  0  0  0  0  0  0  0  0  0
  134.0950  125.0990   65.6860 C   0  0  0  0  0  0  0  0  0  0  0  0
  135.3320  125.0370   66.5590 C   0  0  0  0  0  0  0  0  0  0  0  0
  132.8860  125.5980   66.1630 C   0  0  0  0  0  0  0  0  0  0  0  0
  131.7690  125.6340   65.3190 C   0  0  0  0  0  0  0  0  0  0  0  0
  130.4890  126.1650   65.8790 C   0  0  0  0  0  0  0  0  0  0  0  0
  129.7320  127.0880   65.1480 C   0  0  0  0  0  0  0  0  0  0  0  0
  128.5430  127.5960   65.6650 C   0  0  0  0  0  0  0  0  0  0  0  0
  128.1080  127.1830   66.9220 C   0  0  0  0  0  0  0  0  0  0  0  0
  128.8530  126.2710   67.6660 C   0  0  0  0  0  0  0  0  0  0  0  0
  130.0420  125.7660   67.1440 C   0  0  0  0  0  0  0  0  0  0  0  0
  131.9170  125.1720   63.9850 C   0  0  0  0  0  0  0  0  0  0  0  0
  130.7970  125.2330   63.0400 C   0  0  0  0  0  0  0  0  0  0  0  0
  129.9130  125.2810   62.2950 N   0  0  0  0  0  0  0  0  0  0  0  0
  128.4040  122.8260   60.2460 C   0  0  0  0  0  0  0  0  0  0  0  0
  127.3850  122.8390   59.2970 C   0  0  0  0  0  0  0  0  0  0  0  0
  1  2  1  0
  2  3  1  0
  3  4  1  0
  4  5  2  0
  4  6  1  0
  6  7  2  0
  7  8  1  0
  8  9  2  0
  9 10  1  0
 10 11  1  0
 11 12  2  0
 11 13  1  0
 13 14  1  0
 14 15  1  0
 15 16  2  0
 16 17  1  0
 17 18  1  0
 17 19  2  0
 19 20  1  0
 20 21  1  0
 21 22  2  0
 22 23  1  0
 23 24  2  0
 24 25  1  0
 25 26  2  0
 20 27  2  0
 27 28  1  0
 28 29  3  0
  9 30  1  0
 30 31  2  0
 31  6  1  0
 27 15  1  0
 26 21  1  0
M  END
>  <Binding energies>  (22) 
[-8.56]

>  <Ligand effiencies>  (22) 
[-0.2675]

>  <Interactions>  (22) 
["V-A:GLU:543:CD:4903, V-A:HIS:456:CE1:4064, V-B:GLU:543:CD:9876, V-B:GLU:543:CG:9875, V-B:GLU:543:CB:9874, V-B:TYR:539:CD2:9842, V-B:TYR:539:CE2:9844, V-B:TYR:539:CZ:9845, V-B:PRO:540:CB:9853, V-A:LEU:475:CD2:4254, V-B:PRO:540:CA:9851, V-B:MET:535:CE:9803, V-B:TYR:539:C:9835, V-B:PRO:540:N:9852, V-A:ILE:369:CD1:3234, H-A:TYR:484:OH:4343, V-A:GLY:454:CA:4044, V-B:LEU:363:CD1:8156, H-B:TYR:539:N:9838, V-A:ARG:545:CZ:4921, V-B:LEU:363:CB:8154, V-B:LEU:363:CA:8152, V-A:HIS:456:CD2:4063, V-A:ARG:545:CG:4917, V-A:GLY:453:C:4037, H-A:GLY:454:N:4045, V-A:GLY:453:CA:4039, V-A:ARG:545:CD:4918, V-A:ILE:455:C:4047"]

$$$$
3ce_Grossjean_2025
     RDKit          3D

 27 29  0  0  0  0  0  0  0  0999 V2000
  122.6470  130.2410   66.9640 C   0  0  0  0  0  0  0  0  0  0  0  0
  123.6480  129.8890   65.8810 C   0  0  0  0  0  0  0  0  0  0  0  0
  124.8120  129.1700   66.1670 C   0  0  0  0  0  0  0  0  0  0  0  0
  125.6820  128.8730   65.1190 C   0  0  0  0  0  0  0  0  0  0  0  0
  125.3740  129.2970   63.8240 C   0  0  0  0  0  0  0  0  0  0  0  0
  124.1970  130.0220   63.6090 C   0  0  0  0  0  0  0  0  0  0  0  0
  123.9280  130.4050   62.2840 N   0  0  0  0  0  0  0  0  0  0  0  0
  124.0750  131.6250   61.7200 C   0  0  0  0  0  0  0  0  0  0  0  0
  124.4900  132.6270   62.3040 O   0  0  0  0  0  0  0  0  0  0  0  0
  123.6960  131.7230   60.2430 C   0  0  0  0  0  0  0  0  0  0  0  0
  124.8620  130.8200   59.1810 S   0  0  0  0  0  0  0  0  0  0  0  0
  126.3720  131.7570   59.2170 C   0  0  0  0  0  0  0  0  0  0  0  0
  126.4490  132.6390   60.2430 N   0  0  0  0  0  0  0  0  0  0  0  0
  127.5680  133.3890   60.3690 C   0  0  0  0  0  0  0  0  0  0  0  0
  127.5930  134.3460   61.5460 C   0  0  0  0  0  0  0  0  0  0  0  0
  128.6350  133.2990   59.4790 C   0  0  0  0  0  0  0  0  0  0  0  0
  128.5640  132.4110   58.3970 C   0  0  0  0  0  0  0  0  0  0  0  0
  129.7220  132.3690   57.4550 C   0  0  0  0  0  0  0  0  0  0  0  0
  130.9300  131.7810   57.8520 C   0  0  0  0  0  0  0  0  0  0  0  0
  132.0160  131.7430   56.9810 C   0  0  0  0  0  0  0  0  0  0  0  0
  131.9020  132.3000   55.7110 C   0  0  0  0  0  0  0  0  0  0  0  0
  130.7110  132.8970   55.3040 C   0  0  0  0  0  0  0  0  0  0  0  0
  129.6260  132.9320   56.1760 C   0  0  0  0  0  0  0  0  0  0  0  0
  127.4030  131.6100   58.2580 C   0  0  0  0  0  0  0  0  0  0  0  0
  127.2770  130.6520   57.1550 C   0  0  0  0  0  0  0  0  0  0  0  0
  127.1800  129.8970   56.2840 N   0  0  0  0  0  0  0  0  0  0  0  0
  123.3360  130.3090   64.6290 N   0  0  0  0  0  0  0  0  0  0  0  0
  1  2  1  0
  2  3  2  0
  3  4  1  0
  4  5  2  0
  5  6  1  0
  6  7  1  0
  7  8  1  0
  8  9  2  0
  8 10  1  0
 10 11  1  0
 11 12  1  0
 12 13  2  0
 13 14  1  0
 14 15  1  0
 14 16  2  0
 16 17  1  0
 17 18  1  0
 18 19  2  0
 19 20  1  0
 20 21  2  0
 21 22  1  0
 22 23  2  0
 17 24  2  0
 24 25  1  0
 25 26  3  0
  6 27  2  0
 27  2  1  0
 24 12  1  0
 23 18  1  0
M  END
>  <Binding energies>  (23) 
[-9.14]

>  <Ligand effiencies>  (23) 
[-0.32642857142857146]

>  <Interactions>  (23) 
["V-B:ILE:369:CD1:8206, V-A:TYR:539:CE2:4871, V-A:LEU:363:CD1:3184, V-A:TYR:539:CD2:4869, V-B:LEU:475:CD2:9226, V-A:ALA:541:CB:4887, V-A:PRO:540:CB:4880, V-A:PRO:540:CA:4878, V-A:PRO:540:CD:4882, V-A:PRO:540:N:4879, V-B:ILE:369:CG2:8204, V-A:TYR:539:CG:4867, V-B:ARG:545:CZ:9894, V-A:TYR:539:CD1:4868, V-A:TYR:539:C:4862, V-A:ILE:538:CA:4855, V-B:HIS:456:CE1:9037, V-B:ARG:545:CD:9891, V-B:ARG:545:CG:9890, V-A:TYR:539:CZ:4872, V-A:ILE:538:CG2:4858, V-A:TYR:539:CE1:4870, H-B:ASP:366:OD2:8182, H-A:TYR:539:OH:4873, H-B:ARG:545:NH1:9895, H-B:GLY:454:N:9017, V-B:ILE:369:CB:8203, V-B:GLY:454:CA:9016, V-B:GLY:453:CA:9011, V-B:GLY:453:C:9009, H-B:ASP:366:OD1:8181, V-B:GLY:454:C:9014, V-B:ILE:455:C:9019"]

$$$$
3cj_Grossjean_2025
     RDKit          3D

 25 27  0  0  0  0  0  0  0  0999 V2000
  127.6160  134.2390   61.4540 C   0  0  0  0  0  0  0  0  0  0  0  0
  127.5920  133.3110   60.2550 C   0  0  0  0  0  0  0  0  0  0  0  0
  128.6280  133.2970   59.3230 C   0  0  0  0  0  0  0  0  0  0  0  0
  128.5750  132.4050   58.2430 C   0  0  0  0  0  0  0  0  0  0  0  0
  129.7360  132.3790   57.3060 C   0  0  0  0  0  0  0  0  0  0  0  0
  130.9640  131.8410   57.7110 C   0  0  0  0  0  0  0  0  0  0  0  0
  132.0510  131.8290   56.8400 C   0  0  0  0  0  0  0  0  0  0  0  0
  131.9150  132.3620   55.5620 C   0  0  0  0  0  0  0  0  0  0  0  0
  130.7030  132.9100   55.1490 C   0  0  0  0  0  0  0  0  0  0  0  0
  129.6180  132.9200   56.0210 C   0  0  0  0  0  0  0  0  0  0  0  0
  127.4410  131.5650   58.1170 C   0  0  0  0  0  0  0  0  0  0  0  0
  127.3140  130.6320   56.9920 C   0  0  0  0  0  0  0  0  0  0  0  0
  127.2160  129.8950   56.1050 N   0  0  0  0  0  0  0  0  0  0  0  0
  126.4400  131.6430   59.1110 C   0  0  0  0  0  0  0  0  0  0  0  0
  125.0330  130.5530   59.1460 S   0  0  0  0  0  0  0  0  0  0  0  0
  123.7420  131.4850   60.0300 C   0  0  0  0  0  0  0  0  0  0  0  0
  124.0210  131.5580   61.5350 C   0  0  0  0  0  0  0  0  0  0  0  0
  124.1610  132.6580   62.0740 O   0  0  0  0  0  0  0  0  0  0  0  0
  124.0540  130.3690   62.1750 N   0  0  0  0  0  0  0  0  0  0  0  0
  124.1530  130.1690   63.5430 C   0  0  0  0  0  0  0  0  0  0  0  0
  123.3710  130.6430   64.4880 N   0  0  0  0  0  0  0  0  0  0  0  0
  123.7440  130.2220   65.6800 C   0  0  0  0  0  0  0  0  0  0  0  0
  124.8560  129.3860   65.7190 C   0  0  0  0  0  0  0  0  0  0  0  0
  125.4390  129.1450   64.0990 S   0  0  0  0  0  0  0  0  0  0  0  0
  126.5190  132.4930   60.1650 N   0  0  0  0  0  0  0  0  0  0  0  0
  1  2  1  0
  2  3  2  0
  3  4  1  0
  4  5  1  0
  5  6  2  0
  6  7  1  0
  7  8  2  0
  8  9  1  0
  9 10  2  0
  4 11  2  0
 11 12  1  0
 12 13  3  0
 11 14  1  0
 14 15  1  0
 15 16  1  0
 16 17  1  0
 17 18  2  0
 17 19  1  0
 19 20  1  0
 20 21  2  0
 21 22  1  0
 22 23  2  0
 23 24  1  0
 14 25  2  0
 25  2  1  0
 10  5  1  0
 24 20  1  0
M  END
>  <Binding energies>  (24) 
[-8.07]

>  <Ligand effiencies>  (24) 
[-0.31038461538461537]

>  <Interactions>  (24) 
["V-B:ILE:369:CD1:8206, V-A:TYR:539:CE2:4871, V-A:LEU:363:CD1:3184, V-A:TYR:539:CD2:4869, V-B:LEU:475:CD2:9226, V-A:PRO:540:CB:4880, V-A:PRO:540:CA:4878, V-A:PRO:540:CD:4882, V-A:PRO:540:N:4879, V-A:TYR:539:CG:4867, V-B:ARG:545:CZ:9894, V-A:TYR:539:CD1:4868, V-A:TYR:539:C:4862, V-A:ILE:538:CA:4855, V-B:HIS:456:CE1:9037, V-B:ARG:545:CD:9891, V-B:ARG:545:CG:9890, V-A:TYR:539:CZ:4872, V-A:ILE:538:CG2:4858, V-A:TYR:539:CE1:4870, H-B:ASP:366:OD2:8182, V-B:ASP:366:CG:8180, H-A:TYR:539:OH:4873, H-B:GLY:454:N:9017, H-B:ASP:366:OD1:8181"]

$$$$
4ba_Grossjean_2025
     RDKit          3D

 28 30  0  0  0  0  0  0  0  0999 V2000
  123.7310  123.9180   58.0180 C   0  0  0  0  0  0  0  0  0  0  0  0
  124.5480  123.7190   56.7270 C   0  0  0  0  0  0  0  0  0  0  0  0
  125.6980  122.6970   56.8330 C   0  0  0  0  0  0  0  0  0  0  0  0
  125.6820  121.6880   56.1230 O   0  0  0  0  0  0  0  0  0  0  0  0
  126.8030  122.9880   57.8060 C   0  0  0  0  0  0  0  0  0  0  0  0
  126.4890  123.5180   59.0640 C   0  0  0  0  0  0  0  0  0  0  0  0
  127.4940  123.7990   59.9860 C   0  0  0  0  0  0  0  0  0  0  0  0
  128.8310  123.5520   59.6720 C   0  0  0  0  0  0  0  0  0  0  0  0
  129.7650  123.8810   60.6730 N   0  0  0  0  0  0  0  0  0  0  0  0
  131.0010  124.4280   60.5670 C   0  0  0  0  0  0  0  0  0  0  0  0
  131.5470  124.7000   59.4970 O   0  0  0  0  0  0  0  0  0  0  0  0
  131.6910  124.6640   61.8370 C   0  0  0  0  0  0  0  0  0  0  0  0
  133.4080  124.2990   61.9950 S   0  0  0  0  0  0  0  0  0  0  0  0
  133.4030  124.7770   63.6750 C   0  0  0  0  0  0  0  0  0  0  0  0
  134.5090  124.7210   64.4160 N   0  0  0  0  0  0  0  0  0  0  0  0
  134.3820  125.1160   65.7040 C   0  0  0  0  0  0  0  0  0  0  0  0
  135.6510  125.0350   66.5330 C   0  0  0  0  0  0  0  0  0  0  0  0
  133.1880  125.5660   66.2610 C   0  0  0  0  0  0  0  0  0  0  0  0
  132.0190  125.6290   65.4850 C   0  0  0  0  0  0  0  0  0  0  0  0
  130.7300  126.1330   66.1420 C   0  0  0  0  0  0  0  0  0  0  0  0
  130.0530  126.9900   65.3740 F   0  0  0  0  0  0  0  0  0  0  0  0
  129.9220  125.1050   66.4020 F   0  0  0  0  0  0  0  0  0  0  0  0
  131.0220  126.7630   67.2810 F   0  0  0  0  0  0  0  0  0  0  0  0
  132.1180  125.2130   64.1240 C   0  0  0  0  0  0  0  0  0  0  0  0
  131.1570  125.1280   63.0510 C   0  0  0  0  0  0  0  0  0  0  0  0
  129.8390  125.4730   63.2090 N   0  0  0  0  0  0  0  0  0  0  0  0
  129.1550  123.0280   58.4120 C   0  0  0  0  0  0  0  0  0  0  0  0
  128.1480  122.7480   57.4910 C   0  0  0  0  0  0  0  0  0  0  0  0
  1  2  1  0
  2  3  1  0
  3  4  2  0
  3  5  1  0
  5  6  2  0
  6  7  1  0
  7  8  2  0
  8  9  1  0
  9 10  1  0
 10 11  2  0
 10 12  1  0
 12 13  1  0
 13 14  1  0
 14 15  2  0
 15 16  1  0
 16 17  1  0
 16 18  2  0
 18 19  1  0
 19 20  1  0
 20 21  1  0
 20 22  1  0
 20 23  1  0
 19 24  2  0
 24 25  1  0
 25 26  1  0
  8 27  1  0
 27 28  2  0
 28  5  1  0
 25 12  2  0
 24 14  1  0
M  END
>  <Binding energies>  (25) 
[-7.89]

>  <Ligand effiencies>  (25) 
[-0.25451612903225806]

>  <Interactions>  (25) 
["V-A:GLU:543:CD:4903, V-A:HIS:456:CE1:4064, V-B:GLU:543:CD:9876, V-B:GLU:543:CG:9875, V-B:GLU:543:CB:9874, V-B:TYR:539:CE2:9844, V-B:PRO:540:CB:9853, V-B:PRO:540:CA:9851, V-B:MET:535:CE:9803, V-B:TYR:539:C:9835, V-B:PRO:540:N:9852, V-A:ASP:366:CG:3208, H-A:TYR:484:OH:4343, V-B:PRO:540:CD:9855, V-A:GLY:454:CA:4044, V-B:LEU:363:CD1:8156, H-B:TYR:539:N:9838, H-B:GLU:543:OE2:9878, V-A:ARG:545:CZ:4921, V-B:LEU:363:CB:8154, V-B:LEU:363:CA:8152, V-A:HIS:456:CD2:4063, V-A:ARG:545:CG:4917, V-A:GLY:453:C:4037, H-A:GLY:454:N:4045, V-A:GLY:453:CA:4039, V-A:ARG:545:CD:4918, V-B:TYR:531:CE2:9761, H-A:ARG:545:NH1:4922, V-A:ILE:455:C:4047, V-B:LEU:363:CG:8155"]

$$$$
4bb_Grossjean_2025
     RDKit          3D

 27 29  0  0  0  0  0  0  0  0999 V2000
  124.5150  123.5770   56.6690 C   0  0  0  0  0  0  0  0  0  0  0  0
  125.7270  122.6430   56.7050 C   0  0  0  0  0  0  0  0  0  0  0  0
  125.7520  121.6940   55.9200 O   0  0  0  0  0  0  0  0  0  0  0  0
  126.8130  122.9270   57.7000 C   0  0  0  0  0  0  0  0  0  0  0  0
  126.4810  123.4940   58.9370 C   0  0  0  0  0  0  0  0  0  0  0  0
  127.4700  123.7680   59.8770 C   0  0  0  0  0  0  0  0  0  0  0  0
  128.8070  123.4730   59.6040 C   0  0  0  0  0  0  0  0  0  0  0  0
  129.7240  123.7930   60.6240 N   0  0  0  0  0  0  0  0  0  0  0  0
  131.0610  124.0060   60.5570 C   0  0  0  0  0  0  0  0  0  0  0  0
  131.7250  123.9180   59.5250 O   0  0  0  0  0  0  0  0  0  0  0  0
  131.7060  124.3300   61.8330 C   0  0  0  0  0  0  0  0  0  0  0  0
  133.4430  124.1060   62.0310 S   0  0  0  0  0  0  0  0  0  0  0  0
  133.3690  124.6360   63.6960 C   0  0  0  0  0  0  0  0  0  0  0  0
  134.4610  124.6980   64.4550 N   0  0  0  0  0  0  0  0  0  0  0  0
  134.2770  125.1210   65.7270 C   0  0  0  0  0  0  0  0  0  0  0  0
  135.5350  125.1860   66.5740 C   0  0  0  0  0  0  0  0  0  0  0  0
  133.0390  125.4810   66.2520 C   0  0  0  0  0  0  0  0  0  0  0  0
  131.8850  125.4180   65.4570 C   0  0  0  0  0  0  0  0  0  0  0  0
  130.5440  125.8230   66.0790 C   0  0  0  0  0  0  0  0  0  0  0  0
  129.8710  126.7070   65.3380 F   0  0  0  0  0  0  0  0  0  0  0  0
  129.7690  124.7480   66.2210 F   0  0  0  0  0  0  0  0  0  0  0  0
  130.7500  126.3780   67.2730 F   0  0  0  0  0  0  0  0  0  0  0  0
  132.0430  124.9740   64.1090 C   0  0  0  0  0  0  0  0  0  0  0  0
  131.1140  124.7840   63.0230 C   0  0  0  0  0  0  0  0  0  0  0  0
  129.7710  125.0340   63.1450 N   0  0  0  0  0  0  0  0  0  0  0  0
  129.1470  122.9110   58.3640 C   0  0  0  0  0  0  0  0  0  0  0  0
  128.1570  122.6400   57.4240 C   0  0  0  0  0  0  0  0  0  0  0  0
  1  2  1  0
  2  3  2  0
  2  4  1  0
  4  5  2  0
  5  6  1  0
  6  7  2  0
  7  8  1  0
  8  9  1  0
  9 10  2  0
  9 11  1  0
 11 12  1  0
 12 13  1  0
 13 14  2  0
 14 15  1  0
 15 16  1  0
 15 17  2  0
 17 18  1  0
 18 19  1  0
 19 20  1  0
 19 21  1  0
 19 22  1  0
 18 23  2  0
 23 24  1  0
 24 25  1  0
  7 26  1  0
 26 27  2  0
 27  4  1  0
 24 11  2  0
 23 13  1  0
M  END
>  <Binding energies>  (26) 
[-7.7]

>  <Ligand effiencies>  (26) 
[-0.25666666666666665]

>  <Interactions>  (26) 
["V-A:GLU:543:CD:4903, V-A:HIS:456:CE1:4064, V-B:GLU:543:CD:9876, V-B:GLU:543:CG:9875, V-B:GLU:543:CB:9874, V-B:TYR:539:CD2:9842, V-B:TYR:539:CE2:9844, V-B:PRO:540:CB:9853, V-B:PRO:540:CA:9851, V-B:MET:535:CE:9803, V-B:TYR:539:C:9835, V-B:PRO:540:N:9852, V-A:ILE:369:CD1:3234, V-A:ASP:366:CG:3208, H-A:TYR:484:OH:4343, V-B:PRO:540:CD:9855, V-B:LEU:363:CD1:8156, H-B:TYR:539:N:9838, H-B:GLU:543:OE2:9878, V-A:ARG:545:CZ:4921, V-A:HIS:456:CD2:4063, V-A:ARG:545:CG:4917, V-A:GLY:453:C:4037, H-A:GLY:454:N:4045, V-A:GLY:453:CA:4039, V-A:ARG:545:CD:4918, V-B:TYR:531:CE2:9761, H-A:ARG:545:NH1:4922, V-A:ILE:455:C:4047, V-A:ARG:545:CB:4916"]

$$$$
4bd_Grossjean_2025
     RDKit          3D

 24 26  0  0  0  0  0  0  0  0999 V2000
  131.4970  132.8160   54.8510 C   0  0  0  0  0  0  0  0  0  0  0  0
  131.3610  132.4390   56.3150 C   0  0  0  0  0  0  0  0  0  0  0  0
  132.3510  131.7070   56.9640 C   0  0  0  0  0  0  0  0  0  0  0  0
  132.2100  131.3640   58.3180 C   0  0  0  0  0  0  0  0  0  0  0  0
  133.3250  130.5540   58.9890 C   0  0  0  0  0  0  0  0  0  0  0  0
  134.1930  130.0390   58.1160 F   0  0  0  0  0  0  0  0  0  0  0  0
  134.0120  131.3350   59.8220 F   0  0  0  0  0  0  0  0  0  0  0  0
  132.7960  129.5380   59.6710 F   0  0  0  0  0  0  0  0  0  0  0  0
  131.0240  131.7980   58.9820 C   0  0  0  0  0  0  0  0  0  0  0  0
  130.5400  131.6410   60.3320 C   0  0  0  0  0  0  0  0  0  0  0  0
  131.2470  130.9710   61.2960 N   0  0  0  0  0  0  0  0  0  0  0  0
  129.2880  132.2330   60.5660 C   0  0  0  0  0  0  0  0  0  0  0  0
  128.5030  132.2510   61.8040 C   0  0  0  0  0  0  0  0  0  0  0  0
  128.8910  132.8870   62.7850 O   0  0  0  0  0  0  0  0  0  0  0  0
  127.3470  131.5420   61.7700 N   0  0  0  0  0  0  0  0  0  0  0  0
  126.4010  131.3250   62.7880 C   0  0  0  0  0  0  0  0  0  0  0  0
  125.4800  132.3550   62.9980 C   0  0  0  0  0  0  0  0  0  0  0  0
  124.4970  132.2310   63.9760 C   0  0  0  0  0  0  0  0  0  0  0  0
  124.4280  131.0690   64.7410 C   0  0  0  0  0  0  0  0  0  0  0  0
  125.3310  130.0300   64.5320 C   0  0  0  0  0  0  0  0  0  0  0  0
  126.3160  130.1510   63.5550 C   0  0  0  0  0  0  0  0  0  0  0  0
  128.6700  133.0130   59.1120 S   0  0  0  0  0  0  0  0  0  0  0  0
  130.0860  132.5410   58.2010 C   0  0  0  0  0  0  0  0  0  0  0  0
  130.2250  132.8650   56.9160 N   0  0  0  0  0  0  0  0  0  0  0  0
  1  2  1  0
  2  3  2  0
  3  4  1  0
  4  5  1  0
  5  6  1  0
  5  7  1  0
  5  8  1  0
  4  9  2  0
  9 10  1  0
 10 11  1  0
 10 12  2  0
 12 13  1  0
 13 14  2  0
 13 15  1  0
 15 16  1  0
 16 17  2  0
 17 18  1  0
 18 19  2  0
 19 20  1  0
 20 21  2  0
 12 22  1  0
 22 23  1  0
 23 24  2  0
 24  2  1  0
 23  9  1  0
 21 16  1  0
M  END
>  <Binding energies>  (27) 
[-6.28]

>  <Ligand effiencies>  (27) 
[-0.2325925925925926]

>  <Interactions>  (27) 
["H-A:ALA:541:N:4886, V-A:LEU:363:CB:3182, V-A:TYR:539:CE2:4871, H-A:GLU:543:OE2:4905, V-A:LEU:363:CD1:3184, V-A:TYR:531:CZ:4789, V-A:TYR:539:CD2:4869, V-B:LEU:475:CD2:9226, V-A:LEU:363:CA:3180, V-A:ASN:362:C:3167, V-A:GLU:543:CD:4903, V-A:TYR:531:CE2:4788, V-A:PRO:540:CB:4880, V-A:PRO:540:CA:4878, V-A:PRO:540:CD:4882, V-A:PRO:540:N:4879, V-A:ILE:538:CD1:4860, H-A:TYR:539:N:4865, V-A:TYR:539:C:4862, V-A:ILE:538:CA:4855, V-A:ILE:538:CB:4857, V-A:ILE:538:CG2:4858, V-A:ASP:366:CG:3208, V-A:ASP:366:CB:3207, V-A:ASN:362:CB:3171, V-A:LEU:363:C:3178, V-B:GLY:454:CA:9016, H-A:ASP:366:OD2:3210"]

$$$$
4be_Grossjean_2025
     RDKit          3D

 25 27  0  0  0  0  0  0  0  0999 V2000
  125.3930  129.1830   65.2110 C   0  0  0  0  0  0  0  0  0  0  0  0
  125.4090  130.4310   64.3500 C   0  0  0  0  0  0  0  0  0  0  0  0
  124.4830  131.4600   64.5360 C   0  0  0  0  0  0  0  0  0  0  0  0
  124.5560  132.5780   63.7050 C   0  0  0  0  0  0  0  0  0  0  0  0
  125.5430  132.6400   62.7180 C   0  0  0  0  0  0  0  0  0  0  0  0
  126.4430  131.5770   62.5890 C   0  0  0  0  0  0  0  0  0  0  0  0
  127.4080  131.6970   61.5720 N   0  0  0  0  0  0  0  0  0  0  0  0
  128.6460  132.2470   61.6330 C   0  0  0  0  0  0  0  0  0  0  0  0
  129.1280  132.7410   62.6550 O   0  0  0  0  0  0  0  0  0  0  0  0
  129.3990  132.2420   60.3760 C   0  0  0  0  0  0  0  0  0  0  0  0
  128.7690  133.0890   58.9640 S   0  0  0  0  0  0  0  0  0  0  0  0
  130.1370  132.5890   57.9980 C   0  0  0  0  0  0  0  0  0  0  0  0
  130.2530  132.9480   56.7200 N   0  0  0  0  0  0  0  0  0  0  0  0
  131.3560  132.5020   56.0760 C   0  0  0  0  0  0  0  0  0  0  0  0
  131.4680  132.9180   54.6210 C   0  0  0  0  0  0  0  0  0  0  0  0
  132.3370  131.7160   56.6740 C   0  0  0  0  0  0  0  0  0  0  0  0
  132.2210  131.3350   58.0200 C   0  0  0  0  0  0  0  0  0  0  0  0
  133.3280  130.4730   58.6360 C   0  0  0  0  0  0  0  0  0  0  0  0
  133.8870  131.0320   59.7120 F   0  0  0  0  0  0  0  0  0  0  0  0
  132.8260  129.2970   59.0150 F   0  0  0  0  0  0  0  0  0  0  0  0
  134.2950  130.2710   57.7410 F   0  0  0  0  0  0  0  0  0  0  0  0
  131.0670  131.7850   58.7280 C   0  0  0  0  0  0  0  0  0  0  0  0
  130.6100  131.5960   60.0830 C   0  0  0  0  0  0  0  0  0  0  0  0
  131.3070  130.8550   61.0030 N   0  0  0  0  0  0  0  0  0  0  0  0
  126.3740  130.4770   63.3960 N   0  0  0  0  0  0  0  0  0  0  0  0
  1  2  1  0
  2  3  2  0
  3  4  1  0
  4  5  2  0
  5  6  1  0
  6  7  1  0
  7  8  1  0
  8  9  2  0
  8 10  1  0
 10 11  1  0
 11 12  1  0
 12 13  2  0
 13 14  1  0
 14 15  1  0
 14 16  2  0
 16 17  1  0
 17 18  1  0
 18 19  1  0
 18 20  1  0
 18 21  1  0
 17 22  2  0
 22 23  1  0
 23 24  1  0
  6 25  2  0
 25  2  1  0
 23 10  2  0
 22 12  1  0
M  END
>  <Binding energies>  (28) 
[-6.43]

>  <Ligand effiencies>  (28) 
[-0.22964285714285712]

>  <Interactions>  (28) 
["H-A:ALA:541:N:4886, V-A:LEU:363:CB:3182, V-A:TYR:539:CE2:4871, H-A:GLU:543:OE2:4905, V-A:LEU:363:CD1:3184, V-A:TYR:531:CZ:4789, V-A:TYR:539:CD2:4869, V-B:LEU:475:CD2:9226, V-A:LEU:363:CA:3180, V-A:ASN:362:C:3167, V-A:TYR:531:CE2:4788, V-A:PRO:540:CB:4880, V-A:PRO:540:CA:4878, V-A:PRO:540:CD:4882, V-A:PRO:540:N:4879, V-A:TYR:531:CD2:4786, V-A:ILE:538:CD1:4860, V-A:TYR:539:CG:4867, H-A:TYR:539:N:4865, V-B:ARG:545:CZ:9894, V-A:TYR:539:C:4862, V-A:ILE:538:CA:4855, H-B:TYR:484:OH:9315, V-B:HIS:456:CE1:9037, V-A:ILE:538:CB:4857, V-A:ILE:538:CG2:4858, V-A:ASP:366:CG:3208, V-A:ASP:366:CB:3207, V-A:LEU:363:C:3178, V-B:GLY:454:CA:9016, H-A:ASP:366:OD2:3210, V-A:LEU:363:CG:3183"]

$$$$
4bg_Grossjean_2025
     RDKit          3D

 25 27  0  0  0  0  0  0  0  0999 V2000
  128.9990  121.6620   61.2190 C   0  0  0  0  0  0  0  0  0  0  0  0
  129.6630  122.3530   60.0420 C   0  0  0  0  0  0  0  0  0  0  0  0
  131.0370  122.2610   59.8380 C   0  0  0  0  0  0  0  0  0  0  0  0
  131.6390  122.9100   58.7480 C   0  0  0  0  0  0  0  0  0  0  0  0
  133.1540  122.7800   58.5640 C   0  0  0  0  0  0  0  0  0  0  0  0
  133.8090  123.9190   58.8040 F   0  0  0  0  0  0  0  0  0  0  0  0
  133.6330  121.8610   59.4030 F   0  0  0  0  0  0  0  0  0  0  0  0
  133.4290  122.4190   57.3110 F   0  0  0  0  0  0  0  0  0  0  0  0
  130.7850  123.6520   57.8790 C   0  0  0  0  0  0  0  0  0  0  0  0
  131.0330  124.4350   56.6930 C   0  0  0  0  0  0  0  0  0  0  0  0
  132.2890  124.6120   56.1680 N   0  0  0  0  0  0  0  0  0  0  0  0
  129.8780  124.9910   56.1220 C   0  0  0  0  0  0  0  0  0  0  0  0
  129.7660  125.8550   54.9470 C   0  0  0  0  0  0  0  0  0  0  0  0
  129.3480  125.4250   53.8710 O   0  0  0  0  0  0  0  0  0  0  0  0
  130.1090  127.1470   55.1290 N   0  0  0  0  0  0  0  0  0  0  0  0
  130.0900  128.1840   54.0980 C   0  0  0  0  0  0  0  0  0  0  0  0
  130.7970  129.4680   54.5110 C   0  0  0  0  0  0  0  0  0  0  0  0
  131.5230  130.2040   53.5700 C   0  0  0  0  0  0  0  0  0  0  0  0
  132.1350  131.3970   53.9420 C   0  0  0  0  0  0  0  0  0  0  0  0
  132.0080  131.8600   55.2500 C   0  0  0  0  0  0  0  0  0  0  0  0
  131.2720  131.1420   56.1890 C   0  0  0  0  0  0  0  0  0  0  0  0
  130.6610  129.9470   55.8180 C   0  0  0  0  0  0  0  0  0  0  0  0
  128.4430  124.5920   57.0620 S   0  0  0  0  0  0  0  0  0  0  0  0
  129.3920  123.6610   58.1960 C   0  0  0  0  0  0  0  0  0  0  0  0
  128.8260  123.0450   59.2340 N   0  0  0  0  0  0  0  0  0  0  0  0
  1  2  1  0
  2  3  2  0
  3  4  1  0
  4  5  1  0
  5  6  1  0
  5  7  1  0
  5  8  1  0
  4  9  2  0
  9 10  1  0
 10 11  1  0
 10 12  2  0
 12 13  1  0
 13 14  2  0
 13 15  1  0
 15 16  1  0
 16 17  1  0
 17 18  2  0
 18 19  1  0
 19 20  2  0
 20 21  1  0
 21 22  2  0
 12 23  1  0
 23 24  1  0
 24 25  2  0
 25  2  1  0
 24  9  1  0
 22 17  1  0
M  END
>  <Binding energies>  (29) 
[-7.49]

>  <Ligand effiencies>  (29) 
[-0.2675]

>  <Interactions>  (29) 
["V-A:LEU:363:CD1:3184, V-A:TYR:531:CZ:4789, V-A:ILE:538:CD1:4860, V-A:TYR:531:CE1:4787, V-A:MET:535:CG:4828, V-B:TYR:539:CE2:9844, V-B:TYR:539:CZ:9845, V-B:PRO:540:C:9849, V-B:ALA:541:CB:9860, V-A:ILE:369:CD1:3234, V-A:ASP:366:CG:3208, H-A:LYS:534:NZ:4818, H-A:TYR:531:OH:4790, H-B:TYR:539:OH:9846, V-A:ASP:366:CA:3205, V-A:ASP:366:CB:3207, V-A:ASP:366:C:3203, V-A:ILE:369:CG2:3232, V-A:ILE:369:CB:3231, V-B:ALA:541:CA:9858, V-A:ILE:369:CG1:3233, H-A:ASP:366:O:3204"]

$$$$
4ca_Grossjean_2025
     RDKit          3D

 34 37  0  0  0  0  0  0  0  0999 V2000
  130.4590  132.3720   53.9050 C   0  0  0  0  0  0  0  0  0  0  0  0
  129.7000  132.9760   55.0900 C   0  0  0  0  0  0  0  0  0  0  0  0
  130.6180  133.2930   56.1280 O   0  0  0  0  0  0  0  0  0  0  0  0
  131.5070  132.3730   56.5840 C   0  0  0  0  0  0  0  0  0  0  0  0
  132.5560  132.0920   55.9940 O   0  0  0  0  0  0  0  0  0  0  0  0
  131.0900  131.7350   57.8770 C   0  0  0  0  0  0  0  0  0  0  0  0
  132.0600  131.1230   58.6820 C   0  0  0  0  0  0  0  0  0  0  0  0
  131.7040  130.5260   59.8880 C   0  0  0  0  0  0  0  0  0  0  0  0
  130.3750  130.5230   60.3110 C   0  0  0  0  0  0  0  0  0  0  0  0
  130.1290  129.9000   61.5510 N   0  0  0  0  0  0  0  0  0  0  0  0
  129.0510  129.1970   61.9750 C   0  0  0  0  0  0  0  0  0  0  0  0
  128.0730  128.9390   61.2720 O   0  0  0  0  0  0  0  0  0  0  0  0
  129.1180  128.7240   63.3600 C   0  0  0  0  0  0  0  0  0  0  0  0
  128.6170  129.7780   64.6810 S   0  0  0  0  0  0  0  0  0  0  0  0
  128.9430  128.5290   65.8590 C   0  0  0  0  0  0  0  0  0  0  0  0
  128.7400  128.7320   67.1590 N   0  0  0  0  0  0  0  0  0  0  0  0
  129.0080  127.6990   67.9990 C   0  0  0  0  0  0  0  0  0  0  0  0
  128.7590  127.9550   69.4570 C   0  0  0  0  0  0  0  0  0  0  0  0
  127.6130  127.4500   70.0910 C   0  0  0  0  0  0  0  0  0  0  0  0
  127.3750  127.6890   71.4420 C   0  0  0  0  0  0  0  0  0  0  0  0
  128.2820  128.4420   72.1810 C   0  0  0  0  0  0  0  0  0  0  0  0
  129.4240  128.9570   71.5770 C   0  0  0  0  0  0  0  0  0  0  0  0
  129.6590  128.7150   70.2260 C   0  0  0  0  0  0  0  0  0  0  0  0
  129.4990  126.4750   67.5310 C   0  0  0  0  0  0  0  0  0  0  0  0
  129.7210  126.2530   66.1640 C   0  0  0  0  0  0  0  0  0  0  0  0
  130.2580  124.8870   65.7200 C   0  0  0  0  0  0  0  0  0  0  0  0
  130.1250  123.9440   66.6550 F   0  0  0  0  0  0  0  0  0  0  0  0
  129.5990  124.4720   64.6390 F   0  0  0  0  0  0  0  0  0  0  0  0
  131.5560  124.9830   65.4340 F   0  0  0  0  0  0  0  0  0  0  0  0
  129.4270  127.3240   65.2720 C   0  0  0  0  0  0  0  0  0  0  0  0
  129.5150  127.4640   63.8390 C   0  0  0  0  0  0  0  0  0  0  0  0
  129.9510  126.4530   63.0210 N   0  0  0  0  0  0  0  0  0  0  0  0
  129.3980  131.1380   59.5150 C   0  0  0  0  0  0  0  0  0  0  0  0
  129.7550  131.7370   58.3100 C   0  0  0  0  0  0  0  0  0  0  0  0
  1  2  1  0
  2  3  1  0
  3  4  1  0
  4  5  2  0
  4  6  1  0
  6  7  2  0
  7  8  1  0
  8  9  2  0
  9 10  1  0
 10 11  1  0
 11 12  2  0
 11 13  1  0
 13 14  1  0
 14 15  1  0
 15 16  2  0
 16 17  1  0
 17 18  1  0
 18 19  2  0
 19 20  1  0
 20 21  2  0
 21 22  1  0
 22 23  2  0
 17 24  2  0
 24 25  1  0
 25 26  1  0
 26 27  1  0
 26 28  1  0
 26 29  1  0
 25 30  2  0
 30 31  1  0
 31 32  1  0
  9 33  1  0
 33 34  2  0
 34  6  1  0
 31 13  2  0
 30 15  1  0
 23 18  1  0
M  END
>  <Binding energies>  (30) 
[-7.38]

>  <Ligand effiencies>  (30) 
[-0.19945945945945945]

>  <Interactions>  (30) 
["V-A:GLU:543:CG:4902, H-A:GLU:543:OE2:4905, V-A:GLU:543:CD:4903, V-A:PRO:540:CB:4880, V-A:PRO:540:CA:4878, V-A:PRO:540:CD:4882, V-A:PRO:540:N:4879, V-A:ILE:538:CD1:4860, H-A:TYR:539:N:4865, V-A:TYR:539:CD1:4868, V-A:ILE:538:CA:4855, V-A:HIS:456:CE1:4064, V-B:HIS:456:CD2:9035, V-B:GLU:543:CA:9872, V-B:GLU:543:CD:9876, V-B:HIS:456:CE1:9037, V-B:GLU:543:CG:9875, V-B:HIS:456:CG:9033, V-B:GLU:543:CB:9874, V-A:TYR:484:CZ:4342, V-A:TYR:484:CE1:4340, V-A:TYR:539:CE1:4870, H-B:GLU:543:OE2:9878, V-B:GLY:544:C:9880"]

$$$$
4cb_Grossjean_2025
     RDKit          3D

 33 36  0  0  0  0  0  0  0  0999 V2000
  129.5690  132.5480   54.4780 C   0  0  0  0  0  0  0  0  0  0  0  0
  130.2240  133.3190   55.4760 O   0  0  0  0  0  0  0  0  0  0  0  0
  131.4210  132.9310   55.9850 C   0  0  0  0  0  0  0  0  0  0  0  0
  132.5060  133.2260   55.4740 O   0  0  0  0  0  0  0  0  0  0  0  0
  131.2960  132.1070   57.2350 C   0  0  0  0  0  0  0  0  0  0  0  0
  130.1040  132.1570   57.9700 C   0  0  0  0  0  0  0  0  0  0  0  0
  129.9550  131.3990   59.1280 C   0  0  0  0  0  0  0  0  0  0  0  0
  130.9930  130.5830   59.5780 C   0  0  0  0  0  0  0  0  0  0  0  0
  130.7280  129.8500   60.7510 N   0  0  0  0  0  0  0  0  0  0  0  0
  129.9340  128.7680   60.9440 C   0  0  0  0  0  0  0  0  0  0  0  0
  129.3160  128.1950   60.0460 O   0  0  0  0  0  0  0  0  0  0  0  0
  129.8610  128.2840   62.3250 C   0  0  0  0  0  0  0  0  0  0  0  0
  128.6390  128.9210   63.4240 S   0  0  0  0  0  0  0  0  0  0  0  0
  129.1830  127.8690   64.7110 C   0  0  0  0  0  0  0  0  0  0  0  0
  128.6010  127.8770   65.9070 N   0  0  0  0  0  0  0  0  0  0  0  0
  129.0860  127.0170   66.8400 C   0  0  0  0  0  0  0  0  0  0  0  0
  128.4060  127.0450   68.1780 C   0  0  0  0  0  0  0  0  0  0  0  0
  129.1530  127.1660   69.3610 C   0  0  0  0  0  0  0  0  0  0  0  0
  128.5290  127.1890   70.6050 C   0  0  0  0  0  0  0  0  0  0  0  0
  127.1440  127.0900   70.6850 C   0  0  0  0  0  0  0  0  0  0  0  0
  126.3800  126.9660   69.5290 C   0  0  0  0  0  0  0  0  0  0  0  0
  127.0080  126.9420   68.2870 C   0  0  0  0  0  0  0  0  0  0  0  0
  130.1670  126.1700   66.5720 C   0  0  0  0  0  0  0  0  0  0  0  0
  130.7900  126.1560   65.3150 C   0  0  0  0  0  0  0  0  0  0  0  0
  131.9680  125.2010   65.0890 C   0  0  0  0  0  0  0  0  0  0  0  0
  131.6020  124.0410   64.5380 F   0  0  0  0  0  0  0  0  0  0  0  0
  132.8560  125.7670   64.2730 F   0  0  0  0  0  0  0  0  0  0  0  0
  132.5540  124.9220   66.2530 F   0  0  0  0  0  0  0  0  0  0  0  0
  130.2780  127.0430   64.3240 C   0  0  0  0  0  0  0  0  0  0  0  0
  130.6420  127.2980   62.9510 C   0  0  0  0  0  0  0  0  0  0  0  0
  131.6620  126.6340   62.3190 N   0  0  0  0  0  0  0  0  0  0  0  0
  132.1880  130.5250   58.8460 C   0  0  0  0  0  0  0  0  0  0  0  0
  132.3350  131.2820   57.6880 C   0  0  0  0  0  0  0  0  0  0  0  0
  1  2  1  0
  2  3  1  0
  3  4  2  0
  3  5  1  0
  5  6  2  0
  6  7  1  0
  7  8  2  0
  8  9  1  0
  9 10  1  0
 10 11  2  0
 10 12  1  0
 12 13  1  0
 13 14  1  0
 14 15  2  0
 15 16  1  0
 16 17  1  0
 17 18  2  0
 18 19  1  0
 19 20  2  0
 20 21  1  0
 21 22  2  0
 16 23  2  0
 23 24  1  0
 24 25  1  0
 25 26  1  0
 25 27  1  0
 25 28  1  0
 24 29  2  0
 29 30  1  0
 30 31  1  0
  8 32  1  0
 32 33  2  0
 33  5  1  0
 30 12  2  0
 29 14  1  0
 22 17  1  0
M  END
>  <Binding energies>  (31) 
[-7.57]

>  <Ligand effiencies>  (31) 
[-0.21027777777777779]

>  <Interactions>  (31) 
["H-A:GLU:543:OE2:4905, V-A:LEU:363:CD1:3184, V-A:GLU:543:CD:4903, V-A:PRO:540:CB:4880, V-A:PRO:540:CA:4878, V-A:PRO:540:CD:4882, V-A:PRO:540:N:4879, H-A:TYR:539:N:4865, V-A:TYR:539:CD1:4868, V-A:ILE:538:CA:4855, V-B:GLU:543:C:9870, V-A:HIS:456:CE1:4064, V-B:HIS:456:CE1:9037, V-B:ARG:545:CG:9890, V-B:GLU:543:CB:9874, V-A:TYR:484:CZ:4342, V-A:ILE:538:CG2:4858, V-A:TYR:539:CE1:4870, V-A:ASP:366:CG:3208, V-A:ARG:545:CZ:4921, V-B:GLY:544:C:9880, H-A:ASP:366:OD2:3210, V-A:HIS:456:CD2:4063, H-A:ASP:366:OD1:3209, V-B:ARG:545:CA:9887"]

$$$$
4cc_Grossjean_2025
     RDKit          3D

 31 34  0  0  0  0  0  0  0  0999 V2000
  129.7440  118.0990   60.3120 C   0  0  0  0  0  0  0  0  0  0  0  0
  130.2490  119.3830   59.9630 O   0  0  0  0  0  0  0  0  0  0  0  0
  130.0340  120.4470   60.8170 C   0  0  0  0  0  0  0  0  0  0  0  0
  130.8590  120.5220   61.9390 C   0  0  0  0  0  0  0  0  0  0  0  0
  130.7180  121.5610   62.8550 C   0  0  0  0  0  0  0  0  0  0  0  0
  129.7380  122.5370   62.6660 C   0  0  0  0  0  0  0  0  0  0  0  0
  129.6800  123.5550   63.6350 N   0  0  0  0  0  0  0  0  0  0  0  0
  130.6940  124.2090   64.2530 C   0  0  0  0  0  0  0  0  0  0  0  0
  131.8860  124.0160   64.0090 O   0  0  0  0  0  0  0  0  0  0  0  0
  130.2870  125.1920   65.2610 C   0  0  0  0  0  0  0  0  0  0  0  0
  130.5840  124.8860   66.9710 S   0  0  0  0  0  0  0  0  0  0  0  0
  129.8670  126.4170   67.4150 C   0  0  0  0  0  0  0  0  0  0  0  0
  129.7860  126.8030   68.6860 N   0  0  0  0  0  0  0  0  0  0  0  0
  129.2210  128.0140   68.9330 C   0  0  0  0  0  0  0  0  0  0  0  0
  129.1410  128.4210   70.3760 C   0  0  0  0  0  0  0  0  0  0  0  0
  130.2310  129.0430   71.0080 C   0  0  0  0  0  0  0  0  0  0  0  0
  130.1640  129.4220   72.3460 C   0  0  0  0  0  0  0  0  0  0  0  0
  129.0040  129.1840   73.0740 C   0  0  0  0  0  0  0  0  0  0  0  0
  127.9110  128.5670   72.4730 C   0  0  0  0  0  0  0  0  0  0  0  0
  127.9820  128.1880   71.1350 C   0  0  0  0  0  0  0  0  0  0  0  0
  128.7260  128.8220   67.9050 C   0  0  0  0  0  0  0  0  0  0  0  0
  128.8050  128.4230   66.5610 C   0  0  0  0  0  0  0  0  0  0  0  0
  128.2470  129.3610   65.4840 C   0  0  0  0  0  0  0  0  0  0  0  0
  127.0360  129.0010   65.0510 F   0  0  0  0  0  0  0  0  0  0  0  0
  128.1440  130.5970   65.9720 F   0  0  0  0  0  0  0  0  0  0  0  0
  129.0610  129.3710   64.4290 F   0  0  0  0  0  0  0  0  0  0  0  0
  129.4030  127.1590   66.2890 C   0  0  0  0  0  0  0  0  0  0  0  0
  129.6540  126.4310   65.0700 C   0  0  0  0  0  0  0  0  0  0  0  0
  129.3040  126.9130   63.8340 N   0  0  0  0  0  0  0  0  0  0  0  0
  128.9120  122.4750   61.5330 C   0  0  0  0  0  0  0  0  0  0  0  0
  129.0570  121.4350   60.6190 C   0  0  0  0  0  0  0  0  0  0  0  0
  1  2  1  0
  2  3  1  0
  3  4  2  0
  4  5  1  0
  5  6  2  0
  6  7  1  0
  7  8  1  0
  8  9  2  0
  8 10  1  0
 10 11  1  0
 11 12  1  0
 12 13  2  0
 13 14  1  0
 14 15  1  0
 15 16  2  0
 16 17  1  0
 17 18  2  0
 18 19  1  0
 19 20  2  0
 14 21  2  0
 21 22  1  0
 22 23  1  0
 23 24  1  0
 23 25  1  0
 23 26  1  0
 22 27  2  0
 27 28  1  0
 28 29  1  0
  6 30  1  0
 30 31  2  0
 31  3  1  0
 28 10  2  0
 27 12  1  0
 20 15  1  0
M  END
>  <Binding energies>  (32) 
[-7.06]

>  <Ligand effiencies>  (32) 
[-0.2076470588235294]

>  <Interactions>  (32) 
["V-A:GLU:543:CG:4902, H-A:GLU:543:OE2:4905, V-A:GLU:543:CD:4903, V-A:HIS:456:CE1:4064, V-B:HIS:456:CD2:9035, V-A:LYS:547:CE:4945, V-B:GLU:543:CD:9876, V-B:HIS:456:CE1:9037, V-B:GLU:543:CG:9875, V-B:HIS:456:CG:9033, V-A:GLY:544:C:4907, V-A:GLU:543:C:4897, V-A:GLU:543:CB:4901, H-A:HIS:456:NE2:4065, V-A:TYR:484:CZ:4342, V-A:TYR:484:CE1:4340, V-B:TYR:539:CD2:9842, V-A:TRP:381:CE2:3362, V-A:LEU:475:CD2:4254, V-B:PRO:540:CA:9851, V-A:TRP:381:CZ2:3365, V-A:PRO:482:CG:4322, V-A:TRP:381:CH2:3367, V-A:PRO:482:CB:4321, V-A:TRP:381:CZ3:3366, V-B:PRO:540:C:9849, V-B:ALA:541:CB:9860, V-B:TYR:539:C:9835, V-A:LEU:475:CD1:4253, H-A:TYR:484:OH:4343, H-B:GLU:543:OE2:9878, H-A:GLU:543:OE1:4904, V-B:TYR:484:CZ:9314, V-B:TYR:484:CE1:9312, V-B:TYR:539:CB:9839, V-A:TRP:381:CE3:3363, V-A:TRP:381:CD2:3360"]

$$$$
4ce_Grossjean_2025
     RDKit          3D

 30 33  0  0  0  0  0  0  0  0999 V2000
  130.1250  119.5100   60.9720 C   0  0  0  0  0  0  0  0  0  0  0  0
  129.9910  121.0090   60.7840 C   0  0  0  0  0  0  0  0  0  0  0  0
  129.9060  121.5820   59.5120 C   0  0  0  0  0  0  0  0  0  0  0  0
  129.7760  122.9680   59.4160 C   0  0  0  0  0  0  0  0  0  0  0  0
  129.7330  123.7390   60.5780 C   0  0  0  0  0  0  0  0  0  0  0  0
  129.8290  123.1020   61.8210 C   0  0  0  0  0  0  0  0  0  0  0  0
  129.7550  123.9300   62.9550 N   0  0  0  0  0  0  0  0  0  0  0  0
  130.4250  123.8220   64.1300 C   0  0  0  0  0  0  0  0  0  0  0  0
  131.2510  122.9390   64.3690 O   0  0  0  0  0  0  0  0  0  0  0  0
  130.1080  124.8420   65.1320 C   0  0  0  0  0  0  0  0  0  0  0  0
  130.3650  124.5140   66.8440 S   0  0  0  0  0  0  0  0  0  0  0  0
  129.8260  126.1190   67.2780 C   0  0  0  0  0  0  0  0  0  0  0  0
  129.7920  126.5190   68.5460 N   0  0  0  0  0  0  0  0  0  0  0  0
  129.3730  127.7900   68.7850 C   0  0  0  0  0  0  0  0  0  0  0  0
  129.3510  128.2130   70.2240 C   0  0  0  0  0  0  0  0  0  0  0  0
  128.1920  128.0520   71.0000 C   0  0  0  0  0  0  0  0  0  0  0  0
  128.1620  128.4480   72.3350 C   0  0  0  0  0  0  0  0  0  0  0  0
  129.2940  129.0100   72.9140 C   0  0  0  0  0  0  0  0  0  0  0  0
  130.4550  129.1820   72.1670 C   0  0  0  0  0  0  0  0  0  0  0  0
  130.4800  128.7860   70.8320 C   0  0  0  0  0  0  0  0  0  0  0  0
  128.9700  128.6430   67.7520 C   0  0  0  0  0  0  0  0  0  0  0  0
  128.9980  128.2280   66.4110 C   0  0  0  0  0  0  0  0  0  0  0  0
  128.5450  129.2140   65.3290 C   0  0  0  0  0  0  0  0  0  0  0  0
  129.3410  129.2170   64.2570 F   0  0  0  0  0  0  0  0  0  0  0  0
  127.3180  128.8960   64.9140 F   0  0  0  0  0  0  0  0  0  0  0  0
  128.5360  130.4520   65.8220 F   0  0  0  0  0  0  0  0  0  0  0  0
  129.4510  126.9030   66.1480 C   0  0  0  0  0  0  0  0  0  0  0  0
  129.6210  126.1450   64.9320 C   0  0  0  0  0  0  0  0  0  0  0  0
  129.3320  126.6560   63.6930 N   0  0  0  0  0  0  0  0  0  0  0  0
  129.9520  121.7460   61.9240 N   0  0  0  0  0  0  0  0  0  0  0  0
  1  2  1  0
  2  3  2  0
  3  4  1  0
  4  5  2  0
  5  6  1  0
  6  7  1  0
  7  8  1  0
  8  9  2  0
  8 10  1  0
 10 11  1  0
 11 12  1  0
 12 13  2  0
 13 14  1  0
 14 15  1  0
 15 16  2  0
 16 17  1  0
 17 18  2  0
 18 19  1  0
 19 20  2  0
 14 21  2  0
 21 22  1  0
 22 23  1  0
 23 24  1  0
 23 25  1  0
 23 26  1  0
 22 27  2  0
 27 28  1  0
 28 29  1  0
  6 30  2  0
 30  2  1  0
 28 10  2  0
 27 12  1  0
 20 15  1  0
M  END
>  <Binding energies>  (33) 
[-7.5]

>  <Ligand effiencies>  (33) 
[-0.22727272727272727]

>  <Interactions>  (33) 
["V-A:GLU:543:CG:4902, H-A:GLU:543:OE2:4905, V-A:GLU:543:CD:4903, V-A:HIS:456:CE1:4064, V-B:HIS:456:CD2:9035, V-A:LYS:547:CE:4945, V-B:GLU:543:CD:9876, V-B:HIS:456:CE1:9037, V-B:GLU:543:CG:9875, V-A:GLY:544:C:4907, V-B:GLU:543:CB:9874, V-A:GLU:543:C:4897, V-A:GLU:543:CB:4901, V-A:GLY:544:CA:4909, H-A:HIS:456:NE2:4065, V-A:TYR:484:CZ:4342, V-A:TYR:484:CE1:4340, V-B:TYR:539:CD2:9842, V-B:TYR:539:CE2:9844, V-A:LEU:475:CD2:4254, V-B:ALA:541:CB:9860, V-B:TYR:539:C:9835, H-A:TYR:484:OH:4343, H-B:GLU:543:OE2:9878, H-A:GLU:543:OE1:4904, V-B:TYR:484:CZ:9314, V-B:TYR:484:CE1:9312"]

$$$$
4cf_Grossjean_2025
     RDKit          3D

 29 32  0  0  0  0  0  0  0  0999 V2000
  129.3580  126.5490   63.6400 N   0  0  0  0  0  0  0  0  0  0  0  0
  129.6680  126.0600   64.8840 C   0  0  0  0  0  0  0  0  0  0  0  0
  130.1780  124.7700   65.0980 C   0  0  0  0  0  0  0  0  0  0  0  0
  130.4400  123.7150   64.1150 C   0  0  0  0  0  0  0  0  0  0  0  0
  131.2380  122.8110   64.3620 O   0  0  0  0  0  0  0  0  0  0  0  0
  129.7410  123.8140   62.9580 N   0  0  0  0  0  0  0  0  0  0  0  0
  129.7930  123.0070   61.8050 C   0  0  0  0  0  0  0  0  0  0  0  0
  130.0910  121.6310   61.7840 C   0  0  0  0  0  0  0  0  0  0  0  0
  130.1240  120.9500   60.5650 C   0  0  0  0  0  0  0  0  0  0  0  0
  129.8590  121.6620   59.3950 C   0  0  0  0  0  0  0  0  0  0  0  0
  129.5760  122.9890   59.3870 N   0  0  0  0  0  0  0  0  0  0  0  0
  129.5490  123.6370   60.5800 C   0  0  0  0  0  0  0  0  0  0  0  0
  130.4680  124.4770   66.8120 S   0  0  0  0  0  0  0  0  0  0  0  0
  129.8990  126.0760   67.2270 C   0  0  0  0  0  0  0  0  0  0  0  0
  129.8610  126.4940   68.4910 N   0  0  0  0  0  0  0  0  0  0  0  0
  129.3870  127.7480   68.7160 C   0  0  0  0  0  0  0  0  0  0  0  0
  129.3490  128.1890   70.1500 C   0  0  0  0  0  0  0  0  0  0  0  0
  130.4730  128.7790   70.7490 C   0  0  0  0  0  0  0  0  0  0  0  0
  130.4470  129.1920   72.0790 C   0  0  0  0  0  0  0  0  0  0  0  0
  129.2890  129.0210   72.8300 C   0  0  0  0  0  0  0  0  0  0  0  0
  128.1590  128.4410   72.2610 C   0  0  0  0  0  0  0  0  0  0  0  0
  128.1910  128.0310   70.9320 C   0  0  0  0  0  0  0  0  0  0  0  0
  128.9770  128.5820   67.6720 C   0  0  0  0  0  0  0  0  0  0  0  0
  129.0170  128.1530   66.3360 C   0  0  0  0  0  0  0  0  0  0  0  0
  128.5470  129.1170   65.2410 C   0  0  0  0  0  0  0  0  0  0  0  0
  129.3460  129.1260   64.1720 F   0  0  0  0  0  0  0  0  0  0  0  0
  127.3290  128.7690   64.8260 F   0  0  0  0  0  0  0  0  0  0  0  0
  128.5100  130.3610   65.7200 F   0  0  0  0  0  0  0  0  0  0  0  0
  129.4950  126.8330   66.0890 C   0  0  0  0  0  0  0  0  0  0  0  0
  1  2  1  0
  2  3  2  0
  3  4  1  0
  4  5  2  0
  4  6  1  0
  6  7  1  0
  7  8  2  0
  8  9  1  0
  9 10  2  0
 10 11  1  0
 11 12  2  0
  3 13  1  0
 13 14  1  0
 14 15  2  0
 15 16  1  0
 16 17  1  0
 17 18  2  0
 18 19  1  0
 19 20  2  0
 20 21  1  0
 21 22  2  0
 16 23  2  0
 23 24  1  0
 24 25  1  0
 25 26  1  0
 25 27  1  0
 25 28  1  0
 24 29  2  0
 29  2  1  0
 12  7  1  0
 29 14  1  0
 22 17  1  0
M  END
>  <Binding energies>  (34) 
[-6.92]

>  <Ligand effiencies>  (34) 
[-0.21625]

>  <Interactions>  (34) 
["V-A:GLU:543:CG:4902, H-A:GLU:543:OE2:4905, V-A:GLU:543:CD:4903, V-A:HIS:456:CE1:4064, V-B:HIS:456:CD2:9035, V-A:LYS:547:CE:4945, V-B:GLU:543:CD:9876, V-B:HIS:456:CE1:9037, V-B:GLU:543:CG:9875, V-A:GLY:544:C:4907, V-B:GLU:543:CB:9874, V-A:GLU:543:C:4897, V-A:GLU:543:CB:4901, V-A:GLY:544:CA:4909, H-A:HIS:456:NE2:4065, V-A:TYR:484:CZ:4342, V-A:TYR:484:CE1:4340, V-B:TYR:539:CD2:9842, V-B:TYR:539:CE2:9844, V-B:ALA:541:CB:9860, V-B:TYR:539:C:9835, H-A:TYR:484:OH:4343, H-B:GLU:543:OE2:9878, H-A:GLU:543:OE1:4904, V-B:TYR:484:CZ:9314"]

$$$$
4ci_Grossjean_2025
     RDKit          3D

 28 31  0  0  0  0  0  0  0  0999 V2000
  124.1890  130.2840   59.9880 N   0  0  0  0  0  0  0  0  0  0  0  0
  125.3500  131.0090   60.0640 C   0  0  0  0  0  0  0  0  0  0  0  0
  125.7650  131.6780   61.2270 C   0  0  0  0  0  0  0  0  0  0  0  0
  125.1010  131.7370   62.5320 C   0  0  0  0  0  0  0  0  0  0  0  0
  124.9590  132.8130   63.1180 O   0  0  0  0  0  0  0  0  0  0  0  0
  124.6840  130.5450   63.0290 N   0  0  0  0  0  0  0  0  0  0  0  0
  124.0360  130.3120   64.2350 C   0  0  0  0  0  0  0  0  0  0  0  0
  124.6950  130.2900   65.4630 C   0  0  0  0  0  0  0  0  0  0  0  0
  123.7140  130.0300   66.3920 C   0  0  0  0  0  0  0  0  0  0  0  0
  122.5250  129.9030   65.7560 O   0  0  0  0  0  0  0  0  0  0  0  0
  122.7420  130.0830   64.3890 N   0  0  0  0  0  0  0  0  0  0  0  0
  127.3030  132.4980   60.9750 S   0  0  0  0  0  0  0  0  0  0  0  0
  127.3760  131.9490   59.3170 C   0  0  0  0  0  0  0  0  0  0  0  0
  128.3950  132.2690   58.5220 N   0  0  0  0  0  0  0  0  0  0  0  0
  128.3670  131.7930   57.2510 C   0  0  0  0  0  0  0  0  0  0  0  0
  129.5270  132.1740   56.3770 C   0  0  0  0  0  0  0  0  0  0  0  0
  129.4000  132.1980   54.9790 C   0  0  0  0  0  0  0  0  0  0  0  0
  130.4720  132.5520   54.1640 C   0  0  0  0  0  0  0  0  0  0  0  0
  131.6940  132.8870   54.7390 C   0  0  0  0  0  0  0  0  0  0  0  0
  131.8500  132.8670   56.1200 C   0  0  0  0  0  0  0  0  0  0  0  0
  130.7750  132.5120   56.9310 C   0  0  0  0  0  0  0  0  0  0  0  0
  127.3050  131.0140   56.7790 C   0  0  0  0  0  0  0  0  0  0  0  0
  126.2250  130.6700   57.6080 C   0  0  0  0  0  0  0  0  0  0  0  0
  125.0960  129.8120   57.0250 C   0  0  0  0  0  0  0  0  0  0  0  0
  123.8880  130.3520   57.1930 F   0  0  0  0  0  0  0  0  0  0  0  0
  125.2840  129.6540   55.7150 F   0  0  0  0  0  0  0  0  0  0  0  0
  125.0860  128.6170   57.6150 F   0  0  0  0  0  0  0  0  0  0  0  0
  126.2530  131.1530   58.9470 C   0  0  0  0  0  0  0  0  0  0  0  0
  1  2  1  0
  2  3  2  0
  3  4  1  0
  4  5  2  0
  4  6  1  0
  6  7  1  0
  7  8  1  0
  8  9  2  0
  9 10  1  0
 10 11  1  0
  3 12  1  0
 12 13  1  0
 13 14  2  0
 14 15  1  0
 15 16  1  0
 16 17  2  0
 17 18  1  0
 18 19  2  0
 19 20  1  0
 20 21  2  0
 15 22  2  0
 22 23  1  0
 23 24  1  0
 24 25  1  0
 24 26  1  0
 24 27  1  0
 23 28  2  0
 28  2  1  0
 11  7  2  0
 28 13  1  0
 21 16  1  0
M  END
>  <Binding energies>  (35) 
[-7.25]

>  <Ligand effiencies>  (35) 
[-0.23387096774193547]

>  <Interactions>  (35) 
["V-A:TYR:539:CE2:4871, V-A:LEU:363:CD1:3184, V-A:PRO:540:CB:4880, V-A:PRO:540:CA:4878, V-A:PRO:540:CD:4882, V-A:PRO:540:N:4879, V-A:ILE:538:CD1:4860, V-B:ARG:545:CZ:9894, V-A:TYR:539:CD1:4868, V-A:ILE:538:CA:4855, H-B:TYR:484:OH:9315, V-B:HIS:456:CE1:9037, V-B:ARG:545:CD:9891, V-B:ARG:545:CG:9890, V-A:ILE:538:CB:4857, V-B:TYR:531:CE1:9760, V-A:TYR:539:CZ:4872, V-A:ILE:538:CG2:4858, V-A:TYR:539:CE1:4870, V-B:TYR:531:CZ:9762, V-B:ASP:366:CB:8179, V-B:ASP:366:CG:8180, H-B:ARG:545:NH1:9895, V-B:ASP:366:C:8175, H-B:GLY:454:N:9017, V-B:ASP:366:CA:8177, H-B:ARG:545:NE:9892, V-A:PRO:540:CG:4881, H-B:ASP:366:OD1:8181, H-B:ASP:366:O:8176"]

$$$$
8a_Ghoteimi_2023
     RDKit          3D

 40 44  0  0  0  0  0  0  0  0999 V2000
  130.0800  124.3790   72.1840 C   0  0  0  0  0  0  0  0  0  0  0  0
  130.5120  125.6300   72.9540 C   0  0  0  0  0  0  0  0  0  0  0  0
  129.3860  126.4760   73.1500 O   0  0  0  0  0  0  0  0  0  0  0  0
  129.3800  127.7530   72.6850 C   0  0  0  0  0  0  0  0  0  0  0  0
  129.3850  128.7450   73.4210 O   0  0  0  0  0  0  0  0  0  0  0  0
  129.3600  127.8390   71.1860 C   0  0  0  0  0  0  0  0  0  0  0  0
  130.3310  128.6070   70.5330 C   0  0  0  0  0  0  0  0  0  0  0  0
  130.3390  128.7070   69.1440 C   0  0  0  0  0  0  0  0  0  0  0  0
  129.3770  128.0440   68.3800 C   0  0  0  0  0  0  0  0  0  0  0  0
  129.4810  128.2220   66.9860 N   0  0  0  0  0  0  0  0  0  0  0  0
  128.5370  128.1200   66.0170 C   0  0  0  0  0  0  0  0  0  0  0  0
  127.3580  127.8340   66.2240 O   0  0  0  0  0  0  0  0  0  0  0  0
  129.0100  128.3870   64.6560 C   0  0  0  0  0  0  0  0  0  0  0  0
  128.7770  129.9750   63.9260 S   0  0  0  0  0  0  0  0  0  0  0  0
  129.5460  129.4600   62.4430 C   0  0  0  0  0  0  0  0  0  0  0  0
  129.6690  130.2770   61.3970 N   0  0  0  0  0  0  0  0  0  0  0  0
  130.2790  129.7740   60.2910 C   0  0  0  0  0  0  0  0  0  0  0  0
  130.3880  130.7010   59.1230 C   0  0  0  0  0  0  0  0  0  0  0  0
  129.4390  131.7110   58.9100 C   0  0  0  0  0  0  0  0  0  0  0  0
  129.5390  132.5640   57.8140 C   0  0  0  0  0  0  0  0  0  0  0  0
  130.5890  132.4310   56.9070 C   0  0  0  0  0  0  0  0  0  0  0  0
  130.6060  133.3200   55.8490 O   0  0  0  0  0  0  0  0  0  0  0  0
  130.1220  132.8950   54.5790 C   0  0  0  0  0  0  0  0  0  0  0  0
  131.5460  131.4280   57.1140 C   0  0  0  0  0  0  0  0  0  0  0  0
  131.4420  130.5750   58.2100 C   0  0  0  0  0  0  0  0  0  0  0  0
  130.7670  128.4670   60.2370 C   0  0  0  0  0  0  0  0  0  0  0  0
  130.6550  127.6120   61.3380 C   0  0  0  0  0  0  0  0  0  0  0  0
  131.2200  126.2420   61.2380 C   0  0  0  0  0  0  0  0  0  0  0  0
  130.8390  125.3990   60.1920 C   0  0  0  0  0  0  0  0  0  0  0  0
  131.3820  124.1220   60.0830 C   0  0  0  0  0  0  0  0  0  0  0  0
  132.3180  123.6670   61.0120 C   0  0  0  0  0  0  0  0  0  0  0  0
  132.8020  122.3870   60.8240 O   0  0  0  0  0  0  0  0  0  0  0  0
  133.0190  121.9140   59.5000 C   0  0  0  0  0  0  0  0  0  0  0  0
  132.7080  124.5150   62.0600 C   0  0  0  0  0  0  0  0  0  0  0  0
  132.1650  125.7930   62.1660 C   0  0  0  0  0  0  0  0  0  0  0  0
  130.0000  128.1090   62.5000 C   0  0  0  0  0  0  0  0  0  0  0  0
  129.6640  127.5150   63.7700 C   0  0  0  0  0  0  0  0  0  0  0  0
  129.9470  126.2060   64.0700 N   0  0  0  0  0  0  0  0  0  0  0  0
  128.4030  127.2680   69.0260 C   0  0  0  0  0  0  0  0  0  0  0  0
  128.3970  127.1690   70.4160 C   0  0  0  0  0  0  0  0  0  0  0  0
  1  2  1  0
  2  3  1  0
  3  4  1  0
  4  5  2  0
  4  6  1  0
  6  7  2  0
  7  8  1  0
  8  9  2  0
  9 10  1  0
 10 11  1  0
 11 12  2  0
 11 13  1  0
 13 14  1  0
 14 15  1  0
 15 16  2  0
 16 17  1  0
 17 18  1  0
 18 19  2  0
 19 20  1  0
 20 21  2  0
 21 22  1  0
 22 23  1  0
 21 24  1  0
 24 25  2  0
 17 26  2  0
 26 27  1  0
 27 28  1  0
 28 29  2  0
 29 30  1  0
 30 31  2  0
 31 32  1  0
 32 33  1  0
 31 34  1  0
 34 35  2  0
 27 36  2  0
 36 37  1  0
 37 38  1  0
  9 39  1  0
 39 40  2  0
 40  6  1  0
 37 13  2  0
 36 15  1  0
 25 18  1  0
 35 28  1  0
M  END
>  <Binding energies>  (36) 
[-8.96]

>  <Ligand effiencies>  (36) 
[-0.20837209302325582]

>  <Interactions>  (36) 
["V-A:GLU:543:CG:4902, V-A:GLU:543:CD:4903, V-A:PRO:540:CB:4880, V-A:PRO:540:CA:4878, V-A:PRO:540:CD:4882, V-A:PRO:540:N:4879, V-A:ILE:538:CD1:4860, H-A:TYR:539:N:4865, V-A:TYR:539:CD1:4868, V-A:TYR:539:C:4862, V-A:ILE:538:CA:4855, V-A:HIS:456:CE1:4064, H-B:LYS:547:NZ:9919, H-A:LYS:547:NZ:4946, V-B:GLU:543:CD:9876, V-B:HIS:456:CE1:9037, V-A:GLU:543:C:4897, V-A:GLU:543:CB:4901, V-A:TYR:539:CE1:4870, V-B:TYR:539:CE2:9844, V-A:ILE:369:CD1:3234, V-A:ASP:366:CG:3208, H-B:GLU:543:OE2:9878, H-A:GLU:543:OE1:4904, V-A:ILE:369:CG2:3232"]

$$$$
8c_Ghoteimi_2023
     RDKit          3D

 34 38  0  0  0  0  0  0  0  0999 V2000
  128.1140  130.2970   74.6070 C   0  0  0  0  0  0  0  0  0  0  0  0
  128.9840  129.2470   74.1980 O   0  0  0  0  0  0  0  0  0  0  0  0
  129.0840  128.9410   72.8540 C   0  0  0  0  0  0  0  0  0  0  0  0
  127.9480  128.4070   72.2500 C   0  0  0  0  0  0  0  0  0  0  0  0
  127.9580  128.0650   70.9010 C   0  0  0  0  0  0  0  0  0  0  0  0
  129.1070  128.2500   70.1190 C   0  0  0  0  0  0  0  0  0  0  0  0
  129.1260  127.8820   68.6690 C   0  0  0  0  0  0  0  0  0  0  0  0
  128.4620  128.6460   67.7060 C   0  0  0  0  0  0  0  0  0  0  0  0
  128.4970  128.2810   66.3560 C   0  0  0  0  0  0  0  0  0  0  0  0
  127.7760  129.1080   65.3620 C   0  0  0  0  0  0  0  0  0  0  0  0
  126.4550  128.8070   65.0220 C   0  0  0  0  0  0  0  0  0  0  0  0
  125.7750  129.5910   64.0950 C   0  0  0  0  0  0  0  0  0  0  0  0
  126.4030  130.6820   63.4920 C   0  0  0  0  0  0  0  0  0  0  0  0
  125.6500  131.4040   62.5850 O   0  0  0  0  0  0  0  0  0  0  0  0
  124.3470  130.9470   62.2450 C   0  0  0  0  0  0  0  0  0  0  0  0
  127.7320  130.9800   63.8310 C   0  0  0  0  0  0  0  0  0  0  0  0
  128.4110  130.1960   64.7600 C   0  0  0  0  0  0  0  0  0  0  0  0
  129.2300  127.1190   65.9970 C   0  0  0  0  0  0  0  0  0  0  0  0
  129.4760  126.4700   64.7360 C   0  0  0  0  0  0  0  0  0  0  0  0
  128.9700  126.9480   63.5530 N   0  0  0  0  0  0  0  0  0  0  0  0
  130.2720  125.3180   64.8340 C   0  0  0  0  0  0  0  0  0  0  0  0
  130.7180  124.4240   63.7630 C   0  0  0  0  0  0  0  0  0  0  0  0
  131.8980  124.4090   63.4050 O   0  0  0  0  0  0  0  0  0  0  0  0
  129.7530  123.6430   63.2180 N   0  0  0  0  0  0  0  0  0  0  0  0
  129.9080  122.7140   62.1990 C   0  0  0  0  0  0  0  0  0  0  0  0
  129.4080  122.7580   60.9830 N   0  0  0  0  0  0  0  0  0  0  0  0
  129.7620  121.7050   60.2740 C   0  0  0  0  0  0  0  0  0  0  0  0
  130.5700  120.7730   60.9180 C   0  0  0  0  0  0  0  0  0  0  0  0
  130.8750  121.3160   62.5420 S   0  0  0  0  0  0  0  0  0  0  0  0
  130.7430  125.0100   66.5060 S   0  0  0  0  0  0  0  0  0  0  0  0
  129.8720  126.4200   67.0610 C   0  0  0  0  0  0  0  0  0  0  0  0
  129.8370  126.7660   68.3480 N   0  0  0  0  0  0  0  0  0  0  0  0
  130.2460  128.7900   70.7330 C   0  0  0  0  0  0  0  0  0  0  0  0
  130.2390  129.1320   72.0820 C   0  0  0  0  0  0  0  0  0  0  0  0
  1  2  1  0
  2  3  1  0
  3  4  2  0
  4  5  1  0
  5  6  2  0
  6  7  1  0
  7  8  2  0
  8  9  1  0
  9 10  1  0
 10 11  2  0
 11 12  1  0
 12 13  2  0
 13 14  1  0
 14 15  1  0
 13 16  1  0
 16 17  2  0
  9 18  2  0
 18 19  1  0
 19 20  1  0
 19 21  2  0
 21 22  1  0
 22 23  2  0
 22 24  1  0
 24 25  1  0
 25 26  2  0
 26 27  1  0
 27 28  2  0
 28 29  1  0
 21 30  1  0
 30 31  1  0
 31 32  2  0
  6 33  1  0
 33 34  2  0
 34  3  1  0
 32  7  1  0
 17 10  1  0
 31 18  1  0
 29 25  1  0
M  END
>  <Binding energies>  (37) 
[-8.0]

>  <Ligand effiencies>  (37) 
[-0.21621621621621623]

>  <Interactions>  (37) 
["V-A:GLU:543:CG:4902, H-A:GLU:543:OE2:4905, V-A:GLU:543:CD:4903, V-A:HIS:456:CE1:4064, H-B:LYS:547:NZ:9919, V-B:HIS:456:CD2:9035, H-A:LYS:547:NZ:4946, V-A:LYS:547:CE:4945, V-B:GLU:543:CD:9876, V-B:HIS:456:CE1:9037, V-B:GLU:543:CG:9875, V-A:GLY:544:C:4907, V-A:GLU:543:C:4897, H-A:HIS:456:NE2:4065, V-A:TYR:484:CZ:4342, V-A:LEU:475:CD2:4254, V-B:ALA:541:CB:9860, H-B:GLU:543:OE1:9877, H-B:GLU:543:OE2:9878"]

$$$$
8d_Ghoteimi_2023
     RDKit          3D

 30 33  0  0  0  0  0  0  0  0999 V2000
  130.9610  125.2310   66.1510 C   0  0  0  0  0  0  0  0  0  0  0  0
  132.3740  125.0930   66.0980 O   0  0  0  0  0  0  0  0  0  0  0  0
  133.0030  124.8100   64.9280 C   0  0  0  0  0  0  0  0  0  0  0  0
  134.2000  124.5250   64.8390 O   0  0  0  0  0  0  0  0  0  0  0  0
  132.1010  124.8780   63.7580 C   0  0  0  0  0  0  0  0  0  0  0  0
  131.5050  123.3910   63.0180 S   0  0  0  0  0  0  0  0  0  0  0  0
  130.6030  124.2990   61.8270 C   0  0  0  0  0  0  0  0  0  0  0  0
  129.8710  123.6970   60.8890 N   0  0  0  0  0  0  0  0  0  0  0  0
  129.2080  124.4980   60.0130 C   0  0  0  0  0  0  0  0  0  0  0  0
  128.3980  123.7970   58.9680 C   0  0  0  0  0  0  0  0  0  0  0  0
  126.9960  123.8200   59.0020 C   0  0  0  0  0  0  0  0  0  0  0  0
  126.2470  123.1660   58.0280 C   0  0  0  0  0  0  0  0  0  0  0  0
  126.8780  122.4720   56.9960 C   0  0  0  0  0  0  0  0  0  0  0  0
  126.0560  121.8530   56.0750 O   0  0  0  0  0  0  0  0  0  0  0  0
  124.6520  122.0820   56.1330 C   0  0  0  0  0  0  0  0  0  0  0  0
  128.2790  122.4440   56.9520 C   0  0  0  0  0  0  0  0  0  0  0  0
  129.0250  123.1010   57.9280 C   0  0  0  0  0  0  0  0  0  0  0  0
  129.2830  125.8930   60.0720 C   0  0  0  0  0  0  0  0  0  0  0  0
  130.0490  126.5240   61.0570 C   0  0  0  0  0  0  0  0  0  0  0  0
  130.1020  128.0040   61.0990 C   0  0  0  0  0  0  0  0  0  0  0  0
  129.3150  128.7100   62.0110 C   0  0  0  0  0  0  0  0  0  0  0  0
  129.3580  130.1010   62.0440 C   0  0  0  0  0  0  0  0  0  0  0  0
  130.1890  130.8050   61.1720 C   0  0  0  0  0  0  0  0  0  0  0  0
  130.1660  132.1820   61.2760 O   0  0  0  0  0  0  0  0  0  0  0  0
  128.9810  132.8860   60.9230 C   0  0  0  0  0  0  0  0  0  0  0  0
  130.9830  130.0930   60.2580 C   0  0  0  0  0  0  0  0  0  0  0  0
  130.9370  128.7020   60.2260 C   0  0  0  0  0  0  0  0  0  0  0  0
  130.7480  125.7070   61.9840 C   0  0  0  0  0  0  0  0  0  0  0  0
  131.6090  126.0090   63.0950 C   0  0  0  0  0  0  0  0  0  0  0  0
  131.9200  127.2930   63.4620 N   0  0  0  0  0  0  0  0  0  0  0  0
  1  2  1  0
  2  3  1  0
  3  4  2  0
  3  5  1  0
  5  6  1  0
  6  7  1  0
  7  8  2  0
  8  9  1  0
  9 10  1  0
 10 11  2  0
 11 12  1  0
 12 13  2  0
 13 14  1  0
 14 15  1  0
 13 16  1  0
 16 17  2  0
  9 18  2  0
 18 19  1  0
 19 20  1  0
 20 21  2  0
 21 22  1  0
 22 23  2  0
 23 24  1  0
 24 25  1  0
 23 26  1  0
 26 27  2  0
 19 28  2  0
 28 29  1  0
 29 30  1  0
 29  5  2  0
 28  7  1  0
 17 10  1  0
 27 20  1  0
M  END
>  <Binding energies>  (38) 
[-7.0]

>  <Ligand effiencies>  (38) 
[-0.21875]

>  <Interactions>  (38) 
["H-A:ALA:541:N:4886, H-A:GLU:543:OE2:4905, V-A:GLU:543:CD:4903, V-A:PRO:540:CA:4878, H-A:HIS:456:NE2:4065, V-B:TYR:539:CD2:9842, V-B:TYR:539:CE2:9844, V-B:TYR:539:CZ:9845, V-B:PRO:540:CB:9853, V-B:PRO:540:CA:9851, V-B:TYR:539:CE1:9843, V-B:MET:535:CE:9803, V-B:TYR:539:CD1:9841, V-B:TYR:539:C:9835, V-B:PRO:540:N:9852, V-B:TYR:539:CG:9840, H-A:TYR:484:OH:4343, V-B:PRO:540:CD:9855, V-B:PRO:540:CG:9854, V-B:LEU:363:CD1:8156, H-B:TYR:539:N:9838, V-A:ARG:545:CZ:4921, H-A:GLU:543:OE1:4904, H-A:ASP:366:OD2:3210, H-A:GLY:454:N:4045, V-B:ILE:538:CG2:9831"]

$$$$
9a_Ghoteimi_2023
     RDKit          3D

 48 54  0  0  0  0  0  0  0  0999 V2000
  128.9190  132.9840   58.0500 C   0  0  0  0  0  0  0  0  0  0  0  0
  128.8440  132.9330   59.5800 C   0  0  0  0  0  0  0  0  0  0  0  0
  127.7980  133.7850   60.0310 O   0  0  0  0  0  0  0  0  0  0  0  0
  127.6940  134.1340   61.3390 C   0  0  0  0  0  0  0  0  0  0  0  0
  127.4980  135.2930   61.7200 O   0  0  0  0  0  0  0  0  0  0  0  0
  127.8470  132.9730   62.2780 C   0  0  0  0  0  0  0  0  0  0  0  0
  129.1280  132.6030   62.7060 C   0  0  0  0  0  0  0  0  0  0  0  0
  129.3030  131.5300   63.5750 C   0  0  0  0  0  0  0  0  0  0  0  0
  128.2030  130.8060   64.0370 C   0  0  0  0  0  0  0  0  0  0  0  0
  128.4990  129.7430   64.9110 N   0  0  0  0  0  0  0  0  0  0  0  0
  128.5370  129.7040   66.2660 C   0  0  0  0  0  0  0  0  0  0  0  0
  128.2980  130.6680   66.9930 O   0  0  0  0  0  0  0  0  0  0  0  0
  128.8830  128.4020   66.8450 C   0  0  0  0  0  0  0  0  0  0  0  0
  128.7280  128.1300   68.5820 S   0  0  0  0  0  0  0  0  0  0  0  0
  129.2790  126.4790   68.4180 C   0  0  0  0  0  0  0  0  0  0  0  0
  129.3690  125.6660   69.4700 N   0  0  0  0  0  0  0  0  0  0  0  0
  129.7970  124.3970   69.2330 C   0  0  0  0  0  0  0  0  0  0  0  0
  129.8800  123.5000   70.4250 C   0  0  0  0  0  0  0  0  0  0  0  0
  130.5010  123.9350   71.6010 C   0  0  0  0  0  0  0  0  0  0  0  0
  130.5820  123.1050   72.7160 C   0  0  0  0  0  0  0  0  0  0  0  0
  130.0320  121.8130   72.7010 C   0  0  0  0  0  0  0  0  0  0  0  0
  130.1230  120.9620   73.8070 N   0  0  0  0  0  0  0  0  0  0  0  0
  130.8690  119.6890   73.7430 C   0  0  0  0  0  0  0  0  0  0  0  0
  130.5630  118.7280   74.9100 C   0  0  0  0  0  0  0  0  0  0  0  0
  130.7790  119.3820   76.1490 O   0  0  0  0  0  0  0  0  0  0  0  0
  129.9420  120.5190   76.2900 C   0  0  0  0  0  0  0  0  0  0  0  0
  130.2370  121.5330   75.1660 C   0  0  0  0  0  0  0  0  0  0  0  0
  129.4240  121.3770   71.5150 C   0  0  0  0  0  0  0  0  0  0  0  0
  129.3470  122.2060   70.4000 C   0  0  0  0  0  0  0  0  0  0  0  0
  130.1580  123.9580   67.9570 C   0  0  0  0  0  0  0  0  0  0  0  0
  130.0840  124.8150   66.8540 C   0  0  0  0  0  0  0  0  0  0  0  0
  130.5140  124.3080   65.5260 C   0  0  0  0  0  0  0  0  0  0  0  0
  131.5580  124.9260   64.8320 C   0  0  0  0  0  0  0  0  0  0  0  0
  131.9690  124.4410   63.5950 C   0  0  0  0  0  0  0  0  0  0  0  0
  131.3590  123.3120   63.0240 C   0  0  0  0  0  0  0  0  0  0  0  0
  131.7470  122.8130   61.7780 N   0  0  0  0  0  0  0  0  0  0  0  0
  131.4640  121.4020   61.4480 C   0  0  0  0  0  0  0  0  0  0  0  0
  131.5900  121.0900   59.9420 C   0  0  0  0  0  0  0  0  0  0  0  0
  132.8730  121.4730   59.4720 O   0  0  0  0  0  0  0  0  0  0  0  0
  133.1050  122.8610   59.6510 C   0  0  0  0  0  0  0  0  0  0  0  0
  133.0190  123.2210   61.1500 C   0  0  0  0  0  0  0  0  0  0  0  0
  130.3140  122.6980   63.7310 C   0  0  0  0  0  0  0  0  0  0  0  0
  129.9000  123.1860   64.9660 C   0  0  0  0  0  0  0  0  0  0  0  0
  129.6030  126.1380   67.0730 C   0  0  0  0  0  0  0  0  0  0  0  0
  129.3450  127.2500   66.1910 C   0  0  0  0  0  0  0  0  0  0  0  0
  129.5230  127.1720   64.8340 N   0  0  0  0  0  0  0  0  0  0  0  0
  126.9150  131.1730   63.6170 C   0  0  0  0  0  0  0  0  0  0  0  0
  126.7420  132.2460   62.7460 C   0  0  0  0  0  0  0  0  0  0  0  0
  1  2  1  0
  2  3  1  0
  3  4  1  0
  4  5  2  0
  4  6  1  0
  6  7  2  0
  7  8  1  0
  8  9  2  0
  9 10  1  0
 10 11  1  0
 11 12  2  0
 11 13  1  0
 13 14  1  0
 14 15  1  0
 15 16  2  0
 16 17  1  0
 17 18  1  0
 18 19  2  0
 19 20  1  0
 20 21  2  0
 21 22  1  0
 22 23  1  0
 23 24  1  0
 24 25  1  0
 25 26  1  0
 26 27  1  0
 21 28  1  0
 28 29  2  0
 17 30  2  0
 30 31  1  0
 31 32  1  0
 32 33  2  0
 33 34  1  0
 34 35  2  0
 35 36  1  0
 36 37  1  0
 37 38  1  0
 38 39  1  0
 39 40  1  0
 40 41  1  0
 35 42  1  0
 42 43  2  0
 31 44  2  0
 44 45  1  0
 45 46  1  0
  9 47  1  0
 47 48  2  0
 48  6  1  0
 45 13  2  0
 44 15  1  0
 29 18  1  0
 43 32  1  0
 27 22  1  0
 41 36  1  0
M  END
>  <Binding energies>  (39) 
[-9.64]

>  <Ligand effiencies>  (39) 
[-0.18901960784313726]

>  <Interactions>  (39) 
["V-A:GLU:543:CG:4902, V-A:TYR:539:CE2:4871, H-A:GLU:543:OE2:4905, V-A:TYR:539:CD2:4869, V-A:ALA:541:CB:4887, V-A:GLU:543:CD:4903, V-A:PRO:540:CA:4878, V-A:PRO:540:N:4879, V-A:TYR:539:CG:4867, V-A:TYR:539:CD1:4868, V-A:TYR:539:C:4862, H-B:TYR:484:OH:9315, V-B:GLU:543:C:9870, V-A:TYR:484:CD1:4338, V-A:HIS:456:CG:4061, V-A:HIS:456:CE1:4064, V-A:TYR:484:CB:4336, V-A:TYR:484:CG:4337, V-A:ASP:473:CG:4235, V-A:ASP:473:CB:4234, V-B:GLU:543:CA:9872, V-B:GLU:543:CD:9876, V-B:HIS:456:CE1:9037, V-B:GLU:543:CG:9875, V-B:GLU:543:CB:9874, V-A:GLU:543:CB:4901, H-A:HIS:456:NE2:4065, V-A:TYR:484:CZ:4342, V-A:TYR:484:CE1:4340, V-A:TYR:539:CZ:4872, V-A:TYR:539:CE1:4870, V-B:TYR:539:CD2:9842, V-B:TYR:539:CE2:9844, V-A:LEU:475:CD2:4254, V-B:ALA:541:CB:9860, V-A:ILE:369:CD1:3234, H-B:GLU:543:OE2:9878, H-A:GLU:543:OE1:4904, V-A:HIS:456:CD2:4063, H-A:LYS:471:NZ:4216"]

$$$$
9b_Ghoteimi_2023
     RDKit          3D

 42 48  0  0  0  0  0  0  0  0999 V2000
  128.6260  129.2790   58.7840 N   0  0  0  0  0  0  0  0  0  0  0  0
  128.8620  129.9460   59.9590 C   0  0  0  0  0  0  0  0  0  0  0  0
  129.3060  131.2760   60.0180 C   0  0  0  0  0  0  0  0  0  0  0  0
  129.5750  132.1990   58.9130 C   0  0  0  0  0  0  0  0  0  0  0  0
  129.1010  133.3370   58.9140 O   0  0  0  0  0  0  0  0  0  0  0  0
  130.3590  131.7080   57.9210 N   0  0  0  0  0  0  0  0  0  0  0  0
  130.7610  132.3550   56.7590 C   0  0  0  0  0  0  0  0  0  0  0  0
  131.9520  132.0610   56.0980 C   0  0  0  0  0  0  0  0  0  0  0  0
  131.9760  132.9050   55.0110 C   0  0  0  0  0  0  0  0  0  0  0  0
  130.8560  133.6670   55.0190 O   0  0  0  0  0  0  0  0  0  0  0  0
  130.0950  133.3100   56.1320 N   0  0  0  0  0  0  0  0  0  0  0  0
  129.5340  131.7990   61.6870 S   0  0  0  0  0  0  0  0  0  0  0  0
  129.0520  130.2320   62.2910 C   0  0  0  0  0  0  0  0  0  0  0  0
  129.0410  129.9600   63.5950 N   0  0  0  0  0  0  0  0  0  0  0  0
  128.6680  128.7050   63.9600 C   0  0  0  0  0  0  0  0  0  0  0  0
  128.6840  128.4200   65.4270 C   0  0  0  0  0  0  0  0  0  0  0  0
  128.5840  129.4530   66.3670 C   0  0  0  0  0  0  0  0  0  0  0  0
  128.6150  129.1830   67.7310 C   0  0  0  0  0  0  0  0  0  0  0  0
  128.7610  127.8710   68.2070 C   0  0  0  0  0  0  0  0  0  0  0  0
  128.7910  127.5830   69.5770 N   0  0  0  0  0  0  0  0  0  0  0  0
  129.0520  128.6370   70.5780 C   0  0  0  0  0  0  0  0  0  0  0  0
  128.7070  128.2220   72.0230 C   0  0  0  0  0  0  0  0  0  0  0  0
  129.3860  127.0230   72.3590 O   0  0  0  0  0  0  0  0  0  0  0  0
  129.0120  125.9560   71.5030 C   0  0  0  0  0  0  0  0  0  0  0  0
  129.3610  126.3010   70.0390 C   0  0  0  0  0  0  0  0  0  0  0  0
  128.8410  126.8390   67.2620 C   0  0  0  0  0  0  0  0  0  0  0  0
  128.8060  127.1080   65.8970 C   0  0  0  0  0  0  0  0  0  0  0  0
  128.2820  127.7400   63.0270 C   0  0  0  0  0  0  0  0  0  0  0  0
  128.2720  128.0280   61.6570 C   0  0  0  0  0  0  0  0  0  0  0  0
  127.8250  126.9770   60.7080 C   0  0  0  0  0  0  0  0  0  0  0  0
  126.5760  127.0680   60.0930 C   0  0  0  0  0  0  0  0  0  0  0  0
  126.1620  126.0950   59.1890 C   0  0  0  0  0  0  0  0  0  0  0  0
  126.9860  125.0030   58.8750 C   0  0  0  0  0  0  0  0  0  0  0  0
  126.5970  124.0230   57.9590 N   0  0  0  0  0  0  0  0  0  0  0  0
  127.4850  122.8710   57.7120 C   0  0  0  0  0  0  0  0  0  0  0  0
  127.1380  122.1000   56.4210 C   0  0  0  0  0  0  0  0  0  0  0  0
  125.7790  121.6880   56.4520 O   0  0  0  0  0  0  0  0  0  0  0  0
  124.8970  122.7960   56.5540 C   0  0  0  0  0  0  0  0  0  0  0  0
  125.1900  123.5880   57.8460 C   0  0  0  0  0  0  0  0  0  0  0  0
  128.2470  124.9320   59.4860 C   0  0  0  0  0  0  0  0  0  0  0  0
  128.6610  125.9060   60.3900 C   0  0  0  0  0  0  0  0  0  0  0  0
  128.6930  129.3250   61.2500 C   0  0  0  0  0  0  0  0  0  0  0  0
  1  2  1  0
  2  3  2  0
  3  4  1  0
  4  5  2  0
  4  6  1  0
  6  7  1  0
  7  8  1  0
  8  9  2  0
  9 10  1  0
 10 11  1  0
  3 12  1  0
 12 13  1  0
 13 14  2  0
 14 15  1  0
 15 16  1  0
 16 17  2  0
 17 18  1  0
 18 19  2  0
 19 20  1  0
 20 21  1  0
 21 22  1  0
 22 23  1  0
 23 24  1  0
 24 25  1  0
 19 26  1  0
 26 27  2  0
 15 28  2  0
 28 29  1  0
 29 30  1  0
 30 31  2  0
 31 32  1  0
 32 33  2  0
 33 34  1  0
 34 35  1  0
 35 36  1  0
 36 37  1  0
 37 38  1  0
 38 39  1  0
 33 40  1  0
 40 41  2  0
 29 42  2  0
 42  2  1  0
 11  7  2  0
 42 13  1  0
 27 16  1  0
 41 30  1  0
 25 20  1  0
 39 34  1  0
M  END
>  <Binding energies>  (40) 
[-9.63]

>  <Ligand effiencies>  (40) 
[-0.21400000000000002]

>  <Interactions>  (40) 
["V-A:GLU:543:CG:4902, V-A:LEU:363:CD1:3184, V-A:GLU:543:CD:4903, V-A:PRO:540:CB:4880, V-A:PRO:540:CA:4878, V-A:PRO:540:CD:4882, V-A:PRO:540:N:4879, V-A:ILE:538:CD1:4860, H-A:TYR:539:N:4865, V-A:ILE:538:CA:4855, V-A:HIS:456:CE1:4064, H-B:LYS:547:NZ:9919, V-B:HIS:456:CD2:9035, V-B:GLU:543:CD:9876, V-B:HIS:456:CE1:9037, V-B:GLU:543:CG:9875, V-B:GLU:543:CB:9874, V-A:GLU:543:CB:4901, V-A:ILE:538:CB:4857, V-A:ILE:538:CG2:4858, V-B:PRO:540:CB:9853, V-B:PRO:540:CA:9851, V-B:MET:535:CE:9803, V-B:TYR:539:CD1:9841, V-B:TYR:539:C:9835, V-B:PRO:540:N:9852, V-B:TYR:539:CG:9840, V-B:ASP:366:CG:8180, V-B:PRO:540:CD:9855, V-B:TYR:539:CA:9837, V-B:LEU:363:CD1:8156, H-B:TYR:539:N:9838"]

$$$$
9c_Ghoteimi_2023
     RDKit          3D

 42 48  0  0  0  0  0  0  0  0999 V2000
  129.7930  127.2720   65.0100 N   0  0  0  0  0  0  0  0  0  0  0  0
  129.4660  127.2630   66.3420 C   0  0  0  0  0  0  0  0  0  0  0  0
  128.9300  128.3720   67.0140 C   0  0  0  0  0  0  0  0  0  0  0  0
  128.6010  129.6950   66.4750 C   0  0  0  0  0  0  0  0  0  0  0  0
  128.4380  130.6600   67.2250 O   0  0  0  0  0  0  0  0  0  0  0  0
  128.4890  129.7620   65.1250 N   0  0  0  0  0  0  0  0  0  0  0  0
  128.1730  130.8820   64.3690 C   0  0  0  0  0  0  0  0  0  0  0  0
  128.6460  132.1030   64.4960 N   0  0  0  0  0  0  0  0  0  0  0  0
  128.1200  132.9220   63.6050 C   0  0  0  0  0  0  0  0  0  0  0  0
  127.1940  132.3640   62.7280 C   0  0  0  0  0  0  0  0  0  0  0  0
  127.0110  130.6760   63.0970 S   0  0  0  0  0  0  0  0  0  0  0  0
  128.6590  128.0150   68.7190 S   0  0  0  0  0  0  0  0  0  0  0  0
  129.2810  126.3940   68.5260 C   0  0  0  0  0  0  0  0  0  0  0  0
  129.3700  125.5530   69.5550 N   0  0  0  0  0  0  0  0  0  0  0  0
  129.8840  124.3210   69.3010 C   0  0  0  0  0  0  0  0  0  0  0  0
  129.9920  123.4050   70.4770 C   0  0  0  0  0  0  0  0  0  0  0  0
  129.3020  122.1880   70.5130 C   0  0  0  0  0  0  0  0  0  0  0  0
  129.3990  121.3430   71.6140 C   0  0  0  0  0  0  0  0  0  0  0  0
  130.1810  121.6910   72.7280 C   0  0  0  0  0  0  0  0  0  0  0  0
  130.2940  120.8490   73.8400 N   0  0  0  0  0  0  0  0  0  0  0  0
  130.3360  121.3900   75.2140 C   0  0  0  0  0  0  0  0  0  0  0  0
  130.1090  120.3280   76.3100 C   0  0  0  0  0  0  0  0  0  0  0  0
  131.0380  119.2670   76.1550 O   0  0  0  0  0  0  0  0  0  0  0  0
  130.8900  118.6280   74.8980 C   0  0  0  0  0  0  0  0  0  0  0  0
  131.1360  119.6370   73.7560 C   0  0  0  0  0  0  0  0  0  0  0  0
  130.8850  122.9020   72.6780 C   0  0  0  0  0  0  0  0  0  0  0  0
  130.7910  123.7450   71.5740 C   0  0  0  0  0  0  0  0  0  0  0  0
  130.2790  123.9260   68.0210 C   0  0  0  0  0  0  0  0  0  0  0  0
  130.1670  124.7990   66.9330 C   0  0  0  0  0  0  0  0  0  0  0  0
  130.5720  124.3220   65.5870 C   0  0  0  0  0  0  0  0  0  0  0  0
  131.6260  124.9350   64.9090 C   0  0  0  0  0  0  0  0  0  0  0  0
  132.0200  124.4800   63.6540 C   0  0  0  0  0  0  0  0  0  0  0  0
  131.3670  123.3990   63.0420 C   0  0  0  0  0  0  0  0  0  0  0  0
  131.7520  122.9170   61.7870 N   0  0  0  0  0  0  0  0  0  0  0  0
  133.0120  123.3990   61.1870 C   0  0  0  0  0  0  0  0  0  0  0  0
  133.1170  123.1040   59.6750 C   0  0  0  0  0  0  0  0  0  0  0  0
  132.9470  121.7150   59.4380 O   0  0  0  0  0  0  0  0  0  0  0  0
  131.6810  121.2570   59.8870 C   0  0  0  0  0  0  0  0  0  0  0  0
  131.5350  121.5090   61.4040 C   0  0  0  0  0  0  0  0  0  0  0  0
  130.3220  122.7770   63.7420 C   0  0  0  0  0  0  0  0  0  0  0  0
  129.9280  123.2320   64.9970 C   0  0  0  0  0  0  0  0  0  0  0  0
  129.6640  126.1080   67.1820 C   0  0  0  0  0  0  0  0  0  0  0  0
  1  2  1  0
  2  3  2  0
  3  4  1  0
  4  5  2  0
  4  6  1  0
  6  7  1  0
  7  8  2  0
  8  9  1  0
  9 10  2  0
 10 11  1  0
  3 12  1  0
 12 13  1  0
 13 14  2  0
 14 15  1  0
 15 16  1  0
 16 17  2  0
 17 18  1  0
 18 19  2  0
 19 20  1  0
 20 21  1  0
 21 22  1  0
 22 23  1  0
 23 24  1  0
 24 25  1  0
 19 26  1  0
 26 27  2  0
 15 28  2  0
 28 29  1  0
 29 30  1  0
 30 31  2  0
 31 32  1  0
 32 33  2  0
 33 34  1  0
 34 35  1  0
 35 36  1  0
 36 37  1  0
 37 38  1  0
 38 39  1  0
 33 40  1  0
 40 41  2  0
 29 42  2  0
 42  2  1  0
 11  7  1  0
 42 13  1  0
 27 16  1  0
 41 30  1  0
 25 20  1  0
 39 34  1  0
M  END
>  <Binding energies>  (41) 
[-8.83]

>  <Ligand effiencies>  (41) 
[-0.19622222222222221]

>  <Interactions>  (41) 
["V-A:GLU:543:CG:4902, H-A:GLU:543:OE2:4905, V-A:ALA:541:CB:4887, V-A:GLU:543:CD:4903, H-B:TYR:484:OH:9315, V-B:GLU:543:C:9870, V-A:TYR:484:CD1:4338, V-A:HIS:456:CG:4061, V-A:HIS:456:CE1:4064, V-A:TYR:484:CB:4336, V-A:ASP:485:CA:4348, V-A:TYR:484:CG:4337, V-A:ASP:473:CG:4235, V-A:ASP:473:CB:4234, V-B:GLU:543:CA:9872, V-B:GLU:543:CD:9876, V-B:HIS:456:CE1:9037, V-B:GLU:543:CG:9875, V-B:GLU:543:CB:9874, V-A:GLU:543:CB:4901, H-A:HIS:456:NE2:4065, V-A:TYR:484:CZ:4342, V-A:TYR:484:CE1:4340, V-B:TYR:539:CD2:9842, V-B:TYR:539:CE2:9844, V-A:LEU:475:CD2:4254, V-B:ALA:541:CB:9860, V-A:ILE:369:CD1:3234, H-B:GLU:543:OE2:9878, H-A:GLU:543:OE1:4904, V-A:HIS:456:CD2:4063, H-A:LYS:471:NZ:4216"]

$$$$
RR11_Rahimova_2017
     RDKit          3D

 33 38  0  0  0  0  0  0  0  0999 V2000
  126.7280  135.8290   60.6250 N   0  0  0  0  0  0  0  0  0  0  0  0
  126.8780  134.6930   61.4180 C   0  0  0  0  0  0  0  0  0  0  0  0
  128.1000  134.4360   62.0370 C   0  0  0  0  0  0  0  0  0  0  0  0
  128.2480  133.3030   62.8310 C   0  0  0  0  0  0  0  0  0  0  0  0
  127.1780  132.4170   63.0140 C   0  0  0  0  0  0  0  0  0  0  0  0
  127.3380  131.1990   63.8750 C   0  0  0  0  0  0  0  0  0  0  0  0
  128.4540  130.5130   63.9930 N   0  0  0  0  0  0  0  0  0  0  0  0
  128.1670  129.5030   64.8740 C   0  0  0  0  0  0  0  0  0  0  0  0
  129.0020  128.4870   65.3580 C   0  0  0  0  0  0  0  0  0  0  0  0
  128.4740  127.5730   66.2770 C   0  0  0  0  0  0  0  0  0  0  0  0
  129.3550  126.4540   66.8170 C   0  0  0  0  0  0  0  0  0  0  0  0
  130.3980  125.9840   65.8120 C   0  0  0  0  0  0  0  0  0  0  0  0
  131.7200  125.7950   66.2300 C   0  0  0  0  0  0  0  0  0  0  0  0
  132.7100  125.3560   65.3490 C   0  0  0  0  0  0  0  0  0  0  0  0
  132.3460  125.0990   64.0210 C   0  0  0  0  0  0  0  0  0  0  0  0
  133.1210  124.6730   62.9740 N   0  0  0  0  0  0  0  0  0  0  0  0
  132.3040  124.5920   61.9460 C   0  0  0  0  0  0  0  0  0  0  0  0
  132.7170  124.1760   60.5640 C   0  0  0  0  0  0  0  0  0  0  0  0
  133.4580  123.0040   60.3660 C   0  0  0  0  0  0  0  0  0  0  0  0
  133.8500  122.6230   59.0850 C   0  0  0  0  0  0  0  0  0  0  0  0
  133.5040  123.4140   57.9920 C   0  0  0  0  0  0  0  0  0  0  0  0
  133.9010  123.0370   56.7090 N   0  0  0  0  0  0  0  0  0  0  0  0
  132.7650  124.5800   58.1730 C   0  0  0  0  0  0  0  0  0  0  0  0
  132.3730  124.9590   59.4540 C   0  0  0  0  0  0  0  0  0  0  0  0
  131.0140  124.9440   62.2840 N   0  0  0  0  0  0  0  0  0  0  0  0
  131.0020  125.2820   63.6160 C   0  0  0  0  0  0  0  0  0  0  0  0
  130.0050  125.7150   64.4940 C   0  0  0  0  0  0  0  0  0  0  0  0
  127.1360  127.6590   66.6800 C   0  0  0  0  0  0  0  0  0  0  0  0
  126.2770  128.6570   66.2110 C   0  0  0  0  0  0  0  0  0  0  0  0
  126.8230  129.5720   65.3080 C   0  0  0  0  0  0  0  0  0  0  0  0
  126.3230  130.6680   64.6450 N   0  0  0  0  0  0  0  0  0  0  0  0
  125.9560  132.6870   62.3850 C   0  0  0  0  0  0  0  0  0  0  0  0
  125.8050  133.8200   61.5900 C   0  0  0  0  0  0  0  0  0  0  0  0
  1  2  1  0
  2  3  2  0
  3  4  1  0
  4  5  2  0
  5  6  1  0
  6  7  2  0
  7  8  1  0
  8  9  2  0
  9 10  1  0
 10 11  1  0
 11 12  1  0
 12 13  2  0
 13 14  1  0
 14 15  2  0
 15 16  1  0
 16 17  2  0
 17 18  1  0
 18 19  2  0
 19 20  1  0
 20 21  2  0
 21 22  1  0
 21 23  1  0
 23 24  2  0
 17 25  1  0
 25 26  1  0
 26 27  2  0
 10 28  2  0
 28 29  1  0
 29 30  2  0
 30 31  1  0
  5 32  1  0
 32 33  2  0
 33  2  1  0
 31  6  1  0
 30  8  1  0
 27 12  1  0
 26 15  1  0
 24 18  1  0
M  END
>  <Binding energies>  (42) 
[-8.46]

>  <Ligand effiencies>  (42) 
[-0.21692307692307694]

>  <Interactions>  (42) 
["V-A:GLU:543:CG:4902, V-A:TYR:539:CE2:4871, V-A:TYR:539:CD2:4869, V-B:LEU:475:CD2:9226, V-A:ALA:541:CB:4887, V-A:ALA:541:CA:4885, V-A:GLU:543:CD:4903, V-A:TYR:539:CG:4867, H-A:TYR:539:O:4863, H-B:TYR:484:OH:9315, V-A:HIS:456:CE1:4064, V-B:GLU:543:CD:9876, V-B:HIS:456:CE1:9037, V-B:GLU:543:CG:9875, V-B:GLU:543:CB:9874, V-B:TRP:381:CZ2:8337, V-B:TRP:381:CH2:8339, V-B:TYR:539:CE2:9844, V-B:TYR:539:CZ:9845, V-A:ILE:369:CD1:3234, V-A:ASP:366:CG:3208, H-B:TYR:539:OH:9846, V-A:ASP:366:CB:3207, V-A:ASP:366:C:3203, H-B:GLU:543:OE2:9878, V-A:ARG:545:CZ:4921, V-B:TYR:484:CZ:9314, V-A:ILE:369:CG2:3232, V-A:ILE:369:CB:3231, V-B:TRP:381:CZ3:8338, V-A:ILE:369:CG1:3233, V-A:ILE:369:C:3227, V-A:ASN:370:CB:3240, H-A:ASP:366:O:3204, V-A:ASN:370:CA:3238"]

$$$$
RR16_Rahimova_2017
     RDKit          3D

 44 49  0  0  0  0  0  0  0  0999 V2000
  128.6580  128.9740   73.7950 O   0  0  0  0  0  0  0  0  0  0  0  0
  129.8440  128.7670   72.9560 S   0  0  0  0  0  0  0  0  0  0  0  0
  130.8580  127.7700   73.3180 O   0  0  0  0  0  0  0  0  0  0  0  0
  130.6490  130.3280   72.7790 N   0  0  0  0  0  0  0  0  0  0  0  0
  130.0360  131.5660   73.3150 C   0  0  0  0  0  0  0  0  0  0  0  0
  131.1070  132.6870   73.3560 C   0  0  0  0  0  0  0  0  0  0  0  0
  130.8920  133.9040   72.4350 C   0  0  0  0  0  0  0  0  0  0  0  0
  129.7720  134.8500   72.9000 C   0  0  0  0  0  0  0  0  0  0  0  0
  128.6380  134.1980   73.7130 C   0  0  0  0  0  0  0  0  0  0  0  0
  127.8940  133.0180   73.0580 C   0  0  0  0  0  0  0  0  0  0  0  0
  128.7670  131.8810   72.4910 C   0  0  0  0  0  0  0  0  0  0  0  0
  129.2540  128.3810   71.3120 C   0  0  0  0  0  0  0  0  0  0  0  0
  129.8080  129.0150   70.1970 C   0  0  0  0  0  0  0  0  0  0  0  0
  129.2580  128.7970   68.9370 C   0  0  0  0  0  0  0  0  0  0  0  0
  128.1590  127.9480   68.7970 C   0  0  0  0  0  0  0  0  0  0  0  0
  127.3620  127.7770   67.2010 S   0  0  0  0  0  0  0  0  0  0  0  0
  127.2240  129.1240   66.6320 O   0  0  0  0  0  0  0  0  0  0  0  0
  126.1790  126.9280   67.3900 O   0  0  0  0  0  0  0  0  0  0  0  0
  128.5380  126.8770   66.2230 N   0  0  0  0  0  0  0  0  0  0  0  0
  129.3050  127.7110   65.2620 C   0  0  0  0  0  0  0  0  0  0  0  0
  130.0590  126.8180   64.2550 C   0  0  0  0  0  0  0  0  0  0  0  0
  130.9340  125.7600   64.9700 C   0  0  0  0  0  0  0  0  0  0  0  0
  131.6560  124.8330   63.9880 C   0  0  0  0  0  0  0  0  0  0  0  0
  133.0380  124.9650   63.7940 C   0  0  0  0  0  0  0  0  0  0  0  0
  133.7370  124.1370   62.9150 C   0  0  0  0  0  0  0  0  0  0  0  0
  135.0900  124.2780   62.7410 O   0  0  0  0  0  0  0  0  0  0  0  0
  133.0190  123.1530   62.2190 C   0  0  0  0  0  0  0  0  0  0  0  0
  133.4300  122.2060   61.3260 N   0  0  0  0  0  0  0  0  0  0  0  0
  132.3230  121.4690   60.9640 N   0  0  0  0  0  0  0  0  0  0  0  0
  131.2460  121.9830   61.5900 N   0  0  0  0  0  0  0  0  0  0  0  0
  129.9450  121.3420   61.4560 C   0  0  0  0  0  0  0  0  0  0  0  0
  128.9790  122.1460   60.5970 C   0  0  0  0  0  0  0  0  0  0  0  0
  127.8890  122.7950   61.1870 C   0  0  0  0  0  0  0  0  0  0  0  0
  127.0150  123.5520   60.4050 C   0  0  0  0  0  0  0  0  0  0  0  0
  127.2280  123.6650   59.0310 C   0  0  0  0  0  0  0  0  0  0  0  0
  128.3140  123.0220   58.4370 C   0  0  0  0  0  0  0  0  0  0  0  0
  128.5850  123.1690   56.7390 Cl  0  0  0  0  0  0  0  0  0  0  0  0
  129.1860  122.2610   59.2180 C   0  0  0  0  0  0  0  0  0  0  0  0
  131.6230  123.0310   62.4140 C   0  0  0  0  0  0  0  0  0  0  0  0
  130.9200  123.8630   63.2920 C   0  0  0  0  0  0  0  0  0  0  0  0
  130.1490  124.9850   66.0600 C   0  0  0  0  0  0  0  0  0  0  0  0
  129.3830  125.9350   67.0020 C   0  0  0  0  0  0  0  0  0  0  0  0
  127.6320  127.2830   69.9070 C   0  0  0  0  0  0  0  0  0  0  0  0
  128.1790  127.5030   71.1660 C   0  0  0  0  0  0  0  0  0  0  0  0
  1  2  2  0
  2  3  2  0
  2  4  1  0
  4  5  1  0
  5  6  1  0
  6  7  1  0
  7  8  1  0
  8  9  1  0
  9 10  1  0
 10 11  1  0
  2 12  1  0
 12 13  2  0
 13 14  1  0
 14 15  2  0
 15 16  1  0
 16 17  2  0
 16 18  2  0
 16 19  1  0
 19 20  1  0
 20 21  1  0
 21 22  1  0
 22 23  1  0
 23 24  2  0
 24 25  1  0
 25 26  1  0
 25 27  2  0
 27 28  1  0
 28 29  2  0
 29 30  1  0
 30 31  1  0
 31 32  1  0
 32 33  2  0
 33 34  1  0
 34 35  2  0
 35 36  1  0
 36 37  1  0
 36 38  2  0
 30 39  1  0
 39 40  2  0
 22 41  1  0
 41 42  1  0
 15 43  1  0
 43 44  2  0
 11  5  1  0
 44 12  1  0
 42 19  1  0
 40 23  1  0
 39 27  1  0
 38 32  1  0
M  END
>  <Binding energies>  (43) 
[-10.86]

>  <Ligand effiencies>  (43) 
[-0.22624999999999998]

>  <Interactions>  (43) 
["V-A:GLU:543:CD:4903, H-B:TYR:484:OH:9315, H-B:LYS:547:NZ:9919, V-B:HIS:456:CD2:9035, H-A:LYS:547:NZ:4946, V-A:LYS:547:CE:4945, V-B:GLU:543:CD:9876, V-B:HIS:456:CE1:9037, V-B:GLU:543:CG:9875, V-B:GLU:543:CB:9874, V-A:GLU:543:C:4897, V-A:GLU:543:CB:4901, V-A:GLY:544:CA:4909, V-B:TYR:539:CD2:9842, V-B:TYR:539:CE2:9844, V-B:TYR:539:CZ:9845, V-A:LEU:475:CD2:4254, V-B:PRO:540:CA:9851, V-B:TYR:539:CE1:9843, V-B:MET:535:CE:9803, V-B:PRO:540:C:9849, V-B:ALA:541:CB:9860, V-B:TYR:539:C:9835, V-A:ARG:545:CZ:4921, H-A:ASP:366:OD2:3210, V-B:TYR:484:CB:9308, V-B:TYR:484:CG:9309, H-A:GLY:454:N:4045, H-A:GLU:543:O:4898, H-A:ARG:545:NH1:4922, H-A:ASP:366:OD1:3209, H-A:GLY:544:O:4908"]

$$$$
RR18_Rahimova_2017
     RDKit          3D

 36 41  0  0  0  0  0  0  0  0999 V2000
  125.1410  122.8120   56.8960 C   0  0  0  0  0  0  0  0  0  0  0  0
  125.9410  123.7150   57.8000 C   0  0  0  0  0  0  0  0  0  0  0  0
  126.2790  123.6830   59.1440 C   0  0  0  0  0  0  0  0  0  0  0  0
  127.0470  124.8190   59.3930 C   0  0  0  0  0  0  0  0  0  0  0  0
  127.1520  125.5040   58.1930 C   0  0  0  0  0  0  0  0  0  0  0  0
  127.8470  126.7960   57.7700 C   0  0  1  0  0  0  0  0  0  0  0  0
  128.4690  126.6700   56.3480 C   0  0  0  0  0  0  0  0  0  0  0  0
  129.5630  125.7370   56.1000 C   0  0  0  0  0  0  0  0  0  0  0  0
  129.7660  125.2530   54.9840 O   0  0  0  0  0  0  0  0  0  0  0  0
  130.3250  125.4740   57.1870 N   0  0  0  0  0  0  0  0  0  0  0  0
  131.4400  124.6200   57.3360 C   0  0  0  0  0  0  0  0  0  0  0  0
  132.5630  124.6570   56.4910 C   0  0  0  0  0  0  0  0  0  0  0  0
  133.6290  123.7810   56.6880 C   0  0  0  0  0  0  0  0  0  0  0  0
  133.5870  122.8530   57.7250 C   0  0  0  0  0  0  0  0  0  0  0  0
  132.4760  122.7970   58.5630 C   0  0  0  0  0  0  0  0  0  0  0  0
  131.4000  123.6710   58.3770 C   0  0  0  0  0  0  0  0  0  0  0  0
  130.2040  123.5660   59.3200 C   0  0  0  0  0  0  0  0  0  0  0  0
  127.9040  127.3700   55.3290 C   0  0  0  0  0  0  0  0  0  0  0  0
  126.8960  128.2760   55.4750 N   0  0  0  0  0  0  0  0  0  0  0  0
  126.4800  128.5720   56.6500 C   0  0  0  0  0  0  0  0  0  0  0  0
  125.3050  129.8180   57.0010 S   0  0  0  0  0  0  0  0  0  0  0  0
  125.4230  129.5060   58.7620 C   0  0  0  0  0  0  0  0  0  0  0  0
  124.7400  130.1520   59.7690 C   0  0  0  0  0  0  0  0  0  0  0  0
  123.8540  131.2840   59.4580 C   0  0  0  0  0  0  0  0  0  0  0  0
  123.5660  131.7890   58.3740 O   0  0  0  0  0  0  0  0  0  0  0  0
  123.3730  131.7440   60.6180 N   0  0  0  0  0  0  0  0  0  0  0  0
  123.8050  131.0290   61.6930 C   0  0  0  0  0  0  0  0  0  0  0  0
  123.4870  131.2290   63.0360 C   0  0  0  0  0  0  0  0  0  0  0  0
  124.0130  130.3600   63.9880 C   0  0  0  0  0  0  0  0  0  0  0  0
  124.8340  129.3090   63.5840 C   0  0  0  0  0  0  0  0  0  0  0  0
  125.1390  129.1300   62.2320 C   0  0  0  0  0  0  0  0  0  0  0  0
  124.6360  130.0120   61.2570 C   0  0  0  0  0  0  0  0  0  0  0  0
  126.3980  128.4350   58.9660 C   0  0  0  0  0  0  0  0  0  0  0  0
  126.7770  127.9890   60.0450 O   0  0  0  0  0  0  0  0  0  0  0  0
  126.8950  127.9630   57.7900 N   0  0  0  0  0  0  0  0  0  0  0  0
  126.4750  124.8260   57.2290 O   0  0  0  0  0  0  0  0  0  0  0  0
  1  2  1  0
  2  3  2  0
  3  4  1  0
  4  5  2  0
  6  5  1  6
  6  7  1  0
  7  8  1  0
  8  9  2  0
  8 10  1  0
 10 11  1  0
 11 12  2  0
 12 13  1  0
 13 14  2  0
 14 15  1  0
 15 16  2  0
 16 17  1  0
  7 18  2  0
 18 19  1  0
 19 20  2  0
 20 21  1  0
 21 22  1  0
 22 23  2  0
 23 24  1  0
 24 25  2  0
 24 26  1  0
 26 27  1  0
 27 28  2  0
 28 29  1  0
 29 30  2  0
 30 31  1  0
 31 32  2  0
 22 33  1  0
 33 34  2  0
 33 35  1  0
  5 36  1  0
 36  2  1  0
 35  6  1  0
 16 11  1  0
 35 20  1  0
 32 23  1  0
 32 27  1  0
M  END
>  <Binding energies>  (44) 
[-8.86]

>  <Ligand effiencies>  (44) 
[-0.2331578947368421]

>  <Interactions>  (44) 
["V-B:ILE:369:CD1:8206, V-A:TYR:531:CZ:4789, V-B:ILE:369:CG2:8204, V-B:ARG:545:CZ:9894, V-A:TYR:531:CE1:4787, V-B:TYR:539:CE2:9844, V-B:TYR:539:CZ:9845, V-B:PRO:540:CB:9853, V-B:PRO:540:CA:9851, V-B:MET:535:CE:9803, V-B:PRO:540:N:9852, V-B:TYR:531:CZ:9762, H-A:LYS:534:NZ:4818, H-A:TYR:531:OH:4790, V-B:ASP:366:CB:8179, V-B:ASP:366:CG:8180, V-B:PRO:540:CD:9855, H-A:TYR:539:OH:4873, H-B:TYR:531:OH:9763, V-B:ASP:366:CA:8177, V-A:ASP:366:CB:3207, V-A:ASP:366:C:3203, V-B:LEU:363:CD1:8156, V-B:ILE:369:CG1:8205, V-B:ILE:369:CB:8203, V-A:ILE:369:CG2:3232, V-A:ILE:369:CB:3231, V-A:ASN:370:CB:3240"]

$$$$
RR20_Rahimova_2017
     RDKit          3D

 38 43  0  0  0  0  0  0  0  0999 V2000
  124.7700  123.1690   57.6990 C   0  0  0  0  0  0  0  0  0  0  0  0
  126.1690  123.5260   57.2300 C   0  0  0  0  0  0  0  0  0  0  0  0
  127.0800  122.5140   56.9280 C   0  0  0  0  0  0  0  0  0  0  0  0
  128.3610  122.8390   56.4900 C   0  0  0  0  0  0  0  0  0  0  0  0
  128.7460  124.1790   56.3630 C   0  0  0  0  0  0  0  0  0  0  0  0
  130.1350  124.5110   55.8660 C   0  0  0  0  0  0  0  0  0  0  0  0
  130.2370  124.9890   54.7340 O   0  0  0  0  0  0  0  0  0  0  0  0
  131.2080  124.2870   56.6790 N   0  0  0  0  0  0  0  0  0  0  0  0
  132.5850  124.2930   56.1590 C   0  0  0  0  0  0  0  0  0  0  0  0
  133.4990  124.1650   57.3660 C   0  0  0  0  0  0  0  0  0  0  0  0
  132.5850  124.4750   58.5120 C   0  0  0  0  0  0  0  0  0  0  0  0
  132.8850  124.5950   59.8690 C   0  0  0  0  0  0  0  0  0  0  0  0
  131.8630  124.7280   60.8170 C   0  0  0  0  0  0  0  0  0  0  0  0
  132.1870  124.8660   62.2790 C   0  0  0  0  0  0  0  0  0  0  0  0
  131.3430  125.5340   63.0490 N   0  0  0  0  0  0  0  0  0  0  0  0
  131.7140  125.5740   64.3040 C   0  0  0  0  0  0  0  0  0  0  0  0
  131.0640  126.1810   65.3680 N   0  0  0  0  0  0  0  0  0  0  0  0
  130.6680  125.5930   66.5230 C   0  0  0  0  0  0  0  0  0  0  0  0
  130.8620  124.4070   66.7940 O   0  0  0  0  0  0  0  0  0  0  0  0
  129.9540  126.4720   67.5780 C   0  0  0  0  0  0  0  0  0  0  0  0
  128.6140  126.9130   67.1470 N   0  0  0  0  0  0  0  0  0  0  0  0
  127.6900  127.0860   68.2770 C   0  0  0  0  0  0  0  0  0  0  0  0
  126.2470  127.2850   67.7600 C   0  0  0  0  0  0  0  0  0  0  0  0
  126.1580  128.2840   66.6060 C   0  0  0  0  0  0  0  0  0  0  0  0
  124.9240  128.7930   66.1870 C   0  0  0  0  0  0  0  0  0  0  0  0
  124.8390  129.6740   65.1120 C   0  0  0  0  0  0  0  0  0  0  0  0
  125.9950  130.0590   64.4400 C   0  0  0  0  0  0  0  0  0  0  0  0
  127.2310  129.5670   64.8530 C   0  0  0  0  0  0  0  0  0  0  0  0
  127.3300  128.6810   65.9310 C   0  0  0  0  0  0  0  0  0  0  0  0
  128.6920  128.1860   66.4200 C   0  0  0  0  0  0  0  0  0  0  0  0
  133.1970  124.7670   64.6340 S   0  0  0  0  0  0  0  0  0  0  0  0
  133.3240  124.3540   62.9400 C   0  0  0  0  0  0  0  0  0  0  0  0
  134.5270  123.5960   62.4250 C   0  0  0  0  0  0  0  0  0  0  0  0
  130.5320  124.6810   60.3770 C   0  0  0  0  0  0  0  0  0  0  0  0
  130.2280  124.5430   59.0230 C   0  0  0  0  0  0  0  0  0  0  0  0
  131.2600  124.4960   58.0760 C   0  0  0  0  0  0  0  0  0  0  0  0
  127.8160  125.1900   56.6400 C   0  0  0  0  0  0  0  0  0  0  0  0
  126.5340  124.8650   57.0780 C   0  0  0  0  0  0  0  0  0  0  0  0
  1  2  1  0
  2  3  2  0
  3  4  1  0
  4  5  2  0
  5  6  1  0
  6  7  2  0
  6  8  1  0
  8  9  1  0
  9 10  1  0
 10 11  1  0
 11 12  2  0
 12 13  1  0
 13 14  1  0
 14 15  1  0
 15 16  2  0
 16 17  1  0
 17 18  1  0
 18 19  2  0
 18 20  1  0
 20 21  1  0
 21 22  1  0
 22 23  1  0
 23 24  1  0
 24 25  2  0
 25 26  1  0
 26 27  2  0
 27 28  1  0
 28 29  2  0
 29 30  1  0
 16 31  1  0
 31 32  1  0
 32 33  1  0
 13 34  2  0
 34 35  1  0
 35 36  2  0
  5 37  1  0
 37 38  2  0
 38  2  1  0
 36  8  1  0
 36 11  1  0
 32 14  2  0
 30 21  1  0
 29 24  1  0
M  END
>  <Binding energies>  (45) 
[-10.66]

>  <Ligand effiencies>  (45) 
[-0.2733333333333333]

>  <Interactions>  (45) 
["H-A:GLU:543:OE2:4905, V-A:TYR:531:CZ:4789, V-A:GLU:543:CD:4903, V-B:ARG:545:CZ:9894, V-A:HIS:456:CE1:4064, V-B:HIS:456:CE1:9037, V-B:ARG:545:CD:9891, V-B:ARG:545:CG:9890, V-B:GLU:543:CB:9874, H-A:HIS:456:NE2:4065, V-A:TYR:531:CE1:4787, V-B:TYR:539:CE2:9844, V-B:TYR:539:CZ:9845, V-B:PRO:540:CB:9853, V-B:PRO:540:CA:9851, V-B:TYR:539:CE1:9843, V-B:MET:535:CE:9803, V-B:TYR:539:CD1:9841, V-B:TYR:539:C:9835, V-B:PRO:540:N:9852, V-A:ILE:369:CD1:3234, V-A:ASP:366:CG:3208, H-A:LYS:534:NZ:4818, H-A:TYR:484:OH:4343, V-B:PRO:540:CD:9855, H-B:TYR:539:OH:9846, V-A:ASP:366:CA:3205, V-A:ASP:366:CB:3207, V-B:PRO:540:CG:9854, V-A:ASP:366:C:3203, V-A:GLY:454:CA:4044, V-B:LEU:363:CD1:8156, V-A:ARG:545:CZ:4921, H-A:GLU:543:OE1:4904, V-A:GLY:453:C:4037, V-A:GLY:453:CA:4039, V-A:ASN:370:CB:3240"]

$$$$
RR21_Rahimova_2017
     RDKit          3D

 40 45  0  0  0  0  0  0  0  0999 V2000
  134.2800  123.8970   62.0880 C   0  0  0  0  0  0  0  0  0  0  0  0
  133.8980  123.6200   63.4320 O   0  0  0  0  0  0  0  0  0  0  0  0
  132.8930  124.3670   64.0160 C   0  0  0  0  0  0  0  0  0  0  0  0
  131.5630  124.3940   63.5630 C   0  0  0  0  0  0  0  0  0  0  0  0
  130.6070  125.1740   64.2120 C   0  0  0  0  0  0  0  0  0  0  0  0
  130.9510  125.9420   65.3300 C   0  0  0  0  0  0  0  0  0  0  0  0
  129.9210  126.7760   66.0290 C   0  0  0  0  0  0  0  0  0  0  0  0
  129.7730  126.6760   67.3350 N   0  0  0  0  0  0  0  0  0  0  0  0
  128.7950  127.5270   67.6780 N   0  0  0  0  0  0  0  0  0  0  0  0
  128.3900  127.6860   69.0290 C   0  0  0  0  0  0  0  0  0  0  0  0
  129.1960  128.3850   69.9420 C   0  0  0  0  0  0  0  0  0  0  0  0
  128.7860  128.5380   71.2640 C   0  0  0  0  0  0  0  0  0  0  0  0
  127.5730  127.9940   71.6780 C   0  0  0  0  0  0  0  0  0  0  0  0
  126.7660  127.2970   70.7830 C   0  0  0  0  0  0  0  0  0  0  0  0
  127.1730  127.1410   69.4610 C   0  0  0  0  0  0  0  0  0  0  0  0
  128.3300  128.1870   66.5680 C   0  0  0  0  0  0  0  0  0  0  0  0
  129.0280  127.7170   65.4660 C   0  0  0  0  0  0  0  0  0  0  0  0
  128.9190  128.1490   64.0810 C   0  0  0  0  0  0  0  0  0  0  0  0
  128.7650  129.4060   63.6060 C   0  0  0  0  0  0  0  0  0  0  0  0
  128.6380  130.9170   64.5350 S   0  0  0  0  0  0  0  0  0  0  0  0
  128.5140  131.8160   63.0300 C   0  0  0  0  0  0  0  0  0  0  0  0
  128.4030  133.0990   62.8770 N   0  0  0  0  0  0  0  0  0  0  0  0
  128.3220  133.7050   61.5930 C   0  0  0  0  0  0  0  0  0  0  0  0
  128.2370  134.9110   61.3620 O   0  0  0  0  0  0  0  0  0  0  0  0
  128.3600  132.7220   60.4540 C   0  0  0  0  0  0  0  0  0  0  0  0
  128.2600  133.2590   59.0200 C   0  0  0  0  0  0  0  0  0  0  0  0
  129.3280  132.7200   58.0710 C   0  0  0  0  0  0  0  0  0  0  0  0
  129.2150  132.9370   56.6950 C   0  0  0  0  0  0  0  0  0  0  0  0
  130.1980  132.4600   55.8310 C   0  0  0  0  0  0  0  0  0  0  0  0
  131.2970  131.7660   56.3410 C   0  0  0  0  0  0  0  0  0  0  0  0
  132.3720  131.2590   55.3970 C   0  0  0  0  0  0  0  0  0  0  0  0
  131.4170  131.5570   57.7170 C   0  0  0  0  0  0  0  0  0  0  0  0
  130.4350  132.0340   58.5800 C   0  0  0  0  0  0  0  0  0  0  0  0
  128.4650  131.4450   60.6220 N   0  0  0  0  0  0  0  0  0  0  0  0
  128.5470  130.9840   61.9420 N   0  0  0  0  0  0  0  0  0  0  0  0
  128.6760  129.6540   62.1740 C   0  0  0  0  0  0  0  0  0  0  0  0
  128.7200  128.7860   61.2940 O   0  0  0  0  0  0  0  0  0  0  0  0
  132.2760  125.9210   65.7780 C   0  0  0  0  0  0  0  0  0  0  0  0
  133.2350  125.1420   65.1300 C   0  0  0  0  0  0  0  0  0  0  0  0
  134.5080  125.1420   65.5890 F   0  0  0  0  0  0  0  0  0  0  0  0
  1  2  1  0
  2  3  1  0
  3  4  2  0
  4  5  1  0
  5  6  2  0
  6  7  1  0
  7  8  2  0
  8  9  1  0
  9 10  1  0
 10 11  2  0
 11 12  1  0
 12 13  2  0
 13 14  1  0
 14 15  2  0
  9 16  1  0
 16 17  2  0
 17 18  1  0
 18 19  2  0
 19 20  1  0
 20 21  1  0
 21 22  2  0
 22 23  1  0
 23 24  2  0
 23 25  1  0
 25 26  1  0
 26 27  1  0
 27 28  2  0
 28 29  1  0
 29 30  2  0
 30 31  1  0
 30 32  1  0
 32 33  2  0
 25 34  2  0
 34 35  1  0
 35 36  1  0
 36 37  2  0
  6 38  1  0
 38 39  2  0
 39 40  1  0
 39  3  1  0
 17  7  1  0
 36 19  1  0
 15 10  1  0
 35 21  1  0
 33 27  1  0
M  END
>  <Binding energies>  (46) 
[-9.84]

>  <Ligand effiencies>  (46) 
[-0.246]

>  <Interactions>  (46) 
["V-A:GLU:543:CG:4902, H-A:ALA:541:N:4886, V-A:TYR:539:CE2:4871, V-A:LEU:363:CD1:3184, V-A:TYR:531:CZ:4789, V-A:TYR:539:CD2:4869, V-A:ALA:541:CB:4887, V-A:GLU:543:CD:4903, V-A:TYR:531:CE2:4788, V-A:PRO:540:CB:4880, V-A:PRO:540:CA:4878, V-A:PRO:540:N:4879, V-A:TYR:539:CG:4867, V-A:TYR:539:CD1:4868, V-A:TYR:539:C:4862, V-B:GLU:543:C:9870, V-B:HIS:456:CD2:9035, V-B:HIS:456:CE1:9037, V-B:HIS:456:CG:9033, V-B:GLU:543:CB:9874, V-A:TYR:539:CZ:4872, V-A:TYR:539:CE1:4870, V-A:ILE:369:CD1:3234, V-A:ASP:366:CG:3208, H-A:TYR:484:OH:4343, V-A:ARG:545:CZ:4921, V-B:GLY:544:C:9880, V-A:ARG:545:CG:4917, V-A:GLY:453:C:4037, H-A:GLY:454:N:4045, V-A:GLY:453:CA:4039, V-A:ARG:545:CD:4918"]

$$$$
RR23_Rahimova_2017
     RDKit          3D

 39 44  0  0  0  0  0  0  0  0999 V2000
  130.6240  128.4450   71.5490 C   0  0  0  0  0  0  0  0  0  0  0  0
  129.6640  128.2340   70.3930 C   0  0  0  0  0  0  0  0  0  0  0  0
  128.5310  127.4380   70.5620 C   0  0  0  0  0  0  0  0  0  0  0  0
  127.6450  127.2540   69.5020 C   0  0  0  0  0  0  0  0  0  0  0  0
  127.8930  127.8540   68.2630 C   0  0  0  0  0  0  0  0  0  0  0  0
  126.9090  127.6590   67.1310 C   0  0  0  0  0  0  0  0  0  0  0  0
  125.7920  127.2200   67.4150 O   0  0  0  0  0  0  0  0  0  0  0  0
  127.2800  127.9830   65.8570 N   0  0  0  0  0  0  0  0  0  0  0  0
  128.4330  127.3440   65.2040 C   0  0  0  0  0  0  0  0  0  0  0  0
  128.4420  127.8430   63.7680 C   0  0  0  0  0  0  0  0  0  0  0  0
  127.0750  128.4350   63.6120 C   0  0  0  0  0  0  0  0  0  0  0  0
  126.4740  128.9710   62.4720 C   0  0  0  0  0  0  0  0  0  0  0  0
  125.2380  129.6280   62.5650 C   0  0  0  0  0  0  0  0  0  0  0  0
  124.5420  130.2320   61.3360 C   0  0  2  0  0  0  0  0  0  0  0  0
  125.0320  129.6670   60.0970 N   0  0  0  0  0  0  0  0  0  0  0  0
  125.0040  130.5120   59.1460 C   0  0  0  0  0  0  0  0  0  0  0  0
  125.4110  130.3410   57.8600 N   0  0  0  0  0  0  0  0  0  0  0  0
  126.0670  129.2860   57.3170 C   0  0  0  0  0  0  0  0  0  0  0  0
  126.3790  128.2530   57.9130 O   0  0  0  0  0  0  0  0  0  0  0  0
  126.4390  129.4310   55.8320 C   0  0  0  0  0  0  0  0  0  0  0  0
  127.6650  130.2520   55.7180 N   0  0  0  0  0  0  0  0  0  0  0  0
  127.6740  131.4180   56.4730 N   0  0  0  0  0  0  0  0  0  0  0  0
  128.6870  132.2250   56.4590 N   0  0  0  0  0  0  0  0  0  0  0  0
  129.8030  131.9250   55.6740 C   0  0  0  0  0  0  0  0  0  0  0  0
  130.8780  132.8170   55.6810 C   0  0  0  0  0  0  0  0  0  0  0  0
  132.0070  132.5450   54.9060 C   0  0  0  0  0  0  0  0  0  0  0  0
  132.0620  131.3880   54.1270 C   0  0  0  0  0  0  0  0  0  0  0  0
  130.9880  130.4950   54.1180 C   0  0  0  0  0  0  0  0  0  0  0  0
  129.8570  130.7670   54.8960 C   0  0  0  0  0  0  0  0  0  0  0  0
  128.6820  129.8170   54.8980 C   0  0  0  0  0  0  0  0  0  0  0  0
  128.6390  128.7780   54.2320 O   0  0  0  0  0  0  0  0  0  0  0  0
  124.3710  132.1390   59.5270 S   0  0  0  0  0  0  0  0  0  0  0  0
  124.5770  131.7770   61.2800 C   0  0  2  0  0  0  0  0  0  0  0  0
  125.8650  132.4600   61.7870 C   0  0  0  0  0  0  0  0  0  0  0  0
  124.6440  129.7760   63.8230 C   0  0  0  0  0  0  0  0  0  0  0  0
  125.2540  129.2580   64.9670 C   0  0  0  0  0  0  0  0  0  0  0  0
  126.4490  128.5340   64.8550 C   0  0  0  0  0  0  0  0  0  0  0  0
  129.0180  128.6750   68.1080 C   0  0  0  0  0  0  0  0  0  0  0  0
  129.9020  128.8600   69.1680 C   0  0  0  0  0  0  0  0  0  0  0  0
  1  2  1  0
  2  3  2  0
  3  4  1  0
  4  5  2  0
  5  6  1  0
  6  7  2  0
  6  8  1  0
  8  9  1  0
  9 10  1  0
 10 11  1  0
 11 12  2  0
 12 13  1  0
 14 13  1  1
 14 15  1  0
 15 16  2  0
 16 17  1  0
 17 18  1  0
 18 19  2  0
 18 20  1  0
 20 21  1  0
 21 22  1  0
 22 23  2  0
 23 24  1  0
 24 25  2  0
 25 26  1  0
 26 27  2  0
 27 28  1  0
 28 29  2  0
 29 30  1  0
 30 31  2  0
 16 32  1  0
 32 33  1  0
 33 34  1  6
 13 35  2  0
 35 36  1  0
 36 37  2  0
  5 38  1  0
 38 39  2  0
 39  2  1  0
 37  8  1  0
 37 11  1  0
 33 14  1  0
 30 21  1  0
 29 24  1  0
M  END
>  <Binding energies>  (47) 
[-10.42]

>  <Ligand effiencies>  (47) 
[-0.2605]

>  <Interactions>  (47) 
["V-A:LEU:363:CD1:3184, V-A:PRO:540:CD:4882, V-A:ILE:538:CD1:4860, V-B:ARG:545:CZ:9894, V-A:ILE:538:CA:4855, V-B:GLU:543:C:9870, V-A:HIS:456:CE1:4064, V-B:GLU:543:CD:9876, V-B:HIS:456:CE1:9037, V-A:GLY:544:C:4907, V-B:GLU:543:CB:9874, V-A:GLU:543:C:4897, V-A:GLU:543:CB:4901, V-A:MET:535:CG:4828, V-A:TYR:539:CZ:4872, V-A:ILE:538:CG2:4858, V-A:TYR:539:CE1:4870, V-B:TYR:531:CZ:9762, V-B:ASP:366:CG:8180, H-A:TYR:539:OH:4873, H-B:TYR:531:OH:9763, H-B:ARG:545:NE:9892"]

$$$$
RR26_Rahimova_2017
     RDKit          3D

 38 44  0  0  0  0  0  0  0  0999 V2000
  126.2660  127.3230   67.2020 C   0  0  0  0  0  0  0  0  0  0  0  0
  127.4460  127.6010   68.1230 C   0  0  0  0  0  0  0  0  0  0  0  0
  127.4890  126.9490   69.3610 C   0  0  0  0  0  0  0  0  0  0  0  0
  128.5640  127.1350   70.2270 C   0  0  0  0  0  0  0  0  0  0  0  0
  129.6130  127.9720   69.8590 C   0  0  0  0  0  0  0  0  0  0  0  0
  129.5830  128.6270   68.6290 C   0  0  0  0  0  0  0  0  0  0  0  0
  128.5040  128.4590   67.7480 C   0  0  0  0  0  0  0  0  0  0  0  0
  128.5430  129.2130   66.4500 C   0  0  0  0  0  0  0  0  0  0  0  0
  128.5390  128.5980   65.2700 N   0  0  0  0  0  0  0  0  0  0  0  0
  128.5670  129.6060   64.4400 C   0  0  0  0  0  0  0  0  0  0  0  0
  128.5920  129.7970   62.7260 S   0  0  0  0  0  0  0  0  0  0  0  0
  128.6130  131.5860   62.9490 C   0  0  0  0  0  0  0  0  0  0  0  0
  128.6460  132.5390   61.9910 C   0  0  0  0  0  0  0  0  0  0  0  0
  128.6650  132.3590   60.5480 C   0  0  0  0  0  0  0  0  0  0  0  0
  129.7360  132.5030   59.6810 C   0  0  0  0  0  0  0  0  0  0  0  0
  129.3020  132.1930   58.4170 N   0  0  0  0  0  0  0  0  0  0  0  0
  130.0450  132.1920   57.2090 C   0  0  0  0  0  0  0  0  0  0  0  0
  129.5560  132.8390   56.0640 C   0  0  0  0  0  0  0  0  0  0  0  0
  130.2940  132.8280   54.8840 C   0  0  0  0  0  0  0  0  0  0  0  0
  131.5230  132.1740   54.8440 C   0  0  0  0  0  0  0  0  0  0  0  0
  132.0210  131.5310   55.9740 C   0  0  0  0  0  0  0  0  0  0  0  0
  131.2850  131.5380   57.1550 C   0  0  0  0  0  0  0  0  0  0  0  0
  128.0100  131.8320   58.4450 N   0  0  0  0  0  0  0  0  0  0  0  0
  127.6180  131.9310   59.7000 C   0  0  0  0  0  0  0  0  0  0  0  0
  126.2040  131.6020   60.0680 C   0  0  0  0  0  0  0  0  0  0  0  0
  125.1880  131.6560   59.1020 C   0  0  0  0  0  0  0  0  0  0  0  0
  123.8660  131.3550   59.4360 C   0  0  0  0  0  0  0  0  0  0  0  0
  123.5500  130.9970   60.7450 C   0  0  0  0  0  0  0  0  0  0  0  0
  124.5600  130.9210   61.7160 C   0  0  0  0  0  0  0  0  0  0  0  0
  125.8780  131.2280   61.3810 C   0  0  0  0  0  0  0  0  0  0  0  0
  124.2870  130.6130   63.0340 O   0  0  0  0  0  0  0  0  0  0  0  0
  123.0270  129.9650   63.2350 C   0  0  0  0  0  0  0  0  0  0  0  0
  121.9170  130.6680   62.4160 C   0  0  0  0  0  0  0  0  0  0  0  0
  122.2400  130.6600   61.0210 O   0  0  0  0  0  0  0  0  0  0  0  0
  128.6060  131.9700   64.3570 C   0  0  0  0  0  0  0  0  0  0  0  0
  128.6210  133.0970   64.8560 O   0  0  0  0  0  0  0  0  0  0  0  0
  128.5780  130.7790   65.0990 N   0  0  0  0  0  0  0  0  0  0  0  0
  128.5580  130.5360   66.4120 N   0  0  0  0  0  0  0  0  0  0  0  0
  1  2  1  0
  2  3  2  0
  3  4  1  0
  4  5  2  0
  5  6  1  0
  6  7  2  0
  7  8  1  0
  8  9  1  0
  9 10  2  0
 10 11  1  0
 11 12  1  0
 12 13  2  0
 13 14  1  0
 14 15  2  0
 15 16  1  0
 16 17  1  0
 17 18  2  0
 18 19  1  0
 19 20  2  0
 20 21  1  0
 21 22  2  0
 16 23  1  0
 23 24  2  0
 24 25  1  0
 25 26  2  0
 26 27  1  0
 27 28  2  0
 28 29  1  0
 29 30  2  0
 29 31  1  0
 31 32  1  0
 32 33  1  0
 33 34  1  0
 12 35  1  0
 35 36  2  0
 35 37  1  0
 37 38  1  0
  7  2  1  0
 38  8  2  0
 37 10  1  0
 24 14  1  0
 30 25  1  0
 22 17  1  0
 34 28  1  0
M  END
>  <Binding energies>  (48) 
[-9.78]

>  <Ligand effiencies>  (48) 
[-0.2573684210526316]

>  <Interactions>  (48) 
["V-A:GLU:543:CG:4902, V-B:ILE:369:CD1:8206, V-A:TYR:539:CE2:4871, V-A:LEU:363:CD1:3184, V-A:ALA:541:CB:4887, V-A:GLU:543:CD:4903, V-A:PRO:540:CB:4880, V-A:PRO:540:CA:4878, V-A:PRO:540:N:4879, V-A:ILE:538:CD1:4860, V-A:TYR:539:CG:4867, V-B:ARG:545:CZ:9894, V-A:TYR:539:CD1:4868, V-A:TYR:539:C:4862, V-A:ILE:538:CA:4855, H-B:TYR:484:OH:9315, V-B:GLU:543:C:9870, V-A:HIS:456:CE1:4064, V-B:GLU:543:CD:9876, V-B:HIS:456:CE1:9037, V-B:ARG:545:CG:9890, V-B:GLU:543:CB:9874, V-A:GLU:543:CB:4901, V-A:TYR:539:CZ:4872, V-A:ILE:538:CG2:4858, V-A:TYR:539:CE1:4870, V-B:ASP:366:CG:8180, V-B:ASP:366:CA:8177, V-B:TYR:484:CZ:9314, V-B:TYR:484:CE1:9312, V-B:GLY:453:CA:9011, V-B:GLY:453:C:9009"]

$$$$
RR2_Rahimova_2017
     RDKit          3D

 46 50  0  0  0  0  0  0  0  0999 V2000
  133.1190  122.4180   61.1130 C   0  0  0  0  0  0  0  0  0  0  0  0
  133.4970  122.2420   59.7520 O   0  0  0  0  0  0  0  0  0  0  0  0
  132.8190  122.9390   58.7680 C   0  0  0  0  0  0  0  0  0  0  0  0
  133.4380  123.6250   57.7150 C   0  0  0  0  0  0  0  0  0  0  0  0
  132.6720  124.3020   56.7710 C   0  0  0  0  0  0  0  0  0  0  0  0
  131.2730  124.3130   56.8580 C   0  0  0  0  0  0  0  0  0  0  0  0
  130.4620  125.0650   55.8210 C   0  0  0  0  0  0  0  0  0  0  0  0
  130.1660  124.5240   54.7490 O   0  0  0  0  0  0  0  0  0  0  0  0
  130.1150  126.3320   56.1470 N   0  0  0  0  0  0  0  0  0  0  0  0
  129.4510  127.0970   55.1940 N   0  0  0  0  0  0  0  0  0  0  0  0
  129.7730  128.4010   55.0860 C   0  0  0  0  0  0  0  0  0  0  0  0
  130.4840  129.0210   55.8830 O   0  0  0  0  0  0  0  0  0  0  0  0
  129.2100  129.1220   53.8530 C   0  0  0  0  0  0  0  0  0  0  0  0
  128.6580  130.8420   54.1470 S   0  0  0  0  0  0  0  0  0  0  0  0
  127.2450  130.5600   55.1700 C   0  0  0  0  0  0  0  0  0  0  0  0
  126.0580  130.2890   54.6890 N   0  0  0  0  0  0  0  0  0  0  0  0
  125.1820  130.2020   55.7620 N   0  0  0  0  0  0  0  0  0  0  0  0
  125.8800  130.3930   56.8560 C   0  0  0  0  0  0  0  0  0  0  0  0
  125.2850  130.3570   58.2270 C   0  0  0  0  0  0  0  0  0  0  0  0
  123.9940  130.8470   58.4370 C   0  0  0  0  0  0  0  0  0  0  0  0
  123.4340  130.8240   59.7100 C   0  0  0  0  0  0  0  0  0  0  0  0
  124.1560  130.2950   60.7860 C   0  0  0  0  0  0  0  0  0  0  0  0
  123.6470  130.2560   62.0930 N   0  0  0  0  0  0  0  0  0  0  0  0
  124.0720  131.4070   63.3790 S   0  0  0  0  0  0  0  0  0  0  0  0
  123.8640  130.6930   64.6440 O   0  0  0  0  0  0  0  0  0  0  0  0
  123.3780  132.6710   63.1060 O   0  0  0  0  0  0  0  0  0  0  0  0
  125.8370  131.6630   63.2150 C   0  0  0  0  0  0  0  0  0  0  0  0
  126.3340  132.7810   62.5410 C   0  0  0  0  0  0  0  0  0  0  0  0
  127.7090  132.9530   62.4100 C   0  0  0  0  0  0  0  0  0  0  0  0
  128.5860  132.0140   62.9580 C   0  0  0  0  0  0  0  0  0  0  0  0
  130.0850  132.1960   62.8020 C   0  0  0  0  0  0  0  0  0  0  0  0
  128.0860  130.8950   63.6280 C   0  0  0  0  0  0  0  0  0  0  0  0
  126.7110  130.7200   63.7580 C   0  0  0  0  0  0  0  0  0  0  0  0
  125.4450  129.8030   60.5740 C   0  0  0  0  0  0  0  0  0  0  0  0
  126.0070  129.8310   59.3020 C   0  0  0  0  0  0  0  0  0  0  0  0
  127.2090  130.6330   56.5500 N   0  0  0  0  0  0  0  0  0  0  0  0
  128.2720  130.9280   57.4290 C   0  0  0  0  0  0  0  0  0  0  0  0
  128.6710  132.2520   57.6210 C   0  0  0  0  0  0  0  0  0  0  0  0
  129.7170  132.5370   58.4940 C   0  0  0  0  0  0  0  0  0  0  0  0
  130.3710  131.5110   59.1770 C   0  0  0  0  0  0  0  0  0  0  0  0
  131.3970  131.8910   60.0200 O   0  0  0  0  0  0  0  0  0  0  0  0
  132.3120  130.9070   60.4910 C   0  0  0  0  0  0  0  0  0  0  0  0
  129.9630  130.1820   58.9780 C   0  0  0  0  0  0  0  0  0  0  0  0
  128.9160  129.8920   58.1080 C   0  0  0  0  0  0  0  0  0  0  0  0
  130.6600  123.6190   57.9120 C   0  0  0  0  0  0  0  0  0  0  0  0
  131.4280  122.9410   58.8540 C   0  0  0  0  0  0  0  0  0  0  0  0
  1  2  1  0
  2  3  1  0
  3  4  2  0
  4  5  1  0
  5  6  2  0
  6  7  1  0
  7  8  2  0
  7  9  1  0
  9 10  1  0
 10 11  1  0
 11 12  2  0
 11 13  1  0
 13 14  1  0
 14 15  1  0
 15 16  2  0
 16 17  1  0
 17 18  2  0
 18 19  1  0
 19 20  2  0
 20 21  1  0
 21 22  2  0
 22 23  1  0
 23 24  1  0
 24 25  2  0
 24 26  2  0
 24 27  1  0
 27 28  2  0
 28 29  1  0
 29 30  2  0
 30 31  1  0
 30 32  1  0
 32 33  2  0
 22 34  1  0
 34 35  2  0
 18 36  1  0
 36 37  1  0
 37 38  2  0
 38 39  1  0
 39 40  2  0
 40 41  1  0
 41 42  1  0
 40 43  1  0
 43 44  2  0
  6 45  1  0
 45 46  2  0
 46  3  1  0
 36 15  1  0
 44 37  1  0
 35 19  1  0
 33 27  1  0
M  END
>  <Binding energies>  (49) 
[-10.22]

>  <Ligand effiencies>  (49) 
[-0.20857142857142857]

>  <Interactions>  (49) 
["V-A:GLU:543:CG:4902, V-A:TYR:539:CE2:4871, V-A:TYR:531:CZ:4789, V-B:LEU:475:CD2:9226, V-A:ALA:541:CB:4887, V-A:ALA:541:CA:4885, V-A:GLU:543:CD:4903, V-A:PRO:540:CB:4880, V-A:PRO:540:CA:4878, V-A:PRO:540:N:4879, V-A:TYR:539:CD1:4868, V-A:TYR:539:C:4862, H-B:TYR:484:OH:9315, V-A:TYR:531:CE1:4787, V-A:MET:535:CB:4827, V-A:MET:535:CG:4828, V-A:TYR:539:CZ:4872, V-A:TYR:539:CE1:4870, V-B:TYR:539:CE2:9844, V-B:TYR:539:CZ:9845, V-A:ILE:369:CD1:3234, H-A:LYS:534:NZ:4818, H-A:TYR:531:OH:4790, V-B:ASP:366:CB:8179, V-B:ASP:366:CG:8180, H-B:TYR:539:OH:9846, H-A:TYR:539:OH:4873, H-B:TYR:531:OH:9763, V-B:ASP:366:C:8175, H-B:GLY:454:N:9017, V-B:ASP:366:CA:8177, V-A:ASP:366:CA:3205, V-A:ASP:366:CB:3207, V-A:ASP:366:C:3203, V-A:ILE:369:CB:3231, V-B:GLY:454:CA:9016, H-B:ASP:366:OD1:8181, H-B:MET:535:SD:9802"]

$$$$
RR33_Rahimova_2017
     RDKit          3D

 18 19  0  0  0  0  0  0  0  0999 V2000
  131.3220  130.0410   53.6830 C   0  0  0  0  0  0  0  0  0  0  0  0
  132.3030  131.2110   53.5570 C   0  0  0  0  0  0  0  0  0  0  0  0
  132.6780  131.6370   54.8640 O   0  0  0  0  0  0  0  0  0  0  0  0
  131.6960  131.9550   55.7810 C   0  0  0  0  0  0  0  0  0  0  0  0
  131.7250  131.2590   56.9890 C   0  0  0  0  0  0  0  0  0  0  0  0
  130.7730  131.5090   57.9740 C   0  0  0  0  0  0  0  0  0  0  0  0
  129.7740  132.4640   57.7630 C   0  0  0  0  0  0  0  0  0  0  0  0
  128.7510  132.7310   58.8210 C   0  0  0  0  0  0  0  0  0  0  0  0
  128.8140  133.6140   59.7930 N   0  0  0  0  0  0  0  0  0  0  0  0
  127.6810  133.4770   60.4630 C   0  0  0  0  0  0  0  0  0  0  0  0
  127.3790  134.3450   61.6660 C   0  0  0  0  0  0  0  0  0  0  0  0
  128.2490  135.5110   61.6890 N   0  0  0  0  0  0  0  0  0  0  0  0
  127.4920  136.7210   61.4120 C   0  0  0  0  0  0  0  0  0  0  0  0
  126.9100  132.4800   59.8780 C   0  0  0  0  0  0  0  0  0  0  0  0
  125.5580  131.8690   60.1520 C   0  0  0  0  0  0  0  0  0  0  0  0
  127.6050  132.0030   58.8200 O   0  0  0  0  0  0  0  0  0  0  0  0
  129.7430  133.1670   56.5550 C   0  0  0  0  0  0  0  0  0  0  0  0
  130.6950  132.9160   55.5690 C   0  0  0  0  0  0  0  0  0  0  0  0
  1  2  1  0
  2  3  1  0
  3  4  1  0
  4  5  2  0
  5  6  1  0
  6  7  2  0
  7  8  1  0
  8  9  2  0
  9 10  1  0
 10 11  1  0
 11 12  1  0
 12 13  1  0
 10 14  2  0
 14 15  1  0
 14 16  1  0
  7 17  1  0
 17 18  2  0
 18  4  1  0
 16  8  1  0
M  END
>  <Binding energies>  (50) 
[-5.62]

>  <Ligand effiencies>  (50) 
[-0.29578947368421055]

>  <Interactions>  (50) 
["H-A:ALA:541:N:4886, V-A:TYR:539:CE2:4871, V-A:LEU:363:CD1:3184, V-A:TYR:531:CZ:4789, V-A:TYR:539:CD2:4869, V-B:LEU:475:CD2:9226, V-A:PRO:540:CB:4880, V-A:PRO:540:CA:4878, V-A:PRO:540:CD:4882, V-A:PRO:540:N:4879, V-B:LEU:475:CD1:9225, V-A:ILE:538:CD1:4860, V-A:TYR:539:CG:4867, V-A:TYR:539:CD1:4868, V-A:TYR:539:C:4862, H-A:TYR:539:O:4863, V-A:ILE:538:CA:4855, V-A:TYR:531:CE1:4787, V-A:TYR:539:CZ:4872, V-A:TYR:539:CE1:4870, V-B:TRP:381:CZ2:8337, V-B:TRP:381:CH2:8339, V-A:TYR:539:CA:4864, V-B:PRO:482:CB:9293, V-B:PRO:482:CG:9294, V-B:TRP:381:CZ3:8338, H-A:PRO:540:O:4877, V-B:TRP:381:CE2:8334"]

$$$$
RR3_Rahimova_2017
     RDKit          3D

 38 44  0  0  0  0  0  0  0  0999 V2000
  128.8860  135.5250   74.5210 C   0  0  0  0  0  0  0  0  0  0  0  0
  129.6190  135.2080   73.3820 C   0  0  0  0  0  0  0  0  0  0  0  0
  129.7210  133.8820   72.9740 C   0  0  0  0  0  0  0  0  0  0  0  0
  129.0920  132.8560   73.6960 C   0  0  0  0  0  0  0  0  0  0  0  0
  129.2010  131.4300   73.2550 C   0  0  0  0  0  0  0  0  0  0  0  0
  130.3710  130.9500   72.6500 C   0  0  0  0  0  0  0  0  0  0  0  0
  130.4700  129.6240   72.2370 C   0  0  0  0  0  0  0  0  0  0  0  0
  129.3960  128.7480   72.4140 C   0  0  0  0  0  0  0  0  0  0  0  0
  129.4950  127.3230   71.9670 C   0  0  0  0  0  0  0  0  0  0  0  0
  129.9750  126.3990   72.7930 N   0  0  0  0  0  0  0  0  0  0  0  0
  129.9020  125.2540   72.1580 C   0  0  0  0  0  0  0  0  0  0  0  0
  130.3250  123.9650   72.6970 C   0  0  0  0  0  0  0  0  0  0  0  0
  131.4430  123.7420   73.4830 C   0  0  0  0  0  0  0  0  0  0  0  0
  131.5300  122.4160   73.8170 N   0  0  0  0  0  0  0  0  0  0  0  0
  130.4770  121.7230   73.2620 C   0  0  0  0  0  0  0  0  0  0  0  0
  130.1450  120.3650   73.3230 C   0  0  0  0  0  0  0  0  0  0  0  0
  128.9960  119.9640   72.6420 C   0  0  0  0  0  0  0  0  0  0  0  0
  128.2110  120.8660   71.9320 C   0  0  0  0  0  0  0  0  0  0  0  0
  128.5420  122.2190   71.8710 C   0  0  0  0  0  0  0  0  0  0  0  0
  129.6920  122.6760   72.5400 C   0  0  0  0  0  0  0  0  0  0  0  0
  129.3780  125.4220   70.9060 N   0  0  0  0  0  0  0  0  0  0  0  0
  129.1220  126.7580   70.7350 C   0  0  0  0  0  0  0  0  0  0  0  0
  128.5960  127.3270   69.4580 C   0  0  0  0  0  0  0  0  0  0  0  0
  129.3420  128.2730   68.7540 C   0  0  0  0  0  0  0  0  0  0  0  0
  128.8500  128.8150   67.5710 C   0  0  0  0  0  0  0  0  0  0  0  0
  127.6050  128.4200   67.0600 C   0  0  0  0  0  0  0  0  0  0  0  0
  127.0700  129.0190   65.7980 C   0  0  0  0  0  0  0  0  0  0  0  0
  125.7700  128.7270   65.3570 C   0  0  0  0  0  0  0  0  0  0  0  0
  125.2710  129.2880   64.1840 C   0  0  0  0  0  0  0  0  0  0  0  0
  126.0700  130.1500   63.4370 C   0  0  0  0  0  0  0  0  0  0  0  0
  127.3610  130.4540   63.8560 C   0  0  0  0  0  0  0  0  0  0  0  0
  127.8570  129.8900   65.0280 C   0  0  0  0  0  0  0  0  0  0  0  0
  126.8740  127.4560   67.7680 C   0  0  0  0  0  0  0  0  0  0  0  0
  127.3630  126.9120   68.9520 C   0  0  0  0  0  0  0  0  0  0  0  0
  128.2320  129.2130   73.0280 C   0  0  0  0  0  0  0  0  0  0  0  0
  128.1350  130.5390   73.4390 C   0  0  0  0  0  0  0  0  0  0  0  0
  128.3590  133.1990   74.8420 C   0  0  0  0  0  0  0  0  0  0  0  0
  128.2550  134.5250   75.2530 C   0  0  0  0  0  0  0  0  0  0  0  0
  1  2  2  0
  2  3  1  0
  3  4  2  0
  4  5  1  0
  5  6  2  0
  6  7  1  0
  7  8  2  0
  8  9  1  0
  9 10  1  0
 10 11  2  0
 11 12  1  0
 12 13  2  0
 13 14  1  0
 14 15  1  0
 15 16  2  0
 16 17  1  0
 17 18  2  0
 18 19  1  0
 19 20  2  0
 11 21  1  0
 21 22  1  0
 22 23  1  0
 23 24  2  0
 24 25  1  0
 25 26  2  0
 26 27  1  0
 27 28  2  0
 28 29  1  0
 29 30  2  0
 30 31  1  0
 31 32  2  0
 26 33  1  0
 33 34  2  0
  8 35  1  0
 35 36  2  0
  4 37  1  0
 37 38  2  0
 38  1  1  0
 36  5  1  0
 22  9  2  0
 34 23  1  0
 20 12  1  0
 32 27  1  0
 20 15  1  0
M  END
>  <Binding energies>  (51) 
[-10.08]

>  <Ligand effiencies>  (51) 
[-0.252]

>  <Interactions>  (51) 
["V-A:GLU:543:CG:4902, V-B:ARG:545:CZ:9894, V-B:ASP:473:CG:9207, V-B:GLY:544:CA:9882, V-B:GLU:543:C:9870, V-A:HIS:456:CG:4061, V-A:HIS:456:CE1:4064, H-B:LYS:547:NZ:9919, V-A:TYR:484:CB:4336, V-A:HIS:456:CB:4060, V-B:HIS:456:CD2:9035, V-B:ASP:473:CB:9206, V-A:ASP:473:CG:4235, V-A:ASP:473:CB:4234, V-A:LYS:547:CE:4945, V-B:HIS:456:CE1:9037, V-B:ARG:545:CG:9890, V-A:GLY:544:C:4907, V-B:GLU:543:CB:9874, V-A:GLU:543:C:4897, V-A:GLU:543:CB:4901, V-A:GLY:544:CA:4909, V-B:TYR:484:CB:9308, H-B:GLU:543:O:9871, V-B:TYR:484:C:9304, H-A:ASP:473:OD1:4236, H-A:ASP:473:OD2:4237"]

$$$$
RR4_Rahimova_2017
     RDKit          3D

 40 44  0  0  0  0  0  0  0  0999 V2000
  127.9460  129.6050   74.7990 C   0  0  0  0  0  0  0  0  0  0  0  0
  128.9720  128.8080   74.2190 O   0  0  0  0  0  0  0  0  0  0  0  0
  129.0130  128.6540   72.8470 C   0  0  0  0  0  0  0  0  0  0  0  0
  127.8410  128.2230   72.2300 C   0  0  0  0  0  0  0  0  0  0  0  0
  127.7890  128.0420   70.8520 C   0  0  0  0  0  0  0  0  0  0  0  0
  128.9120  128.2850   70.0470 C   0  0  0  0  0  0  0  0  0  0  0  0
  128.8520  128.0870   68.5590 C   0  0  0  0  0  0  0  0  0  0  0  0
  127.8750  128.6810   67.7540 C   0  0  0  0  0  0  0  0  0  0  0  0
  127.8640  128.4690   66.3700 C   0  0  0  0  0  0  0  0  0  0  0  0
  126.8070  129.1590   65.5710 C   0  0  0  0  0  0  0  0  0  0  0  0
  125.4560  128.9420   65.8590 C   0  0  0  0  0  0  0  0  0  0  0  0
  124.4640  129.5900   65.1280 C   0  0  0  0  0  0  0  0  0  0  0  0
  124.8020  130.4710   64.1010 C   0  0  0  0  0  0  0  0  0  0  0  0
  123.7510  131.0680   63.4300 O   0  0  0  0  0  0  0  0  0  0  0  0
  123.4660  130.6710   62.0930 C   0  0  0  0  0  0  0  0  0  0  0  0
  126.1560  130.6960   63.8120 C   0  0  0  0  0  0  0  0  0  0  0  0
  127.1460  130.0470   64.5450 C   0  0  0  0  0  0  0  0  0  0  0  0
  128.8480  127.6180   65.8100 C   0  0  0  0  0  0  0  0  0  0  0  0
  128.8830  127.3630   64.3660 C   0  0  0  0  0  0  0  0  0  0  0  0
  128.9110  127.1610   63.2270 N   0  0  0  0  0  0  0  0  0  0  0  0
  129.7880  127.0270   66.6850 C   0  0  0  0  0  0  0  0  0  0  0  0
  131.0830  125.9250   66.1600 S   0  0  0  0  0  0  0  0  0  0  0  0
  130.3110  124.3350   65.7070 C   0  0  0  0  0  0  0  0  0  0  0  0
  130.7010  123.8100   64.3190 C   0  0  0  0  0  0  0  0  0  0  0  0
  130.9900  122.6220   64.1570 O   0  0  0  0  0  0  0  0  0  0  0  0
  130.7070  124.7460   63.3410 N   0  0  0  0  0  0  0  0  0  0  0  0
  131.0130  124.5850   61.9870 C   0  0  0  0  0  0  0  0  0  0  0  0
  129.8200  124.7260   60.7230 S   0  0  0  0  0  0  0  0  0  0  0  0
  131.0020  124.3940   59.4940 C   0  0  0  0  0  0  0  0  0  0  0  0
  132.2740  124.1780   60.0470 C   0  0  0  0  0  0  0  0  0  0  0  0
  132.2810  124.3020   61.4580 C   0  0  0  0  0  0  0  0  0  0  0  0
  133.4810  124.1430   62.2730 C   0  0  0  0  0  0  0  0  0  0  0  0
  134.4330  124.0160   62.9190 N   0  0  0  0  0  0  0  0  0  0  0  0
  133.4970  123.9020   59.1630 C   0  0  0  0  0  0  0  0  0  0  0  0
  133.2090  124.2940   57.6960 C   0  0  0  0  0  0  0  0  0  0  0  0
  131.8390  123.7810   57.2170 C   0  0  0  0  0  0  0  0  0  0  0  0
  130.6750  124.4150   58.0070 C   0  0  0  0  0  0  0  0  0  0  0  0
  129.7950  127.2750   68.0160 N   0  0  0  0  0  0  0  0  0  0  0  0
  130.0870  128.7230   70.6770 C   0  0  0  0  0  0  0  0  0  0  0  0
  130.1430  128.9050   72.0550 C   0  0  0  0  0  0  0  0  0  0  0  0
  1  2  1  0
  2  3  1  0
  3  4  2  0
  4  5  1  0
  5  6  2  0
  6  7  1  0
  7  8  2  0
  8  9  1  0
  9 10  1  0
 10 11  2  0
 11 12  1  0
 12 13  2  0
 13 14  1  0
 14 15  1  0
 13 16  1  0
 16 17  2  0
  9 18  2  0
 18 19  1  0
 19 20  3  0
 18 21  1  0
 21 22  1  0
 22 23  1  0
 23 24  1  0
 24 25  2  0
 24 26  1  0
 26 27  1  0
 27 28  1  0
 28 29  1  0
 29 30  2  0
 30 31  1  0
 31 32  1  0
 32 33  3  0
 30 34  1  0
 34 35  1  0
 35 36  1  0
 36 37  1  0
 21 38  2  0
  6 39  1  0
 39 40  2  0
 40  3  1  0
 38  7  1  0
 17 10  1  0
 31 27  2  0
 37 29  1  0
M  END
>  <Binding energies>  (52) 
[-10.02]

>  <Ligand effiencies>  (52) 
[-0.24439024390243902]

>  <Interactions>  (52) 
["V-B:ILE:369:CD1:8206, V-A:TYR:531:CZ:4789, V-A:GLU:543:CD:4903, V-B:ARG:545:CZ:9894, V-A:HIS:456:CE1:4064, H-B:LYS:547:NZ:9919, V-B:HIS:456:CD2:9035, H-A:LYS:547:NZ:4946, V-B:GLU:543:CD:9876, V-B:HIS:456:CE1:9037, V-B:ARG:545:CD:9891, V-B:GLU:543:CG:9875, V-B:HIS:456:CG:9033, V-B:ARG:545:CG:9890, H-A:HIS:456:NE2:4065, V-A:TYR:484:CZ:4342, V-A:TYR:484:CE1:4340, V-B:TYR:539:CE2:9844, V-B:TYR:539:CZ:9845, V-A:ILE:369:CD1:3234, V-A:ASP:366:CG:3208, H-A:TYR:484:OH:4343, H-B:GLY:454:N:9017, V-A:ASP:366:CA:3205, V-A:ASP:366:CB:3207, V-A:ASP:366:C:3203, H-B:GLU:543:OE2:9878, H-A:GLY:454:N:4045"]

$$$$
RR6_Rahimova_2017
     RDKit          3D

 38 41  0  0  0  0  0  0  0  0999 V2000
  129.7710  132.6860   54.4660 C   0  0  0  0  0  0  0  0  0  0  0  0
  130.0390  133.3160   55.7100 O   0  0  0  0  0  0  0  0  0  0  0  0
  130.3990  132.5890   56.7990 C   0  0  0  0  0  0  0  0  0  0  0  0
  131.5200  132.0920   56.9440 O   0  0  0  0  0  0  0  0  0  0  0  0
  129.2980  132.4490   57.8100 C   0  0  0  0  0  0  0  0  0  0  0  0
  128.2720  131.5030   57.6670 C   0  0  0  0  0  0  0  0  0  0  0  0
  127.2600  131.4030   58.6190 C   0  0  0  0  0  0  0  0  0  0  0  0
  127.2560  132.2550   59.7330 C   0  0  0  0  0  0  0  0  0  0  0  0
  126.2690  132.2590   60.7370 N   0  0  0  0  0  0  0  0  0  0  0  0
  125.7980  133.2910   61.4700 C   0  0  0  0  0  0  0  0  0  0  0  0
  126.1630  134.4630   61.3710 O   0  0  0  0  0  0  0  0  0  0  0  0
  124.7690  132.9240   62.5450 C   0  0  0  0  0  0  0  0  0  0  0  0
  124.5050  131.1280   62.7240 S   0  0  0  0  0  0  0  0  0  0  0  0
  125.9960  130.4580   63.4300 C   0  0  0  0  0  0  0  0  0  0  0  0
  127.0900  130.5780   62.6400 N   0  0  0  0  0  0  0  0  0  0  0  0
  128.2920  130.1300   63.0820 C   0  0  0  0  0  0  0  0  0  0  0  0
  129.4640  130.3560   62.1730 C   0  0  0  0  0  0  0  0  0  0  0  0
  130.1460  131.5830   62.1640 C   0  0  0  0  0  0  0  0  0  0  0  0
  131.2250  131.7970   61.3110 C   0  0  0  0  0  0  0  0  0  0  0  0
  131.6470  130.7840   60.4510 C   0  0  0  0  0  0  0  0  0  0  0  0
  132.8170  131.0250   59.5160 C   0  0  0  0  0  0  0  0  0  0  0  0
  130.9850  129.5580   60.4460 C   0  0  0  0  0  0  0  0  0  0  0  0
  129.9080  129.3490   61.3010 C   0  0  0  0  0  0  0  0  0  0  0  0
  128.4140  129.5320   64.3410 C   0  0  0  0  0  0  0  0  0  0  0  0
  127.2950  129.3920   65.1750 C   0  0  0  0  0  0  0  0  0  0  0  0
  127.5000  128.7620   66.5130 C   0  0  0  0  0  0  0  0  0  0  0  0
  128.4930  129.2440   67.3720 C   0  0  0  0  0  0  0  0  0  0  0  0
  128.6800  128.6720   68.6280 C   0  0  0  0  0  0  0  0  0  0  0  0
  127.8770  127.6150   69.0520 C   0  0  0  0  0  0  0  0  0  0  0  0
  128.1320  127.1130   70.3130 O   0  0  0  0  0  0  0  0  0  0  0  0
  129.3000  127.5400   71.0060 C   0  0  0  0  0  0  0  0  0  0  0  0
  126.8750  127.1320   68.1960 C   0  0  0  0  0  0  0  0  0  0  0  0
  126.6900  127.7060   66.9410 C   0  0  0  0  0  0  0  0  0  0  0  0
  126.0440  129.8630   64.7070 C   0  0  0  0  0  0  0  0  0  0  0  0
  124.8290  129.7220   65.5160 C   0  0  0  0  0  0  0  0  0  0  0  0
  123.8710  129.6120   66.1560 N   0  0  0  0  0  0  0  0  0  0  0  0
  128.2830  133.1860   59.8880 C   0  0  0  0  0  0  0  0  0  0  0  0
  129.2920  133.2870   58.9340 C   0  0  0  0  0  0  0  0  0  0  0  0
  1  2  1  0
  2  3  1  0
  3  4  2  0
  3  5  1  0
  5  6  2  0
  6  7  1  0
  7  8  2  0
  8  9  1  0
  9 10  1  0
 10 11  2  0
 10 12  1  0
 12 13  1  0
 13 14  1  0
 14 15  2  0
 15 16  1  0
 16 17  1  0
 17 18  2  0
 18 19  1  0
 19 20  2  0
 20 21  1  0
 20 22  1  0
 22 23  2  0
 16 24  2  0
 24 25  1  0
 25 26  1  0
 26 27  2  0
 27 28  1  0
 28 29  2  0
 29 30  1  0
 30 31  1  0
 29 32  1  0
 32 33  2  0
 25 34  2  0
 34 35  1  0
 35 36  3  0
  8 37  1  0
 37 38  2  0
 38  5  1  0
 34 14  1  0
 23 17  1  0
 33 26  1  0
M  END
>  <Binding energies>  (53) 
[-8.49]

>  <Ligand effiencies>  (53) 
[-0.21769230769230768]

>  <Interactions>  (53) 
["V-A:GLU:543:CG:4902, V-A:TYR:539:CE2:4871, V-A:TYR:539:CD2:4869, V-B:LEU:475:CD2:9226, V-A:GLU:543:CD:4903, V-A:PRO:540:CB:4880, V-A:PRO:540:CA:4878, V-A:PRO:540:CD:4882, V-A:PRO:540:N:4879, V-A:TYR:539:CG:4867, H-A:TYR:539:N:4865, V-B:ARG:545:CZ:9894, V-A:TYR:539:CD1:4868, V-A:TYR:539:C:4862, V-A:ILE:538:CA:4855, V-B:GLU:543:C:9870, V-A:HIS:456:CE1:4064, V-B:GLU:543:CD:9876, V-B:HIS:456:CE1:9037, V-B:ARG:545:CG:9890, V-B:GLU:543:CB:9874, V-A:GLU:543:CB:4901, V-A:TYR:539:CZ:4872, V-A:TYR:539:CE1:4870, V-A:PRO:540:C:4876, H-B:ARG:545:NE:9892"]

$$$$
RR7_Rahimova_2017
     RDKit          3D

 47 53  0  0  0  0  0  0  0  0999 V2000
  124.5660  133.1010   60.8560 C   0  0  0  0  0  0  0  0  0  0  0  0
  125.8180  133.7730   60.7460 O   0  0  0  0  0  0  0  0  0  0  0  0
  126.8800  133.1240   60.1470 C   0  0  0  0  0  0  0  0  0  0  0  0
  126.6000  131.9020   59.5380 C   0  0  0  0  0  0  0  0  0  0  0  0
  127.6040  131.1770   58.9050 C   0  0  0  0  0  0  0  0  0  0  0  0
  128.9230  131.6550   58.8760 C   0  0  0  0  0  0  0  0  0  0  0  0
  130.0630  130.8800   58.1450 C   0  0  0  0  0  0  0  0  0  0  0  0
  129.5700  129.5390   57.9290 O   0  0  0  0  0  0  0  0  0  0  0  0
  129.3820  128.6570   59.0410 C   0  0  0  0  0  0  0  0  0  0  0  0
  130.6650  127.8360   59.2520 C   0  0  1  0  0  0  0  0  0  0  0  0
  130.9620  127.8880   60.6450 O   0  0  0  0  0  0  0  0  0  0  0  0
  131.0040  126.6120   61.2180 C   0  0  1  0  0  0  0  0  0  0  0  0
  130.5390  126.6660   62.5910 N   0  0  0  0  0  0  0  0  0  0  0  0
  129.4090  127.2960   63.0840 C   0  0  0  0  0  0  0  0  0  0  0  0
  129.2490  127.2260   64.3820 N   0  0  0  0  0  0  0  0  0  0  0  0
  130.3580  126.5480   64.8110 C   0  0  0  0  0  0  0  0  0  0  0  0
  130.7880  126.1620   66.0960 C   0  0  0  0  0  0  0  0  0  0  0  0
  129.9810  126.4830   67.2030 N   0  0  0  0  0  0  0  0  0  0  0  0
  130.1340  127.4770   68.1090 C   0  0  0  0  0  0  0  0  0  0  0  0
  131.0680  128.2830   68.1060 O   0  0  0  0  0  0  0  0  0  0  0  0
  129.0800  127.5420   69.1950 C   0  0  0  0  0  0  0  0  0  0  0  0
  127.7490  127.2150   68.8900 C   0  0  0  0  0  0  0  0  0  0  0  0
  126.7660  127.2630   69.8740 C   0  0  0  0  0  0  0  0  0  0  0  0
  127.1040  127.6340   71.1710 C   0  0  0  0  0  0  0  0  0  0  0  0
  128.4190  127.9580   71.4950 C   0  0  0  0  0  0  0  0  0  0  0  0
  129.4040  127.9120   70.5110 C   0  0  0  0  0  0  0  0  0  0  0  0
  131.9730  125.4930   66.2300 N   0  0  0  0  0  0  0  0  0  0  0  0
  132.6850  125.2330   65.1030 C   0  0  0  0  0  0  0  0  0  0  0  0
  132.3630  125.5540   63.8210 N   0  0  0  0  0  0  0  0  0  0  0  0
  131.1950  126.2020   63.7200 C   0  0  0  0  0  0  0  0  0  0  0  0
  130.1760  125.7290   60.2920 C   0  0  0  0  0  0  0  0  0  0  0  0
  130.5340  126.3370   58.9470 C   0  0  2  0  0  0  0  0  0  0  0  0
  131.7280  125.7880   58.4150 O   0  0  0  0  0  0  0  0  0  0  0  0
  130.3810  131.4760   56.7480 C   0  0  0  0  0  0  0  0  0  0  0  0
  130.1170  130.7350   55.5850 C   0  0  0  0  0  0  0  0  0  0  0  0
  130.4100  131.2530   54.3280 C   0  0  0  0  0  0  0  0  0  0  0  0
  130.9720  132.5210   54.2200 C   0  0  0  0  0  0  0  0  0  0  0  0
  131.2430  133.2740   55.3590 C   0  0  0  0  0  0  0  0  0  0  0  0
  130.9500  132.7540   56.6160 C   0  0  0  0  0  0  0  0  0  0  0  0
  131.4260  130.8180   58.8920 C   0  0  0  0  0  0  0  0  0  0  0  0
  131.4950  131.0880   60.2680 C   0  0  0  0  0  0  0  0  0  0  0  0
  132.7110  131.0440   60.9430 C   0  0  0  0  0  0  0  0  0  0  0  0
  133.8760  130.7390   60.2450 C   0  0  0  0  0  0  0  0  0  0  0  0
  133.8330  130.4810   58.8780 C   0  0  0  0  0  0  0  0  0  0  0  0
  132.6160  130.5250   58.2050 C   0  0  0  0  0  0  0  0  0  0  0  0
  129.1970  132.8920   59.4780 C   0  0  0  0  0  0  0  0  0  0  0  0
  128.1910  133.6170   60.1110 C   0  0  0  0  0  0  0  0  0  0  0  0
  1  2  1  0
  2  3  1  0
  3  4  2  0
  4  5  1  0
  5  6  2  0
  6  7  1  0
  7  8  1  0
  8  9  1  0
 10  9  1  1
 10 11  1  0
 11 12  1  0
 12 13  1  1
 13 14  1  0
 14 15  2  0
 15 16  1  0
 16 17  2  0
 17 18  1  0
 18 19  1  0
 19 20  2  0
 19 21  1  0
 21 22  2  0
 22 23  1  0
 23 24  2  0
 24 25  1  0
 25 26  2  0
 17 27  1  0
 27 28  2  0
 28 29  1  0
 29 30  2  0
 12 31  1  0
 31 32  1  0
 32 33  1  1
  7 34  1  0
 34 35  2  0
 35 36  1  0
 36 37  2  0
 37 38  1  0
 38 39  2  0
  7 40  1  0
 40 41  2  0
 41 42  1  0
 42 43  2  0
 43 44  1  0
 44 45  2  0
  6 46  1  0
 46 47  2  0
 47  3  1  0
 32 10  1  0
 39 34  1  0
 45 40  1  0
 30 13  1  0
 30 16  1  0
 26 21  1  0
M  END
>  <Binding energies>  (54) 
[-10.2]

>  <Ligand effiencies>  (54) 
[-0.20816326530612245]

>  <Interactions>  (54) 
["V-B:ILE:369:CD1:8206, V-A:LEU:363:CB:3182, V-A:TYR:539:CE2:4871, V-A:LEU:363:CD1:3184, V-A:TYR:539:CD2:4869, V-A:LEU:363:CA:3180, V-A:ASN:362:C:3167, V-A:GLU:543:CD:4903, V-A:TYR:531:CE2:4788, V-A:PRO:540:CB:4880, V-A:PRO:540:CA:4878, V-A:PRO:540:CD:4882, V-A:PRO:540:N:4879, V-B:ILE:369:CG2:8204, V-A:ILE:538:CD1:4860, V-A:TYR:539:C:4862, V-A:ILE:538:CA:4855, V-B:GLU:543:C:9870, V-A:HIS:456:CE1:4064, V-B:HIS:456:CD2:9035, V-B:HIS:456:CE1:9037, V-B:HIS:456:CG:9033, V-B:GLU:543:CB:9874, H-A:HIS:456:NE2:4065, V-A:ILE:538:CB:4857, V-A:TYR:539:CZ:4872, V-A:ILE:538:CG2:4858, H-A:TYR:484:OH:4343, H-A:TYR:531:OH:4790, V-A:ASN:362:CB:3171, V-B:GLY:544:C:9880, H-A:ARG:545:NH2:4923, V-A:ILE:538:C:4853, H-B:GLU:543:O:9871"]

$$$$
RR8_A_Rahimova_2017
     RDKit          3D

 42 46  0  0  0  0  0  0  0  0999 V2000
  123.6990  131.8490   58.7750 O   0  0  0  0  0  0  0  0  0  0  0  0
  124.6160  131.6330   59.5750 C   0  0  0  0  0  0  0  0  0  0  0  0
  125.9470  131.7230   59.2680 O   0  0  0  0  0  0  0  0  0  0  0  0
  126.7210  132.6340   59.9990 C   0  0  1  0  0  0  0  0  0  0  0  0
  126.6820  132.3610   61.3690 O   0  0  0  0  0  0  0  0  0  0  0  0
  127.9460  132.5770   61.9890 C   0  0  2  0  0  0  0  0  0  0  0  0
  127.7610  133.5730   63.1470 C   0  0  0  0  0  0  0  0  0  0  0  0
  128.1830  132.9550   64.3550 O   0  0  0  0  0  0  0  0  0  0  0  0
  128.9900  131.8010   64.1630 C   0  0  0  0  0  0  0  0  0  0  0  0
  128.2560  130.5680   64.6690 C   0  0  0  0  0  0  0  0  0  0  0  0
  127.6170  129.7160   63.7640 C   0  0  0  0  0  0  0  0  0  0  0  0
  126.9500  128.5840   64.2240 C   0  0  0  0  0  0  0  0  0  0  0  0
  126.9270  128.3030   65.5890 C   0  0  0  0  0  0  0  0  0  0  0  0
  127.5660  129.1430   66.4980 C   0  0  0  0  0  0  0  0  0  0  0  0
  128.2340  130.2750   66.0370 C   0  0  0  0  0  0  0  0  0  0  0  0
  128.8390  133.0610   60.8390 C   0  0  1  0  0  0  0  0  0  0  0  0
  130.1670  132.5460   60.9050 O   0  0  0  0  0  0  0  0  0  0  0  0
  130.2840  131.1300   60.8390 C   0  0  0  0  0  0  0  0  0  0  0  0
  131.5520  130.7480   60.0880 C   0  0  0  0  0  0  0  0  0  0  0  0
  132.7960  130.8810   60.7130 C   0  0  0  0  0  0  0  0  0  0  0  0
  133.9590  130.5430   60.0290 C   0  0  0  0  0  0  0  0  0  0  0  0
  133.8790  130.0750   58.7180 C   0  0  0  0  0  0  0  0  0  0  0  0
  132.6450  129.9460   58.0850 C   0  0  0  0  0  0  0  0  0  0  0  0
  131.4810  130.2860   58.7690 C   0  0  0  0  0  0  0  0  0  0  0  0
  128.1830  132.4590   59.6100 C   0  0  2  0  0  0  0  0  0  0  0  0
  128.5540  133.1800   58.4380 O   0  0  0  0  0  0  0  0  0  0  0  0
  129.8710  132.9360   57.9560 C   0  0  0  0  0  0  0  0  0  0  0  0
  129.8200  132.5410   56.4880 C   0  0  0  0  0  0  0  0  0  0  0  0
  130.8740  132.8770   55.6310 C   0  0  0  0  0  0  0  0  0  0  0  0
  130.8270  132.5050   54.2900 C   0  0  0  0  0  0  0  0  0  0  0  0
  129.7290  131.7940   53.8090 C   0  0  0  0  0  0  0  0  0  0  0  0
  128.6790  131.4510   54.6570 C   0  0  0  0  0  0  0  0  0  0  0  0
  128.7250  131.8230   55.9980 C   0  0  0  0  0  0  0  0  0  0  0  0
  124.3770  131.2520   61.0070 C   0  0  0  0  0  0  0  0  0  0  0  0
  124.5830  129.9420   61.4700 C   0  0  0  0  0  0  0  0  0  0  0  0
  124.3510  129.6200   62.8040 C   0  0  0  0  0  0  0  0  0  0  0  0
  123.9080  130.5940   63.7090 C   0  0  0  0  0  0  0  0  0  0  0  0
  123.6630  130.2490   65.1300 N   0  0  0  0  0  0  0  0  0  0  0  0
  124.6040  130.2940   65.9170 O   0  0  0  0  0  0  0  0  0  0  0  0
  122.5280  129.9300   65.4710 O   0  0  0  0  0  0  0  0  0  0  0  0
  123.7010  131.8990   63.2450 C   0  0  0  0  0  0  0  0  0  0  0  0
  123.9320  132.2240   61.9120 C   0  0  0  0  0  0  0  0  0  0  0  0
  1  2  2  0
  2  3  1  0
  4  3  1  6
  4  5  1  0
  5  6  1  0
  6  7  1  1
  7  8  1  0
  8  9  1  0
  9 10  1  0
 10 11  2  0
 11 12  1  0
 12 13  2  0
 13 14  1  0
 14 15  2  0
  6 16  1  0
 16 17  1  1
 17 18  1  0
 18 19  1  0
 19 20  2  0
 20 21  1  0
 21 22  2  0
 22 23  1  0
 23 24  2  0
 16 25  1  0
 25 26  1  6
 26 27  1  0
 27 28  1  0
 28 29  2  0
 29 30  1  0
 30 31  2  0
 31 32  1  0
 32 33  2  0
  2 34  1  0
 34 35  2  0
 35 36  1  0
 36 37  2  0
 37 38  1  0
 38 39  2  0
 38 40  1  0
 37 41  1  0
 41 42  2  0
 25  4  1  0
 33 28  1  0
 42 34  1  0
 15 10  1  0
 24 19  1  0
M  CHG  2  38   1  40  -1
M  END
>  <Binding energies>  (55) 
[-10.7]

>  <Ligand effiencies>  (55) 
[-0.25476190476190474]

>  <Interactions>  (55) 
["V-A:GLU:543:CG:4902, V-B:ILE:369:CD1:8206, H-A:ALA:541:N:4886, V-A:TYR:539:CE2:4871, V-A:LEU:363:CD1:3184, V-A:TYR:531:CZ:4789, V-A:TYR:539:CD2:4869, V-B:LEU:475:CD2:9226, V-A:LEU:363:CA:3180, V-A:ALA:541:CB:4887, V-A:ASN:362:C:3167, V-A:GLU:543:CD:4903, V-A:TYR:531:CE2:4788, V-A:PRO:540:CB:4880, V-A:PRO:540:CA:4878, V-A:PRO:540:CD:4882, V-A:PRO:540:N:4879, V-B:LEU:475:CD1:9225, V-A:ILE:538:CD1:4860, V-B:ARG:545:CZ:9894, V-A:TYR:539:CD1:4868, V-A:TYR:539:C:4862, V-A:ILE:538:CA:4855, H-B:TYR:484:OH:9315, V-B:GLU:543:CD:9876, V-B:HIS:456:CE1:9037, V-B:ARG:545:CD:9891, V-A:GLU:543:CB:4901, V-A:MET:535:CB:4827, V-A:MET:535:CG:4828, V-A:TYR:539:CZ:4872, V-A:TYR:539:CE1:4870, V-A:ASP:366:CG:3208, V-B:ASP:366:CG:8180, H-A:TYR:539:OH:4873, H-B:ARG:545:NH1:9895, H-B:GLY:454:N:9017, H-B:ARG:545:NE:9892, V-A:ASP:366:CB:3207, V-A:ASN:362:CB:3171, V-B:TYR:484:CZ:9314, V-B:TYR:484:CE1:9312, V-B:GLY:454:CA:9016, V-B:GLY:453:CA:9011"]

$$$$
RR8_B_Rahimova_2017
     RDKit          3D

 42 46  0  0  0  0  0  0  0  0999 V2000
  128.9420  129.3330   63.4580 O   0  0  0  0  0  0  0  0  0  0  0  0
  128.0230  130.1220   63.2130 C   0  0  0  0  0  0  0  0  0  0  0  0
  128.0660  131.0780   62.2350 O   0  0  0  0  0  0  0  0  0  0  0  0
  129.3120  131.6470   61.9170 C   0  0  2  0  0  0  0  0  0  0  0  0
  129.3420  133.0210   62.1820 O   0  0  0  0  0  0  0  0  0  0  0  0
  128.9590  133.7810   61.0360 C   0  0  2  0  0  0  0  0  0  0  0  0
  127.7430  134.6570   61.3850 C   0  0  0  0  0  0  0  0  0  0  0  0
  126.6200  134.2210   60.6280 O   0  0  0  0  0  0  0  0  0  0  0  0
  125.6950  133.4150   61.3420 C   0  0  0  0  0  0  0  0  0  0  0  0
  125.1340  132.3510   60.4100 C   0  0  0  0  0  0  0  0  0  0  0  0
  125.9650  131.3240   59.9510 C   0  0  0  0  0  0  0  0  0  0  0  0
  125.4650  130.3610   59.0780 C   0  0  0  0  0  0  0  0  0  0  0  0
  124.1340  130.4260   58.6700 C   0  0  0  0  0  0  0  0  0  0  0  0
  123.2990  131.4420   59.1290 C   0  0  0  0  0  0  0  0  0  0  0  0
  123.8000  132.4080   59.9990 C   0  0  0  0  0  0  0  0  0  0  0  0
  128.7250  132.7310   59.9450 C   0  0  1  0  0  0  0  0  0  0  0  0
  129.1390  133.2470   58.6770 O   0  0  0  0  0  0  0  0  0  0  0  0
  128.6330  132.5930   57.5110 C   0  0  0  0  0  0  0  0  0  0  0  0
  129.6660  132.5270   56.3900 C   0  0  0  0  0  0  0  0  0  0  0  0
  130.9910  132.9000   56.6360 C   0  0  0  0  0  0  0  0  0  0  0  0
  131.9380  132.8080   55.6190 C   0  0  0  0  0  0  0  0  0  0  0  0
  131.5570  132.3490   54.3600 C   0  0  0  0  0  0  0  0  0  0  0  0
  130.2370  131.9810   54.1070 C   0  0  0  0  0  0  0  0  0  0  0  0
  129.2900  132.0690   55.1250 C   0  0  0  0  0  0  0  0  0  0  0  0
  129.5520  131.5390   60.4120 C   0  0  2  0  0  0  0  0  0  0  0  0
  129.0560  130.3330   59.8360 O   0  0  0  0  0  0  0  0  0  0  0  0
  129.9780  129.2550   59.7800 C   0  0  0  0  0  0  0  0  0  0  0  0
  131.3650  129.8260   59.5430 C   0  0  0  0  0  0  0  0  0  0  0  0
  132.2210  130.0710   60.6200 C   0  0  0  0  0  0  0  0  0  0  0  0
  133.4840  130.6130   60.3920 C   0  0  0  0  0  0  0  0  0  0  0  0
  133.8840  130.9090   59.0910 C   0  0  0  0  0  0  0  0  0  0  0  0
  133.0350  130.6660   58.0130 C   0  0  0  0  0  0  0  0  0  0  0  0
  131.7740  130.1240   58.2400 C   0  0  0  0  0  0  0  0  0  0  0  0
  126.7400  130.1560   63.9910 C   0  0  0  0  0  0  0  0  0  0  0  0
  125.6850  131.0110   63.6410 C   0  0  0  0  0  0  0  0  0  0  0  0
  124.5110  131.0270   64.3860 C   0  0  0  0  0  0  0  0  0  0  0  0
  124.3640  130.1980   65.5040 C   0  0  0  0  0  0  0  0  0  0  0  0
  123.1210  130.2360   66.3130 N   0  0  0  0  0  0  0  0  0  0  0  0
  123.1040  130.9150   67.3360 O   0  0  0  0  0  0  0  0  0  0  0  0
  122.1490  129.5900   65.9280 O   0  0  0  0  0  0  0  0  0  0  0  0
  125.4150  129.3390   65.8500 C   0  0  0  0  0  0  0  0  0  0  0  0
  126.5880  129.3170   65.1020 C   0  0  0  0  0  0  0  0  0  0  0  0
  1  2  2  0
  2  3  1  0
  4  3  1  6
  4  5  1  0
  5  6  1  0
  6  7  1  1
  7  8  1  0
  8  9  1  0
  9 10  1  0
 10 11  2  0
 11 12  1  0
 12 13  2  0
 13 14  1  0
 14 15  2  0
  6 16  1  0
 16 17  1  6
 17 18  1  0
 18 19  1  0
 19 20  2  0
 20 21  1  0
 21 22  2  0
 22 23  1  0
 23 24  2  0
 16 25  1  0
 25 26  1  6
 26 27  1  0
 27 28  1  0
 28 29  2  0
 29 30  1  0
 30 31  2  0
 31 32  1  0
 32 33  2  0
  2 34  1  0
 34 35  2  0
 35 36  1  0
 36 37  2  0
 37 38  1  0
 38 39  2  0
 38 40  1  0
 37 41  1  0
 41 42  2  0
 25  4  1  0
 33 28  1  0
 42 34  1  0
 15 10  1  0
 24 19  1  0
M  CHG  2  38   1  40  -1
M  END
>  <Binding energies>  (56) 
[-10.46]

>  <Ligand effiencies>  (56) 
[-0.24904761904761907]

>  <Interactions>  (56) 
["V-B:ILE:369:CD1:8206, H-A:ALA:541:N:4886, V-A:LEU:363:CB:3182, V-A:TYR:539:CE2:4871, V-A:LEU:363:CD1:3184, V-A:TYR:531:CZ:4789, V-A:TYR:539:CD2:4869, V-B:LEU:475:CD2:9226, V-A:LEU:363:CA:3180, V-A:ALA:541:CB:4887, V-A:ASN:362:C:3167, V-A:TYR:531:CE2:4788, V-A:PRO:540:CB:4880, V-A:PRO:540:CA:4878, V-A:PRO:540:CD:4882, V-A:PRO:540:N:4879, V-B:ILE:369:CG2:8204, V-A:ILE:538:CD1:4860, V-A:TYR:539:CG:4867, V-A:TYR:539:CD1:4868, V-A:TYR:539:C:4862, V-A:ILE:538:CA:4855, V-B:HIS:456:CE1:9037, V-B:ARG:545:CD:9891, V-B:ARG:545:CG:9890, V-A:TYR:539:CZ:4872, V-A:ILE:538:CG2:4858, V-A:TYR:539:CE1:4870, V-A:PRO:540:C:4876, V-B:ASP:366:CB:8179, V-B:ASP:366:CG:8180, H-B:ARG:545:NH1:9895, V-B:ASP:366:C:8175, H-B:GLY:454:N:9017, V-B:ASP:366:CA:8177, H-B:ARG:545:NE:9892, V-A:ASN:362:CB:3171, V-B:ILE:369:CB:8203, V-A:PRO:540:CG:4881, V-B:GLY:454:CA:9016, V-B:GLY:453:CA:9011, V-B:GLY:453:C:9009, H-B:HIS:456:ND1:9034, H-B:ILE:455:N:9022, H-B:GLY:453:N:9012"]

$$$$
RR9_Rahimova_2017
     RDKit          3D

 36 40  0  0  0  0  0  0  0  0999 V2000
  129.8080  118.2790   60.1870 C   0  0  0  0  0  0  0  0  0  0  0  0
  130.1230  118.2900   61.6860 C   0  0  0  0  0  0  0  0  0  0  0  0
  130.5130  119.6080   62.0620 O   0  0  0  0  0  0  0  0  0  0  0  0
  130.3130  120.6520   61.1790 C   0  0  0  0  0  0  0  0  0  0  0  0
  131.4110  121.0400   60.4140 C   0  0  0  0  0  0  0  0  0  0  0  0
  131.3050  122.0840   59.5000 C   0  0  0  0  0  0  0  0  0  0  0  0
  130.0940  122.7700   59.3250 C   0  0  0  0  0  0  0  0  0  0  0  0
  129.9740  123.8990   58.3450 C   0  0  0  0  0  0  0  0  0  0  0  0
  130.0610  125.2400   58.7520 C   0  0  0  0  0  0  0  0  0  0  0  0
  129.9620  126.2940   57.8260 C   0  0  0  0  0  0  0  0  0  0  0  0
  130.1650  127.7050   58.3100 C   0  0  0  0  0  0  0  0  0  0  0  0
  129.3530  128.5840   58.0210 O   0  0  0  0  0  0  0  0  0  0  0  0
  131.2800  127.9200   59.0350 N   0  0  0  0  0  0  0  0  0  0  0  0
  131.7620  129.2240   59.5040 C   0  0  0  0  0  0  0  0  0  0  0  0
  132.4960  130.0280   58.4060 C   0  0  0  0  0  0  0  0  0  0  0  0
  131.6780  131.1590   57.7910 C   0  0  0  0  0  0  0  0  0  0  0  0
  132.1350  131.8100   56.6400 C   0  0  0  0  0  0  0  0  0  0  0  0
  131.3690  132.8190   56.0620 C   0  0  0  0  0  0  0  0  0  0  0  0
  130.1530  133.1780   56.6380 C   0  0  0  0  0  0  0  0  0  0  0  0
  129.6940  132.5380   57.7880 C   0  0  0  0  0  0  0  0  0  0  0  0
  130.4590  131.5270   58.3660 C   0  0  0  0  0  0  0  0  0  0  0  0
  129.7360  125.9260   56.4770 C   0  0  0  0  0  0  0  0  0  0  0  0
  129.5290  126.5610   55.1970 C   0  0  0  0  0  0  0  0  0  0  0  0
  129.4010  128.0120   54.8680 C   0  0  0  0  0  0  0  0  0  0  0  0
  128.2040  128.6890   55.1230 C   0  0  0  0  0  0  0  0  0  0  0  0
  128.0810  130.0380   54.8010 C   0  0  0  0  0  0  0  0  0  0  0  0
  129.1570  130.7160   54.2250 C   0  0  0  0  0  0  0  0  0  0  0  0
  129.0180  132.1820   53.8560 C   0  0  0  0  0  0  0  0  0  0  0  0
  130.3520  130.0440   53.9670 C   0  0  0  0  0  0  0  0  0  0  0  0
  130.4740  128.6960   54.2930 C   0  0  0  0  0  0  0  0  0  0  0  0
  129.4270  125.6600   54.2460 N   0  0  0  0  0  0  0  0  0  0  0  0
  129.4960  124.4470   54.8170 N   0  0  0  0  0  0  0  0  0  0  0  0
  129.6720  124.5440   56.1770 C   0  0  0  0  0  0  0  0  0  0  0  0
  129.7760  123.5390   57.0460 N   0  0  0  0  0  0  0  0  0  0  0  0
  128.9940  122.3750   60.1000 C   0  0  0  0  0  0  0  0  0  0  0  0
  129.0970  121.3290   61.0150 C   0  0  0  0  0  0  0  0  0  0  0  0
  1  2  1  0
  2  3  1  0
  3  4  1  0
  4  5  2  0
  5  6  1  0
  6  7  2  0
  7  8  1  0
  8  9  2  0
  9 10  1  0
 10 11  1  0
 11 12  2  0
 11 13  1  0
 13 14  1  0
 14 15  1  0
 15 16  1  0
 16 17  2  0
 17 18  1  0
 18 19  2  0
 19 20  1  0
 20 21  2  0
 10 22  2  0
 22 23  1  0
 23 24  1  0
 24 25  2  0
 25 26  1  0
 26 27  2  0
 27 28  1  0
 27 29  1  0
 29 30  2  0
 23 31  2  0
 31 32  1  0
 32 33  1  0
 33 34  2  0
  7 35  1  0
 35 36  2  0
 36  4  1  0
 34  8  1  0
 21 16  1  0
 33 22  1  0
 30 24  1  0
M  END
>  <Binding energies>  (57) 
[-9.22]

>  <Ligand effiencies>  (57) 
[-0.24263157894736845]

>  <Interactions>  (57) 
["V-A:LEU:363:CD1:3184, V-A:TYR:531:CZ:4789, V-A:TYR:531:CE2:4788, V-A:PRO:540:CB:4880, V-A:PRO:540:CA:4878, V-A:PRO:540:CD:4882, V-A:PRO:540:N:4879, V-A:TYR:539:CG:4867, V-A:TYR:539:CD1:4868, V-A:TYR:539:C:4862, V-A:TYR:531:CE1:4787, V-A:MET:535:CB:4827, V-A:MET:535:CG:4828, V-A:ILE:538:CG2:4858, V-A:TYR:539:CE1:4870, V-B:TYR:539:CD2:9842, V-B:TYR:539:CE2:9844, V-A:TRP:381:CE2:3362, V-B:TYR:539:CZ:9845, V-A:LEU:475:CD2:4254, V-A:TRP:381:CZ2:3365, V-A:PRO:482:CG:4322, V-A:TRP:381:CH2:3367, V-A:PRO:482:CB:4321, V-B:MET:535:CE:9803, V-A:TRP:381:CZ3:3366, V-B:PRO:540:C:9849, V-B:ALA:541:CB:9860, V-B:TYR:539:C:9835, V-A:LEU:475:CD1:4253, H-A:LYS:534:NZ:4818, H-A:TYR:531:OH:4790, V-A:TYR:539:CA:4864, H-B:TYR:539:OH:9846, H-A:ASP:366:OD2:3210, V-B:ALA:541:CA:9858, H-B:MET:535:SD:9802, V-B:TYR:539:CB:9839, V-A:TRP:381:CE3:3363, V-A:LEU:475:CG:4252"]

$$$$
