1a_Grossjean_2025
     RDKit          3D

 26 27  0  0  0  0  0  0  0  0999 V2000
  131.9850  131.4210   54.0060 C   0  0  0  0  0  0  0  0  0  0  0  0
  130.5410  131.0130   54.3100 C   0  0  0  0  0  0  0  0  0  0  0  0
  129.7820  132.1680   54.6440 O   0  0  0  0  0  0  0  0  0  0  0  0
  129.9690  132.8120   55.8260 C   0  0  0  0  0  0  0  0  0  0  0  0
  130.8580  133.6490   56.0100 O   0  0  0  0  0  0  0  0  0  0  0  0
  128.9980  132.3920   56.8910 C   0  0  0  0  0  0  0  0  0  0  0  0
  128.0200  131.4360   56.5860 C   0  0  0  0  0  0  0  0  0  0  0  0
  127.1020  131.0290   57.5500 C   0  0  0  0  0  0  0  0  0  0  0  0
  127.1410  131.5690   58.8360 C   0  0  0  0  0  0  0  0  0  0  0  0
  126.1640  131.0870   59.7290 N   0  0  0  0  0  0  0  0  0  0  0  0
  124.8480  131.3780   59.8160 C   0  0  0  0  0  0  0  0  0  0  0  0
  124.2380  132.1590   59.0850 O   0  0  0  0  0  0  0  0  0  0  0  0
  124.0890  130.6540   60.9300 C   0  0  0  0  0  0  0  0  0  0  0  0
  123.9120  131.6830   62.4190 S   0  0  0  0  0  0  0  0  0  0  0  0
  124.3340  130.6720   63.8200 C   0  0  0  0  0  0  0  0  0  0  0  0
  123.3880  130.6620   64.7930 N   0  0  0  0  0  0  0  0  0  0  0  0
  123.6100  129.9270   65.9080 C   0  0  0  0  0  0  0  0  0  0  0  0
  122.5140  129.9750   66.9570 C   0  0  0  0  0  0  0  0  0  0  0  0
  124.7660  129.1730   66.0950 C   0  0  0  0  0  0  0  0  0  0  0  0
  125.7380  129.1590   65.0890 C   0  0  0  0  0  0  0  0  0  0  0  0
  126.9900  128.3130   65.3080 C   0  0  0  0  0  0  0  0  0  0  0  0
  125.5270  129.9160   63.9130 C   0  0  0  0  0  0  0  0  0  0  0  0
  126.5080  129.8790   62.8250 C   0  0  0  0  0  0  0  0  0  0  0  0
  127.2850  129.8480   61.9680 N   0  0  0  0  0  0  0  0  0  0  0  0
  128.1210  132.5210   59.1530 C   0  0  0  0  0  0  0  0  0  0  0  0
  129.0380  132.9270   58.1870 C   0  0  0  0  0  0  0  0  0  0  0  0
  1  2  1  0
  2  3  1  0
  3  4  1  0
  4  5  2  0
  4  6  1  0
  6  7  2  0
  7  8  1  0
  8  9  2  0
  9 10  1  0
 10 11  1  0
 11 12  2  0
 11 13  1  0
 13 14  1  0
 14 15  1  0
 15 16  2  0
 16 17  1  0
 17 18  1  0
 17 19  2  0
 19 20  1  0
 20 21  1  0
 20 22  2  0
 22 23  1  0
 23 24  3  0
  9 25  1  0
 25 26  2  0
 26  6  1  0
 22 15  1  0
M  END
>  <Binding energies>  (1) 
[-7.75]

>  <Ligand effiencies>  (1) 
[-0.28703703703703703]

>  <Interactions>  (1) 
["V-A:TYR:539:CE2:4871, V-A:LEU:363:CD1:3184, V-A:TYR:539:CD2:4869, V-A:PRO:540:CA:4878, V-A:PRO:540:N:4879, V-A:ILE:538:CD1:4860, V-A:TYR:539:CG:4867, H-A:TYR:539:N:4865, V-B:ARG:545:CZ:9894, V-A:TYR:539:CD1:4868, V-A:TYR:539:C:4862, V-B:GLU:543:CD:9876, V-B:HIS:456:CE1:9037, V-B:ARG:545:CD:9891, V-B:ARG:545:CG:9890, V-A:TYR:539:CZ:4872, V-A:TYR:539:CE1:4870, V-B:ASP:366:CG:8180, H-A:TYR:539:OH:4873, H-B:GLY:454:N:9017, V-B:GLY:453:CA:9011, V-B:GLY:453:C:9009, V-B:ARG:545:CB:9889, V-B:ILE:455:C:9019"]

$$$$
1aa_Ghoteimi_2023
     RDKit          3D

 40 43  0  0  0  0  0  0  0  0999 V2000
  133.4300  124.2730   56.8790 C   0  0  0  0  0  0  0  0  0  0  0  0
  133.9090  123.1520   57.8060 C   0  0  0  0  0  0  0  0  0  0  0  0
  132.7860  122.4240   58.2890 O   0  0  0  0  0  0  0  0  0  0  0  0
  132.8840  121.6280   59.3840 C   0  0  0  0  0  0  0  0  0  0  0  0
  133.1270  120.4190   59.3270 O   0  0  0  0  0  0  0  0  0  0  0  0
  132.6680  122.3650   60.6750 C   0  0  0  0  0  0  0  0  0  0  0  0
  131.7130  121.9500   61.6150 C   0  0  0  0  0  0  0  0  0  0  0  0
  131.5350  122.6530   62.8050 C   0  0  0  0  0  0  0  0  0  0  0  0
  132.3160  123.7860   63.0760 C   0  0  0  0  0  0  0  0  0  0  0  0
  132.2240  124.5730   64.2390 N   0  0  0  0  0  0  0  0  0  0  0  0
  133.1950  125.1330   64.9970 C   0  0  0  0  0  0  0  0  0  0  0  0
  134.4020  125.0450   64.7730 O   0  0  0  0  0  0  0  0  0  0  0  0
  132.7500  125.9410   66.2270 C   0  0  0  0  0  0  0  0  0  0  0  0
  131.4320  125.5510   66.6330 O   0  0  0  0  0  0  0  0  0  0  0  0
  130.4720  126.5120   66.9200 C   0  0  0  0  0  0  0  0  0  0  0  0
  130.3040  126.8800   68.2210 N   0  0  0  0  0  0  0  0  0  0  0  0
  129.3640  127.8070   68.5440 C   0  0  0  0  0  0  0  0  0  0  0  0
  129.2420  128.1600   69.9980 C   0  0  0  0  0  0  0  0  0  0  0  0
  130.3300  128.6940   70.7060 C   0  0  0  0  0  0  0  0  0  0  0  0
  130.2200  129.0200   72.0540 C   0  0  0  0  0  0  0  0  0  0  0  0
  129.0210  128.8250   72.7370 C   0  0  0  0  0  0  0  0  0  0  0  0
  129.0050  129.1770   74.0730 O   0  0  0  0  0  0  0  0  0  0  0  0
  128.2040  130.2760   74.4920 C   0  0  0  0  0  0  0  0  0  0  0  0
  127.9240  128.2980   72.0430 C   0  0  0  0  0  0  0  0  0  0  0  0
  128.0360  127.9740   70.6940 C   0  0  0  0  0  0  0  0  0  0  0  0
  128.5800  128.4050   67.5490 C   0  0  0  0  0  0  0  0  0  0  0  0
  128.7410  128.0520   66.2030 C   0  0  0  0  0  0  0  0  0  0  0  0
  127.8810  128.7320   65.1890 C   0  0  0  0  0  0  0  0  0  0  0  0
  128.3140  129.9140   64.5800 C   0  0  0  0  0  0  0  0  0  0  0  0
  127.5230  130.5490   63.6270 C   0  0  0  0  0  0  0  0  0  0  0  0
  126.2880  130.0160   63.2600 C   0  0  0  0  0  0  0  0  0  0  0  0
  125.5710  130.7140   62.3070 O   0  0  0  0  0  0  0  0  0  0  0  0
  124.7900  129.9940   61.3600 C   0  0  0  0  0  0  0  0  0  0  0  0
  125.8530  128.8260   63.8640 C   0  0  0  0  0  0  0  0  0  0  0  0
  126.6460  128.1920   64.8170 C   0  0  0  0  0  0  0  0  0  0  0  0
  129.7090  127.0710   65.8820 C   0  0  0  0  0  0  0  0  0  0  0  0
  129.9180  126.6070   64.5100 C   0  0  0  0  0  0  0  0  0  0  0  0
  130.0840  126.2390   63.4250 N   0  0  0  0  0  0  0  0  0  0  0  0
  133.2650  124.2020   62.1420 C   0  0  0  0  0  0  0  0  0  0  0  0
  133.4410  123.5000   60.9540 C   0  0  0  0  0  0  0  0  0  0  0  0
  1  2  1  0
  2  3  1  0
  3  4  1  0
  4  5  2  0
  4  6  1  0
  6  7  2  0
  7  8  1  0
  8  9  2  0
  9 10  1  0
 10 11  1  0
 11 12  2  0
 11 13  1  0
 13 14  1  0
 14 15  1  0
 15 16  2  0
 16 17  1  0
 17 18  1  0
 18 19  2  0
 19 20  1  0
 20 21  2  0
 21 22  1  0
 22 23  1  0
 21 24  1  0
 24 25  2  0
 17 26  2  0
 26 27  1  0
 27 28  1  0
 28 29  2  0
 29 30  1  0
 30 31  2  0
 31 32  1  0
 32 33  1  0
 31 34  1  0
 34 35  2  0
 27 36  2  0
 36 37  1  0
 37 38  3  0
  9 39  1  0
 39 40  2  0
 40  6  1  0
 36 15  1  0
 25 18  1  0
 35 28  1  0
M  END
>  <Binding energies>  (2) 
[-8.78]

>  <Ligand effiencies>  (2) 
[-0.21414634146341463]

>  <Interactions>  (2) 
["V-A:GLU:543:CG:4902, V-A:TYR:531:CZ:4789, V-A:GLU:543:CD:4903, V-B:ARG:545:CZ:9894, V-A:HIS:456:CE1:4064, H-B:LYS:547:NZ:9919, V-B:HIS:456:CD2:9035, H-A:LYS:547:NZ:4946, V-A:LYS:547:CE:4945, V-B:GLU:543:CD:9876, V-B:HIS:456:CE1:9037, V-B:HIS:456:CG:9033, V-A:GLY:544:C:4907, V-A:GLU:543:C:4897, H-A:HIS:456:NE2:4065, V-A:TYR:531:CE1:4787, V-B:TYR:539:CD2:9842, V-B:TYR:539:CE2:9844, V-A:LEU:475:CD2:4254, V-A:ILE:369:CD1:3234, V-A:ASP:366:CG:3208, H-A:TYR:484:OH:4343, V-B:ASP:366:CG:8180, H-B:TYR:539:OH:9846, V-A:ASP:366:CA:3205, V-A:ASP:366:CB:3207, V-A:ASP:366:C:3203, V-A:ARG:545:CZ:4921, V-A:ILE:369:CG2:3232, V-A:ILE:369:CB:3231, H-A:ARG:545:NE:4919, V-A:ARG:545:CG:4917, H-A:GLY:454:N:4045, V-A:ARG:545:CD:4918, H-A:ARG:545:NH1:4922"]

$$$$
1b_Grossjean_2025
     RDKit          3D

 25 26  0  0  0  0  0  0  0  0999 V2000
  132.4160  131.3490   54.2630 C   0  0  0  0  0  0  0  0  0  0  0  0
  132.2470  132.4140   55.1890 O   0  0  0  0  0  0  0  0  0  0  0  0
  131.0120  132.8970   55.4800 C   0  0  0  0  0  0  0  0  0  0  0  0
  130.3230  133.5340   54.6770 O   0  0  0  0  0  0  0  0  0  0  0  0
  130.5610  132.5720   56.8760 C   0  0  0  0  0  0  0  0  0  0  0  0
  131.2850  131.7030   57.7060 C   0  0  0  0  0  0  0  0  0  0  0  0
  130.8390  131.4220   58.9940 C   0  0  0  0  0  0  0  0  0  0  0  0
  129.6660  132.0000   59.4800 C   0  0  0  0  0  0  0  0  0  0  0  0
  129.3110  131.6430   60.7940 N   0  0  0  0  0  0  0  0  0  0  0  0
  130.0140  131.7420   61.9440 C   0  0  0  0  0  0  0  0  0  0  0  0
  131.1540  132.1940   62.0480 O   0  0  0  0  0  0  0  0  0  0  0  0
  129.2910  131.2500   63.1980 C   0  0  0  0  0  0  0  0  0  0  0  0
  128.2950  132.5590   63.9730 S   0  0  0  0  0  0  0  0  0  0  0  0
  126.7050  132.5600   63.1720 C   0  0  0  0  0  0  0  0  0  0  0  0
  125.9080  131.5260   63.5380 N   0  0  0  0  0  0  0  0  0  0  0  0
  124.6740  131.4300   62.9900 C   0  0  0  0  0  0  0  0  0  0  0  0
  123.8340  130.2560   63.4570 C   0  0  0  0  0  0  0  0  0  0  0  0
  124.1930  132.3450   62.0560 C   0  0  0  0  0  0  0  0  0  0  0  0
  125.0160  133.4030   61.6560 C   0  0  0  0  0  0  0  0  0  0  0  0
  124.4730  134.3850   60.6190 C   0  0  0  0  0  0  0  0  0  0  0  0
  126.3090  133.5240   62.2150 C   0  0  0  0  0  0  0  0  0  0  0  0
  127.2040  134.5980   61.7780 C   0  0  0  0  0  0  0  0  0  0  0  0
  127.9090  135.4470   61.4310 N   0  0  0  0  0  0  0  0  0  0  0  0
  128.9370  132.8700   58.6550 C   0  0  0  0  0  0  0  0  0  0  0  0
  129.3840  133.1510   57.3680 C   0  0  0  0  0  0  0  0  0  0  0  0
  1  2  1  0
  2  3  1  0
  3  4  2  0
  3  5  1  0
  5  6  2  0
  6  7  1  0
  7  8  2  0
  8  9  1  0
  9 10  1  0
 10 11  2  0
 10 12  1  0
 12 13  1  0
 13 14  1  0
 14 15  2  0
 15 16  1  0
 16 17  1  0
 16 18  2  0
 18 19  1  0
 19 20  1  0
 19 21  2  0
 21 22  1  0
 22 23  3  0
  8 24  1  0
 24 25  2  0
 25  5  1  0
 21 14  1  0
M  END
>  <Binding energies>  (3) 
[-7.35]

>  <Ligand effiencies>  (3) 
[-0.2826923076923077]

>  <Interactions>  (3) 
["V-A:GLU:543:CG:4902, V-B:ILE:369:CD1:8206, H-A:ALA:541:N:4886, V-A:TYR:539:CE2:4871, V-A:LEU:363:CD1:3184, V-A:TYR:539:CD2:4869, V-B:LEU:475:CD2:9226, V-A:GLU:543:CD:4903, V-A:TYR:531:CE2:4788, V-A:PRO:540:CB:4880, V-A:PRO:540:CA:4878, V-A:PRO:540:CD:4882, V-A:PRO:540:N:4879, V-B:ILE:369:CG2:8204, V-A:ILE:538:CD1:4860, V-A:TYR:539:CG:4867, H-A:TYR:539:N:4865, V-B:ARG:545:CZ:9894, V-A:TYR:539:CD1:4868, V-A:TYR:539:C:4862, V-A:ILE:538:CA:4855, H-B:TYR:484:OH:9315, V-A:TYR:539:CZ:4872, V-A:ILE:538:CG2:4858, V-A:TYR:539:CE1:4870, V-B:TRP:381:CH2:8339, V-A:TYR:539:CA:4864"]

$$$$
1c_Grossjean_2025
     RDKit          3D

 23 24  0  0  0  0  0  0  0  0999 V2000
  130.0260  132.5620   54.4320 C   0  0  0  0  0  0  0  0  0  0  0  0
  130.5100  133.3100   55.5420 O   0  0  0  0  0  0  0  0  0  0  0  0
  130.1860  132.9020   56.8220 C   0  0  0  0  0  0  0  0  0  0  0  0
  131.1160  132.0900   57.4710 C   0  0  0  0  0  0  0  0  0  0  0  0
  130.8800  131.6290   58.7630 C   0  0  0  0  0  0  0  0  0  0  0  0
  129.6980  131.9850   59.4290 C   0  0  0  0  0  0  0  0  0  0  0  0
  129.3540  131.5670   60.7300 N   0  0  0  0  0  0  0  0  0  0  0  0
  129.9860  131.8010   61.9000 C   0  0  0  0  0  0  0  0  0  0  0  0
  131.0110  132.4670   62.0380 O   0  0  0  0  0  0  0  0  0  0  0  0
  129.3340  131.1720   63.1330 C   0  0  0  0  0  0  0  0  0  0  0  0
  128.2450  132.3450   63.9950 S   0  0  0  0  0  0  0  0  0  0  0  0
  127.3010  133.2360   62.7750 C   0  0  0  0  0  0  0  0  0  0  0  0
  127.7590  134.4930   62.5510 N   0  0  0  0  0  0  0  0  0  0  0  0
  127.1200  135.2680   61.6440 C   0  0  0  0  0  0  0  0  0  0  0  0
  127.6960  136.6570   61.4400 C   0  0  0  0  0  0  0  0  0  0  0  0
  126.0030  134.8300   60.9360 C   0  0  0  0  0  0  0  0  0  0  0  0
  125.5070  133.5450   61.1770 C   0  0  0  0  0  0  0  0  0  0  0  0
  124.2700  133.0950   60.4020 C   0  0  0  0  0  0  0  0  0  0  0  0
  126.1570  132.7190   62.1220 C   0  0  0  0  0  0  0  0  0  0  0  0
  125.6190  131.3900   62.4280 C   0  0  0  0  0  0  0  0  0  0  0  0
  125.1950  130.3410   62.6680 N   0  0  0  0  0  0  0  0  0  0  0  0
  128.7590  132.7880   58.7790 C   0  0  0  0  0  0  0  0  0  0  0  0
  128.9990  133.2470   57.4870 C   0  0  0  0  0  0  0  0  0  0  0  0
  1  2  1  0
  2  3  1  0
  3  4  2  0
  4  5  1  0
  5  6  2  0
  6  7  1  0
  7  8  1  0
  8  9  2  0
  8 10  1  0
 10 11  1  0
 11 12  1  0
 12 13  2  0
 13 14  1  0
 14 15  1  0
 14 16  2  0
 16 17  1  0
 17 18  1  0
 17 19  2  0
 19 20  1  0
 20 21  3  0
  6 22  1  0
 22 23  2  0
 23  3  1  0
 19 12  1  0
M  END
>  <Binding energies>  (4) 
[-7.14]

>  <Ligand effiencies>  (4) 
[-0.2975]

>  <Interactions>  (4) 
["V-A:GLU:543:CG:4902, V-B:ILE:369:CD1:8206, H-A:ALA:541:N:4886, V-A:TYR:539:CE2:4871, V-A:TYR:539:CD2:4869, V-B:LEU:475:CD2:9226, V-A:ALA:541:CB:4887, V-A:GLU:543:CD:4903, V-A:PRO:540:CB:4880, V-A:PRO:540:CA:4878, V-A:PRO:540:CD:4882, V-A:PRO:540:N:4879, V-B:LEU:475:CD1:9225, V-B:ILE:369:CG2:8204, V-A:ILE:538:CD1:4860, V-A:TYR:539:CG:4867, H-A:TYR:539:N:4865, V-A:TYR:539:CD1:4868, V-A:TYR:539:C:4862, V-A:ILE:538:CA:4855, H-B:TYR:484:OH:9315, V-A:TYR:539:CZ:4872, V-A:TYR:539:CE1:4870, V-B:TRP:381:CZ2:8337, V-B:TRP:381:CH2:8339, V-A:TYR:539:CA:4864, V-B:PRO:482:CB:9293, V-B:PRO:482:CG:9294"]

$$$$
1d_Grossjean_2025
     RDKit          3D

 21 22  0  0  0  0  0  0  0  0999 V2000
  125.0750  129.6240   58.2420 C   0  0  0  0  0  0  0  0  0  0  0  0
  126.3220  130.3810   57.8280 C   0  0  0  0  0  0  0  0  0  0  0  0
  127.0360  130.0400   56.6820 C   0  0  0  0  0  0  0  0  0  0  0  0
  128.1740  130.7800   56.3440 C   0  0  0  0  0  0  0  0  0  0  0  0
  128.9320  130.3960   55.0740 C   0  0  0  0  0  0  0  0  0  0  0  0
  128.5750  131.8500   57.1760 C   0  0  0  0  0  0  0  0  0  0  0  0
  129.7350  132.6690   56.8160 C   0  0  0  0  0  0  0  0  0  0  0  0
  130.6510  133.3150   56.5280 N   0  0  0  0  0  0  0  0  0  0  0  0
  127.8040  132.1110   58.3330 C   0  0  0  0  0  0  0  0  0  0  0  0
  128.1640  133.4140   59.4890 S   0  0  0  0  0  0  0  0  0  0  0  0
  128.5660  132.6310   61.0810 C   0  0  0  0  0  0  0  0  0  0  0  0
  130.0220  132.1670   61.1430 C   0  0  0  0  0  0  0  0  0  0  0  0
  130.6620  132.3320   62.1820 O   0  0  0  0  0  0  0  0  0  0  0  0
  130.4870  131.5730   60.0230 N   0  0  0  0  0  0  0  0  0  0  0  0
  131.7650  131.0540   59.7410 C   0  0  0  0  0  0  0  0  0  0  0  0
  132.0330  130.8030   58.3920 C   0  0  0  0  0  0  0  0  0  0  0  0
  133.2690  130.2950   58.0040 C   0  0  0  0  0  0  0  0  0  0  0  0
  134.2440  130.0420   58.9650 C   0  0  0  0  0  0  0  0  0  0  0  0
  133.9930  130.2960   60.3120 C   0  0  0  0  0  0  0  0  0  0  0  0
  132.7580  130.8030   60.7030 C   0  0  0  0  0  0  0  0  0  0  0  0
  126.6890  131.4000   58.6410 N   0  0  0  0  0  0  0  0  0  0  0  0
  1  2  1  0
  2  3  2  0
  3  4  1  0
  4  5  1  0
  4  6  2  0
  6  7  1  0
  7  8  3  0
  6  9  1  0
  9 10  1  0
 10 11  1  0
 11 12  1  0
 12 13  2  0
 12 14  1  0
 14 15  1  0
 15 16  2  0
 16 17  1  0
 17 18  2  0
 18 19  1  0
 19 20  2  0
  9 21  2  0
 21  2  1  0
 20 15  1  0
M  END
>  <Binding energies>  (5) 
[-6.84]

>  <Ligand effiencies>  (5) 
[-0.3109090909090909]

>  <Interactions>  (5) 
["H-A:ALA:541:N:4886, V-A:LEU:363:CB:3182, V-A:TYR:539:CE2:4871, V-A:LEU:363:CD1:3184, V-A:TYR:531:CZ:4789, V-A:TYR:539:CD2:4869, V-A:LEU:363:CA:3180, V-A:ASN:362:C:3167, V-A:TYR:531:CE2:4788, V-A:PRO:540:CB:4880, V-A:PRO:540:CA:4878, V-A:PRO:540:N:4879, H-A:TYR:539:N:4865, V-A:TYR:539:CD1:4868, V-A:TYR:539:C:4862, V-A:TYR:539:CZ:4872, V-A:TYR:539:CE1:4870, V-A:PRO:540:C:4876, V-A:ASP:366:CG:3208, V-B:ASP:366:CB:8179, V-B:ASP:366:CG:8180, H-A:TYR:539:OH:4873, V-A:ASP:366:CB:3207, V-A:ASN:362:CB:3171, V-A:LEU:363:C:3178"]

$$$$
1e_Grossjean_2025
     RDKit          3D

 22 23  0  0  0  0  0  0  0  0999 V2000
  130.9870  129.6840   53.7000 C   0  0  0  0  0  0  0  0  0  0  0  0
  131.3490  130.7300   54.7370 C   0  0  0  0  0  0  0  0  0  0  0  0
  131.7610  132.0130   54.3690 C   0  0  0  0  0  0  0  0  0  0  0  0
  132.0800  132.9220   55.3770 C   0  0  0  0  0  0  0  0  0  0  0  0
  131.9830  132.5330   56.7150 C   0  0  0  0  0  0  0  0  0  0  0  0
  131.5580  131.2330   57.0150 C   0  0  0  0  0  0  0  0  0  0  0  0
  131.4910  130.8950   58.3780 N   0  0  0  0  0  0  0  0  0  0  0  0
  132.5000  130.8040   59.2730 C   0  0  0  0  0  0  0  0  0  0  0  0
  133.6890  131.0020   59.0190 O   0  0  0  0  0  0  0  0  0  0  0  0
  132.0970  130.3940   60.6910 C   0  0  0  0  0  0  0  0  0  0  0  0
  131.5230  131.8130   61.6720 S   0  0  0  0  0  0  0  0  0  0  0  0
  129.9120  132.2980   61.0850 C   0  0  0  0  0  0  0  0  0  0  0  0
  129.8420  132.4130   59.7340 N   0  0  0  0  0  0  0  0  0  0  0  0
  128.6670  132.7780   59.1700 C   0  0  0  0  0  0  0  0  0  0  0  0
  128.6640  132.8780   57.6570 C   0  0  0  0  0  0  0  0  0  0  0  0
  127.5270  133.0550   59.9210 C   0  0  0  0  0  0  0  0  0  0  0  0
  127.5940  132.9630   61.3150 C   0  0  0  0  0  0  0  0  0  0  0  0
  126.3340  133.2890   62.1170 C   0  0  0  0  0  0  0  0  0  0  0  0
  128.8110  132.5860   61.9270 C   0  0  0  0  0  0  0  0  0  0  0  0
  128.9140  132.5430   63.3870 C   0  0  0  0  0  0  0  0  0  0  0  0
  128.9920  132.5100   64.5420 N   0  0  0  0  0  0  0  0  0  0  0  0
  131.2480  130.3370   56.0320 N   0  0  0  0  0  0  0  0  0  0  0  0
  1  2  1  0
  2  3  2  0
  3  4  1  0
  4  5  2  0
  5  6  1  0
  6  7  1  0
  7  8  1  0
  8  9  2  0
  8 10  1  0
 10 11  1  0
 11 12  1  0
 12 13  2  0
 13 14  1  0
 14 15  1  0
 14 16  2  0
 16 17  1  0
 17 18  1  0
 17 19  2  0
 19 20  1  0
 20 21  3  0
  6 22  2  0
 22  2  1  0
 19 12  1  0
M  END
>  <Binding energies>  (6) 
[-6.89]

>  <Ligand effiencies>  (6) 
[-0.2995652173913043]

>  <Interactions>  (6) 
["V-A:GLU:543:CG:4902, H-A:ALA:541:N:4886, V-A:TYR:539:CE2:4871, V-A:LEU:363:CD1:3184, V-A:TYR:531:CZ:4789, V-A:TYR:539:CD2:4869, V-B:LEU:475:CD2:9226, V-A:ALA:541:CB:4887, V-A:PRO:540:CB:4880, V-A:PRO:540:CA:4878, V-A:PRO:540:CD:4882, V-A:PRO:540:N:4879, V-A:ILE:538:CD1:4860, V-A:TYR:539:CG:4867, V-A:TYR:539:CD1:4868, V-A:TYR:539:C:4862, V-A:ILE:538:CA:4855, H-B:TYR:484:OH:9315, V-A:TYR:531:CE1:4787, V-A:ILE:538:CB:4857, V-A:TYR:539:CZ:4872, V-A:ILE:538:CG2:4858, V-A:TYR:539:CE1:4870, V-A:PRO:540:C:4876, H-A:TYR:531:OH:4790, V-A:PRO:540:CG:4881, H-A:LEU:363:N:3181"]

$$$$
1f_Grossjean_2025
     RDKit          3D

 21 22  0  0  0  0  0  0  0  0999 V2000
  128.2760  132.5510   57.8620 C   0  0  0  0  0  0  0  0  0  0  0  0
  128.3660  132.5310   59.3760 C   0  0  0  0  0  0  0  0  0  0  0  0
  127.2550  132.7850   60.1770 C   0  0  0  0  0  0  0  0  0  0  0  0
  127.4020  132.7640   61.5680 C   0  0  0  0  0  0  0  0  0  0  0  0
  126.1730  133.0640   62.4240 C   0  0  0  0  0  0  0  0  0  0  0  0
  128.6690  132.4780   62.1260 C   0  0  0  0  0  0  0  0  0  0  0  0
  128.8540  132.5070   63.5790 C   0  0  0  0  0  0  0  0  0  0  0  0
  128.9990  132.5290   64.7270 N   0  0  0  0  0  0  0  0  0  0  0  0
  129.7350  132.2040   61.2370 C   0  0  0  0  0  0  0  0  0  0  0  0
  131.3970  131.8240   61.7540 S   0  0  0  0  0  0  0  0  0  0  0  0
  132.0320  130.4710   60.7060 C   0  0  0  0  0  0  0  0  0  0  0  0
  132.5280  130.9070   59.3190 C   0  0  0  0  0  0  0  0  0  0  0  0
  133.7310  131.0620   59.1060 O   0  0  0  0  0  0  0  0  0  0  0  0
  131.5490  131.1170   58.4130 N   0  0  0  0  0  0  0  0  0  0  0  0
  131.6420  131.5100   57.0640 C   0  0  0  0  0  0  0  0  0  0  0  0
  132.1600  130.7260   56.0160 C   0  0  0  0  0  0  0  0  0  0  0  0
  132.1890  131.2420   54.7170 C   0  0  0  0  0  0  0  0  0  0  0  0
  131.6960  132.5280   54.4980 C   0  0  0  0  0  0  0  0  0  0  0  0
  131.1880  133.3010   55.4890 N   0  0  0  0  0  0  0  0  0  0  0  0
  131.1660  132.7870   56.7460 C   0  0  0  0  0  0  0  0  0  0  0  0
  129.5870  132.2510   59.8890 N   0  0  0  0  0  0  0  0  0  0  0  0
  1  2  1  0
  2  3  2  0
  3  4  1  0
  4  5  1  0
  4  6  2  0
  6  7  1  0
  7  8  3  0
  6  9  1  0
  9 10  1  0
 10 11  1  0
 11 12  1  0
 12 13  2  0
 12 14  1  0
 14 15  1  0
 15 16  2  0
 16 17  1  0
 17 18  2  0
 18 19  1  0
 19 20  2  0
  9 21  2  0
 21  2  1  0
 20 15  1  0
M  END
>  <Binding energies>  (7) 
[-6.96]

>  <Ligand effiencies>  (7) 
[-0.31636363636363635]

>  <Interactions>  (7) 
["V-A:GLU:543:CG:4902, H-A:ALA:541:N:4886, V-A:TYR:539:CE2:4871, V-A:LEU:363:CD1:3184, V-A:TYR:531:CZ:4789, V-A:TYR:539:CD2:4869, V-B:LEU:475:CD2:9226, V-A:ALA:541:CB:4887, V-A:TYR:531:CE2:4788, V-A:PRO:540:CB:4880, V-A:PRO:540:CA:4878, V-A:PRO:540:CD:4882, V-A:PRO:540:N:4879, V-A:ILE:538:CD1:4860, V-A:TYR:539:CG:4867, H-A:TYR:539:N:4865, V-A:TYR:539:CD1:4868, V-A:TYR:539:C:4862, V-A:ILE:538:CA:4855, H-B:TYR:484:OH:9315, V-A:ILE:538:CB:4857, V-A:TYR:539:CZ:4872, V-A:ILE:538:CG2:4858, V-A:TYR:539:CE1:4870, V-A:PRO:540:CG:4881, H-A:LEU:363:N:3181"]

$$$$
1g_Grossjean_2025
     RDKit          3D

 22 23  0  0  0  0  0  0  0  0999 V2000
  129.0050  132.9480   57.2990 C   0  0  0  0  0  0  0  0  0  0  0  0
  128.9200  132.8530   58.8110 C   0  0  0  0  0  0  0  0  0  0  0  0
  128.0470  133.6530   59.5450 C   0  0  0  0  0  0  0  0  0  0  0  0
  128.0240  133.5330   60.9380 C   0  0  0  0  0  0  0  0  0  0  0  0
  127.0690  134.4320   61.7230 C   0  0  0  0  0  0  0  0  0  0  0  0
  128.8790  132.5990   61.5660 C   0  0  0  0  0  0  0  0  0  0  0  0
  128.9100  132.4930   63.0270 C   0  0  0  0  0  0  0  0  0  0  0  0
  128.9330  132.4120   64.1810 N   0  0  0  0  0  0  0  0  0  0  0  0
  129.7140  131.8110   60.7400 C   0  0  0  0  0  0  0  0  0  0  0  0
  130.8420  130.5830   61.3610 S   0  0  0  0  0  0  0  0  0  0  0  0
  132.5270  131.2020   61.0720 C   0  0  0  0  0  0  0  0  0  0  0  0
  133.0870  130.7320   59.7290 C   0  0  0  0  0  0  0  0  0  0  0  0
  134.2350  130.2900   59.6600 O   0  0  0  0  0  0  0  0  0  0  0  0
  132.2660  130.8400   58.6700 N   0  0  0  0  0  0  0  0  0  0  0  0
  132.5730  130.3990   57.3100 C   0  0  0  0  0  0  0  0  0  0  0  0
  131.8310  131.1670   56.2190 C   0  0  0  0  0  0  0  0  0  0  0  0
  132.0610  132.5360   56.0500 C   0  0  0  0  0  0  0  0  0  0  0  0
  131.3850  133.2360   55.0540 C   0  0  0  0  0  0  0  0  0  0  0  0
  130.4860  132.5650   54.2280 C   0  0  0  0  0  0  0  0  0  0  0  0
  130.2560  131.2010   54.3880 C   0  0  0  0  0  0  0  0  0  0  0  0
  130.9300  130.4990   55.3840 C   0  0  0  0  0  0  0  0  0  0  0  0
  129.7460  131.9500   59.3900 N   0  0  0  0  0  0  0  0  0  0  0  0
  1  2  1  0
  2  3  2  0
  3  4  1  0
  4  5  1  0
  4  6  2  0
  6  7  1  0
  7  8  3  0
  6  9  1  0
  9 10  1  0
 10 11  1  0
 11 12  1  0
 12 13  2  0
 12 14  1  0
 14 15  1  0
 15 16  1  0
 16 17  2  0
 17 18  1  0
 18 19  2  0
 19 20  1  0
 20 21  2  0
  9 22  2  0
 22  2  1  0
 21 16  1  0
M  END
>  <Binding energies>  (8) 
[-6.72]

>  <Ligand effiencies>  (8) 
[-0.29217391304347823]

>  <Interactions>  (8) 
["V-A:GLU:543:CG:4902, V-A:TYR:539:CE2:4871, V-A:LEU:363:CD1:3184, V-A:TYR:531:CZ:4789, V-A:TYR:539:CD2:4869, V-B:LEU:475:CD2:9226, V-A:ALA:541:CB:4887, V-A:TYR:531:CE2:4788, V-A:PRO:540:CB:4880, V-A:PRO:540:CA:4878, V-A:PRO:540:CD:4882, V-A:PRO:540:N:4879, V-A:ILE:538:CD1:4860, V-A:TYR:539:CG:4867, V-A:TYR:539:CD1:4868, V-A:TYR:539:C:4862, V-A:ILE:538:CA:4855, H-B:TYR:484:OH:9315, V-A:ILE:538:CB:4857, V-A:TYR:539:CZ:4872, V-A:ILE:538:CG2:4858, V-A:TYR:539:CE1:4870, V-A:PRO:540:CG:4881, V-A:ILE:538:C:4853, H-A:LEU:363:N:3181"]

$$$$
1h_Grossjean_2025
     RDKit          3D

 28 29  0  0  0  0  0  0  0  0999 V2000
  125.7550  129.9450   57.4070 C   0  0  0  0  0  0  0  0  0  0  0  0
  126.9390  130.6730   57.7110 O   0  0  0  0  0  0  0  0  0  0  0  0
  128.0200  130.6000   56.8520 C   0  0  0  0  0  0  0  0  0  0  0  0
  128.3720  129.4490   56.1300 C   0  0  0  0  0  0  0  0  0  0  0  0
  129.4860  129.4430   55.2900 C   0  0  0  0  0  0  0  0  0  0  0  0
  129.8440  128.1920   54.4950 C   0  0  0  0  0  0  0  0  0  0  0  0
  130.0900  127.0110   55.3220 N   0  0  0  0  0  0  0  0  0  0  0  0
  129.6820  125.7620   55.0350 C   0  0  0  0  0  0  0  0  0  0  0  0
  129.0660  125.4630   54.0120 O   0  0  0  0  0  0  0  0  0  0  0  0
  130.0150  124.6820   56.0650 C   0  0  0  0  0  0  0  0  0  0  0  0
  128.7410  123.3860   56.1290 S   0  0  0  0  0  0  0  0  0  0  0  0
  128.1970  123.2270   57.8220 C   0  0  0  0  0  0  0  0  0  0  0  0
  129.0890  122.6650   58.6780 N   0  0  0  0  0  0  0  0  0  0  0  0
  128.7420  122.5180   59.9780 C   0  0  0  0  0  0  0  0  0  0  0  0
  129.7930  121.8870   60.8730 C   0  0  0  0  0  0  0  0  0  0  0  0
  127.5040  122.9180   60.4760 C   0  0  0  0  0  0  0  0  0  0  0  0
  126.5760  123.4960   59.6040 C   0  0  0  0  0  0  0  0  0  0  0  0
  125.2250  123.9290   60.1700 C   0  0  0  0  0  0  0  0  0  0  0  0
  126.9170  123.6590   58.2420 C   0  0  0  0  0  0  0  0  0  0  0  0
  125.9640  124.2590   57.3050 C   0  0  0  0  0  0  0  0  0  0  0  0
  125.2100  124.7320   56.5650 N   0  0  0  0  0  0  0  0  0  0  0  0
  130.2390  130.6080   55.1370 C   0  0  0  0  0  0  0  0  0  0  0  0
  129.9070  131.7770   55.8420 C   0  0  0  0  0  0  0  0  0  0  0  0
  130.6080  132.9640   55.7410 O   0  0  0  0  0  0  0  0  0  0  0  0
  132.0310  132.9350   55.6970 C   0  0  0  0  0  0  0  0  0  0  0  0
  128.8020  131.7560   56.7050 C   0  0  0  0  0  0  0  0  0  0  0  0
  128.4610  132.8930   57.3960 O   0  0  0  0  0  0  0  0  0  0  0  0
  128.9410  132.9230   58.7330 C   0  0  0  0  0  0  0  0  0  0  0  0
  1  2  1  0
  2  3  1  0
  3  4  2  0
  4  5  1  0
  5  6  1  0
  6  7  1  0
  7  8  1  0
  8  9  2  0
  8 10  1  0
 10 11  1  0
 11 12  1  0
 12 13  2  0
 13 14  1  0
 14 15  1  0
 14 16  2  0
 16 17  1  0
 17 18  1  0
 17 19  2  0
 19 20  1  0
 20 21  3  0
  5 22  2  0
 22 23  1  0
 23 24  1  0
 24 25  1  0
 23 26  2  0
 26 27  1  0
 27 28  1  0
 26  3  1  0
 19 12  1  0
M  END
>  <Binding energies>  (9) 
[-7.79]

>  <Ligand effiencies>  (9) 
[-0.26862068965517244]

>  <Interactions>  (9) 
["V-A:TYR:539:CE2:4871, V-A:LEU:363:CD1:3184, V-A:TYR:531:CZ:4789, V-A:TYR:539:CD2:4869, V-A:PRO:540:CA:4878, V-A:PRO:540:CD:4882, V-A:PRO:540:N:4879, V-A:TYR:539:CG:4867, H-A:TYR:539:N:4865, V-A:TYR:539:CD1:4868, V-A:TYR:539:C:4862, V-A:ILE:538:CA:4855, V-A:TYR:531:CE1:4787, V-A:TYR:539:CZ:4872, V-A:ILE:538:CG2:4858, V-A:TYR:539:CE1:4870, V-B:TYR:539:CZ:9845, V-B:PRO:540:CB:9853, V-B:PRO:540:CA:9851, V-B:MET:535:CE:9803, V-B:PRO:540:C:9849, H-A:LYS:534:NZ:4818, H-A:TYR:531:OH:4790, H-A:TYR:539:OH:4873, H-B:TYR:531:OH:9763, V-A:PRO:540:CG:4881"]

$$$$
1i_Grossjean_2025
     RDKit          3D

 20 21  0  0  0  0  0  0  0  0999 V2000
  128.3390  122.0530   60.9400 C   0  0  0  0  0  0  0  0  0  0  0  0
  129.7050  122.2600   60.3130 C   0  0  0  0  0  0  0  0  0  0  0  0
  130.7440  121.3540   60.5130 C   0  0  0  0  0  0  0  0  0  0  0  0
  131.9800  121.5910   59.9010 C   0  0  0  0  0  0  0  0  0  0  0  0
  133.0990  120.5740   60.1220 C   0  0  0  0  0  0  0  0  0  0  0  0
  132.1460  122.7450   59.1020 C   0  0  0  0  0  0  0  0  0  0  0  0
  133.4150  122.9860   58.4110 C   0  0  0  0  0  0  0  0  0  0  0  0
  134.4190  123.1740   57.8660 N   0  0  0  0  0  0  0  0  0  0  0  0
  131.0430  123.6230   58.9740 C   0  0  0  0  0  0  0  0  0  0  0  0
  131.0760  125.1180   58.0100 S   0  0  0  0  0  0  0  0  0  0  0  0
  131.0800  124.6420   56.2560 C   0  0  0  0  0  0  0  0  0  0  0  0
  129.7150  124.1230   55.7970 C   0  0  0  0  0  0  0  0  0  0  0  0
  129.3580  124.3120   54.6330 O   0  0  0  0  0  0  0  0  0  0  0  0
  128.9920  123.4760   56.7370 N   0  0  0  0  0  0  0  0  0  0  0  0
  127.7310  122.9150   56.5900 C   0  0  0  0  0  0  0  0  0  0  0  0
  126.6150  123.3570   57.2970 C   0  0  0  0  0  0  0  0  0  0  0  0
  125.5810  122.5560   56.8720 C   0  0  0  0  0  0  0  0  0  0  0  0
  126.0500  121.6760   55.9560 O   0  0  0  0  0  0  0  0  0  0  0  0
  127.4160  121.9120   55.7870 N   0  0  0  0  0  0  0  0  0  0  0  0
  129.8430  123.3740   59.5550 N   0  0  0  0  0  0  0  0  0  0  0  0
  1  2  1  0
  2  3  2  0
  3  4  1  0
  4  5  1  0
  4  6  2  0
  6  7  1  0
  7  8  3  0
  6  9  1  0
  9 10  1  0
 10 11  1  0
 11 12  1  0
 12 13  2  0
 12 14  1  0
 14 15  1  0
 15 16  1  0
 16 17  2  0
 17 18  1  0
 18 19  1  0
  9 20  2  0
 20  2  1  0
 19 15  2  0
M  END
>  <Binding energies>  (10) 
[-6.96]

>  <Ligand effiencies>  (10) 
[-0.3314285714285714]

>  <Interactions>  (10) 
["V-A:TYR:531:CZ:4789, V-A:TYR:531:CE1:4787, V-B:TYR:539:CD2:9842, V-B:TYR:539:CE2:9844, V-B:TYR:539:CZ:9845, V-B:PRO:540:CB:9853, V-A:LEU:475:CD2:4254, V-B:PRO:540:CA:9851, V-A:TRP:381:CH2:3367, V-B:TYR:539:CE1:9843, V-B:MET:535:CE:9803, V-B:PRO:540:C:9849, V-B:ALA:541:CB:9860, V-B:TYR:539:C:9835, V-B:PRO:540:N:9852, V-A:ILE:369:CD1:3234, H-A:LYS:534:NZ:4818, H-A:TYR:531:OH:4790, V-B:PRO:540:CD:9855, H-B:TYR:539:OH:9846, H-B:TYR:539:N:9838, V-A:ILE:369:CG2:3232, V-A:ILE:369:CB:3231, V-B:ALA:541:CA:9858"]

$$$$
1k_Grossjean_2025
     RDKit          3D

 25 25  0  0  0  0  0  0  0  0999 V2000
  128.5600  130.7840   65.0480 C   0  0  0  0  0  0  0  0  0  0  0  0
  128.6260  132.1830   64.8240 O   0  0  0  0  0  0  0  0  0  0  0  0
  128.3140  132.5580   63.4890 C   0  0  0  0  0  0  0  0  0  0  0  0
  129.3560  131.9610   62.5330 C   0  0  0  0  0  0  0  0  0  0  0  0
  129.7030  132.9270   61.5480 O   0  0  0  0  0  0  0  0  0  0  0  0
  128.6320  133.7920   61.1940 C   0  0  0  0  0  0  0  0  0  0  0  0
  128.0820  133.3870   59.8210 C   0  0  0  0  0  0  0  0  0  0  0  0
  127.6480  132.0340   59.8640 O   0  0  0  0  0  0  0  0  0  0  0  0
  127.4680  131.4500   58.5800 C   0  0  0  0  0  0  0  0  0  0  0  0
  125.9920  131.0530   58.3960 C   0  0  0  0  0  0  0  0  0  0  0  0
  125.2140  131.0620   59.6360 N   0  0  0  0  0  0  0  0  0  0  0  0
  123.9230  131.4260   59.7380 C   0  0  0  0  0  0  0  0  0  0  0  0
  123.2490  131.7910   58.7730 O   0  0  0  0  0  0  0  0  0  0  0  0
  123.3270  131.3640   61.1530 C   0  0  0  0  0  0  0  0  0  0  0  0
  124.3460  132.1100   62.4730 S   0  0  0  0  0  0  0  0  0  0  0  0
  124.5860  130.9120   63.7770 C   0  0  0  0  0  0  0  0  0  0  0  0
  123.7550  131.0260   64.8460 N   0  0  0  0  0  0  0  0  0  0  0  0
  123.8900  130.1560   65.8740 C   0  0  0  0  0  0  0  0  0  0  0  0
  122.9320  130.3530   67.0330 C   0  0  0  0  0  0  0  0  0  0  0  0
  124.8430  129.1400   65.8790 C   0  0  0  0  0  0  0  0  0  0  0  0
  125.6990  129.0080   64.7810 C   0  0  0  0  0  0  0  0  0  0  0  0
  126.7370  127.8880   64.8060 C   0  0  0  0  0  0  0  0  0  0  0  0
  125.5780  129.9080   63.6990 C   0  0  0  0  0  0  0  0  0  0  0  0
  126.4650  129.7960   62.5370 C   0  0  0  0  0  0  0  0  0  0  0  0
  127.1660  129.7060   61.6210 N   0  0  0  0  0  0  0  0  0  0  0  0
  1  2  1  0
  2  3  1  0
  3  4  1  0
  4  5  1  0
  5  6  1  0
  6  7  1  0
  7  8  1  0
  8  9  1  0
  9 10  1  0
 10 11  1  0
 11 12  1  0
 12 13  2  0
 12 14  1  0
 14 15  1  0
 15 16  1  0
 16 17  2  0
 17 18  1  0
 18 19  1  0
 18 20  2  0
 20 21  1  0
 21 22  1  0
 21 23  2  0
 23 24  1  0
 24 25  3  0
 23 16  1  0
M  END
>  <Binding energies>  (11) 
[-5.56]

>  <Ligand effiencies>  (11) 
[-0.21384615384615382]

>  <Interactions>  (11) 
["V-A:GLU:543:CG:4902, V-B:ILE:369:CD1:8206, H-A:ALA:541:N:4886, V-A:TYR:539:CE2:4871, V-A:TYR:539:CD2:4869, V-A:ALA:541:CB:4887, V-A:GLU:543:CD:4903, V-A:PRO:540:CA:4878, V-B:ARG:545:CZ:9894, V-A:TYR:539:C:4862, H-B:TYR:484:OH:9315, V-B:GLU:543:CD:9876, V-B:HIS:456:CE1:9037, V-B:ARG:545:CD:9891, V-B:ARG:545:CG:9890, V-A:GLU:543:CB:4901, V-A:TYR:539:CZ:4872, V-A:PRO:540:C:4876, H-A:TYR:539:OH:4873, H-B:GLY:454:N:9017, V-B:GLY:454:CA:9016, V-B:GLY:453:CA:9011, V-B:GLY:453:C:9009, V-B:GLY:454:C:9014, V-B:ILE:455:C:9019"]

$$$$
1l_Grossjean_2025
     RDKit          3D

 17 17  0  0  0  0  0  0  0  0999 V2000
  129.8160  132.0690   62.6070 C   0  0  0  0  0  0  0  0  0  0  0  0
  130.9070  132.4820   61.7970 O   0  0  0  0  0  0  0  0  0  0  0  0
  131.3150  131.4310   60.9760 N   0  0  0  0  0  0  0  0  0  0  0  0
  132.6310  131.2390   60.7660 C   0  0  0  0  0  0  0  0  0  0  0  0
  133.5170  131.7870   61.4280 O   0  0  0  0  0  0  0  0  0  0  0  0
  132.9750  130.2600   59.6340 C   0  0  0  0  0  0  0  0  0  0  0  0
  133.2650  131.0330   58.0060 S   0  0  0  0  0  0  0  0  0  0  0  0
  131.7170  131.7070   57.4280 C   0  0  0  0  0  0  0  0  0  0  0  0
  130.8450  132.0970   58.3940 N   0  0  0  0  0  0  0  0  0  0  0  0
  129.6500  132.6160   58.0250 C   0  0  0  0  0  0  0  0  0  0  0  0
  128.7320  133.0280   59.1600 C   0  0  0  0  0  0  0  0  0  0  0  0
  129.2770  132.7700   56.6920 C   0  0  0  0  0  0  0  0  0  0  0  0
  130.1670  132.3740   55.6880 C   0  0  0  0  0  0  0  0  0  0  0  0
  129.7370  132.5520   54.2320 C   0  0  0  0  0  0  0  0  0  0  0  0
  131.4180  131.8280   56.0510 C   0  0  0  0  0  0  0  0  0  0  0  0
  132.3710  131.4040   55.0190 C   0  0  0  0  0  0  0  0  0  0  0  0
  133.1210  131.0700   54.2040 N   0  0  0  0  0  0  0  0  0  0  0  0
  1  2  1  0
  2  3  1  0
  3  4  1  0
  4  5  2  0
  4  6  1  0
  6  7  1  0
  7  8  1  0
  8  9  2  0
  9 10  1  0
 10 11  1  0
 10 12  2  0
 12 13  1  0
 13 14  1  0
 13 15  2  0
 15 16  1  0
 16 17  3  0
 15  8  1  0
M  END
>  <Binding energies>  (12) 
[-6.12]

>  <Ligand effiencies>  (12) 
[-0.34]

>  <Interactions>  (12) 
["V-A:GLU:543:CG:4902, H-A:ALA:541:N:4886, V-A:TYR:539:CE2:4871, V-A:LEU:363:CD1:3184, V-A:TYR:531:CZ:4789, V-A:TYR:539:CD2:4869, V-A:ALA:541:CB:4887, V-A:GLU:543:CD:4903, V-A:TYR:531:CE2:4788, V-A:PRO:540:CB:4880, V-A:PRO:540:CA:4878, V-A:PRO:540:N:4879, V-A:TYR:539:CG:4867, V-A:TYR:539:CD1:4868, V-A:TYR:539:C:4862, V-A:ILE:538:CA:4855, V-A:TYR:539:CZ:4872, V-A:TYR:539:CE1:4870"]

$$$$
1m_Grossjean_2025
     RDKit          3D

 20 20  0  0  0  0  0  0  0  0999 V2000
  130.4110  132.4250   53.8450 C   0  0  0  0  0  0  0  0  0  0  0  0
  131.2270  133.1870   54.7230 O   0  0  0  0  0  0  0  0  0  0  0  0
  131.2420  132.9260   56.0460 C   0  0  0  0  0  0  0  0  0  0  0  0
  130.4810  133.4200   56.8840 O   0  0  0  0  0  0  0  0  0  0  0  0
  132.3380  131.9020   56.4090 C   0  0  0  0  0  0  0  0  0  0  0  0
  132.2520  131.4460   57.8040 N   0  0  0  0  0  0  0  0  0  0  0  0
  133.1750  130.7050   58.4460 C   0  0  0  0  0  0  0  0  0  0  0  0
  134.2110  130.3080   57.9080 O   0  0  0  0  0  0  0  0  0  0  0  0
  132.8540  130.3700   59.9090 C   0  0  0  0  0  0  0  0  0  0  0  0
  131.2020  129.6430   60.1790 S   0  0  0  0  0  0  0  0  0  0  0  0
  129.9840  130.8340   59.6600 C   0  0  0  0  0  0  0  0  0  0  0  0
  129.5310  130.6310   58.3970 N   0  0  0  0  0  0  0  0  0  0  0  0
  128.5970  131.4730   57.8970 C   0  0  0  0  0  0  0  0  0  0  0  0
  128.1250  131.1710   56.4870 C   0  0  0  0  0  0  0  0  0  0  0  0
  128.0890  132.5480   58.6220 C   0  0  0  0  0  0  0  0  0  0  0  0
  128.5680  132.7830   59.9160 C   0  0  0  0  0  0  0  0  0  0  0  0
  128.0080  133.9770   60.6860 C   0  0  0  0  0  0  0  0  0  0  0  0
  129.5450  131.9170   60.4590 C   0  0  0  0  0  0  0  0  0  0  0  0
  130.0960  132.1730   61.7920 C   0  0  0  0  0  0  0  0  0  0  0  0
  130.5310  132.3750   62.8440 N   0  0  0  0  0  0  0  0  0  0  0  0
  1  2  1  0
  2  3  1  0
  3  4  2  0
  3  5  1  0
  5  6  1  0
  6  7  1  0
  7  8  2  0
  7  9  1  0
  9 10  1  0
 10 11  1  0
 11 12  2  0
 12 13  1  0
 13 14  1  0
 13 15  2  0
 15 16  1  0
 16 17  1  0
 16 18  2  0
 18 19  1  0
 19 20  3  0
 18 11  1  0
M  END
>  <Binding energies>  (13) 
[-5.7]

>  <Ligand effiencies>  (13) 
[-0.27142857142857146]

>  <Interactions>  (13) 
["H-A:ALA:541:N:4886, V-A:TYR:539:CE2:4871, V-A:LEU:363:CD1:3184, V-A:TYR:539:CD2:4869, V-A:LEU:363:CA:3180, V-A:ALA:541:CB:4887, V-A:TYR:531:CE2:4788, V-A:PRO:540:CB:4880, V-A:PRO:540:CA:4878, V-A:PRO:540:CD:4882, V-A:PRO:540:N:4879, V-A:ILE:538:CD1:4860, V-A:TYR:539:CG:4867, H-A:TYR:539:N:4865, V-A:TYR:539:C:4862, V-A:ILE:538:CA:4855, V-A:TYR:539:CZ:4872, V-A:ILE:538:CG2:4858, V-A:TYR:539:CE1:4870, H-A:TYR:531:OH:4790, H-A:LEU:363:N:3181"]

$$$$
1n_Grossjean_2025
     RDKit          3D

 27 28  0  0  0  0  0  0  0  0999 V2000
  130.4990  131.2480   73.0210 C   0  0  0  0  0  0  0  0  0  0  0  0
  129.3230  130.5370   73.6980 C   0  0  0  0  0  0  0  0  0  0  0  0
  129.3210  129.1650   73.3230 O   0  0  0  0  0  0  0  0  0  0  0  0
  128.4160  128.6840   72.4320 C   0  0  0  0  0  0  0  0  0  0  0  0
  127.2100  128.5810   72.6750 O   0  0  0  0  0  0  0  0  0  0  0  0
  129.0270  128.3010   71.1150 C   0  0  0  0  0  0  0  0  0  0  0  0
  129.8680  129.1720   70.4050 C   0  0  0  0  0  0  0  0  0  0  0  0
  130.4160  128.7870   69.1850 C   0  0  0  0  0  0  0  0  0  0  0  0
  130.1310  127.5320   68.6450 C   0  0  0  0  0  0  0  0  0  0  0  0
  130.7340  127.2480   67.4050 N   0  0  0  0  0  0  0  0  0  0  0  0
  130.9210  126.0620   66.7860 C   0  0  0  0  0  0  0  0  0  0  0  0
  130.5690  124.9660   67.2230 O   0  0  0  0  0  0  0  0  0  0  0  0
  131.6290  126.1270   65.4270 C   0  0  0  0  0  0  0  0  0  0  0  0
  131.5830  124.7910   64.6550 C   0  0  0  0  0  0  0  0  0  0  0  0
  133.1230  124.3700   63.7850 S   0  0  0  0  0  0  0  0  0  0  0  0
  132.6910  123.3590   62.3850 C   0  0  0  0  0  0  0  0  0  0  0  0
  133.3100  123.7300   61.2360 N   0  0  0  0  0  0  0  0  0  0  0  0
  133.0690  123.0210   60.1080 C   0  0  0  0  0  0  0  0  0  0  0  0
  133.8040  123.4870   58.8660 C   0  0  0  0  0  0  0  0  0  0  0  0
  132.2060  121.9280   60.0770 C   0  0  0  0  0  0  0  0  0  0  0  0
  131.5470  121.5500   61.2530 C   0  0  0  0  0  0  0  0  0  0  0  0
  130.5940  120.3570   61.1920 C   0  0  0  0  0  0  0  0  0  0  0  0
  131.7790  122.2790   62.4410 C   0  0  0  0  0  0  0  0  0  0  0  0
  131.0610  121.9330   63.6690 C   0  0  0  0  0  0  0  0  0  0  0  0
  130.4920  121.6590   64.6390 N   0  0  0  0  0  0  0  0  0  0  0  0
  129.3000  126.6520   69.3530 C   0  0  0  0  0  0  0  0  0  0  0  0
  128.7550  127.0380   70.5750 C   0  0  0  0  0  0  0  0  0  0  0  0
  1  2  1  0
  2  3  1  0
  3  4  1  0
  4  5  2  0
  4  6  1  0
  6  7  2  0
  7  8  1  0
  8  9  2  0
  9 10  1  0
 10 11  1  0
 11 12  2  0
 11 13  1  0
 13 14  1  0
 14 15  1  0
 15 16  1  0
 16 17  2  0
 17 18  1  0
 18 19  1  0
 18 20  2  0
 20 21  1  0
 21 22  1  0
 21 23  2  0
 23 24  1  0
 24 25  3  0
  9 26  1  0
 26 27  2  0
 27  6  1  0
 23 16  1  0
M  END
>  <Binding energies>  (14) 
[-7.46]

>  <Ligand effiencies>  (14) 
[-0.2664285714285714]

>  <Interactions>  (14) 
["V-A:GLU:543:CD:4903, V-A:HIS:456:CE1:4064, H-B:LYS:547:NZ:9919, V-B:HIS:456:CD2:9035, H-A:LYS:547:NZ:4946, V-A:LYS:547:CE:4945, V-A:GLY:544:C:4907, V-A:GLU:543:C:4897, V-A:GLU:543:CB:4901, V-A:GLY:544:CA:4909, H-A:HIS:456:NE2:4065, V-A:TYR:484:CE1:4340, V-B:TYR:539:CE2:9844, V-A:LEU:475:CD2:4254, V-B:ALA:541:CB:9860, V-A:LEU:475:CD1:4253, V-A:ILE:369:CD1:3234, V-A:ASP:366:CG:3208, H-A:TYR:484:OH:4343, V-A:ASP:366:CA:3205, V-A:ASP:366:CB:3207, H-A:GLU:543:OE1:4904, V-A:ILE:369:CG2:3232, V-A:ILE:369:CB:3231, H-A:GLY:454:N:4045"]

$$$$
1q_Grossjean_2025
     RDKit          3D

 21 21  0  0  0  0  0  0  0  0999 V2000
  131.1280  125.8010   66.5780 C   0  0  0  0  0  0  0  0  0  0  0  0
  132.4680  125.3360   66.4970 O   0  0  0  0  0  0  0  0  0  0  0  0
  133.1480  125.3960   65.3250 C   0  0  0  0  0  0  0  0  0  0  0  0
  134.2660  124.9200   65.1210 O   0  0  0  0  0  0  0  0  0  0  0  0
  132.4090  126.1650   64.2090 C   0  0  0  0  0  0  0  0  0  0  0  0
  131.9420  125.2920   63.1220 N   0  0  0  0  0  0  0  0  0  0  0  0
  131.3770  124.0790   63.2720 C   0  0  0  0  0  0  0  0  0  0  0  0
  131.1830  123.5570   64.3720 O   0  0  0  0  0  0  0  0  0  0  0  0
  130.9600  123.3670   61.9770 C   0  0  0  0  0  0  0  0  0  0  0  0
  129.5770  122.6880   62.0440 C   0  0  0  0  0  0  0  0  0  0  0  0
  129.0500  121.9520   60.4680 S   0  0  0  0  0  0  0  0  0  0  0  0
  127.5320  122.7330   59.9570 C   0  0  0  0  0  0  0  0  0  0  0  0
  126.6790  122.9750   60.9850 N   0  0  0  0  0  0  0  0  0  0  0  0
  125.4890  123.5630   60.7200 C   0  0  0  0  0  0  0  0  0  0  0  0
  124.5830  123.7860   61.9160 C   0  0  0  0  0  0  0  0  0  0  0  0
  125.1080  123.9420   59.4350 C   0  0  0  0  0  0  0  0  0  0  0  0
  125.9890  123.7210   58.3720 C   0  0  0  0  0  0  0  0  0  0  0  0
  125.5550  124.1620   56.9750 C   0  0  0  0  0  0  0  0  0  0  0  0
  127.2380  123.1100   58.6240 C   0  0  0  0  0  0  0  0  0  0  0  0
  128.1970  122.9230   57.5330 C   0  0  0  0  0  0  0  0  0  0  0  0
  128.9520  122.7770   56.6680 N   0  0  0  0  0  0  0  0  0  0  0  0
  1  2  1  0
  2  3  1  0
  3  4  2  0
  3  5  1  0
  5  6  1  0
  6  7  1  0
  7  8  2  0
  7  9  1  0
  9 10  1  0
 10 11  1  0
 11 12  1  0
 12 13  2  0
 13 14  1  0
 14 15  1  0
 14 16  2  0
 16 17  1  0
 17 18  1  0
 17 19  2  0
 19 20  1  0
 20 21  3  0
 19 12  1  0
M  END
>  <Binding energies>  (15) 
[-6.38]

>  <Ligand effiencies>  (15) 
[-0.29]

>  <Interactions>  (15) 
["V-A:GLU:543:CD:4903, V-A:HIS:456:CE1:4064, V-B:GLU:543:CD:9876, H-A:HIS:456:NE2:4065, V-B:PRO:540:CB:9853, V-B:PRO:540:CA:9851, V-B:MET:535:CE:9803, V-B:PRO:540:C:9849, V-B:ALA:541:CB:9860, V-B:TYR:539:C:9835, V-B:ASN:362:CB:8143, V-B:PRO:540:N:9852, H-B:ALA:541:N:9859, H-A:TYR:484:OH:4343, V-A:ARG:545:CZ:4921, H-A:ASP:366:OD2:3210, H-A:ARG:545:NE:4919, H-A:GLY:454:N:4045"]

$$$$
2a_Grossjean_2025
     RDKit          3D

 29 30  0  0  0  0  0  0  0  0999 V2000
  131.4510  132.4700   54.6160 C   0  0  0  0  0  0  0  0  0  0  0  0
  129.9800  132.8450   54.8220 C   0  0  0  0  0  0  0  0  0  0  0  0
  129.8270  133.4670   56.0920 O   0  0  0  0  0  0  0  0  0  0  0  0
  130.0700  132.7840   57.2410 C   0  0  0  0  0  0  0  0  0  0  0  0
  131.2040  132.5080   57.6420 O   0  0  0  0  0  0  0  0  0  0  0  0
  128.8180  132.4180   57.9860 C   0  0  0  0  0  0  0  0  0  0  0  0
  127.9480  131.4170   57.5280 C   0  0  0  0  0  0  0  0  0  0  0  0
  126.7960  131.1030   58.2420 C   0  0  0  0  0  0  0  0  0  0  0  0
  126.4840  131.7840   59.4190 C   0  0  0  0  0  0  0  0  0  0  0  0
  125.2880  131.3930   60.0490 N   0  0  0  0  0  0  0  0  0  0  0  0
  124.0050  131.6550   59.7160 C   0  0  0  0  0  0  0  0  0  0  0  0
  123.6410  132.3430   58.7620 O   0  0  0  0  0  0  0  0  0  0  0  0
  122.9450  131.0300   60.6290 C   0  0  0  0  0  0  0  0  0  0  0  0
  123.3350  131.1910   62.4040 S   0  0  0  0  0  0  0  0  0  0  0  0
  124.5660  129.9760   62.8640 C   0  0  0  0  0  0  0  0  0  0  0  0
  125.1620  129.3230   61.8340 N   0  0  0  0  0  0  0  0  0  0  0  0
  126.0940  128.3830   62.1080 C   0  0  0  0  0  0  0  0  0  0  0  0
  126.6950  127.6780   60.9060 C   0  0  0  0  0  0  0  0  0  0  0  0
  126.4750  128.0590   63.4070 C   0  0  0  0  0  0  0  0  0  0  0  0
  125.8780  128.7280   64.4870 C   0  0  0  0  0  0  0  0  0  0  0  0
  126.3110  128.3590   65.9190 C   0  0  0  0  0  0  0  0  0  0  0  0
  125.2490  128.0060   66.6420 F   0  0  0  0  0  0  0  0  0  0  0  0
  127.1720  127.3410   65.8860 F   0  0  0  0  0  0  0  0  0  0  0  0
  126.9110  129.3710   66.5520 F   0  0  0  0  0  0  0  0  0  0  0  0
  124.8970  129.7140   64.2130 C   0  0  0  0  0  0  0  0  0  0  0  0
  124.2380  130.4410   65.3040 C   0  0  0  0  0  0  0  0  0  0  0  0
  123.7190  131.0150   66.1650 N   0  0  0  0  0  0  0  0  0  0  0  0
  127.3520  132.7800   59.8870 C   0  0  0  0  0  0  0  0  0  0  0  0
  128.5070  133.0900   59.1750 C   0  0  0  0  0  0  0  0  0  0  0  0
  1  2  1  0
  2  3  1  0
  3  4  1  0
  4  5  2  0
  4  6  1  0
  6  7  2  0
  7  8  1  0
  8  9  2  0
  9 10  1  0
 10 11  1  0
 11 12  2  0
 11 13  1  0
 13 14  1  0
 14 15  1  0
 15 16  2  0
 16 17  1  0
 17 18  1  0
 17 19  2  0
 19 20  1  0
 20 21  1  0
 21 22  1  0
 21 23  1  0
 21 24  1  0
 20 25  2  0
 25 26  1  0
 26 27  3  0
  9 28  1  0
 28 29  2  0
 29  6  1  0
 25 15  1  0
M  END
>  <Binding energies>  (16) 
[-7.29]

>  <Ligand effiencies>  (16) 
[-0.243]

>  <Interactions>  (16) 
["V-B:ILE:369:CD1:8206, V-A:TYR:539:CE2:4871, V-A:TYR:539:CD2:4869, V-A:PRO:540:CB:4880, V-A:PRO:540:CA:4878, V-A:PRO:540:CD:4882, V-A:PRO:540:N:4879, V-A:ILE:538:CD1:4860, V-A:TYR:539:CG:4867, H-A:TYR:539:N:4865, V-B:ARG:545:CZ:9894, V-A:TYR:539:CD1:4868, V-A:TYR:539:C:4862, V-A:ILE:538:CA:4855, H-B:TYR:484:OH:9315, V-B:GLU:543:CD:9876, V-B:HIS:456:CE1:9037, V-B:ARG:545:CD:9891, V-B:GLU:543:CG:9875, V-B:ARG:545:CG:9890, V-B:GLU:543:CB:9874, V-A:TYR:539:CZ:4872, V-A:ILE:538:CG2:4858, V-A:TYR:539:CE1:4870, V-B:ASP:366:CB:8179, V-B:ASP:366:CG:8180, H-A:TYR:539:OH:4873, H-B:GLY:454:N:9017, V-B:ASP:366:CA:8177, H-B:ARG:545:NH2:9896, V-B:ILE:369:CG1:8205, V-B:ILE:369:CB:8203, H-B:ILE:455:N:9022"]

$$$$
2b_Grossjean_2025
     RDKit          3D

 28 29  0  0  0  0  0  0  0  0999 V2000
  129.9490  132.5050   54.2030 C   0  0  0  0  0  0  0  0  0  0  0  0
  129.7460  133.3200   55.3490 O   0  0  0  0  0  0  0  0  0  0  0  0
  130.1710  132.9210   56.5750 C   0  0  0  0  0  0  0  0  0  0  0  0
  131.3620  132.8630   56.8970 O   0  0  0  0  0  0  0  0  0  0  0  0
  129.0470  132.5530   57.5000 C   0  0  0  0  0  0  0  0  0  0  0  0
  128.8420  133.2170   58.7180 C   0  0  0  0  0  0  0  0  0  0  0  0
  127.7910  132.8490   59.5550 C   0  0  0  0  0  0  0  0  0  0  0  0
  126.9240  131.8190   59.1910 C   0  0  0  0  0  0  0  0  0  0  0  0
  125.9010  131.5260   60.1130 N   0  0  0  0  0  0  0  0  0  0  0  0
  124.5640  131.6660   59.9900 C   0  0  0  0  0  0  0  0  0  0  0  0
  123.9830  132.1240   59.0050 O   0  0  0  0  0  0  0  0  0  0  0  0
  123.7460  131.2230   61.2070 C   0  0  0  0  0  0  0  0  0  0  0  0
  124.2050  132.1010   62.7380 S   0  0  0  0  0  0  0  0  0  0  0  0
  124.4830  130.9250   64.0550 C   0  0  0  0  0  0  0  0  0  0  0  0
  123.4870  130.8210   64.9720 N   0  0  0  0  0  0  0  0  0  0  0  0
  123.6310  129.9550   65.9990 C   0  0  0  0  0  0  0  0  0  0  0  0
  122.4800  129.9080   66.9860 C   0  0  0  0  0  0  0  0  0  0  0  0
  124.7600  129.1550   66.1540 C   0  0  0  0  0  0  0  0  0  0  0  0
  125.7990  129.2400   65.2150 C   0  0  0  0  0  0  0  0  0  0  0  0
  127.0390  128.3440   65.3980 C   0  0  0  0  0  0  0  0  0  0  0  0
  127.2870  127.6740   64.2710 F   0  0  0  0  0  0  0  0  0  0  0  0
  128.1030  129.0900   65.7000 F   0  0  0  0  0  0  0  0  0  0  0  0
  126.8890  127.4470   66.3740 F   0  0  0  0  0  0  0  0  0  0  0  0
  125.6630  130.1500   64.1350 C   0  0  0  0  0  0  0  0  0  0  0  0
  126.7210  130.2840   63.1280 C   0  0  0  0  0  0  0  0  0  0  0  0
  127.5550  130.3900   62.3330 N   0  0  0  0  0  0  0  0  0  0  0  0
  127.1280  131.1450   57.9790 C   0  0  0  0  0  0  0  0  0  0  0  0
  128.1790  131.5120   57.1440 C   0  0  0  0  0  0  0  0  0  0  0  0
  1  2  1  0
  2  3  1  0
  3  4  2  0
  3  5  1  0
  5  6  2  0
  6  7  1  0
  7  8  2  0
  8  9  1  0
  9 10  1  0
 10 11  2  0
 10 12  1  0
 12 13  1  0
 13 14  1  0
 14 15  2  0
 15 16  1  0
 16 17  1  0
 16 18  2  0
 18 19  1  0
 19 20  1  0
 20 21  1  0
 20 22  1  0
 20 23  1  0
 19 24  2  0
 24 25  1  0
 25 26  3  0
  8 27  1  0
 27 28  2  0
 28  5  1  0
 24 14  1  0
M  END
>  <Binding energies>  (17) 
[-7.16]

>  <Ligand effiencies>  (17) 
[-0.24689655172413794]

>  <Interactions>  (17) 
["V-A:GLU:543:CG:4902, V-B:ILE:369:CD1:8206, V-A:TYR:539:CE2:4871, V-A:TYR:539:CD2:4869, V-A:GLU:543:CD:4903, V-A:PRO:540:CA:4878, V-A:PRO:540:CD:4882, V-A:PRO:540:N:4879, V-A:ILE:538:CD1:4860, V-A:TYR:539:CG:4867, H-A:TYR:539:N:4865, V-B:ARG:545:CZ:9894, V-A:TYR:539:CD1:4868, V-A:TYR:539:C:4862, V-A:ILE:538:CA:4855, H-B:TYR:484:OH:9315, V-B:GLU:543:CD:9876, V-B:HIS:456:CE1:9037, V-B:ARG:545:CD:9891, V-B:GLU:543:CG:9875, V-B:ARG:545:CG:9890, V-B:GLU:543:CB:9874, V-A:TYR:539:CZ:4872, V-A:TYR:539:CE1:4870, H-A:TYR:539:OH:4873, H-B:GLY:454:N:9017, V-B:GLY:453:CA:9011, V-B:GLY:453:C:9009, V-B:ARG:545:CB:9889, V-B:ILE:455:C:9019"]

$$$$
2c_Grossjean_2025
     RDKit          3D

 26 27  0  0  0  0  0  0  0  0999 V2000
  129.6520  126.7820   54.2620 C   0  0  0  0  0  0  0  0  0  0  0  0
  130.0700  125.4210   54.2610 O   0  0  0  0  0  0  0  0  0  0  0  0
  129.9360  124.6750   55.4160 C   0  0  0  0  0  0  0  0  0  0  0  0
  128.9920  123.6490   55.3880 C   0  0  0  0  0  0  0  0  0  0  0  0
  128.7840  122.8430   56.5040 C   0  0  0  0  0  0  0  0  0  0  0  0
  129.5220  123.0660   57.6760 C   0  0  0  0  0  0  0  0  0  0  0  0
  129.3960  122.2940   58.8450 N   0  0  0  0  0  0  0  0  0  0  0  0
  128.5090  122.4330   59.8540 C   0  0  0  0  0  0  0  0  0  0  0  0
  127.6710  123.3330   59.9330 O   0  0  0  0  0  0  0  0  0  0  0  0
  128.6320  121.3850   60.9710 C   0  0  0  0  0  0  0  0  0  0  0  0
  130.2570  120.5600   61.0990 S   0  0  0  0  0  0  0  0  0  0  0  0
  131.5560  121.7820   60.9690 C   0  0  0  0  0  0  0  0  0  0  0  0
  132.1320  121.9000   59.7440 N   0  0  0  0  0  0  0  0  0  0  0  0
  133.1270  122.7970   59.5740 C   0  0  0  0  0  0  0  0  0  0  0  0
  133.7290  122.8560   58.1840 C   0  0  0  0  0  0  0  0  0  0  0  0
  133.5830  123.6170   60.6040 C   0  0  0  0  0  0  0  0  0  0  0  0
  132.9990  123.5190   61.8740 C   0  0  0  0  0  0  0  0  0  0  0  0
  133.5130  124.4340   63.0030 C   0  0  0  0  0  0  0  0  0  0  0  0
  134.8210  124.6490   62.8550 F   0  0  0  0  0  0  0  0  0  0  0  0
  132.8750  125.6040   62.9700 F   0  0  0  0  0  0  0  0  0  0  0  0
  133.3280  123.9090   64.2170 F   0  0  0  0  0  0  0  0  0  0  0  0
  131.9560  122.5770   62.0690 C   0  0  0  0  0  0  0  0  0  0  0  0
  131.3100  122.4290   63.3770 C   0  0  0  0  0  0  0  0  0  0  0  0
  130.8000  122.3140   64.4100 N   0  0  0  0  0  0  0  0  0  0  0  0
  130.4800  124.0810   57.7030 C   0  0  0  0  0  0  0  0  0  0  0  0
  130.6850  124.8840   56.5850 C   0  0  0  0  0  0  0  0  0  0  0  0
  1  2  1  0
  2  3  1  0
  3  4  2  0
  4  5  1  0
  5  6  2  0
  6  7  1  0
  7  8  1  0
  8  9  2  0
  8 10  1  0
 10 11  1  0
 11 12  1  0
 12 13  2  0
 13 14  1  0
 14 15  1  0
 14 16  2  0
 16 17  1  0
 17 18  1  0
 18 19  1  0
 18 20  1  0
 18 21  1  0
 17 22  2  0
 22 23  1  0
 23 24  3  0
  6 25  1  0
 25 26  2  0
 26  3  1  0
 22 12  1  0
M  END
>  <Binding energies>  (18) 
[-6.66]

>  <Ligand effiencies>  (18) 
[-0.24666666666666667]

>  <Interactions>  (18) 
["V-A:TYR:531:CZ:4789, V-A:TYR:531:CE1:4787, V-B:TYR:539:CD2:9842, V-B:TYR:539:CE2:9844, V-B:TYR:539:CZ:9845, V-A:LEU:475:CD2:4254, V-B:PRO:540:CA:9851, V-B:TYR:539:CE1:9843, V-B:MET:535:CE:9803, V-B:TYR:539:CD1:9841, V-B:PRO:540:C:9849, V-B:ALA:541:CB:9860, V-B:TYR:539:C:9835, V-B:TYR:539:CG:9840, V-A:ILE:369:CD1:3234, H-B:TYR:539:O:9836, V-A:ASP:366:CG:3208, H-A:LYS:534:NZ:4818, H-A:TYR:484:OH:4343, V-A:LYS:534:CD:4816, V-A:GLY:454:CA:4044, V-A:ARG:545:CZ:4921, V-A:ILE:369:CG2:3232, V-A:ILE:369:CB:3231, V-B:ALA:541:CA:9858, V-A:GLY:453:C:4037, V-A:GLY:453:CA:4039"]

$$$$
2d_Ghoteimi_2023
     RDKit          3D

 38 42  0  0  0  0  0  0  0  0999 V2000
  133.8430  125.0610   64.2350 C   0  0  0  0  0  0  0  0  0  0  0  0
  134.2690  124.3030   63.1140 O   0  0  0  0  0  0  0  0  0  0  0  0
  133.7240  123.0970   62.8530 C   0  0  0  0  0  0  0  0  0  0  0  0
  133.4800  122.2250   63.6930 O   0  0  0  0  0  0  0  0  0  0  0  0
  133.4280  122.9300   61.3560 C   0  0  0  0  0  0  0  0  0  0  0  0
  131.6550  123.1850   61.0010 S   0  0  0  0  0  0  0  0  0  0  0  0
  131.1530  124.7280   61.7340 C   0  0  0  0  0  0  0  0  0  0  0  0
  131.1380  125.7590   60.8540 N   0  0  0  0  0  0  0  0  0  0  0  0
  130.7810  126.9980   61.2770 C   0  0  0  0  0  0  0  0  0  0  0  0
  130.8050  128.0870   60.2540 C   0  0  0  0  0  0  0  0  0  0  0  0
  131.5060  129.2740   60.4930 C   0  0  0  0  0  0  0  0  0  0  0  0
  131.5330  130.2930   59.5440 C   0  0  0  0  0  0  0  0  0  0  0  0
  130.8670  130.1570   58.3170 C   0  0  0  0  0  0  0  0  0  0  0  0
  130.8680  131.1790   57.3600 N   0  0  0  0  0  0  0  0  0  0  0  0
  129.7340  132.1130   57.2270 C   0  0  0  0  0  0  0  0  0  0  0  0
  129.7420  132.9120   55.9070 C   0  0  0  0  0  0  0  0  0  0  0  0
  130.9770  133.5940   55.7620 O   0  0  0  0  0  0  0  0  0  0  0  0
  132.0710  132.6910   55.7290 C   0  0  0  0  0  0  0  0  0  0  0  0
  132.1280  131.8810   57.0420 C   0  0  0  0  0  0  0  0  0  0  0  0
  130.1540  128.9720   58.0870 C   0  0  0  0  0  0  0  0  0  0  0  0
  130.1260  127.9540   59.0360 C   0  0  0  0  0  0  0  0  0  0  0  0
  130.4240  127.2300   62.6080 C   0  0  0  0  0  0  0  0  0  0  0  0
  130.3990  126.1760   63.5300 C   0  0  0  0  0  0  0  0  0  0  0  0
  129.9810  126.4930   64.9280 C   0  0  0  0  0  0  0  0  0  0  0  0
  128.7990  127.1970   65.1650 C   0  0  0  0  0  0  0  0  0  0  0  0
  128.3930  127.4870   66.4650 C   0  0  0  0  0  0  0  0  0  0  0  0
  129.1620  127.0800   67.5680 C   0  0  0  0  0  0  0  0  0  0  0  0
  128.7680  127.3490   68.8810 N   0  0  0  0  0  0  0  0  0  0  0  0
  127.3490  127.2970   69.2840 C   0  0  0  0  0  0  0  0  0  0  0  0
  127.1450  127.2630   70.8140 C   0  0  0  0  0  0  0  0  0  0  0  0
  127.8040  128.3670   71.4160 O   0  0  0  0  0  0  0  0  0  0  0  0
  129.1990  128.3500   71.1570 C   0  0  0  0  0  0  0  0  0  0  0  0
  129.4550  128.4150   69.6360 C   0  0  0  0  0  0  0  0  0  0  0  0
  130.3380  126.3580   67.3210 C   0  0  0  0  0  0  0  0  0  0  0  0
  130.7420  126.0680   66.0210 C   0  0  0  0  0  0  0  0  0  0  0  0
  130.7690  124.8820   63.0860 C   0  0  0  0  0  0  0  0  0  0  0  0
  130.7400  123.7430   64.0090 C   0  0  0  0  0  0  0  0  0  0  0  0
  130.7160  122.8460   64.7410 N   0  0  0  0  0  0  0  0  0  0  0  0
  1  2  1  0
  2  3  1  0
  3  4  2  0
  3  5  1  0
  5  6  1  0
  6  7  1  0
  7  8  2  0
  8  9  1  0
  9 10  1  0
 10 11  2  0
 11 12  1  0
 12 13  2  0
 13 14  1  0
 14 15  1  0
 15 16  1  0
 16 17  1  0
 17 18  1  0
 18 19  1  0
 13 20  1  0
 20 21  2  0
  9 22  2  0
 22 23  1  0
 23 24  1  0
 24 25  2  0
 25 26  1  0
 26 27  2  0
 27 28  1  0
 28 29  1  0
 29 30  1  0
 30 31  1  0
 31 32  1  0
 32 33  1  0
 27 34  1  0
 34 35  2  0
 23 36  2  0
 36 37  1  0
 37 38  3  0
 36  7  1  0
 21 10  1  0
 35 24  1  0
 19 14  1  0
 33 28  1  0
M  END
>  <Binding energies>  (19) 
[-9.11]

>  <Ligand effiencies>  (19) 
[-0.23973684210526314]

>  <Interactions>  (19) 
["V-A:LEU:363:CD1:3184, V-A:GLU:543:CD:4903, V-A:PRO:540:CB:4880, V-A:PRO:540:CD:4882, V-A:TYR:539:CG:4867, H-A:TYR:539:N:4865, V-A:TYR:539:CD1:4868, V-B:GLU:543:C:9870, V-A:HIS:456:CE1:4064, H-B:LYS:547:NZ:9919, V-B:HIS:456:CD2:9035, V-B:GLU:543:CD:9876, V-B:HIS:456:CE1:9037, V-B:GLU:543:CB:9874, V-A:ILE:538:CG2:4858, V-A:TYR:539:CE1:4870, V-A:ILE:369:CD1:3234, H-A:TYR:484:OH:4343, V-A:GLY:454:CA:4044, V-A:ARG:545:CZ:4921, V-A:PRO:540:CG:4881, V-B:GLY:544:C:9880, H-A:GLY:454:N:4045"]

$$$$
2d_Grossjean_2025
     RDKit          3D

 24 25  0  0  0  0  0  0  0  0999 V2000
  127.1090  127.8220   54.5310 C   0  0  0  0  0  0  0  0  0  0  0  0
  127.7220  129.1060   55.0580 C   0  0  0  0  0  0  0  0  0  0  0  0
  127.3370  129.6490   56.2820 C   0  0  0  0  0  0  0  0  0  0  0  0
  127.9370  130.8360   56.7280 C   0  0  0  0  0  0  0  0  0  0  0  0
  127.5070  131.4170   58.0890 C   0  0  0  0  0  0  0  0  0  0  0  0
  126.1940  131.2570   58.2580 F   0  0  0  0  0  0  0  0  0  0  0  0
  128.1490  130.7900   59.0770 F   0  0  0  0  0  0  0  0  0  0  0  0
  127.7710  132.7200   58.2020 F   0  0  0  0  0  0  0  0  0  0  0  0
  128.9170  131.4510   55.9070 C   0  0  0  0  0  0  0  0  0  0  0  0
  129.6060  132.6670   56.3490 C   0  0  0  0  0  0  0  0  0  0  0  0
  130.1510  133.6260   56.6990 N   0  0  0  0  0  0  0  0  0  0  0  0
  129.2250  130.8410   54.6680 C   0  0  0  0  0  0  0  0  0  0  0  0
  130.4060  131.4950   53.5030 S   0  0  0  0  0  0  0  0  0  0  0  0
  132.0850  131.0660   54.0680 C   0  0  0  0  0  0  0  0  0  0  0  0
  132.3600  131.4990   55.5110 C   0  0  0  0  0  0  0  0  0  0  0  0
  132.7050  132.6600   55.7320 O   0  0  0  0  0  0  0  0  0  0  0  0
  132.2260  130.5340   56.4450 N   0  0  0  0  0  0  0  0  0  0  0  0
  132.4030  130.6160   57.8390 C   0  0  0  0  0  0  0  0  0  0  0  0
  133.6710  130.2800   58.3170 C   0  0  0  0  0  0  0  0  0  0  0  0
  133.9420  130.3240   59.6820 C   0  0  0  0  0  0  0  0  0  0  0  0
  132.9380  130.6970   60.5720 C   0  0  0  0  0  0  0  0  0  0  0  0
  131.6650  131.0210   60.1090 C   0  0  0  0  0  0  0  0  0  0  0  0
  131.3920  130.9790   58.7450 C   0  0  0  0  0  0  0  0  0  0  0  0
  128.6510  129.6820   54.2620 N   0  0  0  0  0  0  0  0  0  0  0  0
  1  2  1  0
  2  3  2  0
  3  4  1  0
  4  5  1  0
  5  6  1  0
  5  7  1  0
  5  8  1  0
  4  9  2  0
  9 10  1  0
 10 11  3  0
  9 12  1  0
 12 13  1  0
 13 14  1  0
 14 15  1  0
 15 16  2  0
 15 17  1  0
 17 18  1  0
 18 19  2  0
 19 20  1  0
 20 21  2  0
 21 22  1  0
 22 23  2  0
 12 24  2  0
 24  2  1  0
 23 18  1  0
M  END
>  <Binding energies>  (20) 
[-6.84]

>  <Ligand effiencies>  (20) 
[-0.2736]

>  <Interactions>  (20) 
["V-A:TYR:539:CE2:4871, V-A:LEU:363:CD1:3184, V-A:TYR:531:CZ:4789, V-A:TYR:539:CD2:4869, V-A:LEU:363:CA:3180, V-A:ASN:362:C:3167, V-A:TYR:531:CE2:4788, V-A:PRO:540:CB:4880, V-A:PRO:540:CA:4878, V-A:ILE:538:CD1:4860, V-A:TYR:539:CG:4867, H-A:TYR:539:N:4865, V-A:TYR:539:CD1:4868, V-A:MET:535:CG:4828, V-A:TYR:539:CZ:4872, V-A:TYR:539:CE1:4870, V-B:TYR:531:CZ:9762, V-A:ASP:366:CG:3208, H-A:TYR:531:OH:4790"]

$$$$
2e_Grossjean_2025
     RDKit          3D

 25 26  0  0  0  0  0  0  0  0999 V2000
  127.7990  136.3020   61.7500 C   0  0  0  0  0  0  0  0  0  0  0  0
  127.4870  134.8810   61.3210 C   0  0  0  0  0  0  0  0  0  0  0  0
  126.1850  134.4800   61.0110 C   0  0  0  0  0  0  0  0  0  0  0  0
  125.9740  133.1590   60.6130 C   0  0  0  0  0  0  0  0  0  0  0  0
  127.0570  132.2800   60.5350 C   0  0  0  0  0  0  0  0  0  0  0  0
  128.3340  132.7460   60.8690 C   0  0  0  0  0  0  0  0  0  0  0  0
  129.3940  131.8320   60.7320 N   0  0  0  0  0  0  0  0  0  0  0  0
  130.5520  131.7890   61.4270 C   0  0  0  0  0  0  0  0  0  0  0  0
  130.8380  132.5270   62.3710 O   0  0  0  0  0  0  0  0  0  0  0  0
  131.5800  130.7600   60.9450 C   0  0  0  0  0  0  0  0  0  0  0  0
  130.8470  129.5440   59.8050 S   0  0  0  0  0  0  0  0  0  0  0  0
  130.3800  130.4690   58.3590 C   0  0  0  0  0  0  0  0  0  0  0  0
  129.0540  130.4450   58.0770 N   0  0  0  0  0  0  0  0  0  0  0  0
  128.6180  131.0860   56.9690 C   0  0  0  0  0  0  0  0  0  0  0  0
  127.1250  131.0200   56.7130 C   0  0  0  0  0  0  0  0  0  0  0  0
  129.4770  131.7620   56.1030 C   0  0  0  0  0  0  0  0  0  0  0  0
  130.8530  131.7870   56.3760 C   0  0  0  0  0  0  0  0  0  0  0  0
  131.7920  132.5200   55.4000 C   0  0  0  0  0  0  0  0  0  0  0  0
  131.0810  133.2770   54.5620 F   0  0  0  0  0  0  0  0  0  0  0  0
  132.6350  133.2990   56.0770 F   0  0  0  0  0  0  0  0  0  0  0  0
  132.5230  131.6820   54.6610 F   0  0  0  0  0  0  0  0  0  0  0  0
  131.3240  131.1250   57.5370 C   0  0  0  0  0  0  0  0  0  0  0  0
  132.7540  131.0900   57.8610 C   0  0  0  0  0  0  0  0  0  0  0  0
  133.8830  131.0620   58.1170 N   0  0  0  0  0  0  0  0  0  0  0  0
  128.5490  134.0380   61.2520 N   0  0  0  0  0  0  0  0  0  0  0  0
  1  2  1  0
  2  3  2  0
  3  4  1  0
  4  5  2  0
  5  6  1  0
  6  7  1  0
  7  8  1  0
  8  9  2  0
  8 10  1  0
 10 11  1  0
 11 12  1  0
 12 13  2  0
 13 14  1  0
 14 15  1  0
 14 16  2  0
 16 17  1  0
 17 18  1  0
 18 19  1  0
 18 20  1  0
 18 21  1  0
 17 22  2  0
 22 23  1  0
 23 24  3  0
  6 25  2  0
 25  2  1  0
 22 12  1  0
M  END
>  <Binding energies>  (21) 
[-6.47]

>  <Ligand effiencies>  (21) 
[-0.24884615384615383]

>  <Interactions>  (21) 
["H-A:ALA:541:N:4886, V-A:TYR:539:CE2:4871, V-A:LEU:363:CD1:3184, V-A:TYR:539:CD2:4869, V-B:LEU:475:CD2:9226, V-A:ALA:541:CB:4887, V-A:TYR:531:CE2:4788, V-A:PRO:540:CB:4880, V-A:PRO:540:CA:4878, V-A:PRO:540:CD:4882, V-A:PRO:540:N:4879, V-B:LEU:475:CD1:9225, V-A:ILE:538:CD1:4860, V-A:ILE:538:CA:4855, V-A:ILE:538:CB:4857, V-A:TYR:539:CZ:4872, V-A:ILE:538:CG2:4858, V-A:TYR:539:CE1:4870, V-B:TRP:381:CZ2:8337, V-B:TRP:381:CH2:8339, V-B:PRO:482:CB:9293, V-B:PRO:482:CG:9294, V-A:PRO:540:CG:4881, V-A:ILE:538:CG1:4859, V-A:ILE:538:C:4853"]

$$$$
2f_Grossjean_2025
     RDKit          3D

 24 25  0  0  0  0  0  0  0  0999 V2000
  124.4950  123.5840   62.1120 C   0  0  0  0  0  0  0  0  0  0  0  0
  125.3640  123.5440   60.8690 C   0  0  0  0  0  0  0  0  0  0  0  0
  124.8490  123.8370   59.6090 C   0  0  0  0  0  0  0  0  0  0  0  0
  125.6910  123.7780   58.4880 C   0  0  0  0  0  0  0  0  0  0  0  0
  125.1000  124.0940   57.1010 C   0  0  0  0  0  0  0  0  0  0  0  0
  125.0060  122.9770   56.3770 F   0  0  0  0  0  0  0  0  0  0  0  0
  123.8840  124.6250   57.2350 F   0  0  0  0  0  0  0  0  0  0  0  0
  125.8420  124.9580   56.4060 F   0  0  0  0  0  0  0  0  0  0  0  0
  127.0520  123.4260   58.6800 C   0  0  0  0  0  0  0  0  0  0  0  0
  127.9580  123.2960   57.5360 C   0  0  0  0  0  0  0  0  0  0  0  0
  128.6730  123.1940   56.6310 N   0  0  0  0  0  0  0  0  0  0  0  0
  127.4930  123.1710   60.0010 C   0  0  0  0  0  0  0  0  0  0  0  0
  129.1660  122.7290   60.4280 S   0  0  0  0  0  0  0  0  0  0  0  0
  129.1560  122.0480   62.1210 C   0  0  0  0  0  0  0  0  0  0  0  0
  130.3200  122.5060   63.0130 C   0  0  0  0  0  0  0  0  0  0  0  0
  131.2740  121.7590   63.2330 O   0  0  0  0  0  0  0  0  0  0  0  0
  130.1800  123.7490   63.5220 N   0  0  0  0  0  0  0  0  0  0  0  0
  131.0480  124.4770   64.3570 C   0  0  0  0  0  0  0  0  0  0  0  0
  132.2700  125.0530   63.9620 C   0  0  0  0  0  0  0  0  0  0  0  0
  133.0360  125.7560   64.8930 C   0  0  0  0  0  0  0  0  0  0  0  0
  132.5590  125.8710   66.1990 C   0  0  0  0  0  0  0  0  0  0  0  0
  131.3810  125.3330   66.6040 N   0  0  0  0  0  0  0  0  0  0  0  0
  130.6470  124.6520   65.6860 C   0  0  0  0  0  0  0  0  0  0  0  0
  126.6590  123.2110   61.0680 N   0  0  0  0  0  0  0  0  0  0  0  0
  1  2  1  0
  2  3  2  0
  3  4  1  0
  4  5  1  0
  5  6  1  0
  5  7  1  0
  5  8  1  0
  4  9  2  0
  9 10  1  0
 10 11  3  0
  9 12  1  0
 12 13  1  0
 13 14  1  0
 14 15  1  0
 15 16  2  0
 15 17  1  0
 17 18  1  0
 18 19  2  0
 19 20  1  0
 20 21  2  0
 21 22  1  0
 22 23  2  0
 12 24  2  0
 24  2  1  0
 23 18  1  0
M  END
>  <Binding energies>  (22) 
[-7.08]

>  <Ligand effiencies>  (22) 
[-0.2832]

>  <Interactions>  (22) 
["V-A:HIS:456:CE1:4064, V-B:GLU:543:CD:9876, V-B:GLU:543:CG:9875, H-A:HIS:456:NE2:4065, V-A:TYR:484:CZ:4342, V-A:TYR:484:CE1:4340, V-B:PRO:540:CB:9853, V-B:PRO:540:CA:9851, V-B:MET:535:CE:9803, V-B:PRO:540:C:9849, V-B:ALA:541:CB:9860, V-B:ASN:362:CB:8143, V-B:PRO:540:N:9852, V-B:TYR:531:CZ:9762, H-B:ALA:541:N:9859, H-A:TYR:484:OH:4343, V-B:ASP:366:CB:8179, V-B:PRO:540:CD:9855, V-B:LEU:363:CD1:8156, H-B:GLU:543:OE2:9878, V-A:ARG:545:CZ:4921, V-B:LEU:363:CA:8152, V-B:ALA:541:CA:9858, V-A:ARG:545:CG:4917, V-A:ARG:545:CD:4918, V-B:TYR:531:CE2:9761, V-B:ASN:362:CG:8144"]

$$$$
2g_Grossjean_2025
     RDKit          3D

 25 26  0  0  0  0  0  0  0  0999 V2000
  129.0680  132.9140   57.2920 C   0  0  0  0  0  0  0  0  0  0  0  0
  128.9930  132.8390   58.8050 C   0  0  0  0  0  0  0  0  0  0  0  0
  128.1360  133.6590   59.5340 C   0  0  0  0  0  0  0  0  0  0  0  0
  128.1090  133.5570   60.9340 C   0  0  0  0  0  0  0  0  0  0  0  0
  127.1610  134.4790   61.7250 C   0  0  0  0  0  0  0  0  0  0  0  0
  126.3800  135.1660   60.8890 F   0  0  0  0  0  0  0  0  0  0  0  0
  126.3920  133.7490   62.5340 F   0  0  0  0  0  0  0  0  0  0  0  0
  127.8130  135.3650   62.4800 F   0  0  0  0  0  0  0  0  0  0  0  0
  128.9570  132.6080   61.5610 C   0  0  0  0  0  0  0  0  0  0  0  0
  129.0090  132.5010   63.0220 C   0  0  0  0  0  0  0  0  0  0  0  0
  129.0500  132.4170   64.1750 N   0  0  0  0  0  0  0  0  0  0  0  0
  129.7730  131.7960   60.7360 C   0  0  0  0  0  0  0  0  0  0  0  0
  130.8740  130.5420   61.3550 S   0  0  0  0  0  0  0  0  0  0  0  0
  132.5810  131.1250   61.0750 C   0  0  0  0  0  0  0  0  0  0  0  0
  133.2000  130.6810   59.7430 C   0  0  0  0  0  0  0  0  0  0  0  0
  134.2630  130.0590   59.7050 O   0  0  0  0  0  0  0  0  0  0  0  0
  132.5080  131.0230   58.6410 N   0  0  0  0  0  0  0  0  0  0  0  0
  132.8900  130.7050   57.2640 C   0  0  0  0  0  0  0  0  0  0  0  0
  131.9510  131.2710   56.2040 C   0  0  0  0  0  0  0  0  0  0  0  0
  132.0620  132.6110   55.8200 C   0  0  0  0  0  0  0  0  0  0  0  0
  131.2310  133.1200   54.8250 C   0  0  0  0  0  0  0  0  0  0  0  0
  130.3000  132.2860   54.2110 C   0  0  0  0  0  0  0  0  0  0  0  0
  130.1930  130.9460   54.5800 C   0  0  0  0  0  0  0  0  0  0  0  0
  131.0240  130.4370   55.5740 C   0  0  0  0  0  0  0  0  0  0  0  0
  129.8020  131.9250   59.3870 N   0  0  0  0  0  0  0  0  0  0  0  0
  1  2  1  0
  2  3  2  0
  3  4  1  0
  4  5  1  0
  5  6  1  0
  5  7  1  0
  5  8  1  0
  4  9  2  0
  9 10  1  0
 10 11  3  0
  9 12  1  0
 12 13  1  0
 13 14  1  0
 14 15  1  0
 15 16  2  0
 15 17  1  0
 17 18  1  0
 18 19  1  0
 19 20  2  0
 20 21  1  0
 21 22  2  0
 22 23  1  0
 23 24  2  0
 12 25  2  0
 25  2  1  0
 24 19  1  0
M  END
>  <Binding energies>  (23) 
[-6.59]

>  <Ligand effiencies>  (23) 
[-0.25346153846153846]

>  <Interactions>  (23) 
["V-A:GLU:543:CG:4902, V-A:TYR:539:CE2:4871, V-A:LEU:363:CD1:3184, V-A:TYR:531:CZ:4789, V-A:TYR:539:CD2:4869, V-B:LEU:475:CD2:9226, V-A:ALA:541:CB:4887, V-A:ALA:541:CA:4885, V-A:TYR:531:CE2:4788, V-A:PRO:540:CB:4880, V-A:PRO:540:CA:4878, V-A:PRO:540:CD:4882, V-A:PRO:540:N:4879, V-B:LEU:475:CD1:9225, V-A:ILE:538:CD1:4860, V-A:TYR:539:CG:4867, V-A:TYR:539:CD1:4868, V-A:TYR:539:C:4862, V-A:ILE:538:CA:4855, H-B:TYR:484:OH:9315, V-A:ILE:538:CB:4857, V-A:TYR:539:CZ:4872, V-A:ILE:538:CG2:4858, V-A:TYR:539:CE1:4870, V-B:TRP:381:CH2:8339, V-B:PRO:482:CB:9293, V-B:LEU:475:CG:9224, V-A:ILE:538:C:4853, H-A:LEU:363:N:3181"]

$$$$
2h_Grossjean_2025
     RDKit          3D

 31 32  0  0  0  0  0  0  0  0999 V2000
  131.6300  133.2620   55.6890 C   0  0  0  0  0  0  0  0  0  0  0  0
  130.2270  133.0460   55.5970 O   0  0  0  0  0  0  0  0  0  0  0  0
  129.7430  131.7510   55.5210 C   0  0  0  0  0  0  0  0  0  0  0  0
  130.2170  130.7900   54.6140 C   0  0  0  0  0  0  0  0  0  0  0  0
  129.6860  129.5030   54.6020 C   0  0  0  0  0  0  0  0  0  0  0  0
  128.6720  129.1460   55.4930 C   0  0  0  0  0  0  0  0  0  0  0  0
  128.1200  127.7220   55.4740 C   0  0  0  0  0  0  0  0  0  0  0  0
  129.0380  126.7290   56.0330 N   0  0  0  0  0  0  0  0  0  0  0  0
  129.6130  125.7330   55.3360 C   0  0  0  0  0  0  0  0  0  0  0  0
  129.3580  125.5020   54.1520 O   0  0  0  0  0  0  0  0  0  0  0  0
  130.6340  124.8870   56.1090 C   0  0  0  0  0  0  0  0  0  0  0  0
  129.9410  123.9130   57.4870 S   0  0  0  0  0  0  0  0  0  0  0  0
  128.2900  124.5150   57.7630 C   0  0  0  0  0  0  0  0  0  0  0  0
  128.2430  125.6840   58.4490 N   0  0  0  0  0  0  0  0  0  0  0  0
  127.0350  126.2210   58.7310 C   0  0  0  0  0  0  0  0  0  0  0  0
  127.0590  127.5250   59.5070 C   0  0  0  0  0  0  0  0  0  0  0  0
  125.8370  125.6270   58.3400 C   0  0  0  0  0  0  0  0  0  0  0  0
  125.8660  124.4280   57.6110 C   0  0  0  0  0  0  0  0  0  0  0  0
  124.5310  123.7910   57.1800 C   0  0  0  0  0  0  0  0  0  0  0  0
  124.2440  124.1410   55.9260 F   0  0  0  0  0  0  0  0  0  0  0  0
  124.5570  122.4570   57.2270 F   0  0  0  0  0  0  0  0  0  0  0  0
  123.5470  124.2020   57.9810 F   0  0  0  0  0  0  0  0  0  0  0  0
  127.1260  123.8550   57.3020 C   0  0  0  0  0  0  0  0  0  0  0  0
  127.2120  122.6360   56.4930 C   0  0  0  0  0  0  0  0  0  0  0  0
  127.2780  121.6750   55.8520 N   0  0  0  0  0  0  0  0  0  0  0  0
  128.1720  130.1030   56.3890 C   0  0  0  0  0  0  0  0  0  0  0  0
  127.1720  129.7610   57.2670 O   0  0  0  0  0  0  0  0  0  0  0  0
  125.8570  129.9130   56.7470 C   0  0  0  0  0  0  0  0  0  0  0  0
  128.7230  131.3960   56.4120 C   0  0  0  0  0  0  0  0  0  0  0  0
  128.2480  132.3300   57.3020 O   0  0  0  0  0  0  0  0  0  0  0  0
  129.0810  132.5290   58.4360 C   0  0  0  0  0  0  0  0  0  0  0  0
  1  2  1  0
  2  3  1  0
  3  4  2  0
  4  5  1  0
  5  6  2  0
  6  7  1  0
  7  8  1  0
  8  9  1  0
  9 10  2  0
  9 11  1  0
 11 12  1  0
 12 13  1  0
 13 14  2  0
 14 15  1  0
 15 16  1  0
 15 17  2  0
 17 18  1  0
 18 19  1  0
 19 20  1  0
 19 21  1  0
 19 22  1  0
 18 23  2  0
 23 24  1  0
 24 25  3  0
  6 26  1  0
 26 27  1  0
 27 28  1  0
 26 29  2  0
 29 30  1  0
 30 31  1  0
 29  3  1  0
 23 13  1  0
M  END
>  <Binding energies>  (24) 
[-6.28]

>  <Ligand effiencies>  (24) 
[-0.19625]

>  <Interactions>  (24) 
["V-A:LEU:363:CD1:3184, V-A:TYR:531:CZ:4789, V-A:PRO:540:CA:4878, V-A:PRO:540:CD:4882, V-A:PRO:540:N:4879, H-A:TYR:539:N:4865, V-A:TYR:539:C:4862, V-A:ILE:538:CA:4855, V-A:TYR:531:CE1:4787, V-A:ILE:538:CB:4857, V-A:MET:535:CG:4828, V-A:TYR:539:CZ:4872, V-A:ILE:538:CG2:4858, V-A:TYR:539:CE1:4870, V-B:TYR:539:CZ:9845, V-B:PRO:540:CB:9853, V-B:PRO:540:CA:9851, V-B:MET:535:CE:9803, V-B:TYR:539:C:9835, V-B:PRO:540:N:9852, V-B:TYR:531:CZ:9762, H-A:LYS:534:NZ:4818, H-A:TYR:531:OH:4790, V-B:ASP:366:CB:8179, V-B:ASP:366:CG:8180, V-B:PRO:540:CD:9855, V-B:PRO:540:CG:9854, V-B:LEU:363:CD1:8156, H-B:TYR:539:N:9838, V-B:LEU:363:CB:8154, V-B:LEU:363:CA:8152, V-A:PRO:540:CG:4881, V-A:ILE:538:C:4853, V-B:TYR:531:CE2:9761, V-B:LEU:363:CG:8155"]

$$$$
2i_Grossjean_2025
     RDKit          3D

 23 24  0  0  0  0  0  0  0  0999 V2000
  128.2640  122.5260   61.2550 C   0  0  0  0  0  0  0  0  0  0  0  0
  129.5900  122.5400   60.5190 C   0  0  0  0  0  0  0  0  0  0  0  0
  130.5160  121.5100   60.6630 C   0  0  0  0  0  0  0  0  0  0  0  0
  131.7280  121.5680   59.9590 C   0  0  0  0  0  0  0  0  0  0  0  0
  132.7410  120.4200   60.1320 C   0  0  0  0  0  0  0  0  0  0  0  0
  132.1910  119.4270   60.8320 F   0  0  0  0  0  0  0  0  0  0  0  0
  133.1130  119.9550   58.9390 F   0  0  0  0  0  0  0  0  0  0  0  0
  133.8470  120.8000   60.7760 F   0  0  0  0  0  0  0  0  0  0  0  0
  131.9690  122.6830   59.1170 C   0  0  0  0  0  0  0  0  0  0  0  0
  133.2180  122.7940   58.3570 C   0  0  0  0  0  0  0  0  0  0  0  0
  134.2040  122.8830   57.7570 N   0  0  0  0  0  0  0  0  0  0  0  0
  130.9750  123.6850   59.0310 C   0  0  0  0  0  0  0  0  0  0  0  0
  131.1720  125.1370   58.0100 S   0  0  0  0  0  0  0  0  0  0  0  0
  131.0890  124.6190   56.2690 C   0  0  0  0  0  0  0  0  0  0  0  0
  129.6930  124.1330   55.8750 C   0  0  0  0  0  0  0  0  0  0  0  0
  129.2990  124.3140   54.7210 O   0  0  0  0  0  0  0  0  0  0  0  0
  128.9730  123.5520   56.8580 N   0  0  0  0  0  0  0  0  0  0  0  0
  127.6860  123.0510   56.7560 C   0  0  0  0  0  0  0  0  0  0  0  0
  126.4850  123.5260   57.3020 C   0  0  0  0  0  0  0  0  0  0  0  0
  125.5280  122.6370   56.8700 C   0  0  0  0  0  0  0  0  0  0  0  0
  126.1180  121.6880   56.1040 O   0  0  0  0  0  0  0  0  0  0  0  0
  127.4840  121.9680   56.0370 N   0  0  0  0  0  0  0  0  0  0  0  0
  129.8080  123.6090   59.7200 N   0  0  0  0  0  0  0  0  0  0  0  0
  1  2  1  0
  2  3  2  0
  3  4  1  0
  4  5  1  0
  5  6  1  0
  5  7  1  0
  5  8  1  0
  4  9  2  0
  9 10  1  0
 10 11  3  0
  9 12  1  0
 12 13  1  0
 13 14  1  0
 14 15  1  0
 15 16  2  0
 15 17  1  0
 17 18  1  0
 18 19  1  0
 19 20  2  0
 20 21  1  0
 21 22  1  0
 12 23  2  0
 23  2  1  0
 22 18  2  0
M  END
>  <Binding energies>  (25) 
[-6.61]

>  <Ligand effiencies>  (25) 
[-0.2754166666666667]

>  <Interactions>  (25) 
["V-A:TYR:531:CZ:4789, V-A:TYR:531:CE1:4787, V-B:TYR:539:CD2:9842, V-B:TYR:539:CE2:9844, V-B:TYR:539:CZ:9845, V-B:PRO:540:CB:9853, V-A:LEU:475:CD2:4254, V-B:PRO:540:CA:9851, V-A:TRP:381:CZ2:3365, V-A:TRP:381:CH2:3367, V-B:TYR:539:CE1:9843, V-B:MET:535:CE:9803, V-A:TRP:381:CZ3:3366, V-B:PRO:540:C:9849, V-B:ALA:541:CB:9860, V-B:TYR:539:C:9835, V-B:PRO:540:N:9852, V-A:ILE:369:CD1:3234, H-A:LYS:534:NZ:4818, H-A:TYR:531:OH:4790, V-B:PRO:540:CD:9855, H-B:TYR:539:OH:9846, H-B:TYR:539:N:9838, V-A:ILE:369:CG2:3232, V-A:ILE:369:CB:3231, V-A:ILE:369:CG1:3233"]

$$$$
2k_Grossjean_2025
     RDKit          3D

 28 28  0  0  0  0  0  0  0  0999 V2000
  125.4380  122.0520   56.1400 C   0  0  0  0  0  0  0  0  0  0  0  0
  126.5780  122.0020   56.9840 O   0  0  0  0  0  0  0  0  0  0  0  0
  127.8030  122.2080   56.2940 C   0  0  0  0  0  0  0  0  0  0  0  0
  128.2890  123.6460   56.5160 C   0  0  0  0  0  0  0  0  0  0  0  0
  127.1860  124.5310   56.3880 O   0  0  0  0  0  0  0  0  0  0  0  0
  127.2380  125.6590   57.2540 C   0  0  0  0  0  0  0  0  0  0  0  0
  125.8260  125.9220   57.7940 C   0  0  0  0  0  0  0  0  0  0  0  0
  124.9770  124.8940   57.3080 O   0  0  0  0  0  0  0  0  0  0  0  0
  124.1320  124.2980   58.2810 C   0  0  0  0  0  0  0  0  0  0  0  0
  124.9550  124.0190   59.5530 C   0  0  0  0  0  0  0  0  0  0  0  0
  126.3010  123.5180   59.2650 N   0  0  0  0  0  0  0  0  0  0  0  0
  127.1470  122.9840   60.1670 C   0  0  0  0  0  0  0  0  0  0  0  0
  126.8620  122.8300   61.3560 O   0  0  0  0  0  0  0  0  0  0  0  0
  128.5290  122.5860   59.6290 C   0  0  0  0  0  0  0  0  0  0  0  0
  129.6320  121.7670   60.8330 S   0  0  0  0  0  0  0  0  0  0  0  0
  131.1990  122.6270   60.8830 C   0  0  0  0  0  0  0  0  0  0  0  0
  131.8220  122.7850   59.6870 N   0  0  0  0  0  0  0  0  0  0  0  0
  133.0130  123.4220   59.6500 C   0  0  0  0  0  0  0  0  0  0  0  0
  133.6500  123.5480   58.2800 C   0  0  0  0  0  0  0  0  0  0  0  0
  133.6260  123.9350   60.7900 C   0  0  0  0  0  0  0  0  0  0  0  0
  132.9970  123.7900   62.0360 C   0  0  0  0  0  0  0  0  0  0  0  0
  133.6870  124.3690   63.2860 C   0  0  0  0  0  0  0  0  0  0  0  0
  133.1260  125.5030   63.7070 F   0  0  0  0  0  0  0  0  0  0  0  0
  133.6210  123.4930   64.2910 F   0  0  0  0  0  0  0  0  0  0  0  0
  134.9680  124.6280   63.0220 F   0  0  0  0  0  0  0  0  0  0  0  0
  131.7500  123.1170   62.0900 C   0  0  0  0  0  0  0  0  0  0  0  0
  131.0500  122.9340   63.3660 C   0  0  0  0  0  0  0  0  0  0  0  0
  130.4970  122.7900   64.3730 N   0  0  0  0  0  0  0  0  0  0  0  0
  1  2  1  0
  2  3  1  0
  3  4  1  0
  4  5  1  0
  5  6  1  0
  6  7  1  0
  7  8  1  0
  8  9  1  0
  9 10  1  0
 10 11  1  0
 11 12  1  0
 12 13  2  0
 12 14  1  0
 14 15  1  0
 15 16  1  0
 16 17  2  0
 17 18  1  0
 18 19  1  0
 18 20  2  0
 20 21  1  0
 21 22  1  0
 22 23  1  0
 22 24  1  0
 22 25  1  0
 21 26  2  0
 26 27  1  0
 27 28  3  0
 26 16  1  0
M  END
>  <Binding energies>  (26) 
[-5.03]

>  <Ligand effiencies>  (26) 
[-0.17344827586206898]

>  <Interactions>  (26) 
["V-A:TYR:484:CZ:4342, V-B:TYR:539:CD2:9842, V-B:TYR:539:CZ:9845, V-B:PRO:540:CB:9853, V-B:PRO:540:CA:9851, V-B:TYR:539:CE1:9843, V-B:MET:535:CE:9803, V-B:TYR:539:CD1:9841, V-B:PRO:540:C:9849, V-B:TYR:539:C:9835, V-B:PRO:540:N:9852, V-B:TYR:539:CG:9840, V-A:ILE:369:CD1:3234, V-A:ASP:366:CG:3208, H-B:ALA:541:N:9859, H-A:TYR:484:OH:4343, V-B:ASP:366:CB:8179, V-B:ASP:366:CG:8180, V-B:PRO:540:CD:9855, H-B:TYR:531:OH:9763, V-B:TYR:539:CA:9837, V-A:ASP:366:CA:3205, V-A:ASP:366:CB:3207, V-A:ASP:366:C:3203, V-A:GLY:454:CA:4044, V-B:LEU:363:CD1:8156, H-B:TYR:539:N:9838, V-A:ARG:545:CZ:4921, V-A:ILE:369:CB:3231, V-B:LEU:363:CA:8152, V-A:GLY:453:C:4037, V-A:GLY:453:CA:4039, V-B:ILE:538:CG2:9831, V-B:ILE:538:CA:9828"]

$$$$
3aa_Grossjean_2025
     RDKit          3D

 34 36  0  0  0  0  0  0  0  0999 V2000
  123.4880  130.5660   66.3810 C   0  0  0  0  0  0  0  0  0  0  0  0
  124.1430  130.0930   65.0800 C   0  0  0  0  0  0  0  0  0  0  0  0
  123.5120  130.7260   63.9740 O   0  0  0  0  0  0  0  0  0  0  0  0
  124.1160  131.7480   63.3150 C   0  0  0  0  0  0  0  0  0  0  0  0
  124.2990  132.8640   63.8100 O   0  0  0  0  0  0  0  0  0  0  0  0
  124.5280  131.3900   61.9150 C   0  0  0  0  0  0  0  0  0  0  0  0
  123.7510  131.7390   60.8000 C   0  0  0  0  0  0  0  0  0  0  0  0
  124.1640  131.3960   59.5150 C   0  0  0  0  0  0  0  0  0  0  0  0
  125.3610  130.7060   59.3180 C   0  0  0  0  0  0  0  0  0  0  0  0
  125.6880  130.4110   57.9790 N   0  0  0  0  0  0  0  0  0  0  0  0
  126.4260  129.3970   57.4760 C   0  0  0  0  0  0  0  0  0  0  0  0
  126.9850  128.5230   58.1400 O   0  0  0  0  0  0  0  0  0  0  0  0
  126.5620  129.3730   55.9540 C   0  0  0  0  0  0  0  0  0  0  0  0
  127.1680  130.9610   55.3060 S   0  0  0  0  0  0  0  0  0  0  0  0
  128.5190  131.4670   56.3460 C   0  0  0  0  0  0  0  0  0  0  0  0
  128.1290  131.9190   57.5620 N   0  0  0  0  0  0  0  0  0  0  0  0
  129.0620  132.3400   58.4540 C   0  0  0  0  0  0  0  0  0  0  0  0
  128.5520  132.8110   59.7830 C   0  0  0  0  0  0  0  0  0  0  0  0
  129.2140  132.4560   60.9690 C   0  0  0  0  0  0  0  0  0  0  0  0
  128.7470  132.8920   62.2070 C   0  0  0  0  0  0  0  0  0  0  0  0
  127.6100  133.6890   62.2740 C   0  0  0  0  0  0  0  0  0  0  0  0
  126.9380  134.0570   61.1130 C   0  0  0  0  0  0  0  0  0  0  0  0
  127.4080  133.6220   59.8770 C   0  0  0  0  0  0  0  0  0  0  0  0
  130.4240  132.3060   58.1400 C   0  0  0  0  0  0  0  0  0  0  0  0
  130.8510  131.8580   56.8800 C   0  0  0  0  0  0  0  0  0  0  0  0
  132.3600  131.8470   56.5680 C   0  0  0  0  0  0  0  0  0  0  0  0
  133.1170  131.8820   57.6670 F   0  0  0  0  0  0  0  0  0  0  0  0
  132.6820  130.7400   55.8970 F   0  0  0  0  0  0  0  0  0  0  0  0
  132.6780  132.9090   55.8260 F   0  0  0  0  0  0  0  0  0  0  0  0
  129.8740  131.4360   55.9470 C   0  0  0  0  0  0  0  0  0  0  0  0
  130.2570  131.0130   54.5960 C   0  0  0  0  0  0  0  0  0  0  0  0
  130.5600  130.6800   53.5300 N   0  0  0  0  0  0  0  0  0  0  0  0
  126.1370  130.3430   60.4290 C   0  0  0  0  0  0  0  0  0  0  0  0
  125.7210  130.6840   61.7120 C   0  0  0  0  0  0  0  0  0  0  0  0
  1  2  1  0
  2  3  1  0
  3  4  1  0
  4  5  2  0
  4  6  1  0
  6  7  2  0
  7  8  1  0
  8  9  2  0
  9 10  1  0
 10 11  1  0
 11 12  2  0
 11 13  1  0
 13 14  1  0
 14 15  1  0
 15 16  2  0
 16 17  1  0
 17 18  1  0
 18 19  2  0
 19 20  1  0
 20 21  2  0
 21 22  1  0
 22 23  2  0
 17 24  2  0
 24 25  1  0
 25 26  1  0
 26 27  1  0
 26 28  1  0
 26 29  1  0
 25 30  2  0
 30 31  1  0
 31 32  3  0
  9 33  1  0
 33 34  2  0
 34  6  1  0
 30 15  1  0
 23 18  1  0
M  END
>  <Binding energies>  (27) 
[-7.9]

>  <Ligand effiencies>  (27) 
[-0.22571428571428573]

>  <Interactions>  (27) 
["V-B:ILE:369:CD1:8206, V-A:LEU:363:CB:3182, V-A:TYR:539:CE2:4871, V-A:LEU:363:CD1:3184, V-A:TYR:531:CZ:4789, V-A:TYR:539:CD2:4869, V-B:LEU:475:CD2:9226, V-A:LEU:363:CA:3180, V-A:ALA:541:CB:4887, V-A:TYR:531:CE2:4788, V-A:PRO:540:CB:4880, V-A:PRO:540:CA:4878, V-A:PRO:540:CD:4882, V-A:PRO:540:N:4879, V-A:TYR:531:CD2:4786, V-A:TYR:539:CG:4867, V-B:ARG:545:CZ:9894, V-A:TYR:539:CD1:4868, V-A:TYR:539:C:4862, H-B:TYR:484:OH:9315, V-B:HIS:456:CE1:9037, V-B:ARG:545:CD:9891, V-A:TYR:539:CZ:4872, V-A:ILE:538:CG2:4858, V-A:TYR:539:CE1:4870, H-A:TYR:539:OH:4873, H-B:GLY:454:N:9017, V-A:PRO:540:CG:4881, V-B:GLY:454:CA:9016, V-B:GLY:453:C:9009, V-B:GLY:454:C:9014"]

$$$$
3ad_Grossjean_2025
     RDKit          3D

 29 31  0  0  0  0  0  0  0  0999 V2000
  124.6320  131.4540   61.0530 N   0  0  0  0  0  0  0  0  0  0  0  0
  125.4510  131.5890   60.2470 C   0  0  0  0  0  0  0  0  0  0  0  0
  126.4870  131.7570   59.2230 C   0  0  0  0  0  0  0  0  0  0  0  0
  126.4480  131.0070   58.0230 C   0  0  0  0  0  0  0  0  0  0  0  0
  125.3140  130.0160   57.6970 C   0  0  0  0  0  0  0  0  0  0  0  0
  125.3460  128.9220   58.4600 F   0  0  0  0  0  0  0  0  0  0  0  0
  124.1300  130.6030   57.8850 F   0  0  0  0  0  0  0  0  0  0  0  0
  125.4020  129.6190   56.4270 F   0  0  0  0  0  0  0  0  0  0  0  0
  127.4890  131.1710   57.0960 C   0  0  0  0  0  0  0  0  0  0  0  0
  128.5400  132.0550   57.3610 C   0  0  0  0  0  0  0  0  0  0  0  0
  129.6840  132.2570   56.4130 C   0  0  0  0  0  0  0  0  0  0  0  0
  129.5400  131.9760   55.0450 C   0  0  0  0  0  0  0  0  0  0  0  0
  130.5980  132.1630   54.1600 C   0  0  0  0  0  0  0  0  0  0  0  0
  131.8190  132.6350   54.6330 C   0  0  0  0  0  0  0  0  0  0  0  0
  131.9860  132.9230   55.9820 C   0  0  0  0  0  0  0  0  0  0  0  0
  130.9250  132.7360   56.8650 C   0  0  0  0  0  0  0  0  0  0  0  0
  128.5760  132.7670   58.5160 N   0  0  0  0  0  0  0  0  0  0  0  0
  127.5720  132.6420   59.4160 C   0  0  0  0  0  0  0  0  0  0  0  0
  127.7780  133.6580   60.8610 S   0  0  0  0  0  0  0  0  0  0  0  0
  128.4410  132.5950   62.1780 C   0  0  0  0  0  0  0  0  0  0  0  0
  129.9030  132.2140   61.9330 C   0  0  0  0  0  0  0  0  0  0  0  0
  130.7390  132.4570   62.8040 O   0  0  0  0  0  0  0  0  0  0  0  0
  130.1570  131.6280   60.7440 N   0  0  0  0  0  0  0  0  0  0  0  0
  131.3710  131.1500   60.2160 C   0  0  0  0  0  0  0  0  0  0  0  0
  132.5110  131.4190   60.9800 C   0  0  0  0  0  0  0  0  0  0  0  0
  133.7640  130.9940   60.5460 C   0  0  0  0  0  0  0  0  0  0  0  0
  133.8800  130.3020   59.3450 C   0  0  0  0  0  0  0  0  0  0  0  0
  132.7550  130.0330   58.5710 C   0  0  0  0  0  0  0  0  0  0  0  0
  131.4990  130.4570   59.0000 C   0  0  0  0  0  0  0  0  0  0  0  0
  1  2  3  0
  2  3  1  0
  3  4  2  0
  4  5  1  0
  5  6  1  0
  5  7  1  0
  5  8  1  0
  4  9  1  0
  9 10  2  0
 10 11  1  0
 11 12  2  0
 12 13  1  0
 13 14  2  0
 14 15  1  0
 15 16  2  0
 10 17  1  0
 17 18  2  0
 18 19  1  0
 19 20  1  0
 20 21  1  0
 21 22  2  0
 21 23  1  0
 23 24  1  0
 24 25  2  0
 25 26  1  0
 26 27  2  0
 27 28  1  0
 28 29  2  0
 18  3  1  0
 29 24  1  0
 16 11  1  0
M  END
>  <Binding energies>  (28) 
[-8.03]

>  <Ligand effiencies>  (28) 
[-0.26766666666666666]

>  <Interactions>  (28) 
["H-A:ALA:541:N:4886, V-A:TYR:539:CE2:4871, V-A:LEU:363:CD1:3184, V-A:TYR:531:CZ:4789, V-A:TYR:539:CD2:4869, V-A:LEU:363:CA:3180, V-A:ALA:541:CB:4887, V-A:ASN:362:C:3167, V-A:TYR:531:CE2:4788, V-A:PRO:540:CB:4880, V-A:PRO:540:CA:4878, V-A:PRO:540:CD:4882, V-A:PRO:540:N:4879, V-A:ILE:538:CD1:4860, V-A:TYR:539:CD1:4868, V-A:TYR:539:C:4862, V-A:ILE:538:CA:4855, V-A:ILE:538:CB:4857, V-B:TYR:531:CE1:9760, V-A:TYR:539:CZ:4872, V-A:ILE:538:CG2:4858, V-A:TYR:539:CE1:4870, V-B:TYR:531:CZ:9762, V-A:ASP:366:CG:3208, V-B:ASP:366:CB:8179, V-B:ASP:366:CG:8180, V-B:ASP:366:C:8175, V-B:ASP:366:CA:8177, V-A:ASN:362:CB:3171, V-A:PRO:540:CG:4881"]

$$$$
3ai_Grossjean_2025
     RDKit          3D

 28 30  0  0  0  0  0  0  0  0999 V2000
  124.1670  133.3840   61.7620 N   0  0  0  0  0  0  0  0  0  0  0  0
  125.1300  133.2260   61.1410 C   0  0  0  0  0  0  0  0  0  0  0  0
  126.3510  133.0270   60.3550 C   0  0  0  0  0  0  0  0  0  0  0  0
  127.4940  133.8350   60.5740 C   0  0  0  0  0  0  0  0  0  0  0  0
  127.5450  134.9240   61.6630 C   0  0  0  0  0  0  0  0  0  0  0  0
  128.7420  135.5070   61.7560 F   0  0  0  0  0  0  0  0  0  0  0  0
  126.6530  135.8790   61.3940 F   0  0  0  0  0  0  0  0  0  0  0  0
  127.2660  134.3950   62.8550 F   0  0  0  0  0  0  0  0  0  0  0  0
  128.6210  133.6360   59.7630 C   0  0  0  0  0  0  0  0  0  0  0  0
  128.6080  132.6620   58.7600 C   0  0  0  0  0  0  0  0  0  0  0  0
  129.7800  132.4150   57.8580 C   0  0  0  0  0  0  0  0  0  0  0  0
  130.8820  131.6680   58.3030 C   0  0  0  0  0  0  0  0  0  0  0  0
  131.9710  131.4300   57.4690 C   0  0  0  0  0  0  0  0  0  0  0  0
  131.9720  131.9370   56.1740 C   0  0  0  0  0  0  0  0  0  0  0  0
  130.8910  132.6780   55.7070 C   0  0  0  0  0  0  0  0  0  0  0  0
  129.8040  132.9130   56.5440 C   0  0  0  0  0  0  0  0  0  0  0  0
  127.5080  131.8960   58.5470 N   0  0  0  0  0  0  0  0  0  0  0  0
  126.4160  132.0520   59.3330 C   0  0  0  0  0  0  0  0  0  0  0  0
  125.0820  130.9470   58.9210 S   0  0  0  0  0  0  0  0  0  0  0  0
  125.1520  129.5320   60.0720 C   0  0  0  0  0  0  0  0  0  0  0  0
  125.3310  129.9060   61.5500 C   0  0  0  0  0  0  0  0  0  0  0  0
  126.3810  130.4160   61.9490 O   0  0  0  0  0  0  0  0  0  0  0  0
  124.2660  129.6270   62.3350 N   0  0  0  0  0  0  0  0  0  0  0  0
  124.1430  129.8610   63.6990 C   0  0  0  0  0  0  0  0  0  0  0  0
  125.1740  129.6280   64.6080 C   0  0  0  0  0  0  0  0  0  0  0  0
  124.6560  129.9760   65.8340 C   0  0  0  0  0  0  0  0  0  0  0  0
  123.3790  130.3980   65.6720 O   0  0  0  0  0  0  0  0  0  0  0  0
  123.0660  130.3200   64.3140 N   0  0  0  0  0  0  0  0  0  0  0  0
  1  2  3  0
  2  3  1  0
  3  4  2  0
  4  5  1  0
  5  6  1  0
  5  7  1  0
  5  8  1  0
  4  9  1  0
  9 10  2  0
 10 11  1  0
 11 12  2  0
 12 13  1  0
 13 14  2  0
 14 15  1  0
 15 16  2  0
 10 17  1  0
 17 18  2  0
 18 19  1  0
 19 20  1  0
 20 21  1  0
 21 22  2  0
 21 23  1  0
 23 24  1  0
 24 25  1  0
 25 26  2  0
 26 27  1  0
 27 28  1  0
 18  3  1  0
 28 24  2  0
 16 11  1  0
M  END
>  <Binding energies>  (29) 
[-8.02]

>  <Ligand effiencies>  (29) 
[-0.276551724137931]

>  <Interactions>  (29) 
["V-A:TYR:539:CE2:4871, V-A:LEU:363:CD1:3184, V-A:TYR:539:CD2:4869, V-B:LEU:475:CD2:9226, V-A:ALA:541:CB:4887, V-A:ALA:541:CA:4885, V-A:PRO:540:CB:4880, V-A:PRO:540:CA:4878, V-A:PRO:540:CD:4882, V-A:PRO:540:N:4879, V-B:LEU:475:CD1:9225, V-A:TYR:539:CG:4867, V-B:ARG:545:CZ:9894, V-A:TYR:539:CD1:4868, V-A:TYR:539:C:4862, V-B:HIS:456:CE1:9037, V-A:TYR:539:CZ:4872, V-A:TYR:539:CE1:4870, V-B:TRP:381:CZ2:8337, V-A:PRO:540:C:4876, V-B:TRP:381:CH2:8339, H-B:ASP:366:OD2:8182, V-B:ASP:366:CB:8179, V-B:ASP:366:CG:8180, H-A:TYR:539:OH:4873, H-B:ARG:545:NH1:9895, H-B:GLY:454:N:9017, V-B:PRO:482:CB:9293, V-B:LEU:475:CG:9224, V-B:PRO:482:CG:9294, H-B:ASP:366:OD1:8181"]

$$$$
3aj_Grossjean_2025
     RDKit          3D

 28 30  0  0  0  0  0  0  0  0999 V2000
  124.7460  131.4650   61.1720 N   0  0  0  0  0  0  0  0  0  0  0  0
  125.5520  131.5950   60.3520 C   0  0  0  0  0  0  0  0  0  0  0  0
  126.5720  131.7600   59.3110 C   0  0  0  0  0  0  0  0  0  0  0  0
  126.4950  131.0280   58.1010 C   0  0  0  0  0  0  0  0  0  0  0  0
  125.3360  130.0630   57.7850 C   0  0  0  0  0  0  0  0  0  0  0  0
  124.1360  130.6230   57.9520 F   0  0  0  0  0  0  0  0  0  0  0  0
  125.4160  129.6530   56.5180 F   0  0  0  0  0  0  0  0  0  0  0  0
  125.3950  129.0000   58.5870 F   0  0  0  0  0  0  0  0  0  0  0  0
  127.5220  131.1850   57.1570 C   0  0  0  0  0  0  0  0  0  0  0  0
  128.5950  132.0450   57.4150 C   0  0  0  0  0  0  0  0  0  0  0  0
  129.7210  132.2420   56.4470 C   0  0  0  0  0  0  0  0  0  0  0  0
  129.5030  132.1360   55.0650 C   0  0  0  0  0  0  0  0  0  0  0  0
  130.5450  132.3220   54.1580 C   0  0  0  0  0  0  0  0  0  0  0  0
  131.8220  132.6170   54.6260 C   0  0  0  0  0  0  0  0  0  0  0  0
  132.0630  132.7280   55.9910 C   0  0  0  0  0  0  0  0  0  0  0  0
  131.0190  132.5430   56.8930 C   0  0  0  0  0  0  0  0  0  0  0  0
  128.6670  132.7380   58.5800 N   0  0  0  0  0  0  0  0  0  0  0  0
  127.6770  132.6210   59.4970 C   0  0  0  0  0  0  0  0  0  0  0  0
  127.9310  133.6210   60.9470 S   0  0  0  0  0  0  0  0  0  0  0  0
  128.7340  132.5780   62.2110 C   0  0  0  0  0  0  0  0  0  0  0  0
  130.1750  132.1580   61.8870 C   0  0  0  0  0  0  0  0  0  0  0  0
  131.0880  132.3590   62.6920 O   0  0  0  0  0  0  0  0  0  0  0  0
  130.3340  131.5680   60.6810 N   0  0  0  0  0  0  0  0  0  0  0  0
  131.5200  131.0890   60.1420 C   0  0  0  0  0  0  0  0  0  0  0  0
  131.6840  130.4080   59.0280 N   0  0  0  0  0  0  0  0  0  0  0  0
  132.9530  130.1170   58.8190 C   0  0  0  0  0  0  0  0  0  0  0  0
  133.8540  130.5670   59.7810 C   0  0  0  0  0  0  0  0  0  0  0  0
  132.9790  131.4130   61.0220 S   0  0  0  0  0  0  0  0  0  0  0  0
  1  2  3  0
  2  3  1  0
  3  4  2  0
  4  5  1  0
  5  6  1  0
  5  7  1  0
  5  8  1  0
  4  9  1  0
  9 10  2  0
 10 11  1  0
 11 12  2  0
 12 13  1  0
 13 14  2  0
 14 15  1  0
 15 16  2  0
 10 17  1  0
 17 18  2  0
 18 19  1  0
 19 20  1  0
 20 21  1  0
 21 22  2  0
 21 23  1  0
 23 24  1  0
 24 25  2  0
 25 26  1  0
 26 27  2  0
 27 28  1  0
 18  3  1  0
 28 24  1  0
 16 11  1  0
M  END
>  <Binding energies>  (30) 
[-7.34]

>  <Ligand effiencies>  (30) 
[-0.25310344827586206]

>  <Interactions>  (30) 
["H-A:ALA:541:N:4886, V-A:TYR:539:CE2:4871, V-A:LEU:363:CD1:3184, V-A:TYR:539:CD2:4869, V-A:LEU:363:CA:3180, V-A:ALA:541:CB:4887, V-A:ASN:362:C:3167, V-A:TYR:531:CE2:4788, V-A:PRO:540:CB:4880, V-A:PRO:540:CA:4878, V-A:PRO:540:CD:4882, V-A:PRO:540:N:4879, V-A:ILE:538:CD1:4860, V-A:TYR:539:CD1:4868, V-A:ILE:538:CA:4855, V-A:ILE:538:CB:4857, V-B:TYR:531:CE1:9760, V-A:TYR:539:CZ:4872, V-A:ILE:538:CG2:4858, V-A:TYR:539:CE1:4870, V-B:TYR:531:CZ:9762, V-A:ASP:366:CG:3208, V-B:ASP:366:CB:8179, V-B:ASP:366:CG:8180, V-B:ASP:366:C:8175, V-B:ASP:366:CA:8177, V-A:ASN:362:CB:3171, V-A:PRO:540:CG:4881"]

$$$$
3ak_Grossjean_2025
     RDKit          3D

 33 34  0  0  0  0  0  0  0  0999 V2000
  129.5830  132.8990   56.9570 C   0  0  0  0  0  0  0  0  0  0  0  0
  130.2090  133.3230   55.7560 O   0  0  0  0  0  0  0  0  0  0  0  0
  131.6180  133.1380   55.7570 C   0  0  0  0  0  0  0  0  0  0  0  0
  131.9740  132.0070   54.7840 C   0  0  0  0  0  0  0  0  0  0  0  0
  132.0950  130.7900   55.5140 O   0  0  0  0  0  0  0  0  0  0  0  0
  130.9390  129.9560   55.5140 C   0  0  0  0  0  0  0  0  0  0  0  0
  130.5680  129.4110   54.1220 C   0  0  0  0  0  0  0  0  0  0  0  0
  129.1890  129.6540   53.8780 O   0  0  0  0  0  0  0  0  0  0  0  0
  128.7410  130.9290   54.3190 C   0  0  0  0  0  0  0  0  0  0  0  0
  127.2260  131.0680   54.0900 C   0  0  0  0  0  0  0  0  0  0  0  0
  126.4390  131.0170   55.3240 N   0  0  0  0  0  0  0  0  0  0  0  0
  126.6480  130.1810   56.3590 C   0  0  0  0  0  0  0  0  0  0  0  0
  127.5640  129.3590   56.3780 O   0  0  0  0  0  0  0  0  0  0  0  0
  125.7030  130.2530   57.5710 C   0  0  0  0  0  0  0  0  0  0  0  0
  126.4010  129.7380   59.1830 S   0  0  0  0  0  0  0  0  0  0  0  0
  127.4980  131.0200   59.7690 C   0  0  0  0  0  0  0  0  0  0  0  0
  128.8230  130.7630   59.6390 N   0  0  0  0  0  0  0  0  0  0  0  0
  129.7360  131.6740   60.0610 C   0  0  0  0  0  0  0  0  0  0  0  0
  131.1780  131.3080   59.8780 C   0  0  0  0  0  0  0  0  0  0  0  0
  131.6600  130.8940   58.6260 C   0  0  0  0  0  0  0  0  0  0  0  0
  133.0000  130.5570   58.4490 C   0  0  0  0  0  0  0  0  0  0  0  0
  133.8780  130.6300   59.5250 C   0  0  0  0  0  0  0  0  0  0  0  0
  133.4270  131.0400   60.7750 C   0  0  0  0  0  0  0  0  0  0  0  0
  132.0880  131.3780   60.9480 C   0  0  0  0  0  0  0  0  0  0  0  0
  129.3290  132.8910   60.6180 C   0  0  0  0  0  0  0  0  0  0  0  0
  127.9650  133.1830   60.7630 C   0  0  0  0  0  0  0  0  0  0  0  0
  127.5550  134.5340   61.3830 C   0  0  0  0  0  0  0  0  0  0  0  0
  128.6240  135.3180   61.5150 F   0  0  0  0  0  0  0  0  0  0  0  0
  126.6640  135.1440   60.6010 F   0  0  0  0  0  0  0  0  0  0  0  0
  127.0020  134.4020   62.5910 F   0  0  0  0  0  0  0  0  0  0  0  0
  127.0180  132.2240   60.3290 C   0  0  0  0  0  0  0  0  0  0  0  0
  125.5790  132.4750   60.4560 C   0  0  0  0  0  0  0  0  0  0  0  0
  124.4420  132.6720   60.5570 N   0  0  0  0  0  0  0  0  0  0  0  0
  1  2  1  0
  2  3  1  0
  3  4  1  0
  4  5  1  0
  5  6  1  0
  6  7  1  0
  7  8  1  0
  8  9  1  0
  9 10  1  0
 10 11  1  0
 11 12  1  0
 12 13  2  0
 12 14  1  0
 14 15  1  0
 15 16  1  0
 16 17  2  0
 17 18  1  0
 18 19  1  0
 19 20  2  0
 20 21  1  0
 21 22  2  0
 22 23  1  0
 23 24  2  0
 18 25  2  0
 25 26  1  0
 26 27  1  0
 27 28  1  0
 27 29  1  0
 27 30  1  0
 26 31  2  0
 31 32  1  0
 32 33  3  0
 31 16  1  0
 24 19  1  0
M  END
>  <Binding energies>  (31) 
[-6.2]

>  <Ligand effiencies>  (31) 
[-0.1823529411764706]

>  <Interactions>  (31) 
["V-A:LEU:363:CB:3182, V-A:TYR:539:CE2:4871, V-A:LEU:363:CD1:3184, V-A:TYR:531:CZ:4789, V-A:TYR:539:CD2:4869, V-B:LEU:475:CD2:9226, V-A:LEU:363:CA:3180, V-A:ALA:541:CB:4887, V-A:ASN:362:C:3167, V-A:ALA:541:CA:4885, V-A:TYR:531:CE2:4788, V-A:PRO:540:CB:4880, V-A:PRO:540:CA:4878, V-A:PRO:540:CD:4882, V-A:PRO:540:N:4879, V-B:LEU:475:CD1:9225, V-A:ILE:538:CD1:4860, V-A:TYR:539:CG:4867, H-A:TYR:539:N:4865, V-A:TYR:539:CD1:4868, V-A:TYR:539:C:4862, V-A:ILE:538:CA:4855, V-A:TYR:531:CE1:4787, V-A:MET:535:CB:4827, V-A:MET:535:CG:4828, V-A:TYR:539:CZ:4872, V-A:ILE:538:CG2:4858, V-A:TYR:539:CE1:4870, V-A:PRO:540:C:4876, V-B:TRP:381:CH2:8339, H-A:TYR:531:OH:4790, H-A:TYR:539:OH:4873, V-A:ASN:362:CB:3171, V-B:LEU:475:CG:9224, V-A:PRO:540:CG:4881, H-B:ASN:370:OD1:8214"]

$$$$
3bk_Grossjean_2025
     RDKit          3D

 30 31  0  0  0  0  0  0  0  0999 V2000
  133.8760  125.4050   65.8720 C   0  0  0  0  0  0  0  0  0  0  0  0
  134.3030  124.9350   64.6020 O   0  0  0  0  0  0  0  0  0  0  0  0
  133.3420  125.1330   63.5740 C   0  0  0  0  0  0  0  0  0  0  0  0
  133.7810  124.3840   62.3080 C   0  0  0  0  0  0  0  0  0  0  0  0
  132.6920  124.3190   61.3980 O   0  0  0  0  0  0  0  0  0  0  0  0
  131.8150  125.4350   61.4710 C   0  0  0  0  0  0  0  0  0  0  0  0
  131.2550  125.7320   60.0740 C   0  0  0  0  0  0  0  0  0  0  0  0
  131.3310  124.5580   59.2760 O   0  0  0  0  0  0  0  0  0  0  0  0
  132.5500  124.4300   58.5560 C   0  0  0  0  0  0  0  0  0  0  0  0
  132.2450  124.2690   57.0600 C   0  0  0  0  0  0  0  0  0  0  0  0
  130.8080  124.2850   56.7790 N   0  0  0  0  0  0  0  0  0  0  0  0
  130.2430  124.6620   55.6190 C   0  0  0  0  0  0  0  0  0  0  0  0
  130.8850  125.0270   54.6330 O   0  0  0  0  0  0  0  0  0  0  0  0
  128.7160  124.5940   55.5500 C   0  0  0  0  0  0  0  0  0  0  0  0
  128.0780  122.9940   56.1380 S   0  0  0  0  0  0  0  0  0  0  0  0
  127.7360  123.1110   57.8860 C   0  0  0  0  0  0  0  0  0  0  0  0
  128.7490  122.7480   58.7140 N   0  0  0  0  0  0  0  0  0  0  0  0
  128.5780  122.8020   60.0620 C   0  0  0  0  0  0  0  0  0  0  0  0
  129.7530  122.4040   60.9030 C   0  0  0  0  0  0  0  0  0  0  0  0
  129.7890  122.7040   62.2740 C   0  0  0  0  0  0  0  0  0  0  0  0
  130.8810  122.3420   63.0590 C   0  0  0  0  0  0  0  0  0  0  0  0
  131.9540  121.6710   62.4820 C   0  0  0  0  0  0  0  0  0  0  0  0
  131.9420  121.3580   61.1270 C   0  0  0  0  0  0  0  0  0  0  0  0
  130.8480  121.7210   60.3450 C   0  0  0  0  0  0  0  0  0  0  0  0
  127.3670  123.2350   60.6140 C   0  0  0  0  0  0  0  0  0  0  0  0
  126.3120  123.6110   59.7760 C   0  0  0  0  0  0  0  0  0  0  0  0
  125.0080  124.0770   60.4210 C   0  0  0  0  0  0  0  0  0  0  0  0
  126.4890  123.5520   58.3770 C   0  0  0  0  0  0  0  0  0  0  0  0
  125.4020  123.9430   57.4740 C   0  0  0  0  0  0  0  0  0  0  0  0
  124.5440  124.2510   56.7610 N   0  0  0  0  0  0  0  0  0  0  0  0
  1  2  1  0
  2  3  1  0
  3  4  1  0
  4  5  1  0
  5  6  1  0
  6  7  1  0
  7  8  1  0
  8  9  1  0
  9 10  1  0
 10 11  1  0
 11 12  1  0
 12 13  2  0
 12 14  1  0
 14 15  1  0
 15 16  1  0
 16 17  2  0
 17 18  1  0
 18 19  1  0
 19 20  2  0
 20 21  1  0
 21 22  2  0
 22 23  1  0
 23 24  2  0
 18 25  2  0
 25 26  1  0
 26 27  1  0
 26 28  2  0
 28 29  1  0
 29 30  3  0
 28 16  1  0
 24 19  1  0
M  END
>  <Binding energies>  (32) 
[-6.71]

>  <Ligand effiencies>  (32) 
[-0.21645161290322582]

>  <Interactions>  (32) 
["V-A:TYR:531:CZ:4789, V-A:TYR:531:CE1:4787, V-B:TYR:539:CE2:9844, V-B:TYR:539:CZ:9845, V-B:PRO:540:CB:9853, V-A:LEU:475:CD2:4254, V-B:PRO:540:CA:9851, V-B:MET:535:CE:9803, V-B:ALA:541:CB:9860, V-B:TYR:539:C:9835, V-B:PRO:540:N:9852, V-A:ILE:369:CD1:3234, V-A:ASP:366:CG:3208, H-A:LYS:534:NZ:4818, H-A:TYR:484:OH:4343, H-A:TYR:531:OH:4790, H-B:TYR:539:OH:9846, H-B:TYR:531:OH:9763, V-A:ASP:366:CB:3207, V-A:ARG:545:CZ:4921, H-A:ARG:545:NE:4919, V-A:HIS:456:CD2:4063, V-A:ARG:545:CG:4917, H-A:GLY:454:N:4045, V-A:ARG:545:CD:4918, H-A:ARG:545:NH1:4922"]

$$$$
3cb_Grossjean_2025
     RDKit          3D

 30 32  0  0  0  0  0  0  0  0999 V2000
  130.1670  132.7480   54.7320 C   0  0  0  0  0  0  0  0  0  0  0  0
  129.8420  133.3730   55.9650 O   0  0  0  0  0  0  0  0  0  0  0  0
  130.0650  132.7440   57.1480 C   0  0  0  0  0  0  0  0  0  0  0  0
  131.1930  132.5160   57.5950 O   0  0  0  0  0  0  0  0  0  0  0  0
  128.8020  132.3500   57.8580 C   0  0  0  0  0  0  0  0  0  0  0  0
  127.9190  131.3950   57.3310 C   0  0  0  0  0  0  0  0  0  0  0  0
  126.7580  131.0510   58.0160 C   0  0  0  0  0  0  0  0  0  0  0  0
  126.4500  131.6530   59.2360 C   0  0  0  0  0  0  0  0  0  0  0  0
  125.2520  131.2280   59.8450 N   0  0  0  0  0  0  0  0  0  0  0  0
  123.9840  131.6520   59.6540 C   0  0  0  0  0  0  0  0  0  0  0  0
  123.6440  132.5240   58.8530 O   0  0  0  0  0  0  0  0  0  0  0  0
  122.9360  130.9370   60.5220 C   0  0  0  0  0  0  0  0  0  0  0  0
  123.2120  131.0660   62.3220 S   0  0  0  0  0  0  0  0  0  0  0  0
  124.5180  129.9360   62.7560 C   0  0  0  0  0  0  0  0  0  0  0  0
  125.0250  129.2650   61.6930 N   0  0  0  0  0  0  0  0  0  0  0  0
  126.0240  128.3790   61.9030 C   0  0  0  0  0  0  0  0  0  0  0  0
  126.5520  127.6750   60.6670 C   0  0  0  0  0  0  0  0  0  0  0  0
  126.5470  128.1240   63.1670 C   0  0  0  0  0  0  0  0  0  0  0  0
  126.0270  128.7930   64.2830 C   0  0  0  0  0  0  0  0  0  0  0  0
  126.6180  128.4800   65.6190 C   0  0  0  0  0  0  0  0  0  0  0  0
  125.9810  127.5740   66.4760 C   0  0  0  0  0  0  0  0  0  0  0  0
  126.5290  127.2670   67.7190 C   0  0  0  0  0  0  0  0  0  0  0  0
  127.7240  127.8650   68.1100 C   0  0  0  0  0  0  0  0  0  0  0  0
  128.3750  128.7620   67.2680 C   0  0  0  0  0  0  0  0  0  0  0  0
  127.8250  129.0650   66.0250 C   0  0  0  0  0  0  0  0  0  0  0  0
  124.9690  129.7170   64.0810 C   0  0  0  0  0  0  0  0  0  0  0  0
  124.3240  130.3760   65.2210 C   0  0  0  0  0  0  0  0  0  0  0  0
  123.8150  130.8960   66.1210 N   0  0  0  0  0  0  0  0  0  0  0  0
  127.3300  132.6050   59.7730 C   0  0  0  0  0  0  0  0  0  0  0  0
  128.4920  132.9490   59.0870 C   0  0  0  0  0  0  0  0  0  0  0  0
  1  2  1  0
  2  3  1  0
  3  4  2  0
  3  5  1  0
  5  6  2  0
  6  7  1  0
  7  8  2  0
  8  9  1  0
  9 10  1  0
 10 11  2  0
 10 12  1  0
 12 13  1  0
 13 14  1  0
 14 15  2  0
 15 16  1  0
 16 17  1  0
 16 18  2  0
 18 19  1  0
 19 20  1  0
 20 21  2  0
 21 22  1  0
 22 23  2  0
 23 24  1  0
 24 25  2  0
 19 26  2  0
 26 27  1  0
 27 28  3  0
  8 29  1  0
 29 30  2  0
 30  5  1  0
 26 14  1  0
 25 20  1  0
M  END
>  <Binding energies>  (33) 
[-8.51]

>  <Ligand effiencies>  (33) 
[-0.2745161290322581]

>  <Interactions>  (33) 
["V-B:ILE:369:CD1:8206, V-A:TYR:539:CE2:4871, V-A:TYR:539:CD2:4869, V-A:PRO:540:CA:4878, V-A:PRO:540:CD:4882, V-A:PRO:540:N:4879, V-B:ILE:369:CG2:8204, H-A:TYR:539:N:4865, V-B:ARG:545:CZ:9894, V-A:TYR:539:CD1:4868, V-A:TYR:539:C:4862, V-A:ILE:538:CA:4855, H-B:TYR:484:OH:9315, V-B:GLU:543:CD:9876, V-B:HIS:456:CE1:9037, V-B:ARG:545:CD:9891, V-B:ARG:545:CG:9890, V-B:GLU:543:CB:9874, V-A:TYR:539:CZ:4872, V-A:TYR:539:CE1:4870, V-B:ASP:366:CB:8179, V-B:ASP:366:CG:8180, H-A:TYR:539:OH:4873, H-B:GLY:454:N:9017, V-B:ASP:366:CA:8177, H-B:ARG:545:NH2:9896, V-B:ILE:369:CB:8203"]

$$$$
3ch_Grossjean_2025
     RDKit          3D

 32 34  0  0  0  0  0  0  0  0999 V2000
  127.7430  135.1660   61.3960 C   0  0  0  0  0  0  0  0  0  0  0  0
  127.7720  133.7430   61.4210 O   0  0  0  0  0  0  0  0  0  0  0  0
  128.5640  133.0600   60.5170 C   0  0  0  0  0  0  0  0  0  0  0  0
  128.2400  132.8890   59.1610 C   0  0  0  0  0  0  0  0  0  0  0  0
  129.0980  132.1920   58.2990 C   0  0  0  0  0  0  0  0  0  0  0  0
  128.8620  131.9750   56.9280 N   0  0  0  0  0  0  0  0  0  0  0  0
  129.5200  132.4590   55.8520 C   0  0  0  0  0  0  0  0  0  0  0  0
  130.4990  133.2040   55.8890 O   0  0  0  0  0  0  0  0  0  0  0  0
  129.0000  131.9880   54.4940 C   0  0  0  0  0  0  0  0  0  0  0  0
  129.4240  130.2520   54.1620 S   0  0  0  0  0  0  0  0  0  0  0  0
  128.4080  129.2780   55.2500 C   0  0  0  0  0  0  0  0  0  0  0  0
  127.5210  130.0060   55.9720 N   0  0  0  0  0  0  0  0  0  0  0  0
  126.7060  129.3600   56.8360 C   0  0  0  0  0  0  0  0  0  0  0  0
  125.7420  130.2340   57.6150 C   0  0  0  0  0  0  0  0  0  0  0  0
  126.7430  127.9790   57.0130 C   0  0  0  0  0  0  0  0  0  0  0  0
  127.6490  127.2080   56.2710 C   0  0  0  0  0  0  0  0  0  0  0  0
  127.6600  125.7310   56.5010 C   0  0  0  0  0  0  0  0  0  0  0  0
  126.4610  125.0450   56.7260 C   0  0  0  0  0  0  0  0  0  0  0  0
  126.4650  123.6700   56.9500 C   0  0  0  0  0  0  0  0  0  0  0  0
  127.6730  122.9760   56.9540 C   0  0  0  0  0  0  0  0  0  0  0  0
  128.8740  123.6450   56.7400 C   0  0  0  0  0  0  0  0  0  0  0  0
  128.8660  125.0200   56.5170 C   0  0  0  0  0  0  0  0  0  0  0  0
  128.4970  127.8690   55.3460 C   0  0  0  0  0  0  0  0  0  0  0  0
  129.3950  127.1050   54.4760 C   0  0  0  0  0  0  0  0  0  0  0  0
  130.1060  126.5020   53.7900 N   0  0  0  0  0  0  0  0  0  0  0  0
  130.2780  131.6470   58.8090 C   0  0  0  0  0  0  0  0  0  0  0  0
  130.6230  131.8030   60.1600 C   0  0  0  0  0  0  0  0  0  0  0  0
  131.7800  131.2950   60.7260 O   0  0  0  0  0  0  0  0  0  0  0  0
  132.6150  130.4330   59.9590 C   0  0  0  0  0  0  0  0  0  0  0  0
  129.7570  132.5090   61.0040 C   0  0  0  0  0  0  0  0  0  0  0  0
  130.0910  132.6830   62.3260 O   0  0  0  0  0  0  0  0  0  0  0  0
  129.4180  131.8030   63.2150 C   0  0  0  0  0  0  0  0  0  0  0  0
  1  2  1  0
  2  3  1  0
  3  4  2  0
  4  5  1  0
  5  6  1  0
  6  7  1  0
  7  8  2  0
  7  9  1  0
  9 10  1  0
 10 11  1  0
 11 12  2  0
 12 13  1  0
 13 14  1  0
 13 15  2  0
 15 16  1  0
 16 17  1  0
 17 18  2  0
 18 19  1  0
 19 20  2  0
 20 21  1  0
 21 22  2  0
 16 23  2  0
 23 24  1  0
 24 25  3  0
  5 26  2  0
 26 27  1  0
 27 28  1  0
 28 29  1  0
 27 30  2  0
 30 31  1  0
 31 32  1  0
 30  3  1  0
 23 11  1  0
 22 17  1  0
M  END
>  <Binding energies>  (34) 
[-7.96]

>  <Ligand effiencies>  (34) 
[-0.2412121212121212]

>  <Interactions>  (34) 
["V-A:GLU:543:CG:4902, H-A:ALA:541:N:4886, V-A:TYR:539:CE2:4871, V-A:TYR:539:CD2:4869, V-B:LEU:475:CD2:9226, V-A:ALA:541:CB:4887, V-A:GLU:543:CD:4903, V-A:PRO:540:CB:4880, V-A:PRO:540:CA:4878, H-A:TYR:539:N:4865, V-A:TYR:539:CD1:4868, V-A:TYR:539:C:4862, V-A:TYR:531:CE1:4787, V-A:MET:535:CG:4828, V-A:TYR:539:CZ:4872, V-A:TYR:539:CE1:4870, V-A:PRO:540:C:4876, V-B:TYR:539:CZ:9845, V-B:MET:535:CE:9803, V-B:TYR:539:C:9835, H-A:LYS:534:NZ:4818"]

$$$$
3ci_Grossjean_2025
     RDKit          3D

 25 27  0  0  0  0  0  0  0  0999 V2000
  127.8370  134.0500   61.2000 C   0  0  0  0  0  0  0  0  0  0  0  0
  127.8050  133.1760   59.9610 C   0  0  0  0  0  0  0  0  0  0  0  0
  128.8350  133.1970   59.0240 C   0  0  0  0  0  0  0  0  0  0  0  0
  128.7680  132.3580   57.9030 C   0  0  0  0  0  0  0  0  0  0  0  0
  129.9020  132.4030   56.9320 C   0  0  0  0  0  0  0  0  0  0  0  0
  129.7130  132.8840   55.6300 C   0  0  0  0  0  0  0  0  0  0  0  0
  130.7720  132.9160   54.7270 C   0  0  0  0  0  0  0  0  0  0  0  0
  132.0260  132.4600   55.1210 C   0  0  0  0  0  0  0  0  0  0  0  0
  132.2290  131.9700   56.4080 C   0  0  0  0  0  0  0  0  0  0  0  0
  131.1690  131.9400   57.3090 C   0  0  0  0  0  0  0  0  0  0  0  0
  127.6340  131.5180   57.7560 C   0  0  0  0  0  0  0  0  0  0  0  0
  127.4890  130.6510   56.5820 C   0  0  0  0  0  0  0  0  0  0  0  0
  127.3760  129.9670   55.6550 N   0  0  0  0  0  0  0  0  0  0  0  0
  126.6350  131.5560   58.7590 C   0  0  0  0  0  0  0  0  0  0  0  0
  125.1760  130.5240   58.6860 S   0  0  0  0  0  0  0  0  0  0  0  0
  123.7700  131.4050   59.4410 C   0  0  0  0  0  0  0  0  0  0  0  0
  123.9090  131.5860   60.9560 C   0  0  0  0  0  0  0  0  0  0  0  0
  124.0570  132.7200   61.4160 O   0  0  0  0  0  0  0  0  0  0  0  0
  123.8720  130.4510   61.6890 N   0  0  0  0  0  0  0  0  0  0  0  0
  123.9460  130.3400   63.0710 C   0  0  0  0  0  0  0  0  0  0  0  0
  125.0670  129.8420   63.7340 C   0  0  0  0  0  0  0  0  0  0  0  0
  124.7430  129.8920   65.0710 C   0  0  0  0  0  0  0  0  0  0  0  0
  123.4920  130.3960   65.2050 O   0  0  0  0  0  0  0  0  0  0  0  0
  122.9970  130.6740   63.9300 N   0  0  0  0  0  0  0  0  0  0  0  0
  126.7220  132.3770   59.8360 N   0  0  0  0  0  0  0  0  0  0  0  0
  1  2  1  0
  2  3  2  0
  3  4  1  0
  4  5  1  0
  5  6  2  0
  6  7  1  0
  7  8  2  0
  8  9  1  0
  9 10  2  0
  4 11  2  0
 11 12  1  0
 12 13  3  0
 11 14  1  0
 14 15  1  0
 15 16  1  0
 16 17  1  0
 17 18  2  0
 17 19  1  0
 19 20  1  0
 20 21  1  0
 21 22  2  0
 22 23  1  0
 23 24  1  0
 14 25  2  0
 25  2  1  0
 10  5  1  0
 24 20  2  0
M  END
>  <Binding energies>  (35) 
[-8.4]

>  <Ligand effiencies>  (35) 
[-0.3230769230769231]

>  <Interactions>  (35) 
["V-B:ILE:369:CD1:8206, V-A:TYR:539:CE2:4871, V-A:LEU:363:CD1:3184, V-A:TYR:539:CD2:4869, V-A:PRO:540:CB:4880, V-A:PRO:540:CA:4878, V-A:PRO:540:CD:4882, V-A:PRO:540:N:4879, V-A:ILE:538:CD1:4860, V-A:TYR:539:CG:4867, V-B:ARG:545:CZ:9894, V-A:TYR:539:CD1:4868, V-A:TYR:539:C:4862, V-A:ILE:538:CA:4855, V-A:TYR:539:CZ:4872, V-A:ILE:538:CG2:4858, V-A:TYR:539:CE1:4870, H-B:ASP:366:OD2:8182, V-B:ASP:366:CG:8180, H-A:TYR:539:OH:4873, H-B:ARG:545:NH1:9895, H-B:GLY:454:N:9017, V-B:ASP:366:CA:8177, V-B:ILE:369:CB:8203, H-B:ASP:366:OD1:8181, V-A:ILE:538:C:4853"]

$$$$
3ck_Grossjean_2025
     RDKit          3D

 30 31  0  0  0  0  0  0  0  0999 V2000
  134.0190  130.0270   59.0860 C   0  0  0  0  0  0  0  0  0  0  0  0
  133.8110  131.0880   60.0040 O   0  0  0  0  0  0  0  0  0  0  0  0
  132.8310  130.7990   60.9920 C   0  0  0  0  0  0  0  0  0  0  0  0
  132.4730  132.0830   61.7520 C   0  0  0  0  0  0  0  0  0  0  0  0
  131.1100  132.4080   61.5100 O   0  0  0  0  0  0  0  0  0  0  0  0
  130.1920  131.4330   61.9860 C   0  0  0  0  0  0  0  0  0  0  0  0
  129.4220  132.0120   63.1800 C   0  0  0  0  0  0  0  0  0  0  0  0
  128.0840  131.5380   63.1220 O   0  0  0  0  0  0  0  0  0  0  0  0
  127.7210  130.6510   64.1680 C   0  0  0  0  0  0  0  0  0  0  0  0
  126.1930  130.4520   64.1680 C   0  0  0  0  0  0  0  0  0  0  0  0
  125.5200  131.0540   63.0140 N   0  0  0  0  0  0  0  0  0  0  0  0
  124.1890  131.1380   62.8380 C   0  0  0  0  0  0  0  0  0  0  0  0
  123.3710  130.7290   63.6640 O   0  0  0  0  0  0  0  0  0  0  0  0
  123.7350  131.7920   61.5230 C   0  0  0  0  0  0  0  0  0  0  0  0
  124.6660  131.2880   60.0350 S   0  0  0  0  0  0  0  0  0  0  0  0
  126.2180  132.1720   59.9890 C   0  0  0  0  0  0  0  0  0  0  0  0
  126.3800  133.1210   60.9450 N   0  0  0  0  0  0  0  0  0  0  0  0
  127.5300  133.8320   60.9660 C   0  0  0  0  0  0  0  0  0  0  0  0
  127.6380  134.8760   62.0610 C   0  0  0  0  0  0  0  0  0  0  0  0
  128.5550  133.6310   60.0450 C   0  0  0  0  0  0  0  0  0  0  0  0
  128.4060  132.6600   59.0460 C   0  0  0  0  0  0  0  0  0  0  0  0
  129.5210  132.4950   58.0660 C   0  0  0  0  0  0  0  0  0  0  0  0
  130.6800  131.7990   58.4300 C   0  0  0  0  0  0  0  0  0  0  0  0
  131.7290  131.6500   57.5240 C   0  0  0  0  0  0  0  0  0  0  0  0
  131.6230  132.2010   56.2510 C   0  0  0  0  0  0  0  0  0  0  0  0
  130.4790  132.9030   55.8760 C   0  0  0  0  0  0  0  0  0  0  0  0
  129.4340  133.0510   56.7830 C   0  0  0  0  0  0  0  0  0  0  0  0
  127.2100  131.8980   59.0190 C   0  0  0  0  0  0  0  0  0  0  0  0
  127.0170  130.8400   58.0200 C   0  0  0  0  0  0  0  0  0  0  0  0
  126.8650  130.0050   57.2330 N   0  0  0  0  0  0  0  0  0  0  0  0
  1  2  1  0
  2  3  1  0
  3  4  1  0
  4  5  1  0
  5  6  1  0
  6  7  1  0
  7  8  1  0
  8  9  1  0
  9 10  1  0
 10 11  1  0
 11 12  1  0
 12 13  2  0
 12 14  1  0
 14 15  1  0
 15 16  1  0
 16 17  2  0
 17 18  1  0
 18 19  1  0
 18 20  2  0
 20 21  1  0
 21 22  1  0
 22 23  2  0
 23 24  1  0
 24 25  2  0
 25 26  1  0
 26 27  2  0
 21 28  2  0
 28 29  1  0
 29 30  3  0
 28 16  1  0
 27 22  1  0
M  END
>  <Binding energies>  (36) 
[-6.59]

>  <Ligand effiencies>  (36) 
[-0.21258064516129033]

>  <Interactions>  (36) 
["V-A:GLU:543:CG:4902, V-B:ILE:369:CD1:8206, H-A:ALA:541:N:4886, V-A:TYR:539:CE2:4871, V-A:LEU:363:CD1:3184, V-A:TYR:539:CD2:4869, V-B:LEU:475:CD2:9226, V-A:LEU:363:CA:3180, V-A:ALA:541:CB:4887, V-A:ASN:362:C:3167, V-A:GLU:543:CD:4903, V-A:TYR:531:CE2:4788, V-A:PRO:540:CB:4880, V-A:PRO:540:CA:4878, V-A:PRO:540:CD:4882, V-A:PRO:540:N:4879, V-B:LEU:475:CD1:9225, V-A:TYR:539:CG:4867, V-A:TYR:539:CD1:4868, V-A:TYR:539:C:4862, V-A:TYR:539:CZ:4872, V-A:TYR:539:CE1:4870, V-A:PRO:540:C:4876, V-A:ASP:366:CG:3208, V-A:TYR:539:CA:4864, H-A:TYR:539:OH:4873, H-B:GLY:454:N:9017, V-A:ASP:366:CB:3207, V-A:ASN:362:CB:3171, H-A:LEU:363:N:3181"]

$$$$
4aa_Grossjean_2025
     RDKit          3D

 26 28  0  0  0  0  0  0  0  0999 V2000
  132.0700  131.3070   54.6420 C   0  0  0  0  0  0  0  0  0  0  0  0
  132.1240  132.5720   55.5040 C   0  0  0  0  0  0  0  0  0  0  0  0
  130.9130  133.3010   55.3500 O   0  0  0  0  0  0  0  0  0  0  0  0
  129.7240  132.6620   55.2020 C   0  0  0  0  0  0  0  0  0  0  0  0
  129.2330  132.3830   54.1030 O   0  0  0  0  0  0  0  0  0  0  0  0
  129.0620  132.3320   56.5080 C   0  0  0  0  0  0  0  0  0  0  0  0
  128.0320  131.3820   56.5320 C   0  0  0  0  0  0  0  0  0  0  0  0
  127.3950  131.0580   57.7270 C   0  0  0  0  0  0  0  0  0  0  0  0
  127.7790  131.6690   58.9210 C   0  0  0  0  0  0  0  0  0  0  0  0
  127.0620  131.2740   60.0680 N   0  0  0  0  0  0  0  0  0  0  0  0
  125.9950  130.4470   60.1890 C   0  0  0  0  0  0  0  0  0  0  0  0
  125.4230  129.9110   59.2390 O   0  0  0  0  0  0  0  0  0  0  0  0
  125.5220  130.2350   61.5580 C   0  0  0  0  0  0  0  0  0  0  0  0
  124.0700  131.0560   62.1360 S   0  0  0  0  0  0  0  0  0  0  0  0
  124.2430  130.3440   63.7240 C   0  0  0  0  0  0  0  0  0  0  0  0
  123.3770  130.5950   64.7080 N   0  0  0  0  0  0  0  0  0  0  0  0
  123.6290  129.9840   65.8910 C   0  0  0  0  0  0  0  0  0  0  0  0
  122.6350  130.2870   66.9980 C   0  0  0  0  0  0  0  0  0  0  0  0
  124.7100  129.1340   66.1100 C   0  0  0  0  0  0  0  0  0  0  0  0
  125.6150  128.8720   65.0760 C   0  0  0  0  0  0  0  0  0  0  0  0
  126.7810  127.9370   65.3630 C   0  0  0  0  0  0  0  0  0  0  0  0
  125.3880  129.4980   63.8210 C   0  0  0  0  0  0  0  0  0  0  0  0
  126.1020  129.4570   62.5730 C   0  0  0  0  0  0  0  0  0  0  0  0
  127.2450  128.7150   62.4080 N   0  0  0  0  0  0  0  0  0  0  0  0
  128.8040  132.6250   58.9070 C   0  0  0  0  0  0  0  0  0  0  0  0
  129.4380  132.9510   57.7100 C   0  0  0  0  0  0  0  0  0  0  0  0
  1  2  1  0
  2  3  1  0
  3  4  1  0
  4  5  2  0
  4  6  1  0
  6  7  2  0
  7  8  1  0
  8  9  2  0
  9 10  1  0
 10 11  1  0
 11 12  2  0
 11 13  1  0
 13 14  1  0
 14 15  1  0
 15 16  2  0
 16 17  1  0
 17 18  1  0
 17 19  2  0
 19 20  1  0
 20 21  1  0
 20 22  2  0
 22 23  1  0
 23 24  1  0
  9 25  1  0
 25 26  2  0
 26  6  1  0
 23 13  2  0
 22 15  1  0
M  END
>  <Binding energies>  (37) 
[-7.33]

>  <Ligand effiencies>  (37) 
[-0.25275862068965516]

>  <Interactions>  (37) 
["V-A:TYR:539:CE2:4871, V-A:LEU:363:CD1:3184, V-A:TYR:531:CE2:4788, V-A:PRO:540:CA:4878, V-A:PRO:540:CD:4882, V-A:PRO:540:N:4879, V-A:ILE:538:CD1:4860, V-A:TYR:539:CG:4867, H-A:TYR:539:N:4865, V-B:ARG:545:CZ:9894, V-A:TYR:539:CD1:4868, V-A:TYR:539:C:4862, V-B:GLU:543:CD:9876, V-B:HIS:456:CE1:9037, V-B:ARG:545:CD:9891, V-B:ARG:545:CG:9890, V-A:TYR:539:CZ:4872, V-A:ILE:538:CG2:4858, V-A:TYR:539:CE1:4870, H-B:GLY:454:N:9017, H-B:GLU:543:OE2:9878, V-B:GLY:454:CA:9016, V-B:GLY:453:CA:9011, V-B:GLY:453:C:9009, V-B:GLY:454:C:9014, V-B:ILE:455:C:9019"]

$$$$
4ab_Grossjean_2025
     RDKit          3D

 25 27  0  0  0  0  0  0  0  0999 V2000
  123.7460  124.6740   57.4980 C   0  0  0  0  0  0  0  0  0  0  0  0
  124.7340  124.2480   56.5700 O   0  0  0  0  0  0  0  0  0  0  0  0
  125.4650  123.1260   56.7940 C   0  0  0  0  0  0  0  0  0  0  0  0
  125.2280  122.0400   56.2550 O   0  0  0  0  0  0  0  0  0  0  0  0
  126.5880  123.3350   57.7690 C   0  0  0  0  0  0  0  0  0  0  0  0
  126.3170  123.9410   59.0030 C   0  0  0  0  0  0  0  0  0  0  0  0
  127.3370  124.1500   59.9280 C   0  0  0  0  0  0  0  0  0  0  0  0
  128.6430  123.7500   59.6430 C   0  0  0  0  0  0  0  0  0  0  0  0
  129.5950  124.0170   60.6460 N   0  0  0  0  0  0  0  0  0  0  0  0
  130.9120  124.3200   60.5410 C   0  0  0  0  0  0  0  0  0  0  0  0
  131.5280  124.3730   59.4770 O   0  0  0  0  0  0  0  0  0  0  0  0
  131.5970  124.5670   61.8110 C   0  0  0  0  0  0  0  0  0  0  0  0
  133.3230  124.2300   61.9720 S   0  0  0  0  0  0  0  0  0  0  0  0
  133.3100  124.7170   63.6510 C   0  0  0  0  0  0  0  0  0  0  0  0
  134.4110  124.6880   64.4030 N   0  0  0  0  0  0  0  0  0  0  0  0
  134.2650  125.0880   65.6900 C   0  0  0  0  0  0  0  0  0  0  0  0
  135.5280  125.0430   66.5290 C   0  0  0  0  0  0  0  0  0  0  0  0
  133.0560  125.5160   66.2360 C   0  0  0  0  0  0  0  0  0  0  0  0
  131.9020  125.5440   65.4440 C   0  0  0  0  0  0  0  0  0  0  0  0
  130.6070  126.0170   66.0860 C   0  0  0  0  0  0  0  0  0  0  0  0
  132.0160  125.1280   64.0900 C   0  0  0  0  0  0  0  0  0  0  0  0
  131.0570  125.0260   63.0220 C   0  0  0  0  0  0  0  0  0  0  0  0
  129.7360  125.3580   63.1920 N   0  0  0  0  0  0  0  0  0  0  0  0
  128.9250  123.1470   58.4080 C   0  0  0  0  0  0  0  0  0  0  0  0
  127.9040  122.9410   57.4830 C   0  0  0  0  0  0  0  0  0  0  0  0
  1  2  1  0
  2  3  1  0
  3  4  2  0
  3  5  1  0
  5  6  2  0
  6  7  1  0
  7  8  2  0
  8  9  1  0
  9 10  1  0
 10 11  2  0
 10 12  1  0
 12 13  1  0
 13 14  1  0
 14 15  2  0
 15 16  1  0
 16 17  1  0
 16 18  2  0
 18 19  1  0
 19 20  1  0
 19 21  2  0
 21 22  1  0
 22 23  1  0
  8 24  1  0
 24 25  2  0
 25  5  1  0
 22 12  2  0
 21 14  1  0
M  END
>  <Binding energies>  (38) 
[-7.84]

>  <Ligand effiencies>  (38) 
[-0.27999999999999997]

>  <Interactions>  (38) 
["V-A:HIS:456:CE1:4064, V-B:GLU:543:CD:9876, V-B:PRO:540:CB:9853, V-B:PRO:540:CA:9851, V-B:MET:535:CE:9803, V-B:TYR:539:C:9835, V-B:PRO:540:N:9852, V-B:TYR:531:CZ:9762, V-A:ASP:366:CG:3208, H-A:TYR:484:OH:4343, V-B:ASP:366:CB:8179, V-B:ASP:366:CG:8180, H-B:TYR:531:OH:9763, V-A:GLY:454:CA:4044, V-B:LEU:363:CD1:8156, H-B:TYR:539:N:9838, H-B:GLU:543:OE2:9878, V-A:ARG:545:CZ:4921, V-B:LEU:363:CB:8154, V-B:LEU:363:CA:8152, V-A:HIS:456:CD2:4063, V-A:ARG:545:CG:4917, V-A:GLY:453:C:4037, H-A:GLY:454:N:4045, V-A:GLY:453:CA:4039, V-A:ARG:545:CD:4918, V-B:TYR:531:CE2:9761, H-A:ARG:545:NH1:4922, V-A:ILE:455:C:4047"]

$$$$
4ac_Grossjean_2025
     RDKit          3D

 23 25  0  0  0  0  0  0  0  0999 V2000
  124.8710  122.3930   56.4160 C   0  0  0  0  0  0  0  0  0  0  0  0
  126.2390  122.1200   56.1290 O   0  0  0  0  0  0  0  0  0  0  0  0
  127.2010  122.4330   57.0700 C   0  0  0  0  0  0  0  0  0  0  0  0
  126.7390  122.8000   58.3330 C   0  0  0  0  0  0  0  0  0  0  0  0
  127.6350  123.1320   59.3460 C   0  0  0  0  0  0  0  0  0  0  0  0
  129.0090  123.0910   59.1090 C   0  0  0  0  0  0  0  0  0  0  0  0
  129.8370  123.4560   60.1880 N   0  0  0  0  0  0  0  0  0  0  0  0
  131.1410  123.8220   60.1820 C   0  0  0  0  0  0  0  0  0  0  0  0
  131.8420  123.8580   59.1680 O   0  0  0  0  0  0  0  0  0  0  0  0
  131.7000  124.1780   61.4890 C   0  0  0  0  0  0  0  0  0  0  0  0
  133.3780  123.7960   61.8750 S   0  0  0  0  0  0  0  0  0  0  0  0
  133.2190  124.4950   63.4710 C   0  0  0  0  0  0  0  0  0  0  0  0
  134.2350  124.5200   64.3350 N   0  0  0  0  0  0  0  0  0  0  0  0
  133.9800  125.0900   65.5370 C   0  0  0  0  0  0  0  0  0  0  0  0
  135.1480  125.1100   66.5050 C   0  0  0  0  0  0  0  0  0  0  0  0
  132.7430  125.6270   65.8940 C   0  0  0  0  0  0  0  0  0  0  0  0
  131.6800  125.5980   64.9850 C   0  0  0  0  0  0  0  0  0  0  0  0
  130.3510  126.1970   65.4200 C   0  0  0  0  0  0  0  0  0  0  0  0
  131.9110  125.0100   63.7120 C   0  0  0  0  0  0  0  0  0  0  0  0
  131.0650  124.8180   62.5650 C   0  0  0  0  0  0  0  0  0  0  0  0
  129.7560  125.2300   62.5440 N   0  0  0  0  0  0  0  0  0  0  0  0
  129.4820  122.7350   57.8380 C   0  0  0  0  0  0  0  0  0  0  0  0
  128.5830  122.4040   56.8270 C   0  0  0  0  0  0  0  0  0  0  0  0
  1  2  1  0
  2  3  1  0
  3  4  2  0
  4  5  1  0
  5  6  2  0
  6  7  1  0
  7  8  1  0
  8  9  2  0
  8 10  1  0
 10 11  1  0
 11 12  1  0
 12 13  2  0
 13 14  1  0
 14 15  1  0
 14 16  2  0
 16 17  1  0
 17 18  1  0
 17 19  2  0
 19 20  1  0
 20 21  1  0
  6 22  1  0
 22 23  2  0
 23  3  1  0
 20 10  2  0
 19 12  1  0
M  END
>  <Binding energies>  (39) 
[-7.17]

>  <Ligand effiencies>  (39) 
[-0.27576923076923077]

>  <Interactions>  (39) 
["V-B:GLU:543:CD:9876, V-B:TYR:539:CD2:9842, V-B:TYR:539:CE2:9844, V-B:TYR:539:CZ:9845, V-B:PRO:540:CB:9853, V-B:PRO:540:CA:9851, V-B:TYR:539:CE1:9843, V-B:MET:535:CE:9803, V-B:TYR:539:CD1:9841, V-B:TYR:539:C:9835, V-B:PRO:540:N:9852, V-B:TYR:539:CG:9840, V-A:ILE:369:CD1:3234, V-A:ASP:366:CG:3208, H-A:TYR:484:OH:4343, V-B:PRO:540:CD:9855, V-B:TYR:539:CA:9837, V-B:PRO:540:CG:9854, V-B:LEU:363:CD1:8156, H-B:TYR:539:N:9838, H-B:GLU:543:OE2:9878, V-A:ARG:545:CZ:4921, V-A:HIS:456:CD2:4063, V-A:ARG:545:CG:4917, V-A:GLY:453:C:4037, H-A:GLY:454:N:4045, V-A:GLY:453:CA:4039, V-A:ARG:545:CD:4918, V-B:ILE:538:CG2:9831"]

$$$$
4ad_Grossjean_2025
     RDKit          3D

 21 23  0  0  0  0  0  0  0  0999 V2000
  124.3520  123.3470   57.6220 C   0  0  0  0  0  0  0  0  0  0  0  0
  125.7260  123.8420   57.2120 C   0  0  0  0  0  0  0  0  0  0  0  0
  126.8730  123.1130   57.5190 C   0  0  0  0  0  0  0  0  0  0  0  0
  128.1310  123.5910   57.1330 C   0  0  0  0  0  0  0  0  0  0  0  0
  129.3540  122.7620   57.4930 C   0  0  0  0  0  0  0  0  0  0  0  0
  128.1840  124.8240   56.4280 C   0  0  0  0  0  0  0  0  0  0  0  0
  129.2770  125.5890   55.8930 C   0  0  0  0  0  0  0  0  0  0  0  0
  130.5810  125.1750   56.0010 N   0  0  0  0  0  0  0  0  0  0  0  0
  128.8860  126.7800   55.2600 C   0  0  0  0  0  0  0  0  0  0  0  0
  129.7290  127.7950   54.6270 C   0  0  0  0  0  0  0  0  0  0  0  0
  130.2410  127.5880   53.5250 O   0  0  0  0  0  0  0  0  0  0  0  0
  129.8810  128.9450   55.3290 N   0  0  0  0  0  0  0  0  0  0  0  0
  130.6500  130.0850   55.0260 C   0  0  0  0  0  0  0  0  0  0  0  0
  130.4050  131.2150   55.8120 C   0  0  0  0  0  0  0  0  0  0  0  0
  131.1210  132.3890   55.5960 C   0  0  0  0  0  0  0  0  0  0  0  0
  132.0910  132.4320   54.5980 C   0  0  0  0  0  0  0  0  0  0  0  0
  132.3550  131.3090   53.8170 C   0  0  0  0  0  0  0  0  0  0  0  0
  131.6390  130.1340   54.0300 C   0  0  0  0  0  0  0  0  0  0  0  0
  127.1340  126.9800   55.3100 S   0  0  0  0  0  0  0  0  0  0  0  0
  126.9380  125.4740   56.1760 C   0  0  0  0  0  0  0  0  0  0  0  0
  125.7380  125.0200   56.5430 N   0  0  0  0  0  0  0  0  0  0  0  0
  1  2  1  0
  2  3  2  0
  3  4  1  0
  4  5  1  0
  4  6  2  0
  6  7  1  0
  7  8  1  0
  7  9  2  0
  9 10  1  0
 10 11  2  0
 10 12  1  0
 12 13  1  0
 13 14  2  0
 14 15  1  0
 15 16  2  0
 16 17  1  0
 17 18  2  0
  9 19  1  0
 19 20  1  0
 20 21  2  0
 21  2  1  0
 20  6  1  0
 18 13  1  0
M  END
>  <Binding energies>  (40) 
[-6.78]

>  <Ligand effiencies>  (40) 
[-0.28250000000000003]

>  <Interactions>  (40) 
["V-A:LEU:363:CD1:3184, V-A:TYR:531:CZ:4789, V-A:TYR:531:CE2:4788, V-A:ILE:538:CD1:4860, V-A:ILE:538:CA:4855, V-A:TYR:531:CE1:4787, V-A:ILE:538:CG2:4858, V-B:TYR:539:CD2:9842, V-B:TYR:539:CE2:9844, V-B:TYR:539:CZ:9845, V-B:PRO:540:CB:9853, V-B:PRO:540:CA:9851, V-B:TYR:539:CE1:9843, V-B:MET:535:CE:9803, V-B:TYR:539:C:9835, V-B:PRO:540:N:9852, V-B:TYR:539:CG:9840, V-B:TYR:531:CZ:9762, H-A:TYR:531:OH:4790, V-B:PRO:540:CD:9855, H-B:TYR:539:OH:9846, H-B:TYR:531:OH:9763, V-B:LEU:363:CD1:8156, V-B:LEU:363:CB:8154"]

$$$$
4ae_Grossjean_2025
     RDKit          3D

 22 24  0  0  0  0  0  0  0  0999 V2000
  128.6320  130.2910   67.0470 C   0  0  0  0  0  0  0  0  0  0  0  0
  127.8930  130.1070   65.7370 C   0  0  0  0  0  0  0  0  0  0  0  0
  126.6080  129.5600   65.6920 C   0  0  0  0  0  0  0  0  0  0  0  0
  125.9920  129.4130   64.4490 C   0  0  0  0  0  0  0  0  0  0  0  0
  126.6670  129.8100   63.2930 C   0  0  0  0  0  0  0  0  0  0  0  0
  127.9490  130.3580   63.4090 C   0  0  0  0  0  0  0  0  0  0  0  0
  128.5870  130.7200   62.2100 N   0  0  0  0  0  0  0  0  0  0  0  0
  129.4460  131.7440   61.9810 C   0  0  0  0  0  0  0  0  0  0  0  0
  129.8000  132.5480   62.8450 O   0  0  0  0  0  0  0  0  0  0  0  0
  129.9440  131.8510   60.6080 C   0  0  0  0  0  0  0  0  0  0  0  0
  129.0390  132.7670   59.4020 S   0  0  0  0  0  0  0  0  0  0  0  0
  130.2050  132.3750   58.1590 C   0  0  0  0  0  0  0  0  0  0  0  0
  130.0730  132.8080   56.9050 N   0  0  0  0  0  0  0  0  0  0  0  0
  131.0420  132.4280   56.0390 C   0  0  0  0  0  0  0  0  0  0  0  0
  130.8680  132.9260   54.6150 C   0  0  0  0  0  0  0  0  0  0  0  0
  132.1330  131.6360   56.3940 C   0  0  0  0  0  0  0  0  0  0  0  0
  132.2700  131.1840   57.7120 C   0  0  0  0  0  0  0  0  0  0  0  0
  133.4740  130.3190   58.0500 C   0  0  0  0  0  0  0  0  0  0  0  0
  131.2700  131.5610   58.6490 C   0  0  0  0  0  0  0  0  0  0  0  0
  131.0980  131.2770   60.0490 C   0  0  0  0  0  0  0  0  0  0  0  0
  131.9900  130.5130   60.7580 N   0  0  0  0  0  0  0  0  0  0  0  0
  128.5610  130.4990   64.6220 N   0  0  0  0  0  0  0  0  0  0  0  0
  1  2  1  0
  2  3  2  0
  3  4  1  0
  4  5  2  0
  5  6  1  0
  6  7  1  0
  7  8  1  0
  8  9  2  0
  8 10  1  0
 10 11  1  0
 11 12  1  0
 12 13  2  0
 13 14  1  0
 14 15  1  0
 14 16  2  0
 16 17  1  0
 17 18  1  0
 17 19  2  0
 19 20  1  0
 20 21  1  0
  6 22  2  0
 22  2  1  0
 20 10  2  0
 19 12  1  0
M  END
>  <Binding energies>  (41) 
[-7.01]

>  <Ligand effiencies>  (41) 
[-0.2804]

>  <Interactions>  (41) 
["V-A:GLU:543:CG:4902, H-A:ALA:541:N:4886, H-A:GLU:543:OE2:4905, V-A:LEU:363:CD1:3184, V-A:TYR:531:CZ:4789, V-A:LEU:363:CA:3180, V-A:GLU:543:CD:4903, V-A:TYR:531:CE2:4788, V-A:PRO:540:CB:4880, V-A:PRO:540:CA:4878, V-A:PRO:540:CD:4882, V-A:PRO:540:N:4879, V-A:ILE:538:CD1:4860, H-A:TYR:539:N:4865, V-A:TYR:539:C:4862, V-A:ILE:538:CA:4855, H-B:TYR:484:OH:9315, V-B:HIS:456:CE1:9037, V-A:GLU:543:CB:4901, V-A:ILE:538:CB:4857, V-A:ILE:538:CG2:4858, V-B:TYR:484:CZ:9314, V-B:TYR:484:CE1:9312, H-A:ASP:366:OD2:3210, V-A:ILE:538:C:4853, V-A:GLU:543:CA:4899"]

$$$$
4af_Grossjean_2025
     RDKit          3D

 21 23  0  0  0  0  0  0  0  0999 V2000
  130.6450  132.9220   55.3610 C   0  0  0  0  0  0  0  0  0  0  0  0
  130.5990  132.5050   56.8190 C   0  0  0  0  0  0  0  0  0  0  0  0
  131.6640  131.8260   57.4060 C   0  0  0  0  0  0  0  0  0  0  0  0
  131.5980  131.4490   58.7530 C   0  0  0  0  0  0  0  0  0  0  0  0
  132.7850  130.7080   59.3480 C   0  0  0  0  0  0  0  0  0  0  0  0
  130.4210  131.7820   59.4770 C   0  0  0  0  0  0  0  0  0  0  0  0
  130.0250  131.5520   60.8410 C   0  0  0  0  0  0  0  0  0  0  0  0
  130.8330  130.9000   61.7380 N   0  0  0  0  0  0  0  0  0  0  0  0
  128.7520  132.0530   61.1570 C   0  0  0  0  0  0  0  0  0  0  0  0
  128.0300  131.9700   62.4280 C   0  0  0  0  0  0  0  0  0  0  0  0
  128.4050  132.6180   63.4060 O   0  0  0  0  0  0  0  0  0  0  0  0
  126.9440  131.1590   62.4260 N   0  0  0  0  0  0  0  0  0  0  0  0
  126.0730  130.8250   63.4800 C   0  0  0  0  0  0  0  0  0  0  0  0
  126.3930  129.9960   64.5710 C   0  0  0  0  0  0  0  0  0  0  0  0
  125.4270  129.7310   65.5440 C   0  0  0  0  0  0  0  0  0  0  0  0
  124.1600  130.2970   65.4000 C   0  0  0  0  0  0  0  0  0  0  0  0
  123.8240  131.0930   64.3530 N   0  0  0  0  0  0  0  0  0  0  0  0
  124.7740  131.3420   63.4160 C   0  0  0  0  0  0  0  0  0  0  0  0
  128.0060  132.8270   59.7570 S   0  0  0  0  0  0  0  0  0  0  0  0
  129.4020  132.4790   58.7620 C   0  0  0  0  0  0  0  0  0  0  0  0
  129.4620  132.8400   57.4790 N   0  0  0  0  0  0  0  0  0  0  0  0
  1  2  1  0
  2  3  2  0
  3  4  1  0
  4  5  1  0
  4  6  2  0
  6  7  1  0
  7  8  1  0
  7  9  2  0
  9 10  1  0
 10 11  2  0
 10 12  1  0
 12 13  1  0
 13 14  2  0
 14 15  1  0
 15 16  2  0
 16 17  1  0
 17 18  2  0
  9 19  1  0
 19 20  1  0
 20 21  2  0
 21  2  1  0
 20  6  1  0
 18 13  1  0
M  END
>  <Binding energies>  (42) 
[-6.62]

>  <Ligand effiencies>  (42) 
[-0.2758333333333333]

>  <Interactions>  (42) 
["V-A:TYR:539:CE2:4871, H-A:GLU:543:OE2:4905, V-A:TYR:539:CD2:4869, V-A:GLU:543:CD:4903, V-A:PRO:540:CB:4880, V-A:PRO:540:CA:4878, V-A:PRO:540:CD:4882, V-A:PRO:540:N:4879, V-A:TYR:539:C:4862, V-A:ILE:538:CA:4855, H-B:TYR:484:OH:9315, V-B:HIS:456:CE1:9037, H-B:GLY:454:N:9017"]

$$$$
4ag_Grossjean_2025
     RDKit          3D

 22 24  0  0  0  0  0  0  0  0999 V2000
  129.7670  121.2150   61.3710 C   0  0  0  0  0  0  0  0  0  0  0  0
  130.2620  122.0020   60.1710 C   0  0  0  0  0  0  0  0  0  0  0  0
  131.6220  122.0840   59.8780 C   0  0  0  0  0  0  0  0  0  0  0  0
  132.0560  122.8140   58.7660 C   0  0  0  0  0  0  0  0  0  0  0  0
  133.5510  122.8730   58.4880 C   0  0  0  0  0  0  0  0  0  0  0  0
  131.0710  123.4540   57.9680 C   0  0  0  0  0  0  0  0  0  0  0  0
  131.1610  124.2640   56.7840 C   0  0  0  0  0  0  0  0  0  0  0  0
  132.3610  124.5660   56.1900 N   0  0  0  0  0  0  0  0  0  0  0  0
  129.9210  124.7110   56.3050 C   0  0  0  0  0  0  0  0  0  0  0  0
  129.6440  125.5370   55.1290 C   0  0  0  0  0  0  0  0  0  0  0  0
  129.0240  125.0900   54.1620 O   0  0  0  0  0  0  0  0  0  0  0  0
  130.1220  126.7990   55.1640 N   0  0  0  0  0  0  0  0  0  0  0  0
  129.9420  127.8020   54.1160 C   0  0  0  0  0  0  0  0  0  0  0  0
  130.5980  129.1430   54.4230 C   0  0  0  0  0  0  0  0  0  0  0  0
  130.2900  129.8120   55.6120 C   0  0  0  0  0  0  0  0  0  0  0  0
  130.9060  131.0260   55.9070 C   0  0  0  0  0  0  0  0  0  0  0  0
  131.8370  131.5610   55.0190 C   0  0  0  0  0  0  0  0  0  0  0  0
  132.1600  130.8920   53.8400 C   0  0  0  0  0  0  0  0  0  0  0  0
  131.5450  129.6790   53.5450 C   0  0  0  0  0  0  0  0  0  0  0  0
  128.5970  124.1250   57.3110 S   0  0  0  0  0  0  0  0  0  0  0  0
  129.7120  123.2930   58.3730 C   0  0  0  0  0  0  0  0  0  0  0  0
  129.2950  122.5970   59.4310 N   0  0  0  0  0  0  0  0  0  0  0  0
  1  2  1  0
  2  3  2  0
  3  4  1  0
  4  5  1  0
  4  6  2  0
  6  7  1  0
  7  8  1  0
  7  9  2  0
  9 10  1  0
 10 11  2  0
 10 12  1  0
 12 13  1  0
 13 14  1  0
 14 15  2  0
 15 16  1  0
 16 17  2  0
 17 18  1  0
 18 19  2  0
  9 20  1  0
 20 21  1  0
 21 22  2  0
 22  2  1  0
 21  6  1  0
 19 14  1  0
M  END
>  <Binding energies>  (43) 
[-7.58]

>  <Ligand effiencies>  (43) 
[-0.3032]

>  <Interactions>  (43) 
["V-A:LEU:363:CD1:3184, V-A:TYR:531:CZ:4789, V-A:TYR:531:CE2:4788, V-A:ILE:538:CD1:4860, V-A:TYR:531:CE1:4787, V-B:TYR:539:CE2:9844, V-B:TYR:539:CZ:9845, V-B:ALA:541:CB:9860, V-A:ILE:369:CD1:3234, H-A:LYS:534:NZ:4818, H-A:TYR:531:OH:4790, H-B:TYR:539:OH:9846, V-A:ILE:369:CG2:3232, V-A:TYR:531:CD1:4785, V-A:ILE:369:CB:3231, H-A:ASP:366:O:3204, H-A:ASN:370:OD1:3242"]

$$$$
4ah_Grossjean_2025
     RDKit          3D

 28 30  0  0  0  0  0  0  0  0999 V2000
  132.1740  132.9360   55.6840 C   0  0  0  0  0  0  0  0  0  0  0  0
  130.7530  132.9970   55.7320 O   0  0  0  0  0  0  0  0  0  0  0  0
  130.0280  131.8250   55.8640 C   0  0  0  0  0  0  0  0  0  0  0  0
  130.3490  130.6270   55.2070 C   0  0  0  0  0  0  0  0  0  0  0  0
  129.5700  129.4830   55.3860 C   0  0  0  0  0  0  0  0  0  0  0  0
  129.9610  128.1780   54.7020 C   0  0  0  0  0  0  0  0  0  0  0  0
  130.0880  127.0490   55.6230 N   0  0  0  0  0  0  0  0  0  0  0  0
  129.8060  125.7630   55.3270 C   0  0  0  0  0  0  0  0  0  0  0  0
  129.3670  125.4140   54.2300 O   0  0  0  0  0  0  0  0  0  0  0  0
  130.0130  124.7970   56.4060 C   0  0  0  0  0  0  0  0  0  0  0  0
  128.6380  124.2020   57.3380 S   0  0  0  0  0  0  0  0  0  0  0  0
  129.6860  123.2280   58.3450 C   0  0  0  0  0  0  0  0  0  0  0  0
  129.2090  122.4650   59.3290 N   0  0  0  0  0  0  0  0  0  0  0  0
  130.1270  121.7590   60.0330 C   0  0  0  0  0  0  0  0  0  0  0  0
  129.5640  120.9000   61.1500 C   0  0  0  0  0  0  0  0  0  0  0  0
  131.4960  121.7970   59.7770 C   0  0  0  0  0  0  0  0  0  0  0  0
  131.9940  122.6000   58.7450 C   0  0  0  0  0  0  0  0  0  0  0  0
  133.4960  122.6080   58.5050 C   0  0  0  0  0  0  0  0  0  0  0  0
  131.0610  123.3570   57.9860 C   0  0  0  0  0  0  0  0  0  0  0  0
  131.2210  124.2680   56.8840 C   0  0  0  0  0  0  0  0  0  0  0  0
  132.4490  124.5730   56.3550 N   0  0  0  0  0  0  0  0  0  0  0  0
  128.4740  129.5250   56.2490 C   0  0  0  0  0  0  0  0  0  0  0  0
  128.1260  130.7110   56.9140 C   0  0  0  0  0  0  0  0  0  0  0  0
  127.0460  130.8270   57.7700 O   0  0  0  0  0  0  0  0  0  0  0  0
  125.8750  130.0540   57.5260 C   0  0  0  0  0  0  0  0  0  0  0  0
  128.9080  131.8560   56.7080 C   0  0  0  0  0  0  0  0  0  0  0  0
  128.5890  133.0200   57.3660 O   0  0  0  0  0  0  0  0  0  0  0  0
  128.9000  133.0030   58.7530 C   0  0  0  0  0  0  0  0  0  0  0  0
  1  2  1  0
  2  3  1  0
  3  4  2  0
  4  5  1  0
  5  6  1  0
  6  7  1  0
  7  8  1  0
  8  9  2  0
  8 10  1  0
 10 11  1  0
 11 12  1  0
 12 13  2  0
 13 14  1  0
 14 15  1  0
 14 16  2  0
 16 17  1  0
 17 18  1  0
 17 19  2  0
 19 20  1  0
 20 21  1  0
  5 22  2  0
 22 23  1  0
 23 24  1  0
 24 25  1  0
 23 26  2  0
 26 27  1  0
 27 28  1  0
 26  3  1  0
 20 10  2  0
 19 12  1  0
M  END
>  <Binding energies>  (44) 
[-7.65]

>  <Ligand effiencies>  (44) 
[-0.24677419354838712]

>  <Interactions>  (44) 
["V-A:TYR:539:CE2:4871, V-A:LEU:363:CD1:3184, V-A:TYR:531:CZ:4789, V-A:TYR:539:CD2:4869, V-A:PRO:540:CA:4878, V-A:PRO:540:CD:4882, V-A:PRO:540:N:4879, V-A:TYR:539:CG:4867, H-A:TYR:539:N:4865, V-A:TYR:539:CD1:4868, V-A:TYR:539:C:4862, V-A:ILE:538:CA:4855, V-A:TYR:531:CE1:4787, V-A:TYR:539:CZ:4872, V-A:ILE:538:CG2:4858, V-A:TYR:539:CE1:4870, V-B:TYR:539:CD2:9842, V-B:TYR:539:CE2:9844, V-B:TYR:539:CZ:9845, V-B:ALA:541:CB:9860, V-A:ILE:369:CD1:3234, H-A:LYS:534:NZ:4818, H-A:TYR:531:OH:4790, H-B:TYR:539:OH:9846, H-A:TYR:539:OH:4873, V-A:ILE:369:CG2:3232, V-A:ILE:369:CB:3231, V-A:PRO:540:CG:4881, H-A:ASP:366:O:3204"]

$$$$
4ai_Grossjean_2025
     RDKit          3D

 20 22  0  0  0  0  0  0  0  0999 V2000
  130.8190  132.8010   54.4330 C   0  0  0  0  0  0  0  0  0  0  0  0
  130.9660  132.3950   55.8880 C   0  0  0  0  0  0  0  0  0  0  0  0
  132.0260  131.5920   56.3050 C   0  0  0  0  0  0  0  0  0  0  0  0
  132.1450  131.2340   57.6530 C   0  0  0  0  0  0  0  0  0  0  0  0
  133.3210  130.3590   58.0590 C   0  0  0  0  0  0  0  0  0  0  0  0
  131.1590  131.7150   58.5560 C   0  0  0  0  0  0  0  0  0  0  0  0
  130.9780  131.5470   59.9730 C   0  0  0  0  0  0  0  0  0  0  0  0
  131.8390  130.8000   60.7380 N   0  0  0  0  0  0  0  0  0  0  0  0
  129.8560  132.2160   60.4890 C   0  0  0  0  0  0  0  0  0  0  0  0
  129.3720  132.2510   61.8700 C   0  0  0  0  0  0  0  0  0  0  0  0
  129.0470  133.3170   62.3950 O   0  0  0  0  0  0  0  0  0  0  0  0
  129.3000  131.0470   62.4910 N   0  0  0  0  0  0  0  0  0  0  0  0
  128.8700  130.7900   63.7870 C   0  0  0  0  0  0  0  0  0  0  0  0
  128.5590  129.5100   64.2470 C   0  0  0  0  0  0  0  0  0  0  0  0
  128.1780  129.6830   65.5570 C   0  0  0  0  0  0  0  0  0  0  0  0
  128.2560  130.9980   65.8710 O   0  0  0  0  0  0  0  0  0  0  0  0
  128.6970  131.6900   64.7420 N   0  0  0  0  0  0  0  0  0  0  0  0
  128.9750  133.0580   59.2120 S   0  0  0  0  0  0  0  0  0  0  0  0
  130.1240  132.5280   58.0030 C   0  0  0  0  0  0  0  0  0  0  0  0
  130.0070  132.8700   56.7200 N   0  0  0  0  0  0  0  0  0  0  0  0
  1  2  1  0
  2  3  2  0
  3  4  1  0
  4  5  1  0
  4  6  2  0
  6  7  1  0
  7  8  1  0
  7  9  2  0
  9 10  1  0
 10 11  2  0
 10 12  1  0
 12 13  1  0
 13 14  1  0
 14 15  2  0
 15 16  1  0
 16 17  1  0
  9 18  1  0
 18 19  1  0
 19 20  2  0
 20  2  1  0
 19  6  1  0
 17 13  2  0
M  END
>  <Binding energies>  (45) 
[-6.65]

>  <Ligand effiencies>  (45) 
[-0.2891304347826087]

>  <Interactions>  (45) 
["V-A:GLU:543:CG:4902, H-A:ALA:541:N:4886, H-A:GLU:543:OE2:4905, V-A:LEU:363:CD1:3184, V-A:TYR:531:CZ:4789, V-A:TYR:539:CD2:4869, V-A:LEU:363:CA:3180, V-A:ALA:541:CB:4887, V-A:GLU:543:CD:4903, V-A:TYR:531:CE2:4788, V-A:PRO:540:CB:4880, V-A:PRO:540:CA:4878, V-A:PRO:540:CD:4882, V-A:PRO:540:N:4879, V-A:ILE:538:CD1:4860, H-A:TYR:539:N:4865, V-A:TYR:539:C:4862, V-A:ILE:538:CA:4855, H-B:TYR:484:OH:9315, V-A:ILE:538:CB:4857, V-A:ILE:538:CG2:4858, H-A:ASP:366:OD2:3210"]

$$$$
4aj_Grossjean_2025
     RDKit          3D

 20 22  0  0  0  0  0  0  0  0999 V2000
  131.0230  132.7030   54.6770 C   0  0  0  0  0  0  0  0  0  0  0  0
  131.2590  132.2270   56.0990 C   0  0  0  0  0  0  0  0  0  0  0  0
  132.3800  131.4660   56.4230 C   0  0  0  0  0  0  0  0  0  0  0  0
  132.5750  131.0320   57.7390 C   0  0  0  0  0  0  0  0  0  0  0  0
  133.8140  130.2030   58.0430 C   0  0  0  0  0  0  0  0  0  0  0  0
  131.6030  131.3960   58.7090 C   0  0  0  0  0  0  0  0  0  0  0  0
  131.4900  131.1280   60.1170 C   0  0  0  0  0  0  0  0  0  0  0  0
  132.4220  130.3890   60.7990 N   0  0  0  0  0  0  0  0  0  0  0  0
  130.3530  131.6930   60.7160 C   0  0  0  0  0  0  0  0  0  0  0  0
  129.9230  131.6110   62.1130 C   0  0  0  0  0  0  0  0  0  0  0  0
  130.1300  132.5450   62.8910 O   0  0  0  0  0  0  0  0  0  0  0  0
  129.2880  130.4650   62.4610 N   0  0  0  0  0  0  0  0  0  0  0  0
  128.7750  130.1430   63.7100 C   0  0  0  0  0  0  0  0  0  0  0  0
  128.5820  130.9440   64.7360 N   0  0  0  0  0  0  0  0  0  0  0  0
  128.0710  130.2990   65.7660 C   0  0  0  0  0  0  0  0  0  0  0  0
  127.8390  128.9380   65.5870 C   0  0  0  0  0  0  0  0  0  0  0  0
  128.3190  128.4910   63.9760 S   0  0  0  0  0  0  0  0  0  0  0  0
  129.3770  132.5660   59.5330 S   0  0  0  0  0  0  0  0  0  0  0  0
  130.5020  132.1810   58.2500 C   0  0  0  0  0  0  0  0  0  0  0  0
  130.3120  132.5950   56.9960 N   0  0  0  0  0  0  0  0  0  0  0  0
  1  2  1  0
  2  3  2  0
  3  4  1  0
  4  5  1  0
  4  6  2  0
  6  7  1  0
  7  8  1  0
  7  9  2  0
  9 10  1  0
 10 11  2  0
 10 12  1  0
 12 13  1  0
 13 14  2  0
 14 15  1  0
 15 16  2  0
 16 17  1  0
  9 18  1  0
 18 19  1  0
 19 20  2  0
 20  2  1  0
 19  6  1  0
 17 13  1  0
M  END
>  <Binding energies>  (46) 
[-6.49]

>  <Ligand effiencies>  (46) 
[-0.2821739130434783]

>  <Interactions>  (46) 
["V-A:GLU:543:CG:4902, H-A:ALA:541:N:4886, V-A:LEU:363:CB:3182, H-A:GLU:543:OE2:4905, V-A:LEU:363:CD1:3184, V-A:TYR:531:CZ:4789, V-A:LEU:363:CA:3180, V-A:GLU:543:CD:4903, V-A:TYR:531:CE2:4788, V-A:PRO:540:CB:4880, V-A:PRO:540:CA:4878, V-A:PRO:540:CD:4882, V-A:PRO:540:N:4879, V-A:ILE:538:CD1:4860, V-A:TYR:539:C:4862, V-A:ILE:538:CA:4855, H-B:TYR:484:OH:9315, V-A:ILE:538:CG2:4858, V-A:ASP:366:CB:3207, V-B:TYR:484:CZ:9314, V-B:TYR:484:CE1:9312, H-A:ASP:366:OD2:3210"]

$$$$
4ak_Grossjean_2025
     RDKit          3D

 25 26  0  0  0  0  0  0  0  0999 V2000
  127.2150  135.6800   61.3580 C   0  0  0  0  0  0  0  0  0  0  0  0
  126.4560  134.6040   60.8280 O   0  0  0  0  0  0  0  0  0  0  0  0
  125.0520  134.7680   60.9890 C   0  0  0  0  0  0  0  0  0  0  0  0
  124.3310  133.5030   60.5060 C   0  0  0  0  0  0  0  0  0  0  0  0
  125.2900  132.5610   60.0460 O   0  0  0  0  0  0  0  0  0  0  0  0
  124.8370  131.2140   60.0880 C   0  0  0  0  0  0  0  0  0  0  0  0
  124.4800  130.8440   61.5320 C   0  0  0  0  0  0  0  0  0  0  0  0
  125.6470  130.9220   62.3400 O   0  0  0  0  0  0  0  0  0  0  0  0
  125.6340  132.0020   63.2640 C   0  0  0  0  0  0  0  0  0  0  0  0
  127.0140  132.6850   63.2680 C   0  0  0  0  0  0  0  0  0  0  0  0
  127.7200  132.5870   61.9900 N   0  0  0  0  0  0  0  0  0  0  0  0
  129.0590  132.5290   61.8410 C   0  0  0  0  0  0  0  0  0  0  0  0
  129.8310  132.5330   62.8010 O   0  0  0  0  0  0  0  0  0  0  0  0
  129.5500  132.4530   60.4660 C   0  0  0  0  0  0  0  0  0  0  0  0
  128.6910  133.2790   59.1670 S   0  0  0  0  0  0  0  0  0  0  0  0
  129.8540  132.7260   57.9830 C   0  0  0  0  0  0  0  0  0  0  0  0
  129.7490  133.0390   56.6910 N   0  0  0  0  0  0  0  0  0  0  0  0
  130.7160  132.5440   55.8790 C   0  0  0  0  0  0  0  0  0  0  0  0
  130.5790  132.9120   54.4130 C   0  0  0  0  0  0  0  0  0  0  0  0
  131.7730  131.7550   56.3250 C   0  0  0  0  0  0  0  0  0  0  0  0
  131.8810  131.4290   57.6820 C   0  0  0  0  0  0  0  0  0  0  0  0
  133.0510  130.5610   58.1200 C   0  0  0  0  0  0  0  0  0  0  0  0
  130.8850  131.9290   58.5640 C   0  0  0  0  0  0  0  0  0  0  0  0
  130.6900  131.7930   59.9830 C   0  0  0  0  0  0  0  0  0  0  0  0
  131.5510  131.0770   60.7760 N   0  0  0  0  0  0  0  0  0  0  0  0
  1  2  1  0
  2  3  1  0
  3  4  1  0
  4  5  1  0
  5  6  1  0
  6  7  1  0
  7  8  1  0
  8  9  1  0
  9 10  1  0
 10 11  1  0
 11 12  1  0
 12 13  2  0
 12 14  1  0
 14 15  1  0
 15 16  1  0
 16 17  2  0
 17 18  1  0
 18 19  1  0
 18 20  2  0
 20 21  1  0
 21 22  1  0
 21 23  2  0
 23 24  1  0
 24 25  1  0
 24 14  2  0
 23 16  1  0
M  END
>  <Binding energies>  (47) 
[-5.22]

>  <Ligand effiencies>  (47) 
[-0.18642857142857142]

>  <Interactions>  (47) 
["V-B:ILE:369:CD1:8206, H-A:ALA:541:N:4886, V-A:TYR:539:CE2:4871, H-A:GLU:543:OE2:4905, V-A:LEU:363:CD1:3184, V-A:TYR:531:CZ:4789, V-A:TYR:539:CD2:4869, V-B:LEU:475:CD2:9226, V-A:LEU:363:CA:3180, V-A:ALA:541:CB:4887, V-A:TYR:531:CE2:4788, V-A:PRO:540:CB:4880, V-A:PRO:540:CA:4878, V-A:PRO:540:CD:4882, V-A:PRO:540:N:4879, V-B:ILE:369:CG2:8204, V-A:ILE:538:CD1:4860, V-A:TYR:539:CG:4867, H-A:TYR:539:N:4865, V-A:TYR:539:C:4862, V-A:ILE:538:CA:4855, V-A:ILE:538:CB:4857, V-A:ILE:538:CG2:4858, V-B:TRP:381:CZ2:8337, V-B:TRP:381:CH2:8339, H-A:TYR:539:OH:4873, H-A:ASP:366:OD2:3210, V-A:ILE:538:C:4853"]

$$$$
4al_Grossjean_2025
     RDKit          3D

 16 17  0  0  0  0  0  0  0  0999 V2000
  127.8230  134.6530   61.7410 C   0  0  0  0  0  0  0  0  0  0  0  0
  128.0040  133.2460   61.6880 O   0  0  0  0  0  0  0  0  0  0  0  0
  129.2490  132.7040   61.6630 C   0  0  0  0  0  0  0  0  0  0  0  0
  129.8890  132.4000   62.6730 O   0  0  0  0  0  0  0  0  0  0  0  0
  129.7670  132.5140   60.2910 C   0  0  0  0  0  0  0  0  0  0  0  0
  128.9620  133.2950   58.9280 S   0  0  0  0  0  0  0  0  0  0  0  0
  130.1100  132.6070   57.8020 C   0  0  0  0  0  0  0  0  0  0  0  0
  130.0390  132.8420   56.4920 N   0  0  0  0  0  0  0  0  0  0  0  0
  130.9900  132.2480   55.7280 C   0  0  0  0  0  0  0  0  0  0  0  0
  130.8900  132.5280   54.2390 C   0  0  0  0  0  0  0  0  0  0  0  0
  131.9980  131.4350   56.2400 C   0  0  0  0  0  0  0  0  0  0  0  0
  132.0710  131.1910   57.6150 C   0  0  0  0  0  0  0  0  0  0  0  0
  133.1890  130.2970   58.1270 C   0  0  0  0  0  0  0  0  0  0  0  0
  131.0900  131.7960   58.4470 C   0  0  0  0  0  0  0  0  0  0  0  0
  130.8700  131.7620   59.8670 C   0  0  0  0  0  0  0  0  0  0  0  0
  131.6730  131.0520   60.7220 N   0  0  0  0  0  0  0  0  0  0  0  0
  1  2  1  0
  2  3  1  0
  3  4  2  0
  3  5  1  0
  5  6  1  0
  6  7  1  0
  7  8  2  0
  8  9  1  0
  9 10  1  0
  9 11  2  0
 11 12  1  0
 12 13  1  0
 12 14  2  0
 14 15  1  0
 15 16  1  0
 15  5  2  0
 14  7  1  0
M  END
>  <Binding energies>  (48) 
[-5.45]

>  <Ligand effiencies>  (48) 
[-0.3027777777777778]

>  <Interactions>  (48) 
["H-A:ALA:541:N:4886, V-A:TYR:539:CE2:4871, H-A:GLU:543:OE2:4905, V-A:LEU:363:CD1:3184, V-A:TYR:531:CZ:4789, V-A:TYR:539:CD2:4869, V-B:LEU:475:CD2:9226, V-A:LEU:363:CA:3180, V-A:ALA:541:CB:4887, V-A:TYR:531:CE2:4788, V-A:PRO:540:CB:4880, V-A:PRO:540:CA:4878, V-A:PRO:540:CD:4882, V-A:PRO:540:N:4879, V-A:ILE:538:CD1:4860, V-A:TYR:539:CG:4867, H-A:TYR:539:N:4865, V-A:TYR:539:C:4862, V-A:ILE:538:CA:4855, V-A:PRO:540:C:4876, H-A:ASP:366:OD2:3210"]

$$$$
4bc_Grossjean_2025
     RDKit          3D

 26 28  0  0  0  0  0  0  0  0999 V2000
  123.8400  130.0130   66.5380 C   0  0  0  0  0  0  0  0  0  0  0  0
  123.3870  130.6080   65.3270 O   0  0  0  0  0  0  0  0  0  0  0  0
  124.3120  130.9680   64.3660 C   0  0  0  0  0  0  0  0  0  0  0  0
  124.9980  129.9270   63.7420 C   0  0  0  0  0  0  0  0  0  0  0  0
  125.9500  130.1910   62.7610 C   0  0  0  0  0  0  0  0  0  0  0  0
  126.2230  131.5080   62.3830 C   0  0  0  0  0  0  0  0  0  0  0  0
  127.2100  131.6790   61.3960 N   0  0  0  0  0  0  0  0  0  0  0  0
  128.3810  132.3590   61.4630 C   0  0  0  0  0  0  0  0  0  0  0  0
  128.7520  132.9930   62.4510 O   0  0  0  0  0  0  0  0  0  0  0  0
  129.2080  132.3080   60.2540 C   0  0  0  0  0  0  0  0  0  0  0  0
  128.7150  133.1790   58.8040 S   0  0  0  0  0  0  0  0  0  0  0  0
  130.1280  132.6250   57.9350 C   0  0  0  0  0  0  0  0  0  0  0  0
  130.3480  132.9790   56.6690 N   0  0  0  0  0  0  0  0  0  0  0  0
  131.4730  132.4860   56.1030 C   0  0  0  0  0  0  0  0  0  0  0  0
  131.7090  132.9050   54.6630 C   0  0  0  0  0  0  0  0  0  0  0  0
  132.3750  131.6560   56.7650 C   0  0  0  0  0  0  0  0  0  0  0  0
  132.1470  131.2800   58.0980 C   0  0  0  0  0  0  0  0  0  0  0  0
  133.1660  130.3620   58.7830 C   0  0  0  0  0  0  0  0  0  0  0  0
  133.6540  130.8770   59.9140 F   0  0  0  0  0  0  0  0  0  0  0  0
  132.5910  129.2000   59.0890 F   0  0  0  0  0  0  0  0  0  0  0  0
  134.1970  130.1430   57.9670 F   0  0  0  0  0  0  0  0  0  0  0  0
  130.9690  131.7840   58.7260 C   0  0  0  0  0  0  0  0  0  0  0  0
  130.4170  131.6240   60.0490 C   0  0  0  0  0  0  0  0  0  0  0  0
  131.0260  130.8680   61.0190 N   0  0  0  0  0  0  0  0  0  0  0  0
  125.5460  132.5620   63.0160 C   0  0  0  0  0  0  0  0  0  0  0  0
  124.5960  132.2930   63.9970 C   0  0  0  0  0  0  0  0  0  0  0  0
  1  2  1  0
  2  3  1  0
  3  4  2  0
  4  5  1  0
  5  6  2  0
  6  7  1  0
  7  8  1  0
  8  9  2  0
  8 10  1  0
 10 11  1  0
 11 12  1  0
 12 13  2  0
 13 14  1  0
 14 15  1  0
 14 16  2  0
 16 17  1  0
 17 18  1  0
 18 19  1  0
 18 20  1  0
 18 21  1  0
 17 22  2  0
 22 23  1  0
 23 24  1  0
  6 25  1  0
 25 26  2  0
 26  3  1  0
 23 10  2  0
 22 12  1  0
M  END
>  <Binding energies>  (49) 
[-6.8]

>  <Ligand effiencies>  (49) 
[-0.23448275862068965]

>  <Interactions>  (49) 
["H-A:ALA:541:N:4886, V-A:LEU:363:CB:3182, V-A:TYR:539:CE2:4871, H-A:GLU:543:OE2:4905, V-A:LEU:363:CD1:3184, V-A:TYR:531:CZ:4789, V-A:TYR:539:CD2:4869, V-B:LEU:475:CD2:9226, V-A:LEU:363:CA:3180, V-A:ASN:362:C:3167, V-A:TYR:531:CE2:4788, V-A:PRO:540:CB:4880, V-A:PRO:540:CA:4878, V-A:PRO:540:CD:4882, V-A:PRO:540:N:4879, V-A:ILE:538:CD1:4860, V-A:TYR:539:CG:4867, H-A:TYR:539:N:4865, V-B:ARG:545:CZ:9894, V-A:TYR:539:C:4862, V-A:ILE:538:CA:4855, H-B:TYR:484:OH:9315, V-B:HIS:456:CE1:9037, V-B:ARG:545:CD:9891, V-B:ARG:545:CG:9890, V-A:ILE:538:CB:4857, V-A:TYR:539:CZ:4872, V-A:ILE:538:CG2:4858, V-A:ASP:366:CG:3208, H-B:GLY:454:N:9017, V-A:ASP:366:CB:3207, V-A:LEU:363:C:3178, V-B:GLY:454:CA:9016, H-A:ASP:366:OD2:3210"]

$$$$
4bf_Grossjean_2025
     RDKit          3D

 24 26  0  0  0  0  0  0  0  0999 V2000
  130.7290  132.9080   55.3330 C   0  0  0  0  0  0  0  0  0  0  0  0
  130.6810  132.4990   56.7940 C   0  0  0  0  0  0  0  0  0  0  0  0
  131.7340  131.7990   57.3770 C   0  0  0  0  0  0  0  0  0  0  0  0
  131.6750  131.4240   58.7290 C   0  0  0  0  0  0  0  0  0  0  0  0
  132.8560  130.6520   59.3270 C   0  0  0  0  0  0  0  0  0  0  0  0
  133.4830  131.3240   60.2950 F   0  0  0  0  0  0  0  0  0  0  0  0
  132.4260  129.5040   59.8520 F   0  0  0  0  0  0  0  0  0  0  0  0
  133.7540  130.3930   58.3760 F   0  0  0  0  0  0  0  0  0  0  0  0
  130.5040  131.7900   59.4580 C   0  0  0  0  0  0  0  0  0  0  0  0
  130.0950  131.5830   60.8250 C   0  0  0  0  0  0  0  0  0  0  0  0
  130.8760  130.9230   61.7390 N   0  0  0  0  0  0  0  0  0  0  0  0
  128.8340  132.1190   61.1350 C   0  0  0  0  0  0  0  0  0  0  0  0
  128.1050  132.0650   62.4060 C   0  0  0  0  0  0  0  0  0  0  0  0
  128.3930  132.8300   63.3270 O   0  0  0  0  0  0  0  0  0  0  0  0
  127.1130  131.1420   62.4670 N   0  0  0  0  0  0  0  0  0  0  0  0
  126.2690  130.8050   63.5410 C   0  0  0  0  0  0  0  0  0  0  0  0
  126.5730  129.8840   64.5590 C   0  0  0  0  0  0  0  0  0  0  0  0
  125.6360  129.6280   65.5620 C   0  0  0  0  0  0  0  0  0  0  0  0
  124.4120  130.2960   65.5200 C   0  0  0  0  0  0  0  0  0  0  0  0
  124.0910  131.1830   64.5450 N   0  0  0  0  0  0  0  0  0  0  0  0
  125.0130  131.4220   63.5770 C   0  0  0  0  0  0  0  0  0  0  0  0
  128.1110  132.8980   59.7290 S   0  0  0  0  0  0  0  0  0  0  0  0
  129.4980  132.5080   58.7400 C   0  0  0  0  0  0  0  0  0  0  0  0
  129.5590  132.8620   57.4570 N   0  0  0  0  0  0  0  0  0  0  0  0
  1  2  1  0
  2  3  2  0
  3  4  1  0
  4  5  1  0
  5  6  1  0
  5  7  1  0
  5  8  1  0
  4  9  2  0
  9 10  1  0
 10 11  1  0
 10 12  2  0
 12 13  1  0
 13 14  2  0
 13 15  1  0
 15 16  1  0
 16 17  2  0
 17 18  1  0
 18 19  2  0
 19 20  1  0
 20 21  2  0
 12 22  1  0
 22 23  1  0
 23 24  2  0
 24  2  1  0
 23  9  1  0
 21 16  1  0
M  END
>  <Binding energies>  (50) 
[-6.44]

>  <Ligand effiencies>  (50) 
[-0.23851851851851855]

>  <Interactions>  (50) 
["V-A:LEU:363:CB:3182, V-A:TYR:539:CE2:4871, H-A:GLU:543:OE2:4905, V-A:LEU:363:CD1:3184, V-A:TYR:539:CD2:4869, V-A:LEU:363:CA:3180, V-A:ASN:362:C:3167, V-A:GLU:543:CD:4903, V-A:TYR:531:CE2:4788, V-A:PRO:540:CB:4880, V-A:PRO:540:CA:4878, V-A:PRO:540:CD:4882, V-A:PRO:540:N:4879, V-A:TYR:539:C:4862, V-A:ILE:538:CA:4855, H-B:TYR:484:OH:9315, V-B:HIS:456:CE1:9037, V-A:ILE:538:CG2:4858, V-A:ASP:366:CG:3208, H-B:GLY:454:N:9017, V-A:ASN:362:CB:3171"]

$$$$
4bh_Grossjean_2025
     RDKit          3D

 31 33  0  0  0  0  0  0  0  0999 V2000
  125.9530  130.2320   57.4680 C   0  0  0  0  0  0  0  0  0  0  0  0
  127.0990  131.0520   57.6630 O   0  0  0  0  0  0  0  0  0  0  0  0
  128.2060  130.8750   56.8530 C   0  0  0  0  0  0  0  0  0  0  0  0
  128.5350  129.6620   56.2290 C   0  0  0  0  0  0  0  0  0  0  0  0
  129.6710  129.5540   55.4260 C   0  0  0  0  0  0  0  0  0  0  0  0
  129.9870  128.2420   54.7200 C   0  0  0  0  0  0  0  0  0  0  0  0
  130.0670  127.0950   55.6260 N   0  0  0  0  0  0  0  0  0  0  0  0
  129.7320  125.8260   55.3130 C   0  0  0  0  0  0  0  0  0  0  0  0
  129.2760  125.5140   54.2120 O   0  0  0  0  0  0  0  0  0  0  0  0
  129.8990  124.8370   56.3780 C   0  0  0  0  0  0  0  0  0  0  0  0
  128.4900  124.2120   57.2290 S   0  0  0  0  0  0  0  0  0  0  0  0
  129.4980  123.2250   58.2620 C   0  0  0  0  0  0  0  0  0  0  0  0
  128.9720  122.4410   59.2020 N   0  0  0  0  0  0  0  0  0  0  0  0
  129.8530  121.7230   59.9370 C   0  0  0  0  0  0  0  0  0  0  0  0
  129.2330  120.8380   61.0040 C   0  0  0  0  0  0  0  0  0  0  0  0
  131.2320  121.7670   59.7540 C   0  0  0  0  0  0  0  0  0  0  0  0
  131.7920  122.5930   58.7660 C   0  0  0  0  0  0  0  0  0  0  0  0
  133.3150  122.6070   58.6000 C   0  0  0  0  0  0  0  0  0  0  0  0
  133.7110  122.2650   57.3720 F   0  0  0  0  0  0  0  0  0  0  0  0
  133.7840  123.8300   58.8440 F   0  0  0  0  0  0  0  0  0  0  0  0
  133.8690  121.7450   59.4530 F   0  0  0  0  0  0  0  0  0  0  0  0
  130.8910  123.3660   57.9760 C   0  0  0  0  0  0  0  0  0  0  0  0
  131.0890  124.3070   56.9000 C   0  0  0  0  0  0  0  0  0  0  0  0
  132.3310  124.6440   56.4280 N   0  0  0  0  0  0  0  0  0  0  0  0
  130.4750  130.6770   55.2180 C   0  0  0  0  0  0  0  0  0  0  0  0
  130.1750  131.9010   55.8350 C   0  0  0  0  0  0  0  0  0  0  0  0
  130.9330  133.0480   55.6860 O   0  0  0  0  0  0  0  0  0  0  0  0
  132.3530  132.9590   55.7490 C   0  0  0  0  0  0  0  0  0  0  0  0
  129.0400  131.9850   56.6560 C   0  0  0  0  0  0  0  0  0  0  0  0
  128.7240  133.1840   57.2520 O   0  0  0  0  0  0  0  0  0  0  0  0
  128.9180  133.1960   58.6600 C   0  0  0  0  0  0  0  0  0  0  0  0
  1  2  1  0
  2  3  1  0
  3  4  2  0
  4  5  1  0
  5  6  1  0
  6  7  1  0
  7  8  1  0
  8  9  2  0
  8 10  1  0
 10 11  1  0
 11 12  1  0
 12 13  2  0
 13 14  1  0
 14 15  1  0
 14 16  2  0
 16 17  1  0
 17 18  1  0
 18 19  1  0
 18 20  1  0
 18 21  1  0
 17 22  2  0
 22 23  1  0
 23 24  1  0
  5 25  2  0
 25 26  1  0
 26 27  1  0
 27 28  1  0
 26 29  2  0
 29 30  1  0
 30 31  1  0
 29  3  1  0
 23 10  2  0
 22 12  1  0
M  END
>  <Binding energies>  (51) 
[-7.27]

>  <Ligand effiencies>  (51) 
[-0.2138235294117647]

>  <Interactions>  (51) 
["V-A:TYR:539:CE2:4871, V-A:LEU:363:CD1:3184, V-A:TYR:531:CZ:4789, V-A:TYR:539:CD2:4869, V-A:PRO:540:CB:4880, V-A:PRO:540:CA:4878, V-A:PRO:540:CD:4882, V-A:PRO:540:N:4879, V-A:TYR:539:CG:4867, H-A:TYR:539:N:4865, V-A:TYR:539:CD1:4868, V-A:TYR:539:C:4862, V-A:TYR:531:CE1:4787, V-A:TYR:539:CZ:4872, V-A:ILE:538:CG2:4858, V-A:TYR:539:CE1:4870, V-B:TYR:539:CD2:9842, V-B:TYR:539:CE2:9844, V-B:TYR:539:CZ:9845, V-B:PRO:540:C:9849, V-B:ALA:541:CB:9860, V-A:ILE:369:CD1:3234, V-A:ASP:366:CG:3208, H-A:LYS:534:NZ:4818, H-A:TYR:531:OH:4790, H-B:TYR:539:OH:9846, H-A:TYR:539:OH:4873, V-A:ASP:366:CA:3205, V-A:ASP:366:CB:3207, V-A:ASP:366:C:3203, V-A:ILE:369:CG2:3232, V-A:ILE:369:CB:3231, V-A:PRO:540:CG:4881, V-B:ALA:541:CA:9858, V-A:ILE:369:CG1:3233, V-A:ILE:369:C:3227, H-A:ASP:366:O:3204"]

$$$$
4bi_Grossjean_2025
     RDKit          3D

 23 25  0  0  0  0  0  0  0  0999 V2000
  131.0600  132.8920   54.6350 C   0  0  0  0  0  0  0  0  0  0  0  0
  131.0960  132.4640   56.0910 C   0  0  0  0  0  0  0  0  0  0  0  0
  132.1390  131.6820   56.5830 C   0  0  0  0  0  0  0  0  0  0  0  0
  132.1620  131.2970   57.9330 C   0  0  0  0  0  0  0  0  0  0  0  0
  133.3330  130.4440   58.4310 C   0  0  0  0  0  0  0  0  0  0  0  0
  134.2990  130.3020   57.5200 F   0  0  0  0  0  0  0  0  0  0  0  0
  133.8800  131.0100   59.5060 F   0  0  0  0  0  0  0  0  0  0  0  0
  132.9000  129.2230   58.7470 F   0  0  0  0  0  0  0  0  0  0  0  0
  131.0810  131.7360   58.7550 C   0  0  0  0  0  0  0  0  0  0  0  0
  130.7670  131.5410   60.1490 C   0  0  0  0  0  0  0  0  0  0  0  0
  131.5610  130.8050   60.9920 N   0  0  0  0  0  0  0  0  0  0  0  0
  129.5850  132.1750   60.5660 C   0  0  0  0  0  0  0  0  0  0  0  0
  128.9680  132.1750   61.8950 C   0  0  0  0  0  0  0  0  0  0  0  0
  128.1890  133.0710   62.2280 O   0  0  0  0  0  0  0  0  0  0  0  0
  129.3020  131.1290   62.6920 N   0  0  0  0  0  0  0  0  0  0  0  0
  128.8580  130.8750   63.9840 C   0  0  0  0  0  0  0  0  0  0  0  0
  128.5030  129.6030   64.4300 C   0  0  0  0  0  0  0  0  0  0  0  0
  128.1250  129.7760   65.7420 C   0  0  0  0  0  0  0  0  0  0  0  0
  128.2470  131.0850   66.0690 O   0  0  0  0  0  0  0  0  0  0  0  0
  128.7120  131.7710   64.9450 N   0  0  0  0  0  0  0  0  0  0  0  0
  128.8080  133.0170   59.2270 S   0  0  0  0  0  0  0  0  0  0  0  0
  130.0760  132.5330   58.1260 C   0  0  0  0  0  0  0  0  0  0  0  0
  130.0600  132.8970   56.8440 N   0  0  0  0  0  0  0  0  0  0  0  0
  1  2  1  0
  2  3  2  0
  3  4  1  0
  4  5  1  0
  5  6  1  0
  5  7  1  0
  5  8  1  0
  4  9  2  0
  9 10  1  0
 10 11  1  0
 10 12  2  0
 12 13  1  0
 13 14  2  0
 13 15  1  0
 15 16  1  0
 16 17  1  0
 17 18  2  0
 18 19  1  0
 19 20  1  0
 12 21  1  0
 21 22  1  0
 22 23  2  0
 23  2  1  0
 22  9  1  0
 20 16  2  0
M  END
>  <Binding energies>  (52) 
[-6.18]

>  <Ligand effiencies>  (52) 
[-0.23769230769230767]

>  <Interactions>  (52) 
["V-A:GLU:543:CG:4902, V-A:LEU:363:CB:3182, V-A:TYR:539:CE2:4871, H-A:GLU:543:OE2:4905, V-A:LEU:363:CD1:3184, V-A:TYR:531:CZ:4789, V-A:TYR:539:CD2:4869, V-A:LEU:363:CA:3180, V-A:ASN:362:C:3167, V-A:GLU:543:CD:4903, V-A:TYR:531:CE2:4788, V-A:PRO:540:CB:4880, V-A:PRO:540:CA:4878, V-A:PRO:540:CD:4882, V-A:PRO:540:N:4879, V-A:TYR:531:CD2:4786, V-A:ILE:538:CD1:4860, H-A:TYR:539:N:4865, V-A:TYR:539:C:4862, V-A:ILE:538:CA:4855, H-B:TYR:484:OH:9315, V-A:ILE:538:CB:4857, V-A:ILE:538:CG2:4858, V-A:ASP:366:CG:3208, V-A:ASP:366:CB:3207, V-A:LEU:363:C:3178, H-A:ASP:366:OD2:3210, V-A:LEU:363:CG:3183"]

$$$$
4bj_Grossjean_2025
     RDKit          3D

 23 25  0  0  0  0  0  0  0  0999 V2000
  130.8120  132.9310   54.8210 C   0  0  0  0  0  0  0  0  0  0  0  0
  130.9880  132.4480   56.2490 C   0  0  0  0  0  0  0  0  0  0  0  0
  132.0910  131.6820   56.6160 C   0  0  0  0  0  0  0  0  0  0  0  0
  132.2380  131.2370   57.9400 C   0  0  0  0  0  0  0  0  0  0  0  0
  133.4670  130.3930   58.2960 C   0  0  0  0  0  0  0  0  0  0  0  0
  134.1800  130.9090   59.3000 F   0  0  0  0  0  0  0  0  0  0  0  0
  133.0840  129.1710   58.6640 F   0  0  0  0  0  0  0  0  0  0  0  0
  134.2730  130.3040   57.2380 F   0  0  0  0  0  0  0  0  0  0  0  0
  131.2200  131.6060   58.8690 C   0  0  0  0  0  0  0  0  0  0  0  0
  131.0290  131.3380   60.2740 C   0  0  0  0  0  0  0  0  0  0  0  0
  131.9120  130.5910   61.0120 N   0  0  0  0  0  0  0  0  0  0  0  0
  129.8690  131.9150   60.8150 C   0  0  0  0  0  0  0  0  0  0  0  0
  129.3680  131.8380   62.1890 C   0  0  0  0  0  0  0  0  0  0  0  0
  129.1990  132.8610   62.8580 O   0  0  0  0  0  0  0  0  0  0  0  0
  129.0990  130.5890   62.6430 N   0  0  0  0  0  0  0  0  0  0  0  0
  128.6080  130.2440   63.8940 C   0  0  0  0  0  0  0  0  0  0  0  0
  128.6160  130.9660   64.9940 N   0  0  0  0  0  0  0  0  0  0  0  0
  128.0580  130.3240   66.0000 C   0  0  0  0  0  0  0  0  0  0  0  0
  127.5800  129.0470   65.7260 C   0  0  0  0  0  0  0  0  0  0  0  0
  127.8870  128.6740   64.0560 S   0  0  0  0  0  0  0  0  0  0  0  0
  128.9600  132.7930   59.5880 S   0  0  0  0  0  0  0  0  0  0  0  0
  130.1430  132.3980   58.3640 C   0  0  0  0  0  0  0  0  0  0  0  0
  130.0070  132.8160   57.1060 N   0  0  0  0  0  0  0  0  0  0  0  0
  1  2  1  0
  2  3  2  0
  3  4  1  0
  4  5  1  0
  5  6  1  0
  5  7  1  0
  5  8  1  0
  4  9  2  0
  9 10  1  0
 10 11  1  0
 10 12  2  0
 12 13  1  0
 13 14  2  0
 13 15  1  0
 15 16  1  0
 16 17  2  0
 17 18  1  0
 18 19  2  0
 19 20  1  0
 12 21  1  0
 21 22  1  0
 22 23  2  0
 23  2  1  0
 22  9  1  0
 20 16  1  0
M  END
>  <Binding energies>  (53) 
[-5.75]

>  <Ligand effiencies>  (53) 
[-0.22115384615384615]

>  <Interactions>  (53) 
["V-A:GLU:543:CG:4902, H-A:ALA:541:N:4886, V-A:LEU:363:CB:3182, H-A:GLU:543:OE2:4905, V-A:LEU:363:CD1:3184, V-A:TYR:531:CZ:4789, V-A:LEU:363:CA:3180, V-A:ASN:362:C:3167, V-A:GLU:543:CD:4903, V-A:TYR:531:CE2:4788, V-A:PRO:540:CB:4880, V-A:PRO:540:CA:4878, V-A:PRO:540:CD:4882, V-A:PRO:540:N:4879, V-A:TYR:531:CD2:4786, V-A:ILE:538:CD1:4860, H-A:TYR:539:N:4865, V-A:TYR:539:C:4862, V-A:ILE:538:CA:4855, H-B:TYR:484:OH:9315, V-B:HIS:456:CE1:9037, V-A:ILE:538:CG2:4858, V-A:ASP:366:CG:3208, V-A:ASP:366:CB:3207, V-B:TYR:484:CZ:9314, V-A:LEU:363:C:3178, V-B:TYR:484:CE1:9312, H-A:ASP:366:OD2:3210, V-A:ILE:538:C:4853, V-A:LEU:363:CG:3183"]

$$$$
4bk_Grossjean_2025
     RDKit          3D

 28 29  0  0  0  0  0  0  0  0999 V2000
  127.3540  135.6020   61.3670 C   0  0  0  0  0  0  0  0  0  0  0  0
  126.5020  134.6180   60.8000 O   0  0  0  0  0  0  0  0  0  0  0  0
  125.1190  134.9090   60.9550 C   0  0  0  0  0  0  0  0  0  0  0  0
  124.2950  133.6460   60.6770 C   0  0  0  0  0  0  0  0  0  0  0  0
  125.1290  132.6600   60.0830 O   0  0  0  0  0  0  0  0  0  0  0  0
  124.5460  131.3640   60.0420 C   0  0  0  0  0  0  0  0  0  0  0  0
  124.3140  130.8640   61.4740 C   0  0  0  0  0  0  0  0  0  0  0  0
  125.5410  130.9030   62.1900 O   0  0  0  0  0  0  0  0  0  0  0  0
  125.5250  131.7790   63.3110 C   0  0  0  0  0  0  0  0  0  0  0  0
  126.7690  132.6830   63.2690 C   0  0  0  0  0  0  0  0  0  0  0  0
  127.5550  132.5460   62.0420 N   0  0  0  0  0  0  0  0  0  0  0  0
  128.9010  132.4760   61.9830 C   0  0  0  0  0  0  0  0  0  0  0  0
  129.6090  132.5040   62.9910 O   0  0  0  0  0  0  0  0  0  0  0  0
  129.4810  132.3550   60.6440 C   0  0  0  0  0  0  0  0  0  0  0  0
  128.7020  133.1350   59.2700 S   0  0  0  0  0  0  0  0  0  0  0  0
  129.9460  132.5640   58.1840 C   0  0  0  0  0  0  0  0  0  0  0  0
  129.9180  132.8460   56.8830 N   0  0  0  0  0  0  0  0  0  0  0  0
  130.9370  132.3500   56.1430 C   0  0  0  0  0  0  0  0  0  0  0  0
  130.8850  132.6870   54.6640 C   0  0  0  0  0  0  0  0  0  0  0  0
  131.9740  131.5860   56.6700 C   0  0  0  0  0  0  0  0  0  0  0  0
  132.0100  131.2820   58.0400 C   0  0  0  0  0  0  0  0  0  0  0  0
  133.1690  130.4340   58.5730 C   0  0  0  0  0  0  0  0  0  0  0  0
  132.7930  129.2080   58.9430 F   0  0  0  0  0  0  0  0  0  0  0  0
  134.1000  130.2980   57.6280 F   0  0  0  0  0  0  0  0  0  0  0  0
  133.7080  131.0240   59.6390 F   0  0  0  0  0  0  0  0  0  0  0  0
  130.9500  131.7920   58.8490 C   0  0  0  0  0  0  0  0  0  0  0  0
  130.6570  131.6950   60.2570 C   0  0  0  0  0  0  0  0  0  0  0  0
  131.4580  131.0130   61.1370 N   0  0  0  0  0  0  0  0  0  0  0  0
  1  2  1  0
  2  3  1  0
  3  4  1  0
  4  5  1  0
  5  6  1  0
  6  7  1  0
  7  8  1  0
  8  9  1  0
  9 10  1  0
 10 11  1  0
 11 12  1  0
 12 13  2  0
 12 14  1  0
 14 15  1  0
 15 16  1  0
 16 17  2  0
 17 18  1  0
 18 19  1  0
 18 20  2  0
 20 21  1  0
 21 22  1  0
 22 23  1  0
 22 24  1  0
 22 25  1  0
 21 26  2  0
 26 27  1  0
 27 28  1  0
 27 14  2  0
 26 16  1  0
M  END
>  <Binding energies>  (54) 
[-4.91]

>  <Ligand effiencies>  (54) 
[-0.15838709677419355]

>  <Interactions>  (54) 
["V-B:ILE:369:CD1:8206, H-A:ALA:541:N:4886, V-A:LEU:363:CB:3182, V-A:TYR:539:CE2:4871, H-A:GLU:543:OE2:4905, V-A:LEU:363:CD1:3184, V-A:TYR:531:CZ:4789, V-A:TYR:539:CD2:4869, V-B:LEU:475:CD2:9226, V-A:LEU:363:CA:3180, V-A:ALA:541:CB:4887, V-A:ASN:362:C:3167, V-A:GLU:543:CD:4903, V-A:TYR:531:CE2:4788, V-A:PRO:540:CB:4880, V-A:PRO:540:CA:4878, V-A:PRO:540:CD:4882, V-A:PRO:540:N:4879, V-A:TYR:531:CD2:4786, V-B:ILE:369:CG2:8204, V-A:ILE:538:CD1:4860, H-A:TYR:539:N:4865, V-A:TYR:539:C:4862, V-A:ILE:538:CA:4855, V-A:ILE:538:CG2:4858, V-B:TRP:381:CH2:8339, V-A:ASP:366:CG:3208, H-A:TYR:539:OH:4873, V-A:ASP:366:CB:3207, V-A:LEU:363:C:3178, H-A:ASP:366:OD2:3210, V-A:LEU:363:CG:3183"]

$$$$
4cd_Grossjean_2025
     RDKit          3D

 29 32  0  0  0  0  0  0  0  0999 V2000
  129.3310  126.5790   63.6540 N   0  0  0  0  0  0  0  0  0  0  0  0
  129.6400  126.0870   64.8970 C   0  0  0  0  0  0  0  0  0  0  0  0
  130.1520  124.7960   65.1080 C   0  0  0  0  0  0  0  0  0  0  0  0
  130.4320  123.7520   64.1190 C   0  0  0  0  0  0  0  0  0  0  0  0
  131.2350  122.8520   64.3660 O   0  0  0  0  0  0  0  0  0  0  0  0
  129.7470  123.8570   62.9540 N   0  0  0  0  0  0  0  0  0  0  0  0
  129.8200  123.0610   61.7960 C   0  0  0  0  0  0  0  0  0  0  0  0
  129.6990  123.7370   60.5790 C   0  0  0  0  0  0  0  0  0  0  0  0
  129.7720  123.0400   59.3770 C   0  0  0  0  0  0  0  0  0  0  0  0
  129.9740  121.6620   59.3900 C   0  0  0  0  0  0  0  0  0  0  0  0
  130.1100  120.9770   60.5940 C   0  0  0  0  0  0  0  0  0  0  0  0
  130.0370  121.6720   61.7990 C   0  0  0  0  0  0  0  0  0  0  0  0
  130.4450  124.5010   66.8210 S   0  0  0  0  0  0  0  0  0  0  0  0
  129.8730  126.0980   67.2410 C   0  0  0  0  0  0  0  0  0  0  0  0
  129.8400  126.5140   68.5050 N   0  0  0  0  0  0  0  0  0  0  0  0
  129.3670  127.7670   68.7340 C   0  0  0  0  0  0  0  0  0  0  0  0
  129.3400  128.2070   70.1690 C   0  0  0  0  0  0  0  0  0  0  0  0
  128.1780  128.0580   70.9440 C   0  0  0  0  0  0  0  0  0  0  0  0
  128.1460  128.4640   72.2750 C   0  0  0  0  0  0  0  0  0  0  0  0
  129.2800  129.0260   72.8530 C   0  0  0  0  0  0  0  0  0  0  0  0
  130.4440  129.1820   72.1090 C   0  0  0  0  0  0  0  0  0  0  0  0
  130.4730  128.7730   70.7790 C   0  0  0  0  0  0  0  0  0  0  0  0
  128.9490  128.6010   67.6930 C   0  0  0  0  0  0  0  0  0  0  0  0
  128.9830  128.1730   66.3560 C   0  0  0  0  0  0  0  0  0  0  0  0
  128.5050  129.1380   65.2640 C   0  0  0  0  0  0  0  0  0  0  0  0
  129.3170  129.1740   64.2040 F   0  0  0  0  0  0  0  0  0  0  0  0
  127.3000  128.7690   64.8310 F   0  0  0  0  0  0  0  0  0  0  0  0
  128.4370  130.3750   65.7550 F   0  0  0  0  0  0  0  0  0  0  0  0
  129.4650  126.8570   66.1050 C   0  0  0  0  0  0  0  0  0  0  0  0
  1  2  1  0
  2  3  2  0
  3  4  1  0
  4  5  2  0
  4  6  1  0
  6  7  1  0
  7  8  2  0
  8  9  1  0
  9 10  2  0
 10 11  1  0
 11 12  2  0
  3 13  1  0
 13 14  1  0
 14 15  2  0
 15 16  1  0
 16 17  1  0
 17 18  2  0
 18 19  1  0
 19 20  2  0
 20 21  1  0
 21 22  2  0
 16 23  2  0
 23 24  1  0
 24 25  1  0
 25 26  1  0
 25 27  1  0
 25 28  1  0
 24 29  2  0
 29  2  1  0
 12  7  1  0
 29 14  1  0
 22 17  1  0
M  END
>  <Binding energies>  (55) 
[-7.14]

>  <Ligand effiencies>  (55) 
[-0.223125]

>  <Interactions>  (55) 
["V-A:GLU:543:CG:4902, H-A:GLU:543:OE2:4905, V-A:GLU:543:CD:4903, V-A:HIS:456:CE1:4064, V-B:HIS:456:CD2:9035, V-A:LYS:547:CE:4945, V-B:GLU:543:CD:9876, V-B:HIS:456:CE1:9037, V-B:GLU:543:CG:9875, V-A:GLY:544:C:4907, V-B:GLU:543:CB:9874, V-A:GLU:543:C:4897, V-A:GLU:543:CB:4901, V-A:GLY:544:CA:4909, H-A:HIS:456:NE2:4065, V-A:TYR:484:CZ:4342, V-A:TYR:484:CE1:4340, V-B:TYR:539:CD2:9842, V-B:TYR:539:CE2:9844, V-B:ALA:541:CB:9860, H-A:TYR:484:OH:4343, H-B:GLU:543:OE2:9878, H-A:GLU:543:OE1:4904, V-B:TYR:484:CZ:9314, V-B:TYR:484:CE1:9312"]

$$$$
4cg_Grossjean_2025
     RDKit          3D

 30 33  0  0  0  0  0  0  0  0999 V2000
  129.3800  126.5060   63.5930 N   0  0  0  0  0  0  0  0  0  0  0  0
  129.6440  126.0140   64.8460 C   0  0  0  0  0  0  0  0  0  0  0  0
  130.0890  124.7050   65.0780 C   0  0  0  0  0  0  0  0  0  0  0  0
  130.3980  123.6600   64.1020 C   0  0  0  0  0  0  0  0  0  0  0  0
  131.2520  122.8000   64.3310 O   0  0  0  0  0  0  0  0  0  0  0  0
  129.7250  123.7220   62.9350 N   0  0  0  0  0  0  0  0  0  0  0  0
  129.8560  122.7750   61.8290 C   0  0  0  0  0  0  0  0  0  0  0  0
  128.8370  122.9970   60.7160 C   0  0  0  0  0  0  0  0  0  0  0  0
  129.1470  122.6190   59.4070 C   0  0  0  0  0  0  0  0  0  0  0  0
  128.2080  122.7910   58.3930 C   0  0  0  0  0  0  0  0  0  0  0  0
  126.9600  123.3310   58.6940 C   0  0  0  0  0  0  0  0  0  0  0  0
  126.6390  123.6940   60.0000 C   0  0  0  0  0  0  0  0  0  0  0  0
  127.5770  123.5210   61.0150 C   0  0  0  0  0  0  0  0  0  0  0  0
  130.3500  124.4100   66.7950 S   0  0  0  0  0  0  0  0  0  0  0  0
  129.8390  126.0340   67.1930 C   0  0  0  0  0  0  0  0  0  0  0  0
  129.8090  126.4630   68.4510 N   0  0  0  0  0  0  0  0  0  0  0  0
  129.4030  127.7420   68.6640 C   0  0  0  0  0  0  0  0  0  0  0  0
  129.3790  128.1960   70.0960 C   0  0  0  0  0  0  0  0  0  0  0  0
  130.5090  128.7880   70.6840 C   0  0  0  0  0  0  0  0  0  0  0  0
  130.4930  129.2090   72.0100 C   0  0  0  0  0  0  0  0  0  0  0  0
  129.3410  129.0420   72.7730 C   0  0  0  0  0  0  0  0  0  0  0  0
  128.2090  128.4570   72.2170 C   0  0  0  0  0  0  0  0  0  0  0  0
  128.2300  128.0370   70.8900 C   0  0  0  0  0  0  0  0  0  0  0  0
  129.0110  128.5770   67.6110 C   0  0  0  0  0  0  0  0  0  0  0  0
  129.0370  128.1340   66.2790 C   0  0  0  0  0  0  0  0  0  0  0  0
  128.5930  129.1000   65.1750 C   0  0  0  0  0  0  0  0  0  0  0  0
  129.3730  129.0510   64.0920 F   0  0  0  0  0  0  0  0  0  0  0  0
  127.3530  128.8020   64.7870 F   0  0  0  0  0  0  0  0  0  0  0  0
  128.6230  130.3500   65.6310 F   0  0  0  0  0  0  0  0  0  0  0  0
  129.4760  126.7980   66.0450 C   0  0  0  0  0  0  0  0  0  0  0  0
  1  2  1  0
  2  3  2  0
  3  4  1  0
  4  5  2  0
  4  6  1  0
  6  7  1  0
  7  8  1  0
  8  9  2  0
  9 10  1  0
 10 11  2  0
 11 12  1  0
 12 13  2  0
  3 14  1  0
 14 15  1  0
 15 16  2  0
 16 17  1  0
 17 18  1  0
 18 19  2  0
 19 20  1  0
 20 21  2  0
 21 22  1  0
 22 23  2  0
 17 24  2  0
 24 25  1  0
 25 26  1  0
 26 27  1  0
 26 28  1  0
 26 29  1  0
 25 30  2  0
 30  2  1  0
 13  8  1  0
 30 15  1  0
 23 18  1  0
M  END
>  <Binding energies>  (56) 
[-7.38]

>  <Ligand effiencies>  (56) 
[-0.22363636363636363]

>  <Interactions>  (56) 
["V-A:GLU:543:CG:4902, H-A:GLU:543:OE2:4905, V-A:GLU:543:CD:4903, V-A:HIS:456:CE1:4064, V-B:HIS:456:CD2:9035, V-A:LYS:547:CE:4945, V-B:GLU:543:CD:9876, V-B:HIS:456:CE1:9037, V-B:GLU:543:CG:9875, V-A:GLY:544:C:4907, V-B:GLU:543:CB:9874, V-A:GLU:543:C:4897, V-A:GLU:543:CB:4901, V-A:GLY:544:CA:4909, H-A:HIS:456:NE2:4065, V-A:TYR:484:CZ:4342, V-A:TYR:484:CE1:4340, V-B:PRO:540:CB:9853, V-B:PRO:540:CA:9851, V-B:ALA:541:CB:9860, V-B:TYR:539:C:9835, V-B:PRO:540:N:9852, H-A:TYR:484:OH:4343, H-B:GLU:543:OE2:9878, H-A:GLU:543:OE1:4904"]

$$$$
4ch_Grossjean_2025
     RDKit          3D

 36 39  0  0  0  0  0  0  0  0999 V2000
  124.6760  123.5210   61.7610 C   0  0  0  0  0  0  0  0  0  0  0  0
  125.1470  123.7270   60.4340 O   0  0  0  0  0  0  0  0  0  0  0  0
  126.4520  123.3960   60.1180 C   0  0  0  0  0  0  0  0  0  0  0  0
  127.4800  123.2690   61.0670 C   0  0  0  0  0  0  0  0  0  0  0  0
  128.7760  122.9290   60.6760 C   0  0  0  0  0  0  0  0  0  0  0  0
  129.8840  122.8230   61.7170 C   0  0  0  0  0  0  0  0  0  0  0  0
  129.7490  123.7550   62.8360 N   0  0  0  0  0  0  0  0  0  0  0  0
  130.4150  123.6780   64.0070 C   0  0  0  0  0  0  0  0  0  0  0  0
  131.2470  122.7980   64.2390 O   0  0  0  0  0  0  0  0  0  0  0  0
  130.1190  124.7260   64.9840 C   0  0  0  0  0  0  0  0  0  0  0  0
  130.3890  124.4350   66.7000 S   0  0  0  0  0  0  0  0  0  0  0  0
  129.8600  126.0510   67.1020 C   0  0  0  0  0  0  0  0  0  0  0  0
  129.8250  126.4780   68.3610 N   0  0  0  0  0  0  0  0  0  0  0  0
  129.4050  127.7510   68.5760 C   0  0  0  0  0  0  0  0  0  0  0  0
  129.3710  128.2000   70.0090 C   0  0  0  0  0  0  0  0  0  0  0  0
  130.4990  128.7870   70.6050 C   0  0  0  0  0  0  0  0  0  0  0  0
  130.4750  129.2040   71.9340 C   0  0  0  0  0  0  0  0  0  0  0  0
  129.3180  129.0380   72.6880 C   0  0  0  0  0  0  0  0  0  0  0  0
  128.1880  128.4560   72.1240 C   0  0  0  0  0  0  0  0  0  0  0  0
  128.2170  128.0390   70.7960 C   0  0  0  0  0  0  0  0  0  0  0  0
  129.0050  128.5840   67.5260 C   0  0  0  0  0  0  0  0  0  0  0  0
  129.0360  128.1440   66.1930 C   0  0  0  0  0  0  0  0  0  0  0  0
  128.5840  129.1080   65.0900 C   0  0  0  0  0  0  0  0  0  0  0  0
  129.3650  129.0690   64.0080 F   0  0  0  0  0  0  0  0  0  0  0  0
  127.3480  128.8020   64.7010 F   0  0  0  0  0  0  0  0  0  0  0  0
  128.6030  130.3590   65.5500 F   0  0  0  0  0  0  0  0  0  0  0  0
  129.4880  126.8140   65.9560 C   0  0  0  0  0  0  0  0  0  0  0  0
  129.6580  126.0320   64.7550 C   0  0  0  0  0  0  0  0  0  0  0  0
  129.3830  126.5210   63.5030 N   0  0  0  0  0  0  0  0  0  0  0  0
  129.0570  122.7290   59.3240 C   0  0  0  0  0  0  0  0  0  0  0  0
  128.0490  122.8510   58.3540 C   0  0  0  0  0  0  0  0  0  0  0  0
  128.2560  122.6660   56.9990 O   0  0  0  0  0  0  0  0  0  0  0  0
  129.1260  123.5480   56.2980 C   0  0  0  0  0  0  0  0  0  0  0  0
  126.7490  123.1780   58.7650 C   0  0  0  0  0  0  0  0  0  0  0  0
  125.7570  123.3160   57.8250 O   0  0  0  0  0  0  0  0  0  0  0  0
  125.2840  124.6470   57.6730 C   0  0  0  0  0  0  0  0  0  0  0  0
  1  2  1  0
  2  3  1  0
  3  4  2  0
  4  5  1  0
  5  6  1  0
  6  7  1  0
  7  8  1  0
  8  9  2  0
  8 10  1  0
 10 11  1  0
 11 12  1  0
 12 13  2  0
 13 14  1  0
 14 15  1  0
 15 16  2  0
 16 17  1  0
 17 18  2  0
 18 19  1  0
 19 20  2  0
 14 21  2  0
 21 22  1  0
 22 23  1  0
 23 24  1  0
 23 25  1  0
 23 26  1  0
 22 27  2  0
 27 28  1  0
 28 29  1  0
  5 30  2  0
 30 31  1  0
 31 32  1  0
 32 33  1  0
 31 34  2  0
 34 35  1  0
 35 36  1  0
 34  3  1  0
 28 10  2  0
 27 12  1  0
 20 15  1  0
M  END
>  <Binding energies>  (57) 
[-7.67]

>  <Ligand effiencies>  (57) 
[-0.19666666666666666]

>  <Interactions>  (57) 
["V-A:GLU:543:CG:4902, H-A:GLU:543:OE2:4905, V-A:GLU:543:CD:4903, V-A:HIS:456:CE1:4064, V-B:HIS:456:CD2:9035, V-A:LYS:547:CE:4945, V-B:GLU:543:CD:9876, V-B:HIS:456:CE1:9037, V-B:GLU:543:CG:9875, V-A:GLY:544:C:4907, V-B:GLU:543:CB:9874, V-A:GLU:543:C:4897, V-A:GLU:543:CB:4901, V-A:GLY:544:CA:4909, H-A:HIS:456:NE2:4065, V-A:TYR:484:CZ:4342, V-A:TYR:484:CE1:4340, V-B:TYR:539:CE2:9844, V-B:TYR:539:CZ:9845, V-B:PRO:540:CB:9853, V-B:PRO:540:CA:9851, V-B:TYR:539:CE1:9843, V-B:MET:535:CE:9803, V-B:PRO:540:C:9849, V-B:TYR:539:C:9835, V-B:ASN:362:CB:8143, V-B:PRO:540:N:9852, H-A:TYR:484:OH:4343, H-B:GLU:543:OE2:9878, H-A:GLU:543:OE1:4904"]

$$$$
4cj_Grossjean_2025
     RDKit          3D

 28 31  0  0  0  0  0  0  0  0999 V2000
  129.3920  126.4970   63.6270 N   0  0  0  0  0  0  0  0  0  0  0  0
  129.6430  126.0020   64.8810 C   0  0  0  0  0  0  0  0  0  0  0  0
  130.1000  124.6950   65.1150 C   0  0  0  0  0  0  0  0  0  0  0  0
  130.3980  123.6430   64.1400 C   0  0  0  0  0  0  0  0  0  0  0  0
  131.2710  122.8020   64.3670 O   0  0  0  0  0  0  0  0  0  0  0  0
  129.6640  123.6800   63.0010 N   0  0  0  0  0  0  0  0  0  0  0  0
  129.7490  122.8050   61.9260 C   0  0  0  0  0  0  0  0  0  0  0  0
  129.3890  123.0220   60.6790 N   0  0  0  0  0  0  0  0  0  0  0  0
  129.6150  121.9680   59.9190 C   0  0  0  0  0  0  0  0  0  0  0  0
  130.1730  120.8610   60.5520 C   0  0  0  0  0  0  0  0  0  0  0  0
  130.4110  121.2320   62.2340 S   0  0  0  0  0  0  0  0  0  0  0  0
  130.3280  124.3990   66.8370 S   0  0  0  0  0  0  0  0  0  0  0  0
  129.8090  126.0210   67.2300 C   0  0  0  0  0  0  0  0  0  0  0  0
  129.7640  126.4500   68.4890 N   0  0  0  0  0  0  0  0  0  0  0  0
  129.3550  127.7280   68.6960 C   0  0  0  0  0  0  0  0  0  0  0  0
  129.3280  128.1840   70.1270 C   0  0  0  0  0  0  0  0  0  0  0  0
  128.1740  128.0240   70.9100 C   0  0  0  0  0  0  0  0  0  0  0  0
  128.1400  128.4490   72.2360 C   0  0  0  0  0  0  0  0  0  0  0  0
  129.2640  129.0470   72.7980 C   0  0  0  0  0  0  0  0  0  0  0  0
  130.4190  129.2200   72.0440 C   0  0  0  0  0  0  0  0  0  0  0  0
  130.4490  128.7910   70.7190 C   0  0  0  0  0  0  0  0  0  0  0  0
  128.9710  128.5610   67.6410 C   0  0  0  0  0  0  0  0  0  0  0  0
  129.0130  128.1190   66.3090 C   0  0  0  0  0  0  0  0  0  0  0  0
  128.5810  129.0850   65.2000 C   0  0  0  0  0  0  0  0  0  0  0  0
  129.3730  129.0400   64.1270 F   0  0  0  0  0  0  0  0  0  0  0  0
  127.3460  128.7850   64.7980 F   0  0  0  0  0  0  0  0  0  0  0  0
  128.6020  130.3370   65.6590 F   0  0  0  0  0  0  0  0  0  0  0  0
  129.4580  126.7860   66.0780 C   0  0  0  0  0  0  0  0  0  0  0  0
  1  2  1  0
  2  3  2  0
  3  4  1  0
  4  5  2  0
  4  6  1  0
  6  7  1  0
  7  8  2  0
  8  9  1  0
  9 10  2  0
 10 11  1  0
  3 12  1  0
 12 13  1  0
 13 14  2  0
 14 15  1  0
 15 16  1  0
 16 17  2  0
 17 18  1  0
 18 19  2  0
 19 20  1  0
 20 21  2  0
 15 22  2  0
 22 23  1  0
 23 24  1  0
 24 25  1  0
 24 26  1  0
 24 27  1  0
 23 28  2  0
 28  2  1  0
 11  7  1  0
 28 13  1  0
 21 16  1  0
M  END
>  <Binding energies>  (58) 
[-6.9]

>  <Ligand effiencies>  (58) 
[-0.22258064516129034]

>  <Interactions>  (58) 
["V-A:GLU:543:CG:4902, H-A:GLU:543:OE2:4905, V-A:GLU:543:CD:4903, V-A:HIS:456:CE1:4064, V-B:HIS:456:CD2:9035, V-A:LYS:547:CE:4945, V-B:GLU:543:CD:9876, V-B:HIS:456:CE1:9037, V-B:GLU:543:CG:9875, V-A:GLY:544:C:4907, V-B:GLU:543:CB:9874, V-A:GLU:543:C:4897, V-A:GLU:543:CB:4901, V-A:GLY:544:CA:4909, H-A:HIS:456:NE2:4065, V-A:TYR:484:CZ:4342, V-A:TYR:484:CE1:4340, V-B:TYR:539:CD2:9842, V-A:LEU:475:CD2:4254, V-B:ALA:541:CB:9860, H-A:TYR:484:OH:4343, H-B:GLU:543:OE2:9878, H-A:GLU:543:OE1:4904"]

$$$$
4ck_Grossjean_2025
     RDKit          3D

 33 35  0  0  0  0  0  0  0  0999 V2000
  127.8630  122.0470   56.4060 C   0  0  0  0  0  0  0  0  0  0  0  0
  126.4510  122.0770   56.5380 O   0  0  0  0  0  0  0  0  0  0  0  0
  125.9370  123.3720   56.8180 C   0  0  0  0  0  0  0  0  0  0  0  0
  125.0180  123.2920   58.0430 C   0  0  0  0  0  0  0  0  0  0  0  0
  125.3540  124.3370   58.9450 O   0  0  0  0  0  0  0  0  0  0  0  0
  125.4590  123.9080   60.2960 C   0  0  0  0  0  0  0  0  0  0  0  0
  126.8990  124.1220   60.7800 C   0  0  0  0  0  0  0  0  0  0  0  0
  127.3410  122.9400   61.4350 O   0  0  0  0  0  0  0  0  0  0  0  0
  128.5140  122.3720   60.8660 C   0  0  0  0  0  0  0  0  0  0  0  0
  129.5790  122.1880   61.9570 C   0  0  0  0  0  0  0  0  0  0  0  0
  129.4910  123.2190   62.9910 N   0  0  0  0  0  0  0  0  0  0  0  0
  130.4450  123.5100   63.9000 C   0  0  0  0  0  0  0  0  0  0  0  0
  131.5340  122.9340   63.9300 O   0  0  0  0  0  0  0  0  0  0  0  0
  130.1170  124.5710   64.8530 C   0  0  0  0  0  0  0  0  0  0  0  0
  130.3630  124.3140   66.5790 S   0  0  0  0  0  0  0  0  0  0  0  0
  129.8310  125.9390   66.9400 C   0  0  0  0  0  0  0  0  0  0  0  0
  129.7870  126.3950   68.1890 N   0  0  0  0  0  0  0  0  0  0  0  0
  129.3580  127.6710   68.3720 C   0  0  0  0  0  0  0  0  0  0  0  0
  129.3380  128.1610   69.7910 C   0  0  0  0  0  0  0  0  0  0  0  0
  130.4610  128.7910   70.3510 C   0  0  0  0  0  0  0  0  0  0  0  0
  130.4500  129.2460   71.6680 C   0  0  0  0  0  0  0  0  0  0  0  0
  129.3100  129.0760   72.4460 C   0  0  0  0  0  0  0  0  0  0  0  0
  128.1820  128.4590   71.9150 C   0  0  0  0  0  0  0  0  0  0  0  0
  128.1970  128.0080   70.5980 C   0  0  0  0  0  0  0  0  0  0  0  0
  128.9850  128.4860   67.2980 C   0  0  0  0  0  0  0  0  0  0  0  0
  129.0260  128.0150   65.9760 C   0  0  0  0  0  0  0  0  0  0  0  0
  128.5980  128.9610   64.8470 C   0  0  0  0  0  0  0  0  0  0  0  0
  129.3940  128.8950   63.7790 F   0  0  0  0  0  0  0  0  0  0  0  0
  127.3650  128.6550   64.4460 F   0  0  0  0  0  0  0  0  0  0  0  0
  128.6200  130.2210   65.2830 F   0  0  0  0  0  0  0  0  0  0  0  0
  129.4720  126.6780   65.7740 C   0  0  0  0  0  0  0  0  0  0  0  0
  129.6540  125.8690   64.5920 C   0  0  0  0  0  0  0  0  0  0  0  0
  129.3910  126.3320   63.3280 N   0  0  0  0  0  0  0  0  0  0  0  0
  1  2  1  0
  2  3  1  0
  3  4  1  0
  4  5  1  0
  5  6  1  0
  6  7  1  0
  7  8  1  0
  8  9  1  0
  9 10  1  0
 10 11  1  0
 11 12  1  0
 12 13  2  0
 12 14  1  0
 14 15  1  0
 15 16  1  0
 16 17  2  0
 17 18  1  0
 18 19  1  0
 19 20  2  0
 20 21  1  0
 21 22  2  0
 22 23  1  0
 23 24  2  0
 18 25  2  0
 25 26  1  0
 26 27  1  0
 27 28  1  0
 27 29  1  0
 27 30  1  0
 26 31  2  0
 31 32  1  0
 32 33  1  0
 32 14  2  0
 31 16  1  0
 24 19  1  0
M  END
>  <Binding energies>  (59) 
[-6.68]

>  <Ligand effiencies>  (59) 
[-0.18555555555555556]

>  <Interactions>  (59) 
["V-A:GLU:543:CG:4902, V-A:GLU:543:CD:4903, V-A:HIS:456:CE1:4064, V-B:HIS:456:CD2:9035, V-B:GLU:543:CD:9876, V-B:HIS:456:CE1:9037, V-B:GLU:543:CG:9875, V-A:GLY:544:C:4907, V-B:GLU:543:CB:9874, V-A:GLU:543:C:4897, V-A:GLU:543:CB:4901, V-A:GLY:544:CA:4909, H-A:HIS:456:NE2:4065, V-A:TYR:484:CZ:4342, V-A:TYR:484:CE1:4340, V-B:TYR:539:CD2:9842, V-B:TYR:539:CE2:9844, V-B:TYR:539:CZ:9845, V-B:PRO:540:CB:9853, V-B:PRO:540:CA:9851, V-B:TYR:539:CE1:9843, V-B:MET:535:CE:9803, V-B:TYR:539:CD1:9841, V-B:PRO:540:C:9849, V-B:ALA:541:CB:9860, V-B:TYR:539:C:9835, V-B:PRO:540:N:9852, V-B:TYR:539:CG:9840, H-B:ALA:541:N:9859, H-A:TYR:484:OH:4343, V-B:PRO:540:CD:9855, V-B:TYR:539:CA:9837, H-B:TYR:539:N:9838, H-B:GLU:543:OE2:9878"]

$$$$
4dd_Grossjean_2025
     RDKit          3D

 26 29  0  0  0  0  0  0  0  0999 V2000
  128.7070  129.1340   65.4330 C   0  0  0  0  0  0  0  0  0  0  0  0
  129.0810  128.1630   66.5430 C   0  0  0  0  0  0  0  0  0  0  0  0
  129.0360  128.6230   67.8650 C   0  0  0  0  0  0  0  0  0  0  0  0
  129.3680  127.7780   68.9310 C   0  0  0  0  0  0  0  0  0  0  0  0
  129.3350  128.2450   70.3570 C   0  0  0  0  0  0  0  0  0  0  0  0
  128.1670  128.1220   71.1270 C   0  0  0  0  0  0  0  0  0  0  0  0
  128.1300  128.5500   72.4510 C   0  0  0  0  0  0  0  0  0  0  0  0
  129.2650  129.1110   73.0260 C   0  0  0  0  0  0  0  0  0  0  0  0
  130.4350  129.2430   72.2880 C   0  0  0  0  0  0  0  0  0  0  0  0
  130.4690  128.8120   70.9640 C   0  0  0  0  0  0  0  0  0  0  0  0
  129.7570  126.4890   68.7330 N   0  0  0  0  0  0  0  0  0  0  0  0
  129.7930  126.0490   67.4760 C   0  0  0  0  0  0  0  0  0  0  0  0
  130.2570  124.4090   67.0800 S   0  0  0  0  0  0  0  0  0  0  0  0
  130.0280  124.7110   65.3560 C   0  0  0  0  0  0  0  0  0  0  0  0
  130.2560  123.6440   64.3800 C   0  0  0  0  0  0  0  0  0  0  0  0
  130.8600  122.6180   64.7000 O   0  0  0  0  0  0  0  0  0  0  0  0
  129.7540  123.8720   63.1420 N   0  0  0  0  0  0  0  0  0  0  0  0
  129.8450  123.0860   61.9790 C   0  0  0  0  0  0  0  0  0  0  0  0
  128.7440  123.1390   61.1190 C   0  0  0  0  0  0  0  0  0  0  0  0
  128.7430  122.4080   59.9340 C   0  0  0  0  0  0  0  0  0  0  0  0
  129.8470  121.6270   59.6040 C   0  0  0  0  0  0  0  0  0  0  0  0
  130.9560  121.5750   60.4450 C   0  0  0  0  0  0  0  0  0  0  0  0
  130.9600  122.3050   61.6310 C   0  0  0  0  0  0  0  0  0  0  0  0
  129.6160  126.0330   65.1250 C   0  0  0  0  0  0  0  0  0  0  0  0
  129.3670  126.5480   63.8770 N   0  0  0  0  0  0  0  0  0  0  0  0
  129.4720  126.8180   66.3220 C   0  0  0  0  0  0  0  0  0  0  0  0
  1  2  1  0
  2  3  2  0
  3  4  1  0
  4  5  1  0
  5  6  2  0
  6  7  1  0
  7  8  2  0
  8  9  1  0
  9 10  2  0
  4 11  2  0
 11 12  1  0
 12 13  1  0
 13 14  1  0
 14 15  1  0
 15 16  2  0
 15 17  1  0
 17 18  1  0
 18 19  2  0
 19 20  1  0
 20 21  2  0
 21 22  1  0
 22 23  2  0
 14 24  2  0
 24 25  1  0
 24 26  1  0
 26  2  1  0
 10  5  1  0
 26 12  2  0
 23 18  1  0
M  END
>  <Binding energies>  (60) 
[-7.51]

>  <Ligand effiencies>  (60) 
[-0.2589655172413793]

>  <Interactions>  (60) 
["V-A:GLU:543:CG:4902, H-A:GLU:543:OE2:4905, V-A:GLU:543:CD:4903, V-A:HIS:456:CE1:4064, V-B:HIS:456:CD2:9035, V-A:LYS:547:CE:4945, V-B:GLU:543:CD:9876, V-B:HIS:456:CE1:9037, V-B:GLU:543:CG:9875, V-A:GLY:544:C:4907, V-B:GLU:543:CB:9874, V-A:GLU:543:C:4897, V-A:GLU:543:CB:4901, H-A:HIS:456:NE2:4065, V-A:TYR:484:CZ:4342, V-A:TYR:484:CE1:4340, V-B:TYR:539:CD2:9842, V-B:TYR:539:CE2:9844, V-B:PRO:540:CA:9851, V-B:TYR:539:C:9835, H-A:TYR:484:OH:4343, H-B:GLU:543:OE2:9878, H-A:GLU:543:OE1:4904"]

$$$$
4dg_Grossjean_2025
     RDKit          3D

 27 30  0  0  0  0  0  0  0  0999 V2000
  133.7040  122.7810   58.8260 C   0  0  0  0  0  0  0  0  0  0  0  0
  132.7860  123.8120   59.4650 C   0  0  0  0  0  0  0  0  0  0  0  0
  132.8380  123.9700   60.8550 C   0  0  0  0  0  0  0  0  0  0  0  0
  132.0200  124.9030   61.5050 C   0  0  0  0  0  0  0  0  0  0  0  0
  132.0540  125.0960   62.9950 C   0  0  0  0  0  0  0  0  0  0  0  0
  133.2750  125.1480   63.6870 C   0  0  0  0  0  0  0  0  0  0  0  0
  133.3130  125.3230   65.0680 C   0  0  0  0  0  0  0  0  0  0  0  0
  132.1250  125.4500   65.7800 C   0  0  0  0  0  0  0  0  0  0  0  0
  130.9010  125.3980   65.1210 C   0  0  0  0  0  0  0  0  0  0  0  0
  130.8680  125.2220   63.7410 C   0  0  0  0  0  0  0  0  0  0  0  0
  131.1580  125.7020   60.8190 N   0  0  0  0  0  0  0  0  0  0  0  0
  131.1070  125.5520   59.4960 C   0  0  0  0  0  0  0  0  0  0  0  0
  130.0400  126.5100   58.4960 S   0  0  0  0  0  0  0  0  0  0  0  0
  130.6090  125.7010   57.0370 C   0  0  0  0  0  0  0  0  0  0  0  0
  130.0330  126.0400   55.7370 C   0  0  0  0  0  0  0  0  0  0  0  0
  129.5360  125.1770   55.0100 O   0  0  0  0  0  0  0  0  0  0  0  0
  130.1170  127.3370   55.3750 N   0  0  0  0  0  0  0  0  0  0  0  0
  129.5910  127.9060   54.1350 C   0  0  0  0  0  0  0  0  0  0  0  0
  129.8180  129.4090   54.0140 C   0  0  0  0  0  0  0  0  0  0  0  0
  128.7940  130.2960   54.3600 C   0  0  0  0  0  0  0  0  0  0  0  0
  129.0070  131.6690   54.2810 C   0  0  0  0  0  0  0  0  0  0  0  0
  130.2470  132.1520   53.8680 C   0  0  0  0  0  0  0  0  0  0  0  0
  131.2780  131.2740   53.5380 C   0  0  0  0  0  0  0  0  0  0  0  0
  131.0650  129.9010   53.6180 C   0  0  0  0  0  0  0  0  0  0  0  0
  131.5710  124.7250   57.3370 C   0  0  0  0  0  0  0  0  0  0  0  0
  132.1740  123.9320   56.3940 N   0  0  0  0  0  0  0  0  0  0  0  0
  131.8820  124.6290   58.7380 C   0  0  0  0  0  0  0  0  0  0  0  0
  1  2  1  0
  2  3  2  0
  3  4  1  0
  4  5  1  0
  5  6  2  0
  6  7  1  0
  7  8  2  0
  8  9  1  0
  9 10  2  0
  4 11  2  0
 11 12  1  0
 12 13  1  0
 13 14  1  0
 14 15  1  0
 15 16  2  0
 15 17  1  0
 17 18  1  0
 18 19  1  0
 19 20  2  0
 20 21  1  0
 21 22  2  0
 22 23  1  0
 23 24  2  0
 14 25  2  0
 25 26  1  0
 25 27  1  0
 27  2  1  0
 10  5  1  0
 27 12  2  0
 24 19  1  0
M  END
>  <Binding energies>  (61) 
[-7.75]

>  <Ligand effiencies>  (61) 
[-0.25833333333333336]

>  <Interactions>  (61) 
["V-A:TYR:531:CZ:4789, V-A:ILE:538:CD1:4860, V-A:ILE:538:CA:4855, V-A:TYR:531:CE1:4787, V-A:MET:535:CB:4827, V-A:MET:535:CG:4828, V-A:TYR:539:CE1:4870, V-B:TYR:539:CE2:9844, V-B:TYR:539:CZ:9845, V-A:ILE:369:CD1:3234, V-A:ASP:366:CG:3208, H-A:LYS:534:NZ:4818, H-A:TYR:531:OH:4790, H-B:TYR:539:OH:9846, V-A:ASP:366:CB:3207, V-A:ARG:545:CZ:4921, V-A:ILE:369:CG2:3232, V-A:ILE:369:CB:3231, V-A:ILE:369:CG1:3233, H-A:ASP:366:O:3204"]

$$$$
4dj_Grossjean_2025
     RDKit          3D

 25 28  0  0  0  0  0  0  0  0999 V2000
  128.6420  129.0610   65.2210 C   0  0  0  0  0  0  0  0  0  0  0  0
  129.0510  128.0960   66.3240 C   0  0  0  0  0  0  0  0  0  0  0  0
  128.9960  128.5470   67.6480 C   0  0  0  0  0  0  0  0  0  0  0  0
  129.3610  127.7090   68.7090 C   0  0  0  0  0  0  0  0  0  0  0  0
  129.3070  128.1630   70.1400 C   0  0  0  0  0  0  0  0  0  0  0  0
  130.4250  128.7550   70.7500 C   0  0  0  0  0  0  0  0  0  0  0  0
  130.3820  129.1780   72.0760 C   0  0  0  0  0  0  0  0  0  0  0  0
  129.2160  129.0100   72.8160 C   0  0  0  0  0  0  0  0  0  0  0  0
  128.0950  128.4240   72.2380 C   0  0  0  0  0  0  0  0  0  0  0  0
  128.1420  128.0040   70.9120 C   0  0  0  0  0  0  0  0  0  0  0  0
  129.7650  126.4260   68.5040 N   0  0  0  0  0  0  0  0  0  0  0  0
  129.8180  125.9960   67.2450 C   0  0  0  0  0  0  0  0  0  0  0  0
  130.3280  124.3720   66.8390 S   0  0  0  0  0  0  0  0  0  0  0  0
  130.1000  124.6810   65.1160 C   0  0  0  0  0  0  0  0  0  0  0  0
  130.3860  123.6350   64.1330 C   0  0  0  0  0  0  0  0  0  0  0  0
  131.2470  122.7800   64.3550 O   0  0  0  0  0  0  0  0  0  0  0  0
  129.6560  123.6910   62.9920 N   0  0  0  0  0  0  0  0  0  0  0  0
  129.7330  122.8280   61.9080 C   0  0  0  0  0  0  0  0  0  0  0  0
  129.3490  123.0500   60.6690 N   0  0  0  0  0  0  0  0  0  0  0  0
  129.5730  122.0040   59.8980 C   0  0  0  0  0  0  0  0  0  0  0  0
  130.1530  120.8990   60.5120 C   0  0  0  0  0  0  0  0  0  0  0  0
  130.4150  121.2590   62.1920 S   0  0  0  0  0  0  0  0  0  0  0  0
  129.6530  125.9920   64.8930 C   0  0  0  0  0  0  0  0  0  0  0  0
  129.3950  126.5090   63.6470 N   0  0  0  0  0  0  0  0  0  0  0  0
  129.4810  126.7640   66.0940 C   0  0  0  0  0  0  0  0  0  0  0  0
  1  2  1  0
  2  3  2  0
  3  4  1  0
  4  5  1  0
  5  6  2  0
  6  7  1  0
  7  8  2  0
  8  9  1  0
  9 10  2  0
  4 11  2  0
 11 12  1  0
 12 13  1  0
 13 14  1  0
 14 15  1  0
 15 16  2  0
 15 17  1  0
 17 18  1  0
 18 19  2  0
 19 20  1  0
 20 21  2  0
 21 22  1  0
 14 23  2  0
 23 24  1  0
 23 25  1  0
 25  2  1  0
 10  5  1  0
 25 12  2  0
 22 18  1  0
M  END
>  <Binding energies>  (62) 
[-7.23]

>  <Ligand effiencies>  (62) 
[-0.25821428571428573]

>  <Interactions>  (62) 
["V-A:GLU:543:CG:4902, H-A:GLU:543:OE2:4905, V-A:GLU:543:CD:4903, V-A:HIS:456:CE1:4064, V-B:HIS:456:CD2:9035, V-A:LYS:547:CE:4945, V-B:GLU:543:CD:9876, V-B:HIS:456:CE1:9037, V-B:GLU:543:CG:9875, V-A:GLY:544:C:4907, V-B:GLU:543:CB:9874, V-A:GLU:543:C:4897, V-A:GLU:543:CB:4901, H-A:HIS:456:NE2:4065, V-A:TYR:484:CZ:4342, V-A:TYR:484:CE1:4340, V-B:TYR:539:CD2:9842, V-A:LEU:475:CD2:4254, V-B:ALA:541:CB:9860, H-A:TYR:484:OH:4343, H-B:GLU:543:OE2:9878, H-A:GLU:543:OE1:4904"]

$$$$
4ea_Grossjean_2025
     RDKit          3D

 31 34  0  0  0  0  0  0  0  0999 V2000
  128.7820  132.0330   54.0380 C   0  0  0  0  0  0  0  0  0  0  0  0
  130.2170  132.5520   53.9070 C   0  0  0  0  0  0  0  0  0  0  0  0
  130.5260  133.3730   55.0260 O   0  0  0  0  0  0  0  0  0  0  0  0
  131.3200  132.9210   56.0300 C   0  0  0  0  0  0  0  0  0  0  0  0
  132.5470  132.8210   55.9330 O   0  0  0  0  0  0  0  0  0  0  0  0
  130.5580  132.5550   57.2700 C   0  0  0  0  0  0  0  0  0  0  0  0
  129.2510  133.0320   57.4340 C   0  0  0  0  0  0  0  0  0  0  0  0
  128.5170  132.7100   58.5730 C   0  0  0  0  0  0  0  0  0  0  0  0
  129.0730  131.9080   59.5700 C   0  0  0  0  0  0  0  0  0  0  0  0
  128.2390  131.6490   60.6750 N   0  0  0  0  0  0  0  0  0  0  0  0
  127.6120  132.5020   61.5210 C   0  0  0  0  0  0  0  0  0  0  0  0
  127.6810  133.7290   61.4450 O   0  0  0  0  0  0  0  0  0  0  0  0
  126.8140  131.8650   62.5730 C   0  0  0  0  0  0  0  0  0  0  0  0
  125.0940  132.2300   62.7340 S   0  0  0  0  0  0  0  0  0  0  0  0
  124.9440  131.1470   64.0990 C   0  0  0  0  0  0  0  0  0  0  0  0
  123.7820  130.9640   64.7290 N   0  0  0  0  0  0  0  0  0  0  0  0
  123.7990  130.0980   65.7720 C   0  0  0  0  0  0  0  0  0  0  0  0
  122.4680  129.9050   66.4730 C   0  0  0  0  0  0  0  0  0  0  0  0
  124.9390  129.4180   66.1950 C   0  0  0  0  0  0  0  0  0  0  0  0
  126.1550  129.6130   65.5320 C   0  0  0  0  0  0  0  0  0  0  0  0
  127.3570  128.8840   65.9940 C   0  0  0  0  0  0  0  0  0  0  0  0
  127.6670  127.6290   65.4590 C   0  0  0  0  0  0  0  0  0  0  0  0
  128.7990  126.9430   65.8920 C   0  0  0  0  0  0  0  0  0  0  0  0
  129.6200  127.5110   66.8630 C   0  0  0  0  0  0  0  0  0  0  0  0
  129.3180  128.7580   67.4060 C   0  0  0  0  0  0  0  0  0  0  0  0
  128.1860  129.4420   66.9730 C   0  0  0  0  0  0  0  0  0  0  0  0
  126.1790  130.5140   64.4320 C   0  0  0  0  0  0  0  0  0  0  0  0
  127.2300  130.9420   63.5450 C   0  0  0  0  0  0  0  0  0  0  0  0
  128.5150  130.4780   63.6560 N   0  0  0  0  0  0  0  0  0  0  0  0
  130.3820  131.4250   59.4140 C   0  0  0  0  0  0  0  0  0  0  0  0
  131.1140  131.7480   58.2750 C   0  0  0  0  0  0  0  0  0  0  0  0
  1  2  1  0
  2  3  1  0
  3  4  1  0
  4  5  2  0
  4  6  1  0
  6  7  2  0
  7  8  1  0
  8  9  2  0
  9 10  1  0
 10 11  1  0
 11 12  2  0
 11 13  1  0
 13 14  1  0
 14 15  1  0
 15 16  2  0
 16 17  1  0
 17 18  1  0
 17 19  2  0
 19 20  1  0
 20 21  1  0
 21 22  2  0
 22 23  1  0
 23 24  2  0
 24 25  1  0
 25 26  2  0
 20 27  2  0
 27 28  1  0
 28 29  1  0
  9 30  1  0
 30 31  2  0
 31  6  1  0
 28 13  2  0
 27 15  1  0
 26 21  1  0
M  END
>  <Binding energies>  (63) 
[-8.39]

>  <Ligand effiencies>  (63) 
[-0.24676470588235297]

>  <Interactions>  (63) 
["V-A:GLU:543:CG:4902, V-A:TYR:539:CE2:4871, H-A:GLU:543:OE2:4905, V-A:TYR:539:CD2:4869, V-B:LEU:475:CD2:9226, V-A:GLU:543:CD:4903, V-A:PRO:540:CB:4880, V-A:PRO:540:CA:4878, V-A:PRO:540:CD:4882, V-A:PRO:540:N:4879, V-A:ILE:538:CD1:4860, V-A:TYR:539:CG:4867, H-A:TYR:539:N:4865, V-B:ARG:545:CZ:9894, V-A:TYR:539:CD1:4868, V-A:TYR:539:C:4862, V-A:ILE:538:CA:4855, H-B:TYR:484:OH:9315, V-B:GLU:543:CD:9876, V-B:HIS:456:CE1:9037, V-B:ARG:545:CD:9891, V-B:GLU:543:CG:9875, V-B:ARG:545:CG:9890, V-B:GLU:543:CB:9874, V-A:GLU:543:CB:4901, V-A:MET:535:CB:4827, V-A:MET:535:CG:4828, V-A:TYR:539:CZ:4872, V-A:ILE:538:CG2:4858, V-A:TYR:539:CE1:4870, V-A:TYR:539:CA:4864, H-B:GLY:454:N:9017, V-B:GLY:453:CA:9011, V-B:GLY:453:C:9009, V-A:VAL:537:C:4845"]

$$$$
4eb_Grossjean_2025
     RDKit          3D

 30 33  0  0  0  0  0  0  0  0999 V2000
  123.7820  124.6930   57.3060 C   0  0  0  0  0  0  0  0  0  0  0  0
  124.8060  124.2120   56.4480 O   0  0  0  0  0  0  0  0  0  0  0  0
  125.5600  123.1360   56.7950 C   0  0  0  0  0  0  0  0  0  0  0  0
  125.4590  122.0320   56.2530 O   0  0  0  0  0  0  0  0  0  0  0  0
  126.5290  123.4250   57.9060 C   0  0  0  0  0  0  0  0  0  0  0  0
  127.8930  123.1750   57.7040 C   0  0  0  0  0  0  0  0  0  0  0  0
  128.8160  123.4320   58.7130 C   0  0  0  0  0  0  0  0  0  0  0  0
  128.3980  123.9440   59.9430 C   0  0  0  0  0  0  0  0  0  0  0  0
  129.4190  124.1650   60.8880 N   0  0  0  0  0  0  0  0  0  0  0  0
  130.7580  124.2880   60.7210 C   0  0  0  0  0  0  0  0  0  0  0  0
  131.3310  124.2210   59.6320 O   0  0  0  0  0  0  0  0  0  0  0  0
  131.5230  124.5150   61.9500 C   0  0  0  0  0  0  0  0  0  0  0  0
  133.2680  124.2510   61.9760 S   0  0  0  0  0  0  0  0  0  0  0  0
  133.3610  124.7110   63.6610 C   0  0  0  0  0  0  0  0  0  0  0  0
  134.5170  124.7190   64.3270 N   0  0  0  0  0  0  0  0  0  0  0  0
  134.4530  125.0950   65.6270 C   0  0  0  0  0  0  0  0  0  0  0  0
  135.7790  125.0960   66.3650 C   0  0  0  0  0  0  0  0  0  0  0  0
  133.2730  125.4600   66.2710 C   0  0  0  0  0  0  0  0  0  0  0  0
  132.0620  125.4500   65.5680 C   0  0  0  0  0  0  0  0  0  0  0  0
  130.8160  125.8410   66.2670 C   0  0  0  0  0  0  0  0  0  0  0  0
  130.3900  125.1300   67.3920 C   0  0  0  0  0  0  0  0  0  0  0  0
  129.2180  125.4970   68.0510 C   0  0  0  0  0  0  0  0  0  0  0  0
  128.4730  126.5760   67.5810 C   0  0  0  0  0  0  0  0  0  0  0  0
  128.8880  127.2890   66.4580 C   0  0  0  0  0  0  0  0  0  0  0  0
  130.0590  126.9200   65.8010 C   0  0  0  0  0  0  0  0  0  0  0  0
  132.0870  125.0610   64.2010 C   0  0  0  0  0  0  0  0  0  0  0  0
  131.0570  124.9410   63.2030 C   0  0  0  0  0  0  0  0  0  0  0  0
  129.7410  125.2210   63.4720 N   0  0  0  0  0  0  0  0  0  0  0  0
  127.0340  124.1970   60.1530 C   0  0  0  0  0  0  0  0  0  0  0  0
  126.1120  123.9390   59.1430 C   0  0  0  0  0  0  0  0  0  0  0  0
  1  2  1  0
  2  3  1  0
  3  4  2  0
  3  5  1  0
  5  6  2  0
  6  7  1  0
  7  8  2  0
  8  9  1  0
  9 10  1  0
 10 11  2  0
 10 12  1  0
 12 13  1  0
 13 14  1  0
 14 15  2  0
 15 16  1  0
 16 17  1  0
 16 18  2  0
 18 19  1  0
 19 20  1  0
 20 21  2  0
 21 22  1  0
 22 23  2  0
 23 24  1  0
 24 25  2  0
 19 26  2  0
 26 27  1  0
 27 28  1  0
  8 29  1  0
 29 30  2  0
 30  5  1  0
 27 12  2  0
 26 14  1  0
 25 20  1  0
M  END
>  <Binding energies>  (64) 
[-8.68]

>  <Ligand effiencies>  (64) 
[-0.263030303030303]

>  <Interactions>  (64) 
["V-A:GLU:543:CD:4903, V-B:GLU:543:C:9870, V-A:HIS:456:CE1:4064, V-B:GLU:543:CA:9872, V-B:GLU:543:CD:9876, V-B:GLU:543:CG:9875, V-B:GLU:543:CB:9874, V-B:PRO:540:CB:9853, V-B:PRO:540:CA:9851, V-B:MET:535:CE:9803, V-B:TYR:539:C:9835, V-B:PRO:540:N:9852, V-B:TYR:531:CZ:9762, V-A:ASP:366:CG:3208, H-A:TYR:484:OH:4343, V-B:ASP:366:CB:8179, V-B:ASP:366:CG:8180, H-B:TYR:531:OH:9763, V-A:GLY:454:CA:4044, V-B:LEU:363:CD1:8156, H-B:TYR:539:N:9838, H-B:GLU:543:OE2:9878, V-A:ARG:545:CZ:4921, V-B:LEU:363:CA:8152, V-A:HIS:456:CD2:4063, V-A:ARG:545:CG:4917, V-A:GLY:453:C:4037, H-A:GLY:454:N:4045, V-A:GLY:453:CA:4039, V-A:ARG:545:CD:4918, V-B:TYR:531:CE2:9761, H-A:ARG:545:NH1:4922, V-A:ILE:455:C:4047, V-A:VAL:452:C:4029"]

$$$$
8b_Ghoteimi_2023
     RDKit          3D

 34 38  0  0  0  0  0  0  0  0999 V2000
  127.9220  130.3660   74.6500 C   0  0  0  0  0  0  0  0  0  0  0  0
  128.9000  129.3960   74.2900 O   0  0  0  0  0  0  0  0  0  0  0  0
  129.0220  129.0220   72.9660 C   0  0  0  0  0  0  0  0  0  0  0  0
  127.8970  128.4540   72.3720 C   0  0  0  0  0  0  0  0  0  0  0  0
  127.9280  128.0460   71.0420 C   0  0  0  0  0  0  0  0  0  0  0  0
  129.0880  128.1960   70.2690 C   0  0  0  0  0  0  0  0  0  0  0  0
  129.1280  127.7570   68.8400 C   0  0  0  0  0  0  0  0  0  0  0  0
  128.5730  128.5320   67.8160 C   0  0  0  0  0  0  0  0  0  0  0  0
  128.6240  128.1000   66.4870 C   0  0  0  0  0  0  0  0  0  0  0  0
  128.0180  128.9400   65.4280 C   0  0  0  0  0  0  0  0  0  0  0  0
  128.6180  130.1440   65.0570 C   0  0  0  0  0  0  0  0  0  0  0  0
  128.0520  130.9270   64.0540 C   0  0  0  0  0  0  0  0  0  0  0  0
  126.8820  130.5210   63.4110 C   0  0  0  0  0  0  0  0  0  0  0  0
  126.3940  131.3610   62.4280 O   0  0  0  0  0  0  0  0  0  0  0  0
  126.0550  132.7020   62.7650 C   0  0  0  0  0  0  0  0  0  0  0  0
  126.2790  129.3120   63.7900 C   0  0  0  0  0  0  0  0  0  0  0  0
  126.8450  128.5290   64.7920 C   0  0  0  0  0  0  0  0  0  0  0  0
  129.2600  126.8600   66.2110 C   0  0  0  0  0  0  0  0  0  0  0  0
  129.4930  126.1320   64.9910 C   0  0  0  0  0  0  0  0  0  0  0  0
  129.0790  126.5970   63.7690 N   0  0  0  0  0  0  0  0  0  0  0  0
  130.1760  124.9200   65.1740 C   0  0  0  0  0  0  0  0  0  0  0  0
  130.5790  123.9400   64.1630 C   0  0  0  0  0  0  0  0  0  0  0  0
  131.7660  123.6350   64.0200 O   0  0  0  0  0  0  0  0  0  0  0  0
  129.5690  123.4180   63.4230 N   0  0  0  0  0  0  0  0  0  0  0  0
  129.6640  122.4750   62.4090 C   0  0  0  0  0  0  0  0  0  0  0  0
  130.7470  121.6070   62.2750 C   0  0  0  0  0  0  0  0  0  0  0  0
  130.4630  120.8490   61.1620 C   0  0  0  0  0  0  0  0  0  0  0  0
  129.2690  121.2370   60.6540 O   0  0  0  0  0  0  0  0  0  0  0  0
  128.7710  122.2680   61.4530 N   0  0  0  0  0  0  0  0  0  0  0  0
  130.5520  124.6510   66.8770 S   0  0  0  0  0  0  0  0  0  0  0  0
  129.7930  126.1590   67.3310 C   0  0  0  0  0  0  0  0  0  0  0  0
  129.7430  126.5690   68.5980 N   0  0  0  0  0  0  0  0  0  0  0  0
  130.2160  128.7700   70.8710 C   0  0  0  0  0  0  0  0  0  0  0  0
  130.1880  129.1790   72.2020 C   0  0  0  0  0  0  0  0  0  0  0  0
  1  2  1  0
  2  3  1  0
  3  4  2  0
  4  5  1  0
  5  6  2  0
  6  7  1  0
  7  8  2  0
  8  9  1  0
  9 10  1  0
 10 11  2  0
 11 12  1  0
 12 13  2  0
 13 14  1  0
 14 15  1  0
 13 16  1  0
 16 17  2  0
  9 18  2  0
 18 19  1  0
 19 20  1  0
 19 21  2  0
 21 22  1  0
 22 23  2  0
 22 24  1  0
 24 25  1  0
 25 26  1  0
 26 27  2  0
 27 28  1  0
 28 29  1  0
 21 30  1  0
 30 31  1  0
 31 32  2  0
  6 33  1  0
 33 34  2  0
 34  3  1  0
 32  7  1  0
 17 10  1  0
 31 18  1  0
 29 25  2  0
M  END
>  <Binding energies>  (65) 
[-7.84]

>  <Ligand effiencies>  (65) 
[-0.2118918918918919]

>  <Interactions>  (65) 
["V-A:GLU:543:CG:4902, V-B:LEU:475:CD2:9226, V-A:GLU:543:CD:4903, V-A:HIS:456:CE1:4064, V-B:HIS:456:CD2:9035, H-A:LYS:547:NZ:4946, V-A:LYS:547:CE:4945, V-B:GLU:543:CD:9876, V-B:HIS:456:CE1:9037, V-B:GLU:543:CG:9875, V-B:HIS:456:CG:9033, V-A:GLY:544:C:4907, V-B:GLU:543:CB:9874, V-A:GLU:543:C:4897, V-A:GLU:543:CB:4901, H-A:HIS:456:NE2:4065, V-A:TYR:484:CZ:4342, V-A:TYR:484:CE1:4340, V-A:LEU:475:CD2:4254, V-B:ALA:541:CB:9860, H-B:ALA:541:N:9859, H-A:TYR:484:OH:4343, H-B:GLU:543:OE1:9877, H-B:GLU:543:OE2:9878"]

$$$$
9d_Ghoteimi_2023
     RDKit          3D

 38 43  0  0  0  0  0  0  0  0999 V2000
  123.0290  130.2140   66.5410 C   0  0  0  0  0  0  0  0  0  0  0  0
  123.6670  131.0020   65.5460 O   0  0  0  0  0  0  0  0  0  0  0  0
  123.7720  130.5560   64.2670 C   0  0  0  0  0  0  0  0  0  0  0  0
  122.9270  130.7650   63.3920 O   0  0  0  0  0  0  0  0  0  0  0  0
  125.0100  129.7830   64.0260 C   0  0  0  0  0  0  0  0  0  0  0  0
  125.3600  129.1670   62.4110 S   0  0  0  0  0  0  0  0  0  0  0  0
  126.8690  128.4760   62.9590 C   0  0  0  0  0  0  0  0  0  0  0  0
  127.6910  127.8440   62.1220 N   0  0  0  0  0  0  0  0  0  0  0  0
  128.8480  127.3580   62.6430 C   0  0  0  0  0  0  0  0  0  0  0  0
  129.7660  126.6740   61.6810 C   0  0  0  0  0  0  0  0  0  0  0  0
  130.4900  125.5430   62.0730 C   0  0  0  0  0  0  0  0  0  0  0  0
  131.3490  124.9010   61.1860 C   0  0  0  0  0  0  0  0  0  0  0  0
  131.5070  125.3590   59.8680 C   0  0  0  0  0  0  0  0  0  0  0  0
  132.3790  124.7350   58.9700 N   0  0  0  0  0  0  0  0  0  0  0  0
  133.1320  123.5220   59.3490 C   0  0  0  0  0  0  0  0  0  0  0  0
  134.2860  123.1770   58.3840 C   0  0  0  0  0  0  0  0  0  0  0  0
  133.7970  123.0790   57.0570 O   0  0  0  0  0  0  0  0  0  0  0  0
  133.2230  124.3010   56.6240 C   0  0  0  0  0  0  0  0  0  0  0  0
  132.0360  124.6830   57.5340 C   0  0  0  0  0  0  0  0  0  0  0  0
  130.7900  126.5030   59.4850 C   0  0  0  0  0  0  0  0  0  0  0  0
  129.9330  127.1470   60.3740 C   0  0  0  0  0  0  0  0  0  0  0  0
  129.1630  127.4770   63.9990 C   0  0  0  0  0  0  0  0  0  0  0  0
  128.2940  128.1240   64.8860 C   0  0  0  0  0  0  0  0  0  0  0  0
  128.6650  128.1980   66.3230 C   0  0  0  0  0  0  0  0  0  0  0  0
  128.9380  129.4270   66.9270 C   0  0  0  0  0  0  0  0  0  0  0  0
  129.2670  129.4930   68.2780 C   0  0  0  0  0  0  0  0  0  0  0  0
  129.3150  128.3320   69.0660 C   0  0  0  0  0  0  0  0  0  0  0  0
  129.6510  128.3710   70.4210 N   0  0  0  0  0  0  0  0  0  0  0  0
  129.4660  127.1570   71.2410 C   0  0  0  0  0  0  0  0  0  0  0  0
  130.2240  127.2100   72.5850 C   0  0  0  0  0  0  0  0  0  0  0  0
  129.8500  128.3730   73.3090 O   0  0  0  0  0  0  0  0  0  0  0  0
  130.1500  129.5590   72.5870 C   0  0  0  0  0  0  0  0  0  0  0  0
  129.3870  129.5650   71.2460 C   0  0  0  0  0  0  0  0  0  0  0  0
  129.0400  127.1030   68.4480 C   0  0  0  0  0  0  0  0  0  0  0  0
  128.7130  127.0370   67.0970 C   0  0  0  0  0  0  0  0  0  0  0  0
  127.0960  128.6760   64.3530 C   0  0  0  0  0  0  0  0  0  0  0  0
  126.0240  129.4440   64.9300 C   0  0  0  0  0  0  0  0  0  0  0  0
  126.0080  129.8280   66.2460 N   0  0  0  0  0  0  0  0  0  0  0  0
  1  2  1  0
  2  3  1  0
  3  4  2  0
  3  5  1  0
  5  6  1  0
  6  7  1  0
  7  8  2  0
  8  9  1  0
  9 10  1  0
 10 11  2  0
 11 12  1  0
 12 13  2  0
 13 14  1  0
 14 15  1  0
 15 16  1  0
 16 17  1  0
 17 18  1  0
 18 19  1  0
 13 20  1  0
 20 21  2  0
  9 22  2  0
 22 23  1  0
 23 24  1  0
 24 25  2  0
 25 26  1  0
 26 27  2  0
 27 28  1  0
 28 29  1  0
 29 30  1  0
 30 31  1  0
 31 32  1  0
 32 33  1  0
 27 34  1  0
 34 35  2  0
 23 36  2  0
 36 37  1  0
 37 38  1  0
 37  5  2  0
 36  7  1  0
 21 10  1  0
 35 24  1  0
 19 14  1  0
 33 28  1  0
M  END
>  <Binding energies>  (66) 
[-8.59]

>  <Ligand effiencies>  (66) 
[-0.21475]

>  <Interactions>  (66) 
["V-A:GLU:543:CG:4902, V-A:TYR:531:CZ:4789, V-A:GLU:543:CD:4903, V-B:ARG:545:CZ:9894, H-B:TYR:484:OH:9315, V-A:HIS:456:CE1:4064, H-B:LYS:547:NZ:9919, V-B:HIS:456:CD2:9035, H-A:LYS:547:NZ:4946, V-A:LYS:547:CE:4945, V-B:HIS:456:CE1:9037, V-B:ARG:545:CD:9891, V-B:ARG:545:CG:9890, V-B:GLU:543:CB:9874, V-A:GLU:543:C:4897, V-A:GLU:543:CB:4901, V-A:TYR:531:CE1:4787, V-B:TYR:539:CZ:9845, V-A:ILE:369:CD1:3234, V-A:ASP:366:CG:3208, H-B:TYR:539:OH:9846, H-B:ARG:545:NH1:9895, H-B:GLY:454:N:9017, V-A:ASP:366:CA:3205, V-A:ASP:366:CB:3207, V-A:ASP:366:C:3203, V-B:TYR:484:CZ:9314, V-A:ILE:369:CG2:3232, V-A:ILE:369:CB:3231, V-B:GLY:454:CA:9016, V-B:GLY:453:CA:9011, V-B:GLY:453:C:9009, V-A:GLU:543:CA:4899, H-B:HIS:456:NE2:9038, V-A:ILE:369:CG1:3233, V-A:ASN:370:CB:3240, H-A:ASN:370:N:3239"]

$$$$
RR10_Rahimova_2017
     RDKit          3D

 34 38  0  0  0  0  0  0  0  0999 V2000
  133.4380  123.9110   56.9840 C   0  0  0  0  0  0  0  0  0  0  0  0
  133.3900  123.5810   58.4860 C   0  0  1  0  0  0  0  0  0  0  0  0
  132.6430  124.6690   59.2920 C   0  0  0  0  0  0  0  0  0  0  0  0
  132.6370  124.3340   60.8010 C   0  0  0  0  0  0  0  0  0  0  0  0
  131.9910  122.9540   61.0910 C   0  0  1  0  0  0  0  0  0  0  0  0
  130.5500  122.9850   60.8080 N   0  0  0  0  0  0  0  0  0  0  0  0
  129.7400  121.9110   60.7660 C   0  0  0  0  0  0  0  0  0  0  0  0
  130.1350  120.7630   60.9890 O   0  0  0  0  0  0  0  0  0  0  0  0
  128.2620  122.1690   60.4050 C   0  0  1  0  0  0  0  0  0  0  0  0
  127.6490  123.1600   61.4280 C   0  0  0  0  0  0  0  0  0  0  0  0
  126.1950  123.4930   61.0170 C   0  0  0  0  0  0  0  0  0  0  0  0
  126.0870  123.9600   59.5470 C   0  0  0  0  0  0  0  0  0  0  0  0
  126.7540  122.9890   58.6370 N   0  0  0  0  0  0  0  0  0  0  0  0
  126.4390  123.2620   56.9150 S   0  0  0  0  0  0  0  0  0  0  0  0
  125.1170  123.8870   56.7860 O   0  0  0  0  0  0  0  0  0  0  0  0
  126.7410  122.0160   56.1990 O   0  0  0  0  0  0  0  0  0  0  0  0
  127.6410  124.4920   56.4100 C   0  0  0  0  0  0  0  0  0  0  0  0
  128.9890  124.1320   56.3110 C   0  0  0  0  0  0  0  0  0  0  0  0
  129.9760  125.0450   55.9250 C   0  0  0  0  0  0  0  0  0  0  0  0
  129.5470  126.3430   55.6400 C   0  0  0  0  0  0  0  0  0  0  0  0
  130.1900  127.4930   55.2460 N   0  0  0  0  0  0  0  0  0  0  0  0
  129.2410  128.4860   55.1160 C   0  0  0  0  0  0  0  0  0  0  0  0
  129.5640  129.8950   54.7080 C   0  0  0  0  0  0  0  0  0  0  0  0
  130.8770  130.2530   54.3700 C   0  0  0  0  0  0  0  0  0  0  0  0
  131.1770  131.5580   53.9880 C   0  0  0  0  0  0  0  0  0  0  0  0
  130.1650  132.5140   53.9420 C   0  0  0  0  0  0  0  0  0  0  0  0
  128.8560  132.1740   54.2740 C   0  0  0  0  0  0  0  0  0  0  0  0
  128.5570  130.8690   54.6560 C   0  0  0  0  0  0  0  0  0  0  0  0
  128.0320  128.0520   55.3930 N   0  0  0  0  0  0  0  0  0  0  0  0
  128.1890  126.7320   55.7230 C   0  0  0  0  0  0  0  0  0  0  0  0
  127.2210  125.7940   56.1100 C   0  0  0  0  0  0  0  0  0  0  0  0
  128.1810  122.7490   58.9720 C   0  0  0  0  0  0  0  0  0  0  0  0
  132.7390  121.8750   60.2620 C   0  0  0  0  0  0  0  0  0  0  0  0
  132.7400  122.2020   58.7520 C   0  0  0  0  0  0  0  0  0  0  0  0
  2  1  1  6
  2  3  1  0
  3  4  1  0
  4  5  1  0
  5  6  1  6
  6  7  1  0
  7  8  2  0
  9  7  1  1
  9 10  1  0
 10 11  1  0
 11 12  1  0
 12 13  1  0
 13 14  1  0
 14 15  2  0
 14 16  2  0
 14 17  1  0
 17 18  2  0
 18 19  1  0
 19 20  2  0
 20 21  1  0
 21 22  1  0
 22 23  1  0
 23 24  2  0
 24 25  1  0
 25 26  2  0
 26 27  1  0
 27 28  2  0
 22 29  2  0
 29 30  1  0
 30 31  2  0
 13 32  1  0
  5 33  1  0
 33 34  1  0
 34  2  1  0
 32  9  1  0
 31 17  1  0
 30 20  1  0
 28 23  1  0
M  END
>  <Binding energies>  (67) 
[-10.56]

>  <Ligand effiencies>  (67) 
[-0.29333333333333333]

>  <Interactions>  (67) 
["V-A:TYR:531:CZ:4789, V-A:ILE:538:CD1:4860, V-A:TYR:539:CD1:4868, V-A:ILE:538:CA:4855, V-B:GLU:543:CD:9876, V-A:TYR:531:CE1:4787, V-A:MET:535:CB:4827, V-A:MET:535:CG:4828, V-A:TYR:539:CE1:4870, V-B:TYR:539:CD2:9842, V-B:TYR:539:CE2:9844, V-B:TYR:539:CZ:9845, V-B:PRO:540:CB:9853, V-B:PRO:540:CA:9851, V-B:MET:535:CE:9803, V-B:PRO:540:C:9849, V-B:ALA:541:CB:9860, V-B:TYR:539:C:9835, V-B:PRO:540:N:9852, V-A:ILE:369:CD1:3234, V-A:ASP:366:CG:3208, H-A:TYR:531:OH:4790, V-A:ASP:366:CA:3205, V-A:ASP:366:CB:3207, V-A:ASP:366:C:3203, H-B:TYR:539:N:9838, V-A:ILE:369:CG2:3232, V-A:VAL:537:C:4845"]

$$$$
RR12_Rahimova_2017
     RDKit          3D

 26 28  0  0  0  0  0  0  0  0999 V2000
  133.7340  129.9920   58.9680 C   0  0  0  0  0  0  0  0  0  0  0  0
  133.4890  131.1730   58.0190 C   0  0  0  0  0  0  0  0  0  0  0  0
  132.4140  130.8680   56.9600 C   0  0  0  0  0  0  0  0  0  0  0  0
  131.2880  131.7910   57.0830 N   0  0  0  0  0  0  0  0  0  0  0  0
  130.7530  132.6050   56.0970 C   0  0  0  0  0  0  0  0  0  0  0  0
  131.3050  132.7020   54.6860 C   0  0  0  0  0  0  0  0  0  0  0  0
  130.4670  131.9030   53.6710 C   0  0  0  0  0  0  0  0  0  0  0  0
  128.9610  131.9240   53.9960 C   0  0  0  0  0  0  0  0  0  0  0  0
  128.5960  131.1130   55.1570 N   0  0  0  0  0  0  0  0  0  0  0  0
  128.4580  129.7740   55.1510 C   0  0  0  0  0  0  0  0  0  0  0  0
  128.6250  129.0820   54.1440 O   0  0  0  0  0  0  0  0  0  0  0  0
  128.0780  129.1400   56.4950 C   0  0  0  0  0  0  0  0  0  0  0  0
  127.7560  130.1680   57.4330 O   0  0  0  0  0  0  0  0  0  0  0  0
  126.4360  130.3660   57.7930 C   0  0  0  0  0  0  0  0  0  0  0  0
  125.4720  129.8110   56.9480 C   0  0  0  0  0  0  0  0  0  0  0  0
  124.1170  129.9550   57.2310 C   0  0  0  0  0  0  0  0  0  0  0  0
  123.7210  130.6570   58.3660 C   0  0  0  0  0  0  0  0  0  0  0  0
  124.6680  131.2190   59.2190 C   0  0  0  0  0  0  0  0  0  0  0  0
  126.0240  131.0750   58.9340 C   0  0  0  0  0  0  0  0  0  0  0  0
  129.7230  133.3050   56.5050 N   0  0  0  0  0  0  0  0  0  0  0  0
  129.5380  132.9330   57.8070 C   0  0  0  0  0  0  0  0  0  0  0  0
  128.5640  133.3660   58.7190 C   0  0  0  0  0  0  0  0  0  0  0  0
  128.5810  132.8250   60.0050 C   0  0  0  0  0  0  0  0  0  0  0  0
  129.5360  131.8800   60.3810 C   0  0  0  0  0  0  0  0  0  0  0  0
  130.5190  131.4300   59.4970 C   0  0  0  0  0  0  0  0  0  0  0  0
  130.5030  131.9740   58.2070 C   0  0  0  0  0  0  0  0  0  0  0  0
  1  2  1  0
  2  3  1  0
  3  4  1  0
  4  5  1  0
  5  6  1  0
  6  7  1  0
  7  8  1  0
  8  9  1  0
  9 10  1  0
 10 11  2  0
 10 12  1  0
 12 13  1  0
 13 14  1  0
 14 15  2  0
 15 16  1  0
 16 17  2  0
 17 18  1  0
 18 19  2  0
  5 20  2  0
 20 21  1  0
 21 22  2  0
 22 23  1  0
 23 24  2  0
 24 25  1  0
 25 26  2  0
 26  4  1  0
 19 14  1  0
 26 21  1  0
M  END
>  <Binding energies>  (68) 
[-6.42]

>  <Ligand effiencies>  (68) 
[-0.23777777777777778]

>  <Interactions>  (68) 
["V-A:LEU:363:CB:3182, V-A:TYR:539:CE2:4871, V-A:LEU:363:CD1:3184, V-A:TYR:531:CZ:4789, V-A:TYR:539:CD2:4869, V-A:LEU:363:CA:3180, V-A:ASN:362:C:3167, V-A:TYR:531:CE2:4788, V-A:PRO:540:CB:4880, V-A:PRO:540:CA:4878, V-A:PRO:540:CD:4882, V-A:PRO:540:N:4879, V-A:ILE:538:CD1:4860, V-A:TYR:539:CG:4867, H-A:TYR:539:N:4865, V-A:TYR:539:CD1:4868, V-A:TYR:539:C:4862, V-A:ILE:538:CA:4855, V-A:ILE:538:CB:4857, V-B:TYR:531:CE1:9760, V-A:MET:535:CB:4827, V-A:MET:535:CG:4828, V-A:TYR:539:CZ:4872, V-A:ILE:538:CG2:4858, V-A:TYR:539:CE1:4870, V-B:TYR:531:CZ:9762, V-A:ASP:366:CG:3208, V-B:ASP:366:CB:8179, V-B:ASP:366:CG:8180, V-B:ASP:366:C:8175, V-B:ASP:366:CA:8177, V-A:ASP:366:CB:3207"]

$$$$
RR13_Rahimova_2017
     RDKit          3D

 48 54  0  0  0  0  0  0  0  0999 V2000
  125.8030  130.6660   57.9950 Cl  0  0  0  0  0  0  0  0  0  0  0  0
  126.8870  131.7400   58.8130 C   0  0  0  0  0  0  0  0  0  0  0  0
  126.4310  132.3610   59.9790 C   0  0  0  0  0  0  0  0  0  0  0  0
  127.2470  133.2510   60.6710 C   0  0  0  0  0  0  0  0  0  0  0  0
  128.5270  133.5300   60.1990 C   0  0  0  0  0  0  0  0  0  0  0  0
  128.9890  132.9150   59.0370 C   0  0  0  0  0  0  0  0  0  0  0  0
  128.1850  132.0040   58.3320 C   0  0  0  0  0  0  0  0  0  0  0  0
  128.7110  131.3550   57.0330 C   0  0  1  0  0  0  0  0  0  0  0  0
  129.8740  132.1660   56.4420 C   0  0  0  0  0  0  0  0  0  0  0  0
  129.7830  133.2830   55.7550 N   0  0  0  0  0  0  0  0  0  0  0  0
  131.0870  133.6270   55.4110 N   0  0  0  0  0  0  0  0  0  0  0  0
  131.9690  132.6790   55.8910 N   0  0  0  0  0  0  0  0  0  0  0  0
  131.1950  131.7750   56.5010 N   0  0  0  0  0  0  0  0  0  0  0  0
  131.7910  130.6270   57.1730 C   0  0  0  0  0  0  0  0  0  0  0  0
  132.3030  131.0310   58.5680 C   0  0  0  0  0  0  0  0  0  0  0  0
  131.5580  130.3150   59.6840 C   0  0  0  0  0  0  0  0  0  0  0  0
  130.8270  131.0510   60.6200 C   0  0  0  0  0  0  0  0  0  0  0  0
  130.1510  130.3950   61.6450 C   0  0  0  0  0  0  0  0  0  0  0  0
  130.2090  129.0050   61.7310 C   0  0  0  0  0  0  0  0  0  0  0  0
  130.9370  128.2660   60.8020 C   0  0  0  0  0  0  0  0  0  0  0  0
  131.6130  128.9210   59.7760 C   0  0  0  0  0  0  0  0  0  0  0  0
  129.0450  129.9180   57.1840 N   0  0  0  0  0  0  0  0  0  0  0  0
  128.5950  129.1560   56.0050 C   0  0  0  0  0  0  0  0  0  0  0  0
  129.0560  127.6820   56.0950 C   0  0  0  0  0  0  0  0  0  0  0  0
  128.4810  127.0300   57.2840 N   0  0  0  0  0  0  0  0  0  0  0  0
  128.8310  125.5930   57.3660 C   0  0  1  0  0  0  0  0  0  0  0  0
  127.6450  124.6110   57.2410 C   0  0  0  0  0  0  0  0  0  0  0  0
  127.9090  123.3570   56.6720 C   0  0  0  0  0  0  0  0  0  0  0  0
  126.9030  122.4020   56.5360 C   0  0  0  0  0  0  0  0  0  0  0  0
  125.6100  122.6900   56.9630 C   0  0  0  0  0  0  0  0  0  0  0  0
  125.3230  123.9340   57.5160 C   0  0  0  0  0  0  0  0  0  0  0  0
  126.3230  124.9010   57.6530 C   0  0  0  0  0  0  0  0  0  0  0  0
  125.8510  126.4410   58.2880 Cl  0  0  0  0  0  0  0  0  0  0  0  0
  129.9500  125.1900   56.4030 C   0  0  0  0  0  0  0  0  0  0  0  0
  129.8220  125.0440   55.1040 N   0  0  0  0  0  0  0  0  0  0  0  0
  131.0830  124.6920   54.6330 N   0  0  0  0  0  0  0  0  0  0  0  0
  131.9820  124.6450   55.6780 N   0  0  0  0  0  0  0  0  0  0  0  0
  131.2650  124.9760   56.7580 N   0  0  0  0  0  0  0  0  0  0  0  0
  131.8970  125.0090   58.0730 C   0  0  0  0  0  0  0  0  0  0  0  0
  132.5160  123.6390   58.4060 C   0  0  0  0  0  0  0  0  0  0  0  0
  131.5580  122.7520   59.1870 C   0  0  0  0  0  0  0  0  0  0  0  0
  130.2160  123.1170   59.3150 C   0  0  0  0  0  0  0  0  0  0  0  0
  129.3380  122.3010   60.0240 C   0  0  0  0  0  0  0  0  0  0  0  0
  129.8070  121.1230   60.6040 C   0  0  0  0  0  0  0  0  0  0  0  0
  131.1450  120.7540   60.4790 C   0  0  0  0  0  0  0  0  0  0  0  0
  132.0230  121.5690   59.7690 C   0  0  0  0  0  0  0  0  0  0  0  0
  128.9380  127.7920   58.4600 C   0  0  0  0  0  0  0  0  0  0  0  0
  128.4650  129.2610   58.3690 C   0  0  0  0  0  0  0  0  0  0  0  0
  1  2  1  0
  2  3  2  0
  3  4  1  0
  4  5  2  0
  5  6  1  0
  6  7  2  0
  7  8  1  0
  8  9  1  0
  9 10  2  0
 10 11  1  0
 11 12  2  0
 12 13  1  0
 13 14  1  0
 14 15  1  0
 15 16  1  0
 16 17  2  0
 17 18  1  0
 18 19  2  0
 19 20  1  0
 20 21  2  0
  8 22  1  1
 22 23  1  0
 23 24  1  0
 24 25  1  0
 26 25  1  6
 26 27  1  0
 27 28  2  0
 28 29  1  0
 29 30  2  0
 30 31  1  0
 31 32  2  0
 32 33  1  0
 26 34  1  0
 34 35  2  0
 35 36  1  0
 36 37  2  0
 37 38  1  0
 38 39  1  0
 39 40  1  0
 40 41  1  0
 41 42  2  0
 42 43  1  0
 43 44  2  0
 44 45  1  0
 45 46  2  0
 25 47  1  0
 47 48  1  0
  7  2  1  0
 13  9  1  0
 21 16  1  0
 48 22  1  0
 32 27  1  0
 38 34  1  0
 46 41  1  0
M  END
>  <Binding energies>  (69) 
[-12.35]

>  <Ligand effiencies>  (69) 
[-0.25729166666666664]

>  <Interactions>  (69) 
["V-A:TYR:539:CE2:4871, V-A:TYR:531:CZ:4789, V-A:TYR:539:CD2:4869, V-A:GLU:543:CD:4903, V-A:TYR:531:CE2:4788, V-A:PRO:540:CB:4880, V-A:PRO:540:CA:4878, V-A:PRO:540:N:4879, H-A:TYR:539:N:4865, V-A:TYR:539:C:4862, V-A:TYR:531:CE1:4787, V-A:TYR:539:CZ:4872, V-A:TYR:539:CE1:4870, V-B:TYR:539:CD2:9842, V-B:TYR:539:CE2:9844, V-B:PRO:540:CB:9853, V-A:LEU:475:CD2:4254, V-B:PRO:540:CA:9851, V-B:MET:535:CE:9803, V-B:ALA:541:CB:9860, V-B:TYR:539:C:9835, V-B:PRO:540:N:9852, H-A:LYS:534:NZ:4818, H-A:TYR:531:OH:4790, V-B:ASP:366:CB:8179, V-B:ASP:366:CG:8180, V-B:PRO:540:CD:9855, H-B:TYR:539:OH:9846, V-B:TYR:539:CA:9837, V-A:ASP:366:CB:3207"]

$$$$
RR14_Rahimova_2017
     RDKit          3D

 39 43  0  0  0  0  0  0  0  0999 V2000
  129.7910  123.1300   63.1880 C   0  0  0  0  0  0  0  0  0  0  0  0
  129.6080  122.0510   62.2790 O   0  0  0  0  0  0  0  0  0  0  0  0
  129.2190  122.3220   60.9810 C   0  0  0  0  0  0  0  0  0  0  0  0
  127.9460  122.8690   60.8150 C   0  0  0  0  0  0  0  0  0  0  0  0
  127.4580  123.1540   59.5440 C   0  0  0  0  0  0  0  0  0  0  0  0
  128.2420  122.8860   58.4190 C   0  0  0  0  0  0  0  0  0  0  0  0
  127.6850  123.1350   57.0220 C   0  0  0  0  0  0  0  0  0  0  0  0
  126.4190  123.8680   57.0250 N   0  0  0  0  0  0  0  0  0  0  0  0
  125.3190  123.3190   56.4990 N   0  0  0  0  0  0  0  0  0  0  0  0
  124.3410  124.2830   56.6450 N   0  0  0  0  0  0  0  0  0  0  0  0
  124.8720  125.4140   57.2570 N   0  0  0  0  0  0  0  0  0  0  0  0
  126.1370  125.1410   57.4720 C   0  0  0  0  0  0  0  0  0  0  0  0
  127.1440  126.0920   58.1050 C   0  0  0  0  0  0  0  0  0  0  0  0
  127.5620  127.1630   57.1850 N   0  0  0  0  0  0  0  0  0  0  0  0
  128.1400  128.3070   57.9020 C   0  0  0  0  0  0  0  0  0  0  0  0
  127.3570  129.6210   57.6910 C   0  0  0  0  0  0  0  0  0  0  0  0
  127.5810  130.2600   56.3040 C   0  0  0  0  0  0  0  0  0  0  0  0
  128.8570  130.9740   56.1930 N   0  0  0  0  0  0  0  0  0  0  0  0
  128.9250  132.0550   57.1850 C   0  0  0  0  0  0  0  0  0  0  0  0
  130.2360  132.8610   57.0610 C   0  0  0  0  0  0  0  0  0  0  0  0
  130.3910  133.3400   55.7290 O   0  0  0  0  0  0  0  0  0  0  0  0
  130.4390  132.2820   54.7780 C   0  0  0  0  0  0  0  0  0  0  0  0
  129.1340  131.4600   54.8320 C   0  0  0  0  0  0  0  0  0  0  0  0
  128.5160  126.6380   56.1980 C   0  0  0  0  0  0  0  0  0  0  0  0
  129.6950  125.8460   56.7590 C   0  0  0  0  0  0  0  0  0  0  0  0
  130.0570  125.9590   58.0610 C   0  0  0  0  0  0  0  0  0  0  0  0
  131.2170  125.2340   58.6200 C   0  0  0  0  0  0  0  0  0  0  0  0
  131.6080  125.3120   59.9670 C   0  0  0  0  0  0  0  0  0  0  0  0
  130.8460  126.1670   60.9710 C   0  0  0  0  0  0  0  0  0  0  0  0
  132.7210  124.5840   60.3950 C   0  0  0  0  0  0  0  0  0  0  0  0
  133.4380  123.7890   59.5020 C   0  0  0  0  0  0  0  0  0  0  0  0
  133.0560  123.7040   58.1600 C   0  0  0  0  0  0  0  0  0  0  0  0
  133.8590  122.8250   57.2090 C   0  0  0  0  0  0  0  0  0  0  0  0
  131.9390  124.4310   57.7190 C   0  0  0  0  0  0  0  0  0  0  0  0
  131.5180  124.3780   56.3740 N   0  0  0  0  0  0  0  0  0  0  0  0
  130.4620  125.0240   55.8180 C   0  0  0  0  0  0  0  0  0  0  0  0
  130.2160  124.8990   54.6190 O   0  0  0  0  0  0  0  0  0  0  0  0
  129.5280  122.3670   58.5760 C   0  0  0  0  0  0  0  0  0  0  0  0
  130.0140  122.0820   59.8490 C   0  0  0  0  0  0  0  0  0  0  0  0
  1  2  1  0
  2  3  1  0
  3  4  2  0
  4  5  1  0
  5  6  2  0
  6  7  1  0
  7  8  1  0
  8  9  1  0
  9 10  2  0
 10 11  1  0
 11 12  2  0
 12 13  1  0
 13 14  1  0
 14 15  1  0
 15 16  1  0
 16 17  1  0
 17 18  1  0
 18 19  1  0
 19 20  1  0
 20 21  1  0
 21 22  1  0
 22 23  1  0
 14 24  1  0
 24 25  1  0
 25 26  2  0
 26 27  1  0
 27 28  2  0
 28 29  1  0
 28 30  1  0
 30 31  2  0
 31 32  1  0
 32 33  1  0
 32 34  2  0
 34 35  1  0
 35 36  1  0
 36 37  2  0
  6 38  1  0
 38 39  2  0
 39  3  1  0
 12  8  1  0
 23 18  1  0
 36 25  1  0
 34 27  1  0
M  END
>  <Binding energies>  (70) 
[-10.23]

>  <Ligand effiencies>  (70) 
[-0.25575000000000003]

>  <Interactions>  (70) 
["V-A:TYR:531:CZ:4789, V-A:PRO:540:CB:4880, V-A:PRO:540:CA:4878, V-A:PRO:540:CD:4882, V-A:PRO:540:N:4879, H-A:TYR:539:N:4865, V-A:TYR:539:CD1:4868, V-A:TYR:539:C:4862, V-B:GLU:543:CD:9876, V-B:GLU:543:CG:9875, V-A:TYR:531:CE1:4787, V-A:TYR:539:CZ:4872, V-A:TYR:539:CE1:4870, V-B:TYR:539:CD2:9842, V-B:TYR:539:CE2:9844, V-B:TYR:539:CZ:9845, V-B:PRO:540:CA:9851, V-B:MET:535:CE:9803, V-B:PRO:540:C:9849, V-B:ALA:541:CB:9860, V-B:TYR:539:C:9835, V-A:ILE:369:CD1:3234, V-A:ASP:366:CG:3208, H-A:LYS:534:NZ:4818, H-B:TYR:539:OH:9846, H-B:TYR:531:OH:9763, V-A:ASP:366:CA:3205, V-A:ASP:366:CB:3207, V-A:ILE:369:CG2:3232, V-A:ILE:369:CB:3231"]

$$$$
RR15_Rahimova_2017
     RDKit          3D

 45 49  0  0  0  0  0  0  0  0999 V2000
  133.1050  120.6660   60.1640 C   0  0  0  0  0  0  0  0  0  0  0  0
  133.2720  122.0780   60.0980 O   0  0  0  0  0  0  0  0  0  0  0  0
  132.6350  122.7940   59.0990 C   0  0  0  0  0  0  0  0  0  0  0  0
  133.3110  123.4380   58.0520 C   0  0  0  0  0  0  0  0  0  0  0  0
  132.6080  124.1450   57.0790 C   0  0  0  0  0  0  0  0  0  0  0  0
  131.2120  124.2320   57.1260 C   0  0  0  0  0  0  0  0  0  0  0  0
  130.4540  125.0010   56.0790 C   0  0  0  0  0  0  0  0  0  0  0  0
  130.0430  124.4570   54.9420 N   0  0  0  0  0  0  0  0  0  0  0  0
  129.4020  125.4630   54.2480 N   0  0  0  0  0  0  0  0  0  0  0  0
  129.4640  126.5050   55.0770 N   0  0  0  0  0  0  0  0  0  0  0  0
  129.0410  127.8440   54.6700 C   0  0  0  0  0  0  0  0  0  0  0  0
  127.5230  128.1180   54.8160 C   0  0  0  0  0  0  0  0  0  0  0  0
  126.7710  127.7190   53.9240 O   0  0  0  0  0  0  0  0  0  0  0  0
  127.0540  128.7600   55.9300 N   0  0  0  0  0  0  0  0  0  0  0  0
  127.1060  128.1230   57.2610 C   0  0  0  0  0  0  0  0  0  0  0  0
  127.1570  126.5810   57.2070 C   0  0  0  0  0  0  0  0  0  0  0  0
  125.9310  125.8690   57.8270 C   0  0  0  0  0  0  0  0  0  0  0  0
  125.9560  124.4110   57.6740 N   0  0  0  0  0  0  0  0  0  0  0  0
  124.8770  123.8910   56.8220 C   0  0  0  0  0  0  0  0  0  0  0  0
  124.9990  122.3640   56.6240 C   0  0  0  0  0  0  0  0  0  0  0  0
  126.2890  122.0360   56.1210 O   0  0  0  0  0  0  0  0  0  0  0  0
  127.3340  122.4470   56.9960 C   0  0  0  0  0  0  0  0  0  0  0  0
  127.2770  123.9770   57.2010 C   0  0  0  0  0  0  0  0  0  0  0  0
  126.6410  130.1970   55.9390 C   0  0  2  0  0  0  0  0  0  0  0  0
  127.2130  131.0310   54.7500 C   0  0  0  0  0  0  0  0  0  0  0  0
  126.4990  131.3610   53.8030 O   0  0  0  0  0  0  0  0  0  0  0  0
  128.5050  131.3880   54.8590 N   0  0  0  0  0  0  0  0  0  0  0  0
  129.2240  132.2500   53.9280 C   0  0  0  0  0  0  0  0  0  0  0  0
  130.4070  132.9520   54.6190 C   0  0  2  0  0  0  0  0  0  0  0  0
  131.7350  132.1750   54.6050 C   0  0  0  0  0  0  0  0  0  0  0  0
  131.8370  131.5730   55.9850 C   0  0  0  0  0  0  0  0  0  0  0  0
  131.1630  132.6430   56.8280 C   0  0  0  0  0  0  0  0  0  0  0  0
  130.0660  133.0330   56.0090 O   0  0  0  0  0  0  0  0  0  0  0  0
  126.7730  130.7860   57.3380 C   0  0  0  0  0  0  0  0  0  0  0  0
  125.6830  130.6710   58.2080 C   0  0  0  0  0  0  0  0  0  0  0  0
  125.7460  131.1910   59.4980 C   0  0  0  0  0  0  0  0  0  0  0  0
  126.9050  131.8300   59.9280 C   0  0  0  0  0  0  0  0  0  0  0  0
  126.9680  132.3350   61.1810 F   0  0  0  0  0  0  0  0  0  0  0  0
  128.0010  131.9540   59.0770 C   0  0  0  0  0  0  0  0  0  0  0  0
  127.9350  131.4340   57.7880 C   0  0  0  0  0  0  0  0  0  0  0  0
  130.1420  126.2770   56.2080 N   0  0  0  0  0  0  0  0  0  0  0  0
  130.5400  123.5860   58.1710 C   0  0  0  0  0  0  0  0  0  0  0  0
  131.2350  122.8660   59.1580 C   0  0  0  0  0  0  0  0  0  0  0  0
  130.6160  122.2090   60.2080 O   0  0  0  0  0  0  0  0  0  0  0  0
  129.1960  122.1170   60.2400 C   0  0  0  0  0  0  0  0  0  0  0  0
  1  2  1  0
  2  3  1  0
  3  4  2  0
  4  5  1  0
  5  6  2  0
  6  7  1  0
  7  8  1  0
  8  9  2  0
  9 10  1  0
 10 11  1  0
 11 12  1  0
 12 13  2  0
 12 14  1  0
 14 15  1  0
 15 16  1  0
 16 17  1  0
 17 18  1  0
 18 19  1  0
 19 20  1  0
 20 21  1  0
 21 22  1  0
 22 23  1  0
 24 14  1  1
 24 25  1  0
 25 26  2  0
 25 27  1  0
 27 28  1  0
 29 28  1  6
 29 30  1  0
 30 31  1  0
 31 32  1  0
 32 33  1  0
 24 34  1  0
 34 35  2  0
 35 36  1  0
 36 37  2  0
 37 38  1  0
 37 39  1  0
 39 40  2  0
 10 41  1  0
  6 42  1  0
 42 43  2  0
 43 44  1  0
 44 45  1  0
 43  3  1  0
 41  7  2  0
 23 18  1  0
 33 29  1  0
 40 34  1  0
M  END
>  <Binding energies>  (71) 
[-10.47]

>  <Ligand effiencies>  (71) 
[-0.22760869565217393]

>  <Interactions>  (71) 
["V-A:TYR:539:CE2:4871, V-A:LEU:363:CD1:3184, V-A:TYR:531:CZ:4789, V-A:PRO:540:CB:4880, V-A:PRO:540:CA:4878, V-A:PRO:540:CD:4882, V-A:PRO:540:N:4879, V-A:ILE:538:CD1:4860, H-A:TYR:539:N:4865, V-A:TYR:539:CD1:4868, V-A:ILE:538:CA:4855, V-A:TYR:531:CE1:4787, V-A:MET:535:CB:4827, V-A:MET:535:CG:4828, V-A:TYR:539:CZ:4872, V-A:ILE:538:CG2:4858, V-A:TYR:539:CE1:4870, V-B:TYR:539:CE2:9844, V-B:TYR:539:CZ:9845, V-B:PRO:540:CB:9853, V-A:LEU:475:CD2:4254, V-B:PRO:540:CA:9851, V-A:TRP:381:CH2:3367, V-B:MET:535:CE:9803, V-B:TYR:539:C:9835, V-B:PRO:540:N:9852, V-A:ILE:369:CD1:3234, H-A:LYS:534:NZ:4818, H-A:TYR:531:OH:4790, V-B:PRO:540:CD:9855, H-B:TYR:539:OH:9846, H-A:TYR:539:OH:4873, H-B:TYR:531:OH:9763, V-A:ASP:366:CB:3207, V-B:PRO:540:CG:9854, V-B:LEU:363:CD1:8156, H-B:TYR:539:N:9838, V-A:ILE:369:CG2:3232, V-A:ILE:369:CB:3231, V-A:PRO:540:CG:4881, V-A:ILE:538:C:4853, V-B:TYR:531:CE2:9761, V-B:ILE:538:CG2:9831"]

$$$$
RR17_Rahimova_2017
     RDKit          3D

 38 41  0  0  0  0  0  0  0  0999 V2000
  131.9250  132.7490   55.4270 C   0  0  0  0  0  0  0  0  0  0  0  0
  130.4060  132.9210   55.3340 C   0  0  0  0  0  0  0  0  0  0  0  0
  129.9090  133.3060   56.6130 O   0  0  0  0  0  0  0  0  0  0  0  0
  128.9370  132.5350   57.2220 C   0  0  0  0  0  0  0  0  0  0  0  0
  128.5620  132.9110   58.5110 C   0  0  0  0  0  0  0  0  0  0  0  0
  127.5920  132.1950   59.2050 C   0  0  0  0  0  0  0  0  0  0  0  0
  126.9740  131.0800   58.6200 C   0  0  0  0  0  0  0  0  0  0  0  0
  125.9300  130.3270   59.3930 C   0  0  0  0  0  0  0  0  0  0  0  0
  126.2080  129.3720   60.1230 O   0  0  0  0  0  0  0  0  0  0  0  0
  124.4650  130.7890   59.2260 C   0  0  0  0  0  0  0  0  0  0  0  0
  124.0960  132.2810   60.2170 S   0  0  0  0  0  0  0  0  0  0  0  0
  123.8070  131.5330   61.7960 C   0  0  0  0  0  0  0  0  0  0  0  0
  122.6510  131.0830   62.2240 N   0  0  0  0  0  0  0  0  0  0  0  0
  122.8410  130.5670   63.5000 N   0  0  0  0  0  0  0  0  0  0  0  0
  124.1070  130.7220   63.7940 C   0  0  0  0  0  0  0  0  0  0  0  0
  124.7510  130.2810   65.1000 C   0  0  0  0  0  0  0  0  0  0  0  0
  125.6800  129.1630   64.9520 N   0  0  0  0  0  0  0  0  0  0  0  0
  126.6480  128.8200   65.9130 C   0  0  0  0  0  0  0  0  0  0  0  0
  126.3910  127.7090   66.7160 C   0  0  0  0  0  0  0  0  0  0  0  0
  127.3040  127.3180   67.6900 C   0  0  0  0  0  0  0  0  0  0  0  0
  128.4910  128.0330   67.8710 C   0  0  0  0  0  0  0  0  0  0  0  0
  129.4810  127.5940   68.9500 C   0  0  0  0  0  0  0  0  0  0  0  0
  129.7620  126.2910   68.8780 F   0  0  0  0  0  0  0  0  0  0  0  0
  130.6260  128.2680   68.8330 F   0  0  0  0  0  0  0  0  0  0  0  0
  128.9580  127.8440   70.1500 F   0  0  0  0  0  0  0  0  0  0  0  0
  128.7550  129.1430   67.0620 C   0  0  0  0  0  0  0  0  0  0  0  0
  127.8420  129.5330   66.0870 C   0  0  0  0  0  0  0  0  0  0  0  0
  124.7770  131.3410   62.7590 N   0  0  0  0  0  0  0  0  0  0  0  0
  126.1400  131.6690   62.6900 C   0  0  0  0  0  0  0  0  0  0  0  0
  126.5210  133.0090   62.6170 C   0  0  0  0  0  0  0  0  0  0  0  0
  127.8730  133.3340   62.5450 C   0  0  0  0  0  0  0  0  0  0  0  0
  128.8460  132.3210   62.5470 C   0  0  0  0  0  0  0  0  0  0  0  0
  130.2070  132.5490   62.4790 O   0  0  0  0  0  0  0  0  0  0  0  0
  130.9930  131.7950   61.5630 C   0  0  0  0  0  0  0  0  0  0  0  0
  128.4440  130.9850   62.6190 C   0  0  0  0  0  0  0  0  0  0  0  0
  127.0950  130.6530   62.6920 C   0  0  0  0  0  0  0  0  0  0  0  0
  127.3510  130.7030   57.3230 C   0  0  0  0  0  0  0  0  0  0  0  0
  128.3220  131.4220   56.6300 C   0  0  0  0  0  0  0  0  0  0  0  0
  1  2  1  0
  2  3  1  0
  3  4  1  0
  4  5  2  0
  5  6  1  0
  6  7  2  0
  7  8  1  0
  8  9  2  0
  8 10  1  0
 10 11  1  0
 11 12  1  0
 12 13  2  0
 13 14  1  0
 14 15  2  0
 15 16  1  0
 16 17  1  0
 17 18  1  0
 18 19  2  0
 19 20  1  0
 20 21  2  0
 21 22  1  0
 22 23  1  0
 22 24  1  0
 22 25  1  0
 21 26  1  0
 26 27  2  0
 15 28  1  0
 28 29  1  0
 29 30  2  0
 30 31  1  0
 31 32  2  0
 32 33  1  0
 33 34  1  0
 32 35  1  0
 35 36  2  0
  7 37  1  0
 37 38  2  0
 38  4  1  0
 28 12  1  0
 36 29  1  0
 27 18  1  0
M  END
>  <Binding energies>  (72) 
[-8.33]

>  <Ligand effiencies>  (72) 
[-0.21358974358974359]

>  <Interactions>  (72) 
["V-A:GLU:543:CG:4902, V-B:ILE:369:CD1:8206, H-A:ALA:541:N:4886, V-A:TYR:539:CE2:4871, V-A:LEU:363:CD1:3184, V-A:TYR:539:CD2:4869, V-B:LEU:475:CD2:9226, V-A:ALA:541:CB:4887, V-A:GLU:543:CD:4903, V-A:PRO:540:CB:4880, V-A:PRO:540:CA:4878, V-A:PRO:540:CD:4882, V-A:PRO:540:N:4879, V-A:ILE:538:CD1:4860, V-A:TYR:539:CG:4867, H-A:TYR:539:N:4865, V-B:ARG:545:CZ:9894, V-A:TYR:539:CD1:4868, V-A:TYR:539:C:4862, V-A:ILE:538:CA:4855, V-A:HIS:456:CE1:4064, V-B:GLU:543:CD:9876, V-B:HIS:456:CE1:9037, V-B:ARG:545:CG:9890, V-B:GLU:543:CB:9874, V-A:GLU:543:CB:4901, V-A:TYR:539:CZ:4872, V-A:ILE:538:CG2:4858, V-A:TYR:539:CE1:4870, V-B:ASP:366:CB:8179, V-B:ASP:366:CG:8180, H-B:ARG:545:NH1:9895, H-B:GLY:454:N:9017"]

$$$$
RR19_Rahimova_2017
     RDKit          3D

 46 51  0  0  0  0  0  0  0  0999 V2000
  126.7350  130.9210   56.9860 O   0  0  0  0  0  0  0  0  0  0  0  0
  127.0760  130.6100   58.1300 C   0  0  0  0  0  0  0  0  0  0  0  0
  126.2800  130.6230   59.2300 N   0  0  0  0  0  0  0  0  0  0  0  0
  124.9230  130.7450   59.4020 C   0  0  0  0  0  0  0  0  0  0  0  0
  123.7640  130.6760   58.1710 S   0  0  0  0  0  0  0  0  0  0  0  0
  124.6650  130.9310   60.7380 N   0  0  0  0  0  0  0  0  0  0  0  0
  123.5170  130.9660   61.4610 C   0  0  0  0  0  0  0  0  0  0  0  0
  122.3940  130.6430   61.0660 O   0  0  0  0  0  0  0  0  0  0  0  0
  123.7010  131.4920   62.9060 C   0  0  2  0  0  0  0  0  0  0  0  0
  124.3000  132.9250   63.0080 C   0  0  0  0  0  0  0  0  0  0  0  0
  125.6870  133.0910   62.4090 C   0  0  0  0  0  0  0  0  0  0  0  0
  125.8530  133.5080   61.0710 C   0  0  0  0  0  0  0  0  0  0  0  0
  127.1270  133.7300   60.5650 C   0  0  0  0  0  0  0  0  0  0  0  0
  128.2420  133.5610   61.3760 C   0  0  0  0  0  0  0  0  0  0  0  0
  128.0930  133.1790   62.7040 C   0  0  0  0  0  0  0  0  0  0  0  0
  126.8280  132.9550   63.2300 C   0  0  0  0  0  0  0  0  0  0  0  0
  124.4590  130.5220   63.7430 N   0  0  0  0  0  0  0  0  0  0  0  0
  125.6920  130.0770   63.3700 C   0  0  0  0  0  0  0  0  0  0  0  0
  126.3120  130.3650   62.3440 O   0  0  0  0  0  0  0  0  0  0  0  0
  126.1350  129.1760   64.4620 C   0  0  0  0  0  0  0  0  0  0  0  0
  127.3080  128.4360   64.6190 C   0  0  0  0  0  0  0  0  0  0  0  0
  127.4640  127.6640   65.7760 C   0  0  0  0  0  0  0  0  0  0  0  0
  126.4580  127.6420   66.7510 C   0  0  0  0  0  0  0  0  0  0  0  0
  125.2890  128.3910   66.5750 C   0  0  0  0  0  0  0  0  0  0  0  0
  125.1520  129.1530   65.4140 C   0  0  0  0  0  0  0  0  0  0  0  0
  124.0550  130.0410   64.9570 C   0  0  0  0  0  0  0  0  0  0  0  0
  123.0070  130.2950   65.5540 O   0  0  0  0  0  0  0  0  0  0  0  0
  128.5390  130.1680   58.4000 C   0  0  2  0  0  0  0  0  0  0  0  0
  129.0470  130.5100   59.8310 C   0  0  0  0  0  0  0  0  0  0  0  0
  130.5570  130.4630   59.9760 C   0  0  0  0  0  0  0  0  0  0  0  0
  131.3200  129.6000   59.1600 C   0  0  0  0  0  0  0  0  0  0  0  0
  132.7080  129.6330   59.2230 C   0  0  0  0  0  0  0  0  0  0  0  0
  133.3500  130.5320   60.0650 C   0  0  0  0  0  0  0  0  0  0  0  0
  132.6120  131.4140   60.8440 C   0  0  0  0  0  0  0  0  0  0  0  0
  131.2240  131.3960   60.7970 C   0  0  0  0  0  0  0  0  0  0  0  0
  129.4980  130.6280   57.3560 N   0  0  0  0  0  0  0  0  0  0  0  0
  129.9620  129.7880   56.3890 C   0  0  0  0  0  0  0  0  0  0  0  0
  129.6960  128.5940   56.2470 O   0  0  0  0  0  0  0  0  0  0  0  0
  130.8570  130.6170   55.5440 C   0  0  0  0  0  0  0  0  0  0  0  0
  131.6110  130.2900   54.4160 C   0  0  0  0  0  0  0  0  0  0  0  0
  132.3750  131.2930   53.8070 C   0  0  0  0  0  0  0  0  0  0  0  0
  132.3740  132.5940   54.3260 C   0  0  0  0  0  0  0  0  0  0  0  0
  131.6090  132.9030   55.4570 C   0  0  0  0  0  0  0  0  0  0  0  0
  130.8560  131.8880   56.0500 C   0  0  0  0  0  0  0  0  0  0  0  0
  129.9610  131.9070   57.2320 C   0  0  0  0  0  0  0  0  0  0  0  0
  129.6930  132.8720   57.9500 O   0  0  0  0  0  0  0  0  0  0  0  0
  1  2  2  0
  2  3  1  0
  3  4  1  0
  4  5  2  0
  4  6  1  0
  6  7  1  0
  7  8  2  0
  7  9  1  0
  9 10  1  6
 10 11  1  0
 11 12  2  0
 12 13  1  0
 13 14  2  0
 14 15  1  0
 15 16  2  0
  9 17  1  0
 17 18  1  0
 18 19  2  0
 18 20  1  0
 20 21  2  0
 21 22  1  0
 22 23  2  0
 23 24  1  0
 24 25  2  0
 25 26  1  0
 26 27  2  0
  2 28  1  0
 28 29  1  1
 29 30  1  0
 30 31  2  0
 31 32  1  0
 32 33  2  0
 33 34  1  0
 34 35  2  0
 28 36  1  0
 36 37  1  0
 37 38  2  0
 37 39  1  0
 39 40  2  0
 40 41  1  0
 41 42  2  0
 42 43  1  0
 43 44  2  0
 44 45  1  0
 45 46  2  0
 16 11  1  0
 26 17  1  0
 35 30  1  0
 45 36  1  0
 25 20  1  0
 44 39  1  0
M  END
>  <Binding energies>  (73) 
[-11.1]

>  <Ligand effiencies>  (73) 
[-0.23124999999999998]

>  <Interactions>  (73) 
["V-B:ILE:369:CD1:8206, V-A:TYR:539:CE2:4871, V-A:LEU:363:CD1:3184, V-A:TYR:531:CZ:4789, V-A:TYR:539:CD2:4869, V-B:LEU:475:CD2:9226, V-A:ALA:541:CB:4887, V-A:ASN:362:C:3167, V-A:TYR:531:CE2:4788, V-A:PRO:540:CB:4880, V-A:PRO:540:CA:4878, V-A:PRO:540:CD:4882, V-A:ILE:538:CD1:4860, V-B:ARG:545:CZ:9894, V-A:ILE:538:CA:4855, V-B:GLU:543:CD:9876, V-B:HIS:456:CE1:9037, V-B:ARG:545:CD:9891, V-B:ARG:545:CG:9890, V-B:GLU:543:CB:9874, V-A:TYR:531:CE1:4787, V-A:ILE:538:CB:4857, V-A:TYR:539:CZ:4872, V-A:ILE:538:CG2:4858, V-A:ASP:366:CG:3208, H-A:TYR:531:OH:4790, V-B:ASP:366:CB:8179, V-B:ASP:366:CG:8180, H-A:TYR:539:OH:4873, V-B:ASP:366:C:8175, H-B:GLY:454:N:9017, V-B:ASP:366:CA:8177, V-B:GLY:454:CA:9016, V-A:ILE:538:CG1:4859"]

$$$$
RR1_Rahimova_2017
     RDKit          3D

 41 44  0  0  0  0  0  0  0  0999 V2000
  129.0890  130.7070   73.5440 C   0  0  0  0  0  0  0  0  0  0  0  0
  129.3720  129.3160   73.4420 O   0  0  0  0  0  0  0  0  0  0  0  0
  129.3800  128.7190   72.1960 C   0  0  0  0  0  0  0  0  0  0  0  0
  128.3870  127.8420   71.7320 C   0  0  0  0  0  0  0  0  0  0  0  0
  128.4830  127.2820   70.4620 C   0  0  0  0  0  0  0  0  0  0  0  0
  129.5630  127.5900   69.6340 C   0  0  0  0  0  0  0  0  0  0  0  0
  129.5940  126.9380   68.3860 N   0  0  0  0  0  0  0  0  0  0  0  0
  128.7070  126.9920   67.3700 C   0  0  0  0  0  0  0  0  0  0  0  0
  127.6380  127.6020   67.4040 O   0  0  0  0  0  0  0  0  0  0  0  0
  129.1230  126.2090   66.1150 C   0  0  0  0  0  0  0  0  0  0  0  0
  130.4180  124.9460   66.3720 S   0  0  0  0  0  0  0  0  0  0  0  0
  130.6920  124.5350   64.6810 C   0  0  0  0  0  0  0  0  0  0  0  0
  130.7380  123.3110   64.2200 N   0  0  0  0  0  0  0  0  0  0  0  0
  130.9490  123.4700   62.9170 C   0  0  0  0  0  0  0  0  0  0  0  0
  131.0580  122.3070   61.9730 C   0  0  0  0  0  0  0  0  0  0  0  0
  129.9450  121.5120   61.6550 C   0  0  0  0  0  0  0  0  0  0  0  0
  130.0780  120.4350   60.7760 C   0  0  0  0  0  0  0  0  0  0  0  0
  131.3330  120.1760   60.2290 C   0  0  0  0  0  0  0  0  0  0  0  0
  132.4300  120.9230   60.5130 N   0  0  0  0  0  0  0  0  0  0  0  0
  132.2790  121.9660   61.3690 C   0  0  0  0  0  0  0  0  0  0  0  0
  131.0500  124.7210   62.5090 N   0  0  0  0  0  0  0  0  0  0  0  0
  130.8870  125.4090   63.6430 N   0  0  0  0  0  0  0  0  0  0  0  0
  130.9060  126.8720   63.6350 C   0  0  0  0  0  0  0  0  0  0  0  0
  130.5650  127.5180   62.2810 C   0  0  0  0  0  0  0  0  0  0  0  0
  129.4670  127.3250   61.7460 O   0  0  0  0  0  0  0  0  0  0  0  0
  131.5410  128.2820   61.7540 N   0  0  0  0  0  0  0  0  0  0  0  0
  131.2540  129.0140   60.6100 N   0  0  0  0  0  0  0  0  0  0  0  0
  132.0880  130.0240   60.2810 C   0  0  0  0  0  0  0  0  0  0  0  0
  133.1440  130.2700   60.8740 O   0  0  0  0  0  0  0  0  0  0  0  0
  131.6700  130.8580   59.0880 C   0  0  0  0  0  0  0  0  0  0  0  0
  132.4670  130.8820   57.9380 C   0  0  0  0  0  0  0  0  0  0  0  0
  132.1080  131.6500   56.8360 C   0  0  0  0  0  0  0  0  0  0  0  0
  130.9390  132.4280   56.8530 C   0  0  0  0  0  0  0  0  0  0  0  0
  130.5330  133.2240   55.7960 O   0  0  0  0  0  0  0  0  0  0  0  0
  129.8480  132.6350   54.6970 C   0  0  0  0  0  0  0  0  0  0  0  0
  130.1310  132.4240   57.9970 C   0  0  0  0  0  0  0  0  0  0  0  0
  129.0010  133.2240   57.9710 O   0  0  0  0  0  0  0  0  0  0  0  0
  128.1830  133.3250   59.1310 C   0  0  0  0  0  0  0  0  0  0  0  0
  130.5020  131.6370   59.1030 C   0  0  0  0  0  0  0  0  0  0  0  0
  130.5580  128.4670   70.0930 C   0  0  0  0  0  0  0  0  0  0  0  0
  130.4570  129.0250   71.3640 C   0  0  0  0  0  0  0  0  0  0  0  0
  1  2  1  0
  2  3  1  0
  3  4  2  0
  4  5  1  0
  5  6  2  0
  6  7  1  0
  7  8  1  0
  8  9  2  0
  8 10  1  0
 10 11  1  0
 11 12  1  0
 12 13  2  0
 13 14  1  0
 14 15  1  0
 15 16  2  0
 16 17  1  0
 17 18  2  0
 18 19  1  0
 19 20  2  0
 14 21  2  0
 21 22  1  0
 22 23  1  0
 23 24  1  0
 24 25  2  0
 24 26  1  0
 26 27  1  0
 27 28  1  0
 28 29  2  0
 28 30  1  0
 30 31  2  0
 31 32  1  0
 32 33  2  0
 33 34  1  0
 34 35  1  0
 33 36  1  0
 36 37  1  0
 37 38  1  0
 36 39  2  0
  6 40  1  0
 40 41  2  0
 41  3  1  0
 22 12  1  0
 39 30  1  0
 20 15  1  0
M  END
>  <Binding energies>  (74) 
[-9.35]

>  <Ligand effiencies>  (74) 
[-0.2125]

>  <Interactions>  (74) 
["V-A:TYR:539:CE2:4871, H-A:GLU:543:OE2:4905, V-A:LEU:363:CD1:3184, V-A:TYR:539:CD2:4869, V-A:GLU:543:CD:4903, V-A:TYR:531:CE2:4788, V-A:PRO:540:CB:4880, V-A:PRO:540:CA:4878, V-A:PRO:540:CD:4882, V-A:PRO:540:N:4879, V-A:TYR:539:CG:4867, H-A:TYR:539:N:4865, V-A:TYR:539:CD1:4868, V-A:TYR:539:C:4862, V-A:ILE:538:CA:4855, V-A:HIS:456:CE1:4064, V-B:HIS:456:CD2:9035, H-A:LYS:547:NZ:4946, V-A:LYS:547:CE:4945, V-B:GLU:543:CD:9876, V-B:GLU:543:CG:9875, V-A:GLY:544:C:4907, V-B:GLU:543:CB:9874, V-A:GLU:543:C:4897, H-A:HIS:456:NE2:4065, V-A:TYR:539:CZ:4872, V-A:TYR:539:CE1:4870, V-B:TYR:539:CD2:9842, V-B:TYR:539:CE2:9844, V-A:LEU:475:CD2:4254, V-A:TRP:381:CH2:3367, V-B:ALA:541:CB:9860, H-A:TYR:484:OH:4343, H-A:GLU:543:OE1:4904, H-A:ASP:366:OD2:3210, H-A:ARG:545:NH2:4923"]

$$$$
RR22_Rahimova_2017
     RDKit          3D

 31 36  0  0  0  0  0  0  0  0999 V2000
  130.3760  118.6080   61.6090 O   0  0  0  0  0  0  0  0  0  0  0  0
  130.5740  119.8090   61.4420 C   0  0  0  0  0  0  0  0  0  0  0  0
  130.8910  120.4570   60.2610 N   0  0  0  0  0  0  0  0  0  0  0  0
  131.0310  121.8810   60.2250 C   0  0  1  0  0  0  0  0  0  0  0  0
  132.3380  122.1160   59.6940 O   0  0  0  0  0  0  0  0  0  0  0  0
  132.4510  122.8510   58.5140 C   0  0  0  0  0  0  0  0  0  0  0  0
  133.6640  122.7520   57.8330 C   0  0  0  0  0  0  0  0  0  0  0  0
  133.8670  123.4900   56.6660 C   0  0  0  0  0  0  0  0  0  0  0  0
  132.8620  124.3300   56.1870 C   0  0  0  0  0  0  0  0  0  0  0  0
  131.6470  124.4300   56.8690 C   0  0  0  0  0  0  0  0  0  0  0  0
  131.4210  123.6780   58.0260 C   0  0  0  0  0  0  0  0  0  0  0  0
  130.1610  123.7470   58.8590 C   0  0  1  0  0  0  0  0  0  0  0  0
  128.7980  124.0210   58.2540 C   0  0  0  0  0  0  0  0  0  0  0  0
  127.9150  123.2480   59.2370 C   0  0  0  0  0  0  0  0  0  0  0  0
  126.4620  123.4810   59.3580 C   0  0  0  0  0  0  0  0  0  0  0  0
  125.8590  123.5860   60.6200 C   0  0  0  0  0  0  0  0  0  0  0  0
  124.4880  123.8070   60.7280 C   0  0  0  0  0  0  0  0  0  0  0  0
  123.7140  123.9230   59.5770 C   0  0  0  0  0  0  0  0  0  0  0  0
  124.2970  123.8210   58.3170 C   0  0  0  0  0  0  0  0  0  0  0  0
  125.6680  123.6010   58.2070 C   0  0  0  0  0  0  0  0  0  0  0  0
  128.5980  122.3870   59.8930 N   0  0  0  0  0  0  0  0  0  0  0  0
  129.9280  122.4620   59.4450 N   0  0  0  0  0  0  0  0  0  0  0  0
  131.0450  122.3530   61.6720 C   0  0  0  0  0  0  0  0  0  0  0  0
  131.4960  123.5730   62.0440 C   0  0  0  0  0  0  0  0  0  0  0  0
  131.5470  124.1620   63.3970 C   0  0  0  0  0  0  0  0  0  0  0  0
  132.6310  124.9190   63.8640 C   0  0  0  0  0  0  0  0  0  0  0  0
  132.6090  125.4440   65.1560 C   0  0  0  0  0  0  0  0  0  0  0  0
  131.4970  125.1910   65.9590 C   0  0  0  0  0  0  0  0  0  0  0  0
  130.4390  124.4540   65.5380 N   0  0  0  0  0  0  0  0  0  0  0  0
  130.4780  123.9530   64.2760 C   0  0  0  0  0  0  0  0  0  0  0  0
  130.4970  121.0650   62.7550 S   0  0  0  0  0  0  0  0  0  0  0  0
  1  2  2  0
  2  3  1  0
  4  3  1  1
  4  5  1  0
  5  6  1  0
  6  7  2  0
  7  8  1  0
  8  9  2  0
  9 10  1  0
 10 11  2  0
 11 12  1  0
 12 13  1  6
 13 14  1  0
 14 15  1  0
 15 16  2  0
 16 17  1  0
 17 18  2  0
 18 19  1  0
 19 20  2  0
 14 21  2  0
 21 22  1  0
  4 23  1  0
 23 24  2  0
 24 25  1  0
 25 26  2  0
 26 27  1  0
 27 28  2  0
 28 29  1  0
 29 30  2  0
 23 31  1  0
 31  2  1  0
 22  4  1  0
 30 25  1  0
 11  6  1  0
 22 12  1  0
 20 15  1  0
M  END
>  <Binding energies>  (75) 
[-8.74]

>  <Ligand effiencies>  (75) 
[-0.273125]

>  <Interactions>  (75) 
["V-A:TYR:531:CZ:4789, V-B:GLU:543:CG:9875, V-A:TYR:484:CZ:4342, V-A:TYR:531:CE1:4787, V-B:TYR:539:CD2:9842, V-B:TYR:539:CE2:9844, V-B:TYR:539:CZ:9845, V-B:PRO:540:CB:9853, V-A:LEU:475:CD2:4254, V-B:PRO:540:CA:9851, V-B:ALA:541:CB:9860, V-B:ASN:362:CB:8143, V-B:PRO:540:N:9852, V-A:ILE:369:CD1:3234, H-B:TYR:539:O:9836, H-A:TYR:484:OH:4343, V-B:ASP:366:CG:8180, V-A:ASP:366:C:3203, V-B:LEU:363:CD1:8156, V-A:ARG:545:CZ:4921, V-A:ILE:369:CG2:3232, V-A:ILE:369:CB:3231, V-B:LEU:363:CB:8154, V-B:LEU:363:CA:8152, V-A:ASN:370:CB:3240, V-B:ASN:362:C:8139, V-A:ASN:370:CA:3238"]

$$$$
RR24_Rahimova_2017
     RDKit          3D

 43 49  0  0  0  0  0  0  0  0999 V2000
  129.7030  132.9760   54.6330 C   0  0  0  0  0  0  0  0  0  0  0  0
  129.6780  131.5180   55.1130 C   0  0  2  0  0  0  0  0  0  0  0  0
  128.2380  130.9710   55.3410 C   0  0  0  0  0  0  0  0  0  0  0  0
  127.4890  131.4340   56.2070 O   0  0  0  0  0  0  0  0  0  0  0  0
  127.9350  129.9320   54.5070 O   0  0  0  0  0  0  0  0  0  0  0  0
  128.0350  128.6390   54.9680 C   0  0  0  0  0  0  0  0  0  0  0  0
  127.5820  128.3340   56.2530 C   0  0  0  0  0  0  0  0  0  0  0  0
  127.6690  127.0280   56.7270 C   0  0  0  0  0  0  0  0  0  0  0  0
  128.2000  126.0210   55.9160 C   0  0  0  0  0  0  0  0  0  0  0  0
  128.3110  124.5880   56.4500 C   0  0  1  0  0  0  0  0  0  0  0  0
  129.7520  124.2490   56.8990 C   0  0  0  0  0  0  0  0  0  0  0  0
  130.0340  123.7220   58.1040 C   0  0  0  0  0  0  0  0  0  0  0  0
  129.0580  123.4480   59.0310 N   0  0  0  0  0  0  0  0  0  0  0  0
  127.7330  123.7020   58.7680 C   0  0  0  0  0  0  0  0  0  0  0  0
  126.8950  123.3670   59.7830 N   0  0  0  0  0  0  0  0  0  0  0  0
  125.5580  123.6180   59.7350 C   0  0  0  0  0  0  0  0  0  0  0  0
  124.9030  123.5940   60.7790 O   0  0  0  0  0  0  0  0  0  0  0  0
  125.1060  124.0460   58.4970 N   0  0  0  0  0  0  0  0  0  0  0  0
  123.6480  124.2460   58.3650 C   0  0  0  0  0  0  0  0  0  0  0  0
  125.8680  124.4160   57.4020 C   0  0  0  0  0  0  0  0  0  0  0  0
  125.3980  124.8400   56.3420 O   0  0  0  0  0  0  0  0  0  0  0  0
  127.3110  124.2390   57.5930 C   0  0  0  0  0  0  0  0  0  0  0  0
  131.4640  123.5080   58.2530 C   0  0  0  0  0  0  0  0  0  0  0  0
  132.2470  123.0020   59.2910 C   0  0  0  0  0  0  0  0  0  0  0  0
  133.6320  122.9210   59.1240 C   0  0  0  0  0  0  0  0  0  0  0  0
  134.2220  123.3420   57.9280 C   0  0  0  0  0  0  0  0  0  0  0  0
  133.4330  123.8480   56.8920 C   0  0  0  0  0  0  0  0  0  0  0  0
  132.0500  123.9270   57.0660 C   0  0  0  0  0  0  0  0  0  0  0  0
  130.9940  124.4090   56.1500 C   0  0  0  0  0  0  0  0  0  0  0  0
  131.0870  124.8550   55.0080 O   0  0  0  0  0  0  0  0  0  0  0  0
  128.6350  126.3270   54.6220 C   0  0  0  0  0  0  0  0  0  0  0  0
  128.5470  127.6320   54.1470 C   0  0  0  0  0  0  0  0  0  0  0  0
  130.5610  131.3010   56.2970 N   0  0  0  0  0  0  0  0  0  0  0  0
  131.8120  130.7750   56.1660 C   0  0  0  0  0  0  0  0  0  0  0  0
  132.3660  130.4120   55.1270 O   0  0  0  0  0  0  0  0  0  0  0  0
  132.3660  130.7290   57.5420 C   0  0  0  0  0  0  0  0  0  0  0  0
  133.6020  130.2850   58.0140 C   0  0  0  0  0  0  0  0  0  0  0  0
  133.8610  130.3640   59.3880 C   0  0  0  0  0  0  0  0  0  0  0  0
  132.8950  130.8810   60.2600 C   0  0  0  0  0  0  0  0  0  0  0  0
  131.6620  131.3210   59.7670 C   0  0  0  0  0  0  0  0  0  0  0  0
  131.4220  131.2330   58.3950 C   0  0  0  0  0  0  0  0  0  0  0  0
  130.2360  131.6150   57.5880 C   0  0  0  0  0  0  0  0  0  0  0  0
  129.1860  132.1130   57.9950 O   0  0  0  0  0  0  0  0  0  0  0  0
  2  1  1  1
  2  3  1  0
  3  4  2  0
  3  5  1  0
  5  6  1  0
  6  7  2  0
  7  8  1  0
  8  9  2  0
 10  9  1  1
 10 11  1  0
 11 12  2  0
 12 13  1  0
 13 14  1  0
 14 15  1  0
 15 16  1  0
 16 17  2  0
 16 18  1  0
 18 19  1  0
 18 20  1  0
 20 21  2  0
 20 22  1  0
 12 23  1  0
 23 24  2  0
 24 25  1  0
 25 26  2  0
 26 27  1  0
 27 28  2  0
 28 29  1  0
 29 30  2  0
  9 31  1  0
 31 32  2  0
  2 33  1  0
 33 34  1  0
 34 35  2  0
 34 36  1  0
 36 37  2  0
 37 38  1  0
 38 39  2  0
 39 40  1  0
 40 41  2  0
 41 42  1  0
 42 43  2  0
 32  6  1  0
 42 33  1  0
 22 10  1  0
 28 23  1  0
 41 36  1  0
 29 11  1  0
 22 14  2  0
M  END
>  <Binding energies>  (76) 
[-11.55]

>  <Ligand effiencies>  (76) 
[-0.2566666666666667]

>  <Interactions>  (76) 
["V-A:LEU:363:CD1:3184, V-A:TYR:531:CZ:4789, V-A:LEU:363:CA:3180, V-A:ASN:362:C:3167, V-A:TYR:531:CE2:4788, V-A:PRO:540:CB:4880, V-A:PRO:540:CA:4878, V-A:TYR:539:CD1:4868, V-A:ILE:538:CA:4855, V-A:TYR:531:CE1:4787, V-A:MET:535:CG:4828, V-A:TYR:539:CE1:4870, V-B:TYR:539:CE2:9844, V-B:TYR:539:CZ:9845, V-B:PRO:540:CB:9853, V-B:PRO:540:CA:9851, V-B:MET:535:CE:9803, V-A:ILE:369:CD1:3234, V-A:ASP:366:CG:3208, H-A:LYS:534:NZ:4818, H-A:TYR:531:OH:4790, V-B:ASP:366:CB:8179, V-B:ASP:366:CG:8180, H-B:TYR:539:OH:9846, H-A:TYR:539:OH:4873, H-B:TYR:531:OH:9763, V-A:ASP:366:CA:3205, V-A:ASP:366:CB:3207, V-A:ASP:366:C:3203, V-B:LEU:363:CD1:8156, H-B:GLU:543:OE2:9878, V-A:ILE:369:CG2:3232, V-A:ILE:369:CB:3231, V-B:LEU:363:CB:8154, V-B:LEU:363:CA:8152, V-A:VAL:537:C:4845, V-A:ILE:369:CG1:3233, V-A:ASN:370:CB:3240"]

$$$$
RR25_Rahimova_2017
     RDKit          3D

 39 44  0  0  0  0  0  0  0  0999 V2000
  129.6900  126.1880   53.7910 O   0  0  0  0  0  0  0  0  0  0  0  0
  129.1440  125.9250   54.8630 C   0  0  0  0  0  0  0  0  0  0  0  0
  129.1080  124.5990   55.2170 O   0  0  0  0  0  0  0  0  0  0  0  0
  128.7530  124.2020   56.4930 C   0  0  0  0  0  0  0  0  0  0  0  0
  129.2540  122.9770   56.9320 C   0  0  0  0  0  0  0  0  0  0  0  0
  128.9300  122.5110   58.2040 C   0  0  0  0  0  0  0  0  0  0  0  0
  128.0990  123.2580   59.0520 C   0  0  0  0  0  0  0  0  0  0  0  0
  127.7610  122.7640   60.4100 N   0  0  0  0  0  0  0  0  0  0  0  0
  128.5110  121.9500   60.9430 O   0  0  0  0  0  0  0  0  0  0  0  0
  126.7440  123.1850   60.9520 O   0  0  0  0  0  0  0  0  0  0  0  0
  127.5940  124.4840   58.5870 C   0  0  0  0  0  0  0  0  0  0  0  0
  127.9040  124.9610   57.3110 C   0  0  0  0  0  0  0  0  0  0  0  0
  127.3930  126.2830   56.7670 C   0  0  0  0  0  0  0  0  0  0  0  0
  128.4730  126.9240   55.8500 C   0  0  2  0  0  0  0  0  0  0  0  0
  127.9460  128.2340   55.1950 C   0  0  0  0  0  0  0  0  0  0  0  0
  126.7280  128.4200   55.2580 O   0  0  0  0  0  0  0  0  0  0  0  0
  128.7890  129.1860   54.6930 N   0  0  0  0  0  0  0  0  0  0  0  0
  130.1880  128.8970   54.3120 C   0  0  0  0  0  0  0  0  0  0  0  0
  131.0670  130.1140   54.6680 C   0  0  0  0  0  0  0  0  0  0  0  0
  130.5530  131.3430   54.0560 N   0  0  0  0  0  0  0  0  0  0  0  0
  131.4600  132.4770   54.2830 C   0  0  0  0  0  0  0  0  0  0  0  0
  132.3400  132.3000   55.5490 C   0  0  0  0  0  0  0  0  0  0  0  0
  131.6110  132.0180   56.8200 N   0  0  0  0  0  0  0  0  0  0  0  0
  132.1420  131.0070   57.5920 C   0  0  0  0  0  0  0  0  0  0  0  0
  133.1300  130.3440   57.2530 O   0  0  0  0  0  0  0  0  0  0  0  0
  131.4300  130.7770   58.9100 C   0  0  0  0  0  0  0  0  0  0  0  0
  131.9020  129.7890   59.7850 C   0  0  0  0  0  0  0  0  0  0  0  0
  131.2760  129.5570   61.0080 C   0  0  0  0  0  0  0  0  0  0  0  0
  130.1650  130.3030   61.3980 C   0  0  0  0  0  0  0  0  0  0  0  0
  129.6520  131.3110   60.5470 C   0  0  0  0  0  0  0  0  0  0  0  0
  128.5290  132.1050   60.8800 C   0  0  0  0  0  0  0  0  0  0  0  0
  128.0780  133.0840   59.9970 C   0  0  0  0  0  0  0  0  0  0  0  0
  128.7170  133.2980   58.7770 C   0  0  0  0  0  0  0  0  0  0  0  0
  129.8320  132.5360   58.4050 C   0  0  0  0  0  0  0  0  0  0  0  0
  130.2980  131.5380   59.2990 C   0  0  0  0  0  0  0  0  0  0  0  0
  130.5050  132.8040   57.0730 C   0  0  0  0  0  0  0  0  0  0  0  0
  130.0960  133.6720   56.2940 O   0  0  0  0  0  0  0  0  0  0  0  0
  129.2050  131.6200   54.5540 C   0  0  0  0  0  0  0  0  0  0  0  0
  128.2240  130.4710   54.2190 C   0  0  0  0  0  0  0  0  0  0  0  0
  1  2  2  0
  2  3  1  0
  3  4  1  0
  4  5  2  0
  5  6  1  0
  6  7  2  0
  7  8  1  0
  8  9  2  0
  8 10  1  0
  7 11  1  0
 11 12  2  0
 12 13  1  0
 13 14  1  0
 14 15  1  6
 15 16  2  0
 15 17  1  0
 17 18  1  0
 18 19  1  0
 19 20  1  0
 20 21  1  0
 21 22  1  0
 22 23  1  0
 23 24  1  0
 24 25  2  0
 24 26  1  0
 26 27  2  0
 27 28  1  0
 28 29  2  0
 29 30  1  0
 30 31  2  0
 31 32  1  0
 32 33  2  0
 33 34  1  0
 34 35  2  0
 34 36  1  0
 36 37  2  0
 20 38  1  0
 38 39  1  0
 14  2  1  0
 39 17  1  0
 12  4  1  0
 36 23  1  0
 35 26  1  0
 35 30  1  0
M  CHG  2   8   1  10  -1
M  END
>  <Binding energies>  (77) 
[-11.28]

>  <Ligand effiencies>  (77) 
[-0.28923076923076924]

>  <Interactions>  (77) 
["V-A:TYR:539:CE2:4871, V-A:LEU:363:CD1:3184, V-A:TYR:531:CZ:4789, V-A:TYR:539:CD2:4869, V-A:GLU:543:CD:4903, V-A:TYR:531:CE2:4788, V-A:PRO:540:CB:4880, V-A:PRO:540:CA:4878, V-A:PRO:540:CD:4882, V-A:PRO:540:N:4879, V-A:ILE:538:CD1:4860, V-A:TYR:539:CG:4867, H-A:TYR:539:N:4865, V-A:TYR:539:CD1:4868, V-A:TYR:539:C:4862, V-A:ILE:538:CA:4855, V-A:TYR:531:CE1:4787, V-A:ILE:538:CB:4857, V-A:MET:535:CB:4827, V-A:MET:535:CG:4828, V-A:TYR:539:CZ:4872, V-A:ILE:538:CG2:4858, V-A:TYR:539:CE1:4870, V-B:TYR:539:CD2:9842, V-B:TYR:539:CE2:9844, V-B:TYR:539:CZ:9845, V-B:PRO:540:CA:9851, V-B:TYR:539:CE1:9843, V-B:MET:535:CE:9803, V-B:PRO:540:C:9849, V-B:TYR:539:C:9835, H-A:LYS:534:NZ:4818, H-B:ALA:541:N:9859, H-A:TYR:531:OH:4790, H-B:TYR:531:OH:9763"]

$$$$
RR27_Rahimova_2017
     RDKit          3D

 39 44  0  0  0  0  0  0  0  0999 V2000
  130.0860  128.6500   56.8420 O   0  0  0  0  0  0  0  0  0  0  0  0
  129.8280  129.2110   57.9110 C   0  0  0  0  0  0  0  0  0  0  0  0
  130.3450  130.6630   58.1260 C   0  0  0  0  0  0  0  0  0  0  0  0
  130.4360  131.4730   56.8190 C   0  0  0  0  0  0  0  0  0  0  0  0
  131.5930  132.1850   56.4680 C   0  0  0  0  0  0  0  0  0  0  0  0
  131.6420  132.9050   55.2770 C   0  0  0  0  0  0  0  0  0  0  0  0
  130.5350  132.9160   54.4330 C   0  0  0  0  0  0  0  0  0  0  0  0
  129.3790  132.2170   54.7690 C   0  0  0  0  0  0  0  0  0  0  0  0
  129.3310  131.4980   55.9600 C   0  0  0  0  0  0  0  0  0  0  0  0
  131.6150  130.6950   58.9990 C   0  0  0  0  0  0  0  0  0  0  0  0
  132.8030  130.0720   58.5940 C   0  0  0  0  0  0  0  0  0  0  0  0
  133.9290  130.1100   59.4120 C   0  0  0  0  0  0  0  0  0  0  0  0
  133.8700  130.7650   60.6390 C   0  0  0  0  0  0  0  0  0  0  0  0
  132.6920  131.3790   61.0590 C   0  0  0  0  0  0  0  0  0  0  0  0
  131.5680  131.3400   60.2410 C   0  0  0  0  0  0  0  0  0  0  0  0
  128.9870  128.6520   58.8270 N   0  0  0  0  0  0  0  0  0  0  0  0
  128.8460  129.1450   60.2050 C   0  0  0  0  0  0  0  0  0  0  0  0
  129.9300  128.4360   61.0480 C   0  0  0  0  0  0  0  0  0  0  0  0
  129.8550  126.8790   60.9400 C   0  0  0  0  0  0  0  0  0  0  0  0
  130.9830  126.1270   61.6710 C   0  0  0  0  0  0  0  0  0  0  0  0
  131.3830  126.6460   62.8680 N   0  0  0  0  0  0  0  0  0  0  0  0
  132.3580  126.0040   63.5680 C   0  0  0  0  0  0  0  0  0  0  0  0
  132.8390  126.4240   64.7800 O   0  0  0  0  0  0  0  0  0  0  0  0
  132.9160  124.8290   63.0260 C   0  0  0  0  0  0  0  0  0  0  0  0
  133.8780  123.9610   63.4530 N   0  0  0  0  0  0  0  0  0  0  0  0
  134.0080  122.9840   62.4840 N   0  0  0  0  0  0  0  0  0  0  0  0
  133.1380  123.2420   61.4850 N   0  0  0  0  0  0  0  0  0  0  0  0
  133.0800  122.3760   60.3100 C   0  0  0  0  0  0  0  0  0  0  0  0
  132.7520  123.1160   59.0200 C   0  0  0  0  0  0  0  0  0  0  0  0
  133.7780  123.6400   58.2280 C   0  0  0  0  0  0  0  0  0  0  0  0
  133.4770  124.3080   57.0400 C   0  0  0  0  0  0  0  0  0  0  0  0
  132.1510  124.4500   56.6350 C   0  0  0  0  0  0  0  0  0  0  0  0
  131.1220  123.9200   57.4160 C   0  0  0  0  0  0  0  0  0  0  0  0
  129.4800  124.0710   56.9030 Cl  0  0  0  0  0  0  0  0  0  0  0  0
  131.4220  123.2590   58.6070 C   0  0  0  0  0  0  0  0  0  0  0  0
  132.4290  124.3960   61.7740 C   0  0  0  0  0  0  0  0  0  0  0  0
  131.4800  125.0110   61.0640 N   0  0  0  0  0  0  0  0  0  0  0  0
  129.6500  126.4070   59.4680 C   0  0  0  0  0  0  0  0  0  0  0  0
  128.5910  127.2400   58.7020 C   0  0  0  0  0  0  0  0  0  0  0  0
  1  2  2  0
  2  3  1  0
  3  4  1  0
  4  5  2  0
  5  6  1  0
  6  7  2  0
  7  8  1  0
  8  9  2  0
  3 10  1  0
 10 11  2  0
 11 12  1  0
 12 13  2  0
 13 14  1  0
 14 15  2  0
  2 16  1  0
 16 17  1  0
 17 18  1  0
 18 19  1  0
 19 20  1  0
 20 21  2  0
 21 22  1  0
 22 23  1  0
 22 24  2  0
 24 25  1  0
 25 26  2  0
 26 27  1  0
 27 28  1  0
 28 29  1  0
 29 30  2  0
 30 31  1  0
 31 32  2  0
 32 33  1  0
 33 34  1  0
 33 35  2  0
 27 36  1  0
 36 37  2  0
 19 38  1  0
 38 39  1  0
  9  4  1  0
 15 10  1  0
 39 16  1  0
 37 20  1  0
 36 24  1  0
 35 29  1  0
M  END
>  <Binding energies>  (78) 
[-10.28]

>  <Ligand effiencies>  (78) 
[-0.257]

>  <Interactions>  (78) 
["H-A:GLU:543:OE2:4905, V-A:LEU:363:CD1:3184, V-A:TYR:531:CZ:4789, V-A:LEU:363:CA:3180, V-A:ASN:362:C:3167, V-A:TYR:531:CE2:4788, V-A:PRO:540:CB:4880, V-A:PRO:540:CA:4878, V-A:PRO:540:CD:4882, V-A:ILE:538:CD1:4860, V-A:TYR:539:CD1:4868, V-A:ILE:538:CA:4855, V-A:TYR:531:CE1:4787, V-A:ILE:538:CB:4857, V-A:ILE:538:CG2:4858, V-A:TYR:539:CE1:4870, V-B:TYR:539:CE2:9844, V-B:TYR:539:CZ:9845, V-A:ILE:369:CD1:3234, V-A:ASP:366:CG:3208, H-A:TYR:484:OH:4343, H-A:TYR:531:OH:4790, V-A:ASP:366:CA:3205, V-A:ASP:366:CB:3207, V-A:ASP:366:C:3203, V-A:ARG:545:CZ:4921, V-A:ASN:362:CB:3171, H-A:GLU:543:OE1:4904, V-A:ILE:369:CB:3231, V-A:ASN:362:CA:3169, H-A:ARG:545:NE:4919, H-A:ARG:545:NH2:4923, V-A:ILE:538:C:4853, H-A:GLY:454:N:4045"]

$$$$
RR28_Rahimova_2017
     RDKit          3D

 46 49  0  0  0  0  0  0  0  0999 V2000
  129.8070  118.8370   61.0120 C   0  0  0  0  0  0  0  0  0  0  0  0
  130.2240  120.2880   60.7980 C   0  0  0  0  0  0  0  0  0  0  0  0
  131.4160  120.5870   60.8250 O   0  0  0  0  0  0  0  0  0  0  0  0
  129.2270  121.1710   60.5870 N   0  0  0  0  0  0  0  0  0  0  0  0
  129.3290  122.6300   60.3580 C   0  0  0  0  0  0  0  0  0  0  0  0
  130.2040  123.2390   61.4920 C   0  0  0  0  0  0  0  0  0  0  0  0
  131.2690  124.0900   61.1570 C   0  0  0  0  0  0  0  0  0  0  0  0
  132.0750  124.6490   62.1440 C   0  0  0  0  0  0  0  0  0  0  0  0
  131.8350  124.3700   63.4900 C   0  0  0  0  0  0  0  0  0  0  0  0
  132.7330  124.9900   64.5600 C   0  0  0  0  0  0  0  0  0  0  0  0
  133.8500  124.2850   64.7540 F   0  0  0  0  0  0  0  0  0  0  0  0
  133.0830  126.2280   64.2100 F   0  0  0  0  0  0  0  0  0  0  0  0
  132.0680  125.0420   65.7140 F   0  0  0  0  0  0  0  0  0  0  0  0
  130.7780  123.5240   63.8370 C   0  0  0  0  0  0  0  0  0  0  0  0
  129.9730  122.9640   62.8480 C   0  0  0  0  0  0  0  0  0  0  0  0
  127.9000  123.2720   60.2490 C   0  0  0  0  0  0  0  0  0  0  0  0
  127.1080  122.7960   59.0050 C   0  0  0  0  0  0  0  0  0  0  0  0
  127.9200  123.1540   57.8310 N   0  0  0  0  0  0  0  0  0  0  0  0
  127.7090  124.3330   57.1830 C   0  0  0  0  0  0  0  0  0  0  0  0
  126.7420  125.0550   57.4370 O   0  0  0  0  0  0  0  0  0  0  0  0
  128.6140  124.6980   55.9820 C   0  0  0  0  0  0  0  0  0  0  0  0
  129.3780  126.0460   56.0940 C   0  0  0  0  0  0  0  0  0  0  0  0
  128.5430  127.3040   55.7600 C   0  0  0  0  0  0  0  0  0  0  0  0
  128.0770  127.4040   54.6220 O   0  0  0  0  0  0  0  0  0  0  0  0
  128.2300  128.1890   56.7490 N   0  0  0  0  0  0  0  0  0  0  0  0
  128.9860  128.3010   58.0010 C   0  0  0  0  0  0  0  0  0  0  0  0
  130.1690  129.2530   57.7180 C   0  0  0  0  0  0  0  0  0  0  0  0
  129.7580  130.6670   57.1770 C   0  0  0  0  0  0  0  0  0  0  0  0
  130.9420  131.3190   56.5770 N   0  0  0  0  0  0  0  0  0  0  0  0
  131.0190  132.5350   56.0010 C   0  0  0  0  0  0  0  0  0  0  0  0
  132.3830  132.9360   55.4480 C   0  0  0  0  0  0  0  0  0  0  0  0
  130.0700  133.3120   55.9020 O   0  0  0  0  0  0  0  0  0  0  0  0
  129.3180  131.5280   58.4050 C   0  0  0  0  0  0  0  0  0  0  0  0
  130.1240  131.7010   59.5430 C   0  0  0  0  0  0  0  0  0  0  0  0
  129.6940  132.4770   60.6150 C   0  0  0  0  0  0  0  0  0  0  0  0
  128.4440  133.1000   60.5790 C   0  0  0  0  0  0  0  0  0  0  0  0
  127.9600  133.9590   61.7470 C   0  0  0  0  0  0  0  0  0  0  0  0
  128.5520  135.1550   61.7270 F   0  0  0  0  0  0  0  0  0  0  0  0
  126.6430  134.1340   61.6440 F   0  0  0  0  0  0  0  0  0  0  0  0
  128.2160  133.3930   62.9280 F   0  0  0  0  0  0  0  0  0  0  0  0
  127.6290  132.9320   59.4590 C   0  0  0  0  0  0  0  0  0  0  0  0
  128.0610  132.1550   58.3890 C   0  0  0  0  0  0  0  0  0  0  0  0
  128.6190  130.4940   56.0990 C   0  0  0  0  0  0  0  0  0  0  0  0
  127.5290  129.4380   56.4240 C   0  0  0  0  0  0  0  0  0  0  0  0
  129.1970  122.4300   57.7630 C   0  0  0  0  0  0  0  0  0  0  0  0
  130.0390  122.8760   58.9860 C   0  0  0  0  0  0  0  0  0  0  0  0
  1  2  1  0
  2  3  2  0
  2  4  1  0
  4  5  1  0
  5  6  1  0
  6  7  2  0
  7  8  1  0
  8  9  2  0
  9 10  1  0
 10 11  1  0
 10 12  1  0
 10 13  1  0
  9 14  1  0
 14 15  2  0
  5 16  1  0
 16 17  1  0
 17 18  1  0
 18 19  1  0
 19 20  2  0
 19 21  1  0
 21 22  1  0
 22 23  1  0
 23 24  2  0
 23 25  1  0
 25 26  1  0
 26 27  1  0
 27 28  1  0
 28 29  1  0
 29 30  1  0
 30 31  1  0
 30 32  2  0
 28 33  1  0
 33 34  2  0
 34 35  1  0
 35 36  2  0
 36 37  1  0
 37 38  1  0
 37 39  1  0
 37 40  1  0
 36 41  1  0
 41 42  2  0
 28 43  1  0
 43 44  1  0
 18 45  1  0
 45 46  1  0
 46  5  1  0
 15  6  1  0
 44 25  1  0
 42 33  1  0
M  END
>  <Binding energies>  (79) 
[-9.52]

>  <Ligand effiencies>  (79) 
[-0.19833333333333333]

>  <Interactions>  (79) 
["V-A:TYR:539:CE2:4871, V-A:LEU:363:CD1:3184, V-A:TYR:539:CD2:4869, V-B:LEU:475:CD2:9226, V-A:ALA:541:CB:4887, V-A:ALA:541:CA:4885, V-A:GLU:543:CD:4903, V-A:PRO:540:CB:4880, V-A:PRO:540:CA:4878, V-A:PRO:540:CD:4882, V-A:ILE:538:CD1:4860, H-A:TYR:539:N:4865, V-A:TYR:539:C:4862, V-A:ILE:538:CA:4855, V-A:TYR:484:CZ:4342, V-A:ILE:538:CB:4857, V-A:TYR:539:CZ:4872, V-A:ILE:538:CG2:4858, V-A:TYR:539:CE1:4870, V-A:PRO:540:C:4876, V-B:TYR:539:CD2:9842, V-B:TYR:539:CE2:9844, V-B:TYR:539:CZ:9845, V-B:PRO:540:CB:9853, V-A:LEU:475:CD2:4254, V-B:PRO:540:CA:9851, V-A:TRP:381:CZ2:3365, V-A:PRO:482:CG:4322, V-A:TRP:381:CH2:3367, V-A:PRO:482:CB:4321, V-B:MET:535:CE:9803, V-B:PRO:540:C:9849, V-B:ALA:541:CB:9860, V-B:TYR:539:C:9835, V-B:PRO:540:N:9852, V-B:TYR:539:CG:9840, H-B:TYR:539:O:9836, H-A:TYR:531:OH:4790, V-A:GLY:454:CA:4044, V-A:ARG:545:CZ:4921, V-A:GLY:453:C:4037, V-A:ARG:545:CD:4918"]

$$$$
RR29_Rahimova_2017
     RDKit          3D

 18 19  0  0  0  0  0  0  0  0999 V2000
  129.5080  120.8900   60.7130 C   0  0  0  0  0  0  0  0  0  0  0  0
  128.8590  122.1310   61.3100 C   0  0  0  0  0  0  0  0  0  0  0  0
  129.6290  122.6880   62.5280 C   0  0  0  0  0  0  0  0  0  0  0  0
  130.1130  124.1330   62.2840 C   0  0  0  0  0  0  0  0  0  0  0  0
  131.4270  124.4280   62.9920 C   0  0  0  0  0  0  0  0  0  0  0  0
  132.6420  124.3520   62.2820 C   0  0  0  0  0  0  0  0  0  0  0  0
  133.8630  124.6210   62.9150 C   0  0  0  0  0  0  0  0  0  0  0  0
  133.8280  124.9530   64.2650 C   0  0  0  0  0  0  0  0  0  0  0  0
  132.6530  125.0260   64.9580 C   0  0  0  0  0  0  0  0  0  0  0  0
  131.4260  124.7750   64.3540 C   0  0  0  0  0  0  0  0  0  0  0  0
  132.9100  125.4020   66.2390 O   0  0  0  0  0  0  0  0  0  0  0  0
  134.3060  125.3510   66.3760 C   0  0  0  0  0  0  0  0  0  0  0  0
  134.8580  125.2810   65.0890 O   0  0  0  0  0  0  0  0  0  0  0  0
  127.7790  122.5730   60.7800 N   0  0  0  0  0  0  0  0  0  0  0  0
  127.1430  123.6440   61.3700 N   0  0  0  0  0  0  0  0  0  0  0  0
  126.1780  124.3640   60.7760 C   0  0  0  0  0  0  0  0  0  0  0  0
  125.6950  124.1320   59.5550 N   0  0  0  0  0  0  0  0  0  0  0  0
  125.6640  125.3810   61.4520 N   0  0  0  0  0  0  0  0  0  0  0  0
  1  2  1  0
  2  3  1  0
  3  4  1  0
  4  5  1  0
  5  6  2  0
  6  7  1  0
  7  8  2  0
  8  9  1  0
  9 10  2  0
  9 11  1  0
 11 12  1  0
 12 13  1  0
  2 14  2  0
 14 15  1  0
 15 16  1  0
 16 17  1  0
 16 18  2  0
 10  5  1  0
 13  8  1  0
M  CHG  1  18   1
M  END
>  <Binding energies>  (80) 
[-7.18]

>  <Ligand effiencies>  (80) 
[-0.31217391304347825]

>  <Interactions>  (80) 
["V-B:GLU:543:CD:9876, H-A:HIS:456:NE2:4065, V-B:PRO:540:CB:9853, V-B:PRO:540:CA:9851, H-B:ASP:366:OD2:8182, V-B:ALA:541:CB:9860, V-B:TYR:539:C:9835, V-A:ASP:366:CG:3208, H-B:ALA:541:N:9859, H-A:TYR:484:OH:4343, V-B:ASP:366:CG:8180, H-B:GLU:543:OE1:9877, H-B:GLU:543:OE2:9878, V-A:ARG:545:CZ:4921, H-B:ASP:366:OD1:8181, H-A:ARG:545:NE:4919, V-A:HIS:456:CD2:4063, V-A:ARG:545:CG:4917, H-A:GLY:454:N:4045, V-A:ARG:545:CD:4918, H-A:ARG:545:NH1:4922"]

$$$$
RR30_Rahimova_2017
     RDKit          3D

 18 19  0  0  0  0  0  0  0  0999 V2000
  133.5890  131.4080   61.1740 C   0  0  0  0  0  0  0  0  0  0  0  0
  132.2060  130.9510   60.6900 C   0  0  0  0  0  0  0  0  0  0  0  0
  131.0900  131.7960   61.2630 C   0  0  0  0  0  0  0  0  0  0  0  0
  130.9080  132.1640   62.5070 N   0  0  0  0  0  0  0  0  0  0  0  0
  129.7390  132.9200   62.5160 N   0  0  0  0  0  0  0  0  0  0  0  0
  129.3100  132.9370   61.2790 C   0  0  0  0  0  0  0  0  0  0  0  0
  127.8750  133.7470   60.6500 S   0  0  0  0  0  0  0  0  0  0  0  0
  127.1410  132.3830   59.6920 C   0  0  0  0  0  0  0  0  0  0  0  0
  127.8770  132.1410   58.3720 C   0  0  0  0  0  0  0  0  0  0  0  0
  127.4510  131.2870   57.5920 O   0  0  0  0  0  0  0  0  0  0  0  0
  128.9900  132.8820   58.1720 N   0  0  0  0  0  0  0  0  0  0  0  0
  129.8200  132.8390   57.0610 C   0  0  0  0  0  0  0  0  0  0  0  0
  129.8500  133.6590   56.0350 N   0  0  0  0  0  0  0  0  0  0  0  0
  130.8170  133.3050   55.1040 N   0  0  0  0  0  0  0  0  0  0  0  0
  131.4960  132.2320   55.4400 C   0  0  0  0  0  0  0  0  0  0  0  0
  132.5990  131.6480   54.5870 C   0  0  0  0  0  0  0  0  0  0  0  0
  130.9900  131.5590   56.9660 S   0  0  0  0  0  0  0  0  0  0  0  0
  130.1180  132.2500   60.4320 O   0  0  0  0  0  0  0  0  0  0  0  0
  1  2  1  0
  2  3  1  0
  3  4  2  0
  4  5  1  0
  5  6  2  0
  6  7  1  0
  7  8  1  0
  8  9  1  0
  9 10  2  0
  9 11  1  0
 11 12  1  0
 12 13  2  0
 13 14  1  0
 14 15  2  0
 15 16  1  0
 15 17  1  0
  6 18  1  0
 18  3  1  0
 17 12  1  0
M  END
>  <Binding energies>  (81) 
[-7.01]

>  <Ligand effiencies>  (81) 
[-0.36894736842105263]

>  <Interactions>  (81) 
["H-A:ALA:541:N:4886, V-A:TYR:539:CE2:4871, V-A:LEU:363:CD1:3184, V-A:TYR:539:CD2:4869, V-A:ALA:541:CB:4887, V-A:ASN:362:C:3167, V-A:TYR:531:CE2:4788, V-A:PRO:540:CB:4880, V-A:PRO:540:CA:4878, V-A:PRO:540:CD:4882, V-A:PRO:540:N:4879, V-A:ILE:538:CD1:4860, V-A:TYR:539:CG:4867, H-A:TYR:539:N:4865, V-A:TYR:539:CD1:4868, V-A:TYR:539:C:4862, H-A:TYR:539:O:4863, V-A:TYR:539:CZ:4872, V-A:TYR:539:CE1:4870, V-A:PRO:540:C:4876, H-A:TYR:539:OH:4873, V-A:ASN:362:CB:3171"]

$$$$
RR31_Rahimova_2017
     RDKit          3D

 18 19  0  0  0  0  0  0  0  0999 V2000
  127.3040  133.6130   63.5580 C   0  0  0  0  0  0  0  0  0  0  0  0
  128.0120  133.3430   62.2380 C   0  0  0  0  0  0  0  0  0  0  0  0
  129.1070  132.4780   62.2170 C   0  0  0  0  0  0  0  0  0  0  0  0
  129.7750  132.2080   61.0240 C   0  0  0  0  0  0  0  0  0  0  0  0
  129.3620  132.7890   59.8140 C   0  0  0  0  0  0  0  0  0  0  0  0
  130.0270  132.5360   58.6120 N   0  0  0  0  0  0  0  0  0  0  0  0
  131.1090  131.5380   58.5120 C   0  0  0  0  0  0  0  0  0  0  0  0
  131.9880  131.6840   57.2470 C   0  0  0  0  0  0  0  0  0  0  0  0
  131.1680  131.6420   56.0330 N   0  0  0  0  0  0  0  0  0  0  0  0
  131.9780  131.7430   54.8140 C   0  0  0  0  0  0  0  0  0  0  0  0
  131.6630  130.6360   53.7880 C   0  0  0  0  0  0  0  0  0  0  0  0
  130.5690  129.6770   54.2830 C   0  0  0  0  0  0  0  0  0  0  0  0
  130.8650  129.2420   55.7230 N   0  0  0  0  0  0  0  0  0  0  0  0
  130.2330  132.7650   56.0970 C   0  0  0  0  0  0  0  0  0  0  0  0
  129.3060  132.6360   57.3270 C   0  0  0  0  0  0  0  0  0  0  0  0
  128.2650  133.6630   59.8510 C   0  0  0  0  0  0  0  0  0  0  0  0
  127.5870  133.9430   61.0420 C   0  0  0  0  0  0  0  0  0  0  0  0
  126.4050  134.9050   61.0160 C   0  0  0  0  0  0  0  0  0  0  0  0
  1  2  1  0
  2  3  2  0
  3  4  1  0
  4  5  2  0
  5  6  1  0
  6  7  1  0
  7  8  1  0
  8  9  1  0
  9 10  1  0
 10 11  1  0
 11 12  1  0
 12 13  1  0
  9 14  1  0
 14 15  1  0
  5 16  1  0
 16 17  2  0
 17 18  1  0
 17  2  1  0
 15  6  1  0
M  CHG  1  13   1
M  END
>  <Binding energies>  (82) 
[-5.86]

>  <Ligand effiencies>  (82) 
[-0.27904761904761904]

>  <Interactions>  (82) 
["V-A:TYR:539:CE2:4871, V-A:LEU:363:CD1:3184, V-A:TYR:531:CZ:4789, V-A:TYR:539:CD2:4869, V-B:LEU:475:CD2:9226, V-A:ALA:541:CB:4887, V-A:TYR:531:CE2:4788, V-A:PRO:540:CB:4880, V-A:PRO:540:CA:4878, V-A:PRO:540:N:4879, V-B:LEU:475:CD1:9225, V-A:ILE:538:CD1:4860, V-A:TYR:539:CG:4867, V-A:TYR:539:CD1:4868, V-A:TYR:539:C:4862, V-A:TYR:531:CE1:4787, V-A:TYR:539:CE1:4870, V-B:TRP:381:CH2:8339, H-A:TYR:531:OH:4790"]

$$$$
RR32_Rahimova_2017
     RDKit          3D

 18 20  0  0  0  0  0  0  0  0999 V2000
  133.3690  130.4040   58.1240 C   0  0  0  0  0  0  0  0  0  0  0  0
  132.0730  131.1850   57.9350 C   0  0  0  0  0  0  0  0  0  0  0  0
  131.2760  131.4220   59.0550 C   0  0  0  0  0  0  0  0  0  0  0  0
  130.0880  132.1340   58.9210 C   0  0  0  0  0  0  0  0  0  0  0  0
  129.3000  132.3670   60.0350 N   0  0  0  0  0  0  0  0  0  0  0  0
  129.9260  132.1810   61.3570 C   0  0  0  0  0  0  0  0  0  0  0  0
  128.9220  132.2860   62.5290 C   0  0  0  0  0  0  0  0  0  0  0  0
  128.2550  133.5870   62.5080 N   0  0  0  0  0  0  0  0  0  0  0  0
  127.3320  133.6990   63.6310 C   0  0  0  0  0  0  0  0  0  0  0  0
  127.5310  133.7030   61.2430 C   0  0  0  0  0  0  0  0  0  0  0  0
  128.5130  133.6150   60.0520 C   0  0  0  0  0  0  0  0  0  0  0  0
  129.6550  132.6190   57.7290 N   0  0  0  0  0  0  0  0  0  0  0  0
  130.4090  132.4020   56.6170 C   0  0  0  0  0  0  0  0  0  0  0  0
  129.9330  132.9160   55.3870 C   0  0  0  0  0  0  0  0  0  0  0  0
  130.6610  132.7250   54.2180 C   0  0  0  0  0  0  0  0  0  0  0  0
  131.8640  132.0290   54.2440 C   0  0  0  0  0  0  0  0  0  0  0  0
  132.3600  131.5100   55.4360 C   0  0  0  0  0  0  0  0  0  0  0  0
  131.6470  131.6810   56.6580 C   0  0  0  0  0  0  0  0  0  0  0  0
  1  2  1  0
  2  3  2  0
  3  4  1  0
  4  5  1  0
  5  6  1  0
  6  7  1  0
  7  8  1  0
  8  9  1  0
  8 10  1  0
 10 11  1  0
  4 12  2  0
 12 13  1  0
 13 14  2  0
 14 15  1  0
 15 16  2  0
 16 17  1  0
 17 18  2  0
 18  2  1  0
 11  5  1  0
 18 13  1  0
M  END
>  <Binding energies>  (83) 
[-6.54]

>  <Ligand effiencies>  (83) 
[-0.36333333333333334]

>  <Interactions>  (83) 
["H-A:ALA:541:N:4886, V-A:TYR:539:CE2:4871, V-A:LEU:363:CD1:3184, V-A:TYR:531:CZ:4789, V-A:TYR:539:CD2:4869, V-B:LEU:475:CD2:9226, V-A:LEU:363:CA:3180, V-A:ALA:541:CB:4887, V-A:TYR:531:CE2:4788, V-A:PRO:540:CB:4880, V-A:PRO:540:CA:4878, V-A:PRO:540:N:4879, V-B:LEU:475:CD1:9225, V-A:ILE:538:CD1:4860, V-A:TYR:539:CD1:4868, V-A:TYR:539:C:4862, V-A:ILE:538:CA:4855, V-A:ILE:538:CG2:4858, V-A:TYR:539:CE1:4870, V-B:TYR:484:CZ:9314"]

$$$$
RR5_Rahimova_2017
     RDKit          3D

 45 50  0  0  0  0  0  0  0  0999 V2000
  127.9250  125.9320   55.9730 O   0  0  0  0  0  0  0  0  0  0  0  0
  129.0260  126.4760   56.0420 C   0  0  0  0  0  0  0  0  0  0  0  0
  129.3700  127.6290   55.0790 C   0  0  0  0  0  0  0  0  0  0  0  0
  128.4480  128.8900   55.2370 C   0  0  2  0  0  0  0  0  0  0  0  0
  128.3930  129.4560   56.6000 N   0  0  0  0  0  0  0  0  0  0  0  0
  129.4460  129.3060   57.4920 C   0  0  0  0  0  0  0  0  0  0  0  0
  130.5280  128.7560   57.2690 O   0  0  0  0  0  0  0  0  0  0  0  0
  129.0880  129.8540   58.6660 O   0  0  0  0  0  0  0  0  0  0  0  0
  128.8170  131.2480   58.7830 C   0  0  0  0  0  0  0  0  0  0  0  0
  130.0880  132.0800   58.5030 C   0  0  0  0  0  0  0  0  0  0  0  0
  131.3640  131.4290   59.0030 C   0  0  0  0  0  0  0  0  0  0  0  0
  131.7100  131.0270   60.2970 C   0  0  0  0  0  0  0  0  0  0  0  0
  132.9450  130.4190   60.5290 C   0  0  0  0  0  0  0  0  0  0  0  0
  133.8360  130.2150   59.4740 C   0  0  0  0  0  0  0  0  0  0  0  0
  133.4940  130.6180   58.1810 C   0  0  0  0  0  0  0  0  0  0  0  0
  132.2580  131.2250   57.9510 C   0  0  0  0  0  0  0  0  0  0  0  0
  131.6510  131.7470   56.7170 C   0  0  0  0  0  0  0  0  0  0  0  0
  132.1320  131.7990   55.4060 C   0  0  0  0  0  0  0  0  0  0  0  0
  131.3490  132.3780   54.4070 C   0  0  0  0  0  0  0  0  0  0  0  0
  130.0910  132.9000   54.7150 C   0  0  0  0  0  0  0  0  0  0  0  0
  129.6130  132.8430   56.0250 C   0  0  0  0  0  0  0  0  0  0  0  0
  130.3920  132.2610   57.0280 C   0  0  0  0  0  0  0  0  0  0  0  0
  127.0120  128.5870   54.7400 C   0  0  0  0  0  0  0  0  0  0  0  0
  126.7400  127.8350   53.8260 O   0  0  0  0  0  0  0  0  0  0  0  0
  126.1090  129.2760   55.4980 O   0  0  0  0  0  0  0  0  0  0  0  0
  129.9870  126.1630   56.9400 N   0  0  0  0  0  0  0  0  0  0  0  0
  130.0810  125.1470   58.0310 C   0  0  0  0  0  0  0  0  0  0  0  0
  128.8280  124.2500   57.7520 C   0  0  0  0  0  0  0  0  0  0  0  0
  127.6260  124.4280   58.4580 C   0  0  0  0  0  0  0  0  0  0  0  0
  126.5190  123.6250   58.1990 C   0  0  0  0  0  0  0  0  0  0  0  0
  126.5970  122.6240   57.2380 C   0  0  0  0  0  0  0  0  0  0  0  0
  127.7730  122.4260   56.5230 C   0  0  0  0  0  0  0  0  0  0  0  0
  128.8760  123.2360   56.7750 C   0  0  0  0  0  0  0  0  0  0  0  0
  131.4290  124.3760   57.8370 C   0  0  0  0  0  0  0  0  0  0  0  0
  131.8580  123.3990   58.7490 C   0  0  0  0  0  0  0  0  0  0  0  0
  133.0710  122.7380   58.5660 C   0  0  0  0  0  0  0  0  0  0  0  0
  133.8710  123.0490   57.4710 C   0  0  0  0  0  0  0  0  0  0  0  0
  133.4650  124.0110   56.5520 C   0  0  0  0  0  0  0  0  0  0  0  0
  132.2490  124.6630   56.7310 C   0  0  0  0  0  0  0  0  0  0  0  0
  129.9720  125.9420   59.3760 C   0  0  0  0  0  0  0  0  0  0  0  0
  130.9060  125.7480   60.4100 C   0  0  0  0  0  0  0  0  0  0  0  0
  130.8090  126.4460   61.6110 C   0  0  0  0  0  0  0  0  0  0  0  0
  129.7770  127.3580   61.7970 C   0  0  0  0  0  0  0  0  0  0  0  0
  128.8470  127.5820   60.7890 C   0  0  0  0  0  0  0  0  0  0  0  0
  128.9470  126.8820   59.5900 C   0  0  0  0  0  0  0  0  0  0  0  0
  1  2  2  0
  2  3  1  0
  4  3  1  1
  4  5  1  0
  5  6  1  0
  6  7  2  0
  6  8  1  0
  8  9  1  0
  9 10  1  0
 10 11  1  0
 11 12  2  0
 12 13  1  0
 13 14  2  0
 14 15  1  0
 15 16  2  0
 16 17  1  0
 17 18  2  0
 18 19  1  0
 19 20  2  0
 20 21  1  0
 21 22  2  0
  4 23  1  0
 23 24  2  0
 23 25  1  0
  2 26  1  0
 26 27  1  0
 27 28  1  0
 28 29  2  0
 29 30  1  0
 30 31  2  0
 31 32  1  0
 32 33  2  0
 27 34  1  0
 34 35  2  0
 35 36  1  0
 36 37  2  0
 37 38  1  0
 38 39  2  0
 27 40  1  0
 40 41  2  0
 41 42  1  0
 42 43  2  0
 43 44  1  0
 44 45  2  0
 22 10  1  0
 33 28  1  0
 39 34  1  0
 45 40  1  0
 16 11  1  0
 22 17  1  0
M  END
>  <Binding energies>  (84) 
[-10.2]

>  <Ligand effiencies>  (84) 
[-0.2125]

>  <Interactions>  (84) 
["V-A:LEU:363:CB:3182, V-A:LEU:363:CD1:3184, V-A:TYR:531:CZ:4789, V-A:LEU:363:CA:3180, V-A:ASN:362:C:3167, V-A:TYR:531:CE2:4788, V-A:PRO:540:CB:4880, V-A:PRO:540:CA:4878, V-A:PRO:540:N:4879, V-A:ILE:538:CD1:4860, V-A:TYR:539:CG:4867, V-A:TYR:539:CD1:4868, V-A:ILE:538:CA:4855, V-A:TYR:531:CE1:4787, V-A:MET:535:CG:4828, V-A:ILE:538:CG2:4858, V-A:TYR:539:CE1:4870, V-B:TYR:539:CE2:9844, V-B:TYR:539:CZ:9845, V-B:PRO:540:CA:9851, V-B:TYR:539:CE1:9843, V-B:MET:535:CE:9803, V-B:TYR:539:CD1:9841, V-B:TYR:539:C:9835, V-B:PRO:540:N:9852, V-B:TYR:539:CG:9840, V-B:TYR:531:CZ:9762, V-A:ILE:369:CD1:3234, V-A:ASP:366:CG:3208, H-A:TYR:531:OH:4790, V-B:PRO:540:CD:9855, H-B:TYR:531:OH:9763, V-A:ASP:366:CB:3207, V-A:ASP:366:C:3203, V-A:ILE:369:CG2:3232, V-A:ILE:369:CB:3231, V-A:ASN:370:CB:3240"]

$$$$
