1a_Ghoteimi_2023
     RDKit          3D

 67 70  0  0  0  0  0  0  0  0999 V2000
  132.3180  131.7490   56.7460 C   0  0  0  0  0  0  0  0  0  0  0  0
  131.1450  132.1300   55.8390 C   0  0  0  0  0  0  0  0  0  0  0  0
  130.2120  132.9100   56.5770 O   0  0  0  0  0  0  0  0  0  0  0  0
  128.9570  132.4560   56.8230 C   0  0  0  0  0  0  0  0  0  0  0  0
  128.0920  132.3360   55.9490 O   0  0  0  0  0  0  0  0  0  0  0  0
  128.7250  132.1080   58.2660 C   0  0  0  0  0  0  0  0  0  0  0  0
  127.4420  132.1160   58.8340 C   0  0  0  0  0  0  0  0  0  0  0  0
  127.2590  131.7920   60.1760 C   0  0  0  0  0  0  0  0  0  0  0  0
  128.3600  131.4490   60.9750 C   0  0  0  0  0  0  0  0  0  0  0  0
  128.2910  131.1100   62.3400 N   0  0  0  0  0  0  0  0  0  0  0  0
  127.6530  131.7330   63.3550 C   0  0  0  0  0  0  0  0  0  0  0  0
  126.9710  132.7520   63.2540 O   0  0  0  0  0  0  0  0  0  0  0  0
  127.8100  131.0800   64.7280 C   0  0  0  0  0  0  0  0  0  0  0  0
  127.0570  129.4270   64.7780 S   0  0  0  0  0  0  0  0  0  0  0  0
  128.3110  128.3300   65.4000 C   0  0  0  0  0  0  0  0  0  0  0  0
  128.3680  128.2710   66.7520 N   0  0  0  0  0  0  0  0  0  0  0  0
  129.2810  127.4650   67.3550 C   0  0  0  0  0  0  0  0  0  0  0  0
  129.2670  127.4390   68.8560 C   0  0  0  0  0  0  0  0  0  0  0  0
  128.2020  126.8620   69.5660 C   0  0  0  0  0  0  0  0  0  0  0  0
  128.1920  126.8390   70.9580 C   0  0  0  0  0  0  0  0  0  0  0  0
  129.2450  127.3920   71.6830 C   0  0  0  0  0  0  0  0  0  0  0  0
  129.1520  127.3220   73.0600 O   0  0  0  0  0  0  0  0  0  0  0  0
  127.9540  127.7500   73.6980 C   0  0  0  0  0  0  0  0  0  0  0  0
  130.3140  127.9750   70.9890 C   0  0  0  0  0  0  0  0  0  0  0  0
  130.3200  127.9970   69.5980 C   0  0  0  0  0  0  0  0  0  0  0  0
  130.1660  126.6950   66.5900 C   0  0  0  0  0  0  0  0  0  0  0  0
  130.1430  126.7580   65.1910 C   0  0  0  0  0  0  0  0  0  0  0  0
  131.1370  125.9320   64.4410 C   0  0  0  0  0  0  0  0  0  0  0  0
  132.4640  125.8390   64.8740 C   0  0  0  0  0  0  0  0  0  0  0  0
  133.3810  125.0560   64.1780 C   0  0  0  0  0  0  0  0  0  0  0  0
  132.9900  124.3460   63.0430 C   0  0  0  0  0  0  0  0  0  0  0  0
  133.9670  123.5960   62.4200 O   0  0  0  0  0  0  0  0  0  0  0  0
  133.9810  123.5170   60.9980 C   0  0  0  0  0  0  0  0  0  0  0  0
  131.6580  124.4310   62.6110 C   0  0  0  0  0  0  0  0  0  0  0  0
  130.7430  125.2150   63.3070 C   0  0  0  0  0  0  0  0  0  0  0  0
  129.1860  127.5960   64.5700 C   0  0  0  0  0  0  0  0  0  0  0  0
  129.1030  127.6930   63.1090 C   0  0  0  0  0  0  0  0  0  0  0  0
  129.0380  127.7680   61.9560 N   0  0  0  0  0  0  0  0  0  0  0  0
  129.6370  131.4440   60.4140 C   0  0  0  0  0  0  0  0  0  0  0  0
  129.8190  131.7680   59.0710 C   0  0  0  0  0  0  0  0  0  0  0  0
  132.0146  131.8476   57.7987 H   0  0  0  0  0  0  0  0  0  0  0  0
  132.6137  130.7086   56.5455 H   0  0  0  0  0  0  0  0  0  0  0  0
  133.1686  132.4171   56.5455 H   0  0  0  0  0  0  0  0  0  0  0  0
  131.5166  132.7139   54.9840 H   0  0  0  0  0  0  0  0  0  0  0  0
  130.6525  131.2175   55.4719 H   0  0  0  0  0  0  0  0  0  0  0  0
  126.5729  132.3806   58.2137 H   0  0  0  0  0  0  0  0  0  0  0  0
  126.2486  131.8051   60.6107 H   0  0  0  0  0  0  0  0  0  0  0  0
  128.7690  130.2530   62.5750 H   0  0  0  0  0  0  0  0  0  0  0  0
  128.8816  130.9904   64.9594 H   0  0  0  0  0  0  0  0  0  0  0  0
  127.2976  131.7121   65.4682 H   0  0  0  0  0  0  0  0  0  0  0  0
  127.3603  126.4202   69.0125 H   0  0  0  0  0  0  0  0  0  0  0  0
  127.3454  126.3802   71.4898 H   0  0  0  0  0  0  0  0  0  0  0  0
  128.0832  127.7039   74.7894 H   0  0  0  0  0  0  0  0  0  0  0  0
  127.7286  128.7843   73.3989 H   0  0  0  0  0  0  0  0  0  0  0  0
  127.1243  127.0927   73.3989 H   0  0  0  0  0  0  0  0  0  0  0  0
  131.1524  128.4174   71.5469 H   0  0  0  0  0  0  0  0  0  0  0  0
  131.1660  128.4605   69.0694 H   0  0  0  0  0  0  0  0  0  0  0  0
  130.8868  126.0337   67.0932 H   0  0  0  0  0  0  0  0  0  0  0  0
  132.7853  126.3886   65.7710 H   0  0  0  0  0  0  0  0  0  0  0  0
  134.4227  124.9968   64.5262 H   0  0  0  0  0  0  0  0  0  0  0  0
  134.1653  122.4771   60.6903 H   0  0  0  0  0  0  0  0  0  0  0  0
  133.0099  123.8497   60.6027 H   0  0  0  0  0  0  0  0  0  0  0  0
  134.7786  124.1632   60.6027 H   0  0  0  0  0  0  0  0  0  0  0  0
  131.3355  123.8754   61.7181 H   0  0  0  0  0  0  0  0  0  0  0  0
  129.7000  125.2712   62.9619 H   0  0  0  0  0  0  0  0  0  0  0  0
  130.5060  131.1826   61.0357 H   0  0  0  0  0  0  0  0  0  0  0  0
  130.8308  131.7566   58.6396 H   0  0  0  0  0  0  0  0  0  0  0  0
  1  2  1  0
  2  3  1  0
  3  4  1  0
  4  5  2  0
  4  6  1  0
  6  7  2  0
  7  8  1  0
  8  9  2  0
  9 10  1  0
 10 11  1  0
 11 12  2  0
 11 13  1  0
 13 14  1  0
 14 15  1  0
 15 16  2  0
 16 17  1  0
 17 18  1  0
 18 19  2  0
 19 20  1  0
 20 21  2  0
 21 22  1  0
 22 23  1  0
 21 24  1  0
 24 25  2  0
 17 26  2  0
 26 27  1  0
 27 28  1  0
 28 29  2  0
 29 30  1  0
 30 31  2  0
 31 32  1  0
 32 33  1  0
 31 34  1  0
 34 35  2  0
 27 36  2  0
 36 37  1  0
 37 38  3  0
  9 39  1  0
 39 40  2  0
 40  6  1  0
 36 15  1  0
 25 18  1  0
 35 28  1  0
  1 41  1  0
  1 42  1  0
  1 43  1  0
  2 44  1  0
  2 45  1  0
  7 46  1  0
  8 47  1  0
 10 48  1  0
 13 49  1  0
 13 50  1  0
 19 51  1  0
 20 52  1  0
 23 53  1  0
 23 54  1  0
 23 55  1  0
 24 56  1  0
 25 57  1  0
 26 58  1  0
 29 59  1  0
 30 60  1  0
 33 61  1  0
 33 62  1  0
 33 63  1  0
 34 64  1  0
 35 65  1  0
 39 66  1  0
 40 67  1  0
M  END
>  <Binding energies>  (1) 
[-10.5]

>  <Ligand effiencies>  (1) 
[-0.25609756097560976]

>  <Interactions>  (1) 
["V-B:GLU:543:CD:9877, V-A:ARG:545:CZ:4923, V-A:GLU:543:CD:4905, V-A:HIS:456:CE1:4066, V-A:ASP:366:CG:3209, V-A:GLU:543:CG:4904, H-A:GLY:454:N:4046, V-A:PRO:540:CB:4882, V-A:TYR:539:C:4864, V-A:PRO:540:CA:4880, H-A:TYR:539:N:4867, V-A:LEU:363:CD1:3185, V-A:ILE:538:CG2:4860, V-A:ILE:538:CD1:4862, V-A:TYR:539:CD2:4871, V-A:TYR:539:CE2:4873, V-B:HIS:456:CD2:9036, V-A:GLU:543:C:4899, H-A:LYS:547:NZ:4948, V-A:GLY:544:C:4909, V-B:LYS:547:CE:9919, V-B:HIS:456:CE1:9038, V-A:ALA:541:CB:4889, H-A:GLU:543:OE2:4907"]

$$$$
1a_Grossjean_2025
     RDKit          3D

 45 46  0  0  0  0  0  0  0  0999 V2000
  132.0820  131.5490   57.1290 C   0  0  0  0  0  0  0  0  0  0  0  0
  131.4830  132.2190   55.8890 C   0  0  0  0  0  0  0  0  0  0  0  0
  130.2940  132.9090   56.2510 O   0  0  0  0  0  0  0  0  0  0  0  0
  129.1090  132.6250   55.6520 C   0  0  0  0  0  0  0  0  0  0  0  0
  128.7060  133.1980   54.6350 O   0  0  0  0  0  0  0  0  0  0  0  0
  128.3280  131.5550   56.3590 C   0  0  0  0  0  0  0  0  0  0  0  0
  127.4840  130.7190   55.6150 C   0  0  0  0  0  0  0  0  0  0  0  0
  126.7450  129.7210   56.2420 C   0  0  0  0  0  0  0  0  0  0  0  0
  126.8300  129.5380   57.6230 C   0  0  0  0  0  0  0  0  0  0  0  0
  126.0360  128.5010   58.1510 N   0  0  0  0  0  0  0  0  0  0  0  0
  126.1200  127.1660   57.9710 C   0  0  0  0  0  0  0  0  0  0  0  0
  126.9560  126.5890   57.2750 O   0  0  0  0  0  0  0  0  0  0  0  0
  125.0700  126.3370   58.7140 C   0  0  0  0  0  0  0  0  0  0  0  0
  124.6680  124.7960   57.8370 S   0  0  0  0  0  0  0  0  0  0  0  0
  126.1360  123.7920   57.8200 C   0  0  0  0  0  0  0  0  0  0  0  0
  126.7430  123.7300   56.6090 N   0  0  0  0  0  0  0  0  0  0  0  0
  127.8680  122.9870   56.4820 C   0  0  0  0  0  0  0  0  0  0  0  0
  128.4840  122.9540   55.0950 C   0  0  0  0  0  0  0  0  0  0  0  0
  128.4350  122.2920   57.5480 C   0  0  0  0  0  0  0  0  0  0  0  0
  127.8290  122.3670   58.8060 C   0  0  0  0  0  0  0  0  0  0  0  0
  128.4760  121.6090   59.9640 C   0  0  0  0  0  0  0  0  0  0  0  0
  126.6540  123.1390   58.9640 C   0  0  0  0  0  0  0  0  0  0  0  0
  126.0300  123.2710   60.2830 C   0  0  0  0  0  0  0  0  0  0  0  0
  125.5380  123.3740   61.3250 N   0  0  0  0  0  0  0  0  0  0  0  0
  127.6790  130.3640   58.3750 C   0  0  0  0  0  0  0  0  0  0  0  0
  128.4170  131.3630   57.7460 C   0  0  0  0  0  0  0  0  0  0  0  0
  131.6657  132.0146   58.0345 H   0  0  0  0  0  0  0  0  0  0  0  0
  131.8357  130.4770   57.1216 H   0  0  0  0  0  0  0  0  0  0  0  0
  133.1748  131.6742   57.1216 H   0  0  0  0  0  0  0  0  0  0  0  0
  132.2084  132.9327   55.4713 H   0  0  0  0  0  0  0  0  0  0  0  0
  131.2474  131.4526   55.1359 H   0  0  0  0  0  0  0  0  0  0  0  0
  127.4053  130.8532   54.5261 H   0  0  0  0  0  0  0  0  0  0  0  0
  126.0886  129.0711   55.6447 H   0  0  0  0  0  0  0  0  0  0  0  0
  125.3160  128.8180   58.7830 H   0  0  0  0  0  0  0  0  0  0  0  0
  125.4579  126.0860   59.7123 H   0  0  0  0  0  0  0  0  0  0  0  0
  124.1508  126.9374   58.7819 H   0  0  0  0  0  0  0  0  0  0  0  0
  129.5790  122.8953   55.1814 H   0  0  0  0  0  0  0  0  0  0  0  0
  128.1116  122.0745   54.5492 H   0  0  0  0  0  0  0  0  0  0  0  0
  128.2077  123.8682   54.5492 H   0  0  0  0  0  0  0  0  0  0  0  0
  129.3460  121.6930   57.4022 H   0  0  0  0  0  0  0  0  0  0  0  0
  128.1209  122.0250   60.9184 H   0  0  0  0  0  0  0  0  0  0  0  0
  128.2033  120.5450   59.9037 H   0  0  0  0  0  0  0  0  0  0  0  0
  129.5696  121.7112   59.9037 H   0  0  0  0  0  0  0  0  0  0  0  0
  127.7616  130.2221   59.4627 H   0  0  0  0  0  0  0  0  0  0  0  0
  129.0773  132.0091   58.3432 H   0  0  0  0  0  0  0  0  0  0  0  0
  1  2  1  0
  2  3  1  0
  3  4  1  0
  4  5  2  0
  4  6  1  0
  6  7  2  0
  7  8  1  0
  8  9  2  0
  9 10  1  0
 10 11  1  0
 11 12  2  0
 11 13  1  0
 13 14  1  0
 14 15  1  0
 15 16  2  0
 16 17  1  0
 17 18  1  0
 17 19  2  0
 19 20  1  0
 20 21  1  0
 20 22  2  0
 22 23  1  0
 23 24  3  0
  9 25  1  0
 25 26  2  0
 26  6  1  0
 22 15  1  0
  1 27  1  0
  1 28  1  0
  1 29  1  0
  2 30  1  0
  2 31  1  0
  7 32  1  0
  8 33  1  0
 10 34  1  0
 13 35  1  0
 13 36  1  0
 18 37  1  0
 18 38  1  0
 18 39  1  0
 19 40  1  0
 21 41  1  0
 21 42  1  0
 21 43  1  0
 25 44  1  0
 26 45  1  0
M  END
>  <Binding energies>  (1) 
[-8.22]

>  <Ligand effiencies>  (1) 
[-0.30444444444444446]

>  <Interactions>  (1) 
["V-B:TYR:539:CE2:9845, V-B:PRO:540:N:9853, V-B:PRO:540:CB:9854, V-B:TYR:539:CZ:9846, H-B:ALA:541:N:9860, V-B:PRO:540:CA:9852, V-B:TYR:539:CD1:9842, V-B:PRO:540:C:9850, V-B:TYR:539:C:9836, V-B:ALA:541:CB:9861, V-B:TYR:539:CE1:9844, V-B:MET:535:CE:9804, H-B:TYR:531:OH:9764, V-A:PRO:540:CB:4882, V-A:TYR:539:C:4864, V-A:PRO:540:CA:4880, H-A:TYR:539:N:4867, V-A:LEU:363:CD1:3185, V-A:PRO:540:N:4881, V-A:ILE:538:CG2:4860, V-A:ILE:538:CD1:4862, V-B:ASP:366:CB:8180, V-B:TYR:539:CG:9841, V-B:TYR:539:CD2:9843, V-A:TYR:539:CD2:4871, V-A:TYR:539:CE2:4873, V-A:TYR:539:CG:4869, H-B:ASP:366:OD1:8182, V-B:ASP:366:CG:8181"]

$$$$
1aa_Ghoteimi_2023
     RDKit          3D

 67 70  0  0  0  0  0  0  0  0999 V2000
  129.4200  123.1410   54.2250 C   0  0  0  0  0  0  0  0  0  0  0  0
  128.0010  122.7050   54.6030 C   0  0  0  0  0  0  0  0  0  0  0  0
  128.0320  122.0270   55.8540 O   0  0  0  0  0  0  0  0  0  0  0  0
  126.9450  122.0060   56.6660 C   0  0  0  0  0  0  0  0  0  0  0  0
  125.8270  121.6330   56.2970 O   0  0  0  0  0  0  0  0  0  0  0  0
  127.2360  122.4800   58.0610 C   0  0  0  0  0  0  0  0  0  0  0  0
  126.4020  123.3950   58.7230 C   0  0  0  0  0  0  0  0  0  0  0  0
  126.6970  123.8170   60.0170 C   0  0  0  0  0  0  0  0  0  0  0  0
  127.8340  123.3270   60.6750 C   0  0  0  0  0  0  0  0  0  0  0  0
  128.2310  123.6820   61.9780 N   0  0  0  0  0  0  0  0  0  0  0  0
  129.3680  124.2690   62.4180 C   0  0  0  0  0  0  0  0  0  0  0  0
  130.3050  124.6170   61.6990 O   0  0  0  0  0  0  0  0  0  0  0  0
  129.4920  124.5170   63.9300 C   0  0  0  0  0  0  0  0  0  0  0  0
  130.0280  125.8220   64.1820 O   0  0  0  0  0  0  0  0  0  0  0  0
  129.3430  126.7170   64.9920 C   0  0  0  0  0  0  0  0  0  0  0  0
  129.5740  126.6740   66.3330 N   0  0  0  0  0  0  0  0  0  0  0  0
  128.9120  127.5250   67.1610 C   0  0  0  0  0  0  0  0  0  0  0  0
  129.2250  127.4150   68.6260 C   0  0  0  0  0  0  0  0  0  0  0  0
  128.3650  126.7310   69.4980 C   0  0  0  0  0  0  0  0  0  0  0  0
  128.6520  126.6300   70.8560 C   0  0  0  0  0  0  0  0  0  0  0  0
  129.8050  127.2050   71.3850 C   0  0  0  0  0  0  0  0  0  0  0  0
  130.0060  127.0540   72.7430 O   0  0  0  0  0  0  0  0  0  0  0  0
  130.1600  125.7450   73.2810 C   0  0  0  0  0  0  0  0  0  0  0  0
  130.6760  127.8870   70.5250 C   0  0  0  0  0  0  0  0  0  0  0  0
  130.3880  127.9860   69.1670 C   0  0  0  0  0  0  0  0  0  0  0  0
  128.0080  128.4610   66.6460 C   0  0  0  0  0  0  0  0  0  0  0  0
  127.7600  128.5350   65.2690 C   0  0  0  0  0  0  0  0  0  0  0  0
  126.7930  129.5620   64.7820 C   0  0  0  0  0  0  0  0  0  0  0  0
  127.2190  130.8720   64.5430 C   0  0  0  0  0  0  0  0  0  0  0  0
  126.3260  131.8340   64.0790 C   0  0  0  0  0  0  0  0  0  0  0  0
  124.9920  131.5060   63.8400 C   0  0  0  0  0  0  0  0  0  0  0  0
  124.1780  132.5240   63.3810 O   0  0  0  0  0  0  0  0  0  0  0  0
  124.2080  132.8690   62.0010 C   0  0  0  0  0  0  0  0  0  0  0  0
  124.5610  130.1910   64.0710 C   0  0  0  0  0  0  0  0  0  0  0  0
  125.4560  129.2310   64.5350 C   0  0  0  0  0  0  0  0  0  0  0  0
  128.4410  127.6310   64.4200 C   0  0  0  0  0  0  0  0  0  0  0  0
  128.2140  127.6030   62.9740 C   0  0  0  0  0  0  0  0  0  0  0  0
  128.0360  127.5790   61.8310 N   0  0  0  0  0  0  0  0  0  0  0  0
  128.6660  122.4190   60.0180 C   0  0  0  0  0  0  0  0  0  0  0  0
  128.3710  121.9990   58.7250 C   0  0  0  0  0  0  0  0  0  0  0  0
  130.0043  123.3205   55.1395 H   0  0  0  0  0  0  0  0  0  0  0  0
  129.9011  122.3492   53.6320 H   0  0  0  0  0  0  0  0  0  0  0  0
  129.3736  124.0663   53.6320 H   0  0  0  0  0  0  0  0  0  0  0  0
  127.3536  123.5909   54.6817 H   0  0  0  0  0  0  0  0  0  0  0  0
  127.6056  122.0304   53.8293 H   0  0  0  0  0  0  0  0  0  0  0  0
  125.5067  123.7824   58.2146 H   0  0  0  0  0  0  0  0  0  0  0  0
  126.0367  124.5361   60.5238 H   0  0  0  0  0  0  0  0  0  0  0  0
  127.5480  123.4640   62.6890 H   0  0  0  0  0  0  0  0  0  0  0  0
  128.4970  124.4388   64.3925 H   0  0  0  0  0  0  0  0  0  0  0  0
  130.1699  123.7648   64.3596 H   0  0  0  0  0  0  0  0  0  0  0  0
  127.4494  126.2672   69.1022 H   0  0  0  0  0  0  0  0  0  0  0  0
  127.9603  126.0899   71.5192 H   0  0  0  0  0  0  0  0  0  0  0  0
  130.1539  125.7971   74.3797 H   0  0  0  0  0  0  0  0  0  0  0  0
  129.3306  125.1083   72.9395 H   0  0  0  0  0  0  0  0  0  0  0  0
  131.1146  125.3182   72.9395 H   0  0  0  0  0  0  0  0  0  0  0  0
  131.5919  128.3464   70.9252 H   0  0  0  0  0  0  0  0  0  0  0  0
  131.0845  128.5216   68.5052 H   0  0  0  0  0  0  0  0  0  0  0  0
  127.4862  129.1464   67.3301 H   0  0  0  0  0  0  0  0  0  0  0  0
  128.2692  131.1450   64.7232 H   0  0  0  0  0  0  0  0  0  0  0  0
  126.6757  132.8614   63.8994 H   0  0  0  0  0  0  0  0  0  0  0  0
  124.3029  133.9600   61.8978 H   0  0  0  0  0  0  0  0  0  0  0  0
  125.0669  132.3790   61.5191 H   0  0  0  0  0  0  0  0  0  0  0  0
  123.2774  132.5347   61.5191 H   0  0  0  0  0  0  0  0  0  0  0  0
  123.5119  129.9175   63.8848 H   0  0  0  0  0  0  0  0  0  0  0  0
  125.1087  128.2019   64.7092 H   0  0  0  0  0  0  0  0  0  0  0  0
  129.5617  122.0326   60.5265 H   0  0  0  0  0  0  0  0  0  0  0  0
  129.0354  121.2826   58.2197 H   0  0  0  0  0  0  0  0  0  0  0  0
  1  2  1  0
  2  3  1  0
  3  4  1  0
  4  5  2  0
  4  6  1  0
  6  7  2  0
  7  8  1  0
  8  9  2  0
  9 10  1  0
 10 11  1  0
 11 12  2  0
 11 13  1  0
 13 14  1  0
 14 15  1  0
 15 16  2  0
 16 17  1  0
 17 18  1  0
 18 19  2  0
 19 20  1  0
 20 21  2  0
 21 22  1  0
 22 23  1  0
 21 24  1  0
 24 25  2  0
 17 26  2  0
 26 27  1  0
 27 28  1  0
 28 29  2  0
 29 30  1  0
 30 31  2  0
 31 32  1  0
 32 33  1  0
 31 34  1  0
 34 35  2  0
 27 36  2  0
 36 37  1  0
 37 38  3  0
  9 39  1  0
 39 40  2  0
 40  6  1  0
 36 15  1  0
 25 18  1  0
 35 28  1  0
  1 41  1  0
  1 42  1  0
  1 43  1  0
  2 44  1  0
  2 45  1  0
  7 46  1  0
  8 47  1  0
 10 48  1  0
 13 49  1  0
 13 50  1  0
 19 51  1  0
 20 52  1  0
 23 53  1  0
 23 54  1  0
 23 55  1  0
 24 56  1  0
 25 57  1  0
 26 58  1  0
 29 59  1  0
 30 60  1  0
 33 61  1  0
 33 62  1  0
 33 63  1  0
 34 64  1  0
 35 65  1  0
 39 66  1  0
 40 67  1  0
M  END
>  <Binding energies>  (1) 
[-10.77]

>  <Ligand effiencies>  (1) 
[-0.2626829268292683]

>  <Interactions>  (1) 
["V-B:TYR:539:CE2:9845, V-B:PRO:540:N:9853, V-B:PRO:540:CB:9854, V-B:TYR:539:CZ:9846, V-B:PRO:540:CA:9852, H-B:TYR:539:N:9839, V-B:TYR:539:CD1:9842, V-B:ILE:538:CA:9829, V-B:TYR:539:C:9836, V-B:ALA:541:CB:9861, V-B:ILE:538:CG2:9832, V-B:TYR:539:CE1:9844, V-B:GLU:543:CD:9877, V-B:ILE:538:CB:9831, V-B:GLU:543:CG:9876, H-B:GLU:543:OE2:9879, V-B:MET:535:CE:9804, V-A:GLU:543:CD:4905, V-A:HIS:456:CE1:4066, V-A:GLU:543:CG:4904, V-B:PRO:540:CD:9856, V-B:TYR:539:CA:9838, V-B:TYR:539:CG:9841, V-B:TYR:539:CD2:9843, V-A:GLU:543:CB:4903, V-A:GLU:543:C:4899, H-A:LYS:547:NZ:4948, V-A:GLY:544:C:4909, V-B:LYS:547:CE:9919, V-B:HIS:456:CE1:9038, V-B:GLY:454:CA:9017, V-B:ARG:545:CZ:9895, V-B:ILE:369:CD1:8207, V-A:HIS:456:CD2:4064, H-B:GLY:454:N:9018"]

$$$$
1b_Ghoteimi_2023
     RDKit          3D

 54 57  0  0  0  0  0  0  0  0999 V2000
  130.2990  125.6460   73.9310 C   0  0  0  0  0  0  0  0  0  0  0  0
  129.8760  126.8690   73.3370 O   0  0  0  0  0  0  0  0  0  0  0  0
  129.6060  126.9020   71.9830 C   0  0  0  0  0  0  0  0  0  0  0  0
  130.4850  127.6370   71.1880 C   0  0  0  0  0  0  0  0  0  0  0  0
  130.2920  127.7270   69.8130 C   0  0  0  0  0  0  0  0  0  0  0  0
  129.2150  127.0820   69.1880 C   0  0  0  0  0  0  0  0  0  0  0  0
  129.0080  127.1840   67.7030 C   0  0  0  0  0  0  0  0  0  0  0  0
  128.1370  128.1090   67.1170 C   0  0  0  0  0  0  0  0  0  0  0  0
  127.9840  128.1650   65.7260 C   0  0  0  0  0  0  0  0  0  0  0  0
  127.0320  129.1740   65.1710 C   0  0  0  0  0  0  0  0  0  0  0  0
  125.6530  128.9550   65.2370 C   0  0  0  0  0  0  0  0  0  0  0  0
  124.7630  129.8880   64.7140 C   0  0  0  0  0  0  0  0  0  0  0  0
  125.2320  131.0550   64.1100 C   0  0  0  0  0  0  0  0  0  0  0  0
  124.2760  131.9230   63.6180 O   0  0  0  0  0  0  0  0  0  0  0  0
  123.9680  131.9010   62.2290 C   0  0  0  0  0  0  0  0  0  0  0  0
  126.6150  131.2750   64.0340 C   0  0  0  0  0  0  0  0  0  0  0  0
  127.5030  130.3400   64.5580 C   0  0  0  0  0  0  0  0  0  0  0  0
  128.7410  127.2740   64.9270 C   0  0  0  0  0  0  0  0  0  0  0  0
  128.6890  127.3580   63.4650 C   0  0  0  0  0  0  0  0  0  0  0  0
  128.6470  127.4250   62.3100 N   0  0  0  0  0  0  0  0  0  0  0  0
  129.5860  126.3510   65.5830 C   0  0  0  0  0  0  0  0  0  0  0  0
  130.6030  125.1540   64.7430 S   0  0  0  0  0  0  0  0  0  0  0  0
  132.3340  125.4380   65.2420 C   0  0  0  0  0  0  0  0  0  0  0  0
  133.3870  125.0090   64.2100 C   0  0  0  0  0  0  0  0  0  0  0  0
  134.5900  125.0720   64.4740 O   0  0  0  0  0  0  0  0  0  0  0  0
  132.8790  124.5760   63.0340 N   0  0  0  0  0  0  0  0  0  0  0  0
  133.5880  124.1270   61.9270 C   0  0  0  0  0  0  0  0  0  0  0  0
  132.9900  123.8670   60.6940 C   0  0  0  0  0  0  0  0  0  0  0  0
  134.0180  123.4500   59.8790 C   0  0  0  0  0  0  0  0  0  0  0  0
  135.1740  123.4610   60.5840 O   0  0  0  0  0  0  0  0  0  0  0  0
  134.8890  123.8920   61.8800 N   0  0  0  0  0  0  0  0  0  0  0  0
  129.7260  126.3270   66.9300 N   0  0  0  0  0  0  0  0  0  0  0  0
  128.3350  126.3460   69.9980 C   0  0  0  0  0  0  0  0  0  0  0  0
  128.5230  126.2540   71.3730 C   0  0  0  0  0  0  0  0  0  0  0  0
  130.2665  125.7399   75.0265 H   0  0  0  0  0  0  0  0  0  0  0  0
  129.6298  124.8331   73.6127 H   0  0  0  0  0  0  0  0  0  0  0  0
  131.3274  125.4202   73.6127 H   0  0  0  0  0  0  0  0  0  0  0  0
  131.3395  128.1508   71.6526 H   0  0  0  0  0  0  0  0  0  0  0  0
  130.9964  128.3143   69.2057 H   0  0  0  0  0  0  0  0  0  0  0  0
  127.5664  128.7995   67.7555 H   0  0  0  0  0  0  0  0  0  0  0  0
  125.2682  128.0375   65.7063 H   0  0  0  0  0  0  0  0  0  0  0  0
  123.6804  129.7039   64.7773 H   0  0  0  0  0  0  0  0  0  0  0  0
  122.8788  131.8232   62.0961 H   0  0  0  0  0  0  0  0  0  0  0  0
  124.3295  132.8273   61.7585 H   0  0  0  0  0  0  0  0  0  0  0  0
  124.4575  131.0355   61.7585 H   0  0  0  0  0  0  0  0  0  0  0  0
  126.9993  132.1896   63.5587 H   0  0  0  0  0  0  0  0  0  0  0  0
  128.5861  130.5197   64.4894 H   0  0  0  0  0  0  0  0  0  0  0  0
  132.4618  126.5138   65.4325 H   0  0  0  0  0  0  0  0  0  0  0  0
  132.5035  124.8130   66.1312 H   0  0  0  0  0  0  0  0  0  0  0  0
  131.8740  124.5600   62.9420 H   0  0  0  0  0  0  0  0  0  0  0  0
  131.9273  123.9723   60.4301 H   0  0  0  0  0  0  0  0  0  0  0  0
  133.9166  123.1551   58.8241 H   0  0  0  0  0  0  0  0  0  0  0  0
  127.4796  125.8318   69.5356 H   0  0  0  0  0  0  0  0  0  0  0  0
  127.8189  125.6703   71.9843 H   0  0  0  0  0  0  0  0  0  0  0  0
  1  2  1  0
  2  3  1  0
  3  4  2  0
  4  5  1  0
  5  6  2  0
  6  7  1  0
  7  8  2  0
  8  9  1  0
  9 10  1  0
 10 11  2  0
 11 12  1  0
 12 13  2  0
 13 14  1  0
 14 15  1  0
 13 16  1  0
 16 17  2  0
  9 18  2  0
 18 19  1  0
 19 20  3  0
 18 21  1  0
 21 22  1  0
 22 23  1  0
 23 24  1  0
 24 25  2  0
 24 26  1  0
 26 27  1  0
 27 28  1  0
 28 29  2  0
 29 30  1  0
 30 31  1  0
 21 32  2  0
  6 33  1  0
 33 34  2  0
 34  3  1  0
 32  7  1  0
 17 10  1  0
 31 27  2  0
  1 35  1  0
  1 36  1  0
  1 37  1  0
  4 38  1  0
  5 39  1  0
  8 40  1  0
 11 41  1  0
 12 42  1  0
 15 43  1  0
 15 44  1  0
 15 45  1  0
 16 46  1  0
 17 47  1  0
 23 48  1  0
 23 49  1  0
 26 50  1  0
 28 51  1  0
 29 52  1  0
 33 53  1  0
 34 54  1  0
M  END
>  <Binding energies>  (1) 
[-9.63]

>  <Ligand effiencies>  (1) 
[-0.2751428571428572]

>  <Interactions>  (1) 
["V-B:GLU:543:CD:9877, V-A:ARG:545:CZ:4923, V-A:GLU:543:CD:4905, V-A:ASP:366:CB:3208, V-A:HIS:456:CE1:4066, H-A:ARG:545:NH1:4924, H-A:ARG:545:NE:4921, V-A:ASP:366:CG:3209, V-A:GLU:543:CG:4904, H-A:GLY:454:N:4046, V-A:ILE:369:CB:3232, H-A:LYS:547:NZ:4948, V-A:ILE:369:CG2:3233, V-A:GLY:544:C:4909, V-B:LYS:547:CE:9919, V-B:HIS:456:CE1:9038, V-A:ILE:369:CG1:3234, V-B:ARG:545:CZ:9895, V-B:ILE:369:CD1:8207, V-A:ASP:366:CA:3206, V-A:HIS:456:CD2:4064, H-B:GLY:454:N:9018"]

$$$$
1b_Grossjean_2025
     RDKit          3D

 42 43  0  0  0  0  0  0  0  0999 V2000
  127.9750  122.0620   58.7260 C   0  0  0  0  0  0  0  0  0  0  0  0
  127.7270  121.6470   57.3900 O   0  0  0  0  0  0  0  0  0  0  0  0
  126.9680  122.4020   56.5540 C   0  0  0  0  0  0  0  0  0  0  0  0
  126.4880  121.9760   55.4990 O   0  0  0  0  0  0  0  0  0  0  0  0
  126.7630  123.8070   57.0450 C   0  0  0  0  0  0  0  0  0  0  0  0
  127.7880  124.7650   57.0030 C   0  0  0  0  0  0  0  0  0  0  0  0
  127.5660  126.0580   57.4670 C   0  0  0  0  0  0  0  0  0  0  0  0
  126.3210  126.4220   57.9790 C   0  0  0  0  0  0  0  0  0  0  0  0
  126.2100  127.7550   58.4200 N   0  0  0  0  0  0  0  0  0  0  0  0
  126.6410  128.9000   57.8470 C   0  0  0  0  0  0  0  0  0  0  0  0
  127.2340  128.9830   56.7720 O   0  0  0  0  0  0  0  0  0  0  0  0
  126.3330  130.1790   58.6270 C   0  0  0  0  0  0  0  0  0  0  0  0
  127.0360  131.6540   57.8310 S   0  0  0  0  0  0  0  0  0  0  0  0
  128.8080  131.4860   57.8730 C   0  0  0  0  0  0  0  0  0  0  0  0
  129.2730  130.8840   58.9960 N   0  0  0  0  0  0  0  0  0  0  0  0
  130.6080  130.7040   59.1310 C   0  0  0  0  0  0  0  0  0  0  0  0
  131.0540  130.0100   60.4050 C   0  0  0  0  0  0  0  0  0  0  0  0
  131.5250  131.1220   58.1690 C   0  0  0  0  0  0  0  0  0  0  0  0
  131.0560  131.7630   57.0180 C   0  0  0  0  0  0  0  0  0  0  0  0
  132.0810  132.2270   55.9840 C   0  0  0  0  0  0  0  0  0  0  0  0
  129.6660  131.9630   56.8540 C   0  0  0  0  0  0  0  0  0  0  0  0
  129.1560  132.6710   55.6780 C   0  0  0  0  0  0  0  0  0  0  0  0
  128.7560  133.2310   54.7480 N   0  0  0  0  0  0  0  0  0  0  0  0
  125.2910  125.4700   58.0240 C   0  0  0  0  0  0  0  0  0  0  0  0
  125.5140  124.1780   57.5600 C   0  0  0  0  0  0  0  0  0  0  0  0
  127.5387  121.3320   59.4237 H   0  0  0  0  0  0  0  0  0  0  0  0
  129.0601  122.1269   58.8943 H   0  0  0  0  0  0  0  0  0  0  0  0
  127.5182  123.0484   58.8943 H   0  0  0  0  0  0  0  0  0  0  0  0
  128.7744  124.4916   56.6002 H   0  0  0  0  0  0  0  0  0  0  0  0
  128.3786  126.7985   57.4296 H   0  0  0  0  0  0  0  0  0  0  0  0
  125.7450  127.8540   59.3110 H   0  0  0  0  0  0  0  0  0  0  0  0
  125.2416  130.2989   58.6943 H   0  0  0  0  0  0  0  0  0  0  0  0
  126.7873  130.0843   59.6243 H   0  0  0  0  0  0  0  0  0  0  0  0
  130.6911  130.5747   61.2765 H   0  0  0  0  0  0  0  0  0  0  0  0
  130.6415  128.9906   60.4309 H   0  0  0  0  0  0  0  0  0  0  0  0
  132.1526  129.9617   60.4309 H   0  0  0  0  0  0  0  0  0  0  0  0
  132.6020  130.9504   58.3127 H   0  0  0  0  0  0  0  0  0  0  0  0
  132.9663  132.6277   56.4995 H   0  0  0  0  0  0  0  0  0  0  0  0
  132.3777  131.3754   55.3541 H   0  0  0  0  0  0  0  0  0  0  0  0
  131.6369  133.0119   55.3541 H   0  0  0  0  0  0  0  0  0  0  0  0
  124.3054  125.7461   58.4270 H   0  0  0  0  0  0  0  0  0  0  0  0
  124.7003  123.4388   57.5978 H   0  0  0  0  0  0  0  0  0  0  0  0
  1  2  1  0
  2  3  1  0
  3  4  2  0
  3  5  1  0
  5  6  2  0
  6  7  1  0
  7  8  2  0
  8  9  1  0
  9 10  1  0
 10 11  2  0
 10 12  1  0
 12 13  1  0
 13 14  1  0
 14 15  2  0
 15 16  1  0
 16 17  1  0
 16 18  2  0
 18 19  1  0
 19 20  1  0
 19 21  2  0
 21 22  1  0
 22 23  3  0
  8 24  1  0
 24 25  2  0
 25  5  1  0
 21 14  1  0
  1 26  1  0
  1 27  1  0
  1 28  1  0
  6 29  1  0
  7 30  1  0
  9 31  1  0
 12 32  1  0
 12 33  1  0
 17 34  1  0
 17 35  1  0
 17 36  1  0
 18 37  1  0
 20 38  1  0
 20 39  1  0
 20 40  1  0
 24 41  1  0
 25 42  1  0
M  END
>  <Binding energies>  (1) 
[-7.93]

>  <Ligand effiencies>  (1) 
[-0.305]

>  <Interactions>  (1) 
["V-B:TYR:539:CE2:9845, V-B:PRO:540:N:9853, V-B:TYR:539:CZ:9846, V-B:PRO:540:CA:9852, H-B:TYR:539:N:9839, V-B:TYR:539:C:9836, V-B:MET:535:CE:9804, H-B:TYR:531:OH:9764, V-B:PRO:540:CD:9856, V-A:PRO:540:CB:4882, V-A:TYR:539:C:4864, V-A:PRO:540:CA:4880, H-A:TYR:539:N:4867, V-A:LEU:363:CD1:3185, V-A:PRO:540:N:4881, V-A:ILE:538:CG2:4860, V-A:ILE:538:CD1:4862, V-B:ASP:366:CB:8180, V-B:TYR:539:CG:9841, V-B:TYR:539:CD2:9843, V-A:TYR:539:CD2:4871, V-A:TYR:539:CE2:4873, V-A:TYR:539:CG:4869, H-B:ASP:366:OD1:8182, V-B:ASP:366:CG:8181, V-A:PRO:540:CD:4884"]

$$$$
1c_Ghoteimi_2023
     RDKit          3D

 54 57  0  0  0  0  0  0  0  0999 V2000
  128.7480  127.2500   74.0640 C   0  0  0  0  0  0  0  0  0  0  0  0
  129.8130  127.1090   73.1310 O   0  0  0  0  0  0  0  0  0  0  0  0
  129.5320  127.1240   71.7780 C   0  0  0  0  0  0  0  0  0  0  0  0
  130.3910  127.8640   70.9690 C   0  0  0  0  0  0  0  0  0  0  0  0
  130.1810  127.9360   69.5940 C   0  0  0  0  0  0  0  0  0  0  0  0
  129.1050  127.2710   68.9870 C   0  0  0  0  0  0  0  0  0  0  0  0
  128.8730  127.3510   67.5060 C   0  0  0  0  0  0  0  0  0  0  0  0
  128.0650  128.3310   66.9190 C   0  0  0  0  0  0  0  0  0  0  0  0
  127.9000  128.3820   65.5300 C   0  0  0  0  0  0  0  0  0  0  0  0
  127.0790  129.4950   64.9670 C   0  0  0  0  0  0  0  0  0  0  0  0
  127.6190  130.7770   64.8280 C   0  0  0  0  0  0  0  0  0  0  0  0
  126.8460  131.8180   64.3230 C   0  0  0  0  0  0  0  0  0  0  0  0
  125.5190  131.5990   63.9530 C   0  0  0  0  0  0  0  0  0  0  0  0
  124.8270  132.6900   63.4620 O   0  0  0  0  0  0  0  0  0  0  0  0
  124.2350  132.6130   62.1700 C   0  0  0  0  0  0  0  0  0  0  0  0
  124.9710  130.3150   64.0980 C   0  0  0  0  0  0  0  0  0  0  0  0
  125.7470  129.2750   64.6030 C   0  0  0  0  0  0  0  0  0  0  0  0
  128.5440  127.4020   64.7390 C   0  0  0  0  0  0  0  0  0  0  0  0
  128.3840  127.3800   63.2810 C   0  0  0  0  0  0  0  0  0  0  0  0
  128.2570  127.3650   62.1300 N   0  0  0  0  0  0  0  0  0  0  0  0
  129.3570  126.4540   65.3940 C   0  0  0  0  0  0  0  0  0  0  0  0
  130.3580  125.2730   64.5150 S   0  0  0  0  0  0  0  0  0  0  0  0
  132.0260  125.4550   65.2250 C   0  0  0  0  0  0  0  0  0  0  0  0
  133.1240  125.0660   64.2300 C   0  0  0  0  0  0  0  0  0  0  0  0
  134.2950  125.0080   64.6080 O   0  0  0  0  0  0  0  0  0  0  0  0
  132.6930  124.7680   62.9840 N   0  0  0  0  0  0  0  0  0  0  0  0
  133.4500  124.2440   61.9490 C   0  0  0  0  0  0  0  0  0  0  0  0
  134.7280  123.9300   61.9610 N   0  0  0  0  0  0  0  0  0  0  0  0
  135.1100  123.4160   60.8080 C   0  0  0  0  0  0  0  0  0  0  0  0
  134.1280  123.3030   59.8290 C   0  0  0  0  0  0  0  0  0  0  0  0
  132.6260  123.9070   60.4610 S   0  0  0  0  0  0  0  0  0  0  0  0
  129.5220  126.4370   66.7380 N   0  0  0  0  0  0  0  0  0  0  0  0
  128.2500  126.5240   69.8110 C   0  0  0  0  0  0  0  0  0  0  0  0
  128.4550  126.4500   71.1860 C   0  0  0  0  0  0  0  0  0  0  0  0
  129.1477  127.1971   75.0874 H   0  0  0  0  0  0  0  0  0  0  0  0
  128.2544  128.2213   73.9129 H   0  0  0  0  0  0  0  0  0  0  0  0
  128.0186  126.4406   73.9129 H   0  0  0  0  0  0  0  0  0  0  0  0
  131.2420  128.3958   71.4196 H   0  0  0  0  0  0  0  0  0  0  0  0
  130.8715  128.5251   68.9725 H   0  0  0  0  0  0  0  0  0  0  0  0
  127.5544  129.0687   67.5555 H   0  0  0  0  0  0  0  0  0  0  0  0
  128.6629  130.9642   65.1201 H   0  0  0  0  0  0  0  0  0  0  0  0
  127.2846  132.8210   64.2148 H   0  0  0  0  0  0  0  0  0  0  0  0
  123.1489  132.4717   62.2722 H   0  0  0  0  0  0  0  0  0  0  0  0
  124.4334  133.5445   61.6196 H   0  0  0  0  0  0  0  0  0  0  0  0
  124.6651  131.7632   61.6196 H   0  0  0  0  0  0  0  0  0  0  0  0
  123.9252  130.1297   63.8118 H   0  0  0  0  0  0  0  0  0  0  0  0
  125.3087  128.2725   64.7165 H   0  0  0  0  0  0  0  0  0  0  0  0
  132.1722  126.5041   65.5216 H   0  0  0  0  0  0  0  0  0  0  0  0
  132.1001  124.7802   66.0905 H   0  0  0  0  0  0  0  0  0  0  0  0
  131.7060  124.8630   62.8000 H   0  0  0  0  0  0  0  0  0  0  0  0
  136.1469  123.0947   60.6304 H   0  0  0  0  0  0  0  0  0  0  0  0
  134.2781  122.8968   58.8178 H   0  0  0  0  0  0  0  0  0  0  0  0
  127.4016  125.9866   69.3622 H   0  0  0  0  0  0  0  0  0  0  0  0
  127.7685  125.8598   71.8108 H   0  0  0  0  0  0  0  0  0  0  0  0
  1  2  1  0
  2  3  1  0
  3  4  2  0
  4  5  1  0
  5  6  2  0
  6  7  1  0
  7  8  2  0
  8  9  1  0
  9 10  1  0
 10 11  2  0
 11 12  1  0
 12 13  2  0
 13 14  1  0
 14 15  1  0
 13 16  1  0
 16 17  2  0
  9 18  2  0
 18 19  1  0
 19 20  3  0
 18 21  1  0
 21 22  1  0
 22 23  1  0
 23 24  1  0
 24 25  2  0
 24 26  1  0
 26 27  1  0
 27 28  2  0
 28 29  1  0
 29 30  2  0
 30 31  1  0
 21 32  2  0
  6 33  1  0
 33 34  2  0
 34  3  1  0
 32  7  1  0
 17 10  1  0
 31 27  1  0
  1 35  1  0
  1 36  1  0
  1 37  1  0
  4 38  1  0
  5 39  1  0
  8 40  1  0
 11 41  1  0
 12 42  1  0
 15 43  1  0
 15 44  1  0
 15 45  1  0
 16 46  1  0
 17 47  1  0
 23 48  1  0
 23 49  1  0
 26 50  1  0
 29 51  1  0
 30 52  1  0
 33 53  1  0
 34 54  1  0
M  END
>  <Binding energies>  (1) 
[-9.47]

>  <Ligand effiencies>  (1) 
[-0.2705714285714286]

>  <Interactions>  (1) 
["V-B:GLU:543:CD:9877, V-B:GLU:543:CG:9876, V-A:ARG:545:CZ:4923, V-A:GLU:543:CD:4905, V-A:ASP:366:CB:3208, V-A:HIS:456:CE1:4066, H-A:ARG:545:NH1:4924, H-A:ARG:545:NE:4921, V-A:ASP:366:CG:3209, V-A:GLU:543:CG:4904, H-A:GLY:454:N:4046, V-A:LYS:547:CE:4947, V-A:ILE:369:CB:3232, V-A:GLU:543:C:4899, H-A:LYS:547:NZ:4948, V-A:ILE:369:CG2:3233, V-A:GLY:544:C:4909, V-B:LYS:547:CE:9919, V-B:HIS:456:CE1:9038, V-A:GLY:453:C:4038, V-A:GLY:453:CA:4040, V-A:ILE:369:CG1:3234, V-B:GLY:454:CA:9017, V-B:ARG:545:CZ:9895, V-B:ILE:369:CD1:8207, V-A:ASP:366:CA:3206, V-A:HIS:456:CD2:4064, H-B:GLY:454:N:9018"]

$$$$
1c_Grossjean_2025
     RDKit          3D

 40 41  0  0  0  0  0  0  0  0999 V2000
  127.6050  122.3940   55.3480 C   0  0  0  0  0  0  0  0  0  0  0  0
  126.9290  121.8840   56.4930 O   0  0  0  0  0  0  0  0  0  0  0  0
  127.2410  122.3890   57.7400 C   0  0  0  0  0  0  0  0  0  0  0  0
  126.3450  123.3120   58.2790 C   0  0  0  0  0  0  0  0  0  0  0  0
  126.5710  123.8770   59.5310 C   0  0  0  0  0  0  0  0  0  0  0  0
  127.7080  123.5150   60.2680 C   0  0  0  0  0  0  0  0  0  0  0  0
  128.0380  124.0310   61.5360 N   0  0  0  0  0  0  0  0  0  0  0  0
  129.1050  124.7700   61.9090 C   0  0  0  0  0  0  0  0  0  0  0  0
  130.0050  125.1530   61.1620 O   0  0  0  0  0  0  0  0  0  0  0  0
  129.1540  125.1490   63.3910 C   0  0  0  0  0  0  0  0  0  0  0  0
  130.1270  123.9590   64.3610 S   0  0  0  0  0  0  0  0  0  0  0  0
  130.9890  122.8840   63.2320 C   0  0  0  0  0  0  0  0  0  0  0  0
  130.2370  121.8400   62.8000 N   0  0  0  0  0  0  0  0  0  0  0  0
  130.7870  120.9540   61.9370 C   0  0  0  0  0  0  0  0  0  0  0  0
  129.8830  119.8200   61.4910 C   0  0  0  0  0  0  0  0  0  0  0  0
  132.0990  121.0640   61.4820 C   0  0  0  0  0  0  0  0  0  0  0  0
  132.8910  122.1220   61.9390 C   0  0  0  0  0  0  0  0  0  0  0  0
  134.3310  122.2110   61.4390 C   0  0  0  0  0  0  0  0  0  0  0  0
  132.3380  123.0590   62.8430 C   0  0  0  0  0  0  0  0  0  0  0  0
  133.1690  124.1420   63.3760 C   0  0  0  0  0  0  0  0  0  0  0  0
  133.8250  124.9970   63.7950 N   0  0  0  0  0  0  0  0  0  0  0  0
  128.6130  122.6000   59.7280 C   0  0  0  0  0  0  0  0  0  0  0  0
  128.3830  122.0370   58.4750 C   0  0  0  0  0  0  0  0  0  0  0  0
  128.4447  123.0275   55.6699 H   0  0  0  0  0  0  0  0  0  0  0  0
  127.9872  121.5572   54.7449 H   0  0  0  0  0  0  0  0  0  0  0  0
  126.9053  122.9912   54.7449 H   0  0  0  0  0  0  0  0  0  0  0  0
  125.4490  123.5969   57.7079 H   0  0  0  0  0  0  0  0  0  0  0  0
  125.8582  124.6070   59.9421 H   0  0  0  0  0  0  0  0  0  0  0  0
  127.3470  123.8560   62.2490 H   0  0  0  0  0  0  0  0  0  0  0  0
  129.6101  126.1452   63.4887 H   0  0  0  0  0  0  0  0  0  0  0  0
  128.1246  125.1453   63.7788 H   0  0  0  0  0  0  0  0  0  0  0  0
  129.4745  119.3076   62.3745 H   0  0  0  0  0  0  0  0  0  0  0  0
  129.0573  120.2250   60.8876 H   0  0  0  0  0  0  0  0  0  0  0  0
  130.4618  119.1053   60.8876 H   0  0  0  0  0  0  0  0  0  0  0  0
  132.5065  120.3285   60.7728 H   0  0  0  0  0  0  0  0  0  0  0  0
  135.0157  122.2533   62.2988 H   0  0  0  0  0  0  0  0  0  0  0  0
  134.5627  121.3255   60.8290 H   0  0  0  0  0  0  0  0  0  0  0  0
  134.4519  123.1183   60.8290 H   0  0  0  0  0  0  0  0  0  0  0  0
  129.5134  122.3218   60.2954 H   0  0  0  0  0  0  0  0  0  0  0  0
  129.0998  121.3132   58.0599 H   0  0  0  0  0  0  0  0  0  0  0  0
  1  2  1  0
  2  3  1  0
  3  4  2  0
  4  5  1  0
  5  6  2  0
  6  7  1  0
  7  8  1  0
  8  9  2  0
  8 10  1  0
 10 11  1  0
 11 12  1  0
 12 13  2  0
 13 14  1  0
 14 15  1  0
 14 16  2  0
 16 17  1  0
 17 18  1  0
 17 19  2  0
 19 20  1  0
 20 21  3  0
  6 22  1  0
 22 23  2  0
 23  3  1  0
 19 12  1  0
  1 24  1  0
  1 25  1  0
  1 26  1  0
  4 27  1  0
  5 28  1  0
  7 29  1  0
 10 30  1  0
 10 31  1  0
 15 32  1  0
 15 33  1  0
 15 34  1  0
 16 35  1  0
 18 36  1  0
 18 37  1  0
 18 38  1  0
 22 39  1  0
 23 40  1  0
M  END
>  <Binding energies>  (1) 
[-7.3]

>  <Ligand effiencies>  (1) 
[-0.30416666666666664]

>  <Interactions>  (1) 
["V-B:TYR:539:CE2:9845, V-B:PRO:540:N:9853, V-B:PRO:540:CB:9854, V-B:TYR:539:CZ:9846, V-A:LEU:475:CD1:4254, V-B:PRO:540:CA:9852, H-B:TYR:539:N:9839, V-B:TYR:539:CD1:9842, V-B:ILE:538:CA:9829, V-B:ILE:538:C:9827, V-B:TYR:539:C:9836, V-B:ALA:541:CB:9861, V-B:ILE:538:CG2:9832, V-B:TYR:539:CE1:9844, V-B:GLU:543:CD:9877, V-B:ILE:538:CB:9831, V-B:GLU:543:CG:9876, H-B:GLU:543:OE2:9879, V-B:MET:535:CE:9804, V-A:GLY:454:CA:4045, H-A:ARG:545:NH2:4925, H-A:ARG:545:NH1:4924, H-A:ARG:545:NE:4921, H-A:GLY:454:N:4046, H-A:TYR:484:OH:4344, V-B:TYR:539:CG:9841, V-B:TYR:539:CD2:9843, V-A:ILE:369:CG2:3233, V-A:ILE:369:CG1:3234, V-A:PRO:482:CG:4323"]

$$$$
1d_Ghoteimi_2023
     RDKit          3D

 50 52  0  0  0  0  0  0  0  0999 V2000
  133.5240  124.5930   62.4660 C   0  0  0  0  0  0  0  0  0  0  0  0
  133.3060  124.1840   63.8070 O   0  0  0  0  0  0  0  0  0  0  0  0
  133.6230  125.0010   64.8330 C   0  0  0  0  0  0  0  0  0  0  0  0
  134.7560  125.3640   65.1520 O   0  0  0  0  0  0  0  0  0  0  0  0
  132.3920  125.4600   65.6110 C   0  0  0  0  0  0  0  0  0  0  0  0
  131.1050  125.8840   64.3980 S   0  0  0  0  0  0  0  0  0  0  0  0
  129.8890  126.8640   65.2500 C   0  0  0  0  0  0  0  0  0  0  0  0
  130.0070  126.8280   66.5990 N   0  0  0  0  0  0  0  0  0  0  0  0
  129.1400  127.5290   67.3740 C   0  0  0  0  0  0  0  0  0  0  0  0
  129.3440  127.4410   68.8590 C   0  0  0  0  0  0  0  0  0  0  0  0
  128.3990  126.8170   69.6880 C   0  0  0  0  0  0  0  0  0  0  0  0
  128.5870  126.7420   71.0650 C   0  0  0  0  0  0  0  0  0  0  0  0
  129.7220  127.2900   71.6570 C   0  0  0  0  0  0  0  0  0  0  0  0
  129.8230  127.1720   73.0300 O   0  0  0  0  0  0  0  0  0  0  0  0
  128.6460  127.2800   73.8230 C   0  0  0  0  0  0  0  0  0  0  0  0
  130.6750  127.9170   70.8420 C   0  0  0  0  0  0  0  0  0  0  0  0
  130.4840  127.9890   69.4650 C   0  0  0  0  0  0  0  0  0  0  0  0
  128.1270  128.2990   66.7920 C   0  0  0  0  0  0  0  0  0  0  0  0
  127.9720  128.3420   65.4010 C   0  0  0  0  0  0  0  0  0  0  0  0
  126.8640  129.1780   64.8460 C   0  0  0  0  0  0  0  0  0  0  0  0
  127.1100  130.0650   63.7940 C   0  0  0  0  0  0  0  0  0  0  0  0
  126.0830  130.8470   63.2730 C   0  0  0  0  0  0  0  0  0  0  0  0
  124.7910  130.7560   63.7880 C   0  0  0  0  0  0  0  0  0  0  0  0
  123.8370  131.5740   63.2140 O   0  0  0  0  0  0  0  0  0  0  0  0
  123.8880  131.8260   61.8140 C   0  0  0  0  0  0  0  0  0  0  0  0
  124.5350  129.8580   64.8360 C   0  0  0  0  0  0  0  0  0  0  0  0
  125.5640  129.0760   65.3540 C   0  0  0  0  0  0  0  0  0  0  0  0
  128.8640  127.5870   64.5990 C   0  0  0  0  0  0  0  0  0  0  0  0
  128.6840  127.5120   63.1460 C   0  0  0  0  0  0  0  0  0  0  0  0
  128.5410  127.4530   61.9990 N   0  0  0  0  0  0  0  0  0  0  0  0
  134.0414  125.5637   62.4582 H   0  0  0  0  0  0  0  0  0  0  0  0
  134.1424  123.8437   61.9501 H   0  0  0  0  0  0  0  0  0  0  0  0
  132.5572  124.6887   61.9501 H   0  0  0  0  0  0  0  0  0  0  0  0
  132.0384  124.6502   66.2662 H   0  0  0  0  0  0  0  0  0  0  0  0
  132.6333  126.3298   66.2397 H   0  0  0  0  0  0  0  0  0  0  0  0
  127.4938  126.3795   69.2416 H   0  0  0  0  0  0  0  0  0  0  0  0
  127.8318  126.2451   71.6916 H   0  0  0  0  0  0  0  0  0  0  0  0
  128.9182  127.2550   74.8885 H   0  0  0  0  0  0  0  0  0  0  0  0
  128.1372  128.2286   73.5967 H   0  0  0  0  0  0  0  0  0  0  0  0
  127.9730  126.4398   73.5967 H   0  0  0  0  0  0  0  0  0  0  0  0
  131.5781  128.3542   71.2929 H   0  0  0  0  0  0  0  0  0  0  0  0
  131.2415  128.4851   68.8404 H   0  0  0  0  0  0  0  0  0  0  0  0
  127.4454  128.8765   67.4338 H   0  0  0  0  0  0  0  0  0  0  0  0
  128.1236  130.1457   63.3744 H   0  0  0  0  0  0  0  0  0  0  0  0
  126.2930  131.5430   62.4475 H   0  0  0  0  0  0  0  0  0  0  0  0
  124.1035  132.8907   61.6407 H   0  0  0  0  0  0  0  0  0  0  0  0
  124.6803  131.2129   61.3597 H   0  0  0  0  0  0  0  0  0  0  0  0
  122.9197  131.5692   61.3597 H   0  0  0  0  0  0  0  0  0  0  0  0
  123.5191  129.7719   65.2490 H   0  0  0  0  0  0  0  0  0  0  0  0
  125.3529  128.3706   66.1712 H   0  0  0  0  0  0  0  0  0  0  0  0
  1  2  1  0
  2  3  1  0
  3  4  2  0
  3  5  1  0
  5  6  1  0
  6  7  1  0
  7  8  2  0
  8  9  1  0
  9 10  1  0
 10 11  2  0
 11 12  1  0
 12 13  2  0
 13 14  1  0
 14 15  1  0
 13 16  1  0
 16 17  2  0
  9 18  2  0
 18 19  1  0
 19 20  1  0
 20 21  2  0
 21 22  1  0
 22 23  2  0
 23 24  1  0
 24 25  1  0
 23 26  1  0
 26 27  2  0
 19 28  2  0
 28 29  1  0
 29 30  3  0
 28  7  1  0
 17 10  1  0
 27 20  1  0
  1 31  1  0
  1 32  1  0
  1 33  1  0
  5 34  1  0
  5 35  1  0
 11 36  1  0
 12 37  1  0
 15 38  1  0
 15 39  1  0
 15 40  1  0
 16 41  1  0
 17 42  1  0
 18 43  1  0
 21 44  1  0
 22 45  1  0
 25 46  1  0
 25 47  1  0
 25 48  1  0
 26 49  1  0
 27 50  1  0
M  END
>  <Binding energies>  (1) 
[-8.63]

>  <Ligand effiencies>  (1) 
[-0.2876666666666667]

>  <Interactions>  (1) 
["V-B:GLU:543:CD:9877, V-A:ARG:545:CZ:4923, V-A:GLY:454:CA:4045, V-A:GLU:543:CD:4905, V-A:HIS:456:CE1:4066, H-A:ARG:545:NH1:4924, H-A:ARG:545:NE:4921, V-A:ASP:366:CG:3209, H-A:GLY:454:N:4046, H-A:TYR:484:OH:4344, V-B:ASP:366:CG:8181, V-A:LYS:547:CE:4947, V-B:HIS:456:CD2:9036, V-A:GLU:543:CB:4903, V-A:GLU:543:C:4899, H-A:LYS:547:NZ:4948, V-A:GLY:544:C:4909, V-B:LYS:547:CE:9919, V-B:HIS:456:CE1:9038, V-B:ARG:545:CZ:9895, V-B:ILE:369:CD1:8207, V-A:HIS:456:CD2:4064, H-B:GLY:454:N:9018"]

$$$$
1d_Grossjean_2025
     RDKit          3D

 36 37  0  0  0  0  0  0  0  0999 V2000
  128.7730  121.6510   59.9140 C   0  0  0  0  0  0  0  0  0  0  0  0
  127.6020  122.4770   59.4200 C   0  0  0  0  0  0  0  0  0  0  0  0
  126.8620  123.2840   60.2820 C   0  0  0  0  0  0  0  0  0  0  0  0
  125.7980  124.0320   59.7690 C   0  0  0  0  0  0  0  0  0  0  0  0
  125.0120  124.9210   60.7310 C   0  0  0  0  0  0  0  0  0  0  0  0
  125.4930  123.9450   58.3910 C   0  0  0  0  0  0  0  0  0  0  0  0
  124.4130  124.7550   57.8220 C   0  0  0  0  0  0  0  0  0  0  0  0
  123.5600  125.3980   57.3760 N   0  0  0  0  0  0  0  0  0  0  0  0
  126.2810  123.0820   57.5940 C   0  0  0  0  0  0  0  0  0  0  0  0
  126.0380  122.8500   55.8470 S   0  0  0  0  0  0  0  0  0  0  0  0
  127.5470  122.0790   55.1870 C   0  0  0  0  0  0  0  0  0  0  0  0
  128.6450  123.1070   54.9100 C   0  0  0  0  0  0  0  0  0  0  0  0
  128.9720  123.3380   53.7460 O   0  0  0  0  0  0  0  0  0  0  0  0
  129.1620  123.7090   56.0030 N   0  0  0  0  0  0  0  0  0  0  0  0
  130.1820  124.6730   56.1040 C   0  0  0  0  0  0  0  0  0  0  0  0
  130.1140  125.5120   57.2200 C   0  0  0  0  0  0  0  0  0  0  0  0
  131.0770  126.4970   57.4190 C   0  0  0  0  0  0  0  0  0  0  0  0
  132.1160  126.6410   56.5030 C   0  0  0  0  0  0  0  0  0  0  0  0
  132.2010  125.8060   55.3910 C   0  0  0  0  0  0  0  0  0  0  0  0
  131.2380  124.8210   55.1890 C   0  0  0  0  0  0  0  0  0  0  0  0
  127.3250  122.3760   58.0980 N   0  0  0  0  0  0  0  0  0  0  0  0
  128.7801  121.6460   61.0140 H   0  0  0  0  0  0  0  0  0  0  0  0
  128.6767  120.6198   59.5433 H   0  0  0  0  0  0  0  0  0  0  0  0
  129.7121  122.0877   59.5433 H   0  0  0  0  0  0  0  0  0  0  0  0
  127.1118  123.3319   61.3522 H   0  0  0  0  0  0  0  0  0  0  0  0
  125.2559  124.6451   61.7675 H   0  0  0  0  0  0  0  0  0  0  0  0
  125.2799  125.9739   60.5591 H   0  0  0  0  0  0  0  0  0  0  0  0
  123.9342  124.7841   60.5591 H   0  0  0  0  0  0  0  0  0  0  0  0
  127.9216  121.3487   55.9194 H   0  0  0  0  0  0  0  0  0  0  0  0
  127.2900  121.5931   54.2342 H   0  0  0  0  0  0  0  0  0  0  0  0
  128.7540  123.4470   56.8890 H   0  0  0  0  0  0  0  0  0  0  0  0
  129.2951  125.3931   57.9447 H   0  0  0  0  0  0  0  0  0  0  0  0
  131.0177  127.1587   58.2957 H   0  0  0  0  0  0  0  0  0  0  0  0
  132.8761  127.4207   56.6588 H   0  0  0  0  0  0  0  0  0  0  0  0
  133.0270  125.9247   54.6743 H   0  0  0  0  0  0  0  0  0  0  0  0
  131.3039  124.1587   54.3132 H   0  0  0  0  0  0  0  0  0  0  0  0
  1  2  1  0
  2  3  2  0
  3  4  1  0
  4  5  1  0
  4  6  2  0
  6  7  1  0
  7  8  3  0
  6  9  1  0
  9 10  1  0
 10 11  1  0
 11 12  1  0
 12 13  2  0
 12 14  1  0
 14 15  1  0
 15 16  2  0
 16 17  1  0
 17 18  2  0
 18 19  1  0
 19 20  2  0
  9 21  2  0
 21  2  1  0
 20 15  1  0
  1 22  1  0
  1 23  1  0
  1 24  1  0
  3 25  1  0
  5 26  1  0
  5 27  1  0
  5 28  1  0
 11 29  1  0
 11 30  1  0
 14 31  1  0
 16 32  1  0
 17 33  1  0
 18 34  1  0
 19 35  1  0
 20 36  1  0
M  END
>  <Binding energies>  (1) 
[-7.17]

>  <Ligand effiencies>  (1) 
[-0.3259090909090909]

>  <Interactions>  (1) 
["V-B:TYR:539:CE2:9845, V-B:PRO:540:N:9853, V-B:PRO:540:CB:9854, V-B:TYR:539:CZ:9846, V-B:PRO:540:CA:9852, V-B:TYR:539:CD1:9842, V-B:ILE:538:CA:9829, V-B:ILE:538:C:9827, V-B:TYR:539:C:9836, V-B:LEU:363:CD1:8157, V-B:ALA:541:CB:9861, V-B:ILE:538:CG2:9832, V-B:TYR:539:CE1:9844, V-B:ILE:538:CB:9831, V-B:MET:535:CE:9804, V-A:ASP:366:CB:3208, V-A:TYR:531:CE1:4789, H-B:TYR:531:OH:9764, V-A:TYR:531:CZ:4791, V-B:TYR:539:CG:9841, V-B:TYR:539:CD2:9843"]

$$$$
1e_Grossjean_2025
     RDKit          3D

 38 39  0  0  0  0  0  0  0  0999 V2000
  124.5410  132.1230   60.2020 C   0  0  0  0  0  0  0  0  0  0  0  0
  124.7300  131.6840   58.7620 C   0  0  0  0  0  0  0  0  0  0  0  0
  123.6410  131.3900   57.9380 C   0  0  0  0  0  0  0  0  0  0  0  0
  123.8930  130.9900   56.6250 C   0  0  0  0  0  0  0  0  0  0  0  0
  125.2100  130.8940   56.1720 C   0  0  0  0  0  0  0  0  0  0  0  0
  126.2550  131.2100   57.0490 C   0  0  0  0  0  0  0  0  0  0  0  0
  127.5600  131.0830   56.5400 N   0  0  0  0  0  0  0  0  0  0  0  0
  127.9610  131.0670   55.2500 C   0  0  0  0  0  0  0  0  0  0  0  0
  127.2120  131.1540   54.2760 O   0  0  0  0  0  0  0  0  0  0  0  0
  129.4650  130.8980   55.0230 C   0  0  0  0  0  0  0  0  0  0  0  0
  130.4220  132.2540   55.7660 S   0  0  0  0  0  0  0  0  0  0  0  0
  130.4760  132.0140   57.5310 C   0  0  0  0  0  0  0  0  0  0  0  0
  129.3870  132.5050   58.1750 N   0  0  0  0  0  0  0  0  0  0  0  0
  129.3160  132.3840   59.5220 C   0  0  0  0  0  0  0  0  0  0  0  0
  128.0680  132.9490   60.1710 C   0  0  0  0  0  0  0  0  0  0  0  0
  130.3220  131.7850   60.2760 C   0  0  0  0  0  0  0  0  0  0  0  0
  131.4600  131.2970   59.6260 C   0  0  0  0  0  0  0  0  0  0  0  0
  132.5570  130.6600   60.4780 C   0  0  0  0  0  0  0  0  0  0  0  0
  131.5580  131.4150   58.2200 C   0  0  0  0  0  0  0  0  0  0  0  0
  132.7680  130.9620   57.5300 C   0  0  0  0  0  0  0  0  0  0  0  0
  133.7250  130.6030   56.9880 N   0  0  0  0  0  0  0  0  0  0  0  0
  126.0160  131.5970   58.3370 N   0  0  0  0  0  0  0  0  0  0  0  0
  124.8845  131.3250   60.8767 H   0  0  0  0  0  0  0  0  0  0  0  0
  125.1257  133.0363   60.3867 H   0  0  0  0  0  0  0  0  0  0  0  0
  123.4758  132.3260   60.3867 H   0  0  0  0  0  0  0  0  0  0  0  0
  122.6107  131.4717   58.3146 H   0  0  0  0  0  0  0  0  0  0  0  0
  123.0578  130.7515   55.9501 H   0  0  0  0  0  0  0  0  0  0  0  0
  125.4237  130.5748   55.1413 H   0  0  0  0  0  0  0  0  0  0  0  0
  128.2730  130.9340   57.2390 H   0  0  0  0  0  0  0  0  0  0  0  0
  129.7876  129.9475   55.4729 H   0  0  0  0  0  0  0  0  0  0  0  0
  129.6483  130.9070   53.9384 H   0  0  0  0  0  0  0  0  0  0  0  0
  128.1706  132.9025   61.2652 H   0  0  0  0  0  0  0  0  0  0  0  0
  127.9343  133.9954   59.8594 H   0  0  0  0  0  0  0  0  0  0  0  0
  127.1935  132.3590   59.8594 H   0  0  0  0  0  0  0  0  0  0  0  0
  130.2228  131.6969   61.3680 H   0  0  0  0  0  0  0  0  0  0  0  0
  132.3202  130.7975   61.5434 H   0  0  0  0  0  0  0  0  0  0  0  0
  132.6192  129.5853   60.2520 H   0  0  0  0  0  0  0  0  0  0  0  0
  133.5213  131.1387   60.2520 H   0  0  0  0  0  0  0  0  0  0  0  0
  1  2  1  0
  2  3  2  0
  3  4  1  0
  4  5  2  0
  5  6  1  0
  6  7  1  0
  7  8  1  0
  8  9  2  0
  8 10  1  0
 10 11  1  0
 11 12  1  0
 12 13  2  0
 13 14  1  0
 14 15  1  0
 14 16  2  0
 16 17  1  0
 17 18  1  0
 17 19  2  0
 19 20  1  0
 20 21  3  0
  6 22  2  0
 22  2  1  0
 19 12  1  0
  1 23  1  0
  1 24  1  0
  1 25  1  0
  3 26  1  0
  4 27  1  0
  5 28  1  0
  7 29  1  0
 10 30  1  0
 10 31  1  0
 15 32  1  0
 15 33  1  0
 15 34  1  0
 16 35  1  0
 18 36  1  0
 18 37  1  0
 18 38  1  0
M  END
>  <Binding energies>  (1) 
[-7.01]

>  <Ligand effiencies>  (1) 
[-0.30478260869565216]

>  <Interactions>  (1) 
["H-A:TYR:531:OH:4792, H-A:TYR:539:OH:4875, V-A:PRO:540:CB:4882, V-A:TYR:539:C:4864, V-A:PRO:540:CA:4880, H-A:TYR:539:N:4867, V-A:LEU:363:CD1:3185, V-A:PRO:540:N:4881, H-B:LYS:534:NZ:9792, V-A:ILE:538:CD1:4862, V-A:TYR:539:CZ:4874, V-B:ASP:366:CB:8180, V-B:TYR:531:CZ:9763, V-A:LEU:363:CA:3181, V-A:TYR:539:CE2:4873, V-B:TYR:531:CE1:9761, V-A:ASN:362:CB:3172, V-B:ASP:366:CG:8181, V-B:ILE:369:CG2:8205, V-B:ILE:369:CD1:8207, V-B:ASP:366:CA:8178, V-B:ILE:369:CB:8204, V-B:ASP:366:C:8176"]

$$$$
1f_Grossjean_2025
     RDKit          3D

 35 36  0  0  0  0  0  0  0  0999 V2000
  124.1900  131.3500   57.1090 C   0  0  0  0  0  0  0  0  0  0  0  0
  125.4230  130.5250   56.7930 C   0  0  0  0  0  0  0  0  0  0  0  0
  125.9010  129.5590   57.6750 C   0  0  0  0  0  0  0  0  0  0  0  0
  127.0510  128.8380   57.3340 C   0  0  0  0  0  0  0  0  0  0  0  0
  127.5670  127.7980   58.3260 C   0  0  0  0  0  0  0  0  0  0  0  0
  127.6920  129.1010   56.1020 C   0  0  0  0  0  0  0  0  0  0  0  0
  128.9290  128.3950   55.7530 C   0  0  0  0  0  0  0  0  0  0  0  0
  129.9040  127.8370   55.4790 N   0  0  0  0  0  0  0  0  0  0  0  0
  127.1210  130.0790   55.2550 C   0  0  0  0  0  0  0  0  0  0  0  0
  127.7870  130.5430   53.6690 S   0  0  0  0  0  0  0  0  0  0  0  0
  128.7090  132.1060   53.8670 C   0  0  0  0  0  0  0  0  0  0  0  0
  129.4010  132.2810   55.2270 C   0  0  0  0  0  0  0  0  0  0  0  0
  129.1280  133.2420   55.9480 O   0  0  0  0  0  0  0  0  0  0  0  0
  130.3140  131.3300   55.5190 N   0  0  0  0  0  0  0  0  0  0  0  0
  131.1180  131.1780   56.6640 C   0  0  0  0  0  0  0  0  0  0  0  0
  130.6570  130.8370   57.9500 C   0  0  0  0  0  0  0  0  0  0  0  0
  131.5700  130.7150   59.0010 C   0  0  0  0  0  0  0  0  0  0  0  0
  132.9230  130.9330   58.7410 C   0  0  0  0  0  0  0  0  0  0  0  0
  133.3930  131.2570   57.5100 N   0  0  0  0  0  0  0  0  0  0  0  0
  132.4940  131.3730   56.4990 C   0  0  0  0  0  0  0  0  0  0  0  0
  126.0190  130.7900   55.6060 N   0  0  0  0  0  0  0  0  0  0  0  0
  124.0715  131.4293   58.1997 H   0  0  0  0  0  0  0  0  0  0  0  0
  124.3016  132.3560   56.6782 H   0  0  0  0  0  0  0  0  0  0  0  0
  123.3027  130.8630   56.6782 H   0  0  0  0  0  0  0  0  0  0  0  0
  125.3823  129.3656   58.6256 H   0  0  0  0  0  0  0  0  0  0  0  0
  127.3915  128.1518   59.3527 H   0  0  0  0  0  0  0  0  0  0  0  0
  127.0361  126.8473   58.1700 H   0  0  0  0  0  0  0  0  0  0  0  0
  128.6452  127.6457   58.1700 H   0  0  0  0  0  0  0  0  0  0  0  0
  129.4797  132.1497   53.0834 H   0  0  0  0  0  0  0  0  0  0  0  0
  127.9661  132.9138   53.7927 H   0  0  0  0  0  0  0  0  0  0  0  0
  130.4630  130.6250   54.8110 H   0  0  0  0  0  0  0  0  0  0  0  0
  129.5845  130.6676   58.1264 H   0  0  0  0  0  0  0  0  0  0  0  0
  131.2285  130.4523   60.0131 H   0  0  0  0  0  0  0  0  0  0  0  0
  133.6400  130.8382   59.5698 H   0  0  0  0  0  0  0  0  0  0  0  0
  132.8669  131.6340   55.4976 H   0  0  0  0  0  0  0  0  0  0  0  0
  1  2  1  0
  2  3  2  0
  3  4  1  0
  4  5  1  0
  4  6  2  0
  6  7  1  0
  7  8  3  0
  6  9  1  0
  9 10  1  0
 10 11  1  0
 11 12  1  0
 12 13  2  0
 12 14  1  0
 14 15  1  0
 15 16  2  0
 16 17  1  0
 17 18  2  0
 18 19  1  0
 19 20  2  0
  9 21  2  0
 21  2  1  0
 20 15  1  0
  1 22  1  0
  1 23  1  0
  1 24  1  0
  3 25  1  0
  5 26  1  0
  5 27  1  0
  5 28  1  0
 11 29  1  0
 11 30  1  0
 14 31  1  0
 16 32  1  0
 17 33  1  0
 18 34  1  0
 20 35  1  0
M  END
>  <Binding energies>  (1) 
[-6.91]

>  <Ligand effiencies>  (1) 
[-0.3140909090909091]

>  <Interactions>  (1) 
["V-B:MET:535:CE:9804, H-A:TYR:531:OH:4792, H-B:TYR:531:OH:9764, H-A:TYR:539:OH:4875, V-A:PRO:540:CB:4882, V-A:TYR:539:CE1:4872, V-A:PRO:540:CA:4880, H-A:TYR:539:N:4867, V-A:LEU:363:CD1:3185, H-B:LYS:534:NZ:9792, V-A:TYR:531:CZ:4791, V-A:ILE:538:CA:4857, V-A:ILE:538:CD1:4862, V-A:TYR:531:CE2:4790, V-A:TYR:539:CZ:4874, V-B:ASP:366:CB:8180, V-B:TYR:531:CZ:9763, V-A:LEU:363:CA:3181, V-A:TYR:539:CE2:4873, V-B:TYR:531:CE1:9761, V-B:ILE:369:CG2:8205, V-B:ASP:366:C:8176"]

$$$$
1g_Grossjean_2025
     RDKit          3D

 39 40  0  0  0  0  0  0  0  0999 V2000
  123.8760  131.5490   57.0710 C   0  0  0  0  0  0  0  0  0  0  0  0
  125.1150  130.7060   56.8330 C   0  0  0  0  0  0  0  0  0  0  0  0
  125.6300  129.8700   57.8220 C   0  0  0  0  0  0  0  0  0  0  0  0
  126.7840  129.1280   57.5500 C   0  0  0  0  0  0  0  0  0  0  0  0
  127.3400  128.2300   58.6560 C   0  0  0  0  0  0  0  0  0  0  0  0
  127.3940  129.2360   56.2800 C   0  0  0  0  0  0  0  0  0  0  0  0
  128.6320  128.5090   55.9910 C   0  0  0  0  0  0  0  0  0  0  0  0
  129.6110  127.9340   55.7660 N   0  0  0  0  0  0  0  0  0  0  0  0
  126.7870  130.0890   55.3280 C   0  0  0  0  0  0  0  0  0  0  0  0
  127.4140  130.3360   53.6820 S   0  0  0  0  0  0  0  0  0  0  0  0
  128.8720  131.4120   53.8150 C   0  0  0  0  0  0  0  0  0  0  0  0
  128.9840  132.0580   55.1970 C   0  0  0  0  0  0  0  0  0  0  0  0
  128.6610  133.2360   55.3550 O   0  0  0  0  0  0  0  0  0  0  0  0
  129.4480  131.2730   56.1840 N   0  0  0  0  0  0  0  0  0  0  0  0
  129.5810  131.6650   57.5870 C   0  0  0  0  0  0  0  0  0  0  0  0
  130.9630  131.4110   58.1820 C   0  0  0  0  0  0  0  0  0  0  0  0
  132.0640  131.2350   57.3380 C   0  0  0  0  0  0  0  0  0  0  0  0
  133.3260  131.0050   57.8800 C   0  0  0  0  0  0  0  0  0  0  0  0
  133.4830  130.9560   59.2650 C   0  0  0  0  0  0  0  0  0  0  0  0
  132.3910  131.1360   60.1100 C   0  0  0  0  0  0  0  0  0  0  0  0
  131.1290  131.3650   59.5690 C   0  0  0  0  0  0  0  0  0  0  0  0
  125.6800  130.8230   55.6080 N   0  0  0  0  0  0  0  0  0  0  0  0
  123.7111  131.6612   58.1528 H   0  0  0  0  0  0  0  0  0  0  0  0
  124.0146  132.5410   56.6164 H   0  0  0  0  0  0  0  0  0  0  0  0
  123.0041  131.0559   56.6164 H   0  0  0  0  0  0  0  0  0  0  0  0
  125.1362  129.7948   58.8021 H   0  0  0  0  0  0  0  0  0  0  0  0
  127.0785  128.6524   59.6374 H   0  0  0  0  0  0  0  0  0  0  0  0
  126.9071  127.2230   58.5631 H   0  0  0  0  0  0  0  0  0  0  0  0
  128.4343  128.1686   58.5631 H   0  0  0  0  0  0  0  0  0  0  0  0
  129.7747  130.8113   53.6297 H   0  0  0  0  0  0  0  0  0  0  0  0
  128.7694  132.2163   53.0716 H   0  0  0  0  0  0  0  0  0  0  0  0
  129.6700  130.3120   55.9700 H   0  0  0  0  0  0  0  0  0  0  0  0
  129.3643  132.7405   57.6662 H   0  0  0  0  0  0  0  0  0  0  0  0
  128.8741  131.0433   58.1560 H   0  0  0  0  0  0  0  0  0  0  0  0
  131.9333  131.2782   56.2466 H   0  0  0  0  0  0  0  0  0  0  0  0
  134.1941  130.8628   57.2196 H   0  0  0  0  0  0  0  0  0  0  0  0
  134.4793  130.7734   59.6940 H   0  0  0  0  0  0  0  0  0  0  0  0
  132.5251  131.0974   61.2011 H   0  0  0  0  0  0  0  0  0  0  0  0
  130.2635  131.5096   60.2323 H   0  0  0  0  0  0  0  0  0  0  0  0
  1  2  1  0
  2  3  2  0
  3  4  1  0
  4  5  1  0
  4  6  2  0
  6  7  1  0
  7  8  3  0
  6  9  1  0
  9 10  1  0
 10 11  1  0
 11 12  1  0
 12 13  2  0
 12 14  1  0
 14 15  1  0
 15 16  1  0
 16 17  2  0
 17 18  1  0
 18 19  2  0
 19 20  1  0
 20 21  2  0
  9 22  2  0
 22  2  1  0
 21 16  1  0
  1 23  1  0
  1 24  1  0
  1 25  1  0
  3 26  1  0
  5 27  1  0
  5 28  1  0
  5 29  1  0
 11 30  1  0
 11 31  1  0
 14 32  1  0
 15 33  1  0
 15 34  1  0
 17 35  1  0
 18 36  1  0
 19 37  1  0
 20 38  1  0
 21 39  1  0
M  END
>  <Binding energies>  (1) 
[-6.8]

>  <Ligand effiencies>  (1) 
[-0.2956521739130435]

>  <Interactions>  (1) 
["V-B:MET:535:CE:9804, V-A:ASP:366:CG:3209, H-A:TYR:531:OH:4792, H-B:TYR:531:OH:9764, H-A:TYR:539:OH:4875, V-A:PRO:540:CB:4882, V-A:PRO:540:CA:4880, H-A:TYR:539:N:4867, V-A:LEU:363:CD1:3185, H-B:LYS:534:NZ:9792, V-A:ILE:538:CD1:4862, V-A:TYR:539:CZ:4874, V-B:ASP:366:CB:8180, V-B:TYR:531:CZ:9763, V-A:LEU:363:CA:3181, V-A:LEU:363:CB:3183, V-A:TYR:539:CE2:4873, V-B:TYR:531:CE1:9761, V-B:ASP:366:CG:8181, V-B:ILE:369:CG2:8205, V-A:ASN:362:C:3168, V-B:ILE:369:CB:8204, V-B:ASP:366:C:8176"]

$$$$
1h_Grossjean_2025
     RDKit          3D

 51 52  0  0  0  0  0  0  0  0999 V2000
  128.4520  122.7300   54.3330 C   0  0  0  0  0  0  0  0  0  0  0  0
  128.1410  122.0300   55.5320 O   0  0  0  0  0  0  0  0  0  0  0  0
  128.0650  122.7280   56.7240 C   0  0  0  0  0  0  0  0  0  0  0  0
  129.0950  123.5380   57.2260 C   0  0  0  0  0  0  0  0  0  0  0  0
  128.9530  124.2030   58.4440 C   0  0  0  0  0  0  0  0  0  0  0  0
  130.0720  125.0980   58.9670 C   0  0  0  0  0  0  0  0  0  0  0  0
  131.3890  124.4610   58.9770 N   0  0  0  0  0  0  0  0  0  0  0  0
  132.2830  124.5400   59.9780 C   0  0  0  0  0  0  0  0  0  0  0  0
  132.0790  125.1460   61.0300 O   0  0  0  0  0  0  0  0  0  0  0  0
  133.6180  123.8270   59.7580 C   0  0  0  0  0  0  0  0  0  0  0  0
  133.9700  122.6200   61.0710 S   0  0  0  0  0  0  0  0  0  0  0  0
  132.4570  122.3220   61.9700 C   0  0  0  0  0  0  0  0  0  0  0  0
  131.6630  121.3350   61.4780 N   0  0  0  0  0  0  0  0  0  0  0  0
  130.5020  121.0540   62.1140 C   0  0  0  0  0  0  0  0  0  0  0  0
  129.6730  119.9380   61.5070 C   0  0  0  0  0  0  0  0  0  0  0  0
  130.0840  121.7370   63.2540 C   0  0  0  0  0  0  0  0  0  0  0  0
  130.8920  122.7570   63.7700 C   0  0  0  0  0  0  0  0  0  0  0  0
  130.4160  123.4910   65.0210 C   0  0  0  0  0  0  0  0  0  0  0  0
  132.1090  123.0670   63.1210 C   0  0  0  0  0  0  0  0  0  0  0  0
  132.9740  124.1310   63.6370 C   0  0  0  0  0  0  0  0  0  0  0  0
  133.6560  124.9730   64.0450 N   0  0  0  0  0  0  0  0  0  0  0  0
  127.7570  124.0900   59.1550 C   0  0  0  0  0  0  0  0  0  0  0  0
  126.7080  123.2910   58.6750 C   0  0  0  0  0  0  0  0  0  0  0  0
  125.4980  123.1310   59.3260 O   0  0  0  0  0  0  0  0  0  0  0  0
  125.1290  124.0490   60.3500 C   0  0  0  0  0  0  0  0  0  0  0  0
  126.8780  122.6060   57.4630 C   0  0  0  0  0  0  0  0  0  0  0  0
  125.8570  121.8250   56.9770 O   0  0  0  0  0  0  0  0  0  0  0  0
  125.0240  122.4840   56.0330 C   0  0  0  0  0  0  0  0  0  0  0  0
  128.8870  123.7091   54.5823 H   0  0  0  0  0  0  0  0  0  0  0  0
  129.1755  122.1464   53.7448 H   0  0  0  0  0  0  0  0  0  0  0  0
  127.5339  122.8757   53.7448 H   0  0  0  0  0  0  0  0  0  0  0  0
  130.0264  123.6500   56.6517 H   0  0  0  0  0  0  0  0  0  0  0  0
  130.1256  125.9928   58.3295 H   0  0  0  0  0  0  0  0  0  0  0  0
  129.8262  125.3363   60.0124 H   0  0  0  0  0  0  0  0  0  0  0  0
  131.6430  123.9530   58.1420 H   0  0  0  0  0  0  0  0  0  0  0  0
  133.5850  123.3016   58.7922 H   0  0  0  0  0  0  0  0  0  0  0  0
  134.4145  124.5855   59.7714 H   0  0  0  0  0  0  0  0  0  0  0  0
  129.2252  119.3351   62.3107 H   0  0  0  0  0  0  0  0  0  0  0  0
  128.8754  120.3704   60.8851 H   0  0  0  0  0  0  0  0  0  0  0  0
  130.3173  119.2992   60.8851 H   0  0  0  0  0  0  0  0  0  0  0  0
  129.1325  121.4784   63.7417 H   0  0  0  0  0  0  0  0  0  0  0  0
  130.7641  122.9542   65.9158 H   0  0  0  0  0  0  0  0  0  0  0  0
  130.8240  124.5125   65.0243 H   0  0  0  0  0  0  0  0  0  0  0  0
  129.3169  123.5352   65.0243 H   0  0  0  0  0  0  0  0  0  0  0  0
  127.6353  124.6340   60.1033 H   0  0  0  0  0  0  0  0  0  0  0  0
  125.3121  123.5934   61.3343 H   0  0  0  0  0  0  0  0  0  0  0  0
  125.7282  124.9664   60.2534 H   0  0  0  0  0  0  0  0  0  0  0  0
  124.0616  124.2964   60.2534 H   0  0  0  0  0  0  0  0  0  0  0  0
  124.2687  123.0815   56.5646 H   0  0  0  0  0  0  0  0  0  0  0  0
  125.6365  123.1447   55.4018 H   0  0  0  0  0  0  0  0  0  0  0  0
  124.5220  121.7359   55.4018 H   0  0  0  0  0  0  0  0  0  0  0  0
  1  2  1  0
  2  3  1  0
  3  4  2  0
  4  5  1  0
  5  6  1  0
  6  7  1  0
  7  8  1  0
  8  9  2  0
  8 10  1  0
 10 11  1  0
 11 12  1  0
 12 13  2  0
 13 14  1  0
 14 15  1  0
 14 16  2  0
 16 17  1  0
 17 18  1  0
 17 19  2  0
 19 20  1  0
 20 21  3  0
  5 22  2  0
 22 23  1  0
 23 24  1  0
 24 25  1  0
 23 26  2  0
 26 27  1  0
 27 28  1  0
 26  3  1  0
 19 12  1  0
  1 29  1  0
  1 30  1  0
  1 31  1  0
  4 32  1  0
  6 33  1  0
  6 34  1  0
  7 35  1  0
 10 36  1  0
 10 37  1  0
 15 38  1  0
 15 39  1  0
 15 40  1  0
 16 41  1  0
 18 42  1  0
 18 43  1  0
 18 44  1  0
 22 45  1  0
 25 46  1  0
 25 47  1  0
 25 48  1  0
 28 49  1  0
 28 50  1  0
 28 51  1  0
M  END
>  <Binding energies>  (1) 
[-7.43]

>  <Ligand effiencies>  (1) 
[-0.25620689655172413]

>  <Interactions>  (1) 
["V-B:TYR:539:CE2:9845, V-B:PRO:540:N:9853, V-B:PRO:540:CB:9854, V-B:TYR:539:CZ:9846, V-A:TYR:484:CZ:4343, V-A:LEU:475:CD1:4254, V-B:PRO:540:CA:9852, H-B:TYR:539:N:9839, V-B:TYR:539:CD1:9842, V-B:ILE:538:CA:9829, V-B:TYR:539:C:9836, V-B:LEU:363:CD1:8157, V-B:ALA:541:CB:9861, V-B:ILE:538:CG2:9832, V-B:TYR:539:CE1:9844, V-A:TYR:484:CE1:4341, V-B:ILE:538:CB:9831, V-A:LEU:475:CD2:4255, V-B:GLU:543:CG:9876, V-B:MET:535:CE:9804, V-A:GLY:454:CA:4045, V-A:ASP:366:CB:3208, H-A:ARG:545:NH2:4925, H-A:ARG:545:NH1:4924, H-B:TYR:539:OH:9847, H-A:ARG:545:NE:4921, V-A:ASP:366:CG:3209, H-A:GLY:454:N:4046, V-B:PRO:540:CD:9856, V-B:TYR:539:CD2:9843, V-A:ILE:369:CB:3232, V-B:ALA:541:CA:9859, V-A:ASP:366:CA:3206, V-B:PRO:540:CG:9855, V-A:PRO:482:CG:4323"]

$$$$
1i_Grossjean_2025
     RDKit          3D

 32 33  0  0  0  0  0  0  0  0999 V2000
  128.0010  122.6770   55.1300 C   0  0  0  0  0  0  0  0  0  0  0  0
  127.3820  122.8360   56.5060 C   0  0  0  0  0  0  0  0  0  0  0  0
  126.1050  123.3650   56.6740 C   0  0  0  0  0  0  0  0  0  0  0  0
  125.5810  123.4790   57.9670 C   0  0  0  0  0  0  0  0  0  0  0  0
  124.1720  124.0470   58.1250 C   0  0  0  0  0  0  0  0  0  0  0  0
  126.3620  123.0600   59.0690 C   0  0  0  0  0  0  0  0  0  0  0  0
  125.8140  123.1230   60.4260 C   0  0  0  0  0  0  0  0  0  0  0  0
  125.3780  123.1730   61.4970 N   0  0  0  0  0  0  0  0  0  0  0  0
  127.6580  122.5570   58.8050 C   0  0  0  0  0  0  0  0  0  0  0  0
  128.7740  121.9880   60.0690 S   0  0  0  0  0  0  0  0  0  0  0  0
  130.1680  123.1530   60.1360 C   0  0  0  0  0  0  0  0  0  0  0  0
  130.7910  123.2240   61.5330 C   0  0  0  0  0  0  0  0  0  0  0  0
  130.4450  122.4110   62.3900 O   0  0  0  0  0  0  0  0  0  0  0  0
  131.7020  124.2050   61.7140 N   0  0  0  0  0  0  0  0  0  0  0  0
  132.4080  124.4930   62.8730 C   0  0  0  0  0  0  0  0  0  0  0  0
  131.7900  124.7720   64.0910 C   0  0  0  0  0  0  0  0  0  0  0  0
  132.8210  124.9990   64.9720 C   0  0  0  0  0  0  0  0  0  0  0  0
  134.0000  124.8670   64.3190 O   0  0  0  0  0  0  0  0  0  0  0  0
  133.7250  124.5480   62.9880 N   0  0  0  0  0  0  0  0  0  0  0  0
  128.1490  122.4330   57.5460 N   0  0  0  0  0  0  0  0  0  0  0  0
  129.0616  122.4046   55.2343 H   0  0  0  0  0  0  0  0  0  0  0  0
  127.4716  121.8857   54.5790 H   0  0  0  0  0  0  0  0  0  0  0  0
  127.9185  123.6255   54.5790 H   0  0  0  0  0  0  0  0  0  0  0  0
  125.5163  123.6887   55.8030 H   0  0  0  0  0  0  0  0  0  0  0  0
  123.9333  124.1432   59.1945 H   0  0  0  0  0  0  0  0  0  0  0  0
  124.1198  125.0364   57.6472 H   0  0  0  0  0  0  0  0  0  0  0  0
  123.4482  123.3704   57.6472 H   0  0  0  0  0  0  0  0  0  0  0  0
  130.9374  122.8274   59.4204 H   0  0  0  0  0  0  0  0  0  0  0  0
  129.7866  124.1534   59.8833 H   0  0  0  0  0  0  0  0  0  0  0  0
  131.8750  124.8260   60.9360 H   0  0  0  0  0  0  0  0  0  0  0  0
  130.7108  124.8037   64.3018 H   0  0  0  0  0  0  0  0  0  0  0  0
  132.7064  125.2481   66.0373 H   0  0  0  0  0  0  0  0  0  0  0  0
  1  2  1  0
  2  3  2  0
  3  4  1  0
  4  5  1  0
  4  6  2  0
  6  7  1  0
  7  8  3  0
  6  9  1  0
  9 10  1  0
 10 11  1  0
 11 12  1  0
 12 13  2  0
 12 14  1  0
 14 15  1  0
 15 16  1  0
 16 17  2  0
 17 18  1  0
 18 19  1  0
  9 20  2  0
 20  2  1  0
 19 15  2  0
  1 21  1  0
  1 22  1  0
  1 23  1  0
  3 24  1  0
  5 25  1  0
  5 26  1  0
  5 27  1  0
 11 28  1  0
 11 29  1  0
 14 30  1  0
 16 31  1  0
 17 32  1  0
M  END
>  <Binding energies>  (1) 
[-7.37]

>  <Ligand effiencies>  (1) 
[-0.35095238095238096]

>  <Interactions>  (1) 
["V-B:TYR:539:CE2:9845, V-B:PRO:540:N:9853, V-B:PRO:540:CB:9854, V-B:TYR:539:CZ:9846, H-B:ALA:541:N:9860, V-B:PRO:540:CA:9852, V-B:TYR:539:CD1:9842, V-B:ILE:538:CA:9829, V-B:PRO:540:C:9850, V-B:TYR:539:C:9836, V-B:LEU:363:CD1:8157, V-B:ILE:538:CG2:9832, V-B:TYR:539:CE1:9844, V-B:ILE:538:CB:9831, V-B:MET:535:CE:9804, V-A:ARG:545:CZ:4923, V-A:HIS:456:CE1:4066, H-A:ARG:545:NH1:4924, H-A:ARG:545:NE:4921, H-A:GLY:454:N:4046, V-B:LEU:363:CA:8153, H-A:ASP:366:OD1:3210, H-A:ASP:366:OD2:3211"]

$$$$
1j_Grossjean_2025
     RDKit          3D

 32 33  0  0  0  0  0  0  0  0999 V2000
  128.5260  122.1890   59.7810 C   0  0  0  0  0  0  0  0  0  0  0  0
  128.9460  123.2720   58.8050 C   0  0  0  0  0  0  0  0  0  0  0  0
  129.3640  124.5260   59.2430 C   0  0  0  0  0  0  0  0  0  0  0  0
  129.7520  125.4820   58.2990 C   0  0  0  0  0  0  0  0  0  0  0  0
  130.2240  126.8440   58.8050 C   0  0  0  0  0  0  0  0  0  0  0  0
  129.7020  125.1550   56.9250 C   0  0  0  0  0  0  0  0  0  0  0  0
  130.1530  126.1220   55.9210 C   0  0  0  0  0  0  0  0  0  0  0  0
  130.5110  126.8880   55.1310 N   0  0  0  0  0  0  0  0  0  0  0  0
  129.2380  123.8660   56.5690 C   0  0  0  0  0  0  0  0  0  0  0  0
  129.1080  123.2880   54.8910 S   0  0  0  0  0  0  0  0  0  0  0  0
  127.3970  122.7340   54.6290 C   0  0  0  0  0  0  0  0  0  0  0  0
  126.5760  122.7750   55.9190 C   0  0  0  0  0  0  0  0  0  0  0  0
  126.4750  121.7550   56.6030 O   0  0  0  0  0  0  0  0  0  0  0  0
  126.0130  123.9670   56.2140 N   0  0  0  0  0  0  0  0  0  0  0  0
  125.2220  124.2590   57.3160 C   0  0  0  0  0  0  0  0  0  0  0  0
  124.1880  125.0710   57.3750 N   0  0  0  0  0  0  0  0  0  0  0  0
  123.6710  125.1080   58.5870 C   0  0  0  0  0  0  0  0  0  0  0  0
  124.2880  124.3100   59.5450 C   0  0  0  0  0  0  0  0  0  0  0  0
  125.6190  123.4680   58.8080 S   0  0  0  0  0  0  0  0  0  0  0  0
  128.8850  122.9390   57.4940 N   0  0  0  0  0  0  0  0  0  0  0  0
  128.6657  122.5493   60.8109 H   0  0  0  0  0  0  0  0  0  0  0  0
  127.4665  121.9410   59.6199 H   0  0  0  0  0  0  0  0  0  0  0  0
  129.1413  121.2915   59.6199 H   0  0  0  0  0  0  0  0  0  0  0  0
  129.3887  124.7615   60.3172 H   0  0  0  0  0  0  0  0  0  0  0  0
  130.2248  126.8463   59.9050 H   0  0  0  0  0  0  0  0  0  0  0  0
  131.2422  127.0391   58.4372 H   0  0  0  0  0  0  0  0  0  0  0  0
  129.5449  127.6273   58.4372 H   0  0  0  0  0  0  0  0  0  0  0  0
  126.9216  123.3899   53.8848 H   0  0  0  0  0  0  0  0  0  0  0  0
  127.4278  121.6914   54.2796 H   0  0  0  0  0  0  0  0  0  0  0  0
  126.1490  124.7230   55.5590 H   0  0  0  0  0  0  0  0  0  0  0  0
  122.7999  125.7352   58.8276 H   0  0  0  0  0  0  0  0  0  0  0  0
  123.9831  124.2253   60.5985 H   0  0  0  0  0  0  0  0  0  0  0  0
  1  2  1  0
  2  3  2  0
  3  4  1  0
  4  5  1  0
  4  6  2  0
  6  7  1  0
  7  8  3  0
  6  9  1  0
  9 10  1  0
 10 11  1  0
 11 12  1  0
 12 13  2  0
 12 14  1  0
 14 15  1  0
 15 16  2  0
 16 17  1  0
 17 18  2  0
 18 19  1  0
  9 20  2  0
 20  2  1  0
 19 15  1  0
  1 21  1  0
  1 22  1  0
  1 23  1  0
  3 24  1  0
  5 25  1  0
  5 26  1  0
  5 27  1  0
 11 28  1  0
 11 29  1  0
 14 30  1  0
 17 31  1  0
 18 32  1  0
M  END
>  <Binding energies>  (1) 
[-6.84]

>  <Ligand effiencies>  (1) 
[-0.32571428571428573]

>  <Interactions>  (1) 
["V-B:TYR:539:CE2:9845, V-B:PRO:540:CB:9854, V-B:TYR:539:CZ:9846, V-B:PRO:540:CA:9852, H-B:TYR:539:N:9839, V-B:ILE:538:CA:9829, V-B:TYR:539:C:9836, V-B:LEU:363:CD1:8157, V-B:ILE:538:CG2:9832, V-B:TYR:539:CE1:9844, V-B:ILE:538:CB:9831, V-B:MET:535:CE:9804, H-B:TYR:539:OH:9847, H-A:TYR:531:OH:4792, V-B:LEU:363:CA:8153, H-B:TYR:531:OH:9764, V-B:ASP:366:CB:8180, V-B:TYR:539:CD2:9843, V-B:ASP:366:CG:8181, H-B:MET:535:SD:9803"]

$$$$
1k_Grossjean_2025
     RDKit          3D

 50 50  0  0  0  0  0  0  0  0999 V2000
  127.6200  122.5030   57.1810 C   0  0  0  0  0  0  0  0  0  0  0  0
  127.5120  121.9830   55.8650 O   0  0  0  0  0  0  0  0  0  0  0  0
  128.1690  122.7790   54.8870 C   0  0  0  0  0  0  0  0  0  0  0  0
  129.1230  123.7600   55.5810 C   0  0  0  0  0  0  0  0  0  0  0  0
  129.8100  124.5260   54.5990 O   0  0  0  0  0  0  0  0  0  0  0  0
  131.2210  124.5420   54.7710 C   0  0  0  0  0  0  0  0  0  0  0  0
  131.6680  125.9520   55.1760 C   0  0  0  0  0  0  0  0  0  0  0  0
  130.6290  126.8800   54.8900 O   0  0  0  0  0  0  0  0  0  0  0  0
  129.7840  127.1510   56.0000 C   0  0  0  0  0  0  0  0  0  0  0  0
  130.1840  128.4950   56.6380 C   0  0  0  0  0  0  0  0  0  0  0  0
  129.8890  129.6610   55.8040 N   0  0  0  0  0  0  0  0  0  0  0  0
  128.6720  129.9970   55.3430 C   0  0  0  0  0  0  0  0  0  0  0  0
  127.6560  129.3430   55.5870 O   0  0  0  0  0  0  0  0  0  0  0  0
  128.6180  131.2630   54.4730 C   0  0  0  0  0  0  0  0  0  0  0  0
  128.8840  132.8400   55.3560 S   0  0  0  0  0  0  0  0  0  0  0  0
  129.1730  132.5020   57.0870 C   0  0  0  0  0  0  0  0  0  0  0  0
  128.1120  132.6920   57.9140 N   0  0  0  0  0  0  0  0  0  0  0  0
  128.2650  132.4640   59.2380 C   0  0  0  0  0  0  0  0  0  0  0  0
  127.0380  132.7080   60.0950 C   0  0  0  0  0  0  0  0  0  0  0  0
  129.4680  132.0320   59.7920 C   0  0  0  0  0  0  0  0  0  0  0  0
  130.5660  131.8240   58.9510 C   0  0  0  0  0  0  0  0  0  0  0  0
  131.8760  131.3510   59.5780 C   0  0  0  0  0  0  0  0  0  0  0  0
  130.4290  132.0610   57.5650 C   0  0  0  0  0  0  0  0  0  0  0  0
  131.5640  131.8560   56.6610 C   0  0  0  0  0  0  0  0  0  0  0  0
  132.4610  131.6940   55.9480 N   0  0  0  0  0  0  0  0  0  0  0  0
  127.4523  121.6957   57.9091 H   0  0  0  0  0  0  0  0  0  0  0  0
  128.6251  122.9255   57.3270 H   0  0  0  0  0  0  0  0  0  0  0  0
  126.8663  123.2908   57.3270 H   0  0  0  0  0  0  0  0  0  0  0  0
  128.7415  122.1285   54.2094 H   0  0  0  0  0  0  0  0  0  0  0  0
  127.4206  123.3422   54.3102 H   0  0  0  0  0  0  0  0  0  0  0  0
  128.5469  124.4323   56.2338 H   0  0  0  0  0  0  0  0  0  0  0  0
  129.8514  123.1989   56.1849 H   0  0  0  0  0  0  0  0  0  0  0  0
  131.5030  123.8272   55.5581 H   0  0  0  0  0  0  0  0  0  0  0  0
  131.7098  124.2581   53.8273 H   0  0  0  0  0  0  0  0  0  0  0  0
  131.8900  125.9709   56.2532 H   0  0  0  0  0  0  0  0  0  0  0  0
  132.5705  126.2268   54.6103 H   0  0  0  0  0  0  0  0  0  0  0  0
  128.7391  127.2036   55.6604 H   0  0  0  0  0  0  0  0  0  0  0  0
  129.8894  126.3477   56.7440 H   0  0  0  0  0  0  0  0  0  0  0  0
  129.6398  128.6025   57.5879 H   0  0  0  0  0  0  0  0  0  0  0  0
  131.2751  128.4699   56.7754 H   0  0  0  0  0  0  0  0  0  0  0  0
  130.6760  130.2450   55.5610 H   0  0  0  0  0  0  0  0  0  0  0  0
  129.3935  131.1742   53.6979 H   0  0  0  0  0  0  0  0  0  0  0  0
  127.5939  131.3105   54.0744 H   0  0  0  0  0  0  0  0  0  0  0  0
  127.3162  132.6527   61.1578 H   0  0  0  0  0  0  0  0  0  0  0  0
  126.6291  133.7051   59.8744 H   0  0  0  0  0  0  0  0  0  0  0  0
  126.2787  131.9433   59.8744 H   0  0  0  0  0  0  0  0  0  0  0  0
  129.5531  131.8571   60.8747 H   0  0  0  0  0  0  0  0  0  0  0  0
  131.7900  131.3820   60.6742 H   0  0  0  0  0  0  0  0  0  0  0  0
  132.0857  130.3204   59.2557 H   0  0  0  0  0  0  0  0  0  0  0  0
  132.6957  132.0099   59.2557 H   0  0  0  0  0  0  0  0  0  0  0  0
  1  2  1  0
  2  3  1  0
  3  4  1  0
  4  5  1  0
  5  6  1  0
  6  7  1  0
  7  8  1  0
  8  9  1  0
  9 10  1  0
 10 11  1  0
 11 12  1  0
 12 13  2  0
 12 14  1  0
 14 15  1  0
 15 16  1  0
 16 17  2  0
 17 18  1  0
 18 19  1  0
 18 20  2  0
 20 21  1  0
 21 22  1  0
 21 23  2  0
 23 24  1  0
 24 25  3  0
 23 16  1  0
  1 26  1  0
  1 27  1  0
  1 28  1  0
  3 29  1  0
  3 30  1  0
  4 31  1  0
  4 32  1  0
  6 33  1  0
  6 34  1  0
  7 35  1  0
  7 36  1  0
  9 37  1  0
  9 38  1  0
 10 39  1  0
 10 40  1  0
 11 41  1  0
 14 42  1  0
 14 43  1  0
 19 44  1  0
 19 45  1  0
 19 46  1  0
 20 47  1  0
 22 48  1  0
 22 49  1  0
 22 50  1  0
M  END
>  <Binding energies>  (1) 
[-6.09]

>  <Ligand effiencies>  (1) 
[-0.23423076923076921]

>  <Interactions>  (1) 
["V-B:PRO:540:N:9853, V-B:TYR:539:CZ:9846, V-B:PRO:540:CA:9852, H-B:TYR:539:N:9839, V-B:TYR:539:CD1:9842, V-B:ILE:538:CA:9829, V-B:TYR:539:C:9836, V-B:ILE:538:CG2:9832, V-B:TYR:539:CE1:9844, V-B:ILE:538:CB:9831, V-B:MET:535:CE:9804, V-A:TYR:531:CE1:4789, H-A:TYR:531:OH:4792, H-B:TYR:531:OH:9764, V-A:PRO:540:CB:4882, V-A:TYR:539:C:4864, V-A:PRO:540:CA:4880, H-A:TYR:539:N:4867, V-A:PRO:540:N:4881, V-A:TYR:531:CZ:4791, V-A:ILE:538:CD1:4862, V-A:TYR:539:CD2:4871, V-A:TYR:539:CE2:4873"]

$$$$
1l_Grossjean_2025
     RDKit          3D

 30 30  0  0  0  0  0  0  0  0999 V2000
  125.3880  130.3300   57.0030 C   0  0  0  0  0  0  0  0  0  0  0  0
  126.3860  130.1450   56.0100 O   0  0  0  0  0  0  0  0  0  0  0  0
  127.2330  131.2520   55.9760 N   0  0  0  0  0  0  0  0  0  0  0  0
  127.6140  131.7470   54.7830 C   0  0  0  0  0  0  0  0  0  0  0  0
  127.0880  131.4320   53.7120 O   0  0  0  0  0  0  0  0  0  0  0  0
  128.7620  132.7650   54.8360 C   0  0  0  0  0  0  0  0  0  0  0  0
  130.3370  132.1190   55.4970 S   0  0  0  0  0  0  0  0  0  0  0  0
  130.1930  132.0170   57.2730 C   0  0  0  0  0  0  0  0  0  0  0  0
  129.0170  132.4500   57.7960 N   0  0  0  0  0  0  0  0  0  0  0  0
  128.8410  132.4020   59.1370 C   0  0  0  0  0  0  0  0  0  0  0  0
  127.5020  132.9030   59.6450 C   0  0  0  0  0  0  0  0  0  0  0  0
  129.8190  131.9250   60.0070 C   0  0  0  0  0  0  0  0  0  0  0  0
  131.0340  131.4740   59.4800 C   0  0  0  0  0  0  0  0  0  0  0  0
  132.0920  130.9540   60.4520 C   0  0  0  0  0  0  0  0  0  0  0  0
  131.2390  131.5160   58.0830 C   0  0  0  0  0  0  0  0  0  0  0  0
  132.5030  131.0510   57.5040 C   0  0  0  0  0  0  0  0  0  0  0  0
  133.5000  130.6830   57.0480 N   0  0  0  0  0  0  0  0  0  0  0  0
  125.8434  130.2456   58.0007 H   0  0  0  0  0  0  0  0  0  0  0  0
  124.9374  131.3270   56.8888 H   0  0  0  0  0  0  0  0  0  0  0  0
  124.6100  129.5608   56.8888 H   0  0  0  0  0  0  0  0  0  0  0  0
  127.7790  131.3400   56.8210 H   0  0  0  0  0  0  0  0  0  0  0  0
  128.9442  133.1273   53.8135 H   0  0  0  0  0  0  0  0  0  0  0  0
  128.4394  133.5561   55.5289 H   0  0  0  0  0  0  0  0  0  0  0  0
  127.5036  132.9024   60.7450 H   0  0  0  0  0  0  0  0  0  0  0  0
  127.3305  133.9261   59.2792 H   0  0  0  0  0  0  0  0  0  0  0  0
  126.7011  132.2437   59.2792 H   0  0  0  0  0  0  0  0  0  0  0  0
  129.6386  131.9033   61.0919 H   0  0  0  0  0  0  0  0  0  0  0  0
  131.7538  131.1202   61.4854 H   0  0  0  0  0  0  0  0  0  0  0  0
  132.2458  129.8777   60.2852 H   0  0  0  0  0  0  0  0  0  0  0  0
  133.0381  131.4898   60.2852 H   0  0  0  0  0  0  0  0  0  0  0  0
  1  2  1  0
  2  3  1  0
  3  4  1  0
  4  5  2  0
  4  6  1  0
  6  7  1  0
  7  8  1  0
  8  9  2  0
  9 10  1  0
 10 11  1  0
 10 12  2  0
 12 13  1  0
 13 14  1  0
 13 15  2  0
 15 16  1  0
 16 17  3  0
 15  8  1  0
  1 18  1  0
  1 19  1  0
  1 20  1  0
  3 21  1  0
  6 22  1  0
  6 23  1  0
 11 24  1  0
 11 25  1  0
 11 26  1  0
 12 27  1  0
 14 28  1  0
 14 29  1  0
 14 30  1  0
M  END
>  <Binding energies>  (1) 
[-5.68]

>  <Ligand effiencies>  (1) 
[-0.31555555555555553]

>  <Interactions>  (1) 
["H-A:TYR:531:OH:4792, H-B:TYR:531:OH:9764, H-A:TYR:539:OH:4875, V-A:PRO:540:CB:4882, V-A:TYR:539:CE1:4872, V-A:TYR:539:C:4864, V-A:PRO:540:CA:4880, V-A:LEU:363:CD1:3185, V-A:PRO:540:N:4881, H-B:LYS:534:NZ:9792, V-A:TYR:539:CD1:4870, V-A:ILE:538:CA:4857, V-A:ILE:538:CD1:4862, V-A:TYR:539:CZ:4874, V-B:TYR:531:CZ:9763, V-A:ILE:538:C:4855, V-A:TYR:539:CD2:4871, V-A:TYR:539:CE2:4873, V-A:TYR:539:CG:4869"]

$$$$
1m_Grossjean_2025
     RDKit          3D

 35 35  0  0  0  0  0  0  0  0999 V2000
  124.2990  132.4390   62.9440 C   0  0  0  0  0  0  0  0  0  0  0  0
  123.9280  131.0680   62.9140 O   0  0  0  0  0  0  0  0  0  0  0  0
  124.4170  130.2050   63.8280 C   0  0  0  0  0  0  0  0  0  0  0  0
  123.8580  129.8820   64.8800 O   0  0  0  0  0  0  0  0  0  0  0  0
  125.7870  129.6410   63.3970 C   0  0  0  0  0  0  0  0  0  0  0  0
  126.1530  130.0200   62.0240 N   0  0  0  0  0  0  0  0  0  0  0  0
  127.1400  130.8680   61.6790 C   0  0  0  0  0  0  0  0  0  0  0  0
  127.8500  131.4440   62.5060 O   0  0  0  0  0  0  0  0  0  0  0  0
  127.3280  131.0860   60.1720 C   0  0  0  0  0  0  0  0  0  0  0  0
  128.2650  132.5900   59.7310 S   0  0  0  0  0  0  0  0  0  0  0  0
  129.9310  132.1030   59.3340 C   0  0  0  0  0  0  0  0  0  0  0  0
  130.6740  131.7740   60.4220 N   0  0  0  0  0  0  0  0  0  0  0  0
  131.9560  131.3820   60.2400 C   0  0  0  0  0  0  0  0  0  0  0  0
  132.7170  131.0120   61.4990 C   0  0  0  0  0  0  0  0  0  0  0  0
  132.5510  131.3130   58.9820 C   0  0  0  0  0  0  0  0  0  0  0  0
  131.8030  131.6750   57.8560 C   0  0  0  0  0  0  0  0  0  0  0  0
  132.4800  131.6070   56.4890 C   0  0  0  0  0  0  0  0  0  0  0  0
  130.4610  132.0890   58.0210 C   0  0  0  0  0  0  0  0  0  0  0  0
  129.6760  132.5190   56.8620 C   0  0  0  0  0  0  0  0  0  0  0  0
  129.0560  132.8590   55.9460 N   0  0  0  0  0  0  0  0  0  0  0  0
  124.3890  132.7717   63.9886 H   0  0  0  0  0  0  0  0  0  0  0  0
  125.2646  132.5688   62.4333 H   0  0  0  0  0  0  0  0  0  0  0  0
  123.5307  133.0380   62.4333 H   0  0  0  0  0  0  0  0  0  0  0  0
  126.5563  130.0233   64.0840 H   0  0  0  0  0  0  0  0  0  0  0  0
  125.7188  128.5436   63.4306 H   0  0  0  0  0  0  0  0  0  0  0  0
  125.5970  129.6080   61.2880 H   0  0  0  0  0  0  0  0  0  0  0  0
  127.8638  130.2163   59.7640 H   0  0  0  0  0  0  0  0  0  0  0  0
  126.3209  131.2112   59.7477 H   0  0  0  0  0  0  0  0  0  0  0  0
  132.1268  131.2989   62.3818 H   0  0  0  0  0  0  0  0  0  0  0  0
  132.8953  129.9266   61.5141 H   0  0  0  0  0  0  0  0  0  0  0  0
  133.6807  131.5421   61.5141 H   0  0  0  0  0  0  0  0  0  0  0  0
  133.5936  130.9788   58.8754 H   0  0  0  0  0  0  0  0  0  0  0  0
  133.5664  131.4979   56.6229 H   0  0  0  0  0  0  0  0  0  0  0  0
  132.0909  130.7434   55.9297 H   0  0  0  0  0  0  0  0  0  0  0  0
  132.2704  132.5307   55.9297 H   0  0  0  0  0  0  0  0  0  0  0  0
  1  2  1  0
  2  3  1  0
  3  4  2  0
  3  5  1  0
  5  6  1  0
  6  7  1  0
  7  8  2  0
  7  9  1  0
  9 10  1  0
 10 11  1  0
 11 12  2  0
 12 13  1  0
 13 14  1  0
 13 15  2  0
 15 16  1  0
 16 17  1  0
 16 18  2  0
 18 19  1  0
 19 20  3  0
 18 11  1  0
  1 21  1  0
  1 22  1  0
  1 23  1  0
  5 24  1  0
  5 25  1  0
  6 26  1  0
  9 27  1  0
  9 28  1  0
 14 29  1  0
 14 30  1  0
 14 31  1  0
 15 32  1  0
 17 33  1  0
 17 34  1  0
 17 35  1  0
M  END
>  <Binding energies>  (1) 
[-6.34]

>  <Ligand effiencies>  (1) 
[-0.3019047619047619]

>  <Interactions>  (1) 
["V-A:GLU:543:CD:4905, V-A:PRO:540:CB:4882, V-A:TYR:539:C:4864, V-A:PRO:540:CA:4880, H-A:TYR:539:N:4867, V-A:LEU:363:CD1:3185, V-A:PRO:540:N:4881, H-A:ALA:541:N:4888, V-A:ASN:362:CB:3172, H-B:ASP:366:OD1:8182, V-B:ASP:366:CG:8181, H-B:ASP:366:OD2:8183, V-B:GLY:454:CA:9017, V-B:ARG:545:CZ:9895, V-B:ILE:369:CD1:8207, H-B:GLY:454:N:9018, H-B:TYR:484:OH:9316, H-B:ARG:545:NE:9893, H-B:ARG:545:NH1:9896"]

$$$$
1n_Grossjean_2025
     RDKit          3D

 48 49  0  0  0  0  0  0  0  0999 V2000
  132.1610  132.4940   56.2630 C   0  0  0  0  0  0  0  0  0  0  0  0
  130.7080  132.1570   56.6120 C   0  0  0  0  0  0  0  0  0  0  0  0
  129.8360  132.9910   55.8590 O   0  0  0  0  0  0  0  0  0  0  0  0
  128.7230  132.4870   55.2660 C   0  0  0  0  0  0  0  0  0  0  0  0
  128.2940  132.8840   54.1790 O   0  0  0  0  0  0  0  0  0  0  0  0
  128.0740  131.3890   56.0580 C   0  0  0  0  0  0  0  0  0  0  0  0
  127.9080  130.0960   55.5380 C   0  0  0  0  0  0  0  0  0  0  0  0
  127.2990  129.1020   56.2980 C   0  0  0  0  0  0  0  0  0  0  0  0
  126.8390  129.3780   57.5860 C   0  0  0  0  0  0  0  0  0  0  0  0
  126.2350  128.3010   58.2640 N   0  0  0  0  0  0  0  0  0  0  0  0
  126.6560  127.0260   58.4090 C   0  0  0  0  0  0  0  0  0  0  0  0
  127.7030  126.5640   57.9530 O   0  0  0  0  0  0  0  0  0  0  0  0
  125.7290  126.1090   59.2160 C   0  0  0  0  0  0  0  0  0  0  0  0
  124.3820  125.8360   58.5120 C   0  0  0  0  0  0  0  0  0  0  0  0
  124.2340  124.1760   57.7850 S   0  0  0  0  0  0  0  0  0  0  0  0
  125.8610  123.4560   57.7500 C   0  0  0  0  0  0  0  0  0  0  0  0
  126.3730  123.3310   56.4990 N   0  0  0  0  0  0  0  0  0  0  0  0
  127.6130  122.8100   56.3530 C   0  0  0  0  0  0  0  0  0  0  0  0
  128.1230  122.7120   54.9280 C   0  0  0  0  0  0  0  0  0  0  0  0
  128.3850  122.3900   57.4340 C   0  0  0  0  0  0  0  0  0  0  0  0
  127.8580  122.4940   58.7260 C   0  0  0  0  0  0  0  0  0  0  0  0
  128.7170  122.0150   59.8940 C   0  0  0  0  0  0  0  0  0  0  0  0
  126.5630  123.0310   58.9030 C   0  0  0  0  0  0  0  0  0  0  0  0
  125.9720  123.1020   60.2400 C   0  0  0  0  0  0  0  0  0  0  0  0
  125.5060  123.1570   61.2980 N   0  0  0  0  0  0  0  0  0  0  0  0
  127.0110  130.6640   58.1170 C   0  0  0  0  0  0  0  0  0  0  0  0
  127.6230  131.6570   57.3560 C   0  0  0  0  0  0  0  0  0  0  0  0
  132.7390  132.6280   57.1893 H   0  0  0  0  0  0  0  0  0  0  0  0
  132.5966  131.6731   55.6746 H   0  0  0  0  0  0  0  0  0  0  0  0
  132.1908  133.4229   55.6746 H   0  0  0  0  0  0  0  0  0  0  0  0
  130.5074  131.1029   56.3701 H   0  0  0  0  0  0  0  0  0  0  0  0
  130.5397  132.3240   57.6861 H   0  0  0  0  0  0  0  0  0  0  0  0
  128.2619  129.8666   54.5221 H   0  0  0  0  0  0  0  0  0  0  0  0
  127.1794  128.0914   55.8803 H   0  0  0  0  0  0  0  0  0  0  0  0
  125.3770  128.5420   58.7390 H   0  0  0  0  0  0  0  0  0  0  0  0
  126.2405  125.1486   59.3770 H   0  0  0  0  0  0  0  0  0  0  0  0
  125.5054  126.6213   60.1634 H   0  0  0  0  0  0  0  0  0  0  0  0
  123.5767  125.9605   59.2509 H   0  0  0  0  0  0  0  0  0  0  0  0
  124.3146  126.5500   57.6779 H   0  0  0  0  0  0  0  0  0  0  0  0
  129.2032  122.5044   54.9386 H   0  0  0  0  0  0  0  0  0  0  0  0
  127.5984  121.8982   54.4059 H   0  0  0  0  0  0  0  0  0  0  0  0
  127.9373  123.6623   54.4059 H   0  0  0  0  0  0  0  0  0  0  0  0
  129.3942  121.9825   57.2741 H   0  0  0  0  0  0  0  0  0  0  0  0
  128.2304  122.2863   60.8425 H   0  0  0  0  0  0  0  0  0  0  0  0
  128.8323  120.9224   59.8405 H   0  0  0  0  0  0  0  0  0  0  0  0
  129.7071  122.4912   59.8405 H   0  0  0  0  0  0  0  0  0  0  0  0
  126.6622  130.8890   59.1357 H   0  0  0  0  0  0  0  0  0  0  0  0
  127.7535  132.6637   57.7798 H   0  0  0  0  0  0  0  0  0  0  0  0
  1  2  1  0
  2  3  1  0
  3  4  1  0
  4  5  2  0
  4  6  1  0
  6  7  2  0
  7  8  1  0
  8  9  2  0
  9 10  1  0
 10 11  1  0
 11 12  2  0
 11 13  1  0
 13 14  1  0
 14 15  1  0
 15 16  1  0
 16 17  2  0
 17 18  1  0
 18 19  1  0
 18 20  2  0
 20 21  1  0
 21 22  1  0
 21 23  2  0
 23 24  1  0
 24 25  3  0
  9 26  1  0
 26 27  2  0
 27  6  1  0
 23 16  1  0
  1 28  1  0
  1 29  1  0
  1 30  1  0
  2 31  1  0
  2 32  1  0
  7 33  1  0
  8 34  1  0
 10 35  1  0
 13 36  1  0
 13 37  1  0
 14 38  1  0
 14 39  1  0
 19 40  1  0
 19 41  1  0
 19 42  1  0
 20 43  1  0
 22 44  1  0
 22 45  1  0
 22 46  1  0
 26 47  1  0
 27 48  1  0
M  END
>  <Binding energies>  (1) 
[-8.77]

>  <Ligand effiencies>  (1) 
[-0.3132142857142857]

>  <Interactions>  (1) 
["V-B:TYR:539:CE2:9845, V-B:PRO:540:N:9853, V-B:PRO:540:CB:9854, V-B:TYR:539:CZ:9846, H-B:ALA:541:N:9860, V-B:PRO:540:CA:9852, V-B:TYR:539:CD1:9842, V-B:ILE:538:CA:9829, V-B:PRO:540:C:9850, V-B:TYR:539:C:9836, V-B:ALA:541:CB:9861, V-B:ILE:538:CG2:9832, V-B:TYR:539:CE1:9844, V-B:ILE:538:CB:9831, V-B:MET:535:CE:9804, H-B:TYR:531:OH:9764, V-A:PRO:540:CB:4882, V-A:TYR:539:CE1:4872, V-A:TYR:539:C:4864, V-A:PRO:540:CA:4880, H-A:TYR:539:N:4867, V-A:LEU:363:CD1:3185, V-A:PRO:540:N:4881, H-B:LYS:534:NZ:9792, V-A:TYR:539:CD1:4870, V-A:ILE:538:CG2:4860, V-A:ILE:538:CD1:4862, V-A:TYR:539:CZ:4874, V-B:ASP:366:CB:8180, V-B:TYR:539:CG:9841, V-B:TYR:539:CD2:9843, V-A:TYR:539:CD2:4871, V-A:TYR:539:CE2:4873, V-A:TYR:539:CG:4869, H-B:ASP:366:OD1:8182, V-B:ASP:366:CG:8181, V-A:PRO:540:CD:4884, V-A:PRO:540:CG:4883"]

$$$$
1o_Grossjean_2025
     RDKit          3D

 45 46  0  0  0  0  0  0  0  0999 V2000
  128.0670  122.1500   58.9020 C   0  0  0  0  0  0  0  0  0  0  0  0
  127.6930  121.6140   57.6400 O   0  0  0  0  0  0  0  0  0  0  0  0
  127.1060  122.3920   56.6950 C   0  0  0  0  0  0  0  0  0  0  0  0
  126.8200  121.9890   55.5640 O   0  0  0  0  0  0  0  0  0  0  0  0
  126.8350  123.7930   57.1640 C   0  0  0  0  0  0  0  0  0  0  0  0
  127.7990  124.8070   57.0680 C   0  0  0  0  0  0  0  0  0  0  0  0
  127.5140  126.0970   57.5100 C   0  0  0  0  0  0  0  0  0  0  0  0
  126.2670  126.3980   58.0600 C   0  0  0  0  0  0  0  0  0  0  0  0
  126.0840  127.7340   58.4660 N   0  0  0  0  0  0  0  0  0  0  0  0
  126.5170  128.8800   57.8950 C   0  0  0  0  0  0  0  0  0  0  0  0
  127.1460  128.9520   56.8390 O   0  0  0  0  0  0  0  0  0  0  0  0
  126.1490  130.1710   58.6410 C   0  0  0  0  0  0  0  0  0  0  0  0
  127.2600  130.6670   59.5880 C   0  0  0  0  0  0  0  0  0  0  0  0
  128.0610  132.2050   59.0430 S   0  0  0  0  0  0  0  0  0  0  0  0
  129.7760  131.8600   58.7060 C   0  0  0  0  0  0  0  0  0  0  0  0
  130.4770  131.4830   59.8050 N   0  0  0  0  0  0  0  0  0  0  0  0
  131.7910  131.1860   59.6690 C   0  0  0  0  0  0  0  0  0  0  0  0
  132.5050  130.7580   60.9380 C   0  0  0  0  0  0  0  0  0  0  0  0
  132.4560  131.2650   58.4480 C   0  0  0  0  0  0  0  0  0  0  0  0
  131.7500  131.6770   57.3140 C   0  0  0  0  0  0  0  0  0  0  0  0
  132.5060  131.7690   55.9890 C   0  0  0  0  0  0  0  0  0  0  0  0
  130.3780  131.9960   57.4320 C   0  0  0  0  0  0  0  0  0  0  0  0
  129.6360  132.4870   56.2680 C   0  0  0  0  0  0  0  0  0  0  0  0
  129.0520  132.8730   55.3460 N   0  0  0  0  0  0  0  0  0  0  0  0
  125.2970  125.3890   58.1540 C   0  0  0  0  0  0  0  0  0  0  0  0
  125.5830  124.1010   57.7110 C   0  0  0  0  0  0  0  0  0  0  0  0
  127.6365  121.5330   59.7045 H   0  0  0  0  0  0  0  0  0  0  0  0
  129.1635  122.1520   58.9891 H   0  0  0  0  0  0  0  0  0  0  0  0
  127.6904  123.1799   58.9891 H   0  0  0  0  0  0  0  0  0  0  0  0
  128.7873  124.5821   56.6406 H   0  0  0  0  0  0  0  0  0  0  0  0
  128.2775  126.8843   57.4249 H   0  0  0  0  0  0  0  0  0  0  0  0
  125.5220  127.8390   59.2980 H   0  0  0  0  0  0  0  0  0  0  0  0
  125.9463  130.9572   57.8989 H   0  0  0  0  0  0  0  0  0  0  0  0
  125.2681  129.9487   59.2611 H   0  0  0  0  0  0  0  0  0  0  0  0
  126.8176  130.8398   60.5802 H   0  0  0  0  0  0  0  0  0  0  0  0
  128.0381  129.8896   59.6017 H   0  0  0  0  0  0  0  0  0  0  0  0
  131.9337  131.1004   61.8134 H   0  0  0  0  0  0  0  0  0  0  0  0
  132.5876  129.6613   60.9602 H   0  0  0  0  0  0  0  0  0  0  0  0
  133.5112  131.2020   60.9602 H   0  0  0  0  0  0  0  0  0  0  0  0
  133.5228  131.0066   58.3768 H   0  0  0  0  0  0  0  0  0  0  0  0
  133.5799  131.8997   56.1879 H   0  0  0  0  0  0  0  0  0  0  0  0
  132.3496  130.8452   55.4127 H   0  0  0  0  0  0  0  0  0  0  0  0
  132.1326  132.6283   55.4127 H   0  0  0  0  0  0  0  0  0  0  0  0
  124.3081  125.6163   58.5788 H   0  0  0  0  0  0  0  0  0  0  0  0
  124.8168  123.3158   57.7914 H   0  0  0  0  0  0  0  0  0  0  0  0
  1  2  1  0
  2  3  1  0
  3  4  2  0
  3  5  1  0
  5  6  2  0
  6  7  1  0
  7  8  2  0
  8  9  1  0
  9 10  1  0
 10 11  2  0
 10 12  1  0
 12 13  1  0
 13 14  1  0
 14 15  1  0
 15 16  2  0
 16 17  1  0
 17 18  1  0
 17 19  2  0
 19 20  1  0
 20 21  1  0
 20 22  2  0
 22 23  1  0
 23 24  3  0
  8 25  1  0
 25 26  2  0
 26  5  1  0
 22 15  1  0
  1 27  1  0
  1 28  1  0
  1 29  1  0
  6 30  1  0
  7 31  1  0
  9 32  1  0
 12 33  1  0
 12 34  1  0
 13 35  1  0
 13 36  1  0
 18 37  1  0
 18 38  1  0
 18 39  1  0
 19 40  1  0
 21 41  1  0
 21 42  1  0
 21 43  1  0
 25 44  1  0
 26 45  1  0
M  END
>  <Binding energies>  (1) 
[-8.62]

>  <Ligand effiencies>  (1) 
[-0.31925925925925924]

>  <Interactions>  (1) 
["V-B:TYR:539:CE2:9845, V-B:PRO:540:N:9853, V-B:TYR:539:CZ:9846, V-B:PRO:540:CA:9852, H-B:TYR:539:N:9839, V-B:TYR:539:C:9836, V-B:MET:535:CE:9804, V-A:GLU:543:CD:4905, H-B:TYR:531:OH:9764, V-A:PRO:540:CB:4882, V-A:TYR:539:C:4864, V-A:PRO:540:CA:4880, H-A:TYR:539:N:4867, V-A:LEU:363:CD1:3185, V-A:PRO:540:N:4881, V-A:TYR:531:CZ:4791, V-A:ILE:538:CG2:4860, V-A:ILE:538:CD1:4862, V-A:TYR:531:CE2:4790, V-B:ASP:366:CB:8180, V-B:TYR:539:CD2:9843, V-A:ASN:362:CB:3172, H-B:ASP:366:OD1:8182, V-B:ASP:366:CG:8181"]

$$$$
1p_Grossjean_2025
     RDKit          3D

 35 36  0  0  0  0  0  0  0  0999 V2000
  128.5770  132.3970   54.3190 C   0  0  0  0  0  0  0  0  0  0  0  0
  129.1740  132.2690   55.7080 C   0  0  0  0  0  0  0  0  0  0  0  0
  130.5290  132.0040   55.8960 C   0  0  0  0  0  0  0  0  0  0  0  0
  131.0240  131.8820   57.1990 C   0  0  0  0  0  0  0  0  0  0  0  0
  132.5090  131.5770   57.3820 C   0  0  0  0  0  0  0  0  0  0  0  0
  130.1400  132.0400   58.2910 C   0  0  0  0  0  0  0  0  0  0  0  0
  130.6230  131.8700   59.6620 C   0  0  0  0  0  0  0  0  0  0  0  0
  131.0060  131.7360   60.7460 N   0  0  0  0  0  0  0  0  0  0  0  0
  128.7840  132.3300   58.0060 C   0  0  0  0  0  0  0  0  0  0  0  0
  127.5450  132.5680   59.2590 S   0  0  0  0  0  0  0  0  0  0  0  0
  126.2850  131.2840   59.0040 C   0  0  0  0  0  0  0  0  0  0  0  0
  124.8540  131.7420   59.3420 C   0  0  0  0  0  0  0  0  0  0  0  0
  124.5410  131.7170   60.8460 C   0  0  0  0  0  0  0  0  0  0  0  0
  123.9940  132.6890   61.3690 O   0  0  0  0  0  0  0  0  0  0  0  0
  124.8910  130.5840   61.4970 N   0  0  0  0  0  0  0  0  0  0  0  0
  124.7210  130.3040   62.8470 C   0  0  0  0  0  0  0  0  0  0  0  0
  125.7680  129.9140   63.6810 C   0  0  0  0  0  0  0  0  0  0  0  0
  125.1920  129.7370   64.9190 C   0  0  0  0  0  0  0  0  0  0  0  0
  123.8680  130.0040   64.8340 O   0  0  0  0  0  0  0  0  0  0  0  0
  123.5810  130.3620   63.5150 N   0  0  0  0  0  0  0  0  0  0  0  0
  128.3100  132.4250   56.7380 N   0  0  0  0  0  0  0  0  0  0  0  0
  127.5044  132.6270   54.4007 H   0  0  0  0  0  0  0  0  0  0  0  0
  129.0852  133.2066   53.7747 H   0  0  0  0  0  0  0  0  0  0  0  0
  128.7086  131.4502   53.7747 H   0  0  0  0  0  0  0  0  0  0  0  0
  131.2004  131.8922   55.0318 H   0  0  0  0  0  0  0  0  0  0  0  0
  132.7438  131.5288   58.4556 H   0  0  0  0  0  0  0  0  0  0  0  0
  132.7458  130.6115   56.9111 H   0  0  0  0  0  0  0  0  0  0  0  0
  133.1072  132.3710   56.9111 H   0  0  0  0  0  0  0  0  0  0  0  0
  126.3108  130.9776   57.9478 H   0  0  0  0  0  0  0  0  0  0  0  0
  126.5269  130.4572   59.6881 H   0  0  0  0  0  0  0  0  0  0  0  0
  124.7223  132.7710   58.9761 H   0  0  0  0  0  0  0  0  0  0  0  0
  124.1652  131.0350   58.8566 H   0  0  0  0  0  0  0  0  0  0  0  0
  125.3340  129.8570   60.9550 H   0  0  0  0  0  0  0  0  0  0  0  0
  126.8250  129.7773   63.4089 H   0  0  0  0  0  0  0  0  0  0  0  0
  125.7231  129.4280   65.8314 H   0  0  0  0  0  0  0  0  0  0  0  0
  1  2  1  0
  2  3  2  0
  3  4  1  0
  4  5  1  0
  4  6  2  0
  6  7  1  0
  7  8  3  0
  6  9  1  0
  9 10  1  0
 10 11  1  0
 11 12  1  0
 12 13  1  0
 13 14  2  0
 13 15  1  0
 15 16  1  0
 16 17  1  0
 17 18  2  0
 18 19  1  0
 19 20  1  0
  9 21  2  0
 21  2  1  0
 20 16  2  0
  1 22  1  0
  1 23  1  0
  1 24  1  0
  3 25  1  0
  5 26  1  0
  5 27  1  0
  5 28  1  0
 11 29  1  0
 11 30  1  0
 12 31  1  0
 12 32  1  0
 15 33  1  0
 17 34  1  0
 18 35  1  0
M  END
>  <Binding energies>  (1) 
[-7.59]

>  <Ligand effiencies>  (1) 
[-0.345]

>  <Interactions>  (1) 
["V-A:PRO:540:CB:4882, V-A:TYR:539:CE1:4872, V-A:TYR:539:C:4864, V-A:PRO:540:CA:4880, V-A:LEU:363:CD1:3185, V-A:PRO:540:N:4881, V-A:TYR:539:CD1:4870, V-A:ILE:538:CA:4857, V-A:ILE:538:CD1:4862, V-A:TYR:539:CZ:4874, V-A:TYR:539:CD2:4871, V-A:TYR:539:CE2:4873, H-A:ALA:541:N:4888, V-A:PRO:540:C:4878, H-B:ASP:366:OD1:8182, V-B:ASP:366:CG:8181, H-B:ASP:366:OD2:8183, V-B:ILE:369:CG2:8205, V-B:ARG:545:CZ:9895, V-B:ILE:369:CD1:8207, H-B:GLY:454:N:9018, H-B:TYR:484:OH:9316, H-B:ARG:545:NE:9893, H-B:ARG:545:NH1:9896"]

$$$$
1q_Grossjean_2025
     RDKit          3D

 38 38  0  0  0  0  0  0  0  0999 V2000
  133.1290  125.0130   55.1470 C   0  0  0  0  0  0  0  0  0  0  0  0
  131.7690  124.7160   55.4270 O   0  0  0  0  0  0  0  0  0  0  0  0
  130.8260  125.6880   55.3730 C   0  0  0  0  0  0  0  0  0  0  0  0
  130.6950  126.5080   54.4630 O   0  0  0  0  0  0  0  0  0  0  0  0
  129.8950  125.7310   56.6040 C   0  0  0  0  0  0  0  0  0  0  0  0
  130.3150  124.8130   57.6730 N   0  0  0  0  0  0  0  0  0  0  0  0
  129.7330  124.6910   58.8820 C   0  0  0  0  0  0  0  0  0  0  0  0
  128.7550  125.3550   59.2290 O   0  0  0  0  0  0  0  0  0  0  0  0
  130.3520  123.6480   59.8240 C   0  0  0  0  0  0  0  0  0  0  0  0
  129.3310  122.9150   60.7160 C   0  0  0  0  0  0  0  0  0  0  0  0
  128.3960  121.6240   59.8430 S   0  0  0  0  0  0  0  0  0  0  0  0
  127.4430  122.3900   58.5480 C   0  0  0  0  0  0  0  0  0  0  0  0
  127.9760  122.2160   57.3120 N   0  0  0  0  0  0  0  0  0  0  0  0
  127.3410  122.7560   56.2460 C   0  0  0  0  0  0  0  0  0  0  0  0
  128.0060  122.5330   54.9000 C   0  0  0  0  0  0  0  0  0  0  0  0
  126.1550  123.4760   56.3630 C   0  0  0  0  0  0  0  0  0  0  0  0
  125.5830  123.6410   57.6280 C   0  0  0  0  0  0  0  0  0  0  0  0
  124.2710  124.4190   57.7280 C   0  0  0  0  0  0  0  0  0  0  0  0
  126.2260  123.0840   58.7570 C   0  0  0  0  0  0  0  0  0  0  0  0
  125.6120  123.1970   60.0810 C   0  0  0  0  0  0  0  0  0  0  0  0
  125.1230  123.2890   61.1260 N   0  0  0  0  0  0  0  0  0  0  0  0
  133.6800  125.1333   56.0914 H   0  0  0  0  0  0  0  0  0  0  0  0
  133.5719  124.1904   54.5663 H   0  0  0  0  0  0  0  0  0  0  0  0
  133.1887  125.9453   54.5663 H   0  0  0  0  0  0  0  0  0  0  0  0
  129.8893  126.7557   57.0038 H   0  0  0  0  0  0  0  0  0  0  0  0
  128.8951  125.4148   56.2721 H   0  0  0  0  0  0  0  0  0  0  0  0
  131.1290  124.2490   57.4780 H   0  0  0  0  0  0  0  0  0  0  0  0
  130.8756  122.8987   59.2121 H   0  0  0  0  0  0  0  0  0  0  0  0
  131.0263  124.1943   60.4999 H   0  0  0  0  0  0  0  0  0  0  0  0
  129.8721  122.4474   61.5518 H   0  0  0  0  0  0  0  0  0  0  0  0
  128.6029  123.6659   61.0566 H   0  0  0  0  0  0  0  0  0  0  0  0
  129.0386  122.1867   55.0541 H   0  0  0  0  0  0  0  0  0  0  0  0
  127.4451  121.7738   54.3352 H   0  0  0  0  0  0  0  0  0  0  0  0
  128.0162  123.4769   54.3352 H   0  0  0  0  0  0  0  0  0  0  0  0
  125.6750  123.9088   55.4729 H   0  0  0  0  0  0  0  0  0  0  0  0
  124.0147  124.5710   58.7869 H   0  0  0  0  0  0  0  0  0  0  0  0
  124.3852  125.3955   57.2346 H   0  0  0  0  0  0  0  0  0  0  0  0
  123.4690  123.8504   57.2346 H   0  0  0  0  0  0  0  0  0  0  0  0
  1  2  1  0
  2  3  1  0
  3  4  2  0
  3  5  1  0
  5  6  1  0
  6  7  1  0
  7  8  2  0
  7  9  1  0
  9 10  1  0
 10 11  1  0
 11 12  1  0
 12 13  2  0
 13 14  1  0
 14 15  1  0
 14 16  2  0
 16 17  1  0
 17 18  1  0
 17 19  2  0
 19 20  1  0
 20 21  3  0
 19 12  1  0
  1 22  1  0
  1 23  1  0
  1 24  1  0
  5 25  1  0
  5 26  1  0
  6 27  1  0
  9 28  1  0
  9 29  1  0
 10 30  1  0
 10 31  1  0
 15 32  1  0
 15 33  1  0
 15 34  1  0
 16 35  1  0
 18 36  1  0
 18 37  1  0
 18 38  1  0
M  END
>  <Binding energies>  (1) 
[-6.48]

>  <Ligand effiencies>  (1) 
[-0.29454545454545455]

>  <Interactions>  (1) 
["V-B:TYR:539:CE2:9845, V-B:PRO:540:N:9853, V-B:PRO:540:CB:9854, V-B:TYR:539:CZ:9846, H-B:ALA:541:N:9860, V-B:PRO:540:CA:9852, H-B:TYR:539:N:9839, V-B:TYR:539:CD1:9842, V-B:ILE:538:CA:9829, V-B:PRO:540:C:9850, V-B:TYR:539:C:9836, V-B:LEU:363:CD1:8157, V-B:ILE:538:CG2:9832, V-B:TYR:539:CE1:9844, V-B:ILE:538:CB:9831, V-B:MET:535:CE:9804, H-B:TYR:539:OH:9847, V-A:TYR:531:CE1:4789, V-A:ASP:366:C:3204, V-A:ASN:370:CG:3242, H-A:TYR:531:OH:4792, V-A:ASN:370:CB:3241"]

$$$$
2a_Ghoteimi_2023
     RDKit          3D

 85 90  0  0  0  0  0  0  0  0999 V2000
  126.8730  122.4330   55.6760 C   0  0  0  0  0  0  0  0  0  0  0  0
  125.4630  122.6940   56.2140 C   0  0  0  0  0  0  0  0  0  0  0  0
  125.2550  124.0950   56.3340 O   0  0  0  0  0  0  0  0  0  0  0  0
  125.0520  124.6730   57.5450 C   0  0  0  0  0  0  0  0  0  0  0  0
  124.1610  125.5010   57.7630 O   0  0  0  0  0  0  0  0  0  0  0  0
  126.0140  124.2000   58.5970 C   0  0  0  0  0  0  0  0  0  0  0  0
  127.4000  124.1770   58.3790 C   0  0  0  0  0  0  0  0  0  0  0  0
  128.2640  123.7340   59.3750 C   0  0  0  0  0  0  0  0  0  0  0  0
  127.7660  123.3100   60.6090 C   0  0  0  0  0  0  0  0  0  0  0  0
  128.7300  122.8780   61.5410 N   0  0  0  0  0  0  0  0  0  0  0  0
  129.4840  121.7570   61.5490 C   0  0  0  0  0  0  0  0  0  0  0  0
  129.4170  120.8510   60.7180 O   0  0  0  0  0  0  0  0  0  0  0  0
  130.4560  121.6350   62.7300 C   0  0  0  0  0  0  0  0  0  0  0  0
  131.9280  122.7020   62.6090 S   0  0  0  0  0  0  0  0  0  0  0  0
  131.3280  124.3680   62.7700 C   0  0  0  0  0  0  0  0  0  0  0  0
  131.0070  124.7140   64.0380 N   0  0  0  0  0  0  0  0  0  0  0  0
  130.5280  125.9590   64.2890 C   0  0  0  0  0  0  0  0  0  0  0  0
  130.1860  126.2680   65.7110 C   0  0  0  0  0  0  0  0  0  0  0  0
  130.2490  127.5770   66.2040 C   0  0  0  0  0  0  0  0  0  0  0  0
  129.9410  127.8570   67.5320 C   0  0  0  0  0  0  0  0  0  0  0  0
  129.5500  126.8410   68.4160 C   0  0  0  0  0  0  0  0  0  0  0  0
  129.2720  127.1330   69.7550 N   0  0  0  0  0  0  0  0  0  0  0  0
  130.1580  128.0040   70.5530 C   0  0  0  0  0  0  0  0  0  0  0  0
  129.5220  128.5040   71.8670 C   0  0  0  0  0  0  0  0  0  0  0  0
  129.0650  127.4030   72.6360 O   0  0  0  0  0  0  0  0  0  0  0  0
  128.0830  126.6550   71.9370 C   0  0  0  0  0  0  0  0  0  0  0  0
  128.6740  126.0980   70.6250 C   0  0  0  0  0  0  0  0  0  0  0  0
  129.4990  125.5280   67.9190 C   0  0  0  0  0  0  0  0  0  0  0  0
  129.8050  125.2490   66.5910 C   0  0  0  0  0  0  0  0  0  0  0  0
  130.3730  126.8930   63.2620 C   0  0  0  0  0  0  0  0  0  0  0  0
  130.6990  126.5570   61.9410 C   0  0  0  0  0  0  0  0  0  0  0  0
  130.5030  127.6030   60.8910 C   0  0  0  0  0  0  0  0  0  0  0  0
  131.0090  128.8910   61.0790 C   0  0  0  0  0  0  0  0  0  0  0  0
  130.8150  129.8770   60.1170 C   0  0  0  0  0  0  0  0  0  0  0  0
  130.1110  129.6030   58.9340 C   0  0  0  0  0  0  0  0  0  0  0  0
  129.8890  130.5840   57.9630 N   0  0  0  0  0  0  0  0  0  0  0  0
  131.0230  131.0670   57.1500 C   0  0  0  0  0  0  0  0  0  0  0  0
  130.5840  131.8340   55.8850 C   0  0  0  0  0  0  0  0  0  0  0  0
  129.7250  132.9070   56.2400 O   0  0  0  0  0  0  0  0  0  0  0  0
  128.5570  132.4470   56.9020 C   0  0  0  0  0  0  0  0  0  0  0  0
  128.9420  131.6930   58.1910 C   0  0  0  0  0  0  0  0  0  0  0  0
  129.5960  128.3110   58.7580 C   0  0  0  0  0  0  0  0  0  0  0  0
  129.7890  127.3250   59.7220 C   0  0  0  0  0  0  0  0  0  0  0  0
  131.1980  125.2580   61.6810 C   0  0  0  0  0  0  0  0  0  0  0  0
  131.6080  124.8660   60.3280 C   0  0  0  0  0  0  0  0  0  0  0  0
  131.9310  124.5590   59.2600 N   0  0  0  0  0  0  0  0  0  0  0  0
  126.3820  123.3210   60.8310 C   0  0  0  0  0  0  0  0  0  0  0  0
  125.5180  123.7670   59.8340 C   0  0  0  0  0  0  0  0  0  0  0  0
  127.5688  122.3042   56.5182 H   0  0  0  0  0  0  0  0  0  0  0  0
  126.8680  121.5205   55.0617 H   0  0  0  0  0  0  0  0  0  0  0  0
  127.1949  123.2868   55.0617 H   0  0  0  0  0  0  0  0  0  0  0  0
  124.7214  122.2710   55.5203 H   0  0  0  0  0  0  0  0  0  0  0  0
  125.3529  122.2205   57.2007 H   0  0  0  0  0  0  0  0  0  0  0  0
  127.8063  124.5118   57.4132 H   0  0  0  0  0  0  0  0  0  0  0  0
  129.3481  123.7175   59.1893 H   0  0  0  0  0  0  0  0  0  0  0  0
  128.8460  123.4970   62.3290 H   0  0  0  0  0  0  0  0  0  0  0  0
  129.9142  121.8998   63.6499 H   0  0  0  0  0  0  0  0  0  0  0  0
  130.8205  120.5972   62.7298 H   0  0  0  0  0  0  0  0  0  0  0  0
  130.5462  128.3957   65.5321 H   0  0  0  0  0  0  0  0  0  0  0  0
  130.0054  128.8935   67.8946 H   0  0  0  0  0  0  0  0  0  0  0  0
  131.0680  127.4383   70.8016 H   0  0  0  0  0  0  0  0  0  0  0  0
  130.3687  128.8932   69.9407 H   0  0  0  0  0  0  0  0  0  0  0  0
  130.2720  129.0648   72.4441 H   0  0  0  0  0  0  0  0  0  0  0  0
  128.6689  129.1565   71.6292 H   0  0  0  0  0  0  0  0  0  0  0  0
  127.7455  125.8192   72.5675 H   0  0  0  0  0  0  0  0  0  0  0  0
  127.2332  127.3114   71.6985 H   0  0  0  0  0  0  0  0  0  0  0  0
  129.4540  125.3652   70.8792 H   0  0  0  0  0  0  0  0  0  0  0  0
  127.8419  125.6482   70.0635 H   0  0  0  0  0  0  0  0  0  0  0  0
  129.2121  124.7063   68.5917 H   0  0  0  0  0  0  0  0  0  0  0  0
  129.7466  124.2125   66.2275 H   0  0  0  0  0  0  0  0  0  0  0  0
  129.9924  127.8992   63.4916 H   0  0  0  0  0  0  0  0  0  0  0  0
  131.5666  129.1283   61.9970 H   0  0  0  0  0  0  0  0  0  0  0  0
  131.2192  130.8860   60.2859 H   0  0  0  0  0  0  0  0  0  0  0  0
  131.6363  131.7377   57.7697 H   0  0  0  0  0  0  0  0  0  0  0  0
  131.5847  130.1822   56.8161 H   0  0  0  0  0  0  0  0  0  0  0  0
  131.4729  132.2329   55.3743 H   0  0  0  0  0  0  0  0  0  0  0  0
  130.0453  131.1471   55.2157 H   0  0  0  0  0  0  0  0  0  0  0  0
  127.9218  133.3074   57.1595 H   0  0  0  0  0  0  0  0  0  0  0  0
  128.0097  131.7647   56.2350 H   0  0  0  0  0  0  0  0  0  0  0  0
  129.4040  132.4078   58.8879 H   0  0  0  0  0  0  0  0  0  0  0  0
  128.0192  131.2527   58.5965 H   0  0  0  0  0  0  0  0  0  0  0  0
  129.0310  128.0727   57.8448 H   0  0  0  0  0  0  0  0  0  0  0  0
  129.3758  126.3182   59.5621 H   0  0  0  0  0  0  0  0  0  0  0  0
  125.9777  122.9768   61.7943 H   0  0  0  0  0  0  0  0  0  0  0  0
  124.4338  123.7795   60.0196 H   0  0  0  0  0  0  0  0  0  0  0  0
  1  2  1  0
  2  3  1  0
  3  4  1  0
  4  5  2  0
  4  6  1  0
  6  7  2  0
  7  8  1  0
  8  9  2  0
  9 10  1  0
 10 11  1  0
 11 12  2  0
 11 13  1  0
 13 14  1  0
 14 15  1  0
 15 16  2  0
 16 17  1  0
 17 18  1  0
 18 19  2  0
 19 20  1  0
 20 21  2  0
 21 22  1  0
 22 23  1  0
 23 24  1  0
 24 25  1  0
 25 26  1  0
 26 27  1  0
 21 28  1  0
 28 29  2  0
 17 30  2  0
 30 31  1  0
 31 32  1  0
 32 33  2  0
 33 34  1  0
 34 35  2  0
 35 36  1  0
 36 37  1  0
 37 38  1  0
 38 39  1  0
 39 40  1  0
 40 41  1  0
 35 42  1  0
 42 43  2  0
 31 44  2  0
 44 45  1  0
 45 46  3  0
  9 47  1  0
 47 48  2  0
 48  6  1  0
 44 15  1  0
 29 18  1  0
 43 32  1  0
 27 22  1  0
 41 36  1  0
  1 49  1  0
  1 50  1  0
  1 51  1  0
  2 52  1  0
  2 53  1  0
  7 54  1  0
  8 55  1  0
 10 56  1  0
 13 57  1  0
 13 58  1  0
 19 59  1  0
 20 60  1  0
 23 61  1  0
 23 62  1  0
 24 63  1  0
 24 64  1  0
 26 65  1  0
 26 66  1  0
 27 67  1  0
 27 68  1  0
 28 69  1  0
 29 70  1  0
 30 71  1  0
 33 72  1  0
 34 73  1  0
 37 74  1  0
 37 75  1  0
 38 76  1  0
 38 77  1  0
 40 78  1  0
 40 79  1  0
 41 80  1  0
 41 81  1  0
 42 82  1  0
 43 83  1  0
 47 84  1  0
 48 85  1  0
M  END
>  <Binding energies>  (1) 
[-11.36]

>  <Ligand effiencies>  (1) 
[-0.23183673469387753]

>  <Interactions>  (1) 
["V-B:TYR:539:CE2:9845, V-B:PRO:540:N:9853, V-B:PRO:540:CB:9854, V-A:LEU:475:CD1:4254, V-B:PRO:540:CA:9852, V-B:ILE:538:CA:9829, V-B:LEU:363:CD1:8157, V-B:ALA:541:CB:9861, V-B:ILE:538:CG2:9832, V-A:TYR:484:CE1:4341, V-B:ILE:538:CB:9831, V-B:GLU:543:CG:9876, H-B:GLU:543:OE2:9879, V-A:GLU:543:CD:4905, V-A:HIS:456:CE1:4066, H-B:TYR:539:OH:9847, V-A:ASP:366:CG:3209, V-A:GLU:543:CG:4904, V-B:GLU:543:CB:9875, H-B:TYR:531:OH:9764, V-B:PRO:540:CD:9856, V-A:TYR:539:C:4864, H-A:TYR:539:N:4867, V-A:ILE:538:CD1:4862, V-A:TYR:539:CZ:4874, V-A:TYR:539:CD2:4871, V-A:TYR:539:CE2:4873, V-A:TYR:539:CG:4869, V-B:HIS:456:CD2:9036, V-A:GLU:543:CB:4903, V-A:GLU:543:C:4899, H-A:LYS:547:NZ:4948, V-B:LYS:547:CE:9919"]

$$$$
2a_Grossjean_2025
     RDKit          3D

 45 46  0  0  0  0  0  0  0  0999 V2000
  130.5700  132.7460   56.2110 C   0  0  0  0  0  0  0  0  0  0  0  0
  129.8610  131.7480   55.2910 C   0  0  0  0  0  0  0  0  0  0  0  0
  128.5830  132.2640   54.9340 O   0  0  0  0  0  0  0  0  0  0  0  0
  127.5380  131.4340   54.6840 C   0  0  0  0  0  0  0  0  0  0  0  0
  126.8990  131.4430   53.6270 O   0  0  0  0  0  0  0  0  0  0  0  0
  127.2510  130.4870   55.8140 C   0  0  0  0  0  0  0  0  0  0  0  0
  126.8990  130.9440   57.0930 C   0  0  0  0  0  0  0  0  0  0  0  0
  126.6410  130.0400   58.1190 C   0  0  0  0  0  0  0  0  0  0  0  0
  126.7340  128.6670   57.8930 C   0  0  0  0  0  0  0  0  0  0  0  0
  126.4660  127.8470   59.0060 N   0  0  0  0  0  0  0  0  0  0  0  0
  127.2960  127.3890   59.9670 C   0  0  0  0  0  0  0  0  0  0  0  0
  128.5080  127.6010   60.0260 O   0  0  0  0  0  0  0  0  0  0  0  0
  126.6380  126.5350   61.0560 C   0  0  0  0  0  0  0  0  0  0  0  0
  125.4790  125.2910   60.3960 S   0  0  0  0  0  0  0  0  0  0  0  0
  126.3860  124.0410   59.4920 C   0  0  0  0  0  0  0  0  0  0  0  0
  127.3400  123.3810   60.1970 N   0  0  0  0  0  0  0  0  0  0  0  0
  128.0730  122.4320   59.5740 C   0  0  0  0  0  0  0  0  0  0  0  0
  129.1380  121.7580   60.4190 C   0  0  0  0  0  0  0  0  0  0  0  0
  127.8840  122.0940   58.2370 C   0  0  0  0  0  0  0  0  0  0  0  0
  126.8970  122.7560   57.4910 C   0  0  0  0  0  0  0  0  0  0  0  0
  126.6990  122.3700   56.0130 C   0  0  0  0  0  0  0  0  0  0  0  0
  125.5950  121.6350   55.8760 F   0  0  0  0  0  0  0  0  0  0  0  0
  126.5830  123.4690   55.2660 F   0  0  0  0  0  0  0  0  0  0  0  0
  127.7190  121.6590   55.5250 F   0  0  0  0  0  0  0  0  0  0  0  0
  126.1230  123.7570   58.1320 C   0  0  0  0  0  0  0  0  0  0  0  0
  125.0800  124.4830   57.3990 C   0  0  0  0  0  0  0  0  0  0  0  0
  124.2570  125.0570   56.8210 N   0  0  0  0  0  0  0  0  0  0  0  0
  127.0770  128.2020   56.6160 C   0  0  0  0  0  0  0  0  0  0  0  0
  127.3310  129.1070   55.5890 C   0  0  0  0  0  0  0  0  0  0  0  0
  130.3789  132.4770   57.2604 H   0  0  0  0  0  0  0  0  0  0  0  0
  131.6524  132.7188   56.0167 H   0  0  0  0  0  0  0  0  0  0  0  0
  130.1880  133.7591   56.0167 H   0  0  0  0  0  0  0  0  0  0  0  0
  130.4621  131.5942   54.3827 H   0  0  0  0  0  0  0  0  0  0  0  0
  129.7382  130.7878   55.8134 H   0  0  0  0  0  0  0  0  0  0  0  0
  126.8265  132.0245   57.2861 H   0  0  0  0  0  0  0  0  0  0  0  0
  126.3615  130.4113   59.1160 H   0  0  0  0  0  0  0  0  0  0  0  0
  125.4920  127.6090   59.1150 H   0  0  0  0  0  0  0  0  0  0  0  0
  127.4284  126.0134   61.6157 H   0  0  0  0  0  0  0  0  0  0  0  0
  126.0563  127.2149   61.6959 H   0  0  0  0  0  0  0  0  0  0  0  0
  128.9073  121.9040   61.4846 H   0  0  0  0  0  0  0  0  0  0  0  0
  129.1591  120.6818   60.1925 H   0  0  0  0  0  0  0  0  0  0  0  0
  130.1197  122.1996   60.1925 H   0  0  0  0  0  0  0  0  0  0  0  0
  128.5032  121.3144   57.7692 H   0  0  0  0  0  0  0  0  0  0  0  0
  127.1456  127.1209   56.4251 H   0  0  0  0  0  0  0  0  0  0  0  0
  127.5976  128.7338   54.5892 H   0  0  0  0  0  0  0  0  0  0  0  0
  1  2  1  0
  2  3  1  0
  3  4  1  0
  4  5  2  0
  4  6  1  0
  6  7  2  0
  7  8  1  0
  8  9  2  0
  9 10  1  0
 10 11  1  0
 11 12  2  0
 11 13  1  0
 13 14  1  0
 14 15  1  0
 15 16  2  0
 16 17  1  0
 17 18  1  0
 17 19  2  0
 19 20  1  0
 20 21  1  0
 21 22  1  0
 21 23  1  0
 21 24  1  0
 20 25  2  0
 25 26  1  0
 26 27  3  0
  9 28  1  0
 28 29  2  0
 29  6  1  0
 25 15  1  0
  1 30  1  0
  1 31  1  0
  1 32  1  0
  2 33  1  0
  2 34  1  0
  7 35  1  0
  8 36  1  0
 10 37  1  0
 13 38  1  0
 13 39  1  0
 18 40  1  0
 18 41  1  0
 18 42  1  0
 19 43  1  0
 28 44  1  0
 29 45  1  0
M  END
>  <Binding energies>  (1) 
[-7.44]

>  <Ligand effiencies>  (1) 
[-0.24800000000000003]

>  <Interactions>  (1) 
["V-B:TYR:539:CE2:9845, V-B:PRO:540:N:9853, V-B:PRO:540:CB:9854, V-B:TYR:539:CZ:9846, V-B:PRO:540:CA:9852, V-B:TYR:539:CD1:9842, V-B:ILE:538:CA:9829, V-B:ILE:538:C:9827, V-B:TYR:539:C:9836, V-B:LEU:363:CD1:8157, V-B:ALA:541:CB:9861, V-B:ILE:538:CG2:9832, V-B:TYR:539:CE1:9844, V-B:GLU:543:CD:9877, V-B:ILE:538:CB:9831, V-B:MET:535:CE:9804, H-B:TYR:531:OH:9764, V-B:PRO:540:CD:9856, H-A:TYR:539:OH:4875, V-A:TYR:539:CE1:4872, V-A:TYR:539:C:4864, V-A:PRO:540:CA:4880, V-B:TYR:539:CA:9838, V-A:PRO:540:N:4881, H-B:LYS:534:NZ:9792, V-A:ILE:538:CG2:4860, V-A:ILE:538:CD1:4862, V-A:TYR:539:CZ:4874, V-B:TYR:539:CG:9841, V-B:TYR:539:CD2:9843, V-A:TYR:539:CE2:4873, H-B:ASP:366:OD1:8182, V-B:ASP:366:CG:8181, V-A:TYR:539:CA:4866, V-A:PRO:540:CD:4884, V-B:ILE:538:CG1:9833, V-B:ILE:538:CD1:9834, V-B:PRO:540:CG:9855, H-B:ARG:545:NH2:9897"]

$$$$
2aa_Ghoteimi_2023
     RDKit          3D

 85 90  0  0  0  0  0  0  0  0999 V2000
  134.3640  129.2630   56.2990 C   0  0  0  0  0  0  0  0  0  0  0  0
  133.7870  129.9770   57.5260 C   0  0  0  0  0  0  0  0  0  0  0  0
  133.5610  131.3450   57.2120 O   0  0  0  0  0  0  0  0  0  0  0  0
  132.4180  131.7450   56.5970 C   0  0  0  0  0  0  0  0  0  0  0  0
  132.3740  132.1230   55.4220 O   0  0  0  0  0  0  0  0  0  0  0  0
  131.2090  131.6670   57.4850 C   0  0  0  0  0  0  0  0  0  0  0  0
  131.2720  131.1270   58.7770 C   0  0  0  0  0  0  0  0  0  0  0  0
  130.1350  131.0720   59.5780 C   0  0  0  0  0  0  0  0  0  0  0  0
  128.9120  131.5480   59.1020 C   0  0  0  0  0  0  0  0  0  0  0  0
  127.8280  131.4470   59.9950 N   0  0  0  0  0  0  0  0  0  0  0  0
  126.5560  131.8820   59.8650 C   0  0  0  0  0  0  0  0  0  0  0  0
  126.1000  132.4490   58.8700 O   0  0  0  0  0  0  0  0  0  0  0  0
  125.6560  131.5970   61.0740 C   0  0  0  0  0  0  0  0  0  0  0  0
  126.4630  131.4200   62.2440 O   0  0  0  0  0  0  0  0  0  0  0  0
  126.9110  130.1530   62.5960 C   0  0  0  0  0  0  0  0  0  0  0  0
  126.8800  129.1760   61.6470 N   0  0  0  0  0  0  0  0  0  0  0  0
  127.3130  127.9290   61.9570 C   0  0  0  0  0  0  0  0  0  0  0  0
  127.2450  126.9070   60.8670 C   0  0  0  0  0  0  0  0  0  0  0  0
  128.2800  126.7880   59.9340 C   0  0  0  0  0  0  0  0  0  0  0  0
  128.2260  125.8340   58.9210 C   0  0  0  0  0  0  0  0  0  0  0  0
  127.1380  124.9530   58.8120 C   0  0  0  0  0  0  0  0  0  0  0  0
  127.0610  123.9970   57.7930 N   0  0  0  0  0  0  0  0  0  0  0  0
  128.2590  123.2650   57.3320 C   0  0  0  0  0  0  0  0  0  0  0  0
  128.0610  122.5300   55.9890 C   0  0  0  0  0  0  0  0  0  0  0  0
  126.9390  121.6670   56.0690 O   0  0  0  0  0  0  0  0  0  0  0  0
  125.7480  122.3870   56.3480 C   0  0  0  0  0  0  0  0  0  0  0  0
  125.8770  123.1180   57.7020 C   0  0  0  0  0  0  0  0  0  0  0  0
  126.0930  125.0900   59.7370 C   0  0  0  0  0  0  0  0  0  0  0  0
  126.1480  126.0460   60.7470 C   0  0  0  0  0  0  0  0  0  0  0  0
  127.7760  127.6230   63.2410 C   0  0  0  0  0  0  0  0  0  0  0  0
  127.8080  128.6060   64.2370 C   0  0  0  0  0  0  0  0  0  0  0  0
  128.2890  128.2130   65.5970 C   0  0  0  0  0  0  0  0  0  0  0  0
  128.4350  126.8640   65.9310 C   0  0  0  0  0  0  0  0  0  0  0  0
  128.8640  126.4910   67.2010 C   0  0  0  0  0  0  0  0  0  0  0  0
  129.1450  127.4560   68.1810 C   0  0  0  0  0  0  0  0  0  0  0  0
  129.5800  127.1040   69.4610 N   0  0  0  0  0  0  0  0  0  0  0  0
  128.6770  126.4520   70.4280 C   0  0  0  0  0  0  0  0  0  0  0  0
  129.4130  125.8270   71.6330 C   0  0  0  0  0  0  0  0  0  0  0  0
  130.2150  126.8070   72.2720 O   0  0  0  0  0  0  0  0  0  0  0  0
  131.1900  127.3410   71.3900 C   0  0  0  0  0  0  0  0  0  0  0  0
  130.5020  128.0070   70.1810 C   0  0  0  0  0  0  0  0  0  0  0  0
  129.0030  128.8060   67.8340 C   0  0  0  0  0  0  0  0  0  0  0  0
  128.5750  129.1800   66.5640 C   0  0  0  0  0  0  0  0  0  0  0  0
  127.3760  129.9100   63.9010 C   0  0  0  0  0  0  0  0  0  0  0  0
  127.4210  131.0130   64.8640 C   0  0  0  0  0  0  0  0  0  0  0  0
  127.4570  131.8830   65.6260 N   0  0  0  0  0  0  0  0  0  0  0  0
  128.8420  132.0960   57.8130 C   0  0  0  0  0  0  0  0  0  0  0  0
  129.9810  132.1530   57.0160 C   0  0  0  0  0  0  0  0  0  0  0  0
  135.0240  128.4463   56.6267 H   0  0  0  0  0  0  0  0  0  0  0  0
  133.5425  128.8506   55.6948 H   0  0  0  0  0  0  0  0  0  0  0  0
  134.9396  129.9796   55.6948 H   0  0  0  0  0  0  0  0  0  0  0  0
  132.8361  129.5041   57.8126 H   0  0  0  0  0  0  0  0  0  0  0  0
  134.4979  129.9040   58.3623 H   0  0  0  0  0  0  0  0  0  0  0  0
  132.2286  130.7433   59.1613 H   0  0  0  0  0  0  0  0  0  0  0  0
  130.2005  130.6510   60.5921 H   0  0  0  0  0  0  0  0  0  0  0  0
  128.0370  130.9370   60.8410 H   0  0  0  0  0  0  0  0  0  0  0  0
  124.9702  132.4433   61.2272 H   0  0  0  0  0  0  0  0  0  0  0  0
  125.0758  130.6810   60.8890 H   0  0  0  0  0  0  0  0  0  0  0  0
  129.1498  127.4580   60.0014 H   0  0  0  0  0  0  0  0  0  0  0  0
  129.0492  125.7695   58.1942 H   0  0  0  0  0  0  0  0  0  0  0  0
  129.0821  123.9853   57.2152 H   0  0  0  0  0  0  0  0  0  0  0  0
  128.4763  122.4969   58.0888 H   0  0  0  0  0  0  0  0  0  0  0  0
  127.8963  123.2684   55.1905 H   0  0  0  0  0  0  0  0  0  0  0  0
  128.9591  121.9348   55.7675 H   0  0  0  0  0  0  0  0  0  0  0  0
  125.5733  123.1248   55.5510 H   0  0  0  0  0  0  0  0  0  0  0  0
  124.9040  121.6833   56.3969 H   0  0  0  0  0  0  0  0  0  0  0  0
  124.9766  123.7318   57.8522 H   0  0  0  0  0  0  0  0  0  0  0  0
  125.9917  122.3439   58.4751 H   0  0  0  0  0  0  0  0  0  0  0  0
  125.2153  124.4310   59.6631 H   0  0  0  0  0  0  0  0  0  0  0  0
  125.3162  126.1262   61.4623 H   0  0  0  0  0  0  0  0  0  0  0  0
  128.1174  126.6026   63.4696 H   0  0  0  0  0  0  0  0  0  0  0  0
  128.2087  126.0898   65.1830 H   0  0  0  0  0  0  0  0  0  0  0  0
  128.9847  125.4242   67.4406 H   0  0  0  0  0  0  0  0  0  0  0  0
  127.9685  127.2043   70.8048 H   0  0  0  0  0  0  0  0  0  0  0  0
  128.1714  125.6321   69.8968 H   0  0  0  0  0  0  0  0  0  0  0  0
  128.6744  125.4371   72.3489 H   0  0  0  0  0  0  0  0  0  0  0  0
  130.0565  125.0083   71.2785 H   0  0  0  0  0  0  0  0  0  0  0  0
  131.7925  128.0904   71.9242 H   0  0  0  0  0  0  0  0  0  0  0  0
  131.8372  126.5265   71.0326 H   0  0  0  0  0  0  0  0  0  0  0  0
  129.9303  128.8756   70.5397 H   0  0  0  0  0  0  0  0  0  0  0  0
  131.2940  128.2945   69.4738 H   0  0  0  0  0  0  0  0  0  0  0  0
  129.2337  129.5829   68.5778 H   0  0  0  0  0  0  0  0  0  0  0  0
  128.4608  130.2463   66.3192 H   0  0  0  0  0  0  0  0  0  0  0  0
  127.8850  132.4814   57.4314 H   0  0  0  0  0  0  0  0  0  0  0  0
  129.9169  132.5845   56.0062 H   0  0  0  0  0  0  0  0  0  0  0  0
  1  2  1  0
  2  3  1  0
  3  4  1  0
  4  5  2  0
  4  6  1  0
  6  7  2  0
  7  8  1  0
  8  9  2  0
  9 10  1  0
 10 11  1  0
 11 12  2  0
 11 13  1  0
 13 14  1  0
 14 15  1  0
 15 16  2  0
 16 17  1  0
 17 18  1  0
 18 19  2  0
 19 20  1  0
 20 21  2  0
 21 22  1  0
 22 23  1  0
 23 24  1  0
 24 25  1  0
 25 26  1  0
 26 27  1  0
 21 28  1  0
 28 29  2  0
 17 30  2  0
 30 31  1  0
 31 32  1  0
 32 33  2  0
 33 34  1  0
 34 35  2  0
 35 36  1  0
 36 37  1  0
 37 38  1  0
 38 39  1  0
 39 40  1  0
 40 41  1  0
 35 42  1  0
 42 43  2  0
 31 44  2  0
 44 45  1  0
 45 46  3  0
  9 47  1  0
 47 48  2  0
 48  6  1  0
 44 15  1  0
 29 18  1  0
 43 32  1  0
 27 22  1  0
 41 36  1  0
  1 49  1  0
  1 50  1  0
  1 51  1  0
  2 52  1  0
  2 53  1  0
  7 54  1  0
  8 55  1  0
 10 56  1  0
 13 57  1  0
 13 58  1  0
 19 59  1  0
 20 60  1  0
 23 61  1  0
 23 62  1  0
 24 63  1  0
 24 64  1  0
 26 65  1  0
 26 66  1  0
 27 67  1  0
 27 68  1  0
 28 69  1  0
 29 70  1  0
 30 71  1  0
 33 72  1  0
 34 73  1  0
 37 74  1  0
 37 75  1  0
 38 76  1  0
 38 77  1  0
 40 78  1  0
 40 79  1  0
 41 80  1  0
 41 81  1  0
 42 82  1  0
 43 83  1  0
 47 84  1  0
 48 85  1  0
M  END
>  <Binding energies>  (1) 
[-10.18]

>  <Ligand effiencies>  (1) 
[-0.20775510204081632]

>  <Interactions>  (1) 
["V-B:PRO:540:N:9853, V-B:PRO:540:CB:9854, V-B:TYR:539:CZ:9846, V-B:PRO:540:CA:9852, H-B:TYR:539:N:9839, V-B:TYR:539:CD1:9842, V-B:LEU:363:CD1:8157, V-B:ILE:538:CG2:9832, V-B:TYR:539:CE1:9844, V-B:GLU:543:CD:9877, V-B:ILE:538:CB:9831, V-B:GLU:543:CG:9876, V-A:GLU:543:CD:4905, V-A:ASP:366:CB:3208, V-A:HIS:456:CE1:4066, V-A:ASP:366:CG:3209, V-A:GLU:543:CG:4904, V-B:GLU:543:CB:9875, H-A:TYR:531:OH:4792, V-B:PRO:540:CD:9856, V-A:PRO:540:CB:4882, V-A:TYR:539:C:4864, V-A:PRO:540:CA:4880, V-A:LEU:363:CD1:3185, V-A:PRO:540:N:4881, V-A:TYR:531:CZ:4791, V-A:TYR:531:CE2:4790, V-A:LEU:363:CA:3181, V-A:TYR:539:CD2:4871, V-A:GLU:543:CB:4903, V-A:GLU:543:C:4899, H-A:LYS:547:NZ:4948, V-A:GLY:544:C:4909, V-B:HIS:456:CE1:9038, H-A:GLU:543:OE2:4907, V-A:HIS:456:CD2:4064, H-B:TYR:484:OH:9316, V-A:LEU:363:C:3179, V-A:GLU:543:CA:4901, V-A:HIS:456:CG:4062"]

$$$$
2b_Ghoteimi_2023
     RDKit          3D

 72 77  0  0  0  0  0  0  0  0999 V2000
  129.4940  122.7900   65.1470 N   0  0  0  0  0  0  0  0  0  0  0  0
  129.5040  123.6980   64.4290 C   0  0  0  0  0  0  0  0  0  0  0  0
  129.5170  124.8510   63.5240 C   0  0  0  0  0  0  0  0  0  0  0  0
  129.4420  126.1700   64.0370 C   0  0  0  0  0  0  0  0  0  0  0  0
  129.3490  126.4900   65.4920 C   0  0  0  0  0  0  0  0  0  0  0  0
  129.9610  125.6640   66.4360 C   0  0  0  0  0  0  0  0  0  0  0  0
  129.8770  125.9580   67.7940 C   0  0  0  0  0  0  0  0  0  0  0  0
  129.1620  127.0780   68.2460 C   0  0  0  0  0  0  0  0  0  0  0  0
  129.0730  127.4000   69.6020 N   0  0  0  0  0  0  0  0  0  0  0  0
  128.3070  126.5170   70.5030 C   0  0  0  0  0  0  0  0  0  0  0  0
  127.9720  127.1700   71.8600 C   0  0  0  0  0  0  0  0  0  0  0  0
  129.1590  127.6320   72.4870 O   0  0  0  0  0  0  0  0  0  0  0  0
  129.8310  128.5950   71.6900 C   0  0  0  0  0  0  0  0  0  0  0  0
  130.2210  127.9730   70.3330 C   0  0  0  0  0  0  0  0  0  0  0  0
  128.5480  127.9000   67.2910 C   0  0  0  0  0  0  0  0  0  0  0  0
  128.6360  127.6090   65.9330 C   0  0  0  0  0  0  0  0  0  0  0  0
  129.4630  127.2390   63.1330 C   0  0  0  0  0  0  0  0  0  0  0  0
  129.5870  127.0040   61.7610 C   0  0  0  0  0  0  0  0  0  0  0  0
  129.6450  128.1120   60.7570 C   0  0  0  0  0  0  0  0  0  0  0  0
  130.6860  129.0460   60.7840 C   0  0  0  0  0  0  0  0  0  0  0  0
  130.7540  130.0700   59.8430 C   0  0  0  0  0  0  0  0  0  0  0  0
  129.7750  130.2060   58.8460 C   0  0  0  0  0  0  0  0  0  0  0  0
  129.8470  131.2120   57.8760 N   0  0  0  0  0  0  0  0  0  0  0  0
  131.1120  131.4450   57.1500 C   0  0  0  0  0  0  0  0  0  0  0  0
  131.1630  132.8020   56.4160 C   0  0  0  0  0  0  0  0  0  0  0  0
  130.0470  132.9270   55.5470 O   0  0  0  0  0  0  0  0  0  0  0  0
  128.8230  132.8680   56.2620 C   0  0  0  0  0  0  0  0  0  0  0  0
  128.7030  131.5150   56.9940 C   0  0  0  0  0  0  0  0  0  0  0  0
  128.7380  129.2630   58.8190 C   0  0  0  0  0  0  0  0  0  0  0  0
  128.6720  128.2380   59.7580 C   0  0  0  0  0  0  0  0  0  0  0  0
  129.6600  125.7400   61.2720 N   0  0  0  0  0  0  0  0  0  0  0  0
  129.6080  124.6880   62.1230 C   0  0  0  0  0  0  0  0  0  0  0  0
  129.7110  123.1080   61.3110 S   0  0  0  0  0  0  0  0  0  0  0  0
  130.4810  123.3760   59.6850 C   0  0  0  0  0  0  0  0  0  0  0  0
  129.4400  123.5200   58.5730 C   0  0  0  0  0  0  0  0  0  0  0  0
  129.4940  124.4920   57.8180 O   0  0  0  0  0  0  0  0  0  0  0  0
  128.5140  122.5390   58.5130 N   0  0  0  0  0  0  0  0  0  0  0  0
  127.4720  122.4190   57.6040 C   0  0  0  0  0  0  0  0  0  0  0  0
  126.2650  123.1040   57.7360 C   0  0  0  0  0  0  0  0  0  0  0  0
  125.5150  122.7180   56.6500 C   0  0  0  0  0  0  0  0  0  0  0  0
  126.2320  121.8460   55.9030 O   0  0  0  0  0  0  0  0  0  0  0  0
  127.4740  121.6650   56.5170 N   0  0  0  0  0  0  0  0  0  0  0  0
  130.5144  124.7732   66.1041 H   0  0  0  0  0  0  0  0  0  0  0  0
  130.3778  125.3037   68.5228 H   0  0  0  0  0  0  0  0  0  0  0  0
  127.3649  126.2434   70.0054 H   0  0  0  0  0  0  0  0  0  0  0  0
  128.9367  125.6394   70.7110 H   0  0  0  0  0  0  0  0  0  0  0  0
  127.2927  128.0197   71.6967 H   0  0  0  0  0  0  0  0  0  0  0  0
  127.4900  126.4237   72.5087 H   0  0  0  0  0  0  0  0  0  0  0  0
  129.1668  129.4551   71.5196 H   0  0  0  0  0  0  0  0  0  0  0  0
  130.7411  128.9258   72.2119 H   0  0  0  0  0  0  0  0  0  0  0  0
  130.6774  128.7552   69.7086 H   0  0  0  0  0  0  0  0  0  0  0  0
  130.9193  127.1489   70.5408 H   0  0  0  0  0  0  0  0  0  0  0  0
  127.9884  128.7881   67.6198 H   0  0  0  0  0  0  0  0  0  0  0  0
  128.1410  128.2642   65.2011 H   0  0  0  0  0  0  0  0  0  0  0  0
  129.3813  128.2709   63.5053 H   0  0  0  0  0  0  0  0  0  0  0  0
  131.4621  128.9704   61.5599 H   0  0  0  0  0  0  0  0  0  0  0  0
  131.5892  130.7848   59.8814 H   0  0  0  0  0  0  0  0  0  0  0  0
  131.9397  131.4099   57.8737 H   0  0  0  0  0  0  0  0  0  0  0  0
  131.1927  130.6605   56.3831 H   0  0  0  0  0  0  0  0  0  0  0  0
  131.1423  133.6167   57.1548 H   0  0  0  0  0  0  0  0  0  0  0  0
  132.0888  132.8578   55.8246 H   0  0  0  0  0  0  0  0  0  0  0  0
  128.7918  133.6845   56.9985 H   0  0  0  0  0  0  0  0  0  0  0  0
  127.9868  132.9708   55.5547 H   0  0  0  0  0  0  0  0  0  0  0  0
  127.7885  131.5311   57.6051 H   0  0  0  0  0  0  0  0  0  0  0  0
  128.6785  130.7331   56.2206 H   0  0  0  0  0  0  0  0  0  0  0  0
  127.9628  129.3345   58.0419 H   0  0  0  0  0  0  0  0  0  0  0  0
  127.8432  127.5161   59.7148 H   0  0  0  0  0  0  0  0  0  0  0  0
  131.0860  124.2938   59.7258 H   0  0  0  0  0  0  0  0  0  0  0  0
  131.1031  122.4983   59.4556 H   0  0  0  0  0  0  0  0  0  0  0  0
  128.5910  121.7880   59.1840 H   0  0  0  0  0  0  0  0  0  0  0  0
  125.9754  123.8019   58.5354 H   0  0  0  0  0  0  0  0  0  0  0  0
  124.4951  123.0628   56.4243 H   0  0  0  0  0  0  0  0  0  0  0  0
  1  2  3  0
  2  3  1  0
  3  4  2  0
  4  5  1  0
  5  6  2  0
  6  7  1  0
  7  8  2  0
  8  9  1  0
  9 10  1  0
 10 11  1  0
 11 12  1  0
 12 13  1  0
 13 14  1  0
  8 15  1  0
 15 16  2  0
  4 17  1  0
 17 18  2  0
 18 19  1  0
 19 20  2  0
 20 21  1  0
 21 22  2  0
 22 23  1  0
 23 24  1  0
 24 25  1  0
 25 26  1  0
 26 27  1  0
 27 28  1  0
 22 29  1  0
 29 30  2  0
 18 31  1  0
 31 32  2  0
 32 33  1  0
 33 34  1  0
 34 35  1  0
 35 36  2  0
 35 37  1  0
 37 38  1  0
 38 39  1  0
 39 40  2  0
 40 41  1  0
 41 42  1  0
 32  3  1  0
 42 38  2  0
 16  5  1  0
 30 19  1  0
 14  9  1  0
 28 23  1  0
  6 43  1  0
  7 44  1  0
 10 45  1  0
 10 46  1  0
 11 47  1  0
 11 48  1  0
 13 49  1  0
 13 50  1  0
 14 51  1  0
 14 52  1  0
 15 53  1  0
 16 54  1  0
 17 55  1  0
 20 56  1  0
 21 57  1  0
 24 58  1  0
 24 59  1  0
 25 60  1  0
 25 61  1  0
 27 62  1  0
 27 63  1  0
 28 64  1  0
 28 65  1  0
 29 66  1  0
 30 67  1  0
 34 68  1  0
 34 69  1  0
 37 70  1  0
 39 71  1  0
 40 72  1  0
M  END
>  <Binding energies>  (1) 
[-11.17]

>  <Ligand effiencies>  (1) 
[-0.25976744186046513]

>  <Interactions>  (1) 
["V-B:TYR:539:CE2:9845, V-B:PRO:540:N:9853, V-B:PRO:540:CB:9854, V-B:TYR:539:CZ:9846, V-B:PRO:540:CA:9852, H-B:TYR:539:N:9839, V-B:TYR:539:C:9836, V-B:LEU:363:CD1:8157, V-B:ALA:541:CB:9861, V-B:TYR:539:CE1:9844, V-B:GLU:543:CD:9877, V-B:GLU:543:CG:9876, V-A:GLU:543:CD:4905, V-A:HIS:456:CE1:4066, H-B:TYR:539:OH:9847, V-B:GLU:543:CB:9875, H-A:TYR:484:OH:4344, V-B:PRO:540:CD:9856, V-A:PRO:540:CB:4882, V-A:TYR:539:C:4864, V-A:PRO:540:CA:4880, H-A:TYR:539:N:4867, V-A:PRO:540:N:4881, V-A:TYR:539:CD1:4870, V-A:ILE:538:CG2:4860, V-A:TYR:539:CZ:4874, V-B:TYR:539:CG:9841, V-B:TYR:539:CD2:9843, V-A:TYR:539:CD2:4871, V-A:TYR:539:CE2:4873, V-A:TYR:539:CG:4869, V-B:HIS:456:CD2:9036, V-A:GLU:543:C:4899, H-A:LYS:547:NZ:4948, V-B:LYS:547:CE:9919, V-B:HIS:456:CE1:9038, H-B:TYR:539:O:9837, V-A:TYR:539:CA:4866, V-A:PRO:540:CD:4884"]

$$$$
2b_Grossjean_2025
     RDKit          3D

 42 43  0  0  0  0  0  0  0  0999 V2000
  125.3370  122.3710   56.2770 C   0  0  0  0  0  0  0  0  0  0  0  0
  126.5480  121.6980   56.5900 O   0  0  0  0  0  0  0  0  0  0  0  0
  127.7200  122.3750   56.6860 C   0  0  0  0  0  0  0  0  0  0  0  0
  128.4600  122.5960   55.7210 O   0  0  0  0  0  0  0  0  0  0  0  0
  128.0310  122.8270   58.0840 C   0  0  0  0  0  0  0  0  0  0  0  0
  127.7960  122.0080   59.1980 C   0  0  0  0  0  0  0  0  0  0  0  0
  128.0950  122.4570   60.4810 C   0  0  0  0  0  0  0  0  0  0  0  0
  128.6370  123.7270   60.6780 C   0  0  0  0  0  0  0  0  0  0  0  0
  128.8950  124.0830   62.0150 N   0  0  0  0  0  0  0  0  0  0  0  0
  129.3780  125.2370   62.5230 C   0  0  0  0  0  0  0  0  0  0  0  0
  129.7190  126.2190   61.8610 O   0  0  0  0  0  0  0  0  0  0  0  0
  129.5130  125.2740   64.0480 C   0  0  0  0  0  0  0  0  0  0  0  0
  130.1700  123.7230   64.7470 S   0  0  0  0  0  0  0  0  0  0  0  0
  130.9520  122.7580   63.4620 C   0  0  0  0  0  0  0  0  0  0  0  0
  130.2120  121.7370   62.9590 N   0  0  0  0  0  0  0  0  0  0  0  0
  130.7430  120.9620   61.9870 C   0  0  0  0  0  0  0  0  0  0  0  0
  129.8580  119.8360   61.4880 C   0  0  0  0  0  0  0  0  0  0  0  0
  132.0190  121.1710   61.4730 C   0  0  0  0  0  0  0  0  0  0  0  0
  132.8000  122.2240   61.9730 C   0  0  0  0  0  0  0  0  0  0  0  0
  134.2080  122.4450   61.3890 C   0  0  0  0  0  0  0  0  0  0  0  0
  135.0470  121.5210   61.8590 F   0  0  0  0  0  0  0  0  0  0  0  0
  134.1720  122.3590   60.0580 F   0  0  0  0  0  0  0  0  0  0  0  0
  134.7140  123.6410   61.6990 F   0  0  0  0  0  0  0  0  0  0  0  0
  132.2580  123.0420   62.9970 C   0  0  0  0  0  0  0  0  0  0  0  0
  133.0310  124.1530   63.5610 C   0  0  0  0  0  0  0  0  0  0  0  0
  133.6420  125.0300   64.0050 N   0  0  0  0  0  0  0  0  0  0  0  0
  128.8680  124.5560   59.5700 C   0  0  0  0  0  0  0  0  0  0  0  0
  128.5680  124.1050   58.2880 C   0  0  0  0  0  0  0  0  0  0  0  0
  124.8246  122.6558   57.2078 H   0  0  0  0  0  0  0  0  0  0  0  0
  125.5605  123.2743   55.6904 H   0  0  0  0  0  0  0  0  0  0  0  0
  124.6880  121.7042   55.6904 H   0  0  0  0  0  0  0  0  0  0  0  0
  127.3720  121.0029   59.0566 H   0  0  0  0  0  0  0  0  0  0  0  0
  127.9024  121.8054   61.3461 H   0  0  0  0  0  0  0  0  0  0  0  0
  128.7340  123.3400   62.6790 H   0  0  0  0  0  0  0  0  0  0  0  0
  130.1924  126.0955   64.3193 H   0  0  0  0  0  0  0  0  0  0  0  0
  128.5045  125.4189   64.4627 H   0  0  0  0  0  0  0  0  0  0  0  0
  129.4332  119.2955   62.3467 H   0  0  0  0  0  0  0  0  0  0  0  0
  129.0433  120.2529   60.8777 H   0  0  0  0  0  0  0  0  0  0  0  0
  130.4556  119.1429   60.8777 H   0  0  0  0  0  0  0  0  0  0  0  0
  132.4122  120.5162   60.6813 H   0  0  0  0  0  0  0  0  0  0  0  0
  129.2864  125.5630   59.7146 H   0  0  0  0  0  0  0  0  0  0  0  0
  128.7548  124.7599   57.4242 H   0  0  0  0  0  0  0  0  0  0  0  0
  1  2  1  0
  2  3  1  0
  3  4  2  0
  3  5  1  0
  5  6  2  0
  6  7  1  0
  7  8  2  0
  8  9  1  0
  9 10  1  0
 10 11  2  0
 10 12  1  0
 12 13  1  0
 13 14  1  0
 14 15  2  0
 15 16  1  0
 16 17  1  0
 16 18  2  0
 18 19  1  0
 19 20  1  0
 20 21  1  0
 20 22  1  0
 20 23  1  0
 19 24  2  0
 24 25  1  0
 25 26  3  0
  8 27  1  0
 27 28  2  0
 28  5  1  0
 24 14  1  0
  1 29  1  0
  1 30  1  0
  1 31  1  0
  6 32  1  0
  7 33  1  0
  9 34  1  0
 12 35  1  0
 12 36  1  0
 17 37  1  0
 17 38  1  0
 17 39  1  0
 18 40  1  0
 27 41  1  0
 28 42  1  0
M  END
>  <Binding energies>  (1) 
[-6.74]

>  <Ligand effiencies>  (1) 
[-0.23241379310344829]

>  <Interactions>  (1) 
["V-B:TYR:539:CE2:9845, V-B:PRO:540:N:9853, V-B:PRO:540:CB:9854, V-B:TYR:539:CZ:9846, V-A:LEU:475:CD1:4254, V-B:PRO:540:CA:9852, H-B:TYR:539:N:9839, V-B:TYR:539:CD1:9842, V-B:PRO:540:C:9850, V-B:TYR:539:C:9836, V-B:LEU:363:CD1:8157, V-B:ALA:541:CB:9861, V-B:ILE:538:CG2:9832, V-B:TYR:539:CE1:9844, V-B:GLU:543:CD:9877, V-B:ILE:538:CB:9831, V-B:GLU:543:CG:9876, H-B:GLU:543:OE2:9879, V-A:GLY:454:CA:4045, H-A:ARG:545:NH2:4925, H-A:ARG:545:NH1:4924, H-A:ARG:545:NE:4921, V-A:ASP:366:CG:3209, H-A:GLY:454:N:4046, H-A:TYR:484:OH:4344, V-B:PRO:540:CD:9856, V-B:TYR:539:CG:9841, V-B:TYR:539:CD2:9843, V-A:ILE:369:CB:3232, V-A:ILE:369:CG2:3233, V-A:GLY:453:C:4038, V-A:GLY:453:CA:4040, V-A:ILE:369:CG1:3234, V-B:PRO:540:CG:9855, V-A:PRO:482:CG:4323, V-A:ILE:369:CD1:3235"]

$$$$
2c_Ghoteimi_2023
     RDKit          3D

 72 77  0  0  0  0  0  0  0  0999 V2000
  130.6800  122.4790   64.8750 N   0  0  0  0  0  0  0  0  0  0  0  0
  130.6500  123.3700   64.1380 C   0  0  0  0  0  0  0  0  0  0  0  0
  130.6120  124.5040   63.2090 C   0  0  0  0  0  0  0  0  0  0  0  0
  130.4070  125.8220   63.6870 C   0  0  0  0  0  0  0  0  0  0  0  0
  130.2140  126.1630   65.1280 C   0  0  0  0  0  0  0  0  0  0  0  0
  131.1920  126.8840   65.8170 C   0  0  0  0  0  0  0  0  0  0  0  0
  131.0170  127.2110   67.1590 C   0  0  0  0  0  0  0  0  0  0  0  0
  129.8660  126.8120   67.8550 C   0  0  0  0  0  0  0  0  0  0  0  0
  129.6610  127.1460   69.1960 N   0  0  0  0  0  0  0  0  0  0  0  0
  128.8410  126.2580   70.0440 C   0  0  0  0  0  0  0  0  0  0  0  0
  128.3800  126.9250   71.3580 C   0  0  0  0  0  0  0  0  0  0  0  0
  129.5030  127.4150   72.0750 O   0  0  0  0  0  0  0  0  0  0  0  0
  130.2240  128.3800   71.3240 C   0  0  0  0  0  0  0  0  0  0  0  0
  130.7320  127.7520   70.0100 C   0  0  0  0  0  0  0  0  0  0  0  0
  128.8910  126.0850   67.1570 C   0  0  0  0  0  0  0  0  0  0  0  0
  129.0650  125.7610   65.8140 C   0  0  0  0  0  0  0  0  0  0  0  0
  130.3830  126.8710   62.7600 C   0  0  0  0  0  0  0  0  0  0  0  0
  130.5840  126.6190   61.3990 C   0  0  0  0  0  0  0  0  0  0  0  0
  130.5840  127.7060   60.3720 C   0  0  0  0  0  0  0  0  0  0  0  0
  130.5240  127.4000   59.0090 C   0  0  0  0  0  0  0  0  0  0  0  0
  130.5190  128.4080   58.0480 C   0  0  0  0  0  0  0  0  0  0  0  0
  130.5850  129.7620   58.4160 C   0  0  0  0  0  0  0  0  0  0  0  0
  130.5550  130.7870   57.4650 N   0  0  0  0  0  0  0  0  0  0  0  0
  129.3340  131.6030   57.3000 C   0  0  0  0  0  0  0  0  0  0  0  0
  129.3030  132.4140   55.9880 C   0  0  0  0  0  0  0  0  0  0  0  0
  130.4650  133.2190   55.8870 O   0  0  0  0  0  0  0  0  0  0  0  0
  131.6450  132.4320   55.8800 C   0  0  0  0  0  0  0  0  0  0  0  0
  131.7460  131.6160   57.1870 C   0  0  0  0  0  0  0  0  0  0  0  0
  130.6320  130.0630   59.7840 C   0  0  0  0  0  0  0  0  0  0  0  0
  130.6360  129.0550   60.7440 C   0  0  0  0  0  0  0  0  0  0  0  0
  130.7830  125.3560   60.9440 N   0  0  0  0  0  0  0  0  0  0  0  0
  130.7790  124.3210   61.8180 C   0  0  0  0  0  0  0  0  0  0  0  0
  131.0430  122.7390   61.0480 S   0  0  0  0  0  0  0  0  0  0  0  0
  129.4090  122.0410   60.6630 C   0  0  0  0  0  0  0  0  0  0  0  0
  128.7720  122.7090   59.4430 C   0  0  0  0  0  0  0  0  0  0  0  0
  129.1700  123.8190   59.0860 O   0  0  0  0  0  0  0  0  0  0  0  0
  127.7910  122.0050   58.8390 N   0  0  0  0  0  0  0  0  0  0  0  0
  127.0730  122.3810   57.7130 C   0  0  0  0  0  0  0  0  0  0  0  0
  127.2640  122.0000   56.4690 N   0  0  0  0  0  0  0  0  0  0  0  0
  126.3880  122.5520   55.6530 C   0  0  0  0  0  0  0  0  0  0  0  0
  125.4560  123.4050   56.2360 C   0  0  0  0  0  0  0  0  0  0  0  0
  125.7520  123.4810   57.9480 S   0  0  0  0  0  0  0  0  0  0  0  0
  132.1084  127.1962   65.2948 H   0  0  0  0  0  0  0  0  0  0  0  0
  131.7925  127.7906   67.6812 H   0  0  0  0  0  0  0  0  0  0  0  0
  127.9499  125.9559   69.4742 H   0  0  0  0  0  0  0  0  0  0  0  0
  129.4687  125.3972   70.3178 H   0  0  0  0  0  0  0  0  0  0  0  0
  127.7042  127.7609   71.1244 H   0  0  0  0  0  0  0  0  0  0  0  0
  127.8548  126.1811   71.9751 H   0  0  0  0  0  0  0  0  0  0  0  0
  129.5636  129.2283   71.0911 H   0  0  0  0  0  0  0  0  0  0  0  0
  131.0842  128.7287   71.9144 H   0  0  0  0  0  0  0  0  0  0  0  0
  131.2202  128.5375   69.4144 H   0  0  0  0  0  0  0  0  0  0  0  0
  131.4269  126.9446   70.2842 H   0  0  0  0  0  0  0  0  0  0  0  0
  127.9760  125.7662   67.6777 H   0  0  0  0  0  0  0  0  0  0  0  0
  128.2907  125.1832   65.2882 H   0  0  0  0  0  0  0  0  0  0  0  0
  130.2048  127.9004   63.1044 H   0  0  0  0  0  0  0  0  0  0  0  0
  130.4801  126.3478   58.6911 H   0  0  0  0  0  0  0  0  0  0  0  0
  130.4624  128.1393   56.9828 H   0  0  0  0  0  0  0  0  0  0  0  0
  128.4629  130.9314   57.3138 H   0  0  0  0  0  0  0  0  0  0  0  0
  129.3178  132.3283   58.1268 H   0  0  0  0  0  0  0  0  0  0  0  0
  129.2637  131.7225   55.1334 H   0  0  0  0  0  0  0  0  0  0  0  0
  128.4141  133.0619   55.9855 H   0  0  0  0  0  0  0  0  0  0  0  0
  131.6182  131.7436   55.0224 H   0  0  0  0  0  0  0  0  0  0  0  0
  132.5194  133.0947   55.8007 H   0  0  0  0  0  0  0  0  0  0  0  0
  132.6210  130.9533   57.1155 H   0  0  0  0  0  0  0  0  0  0  0  0
  131.8326  132.3396   58.0110 H   0  0  0  0  0  0  0  0  0  0  0  0
  130.6663  131.1146   60.1048 H   0  0  0  0  0  0  0  0  0  0  0  0
  130.6807  129.3220   61.8102 H   0  0  0  0  0  0  0  0  0  0  0  0
  129.5212  120.9656   60.4606 H   0  0  0  0  0  0  0  0  0  0  0  0
  128.7525  122.2175   61.5278 H   0  0  0  0  0  0  0  0  0  0  0  0
  127.5610  121.0990   59.2230 H   0  0  0  0  0  0  0  0  0  0  0  0
  126.3935  122.3496   54.5718 H   0  0  0  0  0  0  0  0  0  0  0  0
  124.6606  123.9441   55.7006 H   0  0  0  0  0  0  0  0  0  0  0  0
  1  2  3  0
  2  3  1  0
  3  4  2  0
  4  5  1  0
  5  6  2  0
  6  7  1  0
  7  8  2  0
  8  9  1  0
  9 10  1  0
 10 11  1  0
 11 12  1  0
 12 13  1  0
 13 14  1  0
  8 15  1  0
 15 16  2  0
  4 17  1  0
 17 18  2  0
 18 19  1  0
 19 20  2  0
 20 21  1  0
 21 22  2  0
 22 23  1  0
 23 24  1  0
 24 25  1  0
 25 26  1  0
 26 27  1  0
 27 28  1  0
 22 29  1  0
 29 30  2  0
 18 31  1  0
 31 32  2  0
 32 33  1  0
 33 34  1  0
 34 35  1  0
 35 36  2  0
 35 37  1  0
 37 38  1  0
 38 39  2  0
 39 40  1  0
 40 41  2  0
 41 42  1  0
 32  3  1  0
 42 38  1  0
 16  5  1  0
 30 19  1  0
 14  9  1  0
 28 23  1  0
  6 43  1  0
  7 44  1  0
 10 45  1  0
 10 46  1  0
 11 47  1  0
 11 48  1  0
 13 49  1  0
 13 50  1  0
 14 51  1  0
 14 52  1  0
 15 53  1  0
 16 54  1  0
 17 55  1  0
 20 56  1  0
 21 57  1  0
 24 58  1  0
 24 59  1  0
 25 60  1  0
 25 61  1  0
 27 62  1  0
 27 63  1  0
 28 64  1  0
 28 65  1  0
 29 66  1  0
 30 67  1  0
 34 68  1  0
 34 69  1  0
 37 70  1  0
 40 71  1  0
 41 72  1  0
M  END
>  <Binding energies>  (1) 
[-11.42]

>  <Ligand effiencies>  (1) 
[-0.26558139534883723]

>  <Interactions>  (1) 
["V-B:TYR:539:CE2:9845, V-B:PRO:540:N:9853, V-B:PRO:540:CB:9854, V-B:TYR:539:CZ:9846, V-B:PRO:540:CA:9852, H-B:TYR:539:N:9839, V-B:ILE:538:CA:9829, V-B:TYR:539:C:9836, V-B:LEU:363:CD1:8157, V-B:ALA:541:CB:9861, V-B:ILE:538:CG2:9832, V-B:GLU:543:CD:9877, V-B:ILE:538:CB:9831, V-B:GLU:543:CG:9876, V-A:GLU:543:CD:4905, V-A:HIS:456:CE1:4066, V-A:ASP:366:CG:3209, V-B:GLU:543:CB:9875, H-A:TYR:484:OH:4344, V-B:PRO:540:CD:9856, V-A:PRO:540:CB:4882, V-A:TYR:539:C:4864, V-A:PRO:540:CA:4880, H-A:TYR:539:N:4867, V-A:LEU:363:CD1:3185, V-A:PRO:540:N:4881, V-A:ILE:538:CG2:4860, V-A:ILE:538:CD1:4862, V-B:TYR:539:CD2:9843, V-B:HIS:456:CD2:9036, V-A:GLU:543:CB:4903, V-A:GLU:543:C:4899, H-A:LYS:547:NZ:4948, V-A:GLY:544:C:4909, H-B:TYR:539:O:9837, V-A:PRO:540:CD:4884, V-A:HIS:456:CD2:4064"]

$$$$
2c_Grossjean_2025
     RDKit          3D

 40 41  0  0  0  0  0  0  0  0999 V2000
  132.6200  131.3810   61.4360 C   0  0  0  0  0  0  0  0  0  0  0  0
  133.3070  131.2480   60.1950 O   0  0  0  0  0  0  0  0  0  0  0  0
  132.5810  131.2570   59.0200 C   0  0  0  0  0  0  0  0  0  0  0  0
  131.1940  131.3280   59.1440 C   0  0  0  0  0  0  0  0  0  0  0  0
  130.3780  131.3400   58.0160 C   0  0  0  0  0  0  0  0  0  0  0  0
  130.9510  131.2710   56.7380 C   0  0  0  0  0  0  0  0  0  0  0  0
  130.2100  131.2960   55.5420 N   0  0  0  0  0  0  0  0  0  0  0  0
  129.3400  132.2330   55.1090 C   0  0  0  0  0  0  0  0  0  0  0  0
  129.0070  133.2300   55.7520 O   0  0  0  0  0  0  0  0  0  0  0  0
  128.7290  131.9590   53.7260 C   0  0  0  0  0  0  0  0  0  0  0  0
  127.4870  130.6200   53.6680 S   0  0  0  0  0  0  0  0  0  0  0  0
  126.9200  130.2620   55.3260 C   0  0  0  0  0  0  0  0  0  0  0  0
  125.7570  130.8610   55.6910 N   0  0  0  0  0  0  0  0  0  0  0  0
  125.2730  130.6430   56.9330 C   0  0  0  0  0  0  0  0  0  0  0  0
  123.9800  131.3600   57.2710 C   0  0  0  0  0  0  0  0  0  0  0  0
  125.9150  129.8200   57.8560 C   0  0  0  0  0  0  0  0  0  0  0  0
  127.1130  129.1860   57.4980 C   0  0  0  0  0  0  0  0  0  0  0  0
  127.8100  128.2770   58.5300 C   0  0  0  0  0  0  0  0  0  0  0  0
  127.8760  127.0280   58.0660 F   0  0  0  0  0  0  0  0  0  0  0  0
  129.0460  128.7170   58.7670 F   0  0  0  0  0  0  0  0  0  0  0  0
  127.1660  128.2360   59.6990 F   0  0  0  0  0  0  0  0  0  0  0  0
  127.6350  129.4090   56.1990 C   0  0  0  0  0  0  0  0  0  0  0  0
  128.8860  128.7730   55.7710 C   0  0  0  0  0  0  0  0  0  0  0  0
  129.8730  128.2710   55.4350 N   0  0  0  0  0  0  0  0  0  0  0  0
  132.3390  131.2150   56.6070 C   0  0  0  0  0  0  0  0  0  0  0  0
  133.1510  131.2030   57.7370 C   0  0  0  0  0  0  0  0  0  0  0  0
  133.3301  131.2435   62.2648 H   0  0  0  0  0  0  0  0  0  0  0  0
  132.1704  132.3829   61.5007 H   0  0  0  0  0  0  0  0  0  0  0  0
  131.8290  130.6193   61.5007 H   0  0  0  0  0  0  0  0  0  0  0  0
  130.7393  131.3751   60.1445 H   0  0  0  0  0  0  0  0  0  0  0  0
  129.2855  131.4035   58.1271 H   0  0  0  0  0  0  0  0  0  0  0  0
  130.3050  130.4690   54.9700 H   0  0  0  0  0  0  0  0  0  0  0  0
  128.2464  132.8846   53.3790 H   0  0  0  0  0  0  0  0  0  0  0  0
  129.5613  131.6277   53.0876 H   0  0  0  0  0  0  0  0  0  0  0  0
  123.8695  131.4213   58.3637 H   0  0  0  0  0  0  0  0  0  0  0  0
  124.0019  132.3749   56.8472 H   0  0  0  0  0  0  0  0  0  0  0  0
  123.1308  130.8039   56.8472 H   0  0  0  0  0  0  0  0  0  0  0  0
  125.4854  129.6690   58.8573 H   0  0  0  0  0  0  0  0  0  0  0  0
  132.7935  131.1802   55.6059 H   0  0  0  0  0  0  0  0  0  0  0  0
  134.2441  131.1510   57.6252 H   0  0  0  0  0  0  0  0  0  0  0  0
  1  2  1  0
  2  3  1  0
  3  4  2  0
  4  5  1  0
  5  6  2  0
  6  7  1  0
  7  8  1  0
  8  9  2  0
  8 10  1  0
 10 11  1  0
 11 12  1  0
 12 13  2  0
 13 14  1  0
 14 15  1  0
 14 16  2  0
 16 17  1  0
 17 18  1  0
 18 19  1  0
 18 20  1  0
 18 21  1  0
 17 22  2  0
 22 23  1  0
 23 24  3  0
  6 25  1  0
 25 26  2  0
 26  3  1  0
 22 12  1  0
  1 27  1  0
  1 28  1  0
  1 29  1  0
  4 30  1  0
  5 31  1  0
  7 32  1  0
 10 33  1  0
 10 34  1  0
 15 35  1  0
 15 36  1  0
 15 37  1  0
 16 38  1  0
 25 39  1  0
 26 40  1  0
M  END
>  <Binding energies>  (1) 
[-6.81]

>  <Ligand effiencies>  (1) 
[-0.2522222222222222]

>  <Interactions>  (1) 
["V-B:MET:535:CE:9804, V-A:GLU:543:CD:4905, H-A:TYR:531:OH:4792, H-B:TYR:531:OH:9764, H-A:TYR:539:OH:4875, V-A:PRO:540:CB:4882, V-A:PRO:540:CA:4880, H-A:TYR:539:N:4867, V-A:LEU:363:CD1:3185, H-B:LYS:534:NZ:9792, V-A:TYR:531:CZ:4791, V-A:ILE:538:CA:4857, V-A:ILE:538:CD1:4862, V-A:TYR:539:CZ:4874, V-B:ASP:366:CB:8180, V-A:LEU:363:CA:3181, V-A:LEU:363:CB:3183, V-A:TYR:539:CE2:4873, V-A:ASN:362:CB:3172, V-B:ILE:369:CG2:8205, V-B:ASP:366:CA:8178, H-A:LEU:363:N:3182, V-B:ASP:366:C:8176"]

$$$$
2d_Ghoteimi_2023
     RDKit          3D

 68 72  0  0  0  0  0  0  0  0999 V2000
  124.6640  130.5530   62.5920 C   0  0  0  0  0  0  0  0  0  0  0  0
  123.8840  130.5650   63.7780 O   0  0  0  0  0  0  0  0  0  0  0  0
  124.2410  129.8150   64.8410 C   0  0  0  0  0  0  0  0  0  0  0  0
  123.5830  129.6800   65.8760 O   0  0  0  0  0  0  0  0  0  0  0  0
  125.5940  129.1240   64.6080 C   0  0  0  0  0  0  0  0  0  0  0  0
  126.8920  129.8360   65.6770 S   0  0  0  0  0  0  0  0  0  0  0  0
  128.0540  128.5470   66.0790 C   0  0  0  0  0  0  0  0  0  0  0  0
  128.1800  128.3370   67.4120 N   0  0  0  0  0  0  0  0  0  0  0  0
  129.0380  127.3880   67.8630 C   0  0  0  0  0  0  0  0  0  0  0  0
  129.1370  127.2260   69.3460 C   0  0  0  0  0  0  0  0  0  0  0  0
  128.1610  126.5130   70.0510 C   0  0  0  0  0  0  0  0  0  0  0  0
  128.2460  126.3580   71.4320 C   0  0  0  0  0  0  0  0  0  0  0  0
  129.3180  126.9010   72.1570 C   0  0  0  0  0  0  0  0  0  0  0  0
  129.4090  126.7700   73.5470 N   0  0  0  0  0  0  0  0  0  0  0  0
  128.3410  127.2590   74.4410 C   0  0  0  0  0  0  0  0  0  0  0  0
  128.7730  127.3700   75.9180 C   0  0  0  0  0  0  0  0  0  0  0  0
  129.2770  126.1230   76.3690 O   0  0  0  0  0  0  0  0  0  0  0  0
  130.4070  125.7140   75.6170 C   0  0  0  0  0  0  0  0  0  0  0  0
  130.0260  125.5600   74.1290 C   0  0  0  0  0  0  0  0  0  0  0  0
  130.2860  127.6260   71.4480 C   0  0  0  0  0  0  0  0  0  0  0  0
  130.1990  127.7830   70.0680 C   0  0  0  0  0  0  0  0  0  0  0  0
  129.7930  126.6180   66.9750 C   0  0  0  0  0  0  0  0  0  0  0  0
  129.6570  126.7910   65.5920 C   0  0  0  0  0  0  0  0  0  0  0  0
  130.4750  125.9130   64.7030 C   0  0  0  0  0  0  0  0  0  0  0  0
  129.8590  124.9250   63.9330 C   0  0  0  0  0  0  0  0  0  0  0  0
  130.6100  124.1100   63.0910 C   0  0  0  0  0  0  0  0  0  0  0  0
  132.0040  124.2590   62.9980 C   0  0  0  0  0  0  0  0  0  0  0  0
  132.7770  123.4610   62.1500 N   0  0  0  0  0  0  0  0  0  0  0  0
  132.7760  121.9890   62.2670 C   0  0  0  0  0  0  0  0  0  0  0  0
  133.3880  121.2750   61.0430 C   0  0  0  0  0  0  0  0  0  0  0  0
  134.6980  121.7640   60.8010 O   0  0  0  0  0  0  0  0  0  0  0  0
  134.6980  123.1590   60.5420 C   0  0  0  0  0  0  0  0  0  0  0  0
  134.1220  123.9220   61.7550 C   0  0  0  0  0  0  0  0  0  0  0  0
  132.6110  125.2660   63.7610 C   0  0  0  0  0  0  0  0  0  0  0  0
  131.8590  126.0810   64.6020 C   0  0  0  0  0  0  0  0  0  0  0  0
  128.7580  127.7810   65.1220 C   0  0  0  0  0  0  0  0  0  0  0  0
  128.5660  127.9870   63.6830 C   0  0  0  0  0  0  0  0  0  0  0  0
  128.4180  128.1470   62.5460 N   0  0  0  0  0  0  0  0  0  0  0  0
  125.7318  130.5366   62.8556 H   0  0  0  0  0  0  0  0  0  0  0  0
  124.4185  129.6585   62.0007 H   0  0  0  0  0  0  0  0  0  0  0  0
  124.4461  131.4546   62.0007 H   0  0  0  0  0  0  0  0  0  0  0  0
  125.4927  128.0519   64.8323 H   0  0  0  0  0  0  0  0  0  0  0  0
  125.8859  129.2748   63.5582 H   0  0  0  0  0  0  0  0  0  0  0  0
  127.3147  126.0687   69.5065 H   0  0  0  0  0  0  0  0  0  0  0  0
  127.4603  125.8010   71.9634 H   0  0  0  0  0  0  0  0  0  0  0  0
  128.0269  128.2548   74.0950 H   0  0  0  0  0  0  0  0  0  0  0  0
  127.5238  126.5238   74.3988 H   0  0  0  0  0  0  0  0  0  0  0  0
  129.5571  128.1358   76.0121 H   0  0  0  0  0  0  0  0  0  0  0  0
  127.9030  127.6513   76.5295 H   0  0  0  0  0  0  0  0  0  0  0  0
  131.2009  126.4694   75.7131 H   0  0  0  0  0  0  0  0  0  0  0  0
  130.7632  124.7462   75.9996 H   0  0  0  0  0  0  0  0  0  0  0  0
  130.9375  125.3263   73.5592 H   0  0  0  0  0  0  0  0  0  0  0  0
  129.2773  124.7563   74.0697 H   0  0  0  0  0  0  0  0  0  0  0  0
  131.1285  128.0784   71.9916 H   0  0  0  0  0  0  0  0  0  0  0  0
  130.9758  128.3529   69.5371 H   0  0  0  0  0  0  0  0  0  0  0  0
  130.4994  125.8704   67.3649 H   0  0  0  0  0  0  0  0  0  0  0  0
  128.7690  124.7892   63.9923 H   0  0  0  0  0  0  0  0  0  0  0  0
  130.1054  123.3389   62.4903 H   0  0  0  0  0  0  0  0  0  0  0  0
  133.3559  121.7100   63.1591 H   0  0  0  0  0  0  0  0  0  0  0  0
  131.7255  121.6701   62.3366 H   0  0  0  0  0  0  0  0  0  0  0  0
  133.4330  120.1932   61.2371 H   0  0  0  0  0  0  0  0  0  0  0  0
  132.7610  121.4697   60.1604 H   0  0  0  0  0  0  0  0  0  0  0  0
  135.7289  123.4950   60.3565 H   0  0  0  0  0  0  0  0  0  0  0  0
  134.0745  123.3620   59.6588 H   0  0  0  0  0  0  0  0  0  0  0  0
  134.8024  123.7854   62.6084 H   0  0  0  0  0  0  0  0  0  0  0  0
  134.0311  124.9783   61.4620 H   0  0  0  0  0  0  0  0  0  0  0  0
  133.6989  125.4145   63.6940 H   0  0  0  0  0  0  0  0  0  0  0  0
  132.3579  126.8638   65.1921 H   0  0  0  0  0  0  0  0  0  0  0  0
  1  2  1  0
  2  3  1  0
  3  4  2  0
  3  5  1  0
  5  6  1  0
  6  7  1  0
  7  8  2  0
  8  9  1  0
  9 10  1  0
 10 11  2  0
 11 12  1  0
 12 13  2  0
 13 14  1  0
 14 15  1  0
 15 16  1  0
 16 17  1  0
 17 18  1  0
 18 19  1  0
 13 20  1  0
 20 21  2  0
  9 22  2  0
 22 23  1  0
 23 24  1  0
 24 25  2  0
 25 26  1  0
 26 27  2  0
 27 28  1  0
 28 29  1  0
 29 30  1  0
 30 31  1  0
 31 32  1  0
 32 33  1  0
 27 34  1  0
 34 35  2  0
 23 36  2  0
 36 37  1  0
 37 38  3  0
 36  7  1  0
 21 10  1  0
 35 24  1  0
 19 14  1  0
 33 28  1  0
  1 39  1  0
  1 40  1  0
  1 41  1  0
  5 42  1  0
  5 43  1  0
 11 44  1  0
 12 45  1  0
 15 46  1  0
 15 47  1  0
 16 48  1  0
 16 49  1  0
 18 50  1  0
 18 51  1  0
 19 52  1  0
 19 53  1  0
 20 54  1  0
 21 55  1  0
 22 56  1  0
 25 57  1  0
 26 58  1  0
 29 59  1  0
 29 60  1  0
 30 61  1  0
 30 62  1  0
 32 63  1  0
 32 64  1  0
 33 65  1  0
 33 66  1  0
 34 67  1  0
 35 68  1  0
M  END
>  <Binding energies>  (1) 
[-9.47]

>  <Ligand effiencies>  (1) 
[-0.2492105263157895]

>  <Interactions>  (1) 
["V-B:TYR:539:CE2:9845, V-A:LEU:475:CD1:4254, V-B:GLU:543:CD:9877, V-B:GLU:543:CG:9876, V-A:ARG:545:CZ:4923, V-A:GLY:454:CA:4045, V-A:GLU:543:CD:4905, V-A:HIS:456:CE1:4066, V-A:ASP:366:CG:3209, V-B:ASP:366:CG:8181, V-A:LYS:547:CE:4947, V-B:HIS:456:CD2:9036, V-A:ILE:369:CB:3232, V-A:ILE:369:CG2:3233, V-B:LYS:547:CE:9919, V-B:HIS:456:CE1:9038, V-A:GLY:453:C:4038, V-A:GLY:453:CA:4040, V-B:GLY:544:C:9881, V-A:ILE:369:CG1:3234, V-B:LYS:547:CD:9918, V-B:ARG:545:CZ:9895, V-A:ASP:366:CA:3206, V-A:HIS:456:CD2:4064, H-B:GLY:454:N:9018, H-B:TYR:484:OH:9316, H-B:ARG:545:NE:9893"]

$$$$
2d_Grossjean_2025
     RDKit          3D

 36 37  0  0  0  0  0  0  0  0999 V2000
  124.2120  131.3230   57.2910 C   0  0  0  0  0  0  0  0  0  0  0  0
  125.4700  130.5730   56.8940 C   0  0  0  0  0  0  0  0  0  0  0  0
  126.0510  129.6270   57.7350 C   0  0  0  0  0  0  0  0  0  0  0  0
  127.2110  128.9560   57.3200 C   0  0  0  0  0  0  0  0  0  0  0  0
  127.8340  127.9060   58.2600 C   0  0  0  0  0  0  0  0  0  0  0  0
  127.8030  126.7030   57.6840 F   0  0  0  0  0  0  0  0  0  0  0  0
  129.1030  128.2240   58.5250 F   0  0  0  0  0  0  0  0  0  0  0  0
  127.1930  127.8100   59.4260 F   0  0  0  0  0  0  0  0  0  0  0  0
  127.7610  129.2730   56.0520 C   0  0  0  0  0  0  0  0  0  0  0  0
  128.9450  128.5680   55.5540 C   0  0  0  0  0  0  0  0  0  0  0  0
  129.8790  128.0090   55.1600 N   0  0  0  0  0  0  0  0  0  0  0  0
  127.1170  130.2660   55.2760 C   0  0  0  0  0  0  0  0  0  0  0  0
  127.6890  130.8070   53.6770 S   0  0  0  0  0  0  0  0  0  0  0  0
  128.7010  132.3080   53.8950 C   0  0  0  0  0  0  0  0  0  0  0  0
  129.3700  132.3850   55.2710 C   0  0  0  0  0  0  0  0  0  0  0  0
  129.0010  133.2500   56.0670 O   0  0  0  0  0  0  0  0  0  0  0  0
  130.3570  131.4920   55.4910 N   0  0  0  0  0  0  0  0  0  0  0  0
  131.1490  131.3080   56.6400 C   0  0  0  0  0  0  0  0  0  0  0  0
  130.4570  131.1520   57.8430 C   0  0  0  0  0  0  0  0  0  0  0  0
  131.1520  130.9700   59.0350 C   0  0  0  0  0  0  0  0  0  0  0  0
  132.5460  130.9550   59.0250 C   0  0  0  0  0  0  0  0  0  0  0  0
  133.2470  131.1230   57.8350 C   0  0  0  0  0  0  0  0  0  0  0  0
  132.5540  131.3040   56.6410 C   0  0  0  0  0  0  0  0  0  0  0  0
  125.9840  130.8890   55.6830 N   0  0  0  0  0  0  0  0  0  0  0  0
  124.1411  131.3653   58.3879 H   0  0  0  0  0  0  0  0  0  0  0  0
  124.2514  132.3451   56.8864 H   0  0  0  0  0  0  0  0  0  0  0  0
  123.3316  130.8022   56.8864 H   0  0  0  0  0  0  0  0  0  0  0  0
  125.6042  129.4079   58.7160 H   0  0  0  0  0  0  0  0  0  0  0  0
  129.4848  132.3173   53.1233 H   0  0  0  0  0  0  0  0  0  0  0  0
  128.0281  133.1738   53.8077 H   0  0  0  0  0  0  0  0  0  0  0  0
  130.6100  130.9030   54.7110 H   0  0  0  0  0  0  0  0  0  0  0  0
  129.3572  131.1731   57.8485 H   0  0  0  0  0  0  0  0  0  0  0  0
  130.6044  130.8387   59.9799 H   0  0  0  0  0  0  0  0  0  0  0  0
  133.0965  130.8091   59.9661 H   0  0  0  0  0  0  0  0  0  0  0  0
  134.3470  131.1128   57.8374 H   0  0  0  0  0  0  0  0  0  0  0  0
  133.1058  131.4437   55.6997 H   0  0  0  0  0  0  0  0  0  0  0  0
  1  2  1  0
  2  3  2  0
  3  4  1  0
  4  5  1  0
  5  6  1  0
  5  7  1  0
  5  8  1  0
  4  9  2  0
  9 10  1  0
 10 11  3  0
  9 12  1  0
 12 13  1  0
 13 14  1  0
 14 15  1  0
 15 16  2  0
 15 17  1  0
 17 18  1  0
 18 19  2  0
 19 20  1  0
 20 21  2  0
 21 22  1  0
 22 23  2  0
 12 24  2  0
 24  2  1  0
 23 18  1  0
  1 25  1  0
  1 26  1  0
  1 27  1  0
  3 28  1  0
 14 29  1  0
 14 30  1  0
 17 31  1  0
 19 32  1  0
 20 33  1  0
 21 34  1  0
 22 35  1  0
 23 36  1  0
M  END
>  <Binding energies>  (1) 
[-6.88]

>  <Ligand effiencies>  (1) 
[-0.2752]

>  <Interactions>  (1) 
["V-B:MET:535:CE:9804, H-A:TYR:531:OH:4792, H-B:TYR:531:OH:9764, H-A:TYR:539:OH:4875, V-A:PRO:540:CB:4882, V-A:TYR:539:CE1:4872, V-A:PRO:540:CA:4880, H-A:TYR:539:N:4867, V-A:LEU:363:CD1:3185, H-B:LYS:534:NZ:9792, V-A:TYR:531:CZ:4791, V-A:ILE:538:CA:4857, V-A:ILE:538:CD1:4862, V-A:TYR:539:CZ:4874, V-B:ASP:366:CB:8180, V-A:LEU:363:CA:3181, V-A:LEU:363:CB:3183, V-A:TYR:539:CE2:4873, V-B:ILE:369:CG2:8205, V-B:ASP:366:C:8176"]

$$$$
2e_Grossjean_2025
     RDKit          3D

 38 39  0  0  0  0  0  0  0  0999 V2000
  130.6740  131.4340   60.3910 C   0  0  0  0  0  0  0  0  0  0  0  0
  131.3940  131.3240   59.0610 C   0  0  0  0  0  0  0  0  0  0  0  0
  132.7590  131.0320   58.9890 C   0  0  0  0  0  0  0  0  0  0  0  0
  133.3520  130.9350   57.7300 C   0  0  0  0  0  0  0  0  0  0  0  0
  132.5760  131.1310   56.5840 C   0  0  0  0  0  0  0  0  0  0  0  0
  131.2160  131.4310   56.7290 C   0  0  0  0  0  0  0  0  0  0  0  0
  130.4740  131.5750   55.5440 N   0  0  0  0  0  0  0  0  0  0  0  0
  129.4520  132.4250   55.2990 C   0  0  0  0  0  0  0  0  0  0  0  0
  129.0460  133.2860   56.0820 O   0  0  0  0  0  0  0  0  0  0  0  0
  128.7420  132.2450   53.9540 C   0  0  0  0  0  0  0  0  0  0  0  0
  128.2950  130.5060   53.6450 S   0  0  0  0  0  0  0  0  0  0  0  0
  127.5430  129.9340   55.1520 C   0  0  0  0  0  0  0  0  0  0  0  0
  126.4520  130.6380   55.5420 N   0  0  0  0  0  0  0  0  0  0  0  0
  125.8450  130.2980   56.7010 C   0  0  0  0  0  0  0  0  0  0  0  0
  124.6310  131.1250   57.0770 C   0  0  0  0  0  0  0  0  0  0  0  0
  126.2990  129.2590   57.5120 C   0  0  0  0  0  0  0  0  0  0  0  0
  127.4320  128.5270   57.1280 C   0  0  0  0  0  0  0  0  0  0  0  0
  127.9340  127.3960   58.0450 C   0  0  0  0  0  0  0  0  0  0  0  0
  127.1740  127.3210   59.1380 F   0  0  0  0  0  0  0  0  0  0  0  0
  127.8830  126.2300   57.4010 F   0  0  0  0  0  0  0  0  0  0  0  0
  129.1950  127.5800   58.4460 F   0  0  0  0  0  0  0  0  0  0  0  0
  128.0760  128.8680   55.9130 C   0  0  0  0  0  0  0  0  0  0  0  0
  129.2820  128.1610   55.4700 C   0  0  0  0  0  0  0  0  0  0  0  0
  130.2350  127.6030   55.1210 N   0  0  0  0  0  0  0  0  0  0  0  0
  130.6280  131.5190   57.9570 N   0  0  0  0  0  0  0  0  0  0  0  0
  131.3991  131.3232   61.2107 H   0  0  0  0  0  0  0  0  0  0  0  0
  130.1859  132.4171   60.4635 H   0  0  0  0  0  0  0  0  0  0  0  0
  129.9147  130.6414   60.4635 H   0  0  0  0  0  0  0  0  0  0  0  0
  133.3517  130.8822   59.9035 H   0  0  0  0  0  0  0  0  0  0  0  0
  134.4240  130.7056   57.6396 H   0  0  0  0  0  0  0  0  0  0  0  0
  133.0267  131.0508   55.5838 H   0  0  0  0  0  0  0  0  0  0  0  0
  130.7760  130.9920   54.7780 H   0  0  0  0  0  0  0  0  0  0  0  0
  127.8253  132.8529   53.9523 H   0  0  0  0  0  0  0  0  0  0  0  0
  129.4329  132.5643   53.1599 H   0  0  0  0  0  0  0  0  0  0  0  0
  124.5500  131.1802   58.1726 H   0  0  0  0  0  0  0  0  0  0  0  0
  124.7368  132.1397   56.6656 H   0  0  0  0  0  0  0  0  0  0  0  0
  123.7255  130.6551   56.6656 H   0  0  0  0  0  0  0  0  0  0  0  0
  125.7724  129.0150   58.4464 H   0  0  0  0  0  0  0  0  0  0  0  0
  1  2  1  0
  2  3  2  0
  3  4  1  0
  4  5  2  0
  5  6  1  0
  6  7  1  0
  7  8  1  0
  8  9  2  0
  8 10  1  0
 10 11  1  0
 11 12  1  0
 12 13  2  0
 13 14  1  0
 14 15  1  0
 14 16  2  0
 16 17  1  0
 17 18  1  0
 18 19  1  0
 18 20  1  0
 18 21  1  0
 17 22  2  0
 22 23  1  0
 23 24  3  0
  6 25  2  0
 25  2  1  0
 22 12  1  0
  1 26  1  0
  1 27  1  0
  1 28  1  0
  3 29  1  0
  4 30  1  0
  5 31  1  0
  7 32  1  0
 10 33  1  0
 10 34  1  0
 15 35  1  0
 15 36  1  0
 15 37  1  0
 16 38  1  0
M  END
>  <Binding energies>  (1) 
[-7.05]

>  <Ligand effiencies>  (1) 
[-0.27115384615384613]

>  <Interactions>  (1) 
["V-B:MET:535:CE:9804, H-A:TYR:531:OH:4792, H-B:TYR:531:OH:9764, H-A:TYR:539:OH:4875, V-A:PRO:540:CB:4882, V-A:TYR:539:CE1:4872, V-A:PRO:540:CA:4880, H-A:TYR:539:N:4867, V-A:LEU:363:CD1:3185, V-A:TYR:531:CZ:4791, V-A:ILE:538:CA:4857, V-A:ILE:538:CD1:4862, V-A:TYR:531:CE2:4790, V-A:TYR:539:CZ:4874, V-B:TYR:531:CZ:9763, V-A:LEU:363:CA:3181, V-A:LEU:363:CB:3183, V-A:TYR:539:CE2:4873"]

$$$$
2f_Grossjean_2025
     RDKit          3D

 35 36  0  0  0  0  0  0  0  0999 V2000
  132.3460  131.7170   61.5370 C   0  0  0  0  0  0  0  0  0  0  0  0
  131.9030  130.8280   60.3900 C   0  0  0  0  0  0  0  0  0  0  0  0
  130.9370  129.8400   60.5630 C   0  0  0  0  0  0  0  0  0  0  0  0
  130.5670  129.0380   59.4730 C   0  0  0  0  0  0  0  0  0  0  0  0
  129.5050  127.9430   59.6870 C   0  0  0  0  0  0  0  0  0  0  0  0
  128.4640  128.1490   58.8780 F   0  0  0  0  0  0  0  0  0  0  0  0
  130.0270  126.7450   59.4230 F   0  0  0  0  0  0  0  0  0  0  0  0
  129.0380  127.9120   60.9380 F   0  0  0  0  0  0  0  0  0  0  0  0
  131.1900  129.2670   58.2190 C   0  0  0  0  0  0  0  0  0  0  0  0
  130.8800  128.4190   57.0660 C   0  0  0  0  0  0  0  0  0  0  0  0
  130.6330  127.7500   56.1540 N   0  0  0  0  0  0  0  0  0  0  0  0
  132.1430  130.3110   58.1310 C   0  0  0  0  0  0  0  0  0  0  0  0
  133.0130  130.7460   56.6380 S   0  0  0  0  0  0  0  0  0  0  0  0
  132.2700  132.2750   55.9750 C   0  0  0  0  0  0  0  0  0  0  0  0
  130.7470  132.2300   55.7850 C   0  0  0  0  0  0  0  0  0  0  0  0
  130.0550  133.2200   56.0250 O   0  0  0  0  0  0  0  0  0  0  0  0
  130.2700  131.0380   55.3660 N   0  0  0  0  0  0  0  0  0  0  0  0
  128.9450  130.6540   55.0850 C   0  0  0  0  0  0  0  0  0  0  0  0
  128.2370  129.6260   55.7360 C   0  0  0  0  0  0  0  0  0  0  0  0
  126.9210  129.3490   55.3620 C   0  0  0  0  0  0  0  0  0  0  0  0
  126.3420  130.1110   54.3460 C   0  0  0  0  0  0  0  0  0  0  0  0
  126.9990  131.1120   53.7080 N   0  0  0  0  0  0  0  0  0  0  0  0
  128.2780  131.3690   54.0840 C   0  0  0  0  0  0  0  0  0  0  0  0
  132.5040  131.0610   59.2010 N   0  0  0  0  0  0  0  0  0  0  0  0
  132.1034  131.2301   62.4931 H   0  0  0  0  0  0  0  0  0  0  0  0
  133.4318  131.8821   61.4747 H   0  0  0  0  0  0  0  0  0  0  0  0
  131.8240  132.6833   61.4747 H   0  0  0  0  0  0  0  0  0  0  0  0
  130.4678  129.6896   61.5465 H   0  0  0  0  0  0  0  0  0  0  0  0
  132.5026  133.0958   56.6694 H   0  0  0  0  0  0  0  0  0  0  0  0
  132.6998  132.4145   54.9721 H   0  0  0  0  0  0  0  0  0  0  0  0
  130.9470  130.2960   55.2670 H   0  0  0  0  0  0  0  0  0  0  0  0
  128.7185  129.0439   56.5355 H   0  0  0  0  0  0  0  0  0  0  0  0
  126.3527  128.5478   55.8571 H   0  0  0  0  0  0  0  0  0  0  0  0
  125.3061  129.8899   54.0491 H   0  0  0  0  0  0  0  0  0  0  0  0
  128.8179  132.1813   53.5754 H   0  0  0  0  0  0  0  0  0  0  0  0
  1  2  1  0
  2  3  2  0
  3  4  1  0
  4  5  1  0
  5  6  1  0
  5  7  1  0
  5  8  1  0
  4  9  2  0
  9 10  1  0
 10 11  3  0
  9 12  1  0
 12 13  1  0
 13 14  1  0
 14 15  1  0
 15 16  2  0
 15 17  1  0
 17 18  1  0
 18 19  2  0
 19 20  1  0
 20 21  2  0
 21 22  1  0
 22 23  2  0
 12 24  2  0
 24  2  1  0
 23 18  1  0
  1 25  1  0
  1 26  1  0
  1 27  1  0
  3 28  1  0
 14 29  1  0
 14 30  1  0
 17 31  1  0
 19 32  1  0
 20 33  1  0
 21 34  1  0
 23 35  1  0
M  END
>  <Binding energies>  (1) 
[-6.74]

>  <Ligand effiencies>  (1) 
[-0.2696]

>  <Interactions>  (1) 
["V-B:MET:535:CE:9804, V-A:GLU:543:CD:4905, H-A:TYR:531:OH:4792, H-A:TYR:539:OH:4875, V-A:PRO:540:CB:4882, V-A:PRO:540:CA:4880, H-A:TYR:539:N:4867, V-A:LEU:363:CD1:3185, V-A:PRO:540:N:4881, H-B:LYS:534:NZ:9792, V-A:TYR:531:CZ:4791, V-A:ILE:538:CG2:4860, V-A:ILE:538:CD1:4862, V-B:TYR:531:CZ:9763, V-B:TYR:531:CE1:9761, V-A:ASN:362:CB:3172, V-A:PRO:540:C:4878, V-A:PRO:540:CD:4884"]

$$$$
2g_Grossjean_2025
     RDKit          3D

 39 40  0  0  0  0  0  0  0  0999 V2000
  129.0520  121.4520   60.7430 C   0  0  0  0  0  0  0  0  0  0  0  0
  128.0160  122.2630   59.9890 C   0  0  0  0  0  0  0  0  0  0  0  0
  126.8740  122.7540   60.6180 C   0  0  0  0  0  0  0  0  0  0  0  0
  125.9410  123.4930   59.8750 C   0  0  0  0  0  0  0  0  0  0  0  0
  124.6790  124.0200   60.5870 C   0  0  0  0  0  0  0  0  0  0  0  0
  123.5890  123.7120   59.8820 F   0  0  0  0  0  0  0  0  0  0  0  0
  124.5810  123.4700   61.7970 F   0  0  0  0  0  0  0  0  0  0  0  0
  124.6910  125.3450   60.7450 F   0  0  0  0  0  0  0  0  0  0  0  0
  126.1990  123.7240   58.5000 C   0  0  0  0  0  0  0  0  0  0  0  0
  125.2300  124.4400   57.6660 C   0  0  0  0  0  0  0  0  0  0  0  0
  124.4640  125.0060   57.0080 N   0  0  0  0  0  0  0  0  0  0  0  0
  127.4010  123.2120   57.9530 C   0  0  0  0  0  0  0  0  0  0  0  0
  127.8920  123.4310   56.2560 S   0  0  0  0  0  0  0  0  0  0  0  0
  129.3600  124.5150   56.2460 C   0  0  0  0  0  0  0  0  0  0  0  0
  129.7110  125.1330   57.6060 C   0  0  0  0  0  0  0  0  0  0  0  0
  129.0100  126.0100   58.1140 O   0  0  0  0  0  0  0  0  0  0  0  0
  130.8270  124.6540   58.1870 N   0  0  0  0  0  0  0  0  0  0  0  0
  131.3580  125.0790   59.4830 C   0  0  0  0  0  0  0  0  0  0  0  0
  132.2310  124.0380   60.1760 C   0  0  0  0  0  0  0  0  0  0  0  0
  133.5540  123.8520   59.7620 C   0  0  0  0  0  0  0  0  0  0  0  0
  134.3650  122.9290   60.4180 C   0  0  0  0  0  0  0  0  0  0  0  0
  133.8540  122.2020   61.4910 C   0  0  0  0  0  0  0  0  0  0  0  0
  132.5410  122.3920   61.9170 C   0  0  0  0  0  0  0  0  0  0  0  0
  131.7300  123.3150   61.2620 C   0  0  0  0  0  0  0  0  0  0  0  0
  128.2800  122.4810   58.6810 N   0  0  0  0  0  0  0  0  0  0  0  0
  128.8965  121.5738   61.8251 H   0  0  0  0  0  0  0  0  0  0  0  0
  128.9519  120.3897   60.4754 H   0  0  0  0  0  0  0  0  0  0  0  0
  130.0592  121.8042   60.4754 H   0  0  0  0  0  0  0  0  0  0  0  0
  126.7052  122.5639   61.6882 H   0  0  0  0  0  0  0  0  0  0  0  0
  130.2218  123.9214   55.9069 H   0  0  0  0  0  0  0  0  0  0  0  0
  129.1215  125.3542   55.5761 H   0  0  0  0  0  0  0  0  0  0  0  0
  131.3340  123.9180   57.7200 H   0  0  0  0  0  0  0  0  0  0  0  0
  131.9610  125.9858   59.3275 H   0  0  0  0  0  0  0  0  0  0  0  0
  130.4908  125.2490   60.1381 H   0  0  0  0  0  0  0  0  0  0  0  0
  133.9538  124.4344   58.9188 H   0  0  0  0  0  0  0  0  0  0  0  0
  135.4037  122.7748   60.0905 H   0  0  0  0  0  0  0  0  0  0  0  0
  134.4935  121.4707   62.0070 H   0  0  0  0  0  0  0  0  0  0  0  0
  132.1470  121.8154   62.7669 H   0  0  0  0  0  0  0  0  0  0  0  0
  130.6953  123.4751   61.5992 H   0  0  0  0  0  0  0  0  0  0  0  0
  1  2  1  0
  2  3  2  0
  3  4  1  0
  4  5  1  0
  5  6  1  0
  5  7  1  0
  5  8  1  0
  4  9  2  0
  9 10  1  0
 10 11  3  0
  9 12  1  0
 12 13  1  0
 13 14  1  0
 14 15  1  0
 15 16  2  0
 15 17  1  0
 17 18  1  0
 18 19  1  0
 19 20  2  0
 20 21  1  0
 21 22  2  0
 22 23  1  0
 23 24  2  0
 12 25  2  0
 25  2  1  0
 24 19  1  0
  1 26  1  0
  1 27  1  0
  1 28  1  0
  3 29  1  0
 14 30  1  0
 14 31  1  0
 17 32  1  0
 18 33  1  0
 18 34  1  0
 20 35  1  0
 21 36  1  0
 22 37  1  0
 23 38  1  0
 24 39  1  0
M  END
>  <Binding energies>  (1) 
[-6.78]

>  <Ligand effiencies>  (1) 
[-0.26076923076923075]

>  <Interactions>  (1) 
["V-B:TYR:539:CE2:9845, V-B:PRO:540:CB:9854, V-B:TYR:539:CZ:9846, V-A:LEU:475:CD1:4254, V-B:PRO:540:CA:9852, V-B:PRO:540:C:9850, V-B:TYR:539:C:9836, V-B:LEU:363:CD1:8157, V-B:ALA:541:CB:9861, V-B:TYR:539:CE1:9844, V-B:GLU:543:CD:9877, V-B:MET:535:CE:9804, V-A:GLY:454:CA:4045, V-A:ASP:366:CB:3208, H-B:TYR:539:OH:9847, V-A:ASP:366:CG:3209, V-B:LEU:363:CA:8153, H-B:TYR:531:OH:9764, V-B:TYR:539:CD2:9843, V-B:ASN:362:CB:8144, V-B:ASN:362:C:8140, V-B:ASP:366:CG:8181, V-A:ILE:369:CB:3232, V-A:ILE:369:CG2:3233, V-A:ILE:369:CG1:3234, V-B:ARG:545:CZ:9895, V-B:ALA:541:CA:9859, V-B:LEU:363:CB:8155, V-A:ASP:366:CA:3206"]

$$$$
2h_Grossjean_2025
     RDKit          3D

 51 52  0  0  0  0  0  0  0  0999 V2000
  128.0680  122.4160   54.9320 C   0  0  0  0  0  0  0  0  0  0  0  0
  127.6130  121.9950   56.2130 O   0  0  0  0  0  0  0  0  0  0  0  0
  127.4790  122.9280   57.2260 C   0  0  0  0  0  0  0  0  0  0  0  0
  128.3650  123.0400   58.3090 C   0  0  0  0  0  0  0  0  0  0  0  0
  128.1700  124.0110   59.2880 C   0  0  0  0  0  0  0  0  0  0  0  0
  127.0880  124.8900   59.2090 C   0  0  0  0  0  0  0  0  0  0  0  0
  126.9060  125.9600   60.2840 C   0  0  0  0  0  0  0  0  0  0  0  0
  126.5540  127.2760   59.7490 N   0  0  0  0  0  0  0  0  0  0  0  0
  127.3620  128.3500   59.7510 C   0  0  0  0  0  0  0  0  0  0  0  0
  128.4720  128.3590   60.2860 O   0  0  0  0  0  0  0  0  0  0  0  0
  126.8180  129.5900   59.0260 C   0  0  0  0  0  0  0  0  0  0  0  0
  127.4650  131.1840   59.6340 S   0  0  0  0  0  0  0  0  0  0  0  0
  129.1720  131.2680   59.1400 C   0  0  0  0  0  0  0  0  0  0  0  0
  130.0430  130.9590   60.1320 N   0  0  0  0  0  0  0  0  0  0  0  0
  131.3680  131.0100   59.8710 C   0  0  0  0  0  0  0  0  0  0  0  0
  132.2830  130.6600   61.0290 C   0  0  0  0  0  0  0  0  0  0  0  0
  131.8750  131.3610   58.6210 C   0  0  0  0  0  0  0  0  0  0  0  0
  130.9890  131.6640   57.5760 C   0  0  0  0  0  0  0  0  0  0  0  0
  131.5680  132.0410   56.1990 C   0  0  0  0  0  0  0  0  0  0  0  0
  130.9030  131.4040   55.2350 F   0  0  0  0  0  0  0  0  0  0  0  0
  131.4860  133.3490   55.9450 F   0  0  0  0  0  0  0  0  0  0  0  0
  132.8560  131.7000   56.1340 F   0  0  0  0  0  0  0  0  0  0  0  0
  129.5950  131.6080   57.8330 C   0  0  0  0  0  0  0  0  0  0  0  0
  128.6280  131.8580   56.7610 C   0  0  0  0  0  0  0  0  0  0  0  0
  127.8670  132.0520   55.9120 N   0  0  0  0  0  0  0  0  0  0  0  0
  126.1810  124.7740   58.1440 C   0  0  0  0  0  0  0  0  0  0  0  0
  125.1120  125.6340   58.0610 O   0  0  0  0  0  0  0  0  0  0  0  0
  123.8910  125.1010   58.5560 C   0  0  0  0  0  0  0  0  0  0  0  0
  126.3910  123.8060   57.1470 C   0  0  0  0  0  0  0  0  0  0  0  0
  125.5150  123.7020   56.0930 O   0  0  0  0  0  0  0  0  0  0  0  0
  124.9270  122.4160   55.9510 C   0  0  0  0  0  0  0  0  0  0  0  0
  128.8704  123.1585   55.0537 H   0  0  0  0  0  0  0  0  0  0  0  0
  128.4526  121.5482   54.3761 H   0  0  0  0  0  0  0  0  0  0  0  0
  127.2327  122.8667   54.3761 H   0  0  0  0  0  0  0  0  0  0  0  0
  129.2216  122.3541   58.3851 H   0  0  0  0  0  0  0  0  0  0  0  0
  128.8738  124.0861   60.1300 H   0  0  0  0  0  0  0  0  0  0  0  0
  126.1049  125.6360   60.9647 H   0  0  0  0  0  0  0  0  0  0  0  0
  127.8731  126.0690   60.7967 H   0  0  0  0  0  0  0  0  0  0  0  0
  125.6710  127.3360   59.2610 H   0  0  0  0  0  0  0  0  0  0  0  0
  127.0744  129.5019   57.9599 H   0  0  0  0  0  0  0  0  0  0  0  0
  125.7344  129.6058   59.2146 H   0  0  0  0  0  0  0  0  0  0  0  0
  131.7647  130.8583   61.9788 H   0  0  0  0  0  0  0  0  0  0  0  0
  132.5531  129.5951   60.9740 H   0  0  0  0  0  0  0  0  0  0  0  0
  133.1948  131.2728   60.9740 H   0  0  0  0  0  0  0  0  0  0  0  0
  132.9617  131.4002   58.4550 H   0  0  0  0  0  0  0  0  0  0  0  0
  123.9070  125.1080   59.6559 H   0  0  0  0  0  0  0  0  0  0  0  0
  123.0512  125.7144   58.1976 H   0  0  0  0  0  0  0  0  0  0  0  0
  123.7698  124.0681   58.1976 H   0  0  0  0  0  0  0  0  0  0  0  0
  124.7322  121.9900   56.9463 H   0  0  0  0  0  0  0  0  0  0  0  0
  123.9800  122.5048   55.3984 H   0  0  0  0  0  0  0  0  0  0  0  0
  125.6136  121.7579   55.3984 H   0  0  0  0  0  0  0  0  0  0  0  0
  1  2  1  0
  2  3  1  0
  3  4  2  0
  4  5  1  0
  5  6  2  0
  6  7  1  0
  7  8  1  0
  8  9  1  0
  9 10  2  0
  9 11  1  0
 11 12  1  0
 12 13  1  0
 13 14  2  0
 14 15  1  0
 15 16  1  0
 15 17  2  0
 17 18  1  0
 18 19  1  0
 19 20  1  0
 19 21  1  0
 19 22  1  0
 18 23  2  0
 23 24  1  0
 24 25  3  0
  6 26  1  0
 26 27  1  0
 27 28  1  0
 26 29  2  0
 29 30  1  0
 30 31  1  0
 29  3  1  0
 23 13  1  0
  1 32  1  0
  1 33  1  0
  1 34  1  0
  4 35  1  0
  5 36  1  0
  7 37  1  0
  7 38  1  0
  8 39  1  0
 11 40  1  0
 11 41  1  0
 16 42  1  0
 16 43  1  0
 16 44  1  0
 17 45  1  0
 28 46  1  0
 28 47  1  0
 28 48  1  0
 31 49  1  0
 31 50  1  0
 31 51  1  0
M  END
>  <Binding energies>  (1) 
[-6.32]

>  <Ligand effiencies>  (1) 
[-0.1975]

>  <Interactions>  (1) 
["V-B:TYR:539:CE2:9845, V-B:PRO:540:N:9853, V-B:PRO:540:CB:9854, V-B:TYR:539:CZ:9846, H-B:TYR:539:N:9839, V-B:TYR:539:CD1:9842, V-B:ILE:538:CA:9829, V-B:LEU:363:CD1:8157, V-B:ILE:538:CG2:9832, V-B:TYR:539:CE1:9844, V-B:ILE:538:CB:9831, V-B:MET:535:CE:9804, V-A:GLU:543:CD:4905, V-B:LEU:363:CA:8153, H-B:TYR:531:OH:9764, V-B:PRO:540:CD:9856, V-A:PRO:540:CB:4882, V-A:TYR:539:C:4864, V-A:PRO:540:CA:4880, V-A:LEU:363:CD1:3185, V-A:PRO:540:N:4881, V-A:TYR:531:CZ:4791, V-A:ILE:538:CG2:4860, V-A:ILE:538:CA:4857, V-A:ILE:538:CD1:4862, V-A:TYR:531:CE2:4790, V-B:ASP:366:CB:8180, V-A:ILE:538:C:4855, V-A:TYR:539:CD2:4871, V-A:TYR:539:CE2:4873, V-A:ASN:362:CB:3172, H-B:ASP:366:OD1:8182, V-B:ASP:366:CG:8181, V-A:TYR:539:CA:4866, V-A:PRO:540:CD:4884, V-B:ILE:538:CD1:9834, V-B:PRO:540:CG:9855, V-A:PRO:540:CG:4883, V-A:ILE:538:CB:4859"]

$$$$
2i_Grossjean_2025
     RDKit          3D

 32 33  0  0  0  0  0  0  0  0999 V2000
  128.6030  132.3820   54.6440 C   0  0  0  0  0  0  0  0  0  0  0  0
  129.1740  132.2210   56.0410 C   0  0  0  0  0  0  0  0  0  0  0  0
  130.4920  131.8220   56.2490 C   0  0  0  0  0  0  0  0  0  0  0  0
  130.9740  131.6900   57.5590 C   0  0  0  0  0  0  0  0  0  0  0  0
  132.4340  131.2470   57.7710 C   0  0  0  0  0  0  0  0  0  0  0  0
  132.5960  129.9930   57.3470 F   0  0  0  0  0  0  0  0  0  0  0  0
  133.2580  132.0440   57.0900 F   0  0  0  0  0  0  0  0  0  0  0  0
  132.8060  131.2890   59.0530 F   0  0  0  0  0  0  0  0  0  0  0  0
  130.0940  131.9710   58.6360 C   0  0  0  0  0  0  0  0  0  0  0  0
  130.5460  131.8510   60.0260 C   0  0  0  0  0  0  0  0  0  0  0  0
  130.9020  131.7570   61.1230 N   0  0  0  0  0  0  0  0  0  0  0  0
  128.7710  132.3680   58.3340 C   0  0  0  0  0  0  0  0  0  0  0  0
  127.5740  132.7400   59.6060 S   0  0  0  0  0  0  0  0  0  0  0  0
  126.7660  131.1850   60.0920 C   0  0  0  0  0  0  0  0  0  0  0  0
  126.4670  131.1310   61.5920 C   0  0  0  0  0  0  0  0  0  0  0  0
  127.1060  131.8570   62.3560 O   0  0  0  0  0  0  0  0  0  0  0  0
  125.5180  130.2490   61.9710 N   0  0  0  0  0  0  0  0  0  0  0  0
  125.0840  130.0050   63.2640 C   0  0  0  0  0  0  0  0  0  0  0  0
  125.7870  129.5160   64.3740 C   0  0  0  0  0  0  0  0  0  0  0  0
  124.8580  129.4810   65.3880 C   0  0  0  0  0  0  0  0  0  0  0  0
  123.6700  129.9280   64.9170 O   0  0  0  0  0  0  0  0  0  0  0  0
  123.8320  130.2620   63.5700 N   0  0  0  0  0  0  0  0  0  0  0  0
  128.3250  132.4910   57.0570 N   0  0  0  0  0  0  0  0  0  0  0  0
  127.5463  132.6799   54.7119 H   0  0  0  0  0  0  0  0  0  0  0  0
  129.1682  133.1558   54.1038 H   0  0  0  0  0  0  0  0  0  0  0  0
  128.6807  131.4269   54.1038 H   0  0  0  0  0  0  0  0  0  0  0  0
  131.1495  131.6121   55.3925 H   0  0  0  0  0  0  0  0  0  0  0  0
  125.8199  131.0898   59.5389 H   0  0  0  0  0  0  0  0  0  0  0  0
  127.4538  130.3597   59.8556 H   0  0  0  0  0  0  0  0  0  0  0  0
  125.0930  129.6800   61.2530 H   0  0  0  0  0  0  0  0  0  0  0  0
  126.8466  129.2248   64.4232 H   0  0  0  0  0  0  0  0  0  0  0  0
  125.0498  129.1437   66.4173 H   0  0  0  0  0  0  0  0  0  0  0  0
  1  2  1  0
  2  3  2  0
  3  4  1  0
  4  5  1  0
  5  6  1  0
  5  7  1  0
  5  8  1  0
  4  9  2  0
  9 10  1  0
 10 11  3  0
  9 12  1  0
 12 13  1  0
 13 14  1  0
 14 15  1  0
 15 16  2  0
 15 17  1  0
 17 18  1  0
 18 19  1  0
 19 20  2  0
 20 21  1  0
 21 22  1  0
 12 23  2  0
 23  2  1  0
 22 18  2  0
  1 24  1  0
  1 25  1  0
  1 26  1  0
  3 27  1  0
 14 28  1  0
 14 29  1  0
 17 30  1  0
 19 31  1  0
 20 32  1  0
M  END
>  <Binding energies>  (1) 
[-7.09]

>  <Ligand effiencies>  (1) 
[-0.29541666666666666]

>  <Interactions>  (1) 
["V-A:ASP:366:CB:3208, V-A:PRO:540:CB:4882, V-A:TYR:539:CE1:4872, V-A:TYR:539:C:4864, V-A:PRO:540:CA:4880, V-A:LEU:363:CD1:3185, V-A:PRO:540:N:4881, V-A:TYR:539:CD1:4870, V-A:ILE:538:CA:4857, V-A:ILE:538:CD1:4862, V-A:TYR:539:CZ:4874, V-A:LEU:363:CA:3181, V-A:TYR:539:CD2:4871, V-A:LEU:363:CB:3183, V-A:TYR:539:CE2:4873, H-A:ALA:541:N:4888, V-A:PRO:540:C:4878, H-B:ASP:366:OD1:8182, V-B:ASP:366:CG:8181, H-B:ASP:366:OD2:8183, V-B:HIS:456:CE1:9038, V-B:ARG:545:CZ:9895, V-B:ARG:545:CD:9892, V-A:PRO:540:CD:4884, H-B:ARG:545:NH2:9897, H-B:GLY:454:N:9018, H-B:TYR:484:OH:9316, V-A:PRO:540:CG:4883, H-B:ARG:545:NE:9893, H-B:ARG:545:NH1:9896, V-A:LEU:363:CG:3184"]

$$$$
2j_Grossjean_2025
     RDKit          3D

 32 33  0  0  0  0  0  0  0  0999 V2000
  124.2510  131.3530   57.2720 C   0  0  0  0  0  0  0  0  0  0  0  0
  125.4820  130.5650   56.8680 C   0  0  0  0  0  0  0  0  0  0  0  0
  125.9740  129.5260   57.6540 C   0  0  0  0  0  0  0  0  0  0  0  0
  127.1150  128.8240   57.2360 C   0  0  0  0  0  0  0  0  0  0  0  0
  127.6450  127.6770   58.1170 C   0  0  0  0  0  0  0  0  0  0  0  0
  126.9540  127.6210   59.2560 F   0  0  0  0  0  0  0  0  0  0  0  0
  127.5190  126.5130   57.4770 F   0  0  0  0  0  0  0  0  0  0  0  0
  128.9330  127.8230   58.4340 F   0  0  0  0  0  0  0  0  0  0  0  0
  127.7330  129.2020   56.0170 C   0  0  0  0  0  0  0  0  0  0  0  0
  128.9270  128.5040   55.5320 C   0  0  0  0  0  0  0  0  0  0  0  0
  129.8690  127.9510   55.1490 N   0  0  0  0  0  0  0  0  0  0  0  0
  127.1660  130.2700   55.2820 C   0  0  0  0  0  0  0  0  0  0  0  0
  127.8590  130.8300   53.7330 S   0  0  0  0  0  0  0  0  0  0  0  0
  128.7530  132.3930   54.0350 C   0  0  0  0  0  0  0  0  0  0  0  0
  129.5580  132.4350   55.3420 C   0  0  0  0  0  0  0  0  0  0  0  0
  129.2890  133.2560   56.2210 O   0  0  0  0  0  0  0  0  0  0  0  0
  130.5560  131.5270   55.4210 N   0  0  0  0  0  0  0  0  0  0  0  0
  131.4310  131.3470   56.4840 C   0  0  0  0  0  0  0  0  0  0  0  0
  132.7450  131.4070   56.4660 N   0  0  0  0  0  0  0  0  0  0  0  0
  133.2570  131.1860   57.6620 C   0  0  0  0  0  0  0  0  0  0  0  0
  132.3470  130.9390   58.6850 C   0  0  0  0  0  0  0  0  0  0  0  0
  130.7360  131.0020   58.0350 S   0  0  0  0  0  0  0  0  0  0  0  0
  126.0600  130.9360   55.7030 N   0  0  0  0  0  0  0  0  0  0  0  0
  124.1861  131.3946   58.3693 H   0  0  0  0  0  0  0  0  0  0  0  0
  124.3212  132.3745   56.8699 H   0  0  0  0  0  0  0  0  0  0  0  0
  123.3528  130.8616   56.8699 H   0  0  0  0  0  0  0  0  0  0  0  0
  125.4721  129.2576   58.5953 H   0  0  0  0  0  0  0  0  0  0  0  0
  129.4496  132.5553   53.1993 H   0  0  0  0  0  0  0  0  0  0  0  0
  127.9853  133.1762   54.1201 H   0  0  0  0  0  0  0  0  0  0  0  0
  130.6900  130.9110   54.6320 H   0  0  0  0  0  0  0  0  0  0  0  0
  134.3424  131.1965   57.8401 H   0  0  0  0  0  0  0  0  0  0  0  0
  132.6051  130.7366   59.7350 H   0  0  0  0  0  0  0  0  0  0  0  0
  1  2  1  0
  2  3  2  0
  3  4  1  0
  4  5  1  0
  5  6  1  0
  5  7  1  0
  5  8  1  0
  4  9  2  0
  9 10  1  0
 10 11  3  0
  9 12  1  0
 12 13  1  0
 13 14  1  0
 14 15  1  0
 15 16  2  0
 15 17  1  0
 17 18  1  0
 18 19  2  0
 19 20  1  0
 20 21  2  0
 21 22  1  0
 12 23  2  0
 23  2  1  0
 22 18  1  0
  1 24  1  0
  1 25  1  0
  1 26  1  0
  3 27  1  0
 14 28  1  0
 14 29  1  0
 17 30  1  0
 20 31  1  0
 21 32  1  0
M  END
>  <Binding energies>  (1) 
[-6.32]

>  <Ligand effiencies>  (1) 
[-0.26333333333333336]

>  <Interactions>  (1) 
["V-B:MET:535:CE:9804, H-A:TYR:531:OH:4792, H-B:TYR:531:OH:9764, H-A:TYR:539:OH:4875, V-A:PRO:540:CB:4882, V-A:TYR:539:CE1:4872, V-A:PRO:540:CA:4880, H-A:TYR:539:N:4867, V-A:LEU:363:CD1:3185, H-B:LYS:534:NZ:9792, V-A:ILE:538:CA:4857, V-A:ILE:538:CD1:4862, V-A:TYR:539:CZ:4874, V-B:ASP:366:CB:8180, V-A:LEU:363:CA:3181, V-A:LEU:363:CB:3183, V-A:TYR:539:CE2:4873, V-B:ILE:369:CG2:8205"]

$$$$
2k_Grossjean_2025
     RDKit          3D

 50 50  0  0  0  0  0  0  0  0999 V2000
  127.9860  122.8310   56.4980 C   0  0  0  0  0  0  0  0  0  0  0  0
  126.8930  121.9290   56.5590 O   0  0  0  0  0  0  0  0  0  0  0  0
  125.7370  122.3920   55.8720 C   0  0  0  0  0  0  0  0  0  0  0  0
  125.0330  123.4670   56.7100 C   0  0  0  0  0  0  0  0  0  0  0  0
  125.3900  123.2980   58.0740 O   0  0  0  0  0  0  0  0  0  0  0  0
  124.7240  124.1830   58.9670 C   0  0  0  0  0  0  0  0  0  0  0  0
  124.2260  125.3940   58.1680 C   0  0  0  0  0  0  0  0  0  0  0  0
  125.3620  126.1330   57.7470 O   0  0  0  0  0  0  0  0  0  0  0  0
  126.2300  126.5520   58.7890 C   0  0  0  0  0  0  0  0  0  0  0  0
  126.3720  128.0850   58.7370 C   0  0  0  0  0  0  0  0  0  0  0  0
  126.3580  128.6140   57.3700 N   0  0  0  0  0  0  0  0  0  0  0  0
  126.6110  129.8900   57.0220 C   0  0  0  0  0  0  0  0  0  0  0  0
  126.9180  130.7660   57.8330 O   0  0  0  0  0  0  0  0  0  0  0  0
  126.4740  130.2120   55.5260 C   0  0  0  0  0  0  0  0  0  0  0  0
  127.9930  129.9910   54.5360 S   0  0  0  0  0  0  0  0  0  0  0  0
  129.3610  129.6110   55.6230 C   0  0  0  0  0  0  0  0  0  0  0  0
  129.5900  128.2910   55.8410 N   0  0  0  0  0  0  0  0  0  0  0  0
  130.6060  127.9300   56.6560 C   0  0  0  0  0  0  0  0  0  0  0  0
  130.7900  126.4380   56.8580 C   0  0  0  0  0  0  0  0  0  0  0  0
  131.4390  128.8580   57.2740 C   0  0  0  0  0  0  0  0  0  0  0  0
  131.2260  130.2280   57.0570 C   0  0  0  0  0  0  0  0  0  0  0  0
  132.1600  131.2420   57.7450 C   0  0  0  0  0  0  0  0  0  0  0  0
  132.5630  132.2130   56.9240 F   0  0  0  0  0  0  0  0  0  0  0  0
  131.5310  131.8200   58.7700 F   0  0  0  0  0  0  0  0  0  0  0  0
  133.2500  130.6230   58.2000 F   0  0  0  0  0  0  0  0  0  0  0  0
  130.1580  130.6220   56.2100 C   0  0  0  0  0  0  0  0  0  0  0  0
  129.8880  132.0390   55.9510 C   0  0  0  0  0  0  0  0  0  0  0  0
  129.6750  133.1580   55.7460 N   0  0  0  0  0  0  0  0  0  0  0  0
  128.3029  123.0926   57.5184 H   0  0  0  0  0  0  0  0  0  0  0  0
  128.8230  122.3573   55.9642 H   0  0  0  0  0  0  0  0  0  0  0  0
  127.6797  123.7427   55.9642 H   0  0  0  0  0  0  0  0  0  0  0  0
  126.0344  122.8201   54.9033 H   0  0  0  0  0  0  0  0  0  0  0  0
  125.0490  121.5495   55.7081 H   0  0  0  0  0  0  0  0  0  0  0  0
  125.3457  124.4646   56.3679 H   0  0  0  0  0  0  0  0  0  0  0  0
  123.9430  123.3715   56.5968 H   0  0  0  0  0  0  0  0  0  0  0  0
  123.8703  123.6683   59.4320 H   0  0  0  0  0  0  0  0  0  0  0  0
  125.4140  124.5107   59.7585 H   0  0  0  0  0  0  0  0  0  0  0  0
  123.6545  125.0546   57.2915 H   0  0  0  0  0  0  0  0  0  0  0  0
  123.5689  126.0203   58.7893 H   0  0  0  0  0  0  0  0  0  0  0  0
  125.8106  126.2532   59.7610 H   0  0  0  0  0  0  0  0  0  0  0  0
  127.2168  126.0827   58.6621 H   0  0  0  0  0  0  0  0  0  0  0  0
  125.5373  128.5338   59.2954 H   0  0  0  0  0  0  0  0  0  0  0  0
  127.3459  128.3411   59.1797 H   0  0  0  0  0  0  0  0  0  0  0  0
  126.1290  127.9550   56.6410 H   0  0  0  0  0  0  0  0  0  0  0  0
  125.6971  129.5555   55.1071 H   0  0  0  0  0  0  0  0  0  0  0  0
  126.2264  131.2822   55.4673 H   0  0  0  0  0  0  0  0  0  0  0  0
  130.8176  126.2144   57.9347 H   0  0  0  0  0  0  0  0  0  0  0  0
  129.9515  125.8989   56.3929 H   0  0  0  0  0  0  0  0  0  0  0  0
  131.7343  126.1187   56.3929 H   0  0  0  0  0  0  0  0  0  0  0  0
  132.2574  128.5205   57.9270 H   0  0  0  0  0  0  0  0  0  0  0  0
  1  2  1  0
  2  3  1  0
  3  4  1  0
  4  5  1  0
  5  6  1  0
  6  7  1  0
  7  8  1  0
  8  9  1  0
  9 10  1  0
 10 11  1  0
 11 12  1  0
 12 13  2  0
 12 14  1  0
 14 15  1  0
 15 16  1  0
 16 17  2  0
 17 18  1  0
 18 19  1  0
 18 20  2  0
 20 21  1  0
 21 22  1  0
 22 23  1  0
 22 24  1  0
 22 25  1  0
 21 26  2  0
 26 27  1  0
 27 28  3  0
 26 16  1  0
  1 29  1  0
  1 30  1  0
  1 31  1  0
  3 32  1  0
  3 33  1  0
  4 34  1  0
  4 35  1  0
  6 36  1  0
  6 37  1  0
  7 38  1  0
  7 39  1  0
  9 40  1  0
  9 41  1  0
 10 42  1  0
 10 43  1  0
 11 44  1  0
 14 45  1  0
 14 46  1  0
 19 47  1  0
 19 48  1  0
 19 49  1  0
 20 50  1  0
M  END
>  <Binding energies>  (1) 
[-5.67]

>  <Ligand effiencies>  (1) 
[-0.19551724137931034]

>  <Interactions>  (1) 
["V-B:PRO:540:N:9853, V-B:PRO:540:CB:9854, V-B:TYR:539:CZ:9846, H-B:TYR:539:N:9839, V-B:TYR:539:CD1:9842, V-B:ILE:538:CA:9829, V-B:LEU:363:CD1:8157, V-B:ILE:538:CG2:9832, V-B:TYR:539:CE1:9844, V-B:ILE:538:CB:9831, V-A:ASP:366:CB:3208, V-A:ASP:366:CG:3209, H-A:TYR:531:OH:4792, H-B:TYR:531:OH:9764, V-B:PRO:540:CD:9856, V-A:PRO:540:CB:4882, V-A:PRO:540:CA:4880, H-A:TYR:539:N:4867, V-A:LEU:363:CD1:3185, V-A:PRO:540:N:4881, V-A:ILE:538:CG2:4860, V-A:ILE:538:CD1:4862, V-B:ASP:366:CB:8180, V-B:TYR:531:CZ:9763, V-B:TYR:531:CE2:9762, V-A:LEU:363:CA:3181, V-B:TYR:531:CE1:9761, V-B:ASP:366:CG:8181, V-A:PRO:540:CD:4884, V-A:PRO:540:CG:4883"]

$$$$
3aa_Grossjean_2025
     RDKit          3D

 52 54  0  0  0  0  0  0  0  0999 V2000
  127.8460  131.2990   54.6980 C   0  0  0  0  0  0  0  0  0  0  0  0
  128.7590  132.5240   54.5890 C   0  0  0  0  0  0  0  0  0  0  0  0
  129.1350  132.9520   55.8920 O   0  0  0  0  0  0  0  0  0  0  0  0
  130.3740  132.6930   56.3830 C   0  0  0  0  0  0  0  0  0  0  0  0
  131.4010  133.2290   55.9570 O   0  0  0  0  0  0  0  0  0  0  0  0
  130.3730  131.6740   57.4870 C   0  0  0  0  0  0  0  0  0  0  0  0
  129.8000  131.9360   58.7400 C   0  0  0  0  0  0  0  0  0  0  0  0
  129.8130  130.9670   59.7400 C   0  0  0  0  0  0  0  0  0  0  0  0
  130.3900  129.7180   59.5070 C   0  0  0  0  0  0  0  0  0  0  0  0
  130.3470  128.8100   60.5840 N   0  0  0  0  0  0  0  0  0  0  0  0
  130.2840  127.4600   60.5690 C   0  0  0  0  0  0  0  0  0  0  0  0
  130.2300  126.7580   59.5580 O   0  0  0  0  0  0  0  0  0  0  0  0
  130.2700  126.7860   61.9410 C   0  0  0  0  0  0  0  0  0  0  0  0
  128.6860  125.9560   62.2700 S   0  0  0  0  0  0  0  0  0  0  0  0
  128.7720  124.3490   61.5100 C   0  0  0  0  0  0  0  0  0  0  0  0
  128.0140  124.2350   60.3930 N   0  0  0  0  0  0  0  0  0  0  0  0
  127.9870  123.0590   59.7150 C   0  0  0  0  0  0  0  0  0  0  0  0
  127.1360  123.0160   58.4820 C   0  0  0  0  0  0  0  0  0  0  0  0
  125.8480  123.5770   58.4830 C   0  0  0  0  0  0  0  0  0  0  0  0
  125.0520  123.5420   57.3410 C   0  0  0  0  0  0  0  0  0  0  0  0
  125.5340  122.9450   56.1810 C   0  0  0  0  0  0  0  0  0  0  0  0
  126.8070  122.3850   56.1540 C   0  0  0  0  0  0  0  0  0  0  0  0
  127.6010  122.4240   57.2960 C   0  0  0  0  0  0  0  0  0  0  0  0
  128.7390  121.9620   60.1490 C   0  0  0  0  0  0  0  0  0  0  0  0
  129.5180  122.0510   61.3130 C   0  0  0  0  0  0  0  0  0  0  0  0
  130.3230  120.8180   61.7640 C   0  0  0  0  0  0  0  0  0  0  0  0
  129.9210  119.6920   61.1710 F   0  0  0  0  0  0  0  0  0  0  0  0
  131.6150  120.9810   61.4760 F   0  0  0  0  0  0  0  0  0  0  0  0
  130.1930  120.6470   63.0800 F   0  0  0  0  0  0  0  0  0  0  0  0
  129.5300  123.2750   62.0250 C   0  0  0  0  0  0  0  0  0  0  0  0
  130.2800  123.4070   63.2780 C   0  0  0  0  0  0  0  0  0  0  0  0
  130.8710  123.5120   64.2680 N   0  0  0  0  0  0  0  0  0  0  0  0
  130.9770  129.4530   58.2610 C   0  0  0  0  0  0  0  0  0  0  0  0
  130.9650  130.4240   57.2640 C   0  0  0  0  0  0  0  0  0  0  0  0
  127.6715  131.0649   55.7586 H   0  0  0  0  0  0  0  0  0  0  0  0
  126.8853  131.5129   54.2069 H   0  0  0  0  0  0  0  0  0  0  0  0
  128.3255  130.4394   54.2069 H   0  0  0  0  0  0  0  0  0  0  0  0
  129.6598  132.2601   54.0155 H   0  0  0  0  0  0  0  0  0  0  0  0
  128.2231  133.3365   54.0764 H   0  0  0  0  0  0  0  0  0  0  0  0
  129.3367  132.9146   58.9343 H   0  0  0  0  0  0  0  0  0  0  0  0
  129.3654  131.1876   60.7203 H   0  0  0  0  0  0  0  0  0  0  0  0
  130.3110  129.2470   61.4940 H   0  0  0  0  0  0  0  0  0  0  0  0
  131.0775  126.0400   61.9794 H   0  0  0  0  0  0  0  0  0  0  0  0
  130.4134  127.5639   62.7054 H   0  0  0  0  0  0  0  0  0  0  0  0
  125.4631  124.0503   59.3983 H   0  0  0  0  0  0  0  0  0  0  0  0
  124.0453  123.9851   57.3563 H   0  0  0  0  0  0  0  0  0  0  0  0
  124.9046  122.9155   55.2793 H   0  0  0  0  0  0  0  0  0  0  0  0
  127.1841  121.9137   55.2344 H   0  0  0  0  0  0  0  0  0  0  0  0
  128.6089  121.9842   57.2697 H   0  0  0  0  0  0  0  0  0  0  0  0
  128.7196  121.0241   59.5745 H   0  0  0  0  0  0  0  0  0  0  0  0
  131.4473  128.4768   58.0716 H   0  0  0  0  0  0  0  0  0  0  0  0
  131.4260  130.2073   56.2890 H   0  0  0  0  0  0  0  0  0  0  0  0
  1  2  1  0
  2  3  1  0
  3  4  1  0
  4  5  2  0
  4  6  1  0
  6  7  2  0
  7  8  1  0
  8  9  2  0
  9 10  1  0
 10 11  1  0
 11 12  2  0
 11 13  1  0
 13 14  1  0
 14 15  1  0
 15 16  2  0
 16 17  1  0
 17 18  1  0
 18 19  2  0
 19 20  1  0
 20 21  2  0
 21 22  1  0
 22 23  2  0
 17 24  2  0
 24 25  1  0
 25 26  1  0
 26 27  1  0
 26 28  1  0
 26 29  1  0
 25 30  2  0
 30 31  1  0
 31 32  3  0
  9 33  1  0
 33 34  2  0
 34  6  1  0
 30 15  1  0
 23 18  1  0
  1 35  1  0
  1 36  1  0
  1 37  1  0
  2 38  1  0
  2 39  1  0
  7 40  1  0
  8 41  1  0
 10 42  1  0
 13 43  1  0
 13 44  1  0
 19 45  1  0
 20 46  1  0
 21 47  1  0
 22 48  1  0
 23 49  1  0
 24 50  1  0
 33 51  1  0
 34 52  1  0
M  END
>  <Binding energies>  (1) 
[-8.65]

>  <Ligand effiencies>  (1) 
[-0.24714285714285716]

>  <Interactions>  (1) 
["V-B:TYR:539:CE2:9845, V-B:PRO:540:N:9853, V-B:PRO:540:CB:9854, V-A:LEU:475:CD1:4254, V-B:PRO:540:CA:9852, V-B:TYR:539:CD1:9842, V-B:ILE:538:CA:9829, V-B:TYR:539:C:9836, V-B:LEU:363:CD1:8157, V-B:ALA:541:CB:9861, V-B:ILE:538:CG2:9832, V-B:TYR:539:CE1:9844, V-B:ILE:538:CB:9831, V-A:LEU:475:CD2:4255, H-A:TYR:484:OH:4344, V-B:PRO:540:CD:9856, V-A:TYR:539:CE1:4872, V-A:TYR:539:C:4864, V-A:PRO:540:CA:4880, H-A:TYR:539:N:4867, V-A:PRO:540:N:4881, V-A:TYR:539:CD1:4870, V-A:ILE:538:CG2:4860, V-A:ILE:538:CA:4857, V-A:ILE:538:CD1:4862, V-A:TYR:539:CZ:4874, V-B:TYR:539:CD2:9843, H-A:GLU:543:OE1:4906, H-A:GLU:543:OE2:4907, H-A:ASP:366:OD1:3210, V-A:TYR:539:CA:4866, V-A:LEU:475:CG:4253, V-A:PRO:482:CG:4323"]

$$$$
3ab_Grossjean_2025
     RDKit          3D

 49 51  0  0  0  0  0  0  0  0999 V2000
  128.0160  122.6690   54.9790 C   0  0  0  0  0  0  0  0  0  0  0  0
  127.2440  121.9190   55.9070 O   0  0  0  0  0  0  0  0  0  0  0  0
  126.3710  122.5330   56.7470 C   0  0  0  0  0  0  0  0  0  0  0  0
  125.2380  122.8890   56.4100 O   0  0  0  0  0  0  0  0  0  0  0  0
  126.9200  122.7330   58.1300 C   0  0  0  0  0  0  0  0  0  0  0  0
  128.1450  122.1770   58.5310 C   0  0  0  0  0  0  0  0  0  0  0  0
  128.6300  122.3800   59.8200 C   0  0  0  0  0  0  0  0  0  0  0  0
  127.8930  123.1470   60.7360 C   0  0  0  0  0  0  0  0  0  0  0  0
  128.2890  123.4220   62.0590 N   0  0  0  0  0  0  0  0  0  0  0  0
  129.4430  123.1340   62.6960 C   0  0  0  0  0  0  0  0  0  0  0  0
  130.4000  122.5340   62.2060 O   0  0  0  0  0  0  0  0  0  0  0  0
  129.5270  123.6070   64.1490 C   0  0  0  0  0  0  0  0  0  0  0  0
  130.5550  125.0960   64.3250 S   0  0  0  0  0  0  0  0  0  0  0  0
  129.5500  126.3520   65.0880 C   0  0  0  0  0  0  0  0  0  0  0  0
  129.6000  126.3370   66.4410 N   0  0  0  0  0  0  0  0  0  0  0  0
  128.8850  127.2460   67.1540 C   0  0  0  0  0  0  0  0  0  0  0  0
  128.9970  127.1640   68.6480 C   0  0  0  0  0  0  0  0  0  0  0  0
  128.0150  126.5080   69.4070 C   0  0  0  0  0  0  0  0  0  0  0  0
  128.1140  126.4280   70.7940 C   0  0  0  0  0  0  0  0  0  0  0  0
  129.2000  127.0060   71.4420 C   0  0  0  0  0  0  0  0  0  0  0  0
  130.1850  127.6660   70.7140 C   0  0  0  0  0  0  0  0  0  0  0  0
  130.0820  127.7430   69.3290 C   0  0  0  0  0  0  0  0  0  0  0  0
  128.0770  128.1870   66.5080 C   0  0  0  0  0  0  0  0  0  0  0  0
  127.9930  128.2100   65.1080 C   0  0  0  0  0  0  0  0  0  0  0  0
  127.0870  129.2600   64.4350 C   0  0  0  0  0  0  0  0  0  0  0  0
  127.7270  129.9780   63.5090 F   0  0  0  0  0  0  0  0  0  0  0  0
  126.0580  128.6610   63.8350 F   0  0  0  0  0  0  0  0  0  0  0  0
  126.6190  130.1090   65.3500 F   0  0  0  0  0  0  0  0  0  0  0  0
  128.7430  127.2620   64.3690 C   0  0  0  0  0  0  0  0  0  0  0  0
  128.6480  127.2060   62.9080 C   0  0  0  0  0  0  0  0  0  0  0  0
  128.5710  127.1640   61.7540 N   0  0  0  0  0  0  0  0  0  0  0  0
  126.6780  123.7070   60.3380 C   0  0  0  0  0  0  0  0  0  0  0  0
  126.1950  123.5010   59.0500 C   0  0  0  0  0  0  0  0  0  0  0  0
  128.7009  123.3344   55.5250 H   0  0  0  0  0  0  0  0  0  0  0  0
  128.5982  121.9824   54.3468 H   0  0  0  0  0  0  0  0  0  0  0  0
  127.3465  123.2708   54.3468 H   0  0  0  0  0  0  0  0  0  0  0  0
  128.7280  121.5744   57.8190 H   0  0  0  0  0  0  0  0  0  0  0  0
  129.5917  121.9389   60.1210 H   0  0  0  0  0  0  0  0  0  0  0  0
  127.5770  123.8750   62.6140 H   0  0  0  0  0  0  0  0  0  0  0  0
  128.5119  123.8323   64.5079 H   0  0  0  0  0  0  0  0  0  0  0  0
  129.9903  122.8036   64.7406 H   0  0  0  0  0  0  0  0  0  0  0  0
  127.1539  126.0500   68.8984 H   0  0  0  0  0  0  0  0  0  0  0  0
  127.3364  125.9098   71.3743 H   0  0  0  0  0  0  0  0  0  0  0  0
  129.2809  126.9410   72.5371 H   0  0  0  0  0  0  0  0  0  0  0  0
  131.0408  128.1245   71.2311 H   0  0  0  0  0  0  0  0  0  0  0  0
  130.8627  128.2658   68.7569 H   0  0  0  0  0  0  0  0  0  0  0  0
  127.5035  128.9140   67.1017 H   0  0  0  0  0  0  0  0  0  0  0  0
  126.0984  124.3155   61.0479 H   0  0  0  0  0  0  0  0  0  0  0  0
  125.2343  123.9456   58.7510 H   0  0  0  0  0  0  0  0  0  0  0  0
  1  2  1  0
  2  3  1  0
  3  4  2  0
  3  5  1  0
  5  6  2  0
  6  7  1  0
  7  8  2  0
  8  9  1  0
  9 10  1  0
 10 11  2  0
 10 12  1  0
 12 13  1  0
 13 14  1  0
 14 15  2  0
 15 16  1  0
 16 17  1  0
 17 18  2  0
 18 19  1  0
 19 20  2  0
 20 21  1  0
 21 22  2  0
 16 23  2  0
 23 24  1  0
 24 25  1  0
 25 26  1  0
 25 27  1  0
 25 28  1  0
 24 29  2  0
 29 30  1  0
 30 31  3  0
  8 32  1  0
 32 33  2  0
 33  5  1  0
 29 14  1  0
 22 17  1  0
  1 34  1  0
  1 35  1  0
  1 36  1  0
  6 37  1  0
  7 38  1  0
  9 39  1  0
 12 40  1  0
 12 41  1  0
 18 42  1  0
 19 43  1  0
 20 44  1  0
 21 45  1  0
 22 46  1  0
 23 47  1  0
 32 48  1  0
 33 49  1  0
M  END
>  <Binding energies>  (1) 
[-8.81]

>  <Ligand effiencies>  (1) 
[-0.25911764705882356]

>  <Interactions>  (1) 
["V-B:TYR:539:CE2:9845, V-B:PRO:540:N:9853, V-B:PRO:540:CB:9854, V-B:TYR:539:CZ:9846, V-B:PRO:540:CA:9852, H-B:TYR:539:N:9839, V-B:TYR:539:CD1:9842, V-B:ILE:538:CA:9829, V-B:TYR:539:C:9836, V-B:ALA:541:CB:9861, V-B:ILE:538:CG2:9832, V-B:TYR:539:CE1:9844, V-B:GLU:543:CD:9877, V-B:ILE:538:CB:9831, V-B:GLU:543:CG:9876, H-B:GLU:543:OE2:9879, V-B:MET:535:CE:9804, V-A:GLU:543:CD:4905, V-A:HIS:456:CE1:4066, V-B:PRO:540:CD:9856, V-B:TYR:539:CG:9841, V-B:TYR:539:CD2:9843, V-B:HIS:456:CD2:9036, V-B:HIS:456:CE1:9038, V-B:GLY:544:C:9881, V-B:ARG:545:CZ:9895, V-B:GLU:543:C:9871, V-A:HIS:456:CD2:4064"]

$$$$
3ac_Grossjean_2025
     RDKit          3D

 47 49  0  0  0  0  0  0  0  0999 V2000
  128.4530  127.9470   73.3260 C   0  0  0  0  0  0  0  0  0  0  0  0
  129.5240  127.6380   72.4390 O   0  0  0  0  0  0  0  0  0  0  0  0
  129.2410  127.3140   71.1260 C   0  0  0  0  0  0  0  0  0  0  0  0
  130.0830  127.8570   70.1560 C   0  0  0  0  0  0  0  0  0  0  0  0
  129.8790  127.5830   68.8070 C   0  0  0  0  0  0  0  0  0  0  0  0
  128.8200  126.7660   68.4070 C   0  0  0  0  0  0  0  0  0  0  0  0
  128.7060  126.5300   67.0240 N   0  0  0  0  0  0  0  0  0  0  0  0
  129.6760  126.2580   66.1240 C   0  0  0  0  0  0  0  0  0  0  0  0
  130.8720  126.1240   66.3860 O   0  0  0  0  0  0  0  0  0  0  0  0
  129.2080  126.1090   64.6760 C   0  0  0  0  0  0  0  0  0  0  0  0
  130.5070  126.5570   63.4840 S   0  0  0  0  0  0  0  0  0  0  0  0
  130.8470  125.1440   62.4510 C   0  0  0  0  0  0  0  0  0  0  0  0
  129.8030  124.7980   61.6610 N   0  0  0  0  0  0  0  0  0  0  0  0
  129.9160  123.7430   60.8130 C   0  0  0  0  0  0  0  0  0  0  0  0
  128.7120  123.4210   59.9790 C   0  0  0  0  0  0  0  0  0  0  0  0
  127.4240  123.7850   60.4060 C   0  0  0  0  0  0  0  0  0  0  0  0
  126.3030  123.4950   59.6330 C   0  0  0  0  0  0  0  0  0  0  0  0
  126.4550  122.8330   58.4190 C   0  0  0  0  0  0  0  0  0  0  0  0
  127.7180  122.4570   57.9750 C   0  0  0  0  0  0  0  0  0  0  0  0
  128.8360  122.7490   58.7510 C   0  0  0  0  0  0  0  0  0  0  0  0
  131.0950  122.9930   60.7570 C   0  0  0  0  0  0  0  0  0  0  0  0
  132.1830  123.3160   61.5810 C   0  0  0  0  0  0  0  0  0  0  0  0
  133.4610  122.4590   61.4910 C   0  0  0  0  0  0  0  0  0  0  0  0
  134.5590  123.1880   61.2820 F   0  0  0  0  0  0  0  0  0  0  0  0
  133.6440  121.7820   62.6260 F   0  0  0  0  0  0  0  0  0  0  0  0
  133.3540  121.5920   60.4830 F   0  0  0  0  0  0  0  0  0  0  0  0
  132.0580  124.4140   62.4680 C   0  0  0  0  0  0  0  0  0  0  0  0
  133.1380  124.7420   63.4010 C   0  0  0  0  0  0  0  0  0  0  0  0
  133.9910  125.0000   64.1390 N   0  0  0  0  0  0  0  0  0  0  0  0
  127.9720  126.2100   69.3770 C   0  0  0  0  0  0  0  0  0  0  0  0
  128.1800  126.4860   70.7260 C   0  0  0  0  0  0  0  0  0  0  0  0
  128.7978  127.8475   74.3658 H   0  0  0  0  0  0  0  0  0  0  0  0
  128.1161  128.9790   73.1486 H   0  0  0  0  0  0  0  0  0  0  0  0
  127.6181  127.2531   73.1486 H   0  0  0  0  0  0  0  0  0  0  0  0
  130.9160  128.5079   70.4600 H   0  0  0  0  0  0  0  0  0  0  0  0
  130.5550  128.0120   68.0527 H   0  0  0  0  0  0  0  0  0  0  0  0
  127.7580  126.5180   66.6790 H   0  0  0  0  0  0  0  0  0  0  0  0
  128.9153  125.0627   64.5043 H   0  0  0  0  0  0  0  0  0  0  0  0
  128.3597  126.7924   64.5234 H   0  0  0  0  0  0  0  0  0  0  0  0
  127.2993  124.3073   61.3660 H   0  0  0  0  0  0  0  0  0  0  0  0
  125.3014  123.7881   59.9807 H   0  0  0  0  0  0  0  0  0  0  0  0
  125.5703  122.6055   57.8062 H   0  0  0  0  0  0  0  0  0  0  0  0
  127.8329  121.9315   57.0155 H   0  0  0  0  0  0  0  0  0  0  0  0
  129.8333  122.4487   58.3971 H   0  0  0  0  0  0  0  0  0  0  0  0
  131.1696  122.1438   60.0618 H   0  0  0  0  0  0  0  0  0  0  0  0
  127.1423  125.5556   69.0715 H   0  0  0  0  0  0  0  0  0  0  0  0
  127.5092  126.0528   71.4826 H   0  0  0  0  0  0  0  0  0  0  0  0
  1  2  1  0
  2  3  1  0
  3  4  2  0
  4  5  1  0
  5  6  2  0
  6  7  1  0
  7  8  1  0
  8  9  2  0
  8 10  1  0
 10 11  1  0
 11 12  1  0
 12 13  2  0
 13 14  1  0
 14 15  1  0
 15 16  2  0
 16 17  1  0
 17 18  2  0
 18 19  1  0
 19 20  2  0
 14 21  2  0
 21 22  1  0
 22 23  1  0
 23 24  1  0
 23 25  1  0
 23 26  1  0
 22 27  2  0
 27 28  1  0
 28 29  3  0
  6 30  1  0
 30 31  2  0
 31  3  1  0
 27 12  1  0
 20 15  1  0
  1 32  1  0
  1 33  1  0
  1 34  1  0
  4 35  1  0
  5 36  1  0
  7 37  1  0
 10 38  1  0
 10 39  1  0
 16 40  1  0
 17 41  1  0
 18 42  1  0
 19 43  1  0
 20 44  1  0
 21 45  1  0
 30 46  1  0
 31 47  1  0
M  END
>  <Binding energies>  (1) 
[-8.11]

>  <Ligand effiencies>  (1) 
[-0.2534375]

>  <Interactions>  (1) 
["V-B:TYR:539:CE2:9845, V-B:PRO:540:N:9853, V-B:PRO:540:CB:9854, V-B:TYR:539:CZ:9846, V-A:LEU:475:CD1:4254, V-B:PRO:540:CA:9852, V-B:TYR:539:C:9836, V-B:TYR:539:CE1:9844, V-B:GLU:543:CD:9877, V-B:GLU:543:CG:9876, V-A:ARG:545:CZ:4923, V-A:GLY:454:CA:4045, V-A:HIS:456:CE1:4066, H-A:ARG:545:NH2:4925, H-A:ARG:545:NH1:4924, H-A:ARG:545:NE:4921, V-B:GLU:543:CB:9875, H-A:GLY:454:N:4046, V-B:TYR:539:CD2:9843, H-B:GLU:543:OE1:9878, V-B:HIS:456:CD2:9036, V-A:ILE:369:CB:3232, H-A:LYS:547:NZ:4948, V-A:ILE:369:CG2:3233, V-B:HIS:456:CE1:9038, V-A:GLY:453:C:4038, V-A:ILE:369:CG1:3234, V-B:GLU:543:C:9871"]

$$$$
3ad_Grossjean_2025
     RDKit          3D

 43 45  0  0  0  0  0  0  0  0999 V2000
  130.3850  132.1460   60.7770 N   0  0  0  0  0  0  0  0  0  0  0  0
  130.4870  131.2460   60.0570 C   0  0  0  0  0  0  0  0  0  0  0  0
  130.6130  130.1030   59.1470 C   0  0  0  0  0  0  0  0  0  0  0  0
  129.7510  128.9850   59.2660 C   0  0  0  0  0  0  0  0  0  0  0  0
  128.6180  128.9140   60.3070 C   0  0  0  0  0  0  0  0  0  0  0  0
  127.7930  127.8850   60.1050 F   0  0  0  0  0  0  0  0  0  0  0  0
  129.1330  128.7830   61.5310 F   0  0  0  0  0  0  0  0  0  0  0  0
  127.8850  130.0270   60.2630 F   0  0  0  0  0  0  0  0  0  0  0  0
  129.9440  127.8970   58.4000 C   0  0  0  0  0  0  0  0  0  0  0  0
  130.9670  127.9230   57.4480 C   0  0  0  0  0  0  0  0  0  0  0  0
  131.2260  126.7820   56.5090 C   0  0  0  0  0  0  0  0  0  0  0  0
  132.5070  126.5680   55.9760 C   0  0  0  0  0  0  0  0  0  0  0  0
  132.7550  125.5110   55.1050 C   0  0  0  0  0  0  0  0  0  0  0  0
  131.7200  124.6490   54.7540 C   0  0  0  0  0  0  0  0  0  0  0  0
  130.4430  124.8370   55.2710 C   0  0  0  0  0  0  0  0  0  0  0  0
  130.2000  125.8960   56.1430 C   0  0  0  0  0  0  0  0  0  0  0  0
  131.7940  128.9940   57.3430 N   0  0  0  0  0  0  0  0  0  0  0  0
  131.6150  130.0640   58.1520 C   0  0  0  0  0  0  0  0  0  0  0  0
  132.7800  131.3780   57.8660 S   0  0  0  0  0  0  0  0  0  0  0  0
  132.5030  131.9850   56.1750 C   0  0  0  0  0  0  0  0  0  0  0  0
  131.0150  132.1130   55.8430 C   0  0  0  0  0  0  0  0  0  0  0  0
  130.4990  133.2310   55.8290 O   0  0  0  0  0  0  0  0  0  0  0  0
  130.3770  130.9520   55.5860 N   0  0  0  0  0  0  0  0  0  0  0  0
  129.0330  130.7200   55.2400 C   0  0  0  0  0  0  0  0  0  0  0  0
  128.1110  130.8250   56.2860 C   0  0  0  0  0  0  0  0  0  0  0  0
  126.7550  130.6100   56.0530 C   0  0  0  0  0  0  0  0  0  0  0  0
  126.3190  130.2850   54.7720 C   0  0  0  0  0  0  0  0  0  0  0  0
  127.2260  130.1700   53.7230 C   0  0  0  0  0  0  0  0  0  0  0  0
  128.5830  130.3840   53.9510 C   0  0  0  0  0  0  0  0  0  0  0  0
  129.2859  127.0185   58.4712 H   0  0  0  0  0  0  0  0  0  0  0  0
  133.3279  127.2465   56.2511 H   0  0  0  0  0  0  0  0  0  0  0  0
  133.7645  125.3576   54.6958 H   0  0  0  0  0  0  0  0  0  0  0  0
  131.9134  123.8145   54.0639 H   0  0  0  0  0  0  0  0  0  0  0  0
  129.6281  124.1525   54.9927 H   0  0  0  0  0  0  0  0  0  0  0  0
  129.1887  126.0403   56.5511 H   0  0  0  0  0  0  0  0  0  0  0  0
  132.9752  132.9731   56.0716 H   0  0  0  0  0  0  0  0  0  0  0  0
  132.9428  131.2560   55.4784 H   0  0  0  0  0  0  0  0  0  0  0  0
  130.9260  130.1110   55.6900 H   0  0  0  0  0  0  0  0  0  0  0  0
  128.4586  131.0788   57.2983 H   0  0  0  0  0  0  0  0  0  0  0  0
  126.0320  130.6966   56.8775 H   0  0  0  0  0  0  0  0  0  0  0  0
  125.2477  130.1175   54.5870 H   0  0  0  0  0  0  0  0  0  0  0  0
  126.8714  129.9103   52.7146 H   0  0  0  0  0  0  0  0  0  0  0  0
  129.3019  130.2903   53.1237 H   0  0  0  0  0  0  0  0  0  0  0  0
  1  2  3  0
  2  3  1  0
  3  4  2  0
  4  5  1  0
  5  6  1  0
  5  7  1  0
  5  8  1  0
  4  9  1  0
  9 10  2  0
 10 11  1  0
 11 12  2  0
 12 13  1  0
 13 14  2  0
 14 15  1  0
 15 16  2  0
 10 17  1  0
 17 18  2  0
 18 19  1  0
 19 20  1  0
 20 21  1  0
 21 22  2  0
 21 23  1  0
 23 24  1  0
 24 25  2  0
 25 26  1  0
 26 27  2  0
 27 28  1  0
 28 29  2  0
 18  3  1  0
 29 24  1  0
 16 11  1  0
  9 30  1  0
 12 31  1  0
 13 32  1  0
 14 33  1  0
 15 34  1  0
 16 35  1  0
 20 36  1  0
 20 37  1  0
 23 38  1  0
 25 39  1  0
 26 40  1  0
 27 41  1  0
 28 42  1  0
 29 43  1  0
M  END
>  <Binding energies>  (1) 
[-7.85]

>  <Ligand effiencies>  (1) 
[-0.26166666666666666]

>  <Interactions>  (1) 
["V-B:TYR:539:CE1:9844, V-B:MET:535:CE:9804, V-A:GLU:543:CD:4905, V-A:ASP:366:CB:3208, V-A:TYR:531:CE1:4789, V-A:ASP:366:C:3204, V-A:ASN:370:CG:3242, H-A:TYR:531:OH:4792, V-A:ASN:370:CB:3241, V-A:PRO:540:CB:4882, V-A:PRO:540:CA:4880, H-A:TYR:539:N:4867, V-A:LEU:363:CD1:3185, V-A:TYR:531:CZ:4791, V-A:ILE:538:CG2:4860, V-A:ILE:538:CD1:4862, V-A:TYR:531:CE2:4790, V-A:TYR:539:CZ:4874, V-B:TYR:531:CZ:9763, V-A:TYR:539:CE2:4873, H-A:ALA:541:N:4888, V-B:TYR:531:CE1:9761"]

$$$$
3af_Grossjean_2025
     RDKit          3D

 42 44  0  0  0  0  0  0  0  0999 V2000
  130.6500  126.7680   54.7330 N   0  0  0  0  0  0  0  0  0  0  0  0
  129.8640  127.3580   55.3440 C   0  0  0  0  0  0  0  0  0  0  0  0
  128.8670  128.1030   56.1170 C   0  0  0  0  0  0  0  0  0  0  0  0
  128.4230  127.6260   57.3740 C   0  0  0  0  0  0  0  0  0  0  0  0
  128.9820  126.3430   58.0220 C   0  0  0  0  0  0  0  0  0  0  0  0
  128.7780  125.2550   57.2770 F   0  0  0  0  0  0  0  0  0  0  0  0
  130.2980  126.4630   58.2070 F   0  0  0  0  0  0  0  0  0  0  0  0
  128.3970  126.1330   59.2020 F   0  0  0  0  0  0  0  0  0  0  0  0
  127.4280  128.3460   58.0530 C   0  0  0  0  0  0  0  0  0  0  0  0
  126.8900  129.5090   57.4910 C   0  0  0  0  0  0  0  0  0  0  0  0
  125.8130  130.3060   58.1630 C   0  0  0  0  0  0  0  0  0  0  0  0
  124.6610  130.6920   57.4590 C   0  0  0  0  0  0  0  0  0  0  0  0
  123.6560  131.4300   58.0780 C   0  0  0  0  0  0  0  0  0  0  0  0
  123.7890  131.7920   59.4140 C   0  0  0  0  0  0  0  0  0  0  0  0
  124.9190  131.4190   60.1360 C   0  0  0  0  0  0  0  0  0  0  0  0
  125.9210  130.6810   59.5130 C   0  0  0  0  0  0  0  0  0  0  0  0
  127.3160  129.9610   56.2840 N   0  0  0  0  0  0  0  0  0  0  0  0
  128.2920  129.2950   55.6210 C   0  0  0  0  0  0  0  0  0  0  0  0
  128.7280  130.0470   54.0660 S   0  0  0  0  0  0  0  0  0  0  0  0
  128.9100  131.8360   54.3370 C   0  0  0  0  0  0  0  0  0  0  0  0
  129.6470  132.1410   55.6410 C   0  0  0  0  0  0  0  0  0  0  0  0
  129.4300  133.2070   56.2160 O   0  0  0  0  0  0  0  0  0  0  0  0
  130.5050  131.1850   56.0580 N   0  0  0  0  0  0  0  0  0  0  0  0
  131.3330  131.1560   57.1970 C   0  0  0  0  0  0  0  0  0  0  0  0
  130.9050  131.3120   58.5280 C   0  0  0  0  0  0  0  0  0  0  0  0
  131.8400  131.2640   59.5650 C   0  0  0  0  0  0  0  0  0  0  0  0
  133.1830  131.0600   59.2450 C   0  0  0  0  0  0  0  0  0  0  0  0
  133.6210  130.9060   57.9710 N   0  0  0  0  0  0  0  0  0  0  0  0
  132.7000  130.9550   56.9750 C   0  0  0  0  0  0  0  0  0  0  0  0
  127.0693  127.9944   59.0316 H   0  0  0  0  0  0  0  0  0  0  0  0
  124.5510  130.4069   56.4023 H   0  0  0  0  0  0  0  0  0  0  0  0
  122.7601  131.7257   57.5124 H   0  0  0  0  0  0  0  0  0  0  0  0
  122.9962  132.3768   59.9033 H   0  0  0  0  0  0  0  0  0  0  0  0
  125.0195  131.7059   61.1931 H   0  0  0  0  0  0  0  0  0  0  0  0
  126.8121  130.3864   60.0867 H   0  0  0  0  0  0  0  0  0  0  0  0
  129.4767  132.2672   53.4986 H   0  0  0  0  0  0  0  0  0  0  0  0
  127.9039  132.2758   54.4022 H   0  0  0  0  0  0  0  0  0  0  0  0
  130.5660  130.3600   55.4800 H   0  0  0  0  0  0  0  0  0  0  0  0
  129.8397  131.4710   58.7511 H   0  0  0  0  0  0  0  0  0  0  0  0
  131.5242  131.3845   60.6118 H   0  0  0  0  0  0  0  0  0  0  0  0
  133.9185  131.0225   60.0621 H   0  0  0  0  0  0  0  0  0  0  0  0
  133.0465  130.8301   55.9385 H   0  0  0  0  0  0  0  0  0  0  0  0
  1  2  3  0
  2  3  1  0
  3  4  2  0
  4  5  1  0
  5  6  1  0
  5  7  1  0
  5  8  1  0
  4  9  1  0
  9 10  2  0
 10 11  1  0
 11 12  2  0
 12 13  1  0
 13 14  2  0
 14 15  1  0
 15 16  2  0
 10 17  1  0
 17 18  2  0
 18 19  1  0
 19 20  1  0
 20 21  1  0
 21 22  2  0
 21 23  1  0
 23 24  1  0
 24 25  2  0
 25 26  1  0
 26 27  2  0
 27 28  1  0
 28 29  2  0
 18  3  1  0
 29 24  1  0
 16 11  1  0
  9 30  1  0
 12 31  1  0
 13 32  1  0
 14 33  1  0
 15 34  1  0
 16 35  1  0
 20 36  1  0
 20 37  1  0
 23 38  1  0
 25 39  1  0
 26 40  1  0
 27 41  1  0
 29 42  1  0
M  END
>  <Binding energies>  (1) 
[-7.22]

>  <Ligand effiencies>  (1) 
[-0.24066666666666667]

>  <Interactions>  (1) 
["V-B:MET:535:CE:9804, H-A:TYR:531:OH:4792, V-A:PRO:540:CB:4882, V-A:PRO:540:CA:4880, H-A:TYR:539:N:4867, V-A:LEU:363:CD1:3185, V-A:ILE:538:CD1:4862, V-B:ASP:366:CB:8180, V-A:MET:535:CE:4832, V-A:LEU:363:CA:3181, V-A:TYR:539:CE2:4873, V-B:ASP:366:CG:8181, V-B:ILE:369:CG2:8205, V-B:ILE:369:CD1:8207, V-A:ASN:362:C:3168, V-B:ASP:366:CA:8178, V-B:ILE:369:CB:8204, H-A:LEU:363:N:3182, V-B:ASP:366:C:8176"]

$$$$
3ag_Grossjean_2025
     RDKit          3D

 46 48  0  0  0  0  0  0  0  0999 V2000
  130.9690  126.6790   54.9380 N   0  0  0  0  0  0  0  0  0  0  0  0
  130.1600  127.2800   55.5080 C   0  0  0  0  0  0  0  0  0  0  0  0
  129.1360  128.0370   56.2340 C   0  0  0  0  0  0  0  0  0  0  0  0
  128.7490  127.6610   57.5430 C   0  0  0  0  0  0  0  0  0  0  0  0
  129.4050  126.4900   58.3010 C   0  0  0  0  0  0  0  0  0  0  0  0
  130.7270  126.6270   58.4200 F   0  0  0  0  0  0  0  0  0  0  0  0
  128.8970  126.4040   59.5300 F   0  0  0  0  0  0  0  0  0  0  0  0
  129.1800  125.3430   57.6580 F   0  0  0  0  0  0  0  0  0  0  0  0
  127.7260  128.3850   58.1740 C   0  0  0  0  0  0  0  0  0  0  0  0
  127.1000  129.4470   57.5130 C   0  0  0  0  0  0  0  0  0  0  0  0
  126.0020  130.2520   58.1380 C   0  0  0  0  0  0  0  0  0  0  0  0
  124.8880  130.6540   57.3840 C   0  0  0  0  0  0  0  0  0  0  0  0
  123.8640  131.4030   57.9580 C   0  0  0  0  0  0  0  0  0  0  0  0
  123.9410  131.7610   59.3000 C   0  0  0  0  0  0  0  0  0  0  0  0
  125.0350  131.3780   60.0700 C   0  0  0  0  0  0  0  0  0  0  0  0
  126.0570  130.6310   59.4920 C   0  0  0  0  0  0  0  0  0  0  0  0
  127.4830  129.8130   56.2630 N   0  0  0  0  0  0  0  0  0  0  0  0
  128.4820  129.1400   55.6420 C   0  0  0  0  0  0  0  0  0  0  0  0
  128.8510  129.7590   54.0150 S   0  0  0  0  0  0  0  0  0  0  0  0
  128.5900  131.5580   54.0470 C   0  0  0  0  0  0  0  0  0  0  0  0
  129.5090  132.2570   55.0500 C   0  0  0  0  0  0  0  0  0  0  0  0
  129.0990  133.2320   55.6820 O   0  0  0  0  0  0  0  0  0  0  0  0
  130.7440  131.7430   55.1880 N   0  0  0  0  0  0  0  0  0  0  0  0
  131.7670  132.2310   56.1110 C   0  0  0  0  0  0  0  0  0  0  0  0
  131.6520  131.6650   57.5230 C   0  0  0  0  0  0  0  0  0  0  0  0
  130.3940  131.5340   58.1180 C   0  0  0  0  0  0  0  0  0  0  0  0
  130.2820  130.9910   59.3950 C   0  0  0  0  0  0  0  0  0  0  0  0
  131.4270  130.5710   60.0680 C   0  0  0  0  0  0  0  0  0  0  0  0
  132.6830  130.6840   59.4750 C   0  0  0  0  0  0  0  0  0  0  0  0
  132.7950  131.2270   58.1980 C   0  0  0  0  0  0  0  0  0  0  0  0
  127.4146  128.1159   59.1941 H   0  0  0  0  0  0  0  0  0  0  0  0
  124.8230  130.3727   56.3226 H   0  0  0  0  0  0  0  0  0  0  0  0
  122.9982  131.7102   57.3530 H   0  0  0  0  0  0  0  0  0  0  0  0
  123.1318  132.3507   59.7555 H   0  0  0  0  0  0  0  0  0  0  0  0
  125.0917  131.6644   61.1306 H   0  0  0  0  0  0  0  0  0  0  0  0
  126.9214  130.3321   60.1032 H   0  0  0  0  0  0  0  0  0  0  0  0
  128.7879  131.9626   53.0434 H   0  0  0  0  0  0  0  0  0  0  0  0
  127.5504  131.7431   54.3553 H   0  0  0  0  0  0  0  0  0  0  0  0
  130.9930  130.9360   54.6350 H   0  0  0  0  0  0  0  0  0  0  0  0
  132.7538  131.9583   55.7087 H   0  0  0  0  0  0  0  0  0  0  0  0
  131.6278  133.3191   56.1928 H   0  0  0  0  0  0  0  0  0  0  0  0
  129.4930  131.8598   57.5776 H   0  0  0  0  0  0  0  0  0  0  0  0
  129.2946  130.8941   59.8700 H   0  0  0  0  0  0  0  0  0  0  0  0
  131.3388  130.1455   61.0785 H   0  0  0  0  0  0  0  0  0  0  0  0
  133.5810  130.3460   60.0129 H   0  0  0  0  0  0  0  0  0  0  0  0
  133.7824  131.3113   57.7205 H   0  0  0  0  0  0  0  0  0  0  0  0
  1  2  3  0
  2  3  1  0
  3  4  2  0
  4  5  1  0
  5  6  1  0
  5  7  1  0
  5  8  1  0
  4  9  1  0
  9 10  2  0
 10 11  1  0
 11 12  2  0
 12 13  1  0
 13 14  2  0
 14 15  1  0
 15 16  2  0
 10 17  1  0
 17 18  2  0
 18 19  1  0
 19 20  1  0
 20 21  1  0
 21 22  2  0
 21 23  1  0
 23 24  1  0
 24 25  1  0
 25 26  2  0
 26 27  1  0
 27 28  2  0
 28 29  1  0
 29 30  2  0
 18  3  1  0
 30 25  1  0
 16 11  1  0
  9 31  1  0
 12 32  1  0
 13 33  1  0
 14 34  1  0
 15 35  1  0
 16 36  1  0
 20 37  1  0
 20 38  1  0
 23 39  1  0
 24 40  1  0
 24 41  1  0
 26 42  1  0
 27 43  1  0
 28 44  1  0
 29 45  1  0
 30 46  1  0
M  END
>  <Binding energies>  (1) 
[-7.7]

>  <Ligand effiencies>  (1) 
[-0.24838709677419354]

>  <Interactions>  (1) 
["V-B:MET:535:CE:9804, V-A:ASP:366:CG:3209, H-A:TYR:531:OH:4792, V-A:PRO:540:CB:4882, V-A:PRO:540:CA:4880, H-A:TYR:539:N:4867, V-A:LEU:363:CD1:3185, V-A:PRO:540:N:4881, V-A:TYR:531:CZ:4791, V-A:ILE:538:CG2:4860, V-A:ILE:538:CA:4857, V-A:ILE:538:CD1:4862, V-B:ASP:366:CB:8180, V-A:LEU:363:CA:3181, V-A:TYR:539:CE2:4873, V-B:ASP:366:CG:8181, V-B:ILE:369:CG2:8205, V-B:ILE:369:CD1:8207, V-B:ASP:366:CA:8178, V-B:ILE:369:CB:8204, V-A:PRO:540:CD:4884, V-B:ASP:366:C:8176"]

$$$$
3ai_Grossjean_2025
     RDKit          3D

 39 41  0  0  0  0  0  0  0  0999 V2000
  130.2890  132.1800   60.7330 N   0  0  0  0  0  0  0  0  0  0  0  0
  130.3870  131.2750   60.0180 C   0  0  0  0  0  0  0  0  0  0  0  0
  130.5110  130.1280   59.1130 C   0  0  0  0  0  0  0  0  0  0  0  0
  129.6450  129.0140   59.2340 C   0  0  0  0  0  0  0  0  0  0  0  0
  128.5090  128.9530   60.2730 C   0  0  0  0  0  0  0  0  0  0  0  0
  127.8140  130.0900   60.3490 F   0  0  0  0  0  0  0  0  0  0  0  0
  127.6540  127.9790   59.9560 F   0  0  0  0  0  0  0  0  0  0  0  0
  129.0090  128.7110   61.4850 F   0  0  0  0  0  0  0  0  0  0  0  0
  129.8340  127.9210   58.3750 C   0  0  0  0  0  0  0  0  0  0  0  0
  130.8600  127.9380   57.4240 C   0  0  0  0  0  0  0  0  0  0  0  0
  131.1150  126.7940   56.4890 C   0  0  0  0  0  0  0  0  0  0  0  0
  130.0580  125.9880   56.0390 C   0  0  0  0  0  0  0  0  0  0  0  0
  130.2860  124.9270   55.1660 C   0  0  0  0  0  0  0  0  0  0  0  0
  131.5790  124.6590   54.7300 C   0  0  0  0  0  0  0  0  0  0  0  0
  132.6440  125.4440   55.1600 C   0  0  0  0  0  0  0  0  0  0  0  0
  132.4120  126.5040   56.0310 C   0  0  0  0  0  0  0  0  0  0  0  0
  131.6930  129.0040   57.3180 N   0  0  0  0  0  0  0  0  0  0  0  0
  131.5150  130.0820   58.1190 C   0  0  0  0  0  0  0  0  0  0  0  0
  132.6850  131.3900   57.8200 S   0  0  0  0  0  0  0  0  0  0  0  0
  132.3040  132.1210   56.1920 C   0  0  0  0  0  0  0  0  0  0  0  0
  130.8110  132.1720   55.8380 C   0  0  0  0  0  0  0  0  0  0  0  0
  130.1950  133.2410   55.8540 O   0  0  0  0  0  0  0  0  0  0  0  0
  130.2640  130.9770   55.5210 N   0  0  0  0  0  0  0  0  0  0  0  0
  128.9480  130.7240   55.1570 C   0  0  0  0  0  0  0  0  0  0  0  0
  128.1050  129.8820   55.8810 C   0  0  0  0  0  0  0  0  0  0  0  0
  126.9110  129.8970   55.1990 C   0  0  0  0  0  0  0  0  0  0  0  0
  127.0270  130.7070   54.1200 O   0  0  0  0  0  0  0  0  0  0  0  0
  128.3230  131.2250   54.1040 N   0  0  0  0  0  0  0  0  0  0  0  0
  129.1718  127.0458   58.4496 H   0  0  0  0  0  0  0  0  0  0  0  0
  129.0337  126.1974   56.3810 H   0  0  0  0  0  0  0  0  0  0  0  0
  129.4470  124.3038   54.8229 H   0  0  0  0  0  0  0  0  0  0  0  0
  131.7608  123.8211   54.0409 H   0  0  0  0  0  0  0  0  0  0  0  0
  133.6651  125.2276   54.8129 H   0  0  0  0  0  0  0  0  0  0  0  0
  133.2562  127.1244   56.3662 H   0  0  0  0  0  0  0  0  0  0  0  0
  132.6930  133.1499   56.1803 H   0  0  0  0  0  0  0  0  0  0  0  0
  132.7757  131.4677   55.4432 H   0  0  0  0  0  0  0  0  0  0  0  0
  130.8700  130.1700   55.5450 H   0  0  0  0  0  0  0  0  0  0  0  0
  128.3435  129.3257   56.7995 H   0  0  0  0  0  0  0  0  0  0  0  0
  126.0063  129.3401   55.4843 H   0  0  0  0  0  0  0  0  0  0  0  0
  1  2  3  0
  2  3  1  0
  3  4  2  0
  4  5  1  0
  5  6  1  0
  5  7  1  0
  5  8  1  0
  4  9  1  0
  9 10  2  0
 10 11  1  0
 11 12  2  0
 12 13  1  0
 13 14  2  0
 14 15  1  0
 15 16  2  0
 10 17  1  0
 17 18  2  0
 18 19  1  0
 19 20  1  0
 20 21  1  0
 21 22  2  0
 21 23  1  0
 23 24  1  0
 24 25  1  0
 25 26  2  0
 26 27  1  0
 27 28  1  0
 18  3  1  0
 28 24  2  0
 16 11  1  0
  9 29  1  0
 12 30  1  0
 13 31  1  0
 14 32  1  0
 15 33  1  0
 16 34  1  0
 20 35  1  0
 20 36  1  0
 23 37  1  0
 25 38  1  0
 26 39  1  0
M  END
>  <Binding energies>  (1) 
[-7.42]

>  <Ligand effiencies>  (1) 
[-0.2558620689655172]

>  <Interactions>  (1) 
["V-B:TYR:539:CE1:9844, V-B:MET:535:CE:9804, V-A:GLU:543:CD:4905, V-A:ASP:366:CB:3208, V-A:TYR:531:CE1:4789, V-A:ASP:366:C:3204, V-A:ASN:370:CG:3242, H-A:TYR:531:OH:4792, V-A:ASN:370:CB:3241, H-A:TYR:539:OH:4875, V-A:PRO:540:CB:4882, V-A:PRO:540:CA:4880, H-A:TYR:539:N:4867, V-A:LEU:363:CD1:3185, V-A:PRO:540:N:4881, H-B:LYS:534:NZ:9792, V-A:TYR:531:CZ:4791, V-A:ILE:538:CG2:4860, V-A:ILE:538:CD1:4862, H-A:ALA:541:N:4888, V-B:TYR:531:CE1:9761, V-A:PRO:540:CD:4884"]

$$$$
3aj_Grossjean_2025
     RDKit          3D

 39 41  0  0  0  0  0  0  0  0999 V2000
  130.9570  132.1230   60.9080 N   0  0  0  0  0  0  0  0  0  0  0  0
  130.9680  131.2220   60.1810 C   0  0  0  0  0  0  0  0  0  0  0  0
  130.9800  130.0810   59.2620 C   0  0  0  0  0  0  0  0  0  0  0  0
  130.1690  128.9450   59.5070 C   0  0  0  0  0  0  0  0  0  0  0  0
  129.2080  128.8530   60.7080 C   0  0  0  0  0  0  0  0  0  0  0  0
  129.8090  128.4240   61.8200 F   0  0  0  0  0  0  0  0  0  0  0  0
  128.6880  130.0530   60.9690 F   0  0  0  0  0  0  0  0  0  0  0  0
  128.2180  128.0030   60.4360 F   0  0  0  0  0  0  0  0  0  0  0  0
  130.2530  127.8590   58.6230 C   0  0  0  0  0  0  0  0  0  0  0  0
  131.1220  127.9030   57.5280 C   0  0  0  0  0  0  0  0  0  0  0  0
  131.2570  126.7680   56.5590 C   0  0  0  0  0  0  0  0  0  0  0  0
  130.1370  126.0120   56.1810 C   0  0  0  0  0  0  0  0  0  0  0  0
  130.2540  124.9580   55.2770 C   0  0  0  0  0  0  0  0  0  0  0  0
  131.4990  124.6450   54.7400 C   0  0  0  0  0  0  0  0  0  0  0  0
  132.6240  125.3800   55.0980 C   0  0  0  0  0  0  0  0  0  0  0  0
  132.5020  126.4330   56.0000 C   0  0  0  0  0  0  0  0  0  0  0  0
  131.9020  128.9900   57.3010 N   0  0  0  0  0  0  0  0  0  0  0  0
  131.8220  130.0610   58.1270 C   0  0  0  0  0  0  0  0  0  0  0  0
  132.9000  131.3990   57.6600 S   0  0  0  0  0  0  0  0  0  0  0  0
  132.2700  132.1060   56.1000 C   0  0  0  0  0  0  0  0  0  0  0  0
  130.7450  132.0490   55.9300 C   0  0  0  0  0  0  0  0  0  0  0  0
  130.0650  133.0760   55.9830 O   0  0  0  0  0  0  0  0  0  0  0  0
  130.2470  130.8100   55.7220 N   0  0  0  0  0  0  0  0  0  0  0  0
  128.9130  130.4740   55.5310 C   0  0  0  0  0  0  0  0  0  0  0  0
  128.1580  129.7020   56.2830 N   0  0  0  0  0  0  0  0  0  0  0  0
  126.9340  129.6040   55.8040 C   0  0  0  0  0  0  0  0  0  0  0  0
  126.6740  130.3100   54.6320 C   0  0  0  0  0  0  0  0  0  0  0  0
  128.1190  131.1410   54.1400 S   0  0  0  0  0  0  0  0  0  0  0  0
  129.6315  126.9673   58.7921 H   0  0  0  0  0  0  0  0  0  0  0  0
  129.1514  126.2551   56.6048 H   0  0  0  0  0  0  0  0  0  0  0  0
  129.3661  124.3760   54.9892 H   0  0  0  0  0  0  0  0  0  0  0  0
  131.5938  123.8116   54.0284 H   0  0  0  0  0  0  0  0  0  0  0  0
  133.6061  125.1302   54.6701 H   0  0  0  0  0  0  0  0  0  0  0  0
  133.3944  127.0122   56.2797 H   0  0  0  0  0  0  0  0  0  0  0  0
  132.5791  133.1607   56.0541 H   0  0  0  0  0  0  0  0  0  0  0  0
  132.6923  131.4911   55.2916 H   0  0  0  0  0  0  0  0  0  0  0  0
  130.9020  130.0430   55.6920 H   0  0  0  0  0  0  0  0  0  0  0  0
  126.1618  128.9990   56.3016 H   0  0  0  0  0  0  0  0  0  0  0  0
  125.7099  130.3373   54.1032 H   0  0  0  0  0  0  0  0  0  0  0  0
  1  2  3  0
  2  3  1  0
  3  4  2  0
  4  5  1  0
  5  6  1  0
  5  7  1  0
  5  8  1  0
  4  9  1  0
  9 10  2  0
 10 11  1  0
 11 12  2  0
 12 13  1  0
 13 14  2  0
 14 15  1  0
 15 16  2  0
 10 17  1  0
 17 18  2  0
 18 19  1  0
 19 20  1  0
 20 21  1  0
 21 22  2  0
 21 23  1  0
 23 24  1  0
 24 25  2  0
 25 26  1  0
 26 27  2  0
 27 28  1  0
 18  3  1  0
 28 24  1  0
 16 11  1  0
  9 29  1  0
 12 30  1  0
 13 31  1  0
 14 32  1  0
 15 33  1  0
 16 34  1  0
 20 35  1  0
 20 36  1  0
 23 37  1  0
 26 38  1  0
 27 39  1  0
M  END
>  <Binding energies>  (1) 
[-7.43]

>  <Ligand effiencies>  (1) 
[-0.25620689655172413]

>  <Interactions>  (1) 
["V-B:TYR:539:CE1:9844, V-B:MET:535:CE:9804, V-A:GLU:543:CD:4905, V-A:ASP:366:CB:3208, V-A:TYR:531:CE1:4789, V-A:ASP:366:C:3204, V-A:ASN:370:CG:3242, H-A:TYR:531:OH:4792, V-A:ASN:370:CB:3241, V-A:PRO:540:CB:4882, V-A:PRO:540:CA:4880, H-A:TYR:539:N:4867, V-A:LEU:363:CD1:3185, V-A:PRO:540:N:4881, V-A:TYR:531:CZ:4791, V-A:ILE:538:CG2:4860, V-A:ILE:538:CD1:4862, H-A:ALA:541:N:4888, V-B:TYR:531:CE1:9761, V-A:PRO:540:CD:4884"]

$$$$
3ak_Grossjean_2025
     RDKit          3D

 57 58  0  0  0  0  0  0  0  0999 V2000
  130.4900  132.1510   56.1760 C   0  0  0  0  0  0  0  0  0  0  0  0
  129.9410  133.1170   55.2930 O   0  0  0  0  0  0  0  0  0  0  0  0
  128.7320  132.6970   54.6760 C   0  0  0  0  0  0  0  0  0  0  0  0
  128.4660  131.2320   55.0440 C   0  0  0  0  0  0  0  0  0  0  0  0
  128.4270  130.4550   53.8520 O   0  0  0  0  0  0  0  0  0  0  0  0
  129.0970  129.1990   53.9130 C   0  0  0  0  0  0  0  0  0  0  0  0
  129.2160  128.6290   55.3390 C   0  0  0  0  0  0  0  0  0  0  0  0
  130.0400  127.4720   55.3120 O   0  0  0  0  0  0  0  0  0  0  0  0
  130.7110  127.2140   56.5380 C   0  0  0  0  0  0  0  0  0  0  0  0
  130.6780  125.7080   56.8560 C   0  0  0  0  0  0  0  0  0  0  0  0
  129.8380  124.9350   55.9390 N   0  0  0  0  0  0  0  0  0  0  0  0
  130.2780  124.1140   54.9660 C   0  0  0  0  0  0  0  0  0  0  0  0
  131.4750  123.9120   54.7550 O   0  0  0  0  0  0  0  0  0  0  0  0
  129.2470  123.3960   54.0790 C   0  0  0  0  0  0  0  0  0  0  0  0
  128.2670  122.0690   54.8740 S   0  0  0  0  0  0  0  0  0  0  0  0
  127.7270  122.6380   56.4790 C   0  0  0  0  0  0  0  0  0  0  0  0
  128.6650  122.6080   57.4580 N   0  0  0  0  0  0  0  0  0  0  0  0
  128.3490  123.0150   58.7130 C   0  0  0  0  0  0  0  0  0  0  0  0
  129.4470  122.9490   59.7330 C   0  0  0  0  0  0  0  0  0  0  0  0
  130.5050  123.8710   59.7080 C   0  0  0  0  0  0  0  0  0  0  0  0
  131.5250  123.8170   60.6540 C   0  0  0  0  0  0  0  0  0  0  0  0
  131.4990  122.8380   61.6420 C   0  0  0  0  0  0  0  0  0  0  0  0
  130.4610  121.9150   61.6910 C   0  0  0  0  0  0  0  0  0  0  0  0
  129.4420  121.9720   60.7440 C   0  0  0  0  0  0  0  0  0  0  0  0
  127.0650  123.4840   59.0130 C   0  0  0  0  0  0  0  0  0  0  0  0
  126.0770  123.5270   58.0190 C   0  0  0  0  0  0  0  0  0  0  0  0
  124.6740  124.0470   58.3880 C   0  0  0  0  0  0  0  0  0  0  0  0
  124.3930  125.1430   57.6830 F   0  0  0  0  0  0  0  0  0  0  0  0
  123.7560  123.1160   58.1230 F   0  0  0  0  0  0  0  0  0  0  0  0
  124.5610  124.3620   59.6800 F   0  0  0  0  0  0  0  0  0  0  0  0
  126.4110  123.0910   56.7140 C   0  0  0  0  0  0  0  0  0  0  0  0
  125.4180  123.1140   55.6350 C   0  0  0  0  0  0  0  0  0  0  0  0
  124.6340  123.1300   54.7830 N   0  0  0  0  0  0  0  0  0  0  0  0
  130.3130  132.4624   57.2160 H   0  0  0  0  0  0  0  0  0  0  0  0
  130.0104  131.1772   55.9982 H   0  0  0  0  0  0  0  0  0  0  0  0
  131.5721  132.0647   55.9982 H   0  0  0  0  0  0  0  0  0  0  0  0
  127.9001  133.3232   55.0307 H   0  0  0  0  0  0  0  0  0  0  0  0
  128.8184  132.7959   53.5839 H   0  0  0  0  0  0  0  0  0  0  0  0
  129.2703  130.8641   55.6980 H   0  0  0  0  0  0  0  0  0  0  0  0
  127.5050  131.1500   55.5729 H   0  0  0  0  0  0  0  0  0  0  0  0
  128.5402  128.4781   53.2963 H   0  0  0  0  0  0  0  0  0  0  0  0
  130.1209  129.3628   53.5460 H   0  0  0  0  0  0  0  0  0  0  0  0
  129.6641  129.3845   56.0011 H   0  0  0  0  0  0  0  0  0  0  0  0
  128.2172  128.3629   55.7153 H   0  0  0  0  0  0  0  0  0  0  0  0
  131.7568  127.5452   56.4565 H   0  0  0  0  0  0  0  0  0  0  0  0
  130.2050  127.7625   57.3462 H   0  0  0  0  0  0  0  0  0  0  0  0
  131.7050  125.3179   56.7999 H   0  0  0  0  0  0  0  0  0  0  0  0
  130.2443  125.5993   57.8610 H   0  0  0  0  0  0  0  0  0  0  0  0
  128.8400  125.0320   56.0630 H   0  0  0  0  0  0  0  0  0  0  0  0
  128.5423  124.1536   53.7056 H   0  0  0  0  0  0  0  0  0  0  0  0
  129.8356  122.8940   53.2970 H   0  0  0  0  0  0  0  0  0  0  0  0
  130.5286  124.6477   58.9294 H   0  0  0  0  0  0  0  0  0  0  0  0
  132.3483  124.5457   60.6203 H   0  0  0  0  0  0  0  0  0  0  0  0
  132.3051  122.7941   62.3892 H   0  0  0  0  0  0  0  0  0  0  0  0
  130.4447  121.1430   62.4744 H   0  0  0  0  0  0  0  0  0  0  0  0
  128.6206  121.2416   60.7875 H   0  0  0  0  0  0  0  0  0  0  0  0
  126.8298  123.8205   60.0335 H   0  0  0  0  0  0  0  0  0  0  0  0
  1  2  1  0
  2  3  1  0
  3  4  1  0
  4  5  1  0
  5  6  1  0
  6  7  1  0
  7  8  1  0
  8  9  1  0
  9 10  1  0
 10 11  1  0
 11 12  1  0
 12 13  2  0
 12 14  1  0
 14 15  1  0
 15 16  1  0
 16 17  2  0
 17 18  1  0
 18 19  1  0
 19 20  2  0
 20 21  1  0
 21 22  2  0
 22 23  1  0
 23 24  2  0
 18 25  2  0
 25 26  1  0
 26 27  1  0
 27 28  1  0
 27 29  1  0
 27 30  1  0
 26 31  2  0
 31 32  1  0
 32 33  3  0
 31 16  1  0
 24 19  1  0
  1 34  1  0
  1 35  1  0
  1 36  1  0
  3 37  1  0
  3 38  1  0
  4 39  1  0
  4 40  1  0
  6 41  1  0
  6 42  1  0
  7 43  1  0
  7 44  1  0
  9 45  1  0
  9 46  1  0
 10 47  1  0
 10 48  1  0
 11 49  1  0
 14 50  1  0
 14 51  1  0
 20 52  1  0
 21 53  1  0
 22 54  1  0
 23 55  1  0
 24 56  1  0
 25 57  1  0
M  END
>  <Binding energies>  (1) 
[-7.4]

>  <Ligand effiencies>  (1) 
[-0.21764705882352942]

>  <Interactions>  (1) 
["V-B:TYR:539:CE2:9845, V-B:PRO:540:CB:9854, V-B:TYR:539:CZ:9846, V-A:LEU:475:CD1:4254, V-B:PRO:540:CA:9852, H-B:TYR:539:N:9839, V-B:TYR:539:CD1:9842, V-B:LEU:363:CD1:8157, V-B:ALA:541:CB:9861, V-B:ILE:538:CG2:9832, V-B:TYR:539:CE1:9844, V-B:ILE:538:CB:9831, V-B:MET:535:CE:9804, H-B:TYR:539:OH:9847, H-A:TYR:531:OH:4792, V-B:LEU:363:CA:8153, V-A:TYR:539:CE1:4872, V-A:TYR:539:C:4864, H-A:TYR:539:N:4867, V-A:PRO:540:N:4881, V-A:TYR:539:CD1:4870, V-A:TYR:531:CZ:4791, V-A:ILE:538:CA:4857, V-A:ILE:538:CD1:4862, V-A:TYR:539:CZ:4874, V-B:TYR:531:CZ:9763, V-B:TYR:531:CE2:9762, V-A:MET:535:CE:4832, V-B:TYR:539:CD2:9843, V-A:TYR:539:CE2:4873, V-A:TYR:539:CG:4869, V-B:LEU:363:CB:8155, V-B:PRO:540:CG:9855, V-B:LEU:363:CG:8156"]

$$$$
3bc_Grossjean_2025
     RDKit          3D

 47 49  0  0  0  0  0  0  0  0999 V2000
  128.2710  127.8770   73.1460 C   0  0  0  0  0  0  0  0  0  0  0  0
  129.5130  127.6320   72.4940 O   0  0  0  0  0  0  0  0  0  0  0  0
  129.5200  127.3740   71.1360 C   0  0  0  0  0  0  0  0  0  0  0  0
  128.5800  126.4530   70.6730 C   0  0  0  0  0  0  0  0  0  0  0  0
  128.5120  126.1290   69.3210 C   0  0  0  0  0  0  0  0  0  0  0  0
  129.3920  126.7180   68.4110 C   0  0  0  0  0  0  0  0  0  0  0  0
  129.2390  126.3380   67.0650 N   0  0  0  0  0  0  0  0  0  0  0  0
  130.1820  126.1810   66.1110 C   0  0  0  0  0  0  0  0  0  0  0  0
  131.3940  126.3190   66.2930 O   0  0  0  0  0  0  0  0  0  0  0  0
  129.6410  125.7650   64.7360 C   0  0  0  0  0  0  0  0  0  0  0  0
  129.7680  123.9830   64.3600 S   0  0  0  0  0  0  0  0  0  0  0  0
  130.3420  123.8210   62.6840 C   0  0  0  0  0  0  0  0  0  0  0  0
  129.3490  123.6110   61.7850 N   0  0  0  0  0  0  0  0  0  0  0  0
  129.6470  123.4720   60.4670 C   0  0  0  0  0  0  0  0  0  0  0  0
  128.4940  123.2210   59.5410 C   0  0  0  0  0  0  0  0  0  0  0  0
  128.6940  122.6030   58.2980 C   0  0  0  0  0  0  0  0  0  0  0  0
  127.6290  122.3670   57.4330 C   0  0  0  0  0  0  0  0  0  0  0  0
  126.3440  122.7500   57.8030 C   0  0  0  0  0  0  0  0  0  0  0  0
  126.1180  123.3680   59.0280 C   0  0  0  0  0  0  0  0  0  0  0  0
  127.1870  123.6030   59.8890 C   0  0  0  0  0  0  0  0  0  0  0  0
  130.9700  123.5400   60.0190 C   0  0  0  0  0  0  0  0  0  0  0  0
  132.0050  123.7790   60.9310 C   0  0  0  0  0  0  0  0  0  0  0  0
  133.4330  123.8640   60.3940 C   0  0  0  0  0  0  0  0  0  0  0  0
  131.6970  123.9360   62.2990 C   0  0  0  0  0  0  0  0  0  0  0  0
  132.7570  124.2350   63.2640 C   0  0  0  0  0  0  0  0  0  0  0  0
  133.5970  124.4710   64.0240 N   0  0  0  0  0  0  0  0  0  0  0  0
  130.3320  127.6550   68.8660 C   0  0  0  0  0  0  0  0  0  0  0  0
  130.3960  127.9770   70.2200 C   0  0  0  0  0  0  0  0  0  0  0  0
  128.4171  127.8482   74.2359 H   0  0  0  0  0  0  0  0  0  0  0  0
  127.8921  128.8672   72.8529 H   0  0  0  0  0  0  0  0  0  0  0  0
  127.5444  127.1049   72.8529 H   0  0  0  0  0  0  0  0  0  0  0  0
  127.8863  125.9786   71.3827 H   0  0  0  0  0  0  0  0  0  0  0  0
  127.7619  125.4060   68.9681 H   0  0  0  0  0  0  0  0  0  0  0  0
  128.2940  126.0960   66.8040 H   0  0  0  0  0  0  0  0  0  0  0  0
  128.5793  126.0486   64.6876 H   0  0  0  0  0  0  0  0  0  0  0  0
  130.2666  126.2802   63.9922 H   0  0  0  0  0  0  0  0  0  0  0  0
  129.7090  122.2998   58.0017 H   0  0  0  0  0  0  0  0  0  0  0  0
  127.8028  121.8802   56.4620 H   0  0  0  0  0  0  0  0  0  0  0  0
  125.5008  122.5627   57.1219 H   0  0  0  0  0  0  0  0  0  0  0  0
  125.1000  123.6697   59.3155 H   0  0  0  0  0  0  0  0  0  0  0  0
  127.0057  124.0950   60.8560 H   0  0  0  0  0  0  0  0  0  0  0  0
  131.1972  123.4058   58.9511 H   0  0  0  0  0  0  0  0  0  0  0  0
  134.1395  123.9061   61.2361 H   0  0  0  0  0  0  0  0  0  0  0  0
  133.6471  122.9770   59.7797 H   0  0  0  0  0  0  0  0  0  0  0  0
  133.5404  124.7701   59.7797 H   0  0  0  0  0  0  0  0  0  0  0  0
  131.0186  128.1355   68.1535 H   0  0  0  0  0  0  0  0  0  0  0  0
  131.1377  128.7084   70.5734 H   0  0  0  0  0  0  0  0  0  0  0  0
  1  2  1  0
  2  3  1  0
  3  4  2  0
  4  5  1  0
  5  6  2  0
  6  7  1  0
  7  8  1  0
  8  9  2  0
  8 10  1  0
 10 11  1  0
 11 12  1  0
 12 13  2  0
 13 14  1  0
 14 15  1  0
 15 16  2  0
 16 17  1  0
 17 18  2  0
 18 19  1  0
 19 20  2  0
 14 21  2  0
 21 22  1  0
 22 23  1  0
 22 24  2  0
 24 25  1  0
 25 26  3  0
  6 27  1  0
 27 28  2  0
 28  3  1  0
 24 12  1  0
 20 15  1  0
  1 29  1  0
  1 30  1  0
  1 31  1  0
  4 32  1  0
  5 33  1  0
  7 34  1  0
 10 35  1  0
 10 36  1  0
 16 37  1  0
 17 38  1  0
 18 39  1  0
 19 40  1  0
 20 41  1  0
 21 42  1  0
 23 43  1  0
 23 44  1  0
 23 45  1  0
 27 46  1  0
 28 47  1  0
M  END
>  <Binding energies>  (1) 
[-8.38]

>  <Ligand effiencies>  (1) 
[-0.2889655172413793]

>  <Interactions>  (1) 
["V-B:TYR:539:CE2:9845, V-B:PRO:540:N:9853, V-B:PRO:540:CB:9854, V-B:TYR:539:CZ:9846, V-B:PRO:540:CA:9852, V-B:TYR:539:CD1:9842, V-B:TYR:539:C:9836, V-B:TYR:539:CE1:9844, V-B:GLU:543:CD:9877, V-B:GLU:543:CG:9876, V-A:ASP:366:CB:3208, V-A:HIS:456:CE1:4066, V-A:ASP:366:CG:3209, V-B:GLU:543:CB:9875, H-A:GLY:454:N:4046, V-B:PRO:540:CD:9856, V-B:TYR:539:CG:9841, V-B:TYR:539:CD2:9843, H-B:GLU:543:OE1:9878, V-B:HIS:456:CD2:9036, V-A:GLU:543:CB:4903, V-A:GLU:543:C:4899, H-A:LYS:547:NZ:4948, V-A:GLY:544:C:4909, V-B:LYS:547:CE:9919, V-B:GLU:543:C:9871, V-A:ASP:366:CA:3206"]

$$$$
3bd_Grossjean_2025
     RDKit          3D

 43 45  0  0  0  0  0  0  0  0999 V2000
  128.8780  128.9650   60.4260 C   0  0  0  0  0  0  0  0  0  0  0  0
  129.9490  129.0110   59.3390 C   0  0  0  0  0  0  0  0  0  0  0  0
  130.0720  127.9100   58.4840 C   0  0  0  0  0  0  0  0  0  0  0  0
  131.0450  127.9130   57.4770 C   0  0  0  0  0  0  0  0  0  0  0  0
  131.2270  126.7680   56.5240 C   0  0  0  0  0  0  0  0  0  0  0  0
  132.4960  126.4590   56.0100 C   0  0  0  0  0  0  0  0  0  0  0  0
  132.6720  125.3990   55.1230 C   0  0  0  0  0  0  0  0  0  0  0  0
  131.5780  124.6320   54.7380 C   0  0  0  0  0  0  0  0  0  0  0  0
  130.3090  124.9200   55.2310 C   0  0  0  0  0  0  0  0  0  0  0  0
  130.1370  125.9800   56.1160 C   0  0  0  0  0  0  0  0  0  0  0  0
  131.8670  128.9800   57.3070 N   0  0  0  0  0  0  0  0  0  0  0  0
  131.7630  130.0560   58.1280 C   0  0  0  0  0  0  0  0  0  0  0  0
  132.9090  131.3870   57.8090 S   0  0  0  0  0  0  0  0  0  0  0  0
  132.4750  132.1320   56.2080 C   0  0  0  0  0  0  0  0  0  0  0  0
  130.9630  132.1630   55.9810 C   0  0  0  0  0  0  0  0  0  0  0  0
  130.3610  133.2310   56.1000 O   0  0  0  0  0  0  0  0  0  0  0  0
  130.3920  130.9770   55.6740 N   0  0  0  0  0  0  0  0  0  0  0  0
  129.0450  130.6910   55.3860 C   0  0  0  0  0  0  0  0  0  0  0  0
  128.7720  130.2590   54.0860 C   0  0  0  0  0  0  0  0  0  0  0  0
  127.4660  129.9600   53.7050 C   0  0  0  0  0  0  0  0  0  0  0  0
  126.4300  130.1030   54.6240 C   0  0  0  0  0  0  0  0  0  0  0  0
  126.6870  130.5470   55.9190 C   0  0  0  0  0  0  0  0  0  0  0  0
  127.9920  130.8450   56.3030 C   0  0  0  0  0  0  0  0  0  0  0  0
  130.8100  130.1160   59.1680 C   0  0  0  0  0  0  0  0  0  0  0  0
  130.7060  131.2850   60.0470 C   0  0  0  0  0  0  0  0  0  0  0  0
  130.6220  132.2070   60.7400 N   0  0  0  0  0  0  0  0  0  0  0  0
  129.3585  128.9856   61.4153 H   0  0  0  0  0  0  0  0  0  0  0  0
  128.2134  129.8354   60.3230 H   0  0  0  0  0  0  0  0  0  0  0  0
  128.2904  128.0408   60.3230 H   0  0  0  0  0  0  0  0  0  0  0  0
  129.4052  127.0433   58.6028 H   0  0  0  0  0  0  0  0  0  0  0  0
  133.3645  127.0627   56.3120 H   0  0  0  0  0  0  0  0  0  0  0  0
  133.6730  125.1697   54.7287 H   0  0  0  0  0  0  0  0  0  0  0  0
  131.7164  123.7931   54.0400 H   0  0  0  0  0  0  0  0  0  0  0  0
  129.4455  124.3124   54.9225 H   0  0  0  0  0  0  0  0  0  0  0  0
  129.1319  126.2048   56.5024 H   0  0  0  0  0  0  0  0  0  0  0  0
  132.8594  133.1623   56.1800 H   0  0  0  0  0  0  0  0  0  0  0  0
  132.9249  131.5174   55.4144 H   0  0  0  0  0  0  0  0  0  0  0  0
  130.9960  130.1690   55.7030 H   0  0  0  0  0  0  0  0  0  0  0  0
  129.5918  130.1545   53.3601 H   0  0  0  0  0  0  0  0  0  0  0  0
  127.2542  129.6126   52.6830 H   0  0  0  0  0  0  0  0  0  0  0  0
  125.3990  129.8632   54.3247 H   0  0  0  0  0  0  0  0  0  0  0  0
  125.8612  130.6620   56.6365 H   0  0  0  0  0  0  0  0  0  0  0  0
  128.1981  131.2006   57.3233 H   0  0  0  0  0  0  0  0  0  0  0  0
  1  2  1  0
  2  3  2  0
  3  4  1  0
  4  5  1  0
  5  6  2  0
  6  7  1  0
  7  8  2  0
  8  9  1  0
  9 10  2  0
  4 11  2  0
 11 12  1  0
 12 13  1  0
 13 14  1  0
 14 15  1  0
 15 16  2  0
 15 17  1  0
 17 18  1  0
 18 19  2  0
 19 20  1  0
 20 21  2  0
 21 22  1  0
 22 23  2  0
 12 24  2  0
 24 25  1  0
 25 26  3  0
 24  2  1  0
 10  5  1  0
 23 18  1  0
  1 27  1  0
  1 28  1  0
  1 29  1  0
  3 30  1  0
  6 31  1  0
  7 32  1  0
  8 33  1  0
  9 34  1  0
 10 35  1  0
 14 36  1  0
 14 37  1  0
 17 38  1  0
 19 39  1  0
 20 40  1  0
 21 41  1  0
 22 42  1  0
 23 43  1  0
M  END
>  <Binding energies>  (1) 
[-8.41]

>  <Ligand effiencies>  (1) 
[-0.31148148148148147]

>  <Interactions>  (1) 
["V-B:TYR:539:CE1:9844, V-B:MET:535:CE:9804, V-A:ASP:366:CB:3208, V-A:TYR:531:CE1:4789, V-A:ASP:366:C:3204, V-A:ASN:370:CG:3242, H-A:TYR:531:OH:4792, V-A:ASN:370:CB:3241, V-A:PRO:540:CB:4882, V-A:PRO:540:CA:4880, H-A:TYR:539:N:4867, V-A:LEU:363:CD1:3185, V-A:PRO:540:N:4881, V-A:TYR:531:CZ:4791, V-A:ILE:538:CG2:4860, V-A:ILE:538:CD1:4862, V-A:TYR:539:CZ:4874, V-B:TYR:531:CZ:9763, V-A:TYR:539:CE2:4873, H-A:ALA:541:N:4888, V-B:TYR:531:CE1:9761, V-A:PRO:540:CD:4884"]

$$$$
3be_Grossjean_2025
     RDKit          3D

 45 47  0  0  0  0  0  0  0  0999 V2000
  129.5440  132.0050   56.2260 C   0  0  0  0  0  0  0  0  0  0  0  0
  130.8220  131.3480   56.7070 C   0  0  0  0  0  0  0  0  0  0  0  0
  131.9720  132.0940   56.9780 C   0  0  0  0  0  0  0  0  0  0  0  0
  133.1140  131.4220   57.4140 C   0  0  0  0  0  0  0  0  0  0  0  0
  133.0790  130.0330   57.5690 C   0  0  0  0  0  0  0  0  0  0  0  0
  131.8940  129.3470   57.2840 C   0  0  0  0  0  0  0  0  0  0  0  0
  131.9260  127.9490   57.4500 N   0  0  0  0  0  0  0  0  0  0  0  0
  131.4100  126.9910   56.6500 C   0  0  0  0  0  0  0  0  0  0  0  0
  130.7940  127.2080   55.6050 O   0  0  0  0  0  0  0  0  0  0  0  0
  131.6430  125.5520   57.1380 C   0  0  0  0  0  0  0  0  0  0  0  0
  131.7140  125.3490   58.9500 S   0  0  0  0  0  0  0  0  0  0  0  0
  130.6130  124.0270   59.4020 C   0  0  0  0  0  0  0  0  0  0  0  0
  129.5490  123.8990   58.5720 N   0  0  0  0  0  0  0  0  0  0  0  0
  128.6270  122.9250   58.7970 C   0  0  0  0  0  0  0  0  0  0  0  0
  127.4730  122.8600   57.8410 C   0  0  0  0  0  0  0  0  0  0  0  0
  126.1800  123.2220   58.2500 C   0  0  0  0  0  0  0  0  0  0  0  0
  125.1050  123.1610   57.3690 C   0  0  0  0  0  0  0  0  0  0  0  0
  125.3080  122.7360   56.0610 C   0  0  0  0  0  0  0  0  0  0  0  0
  126.5780  122.3690   55.6300 C   0  0  0  0  0  0  0  0  0  0  0  0
  127.6510  122.4300   56.5150 C   0  0  0  0  0  0  0  0  0  0  0  0
  128.7580  122.0500   59.8810 C   0  0  0  0  0  0  0  0  0  0  0  0
  129.8630  122.1530   60.7320 C   0  0  0  0  0  0  0  0  0  0  0  0
  129.9740  121.1650   61.8920 C   0  0  0  0  0  0  0  0  0  0  0  0
  130.8290  123.1550   60.4930 C   0  0  0  0  0  0  0  0  0  0  0  0
  132.0200  123.2460   61.3390 C   0  0  0  0  0  0  0  0  0  0  0  0
  132.9610  123.3160   62.0100 N   0  0  0  0  0  0  0  0  0  0  0  0
  130.7740  129.9990   56.8530 N   0  0  0  0  0  0  0  0  0  0  0  0
  128.9420  132.3145   57.0931 H   0  0  0  0  0  0  0  0  0  0  0  0
  129.7918  132.8875   55.6179 H   0  0  0  0  0  0  0  0  0  0  0  0
  128.9705  131.2899   55.6179 H   0  0  0  0  0  0  0  0  0  0  0  0
  131.9767  133.1866   56.8504 H   0  0  0  0  0  0  0  0  0  0  0  0
  134.0355  131.9809   57.6343 H   0  0  0  0  0  0  0  0  0  0  0  0
  133.9710  129.4873   57.9103 H   0  0  0  0  0  0  0  0  0  0  0  0
  132.3770  127.6370   58.2970 H   0  0  0  0  0  0  0  0  0  0  0  0
  130.8223  124.9263   56.7572 H   0  0  0  0  0  0  0  0  0  0  0  0
  132.6324  125.2570   56.7584 H   0  0  0  0  0  0  0  0  0  0  0  0
  126.0140  123.5594   59.2837 H   0  0  0  0  0  0  0  0  0  0  0  0
  124.0980  123.4480   57.7061 H   0  0  0  0  0  0  0  0  0  0  0  0
  124.4591  122.6898   55.3630 H   0  0  0  0  0  0  0  0  0  0  0  0
  126.7342  122.0320   54.5946 H   0  0  0  0  0  0  0  0  0  0  0  0
  128.6539  122.1370   56.1709 H   0  0  0  0  0  0  0  0  0  0  0  0
  127.9924  121.2816   60.0637 H   0  0  0  0  0  0  0  0  0  0  0  0
  129.9127  121.7104   62.8453 H   0  0  0  0  0  0  0  0  0  0  0  0
  129.1521  120.4363   61.8330 H   0  0  0  0  0  0  0  0  0  0  0  0
  130.9371  120.6369   61.8330 H   0  0  0  0  0  0  0  0  0  0  0  0
  1  2  1  0
  2  3  2  0
  3  4  1  0
  4  5  2  0
  5  6  1  0
  6  7  1  0
  7  8  1  0
  8  9  2  0
  8 10  1  0
 10 11  1  0
 11 12  1  0
 12 13  2  0
 13 14  1  0
 14 15  1  0
 15 16  2  0
 16 17  1  0
 17 18  2  0
 18 19  1  0
 19 20  2  0
 14 21  2  0
 21 22  1  0
 22 23  1  0
 22 24  2  0
 24 25  1  0
 25 26  3  0
  6 27  2  0
 27  2  1  0
 24 12  1  0
 20 15  1  0
  1 28  1  0
  1 29  1  0
  1 30  1  0
  3 31  1  0
  4 32  1  0
  5 33  1  0
  7 34  1  0
 10 35  1  0
 10 36  1  0
 16 37  1  0
 17 38  1  0
 18 39  1  0
 19 40  1  0
 20 41  1  0
 21 42  1  0
 23 43  1  0
 23 44  1  0
 23 45  1  0
M  END
>  <Binding energies>  (1) 
[-8.73]

>  <Ligand effiencies>  (1) 
[-0.3117857142857143]

>  <Interactions>  (1) 
["V-B:TYR:539:CE2:9845, V-B:PRO:540:N:9853, V-B:PRO:540:CB:9854, V-B:TYR:539:CZ:9846, V-A:LEU:475:CD1:4254, V-B:PRO:540:CA:9852, V-B:TYR:539:CD1:9842, V-B:ILE:538:CA:9829, V-B:TYR:539:C:9836, V-B:LEU:363:CD1:8157, V-B:ALA:541:CB:9861, V-B:ILE:538:CG2:9832, V-B:TYR:539:CE1:9844, V-B:ILE:538:CB:9831, V-A:ASP:366:CB:3208, H-B:TYR:539:OH:9847, V-A:ASP:366:CG:3209, H-A:TYR:531:OH:4792, V-B:PRO:540:CD:9856, V-A:PRO:540:CB:4882, V-A:PRO:540:CA:4880, V-A:LEU:363:CD1:3185, V-A:PRO:540:N:4881, V-B:TYR:539:CD2:9843, V-A:LEU:363:CA:3181, V-A:LEU:363:CB:3183, H-A:ASP:366:OD1:3210, H-A:ASP:366:OD2:3211, V-A:PRO:540:CD:4884"]

$$$$
3bf_Grossjean_2025
     RDKit          3D

 42 44  0  0  0  0  0  0  0  0999 V2000
  128.9590  128.9670   60.4800 C   0  0  0  0  0  0  0  0  0  0  0  0
  130.0270  129.0190   59.3890 C   0  0  0  0  0  0  0  0  0  0  0  0
  130.1500  127.9190   58.5340 C   0  0  0  0  0  0  0  0  0  0  0  0
  131.1050  127.9320   57.5120 C   0  0  0  0  0  0  0  0  0  0  0  0
  131.2730  126.7950   56.5490 C   0  0  0  0  0  0  0  0  0  0  0  0
  130.1660  126.0360   56.1370 C   0  0  0  0  0  0  0  0  0  0  0  0
  130.3130  124.9790   55.2430 C   0  0  0  0  0  0  0  0  0  0  0  0
  131.5750  124.6640   54.7490 C   0  0  0  0  0  0  0  0  0  0  0  0
  132.6880  125.3990   55.1430 C   0  0  0  0  0  0  0  0  0  0  0  0
  132.5370  126.4550   56.0380 C   0  0  0  0  0  0  0  0  0  0  0  0
  131.9220  129.0040   57.3340 N   0  0  0  0  0  0  0  0  0  0  0  0
  131.8320  130.0670   58.1710 C   0  0  0  0  0  0  0  0  0  0  0  0
  132.9820  131.3720   57.7920 S   0  0  0  0  0  0  0  0  0  0  0  0
  132.4760  132.1320   56.2120 C   0  0  0  0  0  0  0  0  0  0  0  0
  130.9610  132.1640   55.9600 C   0  0  0  0  0  0  0  0  0  0  0  0
  130.3520  133.2350   55.9240 O   0  0  0  0  0  0  0  0  0  0  0  0
  130.3970  130.9530   55.7600 N   0  0  0  0  0  0  0  0  0  0  0  0
  129.0480  130.6370   55.5170 C   0  0  0  0  0  0  0  0  0  0  0  0
  128.7620  129.9010   54.3620 C   0  0  0  0  0  0  0  0  0  0  0  0
  127.4440  129.5440   54.0720 C   0  0  0  0  0  0  0  0  0  0  0  0
  126.4380  129.9320   54.9580 C   0  0  0  0  0  0  0  0  0  0  0  0
  126.6870  130.6360   56.0910 N   0  0  0  0  0  0  0  0  0  0  0  0
  127.9740  130.9760   56.3600 C   0  0  0  0  0  0  0  0  0  0  0  0
  130.8790  130.1300   59.2110 C   0  0  0  0  0  0  0  0  0  0  0  0
  130.7330  131.3130   60.0640 C   0  0  0  0  0  0  0  0  0  0  0  0
  130.6180  132.2470   60.7390 N   0  0  0  0  0  0  0  0  0  0  0  0
  129.4425  128.9905   61.4678 H   0  0  0  0  0  0  0  0  0  0  0  0
  128.2891  129.8336   60.3789 H   0  0  0  0  0  0  0  0  0  0  0  0
  128.3764  128.0394   60.3789 H   0  0  0  0  0  0  0  0  0  0  0  0
  129.4962  127.0442   58.6652 H   0  0  0  0  0  0  0  0  0  0  0  0
  129.1668  126.2804   56.5267 H   0  0  0  0  0  0  0  0  0  0  0  0
  129.4352  124.3954   54.9285 H   0  0  0  0  0  0  0  0  0  0  0  0
  131.6931  123.8289   54.0428 H   0  0  0  0  0  0  0  0  0  0  0  0
  133.6837  125.1471   54.7491 H   0  0  0  0  0  0  0  0  0  0  0  0
  133.4204  127.0316   56.3496 H   0  0  0  0  0  0  0  0  0  0  0  0
  132.8457  133.1679   56.1983 H   0  0  0  0  0  0  0  0  0  0  0  0
  132.9054  131.5031   55.4182 H   0  0  0  0  0  0  0  0  0  0  0  0
  131.0250  130.1630   55.7340 H   0  0  0  0  0  0  0  0  0  0  0  0
  129.5749  129.6039   53.6831 H   0  0  0  0  0  0  0  0  0  0  0  0
  127.2037  128.9696   53.1652 H   0  0  0  0  0  0  0  0  0  0  0  0
  125.3985  129.6552   54.7280 H   0  0  0  0  0  0  0  0  0  0  0  0
  128.1863  131.5422   57.2789 H   0  0  0  0  0  0  0  0  0  0  0  0
  1  2  1  0
  2  3  2  0
  3  4  1  0
  4  5  1  0
  5  6  2  0
  6  7  1  0
  7  8  2  0
  8  9  1  0
  9 10  2  0
  4 11  2  0
 11 12  1  0
 12 13  1  0
 13 14  1  0
 14 15  1  0
 15 16  2  0
 15 17  1  0
 17 18  1  0
 18 19  2  0
 19 20  1  0
 20 21  2  0
 21 22  1  0
 22 23  2  0
 12 24  2  0
 24 25  1  0
 25 26  3  0
 24  2  1  0
 10  5  1  0
 23 18  1  0
  1 27  1  0
  1 28  1  0
  1 29  1  0
  3 30  1  0
  6 31  1  0
  7 32  1  0
  8 33  1  0
  9 34  1  0
 10 35  1  0
 14 36  1  0
 14 37  1  0
 17 38  1  0
 19 39  1  0
 20 40  1  0
 21 41  1  0
 23 42  1  0
M  END
>  <Binding energies>  (1) 
[-7.97]

>  <Ligand effiencies>  (1) 
[-0.29518518518518516]

>  <Interactions>  (1) 
["V-B:TYR:539:CE1:9844, V-B:MET:535:CE:9804, V-A:ASP:366:CB:3208, V-A:TYR:531:CE1:4789, V-A:ASP:366:C:3204, V-A:ASN:370:CG:3242, H-A:TYR:531:OH:4792, V-A:ASN:370:CB:3241, H-A:TYR:539:OH:4875, V-A:PRO:540:CB:4882, V-A:PRO:540:CA:4880, H-A:TYR:539:N:4867, V-A:LEU:363:CD1:3185, V-A:PRO:540:N:4881, V-A:TYR:531:CZ:4791, V-A:ILE:538:CG2:4860, V-A:ILE:538:CD1:4862, V-B:TYR:531:CZ:9763, H-A:ALA:541:N:4888, V-B:TYR:531:CE1:9761, V-A:PRO:540:CD:4884"]

$$$$
3bg_Grossjean_2025
     RDKit          3D

 46 48  0  0  0  0  0  0  0  0999 V2000
  128.7190  132.9690   54.0350 C   0  0  0  0  0  0  0  0  0  0  0  0
  128.8310  131.9340   55.1530 C   0  0  0  0  0  0  0  0  0  0  0  0
  129.9060  132.0350   56.0420 C   0  0  0  0  0  0  0  0  0  0  0  0
  130.0420  131.1120   57.0870 C   0  0  0  0  0  0  0  0  0  0  0  0
  131.1670  131.1700   58.0830 C   0  0  0  0  0  0  0  0  0  0  0  0
  130.9110  131.3050   59.4570 C   0  0  0  0  0  0  0  0  0  0  0  0
  131.9490  131.3420   60.3840 C   0  0  0  0  0  0  0  0  0  0  0  0
  133.2670  131.2460   59.9490 C   0  0  0  0  0  0  0  0  0  0  0  0
  133.5510  131.1240   58.5940 C   0  0  0  0  0  0  0  0  0  0  0  0
  132.5100  131.0900   57.6710 C   0  0  0  0  0  0  0  0  0  0  0  0
  129.1250  130.1230   57.2580 N   0  0  0  0  0  0  0  0  0  0  0  0
  128.0740  130.0120   56.4060 C   0  0  0  0  0  0  0  0  0  0  0  0
  126.9240  128.6930   56.7620 S   0  0  0  0  0  0  0  0  0  0  0  0
  127.2350  128.1070   58.4600 C   0  0  0  0  0  0  0  0  0  0  0  0
  126.7790  126.6580   58.6560 C   0  0  0  0  0  0  0  0  0  0  0  0
  127.6020  125.7430   58.6000 O   0  0  0  0  0  0  0  0  0  0  0  0
  125.4640  126.4670   58.8600 N   0  0  0  0  0  0  0  0  0  0  0  0
  124.7890  125.1690   58.8890 C   0  0  0  0  0  0  0  0  0  0  0  0
  125.3980  124.1910   57.8900 C   0  0  0  0  0  0  0  0  0  0  0  0
  124.9880  124.2090   56.5530 C   0  0  0  0  0  0  0  0  0  0  0  0
  125.5360  123.3110   55.6430 C   0  0  0  0  0  0  0  0  0  0  0  0
  126.5050  122.4030   56.0700 C   0  0  0  0  0  0  0  0  0  0  0  0
  126.9340  122.3920   57.3950 C   0  0  0  0  0  0  0  0  0  0  0  0
  126.3840  123.2920   58.3050 C   0  0  0  0  0  0  0  0  0  0  0  0
  127.8880  130.8990   55.3250 C   0  0  0  0  0  0  0  0  0  0  0  0
  126.7470  130.7720   54.4150 C   0  0  0  0  0  0  0  0  0  0  0  0
  125.8470  130.6730   53.6950 N   0  0  0  0  0  0  0  0  0  0  0  0
  128.6105  133.9720   54.4734 H   0  0  0  0  0  0  0  0  0  0  0  0
  129.6259  132.9368   53.4133 H   0  0  0  0  0  0  0  0  0  0  0  0
  127.8400  132.7435   53.4133 H   0  0  0  0  0  0  0  0  0  0  0  0
  130.6456  132.8402   55.9205 H   0  0  0  0  0  0  0  0  0  0  0  0
  129.8712  131.3830   59.8074 H   0  0  0  0  0  0  0  0  0  0  0  0
  131.7279  131.4468   61.4564 H   0  0  0  0  0  0  0  0  0  0  0  0
  134.0880  131.2668   60.6808 H   0  0  0  0  0  0  0  0  0  0  0  0
  134.5943  131.0546   58.2525 H   0  0  0  0  0  0  0  0  0  0  0  0
  132.7414  130.9989   56.5995 H   0  0  0  0  0  0  0  0  0  0  0  0
  128.3135  128.1716   58.6667 H   0  0  0  0  0  0  0  0  0  0  0  0
  126.6605  128.7418   59.1506 H   0  0  0  0  0  0  0  0  0  0  0  0
  124.8630  127.2770   58.8850 H   0  0  0  0  0  0  0  0  0  0  0  0
  124.8759  124.7451   59.9003 H   0  0  0  0  0  0  0  0  0  0  0  0
  123.7353  125.3256   58.6149 H   0  0  0  0  0  0  0  0  0  0  0  0
  124.2309  124.9345   56.2205 H   0  0  0  0  0  0  0  0  0  0  0  0
  125.2073  123.3168   54.5933 H   0  0  0  0  0  0  0  0  0  0  0  0
  126.9348  121.6882   55.3528 H   0  0  0  0  0  0  0  0  0  0  0  0
  127.7031  121.6764   57.7212 H   0  0  0  0  0  0  0  0  0  0  0  0
  126.7260  123.2950   59.3505 H   0  0  0  0  0  0  0  0  0  0  0  0
  1  2  1  0
  2  3  2  0
  3  4  1  0
  4  5  1  0
  5  6  2  0
  6  7  1  0
  7  8  2  0
  8  9  1  0
  9 10  2  0
  4 11  2  0
 11 12  1  0
 12 13  1  0
 13 14  1  0
 14 15  1  0
 15 16  2  0
 15 17  1  0
 17 18  1  0
 18 19  1  0
 19 20  2  0
 20 21  1  0
 21 22  2  0
 22 23  1  0
 23 24  2  0
 12 25  2  0
 25 26  1  0
 26 27  3  0
 25  2  1  0
 10  5  1  0
 24 19  1  0
  1 28  1  0
  1 29  1  0
  1 30  1  0
  3 31  1  0
  6 32  1  0
  7 33  1  0
  8 34  1  0
  9 35  1  0
 10 36  1  0
 14 37  1  0
 14 38  1  0
 17 39  1  0
 18 40  1  0
 18 41  1  0
 20 42  1  0
 21 43  1  0
 22 44  1  0
 23 45  1  0
 24 46  1  0
M  END
>  <Binding energies>  (1) 
[-9.02]

>  <Ligand effiencies>  (1) 
[-0.3221428571428571]

>  <Interactions>  (1) 
["V-B:PRO:540:N:9853, V-B:PRO:540:CB:9854, V-B:PRO:540:CA:9852, V-B:ILE:538:CA:9829, V-B:TYR:539:C:9836, V-B:LEU:363:CD1:8157, V-B:ILE:538:CG2:9832, V-B:ILE:538:CB:9831, V-B:MET:535:CE:9804, H-B:TYR:531:OH:9764, V-B:PRO:540:CD:9856, H-A:TYR:539:OH:4875, V-A:PRO:540:CB:4882, V-A:TYR:539:CE1:4872, V-A:PRO:540:CA:4880, H-B:LYS:534:NZ:9792, V-A:TYR:539:CD1:4870, V-A:ILE:538:CA:4857, V-A:ILE:538:CD1:4862, V-A:TYR:539:CZ:4874, V-B:ASP:366:CB:8180, V-B:TYR:531:CE2:9762, V-A:LEU:363:CA:3181, V-A:ILE:538:C:4855, V-A:LEU:363:CB:3183, V-B:TYR:531:CE1:9761, V-A:ASN:362:CB:3172, H-B:ASP:366:OD1:8182, V-B:ASP:366:CG:8181, V-A:ASN:362:C:3168, V-A:ILE:538:CG1:4861, V-A:ILE:538:CB:4859"]

$$$$
3bk_Grossjean_2025
     RDKit          3D

 57 58  0  0  0  0  0  0  0  0999 V2000
  127.9310  122.4260   55.1570 C   0  0  0  0  0  0  0  0  0  0  0  0
  127.3010  122.0220   56.3630 O   0  0  0  0  0  0  0  0  0  0  0  0
  126.8050  123.1080   57.1340 C   0  0  0  0  0  0  0  0  0  0  0  0
  127.9440  124.0950   57.4260 C   0  0  0  0  0  0  0  0  0  0  0  0
  127.5470  125.4010   57.0330 O   0  0  0  0  0  0  0  0  0  0  0  0
  127.3230  126.2860   58.1230 C   0  0  0  0  0  0  0  0  0  0  0  0
  128.3790  127.3980   58.0980 C   0  0  0  0  0  0  0  0  0  0  0  0
  127.9220  128.4630   57.2740 O   0  0  0  0  0  0  0  0  0  0  0  0
  126.5070  128.5930   57.2340 C   0  0  0  0  0  0  0  0  0  0  0  0
  126.1340  129.8960   56.5140 C   0  0  0  0  0  0  0  0  0  0  0  0
  127.2500  130.4470   55.7440 N   0  0  0  0  0  0  0  0  0  0  0  0
  127.1770  130.9090   54.4840 C   0  0  0  0  0  0  0  0  0  0  0  0
  126.1350  130.9400   53.8260 O   0  0  0  0  0  0  0  0  0  0  0  0
  128.4760  131.4440   53.8770 C   0  0  0  0  0  0  0  0  0  0  0  0
  129.1070  132.8910   54.7840 S   0  0  0  0  0  0  0  0  0  0  0  0
  129.2970  132.4600   56.5060 C   0  0  0  0  0  0  0  0  0  0  0  0
  128.1790  132.5580   57.2690 N   0  0  0  0  0  0  0  0  0  0  0  0
  128.2300  132.2520   58.5920 C   0  0  0  0  0  0  0  0  0  0  0  0
  126.9460  132.3670   59.3570 C   0  0  0  0  0  0  0  0  0  0  0  0
  126.8960  133.0630   60.5760 C   0  0  0  0  0  0  0  0  0  0  0  0
  125.7060  133.1680   61.2930 C   0  0  0  0  0  0  0  0  0  0  0  0
  124.5480  132.5780   60.7990 C   0  0  0  0  0  0  0  0  0  0  0  0
  124.5690  131.8870   59.5920 C   0  0  0  0  0  0  0  0  0  0  0  0
  125.7600  131.7860   58.8770 C   0  0  0  0  0  0  0  0  0  0  0  0
  129.4250  131.8290   59.1850 C   0  0  0  0  0  0  0  0  0  0  0  0
  130.5880  131.7230   58.4140 C   0  0  0  0  0  0  0  0  0  0  0  0
  131.8700  131.2580   59.1010 C   0  0  0  0  0  0  0  0  0  0  0  0
  130.5350  132.0430   57.0410 C   0  0  0  0  0  0  0  0  0  0  0  0
  131.7370  131.9390   56.2080 C   0  0  0  0  0  0  0  0  0  0  0  0
  132.6860  131.8580   55.5500 N   0  0  0  0  0  0  0  0  0  0  0  0
  128.8355  123.0060   55.3923 H   0  0  0  0  0  0  0  0  0  0  0  0
  128.2077  121.5365   54.5720 H   0  0  0  0  0  0  0  0  0  0  0  0
  127.2380  123.0486   54.5720 H   0  0  0  0  0  0  0  0  0  0  0  0
  126.0100  123.6218   56.5736 H   0  0  0  0  0  0  0  0  0  0  0  0
  126.3995  122.7271   58.0829 H   0  0  0  0  0  0  0  0  0  0  0  0
  128.1691  124.0880   58.5027 H   0  0  0  0  0  0  0  0  0  0  0  0
  128.8415  123.7982   56.8635 H   0  0  0  0  0  0  0  0  0  0  0  0
  126.3201  126.7295   58.0361 H   0  0  0  0  0  0  0  0  0  0  0  0
  127.3951  125.7305   59.0697 H   0  0  0  0  0  0  0  0  0  0  0  0
  128.5453  127.7696   59.1199 H   0  0  0  0  0  0  0  0  0  0  0  0
  129.3226  127.0005   57.6960 H   0  0  0  0  0  0  0  0  0  0  0  0
  126.0753  127.7383   56.6927 H   0  0  0  0  0  0  0  0  0  0  0  0
  126.1112  128.6144   58.2601 H   0  0  0  0  0  0  0  0  0  0  0  0
  125.2976  129.6940   55.8287 H   0  0  0  0  0  0  0  0  0  0  0  0
  125.8577  130.6354   57.2802 H   0  0  0  0  0  0  0  0  0  0  0  0
  128.1320  130.5140   56.2310 H   0  0  0  0  0  0  0  0  0  0  0  0
  129.2352  130.6485   53.9050 H   0  0  0  0  0  0  0  0  0  0  0  0
  128.2649  131.7562   52.8436 H   0  0  0  0  0  0  0  0  0  0  0  0
  127.8096  133.5320   60.9703 H   0  0  0  0  0  0  0  0  0  0  0  0
  125.6827  133.7158   62.2466 H   0  0  0  0  0  0  0  0  0  0  0  0
  123.6091  132.6582   61.3664 H   0  0  0  0  0  0  0  0  0  0  0  0
  123.6501  131.4229   59.2043 H   0  0  0  0  0  0  0  0  0  0  0  0
  125.7724  131.2424   57.9208 H   0  0  0  0  0  0  0  0  0  0  0  0
  129.4500  131.5801   60.2562 H   0  0  0  0  0  0  0  0  0  0  0  0
  131.7392  131.3054   60.1922 H   0  0  0  0  0  0  0  0  0  0  0  0
  132.0909  130.2225   58.8029 H   0  0  0  0  0  0  0  0  0  0  0  0
  132.7034  131.9111   58.8029 H   0  0  0  0  0  0  0  0  0  0  0  0
  1  2  1  0
  2  3  1  0
  3  4  1  0
  4  5  1  0
  5  6  1  0
  6  7  1  0
  7  8  1  0
  8  9  1  0
  9 10  1  0
 10 11  1  0
 11 12  1  0
 12 13  2  0
 12 14  1  0
 14 15  1  0
 15 16  1  0
 16 17  2  0
 17 18  1  0
 18 19  1  0
 19 20  2  0
 20 21  1  0
 21 22  2  0
 22 23  1  0
 23 24  2  0
 18 25  2  0
 25 26  1  0
 26 27  1  0
 26 28  2  0
 28 29  1  0
 29 30  3  0
 28 16  1  0
 24 19  1  0
  1 31  1  0
  1 32  1  0
  1 33  1  0
  3 34  1  0
  3 35  1  0
  4 36  1  0
  4 37  1  0
  6 38  1  0
  6 39  1  0
  7 40  1  0
  7 41  1  0
  9 42  1  0
  9 43  1  0
 10 44  1  0
 10 45  1  0
 11 46  1  0
 14 47  1  0
 14 48  1  0
 20 49  1  0
 21 50  1  0
 22 51  1  0
 23 52  1  0
 24 53  1  0
 25 54  1  0
 27 55  1  0
 27 56  1  0
 27 57  1  0
M  END
>  <Binding energies>  (1) 
[-6.78]

>  <Ligand effiencies>  (1) 
[-0.21870967741935485]

>  <Interactions>  (1) 
["V-B:PRO:540:CA:9852, H-B:TYR:539:N:9839, V-B:TYR:539:CD1:9842, V-B:ILE:538:CA:9829, V-B:ILE:538:CG2:9832, V-B:TYR:539:CE1:9844, V-B:ILE:538:CB:9831, V-B:MET:535:CE:9804, H-A:TYR:531:OH:4792, H-A:TYR:539:OH:4875, V-A:PRO:540:CB:4882, V-A:TYR:539:C:4864, V-A:PRO:540:CA:4880, H-A:TYR:539:N:4867, V-A:LEU:363:CD1:3185, V-A:PRO:540:N:4881, H-B:LYS:534:NZ:9792, V-A:ILE:538:CG2:4860, V-A:ILE:538:CD1:4862, V-A:TYR:539:CZ:4874, V-B:TYR:531:CZ:9763, V-A:TYR:539:CD2:4871, V-A:TYR:539:CE2:4873, V-B:TYR:531:CE1:9761, V-B:ASP:366:CG:8181, V-B:ILE:369:CG2:8205, V-B:ILE:369:CD1:8207"]

$$$$
3ca_Grossjean_2025
     RDKit          3D

 52 54  0  0  0  0  0  0  0  0999 V2000
  128.3150  122.7650   54.0210 C   0  0  0  0  0  0  0  0  0  0  0  0
  128.3570  122.8610   55.5480 C   0  0  0  0  0  0  0  0  0  0  0  0
  127.4030  121.9650   56.1060 O   0  0  0  0  0  0  0  0  0  0  0  0
  126.1600  122.3870   56.4480 C   0  0  0  0  0  0  0  0  0  0  0  0
  125.1290  121.9870   55.8970 O   0  0  0  0  0  0  0  0  0  0  0  0
  126.1610  123.3870   57.5690 C   0  0  0  0  0  0  0  0  0  0  0  0
  126.6010  122.9910   58.8380 C   0  0  0  0  0  0  0  0  0  0  0  0
  126.6130  123.8950   59.8980 C   0  0  0  0  0  0  0  0  0  0  0  0
  126.1790  125.2080   59.7120 C   0  0  0  0  0  0  0  0  0  0  0  0
  126.2330  126.0380   60.8480 N   0  0  0  0  0  0  0  0  0  0  0  0
  127.1070  127.0220   61.1550 C   0  0  0  0  0  0  0  0  0  0  0  0
  128.0420  127.3910   60.4460 O   0  0  0  0  0  0  0  0  0  0  0  0
  126.8600  127.7210   62.4960 C   0  0  0  0  0  0  0  0  0  0  0  0
  128.3900  128.3180   63.2870 S   0  0  0  0  0  0  0  0  0  0  0  0
  128.8780  127.1970   64.5910 C   0  0  0  0  0  0  0  0  0  0  0  0
  129.3280  125.9830   64.1840 N   0  0  0  0  0  0  0  0  0  0  0  0
  129.7330  125.0910   65.1140 C   0  0  0  0  0  0  0  0  0  0  0  0
  130.2380  123.7660   64.5800 C   0  0  0  0  0  0  0  0  0  0  0  0
  129.6930  125.3630   66.4800 C   0  0  0  0  0  0  0  0  0  0  0  0
  129.2160  126.6020   66.9260 C   0  0  0  0  0  0  0  0  0  0  0  0
  129.1800  126.8440   68.4000 C   0  0  0  0  0  0  0  0  0  0  0  0
  128.1690  126.2700   69.1820 C   0  0  0  0  0  0  0  0  0  0  0  0
  128.1210  126.4980   70.5540 C   0  0  0  0  0  0  0  0  0  0  0  0
  129.0850  127.3060   71.1520 C   0  0  0  0  0  0  0  0  0  0  0  0
  130.0930  127.8890   70.3890 C   0  0  0  0  0  0  0  0  0  0  0  0
  130.1370  127.6600   69.0160 C   0  0  0  0  0  0  0  0  0  0  0  0
  128.8040  127.5540   65.9590 C   0  0  0  0  0  0  0  0  0  0  0  0
  128.3440  128.8860   66.3630 C   0  0  0  0  0  0  0  0  0  0  0  0
  127.9810  129.9380   66.6840 N   0  0  0  0  0  0  0  0  0  0  0  0
  125.7430  125.6150   58.4420 C   0  0  0  0  0  0  0  0  0  0  0  0
  125.7340  124.7110   57.3830 C   0  0  0  0  0  0  0  0  0  0  0  0
  127.8902  121.7941   53.7262 H   0  0  0  0  0  0  0  0  0  0  0  0
  127.6895  123.5760   53.6197 H   0  0  0  0  0  0  0  0  0  0  0  0
  129.3351  122.8560   53.6197 H   0  0  0  0  0  0  0  0  0  0  0  0
  129.3628  122.5944   55.9046 H   0  0  0  0  0  0  0  0  0  0  0  0
  128.1189  123.8894   55.8574 H   0  0  0  0  0  0  0  0  0  0  0  0
  126.9401  121.9571   58.9994 H   0  0  0  0  0  0  0  0  0  0  0  0
  126.9669  123.5716   60.8880 H   0  0  0  0  0  0  0  0  0  0  0  0
  125.4740  125.9000   61.4980 H   0  0  0  0  0  0  0  0  0  0  0  0
  126.1963  128.5813   62.3248 H   0  0  0  0  0  0  0  0  0  0  0  0
  126.4097  126.9800   63.1729 H   0  0  0  0  0  0  0  0  0  0  0  0
  130.4904  123.1038   65.4213 H   0  0  0  0  0  0  0  0  0  0  0  0
  129.4559  123.2963   63.9655 H   0  0  0  0  0  0  0  0  0  0  0  0
  131.1344  123.9360   63.9655 H   0  0  0  0  0  0  0  0  0  0  0  0
  130.0342  124.6086   67.2042 H   0  0  0  0  0  0  0  0  0  0  0  0
  127.4071  125.6340   68.7076 H   0  0  0  0  0  0  0  0  0  0  0  0
  127.3261  126.0426   71.1628 H   0  0  0  0  0  0  0  0  0  0  0  0
  129.0496  127.4851   72.2367 H   0  0  0  0  0  0  0  0  0  0  0  0
  130.8504  128.5269   70.8679 H   0  0  0  0  0  0  0  0  0  0  0  0
  130.9297  128.1237   68.4106 H   0  0  0  0  0  0  0  0  0  0  0  0
  125.4076  126.6504   58.2826 H   0  0  0  0  0  0  0  0  0  0  0  0
  125.3889  125.0377   56.3910 H   0  0  0  0  0  0  0  0  0  0  0  0
  1  2  1  0
  2  3  1  0
  3  4  1  0
  4  5  2  0
  4  6  1  0
  6  7  2  0
  7  8  1  0
  8  9  2  0
  9 10  1  0
 10 11  1  0
 11 12  2  0
 11 13  1  0
 13 14  1  0
 14 15  1  0
 15 16  2  0
 16 17  1  0
 17 18  1  0
 17 19  2  0
 19 20  1  0
 20 21  1  0
 21 22  2  0
 22 23  1  0
 23 24  2  0
 24 25  1  0
 25 26  2  0
 20 27  2  0
 27 28  1  0
 28 29  3  0
  9 30  1  0
 30 31  2  0
 31  6  1  0
 27 15  1  0
 26 21  1  0
  1 32  1  0
  1 33  1  0
  1 34  1  0
  2 35  1  0
  2 36  1  0
  7 37  1  0
  8 38  1  0
 10 39  1  0
 13 40  1  0
 13 41  1  0
 18 42  1  0
 18 43  1  0
 18 44  1  0
 19 45  1  0
 22 46  1  0
 23 47  1  0
 24 48  1  0
 25 49  1  0
 26 50  1  0
 30 51  1  0
 31 52  1  0
M  END
>  <Binding energies>  (1) 
[-9.03]

>  <Ligand effiencies>  (1) 
[-0.2821875]

>  <Interactions>  (1) 
["V-B:PRO:540:N:9853, V-B:PRO:540:CB:9854, V-B:TYR:539:CZ:9846, V-B:PRO:540:CA:9852, H-B:TYR:539:N:9839, V-B:TYR:539:CD1:9842, V-B:ILE:538:CA:9829, V-B:ILE:538:CG2:9832, V-B:TYR:539:CE1:9844, V-B:GLU:543:CD:9877, V-A:TYR:484:CE1:4341, V-B:ILE:538:CB:9831, V-B:GLU:543:CG:9876, H-B:GLU:543:OE2:9879, V-B:MET:535:CE:9804, V-A:GLU:543:CD:4905, V-A:HIS:456:CE1:4066, V-A:GLU:543:CG:4904, V-B:GLU:543:CB:9875, V-B:PRO:540:CD:9856, H-B:ASP:366:OD1:8182, V-B:HIS:456:CD2:9036, V-A:GLU:543:CB:4903, V-B:HIS:456:CE1:9038, V-B:GLY:544:C:9881, V-B:GLU:543:C:9871, H-B:TYR:484:OH:9316, V-B:VAL:537:C:9819"]

$$$$
3cb_Grossjean_2025
     RDKit          3D

 49 51  0  0  0  0  0  0  0  0999 V2000
  127.9240  122.4750   55.1360 C   0  0  0  0  0  0  0  0  0  0  0  0
  126.9990  121.7200   55.9040 O   0  0  0  0  0  0  0  0  0  0  0  0
  125.8180  122.2580   56.3040 C   0  0  0  0  0  0  0  0  0  0  0  0
  124.7380  122.0080   55.7610 O   0  0  0  0  0  0  0  0  0  0  0  0
  125.9570  123.1900   57.4740 C   0  0  0  0  0  0  0  0  0  0  0  0
  127.0200  123.0890   58.3830 C   0  0  0  0  0  0  0  0  0  0  0  0
  127.1200  123.9710   59.4550 C   0  0  0  0  0  0  0  0  0  0  0  0
  126.1620  124.9670   59.6460 C   0  0  0  0  0  0  0  0  0  0  0  0
  126.3630  125.8050   60.7600 N   0  0  0  0  0  0  0  0  0  0  0  0
  127.2220  126.8340   60.9290 C   0  0  0  0  0  0  0  0  0  0  0  0
  128.0080  127.2440   60.0730 O   0  0  0  0  0  0  0  0  0  0  0  0
  127.1470  127.5070   62.3080 C   0  0  0  0  0  0  0  0  0  0  0  0
  128.7580  127.9930   63.0160 S   0  0  0  0  0  0  0  0  0  0  0  0
  129.0740  126.9430   64.4190 C   0  0  0  0  0  0  0  0  0  0  0  0
  129.5070  125.7040   64.0790 N   0  0  0  0  0  0  0  0  0  0  0  0
  129.7800  124.8200   65.0630 C   0  0  0  0  0  0  0  0  0  0  0  0
  130.2720  123.4580   64.6100 C   0  0  0  0  0  0  0  0  0  0  0  0
  129.6300  125.1290   66.4120 C   0  0  0  0  0  0  0  0  0  0  0  0
  129.1680  126.3980   66.7870 C   0  0  0  0  0  0  0  0  0  0  0  0
  129.0170  126.6790   68.2470 C   0  0  0  0  0  0  0  0  0  0  0  0
  129.9530  127.4830   68.9100 C   0  0  0  0  0  0  0  0  0  0  0  0
  129.8150  127.7600   70.2680 C   0  0  0  0  0  0  0  0  0  0  0  0
  128.7340  127.2350   70.9700 C   0  0  0  0  0  0  0  0  0  0  0  0
  127.7900  126.4400   70.3270 C   0  0  0  0  0  0  0  0  0  0  0  0
  127.9300  126.1670   68.9680 C   0  0  0  0  0  0  0  0  0  0  0  0
  128.8640  127.3330   65.7640 C   0  0  0  0  0  0  0  0  0  0  0  0
  128.2900  128.6410   66.0950 C   0  0  0  0  0  0  0  0  0  0  0  0
  127.8370  129.6740   66.3550 N   0  0  0  0  0  0  0  0  0  0  0  0
  125.0970  125.0770   58.7380 C   0  0  0  0  0  0  0  0  0  0  0  0
  124.9980  124.1940   57.6650 C   0  0  0  0  0  0  0  0  0  0  0  0
  128.5975  123.0248   55.8099 H   0  0  0  0  0  0  0  0  0  0  0  0
  128.5135  121.7968   54.5015 H   0  0  0  0  0  0  0  0  0  0  0  0
  127.3777  123.1884   54.5015 H   0  0  0  0  0  0  0  0  0  0  0  0
  127.7810  122.3063   58.2477 H   0  0  0  0  0  0  0  0  0  0  0  0
  127.9616  123.8820   60.1577 H   0  0  0  0  0  0  0  0  0  0  0  0
  125.7450  125.6120   61.5360 H   0  0  0  0  0  0  0  0  0  0  0  0
  126.5287  128.4118   62.2133 H   0  0  0  0  0  0  0  0  0  0  0  0
  126.7224  126.7586   62.9934 H   0  0  0  0  0  0  0  0  0  0  0  0
  130.4961  122.8377   65.4903 H   0  0  0  0  0  0  0  0  0  0  0  0
  129.4936  122.9693   64.0056 H   0  0  0  0  0  0  0  0  0  0  0  0
  131.1830  123.5796   64.0056 H   0  0  0  0  0  0  0  0  0  0  0  0
  129.8730  124.3804   67.1804 H   0  0  0  0  0  0  0  0  0  0  0  0
  130.8051  127.8996   68.3529 H   0  0  0  0  0  0  0  0  0  0  0  0
  130.5558  128.3898   70.7824 H   0  0  0  0  0  0  0  0  0  0  0  0
  128.6248  127.4505   72.0431 H   0  0  0  0  0  0  0  0  0  0  0  0
  126.9380  126.0294   70.8887 H   0  0  0  0  0  0  0  0  0  0  0  0
  127.1810  125.5444   68.4568 H   0  0  0  0  0  0  0  0  0  0  0  0
  124.3388  125.8623   58.8741 H   0  0  0  0  0  0  0  0  0  0  0  0
  124.1584  124.2858   56.9603 H   0  0  0  0  0  0  0  0  0  0  0  0
  1  2  1  0
  2  3  1  0
  3  4  2  0
  3  5  1  0
  5  6  2  0
  6  7  1  0
  7  8  2  0
  8  9  1  0
  9 10  1  0
 10 11  2  0
 10 12  1  0
 12 13  1  0
 13 14  1  0
 14 15  2  0
 15 16  1  0
 16 17  1  0
 16 18  2  0
 18 19  1  0
 19 20  1  0
 20 21  2  0
 21 22  1  0
 22 23  2  0
 23 24  1  0
 24 25  2  0
 19 26  2  0
 26 27  1  0
 27 28  3  0
  8 29  1  0
 29 30  2  0
 30  5  1  0
 26 14  1  0
 25 20  1  0
  1 31  1  0
  1 32  1  0
  1 33  1  0
  6 34  1  0
  7 35  1  0
  9 36  1  0
 12 37  1  0
 12 38  1  0
 17 39  1  0
 17 40  1  0
 17 41  1  0
 18 42  1  0
 21 43  1  0
 22 44  1  0
 23 45  1  0
 24 46  1  0
 25 47  1  0
 29 48  1  0
 30 49  1  0
M  END
>  <Binding energies>  (1) 
[-8.96]

>  <Ligand effiencies>  (1) 
[-0.28903225806451616]

>  <Interactions>  (1) 
["V-B:PRO:540:N:9853, V-B:PRO:540:CB:9854, V-A:TYR:484:CZ:4343, V-B:PRO:540:CA:9852, H-B:TYR:539:N:9839, V-B:TYR:539:CD1:9842, V-B:ILE:538:CA:9829, V-B:LEU:363:CD1:8157, V-B:ILE:538:CG2:9832, V-B:TYR:539:CE1:9844, V-B:GLU:543:CD:9877, V-A:TYR:484:CE1:4341, V-B:ILE:538:CB:9831, V-B:GLU:543:CG:9876, H-B:GLU:543:OE2:9879, V-B:MET:535:CE:9804, V-A:GLU:543:CD:4905, V-A:HIS:456:CE1:4066, V-A:GLU:543:CG:4904, V-B:GLU:543:CB:9875, V-B:PRO:540:CD:9856, H-B:ASP:366:OD1:8182, V-B:HIS:456:CD2:9036, V-A:GLU:543:CB:4903, V-B:HIS:456:CE1:9038, V-B:GLY:544:C:9881, V-B:GLU:543:C:9871, H-B:TYR:484:OH:9316"]

$$$$
3ce_Grossjean_2025
     RDKit          3D

 45 47  0  0  0  0  0  0  0  0999 V2000
  134.9750  124.9970   66.3110 C   0  0  0  0  0  0  0  0  0  0  0  0
  133.7690  125.1840   65.4110 C   0  0  0  0  0  0  0  0  0  0  0  0
  132.5730  125.7220   65.8930 C   0  0  0  0  0  0  0  0  0  0  0  0
  131.5080  125.8740   65.0060 C   0  0  0  0  0  0  0  0  0  0  0  0
  131.6600  125.4880   63.6720 C   0  0  0  0  0  0  0  0  0  0  0  0
  132.8820  124.9460   63.2570 C   0  0  0  0  0  0  0  0  0  0  0  0
  132.9840  124.5940   61.9000 N   0  0  0  0  0  0  0  0  0  0  0  0
  133.9370  123.8460   61.3010 C   0  0  0  0  0  0  0  0  0  0  0  0
  134.8980  123.3330   61.8760 O   0  0  0  0  0  0  0  0  0  0  0  0
  133.7680  123.6390   59.7960 C   0  0  0  0  0  0  0  0  0  0  0  0
  132.4470  124.6830   59.1110 S   0  0  0  0  0  0  0  0  0  0  0  0
  130.9250  123.8480   59.4920 C   0  0  0  0  0  0  0  0  0  0  0  0
  130.9280  123.2150   60.6910 N   0  0  0  0  0  0  0  0  0  0  0  0
  129.8080  122.5630   61.0810 C   0  0  0  0  0  0  0  0  0  0  0  0
  129.8760  121.8890   62.4370 C   0  0  0  0  0  0  0  0  0  0  0  0
  128.6610  122.5060   60.2940 C   0  0  0  0  0  0  0  0  0  0  0  0
  128.6470  123.1320   59.0400 C   0  0  0  0  0  0  0  0  0  0  0  0
  127.4030  123.0210   58.2220 C   0  0  0  0  0  0  0  0  0  0  0  0
  126.2090  123.5960   58.6750 C   0  0  0  0  0  0  0  0  0  0  0  0
  125.0440  123.4920   57.9200 C   0  0  0  0  0  0  0  0  0  0  0  0
  125.0650  122.8050   56.7100 C   0  0  0  0  0  0  0  0  0  0  0  0
  126.2410  122.2190   56.2490 C   0  0  0  0  0  0  0  0  0  0  0  0
  127.4050  122.3260   57.0050 C   0  0  0  0  0  0  0  0  0  0  0  0
  129.8090  123.8290   58.6220 C   0  0  0  0  0  0  0  0  0  0  0  0
  129.8480  124.5150   57.3260 C   0  0  0  0  0  0  0  0  0  0  0  0
  129.8780  125.0570   56.3050 N   0  0  0  0  0  0  0  0  0  0  0  0
  133.9310  124.8020   64.1180 N   0  0  0  0  0  0  0  0  0  0  0  0
  134.6583  125.0461   67.3633 H   0  0  0  0  0  0  0  0  0  0  0  0
  135.4331  124.0171   66.1113 H   0  0  0  0  0  0  0  0  0  0  0  0
  135.7084  125.7922   66.1113 H   0  0  0  0  0  0  0  0  0  0  0  0
  132.4739  126.0187   66.9476 H   0  0  0  0  0  0  0  0  0  0  0  0
  130.5536  126.2954   65.3546 H   0  0  0  0  0  0  0  0  0  0  0  0
  130.8316  125.6082   62.9583 H   0  0  0  0  0  0  0  0  0  0  0  0
  132.1970  124.8660   61.3300 H   0  0  0  0  0  0  0  0  0  0  0  0
  134.7146  123.8888   59.2944 H   0  0  0  0  0  0  0  0  0  0  0  0
  133.4937  122.5875   59.6257 H   0  0  0  0  0  0  0  0  0  0  0  0
  129.7993  122.6490   63.2285 H   0  0  0  0  0  0  0  0  0  0  0  0
  129.0454  121.1743   62.5333 H   0  0  0  0  0  0  0  0  0  0  0  0
  130.8326  121.3546   62.5333 H   0  0  0  0  0  0  0  0  0  0  0  0
  127.7696  121.9720   60.6548 H   0  0  0  0  0  0  0  0  0  0  0  0
  126.1916  124.1338   59.6344 H   0  0  0  0  0  0  0  0  0  0  0  0
  124.1108  123.9510   58.2784 H   0  0  0  0  0  0  0  0  0  0  0  0
  124.1448  122.7242   56.1127 H   0  0  0  0  0  0  0  0  0  0  0  0
  126.2502  121.6748   55.2931 H   0  0  0  0  0  0  0  0  0  0  0  0
  128.3343  121.8611   56.6441 H   0  0  0  0  0  0  0  0  0  0  0  0
  1  2  1  0
  2  3  2  0
  3  4  1  0
  4  5  2  0
  5  6  1  0
  6  7  1  0
  7  8  1  0
  8  9  2  0
  8 10  1  0
 10 11  1  0
 11 12  1  0
 12 13  2  0
 13 14  1  0
 14 15  1  0
 14 16  2  0
 16 17  1  0
 17 18  1  0
 18 19  2  0
 19 20  1  0
 20 21  2  0
 21 22  1  0
 22 23  2  0
 17 24  2  0
 24 25  1  0
 25 26  3  0
  6 27  2  0
 27  2  1  0
 24 12  1  0
 23 18  1  0
  1 28  1  0
  1 29  1  0
  1 30  1  0
  3 31  1  0
  4 32  1  0
  5 33  1  0
  7 34  1  0
 10 35  1  0
 10 36  1  0
 15 37  1  0
 15 38  1  0
 15 39  1  0
 16 40  1  0
 19 41  1  0
 20 42  1  0
 21 43  1  0
 22 44  1  0
 23 45  1  0
M  END
>  <Binding energies>  (1) 
[-8.18]

>  <Ligand effiencies>  (1) 
[-0.29214285714285715]

>  <Interactions>  (1) 
["V-B:TYR:539:CE2:9845, V-B:PRO:540:N:9853, V-B:PRO:540:CB:9854, V-B:TYR:539:CZ:9846, V-A:LEU:475:CD1:4254, V-B:PRO:540:CA:9852, V-B:TYR:539:CD1:9842, V-B:ILE:538:CA:9829, V-B:TYR:539:C:9836, V-B:LEU:363:CD1:8157, V-B:ALA:541:CB:9861, V-B:ILE:538:CG2:9832, V-B:TYR:539:CE1:9844, V-B:ILE:538:CB:9831, V-A:ARG:545:CZ:4923, V-A:GLY:454:CA:4045, V-A:ASP:366:CB:3208, V-A:HIS:456:CE1:4066, H-A:ARG:545:NH2:4925, H-A:ARG:545:NH1:4924, H-B:TYR:539:OH:9847, V-A:ASP:366:CG:3209, H-A:GLY:454:N:4046, V-B:PRO:540:CD:9856, V-A:ILE:369:CB:3232, V-A:ILE:369:CG2:3233, V-A:GLY:453:C:4038, V-A:GLY:453:CA:4040, V-A:GLY:454:C:4043, V-A:ARG:545:CG:4919, V-A:ARG:545:CD:4920, H-A:ASP:366:OD1:3210, H-A:ASP:366:OD2:3211, V-A:ASP:366:CA:3206, V-B:PRO:540:CG:9855, V-A:ILE:455:C:4048"]

$$$$
3ch_Grossjean_2025
     RDKit          3D

 55 57  0  0  0  0  0  0  0  0999 V2000
  124.3360  125.4700   58.6550 C   0  0  0  0  0  0  0  0  0  0  0  0
  124.6060  124.1320   59.0580 O   0  0  0  0  0  0  0  0  0  0  0  0
  125.8500  123.5810   58.8080 C   0  0  0  0  0  0  0  0  0  0  0  0
  126.8650  123.4630   59.7710 C   0  0  0  0  0  0  0  0  0  0  0  0
  128.1000  122.8830   59.4470 C   0  0  0  0  0  0  0  0  0  0  0  0
  129.1730  122.7170   60.3430 N   0  0  0  0  0  0  0  0  0  0  0  0
  130.4320  123.2030   60.2810 C   0  0  0  0  0  0  0  0  0  0  0  0
  130.8760  123.9240   59.3870 O   0  0  0  0  0  0  0  0  0  0  0  0
  131.3380  122.8400   61.4570 C   0  0  0  0  0  0  0  0  0  0  0  0
  132.7190  124.0060   61.6460 S   0  0  0  0  0  0  0  0  0  0  0  0
  132.5950  124.6540   63.2990 C   0  0  0  0  0  0  0  0  0  0  0  0
  133.7590  124.6110   63.9950 N   0  0  0  0  0  0  0  0  0  0  0  0
  133.7690  125.0740   65.2650 C   0  0  0  0  0  0  0  0  0  0  0  0
  135.1000  124.9920   65.9870 C   0  0  0  0  0  0  0  0  0  0  0  0
  132.6340  125.5890   65.8860 C   0  0  0  0  0  0  0  0  0  0  0  0
  131.4230  125.6480   65.1810 C   0  0  0  0  0  0  0  0  0  0  0  0
  130.2290  126.1990   65.8910 C   0  0  0  0  0  0  0  0  0  0  0  0
  129.5540  127.3110   65.3730 C   0  0  0  0  0  0  0  0  0  0  0  0
  128.4460  127.8360   66.0330 C   0  0  0  0  0  0  0  0  0  0  0  0
  128.0100  127.2500   67.2190 C   0  0  0  0  0  0  0  0  0  0  0  0
  128.6740  126.1480   67.7510 C   0  0  0  0  0  0  0  0  0  0  0  0
  129.7820  125.6270   67.0880 C   0  0  0  0  0  0  0  0  0  0  0  0
  131.4010  125.1850   63.8410 C   0  0  0  0  0  0  0  0  0  0  0  0
  130.1890  125.3100   63.0260 C   0  0  0  0  0  0  0  0  0  0  0  0
  129.2310  125.4070   62.3830 N   0  0  0  0  0  0  0  0  0  0  0  0
  128.3210  122.4390   58.1420 C   0  0  0  0  0  0  0  0  0  0  0  0
  127.3230  122.5480   57.1610 C   0  0  0  0  0  0  0  0  0  0  0  0
  127.4750  122.1210   55.8530 O   0  0  0  0  0  0  0  0  0  0  0  0
  128.3740  122.8110   54.9910 C   0  0  0  0  0  0  0  0  0  0  0  0
  126.0930  123.1230   57.5060 C   0  0  0  0  0  0  0  0  0  0  0  0
  125.1010  123.2190   56.5590 O   0  0  0  0  0  0  0  0  0  0  0  0
  124.8230  122.0000   55.8850 C   0  0  0  0  0  0  0  0  0  0  0  0
  124.2084  126.1026   59.5458 H   0  0  0  0  0  0  0  0  0  0  0  0
  125.1759  125.8484   58.0539 H   0  0  0  0  0  0  0  0  0  0  0  0
  123.4151  125.4931   58.0539 H   0  0  0  0  0  0  0  0  0  0  0  0
  126.6892  123.8303   60.7929 H   0  0  0  0  0  0  0  0  0  0  0  0
  128.9420  122.1870   61.1710 H   0  0  0  0  0  0  0  0  0  0  0  0
  130.7399  122.8469   62.3801 H   0  0  0  0  0  0  0  0  0  0  0  0
  131.7618  121.8439   61.2616 H   0  0  0  0  0  0  0  0  0  0  0  0
  134.9290  125.0025   67.0736 H   0  0  0  0  0  0  0  0  0  0  0  0
  135.6130  124.0605   65.7056 H   0  0  0  0  0  0  0  0  0  0  0  0
  135.7235  125.8534   65.7056 H   0  0  0  0  0  0  0  0  0  0  0  0
  132.6870  125.9478   66.9245 H   0  0  0  0  0  0  0  0  0  0  0  0
  129.9017  127.7734   64.4374 H   0  0  0  0  0  0  0  0  0  0  0  0
  127.9182  128.7083   65.6202 H   0  0  0  0  0  0  0  0  0  0  0  0
  127.1330  127.6617   67.7401 H   0  0  0  0  0  0  0  0  0  0  0  0
  128.3254  125.6918   68.6893 H   0  0  0  0  0  0  0  0  0  0  0  0
  130.3105  124.7587   67.5083 H   0  0  0  0  0  0  0  0  0  0  0  0
  129.2930  121.9966   57.8783 H   0  0  0  0  0  0  0  0  0  0  0  0
  129.1036  123.3710   55.5945 H   0  0  0  0  0  0  0  0  0  0  0  0
  128.9033  122.0851   54.3563 H   0  0  0  0  0  0  0  0  0  0  0  0
  127.8096  123.5100   54.3563 H   0  0  0  0  0  0  0  0  0  0  0  0
  124.6418  121.2055   56.6239 H   0  0  0  0  0  0  0  0  0  0  0  0
  123.9303  122.1249   55.2546 H   0  0  0  0  0  0  0  0  0  0  0  0
  125.6816  121.7255   55.2546 H   0  0  0  0  0  0  0  0  0  0  0  0
  1  2  1  0
  2  3  1  0
  3  4  2  0
  4  5  1  0
  5  6  1  0
  6  7  1  0
  7  8  2  0
  7  9  1  0
  9 10  1  0
 10 11  1  0
 11 12  2  0
 12 13  1  0
 13 14  1  0
 13 15  2  0
 15 16  1  0
 16 17  1  0
 17 18  2  0
 18 19  1  0
 19 20  2  0
 20 21  1  0
 21 22  2  0
 16 23  2  0
 23 24  1  0
 24 25  3  0
  5 26  2  0
 26 27  1  0
 27 28  1  0
 28 29  1  0
 27 30  2  0
 30 31  1  0
 31 32  1  0
 30  3  1  0
 23 11  1  0
 22 17  1  0
  1 33  1  0
  1 34  1  0
  1 35  1  0
  4 36  1  0
  6 37  1  0
  9 38  1  0
  9 39  1  0
 14 40  1  0
 14 41  1  0
 14 42  1  0
 15 43  1  0
 18 44  1  0
 19 45  1  0
 20 46  1  0
 21 47  1  0
 22 48  1  0
 26 49  1  0
 29 50  1  0
 29 51  1  0
 29 52  1  0
 32 53  1  0
 32 54  1  0
 32 55  1  0
M  END
>  <Binding energies>  (1) 
[-8.35]

>  <Ligand effiencies>  (1) 
[-0.253030303030303]

>  <Interactions>  (1) 
["V-B:TYR:539:CE2:9845, V-B:PRO:540:N:9853, V-B:PRO:540:CB:9854, V-B:TYR:539:CZ:9846, V-B:PRO:540:CA:9852, H-B:TYR:539:N:9839, V-B:TYR:539:CD1:9842, V-B:ILE:538:CA:9829, V-B:TYR:539:C:9836, V-B:LEU:363:CD1:8157, V-B:ILE:538:CG2:9832, V-B:TYR:539:CE1:9844, V-B:GLU:543:CD:9877, V-B:ILE:538:CB:9831, V-B:MET:535:CE:9804, V-A:ARG:545:CZ:4923, V-A:GLY:454:CA:4045, V-A:GLU:543:CD:4905, V-A:HIS:456:CE1:4066, H-B:TYR:539:OH:9847, V-B:GLU:543:CB:9875, H-A:GLY:454:N:4046, V-B:PRO:540:CD:9856, V-B:ASP:366:CB:8180, V-B:TYR:539:CG:9841, V-B:TYR:539:CD2:9843, V-B:ASP:366:CG:8181, V-B:HIS:456:CE1:9038, V-A:GLY:453:C:4038, V-A:GLY:453:CA:4040, V-A:GLY:454:C:4043, V-A:ARG:545:CG:4919, V-A:ARG:545:CD:4920, V-B:ILE:538:CG1:9833, V-B:ILE:538:CD1:9834, V-B:PRO:540:CG:9855"]

$$$$
3ci_Grossjean_2025
     RDKit          3D

 39 41  0  0  0  0  0  0  0  0999 V2000
  130.8970  125.0220   60.9830 C   0  0  0  0  0  0  0  0  0  0  0  0
  130.7560  125.3620   59.5110 C   0  0  0  0  0  0  0  0  0  0  0  0
  130.0300  124.5550   58.6410 C   0  0  0  0  0  0  0  0  0  0  0  0
  129.9140  124.9200   57.2920 C   0  0  0  0  0  0  0  0  0  0  0  0
  129.1130  124.0310   56.3980 C   0  0  0  0  0  0  0  0  0  0  0  0
  129.5420  123.7530   55.0930 C   0  0  0  0  0  0  0  0  0  0  0  0
  128.7870  122.9310   54.2600 C   0  0  0  0  0  0  0  0  0  0  0  0
  127.5940  122.3880   54.7280 C   0  0  0  0  0  0  0  0  0  0  0  0
  127.1490  122.6610   56.0180 C   0  0  0  0  0  0  0  0  0  0  0  0
  127.9060  123.4830   56.8480 C   0  0  0  0  0  0  0  0  0  0  0  0
  130.5580  126.1070   56.8570 C   0  0  0  0  0  0  0  0  0  0  0  0
  130.5080  126.5160   55.4500 C   0  0  0  0  0  0  0  0  0  0  0  0
  130.4660  126.8390   54.3390 N   0  0  0  0  0  0  0  0  0  0  0  0
  131.2720  126.8720   57.8110 C   0  0  0  0  0  0  0  0  0  0  0  0
  132.1020  128.3960   57.3780 S   0  0  0  0  0  0  0  0  0  0  0  0
  131.5760  129.7200   58.5150 C   0  0  0  0  0  0  0  0  0  0  0  0
  130.6420  130.7460   57.8640 C   0  0  0  0  0  0  0  0  0  0  0  0
  130.0070  131.5230   58.5800 O   0  0  0  0  0  0  0  0  0  0  0  0
  130.5760  130.7060   56.5140 N   0  0  0  0  0  0  0  0  0  0  0  0
  129.8360  131.5360   55.6830 C   0  0  0  0  0  0  0  0  0  0  0  0
  128.8980  131.0560   54.7700 C   0  0  0  0  0  0  0  0  0  0  0  0
  128.3950  132.1780   54.1500 C   0  0  0  0  0  0  0  0  0  0  0  0
  128.9990  133.2750   54.6660 O   0  0  0  0  0  0  0  0  0  0  0  0
  129.9110  132.8550   55.6360 N   0  0  0  0  0  0  0  0  0  0  0  0
  131.3700  126.4970   59.1120 N   0  0  0  0  0  0  0  0  0  0  0  0
  130.5457  125.8692   61.5903 H   0  0  0  0  0  0  0  0  0  0  0  0
  130.2941  124.1311   61.2129 H   0  0  0  0  0  0  0  0  0  0  0  0
  131.9534  124.8192   61.2129 H   0  0  0  0  0  0  0  0  0  0  0  0
  129.5499  123.6363   59.0090 H   0  0  0  0  0  0  0  0  0  0  0  0
  130.4826  124.1876   54.7237 H   0  0  0  0  0  0  0  0  0  0  0  0
  129.1314  122.7123   53.2385 H   0  0  0  0  0  0  0  0  0  0  0  0
  126.9973  121.7370   54.0721 H   0  0  0  0  0  0  0  0  0  0  0  0
  126.2041  122.2295   56.3798 H   0  0  0  0  0  0  0  0  0  0  0  0
  127.5528  123.7038   57.8661 H   0  0  0  0  0  0  0  0  0  0  0  0
  131.0509  129.2609   59.3656 H   0  0  0  0  0  0  0  0  0  0  0  0
  132.4827  130.2587   58.8277 H   0  0  0  0  0  0  0  0  0  0  0  0
  131.1430  130.0160   56.0450 H   0  0  0  0  0  0  0  0  0  0  0  0
  128.6199  130.0079   54.5850 H   0  0  0  0  0  0  0  0  0  0  0  0
  127.6267  132.1826   53.3628 H   0  0  0  0  0  0  0  0  0  0  0  0
  1  2  1  0
  2  3  2  0
  3  4  1  0
  4  5  1  0
  5  6  2  0
  6  7  1  0
  7  8  2  0
  8  9  1  0
  9 10  2  0
  4 11  2  0
 11 12  1  0
 12 13  3  0
 11 14  1  0
 14 15  1  0
 15 16  1  0
 16 17  1  0
 17 18  2  0
 17 19  1  0
 19 20  1  0
 20 21  1  0
 21 22  2  0
 22 23  1  0
 23 24  1  0
 14 25  2  0
 25  2  1  0
 10  5  1  0
 24 20  2  0
  1 26  1  0
  1 27  1  0
  1 28  1  0
  3 29  1  0
  6 30  1  0
  7 31  1  0
  8 32  1  0
  9 33  1  0
 10 34  1  0
 16 35  1  0
 16 36  1  0
 19 37  1  0
 21 38  1  0
 22 39  1  0
M  END
>  <Binding energies>  (1) 
[-7.65]

>  <Ligand effiencies>  (1) 
[-0.29423076923076924]

>  <Interactions>  (1) 
["V-B:TYR:539:CZ:9846, V-B:TYR:539:CD1:9842, V-B:ILE:538:CA:9829, V-B:ILE:538:C:9827, V-B:ILE:538:CG2:9832, V-B:TYR:539:CE1:9844, V-B:ILE:538:CB:9831, V-B:MET:535:CE:9804, V-A:ASP:366:CB:3208, V-A:ASP:366:CG:3209, V-A:TYR:531:CE1:4789, H-A:TYR:531:OH:4792, V-A:TYR:539:CE1:4872, H-A:TYR:539:N:4867, V-A:ILE:538:CA:4857, V-A:ILE:538:CD1:4862, V-A:TYR:539:CZ:4874"]

$$$$
3cj_Grossjean_2025
     RDKit          3D

 39 41  0  0  0  0  0  0  0  0999 V2000
  129.0050  123.0190   61.6030 C   0  0  0  0  0  0  0  0  0  0  0  0
  128.0990  123.1460   60.3940 C   0  0  0  0  0  0  0  0  0  0  0  0
  128.6140  123.1900   59.1000 C   0  0  0  0  0  0  0  0  0  0  0  0
  127.7390  123.2840   58.0090 C   0  0  0  0  0  0  0  0  0  0  0  0
  128.3310  123.2630   56.6390 C   0  0  0  0  0  0  0  0  0  0  0  0
  129.3870  124.1200   56.3080 C   0  0  0  0  0  0  0  0  0  0  0  0
  129.9300  124.1090   55.0250 C   0  0  0  0  0  0  0  0  0  0  0  0
  129.4130  123.2420   54.0670 C   0  0  0  0  0  0  0  0  0  0  0  0
  128.3570  122.3910   54.3790 C   0  0  0  0  0  0  0  0  0  0  0  0
  127.8160  122.4040   55.6620 C   0  0  0  0  0  0  0  0  0  0  0  0
  126.3480  123.3660   58.2650 C   0  0  0  0  0  0  0  0  0  0  0  0
  125.3850  123.4950   57.1680 C   0  0  0  0  0  0  0  0  0  0  0  0
  124.6240  123.5960   56.3000 N   0  0  0  0  0  0  0  0  0  0  0  0
  125.9140  123.3090   59.6090 C   0  0  0  0  0  0  0  0  0  0  0  0
  124.1930  123.2660   60.0620 S   0  0  0  0  0  0  0  0  0  0  0  0
  123.6580  125.0070   60.0270 C   0  0  0  0  0  0  0  0  0  0  0  0
  124.2850  125.7730   58.8580 C   0  0  0  0  0  0  0  0  0  0  0  0
  123.7390  125.7500   57.7530 O   0  0  0  0  0  0  0  0  0  0  0  0
  125.4050  126.4660   59.1560 N   0  0  0  0  0  0  0  0  0  0  0  0
  126.0840  127.3400   58.3210 C   0  0  0  0  0  0  0  0  0  0  0  0
  125.8690  128.6260   58.1510 N   0  0  0  0  0  0  0  0  0  0  0  0
  126.7270  129.1510   57.3000 C   0  0  0  0  0  0  0  0  0  0  0  0
  127.6680  128.2810   56.7570 C   0  0  0  0  0  0  0  0  0  0  0  0
  127.4040  126.6880   57.4030 S   0  0  0  0  0  0  0  0  0  0  0  0
  126.7730  123.1910   60.6520 N   0  0  0  0  0  0  0  0  0  0  0  0
  128.4051  123.1031   62.5212 H   0  0  0  0  0  0  0  0  0  0  0  0
  129.5089  122.0414   61.5825 H   0  0  0  0  0  0  0  0  0  0  0  0
  129.7583  123.8203   61.5825 H   0  0  0  0  0  0  0  0  0  0  0  0
  129.7010  123.1512   58.9356 H   0  0  0  0  0  0  0  0  0  0  0  0
  129.7910  124.8070   57.0662 H   0  0  0  0  0  0  0  0  0  0  0  0
  130.7624  124.7816   54.7707 H   0  0  0  0  0  0  0  0  0  0  0  0
  129.8427  123.2293   53.0545 H   0  0  0  0  0  0  0  0  0  0  0  0
  127.9514  121.7110   53.6154 H   0  0  0  0  0  0  0  0  0  0  0  0
  126.9786  121.7348   55.9089 H   0  0  0  0  0  0  0  0  0  0  0  0
  122.5630  125.0408   59.9280 H   0  0  0  0  0  0  0  0  0  0  0  0
  123.9861  125.4837   60.9625 H   0  0  0  0  0  0  0  0  0  0  0  0
  125.7430  126.4160   60.1060 H   0  0  0  0  0  0  0  0  0  0  0  0
  126.7011  130.2179   57.0334 H   0  0  0  0  0  0  0  0  0  0  0  0
  128.4518  128.5564   56.0360 H   0  0  0  0  0  0  0  0  0  0  0  0
  1  2  1  0
  2  3  2  0
  3  4  1  0
  4  5  1  0
  5  6  2  0
  6  7  1  0
  7  8  2  0
  8  9  1  0
  9 10  2  0
  4 11  2  0
 11 12  1  0
 12 13  3  0
 11 14  1  0
 14 15  1  0
 15 16  1  0
 16 17  1  0
 17 18  2  0
 17 19  1  0
 19 20  1  0
 20 21  2  0
 21 22  1  0
 22 23  2  0
 23 24  1  0
 14 25  2  0
 25  2  1  0
 10  5  1  0
 24 20  1  0
  1 26  1  0
  1 27  1  0
  1 28  1  0
  3 29  1  0
  6 30  1  0
  7 31  1  0
  8 32  1  0
  9 33  1  0
 10 34  1  0
 16 35  1  0
 16 36  1  0
 19 37  1  0
 22 38  1  0
 23 39  1  0
M  END
>  <Binding energies>  (1) 
[-7.63]

>  <Ligand effiencies>  (1) 
[-0.29346153846153844]

>  <Interactions>  (1) 
["V-B:TYR:539:CE2:9845, V-B:PRO:540:CB:9854, V-B:TYR:539:CZ:9846, H-B:ALA:541:N:9860, V-B:PRO:540:CA:9852, V-B:TYR:539:CD1:9842, V-B:ILE:538:CA:9829, V-B:LEU:363:CD1:8157, V-B:ALA:541:CB:9861, V-B:ILE:538:CG2:9832, V-B:TYR:539:CE1:9844, V-B:ILE:538:CB:9831, H-B:GLU:543:OE2:9879, V-B:MET:535:CE:9804, V-B:LEU:363:CA:8153, H-B:TYR:531:OH:9764, V-B:ASP:366:CB:8180, H-B:ASP:366:OD1:8182, V-B:ASN:362:C:8140, V-B:ASP:366:CG:8181, V-B:VAL:537:C:9819"]

$$$$
3ck_Grossjean_2025
     RDKit          3D

 57 58  0  0  0  0  0  0  0  0999 V2000
  127.8920  122.6350   55.1090 C   0  0  0  0  0  0  0  0  0  0  0  0
  127.1300  121.8020   55.9680 O   0  0  0  0  0  0  0  0  0  0  0  0
  126.6580  122.4680   57.1300 C   0  0  0  0  0  0  0  0  0  0  0  0
  127.7220  122.3940   58.2320 C   0  0  0  0  0  0  0  0  0  0  0  0
  127.1780  122.8960   59.4460 O   0  0  0  0  0  0  0  0  0  0  0  0
  126.4570  124.1120   59.2960 C   0  0  0  0  0  0  0  0  0  0  0  0
  127.4340  125.2290   58.9080 C   0  0  0  0  0  0  0  0  0  0  0  0
  126.7000  126.2640   58.2710 O   0  0  0  0  0  0  0  0  0  0  0  0
  127.2880  127.5530   58.3600 C   0  0  0  0  0  0  0  0  0  0  0  0
  126.2430  128.6220   57.9890 C   0  0  0  0  0  0  0  0  0  0  0  0
  126.4070  129.1620   56.6360 N   0  0  0  0  0  0  0  0  0  0  0  0
  126.3460  130.4630   56.2980 C   0  0  0  0  0  0  0  0  0  0  0  0
  126.1680  131.3670   57.1180 O   0  0  0  0  0  0  0  0  0  0  0  0
  126.5230  130.7670   54.8020 C   0  0  0  0  0  0  0  0  0  0  0  0
  128.1520  130.3330   54.1010 S   0  0  0  0  0  0  0  0  0  0  0  0
  129.1340  129.5290   55.3580 C   0  0  0  0  0  0  0  0  0  0  0  0
  129.0950  128.1720   55.3540 N   0  0  0  0  0  0  0  0  0  0  0  0
  129.8110  127.4980   56.2810 C   0  0  0  0  0  0  0  0  0  0  0  0
  129.7160  125.9860   56.2150 C   0  0  0  0  0  0  0  0  0  0  0  0
  130.5880  128.1400   57.2420 C   0  0  0  0  0  0  0  0  0  0  0  0
  130.6390  129.5400   57.2690 C   0  0  0  0  0  0  0  0  0  0  0  0
  131.4670  130.1850   58.3320 C   0  0  0  0  0  0  0  0  0  0  0  0
  130.8770  130.5830   59.5380 C   0  0  0  0  0  0  0  0  0  0  0  0
  131.6410  131.1940   60.5300 C   0  0  0  0  0  0  0  0  0  0  0  0
  132.9980  131.4170   60.3150 C   0  0  0  0  0  0  0  0  0  0  0  0
  133.5980  131.0350   59.1170 C   0  0  0  0  0  0  0  0  0  0  0  0
  132.8320  130.4240   58.1280 C   0  0  0  0  0  0  0  0  0  0  0  0
  129.9020  130.2600   56.2940 C   0  0  0  0  0  0  0  0  0  0  0  0
  129.9510  131.7260   56.2490 C   0  0  0  0  0  0  0  0  0  0  0  0
  129.9900  132.8820   56.2130 N   0  0  0  0  0  0  0  0  0  0  0  0
  128.5128  123.3137   55.7123 H   0  0  0  0  0  0  0  0  0  0  0  0
  128.5397  122.0124   54.4743 H   0  0  0  0  0  0  0  0  0  0  0  0
  127.2143  123.2248   54.4743 H   0  0  0  0  0  0  0  0  0  0  0  0
  126.4518  123.5215   56.8901 H   0  0  0  0  0  0  0  0  0  0  0  0
  125.7347  121.9831   57.4799 H   0  0  0  0  0  0  0  0  0  0  0  0
  128.0323  121.3482   58.3733 H   0  0  0  0  0  0  0  0  0  0  0  0
  128.5947  122.9977   57.9423 H   0  0  0  0  0  0  0  0  0  0  0  0
  125.6983  123.9958   58.5080 H   0  0  0  0  0  0  0  0  0  0  0  0
  125.9588  124.3672   60.2429 H   0  0  0  0  0  0  0  0  0  0  0  0
  127.9255  125.6228   59.8099 H   0  0  0  0  0  0  0  0  0  0  0  0
  128.2048  124.8380   58.2276 H   0  0  0  0  0  0  0  0  0  0  0  0
  127.6394  127.7253   59.3880 H   0  0  0  0  0  0  0  0  0  0  0  0
  128.1388  127.6161   57.6656 H   0  0  0  0  0  0  0  0  0  0  0  0
  125.2427  128.1705   58.0638 H   0  0  0  0  0  0  0  0  0  0  0  0
  126.3785  129.4603   58.6882 H   0  0  0  0  0  0  0  0  0  0  0  0
  126.5730  128.4860   55.9060 H   0  0  0  0  0  0  0  0  0  0  0  0
  125.7553  130.2061   54.2488 H   0  0  0  0  0  0  0  0  0  0  0  0
  126.4316  131.8586   54.7021 H   0  0  0  0  0  0  0  0  0  0  0  0
  129.6902  125.5754   57.2352 H   0  0  0  0  0  0  0  0  0  0  0  0
  128.7981  125.6992   55.6810 H   0  0  0  0  0  0  0  0  0  0  0  0
  130.5908  125.5866   55.6810 H   0  0  0  0  0  0  0  0  0  0  0  0
  131.1584  127.5514   57.9756 H   0  0  0  0  0  0  0  0  0  0  0  0
  129.8030  130.4121   59.7033 H   0  0  0  0  0  0  0  0  0  0  0  0
  131.1742  131.4986   61.4783 H   0  0  0  0  0  0  0  0  0  0  0  0
  133.6020  131.8991   61.0978 H   0  0  0  0  0  0  0  0  0  0  0  0
  134.6708  131.2151   58.9535 H   0  0  0  0  0  0  0  0  0  0  0  0
  133.3023  130.1267   57.1791 H   0  0  0  0  0  0  0  0  0  0  0  0
  1  2  1  0
  2  3  1  0
  3  4  1  0
  4  5  1  0
  5  6  1  0
  6  7  1  0
  7  8  1  0
  8  9  1  0
  9 10  1  0
 10 11  1  0
 11 12  1  0
 12 13  2  0
 12 14  1  0
 14 15  1  0
 15 16  1  0
 16 17  2  0
 17 18  1  0
 18 19  1  0
 18 20  2  0
 20 21  1  0
 21 22  1  0
 22 23  2  0
 23 24  1  0
 24 25  2  0
 25 26  1  0
 26 27  2  0
 21 28  2  0
 28 29  1  0
 29 30  3  0
 28 16  1  0
 27 22  1  0
  1 31  1  0
  1 32  1  0
  1 33  1  0
  3 34  1  0
  3 35  1  0
  4 36  1  0
  4 37  1  0
  6 38  1  0
  6 39  1  0
  7 40  1  0
  7 41  1  0
  9 42  1  0
  9 43  1  0
 10 44  1  0
 10 45  1  0
 11 46  1  0
 14 47  1  0
 14 48  1  0
 19 49  1  0
 19 50  1  0
 19 51  1  0
 20 52  1  0
 23 53  1  0
 24 54  1  0
 25 55  1  0
 26 56  1  0
 27 57  1  0
M  END
>  <Binding energies>  (1) 
[-6.74]

>  <Ligand effiencies>  (1) 
[-0.2174193548387097]

>  <Interactions>  (1) 
["V-B:PRO:540:N:9853, V-B:PRO:540:CB:9854, V-B:PRO:540:CA:9852, H-B:TYR:539:N:9839, V-B:TYR:539:CD1:9842, V-B:ILE:538:CA:9829, V-B:TYR:539:C:9836, V-B:ILE:538:CG2:9832, V-B:TYR:539:CE1:9844, V-B:ILE:538:CB:9831, V-B:MET:535:CE:9804, V-A:ASP:366:CG:3209, H-A:TYR:531:OH:4792, H-B:TYR:531:OH:9764, V-B:PRO:540:CD:9856, H-A:TYR:539:OH:4875, V-A:PRO:540:CB:4882, V-A:PRO:540:CA:4880, H-A:TYR:539:N:4867, V-A:TYR:539:CZ:4874, V-B:TYR:531:CZ:9763, V-A:LEU:363:CA:3181, V-A:LEU:363:CB:3183, V-A:TYR:539:CE2:4873, V-B:TYR:531:CE1:9761, V-A:ASN:362:CB:3172, V-A:ASN:362:C:3168"]

$$$$
4aa_Grossjean_2025
     RDKit          3D

 45 47  0  0  0  0  0  0  0  0999 V2000
  129.3840  123.0640   54.0200 C   0  0  0  0  0  0  0  0  0  0  0  0
  127.9490  122.7390   54.4460 C   0  0  0  0  0  0  0  0  0  0  0  0
  127.9720  121.9940   55.6570 O   0  0  0  0  0  0  0  0  0  0  0  0
  126.9550  122.0780   56.5520 C   0  0  0  0  0  0  0  0  0  0  0  0
  125.8020  121.7060   56.3090 O   0  0  0  0  0  0  0  0  0  0  0  0
  127.3690  122.6740   57.8660 C   0  0  0  0  0  0  0  0  0  0  0  0
  126.8400  123.9120   58.2530 C   0  0  0  0  0  0  0  0  0  0  0  0
  127.2080  124.4930   59.4640 C   0  0  0  0  0  0  0  0  0  0  0  0
  128.1040  123.8450   60.3160 C   0  0  0  0  0  0  0  0  0  0  0  0
  128.4130  124.5240   61.5100 N   0  0  0  0  0  0  0  0  0  0  0  0
  129.6120  124.7580   62.0960 C   0  0  0  0  0  0  0  0  0  0  0  0
  130.6870  124.3440   61.6620 O   0  0  0  0  0  0  0  0  0  0  0  0
  129.5600  125.5380   63.3340 C   0  0  0  0  0  0  0  0  0  0  0  0
  130.5840  125.1020   64.7050 S   0  0  0  0  0  0  0  0  0  0  0  0
  129.9140  126.3930   65.6760 C   0  0  0  0  0  0  0  0  0  0  0  0
  130.3130  126.6130   66.9300 N   0  0  0  0  0  0  0  0  0  0  0  0
  129.7110  127.6430   67.5730 C   0  0  0  0  0  0  0  0  0  0  0  0
  130.1760  127.8730   69.0000 C   0  0  0  0  0  0  0  0  0  0  0  0
  128.7330  128.4510   66.9980 C   0  0  0  0  0  0  0  0  0  0  0  0
  128.3180  128.2190   65.6820 C   0  0  0  0  0  0  0  0  0  0  0  0
  127.2480  129.1280   65.0980 C   0  0  0  0  0  0  0  0  0  0  0  0
  128.9230  127.1450   64.9760 C   0  0  0  0  0  0  0  0  0  0  0  0
  128.7380  126.6330   63.6440 C   0  0  0  0  0  0  0  0  0  0  0  0
  127.8350  127.1830   62.7690 N   0  0  0  0  0  0  0  0  0  0  0  0
  128.6420  122.6070   59.9350 C   0  0  0  0  0  0  0  0  0  0  0  0
  128.2760  122.0290   58.7220 C   0  0  0  0  0  0  0  0  0  0  0  0
  130.0088  123.2055   54.9142 H   0  0  0  0  0  0  0  0  0  0  0  0
  129.7852  122.2340   53.4199 H   0  0  0  0  0  0  0  0  0  0  0  0
  129.3885  123.9859   53.4199 H   0  0  0  0  0  0  0  0  0  0  0  0
  127.3917  123.6746   54.6014 H   0  0  0  0  0  0  0  0  0  0  0  0
  127.4581  122.1465   53.6599 H   0  0  0  0  0  0  0  0  0  0  0  0
  126.1274  124.4300   57.5943 H   0  0  0  0  0  0  0  0  0  0  0  0
  126.7898  125.4691   59.7511 H   0  0  0  0  0  0  0  0  0  0  0  0
  127.6060  124.8770   62.0040 H   0  0  0  0  0  0  0  0  0  0  0  0
  129.4146  127.4964   69.6989 H   0  0  0  0  0  0  0  0  0  0  0  0
  131.1233  127.3396   69.1674 H   0  0  0  0  0  0  0  0  0  0  0  0
  130.3269  128.9497   69.1674 H   0  0  0  0  0  0  0  0  0  0  0  0
  128.2867  129.2718   67.5786 H   0  0  0  0  0  0  0  0  0  0  0  0
  126.6864  129.6051   65.9147 H   0  0  0  0  0  0  0  0  0  0  0  0
  127.7233  129.9027   64.4784 H   0  0  0  0  0  0  0  0  0  0  0  0
  126.5603  128.5338   64.4784 H   0  0  0  0  0  0  0  0  0  0  0  0
  126.8820  126.8530   62.7080 H   0  0  0  0  0  0  0  0  0  0  0  0
  128.0950  127.9380   62.1510 H   0  0  0  0  0  0  0  0  0  0  0  0
  129.3546  122.0915   60.5957 H   0  0  0  0  0  0  0  0  0  0  0  0
  128.7018  121.0572   58.4315 H   0  0  0  0  0  0  0  0  0  0  0  0
  1  2  1  0
  2  3  1  0
  3  4  1  0
  4  5  2  0
  4  6  1  0
  6  7  2  0
  7  8  1  0
  8  9  2  0
  9 10  1  0
 10 11  1  0
 11 12  2  0
 11 13  1  0
 13 14  1  0
 14 15  1  0
 15 16  2  0
 16 17  1  0
 17 18  1  0
 17 19  2  0
 19 20  1  0
 20 21  1  0
 20 22  2  0
 22 23  1  0
 23 24  1  0
  9 25  1  0
 25 26  2  0
 26  6  1  0
 23 13  2  0
 22 15  1  0
  1 27  1  0
  1 28  1  0
  1 29  1  0
  2 30  1  0
  2 31  1  0
  7 32  1  0
  8 33  1  0
 10 34  1  0
 18 35  1  0
 18 36  1  0
 18 37  1  0
 19 38  1  0
 21 39  1  0
 21 40  1  0
 21 41  1  0
 24 42  1  0
 24 43  1  0
 25 44  1  0
 26 45  1  0
M  END
>  <Binding energies>  (1) 
[-7.69]

>  <Ligand effiencies>  (1) 
[-0.26517241379310347]

>  <Interactions>  (1) 
["V-B:TYR:539:CE2:9845, V-B:PRO:540:N:9853, V-B:TYR:539:CZ:9846, V-B:PRO:540:CA:9852, H-B:TYR:539:N:9839, V-B:TYR:539:CD1:9842, V-B:ILE:538:CA:9829, V-B:TYR:539:C:9836, V-B:ILE:538:CG2:9832, V-B:TYR:539:CE1:9844, V-B:GLU:543:CD:9877, V-B:ILE:538:CB:9831, H-B:GLU:543:OE2:9879, V-B:MET:535:CE:9804, V-A:GLU:543:CD:4905, V-A:HIS:456:CE1:4066, V-A:GLU:543:CG:4904, V-B:PRO:540:CD:9856, V-B:TYR:539:CA:9838, V-B:TYR:539:CG:9841, V-B:TYR:539:CD2:9843, H-B:ASP:366:OD1:8182, H-B:GLU:543:OE1:9878, V-A:GLU:543:CB:4903, V-A:GLU:543:C:4899, V-B:HIS:456:CE1:9038, H-A:GLU:543:OE2:4907"]

$$$$
4ab_Grossjean_2025
     RDKit          3D

 42 44  0  0  0  0  0  0  0  0999 V2000
  128.0150  122.7440   54.7160 C   0  0  0  0  0  0  0  0  0  0  0  0
  127.9980  121.9820   55.9150 O   0  0  0  0  0  0  0  0  0  0  0  0
  126.9680  122.0840   56.7930 C   0  0  0  0  0  0  0  0  0  0  0  0
  125.8040  121.7790   56.5130 O   0  0  0  0  0  0  0  0  0  0  0  0
  127.3830  122.6100   58.1360 C   0  0  0  0  0  0  0  0  0  0  0  0
  126.4960  123.4220   58.8550 C   0  0  0  0  0  0  0  0  0  0  0  0
  126.8520  123.9280   60.1030 C   0  0  0  0  0  0  0  0  0  0  0  0
  128.0950  123.6260   60.6600 C   0  0  0  0  0  0  0  0  0  0  0  0
  128.3520  124.1960   61.9210 N   0  0  0  0  0  0  0  0  0  0  0  0
  129.4740  124.7870   62.4000 C   0  0  0  0  0  0  0  0  0  0  0  0
  130.5280  124.8870   61.7700 O   0  0  0  0  0  0  0  0  0  0  0  0
  129.3740  125.3000   63.7670 C   0  0  0  0  0  0  0  0  0  0  0  0
  129.6380  124.2260   65.1430 S   0  0  0  0  0  0  0  0  0  0  0  0
  129.3110  125.5170   66.2760 C   0  0  0  0  0  0  0  0  0  0  0  0
  129.3530  125.3280   67.5950 N   0  0  0  0  0  0  0  0  0  0  0  0
  129.0770  126.4110   68.3620 C   0  0  0  0  0  0  0  0  0  0  0  0
  129.1250  126.1720   69.8590 C   0  0  0  0  0  0  0  0  0  0  0  0
  128.7680  127.6670   67.8460 C   0  0  0  0  0  0  0  0  0  0  0  0
  128.7240  127.8630   66.4600 C   0  0  0  0  0  0  0  0  0  0  0  0
  128.3800  129.2520   65.9460 C   0  0  0  0  0  0  0  0  0  0  0  0
  129.0040  126.7490   65.6230 C   0  0  0  0  0  0  0  0  0  0  0  0
  129.0410  126.5950   64.1940 C   0  0  0  0  0  0  0  0  0  0  0  0
  128.7740  127.6350   63.3390 N   0  0  0  0  0  0  0  0  0  0  0  0
  128.9920  122.8180   59.9450 C   0  0  0  0  0  0  0  0  0  0  0  0
  128.6350  122.3160   58.6960 C   0  0  0  0  0  0  0  0  0  0  0  0
  128.0389  123.8157   54.9629 H   0  0  0  0  0  0  0  0  0  0  0  0
  128.9075  122.4831   54.1284 H   0  0  0  0  0  0  0  0  0  0  0  0
  127.1117  122.5232   54.1284 H   0  0  0  0  0  0  0  0  0  0  0  0
  125.5101  123.6620   58.4303 H   0  0  0  0  0  0  0  0  0  0  0  0
  126.1483  124.5700   60.6531 H   0  0  0  0  0  0  0  0  0  0  0  0
  127.5780  124.1370   62.5650 H   0  0  0  0  0  0  0  0  0  0  0  0
  128.9351  127.1178   70.3876 H   0  0  0  0  0  0  0  0  0  0  0  0
  128.3568  125.4356   70.1376 H   0  0  0  0  0  0  0  0  0  0  0  0
  130.1179  125.7893   70.1376 H   0  0  0  0  0  0  0  0  0  0  0  0
  128.5585  128.5051   68.5270 H   0  0  0  0  0  0  0  0  0  0  0  0
  128.2128  129.9273   66.7981 H   0  0  0  0  0  0  0  0  0  0  0  0
  129.2110  129.6327   65.3340 H   0  0  0  0  0  0  0  0  0  0  0  0
  127.4674  129.2009   65.3340 H   0  0  0  0  0  0  0  0  0  0  0  0
  127.8980  127.7070   62.8440 H   0  0  0  0  0  0  0  0  0  0  0  0
  129.4540  128.3640   63.1720 H   0  0  0  0  0  0  0  0  0  0  0  0
  129.9779  122.5809   60.3713 H   0  0  0  0  0  0  0  0  0  0  0  0
  129.3429  121.6817   58.1423 H   0  0  0  0  0  0  0  0  0  0  0  0
  1  2  1  0
  2  3  1  0
  3  4  2  0
  3  5  1  0
  5  6  2  0
  6  7  1  0
  7  8  2  0
  8  9  1  0
  9 10  1  0
 10 11  2  0
 10 12  1  0
 12 13  1  0
 13 14  1  0
 14 15  2  0
 15 16  1  0
 16 17  1  0
 16 18  2  0
 18 19  1  0
 19 20  1  0
 19 21  2  0
 21 22  1  0
 22 23  1  0
  8 24  1  0
 24 25  2  0
 25  5  1  0
 22 12  2  0
 21 14  1  0
  1 26  1  0
  1 27  1  0
  1 28  1  0
  6 29  1  0
  7 30  1  0
  9 31  1  0
 17 32  1  0
 17 33  1  0
 17 34  1  0
 18 35  1  0
 20 36  1  0
 20 37  1  0
 20 38  1  0
 23 39  1  0
 23 40  1  0
 24 41  1  0
 25 42  1  0
M  END
>  <Binding energies>  (1) 
[-7.43]

>  <Ligand effiencies>  (1) 
[-0.26535714285714285]

>  <Interactions>  (1) 
["V-B:TYR:539:CE2:9845, V-B:PRO:540:N:9853, V-B:PRO:540:CB:9854, V-B:TYR:539:CZ:9846, V-B:PRO:540:CA:9852, H-B:TYR:539:N:9839, V-B:TYR:539:CD1:9842, V-B:ILE:538:CA:9829, V-B:TYR:539:C:9836, V-B:ALA:541:CB:9861, V-B:ILE:538:CG2:9832, V-B:TYR:539:CE1:9844, V-B:GLU:543:CD:9877, V-A:TYR:484:CE1:4341, V-B:ILE:538:CB:9831, V-B:GLU:543:CG:9876, H-B:GLU:543:OE2:9879, V-B:MET:535:CE:9804, V-A:GLU:543:CD:4905, V-A:HIS:456:CE1:4066, V-A:GLU:543:CG:4904, V-B:GLU:543:CB:9875, V-B:PRO:540:CD:9856, V-B:TYR:539:CA:9838, V-B:TYR:539:CG:9841, V-B:TYR:539:CD2:9843, H-B:GLU:543:OE1:9878, H-A:GLU:543:OE1:4906, V-A:GLU:543:CB:4903, V-B:HIS:456:CE1:9038, H-A:GLU:543:OE2:4907, V-A:HIS:456:CD2:4064"]

$$$$
4ac_Grossjean_2025
     RDKit          3D

 40 42  0  0  0  0  0  0  0  0999 V2000
  124.9320  122.9700   55.2160 C   0  0  0  0  0  0  0  0  0  0  0  0
  125.6440  121.9970   55.9720 O   0  0  0  0  0  0  0  0  0  0  0  0
  126.3440  122.3940   57.0950 C   0  0  0  0  0  0  0  0  0  0  0  0
  127.6890  122.0310   57.1510 C   0  0  0  0  0  0  0  0  0  0  0  0
  128.4750  122.3880   58.2430 C   0  0  0  0  0  0  0  0  0  0  0  0
  127.9260  123.1250   59.2930 C   0  0  0  0  0  0  0  0  0  0  0  0
  128.7920  123.4280   60.3590 N   0  0  0  0  0  0  0  0  0  0  0  0
  129.5610  122.5970   61.1020 C   0  0  0  0  0  0  0  0  0  0  0  0
  129.5880  121.3720   60.9610 O   0  0  0  0  0  0  0  0  0  0  0  0
  130.3840  123.2480   62.1250 C   0  0  0  0  0  0  0  0  0  0  0  0
  132.0710  122.7800   62.3440 S   0  0  0  0  0  0  0  0  0  0  0  0
  132.2730  123.9370   63.6400 C   0  0  0  0  0  0  0  0  0  0  0  0
  133.4330  124.0830   64.2810 N   0  0  0  0  0  0  0  0  0  0  0  0
  133.4560  125.0140   65.2660 C   0  0  0  0  0  0  0  0  0  0  0  0
  134.7850  125.1660   65.9820 C   0  0  0  0  0  0  0  0  0  0  0  0
  132.3550  125.7920   65.6220 C   0  0  0  0  0  0  0  0  0  0  0  0
  131.1390  125.6350   64.9480 C   0  0  0  0  0  0  0  0  0  0  0  0
  129.9680  126.5070   65.3740 C   0  0  0  0  0  0  0  0  0  0  0  0
  131.0790  124.6700   63.9070 C   0  0  0  0  0  0  0  0  0  0  0  0
  130.0170  124.2590   63.0280 C   0  0  0  0  0  0  0  0  0  0  0  0
  128.7650  124.8160   63.0830 N   0  0  0  0  0  0  0  0  0  0  0  0
  126.5710  123.4840   59.2500 C   0  0  0  0  0  0  0  0  0  0  0  0
  125.7870  123.1240   58.1560 C   0  0  0  0  0  0  0  0  0  0  0  0
  124.4232  123.6653   55.8999 H   0  0  0  0  0  0  0  0  0  0  0  0
  125.6360  123.5288   54.5819 H   0  0  0  0  0  0  0  0  0  0  0  0
  124.1864  122.4680   54.5819 H   0  0  0  0  0  0  0  0  0  0  0  0
  128.1332  121.4571   56.3244 H   0  0  0  0  0  0  0  0  0  0  0  0
  129.5327  122.0880   58.2783 H   0  0  0  0  0  0  0  0  0  0  0  0
  128.8100  124.4040   60.6200 H   0  0  0  0  0  0  0  0  0  0  0  0
  134.6199  125.1471   67.0694 H   0  0  0  0  0  0  0  0  0  0  0  0
  135.4514  124.3382   65.6979 H   0  0  0  0  0  0  0  0  0  0  0  0
  135.2472  126.1229   65.6979 H   0  0  0  0  0  0  0  0  0  0  0  0
  132.4425  126.5297   66.4333 H   0  0  0  0  0  0  0  0  0  0  0  0
  129.9187  126.5437   66.4723 H   0  0  0  0  0  0  0  0  0  0  0  0
  130.1056  127.5243   64.9789 H   0  0  0  0  0  0  0  0  0  0  0  0
  129.0328  126.0836   64.9789 H   0  0  0  0  0  0  0  0  0  0  0  0
  128.6260  125.8050   63.2230 H   0  0  0  0  0  0  0  0  0  0  0  0
  127.9340  124.2490   62.9810 H   0  0  0  0  0  0  0  0  0  0  0  0
  126.1265  124.0507   60.0814 H   0  0  0  0  0  0  0  0  0  0  0  0
  124.7262  123.4134   58.1239 H   0  0  0  0  0  0  0  0  0  0  0  0
  1  2  1  0
  2  3  1  0
  3  4  2  0
  4  5  1  0
  5  6  2  0
  6  7  1  0
  7  8  1  0
  8  9  2  0
  8 10  1  0
 10 11  1  0
 11 12  1  0
 12 13  2  0
 13 14  1  0
 14 15  1  0
 14 16  2  0
 16 17  1  0
 17 18  1  0
 17 19  2  0
 19 20  1  0
 20 21  1  0
  6 22  1  0
 22 23  2  0
 23  3  1  0
 20 10  2  0
 19 12  1  0
  1 24  1  0
  1 25  1  0
  1 26  1  0
  4 27  1  0
  5 28  1  0
  7 29  1  0
 15 30  1  0
 15 31  1  0
 15 32  1  0
 16 33  1  0
 18 34  1  0
 18 35  1  0
 18 36  1  0
 21 37  1  0
 21 38  1  0
 22 39  1  0
 23 40  1  0
M  END
>  <Binding energies>  (1) 
[-6.95]

>  <Ligand effiencies>  (1) 
[-0.2673076923076923]

>  <Interactions>  (1) 
["V-B:TYR:539:CE2:9845, V-B:PRO:540:N:9853, V-B:PRO:540:CB:9854, V-B:TYR:539:CZ:9846, V-A:LEU:475:CD1:4254, V-B:PRO:540:CA:9852, H-B:TYR:539:N:9839, V-B:TYR:539:CD1:9842, V-B:TYR:539:C:9836, V-B:LEU:363:CD1:8157, V-B:ALA:541:CB:9861, V-B:ILE:538:CG2:9832, V-B:TYR:539:CE1:9844, V-B:GLU:543:CD:9877, V-B:ILE:538:CB:9831, V-B:GLU:543:CG:9876, H-B:GLU:543:OE2:9879, V-A:ARG:545:CZ:4923, V-A:GLY:454:CA:4045, V-A:GLU:543:CD:4905, V-A:HIS:456:CE1:4066, H-A:GLY:454:N:4046, H-A:TYR:484:OH:4344, V-B:PRO:540:CD:9856, V-B:TYR:539:CA:9838, V-B:TYR:539:CG:9841, V-B:TYR:539:CD2:9843, H-B:GLU:543:OE1:9878, V-A:GLY:453:C:4038, V-A:GLY:453:CA:4040, V-A:GLY:454:C:4043, V-A:ARG:545:CG:4919, V-A:ARG:545:CD:4920"]

$$$$
4ad_Grossjean_2025
     RDKit          3D

 36 38  0  0  0  0  0  0  0  0999 V2000
  134.5520  125.0080   65.8670 C   0  0  0  0  0  0  0  0  0  0  0  0
  133.2570  124.8850   65.0850 C   0  0  0  0  0  0  0  0  0  0  0  0
  132.1760  125.7220   65.3490 C   0  0  0  0  0  0  0  0  0  0  0  0
  130.9900  125.5880   64.6160 C   0  0  0  0  0  0  0  0  0  0  0  0
  129.8360  126.5240   64.9430 C   0  0  0  0  0  0  0  0  0  0  0  0
  130.9410  124.5820   63.6140 C   0  0  0  0  0  0  0  0  0  0  0  0
  129.9110  124.1770   62.6960 C   0  0  0  0  0  0  0  0  0  0  0  0
  128.6830  124.7900   62.6580 N   0  0  0  0  0  0  0  0  0  0  0  0
  130.2790  123.1130   61.8570 C   0  0  0  0  0  0  0  0  0  0  0  0
  129.4800  122.4450   60.8280 C   0  0  0  0  0  0  0  0  0  0  0  0
  129.4750  121.2160   60.7370 O   0  0  0  0  0  0  0  0  0  0  0  0
  128.7640  123.2680   60.0230 N   0  0  0  0  0  0  0  0  0  0  0  0
  127.9400  122.9530   58.9260 C   0  0  0  0  0  0  0  0  0  0  0  0
  126.6150  123.3930   59.0100 C   0  0  0  0  0  0  0  0  0  0  0  0
  125.7240  123.1400   57.9700 C   0  0  0  0  0  0  0  0  0  0  0  0
  126.1600  122.4530   56.8400 C   0  0  0  0  0  0  0  0  0  0  0  0
  127.4800  122.0210   56.7390 C   0  0  0  0  0  0  0  0  0  0  0  0
  128.3730  122.2720   57.7770 C   0  0  0  0  0  0  0  0  0  0  0  0
  131.9300  122.5860   62.1860 S   0  0  0  0  0  0  0  0  0  0  0  0
  132.1150  123.7890   63.4420 C   0  0  0  0  0  0  0  0  0  0  0  0
  133.2460  123.9150   64.1380 N   0  0  0  0  0  0  0  0  0  0  0  0
  134.3329  124.9872   66.9448 H   0  0  0  0  0  0  0  0  0  0  0  0
  135.2157  124.1689   65.6115 H   0  0  0  0  0  0  0  0  0  0  0  0
  135.0459  125.9571   65.6115 H   0  0  0  0  0  0  0  0  0  0  0  0
  132.2535  126.4890   66.1337 H   0  0  0  0  0  0  0  0  0  0  0  0
  129.7310  126.6092   66.0347 H   0  0  0  0  0  0  0  0  0  0  0  0
  130.0371  127.5173   64.5154 H   0  0  0  0  0  0  0  0  0  0  0  0
  128.9056  126.1222   64.5154 H   0  0  0  0  0  0  0  0  0  0  0  0
  128.5880  125.7940   62.6070 H   0  0  0  0  0  0  0  0  0  0  0  0
  127.8270  124.2520   62.6750 H   0  0  0  0  0  0  0  0  0  0  0  0
  128.8070  124.2520   60.2430 H   0  0  0  0  0  0  0  0  0  0  0  0
  126.2753  123.9411   59.9012 H   0  0  0  0  0  0  0  0  0  0  0  0
  124.6807  123.4813   58.0409 H   0  0  0  0  0  0  0  0  0  0  0  0
  125.4556  122.2498   56.0199 H   0  0  0  0  0  0  0  0  0  0  0  0
  127.8164  121.4825   55.8408 H   0  0  0  0  0  0  0  0  0  0  0  0
  129.4177  121.9369   57.6971 H   0  0  0  0  0  0  0  0  0  0  0  0
  1  2  1  0
  2  3  2  0
  3  4  1  0
  4  5  1  0
  4  6  2  0
  6  7  1  0
  7  8  1  0
  7  9  2  0
  9 10  1  0
 10 11  2  0
 10 12  1  0
 12 13  1  0
 13 14  2  0
 14 15  1  0
 15 16  2  0
 16 17  1  0
 17 18  2  0
  9 19  1  0
 19 20  1  0
 20 21  2  0
 21  2  1  0
 20  6  1  0
 18 13  1  0
  1 22  1  0
  1 23  1  0
  1 24  1  0
  3 25  1  0
  5 26  1  0
  5 27  1  0
  5 28  1  0
  8 29  1  0
  8 30  1  0
 12 31  1  0
 14 32  1  0
 15 33  1  0
 16 34  1  0
 17 35  1  0
 18 36  1  0
M  END
>  <Binding energies>  (1) 
[-6.86]

>  <Ligand effiencies>  (1) 
[-0.28583333333333333]

>  <Interactions>  (1) 
["V-B:TYR:539:CE2:9845, V-B:PRO:540:N:9853, V-B:PRO:540:CB:9854, V-B:TYR:539:CZ:9846, V-A:LEU:475:CD1:4254, V-B:PRO:540:CA:9852, V-B:TYR:539:CD1:9842, V-B:TYR:539:C:9836, V-B:ALA:541:CB:9861, V-B:TYR:539:CE1:9844, V-B:GLU:543:CD:9877, V-B:GLU:543:CG:9876, H-B:GLU:543:OE2:9879, V-A:ARG:545:CZ:4923, V-A:GLY:454:CA:4045, V-A:GLU:543:CD:4905, V-A:HIS:456:CE1:4066, H-A:GLY:454:N:4046, H-A:TYR:484:OH:4344, V-B:PRO:540:CD:9856, V-B:TYR:539:CA:9838, V-B:TYR:539:CG:9841, V-B:TYR:539:CD2:9843, H-B:GLU:543:OE1:9878, V-A:GLY:453:C:4038, V-A:GLY:453:CA:4040, V-A:GLY:454:C:4043, V-A:ARG:545:CG:4919, V-A:ARG:545:CD:4920"]

$$$$
4ae_Grossjean_2025
     RDKit          3D

 38 40  0  0  0  0  0  0  0  0999 V2000
  128.6970  122.7830   54.5670 C   0  0  0  0  0  0  0  0  0  0  0  0
  128.0040  122.7540   55.9150 C   0  0  0  0  0  0  0  0  0  0  0  0
  126.6420  122.4620   56.0300 C   0  0  0  0  0  0  0  0  0  0  0  0
  126.0700  122.4600   57.3030 C   0  0  0  0  0  0  0  0  0  0  0  0
  126.8620  122.7500   58.4160 C   0  0  0  0  0  0  0  0  0  0  0  0
  128.2210  123.0260   58.2300 C   0  0  0  0  0  0  0  0  0  0  0  0
  128.9620  123.3300   59.3860 N   0  0  0  0  0  0  0  0  0  0  0  0
  129.3700  122.4960   60.3750 C   0  0  0  0  0  0  0  0  0  0  0  0
  129.1250  121.2890   60.3990 O   0  0  0  0  0  0  0  0  0  0  0  0
  130.1370  123.1280   61.4510 C   0  0  0  0  0  0  0  0  0  0  0  0
  131.8660  122.8180   61.6120 S   0  0  0  0  0  0  0  0  0  0  0  0
  131.9640  123.8310   63.0340 C   0  0  0  0  0  0  0  0  0  0  0  0
  133.1100  124.0190   63.6890 N   0  0  0  0  0  0  0  0  0  0  0  0
  133.0480  124.8210   64.7780 C   0  0  0  0  0  0  0  0  0  0  0  0
  134.3620  125.0170   65.5130 C   0  0  0  0  0  0  0  0  0  0  0  0
  131.8790  125.4370   65.2230 C   0  0  0  0  0  0  0  0  0  0  0  0
  130.6780  125.2380   64.5330 C   0  0  0  0  0  0  0  0  0  0  0  0
  129.4280  125.9270   65.0580 C   0  0  0  0  0  0  0  0  0  0  0  0
  130.7030  124.4000   63.3850 C   0  0  0  0  0  0  0  0  0  0  0  0
  129.6780  123.9850   62.4650 C   0  0  0  0  0  0  0  0  0  0  0  0
  128.3750  124.3980   62.5830 N   0  0  0  0  0  0  0  0  0  0  0  0
  128.7870  123.0360   56.9870 N   0  0  0  0  0  0  0  0  0  0  0  0
  129.7860  122.8286   54.7155 H   0  0  0  0  0  0  0  0  0  0  0  0
  128.4415  121.8734   54.0037 H   0  0  0  0  0  0  0  0  0  0  0  0
  128.3664  123.6681   54.0037 H   0  0  0  0  0  0  0  0  0  0  0  0
  126.0360  122.2393   55.1394 H   0  0  0  0  0  0  0  0  0  0  0  0
  125.0014  122.2313   57.4289 H   0  0  0  0  0  0  0  0  0  0  0  0
  126.4236  122.7613   59.4248 H   0  0  0  0  0  0  0  0  0  0  0  0
  129.1690  124.3100   59.5090 H   0  0  0  0  0  0  0  0  0  0  0  0
  134.1828  124.9903   66.5980 H   0  0  0  0  0  0  0  0  0  0  0  0
  135.0601  124.2131   65.2368 H   0  0  0  0  0  0  0  0  0  0  0  0
  134.7951  125.9897   65.2368 H   0  0  0  0  0  0  0  0  0  0  0  0
  131.9008  126.0790   66.1159 H   0  0  0  0  0  0  0  0  0  0  0  0
  129.4402  125.9203   66.1579 H   0  0  0  0  0  0  0  0  0  0  0  0
  129.4034  126.9661   64.6979 H   0  0  0  0  0  0  0  0  0  0  0  0
  128.5363  125.3930   64.6979 H   0  0  0  0  0  0  0  0  0  0  0  0
  127.6580  123.7990   62.9700 H   0  0  0  0  0  0  0  0  0  0  0  0
  128.0880  125.3200   62.2870 H   0  0  0  0  0  0  0  0  0  0  0  0
  1  2  1  0
  2  3  2  0
  3  4  1  0
  4  5  2  0
  5  6  1  0
  6  7  1  0
  7  8  1  0
  8  9  2  0
  8 10  1  0
 10 11  1  0
 11 12  1  0
 12 13  2  0
 13 14  1  0
 14 15  1  0
 14 16  2  0
 16 17  1  0
 17 18  1  0
 17 19  2  0
 19 20  1  0
 20 21  1  0
  6 22  2  0
 22  2  1  0
 20 10  2  0
 19 12  1  0
  1 23  1  0
  1 24  1  0
  1 25  1  0
  3 26  1  0
  4 27  1  0
  5 28  1  0
  7 29  1  0
 15 30  1  0
 15 31  1  0
 15 32  1  0
 16 33  1  0
 18 34  1  0
 18 35  1  0
 18 36  1  0
 21 37  1  0
 21 38  1  0
M  END
>  <Binding energies>  (1) 
[-7.12]

>  <Ligand effiencies>  (1) 
[-0.2848]

>  <Interactions>  (1) 
["V-B:TYR:539:CE2:9845, V-B:PRO:540:N:9853, V-B:PRO:540:CB:9854, V-B:TYR:539:CZ:9846, V-B:PRO:540:CA:9852, V-B:TYR:539:CD1:9842, V-B:ILE:538:CA:9829, V-B:TYR:539:C:9836, V-B:ALA:541:CB:9861, V-B:ILE:538:CG2:9832, V-B:TYR:539:CE1:9844, V-B:GLU:543:CD:9877, V-B:ILE:538:CB:9831, V-B:GLU:543:CG:9876, H-B:GLU:543:OE2:9879, V-B:MET:535:CE:9804, V-A:ARG:545:CZ:4923, V-A:GLY:454:CA:4045, V-A:HIS:456:CE1:4066, H-B:TYR:539:OH:9847, H-A:GLY:454:N:4046, H-A:TYR:484:OH:4344, V-B:PRO:540:CD:9856, V-B:TYR:539:CD2:9843, H-B:GLU:543:OE1:9878, V-A:GLY:453:C:4038, V-A:GLY:453:CA:4040, V-A:GLY:454:C:4043, V-A:ARG:545:CG:4919, V-A:ARG:545:CD:4920"]

$$$$
4af_Grossjean_2025
     RDKit          3D

 35 37  0  0  0  0  0  0  0  0999 V2000
  134.4020  125.0120   65.5950 C   0  0  0  0  0  0  0  0  0  0  0  0
  133.0850  124.8500   64.8570 C   0  0  0  0  0  0  0  0  0  0  0  0
  131.9480  125.5480   65.2570 C   0  0  0  0  0  0  0  0  0  0  0  0
  130.7440  125.3810   64.5630 C   0  0  0  0  0  0  0  0  0  0  0  0
  129.5290  126.1620   65.0390 C   0  0  0  0  0  0  0  0  0  0  0  0
  130.7340  124.4870   63.4580 C   0  0  0  0  0  0  0  0  0  0  0  0
  129.6970  124.0850   62.5460 C   0  0  0  0  0  0  0  0  0  0  0  0
  128.4170  124.5730   62.6310 N   0  0  0  0  0  0  0  0  0  0  0  0
  130.1160  123.1600   61.5770 C   0  0  0  0  0  0  0  0  0  0  0  0
  129.3250  122.5210   60.5230 C   0  0  0  0  0  0  0  0  0  0  0  0
  129.3580  121.3000   60.3670 O   0  0  0  0  0  0  0  0  0  0  0  0
  128.5700  123.3620   59.7750 N   0  0  0  0  0  0  0  0  0  0  0  0
  127.7450  123.0810   58.6700 C   0  0  0  0  0  0  0  0  0  0  0  0
  126.3980  123.4630   58.5400 C   0  0  0  0  0  0  0  0  0  0  0  0
  125.6850  123.1040   57.3950 C   0  0  0  0  0  0  0  0  0  0  0  0
  126.3360  122.3660   56.4060 C   0  0  0  0  0  0  0  0  0  0  0  0
  127.6330  121.9780   56.5100 N   0  0  0  0  0  0  0  0  0  0  0  0
  128.3120  122.3350   57.6290 C   0  0  0  0  0  0  0  0  0  0  0  0
  131.8240  122.7590   61.7770 S   0  0  0  0  0  0  0  0  0  0  0  0
  131.9640  123.8340   63.1500 C   0  0  0  0  0  0  0  0  0  0  0  0
  133.1130  123.9910   63.8080 N   0  0  0  0  0  0  0  0  0  0  0  0
  134.2197  124.9896   66.6796 H   0  0  0  0  0  0  0  0  0  0  0  0
  135.0799  124.1905   65.3200 H   0  0  0  0  0  0  0  0  0  0  0  0
  134.8605  125.9733   65.3200 H   0  0  0  0  0  0  0  0  0  0  0  0
  131.9963  126.2305   66.1183 H   0  0  0  0  0  0  0  0  0  0  0  0
  129.5091  126.1748   66.1387 H   0  0  0  0  0  0  0  0  0  0  0  0
  129.5852  127.1936   64.6613 H   0  0  0  0  0  0  0  0  0  0  0  0
  128.6139  125.6825   64.6613 H   0  0  0  0  0  0  0  0  0  0  0  0
  128.2260  125.5650   62.6710 H   0  0  0  0  0  0  0  0  0  0  0  0
  127.6190  123.9530   62.6520 H   0  0  0  0  0  0  0  0  0  0  0  0
  128.5900  124.3350   60.0440 H   0  0  0  0  0  0  0  0  0  0  0  0
  125.9085  124.0420   59.3369 H   0  0  0  0  0  0  0  0  0  0  0  0
  124.6315  123.3969   57.2749 H   0  0  0  0  0  0  0  0  0  0  0  0
  125.7740  122.0863   55.5027 H   0  0  0  0  0  0  0  0  0  0  0  0
  129.3624  122.0223   57.7236 H   0  0  0  0  0  0  0  0  0  0  0  0
  1  2  1  0
  2  3  2  0
  3  4  1  0
  4  5  1  0
  4  6  2  0
  6  7  1  0
  7  8  1  0
  7  9  2  0
  9 10  1  0
 10 11  2  0
 10 12  1  0
 12 13  1  0
 13 14  2  0
 14 15  1  0
 15 16  2  0
 16 17  1  0
 17 18  2  0
  9 19  1  0
 19 20  1  0
 20 21  2  0
 21  2  1  0
 20  6  1  0
 18 13  1  0
  1 22  1  0
  1 23  1  0
  1 24  1  0
  3 25  1  0
  5 26  1  0
  5 27  1  0
  5 28  1  0
  8 29  1  0
  8 30  1  0
 12 31  1  0
 14 32  1  0
 15 33  1  0
 16 34  1  0
 18 35  1  0
M  END
>  <Binding energies>  (1) 
[-7.11]

>  <Ligand effiencies>  (1) 
[-0.29625]

>  <Interactions>  (1) 
["V-B:TYR:539:CE2:9845, V-B:PRO:540:N:9853, V-B:PRO:540:CB:9854, V-B:TYR:539:CZ:9846, V-B:PRO:540:CA:9852, H-B:TYR:539:N:9839, V-B:TYR:539:CD1:9842, V-B:TYR:539:C:9836, V-B:ALA:541:CB:9861, V-B:TYR:539:CE1:9844, V-B:GLU:543:CD:9877, V-B:ILE:538:CB:9831, V-B:GLU:543:CG:9876, H-B:GLU:543:OE2:9879, V-A:ARG:545:CZ:4923, V-A:GLY:454:CA:4045, V-A:HIS:456:CE1:4066, H-A:GLY:454:N:4046, H-A:TYR:484:OH:4344, V-B:PRO:540:CD:9856, V-B:TYR:539:CG:9841, V-B:TYR:539:CD2:9843, H-B:GLU:543:OE1:9878, V-A:GLY:453:C:4038, V-A:GLY:453:CA:4040, V-A:GLY:454:C:4043, V-A:ARG:545:CG:4919, V-A:ARG:545:CD:4920"]

$$$$
4ag_Grossjean_2025
     RDKit          3D

 39 41  0  0  0  0  0  0  0  0999 V2000
  129.1240  126.0320   65.3190 C   0  0  0  0  0  0  0  0  0  0  0  0
  129.4100  126.5140   66.7290 C   0  0  0  0  0  0  0  0  0  0  0  0
  130.5800  127.2100   67.0260 C   0  0  0  0  0  0  0  0  0  0  0  0
  130.8230  127.6460   68.3340 C   0  0  0  0  0  0  0  0  0  0  0  0
  132.1150  128.4010   68.6080 C   0  0  0  0  0  0  0  0  0  0  0  0
  129.8450  127.3550   69.3220 C   0  0  0  0  0  0  0  0  0  0  0  0
  129.7720  127.6460   70.7280 C   0  0  0  0  0  0  0  0  0  0  0  0
  130.7620  128.3320   71.3880 N   0  0  0  0  0  0  0  0  0  0  0  0
  128.6100  127.1660   71.3490 C   0  0  0  0  0  0  0  0  0  0  0  0
  128.2100  127.2920   72.7500 C   0  0  0  0  0  0  0  0  0  0  0  0
  129.0460  127.4250   73.6480 O   0  0  0  0  0  0  0  0  0  0  0  0
  126.8840  127.2350   72.9970 N   0  0  0  0  0  0  0  0  0  0  0  0
  126.2610  127.3650   74.3140 C   0  0  0  0  0  0  0  0  0  0  0  0
  125.8110  128.7820   74.6490 C   0  0  0  0  0  0  0  0  0  0  0  0
  124.6070  128.9870   75.3290 C   0  0  0  0  0  0  0  0  0  0  0  0
  124.2060  130.2800   75.6590 C   0  0  0  0  0  0  0  0  0  0  0  0
  125.0150  131.3610   75.3170 C   0  0  0  0  0  0  0  0  0  0  0  0
  126.2230  131.1630   74.6520 C   0  0  0  0  0  0  0  0  0  0  0  0
  126.6250  129.8710   74.3240 C   0  0  0  0  0  0  0  0  0  0  0  0
  127.5610  126.3420   70.1950 S   0  0  0  0  0  0  0  0  0  0  0  0
  128.6890  126.6380   68.8900 C   0  0  0  0  0  0  0  0  0  0  0  0
  128.4540  126.2210   67.6450 N   0  0  0  0  0  0  0  0  0  0  0  0
  128.5631  125.0867   65.3614 H   0  0  0  0  0  0  0  0  0  0  0  0
  128.5284  126.7882   64.7867 H   0  0  0  0  0  0  0  0  0  0  0  0
  130.0732  125.8716   64.7867 H   0  0  0  0  0  0  0  0  0  0  0  0
  131.3130  127.4170   66.2324 H   0  0  0  0  0  0  0  0  0  0  0  0
  132.2651  128.4887   69.6942 H   0  0  0  0  0  0  0  0  0  0  0  0
  132.9602  127.8546   68.1640 H   0  0  0  0  0  0  0  0  0  0  0  0
  132.0539  129.4055   68.1640 H   0  0  0  0  0  0  0  0  0  0  0  0
  131.4050  127.8680   72.0130 H   0  0  0  0  0  0  0  0  0  0  0  0
  130.8820  129.3280   71.2660 H   0  0  0  0  0  0  0  0  0  0  0  0
  126.2550  127.1830   72.2100 H   0  0  0  0  0  0  0  0  0  0  0  0
  125.3812  126.7056   74.3472 H   0  0  0  0  0  0  0  0  0  0  0  0
  127.0247  127.0895   75.0562 H   0  0  0  0  0  0  0  0  0  0  0  0
  123.9766  128.1283   75.6034 H   0  0  0  0  0  0  0  0  0  0  0  0
  123.2554  130.4462   76.1869 H   0  0  0  0  0  0  0  0  0  0  0  0
  124.6967  132.3819   75.5747 H   0  0  0  0  0  0  0  0  0  0  0  0
  126.8559  132.0229   74.3874 H   0  0  0  0  0  0  0  0  0  0  0  0
  127.5831  129.7072   73.8091 H   0  0  0  0  0  0  0  0  0  0  0  0
  1  2  1  0
  2  3  2  0
  3  4  1  0
  4  5  1  0
  4  6  2  0
  6  7  1  0
  7  8  1  0
  7  9  2  0
  9 10  1  0
 10 11  2  0
 10 12  1  0
 12 13  1  0
 13 14  1  0
 14 15  2  0
 15 16  1  0
 16 17  2  0
 17 18  1  0
 18 19  2  0
  9 20  1  0
 20 21  1  0
 21 22  2  0
 22  2  1  0
 21  6  1  0
 19 14  1  0
  1 23  1  0
  1 24  1  0
  1 25  1  0
  3 26  1  0
  5 27  1  0
  5 28  1  0
  5 29  1  0
  8 30  1  0
  8 31  1  0
 12 32  1  0
 13 33  1  0
 13 34  1  0
 15 35  1  0
 16 36  1  0
 17 37  1  0
 18 38  1  0
 19 39  1  0
M  END
>  <Binding energies>  (1) 
[-7.65]

>  <Ligand effiencies>  (1) 
[-0.306]

>  <Interactions>  (1) 
["V-B:GLU:543:CD:9877, V-B:GLU:543:CG:9876, V-A:GLU:543:CD:4905, V-A:HIS:456:CE1:4066, V-B:GLU:543:CB:9875, V-B:HIS:456:CD2:9036, V-A:GLU:543:CB:4903, V-A:GLU:543:C:4899, H-A:LYS:547:NZ:4948, V-A:GLY:544:C:4909, V-B:LYS:547:CE:9919, V-B:HIS:456:CB:9033, V-B:HIS:456:CE1:9038, V-B:GLY:544:C:9881, V-B:LYS:547:CD:9918, V-A:ARG:545:CG:4919, V-B:GLU:543:C:9871, H-B:HIS:456:NE2:9039, V-A:ARG:545:CB:4918, V-A:ARG:545:CA:4916, H-A:GLY:544:O:4910, H-A:GLU:543:O:4900, V-A:GLU:543:CA:4901, V-A:GLY:544:CA:4911, V-B:HIS:456:CG:9034, V-B:ASP:473:CG:9208, V-B:HIS:456:C:9029, V-B:ASP:473:CB:9207, V-B:VAL:457:C:9041, V-B:LYS:471:CB:9185, V-B:LYS:471:CE:9188, V-B:VAL:458:CG2:9055, V-B:VAL:457:CA:9043, H-B:GLY:544:O:9882"]

$$$$
4ah_Grossjean_2025
     RDKit          3D

 51 53  0  0  0  0  0  0  0  0999 V2000
  129.4820  123.2660   71.6480 C   0  0  0  0  0  0  0  0  0  0  0  0
  128.7440  124.4330   71.9910 O   0  0  0  0  0  0  0  0  0  0  0  0
  128.9390  125.5970   71.2680 C   0  0  0  0  0  0  0  0  0  0  0  0
  128.5860  125.7500   69.9190 C   0  0  0  0  0  0  0  0  0  0  0  0
  128.8150  126.9550   69.2520 C   0  0  0  0  0  0  0  0  0  0  0  0
  128.3820  127.1180   67.8000 C   0  0  0  0  0  0  0  0  0  0  0  0
  129.2040  126.3610   66.8550 N   0  0  0  0  0  0  0  0  0  0  0  0
  130.5390  126.4860   66.7070 C   0  0  0  0  0  0  0  0  0  0  0  0
  131.2060  127.3010   67.3470 O   0  0  0  0  0  0  0  0  0  0  0  0
  131.1560  125.6200   65.7030 C   0  0  0  0  0  0  0  0  0  0  0  0
  132.6780  126.0880   64.9430 S   0  0  0  0  0  0  0  0  0  0  0  0
  132.6700  124.6540   63.9400 C   0  0  0  0  0  0  0  0  0  0  0  0
  133.6450  124.3960   63.0690 N   0  0  0  0  0  0  0  0  0  0  0  0
  133.5190  123.2510   62.3550 C   0  0  0  0  0  0  0  0  0  0  0  0
  134.6390  122.9790   61.3680 C   0  0  0  0  0  0  0  0  0  0  0  0
  132.4520  122.3670   62.4920 C   0  0  0  0  0  0  0  0  0  0  0  0
  131.4280  122.6400   63.4060 C   0  0  0  0  0  0  0  0  0  0  0  0
  130.2830  121.6450   63.5190 C   0  0  0  0  0  0  0  0  0  0  0  0
  131.5240  123.8340   64.1720 C   0  0  0  0  0  0  0  0  0  0  0  0
  130.6710  124.4150   65.1730 C   0  0  0  0  0  0  0  0  0  0  0  0
  129.4970  123.8260   65.5700 N   0  0  0  0  0  0  0  0  0  0  0  0
  129.3760  128.0290   69.9450 C   0  0  0  0  0  0  0  0  0  0  0  0
  129.7450  127.9020   71.2930 C   0  0  0  0  0  0  0  0  0  0  0  0
  130.3190  128.9190   72.0350 O   0  0  0  0  0  0  0  0  0  0  0  0
  129.5010  129.9820   72.5130 C   0  0  0  0  0  0  0  0  0  0  0  0
  129.5260  126.6790   71.9420 C   0  0  0  0  0  0  0  0  0  0  0  0
  129.8650  126.5460   73.2670 O   0  0  0  0  0  0  0  0  0  0  0  0
  128.8240  126.8970   74.1680 C   0  0  0  0  0  0  0  0  0  0  0  0
  129.8058  122.7539   72.5661 H   0  0  0  0  0  0  0  0  0  0  0  0
  128.8463  122.5909   71.0564 H   0  0  0  0  0  0  0  0  0  0  0  0
  130.3645  123.5509   71.0564 H   0  0  0  0  0  0  0  0  0  0  0  0
  128.1231  124.9102   69.3800 H   0  0  0  0  0  0  0  0  0  0  0  0
  127.3408  126.7756   67.7071 H   0  0  0  0  0  0  0  0  0  0  0  0
  128.4966  128.1823   67.5467 H   0  0  0  0  0  0  0  0  0  0  0  0
  128.7360  125.6180   66.3580 H   0  0  0  0  0  0  0  0  0  0  0  0
  135.5652  122.7541   61.9172 H   0  0  0  0  0  0  0  0  0  0  0  0
  134.3699  122.1201   60.7356 H   0  0  0  0  0  0  0  0  0  0  0  0
  134.7938  123.8656   60.7356 H   0  0  0  0  0  0  0  0  0  0  0  0
  132.4139  121.4530   61.8811 H   0  0  0  0  0  0  0  0  0  0  0  0
  130.0652  121.4557   64.5805 H   0  0  0  0  0  0  0  0  0  0  0  0
  129.3888  122.0578   63.0291 H   0  0  0  0  0  0  0  0  0  0  0  0
  130.5670  120.7020   63.0291 H   0  0  0  0  0  0  0  0  0  0  0  0
  128.7610  123.6090   64.9150 H   0  0  0  0  0  0  0  0  0  0  0  0
  129.3300  123.5920   66.5390 H   0  0  0  0  0  0  0  0  0  0  0  0
  129.5309  128.9874   69.4278 H   0  0  0  0  0  0  0  0  0  0  0  0
  129.5027  129.9798   73.6130 H   0  0  0  0  0  0  0  0  0  0  0  0
  129.8960  130.9414   72.1476 H   0  0  0  0  0  0  0  0  0  0  0  0
  128.4724  129.8459   72.1476 H   0  0  0  0  0  0  0  0  0  0  0  0
  129.1786  126.7775   75.2024 H   0  0  0  0  0  0  0  0  0  0  0  0
  128.5307  127.9437   73.9996 H   0  0  0  0  0  0  0  0  0  0  0  0
  127.9568  126.2416   73.9996 H   0  0  0  0  0  0  0  0  0  0  0  0
  1  2  1  0
  2  3  1  0
  3  4  2  0
  4  5  1  0
  5  6  1  0
  6  7  1  0
  7  8  1  0
  8  9  2  0
  8 10  1  0
 10 11  1  0
 11 12  1  0
 12 13  2  0
 13 14  1  0
 14 15  1  0
 14 16  2  0
 16 17  1  0
 17 18  1  0
 17 19  2  0
 19 20  1  0
 20 21  1  0
  5 22  2  0
 22 23  1  0
 23 24  1  0
 24 25  1  0
 23 26  2  0
 26 27  1  0
 27 28  1  0
 26  3  1  0
 20 10  2  0
 19 12  1  0
  1 29  1  0
  1 30  1  0
  1 31  1  0
  4 32  1  0
  6 33  1  0
  6 34  1  0
  7 35  1  0
 15 36  1  0
 15 37  1  0
 15 38  1  0
 16 39  1  0
 18 40  1  0
 18 41  1  0
 18 42  1  0
 21 43  1  0
 21 44  1  0
 22 45  1  0
 25 46  1  0
 25 47  1  0
 25 48  1  0
 28 49  1  0
 28 50  1  0
 28 51  1  0
M  END
>  <Binding energies>  (1) 
[-7.0]

>  <Ligand effiencies>  (1) 
[-0.22580645161290322]

>  <Interactions>  (1) 
["V-A:TYR:484:CZ:4343, V-A:LEU:475:CD1:4254, V-B:ALA:541:CB:9861, V-B:GLU:543:CD:9877, V-A:TYR:484:CE1:4341, V-A:LEU:475:CD2:4255, V-B:GLU:543:CG:9876, H-B:GLU:543:OE2:9879, V-A:ARG:545:CZ:4923, V-A:GLY:454:CA:4045, V-A:HIS:456:CE1:4066, V-B:GLU:543:CB:9875, H-A:GLY:454:N:4046, H-A:TYR:484:OH:4344, H-B:GLU:543:OE1:9878, V-A:LYS:547:CE:4947, V-B:HIS:456:CD2:9036, H-A:LYS:547:NZ:4948, V-B:LYS:547:CE:9919, V-B:HIS:456:CE1:9038, V-A:GLY:453:C:4038, V-A:ILE:369:CG1:3234, V-A:ARG:545:CD:4920, V-B:GLU:543:C:9871, V-A:HIS:456:CD2:4064, H-B:GLU:543:O:9872, H-B:LYS:547:NZ:9920, V-B:GLU:543:CA:9873, V-A:GLY:544:CA:4911, V-A:TYR:484:CG:4338, V-A:TYR:484:CD1:4339"]

$$$$
4ai_Grossjean_2025
     RDKit          3D

 32 34  0  0  0  0  0  0  0  0999 V2000
  134.3370  124.9980   65.5570 C   0  0  0  0  0  0  0  0  0  0  0  0
  133.0250  124.7820   64.8250 C   0  0  0  0  0  0  0  0  0  0  0  0
  131.8820  125.4970   65.1770 C   0  0  0  0  0  0  0  0  0  0  0  0
  130.6840  125.2860   64.4840 C   0  0  0  0  0  0  0  0  0  0  0  0
  129.4640  126.0930   64.9040 C   0  0  0  0  0  0  0  0  0  0  0  0
  130.6860  124.3330   63.4300 C   0  0  0  0  0  0  0  0  0  0  0  0
  129.6590  123.8780   62.5330 C   0  0  0  0  0  0  0  0  0  0  0  0
  128.3750  124.3620   62.5840 N   0  0  0  0  0  0  0  0  0  0  0  0
  130.0920  122.9130   61.6110 C   0  0  0  0  0  0  0  0  0  0  0  0
  129.3170  122.2330   60.5710 C   0  0  0  0  0  0  0  0  0  0  0  0
  129.1530  121.0120   60.6050 O   0  0  0  0  0  0  0  0  0  0  0  0
  128.8000  123.0400   59.6110 N   0  0  0  0  0  0  0  0  0  0  0  0
  128.0230  122.6670   58.5220 C   0  0  0  0  0  0  0  0  0  0  0  0
  126.8610  123.3420   58.1470 C   0  0  0  0  0  0  0  0  0  0  0  0
  126.3950  122.6670   57.0420 C   0  0  0  0  0  0  0  0  0  0  0  0
  127.2320  121.6390   56.7660 O   0  0  0  0  0  0  0  0  0  0  0  0
  128.2610  121.6500   57.7090 N   0  0  0  0  0  0  0  0  0  0  0  0
  131.7960  122.5220   61.8520 S   0  0  0  0  0  0  0  0  0  0  0  0
  131.9210  123.6670   63.1700 C   0  0  0  0  0  0  0  0  0  0  0  0
  133.0640  123.8640   63.8280 N   0  0  0  0  0  0  0  0  0  0  0  0
  134.1604  124.9689   66.6423 H   0  0  0  0  0  0  0  0  0  0  0  0
  135.0466  124.2046   65.2796 H   0  0  0  0  0  0  0  0  0  0  0  0
  134.7548  125.9770   65.2796 H   0  0  0  0  0  0  0  0  0  0  0  0
  131.9210  126.2269   65.9990 H   0  0  0  0  0  0  0  0  0  0  0  0
  129.4088  126.1295   66.0020 H   0  0  0  0  0  0  0  0  0  0  0  0
  129.5462  127.1155   64.5068 H   0  0  0  0  0  0  0  0  0  0  0  0
  128.5552  125.6173   64.5068 H   0  0  0  0  0  0  0  0  0  0  0  0
  128.1430  125.2920   62.2690 H   0  0  0  0  0  0  0  0  0  0  0  0
  127.6170  123.8000   62.9470 H   0  0  0  0  0  0  0  0  0  0  0  0
  128.9870  124.0280   59.6910 H   0  0  0  0  0  0  0  0  0  0  0  0
  126.4139  124.2233   58.6302 H   0  0  0  0  0  0  0  0  0  0  0  0
  125.4880  122.9217   56.4741 H   0  0  0  0  0  0  0  0  0  0  0  0
  1  2  1  0
  2  3  2  0
  3  4  1  0
  4  5  1  0
  4  6  2  0
  6  7  1  0
  7  8  1  0
  7  9  2  0
  9 10  1  0
 10 11  2  0
 10 12  1  0
 12 13  1  0
 13 14  1  0
 14 15  2  0
 15 16  1  0
 16 17  1  0
  9 18  1  0
 18 19  1  0
 19 20  2  0
 20  2  1  0
 19  6  1  0
 17 13  2  0
  1 21  1  0
  1 22  1  0
  1 23  1  0
  3 24  1  0
  5 25  1  0
  5 26  1  0
  5 27  1  0
  8 28  1  0
  8 29  1  0
 12 30  1  0
 14 31  1  0
 15 32  1  0
M  END
>  <Binding energies>  (1) 
[-6.84]

>  <Ligand effiencies>  (1) 
[-0.29739130434782607]

>  <Interactions>  (1) 
["V-B:TYR:539:CE2:9845, V-B:PRO:540:N:9853, V-B:PRO:540:CB:9854, V-B:TYR:539:CZ:9846, V-A:LEU:475:CD1:4254, V-B:PRO:540:CA:9852, H-B:TYR:539:N:9839, V-B:TYR:539:C:9836, V-B:ALA:541:CB:9861, V-B:GLU:543:CD:9877, V-B:GLU:543:CG:9876, H-B:GLU:543:OE2:9879, V-A:ARG:545:CZ:4923, V-A:GLY:454:CA:4045, V-A:HIS:456:CE1:4066, H-A:GLY:454:N:4046, H-A:TYR:484:OH:4344, V-B:PRO:540:CD:9856, V-B:TYR:539:CD2:9843, H-B:GLU:543:OE1:9878, V-A:GLY:453:C:4038, V-A:GLY:453:CA:4040, V-A:GLY:454:C:4043, V-A:ARG:545:CG:4919, V-A:ARG:545:CD:4920"]

$$$$
4aj_Grossjean_2025
     RDKit          3D

 32 34  0  0  0  0  0  0  0  0999 V2000
  124.6340  123.1020   55.1550 C   0  0  0  0  0  0  0  0  0  0  0  0
  125.2610  123.2110   56.5330 C   0  0  0  0  0  0  0  0  0  0  0  0
  124.4860  123.5040   57.6530 C   0  0  0  0  0  0  0  0  0  0  0  0
  125.0860  123.6050   58.9130 C   0  0  0  0  0  0  0  0  0  0  0  0
  124.1960  123.9270   60.1040 C   0  0  0  0  0  0  0  0  0  0  0  0
  126.4890  123.3980   58.9990 C   0  0  0  0  0  0  0  0  0  0  0  0
  127.4070  123.4270   60.1050 C   0  0  0  0  0  0  0  0  0  0  0  0
  127.0010  123.6940   61.3870 N   0  0  0  0  0  0  0  0  0  0  0  0
  128.7370  123.1540   59.7490 C   0  0  0  0  0  0  0  0  0  0  0  0
  129.9210  123.1110   60.6100 C   0  0  0  0  0  0  0  0  0  0  0  0
  129.8060  123.0570   61.8360 O   0  0  0  0  0  0  0  0  0  0  0  0
  131.1120  123.1230   59.9630 N   0  0  0  0  0  0  0  0  0  0  0  0
  132.3740  123.0780   60.5390 C   0  0  0  0  0  0  0  0  0  0  0  0
  132.7240  122.5100   61.6730 N   0  0  0  0  0  0  0  0  0  0  0  0
  134.0130  122.6590   61.9120 C   0  0  0  0  0  0  0  0  0  0  0  0
  134.7390  123.3640   60.9560 C   0  0  0  0  0  0  0  0  0  0  0  0
  133.6650  123.8530   59.6790 S   0  0  0  0  0  0  0  0  0  0  0  0
  128.8860  122.8680   58.0140 S   0  0  0  0  0  0  0  0  0  0  0  0
  127.1690  123.1020   57.7790 C   0  0  0  0  0  0  0  0  0  0  0  0
  126.6010  123.0060   56.5760 N   0  0  0  0  0  0  0  0  0  0  0  0
  123.5549  122.9144   55.2570 H   0  0  0  0  0  0  0  0  0  0  0  0
  124.7925  124.0412   54.6047 H   0  0  0  0  0  0  0  0  0  0  0  0
  125.1002  122.2714   54.6047 H   0  0  0  0  0  0  0  0  0  0  0  0
  123.4018  123.6560   57.5467 H   0  0  0  0  0  0  0  0  0  0  0  0
  124.7450  123.7284   61.0363 H   0  0  0  0  0  0  0  0  0  0  0  0
  123.9053  124.9873   60.0685 H   0  0  0  0  0  0  0  0  0  0  0  0
  123.2942  123.2982   60.0685 H   0  0  0  0  0  0  0  0  0  0  0  0
  127.6510  123.7150   62.1600 H   0  0  0  0  0  0  0  0  0  0  0  0
  126.0310  123.8790   61.6030 H   0  0  0  0  0  0  0  0  0  0  0  0
  131.0910  123.1630   58.9540 H   0  0  0  0  0  0  0  0  0  0  0  0
  134.4874  122.2492   62.8159 H   0  0  0  0  0  0  0  0  0  0  0  0
  135.8172  123.5771   61.0012 H   0  0  0  0  0  0  0  0  0  0  0  0
  1  2  1  0
  2  3  2  0
  3  4  1  0
  4  5  1  0
  4  6  2  0
  6  7  1  0
  7  8  1  0
  7  9  2  0
  9 10  1  0
 10 11  2  0
 10 12  1  0
 12 13  1  0
 13 14  2  0
 14 15  1  0
 15 16  2  0
 16 17  1  0
  9 18  1  0
 18 19  1  0
 19 20  2  0
 20  2  1  0
 19  6  1  0
 17 13  1  0
  1 21  1  0
  1 22  1  0
  1 23  1  0
  3 24  1  0
  5 25  1  0
  5 26  1  0
  5 27  1  0
  8 28  1  0
  8 29  1  0
 12 30  1  0
 15 31  1  0
 16 32  1  0
M  END
>  <Binding energies>  (1) 
[-6.37]

>  <Ligand effiencies>  (1) 
[-0.27695652173913043]

>  <Interactions>  (1) 
["V-B:TYR:539:CE2:9845, V-B:PRO:540:CB:9854, V-B:TYR:539:CZ:9846, V-B:PRO:540:CA:9852, V-B:TYR:539:CD1:9842, V-B:LEU:363:CD1:8157, V-B:ALA:541:CB:9861, V-B:ILE:538:CG2:9832, V-B:TYR:539:CE1:9844, V-B:GLU:543:CD:9877, V-B:ILE:538:CB:9831, V-B:GLU:543:CG:9876, H-B:GLU:543:OE2:9879, V-A:GLY:454:CA:4045, V-A:ASP:366:CB:3208, H-B:TYR:539:OH:9847, V-A:ASP:366:CG:3209, V-B:TYR:539:CG:9841, V-B:TYR:539:CD2:9843, V-B:ASN:362:C:8140, V-A:ILE:369:CB:3232, V-A:GLY:453:C:4038, V-A:ILE:369:CG1:3234, V-A:ASP:366:CA:3206, V-B:ILE:538:CD1:9834"]

$$$$
4ak_Grossjean_2025
     RDKit          3D

 50 51  0  0  0  0  0  0  0  0999 V2000
  128.7410  125.3050   57.6930 C   0  0  0  0  0  0  0  0  0  0  0  0
  127.8350  124.2310   57.8930 O   0  0  0  0  0  0  0  0  0  0  0  0
  128.3190  122.9850   57.4070 C   0  0  0  0  0  0  0  0  0  0  0  0
  127.7090  122.7020   56.0280 C   0  0  0  0  0  0  0  0  0  0  0  0
  126.4930  121.9830   56.1900 O   0  0  0  0  0  0  0  0  0  0  0  0
  125.5240  122.6640   56.9770 C   0  0  0  0  0  0  0  0  0  0  0  0
  124.9880  123.8670   56.1920 C   0  0  0  0  0  0  0  0  0  0  0  0
  124.8830  124.9860   57.0620 O   0  0  0  0  0  0  0  0  0  0  0  0
  123.6610  125.0380   57.7860 C   0  0  0  0  0  0  0  0  0  0  0  0
  123.8700  124.4260   59.1830 C   0  0  0  0  0  0  0  0  0  0  0  0
  125.2780  124.2410   59.5370 N   0  0  0  0  0  0  0  0  0  0  0  0
  125.7280  123.6120   60.6410 C   0  0  0  0  0  0  0  0  0  0  0  0
  124.9690  123.1010   61.4670 O   0  0  0  0  0  0  0  0  0  0  0  0
  127.1800  123.5600   60.8040 C   0  0  0  0  0  0  0  0  0  0  0  0
  128.0490  122.0450   60.5610 S   0  0  0  0  0  0  0  0  0  0  0  0
  129.5810  122.8140   60.9090 C   0  0  0  0  0  0  0  0  0  0  0  0
  130.7300  122.1380   60.8920 N   0  0  0  0  0  0  0  0  0  0  0  0
  131.8450  122.8520   61.1820 C   0  0  0  0  0  0  0  0  0  0  0  0
  133.1430  122.0650   61.1570 C   0  0  0  0  0  0  0  0  0  0  0  0
  131.8380  124.2130   61.4830 C   0  0  0  0  0  0  0  0  0  0  0  0
  130.6300  124.9200   61.4990 C   0  0  0  0  0  0  0  0  0  0  0  0
  130.6720  126.4020   61.8370 C   0  0  0  0  0  0  0  0  0  0  0  0
  129.4390  124.2040   61.2010 C   0  0  0  0  0  0  0  0  0  0  0  0
  128.0600  124.6040   61.1290 C   0  0  0  0  0  0  0  0  0  0  0  0
  127.6570  125.8950   61.3620 N   0  0  0  0  0  0  0  0  0  0  0  0
  129.0693  125.6942   58.6681 H   0  0  0  0  0  0  0  0  0  0  0  0
  129.6145  124.9475   57.1280 H   0  0  0  0  0  0  0  0  0  0  0  0
  128.2414  126.1057   57.1280 H   0  0  0  0  0  0  0  0  0  0  0  0
  129.4150  123.0254   57.3218 H   0  0  0  0  0  0  0  0  0  0  0  0
  128.0347  122.1838   58.1051 H   0  0  0  0  0  0  0  0  0  0  0  0
  127.5076  123.6530   55.5132 H   0  0  0  0  0  0  0  0  0  0  0  0
  128.4128  122.1050   55.4295 H   0  0  0  0  0  0  0  0  0  0  0  0
  124.6953  121.9800   57.2123 H   0  0  0  0  0  0  0  0  0  0  0  0
  125.9871  123.0112   57.9124 H   0  0  0  0  0  0  0  0  0  0  0  0
  125.6773  124.1051   55.3685 H   0  0  0  0  0  0  0  0  0  0  0  0
  123.9970  123.6263   55.7797 H   0  0  0  0  0  0  0  0  0  0  0  0
  123.3388  126.0848   57.8880 H   0  0  0  0  0  0  0  0  0  0  0  0
  122.8891  124.4694   57.2467 H   0  0  0  0  0  0  0  0  0  0  0  0
  123.4090  125.0922   59.9270 H   0  0  0  0  0  0  0  0  0  0  0  0
  123.4067  123.4284   59.1707 H   0  0  0  0  0  0  0  0  0  0  0  0
  125.9540  124.6330   58.8970 H   0  0  0  0  0  0  0  0  0  0  0  0
  133.4711  121.8661   62.1879 H   0  0  0  0  0  0  0  0  0  0  0  0
  132.9835  121.1113   60.6325 H   0  0  0  0  0  0  0  0  0  0  0  0
  133.9148  122.6474   60.6325 H   0  0  0  0  0  0  0  0  0  0  0  0
  132.7817  124.7314   61.7080 H   0  0  0  0  0  0  0  0  0  0  0  0
  130.6756  126.5289   62.9296 H   0  0  0  0  0  0  0  0  0  0  0  0
  131.5832  126.8491   61.4129 H   0  0  0  0  0  0  0  0  0  0  0  0
  129.7876  126.9000   61.4129 H   0  0  0  0  0  0  0  0  0  0  0  0
  128.1900  126.6880   61.0340 H   0  0  0  0  0  0  0  0  0  0  0  0
  126.8070  126.0960   61.8700 H   0  0  0  0  0  0  0  0  0  0  0  0
  1  2  1  0
  2  3  1  0
  3  4  1  0
  4  5  1  0
  5  6  1  0
  6  7  1  0
  7  8  1  0
  8  9  1  0
  9 10  1  0
 10 11  1  0
 11 12  1  0
 12 13  2  0
 12 14  1  0
 14 15  1  0
 15 16  1  0
 16 17  2  0
 17 18  1  0
 18 19  1  0
 18 20  2  0
 20 21  1  0
 21 22  1  0
 21 23  2  0
 23 24  1  0
 24 25  1  0
 24 14  2  0
 23 16  1  0
  1 26  1  0
  1 27  1  0
  1 28  1  0
  3 29  1  0
  3 30  1  0
  4 31  1  0
  4 32  1  0
  6 33  1  0
  6 34  1  0
  7 35  1  0
  7 36  1  0
  9 37  1  0
  9 38  1  0
 10 39  1  0
 10 40  1  0
 11 41  1  0
 19 42  1  0
 19 43  1  0
 19 44  1  0
 20 45  1  0
 22 46  1  0
 22 47  1  0
 22 48  1  0
 25 49  1  0
 25 50  1  0
M  END
>  <Binding energies>  (1) 
[-5.6]

>  <Ligand effiencies>  (1) 
[-0.19999999999999998]

>  <Interactions>  (1) 
["V-B:TYR:539:CE2:9845, V-B:PRO:540:N:9853, V-B:PRO:540:CB:9854, V-B:TYR:539:CZ:9846, H-B:ALA:541:N:9860, V-A:LEU:475:CD1:4254, V-B:PRO:540:CA:9852, H-B:TYR:539:N:9839, V-B:TYR:539:CD1:9842, V-B:PRO:540:C:9850, V-B:LEU:363:CD1:8157, V-B:ALA:541:CB:9861, V-B:TYR:539:CE1:9844, V-B:GLU:543:CD:9877, H-B:GLU:543:OE2:9879, V-B:MET:535:CE:9804, V-B:LEU:363:CA:8153, H-B:TYR:531:OH:9764, V-B:PRO:540:CD:9856, V-B:ASP:366:CB:8180, V-B:TYR:531:CZ:9763, V-B:TYR:531:CE2:9762, H-B:ASP:366:OD1:8182, V-B:ASN:362:C:8140, H-B:GLU:543:OE1:9878, V-B:ALA:541:CA:9859, V-B:PRO:540:CG:9855"]

$$$$
4al_Grossjean_2025
     RDKit          3D

 28 29  0  0  0  0  0  0  0  0999 V2000
  127.1330  130.4430   55.5960 C   0  0  0  0  0  0  0  0  0  0  0  0
  127.2940  131.7530   56.1200 O   0  0  0  0  0  0  0  0  0  0  0  0
  128.4430  132.4490   55.9160 C   0  0  0  0  0  0  0  0  0  0  0  0
  128.6110  133.2460   54.9890 O   0  0  0  0  0  0  0  0  0  0  0  0
  129.4830  132.1530   56.9250 C   0  0  0  0  0  0  0  0  0  0  0  0
  129.1540  132.4290   58.6370 S   0  0  0  0  0  0  0  0  0  0  0  0
  130.7530  131.8740   59.0760 C   0  0  0  0  0  0  0  0  0  0  0  0
  131.1620  131.8360   60.3440 N   0  0  0  0  0  0  0  0  0  0  0  0
  132.4250  131.3850   60.5500 C   0  0  0  0  0  0  0  0  0  0  0  0
  132.8710  131.3500   62.0000 C   0  0  0  0  0  0  0  0  0  0  0  0
  133.2770  130.9760   59.5260 C   0  0  0  0  0  0  0  0  0  0  0  0
  132.8450  131.0170   58.1960 C   0  0  0  0  0  0  0  0  0  0  0  0
  133.8110  130.5610   57.1150 C   0  0  0  0  0  0  0  0  0  0  0  0
  131.5270  131.4840   57.9430 C   0  0  0  0  0  0  0  0  0  0  0  0
  130.7760  131.6540   56.7290 C   0  0  0  0  0  0  0  0  0  0  0  0
  131.2900  131.3520   55.4950 N   0  0  0  0  0  0  0  0  0  0  0  0
  127.0447  129.7249   56.4246 H   0  0  0  0  0  0  0  0  0  0  0  0
  126.2233  130.4042   54.9787 H   0  0  0  0  0  0  0  0  0  0  0  0
  128.0062  130.1851   54.9787 H   0  0  0  0  0  0  0  0  0  0  0  0
  131.9908  131.4191   62.6561 H   0  0  0  0  0  0  0  0  0  0  0  0
  133.4025  130.4074   62.1975 H   0  0  0  0  0  0  0  0  0  0  0  0
  133.5430  132.1982   62.1975 H   0  0  0  0  0  0  0  0  0  0  0  0
  134.2905  130.6205   59.7637 H   0  0  0  0  0  0  0  0  0  0  0  0
  134.7112  130.1361   57.5832 H   0  0  0  0  0  0  0  0  0  0  0  0
  133.3271  129.7962   56.4897 H   0  0  0  0  0  0  0  0  0  0  0  0
  134.0939  131.4206   56.4897 H   0  0  0  0  0  0  0  0  0  0  0  0
  130.6990  131.0850   54.7200 H   0  0  0  0  0  0  0  0  0  0  0  0
  132.2850  131.3870   55.3160 H   0  0  0  0  0  0  0  0  0  0  0  0
  1  2  1  0
  2  3  1  0
  3  4  2  0
  3  5  1  0
  5  6  1  0
  6  7  1  0
  7  8  2  0
  8  9  1  0
  9 10  1  0
  9 11  2  0
 11 12  1  0
 12 13  1  0
 12 14  2  0
 14 15  1  0
 15 16  1  0
 15  5  2  0
 14  7  1  0
  1 17  1  0
  1 18  1  0
  1 19  1  0
 10 20  1  0
 10 21  1  0
 10 22  1  0
 11 23  1  0
 13 24  1  0
 13 25  1  0
 13 26  1  0
 16 27  1  0
 16 28  1  0
M  END
>  <Binding energies>  (1) 
[-5.76]

>  <Ligand effiencies>  (1) 
[-0.32]

>  <Interactions>  (1) 
["V-A:GLU:543:CD:4905, V-A:ASP:366:CB:3208, V-A:GLU:543:CG:4904, H-A:TYR:531:OH:4792, H-A:TYR:539:OH:4875, V-A:PRO:540:CB:4882, V-A:TYR:539:CE1:4872, V-A:TYR:539:C:4864, V-A:PRO:540:CA:4880, H-A:TYR:539:N:4867, V-A:LEU:363:CD1:3185, V-A:PRO:540:N:4881, V-A:TYR:531:CZ:4791, V-A:ILE:538:CD1:4862, V-A:TYR:531:CE2:4790, V-A:TYR:539:CZ:4874, V-A:LEU:363:CA:3181, V-A:TYR:539:CD2:4871, V-A:LEU:363:CB:3183, V-A:TYR:539:CE2:4873, V-A:TYR:539:CG:4869, H-A:ALA:541:N:4888, V-A:ASN:362:CB:3172, V-A:ASN:362:C:3168, V-A:ASN:362:CG:3173, V-A:LEU:363:C:3179, V-A:LEU:363:CG:3184"]

$$$$
4ba_Grossjean_2025
     RDKit          3D

 44 46  0  0  0  0  0  0  0  0999 V2000
  124.9930  123.7170   55.9270 C   0  0  0  0  0  0  0  0  0  0  0  0
  125.3930  122.3340   56.4770 C   0  0  0  0  0  0  0  0  0  0  0  0
  126.8760  122.1940   56.8790 C   0  0  0  0  0  0  0  0  0  0  0  0
  127.6620  121.6300   56.1150 O   0  0  0  0  0  0  0  0  0  0  0  0
  127.2970  122.7660   58.2020 C   0  0  0  0  0  0  0  0  0  0  0  0
  126.8250  124.0270   58.5880 C   0  0  0  0  0  0  0  0  0  0  0  0
  127.2010  124.5810   59.8080 C   0  0  0  0  0  0  0  0  0  0  0  0
  128.0520  123.8870   60.6690 C   0  0  0  0  0  0  0  0  0  0  0  0
  128.3740  124.5430   61.8720 N   0  0  0  0  0  0  0  0  0  0  0  0
  129.5800  124.7590   62.4520 C   0  0  0  0  0  0  0  0  0  0  0  0
  130.6490  124.3460   61.9990 O   0  0  0  0  0  0  0  0  0  0  0  0
  129.5450  125.5160   63.7050 C   0  0  0  0  0  0  0  0  0  0  0  0
  130.5030  124.9880   65.0870 S   0  0  0  0  0  0  0  0  0  0  0  0
  129.8870  126.2930   66.0720 C   0  0  0  0  0  0  0  0  0  0  0  0
  130.2690  126.4470   67.3390 N   0  0  0  0  0  0  0  0  0  0  0  0
  129.7240  127.4930   68.0010 C   0  0  0  0  0  0  0  0  0  0  0  0
  130.1650  127.6430   69.4460 C   0  0  0  0  0  0  0  0  0  0  0  0
  128.8180  128.3830   67.4300 C   0  0  0  0  0  0  0  0  0  0  0  0
  128.4120  128.2270   66.0950 C   0  0  0  0  0  0  0  0  0  0  0  0
  127.4150  129.2330   65.5110 C   0  0  0  0  0  0  0  0  0  0  0  0
  127.7090  129.5930   64.2600 F   0  0  0  0  0  0  0  0  0  0  0  0
  126.1920  128.7030   65.4970 F   0  0  0  0  0  0  0  0  0  0  0  0
  127.4060  130.3410   66.2530 F   0  0  0  0  0  0  0  0  0  0  0  0
  128.9640  127.1290   65.3700 C   0  0  0  0  0  0  0  0  0  0  0  0
  128.7820  126.6530   64.0210 C   0  0  0  0  0  0  0  0  0  0  0  0
  127.9380  127.2630   63.1280 N   0  0  0  0  0  0  0  0  0  0  0  0
  128.5340  122.6260   60.2870 C   0  0  0  0  0  0  0  0  0  0  0  0
  128.1570  122.0730   59.0660 C   0  0  0  0  0  0  0  0  0  0  0  0
  124.7950  124.4016   56.7649 H   0  0  0  0  0  0  0  0  0  0  0  0
  125.8120  124.1178   55.3117 H   0  0  0  0  0  0  0  0  0  0  0  0
  124.0865  123.6187   55.3117 H   0  0  0  0  0  0  0  0  0  0  0  0
  124.7781  122.1299   57.3660 H   0  0  0  0  0  0  0  0  0  0  0  0
  125.2287  121.6189   55.6574 H   0  0  0  0  0  0  0  0  0  0  0  0
  126.1511  124.5844   57.9208 H   0  0  0  0  0  0  0  0  0  0  0  0
  126.8244  125.5737   60.0958 H   0  0  0  0  0  0  0  0  0  0  0  0
  127.5730  124.8910   62.3780 H   0  0  0  0  0  0  0  0  0  0  0  0
  129.3370  127.3614   70.1132 H   0  0  0  0  0  0  0  0  0  0  0  0
  131.0280  126.9879   69.6359 H   0  0  0  0  0  0  0  0  0  0  0  0
  130.4495  128.6885   69.6359 H   0  0  0  0  0  0  0  0  0  0  0  0
  128.4176  129.2141   68.0290 H   0  0  0  0  0  0  0  0  0  0  0  0
  127.0330  126.8780   62.8990 H   0  0  0  0  0  0  0  0  0  0  0  0
  128.1980  128.1210   62.6610 H   0  0  0  0  0  0  0  0  0  0  0  0
  129.2116  122.0727   60.9539 H   0  0  0  0  0  0  0  0  0  0  0  0
  128.5376  121.0825   58.7762 H   0  0  0  0  0  0  0  0  0  0  0  0
  1  2  1  0
  2  3  1  0
  3  4  2  0
  3  5  1  0
  5  6  2  0
  6  7  1  0
  7  8  2  0
  8  9  1  0
  9 10  1  0
 10 11  2  0
 10 12  1  0
 12 13  1  0
 13 14  1  0
 14 15  2  0
 15 16  1  0
 16 17  1  0
 16 18  2  0
 18 19  1  0
 19 20  1  0
 20 21  1  0
 20 22  1  0
 20 23  1  0
 19 24  2  0
 24 25  1  0
 25 26  1  0
  8 27  1  0
 27 28  2  0
 28  5  1  0
 25 12  2  0
 24 14  1  0
  1 29  1  0
  1 30  1  0
  1 31  1  0
  2 32  1  0
  2 33  1  0
  6 34  1  0
  7 35  1  0
  9 36  1  0
 17 37  1  0
 17 38  1  0
 17 39  1  0
 18 40  1  0
 26 41  1  0
 26 42  1  0
 27 43  1  0
 28 44  1  0
M  END
>  <Binding energies>  (1) 
[-7.37]

>  <Ligand effiencies>  (1) 
[-0.23774193548387096]

>  <Interactions>  (1) 
["V-B:TYR:539:CE2:9845, V-B:PRO:540:N:9853, V-B:PRO:540:CB:9854, V-B:TYR:539:CZ:9846, V-B:PRO:540:CA:9852, H-B:TYR:539:N:9839, V-B:TYR:539:C:9836, V-B:LEU:363:CD1:8157, V-B:ALA:541:CB:9861, V-B:GLU:543:CD:9877, V-B:ILE:538:CB:9831, V-B:GLU:543:CG:9876, H-B:GLU:543:OE2:9879, V-B:MET:535:CE:9804, V-A:GLU:543:CD:4905, V-A:HIS:456:CE1:4066, V-A:GLU:543:CG:4904, V-B:PRO:540:CD:9856, V-B:TYR:531:CE2:9762, V-B:TYR:539:CG:9841, V-B:TYR:539:CD2:9843, H-B:GLU:543:OE1:9878, V-A:GLU:543:CB:4903, V-B:HIS:456:CE1:9038, H-A:GLU:543:OE2:4907, V-B:PRO:540:CG:9855, V-B:TYR:484:CZ:9315, V-B:TYR:484:CE1:9313"]

$$$$
4bb_Grossjean_2025
     RDKit          3D

 41 43  0  0  0  0  0  0  0  0999 V2000
  125.0590  122.4260   56.2680 C   0  0  0  0  0  0  0  0  0  0  0  0
  126.5340  122.2650   56.6390 C   0  0  0  0  0  0  0  0  0  0  0  0
  127.2630  121.6450   55.8630 O   0  0  0  0  0  0  0  0  0  0  0  0
  127.0120  122.8590   57.9300 C   0  0  0  0  0  0  0  0  0  0  0  0
  126.3970  124.0170   58.4230 C   0  0  0  0  0  0  0  0  0  0  0  0
  126.8220  124.5890   59.6180 C   0  0  0  0  0  0  0  0  0  0  0  0
  127.8620  124.0110   60.3490 C   0  0  0  0  0  0  0  0  0  0  0  0
  128.2130  124.6740   61.5420 N   0  0  0  0  0  0  0  0  0  0  0  0
  129.4270  124.8380   62.1220 C   0  0  0  0  0  0  0  0  0  0  0  0
  130.4760  124.3770   61.6740 O   0  0  0  0  0  0  0  0  0  0  0  0
  129.4220  125.5980   63.3750 C   0  0  0  0  0  0  0  0  0  0  0  0
  130.4440  125.0980   64.7200 S   0  0  0  0  0  0  0  0  0  0  0  0
  129.8420  126.3980   65.7230 C   0  0  0  0  0  0  0  0  0  0  0  0
  130.2750  126.5720   66.9700 N   0  0  0  0  0  0  0  0  0  0  0  0
  129.7350  127.6110   67.6470 C   0  0  0  0  0  0  0  0  0  0  0  0
  130.2440  127.7930   69.0650 C   0  0  0  0  0  0  0  0  0  0  0  0
  128.7800  128.4720   67.1120 C   0  0  0  0  0  0  0  0  0  0  0  0
  128.3200  128.2930   65.7980 C   0  0  0  0  0  0  0  0  0  0  0  0
  127.2690  129.2660   65.2530 C   0  0  0  0  0  0  0  0  0  0  0  0
  126.0530  128.7220   65.1600 F   0  0  0  0  0  0  0  0  0  0  0  0
  127.1720  130.3240   66.0580 F   0  0  0  0  0  0  0  0  0  0  0  0
  127.6190  129.6720   64.0330 F   0  0  0  0  0  0  0  0  0  0  0  0
  128.8690  127.2050   65.0550 C   0  0  0  0  0  0  0  0  0  0  0  0
  128.6470  126.7200   63.7160 C   0  0  0  0  0  0  0  0  0  0  0  0
  127.7610  127.3100   62.8520 N   0  0  0  0  0  0  0  0  0  0  0  0
  128.4880  122.8550   59.8580 C   0  0  0  0  0  0  0  0  0  0  0  0
  128.0620  122.2850   58.6600 C   0  0  0  0  0  0  0  0  0  0  0  0
  124.4553  122.4919   57.1852 H   0  0  0  0  0  0  0  0  0  0  0  0
  124.9279  123.3438   55.6760 H   0  0  0  0  0  0  0  0  0  0  0  0
  124.7330  121.5581   55.6760 H   0  0  0  0  0  0  0  0  0  0  0  0
  125.5714  124.4778   57.8608 H   0  0  0  0  0  0  0  0  0  0  0  0
  126.3354  125.5029   59.9895 H   0  0  0  0  0  0  0  0  0  0  0  0
  127.4280  125.0630   62.0430 H   0  0  0  0  0  0  0  0  0  0  0  0
  129.4545  127.5107   69.7770 H   0  0  0  0  0  0  0  0  0  0  0  0
  131.1256  127.1544   69.2229 H   0  0  0  0  0  0  0  0  0  0  0  0
  130.5208  128.8458   69.2229 H   0  0  0  0  0  0  0  0  0  0  0  0
  128.3840  129.2969   67.7225 H   0  0  0  0  0  0  0  0  0  0  0  0
  127.9630  128.1900   62.3960 H   0  0  0  0  0  0  0  0  0  0  0  0
  126.8690  126.8840   62.6400 H   0  0  0  0  0  0  0  0  0  0  0  0
  129.3162  122.3982   60.4197 H   0  0  0  0  0  0  0  0  0  0  0  0
  128.5543  121.3761   58.2836 H   0  0  0  0  0  0  0  0  0  0  0  0
  1  2  1  0
  2  3  2  0
  2  4  1  0
  4  5  2  0
  5  6  1  0
  6  7  2  0
  7  8  1  0
  8  9  1  0
  9 10  2  0
  9 11  1  0
 11 12  1  0
 12 13  1  0
 13 14  2  0
 14 15  1  0
 15 16  1  0
 15 17  2  0
 17 18  1  0
 18 19  1  0
 19 20  1  0
 19 21  1  0
 19 22  1  0
 18 23  2  0
 23 24  1  0
 24 25  1  0
  7 26  1  0
 26 27  2  0
 27  4  1  0
 24 11  2  0
 23 13  1  0
  1 28  1  0
  1 29  1  0
  1 30  1  0
  5 31  1  0
  6 32  1  0
  8 33  1  0
 16 34  1  0
 16 35  1  0
 16 36  1  0
 17 37  1  0
 25 38  1  0
 25 39  1  0
 26 40  1  0
 27 41  1  0
M  END
>  <Binding energies>  (1) 
[-7.27]

>  <Ligand effiencies>  (1) 
[-0.24233333333333332]

>  <Interactions>  (1) 
["V-B:TYR:539:CE2:9845, V-B:PRO:540:N:9853, V-B:PRO:540:CB:9854, V-B:TYR:539:CZ:9846, V-B:PRO:540:CA:9852, H-B:TYR:539:N:9839, V-B:TYR:539:C:9836, V-B:LEU:363:CD1:8157, V-B:ILE:538:CG2:9832, V-B:GLU:543:CD:9877, V-B:ILE:538:CB:9831, V-B:GLU:543:CG:9876, H-B:GLU:543:OE2:9879, V-A:GLU:543:CD:4905, V-A:HIS:456:CE1:4066, V-A:GLU:543:CG:4904, V-B:PRO:540:CD:9856, V-B:TYR:539:CD2:9843, H-B:ASP:366:OD1:8182, H-B:GLU:543:OE1:9878, V-A:GLU:543:CB:4903, V-A:GLU:543:C:4899, V-B:HIS:456:CE1:9038, V-B:ARG:545:CZ:9895, H-A:GLU:543:OE2:4907, V-B:PRO:540:CG:9855, V-B:TYR:484:CZ:9315, V-B:TYR:484:CE1:9313"]

$$$$
4bc_Grossjean_2025
     RDKit          3D

 40 42  0  0  0  0  0  0  0  0999 V2000
  125.8770  122.6350   55.9070 C   0  0  0  0  0  0  0  0  0  0  0  0
  126.8710  121.9520   56.6640 O   0  0  0  0  0  0  0  0  0  0  0  0
  127.2980  122.4960   57.8600 C   0  0  0  0  0  0  0  0  0  0  0  0
  126.6000  123.6110   58.3220 C   0  0  0  0  0  0  0  0  0  0  0  0
  126.9590  124.2270   59.5180 C   0  0  0  0  0  0  0  0  0  0  0  0
  128.0200  123.7280   60.2750 C   0  0  0  0  0  0  0  0  0  0  0  0
  128.3190  124.4250   61.4600 N   0  0  0  0  0  0  0  0  0  0  0  0
  129.5270  124.7680   61.9710 C   0  0  0  0  0  0  0  0  0  0  0  0
  130.6030  124.4690   61.4520 O   0  0  0  0  0  0  0  0  0  0  0  0
  129.4870  125.5340   63.2210 C   0  0  0  0  0  0  0  0  0  0  0  0
  130.5150  125.0760   64.5750 S   0  0  0  0  0  0  0  0  0  0  0  0
  129.8910  126.3830   65.5520 C   0  0  0  0  0  0  0  0  0  0  0  0
  130.3180  126.5870   66.7980 N   0  0  0  0  0  0  0  0  0  0  0  0
  129.7600  127.6290   67.4550 C   0  0  0  0  0  0  0  0  0  0  0  0
  130.2650  127.8460   68.8700 C   0  0  0  0  0  0  0  0  0  0  0  0
  128.7920  128.4640   66.9020 C   0  0  0  0  0  0  0  0  0  0  0  0
  128.3380  128.2550   65.5910 C   0  0  0  0  0  0  0  0  0  0  0  0
  127.2690  129.1990   65.0270 C   0  0  0  0  0  0  0  0  0  0  0  0
  126.0800  128.6120   64.8800 F   0  0  0  0  0  0  0  0  0  0  0  0
  127.1060  130.2350   65.8500 F   0  0  0  0  0  0  0  0  0  0  0  0
  127.6470  129.6430   63.8290 F   0  0  0  0  0  0  0  0  0  0  0  0
  128.9080  127.1640   64.8690 C   0  0  0  0  0  0  0  0  0  0  0  0
  128.7010  126.6540   63.5350 C   0  0  0  0  0  0  0  0  0  0  0  0
  127.8130  127.2200   62.6560 N   0  0  0  0  0  0  0  0  0  0  0  0
  128.7370  122.6150   59.8100 C   0  0  0  0  0  0  0  0  0  0  0  0
  128.3750  122.0020   58.6140 C   0  0  0  0  0  0  0  0  0  0  0  0
  125.1666  123.1231   56.5905 H   0  0  0  0  0  0  0  0  0  0  0  0
  126.3569  123.3950   55.2729 H   0  0  0  0  0  0  0  0  0  0  0  0
  125.3396  121.9145   55.2729 H   0  0  0  0  0  0  0  0  0  0  0  0
  125.7578  124.0078   57.7361 H   0  0  0  0  0  0  0  0  0  0  0  0
  126.4043  125.1103   59.8675 H   0  0  0  0  0  0  0  0  0  0  0  0
  127.5130  124.6710   62.0150 H   0  0  0  0  0  0  0  0  0  0  0  0
  129.4988  127.5168   69.5873 H   0  0  0  0  0  0  0  0  0  0  0  0
  131.1857  127.2641   69.0240 H   0  0  0  0  0  0  0  0  0  0  0  0
  130.4765  128.9144   69.0240 H   0  0  0  0  0  0  0  0  0  0  0  0
  128.3808  129.2927   67.4970 H   0  0  0  0  0  0  0  0  0  0  0  0
  128.0700  127.9920   62.0580 H   0  0  0  0  0  0  0  0  0  0  0  0
  126.8650  126.8780   62.5760 H   0  0  0  0  0  0  0  0  0  0  0  0
  129.5862  122.2265   60.3914 H   0  0  0  0  0  0  0  0  0  0  0  0
  128.9357  121.1255   58.2572 H   0  0  0  0  0  0  0  0  0  0  0  0
  1  2  1  0
  2  3  1  0
  3  4  2  0
  4  5  1  0
  5  6  2  0
  6  7  1  0
  7  8  1  0
  8  9  2  0
  8 10  1  0
 10 11  1  0
 11 12  1  0
 12 13  2  0
 13 14  1  0
 14 15  1  0
 14 16  2  0
 16 17  1  0
 17 18  1  0
 18 19  1  0
 18 20  1  0
 18 21  1  0
 17 22  2  0
 22 23  1  0
 23 24  1  0
  6 25  1  0
 25 26  2  0
 26  3  1  0
 23 10  2  0
 22 12  1  0
  1 27  1  0
  1 28  1  0
  1 29  1  0
  4 30  1  0
  5 31  1  0
  7 32  1  0
 15 33  1  0
 15 34  1  0
 15 35  1  0
 16 36  1  0
 24 37  1  0
 24 38  1  0
 25 39  1  0
 26 40  1  0
M  END
>  <Binding energies>  (1) 
[-6.41]

>  <Ligand effiencies>  (1) 
[-0.2210344827586207]

>  <Interactions>  (1) 
["V-B:TYR:539:CE2:9845, V-B:PRO:540:N:9853, V-B:TYR:539:CZ:9846, V-B:PRO:540:CA:9852, H-B:TYR:539:N:9839, V-B:TYR:539:CD1:9842, V-B:TYR:539:C:9836, V-B:ILE:538:CG2:9832, V-B:TYR:539:CE1:9844, V-B:GLU:543:CD:9877, V-B:ILE:538:CB:9831, H-B:GLU:543:OE2:9879, V-A:GLU:543:CD:4905, V-A:HIS:456:CE1:4066, V-A:GLU:543:CG:4904, V-B:PRO:540:CD:9856, V-B:TYR:539:CG:9841, V-B:TYR:539:CD2:9843, H-B:ASP:366:OD1:8182, H-B:GLU:543:OE1:9878, V-A:GLU:543:CB:4903, V-A:GLU:543:C:4899, V-B:HIS:456:CE1:9038, V-B:ARG:545:CZ:9895, H-A:GLU:543:OE2:4907, V-B:TYR:484:CZ:9315, V-B:TYR:484:CE1:9313"]

$$$$
4bd_Grossjean_2025
     RDKit          3D

 36 38  0  0  0  0  0  0  0  0999 V2000
  134.7260  125.0390   65.9940 C   0  0  0  0  0  0  0  0  0  0  0  0
  133.4070  124.9200   65.2520 C   0  0  0  0  0  0  0  0  0  0  0  0
  132.3200  125.7220   65.5860 C   0  0  0  0  0  0  0  0  0  0  0  0
  131.1050  125.5990   64.8930 C   0  0  0  0  0  0  0  0  0  0  0  0
  129.9350  126.5020   65.2980 C   0  0  0  0  0  0  0  0  0  0  0  0
  129.4270  127.1900   64.2730 F   0  0  0  0  0  0  0  0  0  0  0  0
  128.9510  125.7630   65.8100 F   0  0  0  0  0  0  0  0  0  0  0  0
  130.3420  127.3860   66.2080 F   0  0  0  0  0  0  0  0  0  0  0  0
  131.0450  124.6290   63.8480 C   0  0  0  0  0  0  0  0  0  0  0  0
  129.9990  124.2280   62.9400 C   0  0  0  0  0  0  0  0  0  0  0  0
  128.7530  124.7990   62.9490 N   0  0  0  0  0  0  0  0  0  0  0  0
  130.3710  123.2040   62.0520 C   0  0  0  0  0  0  0  0  0  0  0  0
  129.5600  122.5520   61.0190 C   0  0  0  0  0  0  0  0  0  0  0  0
  129.5680  121.3260   60.8960 O   0  0  0  0  0  0  0  0  0  0  0  0
  128.8180  123.3860   60.2490 N   0  0  0  0  0  0  0  0  0  0  0  0
  127.9770  123.0880   59.1610 C   0  0  0  0  0  0  0  0  0  0  0  0
  126.6780  123.6000   59.2330 C   0  0  0  0  0  0  0  0  0  0  0  0
  125.7730  123.3680   58.2010 C   0  0  0  0  0  0  0  0  0  0  0  0
  126.1700  122.6310   57.0880 C   0  0  0  0  0  0  0  0  0  0  0  0
  127.4650  122.1280   56.9980 C   0  0  0  0  0  0  0  0  0  0  0  0
  128.3730  122.3570   58.0290 C   0  0  0  0  0  0  0  0  0  0  0  0
  132.0420  122.7100   62.3130 S   0  0  0  0  0  0  0  0  0  0  0  0
  132.2310  123.8700   63.6060 C   0  0  0  0  0  0  0  0  0  0  0  0
  133.3820  123.9920   64.2670 N   0  0  0  0  0  0  0  0  0  0  0  0
  134.5397  125.0222   67.0780 H   0  0  0  0  0  0  0  0  0  0  0  0
  135.3777  124.1960   65.7208 H   0  0  0  0  0  0  0  0  0  0  0  0
  135.2163  125.9850   65.7208 H   0  0  0  0  0  0  0  0  0  0  0  0
  132.4132  126.4575   66.3986 H   0  0  0  0  0  0  0  0  0  0  0  0
  127.9100  124.2450   63.0050 H   0  0  0  0  0  0  0  0  0  0  0  0
  128.6340  125.8020   62.9050 H   0  0  0  0  0  0  0  0  0  0  0  0
  128.8520  124.3650   60.4940 H   0  0  0  0  0  0  0  0  0  0  0  0
  126.3696  124.1890   60.1093 H   0  0  0  0  0  0  0  0  0  0  0  0
  124.7491  123.7649   58.2643 H   0  0  0  0  0  0  0  0  0  0  0  0
  125.4546  122.4448   56.2734 H   0  0  0  0  0  0  0  0  0  0  0  0
  127.7708  121.5502   56.1134 H   0  0  0  0  0  0  0  0  0  0  0  0
  129.3986  121.9660   57.9568 H   0  0  0  0  0  0  0  0  0  0  0  0
  1  2  1  0
  2  3  2  0
  3  4  1  0
  4  5  1  0
  5  6  1  0
  5  7  1  0
  5  8  1  0
  4  9  2  0
  9 10  1  0
 10 11  1  0
 10 12  2  0
 12 13  1  0
 13 14  2  0
 13 15  1  0
 15 16  1  0
 16 17  2  0
 17 18  1  0
 18 19  2  0
 19 20  1  0
 20 21  2  0
 12 22  1  0
 22 23  1  0
 23 24  2  0
 24  2  1  0
 23  9  1  0
 21 16  1  0
  1 25  1  0
  1 26  1  0
  1 27  1  0
  3 28  1  0
 11 29  1  0
 11 30  1  0
 15 31  1  0
 17 32  1  0
 18 33  1  0
 19 34  1  0
 20 35  1  0
 21 36  1  0
M  END
>  <Binding energies>  (1) 
[-6.45]

>  <Ligand effiencies>  (1) 
[-0.2388888888888889]

>  <Interactions>  (1) 
["V-B:TYR:539:CE2:9845, V-B:PRO:540:N:9853, V-B:PRO:540:CB:9854, V-B:TYR:539:CZ:9846, V-A:LEU:475:CD1:4254, V-B:PRO:540:CA:9852, V-B:TYR:539:CD1:9842, V-B:TYR:539:C:9836, V-B:ALA:541:CB:9861, V-B:TYR:539:CE1:9844, V-B:GLU:543:CD:9877, V-B:GLU:543:CG:9876, H-B:GLU:543:OE2:9879, V-A:ARG:545:CZ:4923, V-A:GLY:454:CA:4045, V-A:GLU:543:CD:4905, V-A:HIS:456:CE1:4066, V-B:GLU:543:CB:9875, H-A:GLY:454:N:4046, H-A:TYR:484:OH:4344, V-B:PRO:540:CD:9856, V-B:TYR:539:CA:9838, V-B:TYR:539:CG:9841, V-B:TYR:539:CD2:9843, H-B:GLU:543:OE1:9878, V-A:GLU:543:CB:4903, V-A:GLY:453:C:4038, V-A:GLY:453:CA:4040, V-A:GLY:454:C:4043, V-A:ARG:545:CG:4919, V-A:ARG:545:CD:4920"]

$$$$
4be_Grossjean_2025
     RDKit          3D

 38 40  0  0  0  0  0  0  0  0999 V2000
  128.5730  122.7470   54.7550 C   0  0  0  0  0  0  0  0  0  0  0  0
  127.9170  122.8360   56.1200 C   0  0  0  0  0  0  0  0  0  0  0  0
  126.5410  122.6550   56.2820 C   0  0  0  0  0  0  0  0  0  0  0  0
  126.0050  122.7540   57.5660 C   0  0  0  0  0  0  0  0  0  0  0  0
  126.8470  123.0280   58.6460 C   0  0  0  0  0  0  0  0  0  0  0  0
  128.2180  123.1920   58.4140 C   0  0  0  0  0  0  0  0  0  0  0  0
  129.0100  123.4720   59.5420 N   0  0  0  0  0  0  0  0  0  0  0  0
  129.4810  122.6200   60.4860 C   0  0  0  0  0  0  0  0  0  0  0  0
  129.2700  121.4050   60.4800 O   0  0  0  0  0  0  0  0  0  0  0  0
  130.2610  123.2400   61.5610 C   0  0  0  0  0  0  0  0  0  0  0  0
  131.9690  122.8500   61.7520 S   0  0  0  0  0  0  0  0  0  0  0  0
  132.0970  123.8920   63.1500 C   0  0  0  0  0  0  0  0  0  0  0  0
  133.2480  124.0400   63.8030 N   0  0  0  0  0  0  0  0  0  0  0  0
  133.2240  124.8750   64.8680 C   0  0  0  0  0  0  0  0  0  0  0  0
  134.5440  125.0280   65.6000 C   0  0  0  0  0  0  0  0  0  0  0  0
  132.0870  125.5600   65.2880 C   0  0  0  0  0  0  0  0  0  0  0  0
  130.8710  125.4090   64.6030 C   0  0  0  0  0  0  0  0  0  0  0  0
  129.6470  126.1860   65.1010 C   0  0  0  0  0  0  0  0  0  0  0  0
  129.9630  127.1690   65.9480 F   0  0  0  0  0  0  0  0  0  0  0  0
  129.0130  126.7390   64.0680 F   0  0  0  0  0  0  0  0  0  0  0  0
  128.8170  125.3600   65.7380 F   0  0  0  0  0  0  0  0  0  0  0  0
  130.8610  124.5320   63.4780 C   0  0  0  0  0  0  0  0  0  0  0  0
  129.8270  124.1290   62.5560 C   0  0  0  0  0  0  0  0  0  0  0  0
  128.5370  124.5850   62.6450 N   0  0  0  0  0  0  0  0  0  0  0  0
  128.7480  123.1020   57.1600 N   0  0  0  0  0  0  0  0  0  0  0  0
  129.6562  122.6000   54.8777 H   0  0  0  0  0  0  0  0  0  0  0  0
  128.1485  121.8982   54.1988 H   0  0  0  0  0  0  0  0  0  0  0  0
  128.3900  123.6782   54.1988 H   0  0  0  0  0  0  0  0  0  0  0  0
  125.8958  122.4396   55.4175 H   0  0  0  0  0  0  0  0  0  0  0  0
  124.9255  122.6171   57.7269 H   0  0  0  0  0  0  0  0  0  0  0  0
  126.4391  123.1137   59.6640 H   0  0  0  0  0  0  0  0  0  0  0  0
  129.2160  124.4510   59.6780 H   0  0  0  0  0  0  0  0  0  0  0  0
  134.3660  125.0074   66.6853 H   0  0  0  0  0  0  0  0  0  0  0  0
  135.2150  124.2016   65.3227 H   0  0  0  0  0  0  0  0  0  0  0  0
  135.0081  125.9860   65.3227 H   0  0  0  0  0  0  0  0  0  0  0  0
  132.1419  126.2244   66.1630 H   0  0  0  0  0  0  0  0  0  0  0  0
  127.7660  123.9690   62.8620 H   0  0  0  0  0  0  0  0  0  0  0  0
  128.3120  125.5570   62.4890 H   0  0  0  0  0  0  0  0  0  0  0  0
  1  2  1  0
  2  3  2  0
  3  4  1  0
  4  5  2  0
  5  6  1  0
  6  7  1  0
  7  8  1  0
  8  9  2  0
  8 10  1  0
 10 11  1  0
 11 12  1  0
 12 13  2  0
 13 14  1  0
 14 15  1  0
 14 16  2  0
 16 17  1  0
 17 18  1  0
 18 19  1  0
 18 20  1  0
 18 21  1  0
 17 22  2  0
 22 23  1  0
 23 24  1  0
  6 25  2  0
 25  2  1  0
 23 10  2  0
 22 12  1  0
  1 26  1  0
  1 27  1  0
  1 28  1  0
  3 29  1  0
  4 30  1  0
  5 31  1  0
  7 32  1  0
 15 33  1  0
 15 34  1  0
 15 35  1  0
 16 36  1  0
 24 37  1  0
 24 38  1  0
M  END
>  <Binding energies>  (1) 
[-6.61]

>  <Ligand effiencies>  (1) 
[-0.23607142857142857]

>  <Interactions>  (1) 
["V-B:TYR:539:CE2:9845, V-B:PRO:540:N:9853, V-B:PRO:540:CB:9854, V-B:TYR:539:CZ:9846, V-B:PRO:540:CA:9852, V-B:TYR:539:CD1:9842, V-B:ILE:538:CA:9829, V-B:TYR:539:CE1:9844, V-B:GLU:543:CD:9877, V-B:ILE:538:CB:9831, V-B:GLU:543:CG:9876, H-B:GLU:543:OE2:9879, V-B:MET:535:CE:9804, V-A:ARG:545:CZ:4923, V-A:GLY:454:CA:4045, V-A:GLU:543:CD:4905, V-A:HIS:456:CE1:4066, H-B:TYR:539:OH:9847, V-B:GLU:543:CB:9875, H-A:GLY:454:N:4046, H-A:TYR:484:OH:4344, V-B:PRO:540:CD:9856, V-B:TYR:539:CD2:9843, H-B:GLU:543:OE1:9878, V-A:GLY:453:C:4038, V-A:GLY:453:CA:4040, V-A:GLY:454:C:4043, V-A:ARG:545:CG:4919, V-A:ARG:545:CD:4920"]

$$$$
4bf_Grossjean_2025
     RDKit          3D

 35 37  0  0  0  0  0  0  0  0999 V2000
  134.5890  125.0140   65.6250 C   0  0  0  0  0  0  0  0  0  0  0  0
  133.2680  124.9030   64.8840 C   0  0  0  0  0  0  0  0  0  0  0  0
  132.1830  125.7020   65.2310 C   0  0  0  0  0  0  0  0  0  0  0  0
  130.9660  125.5860   64.5400 C   0  0  0  0  0  0  0  0  0  0  0  0
  129.7980  126.4850   64.9580 C   0  0  0  0  0  0  0  0  0  0  0  0
  130.1380  127.3890   65.8810 F   0  0  0  0  0  0  0  0  0  0  0  0
  129.3380  127.1510   63.8990 F   0  0  0  0  0  0  0  0  0  0  0  0
  128.8170  125.7410   65.4720 F   0  0  0  0  0  0  0  0  0  0  0  0
  130.9030  124.6260   63.4860 C   0  0  0  0  0  0  0  0  0  0  0  0
  129.8530  124.2330   62.5800 C   0  0  0  0  0  0  0  0  0  0  0  0
  128.6050  124.8020   62.6010 N   0  0  0  0  0  0  0  0  0  0  0  0
  130.2220  123.2230   61.6760 C   0  0  0  0  0  0  0  0  0  0  0  0
  129.4030  122.5710   60.6490 C   0  0  0  0  0  0  0  0  0  0  0  0
  129.4220  121.3470   60.5160 O   0  0  0  0  0  0  0  0  0  0  0  0
  128.6420  123.4040   59.8990 N   0  0  0  0  0  0  0  0  0  0  0  0
  127.7930  123.1100   58.8150 C   0  0  0  0  0  0  0  0  0  0  0  0
  126.4470  123.5000   58.7040 C   0  0  0  0  0  0  0  0  0  0  0  0
  125.7090  123.1270   57.5780 C   0  0  0  0  0  0  0  0  0  0  0  0
  126.3370  122.3680   56.5900 C   0  0  0  0  0  0  0  0  0  0  0  0
  127.6320  121.9730   56.6760 N   0  0  0  0  0  0  0  0  0  0  0  0
  128.3350  122.3420   57.7770 C   0  0  0  0  0  0  0  0  0  0  0  0
  131.8930  122.7240   61.9280 S   0  0  0  0  0  0  0  0  0  0  0  0
  132.0890  123.8700   63.2320 C   0  0  0  0  0  0  0  0  0  0  0  0
  133.2410  123.9850   63.8900 N   0  0  0  0  0  0  0  0  0  0  0  0
  134.4037  124.9984   66.7092 H   0  0  0  0  0  0  0  0  0  0  0  0
  135.2353  124.1670   65.3513 H   0  0  0  0  0  0  0  0  0  0  0  0
  135.0849  125.9570   65.3513 H   0  0  0  0  0  0  0  0  0  0  0  0
  132.2791  126.4286   66.0512 H   0  0  0  0  0  0  0  0  0  0  0  0
  128.4720  125.8000   62.5190 H   0  0  0  0  0  0  0  0  0  0  0  0
  127.7720  124.2390   62.6990 H   0  0  0  0  0  0  0  0  0  0  0  0
  128.6740  124.3810   60.1490 H   0  0  0  0  0  0  0  0  0  0  0  0
  125.9770  124.0961   59.5001 H   0  0  0  0  0  0  0  0  0  0  0  0
  124.6555  123.4253   57.4726 H   0  0  0  0  0  0  0  0  0  0  0  0
  125.7565  122.0770   55.7021 H   0  0  0  0  0  0  0  0  0  0  0  0
  129.3841  122.0213   57.8580 H   0  0  0  0  0  0  0  0  0  0  0  0
  1  2  1  0
  2  3  2  0
  3  4  1  0
  4  5  1  0
  5  6  1  0
  5  7  1  0
  5  8  1  0
  4  9  2  0
  9 10  1  0
 10 11  1  0
 10 12  2  0
 12 13  1  0
 13 14  2  0
 13 15  1  0
 15 16  1  0
 16 17  2  0
 17 18  1  0
 18 19  2  0
 19 20  1  0
 20 21  2  0
 12 22  1  0
 22 23  1  0
 23 24  2  0
 24  2  1  0
 23  9  1  0
 21 16  1  0
  1 25  1  0
  1 26  1  0
  1 27  1  0
  3 28  1  0
 11 29  1  0
 11 30  1  0
 15 31  1  0
 17 32  1  0
 18 33  1  0
 19 34  1  0
 21 35  1  0
M  END
>  <Binding energies>  (1) 
[-6.64]

>  <Ligand effiencies>  (1) 
[-0.2459259259259259]

>  <Interactions>  (1) 
["V-B:TYR:539:CE2:9845, V-B:PRO:540:N:9853, V-B:PRO:540:CB:9854, V-B:TYR:539:CZ:9846, V-A:LEU:475:CD1:4254, V-B:PRO:540:CA:9852, H-B:TYR:539:N:9839, V-B:TYR:539:CD1:9842, V-B:TYR:539:C:9836, V-B:ALA:541:CB:9861, V-B:TYR:539:CE1:9844, V-B:GLU:543:CD:9877, V-B:ILE:538:CB:9831, V-B:GLU:543:CG:9876, H-B:GLU:543:OE2:9879, V-A:ARG:545:CZ:4923, V-A:GLY:454:CA:4045, V-A:GLU:543:CD:4905, V-A:HIS:456:CE1:4066, V-B:GLU:543:CB:9875, H-A:GLY:454:N:4046, H-A:TYR:484:OH:4344, V-B:PRO:540:CD:9856, V-B:TYR:539:CG:9841, V-B:TYR:539:CD2:9843, H-B:GLU:543:OE1:9878, V-A:GLU:543:CB:4903, V-A:GLY:453:C:4038, V-A:GLY:453:CA:4040, V-A:GLY:454:C:4043, V-A:ARG:545:CG:4919, V-A:ARG:545:CD:4920"]

$$$$
4bg_Grossjean_2025
     RDKit          3D

 39 41  0  0  0  0  0  0  0  0999 V2000
  134.7580  125.1240   65.9690 C   0  0  0  0  0  0  0  0  0  0  0  0
  133.4350  124.9550   65.2450 C   0  0  0  0  0  0  0  0  0  0  0  0
  132.3470  125.7730   65.5380 C   0  0  0  0  0  0  0  0  0  0  0  0
  131.1270  125.6020   64.8640 C   0  0  0  0  0  0  0  0  0  0  0  0
  129.9580  126.5260   65.2210 C   0  0  0  0  0  0  0  0  0  0  0  0
  128.9110  125.8710   65.7280 F   0  0  0  0  0  0  0  0  0  0  0  0
  130.3490  127.4180   66.1310 F   0  0  0  0  0  0  0  0  0  0  0  0
  129.5380  127.1660   64.1300 F   0  0  0  0  0  0  0  0  0  0  0  0
  131.0630  124.5690   63.8830 C   0  0  0  0  0  0  0  0  0  0  0  0
  130.0090  124.1020   63.0160 C   0  0  0  0  0  0  0  0  0  0  0  0
  128.7500  124.6470   63.0170 N   0  0  0  0  0  0  0  0  0  0  0  0
  130.3900  123.0500   62.1680 C   0  0  0  0  0  0  0  0  0  0  0  0
  129.5760  122.3240   61.1940 C   0  0  0  0  0  0  0  0  0  0  0  0
  129.7200  121.1140   61.0100 O   0  0  0  0  0  0  0  0  0  0  0  0
  128.6400  123.0500   60.5480 N   0  0  0  0  0  0  0  0  0  0  0  0
  127.7260  122.5400   59.5260 C   0  0  0  0  0  0  0  0  0  0  0  0
  126.3670  123.2280   59.5260 C   0  0  0  0  0  0  0  0  0  0  0  0
  125.7350  123.5320   58.3160 C   0  0  0  0  0  0  0  0  0  0  0  0
  124.4760  124.1250   58.3190 C   0  0  0  0  0  0  0  0  0  0  0  0
  123.8450  124.4010   59.5300 C   0  0  0  0  0  0  0  0  0  0  0  0
  124.4610  124.0860   60.7390 C   0  0  0  0  0  0  0  0  0  0  0  0
  125.7210  123.4930   60.7370 C   0  0  0  0  0  0  0  0  0  0  0  0
  132.0630  122.5760   62.4460 S   0  0  0  0  0  0  0  0  0  0  0  0
  132.2530  123.8050   63.6730 C   0  0  0  0  0  0  0  0  0  0  0  0
  133.4080  123.9710   64.3180 N   0  0  0  0  0  0  0  0  0  0  0  0
  134.5869  125.1021   67.0554 H   0  0  0  0  0  0  0  0  0  0  0  0
  135.4368  124.3053   65.6882 H   0  0  0  0  0  0  0  0  0  0  0  0
  135.2092  126.0871   65.6882 H   0  0  0  0  0  0  0  0  0  0  0  0
  132.4437  126.5582   66.3023 H   0  0  0  0  0  0  0  0  0  0  0  0
  128.6000  125.6450   63.0420 H   0  0  0  0  0  0  0  0  0  0  0  0
  127.9250  124.0630   63.0010 H   0  0  0  0  0  0  0  0  0  0  0  0
  128.6310  124.0500   60.6910 H   0  0  0  0  0  0  0  0  0  0  0  0
  128.1902  122.6868   58.5396 H   0  0  0  0  0  0  0  0  0  0  0  0
  127.5501  121.4778   59.7513 H   0  0  0  0  0  0  0  0  0  0  0  0
  126.2328  123.3025   57.3623 H   0  0  0  0  0  0  0  0  0  0  0  0
  123.9810  124.3748   57.3689 H   0  0  0  0  0  0  0  0  0  0  0  0
  122.8510  124.8721   59.5315 H   0  0  0  0  0  0  0  0  0  0  0  0
  123.9546  124.3046   61.6907 H   0  0  0  0  0  0  0  0  0  0  0  0
  126.2080  123.2331   61.6885 H   0  0  0  0  0  0  0  0  0  0  0  0
  1  2  1  0
  2  3  2  0
  3  4  1  0
  4  5  1  0
  5  6  1  0
  5  7  1  0
  5  8  1  0
  4  9  2  0
  9 10  1  0
 10 11  1  0
 10 12  2  0
 12 13  1  0
 13 14  2  0
 13 15  1  0
 15 16  1  0
 16 17  1  0
 17 18  2  0
 18 19  1  0
 19 20  2  0
 20 21  1  0
 21 22  2  0
 12 23  1  0
 23 24  1  0
 24 25  2  0
 25  2  1  0
 24  9  1  0
 22 17  1  0
  1 26  1  0
  1 27  1  0
  1 28  1  0
  3 29  1  0
 11 30  1  0
 11 31  1  0
 15 32  1  0
 16 33  1  0
 16 34  1  0
 18 35  1  0
 19 36  1  0
 20 37  1  0
 21 38  1  0
 22 39  1  0
M  END
>  <Binding energies>  (1) 
[-6.67]

>  <Ligand effiencies>  (1) 
[-0.2382142857142857]

>  <Interactions>  (1) 
["V-B:TYR:539:CE2:9845, V-B:PRO:540:N:9853, V-B:PRO:540:CB:9854, V-A:LEU:475:CD1:4254, V-B:PRO:540:CA:9852, V-B:TYR:539:C:9836, V-B:LEU:363:CD1:8157, V-B:ALA:541:CB:9861, V-B:GLU:543:CD:9877, V-B:GLU:543:CG:9876, H-B:GLU:543:OE2:9879, V-A:ARG:545:CZ:4923, V-A:GLY:454:CA:4045, V-A:GLU:543:CD:4905, V-A:HIS:456:CE1:4066, V-B:GLU:543:CB:9875, H-A:GLY:454:N:4046, H-A:TYR:484:OH:4344, V-B:LEU:363:CA:8153, V-B:ASN:362:CB:8144, V-B:ASN:362:C:8140, H-B:GLU:543:OE1:9878, V-A:GLU:543:CB:4903, V-A:GLY:453:C:4038, V-A:GLY:453:CA:4040, V-A:GLY:454:C:4043, V-A:ARG:545:CG:4919, V-A:ARG:545:CD:4920"]

$$$$
4bh_Grossjean_2025
     RDKit          3D

 51 53  0  0  0  0  0  0  0  0999 V2000
  129.4850  123.2150   71.6440 C   0  0  0  0  0  0  0  0  0  0  0  0
  128.7650  124.4000   71.9650 O   0  0  0  0  0  0  0  0  0  0  0  0
  129.0040  125.5560   71.2450 C   0  0  0  0  0  0  0  0  0  0  0  0
  128.6390  125.7320   69.9010 C   0  0  0  0  0  0  0  0  0  0  0  0
  128.9140  126.9270   69.2350 C   0  0  0  0  0  0  0  0  0  0  0  0
  128.4700  127.1170   67.7900 C   0  0  0  0  0  0  0  0  0  0  0  0
  129.3300  126.4380   66.8200 N   0  0  0  0  0  0  0  0  0  0  0  0
  129.5880  125.1140   66.7950 C   0  0  0  0  0  0  0  0  0  0  0  0
  129.1380  124.3360   67.6380 O   0  0  0  0  0  0  0  0  0  0  0  0
  130.4770  124.6520   65.7280 C   0  0  0  0  0  0  0  0  0  0  0  0
  132.0040  125.4780   65.4340 S   0  0  0  0  0  0  0  0  0  0  0  0
  132.3680  124.4160   64.0940 C   0  0  0  0  0  0  0  0  0  0  0  0
  133.4960  124.5400   63.3950 N   0  0  0  0  0  0  0  0  0  0  0  0
  133.6680  123.6590   62.3830 C   0  0  0  0  0  0  0  0  0  0  0  0
  134.9580  123.8200   61.5990 C   0  0  0  0  0  0  0  0  0  0  0  0
  132.7490  122.6650   62.0560 C   0  0  0  0  0  0  0  0  0  0  0  0
  131.5580  122.5300   62.7870 C   0  0  0  0  0  0  0  0  0  0  0  0
  130.5790  121.4200   62.3930 C   0  0  0  0  0  0  0  0  0  0  0  0
  129.4800  121.8810   61.7910 F   0  0  0  0  0  0  0  0  0  0  0  0
  131.1700  120.5750   61.5490 F   0  0  0  0  0  0  0  0  0  0  0  0
  130.1900  120.7550   63.4810 F   0  0  0  0  0  0  0  0  0  0  0  0
  131.3450  123.4450   63.8600 C   0  0  0  0  0  0  0  0  0  0  0  0
  130.2680  123.6160   64.8050 C   0  0  0  0  0  0  0  0  0  0  0  0
  129.1460  122.8280   64.8030 N   0  0  0  0  0  0  0  0  0  0  0  0
  129.5350  127.9710   69.9230 C   0  0  0  0  0  0  0  0  0  0  0  0
  129.9180  127.8210   71.2650 C   0  0  0  0  0  0  0  0  0  0  0  0
  130.5480  128.8060   72.0040 O   0  0  0  0  0  0  0  0  0  0  0  0
  129.8120  129.9580   72.4020 C   0  0  0  0  0  0  0  0  0  0  0  0
  129.6520  126.6060   71.9130 C   0  0  0  0  0  0  0  0  0  0  0  0
  130.0050  126.4510   73.2330 O   0  0  0  0  0  0  0  0  0  0  0  0
  130.9970  125.4580   73.4520 C   0  0  0  0  0  0  0  0  0  0  0  0
  129.7919  122.7098   72.5717 H   0  0  0  0  0  0  0  0  0  0  0  0
  128.8422  122.5433   71.0561 H   0  0  0  0  0  0  0  0  0  0  0  0
  130.3773  123.4760   71.0561 H   0  0  0  0  0  0  0  0  0  0  0  0
  128.1295  124.9172   69.3658 H   0  0  0  0  0  0  0  0  0  0  0  0
  127.4484  126.7228   67.6852 H   0  0  0  0  0  0  0  0  0  0  0  0
  128.5264  128.1940   67.5736 H   0  0  0  0  0  0  0  0  0  0  0  0
  129.6630  127.0030   66.0510 H   0  0  0  0  0  0  0  0  0  0  0  0
  135.8010  123.9252   62.2977 H   0  0  0  0  0  0  0  0  0  0  0  0
  135.1151  122.9345   60.9656 H   0  0  0  0  0  0  0  0  0  0  0  0
  134.8926  124.7170   60.9656 H   0  0  0  0  0  0  0  0  0  0  0  0
  132.9576  121.9814   61.2198 H   0  0  0  0  0  0  0  0  0  0  0  0
  128.6830  122.5550   65.6590 H   0  0  0  0  0  0  0  0  0  0  0  0
  128.7470  122.4840   63.9410 H   0  0  0  0  0  0  0  0  0  0  0  0
  129.7266  128.9233   69.4068 H   0  0  0  0  0  0  0  0  0  0  0  0
  129.7785  130.0104   73.5002 H   0  0  0  0  0  0  0  0  0  0  0  0
  130.3013  130.8604   72.0066 H   0  0  0  0  0  0  0  0  0  0  0  0
  128.7876  129.8933   72.0066 H   0  0  0  0  0  0  0  0  0  0  0  0
  131.1400  125.3148   74.5332 H   0  0  0  0  0  0  0  0  0  0  0  0
  130.6741  124.5104   72.9962 H   0  0  0  0  0  0  0  0  0  0  0  0
  131.9449  125.7799   72.9962 H   0  0  0  0  0  0  0  0  0  0  0  0
  1  2  1  0
  2  3  1  0
  3  4  2  0
  4  5  1  0
  5  6  1  0
  6  7  1  0
  7  8  1  0
  8  9  2  0
  8 10  1  0
 10 11  1  0
 11 12  1  0
 12 13  2  0
 13 14  1  0
 14 15  1  0
 14 16  2  0
 16 17  1  0
 17 18  1  0
 18 19  1  0
 18 20  1  0
 18 21  1  0
 17 22  2  0
 22 23  1  0
 23 24  1  0
  5 25  2  0
 25 26  1  0
 26 27  1  0
 27 28  1  0
 26 29  2  0
 29 30  1  0
 30 31  1  0
 29  3  1  0
 23 10  2  0
 22 12  1  0
  1 32  1  0
  1 33  1  0
  1 34  1  0
  4 35  1  0
  6 36  1  0
  6 37  1  0
  7 38  1  0
 15 39  1  0
 15 40  1  0
 15 41  1  0
 16 42  1  0
 24 43  1  0
 24 44  1  0
 25 45  1  0
 28 46  1  0
 28 47  1  0
 28 48  1  0
 31 49  1  0
 31 50  1  0
 31 51  1  0
M  END
>  <Binding energies>  (1) 
[-6.57]

>  <Ligand effiencies>  (1) 
[-0.19323529411764706]

>  <Interactions>  (1) 
["V-B:TYR:539:CE2:9845, V-A:TYR:484:CZ:4343, V-A:LEU:475:CD1:4254, V-B:ALA:541:CB:9861, V-B:GLU:543:CD:9877, V-A:TYR:484:CE1:4341, V-A:LEU:475:CD2:4255, V-B:GLU:543:CG:9876, V-A:GLY:454:CA:4045, V-A:HIS:456:CE1:4066, V-A:ASP:366:CG:3209, V-B:GLU:543:CB:9875, H-A:GLY:454:N:4046, H-A:TYR:484:OH:4344, V-B:TYR:539:CD2:9843, V-A:LYS:547:CE:4947, V-B:HIS:456:CD2:9036, H-A:GLU:543:OE1:4906, V-A:GLU:543:C:4899, H-A:LYS:547:NZ:4948, V-B:HIS:456:CE1:9038, V-A:GLY:453:C:4038, V-A:GLY:453:CA:4040, V-A:ILE:369:CG1:3234, V-B:GLU:543:C:9871, V-A:HIS:456:CD2:4064, V-A:LEU:475:CG:4253, H-B:LYS:547:NZ:9920, V-B:GLU:543:CA:9873, V-A:GLY:544:CA:4911, V-A:TYR:484:CG:4338, V-A:TYR:484:CD1:4339"]

$$$$
4bi_Grossjean_2025
     RDKit          3D

 32 34  0  0  0  0  0  0  0  0999 V2000
  125.9220  122.1030   55.9980 C   0  0  0  0  0  0  0  0  0  0  0  0
  127.1240  122.6340   56.7580 C   0  0  0  0  0  0  0  0  0  0  0  0
  128.0200  123.5160   56.1590 C   0  0  0  0  0  0  0  0  0  0  0  0
  129.1250  124.0030   56.8760 C   0  0  0  0  0  0  0  0  0  0  0  0
  130.0790  124.9770   56.1770 C   0  0  0  0  0  0  0  0  0  0  0  0
  131.3650  124.6870   56.3840 F   0  0  0  0  0  0  0  0  0  0  0  0
  129.8700  124.9480   54.8610 F   0  0  0  0  0  0  0  0  0  0  0  0
  129.8710  126.2150   56.6290 F   0  0  0  0  0  0  0  0  0  0  0  0
  129.2790  123.5520   58.2210 C   0  0  0  0  0  0  0  0  0  0  0  0
  130.2640  123.8230   59.2390 C   0  0  0  0  0  0  0  0  0  0  0  0
  131.3350  124.6550   59.0320 N   0  0  0  0  0  0  0  0  0  0  0  0
  130.0250  123.1680   60.4590 C   0  0  0  0  0  0  0  0  0  0  0  0
  130.8210  123.2070   61.6890 C   0  0  0  0  0  0  0  0  0  0  0  0
  130.8800  122.2250   62.4320 O   0  0  0  0  0  0  0  0  0  0  0  0
  131.4800  124.3700   61.9190 N   0  0  0  0  0  0  0  0  0  0  0  0
  132.3080  124.6740   62.9920 C   0  0  0  0  0  0  0  0  0  0  0  0
  131.8270  125.0920   64.2310 C   0  0  0  0  0  0  0  0  0  0  0  0
  132.9490  125.2880   65.0040 C   0  0  0  0  0  0  0  0  0  0  0  0
  134.0490  125.0020   64.2680 O   0  0  0  0  0  0  0  0  0  0  0  0
  133.6290  124.6140   62.9930 N   0  0  0  0  0  0  0  0  0  0  0  0
  128.5750  122.1700   60.3720 S   0  0  0  0  0  0  0  0  0  0  0  0
  128.2890  122.6480   58.7150 C   0  0  0  0  0  0  0  0  0  0  0  0
  127.2410  122.1910   58.0310 N   0  0  0  0  0  0  0  0  0  0  0  0
  125.1567  121.7649   56.7122 H   0  0  0  0  0  0  0  0  0  0  0  0
  125.5062  122.9012   55.3655 H   0  0  0  0  0  0  0  0  0  0  0  0
  126.2321  121.2581   55.3655 H   0  0  0  0  0  0  0  0  0  0  0  0
  127.8612  123.8332   55.1178 H   0  0  0  0  0  0  0  0  0  0  0  0
  131.3380  125.6130   59.3550 H   0  0  0  0  0  0  0  0  0  0  0  0
  132.1610  124.3380   58.5440 H   0  0  0  0  0  0  0  0  0  0  0  0
  131.3700  125.1040   61.2350 H   0  0  0  0  0  0  0  0  0  0  0  0
  130.7773  125.2346   64.5275 H   0  0  0  0  0  0  0  0  0  0  0  0
  132.9516  125.6232   66.0517 H   0  0  0  0  0  0  0  0  0  0  0  0
  1  2  1  0
  2  3  2  0
  3  4  1  0
  4  5  1  0
  5  6  1  0
  5  7  1  0
  5  8  1  0
  4  9  2  0
  9 10  1  0
 10 11  1  0
 10 12  2  0
 12 13  1  0
 13 14  2  0
 13 15  1  0
 15 16  1  0
 16 17  1  0
 17 18  2  0
 18 19  1  0
 19 20  1  0
 12 21  1  0
 21 22  1  0
 22 23  2  0
 23  2  1  0
 22  9  1  0
 20 16  2  0
  1 24  1  0
  1 25  1  0
  1 26  1  0
  3 27  1  0
 11 28  1  0
 11 29  1  0
 15 30  1  0
 17 31  1  0
 18 32  1  0
M  END
>  <Binding energies>  (1) 
[-6.35]

>  <Ligand effiencies>  (1) 
[-0.24423076923076922]

>  <Interactions>  (1) 
["V-B:TYR:539:CE2:9845, V-B:PRO:540:N:9853, V-B:PRO:540:CB:9854, V-B:TYR:539:CZ:9846, V-B:PRO:540:CA:9852, V-B:ILE:538:CA:9829, V-B:ALA:541:CB:9861, V-B:ILE:538:CG2:9832, V-B:TYR:539:CE1:9844, V-B:ILE:538:CB:9831, V-B:MET:535:CE:9804, V-A:ARG:545:CZ:4923, V-A:HIS:456:CE1:4066, H-A:ARG:545:NH2:4925, H-A:ARG:545:NH1:4924, H-B:TYR:539:OH:9847, H-A:ARG:545:NE:4921, V-A:ASP:366:CG:3209, H-A:GLY:454:N:4046, V-B:PRO:540:CD:9856, V-B:TYR:539:CD2:9843, H-A:ASP:366:OD1:3210"]

$$$$
4bj_Grossjean_2025
     RDKit          3D

 32 34  0  0  0  0  0  0  0  0999 V2000
  133.5960  125.4580   65.3300 C   0  0  0  0  0  0  0  0  0  0  0  0
  132.9120  125.0110   64.0500 C   0  0  0  0  0  0  0  0  0  0  0  0
  133.6520  124.5420   62.9680 C   0  0  0  0  0  0  0  0  0  0  0  0
  133.0070  124.1380   61.7880 C   0  0  0  0  0  0  0  0  0  0  0  0
  133.8630  123.6310   60.6220 C   0  0  0  0  0  0  0  0  0  0  0  0
  133.5810  124.2350   59.4660 F   0  0  0  0  0  0  0  0  0  0  0  0
  135.1520  123.8470   60.8820 F   0  0  0  0  0  0  0  0  0  0  0  0
  133.6610  122.3240   60.4510 F   0  0  0  0  0  0  0  0  0  0  0  0
  131.5830  124.2300   61.7590 C   0  0  0  0  0  0  0  0  0  0  0  0
  130.6000  123.9200   60.7490 C   0  0  0  0  0  0  0  0  0  0  0  0
  130.9370  123.4340   59.5110 N   0  0  0  0  0  0  0  0  0  0  0  0
  129.2750  124.1530   61.1480 C   0  0  0  0  0  0  0  0  0  0  0  0
  128.0430  123.9600   60.3800 C   0  0  0  0  0  0  0  0  0  0  0  0
  128.0820  123.7590   59.1640 O   0  0  0  0  0  0  0  0  0  0  0  0
  126.8940  124.0060   61.0990 N   0  0  0  0  0  0  0  0  0  0  0  0
  125.6020  123.8430   60.6190 C   0  0  0  0  0  0  0  0  0  0  0  0
  124.6580  123.0560   61.0880 N   0  0  0  0  0  0  0  0  0  0  0  0
  123.5470  123.1590   60.3870 C   0  0  0  0  0  0  0  0  0  0  0  0
  123.5750  124.0480   59.3170 C   0  0  0  0  0  0  0  0  0  0  0  0
  125.1490  124.7820   59.2320 S   0  0  0  0  0  0  0  0  0  0  0  0
  129.2050  124.7900   62.7900 S   0  0  0  0  0  0  0  0  0  0  0  0
  130.9460  124.7240   62.9380 C   0  0  0  0  0  0  0  0  0  0  0  0
  131.5620  125.1090   64.0540 N   0  0  0  0  0  0  0  0  0  0  0  0
  133.0294  125.0877   66.1971 H   0  0  0  0  0  0  0  0  0  0  0  0
  134.6184  125.0532   65.3600 H   0  0  0  0  0  0  0  0  0  0  0  0
  133.6357  126.5569   65.3600 H   0  0  0  0  0  0  0  0  0  0  0  0
  134.7484  124.4876   63.0379 H   0  0  0  0  0  0  0  0  0  0  0  0
  130.2420  123.2390   58.8050 H   0  0  0  0  0  0  0  0  0  0  0  0
  131.9000  123.2480   59.2650 H   0  0  0  0  0  0  0  0  0  0  0  0
  126.9750  124.1680   62.0920 H   0  0  0  0  0  0  0  0  0  0  0  0
  122.6481  122.5751   60.6338 H   0  0  0  0  0  0  0  0  0  0  0  0
  122.7367  124.2533   58.6350 H   0  0  0  0  0  0  0  0  0  0  0  0
  1  2  1  0
  2  3  2  0
  3  4  1  0
  4  5  1  0
  5  6  1  0
  5  7  1  0
  5  8  1  0
  4  9  2  0
  9 10  1  0
 10 11  1  0
 10 12  2  0
 12 13  1  0
 13 14  2  0
 13 15  1  0
 15 16  1  0
 16 17  2  0
 17 18  1  0
 18 19  2  0
 19 20  1  0
 12 21  1  0
 21 22  1  0
 22 23  2  0
 23  2  1  0
 22  9  1  0
 20 16  1  0
  1 24  1  0
  1 25  1  0
  1 26  1  0
  3 27  1  0
 11 28  1  0
 11 29  1  0
 15 30  1  0
 18 31  1  0
 19 32  1  0
M  END
>  <Binding energies>  (1) 
[-6.13]

>  <Ligand effiencies>  (1) 
[-0.23576923076923076]

>  <Interactions>  (1) 
["V-B:TYR:539:CE2:9845, V-B:PRO:540:CB:9854, V-B:TYR:539:CZ:9846, H-B:ALA:541:N:9860, V-B:PRO:540:CA:9852, V-B:LEU:363:CD1:8157, V-B:GLU:543:CD:9877, V-B:GLU:543:CG:9876, H-B:GLU:543:OE2:9879, V-A:ARG:545:CZ:4923, V-A:GLY:454:CA:4045, V-A:ASP:366:CB:3208, V-A:HIS:456:CE1:4066, H-B:TYR:539:OH:9847, V-A:ASP:366:CG:3209, V-B:LEU:363:CA:8153, V-B:ASN:362:CB:8144, V-B:ASN:362:C:8140, V-A:ILE:369:CB:3232, V-A:ILE:369:CG2:3233, V-A:GLY:453:C:4038, V-A:GLY:453:CA:4040, V-A:ILE:369:CG1:3234, V-A:ARG:545:CG:4919, V-A:ARG:545:CD:4920, V-B:LEU:363:CB:8155, V-A:ASP:366:CA:3206"]

$$$$
4bk_Grossjean_2025
     RDKit          3D

 50 51  0  0  0  0  0  0  0  0999 V2000
  127.5450  122.7000   55.3610 C   0  0  0  0  0  0  0  0  0  0  0  0
  127.5820  121.8990   56.5320 O   0  0  0  0  0  0  0  0  0  0  0  0
  126.7900  122.4140   57.5950 C   0  0  0  0  0  0  0  0  0  0  0  0
  127.5920  122.3620   58.9020 C   0  0  0  0  0  0  0  0  0  0  0  0
  127.9820  123.6780   59.2680 O   0  0  0  0  0  0  0  0  0  0  0  0
  127.2350  124.2190   60.3490 C   0  0  0  0  0  0  0  0  0  0  0  0
  126.4920  123.0880   61.0720 C   0  0  0  0  0  0  0  0  0  0  0  0
  125.1620  123.0080   60.5790 O   0  0  0  0  0  0  0  0  0  0  0  0
  124.3160  124.0560   61.0350 C   0  0  0  0  0  0  0  0  0  0  0  0
  123.8860  124.9220   59.8380 C   0  0  0  0  0  0  0  0  0  0  0  0
  124.9430  125.8040   59.3410 N   0  0  0  0  0  0  0  0  0  0  0  0
  125.4900  125.7490   58.1090 C   0  0  0  0  0  0  0  0  0  0  0  0
  125.1210  124.9370   57.2590 O   0  0  0  0  0  0  0  0  0  0  0  0
  126.5480  126.7210   57.8290 C   0  0  0  0  0  0  0  0  0  0  0  0
  126.2400  128.4440   58.0310 S   0  0  0  0  0  0  0  0  0  0  0  0
  127.8770  128.8360   57.5620 C   0  0  0  0  0  0  0  0  0  0  0  0
  128.3040  130.0970   57.5110 N   0  0  0  0  0  0  0  0  0  0  0  0
  129.5920  130.2750   57.1370 C   0  0  0  0  0  0  0  0  0  0  0  0
  130.0560  131.7190   57.0880 C   0  0  0  0  0  0  0  0  0  0  0  0
  130.4550  129.2310   56.8150 C   0  0  0  0  0  0  0  0  0  0  0  0
  130.0130  127.9000   56.8650 C   0  0  0  0  0  0  0  0  0  0  0  0
  130.9980  126.7860   56.4980 C   0  0  0  0  0  0  0  0  0  0  0  0
  130.6360  126.1060   55.4080 F   0  0  0  0  0  0  0  0  0  0  0  0
  132.2020  127.3080   56.2620 F   0  0  0  0  0  0  0  0  0  0  0  0
  131.0870  125.9130   57.5010 F   0  0  0  0  0  0  0  0  0  0  0  0
  128.6590  127.6770   57.2580 C   0  0  0  0  0  0  0  0  0  0  0  0
  127.8700  126.4820   57.4250 C   0  0  0  0  0  0  0  0  0  0  0  0
  128.3700  125.2250   57.2030 N   0  0  0  0  0  0  0  0  0  0  0  0
  127.4960  123.7617   55.6444 H   0  0  0  0  0  0  0  0  0  0  0  0
  128.4524  122.5210   54.7655 H   0  0  0  0  0  0  0  0  0  0  0  0
  126.6580  122.4381   54.7655 H   0  0  0  0  0  0  0  0  0  0  0  0
  126.5142  123.4559   57.3753 H   0  0  0  0  0  0  0  0  0  0  0  0
  125.8782  121.8077   57.6999 H   0  0  0  0  0  0  0  0  0  0  0  0
  126.9687  121.9290   59.6982 H   0  0  0  0  0  0  0  0  0  0  0  0
  128.4875  121.7393   58.7595 H   0  0  0  0  0  0  0  0  0  0  0  0
  127.9171  124.7185   61.0527 H   0  0  0  0  0  0  0  0  0  0  0  0
  126.5077  124.9488   59.9639 H   0  0  0  0  0  0  0  0  0  0  0  0
  127.0089  122.1342   60.8904 H   0  0  0  0  0  0  0  0  0  0  0  0
  126.4722  123.2927   62.1526 H   0  0  0  0  0  0  0  0  0  0  0  0
  123.4251  123.6258   61.5157 H   0  0  0  0  0  0  0  0  0  0  0  0
  124.8594  124.6773   61.7621 H   0  0  0  0  0  0  0  0  0  0  0  0
  123.5769  124.2549   59.0198 H   0  0  0  0  0  0  0  0  0  0  0  0
  123.0657  125.5671   60.1857 H   0  0  0  0  0  0  0  0  0  0  0  0
  125.2900  126.4930   59.9920 H   0  0  0  0  0  0  0  0  0  0  0  0
  130.1784  132.0998   58.1127 H   0  0  0  0  0  0  0  0  0  0  0  0
  131.0181  131.7772   56.5579 H   0  0  0  0  0  0  0  0  0  0  0  0
  129.3079  132.3267   56.5579 H   0  0  0  0  0  0  0  0  0  0  0  0
  131.4913  129.4511   56.5191 H   0  0  0  0  0  0  0  0  0  0  0  0
  127.7850  124.4020   57.2380 H   0  0  0  0  0  0  0  0  0  0  0  0
  129.3480  125.0790   56.9910 H   0  0  0  0  0  0  0  0  0  0  0  0
  1  2  1  0
  2  3  1  0
  3  4  1  0
  4  5  1  0
  5  6  1  0
  6  7  1  0
  7  8  1  0
  8  9  1  0
  9 10  1  0
 10 11  1  0
 11 12  1  0
 12 13  2  0
 12 14  1  0
 14 15  1  0
 15 16  1  0
 16 17  2  0
 17 18  1  0
 18 19  1  0
 18 20  2  0
 20 21  1  0
 21 22  1  0
 22 23  1  0
 22 24  1  0
 22 25  1  0
 21 26  2  0
 26 27  1  0
 27 28  1  0
 27 14  2  0
 26 16  1  0
  1 29  1  0
  1 30  1  0
  1 31  1  0
  3 32  1  0
  3 33  1  0
  4 34  1  0
  4 35  1  0
  6 36  1  0
  6 37  1  0
  7 38  1  0
  7 39  1  0
  9 40  1  0
  9 41  1  0
 10 42  1  0
 10 43  1  0
 11 44  1  0
 19 45  1  0
 19 46  1  0
 19 47  1  0
 20 48  1  0
 28 49  1  0
 28 50  1  0
M  END
>  <Binding energies>  (1) 
[-4.43]

>  <Ligand effiencies>  (1) 
[-0.1429032258064516]

>  <Interactions>  (1) 
["V-B:PRO:540:N:9853, V-B:PRO:540:CB:9854, H-B:ALA:541:N:9860, V-B:PRO:540:CA:9852, H-B:TYR:539:N:9839, V-B:TYR:539:CD1:9842, V-B:ILE:538:CA:9829, V-B:PRO:540:C:9850, V-B:TYR:539:C:9836, V-B:ALA:541:CB:9861, V-B:ILE:538:CG2:9832, V-B:TYR:539:CE1:9844, V-B:ILE:538:CB:9831, V-B:MET:535:CE:9804, V-A:ASP:366:CB:3208, V-A:TYR:531:CE1:4789, V-B:LEU:363:CA:8153, H-B:TYR:531:OH:9764, V-B:PRO:540:CD:9856, V-A:TYR:531:CZ:4791, V-B:ASP:366:CB:8180, V-B:ASN:362:CB:8144, H-B:ASP:366:OD1:8182, V-B:ASN:362:C:8140, V-B:ASP:366:CG:8181, V-B:ALA:541:CA:9859"]

$$$$
4ca_Grossjean_2025
     RDKit          3D

 52 55  0  0  0  0  0  0  0  0999 V2000
  129.4530  123.0230   53.9910 C   0  0  0  0  0  0  0  0  0  0  0  0
  128.0040  122.7470   54.4040 C   0  0  0  0  0  0  0  0  0  0  0  0
  127.9920  121.9910   55.6070 O   0  0  0  0  0  0  0  0  0  0  0  0
  126.9450  122.0610   56.4700 C   0  0  0  0  0  0  0  0  0  0  0  0
  125.8130  121.6460   56.2000 O   0  0  0  0  0  0  0  0  0  0  0  0
  127.3010  122.6900   57.7850 C   0  0  0  0  0  0  0  0  0  0  0  0
  126.5940  123.8200   58.2170 C   0  0  0  0  0  0  0  0  0  0  0  0
  126.8990  124.4240   59.4340 C   0  0  0  0  0  0  0  0  0  0  0  0
  127.9190  123.9160   60.2390 C   0  0  0  0  0  0  0  0  0  0  0  0
  128.1360  124.5980   61.4530 N   0  0  0  0  0  0  0  0  0  0  0  0
  129.2440  125.2310   61.9120 C   0  0  0  0  0  0  0  0  0  0  0  0
  130.2870  125.3530   61.2690 O   0  0  0  0  0  0  0  0  0  0  0  0
  129.1260  125.8010   63.2560 C   0  0  0  0  0  0  0  0  0  0  0  0
  129.7360  124.9130   64.6510 S   0  0  0  0  0  0  0  0  0  0  0  0
  129.2800  126.2090   65.7310 C   0  0  0  0  0  0  0  0  0  0  0  0
  129.5030  126.1320   67.0400 N   0  0  0  0  0  0  0  0  0  0  0  0
  129.1270  127.1940   67.7990 C   0  0  0  0  0  0  0  0  0  0  0  0
  129.4010  127.0800   69.2710 C   0  0  0  0  0  0  0  0  0  0  0  0
  128.6900  126.1670   70.0660 C   0  0  0  0  0  0  0  0  0  0  0  0
  128.9360  126.0610   71.4330 C   0  0  0  0  0  0  0  0  0  0  0  0
  129.8990  126.8700   72.0260 C   0  0  0  0  0  0  0  0  0  0  0  0
  130.6160  127.7850   71.2620 C   0  0  0  0  0  0  0  0  0  0  0  0
  130.3670  127.8880   69.8960 C   0  0  0  0  0  0  0  0  0  0  0  0
  128.5080  128.3180   67.2410 C   0  0  0  0  0  0  0  0  0  0  0  0
  128.2640  128.4070   65.8630 C   0  0  0  0  0  0  0  0  0  0  0  0
  127.5850  129.6700   65.3180 C   0  0  0  0  0  0  0  0  0  0  0  0
  128.0540  130.0430   64.1260 F   0  0  0  0  0  0  0  0  0  0  0  0
  126.2770  129.4560   65.1830 F   0  0  0  0  0  0  0  0  0  0  0  0
  127.7810  130.6850   66.1590 F   0  0  0  0  0  0  0  0  0  0  0  0
  128.6700  127.3060   65.0550 C   0  0  0  0  0  0  0  0  0  0  0  0
  128.5980  127.0450   63.6380 C   0  0  0  0  0  0  0  0  0  0  0  0
  128.0570  127.9370   62.7480 N   0  0  0  0  0  0  0  0  0  0  0  0
  128.6280  122.7820   59.8180 C   0  0  0  0  0  0  0  0  0  0  0  0
  128.3210  122.1780   58.6020 C   0  0  0  0  0  0  0  0  0  0  0  0
  130.0745  123.1414   54.8908 H   0  0  0  0  0  0  0  0  0  0  0  0
  129.8306  122.1806   53.3928 H   0  0  0  0  0  0  0  0  0  0  0  0
  129.4945  123.9452   53.3928 H   0  0  0  0  0  0  0  0  0  0  0  0
  127.4802  123.7008   54.5647 H   0  0  0  0  0  0  0  0  0  0  0  0
  127.4969  122.1806   53.6090 H   0  0  0  0  0  0  0  0  0  0  0  0
  125.7910  124.2336   57.5892 H   0  0  0  0  0  0  0  0  0  0  0  0
  126.3320  125.3074   59.7628 H   0  0  0  0  0  0  0  0  0  0  0  0
  127.3320  124.6220   62.0620 H   0  0  0  0  0  0  0  0  0  0  0  0
  127.9266  125.5252   69.6020 H   0  0  0  0  0  0  0  0  0  0  0  0
  128.3704  125.3398   72.0413 H   0  0  0  0  0  0  0  0  0  0  0  0
  130.0949  126.7860   73.1051 H   0  0  0  0  0  0  0  0  0  0  0  0
  131.3762  128.4242   71.7348 H   0  0  0  0  0  0  0  0  0  0  0  0
  130.9355  128.6136   69.2958 H   0  0  0  0  0  0  0  0  0  0  0  0
  128.2067  129.1484   67.8964 H   0  0  0  0  0  0  0  0  0  0  0  0
  128.5180  128.8070   62.5160 H   0  0  0  0  0  0  0  0  0  0  0  0
  127.1760  127.7540   62.2880 H   0  0  0  0  0  0  0  0  0  0  0  0
  129.4282  122.3689   60.4497 H   0  0  0  0  0  0  0  0  0  0  0  0
  128.8837  121.2901   58.2780 H   0  0  0  0  0  0  0  0  0  0  0  0
  1  2  1  0
  2  3  1  0
  3  4  1  0
  4  5  2  0
  4  6  1  0
  6  7  2  0
  7  8  1  0
  8  9  2  0
  9 10  1  0
 10 11  1  0
 11 12  2  0
 11 13  1  0
 13 14  1  0
 14 15  1  0
 15 16  2  0
 16 17  1  0
 17 18  1  0
 18 19  2  0
 19 20  1  0
 20 21  2  0
 21 22  1  0
 22 23  2  0
 17 24  2  0
 24 25  1  0
 25 26  1  0
 26 27  1  0
 26 28  1  0
 26 29  1  0
 25 30  2  0
 30 31  1  0
 31 32  1  0
  9 33  1  0
 33 34  2  0
 34  6  1  0
 31 13  2  0
 30 15  1  0
 23 18  1  0
  1 35  1  0
  1 36  1  0
  1 37  1  0
  2 38  1  0
  2 39  1  0
  7 40  1  0
  8 41  1  0
 10 42  1  0
 19 43  1  0
 20 44  1  0
 21 45  1  0
 22 46  1  0
 23 47  1  0
 24 48  1  0
 32 49  1  0
 32 50  1  0
 33 51  1  0
 34 52  1  0
M  END
>  <Binding energies>  (1) 
[-8.84]

>  <Ligand effiencies>  (1) 
[-0.23891891891891892]

>  <Interactions>  (1) 
["V-B:TYR:539:CE2:9845, V-B:PRO:540:N:9853, V-B:TYR:539:CZ:9846, V-B:PRO:540:CA:9852, H-B:TYR:539:N:9839, V-B:TYR:539:CD1:9842, V-B:ILE:538:CA:9829, V-B:TYR:539:C:9836, V-B:ILE:538:CG2:9832, V-B:TYR:539:CE1:9844, V-B:GLU:543:CD:9877, V-B:ILE:538:CB:9831, V-B:GLU:543:CG:9876, H-B:GLU:543:OE2:9879, V-B:MET:535:CE:9804, V-A:GLU:543:CD:4905, V-A:HIS:456:CE1:4066, V-A:GLU:543:CG:4904, V-B:GLU:543:CB:9875, V-B:PRO:540:CD:9856, V-B:TYR:539:CA:9838, V-B:TYR:539:CG:9841, V-B:TYR:539:CD2:9843, H-B:ASP:366:OD1:8182, H-B:GLU:543:OE1:9878, V-A:GLU:543:CB:4903, V-A:GLU:543:C:4899, V-A:GLY:544:C:4909, V-B:HIS:456:CE1:9038, H-A:GLU:543:OE2:4907, V-B:TYR:484:CZ:9315, V-B:TYR:484:CE1:9313, V-A:HIS:456:CD2:4064"]

$$$$
4cb_Grossjean_2025
     RDKit          3D

 49 52  0  0  0  0  0  0  0  0999 V2000
  128.1420  122.7480   54.5550 C   0  0  0  0  0  0  0  0  0  0  0  0
  127.9530  121.8570   55.6460 O   0  0  0  0  0  0  0  0  0  0  0  0
  126.9030  122.0030   56.4940 C   0  0  0  0  0  0  0  0  0  0  0  0
  125.7520  121.6480   56.2220 O   0  0  0  0  0  0  0  0  0  0  0  0
  127.2810  122.6420   57.8010 C   0  0  0  0  0  0  0  0  0  0  0  0
  126.5420  123.7390   58.2650 C   0  0  0  0  0  0  0  0  0  0  0  0
  126.8620  124.3470   59.4750 C   0  0  0  0  0  0  0  0  0  0  0  0
  127.9290  123.8780   60.2420 C   0  0  0  0  0  0  0  0  0  0  0  0
  128.1550  124.5580   61.4540 N   0  0  0  0  0  0  0  0  0  0  0  0
  129.2770  125.1580   61.9230 C   0  0  0  0  0  0  0  0  0  0  0  0
  130.3310  125.2440   61.2910 O   0  0  0  0  0  0  0  0  0  0  0  0
  129.1620  125.7390   63.2630 C   0  0  0  0  0  0  0  0  0  0  0  0
  129.7780  124.8650   64.6640 S   0  0  0  0  0  0  0  0  0  0  0  0
  129.3210  126.1690   65.7360 C   0  0  0  0  0  0  0  0  0  0  0  0
  129.5460  126.1030   67.0450 N   0  0  0  0  0  0  0  0  0  0  0  0
  129.1650  127.1700   67.7960 C   0  0  0  0  0  0  0  0  0  0  0  0
  129.4370  127.0690   69.2690 C   0  0  0  0  0  0  0  0  0  0  0  0
  130.4080  127.8810   69.8760 C   0  0  0  0  0  0  0  0  0  0  0  0
  130.6680  127.7900   71.2420 C   0  0  0  0  0  0  0  0  0  0  0  0
  129.9590  126.8820   72.0210 C   0  0  0  0  0  0  0  0  0  0  0  0
  128.9930  126.0630   71.4430 C   0  0  0  0  0  0  0  0  0  0  0  0
  128.7380  126.1560   70.0780 C   0  0  0  0  0  0  0  0  0  0  0  0
  128.5400  128.2860   67.2290 C   0  0  0  0  0  0  0  0  0  0  0  0
  128.2950  128.3630   65.8500 C   0  0  0  0  0  0  0  0  0  0  0  0
  127.6080  129.6180   65.2950 C   0  0  0  0  0  0  0  0  0  0  0  0
  128.0760  129.9840   64.1000 F   0  0  0  0  0  0  0  0  0  0  0  0
  126.3020  129.3920   65.1600 F   0  0  0  0  0  0  0  0  0  0  0  0
  127.7950  130.6410   66.1280 F   0  0  0  0  0  0  0  0  0  0  0  0
  128.7060  127.2570   65.0510 C   0  0  0  0  0  0  0  0  0  0  0  0
  128.6330  126.9860   63.6360 C   0  0  0  0  0  0  0  0  0  0  0  0
  128.0920  127.8710   62.7390 N   0  0  0  0  0  0  0  0  0  0  0  0
  128.6730  122.7790   59.7860 C   0  0  0  0  0  0  0  0  0  0  0  0
  128.3500  122.1710   58.5770 C   0  0  0  0  0  0  0  0  0  0  0  0
  128.3560  123.7567   54.9382 H   0  0  0  0  0  0  0  0  0  0  0  0
  128.9868  122.4021   53.9412 H   0  0  0  0  0  0  0  0  0  0  0  0
  127.2296  122.7748   53.9412 H   0  0  0  0  0  0  0  0  0  0  0  0
  125.7019  124.1225   57.6674 H   0  0  0  0  0  0  0  0  0  0  0  0
  126.2696  125.2034   59.8294 H   0  0  0  0  0  0  0  0  0  0  0  0
  127.3460  124.6080   62.0550 H   0  0  0  0  0  0  0  0  0  0  0  0
  130.9722  128.6001   69.2640 H   0  0  0  0  0  0  0  0  0  0  0  0
  131.4315  128.4342   71.7026 H   0  0  0  0  0  0  0  0  0  0  0  0
  130.1626  126.8106   73.0996 H   0  0  0  0  0  0  0  0  0  0  0  0
  128.4340  125.3459   72.0621 H   0  0  0  0  0  0  0  0  0  0  0  0
  127.9768  125.5042   69.6245 H   0  0  0  0  0  0  0  0  0  0  0  0
  128.2345  129.1200   67.8779 H   0  0  0  0  0  0  0  0  0  0  0  0
  127.1940  127.7090   62.3040 H   0  0  0  0  0  0  0  0  0  0  0  0
  128.5730  128.7220   62.4840 H   0  0  0  0  0  0  0  0  0  0  0  0
  129.5129  122.3977   60.3854 H   0  0  0  0  0  0  0  0  0  0  0  0
  128.9396  121.3113   58.2259 H   0  0  0  0  0  0  0  0  0  0  0  0
  1  2  1  0
  2  3  1  0
  3  4  2  0
  3  5  1  0
  5  6  2  0
  6  7  1  0
  7  8  2  0
  8  9  1  0
  9 10  1  0
 10 11  2  0
 10 12  1  0
 12 13  1  0
 13 14  1  0
 14 15  2  0
 15 16  1  0
 16 17  1  0
 17 18  2  0
 18 19  1  0
 19 20  2  0
 20 21  1  0
 21 22  2  0
 16 23  2  0
 23 24  1  0
 24 25  1  0
 25 26  1  0
 25 27  1  0
 25 28  1  0
 24 29  2  0
 29 30  1  0
 30 31  1  0
  8 32  1  0
 32 33  2  0
 33  5  1  0
 30 12  2  0
 29 14  1  0
 22 17  1  0
  1 34  1  0
  1 35  1  0
  1 36  1  0
  6 37  1  0
  7 38  1  0
  9 39  1  0
 18 40  1  0
 19 41  1  0
 20 42  1  0
 21 43  1  0
 22 44  1  0
 23 45  1  0
 31 46  1  0
 31 47  1  0
 32 48  1  0
 33 49  1  0
M  END
>  <Binding energies>  (1) 
[-8.53]

>  <Ligand effiencies>  (1) 
[-0.23694444444444443]

>  <Interactions>  (1) 
["V-B:TYR:539:CE2:9845, V-B:PRO:540:N:9853, V-B:TYR:539:CZ:9846, V-B:PRO:540:CA:9852, H-B:TYR:539:N:9839, V-B:TYR:539:CD1:9842, V-B:ILE:538:CA:9829, V-B:TYR:539:C:9836, V-B:ILE:538:CG2:9832, V-B:TYR:539:CE1:9844, V-B:GLU:543:CD:9877, V-B:ILE:538:CB:9831, V-B:GLU:543:CG:9876, H-B:GLU:543:OE2:9879, V-B:MET:535:CE:9804, V-A:GLU:543:CD:4905, V-A:HIS:456:CE1:4066, V-A:GLU:543:CG:4904, V-B:GLU:543:CB:9875, V-B:PRO:540:CD:9856, V-B:TYR:539:CA:9838, V-B:TYR:539:CG:9841, V-B:TYR:539:CD2:9843, H-B:ASP:366:OD1:8182, H-B:GLU:543:OE1:9878, V-A:GLU:543:CB:4903, V-A:GLU:543:C:4899, V-A:GLY:544:C:4909, V-B:HIS:456:CE1:9038, H-A:GLU:543:OE2:4907, V-B:TYR:484:CZ:9315, V-B:TYR:484:CE1:9313, V-A:HIS:456:CD2:4064"]

$$$$
4cc_Grossjean_2025
     RDKit          3D

 47 50  0  0  0  0  0  0  0  0999 V2000
  127.5630  122.3650   55.3950 C   0  0  0  0  0  0  0  0  0  0  0  0
  126.9570  121.9040   56.5980 O   0  0  0  0  0  0  0  0  0  0  0  0
  127.3210  122.4810   57.8000 C   0  0  0  0  0  0  0  0  0  0  0  0
  126.5700  123.5810   58.2150 C   0  0  0  0  0  0  0  0  0  0  0  0
  126.8610  124.2260   59.4130 C   0  0  0  0  0  0  0  0  0  0  0  0
  127.9180  123.7850   60.2110 C   0  0  0  0  0  0  0  0  0  0  0  0
  128.1260  124.4900   61.4120 N   0  0  0  0  0  0  0  0  0  0  0  0
  129.2250  125.1630   61.8300 C   0  0  0  0  0  0  0  0  0  0  0  0
  130.2500  125.2940   61.1590 O   0  0  0  0  0  0  0  0  0  0  0  0
  129.1300  125.7520   63.1700 C   0  0  0  0  0  0  0  0  0  0  0  0
  129.7490  124.8770   64.5700 S   0  0  0  0  0  0  0  0  0  0  0  0
  129.2840  126.1770   65.6420 C   0  0  0  0  0  0  0  0  0  0  0  0
  129.5070  126.1090   66.9530 N   0  0  0  0  0  0  0  0  0  0  0  0
  129.1190  127.1710   67.7040 C   0  0  0  0  0  0  0  0  0  0  0  0
  129.3810  127.0650   69.1790 C   0  0  0  0  0  0  0  0  0  0  0  0
  130.3210  127.9010   69.8030 C   0  0  0  0  0  0  0  0  0  0  0  0
  130.5700  127.8070   71.1700 C   0  0  0  0  0  0  0  0  0  0  0  0
  129.8810  126.8720   71.9350 C   0  0  0  0  0  0  0  0  0  0  0  0
  128.9470  126.0300   71.3410 C   0  0  0  0  0  0  0  0  0  0  0  0
  128.7010  126.1260   69.9730 C   0  0  0  0  0  0  0  0  0  0  0  0
  128.4960  128.2880   67.1400 C   0  0  0  0  0  0  0  0  0  0  0  0
  128.2540  128.3690   65.7590 C   0  0  0  0  0  0  0  0  0  0  0  0
  127.5720  129.6260   65.2070 C   0  0  0  0  0  0  0  0  0  0  0  0
  128.0090  129.9700   63.9930 F   0  0  0  0  0  0  0  0  0  0  0  0
  126.2580  129.4220   65.1130 F   0  0  0  0  0  0  0  0  0  0  0  0
  127.7990  130.6570   66.0200 F   0  0  0  0  0  0  0  0  0  0  0  0
  128.6640  127.2640   64.9590 C   0  0  0  0  0  0  0  0  0  0  0  0
  128.5870  126.9900   63.5450 C   0  0  0  0  0  0  0  0  0  0  0  0
  128.0310  127.8690   62.6500 N   0  0  0  0  0  0  0  0  0  0  0  0
  128.6700  122.6720   59.8070 C   0  0  0  0  0  0  0  0  0  0  0  0
  128.3750  122.0290   58.6080 C   0  0  0  0  0  0  0  0  0  0  0  0
  128.4165  123.0143   55.6398 H   0  0  0  0  0  0  0  0  0  0  0  0
  127.9141  121.5036   54.8079 H   0  0  0  0  0  0  0  0  0  0  0  0
  126.8266  122.9333   54.8079 H   0  0  0  0  0  0  0  0  0  0  0  0
  125.7402  123.9417   57.5894 H   0  0  0  0  0  0  0  0  0  0  0  0
  126.2556  125.0870   59.7326 H   0  0  0  0  0  0  0  0  0  0  0  0
  127.3270  124.5130   62.0270 H   0  0  0  0  0  0  0  0  0  0  0  0
  130.8693  128.6418   69.2026 H   0  0  0  0  0  0  0  0  0  0  0  0
  131.3092  128.4701   71.6431 H   0  0  0  0  0  0  0  0  0  0  0  0
  130.0757  126.7981   73.0151 H   0  0  0  0  0  0  0  0  0  0  0  0
  128.4045  125.2910   71.9490 H   0  0  0  0  0  0  0  0  0  0  0  0
  127.9630  125.4563   69.5073 H   0  0  0  0  0  0  0  0  0  0  0  0
  128.1892  129.1201   67.7908 H   0  0  0  0  0  0  0  0  0  0  0  0
  127.1400  127.6900   62.2090 H   0  0  0  0  0  0  0  0  0  0  0  0
  128.4990  128.7290   62.3990 H   0  0  0  0  0  0  0  0  0  0  0  0
  129.4936  122.3069   60.4382 H   0  0  0  0  0  0  0  0  0  0  0  0
  128.9722  121.1609   58.2921 H   0  0  0  0  0  0  0  0  0  0  0  0
  1  2  1  0
  2  3  1  0
  3  4  2  0
  4  5  1  0
  5  6  2  0
  6  7  1  0
  7  8  1  0
  8  9  2  0
  8 10  1  0
 10 11  1  0
 11 12  1  0
 12 13  2  0
 13 14  1  0
 14 15  1  0
 15 16  2  0
 16 17  1  0
 17 18  2  0
 18 19  1  0
 19 20  2  0
 14 21  2  0
 21 22  1  0
 22 23  1  0
 23 24  1  0
 23 25  1  0
 23 26  1  0
 22 27  2  0
 27 28  1  0
 28 29  1  0
  6 30  1  0
 30 31  2  0
 31  3  1  0
 28 10  2  0
 27 12  1  0
 20 15  1  0
  1 32  1  0
  1 33  1  0
  1 34  1  0
  4 35  1  0
  5 36  1  0
  7 37  1  0
 16 38  1  0
 17 39  1  0
 18 40  1  0
 19 41  1  0
 20 42  1  0
 21 43  1  0
 29 44  1  0
 29 45  1  0
 30 46  1  0
 31 47  1  0
M  END
>  <Binding energies>  (1) 
[-7.83]

>  <Ligand effiencies>  (1) 
[-0.23029411764705882]

>  <Interactions>  (1) 
["V-B:TYR:539:CE2:9845, V-B:PRO:540:N:9853, V-B:TYR:539:CZ:9846, V-B:PRO:540:CA:9852, H-B:TYR:539:N:9839, V-B:TYR:539:CD1:9842, V-B:ILE:538:CA:9829, V-B:ILE:538:C:9827, V-B:TYR:539:C:9836, V-B:ILE:538:CG2:9832, V-B:TYR:539:CE1:9844, V-B:GLU:543:CD:9877, V-B:ILE:538:CB:9831, V-B:GLU:543:CG:9876, H-B:GLU:543:OE2:9879, V-B:MET:535:CE:9804, V-A:GLU:543:CD:4905, V-A:HIS:456:CE1:4066, V-A:GLU:543:CG:4904, V-B:GLU:543:CB:9875, V-B:TYR:539:CG:9841, V-B:TYR:539:CD2:9843, H-B:ASP:366:OD1:8182, H-B:GLU:543:OE1:9878, V-A:GLU:543:CB:4903, V-A:GLU:543:C:4899, V-A:GLY:544:C:4909, V-B:HIS:456:CE1:9038, H-A:GLU:543:OE2:4907, V-B:TYR:484:CZ:9315, V-B:TYR:484:CE1:9313, V-A:HIS:456:CD2:4064"]

$$$$
4cd_Grossjean_2025
     RDKit          3D

 43 46  0  0  0  0  0  0  0  0999 V2000
  130.9960  122.2980   64.1470 N   0  0  0  0  0  0  0  0  0  0  0  0
  130.1990  123.1800   63.4620 C   0  0  0  0  0  0  0  0  0  0  0  0
  129.9550  124.4930   63.8980 C   0  0  0  0  0  0  0  0  0  0  0  0
  130.4470  125.1610   65.1070 C   0  0  0  0  0  0  0  0  0  0  0  0
  131.6480  125.1670   65.3760 O   0  0  0  0  0  0  0  0  0  0  0  0
  129.4960  125.7560   65.8690 N   0  0  0  0  0  0  0  0  0  0  0  0
  129.6240  126.4260   67.0990 C   0  0  0  0  0  0  0  0  0  0  0  0
  128.7230  126.0490   68.0990 C   0  0  0  0  0  0  0  0  0  0  0  0
  128.7780  126.6450   69.3550 C   0  0  0  0  0  0  0  0  0  0  0  0
  129.7410  127.6160   69.6170 C   0  0  0  0  0  0  0  0  0  0  0  0
  130.6530  127.9920   68.6350 C   0  0  0  0  0  0  0  0  0  0  0  0
  130.6010  127.3980   67.3760 C   0  0  0  0  0  0  0  0  0  0  0  0
  128.8990  125.3490   62.7760 S   0  0  0  0  0  0  0  0  0  0  0  0
  128.7860  123.9460   61.7410 C   0  0  0  0  0  0  0  0  0  0  0  0
  128.0590  123.9610   60.6260 N   0  0  0  0  0  0  0  0  0  0  0  0
  128.0200  122.8180   59.8940 C   0  0  0  0  0  0  0  0  0  0  0  0
  127.1910  122.8650   58.6430 C   0  0  0  0  0  0  0  0  0  0  0  0
  125.9240  123.4720   58.6440 C   0  0  0  0  0  0  0  0  0  0  0  0
  125.1500  123.5200   57.4880 C   0  0  0  0  0  0  0  0  0  0  0  0
  125.6330  122.9600   56.3100 C   0  0  0  0  0  0  0  0  0  0  0  0
  126.8850  122.3560   56.2810 C   0  0  0  0  0  0  0  0  0  0  0  0
  127.6570  122.3120   57.4380 C   0  0  0  0  0  0  0  0  0  0  0  0
  128.7260  121.6720   60.2730 C   0  0  0  0  0  0  0  0  0  0  0  0
  129.4990  121.6460   61.4460 C   0  0  0  0  0  0  0  0  0  0  0  0
  130.2450  120.3560   61.8050 C   0  0  0  0  0  0  0  0  0  0  0  0
  129.8090  119.2920   61.1250 F   0  0  0  0  0  0  0  0  0  0  0  0
  131.5430  120.4950   61.5380 F   0  0  0  0  0  0  0  0  0  0  0  0
  130.0880  120.0910   63.1020 F   0  0  0  0  0  0  0  0  0  0  0  0
  129.5370  122.8360   62.2280 C   0  0  0  0  0  0  0  0  0  0  0  0
  131.3950  122.5260   65.0460 H   0  0  0  0  0  0  0  0  0  0  0  0
  131.2080  121.3830   63.7740 H   0  0  0  0  0  0  0  0  0  0  0  0
  128.5550  125.7330   65.5040 H   0  0  0  0  0  0  0  0  0  0  0  0
  127.9668  125.2774   67.8919 H   0  0  0  0  0  0  0  0  0  0  0  0
  128.0636  126.3503   70.1378 H   0  0  0  0  0  0  0  0  0  0  0  0
  129.7814  128.0901   70.6088 H   0  0  0  0  0  0  0  0  0  0  0  0
  131.4132  128.7566   68.8526 H   0  0  0  0  0  0  0  0  0  0  0  0
  131.3236  127.6892   66.5995 H   0  0  0  0  0  0  0  0  0  0  0  0
  125.5375  123.9164   59.5730 H   0  0  0  0  0  0  0  0  0  0  0  0
  124.1600  123.9991   57.5061 H   0  0  0  0  0  0  0  0  0  0  0  0
  125.0212  122.9952   55.3965 H   0  0  0  0  0  0  0  0  0  0  0  0
  127.2638  121.9147   55.3473 H   0  0  0  0  0  0  0  0  0  0  0  0
  128.6485  121.8365   57.4089 H   0  0  0  0  0  0  0  0  0  0  0  0
  128.6752  120.7734   59.6405 H   0  0  0  0  0  0  0  0  0  0  0  0
  1  2  1  0
  2  3  2  0
  3  4  1  0
  4  5  2  0
  4  6  1  0
  6  7  1  0
  7  8  2  0
  8  9  1  0
  9 10  2  0
 10 11  1  0
 11 12  2  0
  3 13  1  0
 13 14  1  0
 14 15  2  0
 15 16  1  0
 16 17  1  0
 17 18  2  0
 18 19  1  0
 19 20  2  0
 20 21  1  0
 21 22  2  0
 16 23  2  0
 23 24  1  0
 24 25  1  0
 25 26  1  0
 25 27  1  0
 25 28  1  0
 24 29  2  0
 29  2  1  0
 12  7  1  0
 29 14  1  0
 22 17  1  0
  1 30  1  0
  1 31  1  0
  6 32  1  0
  8 33  1  0
  9 34  1  0
 10 35  1  0
 11 36  1  0
 12 37  1  0
 18 38  1  0
 19 39  1  0
 20 40  1  0
 21 41  1  0
 22 42  1  0
 23 43  1  0
M  END
>  <Binding energies>  (1) 
[-7.75]

>  <Ligand effiencies>  (1) 
[-0.2421875]

>  <Interactions>  (1) 
["V-B:TYR:539:CE2:9845, V-B:PRO:540:N:9853, V-B:PRO:540:CB:9854, V-A:TYR:484:CZ:4343, V-A:LEU:475:CD1:4254, V-B:PRO:540:CA:9852, V-B:TYR:539:CD1:9842, V-B:ILE:538:CA:9829, V-B:TYR:539:C:9836, V-B:LEU:363:CD1:8157, V-B:ALA:541:CB:9861, V-B:TYR:539:CE1:9844, V-B:GLU:543:CD:9877, V-A:TYR:484:CE1:4341, V-B:ILE:538:CB:9831, V-A:LEU:475:CD2:4255, V-B:GLU:543:CG:9876, H-B:GLU:543:OE2:9879, V-A:HIS:456:CE1:4066, V-B:GLU:543:CB:9875, H-A:TYR:484:OH:4344, V-B:PRO:540:CD:9856, V-B:TYR:539:CG:9841, V-B:TYR:539:CD2:9843, H-B:GLU:543:OE1:9878, V-A:GLU:543:CB:4903, V-A:GLU:543:C:4899, V-B:HIS:456:CE1:9038, V-A:LEU:475:CG:4253, V-A:PRO:482:CB:4322, V-A:PRO:482:CG:4323"]

$$$$
4ce_Grossjean_2025
     RDKit          3D

 45 48  0  0  0  0  0  0  0  0999 V2000
  128.0460  126.5170   70.4400 C   0  0  0  0  0  0  0  0  0  0  0  0
  128.9670  126.8270   69.2740 C   0  0  0  0  0  0  0  0  0  0  0  0
  129.9780  127.7870   69.3770 C   0  0  0  0  0  0  0  0  0  0  0  0
  130.7920  128.0140   68.2670 C   0  0  0  0  0  0  0  0  0  0  0  0
  130.5800  127.2850   67.0950 C   0  0  0  0  0  0  0  0  0  0  0  0
  129.5460  126.3430   67.0580 C   0  0  0  0  0  0  0  0  0  0  0  0
  129.3980  125.6230   65.8590 N   0  0  0  0  0  0  0  0  0  0  0  0
  130.3570  125.0540   65.0870 C   0  0  0  0  0  0  0  0  0  0  0  0
  131.5580  125.0770   65.3590 O   0  0  0  0  0  0  0  0  0  0  0  0
  129.8750  124.3860   63.8750 C   0  0  0  0  0  0  0  0  0  0  0  0
  128.8640  125.2570   62.7250 S   0  0  0  0  0  0  0  0  0  0  0  0
  128.7940  123.8690   61.6670 C   0  0  0  0  0  0  0  0  0  0  0  0
  128.1190  123.9030   60.5200 N   0  0  0  0  0  0  0  0  0  0  0  0
  128.1350  122.7800   59.7560 C   0  0  0  0  0  0  0  0  0  0  0  0
  127.3700  122.8530   58.4680 C   0  0  0  0  0  0  0  0  0  0  0  0
  126.0930  123.4370   58.4250 C   0  0  0  0  0  0  0  0  0  0  0  0
  125.3750  123.5030   57.2340 C   0  0  0  0  0  0  0  0  0  0  0  0
  125.9250  122.9860   56.0670 C   0  0  0  0  0  0  0  0  0  0  0  0
  127.1870  122.4020   56.0820 C   0  0  0  0  0  0  0  0  0  0  0  0
  127.9020  122.3360   57.2750 C   0  0  0  0  0  0  0  0  0  0  0  0
  128.8090  121.6210   60.1580 C   0  0  0  0  0  0  0  0  0  0  0  0
  129.5190  121.5720   61.3680 C   0  0  0  0  0  0  0  0  0  0  0  0
  130.2360  120.2720   61.7450 C   0  0  0  0  0  0  0  0  0  0  0  0
  129.8500  119.2280   61.0090 F   0  0  0  0  0  0  0  0  0  0  0  0
  131.5510  120.4160   61.5750 F   0  0  0  0  0  0  0  0  0  0  0  0
  129.9880  119.9750   63.0210 F   0  0  0  0  0  0  0  0  0  0  0  0
  129.5220  122.7500   62.1700 C   0  0  0  0  0  0  0  0  0  0  0  0
  130.1300  123.0750   63.4370 C   0  0  0  0  0  0  0  0  0  0  0  0
  130.8890  122.1810   64.1470 N   0  0  0  0  0  0  0  0  0  0  0  0
  128.7480  126.1110   68.1410 N   0  0  0  0  0  0  0  0  0  0  0  0
  128.5786  126.6963   71.3856 H   0  0  0  0  0  0  0  0  0  0  0  0
  127.1595  127.1663   70.3897 H   0  0  0  0  0  0  0  0  0  0  0  0
  127.7325  125.4638   70.3897 H   0  0  0  0  0  0  0  0  0  0  0  0
  130.1280  128.3495   70.3103 H   0  0  0  0  0  0  0  0  0  0  0  0
  131.5962  128.7630   68.3147 H   0  0  0  0  0  0  0  0  0  0  0  0
  131.2169  127.4490   66.2133 H   0  0  0  0  0  0  0  0  0  0  0  0
  128.4420  125.4870   65.5630 H   0  0  0  0  0  0  0  0  0  0  0  0
  125.6539  123.8482   59.3459 H   0  0  0  0  0  0  0  0  0  0  0  0
  124.3758  123.9628   57.2167 H   0  0  0  0  0  0  0  0  0  0  0  0
  125.3585  123.0391   55.1256 H   0  0  0  0  0  0  0  0  0  0  0  0
  127.6183  121.9942   55.1559 H   0  0  0  0  0  0  0  0  0  0  0  0
  128.8992  121.8717   57.2835 H   0  0  0  0  0  0  0  0  0  0  0  0
  128.7818  120.7306   59.5127 H   0  0  0  0  0  0  0  0  0  0  0  0
  131.3440  122.4340   65.0120 H   0  0  0  0  0  0  0  0  0  0  0  0
  131.0220  121.2320   63.8240 H   0  0  0  0  0  0  0  0  0  0  0  0
  1  2  1  0
  2  3  2  0
  3  4  1  0
  4  5  2  0
  5  6  1  0
  6  7  1  0
  7  8  1  0
  8  9  2  0
  8 10  1  0
 10 11  1  0
 11 12  1  0
 12 13  2  0
 13 14  1  0
 14 15  1  0
 15 16  2  0
 16 17  1  0
 17 18  2  0
 18 19  1  0
 19 20  2  0
 14 21  2  0
 21 22  1  0
 22 23  1  0
 23 24  1  0
 23 25  1  0
 23 26  1  0
 22 27  2  0
 27 28  1  0
 28 29  1  0
  6 30  2  0
 30  2  1  0
 28 10  2  0
 27 12  1  0
 20 15  1  0
  1 31  1  0
  1 32  1  0
  1 33  1  0
  3 34  1  0
  4 35  1  0
  5 36  1  0
  7 37  1  0
 16 38  1  0
 17 39  1  0
 18 40  1  0
 19 41  1  0
 20 42  1  0
 21 43  1  0
 29 44  1  0
 29 45  1  0
M  END
>  <Binding energies>  (1) 
[-7.83]

>  <Ligand effiencies>  (1) 
[-0.23727272727272727]

>  <Interactions>  (1) 
["V-B:TYR:539:CE2:9845, V-B:PRO:540:N:9853, V-B:PRO:540:CB:9854, V-B:TYR:539:CZ:9846, V-A:TYR:484:CZ:4343, V-A:LEU:475:CD1:4254, V-B:PRO:540:CA:9852, V-B:TYR:539:CD1:9842, V-B:ILE:538:CA:9829, V-B:TYR:539:C:9836, V-B:LEU:363:CD1:8157, V-B:ALA:541:CB:9861, V-B:ILE:538:CG2:9832, V-B:TYR:539:CE1:9844, V-B:GLU:543:CD:9877, V-A:TYR:484:CE1:4341, V-B:ILE:538:CB:9831, V-A:LEU:475:CD2:4255, V-B:GLU:543:CG:9876, H-B:GLU:543:OE2:9879, V-A:GLU:543:CD:4905, V-A:HIS:456:CE1:4066, V-B:GLU:543:CB:9875, H-A:TYR:484:OH:4344, V-B:TYR:539:CG:9841, V-B:TYR:539:CD2:9843, H-B:GLU:543:OE1:9878, V-B:HIS:456:CD2:9036, V-A:GLU:543:CB:4903, V-A:GLU:543:C:4899, V-B:HIS:456:CE1:9038, V-B:GLY:544:C:9881, V-A:TRP:381:CH2:3368, V-A:LEU:475:CG:4253, V-A:PRO:482:CB:4322, V-A:PRO:482:CG:4323, V-A:TRP:381:CZ2:3366"]

$$$$
4cf_Grossjean_2025
     RDKit          3D

 42 45  0  0  0  0  0  0  0  0999 V2000
  130.9620  122.2000   64.1360 N   0  0  0  0  0  0  0  0  0  0  0  0
  130.2080  123.1090   63.4380 C   0  0  0  0  0  0  0  0  0  0  0  0
  129.9990  124.4290   63.8710 C   0  0  0  0  0  0  0  0  0  0  0  0
  130.4750  125.0750   65.0970 C   0  0  0  0  0  0  0  0  0  0  0  0
  131.6590  124.9980   65.4270 O   0  0  0  0  0  0  0  0  0  0  0  0
  129.5330  125.7470   65.8020 N   0  0  0  0  0  0  0  0  0  0  0  0
  129.6440  126.4250   67.0310 C   0  0  0  0  0  0  0  0  0  0  0  0
  130.5860  127.4300   67.3270 C   0  0  0  0  0  0  0  0  0  0  0  0
  130.5970  128.0130   68.5960 C   0  0  0  0  0  0  0  0  0  0  0  0
  129.6680  127.5770   69.5400 C   0  0  0  0  0  0  0  0  0  0  0  0
  128.7550  126.6060   69.2830 N   0  0  0  0  0  0  0  0  0  0  0  0
  128.7570  126.0480   68.0450 C   0  0  0  0  0  0  0  0  0  0  0  0
  128.9890  125.3180   62.7330 S   0  0  0  0  0  0  0  0  0  0  0  0
  128.8480  123.9190   61.6940 C   0  0  0  0  0  0  0  0  0  0  0  0
  128.1370  123.9570   60.5690 N   0  0  0  0  0  0  0  0  0  0  0  0
  128.0730  122.8140   59.8370 C   0  0  0  0  0  0  0  0  0  0  0  0
  127.2580  122.8850   58.5780 C   0  0  0  0  0  0  0  0  0  0  0  0
  127.7440  122.3450   57.3780 C   0  0  0  0  0  0  0  0  0  0  0  0
  126.9950  122.4050   56.2060 C   0  0  0  0  0  0  0  0  0  0  0  0
  125.7420  123.0080   56.2200 C   0  0  0  0  0  0  0  0  0  0  0  0
  125.2330  123.5490   57.3970 C   0  0  0  0  0  0  0  0  0  0  0  0
  125.9870  123.4850   58.5660 C   0  0  0  0  0  0  0  0  0  0  0  0
  128.7420  121.6490   60.2240 C   0  0  0  0  0  0  0  0  0  0  0  0
  129.4970  121.6000   61.4060 C   0  0  0  0  0  0  0  0  0  0  0  0
  130.2010  120.2880   61.7730 C   0  0  0  0  0  0  0  0  0  0  0  0
  129.7520  119.2400   61.0780 F   0  0  0  0  0  0  0  0  0  0  0  0
  131.5070  120.3950   61.5340 F   0  0  0  0  0  0  0  0  0  0  0  0
  130.0100  120.0200   63.0650 F   0  0  0  0  0  0  0  0  0  0  0  0
  129.5570  122.7870   62.1920 C   0  0  0  0  0  0  0  0  0  0  0  0
  131.1340  121.2680   63.7860 H   0  0  0  0  0  0  0  0  0  0  0  0
  131.3750  122.4340   65.0280 H   0  0  0  0  0  0  0  0  0  0  0  0
  128.6100  125.7780   65.3930 H   0  0  0  0  0  0  0  0  0  0  0  0
  131.3084  127.7535   66.5632 H   0  0  0  0  0  0  0  0  0  0  0  0
  131.3237  128.8001   68.8457 H   0  0  0  0  0  0  0  0  0  0  0  0
  129.6753  128.0406   70.5375 H   0  0  0  0  0  0  0  0  0  0  0  0
  128.0227  125.2582   67.8281 H   0  0  0  0  0  0  0  0  0  0  0  0
  128.7340  121.8659   57.3628 H   0  0  0  0  0  0  0  0  0  0  0  0
  127.3923  121.9776   55.2736 H   0  0  0  0  0  0  0  0  0  0  0  0
  125.1492  123.0577   55.2947 H   0  0  0  0  0  0  0  0  0  0  0  0
  124.2410  124.0243   57.4038 H   0  0  0  0  0  0  0  0  0  0  0  0
  125.5812  123.9111   59.4954 H   0  0  0  0  0  0  0  0  0  0  0  0
  128.6753  120.7530   59.5894 H   0  0  0  0  0  0  0  0  0  0  0  0
  1  2  1  0
  2  3  2  0
  3  4  1  0
  4  5  2  0
  4  6  1  0
  6  7  1  0
  7  8  2  0
  8  9  1  0
  9 10  2  0
 10 11  1  0
 11 12  2  0
  3 13  1  0
 13 14  1  0
 14 15  2  0
 15 16  1  0
 16 17  1  0
 17 18  2  0
 18 19  1  0
 19 20  2  0
 20 21  1  0
 21 22  2  0
 16 23  2  0
 23 24  1  0
 24 25  1  0
 25 26  1  0
 25 27  1  0
 25 28  1  0
 24 29  2  0
 29  2  1  0
 12  7  1  0
 29 14  1  0
 22 17  1  0
  1 30  1  0
  1 31  1  0
  6 32  1  0
  8 33  1  0
  9 34  1  0
 10 35  1  0
 12 36  1  0
 18 37  1  0
 19 38  1  0
 20 39  1  0
 21 40  1  0
 22 41  1  0
 23 42  1  0
M  END
>  <Binding energies>  (1) 
[-7.38]

>  <Ligand effiencies>  (1) 
[-0.230625]

>  <Interactions>  (1) 
["V-B:TYR:539:CE2:9845, V-B:PRO:540:N:9853, V-B:PRO:540:CB:9854, V-B:TYR:539:CZ:9846, V-A:TYR:484:CZ:4343, V-A:LEU:475:CD1:4254, V-B:PRO:540:CA:9852, V-B:TYR:539:CD1:9842, V-B:ILE:538:CA:9829, V-B:TYR:539:C:9836, V-B:LEU:363:CD1:8157, V-B:ALA:541:CB:9861, V-B:ILE:538:CG2:9832, V-B:TYR:539:CE1:9844, V-B:GLU:543:CD:9877, V-A:TYR:484:CE1:4341, V-B:ILE:538:CB:9831, V-A:LEU:475:CD2:4255, V-B:GLU:543:CG:9876, H-B:GLU:543:OE2:9879, V-A:HIS:456:CE1:4066, V-B:GLU:543:CB:9875, H-A:TYR:484:OH:4344, V-B:TYR:539:CG:9841, V-B:TYR:539:CD2:9843, H-B:GLU:543:OE1:9878, V-A:GLU:543:CB:4903, V-A:GLU:543:C:4899, V-A:LEU:475:CG:4253, V-A:PRO:482:CB:4322, V-A:PRO:482:CG:4323"]

$$$$
4cg_Grossjean_2025
     RDKit          3D

 46 49  0  0  0  0  0  0  0  0999 V2000
  131.2430  122.4610   64.0180 N   0  0  0  0  0  0  0  0  0  0  0  0
  130.4190  123.3370   63.3600 C   0  0  0  0  0  0  0  0  0  0  0  0
  130.2260  124.6640   63.7700 C   0  0  0  0  0  0  0  0  0  0  0  0
  130.8560  125.3760   64.8810 C   0  0  0  0  0  0  0  0  0  0  0  0
  131.9570  125.0360   65.3210 O   0  0  0  0  0  0  0  0  0  0  0  0
  130.1440  126.3920   65.4130 N   0  0  0  0  0  0  0  0  0  0  0  0
  130.5840  127.2520   66.5100 C   0  0  0  0  0  0  0  0  0  0  0  0
  129.7450  127.1000   67.7740 C   0  0  0  0  0  0  0  0  0  0  0  0
  128.5600  126.3610   67.7350 C   0  0  0  0  0  0  0  0  0  0  0  0
  127.8070  126.1930   68.8950 C   0  0  0  0  0  0  0  0  0  0  0  0
  128.2470  126.7560   70.0900 C   0  0  0  0  0  0  0  0  0  0  0  0
  129.4360  127.4800   70.1380 C   0  0  0  0  0  0  0  0  0  0  0  0
  130.1900  127.6470   68.9800 C   0  0  0  0  0  0  0  0  0  0  0  0
  129.1230  125.5150   62.6930 S   0  0  0  0  0  0  0  0  0  0  0  0
  128.9080  124.0820   61.7150 C   0  0  0  0  0  0  0  0  0  0  0  0
  128.1130  124.0830   60.6490 N   0  0  0  0  0  0  0  0  0  0  0  0
  128.0110  122.9250   59.9460 C   0  0  0  0  0  0  0  0  0  0  0  0
  127.1040  122.9580   58.7490 C   0  0  0  0  0  0  0  0  0  0  0  0
  127.5040  122.3940   57.5260 C   0  0  0  0  0  0  0  0  0  0  0  0
  126.6680  122.4220   56.4140 C   0  0  0  0  0  0  0  0  0  0  0  0
  125.4150  123.0200   56.5070 C   0  0  0  0  0  0  0  0  0  0  0  0
  124.9950  123.5890   57.7050 C   0  0  0  0  0  0  0  0  0  0  0  0
  125.8350  123.5580   58.8140 C   0  0  0  0  0  0  0  0  0  0  0  0
  128.6960  121.7660   60.3310 C   0  0  0  0  0  0  0  0  0  0  0  0
  129.5370  121.7540   61.4540 C   0  0  0  0  0  0  0  0  0  0  0  0
  130.2570  120.4500   61.8190 C   0  0  0  0  0  0  0  0  0  0  0  0
  131.5570  120.4680   61.5180 F   0  0  0  0  0  0  0  0  0  0  0  0
  130.1530  120.2310   63.1310 F   0  0  0  0  0  0  0  0  0  0  0  0
  129.7080  119.4330   61.1580 F   0  0  0  0  0  0  0  0  0  0  0  0
  129.6620  122.9690   62.1890 C   0  0  0  0  0  0  0  0  0  0  0  0
  131.4030  121.5210   63.6820 H   0  0  0  0  0  0  0  0  0  0  0  0
  131.7300  122.7300   64.8620 H   0  0  0  0  0  0  0  0  0  0  0  0
  129.2860  126.6610   64.9550 H   0  0  0  0  0  0  0  0  0  0  0  0
  131.6274  127.0016   66.7521 H   0  0  0  0  0  0  0  0  0  0  0  0
  130.4735  128.2925   66.1707 H   0  0  0  0  0  0  0  0  0  0  0  0
  128.2219  125.9122   66.7893 H   0  0  0  0  0  0  0  0  0  0  0  0
  126.8694  125.6184   68.8670 H   0  0  0  0  0  0  0  0  0  0  0  0
  127.6499  126.6278   71.0049 H   0  0  0  0  0  0  0  0  0  0  0  0
  129.7778  127.9181   71.0874 H   0  0  0  0  0  0  0  0  0  0  0  0
  131.1350  128.2089   69.0144 H   0  0  0  0  0  0  0  0  0  0  0  0
  128.4946  121.9224   57.4462 H   0  0  0  0  0  0  0  0  0  0  0  0
  126.9964  121.9731   55.4650 H   0  0  0  0  0  0  0  0  0  0  0  0
  124.7531  123.0429   55.6287 H   0  0  0  0  0  0  0  0  0  0  0  0
  124.0039  124.0610   57.7753 H   0  0  0  0  0  0  0  0  0  0  0  0
  125.4996  124.0113   59.7585 H   0  0  0  0  0  0  0  0  0  0  0  0
  128.5722  120.8460   59.7409 H   0  0  0  0  0  0  0  0  0  0  0  0
  1  2  1  0
  2  3  2  0
  3  4  1  0
  4  5  2  0
  4  6  1  0
  6  7  1  0
  7  8  1  0
  8  9  2  0
  9 10  1  0
 10 11  2  0
 11 12  1  0
 12 13  2  0
  3 14  1  0
 14 15  1  0
 15 16  2  0
 16 17  1  0
 17 18  1  0
 18 19  2  0
 19 20  1  0
 20 21  2  0
 21 22  1  0
 22 23  2  0
 17 24  2  0
 24 25  1  0
 25 26  1  0
 26 27  1  0
 26 28  1  0
 26 29  1  0
 25 30  2  0
 30  2  1  0
 13  8  1  0
 30 15  1  0
 23 18  1  0
  1 31  1  0
  1 32  1  0
  6 33  1  0
  7 34  1  0
  7 35  1  0
  9 36  1  0
 10 37  1  0
 11 38  1  0
 12 39  1  0
 13 40  1  0
 19 41  1  0
 20 42  1  0
 21 43  1  0
 22 44  1  0
 23 45  1  0
 24 46  1  0
M  END
>  <Binding energies>  (1) 
[-7.77]

>  <Ligand effiencies>  (1) 
[-0.23545454545454544]

>  <Interactions>  (1) 
["V-B:TYR:539:CE2:9845, V-B:PRO:540:N:9853, V-B:PRO:540:CB:9854, V-A:LEU:475:CD1:4254, V-B:PRO:540:CA:9852, V-B:TYR:539:CD1:9842, V-B:TYR:539:C:9836, V-B:LEU:363:CD1:8157, V-B:ALA:541:CB:9861, V-B:GLU:543:CD:9877, V-B:ILE:538:CB:9831, V-A:LEU:475:CD2:4255, V-A:GLU:543:CD:4905, V-A:HIS:456:CE1:4066, V-B:GLU:543:CB:9875, H-A:TYR:484:OH:4344, V-B:PRO:540:CD:9856, V-B:TYR:539:CD2:9843, H-B:GLU:543:OE1:9878, V-B:HIS:456:CD2:9036, H-A:GLU:543:OE1:4906, V-A:GLU:543:CB:4903, V-B:HIS:456:CE1:9038, V-B:GLU:543:C:9871, V-A:LEU:475:CG:4253, V-A:PRO:482:CB:4322, V-A:PRO:482:CG:4323"]

$$$$
4ch_Grossjean_2025
     RDKit          3D

 58 61  0  0  0  0  0  0  0  0999 V2000
  124.2800  124.2200   60.7900 C   0  0  0  0  0  0  0  0  0  0  0  0
  124.7050  124.1140   59.4360 O   0  0  0  0  0  0  0  0  0  0  0  0
  125.8780  123.4410   59.1440 C   0  0  0  0  0  0  0  0  0  0  0  0
  126.8920  123.1900   60.0830 C   0  0  0  0  0  0  0  0  0  0  0  0
  128.0510  122.5020   59.7180 C   0  0  0  0  0  0  0  0  0  0  0  0
  129.1530  122.2640   60.7440 C   0  0  0  0  0  0  0  0  0  0  0  0
  129.0770  123.1320   61.9200 N   0  0  0  0  0  0  0  0  0  0  0  0
  130.0330  123.9980   62.3180 C   0  0  0  0  0  0  0  0  0  0  0  0
  131.0820  124.1620   61.6910 O   0  0  0  0  0  0  0  0  0  0  0  0
  129.7370  124.7670   63.5270 C   0  0  0  0  0  0  0  0  0  0  0  0
  130.2340  124.1590   65.1030 S   0  0  0  0  0  0  0  0  0  0  0  0
  129.5800  125.5680   65.9020 C   0  0  0  0  0  0  0  0  0  0  0  0
  129.6440  125.7100   67.2230 N   0  0  0  0  0  0  0  0  0  0  0  0
  129.1130  126.8420   67.7540 C   0  0  0  0  0  0  0  0  0  0  0  0
  129.1950  126.9690   69.2480 C   0  0  0  0  0  0  0  0  0  0  0  0
  128.1960  126.4240   70.0720 C   0  0  0  0  0  0  0  0  0  0  0  0
  128.2660  126.5390   71.4580 C   0  0  0  0  0  0  0  0  0  0  0  0
  129.3400  127.2020   72.0420 C   0  0  0  0  0  0  0  0  0  0  0  0
  130.3410  127.7550   71.2500 C   0  0  0  0  0  0  0  0  0  0  0  0
  130.2660  127.6390   69.8640 C   0  0  0  0  0  0  0  0  0  0  0  0
  128.5050  127.8170   66.9570 C   0  0  0  0  0  0  0  0  0  0  0  0
  128.4310  127.6780   65.5610 C   0  0  0  0  0  0  0  0  0  0  0  0
  127.7510  128.7840   64.7470 C   0  0  0  0  0  0  0  0  0  0  0  0
  128.3750  129.0470   63.5960 F   0  0  0  0  0  0  0  0  0  0  0  0
  126.5030  128.4250   64.4520 F   0  0  0  0  0  0  0  0  0  0  0  0
  127.7270  129.9140   65.4540 F   0  0  0  0  0  0  0  0  0  0  0  0
  128.9960  126.5000   64.9930 C   0  0  0  0  0  0  0  0  0  0  0  0
  129.1120  126.0190   63.6380 C   0  0  0  0  0  0  0  0  0  0  0  0
  128.6420  126.7210   62.5570 N   0  0  0  0  0  0  0  0  0  0  0  0
  128.2100  122.0730   58.4000 C   0  0  0  0  0  0  0  0  0  0  0  0
  127.2130  122.3120   57.4400 C   0  0  0  0  0  0  0  0  0  0  0  0
  127.3040  121.9140   56.1190 O   0  0  0  0  0  0  0  0  0  0  0  0
  127.9820  122.7470   55.1830 C   0  0  0  0  0  0  0  0  0  0  0  0
  126.0490  122.9910   57.8270 C   0  0  0  0  0  0  0  0  0  0  0  0
  125.0730  123.2440   56.8950 O   0  0  0  0  0  0  0  0  0  0  0  0
  124.9090  124.6220   56.5870 C   0  0  0  0  0  0  0  0  0  0  0  0
  125.1279  124.0085   61.4581 H   0  0  0  0  0  0  0  0  0  0  0  0
  123.9091  125.2382   60.9793 H   0  0  0  0  0  0  0  0  0  0  0  0
  123.4744  123.4953   60.9793 H   0  0  0  0  0  0  0  0  0  0  0  0
  126.7716  123.5398   61.1189 H   0  0  0  0  0  0  0  0  0  0  0  0
  129.0895  121.2192   61.0820 H   0  0  0  0  0  0  0  0  0  0  0  0
  130.1052  122.4935   60.2434 H   0  0  0  0  0  0  0  0  0  0  0  0
  128.2670  123.0100   62.5110 H   0  0  0  0  0  0  0  0  0  0  0  0
  127.3449  125.8980   69.6149 H   0  0  0  0  0  0  0  0  0  0  0  0
  127.4748  126.1071   72.0885 H   0  0  0  0  0  0  0  0  0  0  0  0
  129.3983  127.2897   73.1370 H   0  0  0  0  0  0  0  0  0  0  0  0
  131.1873  128.2811   71.7158 H   0  0  0  0  0  0  0  0  0  0  0  0
  131.0585  128.0792   69.2409 H   0  0  0  0  0  0  0  0  0  0  0  0
  128.0759  128.7111   67.4329 H   0  0  0  0  0  0  0  0  0  0  0  0
  127.6930  126.6180   62.2240 H   0  0  0  0  0  0  0  0  0  0  0  0
  129.2320  127.3720   62.0570 H   0  0  0  0  0  0  0  0  0  0  0  0
  129.1277  121.5409   58.1090 H   0  0  0  0  0  0  0  0  0  0  0  0
  128.5866  123.4898   55.7240 H   0  0  0  0  0  0  0  0  0  0  0  0
  128.6380  122.1302   54.5512 H   0  0  0  0  0  0  0  0  0  0  0  0
  127.2449  123.2641   54.5512 H   0  0  0  0  0  0  0  0  0  0  0  0
  124.8401  125.2006   57.5200 H   0  0  0  0  0  0  0  0  0  0  0  0
  125.7718  124.9720   56.0013 H   0  0  0  0  0  0  0  0  0  0  0  0
  123.9881  124.7597   56.0013 H   0  0  0  0  0  0  0  0  0  0  0  0
  1  2  1  0
  2  3  1  0
  3  4  2  0
  4  5  1  0
  5  6  1  0
  6  7  1  0
  7  8  1  0
  8  9  2  0
  8 10  1  0
 10 11  1  0
 11 12  1  0
 12 13  2  0
 13 14  1  0
 14 15  1  0
 15 16  2  0
 16 17  1  0
 17 18  2  0
 18 19  1  0
 19 20  2  0
 14 21  2  0
 21 22  1  0
 22 23  1  0
 23 24  1  0
 23 25  1  0
 23 26  1  0
 22 27  2  0
 27 28  1  0
 28 29  1  0
  5 30  2  0
 30 31  1  0
 31 32  1  0
 32 33  1  0
 31 34  2  0
 34 35  1  0
 35 36  1  0
 34  3  1  0
 28 10  2  0
 27 12  1  0
 20 15  1  0
  1 37  1  0
  1 38  1  0
  1 39  1  0
  4 40  1  0
  6 41  1  0
  6 42  1  0
  7 43  1  0
 16 44  1  0
 17 45  1  0
 18 46  1  0
 19 47  1  0
 20 48  1  0
 21 49  1  0
 29 50  1  0
 29 51  1  0
 30 52  1  0
 33 53  1  0
 33 54  1  0
 33 55  1  0
 36 56  1  0
 36 57  1  0
 36 58  1  0
M  END
>  <Binding energies>  (1) 
[-8.05]

>  <Ligand effiencies>  (1) 
[-0.20641025641025643]

>  <Interactions>  (1) 
["V-B:TYR:539:CE2:9845, V-B:PRO:540:N:9853, V-B:PRO:540:CB:9854, V-B:TYR:539:CZ:9846, V-A:TYR:484:CZ:4343, V-B:PRO:540:CA:9852, H-B:TYR:539:N:9839, V-B:TYR:539:CD1:9842, V-B:ILE:538:CA:9829, V-B:TYR:539:C:9836, V-B:LEU:363:CD1:8157, V-B:ALA:541:CB:9861, V-B:ILE:538:CG2:9832, V-B:TYR:539:CE1:9844, V-B:GLU:543:CD:9877, V-A:TYR:484:CE1:4341, V-B:ILE:538:CB:9831, V-B:GLU:543:CG:9876, H-B:GLU:543:OE2:9879, V-B:MET:535:CE:9804, V-A:GLU:543:CD:4905, V-A:HIS:456:CE1:4066, V-A:GLU:543:CG:4904, V-B:GLU:543:CB:9875, V-B:PRO:540:CD:9856, V-B:TYR:531:CZ:9763, V-B:TYR:531:CE2:9762, V-B:TYR:539:CG:9841, V-B:TYR:539:CD2:9843, V-B:ASN:362:CB:8144, V-B:ASN:362:C:8140, H-B:GLU:543:OE1:9878, V-B:HIS:456:CD2:9036, V-A:GLU:543:CB:4903, V-A:GLY:544:C:4909, V-B:LYS:547:CE:9919, V-B:HIS:456:CE1:9038, H-A:GLU:543:OE2:4907, V-A:HIS:456:CD2:4064"]

$$$$
4ci_Grossjean_2025
     RDKit          3D

 39 42  0  0  0  0  0  0  0  0999 V2000
  131.6730  122.9470   60.2390 N   0  0  0  0  0  0  0  0  0  0  0  0
  130.6310  123.3280   61.0450 C   0  0  0  0  0  0  0  0  0  0  0  0
  129.2840  123.1010   60.7200 C   0  0  0  0  0  0  0  0  0  0  0  0
  128.7300  122.4400   59.5350 C   0  0  0  0  0  0  0  0  0  0  0  0
  128.3740  121.2600   59.5820 O   0  0  0  0  0  0  0  0  0  0  0  0
  128.6570  123.2060   58.4190 N   0  0  0  0  0  0  0  0  0  0  0  0
  128.1810  122.8360   57.1670 C   0  0  0  0  0  0  0  0  0  0  0  0
  128.6430  123.3990   55.9780 C   0  0  0  0  0  0  0  0  0  0  0  0
  127.9300  122.7710   54.9840 C   0  0  0  0  0  0  0  0  0  0  0  0
  127.0820  121.8750   55.5450 O   0  0  0  0  0  0  0  0  0  0  0  0
  127.2510  121.9260   56.9290 N   0  0  0  0  0  0  0  0  0  0  0  0
  128.2140  123.7090   61.9800 S   0  0  0  0  0  0  0  0  0  0  0  0
  129.5720  124.2700   62.9260 C   0  0  0  0  0  0  0  0  0  0  0  0
  129.4000  124.8760   64.0990 N   0  0  0  0  0  0  0  0  0  0  0  0
  130.5160  125.2740   64.7640 C   0  0  0  0  0  0  0  0  0  0  0  0
  130.2890  125.9590   66.0810 C   0  0  0  0  0  0  0  0  0  0  0  0
  131.0930  127.0400   66.4790 C   0  0  0  0  0  0  0  0  0  0  0  0
  130.8870  127.6800   67.6980 C   0  0  0  0  0  0  0  0  0  0  0  0
  129.8700  127.2440   68.5420 C   0  0  0  0  0  0  0  0  0  0  0  0
  129.0630  126.1740   68.1760 C   0  0  0  0  0  0  0  0  0  0  0  0
  129.2730  125.5360   66.9560 C   0  0  0  0  0  0  0  0  0  0  0  0
  131.7970  125.0770   64.2380 C   0  0  0  0  0  0  0  0  0  0  0  0
  131.9900  124.4390   63.0030 C   0  0  0  0  0  0  0  0  0  0  0  0
  133.4230  124.2550   62.4880 C   0  0  0  0  0  0  0  0  0  0  0  0
  134.3130  125.0090   63.1350 F   0  0  0  0  0  0  0  0  0  0  0  0
  133.7940  122.9840   62.6360 F   0  0  0  0  0  0  0  0  0  0  0  0
  133.4830  124.5840   61.1970 F   0  0  0  0  0  0  0  0  0  0  0  0
  130.8270  124.0060   62.3040 C   0  0  0  0  0  0  0  0  0  0  0  0
  131.6950  123.1660   59.2530 H   0  0  0  0  0  0  0  0  0  0  0  0
  132.4640  122.4370   60.6090 H   0  0  0  0  0  0  0  0  0  0  0  0
  128.9860  124.1580   58.4920 H   0  0  0  0  0  0  0  0  0  0  0  0
  129.4116  124.1772   55.8606 H   0  0  0  0  0  0  0  0  0  0  0  0
  128.0317  122.9649   53.9060 H   0  0  0  0  0  0  0  0  0  0  0  0
  131.8993  127.3868   65.8160 H   0  0  0  0  0  0  0  0  0  0  0  0
  131.5250  128.5262   67.9927 H   0  0  0  0  0  0  0  0  0  0  0  0
  129.7041  127.7496   69.5047 H   0  0  0  0  0  0  0  0  0  0  0  0
  128.2614  125.8321   68.8472 H   0  0  0  0  0  0  0  0  0  0  0  0
  128.6335  124.6872   66.6723 H   0  0  0  0  0  0  0  0  0  0  0  0
  132.6716  125.4296   64.8043 H   0  0  0  0  0  0  0  0  0  0  0  0
  1  2  1  0
  2  3  2  0
  3  4  1  0
  4  5  2  0
  4  6  1  0
  6  7  1  0
  7  8  1  0
  8  9  2  0
  9 10  1  0
 10 11  1  0
  3 12  1  0
 12 13  1  0
 13 14  2  0
 14 15  1  0
 15 16  1  0
 16 17  2  0
 17 18  1  0
 18 19  2  0
 19 20  1  0
 20 21  2  0
 15 22  2  0
 22 23  1  0
 23 24  1  0
 24 25  1  0
 24 26  1  0
 24 27  1  0
 23 28  2  0
 28  2  1  0
 11  7  2  0
 28 13  1  0
 21 16  1  0
  1 29  1  0
  1 30  1  0
  6 31  1  0
  8 32  1  0
  9 33  1  0
 17 34  1  0
 18 35  1  0
 19 36  1  0
 20 37  1  0
 21 38  1  0
 22 39  1  0
M  END
>  <Binding energies>  (1) 
[-7.51]

>  <Ligand effiencies>  (1) 
[-0.24225806451612902]

>  <Interactions>  (1) 
["V-B:TYR:539:CE2:9845, V-B:TYR:539:CZ:9846, H-B:TYR:539:N:9839, V-B:TYR:539:CD1:9842, V-B:ILE:538:CA:9829, V-B:ALA:541:CB:9861, V-B:ILE:538:CG2:9832, V-B:TYR:539:CE1:9844, V-B:GLU:543:CD:9877, V-B:ILE:538:CB:9831, V-B:GLU:543:CG:9876, V-B:MET:535:CE:9804, V-A:ARG:545:CZ:4923, V-A:GLY:454:CA:4045, V-A:GLU:543:CD:4905, V-A:ASP:366:CB:3208, V-A:HIS:456:CE1:4066, H-B:TYR:539:OH:9847, V-A:ASP:366:CG:3209, V-B:GLU:543:CB:9875, V-B:TYR:539:CD2:9843, V-A:GLU:543:CB:4903, V-A:GLY:453:C:4038, V-A:GLY:453:CA:4040"]

$$$$
4cj_Grossjean_2025
     RDKit          3D

 39 42  0  0  0  0  0  0  0  0999 V2000
  131.0370  122.2730   64.1180 N   0  0  0  0  0  0  0  0  0  0  0  0
  130.2210  123.1510   63.4510 C   0  0  0  0  0  0  0  0  0  0  0  0
  129.9680  124.4570   63.8990 C   0  0  0  0  0  0  0  0  0  0  0  0
  130.4870  125.1310   65.0910 C   0  0  0  0  0  0  0  0  0  0  0  0
  131.6550  124.9660   65.4510 O   0  0  0  0  0  0  0  0  0  0  0  0
  129.5990  125.9170   65.7490 N   0  0  0  0  0  0  0  0  0  0  0  0
  129.8350  126.6600   66.8980 C   0  0  0  0  0  0  0  0  0  0  0  0
  130.8520  127.4570   67.1490 N   0  0  0  0  0  0  0  0  0  0  0  0
  130.7530  128.0070   68.3430 C   0  0  0  0  0  0  0  0  0  0  0  0
  129.6320  127.6580   69.0910 C   0  0  0  0  0  0  0  0  0  0  0  0
  128.6610  126.5480   68.1700 S   0  0  0  0  0  0  0  0  0  0  0  0
  128.8900  125.3110   62.7960 S   0  0  0  0  0  0  0  0  0  0  0  0
  128.7850  123.9150   61.7490 C   0  0  0  0  0  0  0  0  0  0  0  0
  128.0550  123.9360   60.6370 N   0  0  0  0  0  0  0  0  0  0  0  0
  128.0400  122.8080   59.8810 C   0  0  0  0  0  0  0  0  0  0  0  0
  127.2170  122.8690   58.6260 C   0  0  0  0  0  0  0  0  0  0  0  0
  127.7010  122.3300   57.4230 C   0  0  0  0  0  0  0  0  0  0  0  0
  126.9450  122.3890   56.2550 C   0  0  0  0  0  0  0  0  0  0  0  0
  125.6910  122.9910   56.2730 C   0  0  0  0  0  0  0  0  0  0  0  0
  125.1900  123.5340   57.4510 C   0  0  0  0  0  0  0  0  0  0  0  0
  125.9480  123.4720   58.6160 C   0  0  0  0  0  0  0  0  0  0  0  0
  128.7390  121.6560   60.2590 C   0  0  0  0  0  0  0  0  0  0  0  0
  129.5110  121.6230   61.4320 C   0  0  0  0  0  0  0  0  0  0  0  0
  130.2540  120.3290   61.7850 C   0  0  0  0  0  0  0  0  0  0  0  0
  129.8290  119.2740   61.0880 F   0  0  0  0  0  0  0  0  0  0  0  0
  131.5550  120.4760   61.5350 F   0  0  0  0  0  0  0  0  0  0  0  0
  130.0840  120.0490   63.0770 F   0  0  0  0  0  0  0  0  0  0  0  0
  129.5490  122.8080   62.2210 C   0  0  0  0  0  0  0  0  0  0  0  0
  131.1310  121.3070   63.8340 H   0  0  0  0  0  0  0  0  0  0  0  0
  131.5780  122.5650   64.9200 H   0  0  0  0  0  0  0  0  0  0  0  0
  128.6620  125.9690   65.3790 H   0  0  0  0  0  0  0  0  0  0  0  0
  131.5137  128.7028   68.7268 H   0  0  0  0  0  0  0  0  0  0  0  0
  129.3983  128.0251   70.1013 H   0  0  0  0  0  0  0  0  0  0  0  0
  128.6924  121.8539   57.4030 H   0  0  0  0  0  0  0  0  0  0  0  0
  127.3382  121.9609   55.3211 H   0  0  0  0  0  0  0  0  0  0  0  0
  125.0929  123.0377   55.3510 H   0  0  0  0  0  0  0  0  0  0  0  0
  124.1986  124.0105   57.4617 H   0  0  0  0  0  0  0  0  0  0  0  0
  125.5468  123.9025   59.5454 H   0  0  0  0  0  0  0  0  0  0  0  0
  128.6827  120.7588   59.6251 H   0  0  0  0  0  0  0  0  0  0  0  0
  1  2  1  0
  2  3  2  0
  3  4  1  0
  4  5  2  0
  4  6  1  0
  6  7  1  0
  7  8  2  0
  8  9  1  0
  9 10  2  0
 10 11  1  0
  3 12  1  0
 12 13  1  0
 13 14  2  0
 14 15  1  0
 15 16  1  0
 16 17  2  0
 17 18  1  0
 18 19  2  0
 19 20  1  0
 20 21  2  0
 15 22  2  0
 22 23  1  0
 23 24  1  0
 24 25  1  0
 24 26  1  0
 24 27  1  0
 23 28  2  0
 28  2  1  0
 11  7  1  0
 28 13  1  0
 21 16  1  0
  1 29  1  0
  1 30  1  0
  6 31  1  0
  9 32  1  0
 10 33  1  0
 17 34  1  0
 18 35  1  0
 19 36  1  0
 20 37  1  0
 21 38  1  0
 22 39  1  0
M  END
>  <Binding energies>  (1) 
[-6.98]

>  <Ligand effiencies>  (1) 
[-0.22516129032258067]

>  <Interactions>  (1) 
["V-B:TYR:539:CE2:9845, V-B:PRO:540:N:9853, V-B:PRO:540:CB:9854, V-A:TYR:484:CZ:4343, V-A:LEU:475:CD1:4254, V-B:PRO:540:CA:9852, V-B:TYR:539:CD1:9842, V-B:ILE:538:CA:9829, V-B:TYR:539:C:9836, V-B:LEU:363:CD1:8157, V-B:ALA:541:CB:9861, V-B:TYR:539:CE1:9844, V-B:GLU:543:CD:9877, V-A:TYR:484:CE1:4341, V-B:ILE:538:CB:9831, V-A:LEU:475:CD2:4255, V-B:GLU:543:CG:9876, H-B:GLU:543:OE2:9879, V-A:HIS:456:CE1:4066, V-B:GLU:543:CB:9875, H-A:TYR:484:OH:4344, V-B:TYR:539:CG:9841, V-B:TYR:539:CD2:9843, H-B:GLU:543:OE1:9878, V-A:GLU:543:CB:4903, V-A:GLU:543:C:4899, V-B:HIS:456:CE1:9038, V-A:TRP:381:CH2:3368, V-A:LEU:475:CG:4253, V-A:PRO:482:CB:4322, V-A:PRO:482:CG:4323"]

$$$$
4ck_Grossjean_2025
     RDKit          3D

 57 59  0  0  0  0  0  0  0  0999 V2000
  127.7170  122.7490   56.7400 C   0  0  0  0  0  0  0  0  0  0  0  0
  126.7250  121.8570   56.2570 O   0  0  0  0  0  0  0  0  0  0  0  0
  125.4090  122.3870   56.3230 C   0  0  0  0  0  0  0  0  0  0  0  0
  125.4320  123.6850   57.1390 C   0  0  0  0  0  0  0  0  0  0  0  0
  124.6140  123.5250   58.2890 O   0  0  0  0  0  0  0  0  0  0  0  0
  124.9840  124.3700   59.3710 C   0  0  0  0  0  0  0  0  0  0  0  0
  124.7590  123.6230   60.6910 C   0  0  0  0  0  0  0  0  0  0  0  0
  125.9930  123.0600   61.1140 O   0  0  0  0  0  0  0  0  0  0  0  0
  126.9030  122.8050   60.0510 C   0  0  0  0  0  0  0  0  0  0  0  0
  128.3440  122.9950   60.5490 C   0  0  0  0  0  0  0  0  0  0  0  0
  128.4020  123.7930   61.7740 N   0  0  0  0  0  0  0  0  0  0  0  0
  129.4830  124.4530   62.2370 C   0  0  0  0  0  0  0  0  0  0  0  0
  130.5590  124.4730   61.6350 O   0  0  0  0  0  0  0  0  0  0  0  0
  129.3050  125.1650   63.5030 C   0  0  0  0  0  0  0  0  0  0  0  0
  129.8830  124.4520   65.0060 S   0  0  0  0  0  0  0  0  0  0  0  0
  129.3710  125.8530   65.9170 C   0  0  0  0  0  0  0  0  0  0  0  0
  129.5480  125.9300   67.2340 N   0  0  0  0  0  0  0  0  0  0  0  0
  129.1160  127.0580   67.8560 C   0  0  0  0  0  0  0  0  0  0  0  0
  129.3480  127.1200   69.3380 C   0  0  0  0  0  0  0  0  0  0  0  0
  130.3930  127.8930   69.8710 C   0  0  0  0  0  0  0  0  0  0  0  0
  130.6150  127.9530   71.2450 C   0  0  0  0  0  0  0  0  0  0  0  0
  129.7920  127.2390   72.1080 C   0  0  0  0  0  0  0  0  0  0  0  0
  128.7470  126.4690   71.6080 C   0  0  0  0  0  0  0  0  0  0  0  0
  128.5280  126.4130   70.2340 C   0  0  0  0  0  0  0  0  0  0  0  0
  128.5160  128.1070   67.1520 C   0  0  0  0  0  0  0  0  0  0  0  0
  128.3230  128.0360   65.7630 C   0  0  0  0  0  0  0  0  0  0  0  0
  127.6550  129.2210   65.0550 C   0  0  0  0  0  0  0  0  0  0  0  0
  128.1800  129.4780   63.8560 F   0  0  0  0  0  0  0  0  0  0  0  0
  126.3590  128.9670   64.8770 F   0  0  0  0  0  0  0  0  0  0  0  0
  127.7900  130.3220   65.7940 F   0  0  0  0  0  0  0  0  0  0  0  0
  128.7700  126.8570   65.1010 C   0  0  0  0  0  0  0  0  0  0  0  0
  128.7530  126.4370   63.7200 C   0  0  0  0  0  0  0  0  0  0  0  0
  128.2390  127.2140   62.7140 N   0  0  0  0  0  0  0  0  0  0  0  0
  127.7108  122.7435   57.8400 H   0  0  0  0  0  0  0  0  0  0  0  0
  128.7052  122.4297   56.3773 H   0  0  0  0  0  0  0  0  0  0  0  0
  127.5041  123.7654   56.3773 H   0  0  0  0  0  0  0  0  0  0  0  0
  125.0450  122.5972   55.3065 H   0  0  0  0  0  0  0  0  0  0  0  0
  124.7395  121.6585   56.8037 H   0  0  0  0  0  0  0  0  0  0  0  0
  126.4638  123.9072   57.4488 H   0  0  0  0  0  0  0  0  0  0  0  0
  125.0514  124.5152   56.5259 H   0  0  0  0  0  0  0  0  0  0  0  0
  126.0456  124.6431   59.2787 H   0  0  0  0  0  0  0  0  0  0  0  0
  124.3719  125.2838   59.3535 H   0  0  0  0  0  0  0  0  0  0  0  0
  124.3913  124.3242   61.4547 H   0  0  0  0  0  0  0  0  0  0  0  0
  124.0141  122.8264   60.5476 H   0  0  0  0  0  0  0  0  0  0  0  0
  126.7715  121.7721   59.6964 H   0  0  0  0  0  0  0  0  0  0  0  0
  126.7064  123.5055   59.2260 H   0  0  0  0  0  0  0  0  0  0  0  0
  128.7837  122.0066   60.7484 H   0  0  0  0  0  0  0  0  0  0  0  0
  128.9043  123.5309   59.7687 H   0  0  0  0  0  0  0  0  0  0  0  0
  127.5310  123.8970   62.2760 H   0  0  0  0  0  0  0  0  0  0  0  0
  131.0468  128.4603   69.1922 H   0  0  0  0  0  0  0  0  0  0  0  0
  131.4382  128.5629   71.6453 H   0  0  0  0  0  0  0  0  0  0  0  0
  129.9681  127.2831   73.1929 H   0  0  0  0  0  0  0  0  0  0  0  0
  128.0968  125.9071   72.2947 H   0  0  0  0  0  0  0  0  0  0  0  0
  127.6989  125.8049   69.8432 H   0  0  0  0  0  0  0  0  0  0  0  0
  128.1890  129.0049   67.6969 H   0  0  0  0  0  0  0  0  0  0  0  0
  127.3400  127.0230   62.2950 H   0  0  0  0  0  0  0  0  0  0  0  0
  128.7450  128.0140   62.3570 H   0  0  0  0  0  0  0  0  0  0  0  0
  1  2  1  0
  2  3  1  0
  3  4  1  0
  4  5  1  0
  5  6  1  0
  6  7  1  0
  7  8  1  0
  8  9  1  0
  9 10  1  0
 10 11  1  0
 11 12  1  0
 12 13  2  0
 12 14  1  0
 14 15  1  0
 15 16  1  0
 16 17  2  0
 17 18  1  0
 18 19  1  0
 19 20  2  0
 20 21  1  0
 21 22  2  0
 22 23  1  0
 23 24  2  0
 18 25  2  0
 25 26  1  0
 26 27  1  0
 27 28  1  0
 27 29  1  0
 27 30  1  0
 26 31  2  0
 31 32  1  0
 32 33  1  0
 32 14  2  0
 31 16  1  0
 24 19  1  0
  1 34  1  0
  1 35  1  0
  1 36  1  0
  3 37  1  0
  3 38  1  0
  4 39  1  0
  4 40  1  0
  6 41  1  0
  6 42  1  0
  7 43  1  0
  7 44  1  0
  9 45  1  0
  9 46  1  0
 10 47  1  0
 10 48  1  0
 11 49  1  0
 20 50  1  0
 21 51  1  0
 22 52  1  0
 23 53  1  0
 24 54  1  0
 25 55  1  0
 33 56  1  0
 33 57  1  0
M  END
>  <Binding energies>  (1) 
[-6.96]

>  <Ligand effiencies>  (1) 
[-0.19333333333333333]

>  <Interactions>  (1) 
["V-B:PRO:540:N:9853, V-B:PRO:540:CB:9854, H-B:ALA:541:N:9860, V-B:PRO:540:CA:9852, H-B:TYR:539:N:9839, V-B:TYR:539:CD1:9842, V-B:PRO:540:C:9850, V-B:LEU:363:CD1:8157, V-B:ALA:541:CB:9861, V-B:ILE:538:CG2:9832, V-B:TYR:539:CE1:9844, V-B:GLU:543:CD:9877, V-B:ILE:538:CB:9831, V-B:GLU:543:CG:9876, H-B:GLU:543:OE2:9879, V-A:GLU:543:CD:4905, V-A:HIS:456:CE1:4066, V-A:GLU:543:CG:4904, V-B:GLU:543:CB:9875, V-B:PRO:540:CD:9856, H-B:GLU:543:OE1:9878, V-A:GLU:543:CB:4903, V-A:GLU:543:C:4899, V-A:GLY:544:C:4909, V-B:LYS:547:CE:9919, V-B:HIS:456:CE1:9038, H-A:GLU:543:OE2:4907, V-B:PRO:540:CG:9855, V-B:TYR:484:CE1:9313, V-A:HIS:456:CD2:4064"]

$$$$
4dd_Grossjean_2025
     RDKit          3D

 43 46  0  0  0  0  0  0  0  0999 V2000
  130.2460  120.2800   61.8820 C   0  0  0  0  0  0  0  0  0  0  0  0
  129.5460  121.5760   61.5010 C   0  0  0  0  0  0  0  0  0  0  0  0
  128.8410  121.6150   60.2920 C   0  0  0  0  0  0  0  0  0  0  0  0
  128.1760  122.7780   59.8850 C   0  0  0  0  0  0  0  0  0  0  0  0
  127.4180  122.8510   58.5920 C   0  0  0  0  0  0  0  0  0  0  0  0
  127.9710  122.3480   57.4040 C   0  0  0  0  0  0  0  0  0  0  0  0
  127.2720  122.4090   56.2010 C   0  0  0  0  0  0  0  0  0  0  0  0
  126.0040  122.9790   56.1700 C   0  0  0  0  0  0  0  0  0  0  0  0
  125.4300  123.4830   57.3320 C   0  0  0  0  0  0  0  0  0  0  0  0
  126.1320  123.4170   58.5330 C   0  0  0  0  0  0  0  0  0  0  0  0
  128.1940  123.9160   60.6320 N   0  0  0  0  0  0  0  0  0  0  0  0
  128.8590  123.8770   61.7860 C   0  0  0  0  0  0  0  0  0  0  0  0
  128.9480  125.2610   62.8520 S   0  0  0  0  0  0  0  0  0  0  0  0
  129.9280  124.3630   64.0130 C   0  0  0  0  0  0  0  0  0  0  0  0
  130.3720  124.9970   65.2560 C   0  0  0  0  0  0  0  0  0  0  0  0
  131.5560  124.9560   65.5940 O   0  0  0  0  0  0  0  0  0  0  0  0
  129.4010  125.6180   65.9700 N   0  0  0  0  0  0  0  0  0  0  0  0
  129.4800  126.2670   67.2150 C   0  0  0  0  0  0  0  0  0  0  0  0
  130.4490  127.2690   67.3220 C   0  0  0  0  0  0  0  0  0  0  0  0
  130.5970  127.9800   68.5100 C   0  0  0  0  0  0  0  0  0  0  0  0
  129.7680  127.6940   69.5920 C   0  0  0  0  0  0  0  0  0  0  0  0
  128.7910  126.7080   69.4960 C   0  0  0  0  0  0  0  0  0  0  0  0
  128.6410  125.9950   68.3090 C   0  0  0  0  0  0  0  0  0  0  0  0
  130.1660  123.0540   63.5670 C   0  0  0  0  0  0  0  0  0  0  0  0
  130.9040  122.1310   64.2660 N   0  0  0  0  0  0  0  0  0  0  0  0
  129.5620  122.7500   62.2970 C   0  0  0  0  0  0  0  0  0  0  0  0
  130.2913  120.1962   62.9779 H   0  0  0  0  0  0  0  0  0  0  0  0
  129.6862  119.4266   61.4718 H   0  0  0  0  0  0  0  0  0  0  0  0
  131.2667  120.2802   61.4718 H   0  0  0  0  0  0  0  0  0  0  0  0
  128.8091  120.7200   59.6533 H   0  0  0  0  0  0  0  0  0  0  0  0
  128.9744  121.8976   57.4235 H   0  0  0  0  0  0  0  0  0  0  0  0
  127.7206  122.0083   55.2800 H   0  0  0  0  0  0  0  0  0  0  0  0
  125.4515  123.0315   55.2203 H   0  0  0  0  0  0  0  0  0  0  0  0
  124.4261  123.9317   57.3027 H   0  0  0  0  0  0  0  0  0  0  0  0
  125.6731  123.8141   59.4504 H   0  0  0  0  0  0  0  0  0  0  0  0
  128.4830  125.6330   65.5500 H   0  0  0  0  0  0  0  0  0  0  0  0
  131.0978  127.4969   66.4634 H   0  0  0  0  0  0  0  0  0  0  0  0
  131.3646  128.7634   68.5935 H   0  0  0  0  0  0  0  0  0  0  0  0
  129.8868  128.2532   70.5318 H   0  0  0  0  0  0  0  0  0  0  0  0
  128.1389  126.4922   70.3552 H   0  0  0  0  0  0  0  0  0  0  0  0
  127.8657  125.2189   68.2279 H   0  0  0  0  0  0  0  0  0  0  0  0
  131.3690  122.3650   65.1320 H   0  0  0  0  0  0  0  0  0  0  0  0
  131.0040  121.1810   63.9370 H   0  0  0  0  0  0  0  0  0  0  0  0
  1  2  1  0
  2  3  2  0
  3  4  1  0
  4  5  1  0
  5  6  2  0
  6  7  1  0
  7  8  2  0
  8  9  1  0
  9 10  2  0
  4 11  2  0
 11 12  1  0
 12 13  1  0
 13 14  1  0
 14 15  1  0
 15 16  2  0
 15 17  1  0
 17 18  1  0
 18 19  2  0
 19 20  1  0
 20 21  2  0
 21 22  1  0
 22 23  2  0
 14 24  2  0
 24 25  1  0
 24 26  1  0
 26  2  1  0
 10  5  1  0
 26 12  2  0
 23 18  1  0
  1 27  1  0
  1 28  1  0
  1 29  1  0
  3 30  1  0
  6 31  1  0
  7 32  1  0
  8 33  1  0
  9 34  1  0
 10 35  1  0
 17 36  1  0
 19 37  1  0
 20 38  1  0
 21 39  1  0
 22 40  1  0
 23 41  1  0
 25 42  1  0
 25 43  1  0
M  END
>  <Binding energies>  (1) 
[-8.09]

>  <Ligand effiencies>  (1) 
[-0.2789655172413793]

>  <Interactions>  (1) 
["V-B:TYR:539:CE2:9845, V-B:PRO:540:N:9853, V-B:PRO:540:CB:9854, V-B:TYR:539:CZ:9846, V-A:TYR:484:CZ:4343, V-A:LEU:475:CD1:4254, V-B:PRO:540:CA:9852, V-B:TYR:539:CD1:9842, V-B:ILE:538:CA:9829, V-B:TYR:539:C:9836, V-B:LEU:363:CD1:8157, V-B:ALA:541:CB:9861, V-B:ILE:538:CG2:9832, V-B:TYR:539:CE1:9844, V-B:GLU:543:CD:9877, V-A:TYR:484:CE1:4341, V-B:ILE:538:CB:9831, V-A:LEU:475:CD2:4255, V-B:GLU:543:CG:9876, H-B:GLU:543:OE2:9879, V-A:HIS:456:CE1:4066, V-B:GLU:543:CB:9875, H-A:TYR:484:OH:4344, V-B:TYR:539:CG:9841, V-B:TYR:539:CD2:9843, H-B:GLU:543:OE1:9878, V-A:GLU:543:CB:4903, V-A:GLU:543:C:4899, V-B:HIS:456:CE1:9038, V-B:GLU:543:C:9871, V-A:LEU:475:CG:4253"]

$$$$
4dg_Grossjean_2025
     RDKit          3D

 46 49  0  0  0  0  0  0  0  0999 V2000
  132.1250  128.6220   68.6320 C   0  0  0  0  0  0  0  0  0  0  0  0
  130.9320  127.7200   68.3520 C   0  0  0  0  0  0  0  0  0  0  0  0
  130.7860  127.2010   67.0610 C   0  0  0  0  0  0  0  0  0  0  0  0
  129.7100  126.3650   66.7390 C   0  0  0  0  0  0  0  0  0  0  0  0
  129.5270  125.7920   65.3610 C   0  0  0  0  0  0  0  0  0  0  0  0
  129.7570  124.4290   65.1110 C   0  0  0  0  0  0  0  0  0  0  0  0
  129.5930  123.8940   63.8360 C   0  0  0  0  0  0  0  0  0  0  0  0
  129.1950  124.7160   62.7880 C   0  0  0  0  0  0  0  0  0  0  0  0
  128.9640  126.0710   63.0060 C   0  0  0  0  0  0  0  0  0  0  0  0
  129.1300  126.6020   64.2820 C   0  0  0  0  0  0  0  0  0  0  0  0
  128.7770  126.0070   67.6620 N   0  0  0  0  0  0  0  0  0  0  0  0
  128.9150  126.5010   68.8930 C   0  0  0  0  0  0  0  0  0  0  0  0
  127.7840  126.1270   70.1720 S   0  0  0  0  0  0  0  0  0  0  0  0
  128.6850  127.1190   71.3180 C   0  0  0  0  0  0  0  0  0  0  0  0
  128.2030  127.2790   72.6890 C   0  0  0  0  0  0  0  0  0  0  0  0
  128.9770  127.5140   73.6180 O   0  0  0  0  0  0  0  0  0  0  0  0
  126.8760  127.1160   72.8690 N   0  0  0  0  0  0  0  0  0  0  0  0
  126.1720  127.2510   74.1440 C   0  0  0  0  0  0  0  0  0  0  0  0
  125.8700  128.6980   74.5190 C   0  0  0  0  0  0  0  0  0  0  0  0
  126.8140  129.6950   74.2530 C   0  0  0  0  0  0  0  0  0  0  0  0
  126.5290  131.0210   74.5650 C   0  0  0  0  0  0  0  0  0  0  0  0
  125.2980  131.3490   75.1300 C   0  0  0  0  0  0  0  0  0  0  0  0
  124.3470  130.3630   75.3820 C   0  0  0  0  0  0  0  0  0  0  0  0
  124.6310  129.0360   75.0690 C   0  0  0  0  0  0  0  0  0  0  0  0
  129.7990  127.7160   70.7090 C   0  0  0  0  0  0  0  0  0  0  0  0
  130.6700  128.5500   71.3630 N   0  0  0  0  0  0  0  0  0  0  0  0
  129.9590  127.3670   69.3230 C   0  0  0  0  0  0  0  0  0  0  0  0
  132.2603  128.7243   69.7189 H   0  0  0  0  0  0  0  0  0  0  0  0
  133.0303  128.1805   68.1898 H   0  0  0  0  0  0  0  0  0  0  0  0
  131.9469  129.6133   68.1898 H   0  0  0  0  0  0  0  0  0  0  0  0
  131.5269  127.4533   66.2881 H   0  0  0  0  0  0  0  0  0  0  0  0
  130.0719  123.7734   65.9362 H   0  0  0  0  0  0  0  0  0  0  0  0
  129.7778  122.8242   63.6586 H   0  0  0  0  0  0  0  0  0  0  0  0
  129.0620  124.2933   61.7812 H   0  0  0  0  0  0  0  0  0  0  0  0
  128.6517  126.7192   62.1740 H   0  0  0  0  0  0  0  0  0  0  0  0
  128.9475  127.6738   64.4493 H   0  0  0  0  0  0  0  0  0  0  0  0
  126.2940  127.0030   72.0520 H   0  0  0  0  0  0  0  0  0  0  0  0
  125.2209  126.7024   74.0769 H   0  0  0  0  0  0  0  0  0  0  0  0
  126.8324  126.8445   74.9241 H   0  0  0  0  0  0  0  0  0  0  0  0
  127.7802  129.4315   73.7979 H   0  0  0  0  0  0  0  0  0  0  0  0
  127.2724  131.8071   74.3664 H   0  0  0  0  0  0  0  0  0  0  0  0
  125.0752  132.3969   75.3794 H   0  0  0  0  0  0  0  0  0  0  0  0
  123.3769  130.6310   75.8258 H   0  0  0  0  0  0  0  0  0  0  0  0
  123.8799  128.2541   75.2548 H   0  0  0  0  0  0  0  0  0  0  0  0
  130.5910  129.5550   71.3060 H   0  0  0  0  0  0  0  0  0  0  0  0
  131.4200  128.1830   71.9320 H   0  0  0  0  0  0  0  0  0  0  0  0
  1  2  1  0
  2  3  2  0
  3  4  1  0
  4  5  1  0
  5  6  2  0
  6  7  1  0
  7  8  2  0
  8  9  1  0
  9 10  2  0
  4 11  2  0
 11 12  1  0
 12 13  1  0
 13 14  1  0
 14 15  1  0
 15 16  2  0
 15 17  1  0
 17 18  1  0
 18 19  1  0
 19 20  2  0
 20 21  1  0
 21 22  2  0
 22 23  1  0
 23 24  2  0
 14 25  2  0
 25 26  1  0
 25 27  1  0
 27  2  1  0
 10  5  1  0
 27 12  2  0
 24 19  1  0
  1 28  1  0
  1 29  1  0
  1 30  1  0
  3 31  1  0
  6 32  1  0
  7 33  1  0
  8 34  1  0
  9 35  1  0
 10 36  1  0
 17 37  1  0
 18 38  1  0
 18 39  1  0
 20 40  1  0
 21 41  1  0
 22 42  1  0
 23 43  1  0
 24 44  1  0
 26 45  1  0
 26 46  1  0
M  END
>  <Binding energies>  (1) 
[-8.12]

>  <Ligand effiencies>  (1) 
[-0.27066666666666667]

>  <Interactions>  (1) 
["V-B:GLU:543:CD:9877, V-A:TYR:484:CE1:4341, V-B:GLU:543:CG:9876, V-A:GLU:543:CD:4905, V-A:HIS:456:CE1:4066, V-B:GLU:543:CB:9875, V-B:HIS:456:CD2:9036, V-B:GLY:544:CA:9883, V-A:GLU:543:CB:4903, V-A:GLU:543:C:4899, H-A:LYS:547:NZ:4948, V-A:GLY:544:C:4909, V-B:LYS:547:CE:9919, V-B:HIS:456:CB:9033, V-B:HIS:456:CE1:9038, V-B:GLY:544:C:9881, V-B:LYS:547:CD:9918, V-A:ARG:545:CG:4919, V-B:GLU:543:C:9871, H-B:HIS:456:NE2:9039, V-A:ARG:545:CB:4918, V-A:ARG:545:CA:4916, H-A:GLY:544:O:4910, H-A:GLU:543:O:4900, V-A:GLU:543:CA:4901, V-A:GLY:544:CA:4911, V-B:HIS:456:CG:9034, V-B:ASP:473:CG:9208, V-B:HIS:456:C:9029, V-B:ASP:473:CB:9207, V-B:VAL:457:C:9041, V-B:LYS:471:CE:9188, V-B:VAL:458:CG2:9055, V-B:VAL:457:CA:9043, V-B:LYS:547:CG:9917, V-B:HIS:456:CA:9031, H-B:GLY:544:O:9882"]

$$$$
4dj_Grossjean_2025
     RDKit          3D

 39 42  0  0  0  0  0  0  0  0999 V2000
  130.2620  120.3390   61.8940 C   0  0  0  0  0  0  0  0  0  0  0  0
  129.5590  121.6280   61.5000 C   0  0  0  0  0  0  0  0  0  0  0  0
  128.8390  121.6470   60.3000 C   0  0  0  0  0  0  0  0  0  0  0  0
  128.1700  122.8040   59.8790 C   0  0  0  0  0  0  0  0  0  0  0  0
  127.3850  122.8520   58.5990 C   0  0  0  0  0  0  0  0  0  0  0  0
  126.0920  123.3980   58.5670 C   0  0  0  0  0  0  0  0  0  0  0  0
  125.3590  123.4450   57.3850 C   0  0  0  0  0  0  0  0  0  0  0  0
  125.9100  122.9400   56.2110 C   0  0  0  0  0  0  0  0  0  0  0  0
  127.1870  122.3900   56.2140 C   0  0  0  0  0  0  0  0  0  0  0  0
  127.9160  122.3460   57.3990 C   0  0  0  0  0  0  0  0  0  0  0  0
  128.1760  123.9460   60.6190 N   0  0  0  0  0  0  0  0  0  0  0  0
  128.8620  123.9300   61.7610 C   0  0  0  0  0  0  0  0  0  0  0  0
  128.9590  125.3300   62.8050 S   0  0  0  0  0  0  0  0  0  0  0  0
  129.9690  124.4570   63.9600 C   0  0  0  0  0  0  0  0  0  0  0  0
  130.4520  125.1220   65.1710 C   0  0  0  0  0  0  0  0  0  0  0  0
  131.6070  124.9480   65.5680 O   0  0  0  0  0  0  0  0  0  0  0  0
  129.5490  125.9120   65.8030 N   0  0  0  0  0  0  0  0  0  0  0  0
  129.7490  126.6460   66.9630 C   0  0  0  0  0  0  0  0  0  0  0  0
  130.7350  127.4750   67.2350 N   0  0  0  0  0  0  0  0  0  0  0  0
  130.6070  128.0020   68.4370 C   0  0  0  0  0  0  0  0  0  0  0  0
  129.4940  127.6030   69.1700 C   0  0  0  0  0  0  0  0  0  0  0  0
  128.5710  126.4730   68.2240 S   0  0  0  0  0  0  0  0  0  0  0  0
  130.2080  123.1430   63.5300 C   0  0  0  0  0  0  0  0  0  0  0  0
  130.9650  122.2370   64.2300 N   0  0  0  0  0  0  0  0  0  0  0  0
  129.5830  122.8150   62.2770 C   0  0  0  0  0  0  0  0  0  0  0  0
  130.3029  120.2641   62.9907 H   0  0  0  0  0  0  0  0  0  0  0  0
  129.7074  119.4801   61.4882 H   0  0  0  0  0  0  0  0  0  0  0  0
  131.2844  120.3401   61.4882 H   0  0  0  0  0  0  0  0  0  0  0  0
  128.7977  120.7405   59.6783 H   0  0  0  0  0  0  0  0  0  0  0  0
  125.6505  123.7957   59.4927 H   0  0  0  0  0  0  0  0  0  0  0  0
  124.3484  123.8794   57.3786 H   0  0  0  0  0  0  0  0  0  0  0  0
  125.3321  122.9762   55.2757 H   0  0  0  0  0  0  0  0  0  0  0  0
  127.6192  121.9915   55.2843 H   0  0  0  0  0  0  0  0  0  0  0  0
  128.9250  121.9078   57.3968 H   0  0  0  0  0  0  0  0  0  0  0  0
  128.6260  125.9770   65.3970 H   0  0  0  0  0  0  0  0  0  0  0  0
  131.3399  128.7176   68.8380 H   0  0  0  0  0  0  0  0  0  0  0  0
  129.2392  127.9465   70.1834 H   0  0  0  0  0  0  0  0  0  0  0  0
  131.0690  121.2810   63.9260 H   0  0  0  0  0  0  0  0  0  0  0  0
  131.4460  122.5010   65.0790 H   0  0  0  0  0  0  0  0  0  0  0  0
  1  2  1  0
  2  3  2  0
  3  4  1  0
  4  5  1  0
  5  6  2  0
  6  7  1  0
  7  8  2  0
  8  9  1  0
  9 10  2  0
  4 11  2  0
 11 12  1  0
 12 13  1  0
 13 14  1  0
 14 15  1  0
 15 16  2  0
 15 17  1  0
 17 18  1  0
 18 19  2  0
 19 20  1  0
 20 21  2  0
 21 22  1  0
 14 23  2  0
 23 24  1  0
 23 25  1  0
 25  2  1  0
 10  5  1  0
 25 12  2  0
 22 18  1  0
  1 26  1  0
  1 27  1  0
  1 28  1  0
  3 29  1  0
  6 30  1  0
  7 31  1  0
  8 32  1  0
  9 33  1  0
 10 34  1  0
 17 35  1  0
 20 36  1  0
 21 37  1  0
 24 38  1  0
 24 39  1  0
M  END
>  <Binding energies>  (1) 
[-7.37]

>  <Ligand effiencies>  (1) 
[-0.26321428571428573]

>  <Interactions>  (1) 
["V-B:TYR:539:CE2:9845, V-B:PRO:540:N:9853, V-B:PRO:540:CB:9854, V-B:TYR:539:CZ:9846, V-A:TYR:484:CZ:4343, V-A:LEU:475:CD1:4254, V-B:PRO:540:CA:9852, V-B:TYR:539:CD1:9842, V-B:ILE:538:CA:9829, V-B:TYR:539:C:9836, V-B:LEU:363:CD1:8157, V-B:ALA:541:CB:9861, V-B:ILE:538:CG2:9832, V-B:TYR:539:CE1:9844, V-B:GLU:543:CD:9877, V-A:TYR:484:CE1:4341, V-B:ILE:538:CB:9831, V-A:LEU:475:CD2:4255, V-B:GLU:543:CG:9876, H-B:GLU:543:OE2:9879, V-A:HIS:456:CE1:4066, V-B:GLU:543:CB:9875, H-A:TYR:484:OH:4344, V-B:TYR:539:CG:9841, V-B:TYR:539:CD2:9843, H-B:GLU:543:OE1:9878, V-A:GLU:543:CB:4903, V-A:GLU:543:C:4899, V-B:HIS:456:CE1:9038, V-A:LEU:475:CG:4253"]

$$$$
4ea_Grossjean_2025
     RDKit          3D

 52 55  0  0  0  0  0  0  0  0999 V2000
  129.8050  123.3820   53.7670 C   0  0  0  0  0  0  0  0  0  0  0  0
  128.5060  122.7340   54.2540 C   0  0  0  0  0  0  0  0  0  0  0  0
  128.0980  123.3500   55.4690 O   0  0  0  0  0  0  0  0  0  0  0  0
  127.4740  122.6370   56.4420 C   0  0  0  0  0  0  0  0  0  0  0  0
  126.7980  121.6280   56.2190 O   0  0  0  0  0  0  0  0  0  0  0  0
  127.6890  123.1990   57.8180 C   0  0  0  0  0  0  0  0  0  0  0  0
  128.6300  124.2210   57.9990 C   0  0  0  0  0  0  0  0  0  0  0  0
  128.8530  124.7630   59.2620 C   0  0  0  0  0  0  0  0  0  0  0  0
  128.1420  124.2960   60.3680 C   0  0  0  0  0  0  0  0  0  0  0  0
  128.4500  124.9180   61.5930 N   0  0  0  0  0  0  0  0  0  0  0  0
  129.6350  125.0460   62.2400 C   0  0  0  0  0  0  0  0  0  0  0  0
  130.7050  124.6040   61.8210 O   0  0  0  0  0  0  0  0  0  0  0  0
  129.5750  125.7670   63.5140 C   0  0  0  0  0  0  0  0  0  0  0  0
  130.6750  125.3470   64.8300 S   0  0  0  0  0  0  0  0  0  0  0  0
  129.9850  126.5760   65.8650 C   0  0  0  0  0  0  0  0  0  0  0  0
  130.4240  126.7790   67.1080 N   0  0  0  0  0  0  0  0  0  0  0  0
  129.8050  127.7630   67.8050 C   0  0  0  0  0  0  0  0  0  0  0  0
  130.3200  127.9780   69.2160 C   0  0  0  0  0  0  0  0  0  0  0  0
  128.7670  128.5390   67.2940 C   0  0  0  0  0  0  0  0  0  0  0  0
  128.3080  128.3220   65.9910 C   0  0  0  0  0  0  0  0  0  0  0  0
  127.2050  129.1550   65.4620 C   0  0  0  0  0  0  0  0  0  0  0  0
  127.4850  130.3480   64.7890 C   0  0  0  0  0  0  0  0  0  0  0  0
  126.4470  131.1310   64.2900 C   0  0  0  0  0  0  0  0  0  0  0  0
  125.1280  130.7220   64.4670 C   0  0  0  0  0  0  0  0  0  0  0  0
  124.8370  129.5370   65.1400 C   0  0  0  0  0  0  0  0  0  0  0  0
  125.8760  128.7560   65.6390 C   0  0  0  0  0  0  0  0  0  0  0  0
  128.9330  127.2990   65.2250 C   0  0  0  0  0  0  0  0  0  0  0  0
  128.7200  126.8170   63.8850 C   0  0  0  0  0  0  0  0  0  0  0  0
  127.7630  127.3480   63.0590 N   0  0  0  0  0  0  0  0  0  0  0  0
  127.1970  123.2720   60.1960 C   0  0  0  0  0  0  0  0  0  0  0  0
  126.9760  122.7320   58.9320 C   0  0  0  0  0  0  0  0  0  0  0  0
  130.4112  123.6844   54.6336 H   0  0  0  0  0  0  0  0  0  0  0  0
  130.3694  122.6599   53.1588 H   0  0  0  0  0  0  0  0  0  0  0  0
  129.5676  124.2673   53.1588 H   0  0  0  0  0  0  0  0  0  0  0  0
  127.7221  122.8668   53.4938 H   0  0  0  0  0  0  0  0  0  0  0  0
  128.6722  121.6600   54.4241 H   0  0  0  0  0  0  0  0  0  0  0  0
  129.1976  124.5986   57.1357 H   0  0  0  0  0  0  0  0  0  0  0  0
  129.5950  125.5651   59.3888 H   0  0  0  0  0  0  0  0  0  0  0  0
  127.6530  125.3300   62.0550 H   0  0  0  0  0  0  0  0  0  0  0  0
  129.5545  127.6584   69.9384 H   0  0  0  0  0  0  0  0  0  0  0  0
  131.2354  127.3869   69.3662 H   0  0  0  0  0  0  0  0  0  0  0  0
  130.5434  129.0445   69.3662 H   0  0  0  0  0  0  0  0  0  0  0  0
  128.3085  129.3223   67.9154 H   0  0  0  0  0  0  0  0  0  0  0  0
  128.5283  130.6692   64.6532 H   0  0  0  0  0  0  0  0  0  0  0  0
  126.6682  132.0683   63.7585 H   0  0  0  0  0  0  0  0  0  0  0  0
  124.3081  131.3399   64.0720 H   0  0  0  0  0  0  0  0  0  0  0  0
  123.7924  129.2204   65.2762 H   0  0  0  0  0  0  0  0  0  0  0  0
  125.6510  127.8218   66.1744 H   0  0  0  0  0  0  0  0  0  0  0  0
  126.8870  126.8750   62.8840 H   0  0  0  0  0  0  0  0  0  0  0  0
  127.9020  128.2360   62.5960 H   0  0  0  0  0  0  0  0  0  0  0  0
  126.6307  122.8960   61.0608 H   0  0  0  0  0  0  0  0  0  0  0  0
  126.2338  121.9300   58.8055 H   0  0  0  0  0  0  0  0  0  0  0  0
  1  2  1  0
  2  3  1  0
  3  4  1  0
  4  5  2  0
  4  6  1  0
  6  7  2  0
  7  8  1  0
  8  9  2  0
  9 10  1  0
 10 11  1  0
 11 12  2  0
 11 13  1  0
 13 14  1  0
 14 15  1  0
 15 16  2  0
 16 17  1  0
 17 18  1  0
 17 19  2  0
 19 20  1  0
 20 21  1  0
 21 22  2  0
 22 23  1  0
 23 24  2  0
 24 25  1  0
 25 26  2  0
 20 27  2  0
 27 28  1  0
 28 29  1  0
  9 30  1  0
 30 31  2  0
 31  6  1  0
 28 13  2  0
 27 15  1  0
 26 21  1  0
  1 32  1  0
  1 33  1  0
  1 34  1  0
  2 35  1  0
  2 36  1  0
  7 37  1  0
  8 38  1  0
 10 39  1  0
 18 40  1  0
 18 41  1  0
 18 42  1  0
 19 43  1  0
 22 44  1  0
 23 45  1  0
 24 46  1  0
 25 47  1  0
 26 48  1  0
 29 49  1  0
 29 50  1  0
 30 51  1  0
 31 52  1  0
M  END
>  <Binding energies>  (1) 
[-8.61]

>  <Ligand effiencies>  (1) 
[-0.25323529411764706]

>  <Interactions>  (1) 
["V-B:PRO:540:N:9853, V-B:PRO:540:CB:9854, V-B:PRO:540:CA:9852, H-B:TYR:539:N:9839, V-B:TYR:539:CD1:9842, V-B:ILE:538:CA:9829, V-B:TYR:539:C:9836, V-B:ILE:538:CG2:9832, V-B:TYR:539:CE1:9844, V-B:GLU:543:CD:9877, V-B:ILE:538:CB:9831, H-B:GLU:543:OE2:9879, V-B:MET:535:CE:9804, V-A:GLU:543:CD:4905, V-A:HIS:456:CE1:4066, V-A:GLU:543:CG:4904, H-B:GLU:543:OE1:9878, V-A:GLU:543:CB:4903, V-A:GLU:543:C:4899, V-B:HIS:456:CE1:9038, V-B:ARG:545:CZ:9895, H-A:GLU:543:OE2:4907"]

$$$$
4eb_Grossjean_2025
     RDKit          3D

 49 52  0  0  0  0  0  0  0  0999 V2000
  128.2580  122.7150   54.6920 C   0  0  0  0  0  0  0  0  0  0  0  0
  127.9970  121.8780   55.8080 O   0  0  0  0  0  0  0  0  0  0  0  0
  126.8760  122.0420   56.5580 C   0  0  0  0  0  0  0  0  0  0  0  0
  125.7650  121.6220   56.2200 O   0  0  0  0  0  0  0  0  0  0  0  0
  127.1220  122.7860   57.8380 C   0  0  0  0  0  0  0  0  0  0  0  0
  128.4400  123.0180   58.2520 C   0  0  0  0  0  0  0  0  0  0  0  0
  128.7020  123.7040   59.4340 C   0  0  0  0  0  0  0  0  0  0  0  0
  127.6530  124.1740   60.2260 C   0  0  0  0  0  0  0  0  0  0  0  0
  128.0360  124.8540   61.3990 N   0  0  0  0  0  0  0  0  0  0  0  0
  129.2330  125.3780   61.7580 C   0  0  0  0  0  0  0  0  0  0  0  0
  130.2470  125.3360   61.0600 O   0  0  0  0  0  0  0  0  0  0  0  0
  129.2630  126.0240   63.0730 C   0  0  0  0  0  0  0  0  0  0  0  0
  130.5180  125.6100   64.2430 S   0  0  0  0  0  0  0  0  0  0  0  0
  129.8650  126.7330   65.4140 C   0  0  0  0  0  0  0  0  0  0  0  0
  130.4200  126.8990   66.6160 N   0  0  0  0  0  0  0  0  0  0  0  0
  129.8180  127.7990   67.4300 C   0  0  0  0  0  0  0  0  0  0  0  0
  130.4650  127.9730   68.7920 C   0  0  0  0  0  0  0  0  0  0  0  0
  128.6860  128.5300   67.0760 C   0  0  0  0  0  0  0  0  0  0  0  0
  128.1070  128.3520   65.8130 C   0  0  0  0  0  0  0  0  0  0  0  0
  126.9040  129.1350   65.4510 C   0  0  0  0  0  0  0  0  0  0  0  0
  125.6460  128.7480   65.9210 C   0  0  0  0  0  0  0  0  0  0  0  0
  124.5140  129.4860   65.5820 C   0  0  0  0  0  0  0  0  0  0  0  0
  124.6410  130.6100   64.7690 C   0  0  0  0  0  0  0  0  0  0  0  0
  125.8910  131.0020   64.2930 C   0  0  0  0  0  0  0  0  0  0  0  0
  127.0210  130.2630   64.6330 C   0  0  0  0  0  0  0  0  0  0  0  0
  128.7100  127.4160   64.9290 C   0  0  0  0  0  0  0  0  0  0  0  0
  128.3890  126.9920   63.5920 C   0  0  0  0  0  0  0  0  0  0  0  0
  127.3190  127.5010   62.8990 N   0  0  0  0  0  0  0  0  0  0  0  0
  126.3290  123.9470   59.8200 C   0  0  0  0  0  0  0  0  0  0  0  0
  126.0700  123.2590   58.6380 C   0  0  0  0  0  0  0  0  0  0  0  0
  128.5682  123.7098   55.0444 H   0  0  0  0  0  0  0  0  0  0  0  0
  129.0615  122.2746   54.0833 H   0  0  0  0  0  0  0  0  0  0  0  0
  127.3466  122.8093   54.0833 H   0  0  0  0  0  0  0  0  0  0  0  0
  129.2761  122.6543   57.6366 H   0  0  0  0  0  0  0  0  0  0  0  0
  129.7425  123.8770   59.7463 H   0  0  0  0  0  0  0  0  0  0  0  0
  127.2920  124.9620   62.0710 H   0  0  0  0  0  0  0  0  0  0  0  0
  129.7226  127.7734   69.5788 H   0  0  0  0  0  0  0  0  0  0  0  0
  131.3039  127.2685   68.8921 H   0  0  0  0  0  0  0  0  0  0  0  0
  130.8374  129.0032   68.8921 H   0  0  0  0  0  0  0  0  0  0  0  0
  128.2477  129.2457   67.7871 H   0  0  0  0  0  0  0  0  0  0  0  0
  125.5494  127.8582   66.5604 H   0  0  0  0  0  0  0  0  0  0  0  0
  123.5245  129.1825   65.9546 H   0  0  0  0  0  0  0  0  0  0  0  0
  123.7476  131.1929   64.5005 H   0  0  0  0  0  0  0  0  0  0  0  0
  125.9843  131.8909   63.6518 H   0  0  0  0  0  0  0  0  0  0  0  0
  128.0089  130.5675   64.2569 H   0  0  0  0  0  0  0  0  0  0  0  0
  127.3050  128.4560   62.5690 H   0  0  0  0  0  0  0  0  0  0  0  0
  126.5050  126.9360   62.6960 H   0  0  0  0  0  0  0  0  0  0  0  0
  125.4949  124.3132   60.4366 H   0  0  0  0  0  0  0  0  0  0  0  0
  125.0294  123.0840   58.3274 H   0  0  0  0  0  0  0  0  0  0  0  0
  1  2  1  0
  2  3  1  0
  3  4  2  0
  3  5  1  0
  5  6  2  0
  6  7  1  0
  7  8  2  0
  8  9  1  0
  9 10  1  0
 10 11  2  0
 10 12  1  0
 12 13  1  0
 13 14  1  0
 14 15  2  0
 15 16  1  0
 16 17  1  0
 16 18  2  0
 18 19  1  0
 19 20  1  0
 20 21  2  0
 21 22  1  0
 22 23  2  0
 23 24  1  0
 24 25  2  0
 19 26  2  0
 26 27  1  0
 27 28  1  0
  8 29  1  0
 29 30  2  0
 30  5  1  0
 27 12  2  0
 26 14  1  0
 25 20  1  0
  1 31  1  0
  1 32  1  0
  1 33  1  0
  6 34  1  0
  7 35  1  0
  9 36  1  0
 17 37  1  0
 17 38  1  0
 17 39  1  0
 18 40  1  0
 21 41  1  0
 22 42  1  0
 23 43  1  0
 24 44  1  0
 25 45  1  0
 28 46  1  0
 28 47  1  0
 29 48  1  0
 30 49  1  0
M  END
>  <Binding energies>  (1) 
[-8.94]

>  <Ligand effiencies>  (1) 
[-0.2709090909090909]

>  <Interactions>  (1) 
["V-B:TYR:539:CE2:9845, V-B:PRO:540:N:9853, V-B:PRO:540:CB:9854, V-B:TYR:539:CZ:9846, V-B:PRO:540:CA:9852, H-B:TYR:539:N:9839, V-B:TYR:539:CD1:9842, V-B:ILE:538:CA:9829, V-B:TYR:539:C:9836, V-B:ILE:538:CG2:9832, V-B:TYR:539:CE1:9844, V-B:GLU:543:CD:9877, V-B:ILE:538:CB:9831, H-B:GLU:543:OE2:9879, V-B:MET:535:CE:9804, V-A:GLU:543:CD:4905, V-A:HIS:456:CE1:4066, V-A:GLU:543:CG:4904, V-B:PRO:540:CD:9856, V-B:TYR:539:CA:9838, H-B:ASP:366:OD1:8182, H-B:GLU:543:OE1:9878, V-A:GLU:543:CB:4903, V-A:GLU:543:C:4899, V-B:HIS:456:CE1:9038, V-B:GLY:454:CA:9017, V-B:ARG:545:CG:9891, V-B:ARG:545:CZ:9895, V-B:ARG:545:CD:9892"]

$$$$
8a_Ghoteimi_2023
     RDKit          3D

 67 71  0  0  0  0  0  0  0  0999 V2000
  129.4650  123.1160   53.9610 C   0  0  0  0  0  0  0  0  0  0  0  0
  128.0010  122.7440   54.2140 C   0  0  0  0  0  0  0  0  0  0  0  0
  127.9170  121.9110   55.3630 O   0  0  0  0  0  0  0  0  0  0  0  0
  126.8760  122.0180   56.2310 C   0  0  0  0  0  0  0  0  0  0  0  0
  125.7310  121.6380   55.9680 O   0  0  0  0  0  0  0  0  0  0  0  0
  127.2560  122.6480   57.5390 C   0  0  0  0  0  0  0  0  0  0  0  0
  126.3730  123.5500   58.1450 C   0  0  0  0  0  0  0  0  0  0  0  0
  126.6970  124.1530   59.3580 C   0  0  0  0  0  0  0  0  0  0  0  0
  127.9090  123.8680   59.9890 C   0  0  0  0  0  0  0  0  0  0  0  0
  128.1310  124.5400   61.2070 N   0  0  0  0  0  0  0  0  0  0  0  0
  129.2550  125.1210   61.6960 C   0  0  0  0  0  0  0  0  0  0  0  0
  130.3340  125.1490   61.1050 O   0  0  0  0  0  0  0  0  0  0  0  0
  129.1120  125.7440   63.0150 C   0  0  0  0  0  0  0  0  0  0  0  0
  129.9050  125.0410   64.4240 S   0  0  0  0  0  0  0  0  0  0  0  0
  129.2560  126.2830   65.4690 C   0  0  0  0  0  0  0  0  0  0  0  0
  129.4980  126.2930   66.7790 N   0  0  0  0  0  0  0  0  0  0  0  0
  128.9410  127.3010   67.5020 C   0  0  0  0  0  0  0  0  0  0  0  0
  129.2090  127.2810   68.9730 C   0  0  0  0  0  0  0  0  0  0  0  0
  128.3700  126.5810   69.8510 C   0  0  0  0  0  0  0  0  0  0  0  0
  128.6180  126.5760   71.2210 C   0  0  0  0  0  0  0  0  0  0  0  0
  129.7090  127.2650   71.7460 C   0  0  0  0  0  0  0  0  0  0  0  0
  129.8760  127.2060   73.1170 O   0  0  0  0  0  0  0  0  0  0  0  0
  128.7300  127.2850   73.9580 C   0  0  0  0  0  0  0  0  0  0  0  0
  130.5570  127.9640   70.8760 C   0  0  0  0  0  0  0  0  0  0  0  0
  130.3060  127.9700   69.5060 C   0  0  0  0  0  0  0  0  0  0  0  0
  128.1550  128.2940   66.9140 C   0  0  0  0  0  0  0  0  0  0  0  0
  127.9120  128.2970   65.5360 C   0  0  0  0  0  0  0  0  0  0  0  0
  127.0960  129.3950   64.9580 C   0  0  0  0  0  0  0  0  0  0  0  0
  125.7860  129.1510   64.5390 C   0  0  0  0  0  0  0  0  0  0  0  0
  125.0100  130.1820   64.0160 C   0  0  0  0  0  0  0  0  0  0  0  0
  125.5270  131.4730   63.9060 C   0  0  0  0  0  0  0  0  0  0  0  0
  124.6850  132.4320   63.3760 O   0  0  0  0  0  0  0  0  0  0  0  0
  123.8740  132.0990   62.2550 C   0  0  0  0  0  0  0  0  0  0  0  0
  126.8400  131.7220   64.3340 C   0  0  0  0  0  0  0  0  0  0  0  0
  127.6140  130.6890   64.8590 C   0  0  0  0  0  0  0  0  0  0  0  0
  128.4670  127.2390   64.7630 C   0  0  0  0  0  0  0  0  0  0  0  0
  128.3870  126.8950   63.3650 C   0  0  0  0  0  0  0  0  0  0  0  0
  127.6490  127.6250   62.4670 N   0  0  0  0  0  0  0  0  0  0  0  0
  128.7980  122.9620   59.3910 C   0  0  0  0  0  0  0  0  0  0  0  0
  128.4720  122.3610   58.1780 C   0  0  0  0  0  0  0  0  0  0  0  0
  129.9815  123.2472   54.9233 H   0  0  0  0  0  0  0  0  0  0  0  0
  129.9537  122.3135   53.3890 H   0  0  0  0  0  0  0  0  0  0  0  0
  129.5113  124.0544   53.3890 H   0  0  0  0  0  0  0  0  0  0  0  0
  127.4134  123.6589   54.3803 H   0  0  0  0  0  0  0  0  0  0  0  0
  127.6023  122.2067   53.3408 H   0  0  0  0  0  0  0  0  0  0  0  0
  125.4146  123.7845   57.6586 H   0  0  0  0  0  0  0  0  0  0  0  0
  125.9926  124.8590   59.8221 H   0  0  0  0  0  0  0  0  0  0  0  0
  127.3150  124.6010   61.7970 H   0  0  0  0  0  0  0  0  0  0  0  0
  127.5056  126.0292   69.4530 H   0  0  0  0  0  0  0  0  0  0  0  0
  127.9467  126.0232   71.8946 H   0  0  0  0  0  0  0  0  0  0  0  0
  129.0460  127.2632   75.0114 H   0  0  0  0  0  0  0  0  0  0  0  0
  128.1910  128.2224   73.7562 H   0  0  0  0  0  0  0  0  0  0  0  0
  128.0675  126.4304   73.7562 H   0  0  0  0  0  0  0  0  0  0  0  0
  131.4239  128.5098   71.2767 H   0  0  0  0  0  0  0  0  0  0  0  0
  130.9782  128.5232   68.8336 H   0  0  0  0  0  0  0  0  0  0  0  0
  127.7207  129.0851   67.5429 H   0  0  0  0  0  0  0  0  0  0  0  0
  125.3649  128.1382   64.6227 H   0  0  0  0  0  0  0  0  0  0  0  0
  123.9807  129.9768   63.6868 H   0  0  0  0  0  0  0  0  0  0  0  0
  122.9093  131.7029   62.6051 H   0  0  0  0  0  0  0  0  0  0  0  0
  123.7018  132.9992   61.6467 H   0  0  0  0  0  0  0  0  0  0  0  0
  124.3840  131.3375   61.6467 H   0  0  0  0  0  0  0  0  0  0  0  0
  127.2596  132.7358   64.2548 H   0  0  0  0  0  0  0  0  0  0  0  0
  128.6403  130.8937   65.1980 H   0  0  0  0  0  0  0  0  0  0  0  0
  128.0180  128.4640   62.0420 H   0  0  0  0  0  0  0  0  0  0  0  0
  126.7160  127.3490   62.1970 H   0  0  0  0  0  0  0  0  0  0  0  0
  129.7540  122.7261   59.8812 H   0  0  0  0  0  0  0  0  0  0  0  0
  129.1756  121.6532   57.7154 H   0  0  0  0  0  0  0  0  0  0  0  0
  1  2  1  0
  2  3  1  0
  3  4  1  0
  4  5  2  0
  4  6  1  0
  6  7  2  0
  7  8  1  0
  8  9  2  0
  9 10  1  0
 10 11  1  0
 11 12  2  0
 11 13  1  0
 13 14  1  0
 14 15  1  0
 15 16  2  0
 16 17  1  0
 17 18  1  0
 18 19  2  0
 19 20  1  0
 20 21  2  0
 21 22  1  0
 22 23  1  0
 21 24  1  0
 24 25  2  0
 17 26  2  0
 26 27  1  0
 27 28  1  0
 28 29  2  0
 29 30  1  0
 30 31  2  0
 31 32  1  0
 32 33  1  0
 31 34  1  0
 34 35  2  0
 27 36  2  0
 36 37  1  0
 37 38  1  0
  9 39  1  0
 39 40  2  0
 40  6  1  0
 37 13  2  0
 36 15  1  0
 25 18  1  0
 35 28  1  0
  1 41  1  0
  1 42  1  0
  1 43  1  0
  2 44  1  0
  2 45  1  0
  7 46  1  0
  8 47  1  0
 10 48  1  0
 19 49  1  0
 20 50  1  0
 23 51  1  0
 23 52  1  0
 23 53  1  0
 24 54  1  0
 25 55  1  0
 26 56  1  0
 29 57  1  0
 30 58  1  0
 33 59  1  0
 33 60  1  0
 33 61  1  0
 34 62  1  0
 35 63  1  0
 38 64  1  0
 38 65  1  0
 39 66  1  0
 40 67  1  0
M  END
>  <Binding energies>  (1) 
[-10.97]

>  <Ligand effiencies>  (1) 
[-0.25511627906976747]

>  <Interactions>  (1) 
["V-B:TYR:539:CE2:9845, V-B:PRO:540:N:9853, V-B:TYR:539:CZ:9846, V-B:PRO:540:CA:9852, H-B:TYR:539:N:9839, V-B:TYR:539:CD1:9842, V-B:ILE:538:CA:9829, V-B:ILE:538:C:9827, V-B:TYR:539:C:9836, V-B:ILE:538:CG2:9832, V-B:TYR:539:CE1:9844, V-B:GLU:543:CD:9877, V-B:ILE:538:CB:9831, V-B:GLU:543:CG:9876, H-B:GLU:543:OE2:9879, V-B:MET:535:CE:9804, V-A:GLU:543:CD:4905, V-A:HIS:456:CE1:4066, V-A:GLU:543:CG:4904, V-B:GLU:543:CB:9875, V-B:PRO:540:CD:9856, V-B:TYR:539:CA:9838, V-B:TYR:539:CG:9841, V-B:TYR:539:CD2:9843, H-B:ASP:366:OD1:8182, H-B:GLU:543:OE1:9878, V-A:LYS:547:CE:4947, V-A:GLU:543:C:4899, H-A:LYS:547:NZ:4948, V-A:GLY:544:C:4909, V-B:LYS:547:CE:9919, V-B:HIS:456:CE1:9038, V-B:GLY:454:CA:9017, V-B:ARG:545:CZ:9895, V-B:ILE:369:CD1:8207, H-A:GLU:543:OE2:4907, V-A:HIS:456:CD2:4064, H-B:GLY:454:N:9018"]

$$$$
8b_Ghoteimi_2023
     RDKit          3D

 54 58  0  0  0  0  0  0  0  0999 V2000
  123.9150  133.5460   61.6880 C   0  0  0  0  0  0  0  0  0  0  0  0
  123.7780  133.0030   62.9970 O   0  0  0  0  0  0  0  0  0  0  0  0
  124.6280  131.9900   63.3980 C   0  0  0  0  0  0  0  0  0  0  0  0
  125.9040  132.3720   63.8070 C   0  0  0  0  0  0  0  0  0  0  0  0
  126.8270  131.4200   64.2270 C   0  0  0  0  0  0  0  0  0  0  0  0
  126.4980  130.0570   64.2490 C   0  0  0  0  0  0  0  0  0  0  0  0
  127.4870  129.0290   64.6970 C   0  0  0  0  0  0  0  0  0  0  0  0
  127.6220  128.6740   66.0440 C   0  0  0  0  0  0  0  0  0  0  0  0
  128.5540  127.7090   66.4370 C   0  0  0  0  0  0  0  0  0  0  0  0
  128.6780  127.3630   67.8720 C   0  0  0  0  0  0  0  0  0  0  0  0
  127.7750  126.4760   68.4610 C   0  0  0  0  0  0  0  0  0  0  0  0
  127.8990  126.1440   69.8080 C   0  0  0  0  0  0  0  0  0  0  0  0
  128.9210  126.6930   70.5830 C   0  0  0  0  0  0  0  0  0  0  0  0
  128.9680  126.3050   71.9090 O   0  0  0  0  0  0  0  0  0  0  0  0
  128.1640  126.9930   72.8620 C   0  0  0  0  0  0  0  0  0  0  0  0
  129.8250  127.5870   69.9880 C   0  0  0  0  0  0  0  0  0  0  0  0
  129.7010  127.9180   68.6410 C   0  0  0  0  0  0  0  0  0  0  0  0
  129.3500  127.0990   65.4300 C   0  0  0  0  0  0  0  0  0  0  0  0
  130.3770  126.0910   65.4750 C   0  0  0  0  0  0  0  0  0  0  0  0
  130.7780  125.5040   66.6480 N   0  0  0  0  0  0  0  0  0  0  0  0
  130.9150  125.7720   64.2190 C   0  0  0  0  0  0  0  0  0  0  0  0
  131.9610  124.7980   63.8960 C   0  0  0  0  0  0  0  0  0  0  0  0
  132.3340  123.9750   64.7350 O   0  0  0  0  0  0  0  0  0  0  0  0
  132.4650  124.8820   62.6390 N   0  0  0  0  0  0  0  0  0  0  0  0
  133.4530  124.0890   62.0710 C   0  0  0  0  0  0  0  0  0  0  0  0
  133.1750  123.0200   61.2200 C   0  0  0  0  0  0  0  0  0  0  0  0
  134.4050  122.5010   60.8840 C   0  0  0  0  0  0  0  0  0  0  0  0
  135.3730  123.2220   61.4970 O   0  0  0  0  0  0  0  0  0  0  0  0
  134.7580  124.2270   62.2450 N   0  0  0  0  0  0  0  0  0  0  0  0
  130.1540  126.7200   62.9400 S   0  0  0  0  0  0  0  0  0  0  0  0
  129.1240  127.5350   64.0940 C   0  0  0  0  0  0  0  0  0  0  0  0
  128.2370  128.4560   63.7180 N   0  0  0  0  0  0  0  0  0  0  0  0
  125.2120  129.6790   63.8380 C   0  0  0  0  0  0  0  0  0  0  0  0
  124.2860  130.6300   63.4170 C   0  0  0  0  0  0  0  0  0  0  0  0
  124.1835  134.6104   61.7588 H   0  0  0  0  0  0  0  0  0  0  0  0
  124.7045  133.0039   61.1469 H   0  0  0  0  0  0  0  0  0  0  0  0
  122.9628  133.4433   61.1469 H   0  0  0  0  0  0  0  0  0  0  0  0
  126.1839  133.4358   63.7977 H   0  0  0  0  0  0  0  0  0  0  0  0
  127.8295  131.7409   64.5465 H   0  0  0  0  0  0  0  0  0  0  0  0
  126.9884  129.1592   66.8011 H   0  0  0  0  0  0  0  0  0  0  0  0
  126.9641  126.0385   67.8602 H   0  0  0  0  0  0  0  0  0  0  0  0
  127.1850  125.4429   70.2647 H   0  0  0  0  0  0  0  0  0  0  0  0
  128.4843  126.7189   73.8780 H   0  0  0  0  0  0  0  0  0  0  0  0
  128.2773  128.0782   72.7221 H   0  0  0  0  0  0  0  0  0  0  0  0
  127.1094  126.7134   72.7221 H   0  0  0  0  0  0  0  0  0  0  0  0
  130.6346  128.0279   70.5881 H   0  0  0  0  0  0  0  0  0  0  0  0
  130.4126  128.6199   68.1816 H   0  0  0  0  0  0  0  0  0  0  0  0
  130.5020  125.8790   67.5450 H   0  0  0  0  0  0  0  0  0  0  0  0
  131.3650  124.6810   66.6570 H   0  0  0  0  0  0  0  0  0  0  0  0
  132.0830  125.5970   62.0390 H   0  0  0  0  0  0  0  0  0  0  0  0
  132.1869  122.6677   60.8889 H   0  0  0  0  0  0  0  0  0  0  0  0
  134.5742  121.6382   60.2230 H   0  0  0  0  0  0  0  0  0  0  0  0
  124.9304  128.6157   63.8482 H   0  0  0  0  0  0  0  0  0  0  0  0
  123.2821  130.3132   63.0980 H   0  0  0  0  0  0  0  0  0  0  0  0
  1  2  1  0
  2  3  1  0
  3  4  2  0
  4  5  1  0
  5  6  2  0
  6  7  1  0
  7  8  2  0
  8  9  1  0
  9 10  1  0
 10 11  2  0
 11 12  1  0
 12 13  2  0
 13 14  1  0
 14 15  1  0
 13 16  1  0
 16 17  2  0
  9 18  2  0
 18 19  1  0
 19 20  1  0
 19 21  2  0
 21 22  1  0
 22 23  2  0
 22 24  1  0
 24 25  1  0
 25 26  1  0
 26 27  2  0
 27 28  1  0
 28 29  1  0
 21 30  1  0
 30 31  1  0
 31 32  2  0
  6 33  1  0
 33 34  2  0
 34  3  1  0
 32  7  1  0
 17 10  1  0
 31 18  1  0
 29 25  2  0
  1 35  1  0
  1 36  1  0
  1 37  1  0
  4 38  1  0
  5 39  1  0
  8 40  1  0
 11 41  1  0
 12 42  1  0
 15 43  1  0
 15 44  1  0
 15 45  1  0
 16 46  1  0
 17 47  1  0
 20 48  1  0
 20 49  1  0
 24 50  1  0
 26 51  1  0
 27 52  1  0
 33 53  1  0
 34 54  1  0
M  END
>  <Binding energies>  (1) 
[-8.5]

>  <Ligand effiencies>  (1) 
[-0.22972972972972974]

>  <Interactions>  (1) 
["V-A:TYR:484:CZ:4343, V-B:GLU:543:CD:9877, V-A:GLU:543:CD:4905, V-A:HIS:456:CE1:4066, H-A:ARG:545:NH1:4924, V-A:ASP:366:CG:3209, V-B:GLU:543:CB:9875, H-A:GLY:454:N:4046, H-A:TYR:484:OH:4344, V-B:ASP:366:CG:8181, V-B:HIS:456:CD2:9036, V-A:ILE:369:CB:3232, V-A:GLU:543:CB:4903, V-A:ILE:369:CG2:3233, V-B:LYS:547:CE:9919, V-B:HIS:456:CE1:9038, H-A:HIS:456:NE2:4067, V-B:GLY:544:C:9881, V-A:ILE:369:CG1:3234, V-B:GLY:454:CA:9017, V-B:ILE:369:CG2:8205, V-B:ARG:545:CZ:9895, V-B:ILE:369:CD1:8207, V-B:GLU:543:C:9871, H-A:ASP:366:OD1:3210, H-A:ASP:366:OD2:3211, V-B:LEU:475:CD2:9227, H-B:GLY:454:N:9018"]

$$$$
8c_Ghoteimi_2023
     RDKit          3D

 54 58  0  0  0  0  0  0  0  0999 V2000
  123.8720  133.5410   62.1740 C   0  0  0  0  0  0  0  0  0  0  0  0
  124.2690  133.4420   63.5370 O   0  0  0  0  0  0  0  0  0  0  0  0
  125.1410  132.4370   63.9130 C   0  0  0  0  0  0  0  0  0  0  0  0
  124.6940  131.1280   63.7420 C   0  0  0  0  0  0  0  0  0  0  0  0
  125.5040  130.0530   64.0960 C   0  0  0  0  0  0  0  0  0  0  0  0
  126.7830  130.2590   64.6310 C   0  0  0  0  0  0  0  0  0  0  0  0
  127.6570  129.1080   65.0170 C   0  0  0  0  0  0  0  0  0  0  0  0
  127.9010  128.7830   66.3540 C   0  0  0  0  0  0  0  0  0  0  0  0
  128.7190  127.6990   66.6880 C   0  0  0  0  0  0  0  0  0  0  0  0
  128.9640  127.3870   68.1150 C   0  0  0  0  0  0  0  0  0  0  0  0
  130.0410  127.9700   68.7880 C   0  0  0  0  0  0  0  0  0  0  0  0
  130.2640  127.6840   70.1310 C   0  0  0  0  0  0  0  0  0  0  0  0
  129.4210  126.8110   70.8200 C   0  0  0  0  0  0  0  0  0  0  0  0
  129.7170  126.5880   72.1510 O   0  0  0  0  0  0  0  0  0  0  0  0
  128.7360  126.8780   73.1390 C   0  0  0  0  0  0  0  0  0  0  0  0
  128.3420  126.2230   70.1410 C   0  0  0  0  0  0  0  0  0  0  0  0
  128.1190  126.5110   68.7970 C   0  0  0  0  0  0  0  0  0  0  0  0
  129.2870  126.9400   65.6300 C   0  0  0  0  0  0  0  0  0  0  0  0
  130.1510  125.7900   65.6100 C   0  0  0  0  0  0  0  0  0  0  0  0
  130.6040  125.1890   66.7580 N   0  0  0  0  0  0  0  0  0  0  0  0
  130.4800  125.3480   64.3180 C   0  0  0  0  0  0  0  0  0  0  0  0
  131.3240  124.2160   63.9280 C   0  0  0  0  0  0  0  0  0  0  0  0
  131.3610  123.1930   64.6140 O   0  0  0  0  0  0  0  0  0  0  0  0
  132.0380  124.3890   62.7880 N   0  0  0  0  0  0  0  0  0  0  0  0
  132.9050  123.4790   62.2010 C   0  0  0  0  0  0  0  0  0  0  0  0
  134.2080  123.5840   62.0530 N   0  0  0  0  0  0  0  0  0  0  0  0
  134.7150  122.5260   61.4520 C   0  0  0  0  0  0  0  0  0  0  0  0
  133.8120  121.5300   61.0950 C   0  0  0  0  0  0  0  0  0  0  0  0
  132.2140  122.0150   61.5780 S   0  0  0  0  0  0  0  0  0  0  0  0
  129.7160  126.3550   63.0870 S   0  0  0  0  0  0  0  0  0  0  0  0
  128.9660  127.3590   64.3070 C   0  0  0  0  0  0  0  0  0  0  0  0
  128.1870  128.3920   63.9880 N   0  0  0  0  0  0  0  0  0  0  0  0
  127.2270  131.5780   64.7970 C   0  0  0  0  0  0  0  0  0  0  0  0
  126.4190  132.6560   64.4450 C   0  0  0  0  0  0  0  0  0  0  0  0
  122.8059  133.8068   62.1210 H   0  0  0  0  0  0  0  0  0  0  0  0
  124.4689  134.3178   61.6737 H   0  0  0  0  0  0  0  0  0  0  0  0
  124.0343  132.5749   61.6737 H   0  0  0  0  0  0  0  0  0  0  0  0
  123.6934  130.9431   63.3241 H   0  0  0  0  0  0  0  0  0  0  0  0
  125.1350  129.0266   63.9538 H   0  0  0  0  0  0  0  0  0  0  0  0
  127.4446  129.3864   67.1525 H   0  0  0  0  0  0  0  0  0  0  0  0
  130.7143  128.6569   68.2543 H   0  0  0  0  0  0  0  0  0  0  0  0
  131.1120  128.1499   70.6543 H   0  0  0  0  0  0  0  0  0  0  0  0
  129.1740  126.7485   74.1397 H   0  0  0  0  0  0  0  0  0  0  0  0
  128.3922  127.9162   73.0207 H   0  0  0  0  0  0  0  0  0  0  0  0
  127.8830  126.1936   73.0207 H   0  0  0  0  0  0  0  0  0  0  0  0
  127.6706  125.5325   70.6724 H   0  0  0  0  0  0  0  0  0  0  0  0
  127.2727  126.0457   68.2705 H   0  0  0  0  0  0  0  0  0  0  0  0
  131.0540  124.2840   66.7370 H   0  0  0  0  0  0  0  0  0  0  0  0
  130.5010  125.6270   67.6620 H   0  0  0  0  0  0  0  0  0  0  0  0
  131.9300  125.2690   62.3040 H   0  0  0  0  0  0  0  0  0  0  0  0
  135.7915  122.4358   61.2445 H   0  0  0  0  0  0  0  0  0  0  0  0
  134.0678  120.5875   60.5887 H   0  0  0  0  0  0  0  0  0  0  0  0
  128.2287  131.7644   65.2115 H   0  0  0  0  0  0  0  0  0  0  0  0
  126.7853  133.6837   64.5850 H   0  0  0  0  0  0  0  0  0  0  0  0
  1  2  1  0
  2  3  1  0
  3  4  2  0
  4  5  1  0
  5  6  2  0
  6  7  1  0
  7  8  2  0
  8  9  1  0
  9 10  1  0
 10 11  2  0
 11 12  1  0
 12 13  2  0
 13 14  1  0
 14 15  1  0
 13 16  1  0
 16 17  2  0
  9 18  2  0
 18 19  1  0
 19 20  1  0
 19 21  2  0
 21 22  1  0
 22 23  2  0
 22 24  1  0
 24 25  1  0
 25 26  2  0
 26 27  1  0
 27 28  2  0
 28 29  1  0
 21 30  1  0
 30 31  1  0
 31 32  2  0
  6 33  1  0
 33 34  2  0
 34  3  1  0
 32  7  1  0
 17 10  1  0
 31 18  1  0
 29 25  1  0
  1 35  1  0
  1 36  1  0
  1 37  1  0
  4 38  1  0
  5 39  1  0
  8 40  1  0
 11 41  1  0
 12 42  1  0
 15 43  1  0
 15 44  1  0
 15 45  1  0
 16 46  1  0
 17 47  1  0
 20 48  1  0
 20 49  1  0
 24 50  1  0
 27 51  1  0
 28 52  1  0
 33 53  1  0
 34 54  1  0
M  END
>  <Binding energies>  (1) 
[-8.67]

>  <Ligand effiencies>  (1) 
[-0.23432432432432432]

>  <Interactions>  (1) 
["V-B:TYR:539:CE2:9845, V-A:TYR:484:CZ:4343, V-A:LEU:475:CD1:4254, V-B:GLU:543:CD:9877, V-A:TYR:484:CE1:4341, V-A:GLY:454:CA:4045, V-A:GLU:543:CD:4905, V-A:HIS:456:CE1:4066, V-A:GLU:543:CG:4904, V-B:GLU:543:CB:9875, H-A:GLY:454:N:4046, H-A:TYR:484:OH:4344, V-A:ILE:369:CB:3232, V-A:GLU:543:CB:4903, V-A:GLU:543:C:4899, H-A:LYS:547:NZ:4948, V-A:ILE:369:CG2:3233, V-B:LYS:547:CE:9919, V-B:HIS:456:CE1:9038, V-A:GLY:453:C:4038, H-A:HIS:456:NE2:4067, V-A:ILE:369:CG1:3234, V-B:GLY:454:CA:9017, V-B:ILE:369:CG2:8205, V-B:ILE:369:CD1:8207, V-B:GLU:543:C:9871, H-A:ASP:366:OD2:3211, V-B:LEU:475:CD2:9227, V-B:TYR:484:CZ:9315, V-B:TYR:484:CE1:9313, V-A:HIS:456:CD2:4064, H-B:GLY:454:N:9018"]

$$$$
8d_Ghoteimi_2023
     RDKit          3D

 50 53  0  0  0  0  0  0  0  0999 V2000
  132.8820  125.1260   64.2680 C   0  0  0  0  0  0  0  0  0  0  0  0
  132.2910  123.8540   64.4960 O   0  0  0  0  0  0  0  0  0  0  0  0
  130.9500  123.6770   64.3730 C   0  0  0  0  0  0  0  0  0  0  0  0
  130.4230  122.6170   64.0280 O   0  0  0  0  0  0  0  0  0  0  0  0
  130.1760  124.8960   64.6950 C   0  0  0  0  0  0  0  0  0  0  0  0
  129.4080  125.8190   63.4020 S   0  0  0  0  0  0  0  0  0  0  0  0
  128.7760  126.9760   64.5510 C   0  0  0  0  0  0  0  0  0  0  0  0
  128.0390  128.0180   64.1660 N   0  0  0  0  0  0  0  0  0  0  0  0
  127.5960  128.8560   65.1410 C   0  0  0  0  0  0  0  0  0  0  0  0
  126.7740  130.0190   64.6820 C   0  0  0  0  0  0  0  0  0  0  0  0
  125.4440  129.8500   64.2710 C   0  0  0  0  0  0  0  0  0  0  0  0
  124.6840  130.9350   63.8450 C   0  0  0  0  0  0  0  0  0  0  0  0
  125.2320  132.2170   63.8170 C   0  0  0  0  0  0  0  0  0  0  0  0
  124.4050  133.2330   63.3800 O   0  0  0  0  0  0  0  0  0  0  0  0
  124.2220  133.4270   61.9810 C   0  0  0  0  0  0  0  0  0  0  0  0
  126.5610  132.3980   64.2270 C   0  0  0  0  0  0  0  0  0  0  0  0
  127.3170  131.3100   64.6540 C   0  0  0  0  0  0  0  0  0  0  0  0
  127.8970  128.6560   66.4910 C   0  0  0  0  0  0  0  0  0  0  0  0
  128.6690  127.5610   66.8950 C   0  0  0  0  0  0  0  0  0  0  0  0
  128.9630  127.3710   68.3340 C   0  0  0  0  0  0  0  0  0  0  0  0
  130.0810  127.9810   68.9080 C   0  0  0  0  0  0  0  0  0  0  0  0
  130.3630  127.7950   70.2590 C   0  0  0  0  0  0  0  0  0  0  0  0
  129.5330  127.0040   71.0540 C   0  0  0  0  0  0  0  0  0  0  0  0
  129.8920  126.8750   72.3820 O   0  0  0  0  0  0  0  0  0  0  0  0
  129.8810  125.5850   72.9820 C   0  0  0  0  0  0  0  0  0  0  0  0
  128.4080  126.3950   70.4750 C   0  0  0  0  0  0  0  0  0  0  0  0
  128.1280  126.5810   69.1240 C   0  0  0  0  0  0  0  0  0  0  0  0
  129.1390  126.6710   65.8940 C   0  0  0  0  0  0  0  0  0  0  0  0
  129.9380  125.4780   65.9460 C   0  0  0  0  0  0  0  0  0  0  0  0
  130.4260  124.9660   67.1210 N   0  0  0  0  0  0  0  0  0  0  0  0
  133.1046  125.6051   65.2328 H   0  0  0  0  0  0  0  0  0  0  0  0
  133.8140  125.0003   63.6973 H   0  0  0  0  0  0  0  0  0  0  0  0
  132.1849  125.7572   63.6973 H   0  0  0  0  0  0  0  0  0  0  0  0
  124.9953  128.8458   64.2856 H   0  0  0  0  0  0  0  0  0  0  0  0
  123.6422  130.7801   63.5277 H   0  0  0  0  0  0  0  0  0  0  0  0
  123.4758  134.2180   61.8150 H   0  0  0  0  0  0  0  0  0  0  0  0
  125.1777  133.7227   61.5237 H   0  0  0  0  0  0  0  0  0  0  0  0
  123.8711  132.4901   61.5237 H   0  0  0  0  0  0  0  0  0  0  0  0
  127.0074  133.4032   64.2111 H   0  0  0  0  0  0  0  0  0  0  0  0
  128.3575  131.4665   64.9746 H   0  0  0  0  0  0  0  0  0  0  0  0
  127.5234  129.3662   67.2433 H   0  0  0  0  0  0  0  0  0  0  0  0
  130.7401  128.6097   68.2914 H   0  0  0  0  0  0  0  0  0  0  0  0
  131.2473  128.2756   70.7029 H   0  0  0  0  0  0  0  0  0  0  0  0
  129.8819  125.6899   74.0770 H   0  0  0  0  0  0  0  0  0  0  0  0
  128.9782  125.0415   72.6665 H   0  0  0  0  0  0  0  0  0  0  0  0
  130.7744  125.0262   72.6665 H   0  0  0  0  0  0  0  0  0  0  0  0
  127.7457  125.7689   71.0909 H   0  0  0  0  0  0  0  0  0  0  0  0
  127.2439  126.1026   68.6774 H   0  0  0  0  0  0  0  0  0  0  0  0
  129.9960  125.1830   68.0100 H   0  0  0  0  0  0  0  0  0  0  0  0
  131.2270  124.3510   67.1400 H   0  0  0  0  0  0  0  0  0  0  0  0
  1  2  1  0
  2  3  1  0
  3  4  2  0
  3  5  1  0
  5  6  1  0
  6  7  1  0
  7  8  2  0
  8  9  1  0
  9 10  1  0
 10 11  2  0
 11 12  1  0
 12 13  2  0
 13 14  1  0
 14 15  1  0
 13 16  1  0
 16 17  2  0
  9 18  2  0
 18 19  1  0
 19 20  1  0
 20 21  2  0
 21 22  1  0
 22 23  2  0
 23 24  1  0
 24 25  1  0
 23 26  1  0
 26 27  2  0
 19 28  2  0
 28 29  1  0
 29 30  1  0
 29  5  2  0
 28  7  1  0
 17 10  1  0
 27 20  1  0
  1 31  1  0
  1 32  1  0
  1 33  1  0
 11 34  1  0
 12 35  1  0
 15 36  1  0
 15 37  1  0
 15 38  1  0
 16 39  1  0
 17 40  1  0
 18 41  1  0
 21 42  1  0
 22 43  1  0
 25 44  1  0
 25 45  1  0
 25 46  1  0
 26 47  1  0
 27 48  1  0
 30 49  1  0
 30 50  1  0
M  END
>  <Binding energies>  (1) 
[-7.53]

>  <Ligand effiencies>  (1) 
[-0.2353125]

>  <Interactions>  (1) 
["V-A:TYR:484:CZ:4343, V-B:GLU:543:CD:9877, V-A:TYR:484:CE1:4341, V-B:GLU:543:CG:9876, V-A:ARG:545:CZ:4923, V-A:GLU:543:CD:4905, V-A:HIS:456:CE1:4066, V-A:GLU:543:CG:4904, V-B:GLU:543:CB:9875, H-A:TYR:484:OH:4344, V-A:GLU:543:CB:4903, V-A:GLU:543:C:4899, H-A:LYS:547:NZ:4948, V-B:LYS:547:CE:9919, V-B:HIS:456:CE1:9038, H-A:HIS:456:NE2:4067, V-B:GLY:454:CA:9017, V-B:ILE:369:CD1:8207, V-B:LEU:475:CD2:9227, V-B:TYR:484:CE1:9313, V-A:HIS:456:CD2:4064, H-B:GLY:454:N:9018, H-B:GLU:543:O:9872"]

$$$$
9a_Ghoteimi_2023
     RDKit          3D

 85 91  0  0  0  0  0  0  0  0999 V2000
  131.9530  132.4680   56.6240 C   0  0  0  0  0  0  0  0  0  0  0  0
  130.9140  132.2740   55.5150 C   0  0  0  0  0  0  0  0  0  0  0  0
  129.7270  132.9830   55.8500 O   0  0  0  0  0  0  0  0  0  0  0  0
  128.5770  132.3240   56.1450 C   0  0  0  0  0  0  0  0  0  0  0  0
  127.6460  132.1870   55.3440 O   0  0  0  0  0  0  0  0  0  0  0  0
  128.5450  131.7830   57.5450 C   0  0  0  0  0  0  0  0  0  0  0  0
  129.1070  130.5270   57.8070 C   0  0  0  0  0  0  0  0  0  0  0  0
  129.0910  129.9970   59.0940 C   0  0  0  0  0  0  0  0  0  0  0  0
  128.5160  130.7110   60.1460 C   0  0  0  0  0  0  0  0  0  0  0  0
  128.5560  130.0780   61.4030 N   0  0  0  0  0  0  0  0  0  0  0  0
  127.5650  129.8330   62.2960 C   0  0  0  0  0  0  0  0  0  0  0  0
  126.3880  130.1520   62.1280 O   0  0  0  0  0  0  0  0  0  0  0  0
  127.9810  129.1370   63.5170 C   0  0  0  0  0  0  0  0  0  0  0  0
  127.5030  129.7510   65.1000 S   0  0  0  0  0  0  0  0  0  0  0  0
  128.3300  128.4410   65.9090 C   0  0  0  0  0  0  0  0  0  0  0  0
  128.3210  128.3220   67.2360 N   0  0  0  0  0  0  0  0  0  0  0  0
  128.9850  127.2610   67.7660 C   0  0  0  0  0  0  0  0  0  0  0  0
  128.9520  127.1420   69.2550 C   0  0  0  0  0  0  0  0  0  0  0  0
  127.8850  126.5000   69.8940 C   0  0  0  0  0  0  0  0  0  0  0  0
  127.8470  126.3840   71.2810 C   0  0  0  0  0  0  0  0  0  0  0  0
  128.8820  126.8940   72.0810 C   0  0  0  0  0  0  0  0  0  0  0  0
  128.8480  126.8020   73.4760 N   0  0  0  0  0  0  0  0  0  0  0  0
  129.9200  126.1220   74.2310 C   0  0  0  0  0  0  0  0  0  0  0  0
  129.5450  125.8010   75.6930 C   0  0  0  0  0  0  0  0  0  0  0  0
  129.1240  126.9810   76.3570 O   0  0  0  0  0  0  0  0  0  0  0  0
  127.9860  127.5520   75.7310 C   0  0  0  0  0  0  0  0  0  0  0  0
  128.3210  127.9290   74.2730 C   0  0  0  0  0  0  0  0  0  0  0  0
  129.9410  127.5500   71.4360 C   0  0  0  0  0  0  0  0  0  0  0  0
  129.9770  127.6680   70.0500 C   0  0  0  0  0  0  0  0  0  0  0  0
  129.6750  126.3420   66.9720 C   0  0  0  0  0  0  0  0  0  0  0  0
  129.7040  126.4740   65.5790 C   0  0  0  0  0  0  0  0  0  0  0  0
  130.4840  125.4900   64.7850 C   0  0  0  0  0  0  0  0  0  0  0  0
  129.8730  124.3390   64.2810 C   0  0  0  0  0  0  0  0  0  0  0  0
  130.6020  123.4250   63.5260 C   0  0  0  0  0  0  0  0  0  0  0  0
  131.9580  123.6470   63.2380 C   0  0  0  0  0  0  0  0  0  0  0  0
  132.7130  122.7390   62.4920 N   0  0  0  0  0  0  0  0  0  0  0  0
  133.9930  123.1790   61.9040 C   0  0  0  0  0  0  0  0  0  0  0  0
  134.8890  122.0090   61.4450 C   0  0  0  0  0  0  0  0  0  0  0  0
  134.1770  121.1770   60.5420 O   0  0  0  0  0  0  0  0  0  0  0  0
  133.0140  120.6280   61.1410 C   0  0  0  0  0  0  0  0  0  0  0  0
  132.0680  121.7610   61.5930 C   0  0  0  0  0  0  0  0  0  0  0  0
  132.5600  124.8070   63.7470 C   0  0  0  0  0  0  0  0  0  0  0  0
  131.8320  125.7190   64.5060 C   0  0  0  0  0  0  0  0  0  0  0  0
  128.9850  127.5590   65.0010 C   0  0  0  0  0  0  0  0  0  0  0  0
  128.7480  127.9680   63.6380 C   0  0  0  0  0  0  0  0  0  0  0  0
  129.2230  127.2610   62.5630 N   0  0  0  0  0  0  0  0  0  0  0  0
  127.9530  131.9720   59.8940 C   0  0  0  0  0  0  0  0  0  0  0  0
  127.9690  132.5000   58.6050 C   0  0  0  0  0  0  0  0  0  0  0  0
  131.4637  132.3766   57.6049 H   0  0  0  0  0  0  0  0  0  0  0  0
  132.7355  131.7004   56.5317 H   0  0  0  0  0  0  0  0  0  0  0  0
  132.4058  133.4662   56.5317 H   0  0  0  0  0  0  0  0  0  0  0  0
  131.3150  132.6577   54.5653 H   0  0  0  0  0  0  0  0  0  0  0  0
  130.6849  131.2033   55.4095 H   0  0  0  0  0  0  0  0  0  0  0  0
  129.5655  129.9539   56.9877 H   0  0  0  0  0  0  0  0  0  0  0  0
  129.5347  129.0084   59.2831 H   0  0  0  0  0  0  0  0  0  0  0  0
  129.4750  129.7560   61.6700 H   0  0  0  0  0  0  0  0  0  0  0  0
  127.0650  126.0813   69.2921 H   0  0  0  0  0  0  0  0  0  0  0  0
  126.9912  125.8841   71.7583 H   0  0  0  0  0  0  0  0  0  0  0  0
  130.1596  125.1782   73.7192 H   0  0  0  0  0  0  0  0  0  0  0  0
  130.7759  126.8122   74.2640 H   0  0  0  0  0  0  0  0  0  0  0  0
  128.7279  125.0647   75.7060 H   0  0  0  0  0  0  0  0  0  0  0  0
  130.4255  125.3912   76.2095 H   0  0  0  0  0  0  0  0  0  0  0  0
  127.1617  126.8237   75.7390 H   0  0  0  0  0  0  0  0  0  0  0  0
  127.6880  128.4578   76.2794 H   0  0  0  0  0  0  0  0  0  0  0  0
  127.4041  128.2977   73.7898 H   0  0  0  0  0  0  0  0  0  0  0  0
  129.1108  128.6937   74.3112 H   0  0  0  0  0  0  0  0  0  0  0  0
  130.7571  127.9785   72.0363 H   0  0  0  0  0  0  0  0  0  0  0  0
  130.8237  128.1824   69.5719 H   0  0  0  0  0  0  0  0  0  0  0  0
  130.2030  125.5027   67.4483 H   0  0  0  0  0  0  0  0  0  0  0  0
  128.8076  124.1538   64.4825 H   0  0  0  0  0  0  0  0  0  0  0  0
  130.1091  122.5164   63.1498 H   0  0  0  0  0  0  0  0  0  0  0  0
  133.7766  123.8153   61.0332 H   0  0  0  0  0  0  0  0  0  0  0  0
  134.5420  123.7213   62.6879 H   0  0  0  0  0  0  0  0  0  0  0  0
  135.7826  122.4095   60.9439 H   0  0  0  0  0  0  0  0  0  0  0  0
  135.1871  121.4168   62.3228 H   0  0  0  0  0  0  0  0  0  0  0  0
  132.4950  119.9896   60.4109 H   0  0  0  0  0  0  0  0  0  0  0  0
  133.3067  120.0308   62.0172 H   0  0  0  0  0  0  0  0  0  0  0  0
  131.7086  122.2926   60.6996 H   0  0  0  0  0  0  0  0  0  0  0  0
  131.2471  121.2936   62.1566 H   0  0  0  0  0  0  0  0  0  0  0  0
  133.6238  124.9991   63.5433 H   0  0  0  0  0  0  0  0  0  0  0  0
  132.3226  126.6262   64.8884 H   0  0  0  0  0  0  0  0  0  0  0  0
  128.7170  126.4770   62.1750 H   0  0  0  0  0  0  0  0  0  0  0  0
  130.1000  127.5010   62.1210 H   0  0  0  0  0  0  0  0  0  0  0  0
  127.4983  132.5443   60.7160 H   0  0  0  0  0  0  0  0  0  0  0  0
  127.5257  133.4888   58.4161 H   0  0  0  0  0  0  0  0  0  0  0  0
  1  2  1  0
  2  3  1  0
  3  4  1  0
  4  5  2  0
  4  6  1  0
  6  7  2  0
  7  8  1  0
  8  9  2  0
  9 10  1  0
 10 11  1  0
 11 12  2  0
 11 13  1  0
 13 14  1  0
 14 15  1  0
 15 16  2  0
 16 17  1  0
 17 18  1  0
 18 19  2  0
 19 20  1  0
 20 21  2  0
 21 22  1  0
 22 23  1  0
 23 24  1  0
 24 25  1  0
 25 26  1  0
 26 27  1  0
 21 28  1  0
 28 29  2  0
 17 30  2  0
 30 31  1  0
 31 32  1  0
 32 33  2  0
 33 34  1  0
 34 35  2  0
 35 36  1  0
 36 37  1  0
 37 38  1  0
 38 39  1  0
 39 40  1  0
 40 41  1  0
 35 42  1  0
 42 43  2  0
 31 44  2  0
 44 45  1  0
 45 46  1  0
  9 47  1  0
 47 48  2  0
 48  6  1  0
 45 13  2  0
 44 15  1  0
 29 18  1  0
 43 32  1  0
 27 22  1  0
 41 36  1  0
  1 49  1  0
  1 50  1  0
  1 51  1  0
  2 52  1  0
  2 53  1  0
  7 54  1  0
  8 55  1  0
 10 56  1  0
 19 57  1  0
 20 58  1  0
 23 59  1  0
 23 60  1  0
 24 61  1  0
 24 62  1  0
 26 63  1  0
 26 64  1  0
 27 65  1  0
 27 66  1  0
 28 67  1  0
 29 68  1  0
 30 69  1  0
 33 70  1  0
 34 71  1  0
 37 72  1  0
 37 73  1  0
 38 74  1  0
 38 75  1  0
 40 76  1  0
 40 77  1  0
 41 78  1  0
 41 79  1  0
 42 80  1  0
 43 81  1  0
 46 82  1  0
 46 83  1  0
 47 84  1  0
 48 85  1  0
M  END
>  <Binding energies>  (1) 
[-10.73]

>  <Ligand effiencies>  (1) 
[-0.2103921568627451]

>  <Interactions>  (1) 
["V-B:TYR:539:CE2:9845, V-A:LEU:475:CD1:4254, V-B:GLU:543:CD:9877, V-B:GLU:543:CG:9876, H-B:GLU:543:OE2:9879, V-A:ARG:545:CZ:4923, V-A:GLY:454:CA:4045, V-A:GLU:543:CD:4905, V-A:HIS:456:CE1:4066, V-A:GLU:543:CG:4904, H-A:TYR:539:OH:4875, V-A:PRO:540:CB:4882, V-A:TYR:539:C:4864, V-A:PRO:540:CA:4880, H-A:TYR:539:N:4867, V-A:LEU:363:CD1:3185, V-A:PRO:540:N:4881, V-A:ILE:538:CG2:4860, V-A:ILE:538:CD1:4862, V-A:TYR:539:CZ:4874, V-B:TYR:539:CD2:9843, V-A:TYR:539:CD2:4871, V-A:TYR:539:CE2:4873, V-A:TYR:539:CG:4869, V-A:LYS:547:CE:4947, V-B:HIS:456:CD2:9036, H-A:GLU:543:OE1:4906, V-A:ILE:369:CB:3232, V-A:GLU:543:CB:4903, V-A:ILE:369:CG2:3233, V-B:LYS:547:CE:9919, V-B:HIS:456:CE1:9038, V-A:GLY:453:C:4038, V-B:GLY:544:C:9881, V-A:ILE:369:CG1:3234, V-B:LYS:547:CD:9918, H-A:GLU:543:OE2:4907, V-A:PRO:540:CD:4884, V-A:HIS:456:CD2:4064, V-A:ILE:369:CD1:3235, V-A:PRO:540:CG:4883"]

$$$$
9b_Ghoteimi_2023
     RDKit          3D

 72 78  0  0  0  0  0  0  0  0999 V2000
  129.4270  127.6020   62.8230 N   0  0  0  0  0  0  0  0  0  0  0  0
  130.0280  127.0220   63.9120 C   0  0  0  0  0  0  0  0  0  0  0  0
  131.1100  126.1330   63.8160 C   0  0  0  0  0  0  0  0  0  0  0  0
  131.8130  125.6760   62.6150 C   0  0  0  0  0  0  0  0  0  0  0  0
  131.6100  126.2130   61.5240 O   0  0  0  0  0  0  0  0  0  0  0  0
  132.6710  124.6420   62.8000 N   0  0  0  0  0  0  0  0  0  0  0  0
  133.4520  124.0070   61.8420 C   0  0  0  0  0  0  0  0  0  0  0  0
  132.9200  123.4120   60.6990 C   0  0  0  0  0  0  0  0  0  0  0  0
  134.0050  122.9070   60.0210 C   0  0  0  0  0  0  0  0  0  0  0  0
  135.1320  123.1840   60.7200 O   0  0  0  0  0  0  0  0  0  0  0  0
  134.7680  123.8810   61.8730 N   0  0  0  0  0  0  0  0  0  0  0  0
  131.6050  125.5580   65.4070 S   0  0  0  0  0  0  0  0  0  0  0  0
  130.3520  126.4940   66.1860 C   0  0  0  0  0  0  0  0  0  0  0  0
  130.1730  126.4610   67.5050 N   0  0  0  0  0  0  0  0  0  0  0  0
  129.1590  127.2120   68.0100 C   0  0  0  0  0  0  0  0  0  0  0  0
  128.9670  127.1400   69.4900 C   0  0  0  0  0  0  0  0  0  0  0  0
  127.8500  126.5050   70.0450 C   0  0  0  0  0  0  0  0  0  0  0  0
  127.6690  126.4540   71.4240 C   0  0  0  0  0  0  0  0  0  0  0  0
  128.5920  127.0490   72.2990 C   0  0  0  0  0  0  0  0  0  0  0  0
  128.4250  127.0030   73.6870 N   0  0  0  0  0  0  0  0  0  0  0  0
  127.6770  128.0530   74.4070 C   0  0  0  0  0  0  0  0  0  0  0  0
  127.2990  127.6700   75.8530 C   0  0  0  0  0  0  0  0  0  0  0  0
  128.4600  127.2890   76.5730 O   0  0  0  0  0  0  0  0  0  0  0  0
  129.0940  126.1670   75.9820 C   0  0  0  0  0  0  0  0  0  0  0  0
  129.5250  126.5000   74.5370 C   0  0  0  0  0  0  0  0  0  0  0  0
  129.7190  127.6650   71.7380 C   0  0  0  0  0  0  0  0  0  0  0  0
  129.9020  127.7130   70.3590 C   0  0  0  0  0  0  0  0  0  0  0  0
  128.3480  128.0110   67.2000 C   0  0  0  0  0  0  0  0  0  0  0  0
  128.5460  128.0650   65.8160 C   0  0  0  0  0  0  0  0  0  0  0  0
  127.6760  128.9530   65.0030 C   0  0  0  0  0  0  0  0  0  0  0  0
  126.8650  128.4200   64.0010 C   0  0  0  0  0  0  0  0  0  0  0  0
  126.0340  129.2460   63.2510 C   0  0  0  0  0  0  0  0  0  0  0  0
  125.9930  130.6300   63.4820 C   0  0  0  0  0  0  0  0  0  0  0  0
  125.1550  131.4770   62.7510 N   0  0  0  0  0  0  0  0  0  0  0  0
  124.9580  132.8670   63.2060 C   0  0  0  0  0  0  0  0  0  0  0  0
  123.7310  133.5490   62.5630 C   0  0  0  0  0  0  0  0  0  0  0  0
  123.8310  133.4930   61.1480 O   0  0  0  0  0  0  0  0  0  0  0  0
  123.8870  132.1550   60.6770 C   0  0  0  0  0  0  0  0  0  0  0  0
  125.1140  131.4350   61.2760 C   0  0  0  0  0  0  0  0  0  0  0  0
  126.7990  131.1520   64.5040 C   0  0  0  0  0  0  0  0  0  0  0  0
  127.6300  130.3250   65.2550 C   0  0  0  0  0  0  0  0  0  0  0  0
  129.5800  127.2590   65.2620 C   0  0  0  0  0  0  0  0  0  0  0  0
  128.6810  127.1440   62.3190 H   0  0  0  0  0  0  0  0  0  0  0  0
  129.7120  128.5120   62.4870 H   0  0  0  0  0  0  0  0  0  0  0  0
  132.7640  124.2860   63.7400 H   0  0  0  0  0  0  0  0  0  0  0  0
  131.8618  123.3581   60.4034 H   0  0  0  0  0  0  0  0  0  0  0  0
  133.9642  122.3651   59.0646 H   0  0  0  0  0  0  0  0  0  0  0  0
  127.1052  126.0400   69.3824 H   0  0  0  0  0  0  0  0  0  0  0  0
  126.7883  125.9390   71.8352 H   0  0  0  0  0  0  0  0  0  0  0  0
  128.2982  128.9602   74.4399 H   0  0  0  0  0  0  0  0  0  0  0  0
  126.7349  128.2064   73.8602 H   0  0  0  0  0  0  0  0  0  0  0  0
  126.8304  128.5334   76.3479 H   0  0  0  0  0  0  0  0  0  0  0  0
  126.5946  126.8254   75.8305 H   0  0  0  0  0  0  0  0  0  0  0  0
  129.9816  125.8976   76.5733 H   0  0  0  0  0  0  0  0  0  0  0  0
  128.3875  125.3242   75.9614 H   0  0  0  0  0  0  0  0  0  0  0  0
  130.3109  127.2686   74.5779 H   0  0  0  0  0  0  0  0  0  0  0  0
  129.8769  125.5617   74.0834 H   0  0  0  0  0  0  0  0  0  0  0  0
  130.4722  128.1185   72.3991 H   0  0  0  0  0  0  0  0  0  0  0  0
  130.7937  128.2081   69.9469 H   0  0  0  0  0  0  0  0  0  0  0  0
  127.5430  128.6056   67.6566 H   0  0  0  0  0  0  0  0  0  0  0  0
  126.8827  127.3382   63.8023 H   0  0  0  0  0  0  0  0  0  0  0  0
  125.4000  128.8084   62.4658 H   0  0  0  0  0  0  0  0  0  0  0  0
  124.8230  132.8618   64.2977 H   0  0  0  0  0  0  0  0  0  0  0  0
  125.8468  133.4396   62.9025 H   0  0  0  0  0  0  0  0  0  0  0  0
  122.8158  133.0303   62.8844 H   0  0  0  0  0  0  0  0  0  0  0  0
  123.6945  134.6013   62.8813 H   0  0  0  0  0  0  0  0  0  0  0  0
  122.9712  131.6247   60.9770 H   0  0  0  0  0  0  0  0  0  0  0  0
  123.9722  132.1617   59.5803 H   0  0  0  0  0  0  0  0  0  0  0  0
  125.0907  130.3824   60.9575 H   0  0  0  0  0  0  0  0  0  0  0  0
  126.0092  131.9597   60.9108 H   0  0  0  0  0  0  0  0  0  0  0  0
  126.7743  132.2312   64.7155 H   0  0  0  0  0  0  0  0  0  0  0  0
  128.2542  130.7556   66.0519 H   0  0  0  0  0  0  0  0  0  0  0  0
  1  2  1  0
  2  3  2  0
  3  4  1  0
  4  5  2  0
  4  6  1  0
  6  7  1  0
  7  8  1  0
  8  9  2  0
  9 10  1  0
 10 11  1  0
  3 12  1  0
 12 13  1  0
 13 14  2  0
 14 15  1  0
 15 16  1  0
 16 17  2  0
 17 18  1  0
 18 19  2  0
 19 20  1  0
 20 21  1  0
 21 22  1  0
 22 23  1  0
 23 24  1  0
 24 25  1  0
 19 26  1  0
 26 27  2  0
 15 28  2  0
 28 29  1  0
 29 30  1  0
 30 31  2  0
 31 32  1  0
 32 33  2  0
 33 34  1  0
 34 35  1  0
 35 36  1  0
 36 37  1  0
 37 38  1  0
 38 39  1  0
 33 40  1  0
 40 41  2  0
 29 42  2  0
 42  2  1  0
 11  7  2  0
 42 13  1  0
 27 16  1  0
 41 30  1  0
 25 20  1  0
 39 34  1  0
  1 43  1  0
  1 44  1  0
  6 45  1  0
  8 46  1  0
  9 47  1  0
 17 48  1  0
 18 49  1  0
 21 50  1  0
 21 51  1  0
 22 52  1  0
 22 53  1  0
 24 54  1  0
 24 55  1  0
 25 56  1  0
 25 57  1  0
 26 58  1  0
 27 59  1  0
 28 60  1  0
 31 61  1  0
 32 62  1  0
 35 63  1  0
 35 64  1  0
 36 65  1  0
 36 66  1  0
 38 67  1  0
 38 68  1  0
 39 69  1  0
 39 70  1  0
 40 71  1  0
 41 72  1  0
M  END
>  <Binding energies>  (1) 
[-9.62]

>  <Ligand effiencies>  (1) 
[-0.21377777777777776]

>  <Interactions>  (1) 
["V-B:TYR:539:CE2:9845, V-B:TYR:539:CZ:9846, V-B:GLU:543:CD:9877, H-B:GLU:543:OE2:9879, V-A:ARG:545:CZ:4923, V-A:GLU:543:CD:4905, V-A:HIS:456:CE1:4066, H-A:ARG:545:NH2:4925, V-A:ASP:366:CG:3209, V-A:GLU:543:CG:4904, H-A:GLY:454:N:4046, H-A:TYR:484:OH:4344, V-B:ASP:366:CG:8181, V-A:LYS:547:CE:4947, V-B:HIS:456:CD2:9036, H-A:GLU:543:OE1:4906, V-A:ILE:369:CB:3232, V-A:ILE:369:CG2:3233, V-B:LYS:547:CE:9919, V-B:HIS:456:CE1:9038, V-B:GLY:544:C:9881, V-A:ILE:369:CG1:3234, V-B:LYS:547:CD:9918, V-B:GLY:454:CA:9017, V-B:ILE:369:CG2:8205, V-B:ILE:369:CD1:8207, H-A:GLU:543:OE2:4907, V-B:ILE:369:CB:8204, V-B:LEU:475:CD2:9227"]

$$$$
9c_Ghoteimi_2023
     RDKit          3D

 72 78  0  0  0  0  0  0  0  0999 V2000
  129.1980  127.8300   62.8600 N   0  0  0  0  0  0  0  0  0  0  0  0
  128.6240  128.2820   64.0210 C   0  0  0  0  0  0  0  0  0  0  0  0
  127.6660  129.3080   64.0620 C   0  0  0  0  0  0  0  0  0  0  0  0
  127.0860  130.0610   62.9460 C   0  0  0  0  0  0  0  0  0  0  0  0
  125.9590  129.7960   62.5230 O   0  0  0  0  0  0  0  0  0  0  0  0
  127.8740  131.0370   62.4320 N   0  0  0  0  0  0  0  0  0  0  0  0
  127.5730  131.8800   61.3710 C   0  0  0  0  0  0  0  0  0  0  0  0
  128.1450  131.9250   60.1870 N   0  0  0  0  0  0  0  0  0  0  0  0
  127.6070  132.8570   59.4240 C   0  0  0  0  0  0  0  0  0  0  0  0
  126.5720  133.5960   59.9920 C   0  0  0  0  0  0  0  0  0  0  0  0
  126.2960  133.0300   61.6120 S   0  0  0  0  0  0  0  0  0  0  0  0
  127.1700  129.6510   65.7180 S   0  0  0  0  0  0  0  0  0  0  0  0
  128.2580  128.4370   66.3450 C   0  0  0  0  0  0  0  0  0  0  0  0
  128.3750  128.2110   67.6530 N   0  0  0  0  0  0  0  0  0  0  0  0
  129.2620  127.2570   68.0370 C   0  0  0  0  0  0  0  0  0  0  0  0
  129.3890  127.0400   69.5100 C   0  0  0  0  0  0  0  0  0  0  0  0
  128.5670  126.1270   70.1810 C   0  0  0  0  0  0  0  0  0  0  0  0
  128.6820  125.9350   71.5540 C   0  0  0  0  0  0  0  0  0  0  0  0
  129.6180  126.6600   72.3110 C   0  0  0  0  0  0  0  0  0  0  0  0
  129.7510  126.4730   73.6910 N   0  0  0  0  0  0  0  0  0  0  0  0
  130.2740  125.2100   74.2500 C   0  0  0  0  0  0  0  0  0  0  0  0
  130.6790  125.3050   75.7360 C   0  0  0  0  0  0  0  0  0  0  0  0
  129.5880  125.7850   76.5040 O   0  0  0  0  0  0  0  0  0  0  0  0
  129.1860  127.0780   76.0840 C   0  0  0  0  0  0  0  0  0  0  0  0
  128.7390  127.0410   74.6060 C   0  0  0  0  0  0  0  0  0  0  0  0
  130.4510  127.5590   71.6300 C   0  0  0  0  0  0  0  0  0  0  0  0
  130.3370  127.7470   70.2560 C   0  0  0  0  0  0  0  0  0  0  0  0
  130.0060  126.5150   67.1160 C   0  0  0  0  0  0  0  0  0  0  0  0
  129.8700  126.7330   65.7410 C   0  0  0  0  0  0  0  0  0  0  0  0
  130.6590  125.8970   64.8020 C   0  0  0  0  0  0  0  0  0  0  0  0
  132.0530  125.9600   64.8030 C   0  0  0  0  0  0  0  0  0  0  0  0
  132.7970  125.1650   63.9350 C   0  0  0  0  0  0  0  0  0  0  0  0
  132.1660  124.2860   63.0420 C   0  0  0  0  0  0  0  0  0  0  0  0
  132.8930  123.4700   62.1700 N   0  0  0  0  0  0  0  0  0  0  0  0
  134.2230  123.9150   61.7090 C   0  0  0  0  0  0  0  0  0  0  0  0
  134.7320  123.1370   60.4760 C   0  0  0  0  0  0  0  0  0  0  0  0
  134.7340  121.7430   60.7490 O   0  0  0  0  0  0  0  0  0  0  0  0
  133.4350  121.2680   61.0630 C   0  0  0  0  0  0  0  0  0  0  0  0
  132.8890  122.0010   62.3070 C   0  0  0  0  0  0  0  0  0  0  0  0
  130.7650  124.2160   63.0640 C   0  0  0  0  0  0  0  0  0  0  0  0
  130.0210  125.0110   63.9310 C   0  0  0  0  0  0  0  0  0  0  0  0
  128.9720  127.7530   65.3160 C   0  0  0  0  0  0  0  0  0  0  0  0
  129.9060  128.3610   62.3730 H   0  0  0  0  0  0  0  0  0  0  0  0
  128.9300  126.9470   62.4500 H   0  0  0  0  0  0  0  0  0  0  0  0
  128.7780  131.1770   62.8590 H   0  0  0  0  0  0  0  0  0  0  0  0
  127.9561  133.0402   58.3971 H   0  0  0  0  0  0  0  0  0  0  0  0
  126.0187  134.4068   59.4956 H   0  0  0  0  0  0  0  0  0  0  0  0
  127.8191  125.5529   69.6143 H   0  0  0  0  0  0  0  0  0  0  0  0
  128.0301  125.2042   72.0550 H   0  0  0  0  0  0  0  0  0  0  0  0
  129.4956  124.4390   74.1517 H   0  0  0  0  0  0  0  0  0  0  0  0
  131.1854  124.9639   73.6855 H   0  0  0  0  0  0  0  0  0  0  0  0
  130.9701  124.3083   76.0991 H   0  0  0  0  0  0  0  0  0  0  0  0
  131.5260  125.9995   75.8367 H   0  0  0  0  0  0  0  0  0  0  0  0
  128.3478  127.4193   76.7092 H   0  0  0  0  0  0  0  0  0  0  0  0
  130.0351  127.7698   76.1861 H   0  0  0  0  0  0  0  0  0  0  0  0
  127.8261  126.4314   74.5349 H   0  0  0  0  0  0  0  0  0  0  0  0
  128.5746  128.0832   74.2948 H   0  0  0  0  0  0  0  0  0  0  0  0
  131.2081  128.1257   72.1919 H   0  0  0  0  0  0  0  0  0  0  0  0
  131.0021  128.4619   69.7495 H   0  0  0  0  0  0  0  0  0  0  0  0
  130.7081  125.7491   67.4771 H   0  0  0  0  0  0  0  0  0  0  0  0
  132.5680  126.6428   65.4947 H   0  0  0  0  0  0  0  0  0  0  0  0
  133.8951  125.2271   63.9497 H   0  0  0  0  0  0  0  0  0  0  0  0
  134.1637  124.9821   61.4488 H   0  0  0  0  0  0  0  0  0  0  0  0
  134.9322  123.7280   62.5288 H   0  0  0  0  0  0  0  0  0  0  0  0
  134.0723  123.3397   59.6194 H   0  0  0  0  0  0  0  0  0  0  0  0
  135.7568  123.4610   60.2420 H   0  0  0  0  0  0  0  0  0  0  0  0
  132.7648  121.4502   60.2099 H   0  0  0  0  0  0  0  0  0  0  0  0
  133.4870  120.1897   61.2742 H   0  0  0  0  0  0  0  0  0  0  0  0
  131.8546  121.6698   62.4809 H   0  0  0  0  0  0  0  0  0  0  0  0
  133.5523  121.7514   63.1483 H   0  0  0  0  0  0  0  0  0  0  0  0
  130.2466  123.5223   62.3857 H   0  0  0  0  0  0  0  0  0  0  0  0
  128.9232  124.9410   63.9302 H   0  0  0  0  0  0  0  0  0  0  0  0
  1  2  1  0
  2  3  2  0
  3  4  1  0
  4  5  2  0
  4  6  1  0
  6  7  1  0
  7  8  2  0
  8  9  1  0
  9 10  2  0
 10 11  1  0
  3 12  1  0
 12 13  1  0
 13 14  2  0
 14 15  1  0
 15 16  1  0
 16 17  2  0
 17 18  1  0
 18 19  2  0
 19 20  1  0
 20 21  1  0
 21 22  1  0
 22 23  1  0
 23 24  1  0
 24 25  1  0
 19 26  1  0
 26 27  2  0
 15 28  2  0
 28 29  1  0
 29 30  1  0
 30 31  2  0
 31 32  1  0
 32 33  2  0
 33 34  1  0
 34 35  1  0
 35 36  1  0
 36 37  1  0
 37 38  1  0
 38 39  1  0
 33 40  1  0
 40 41  2  0
 29 42  2  0
 42  2  1  0
 11  7  1  0
 42 13  1  0
 27 16  1  0
 41 30  1  0
 25 20  1  0
 39 34  1  0
  1 43  1  0
  1 44  1  0
  6 45  1  0
  9 46  1  0
 10 47  1  0
 17 48  1  0
 18 49  1  0
 21 50  1  0
 21 51  1  0
 22 52  1  0
 22 53  1  0
 24 54  1  0
 24 55  1  0
 25 56  1  0
 25 57  1  0
 26 58  1  0
 27 59  1  0
 28 60  1  0
 31 61  1  0
 32 62  1  0
 35 63  1  0
 35 64  1  0
 36 65  1  0
 36 66  1  0
 38 67  1  0
 38 68  1  0
 39 69  1  0
 39 70  1  0
 40 71  1  0
 41 72  1  0
M  END
>  <Binding energies>  (1) 
[-9.58]

>  <Ligand effiencies>  (1) 
[-0.21288888888888888]

>  <Interactions>  (1) 
["V-B:TYR:539:CE2:9845, V-A:LEU:475:CD1:4254, V-B:GLU:543:CD:9877, V-B:GLU:543:CG:9876, H-B:GLU:543:OE2:9879, V-A:ARG:545:CZ:4923, V-A:GLY:454:CA:4045, V-A:GLU:543:CD:4905, V-A:HIS:456:CE1:4066, V-A:ASP:366:CG:3209, V-A:TYR:539:CD2:4871, V-A:TYR:539:CE2:4873, V-A:LYS:547:CE:4947, H-A:GLU:543:OE1:4906, V-A:ILE:369:CB:3232, V-A:GLU:543:CB:4903, V-A:ILE:369:CG2:3233, V-B:LYS:547:CE:9919, V-B:HIS:456:CE1:9038, V-A:GLY:453:C:4038, V-A:GLY:453:CA:4040, V-A:ILE:369:CG1:3234, V-B:LYS:547:CD:9918, H-A:GLU:543:OE2:4907, V-A:ASP:366:CA:3206, V-A:HIS:456:CD2:4064"]

$$$$
9d_Ghoteimi_2023
     RDKit          3D

 68 73  0  0  0  0  0  0  0  0999 V2000
  127.7940  122.7850   56.4430 C   0  0  0  0  0  0  0  0  0  0  0  0
  128.6500  123.1870   57.5030 O   0  0  0  0  0  0  0  0  0  0  0  0
  128.5620  122.6050   58.7270 C   0  0  0  0  0  0  0  0  0  0  0  0
  128.3820  121.3980   58.9060 O   0  0  0  0  0  0  0  0  0  0  0  0
  128.7000  123.5740   59.8370 C   0  0  0  0  0  0  0  0  0  0  0  0
  128.5140  123.0320   61.5040 S   0  0  0  0  0  0  0  0  0  0  0  0
  128.8340  124.6410   62.1050 C   0  0  0  0  0  0  0  0  0  0  0  0
  128.8710  124.9040   63.4110 N   0  0  0  0  0  0  0  0  0  0  0  0
  129.1450  126.1840   63.7760 C   0  0  0  0  0  0  0  0  0  0  0  0
  129.2060  126.4500   65.2460 C   0  0  0  0  0  0  0  0  0  0  0  0
  129.4510  125.4080   66.1460 C   0  0  0  0  0  0  0  0  0  0  0  0
  129.5070  125.6440   67.5170 C   0  0  0  0  0  0  0  0  0  0  0  0
  129.3330  126.9360   68.0370 C   0  0  0  0  0  0  0  0  0  0  0  0
  129.3700  127.1870   69.4140 N   0  0  0  0  0  0  0  0  0  0  0  0
  128.7690  126.2470   70.3820 C   0  0  0  0  0  0  0  0  0  0  0  0
  128.5920  126.8360   71.7970 C   0  0  0  0  0  0  0  0  0  0  0  0
  129.8310  127.3350   72.2730 O   0  0  0  0  0  0  0  0  0  0  0  0
  130.3330  128.3640   71.4360 C   0  0  0  0  0  0  0  0  0  0  0  0
  130.5630  127.8240   70.0090 C   0  0  0  0  0  0  0  0  0  0  0  0
  129.0730  127.9750   67.1310 C   0  0  0  0  0  0  0  0  0  0  0  0
  129.0130  127.7370   65.7610 C   0  0  0  0  0  0  0  0  0  0  0  0
  129.3480  127.1990   62.8380 C   0  0  0  0  0  0  0  0  0  0  0  0
  129.2920  126.9320   61.4650 C   0  0  0  0  0  0  0  0  0  0  0  0
  129.4880  128.0550   60.5100 C   0  0  0  0  0  0  0  0  0  0  0  0
  130.6480  128.8310   60.5510 C   0  0  0  0  0  0  0  0  0  0  0  0
  130.8350  129.8700   59.6430 C   0  0  0  0  0  0  0  0  0  0  0  0
  129.8740  130.1480   58.6580 C   0  0  0  0  0  0  0  0  0  0  0  0
  130.0340  131.1900   57.7420 N   0  0  0  0  0  0  0  0  0  0  0  0
  128.9270  131.5110   56.8200 C   0  0  0  0  0  0  0  0  0  0  0  0
  129.0740  132.8940   56.1500 C   0  0  0  0  0  0  0  0  0  0  0  0
  130.3270  132.9840   55.4890 O   0  0  0  0  0  0  0  0  0  0  0  0
  131.4100  132.8140   56.3920 C   0  0  0  0  0  0  0  0  0  0  0  0
  131.3220  131.4270   57.0630 C   0  0  0  0  0  0  0  0  0  0  0  0
  128.7120  129.3620   58.6280 C   0  0  0  0  0  0  0  0  0  0  0  0
  128.5250  128.3260   59.5370 C   0  0  0  0  0  0  0  0  0  0  0  0
  129.0470  125.5900   61.0620 C   0  0  0  0  0  0  0  0  0  0  0  0
  128.9830  124.9440   59.7760 C   0  0  0  0  0  0  0  0  0  0  0  0
  129.2030  125.6090   58.5970 N   0  0  0  0  0  0  0  0  0  0  0  0
  126.8726  122.3523   56.8598 H   0  0  0  0  0  0  0  0  0  0  0  0
  127.5415  123.6587   55.8242 H   0  0  0  0  0  0  0  0  0  0  0  0
  128.3051  122.0328   55.8242 H   0  0  0  0  0  0  0  0  0  0  0  0
  129.6017  124.3871   65.7652 H   0  0  0  0  0  0  0  0  0  0  0  0
  129.6905  124.8044   68.2036 H   0  0  0  0  0  0  0  0  0  0  0  0
  127.7800  125.9470   70.0054 H   0  0  0  0  0  0  0  0  0  0  0  0
  129.4611  125.3970   70.4739 H   0  0  0  0  0  0  0  0  0  0  0  0
  127.8588  127.6552   71.7615 H   0  0  0  0  0  0  0  0  0  0  0  0
  128.2363  126.0462   72.4750 H   0  0  0  0  0  0  0  0  0  0  0  0
  129.6071  129.1896   71.3997 H   0  0  0  0  0  0  0  0  0  0  0  0
  131.2897  128.7234   71.8428 H   0  0  0  0  0  0  0  0  0  0  0  0
  130.8659  128.6629   69.3652 H   0  0  0  0  0  0  0  0  0  0  0  0
  131.3390  127.0476   70.0810 H   0  0  0  0  0  0  0  0  0  0  0  0
  128.9138  128.9954   67.5099 H   0  0  0  0  0  0  0  0  0  0  0  0
  128.8111  128.5718   65.0737 H   0  0  0  0  0  0  0  0  0  0  0  0
  129.5548  128.2227   63.1832 H   0  0  0  0  0  0  0  0  0  0  0  0
  131.4197  128.6201   61.3060 H   0  0  0  0  0  0  0  0  0  0  0  0
  131.7479  130.4812   59.6982 H   0  0  0  0  0  0  0  0  0  0  0  0
  128.8939  130.7432   56.0330 H   0  0  0  0  0  0  0  0  0  0  0  0
  128.0023  131.5333   57.4153 H   0  0  0  0  0  0  0  0  0  0  0  0
  128.2652  133.0313   55.4172 H   0  0  0  0  0  0  0  0  0  0  0  0
  129.0163  133.6762   56.9213 H   0  0  0  0  0  0  0  0  0  0  0  0
  132.3593  132.8935   55.8420 H   0  0  0  0  0  0  0  0  0  0  0  0
  131.3620  133.5943   57.1659 H   0  0  0  0  0  0  0  0  0  0  0  0
  131.4569  130.6558   56.2903 H   0  0  0  0  0  0  0  0  0  0  0  0
  132.1086  131.3851   57.8308 H   0  0  0  0  0  0  0  0  0  0  0  0
  127.9376  129.5682   57.8745 H   0  0  0  0  0  0  0  0  0  0  0  0
  127.6111  127.7157   59.4886 H   0  0  0  0  0  0  0  0  0  0  0  0
  129.7930  126.4270   58.5500 H   0  0  0  0  0  0  0  0  0  0  0  0
  128.7850  125.2990   57.7310 H   0  0  0  0  0  0  0  0  0  0  0  0
  1  2  1  0
  2  3  1  0
  3  4  2  0
  3  5  1  0
  5  6  1  0
  6  7  1  0
  7  8  2  0
  8  9  1  0
  9 10  1  0
 10 11  2  0
 11 12  1  0
 12 13  2  0
 13 14  1  0
 14 15  1  0
 15 16  1  0
 16 17  1  0
 17 18  1  0
 18 19  1  0
 13 20  1  0
 20 21  2  0
  9 22  2  0
 22 23  1  0
 23 24  1  0
 24 25  2  0
 25 26  1  0
 26 27  2  0
 27 28  1  0
 28 29  1  0
 29 30  1  0
 30 31  1  0
 31 32  1  0
 32 33  1  0
 27 34  1  0
 34 35  2  0
 23 36  2  0
 36 37  1  0
 37 38  1  0
 37  5  2  0
 36  7  1  0
 21 10  1  0
 35 24  1  0
 19 14  1  0
 33 28  1  0
  1 39  1  0
  1 40  1  0
  1 41  1  0
 11 42  1  0
 12 43  1  0
 15 44  1  0
 15 45  1  0
 16 46  1  0
 16 47  1  0
 18 48  1  0
 18 49  1  0
 19 50  1  0
 19 51  1  0
 20 52  1  0
 21 53  1  0
 22 54  1  0
 25 55  1  0
 26 56  1  0
 29 57  1  0
 29 58  1  0
 30 59  1  0
 30 60  1  0
 32 61  1  0
 32 62  1  0
 33 63  1  0
 33 64  1  0
 34 65  1  0
 35 66  1  0
 38 67  1  0
 38 68  1  0
M  END
>  <Binding energies>  (1) 
[-8.28]

>  <Ligand effiencies>  (1) 
[-0.207]

>  <Interactions>  (1) 
["V-B:TYR:539:CE2:9845, V-B:TYR:539:CZ:9846, V-B:TYR:539:CD1:9842, V-B:ALA:541:CB:9861, V-B:TYR:539:CE1:9844, V-B:GLU:543:CD:9877, V-B:GLU:543:CG:9876, V-A:GLU:543:CD:4905, V-A:HIS:456:CE1:4066, V-B:GLU:543:CB:9875, V-A:PRO:540:CB:4882, V-A:TYR:539:C:4864, V-A:PRO:540:CA:4880, H-A:TYR:539:N:4867, V-A:PRO:540:N:4881, V-A:TYR:539:CD1:4870, V-A:ILE:538:CG2:4860, V-A:TYR:539:CZ:4874, V-B:TYR:539:CD2:9843, V-A:TYR:539:CD2:4871, V-A:TYR:539:CE2:4873, V-A:TYR:539:CG:4869, V-B:HIS:456:CD2:9036, V-A:GLU:543:CB:4903, V-A:GLU:543:C:4899, H-A:LYS:547:NZ:4948, V-A:GLY:544:C:4909, V-B:HIS:456:CE1:9038, V-A:TYR:539:CA:4866, V-A:PRO:540:CD:4884, V-A:HIS:456:CD2:4064"]

$$$$
RR10_Rahimova_2017
     RDKit          3D

 66 70  0  0  0  0  0  0  0  0999 V2000
  130.8710  125.9200   64.8600 C   0  0  0  0  0  0  0  0  0  0  0  0
  131.5530  124.8400   64.0020 C   0  0  1  0  0  0  0  0  0  0  0  0
  130.8460  123.4710   64.1280 C   0  0  0  0  0  0  0  0  0  0  0  0
  131.5680  122.3950   63.2860 C   0  0  0  0  0  0  0  0  0  0  0  0
  131.6540  122.7850   61.7880 C   0  0  1  0  0  0  0  0  0  0  0  0
  130.3220  122.7730   61.1700 N   0  0  0  0  0  0  0  0  0  0  0  0
  129.5530  121.6830   60.9940 C   0  0  0  0  0  0  0  0  0  0  0  0
  129.8910  120.5560   61.3640 O   0  0  0  0  0  0  0  0  0  0  0  0
  128.2020  121.8940   60.2800 C   0  0  1  0  0  0  0  0  0  0  0  0
  127.3250  122.8640   61.1140 C   0  0  0  0  0  0  0  0  0  0  0  0
  126.0070  123.1510   60.3560 C   0  0  0  0  0  0  0  0  0  0  0  0
  126.2490  123.6160   58.9010 C   0  0  0  0  0  0  0  0  0  0  0  0
  127.1490  122.6680   58.1900 N   0  0  0  0  0  0  0  0  0  0  0  0
  127.2580  122.9320   56.4410 S   0  0  0  0  0  0  0  0  0  0  0  0
  126.0410  123.6280   56.0080 O   0  0  0  0  0  0  0  0  0  0  0  0
  127.6450  121.6610   55.8170 O   0  0  0  0  0  0  0  0  0  0  0  0
  128.6140  124.0850   56.2280 C   0  0  0  0  0  0  0  0  0  0  0  0
  129.5630  123.8490   55.2280 C   0  0  0  0  0  0  0  0  0  0  0  0
  130.6450  124.7080   55.0120 C   0  0  0  0  0  0  0  0  0  0  0  0
  130.7320  125.8240   55.8480 C   0  0  0  0  0  0  0  0  0  0  0  0
  131.6210  126.8670   55.9540 N   0  0  0  0  0  0  0  0  0  0  0  0
  131.1960  127.6850   56.9800 C   0  0  0  0  0  0  0  0  0  0  0  0
  131.9200  128.9300   57.4040 C   0  0  0  0  0  0  0  0  0  0  0  0
  131.2820  129.8820   58.2120 C   0  0  0  0  0  0  0  0  0  0  0  0
  131.9530  131.0350   58.6090 C   0  0  0  0  0  0  0  0  0  0  0  0
  133.2680  131.2440   58.1990 C   0  0  0  0  0  0  0  0  0  0  0  0
  133.9160  130.3090   57.3970 C   0  0  0  0  0  0  0  0  0  0  0  0
  133.2430  129.1560   57.0010 C   0  0  0  0  0  0  0  0  0  0  0  0
  130.0910  127.2420   57.5370 N   0  0  0  0  0  0  0  0  0  0  0  0
  129.7810  126.0910   56.8610 C   0  0  0  0  0  0  0  0  0  0  0  0
  128.7050  125.2130   57.0530 C   0  0  0  0  0  0  0  0  0  0  0  0
  128.4570  122.4730   58.8660 C   0  0  0  0  0  0  0  0  0  0  0  0
  132.3500  124.1690   61.6780 C   0  0  0  0  0  0  0  0  0  0  0  0
  131.6270  125.2490   62.5120 C   0  0  0  0  0  0  0  0  0  0  0  0
  131.0173  125.6884   65.9253 H   0  0  0  0  0  0  0  0  0  0  0  0
  131.3135  126.9014   64.6340 H   0  0  0  0  0  0  0  0  0  0  0  0
  129.7947  125.9423   64.6340 H   0  0  0  0  0  0  0  0  0  0  0  0
  132.5772  124.7430   64.3913 H   0  0  0  0  0  0  0  0  0  0  0  0
  130.8464  123.1618   65.1836 H   0  0  0  0  0  0  0  0  0  0  0  0
  129.8156  123.5733   63.7567 H   0  0  0  0  0  0  0  0  0  0  0  0
  132.5877  122.2641   63.6772 H   0  0  0  0  0  0  0  0  0  0  0  0
  130.9886  121.4629   63.3599 H   0  0  0  0  0  0  0  0  0  0  0  0
  132.2543  122.0482   61.2342 H   0  0  0  0  0  0  0  0  0  0  0  0
  130.0240  123.6400   60.7460 H   0  0  0  0  0  0  0  0  0  0  0  0
  127.6734  120.9343   60.1823 H   0  0  0  0  0  0  0  0  0  0  0  0
  127.0956  122.4057   62.0873 H   0  0  0  0  0  0  0  0  0  0  0  0
  127.8697  123.8067   61.2712 H   0  0  0  0  0  0  0  0  0  0  0  0
  125.4039  122.2313   60.3366 H   0  0  0  0  0  0  0  0  0  0  0  0
  125.4881  123.9642   60.8845 H   0  0  0  0  0  0  0  0  0  0  0  0
  125.2856  123.6650   58.3724 H   0  0  0  0  0  0  0  0  0  0  0  0
  126.7238  124.6081   58.9205 H   0  0  0  0  0  0  0  0  0  0  0  0
  129.4547  122.9589   54.5909 H   0  0  0  0  0  0  0  0  0  0  0  0
  131.3889  124.5151   54.2249 H   0  0  0  0  0  0  0  0  0  0  0  0
  132.4530  127.0460   55.4090 H   0  0  0  0  0  0  0  0  0  0  0  0
  130.2435  129.7164   58.5345 H   0  0  0  0  0  0  0  0  0  0  0  0
  131.4474  131.7778   59.2435 H   0  0  0  0  0  0  0  0  0  0  0  0
  133.7985  132.1555   58.5117 H   0  0  0  0  0  0  0  0  0  0  0  0
  134.9546  130.4800   57.0776 H   0  0  0  0  0  0  0  0  0  0  0  0
  133.7540  128.4167   56.3667 H   0  0  0  0  0  0  0  0  0  0  0  0
  127.9519  125.4051   57.8314 H   0  0  0  0  0  0  0  0  0  0  0  0
  129.0737  121.7720   58.2844 H   0  0  0  0  0  0  0  0  0  0  0  0
  128.9865  123.4341   58.9437 H   0  0  0  0  0  0  0  0  0  0  0  0
  133.3849  124.0756   62.0389 H   0  0  0  0  0  0  0  0  0  0  0  0
  132.3225  124.4798   60.6232 H   0  0  0  0  0  0  0  0  0  0  0  0
  132.1767  126.1979   62.4261 H   0  0  0  0  0  0  0  0  0  0  0  0
  130.6025  125.3616   62.1277 H   0  0  0  0  0  0  0  0  0  0  0  0
  1  2  1  0
  2  3  1  0
  3  4  1  0
  4  5  1  0
  5  6  1  0
  6  7  1  0
  7  8  2  0
  7  9  1  0
  9 10  1  0
 10 11  1  0
 11 12  1  0
 12 13  1  0
 13 14  1  0
 14 15  2  0
 14 16  2  0
 14 17  1  0
 17 18  2  0
 18 19  1  0
 19 20  2  0
 20 21  1  0
 21 22  1  0
 22 23  1  0
 23 24  2  0
 24 25  1  0
 25 26  2  0
 26 27  1  0
 27 28  2  0
 22 29  2  0
 29 30  1  0
 30 31  2  0
 13 32  1  0
  5 33  1  0
 33 34  1  0
 34  2  1  0
 32  9  1  0
 31 17  1  0
 30 20  1  0
 28 23  1  0
  1 35  1  0
  1 36  1  0
  1 37  1  0
  2 38  1  1
  3 39  1  0
  3 40  1  0
  4 41  1  0
  4 42  1  0
  5 43  1  6
  6 44  1  0
  9 45  1  6
 10 46  1  0
 10 47  1  0
 11 48  1  0
 11 49  1  0
 12 50  1  0
 12 51  1  0
 18 52  1  0
 19 53  1  0
 21 54  1  0
 24 55  1  0
 25 56  1  0
 26 57  1  0
 27 58  1  0
 28 59  1  0
 31 60  1  0
 32 61  1  0
 32 62  1  0
 33 63  1  0
 33 64  1  0
 34 65  1  0
 34 66  1  0
M  END
>  <Binding energies>  (1) 
[-10.18]

>  <Ligand effiencies>  (1) 
[-0.2827777777777778]

>  <Interactions>  (1) 
["V-B:TYR:539:CE2:9845, V-B:PRO:540:CB:9854, V-B:TYR:539:CZ:9846, V-A:LEU:475:CD1:4254, V-B:PRO:540:CA:9852, H-B:TYR:539:N:9839, V-B:PRO:540:C:9850, V-B:TYR:539:C:9836, V-B:ALA:541:CB:9861, V-B:TYR:539:CE1:9844, V-B:MET:535:CE:9804, V-A:ASP:366:CB:3208, V-A:ASP:366:CG:3209, V-A:TYR:531:CE1:4789, H-A:TYR:531:OH:4792, V-A:PRO:540:CB:4882, V-A:PRO:540:CA:4880, V-A:LEU:363:CD1:3185, V-A:TYR:531:CZ:4791, V-B:TYR:539:CD2:9843, V-A:LEU:363:CA:3181, V-A:LEU:363:CB:3183, V-B:ALA:541:CA:9859, V-A:LEU:363:C:3179"]

$$$$
RR11_Rahimova_2017
     RDKit          3D

 55 60  0  0  0  0  0  0  0  0999 V2000
  134.3450  121.7420   60.8490 N   0  0  0  0  0  0  0  0  0  0  0  0
  133.5610  122.5400   61.6810 C   0  0  0  0  0  0  0  0  0  0  0  0
  132.4120  122.0120   62.2670 C   0  0  0  0  0  0  0  0  0  0  0  0
  131.6320  122.8080   63.1000 C   0  0  0  0  0  0  0  0  0  0  0  0
  131.9920  124.1380   63.3560 C   0  0  0  0  0  0  0  0  0  0  0  0
  131.1540  124.9930   64.2590 C   0  0  0  0  0  0  0  0  0  0  0  0
  130.8260  126.2410   64.0070 N   0  0  0  0  0  0  0  0  0  0  0  0
  130.0550  126.6350   65.0690 C   0  0  0  0  0  0  0  0  0  0  0  0
  129.4370  127.8700   65.3060 C   0  0  0  0  0  0  0  0  0  0  0  0
  128.6760  128.0220   66.4710 C   0  0  0  0  0  0  0  0  0  0  0  0
  127.9980  129.3550   66.7580 C   0  0  0  0  0  0  0  0  0  0  0  0
  127.5870  130.0960   65.4930 C   0  0  0  0  0  0  0  0  0  0  0  0
  127.6910  131.4910   65.4480 C   0  0  0  0  0  0  0  0  0  0  0  0
  127.3350  132.2140   64.3080 C   0  0  0  0  0  0  0  0  0  0  0  0
  126.8710  131.5040   63.1930 C   0  0  0  0  0  0  0  0  0  0  0  0
  126.4570  131.9750   61.9740 N   0  0  0  0  0  0  0  0  0  0  0  0
  126.1180  130.9060   61.2860 C   0  0  0  0  0  0  0  0  0  0  0  0
  125.5840  130.9340   59.8830 C   0  0  0  0  0  0  0  0  0  0  0  0
  124.2230  131.1640   59.6450 C   0  0  0  0  0  0  0  0  0  0  0  0
  123.7250  131.1800   58.3440 C   0  0  0  0  0  0  0  0  0  0  0  0
  124.5870  130.9650   57.2710 C   0  0  0  0  0  0  0  0  0  0  0  0
  124.0890  130.9750   55.9680 N   0  0  0  0  0  0  0  0  0  0  0  0
  125.9430  130.7380   57.4920 C   0  0  0  0  0  0  0  0  0  0  0  0
  126.4390  130.7230   58.7930 C   0  0  0  0  0  0  0  0  0  0  0  0
  126.3010  129.7470   62.0090 N   0  0  0  0  0  0  0  0  0  0  0  0
  126.7840  130.0930   63.2490 C   0  0  0  0  0  0  0  0  0  0  0  0
  127.1430  129.3630   64.3850 C   0  0  0  0  0  0  0  0  0  0  0  0
  128.5600  126.9720   67.3880 C   0  0  0  0  0  0  0  0  0  0  0  0
  129.1670  125.7300   67.1840 C   0  0  0  0  0  0  0  0  0  0  0  0
  129.9090  125.5870   66.0090 C   0  0  0  0  0  0  0  0  0  0  0  0
  130.6290  124.5540   65.4570 N   0  0  0  0  0  0  0  0  0  0  0  0
  133.1500  124.6560   62.7600 C   0  0  0  0  0  0  0  0  0  0  0  0
  133.9320  123.8610   61.9260 C   0  0  0  0  0  0  0  0  0  0  0  0
  134.3350  120.7390   60.9680 H   0  0  0  0  0  0  0  0  0  0  0  0
  134.8810  122.1730   60.1100 H   0  0  0  0  0  0  0  0  0  0  0  0
  132.1226  120.9689   62.0715 H   0  0  0  0  0  0  0  0  0  0  0  0
  130.7252  122.3899   63.5615 H   0  0  0  0  0  0  0  0  0  0  0  0
  129.5473  128.7006   64.5933 H   0  0  0  0  0  0  0  0  0  0  0  0
  127.0986  129.1681   67.3630 H   0  0  0  0  0  0  0  0  0  0  0  0
  128.7249  129.9871   67.2890 H   0  0  0  0  0  0  0  0  0  0  0  0
  128.0621  132.0305   66.3319 H   0  0  0  0  0  0  0  0  0  0  0  0
  127.4166  133.3107   64.2859 H   0  0  0  0  0  0  0  0  0  0  0  0
  123.5420  131.3333   60.4921 H   0  0  0  0  0  0  0  0  0  0  0  0
  122.6550  131.3617   58.1647 H   0  0  0  0  0  0  0  0  0  0  0  0
  124.3490  131.7240   55.3420 H   0  0  0  0  0  0  0  0  0  0  0  0
  123.5020  130.2150   55.6550 H   0  0  0  0  0  0  0  0  0  0  0  0
  126.6202  130.5710   56.6414 H   0  0  0  0  0  0  0  0  0  0  0  0
  127.5104  130.5441   58.9665 H   0  0  0  0  0  0  0  0  0  0  0  0
  126.0940  128.8270   61.6470 H   0  0  0  0  0  0  0  0  0  0  0  0
  127.0800  128.2651   64.4081 H   0  0  0  0  0  0  0  0  0  0  0  0
  127.9697  127.1297   68.3027 H   0  0  0  0  0  0  0  0  0  0  0  0
  129.0660  124.9093   67.9094 H   0  0  0  0  0  0  0  0  0  0  0  0
  130.7750  123.6230   65.8190 H   0  0  0  0  0  0  0  0  0  0  0  0
  133.4433  125.6985   62.9525 H   0  0  0  0  0  0  0  0  0  0  0  0
  134.8397  124.2743   61.4620 H   0  0  0  0  0  0  0  0  0  0  0  0
  1  2  1  0
  2  3  2  0
  3  4  1  0
  4  5  2  0
  5  6  1  0
  6  7  2  0
  7  8  1  0
  8  9  2  0
  9 10  1  0
 10 11  1  0
 11 12  1  0
 12 13  2  0
 13 14  1  0
 14 15  2  0
 15 16  1  0
 16 17  2  0
 17 18  1  0
 18 19  2  0
 19 20  1  0
 20 21  2  0
 21 22  1  0
 21 23  1  0
 23 24  2  0
 17 25  1  0
 25 26  1  0
 26 27  2  0
 10 28  2  0
 28 29  1  0
 29 30  2  0
 30 31  1  0
  5 32  1  0
 32 33  2  0
 33  2  1  0
 31  6  1  0
 30  8  1  0
 27 12  1  0
 26 15  1  0
 24 18  1  0
  1 34  1  0
  1 35  1  0
  3 36  1  0
  4 37  1  0
  9 38  1  0
 11 39  1  0
 11 40  1  0
 13 41  1  0
 14 42  1  0
 19 43  1  0
 20 44  1  0
 22 45  1  0
 22 46  1  0
 23 47  1  0
 24 48  1  0
 25 49  1  0
 27 50  1  0
 28 51  1  0
 29 52  1  0
 31 53  1  0
 32 54  1  0
 33 55  1  0
M  END
>  <Binding energies>  (1) 
[-8.18]

>  <Ligand effiencies>  (1) 
[-0.20974358974358973]

>  <Interactions>  (1) 
["V-B:TYR:539:CE2:9845, V-A:TYR:484:CZ:4343, V-A:LEU:475:CD1:4254, V-A:TYR:484:CE1:4341, V-B:GLU:543:CG:9876, V-A:ARG:545:CZ:4923, V-A:GLY:454:CA:4045, V-A:GLU:543:CD:4905, V-A:HIS:456:CE1:4066, H-A:ARG:545:NH2:4925, V-A:ASP:366:CG:3209, V-A:GLU:543:CG:4904, V-B:GLU:543:CB:9875, H-A:TYR:484:OH:4344, H-B:TYR:531:OH:9764, H-A:TYR:539:OH:4875, V-A:TYR:539:CZ:4874, V-B:ASP:366:CB:8180, V-B:TYR:531:CZ:9763, V-A:TYR:539:CE2:4873, V-B:TYR:531:CE1:9761, H-B:ASP:366:OD1:8182, V-B:ASP:366:CG:8181, V-A:ILE:369:CB:3232, V-A:GLU:543:CB:4903, V-A:ILE:369:CG2:3233, V-B:HIS:456:CE1:9038, V-A:ILE:369:CG1:3234, V-B:ILE:369:CG2:8205, V-A:ALA:541:CB:4889, V-B:ASP:366:CA:8178, V-B:ILE:369:CB:8204, V-B:TYR:484:CZ:9315, V-B:TYR:484:CE1:9313, V-A:ILE:369:CD1:3235, V-B:ASP:366:C:8176, H-A:SER:385:O:3402, H-B:ASP:366:O:8177, V-B:ASN:370:CB:8213"]

$$$$
RR11_Rahimova_2017-again1
     RDKit          3D

 56 61  0  0  0  0  0  0  0  0999 V2000
  123.8980  130.9860   56.0000 N   0  0  0  0  0  0  0  0  0  0  0  0
  124.4120  130.9670   57.2960 C   0  0  0  0  0  0  0  0  0  0  0  0
  125.4980  130.1500   57.5990 C   0  0  0  0  0  0  0  0  0  0  0  0
  126.0090  130.1300   58.8960 C   0  0  0  0  0  0  0  0  0  0  0  0
  125.4370  130.9250   59.8970 C   0  0  0  0  0  0  0  0  0  0  0  0
  125.9820  130.8960   61.2950 C   0  0  0  0  0  0  0  0  0  0  0  0
  126.4850  131.9390   61.9170 N   0  0  0  0  0  0  0  0  0  0  0  0
  126.8790  131.4740   63.1450 C   0  0  0  0  0  0  0  0  0  0  0  0
  127.4840  132.1640   64.2030 C   0  0  0  0  0  0  0  0  0  0  0  0
  127.8040  131.4490   65.3580 C   0  0  0  0  0  0  0  0  0  0  0  0
  127.5380  130.0790   65.4700 C   0  0  0  0  0  0  0  0  0  0  0  0
  127.9120  129.3460   66.7510 C   0  0  0  0  0  0  0  0  0  0  0  0
  128.7210  128.0840   66.4890 C   0  0  0  0  0  0  0  0  0  0  0  0
  128.9320  127.1710   67.5280 C   0  0  0  0  0  0  0  0  0  0  0  0
  129.6680  125.9970   67.3490 C   0  0  0  0  0  0  0  0  0  0  0  0
  130.1840  125.7700   66.0700 C   0  0  0  0  0  0  0  0  0  0  0  0
  130.9530  124.7370   65.5510 N   0  0  0  0  0  0  0  0  0  0  0  0
  131.2210  124.9690   64.2220 C   0  0  0  0  0  0  0  0  0  0  0  0
  132.0300  124.1090   63.3050 C   0  0  0  0  0  0  0  0  0  0  0  0
  133.2210  124.5970   62.7540 C   0  0  0  0  0  0  0  0  0  0  0  0
  133.9830  123.7970   61.9060 C   0  0  0  0  0  0  0  0  0  0  0  0
  133.5560  122.5050   61.6040 C   0  0  0  0  0  0  0  0  0  0  0  0
  134.3220  121.7040   60.7590 N   0  0  0  0  0  0  0  0  0  0  0  0
  132.3710  122.0110   62.1460 C   0  0  0  0  0  0  0  0  0  0  0  0
  131.6100  122.8110   62.9940 C   0  0  0  0  0  0  0  0  0  0  0  0
  130.6040  126.1570   63.9030 N   0  0  0  0  0  0  0  0  0  0  0  0
  129.9620  126.6760   65.0180 C   0  0  0  0  0  0  0  0  0  0  0  0
  129.2210  127.8450   65.2020 C   0  0  0  0  0  0  0  0  0  0  0  0
  126.9120  129.3730   64.4340 C   0  0  0  0  0  0  0  0  0  0  0  0
  126.6020  130.0930   63.2780 C   0  0  0  0  0  0  0  0  0  0  0  0
  126.0220  129.7610   62.0760 N   0  0  0  0  0  0  0  0  0  0  0  0
  124.3450  131.7440   59.5770 C   0  0  0  0  0  0  0  0  0  0  0  0
  123.8350  131.7650   58.2810 C   0  0  0  0  0  0  0  0  0  0  0  0
  123.6900  131.8720   55.5620 H   0  0  0  0  0  0  0  0  0  0  0  0
  123.7030  130.1140   55.5300 H   0  0  0  0  0  0  0  0  0  0  0  0
  125.9513  129.5224   56.8176 H   0  0  0  0  0  0  0  0  0  0  0  0
  126.8676  129.4852   59.1348 H   0  0  0  0  0  0  0  0  0  0  0  0
  127.7009  133.2396   64.1257 H   0  0  0  0  0  0  0  0  0  0  0  0
  128.2767  131.9746   66.2008 H   0  0  0  0  0  0  0  0  0  0  0  0
  128.5079  130.0216   67.3822 H   0  0  0  0  0  0  0  0  0  0  0  0
  126.9776  129.0453   67.2474 H   0  0  0  0  0  0  0  0  0  0  0  0
  128.5042  127.3846   68.5186 H   0  0  0  0  0  0  0  0  0  0  0  0
  129.8330  125.2872   68.1730 H   0  0  0  0  0  0  0  0  0  0  0  0
  131.2950  123.9220   66.0390 H   0  0  0  0  0  0  0  0  0  0  0  0
  133.5565  125.6172   62.9920 H   0  0  0  0  0  0  0  0  0  0  0  0
  134.9188  124.1835   61.4760 H   0  0  0  0  0  0  0  0  0  0  0  0
  135.1470  121.2450   61.1200 H   0  0  0  0  0  0  0  0  0  0  0  0
  134.0620  121.6150   59.7880 H   0  0  0  0  0  0  0  0  0  0  0  0
  132.0376  120.9910   61.9043 H   0  0  0  0  0  0  0  0  0  0  0  0
  130.6745  122.4210   63.4214 H   0  0  0  0  0  0  0  0  0  0  0  0
  130.6480  126.5550   62.9770 H   0  0  0  0  0  0  0  0  0  0  0  0
  129.0381  128.5463   64.3745 H   0  0  0  0  0  0  0  0  0  0  0  0
  126.6760  128.3026   64.5268 H   0  0  0  0  0  0  0  0  0  0  0  0
  125.6800  128.8620   61.7670 H   0  0  0  0  0  0  0  0  0  0  0  0
  123.8881  132.3740   60.3544 H   0  0  0  0  0  0  0  0  0  0  0  0
  122.9785  132.4103   58.0360 H   0  0  0  0  0  0  0  0  0  0  0  0
  1  2  1  0
  2  3  2  0
  3  4  1  0
  4  5  2  0
  5  6  1  0
  6  7  2  0
  7  8  1  0
  8  9  2  0
  9 10  1  0
 10 11  2  0
 11 12  1  0
 12 13  1  0
 13 14  2  0
 14 15  1  0
 15 16  2  0
 16 17  1  0
 17 18  1  0
 18 19  1  0
 19 20  2  0
 20 21  1  0
 21 22  2  0
 22 23  1  0
 22 24  1  0
 24 25  2  0
 18 26  2  0
 26 27  1  0
 27 28  2  0
 11 29  1  0
 29 30  2  0
 30 31  1  0
  5 32  1  0
 32 33  2  0
 33  2  1  0
 31  6  1  0
 30  8  1  0
 28 13  1  0
 27 16  1  0
 25 19  1  0
  1 34  1  0
  1 35  1  0
  3 36  1  0
  4 37  1  0
  9 38  1  0
 10 39  1  0
 12 40  1  0
 12 41  1  0
 14 42  1  0
 15 43  1  0
 17 44  1  0
 20 45  1  0
 21 46  1  0
 23 47  1  0
 23 48  1  0
 24 49  1  0
 25 50  1  0
 26 51  1  0
 28 52  1  0
 29 53  1  0
 31 54  1  0
 32 55  1  0
 33 56  1  0
M  CHG  1  26   1
M  END
>  <Binding energies>  (1) 
[-9.5]

>  <Ligand effiencies>  (1) 
[-0.2375]

>  <Interactions>  (1) 
["V-B:TYR:539:CE2:9845, V-A:TYR:484:CZ:4343, V-A:LEU:475:CD1:4254, V-A:TYR:484:CE1:4341, V-A:ARG:545:CZ:4923, V-A:GLY:454:CA:4045, V-A:GLU:543:CD:4905, V-A:HIS:456:CE1:4066, H-B:TYR:539:OH:9847, V-A:ASP:366:CG:3209, V-A:GLU:543:CG:4904, V-B:GLU:543:CB:9875, H-A:TYR:484:OH:4344, H-B:TYR:531:OH:9764, H-A:TYR:539:OH:4875, V-A:TYR:539:CZ:4874, V-B:ASP:366:CB:8180, V-B:TYR:531:CZ:9763, V-A:TYR:539:CE2:4873, V-B:TYR:531:CE1:9761, H-B:ASP:366:OD1:8182, V-B:ASP:366:CG:8181, H-B:ASP:366:OD2:8183, H-A:GLU:543:OE1:4906, V-A:ILE:369:CB:3232, V-A:GLU:543:CB:4903, V-A:ILE:369:CG2:3233, V-B:HIS:456:CE1:9038, V-A:GLY:453:C:4038, V-A:ILE:369:CG1:3234, V-B:ILE:369:CG2:8205, V-A:ALA:541:CB:4889, V-B:ASP:366:CA:8178, V-B:ILE:369:CB:8204, V-B:TYR:484:CZ:9315, V-B:TYR:484:CE1:9313, V-A:ILE:369:CD1:3235, V-B:ASP:366:C:8176, H-A:SER:385:O:3402, H-B:ASP:366:O:8177, V-B:ASN:370:CB:8213"]

$$$$
RR11_Rahimova_2017-again2
     RDKit          3D

 57 62  0  0  0  0  0  0  0  0999 V2000
  123.9160  130.8930   55.9870 N   0  0  0  0  0  0  0  0  0  0  0  0
  124.4250  130.8490   57.2840 C   0  0  0  0  0  0  0  0  0  0  0  0
  123.7310  131.4650   58.3230 C   0  0  0  0  0  0  0  0  0  0  0  0
  124.2420  131.4260   59.6170 C   0  0  0  0  0  0  0  0  0  0  0  0
  125.4520  130.7710   59.8790 C   0  0  0  0  0  0  0  0  0  0  0  0
  126.0070  130.7370   61.2660 C   0  0  0  0  0  0  0  0  0  0  0  0
  126.0920  129.6400   62.0930 N   0  0  0  0  0  0  0  0  0  0  0  0
  126.6840  129.9950   63.2970 C   0  0  0  0  0  0  0  0  0  0  0  0
  126.9960  129.2480   64.4360 C   0  0  0  0  0  0  0  0  0  0  0  0
  127.6220  129.9270   65.4890 C   0  0  0  0  0  0  0  0  0  0  0  0
  127.9900  129.1650   66.7550 C   0  0  0  0  0  0  0  0  0  0  0  0
  128.7090  127.8540   66.4660 C   0  0  0  0  0  0  0  0  0  0  0  0
  128.7890  126.8760   67.4640 C   0  0  0  0  0  0  0  0  0  0  0  0
  129.4350  125.6550   67.2580 C   0  0  0  0  0  0  0  0  0  0  0  0
  130.0000  125.4500   65.9970 C   0  0  0  0  0  0  0  0  0  0  0  0
  130.7090  124.3820   65.4640 N   0  0  0  0  0  0  0  0  0  0  0  0
  131.0660  124.6530   64.1630 C   0  0  0  0  0  0  0  0  0  0  0  0
  131.8500  123.7710   63.2460 C   0  0  0  0  0  0  0  0  0  0  0  0
  131.2970  122.5760   62.7720 C   0  0  0  0  0  0  0  0  0  0  0  0
  132.0220  121.7590   61.9090 C   0  0  0  0  0  0  0  0  0  0  0  0
  133.3050  122.1340   61.5150 C   0  0  0  0  0  0  0  0  0  0  0  0
  134.0300  121.3190   60.6460 N   0  0  0  0  0  0  0  0  0  0  0  0
  133.8680  123.3200   61.9850 C   0  0  0  0  0  0  0  0  0  0  0  0
  133.1410  124.1370   62.8470 C   0  0  0  0  0  0  0  0  0  0  0  0
  130.5680  125.9020   63.8770 N   0  0  0  0  0  0  0  0  0  0  0  0
  129.9110  126.4210   64.9860 C   0  0  0  0  0  0  0  0  0  0  0  0
  129.2580  127.6380   65.1950 C   0  0  0  0  0  0  0  0  0  0  0  0
  127.8920  131.2980   65.4080 C   0  0  0  0  0  0  0  0  0  0  0  0
  127.5770  132.0520   64.2740 C   0  0  0  0  0  0  0  0  0  0  0  0
  126.9710  131.3680   63.2170 C   0  0  0  0  0  0  0  0  0  0  0  0
  126.5440  131.7930   61.9650 N   0  0  0  0  0  0  0  0  0  0  0  0
  126.1390  130.1520   58.8280 C   0  0  0  0  0  0  0  0  0  0  0  0
  125.6280  130.1910   57.5340 C   0  0  0  0  0  0  0  0  0  0  0  0
  123.7060  131.7870   55.5650 H   0  0  0  0  0  0  0  0  0  0  0  0
  123.7010  130.0310   55.5070 H   0  0  0  0  0  0  0  0  0  0  0  0
  122.7809  131.9813   58.1211 H   0  0  0  0  0  0  0  0  0  0  0  0
  123.6933  131.9116   60.4374 H   0  0  0  0  0  0  0  0  0  0  0  0
  125.7630  128.7270   61.8150 H   0  0  0  0  0  0  0  0  0  0  0  0
  126.7607  128.1755   64.5026 H   0  0  0  0  0  0  0  0  0  0  0  0
  128.6475  129.7988   67.3682 H   0  0  0  0  0  0  0  0  0  0  0  0
  127.0541  128.9212   67.2790 H   0  0  0  0  0  0  0  0  0  0  0  0
  128.3280  127.0755   68.4426 H   0  0  0  0  0  0  0  0  0  0  0  0
  129.4958  124.8930   68.0490 H   0  0  0  0  0  0  0  0  0  0  0  0
  130.9560  123.5170   65.9230 H   0  0  0  0  0  0  0  0  0  0  0  0
  130.2840  122.2807   63.0830 H   0  0  0  0  0  0  0  0  0  0  0  0
  131.5835  120.8204   61.5392 H   0  0  0  0  0  0  0  0  0  0  0  0
  134.9660  121.0340   60.8950 H   0  0  0  0  0  0  0  0  0  0  0  0
  133.6370  121.0780   59.7480 H   0  0  0  0  0  0  0  0  0  0  0  0
  134.8832  123.6093   61.6758 H   0  0  0  0  0  0  0  0  0  0  0  0
  133.5831  125.0742   63.2161 H   0  0  0  0  0  0  0  0  0  0  0  0
  130.6930  126.3410   62.9760 H   0  0  0  0  0  0  0  0  0  0  0  0
  129.1784  128.3923   64.3983 H   0  0  0  0  0  0  0  0  0  0  0  0
  128.3675  131.7983   66.2645 H   0  0  0  0  0  0  0  0  0  0  0  0
  127.7950  133.1287   64.2166 H   0  0  0  0  0  0  0  0  0  0  0  0
  126.6020  132.7230   61.5790 H   0  0  0  0  0  0  0  0  0  0  0  0
  127.0879  129.6319   59.0260 H   0  0  0  0  0  0  0  0  0  0  0  0
  126.1719  129.7040   56.7111 H   0  0  0  0  0  0  0  0  0  0  0  0
  1  2  1  0
  2  3  2  0
  3  4  1  0
  4  5  2  0
  5  6  1  0
  6  7  1  0
  7  8  1  0
  8  9  2  0
  9 10  1  0
 10 11  1  0
 11 12  1  0
 12 13  2  0
 13 14  1  0
 14 15  2  0
 15 16  1  0
 16 17  1  0
 17 18  1  0
 18 19  2  0
 19 20  1  0
 20 21  2  0
 21 22  1  0
 21 23  1  0
 23 24  2  0
 17 25  2  0
 25 26  1  0
 26 27  2  0
 10 28  2  0
 28 29  1  0
 29 30  2  0
 30 31  1  0
  5 32  1  0
 32 33  2  0
 33  2  1  0
 31  6  2  0
 30  8  1  0
 27 12  1  0
 26 15  1  0
 24 18  1  0
  1 34  1  0
  1 35  1  0
  3 36  1  0
  4 37  1  0
  7 38  1  0
  9 39  1  0
 11 40  1  0
 11 41  1  0
 13 42  1  0
 14 43  1  0
 16 44  1  0
 19 45  1  0
 20 46  1  0
 22 47  1  0
 22 48  1  0
 23 49  1  0
 24 50  1  0
 25 51  1  0
 27 52  1  0
 28 53  1  0
 29 54  1  0
 31 55  1  0
 32 56  1  0
 33 57  1  0
M  CHG  2  25   1  31   1
M  END
>  <Binding energies>  (1) 
[-10.04]

>  <Ligand effiencies>  (1) 
[-0.24487804878048777]

>  <Interactions>  (1) 
["V-B:TYR:539:CE2:9845, V-A:TYR:484:CZ:4343, V-A:LEU:475:CD1:4254, V-A:TYR:484:CE1:4341, V-B:GLU:543:CG:9876, V-A:GLY:454:CA:4045, V-A:GLU:543:CD:4905, V-A:HIS:456:CE1:4066, H-B:TYR:539:OH:9847, V-A:GLU:543:CG:4904, V-B:GLU:543:CB:9875, H-A:TYR:484:OH:4344, H-B:TYR:531:OH:9764, H-A:TYR:539:OH:4875, V-A:TYR:539:CZ:4874, V-B:ASP:366:CB:8180, V-B:TYR:531:CZ:9763, V-A:TYR:539:CE2:4873, V-B:TYR:531:CE1:9761, H-B:ASP:366:OD1:8182, V-B:ASP:366:CG:8181, H-B:ASP:366:OD2:8183, H-A:GLU:543:OE1:4906, V-A:ILE:369:CB:3232, V-A:GLU:543:CB:4903, V-A:ILE:369:CG2:3233, V-B:HIS:456:CE1:9038, V-A:GLY:453:C:4038, V-A:ILE:369:CG1:3234, V-B:ILE:369:CG2:8205, V-A:ALA:541:CB:4889, V-B:ASP:366:CA:8178, V-B:ILE:369:CB:8204, V-B:TYR:484:CZ:9315, V-B:TYR:484:CE1:9313, V-B:ASP:366:C:8176, H-A:SER:385:O:3402, H-B:ASP:366:O:8177, V-B:ASN:370:CB:8213"]

$$$$
RR12_Rahimova_2017
     RDKit          3D

 51 53  0  0  0  0  0  0  0  0999 V2000
  130.6620  127.6320   56.6280 C   0  0  0  0  0  0  0  0  0  0  0  0
  129.9010  126.3020   56.7150 C   0  0  0  0  0  0  0  0  0  0  0  0
  129.0230  126.2040   57.9760 C   0  0  0  0  0  0  0  0  0  0  0  0
  127.6860  125.7200   57.6400 N   0  0  0  0  0  0  0  0  0  0  0  0
  126.5050  126.4450   57.6250 C   0  0  0  0  0  0  0  0  0  0  0  0
  126.4050  127.9090   58.0180 C   0  0  0  0  0  0  0  0  0  0  0  0
  127.4340  128.7860   57.2810 C   0  0  0  0  0  0  0  0  0  0  0  0
  126.7840  129.7330   56.2550 C   0  0  0  0  0  0  0  0  0  0  0  0
  127.6560  130.8250   55.8230 N   0  0  0  0  0  0  0  0  0  0  0  0
  127.7230  131.3100   54.5700 C   0  0  0  0  0  0  0  0  0  0  0  0
  127.0460  130.8700   53.6380 O   0  0  0  0  0  0  0  0  0  0  0  0
  128.7070  132.4670   54.3580 C   0  0  0  0  0  0  0  0  0  0  0  0
  129.0700  133.0220   55.6240 O   0  0  0  0  0  0  0  0  0  0  0  0
  130.1220  132.4690   56.3290 C   0  0  0  0  0  0  0  0  0  0  0  0
  131.3180  132.3000   55.6270 C   0  0  0  0  0  0  0  0  0  0  0  0
  132.4350  131.7540   56.2540 C   0  0  0  0  0  0  0  0  0  0  0  0
  132.3580  131.3740   57.5910 C   0  0  0  0  0  0  0  0  0  0  0  0
  131.1720  131.5330   58.3050 C   0  0  0  0  0  0  0  0  0  0  0  0
  130.0550  132.0790   57.6760 C   0  0  0  0  0  0  0  0  0  0  0  0
  125.4660  125.7390   57.2540 N   0  0  0  0  0  0  0  0  0  0  0  0
  125.9660  124.4960   56.9820 C   0  0  0  0  0  0  0  0  0  0  0  0
  125.2890  123.3510   56.5330 C   0  0  0  0  0  0  0  0  0  0  0  0
  126.0320  122.1900   56.3200 C   0  0  0  0  0  0  0  0  0  0  0  0
  127.4090  122.1590   56.5450 C   0  0  0  0  0  0  0  0  0  0  0  0
  128.1110  123.2800   56.9930 C   0  0  0  0  0  0  0  0  0  0  0  0
  127.3640  124.4460   57.2080 C   0  0  0  0  0  0  0  0  0  0  0  0
  130.8730  128.0008   57.6426 H   0  0  0  0  0  0  0  0  0  0  0  0
  131.6088  127.4782   56.0895 H   0  0  0  0  0  0  0  0  0  0  0  0
  130.0497  128.3703   56.0895 H   0  0  0  0  0  0  0  0  0  0  0  0
  129.2566  126.2061   55.8287 H   0  0  0  0  0  0  0  0  0  0  0  0
  130.6461  125.4943   56.7640 H   0  0  0  0  0  0  0  0  0  0  0  0
  129.4904  125.5077   58.6879 H   0  0  0  0  0  0  0  0  0  0  0  0
  128.9340  127.2052   58.4227 H   0  0  0  0  0  0  0  0  0  0  0  0
  125.3948  128.2713   57.7768 H   0  0  0  0  0  0  0  0  0  0  0  0
  126.6127  127.9820   59.0958 H   0  0  0  0  0  0  0  0  0  0  0  0
  127.9765  129.3904   58.0229 H   0  0  0  0  0  0  0  0  0  0  0  0
  128.1088  128.1138   56.7307 H   0  0  0  0  0  0  0  0  0  0  0  0
  126.5017  129.1440   55.3699 H   0  0  0  0  0  0  0  0  0  0  0  0
  125.9159  130.1933   56.7495 H   0  0  0  0  0  0  0  0  0  0  0  0
  128.2400  131.2380   56.5350 H   0  0  0  0  0  0  0  0  0  0  0  0
  129.6081  132.0935   53.8495 H   0  0  0  0  0  0  0  0  0  0  0  0
  128.2323  133.2433   53.7400 H   0  0  0  0  0  0  0  0  0  0  0  0
  131.3778  132.6006   54.5706 H   0  0  0  0  0  0  0  0  0  0  0  0
  133.3737  131.6236   55.6956 H   0  0  0  0  0  0  0  0  0  0  0  0
  133.2405  130.9447   58.0879 H   0  0  0  0  0  0  0  0  0  0  0  0
  131.1178  131.2288   59.3607 H   0  0  0  0  0  0  0  0  0  0  0  0
  129.1172  132.2049   58.2369 H   0  0  0  0  0  0  0  0  0  0  0  0
  124.2038  123.3690   56.3543 H   0  0  0  0  0  0  0  0  0  0  0  0
  125.5226  121.2809   55.9677 H   0  0  0  0  0  0  0  0  0  0  0  0
  127.9580  121.2232   56.3640 H   0  0  0  0  0  0  0  0  0  0  0  0
  129.1965  123.2493   57.1684 H   0  0  0  0  0  0  0  0  0  0  0  0
  1  2  1  0
  2  3  1  0
  3  4  1  0
  4  5  1  0
  5  6  1  0
  6  7  1  0
  7  8  1  0
  8  9  1  0
  9 10  1  0
 10 11  2  0
 10 12  1  0
 12 13  1  0
 13 14  1  0
 14 15  2  0
 15 16  1  0
 16 17  2  0
 17 18  1  0
 18 19  2  0
  5 20  2  0
 20 21  1  0
 21 22  2  0
 22 23  1  0
 23 24  2  0
 24 25  1  0
 25 26  2  0
 26  4  1  0
 19 14  1  0
 26 21  1  0
  1 27  1  0
  1 28  1  0
  1 29  1  0
  2 30  1  0
  2 31  1  0
  3 32  1  0
  3 33  1  0
  6 34  1  0
  6 35  1  0
  7 36  1  0
  7 37  1  0
  8 38  1  0
  8 39  1  0
  9 40  1  0
 12 41  1  0
 12 42  1  0
 15 43  1  0
 16 44  1  0
 17 45  1  0
 18 46  1  0
 19 47  1  0
 22 48  1  0
 23 49  1  0
 24 50  1  0
 25 51  1  0
M  END
>  <Binding energies>  (1) 
[-7.04]

>  <Ligand effiencies>  (1) 
[-0.2607407407407407]

>  <Interactions>  (1) 
["V-B:PRO:540:N:9853, V-B:PRO:540:CB:9854, V-B:TYR:539:CZ:9846, V-B:PRO:540:CA:9852, V-B:TYR:539:CD1:9842, V-B:TYR:539:C:9836, V-B:LEU:363:CD1:8157, V-B:ILE:538:CG2:9832, V-B:TYR:539:CE1:9844, V-B:ILE:538:CB:9831, V-B:MET:535:CE:9804, H-B:TYR:531:OH:9764, V-B:PRO:540:CD:9856, H-A:TYR:539:OH:4875, V-A:PRO:540:CB:4882, V-A:TYR:539:CE1:4872, V-A:TYR:539:C:4864, V-A:PRO:540:CA:4880, H-A:TYR:539:N:4867, V-B:TYR:539:CA:9838, V-A:LEU:363:CD1:3185, V-A:PRO:540:N:4881, H-B:LYS:534:NZ:9792, V-A:TYR:539:CD1:4870, V-A:TYR:531:CZ:4791, V-A:ILE:538:CG2:4860, V-A:ILE:538:CA:4857, V-A:ILE:538:CD1:4862, V-A:TYR:531:CE2:4790, V-A:TYR:539:CZ:4874"]

$$$$
RR13_Rahimova_2017
     RDKit          3D

 84 90  0  0  0  0  0  0  0  0999 V2000
  129.4440  131.9360   61.1190 Cl  0  0  0  0  0  0  0  0  0  0  0  0
  130.8890  131.5110   60.2660 C   0  0  0  0  0  0  0  0  0  0  0  0
  132.1110  131.7280   60.9090 C   0  0  0  0  0  0  0  0  0  0  0  0
  133.3090  131.4270   60.2680 C   0  0  0  0  0  0  0  0  0  0  0  0
  133.2950  130.9090   58.9760 C   0  0  0  0  0  0  0  0  0  0  0  0
  132.0800  130.6900   58.3280 C   0  0  0  0  0  0  0  0  0  0  0  0
  130.8600  130.9760   58.9620 C   0  0  0  0  0  0  0  0  0  0  0  0
  129.5290  130.7470   58.2140 C   0  0  1  0  0  0  0  0  0  0  0  0
  129.5100  131.5060   56.8780 C   0  0  0  0  0  0  0  0  0  0  0  0
  130.2480  132.5450   56.5540 N   0  0  0  0  0  0  0  0  0  0  0  0
  129.8630  132.9000   55.2650 N   0  0  0  0  0  0  0  0  0  0  0  0
  128.8580  132.0610   54.8230 N   0  0  0  0  0  0  0  0  0  0  0  0
  128.6410  131.2260   55.8450 N   0  0  0  0  0  0  0  0  0  0  0  0
  127.6560  130.1570   55.7280 C   0  0  0  0  0  0  0  0  0  0  0  0
  126.2450  130.7480   55.5550 C   0  0  0  0  0  0  0  0  0  0  0  0
  125.5430  130.9580   56.8880 C   0  0  0  0  0  0  0  0  0  0  0  0
  126.2740  130.9040   58.0780 C   0  0  0  0  0  0  0  0  0  0  0  0
  125.6300  131.0880   59.2980 C   0  0  0  0  0  0  0  0  0  0  0  0
  124.2570  131.3270   59.3240 C   0  0  0  0  0  0  0  0  0  0  0  0
  123.5230  131.3820   58.1420 C   0  0  0  0  0  0  0  0  0  0  0  0
  124.1660  131.1970   56.9210 C   0  0  0  0  0  0  0  0  0  0  0  0
  129.1790  129.3160   58.0550 N   0  0  0  0  0  0  0  0  0  0  0  0
  129.4290  128.5800   59.3080 C   0  0  0  0  0  0  0  0  0  0  0  0
  128.9430  127.1160   59.1920 C   0  0  0  0  0  0  0  0  0  0  0  0
  129.6650  126.4130   58.1190 N   0  0  0  0  0  0  0  0  0  0  0  0
  129.2880  124.9830   58.0260 C   0  0  1  0  0  0  0  0  0  0  0  0
  129.4250  124.3480   56.6250 C   0  0  0  0  0  0  0  0  0  0  0  0
  128.3620  123.5530   56.1760 C   0  0  0  0  0  0  0  0  0  0  0  0
  128.3910  122.9540   54.9170 C   0  0  0  0  0  0  0  0  0  0  0  0
  129.4930  123.1370   54.0870 C   0  0  0  0  0  0  0  0  0  0  0  0
  130.5670  123.9090   54.5210 C   0  0  0  0  0  0  0  0  0  0  0  0
  130.5490  124.5110   55.7820 C   0  0  0  0  0  0  0  0  0  0  0  0
  131.9610  125.3940   56.2560 Cl  0  0  0  0  0  0  0  0  0  0  0  0
  129.9870  124.1080   59.0700 C   0  0  0  0  0  0  0  0  0  0  0  0
  131.2860  123.9780   59.2090 N   0  0  0  0  0  0  0  0  0  0  0  0
  131.4710  123.1100   60.2800 N   0  0  0  0  0  0  0  0  0  0  0  0
  130.2500  122.7300   60.7970 N   0  0  0  0  0  0  0  0  0  0  0  0
  129.3480  123.3750   60.0480 N   0  0  0  0  0  0  0  0  0  0  0  0
  127.9230  123.1910   60.3000 C   0  0  0  0  0  0  0  0  0  0  0  0
  127.2100  122.7090   59.0230 C   0  0  0  0  0  0  0  0  0  0  0  0
  126.0370  123.6020   58.6490 C   0  0  0  0  0  0  0  0  0  0  0  0
  125.4720  124.4490   59.6060 C   0  0  0  0  0  0  0  0  0  0  0  0
  124.4020  125.2720   59.2610 C   0  0  0  0  0  0  0  0  0  0  0  0
  123.9020  125.2440   57.9610 C   0  0  0  0  0  0  0  0  0  0  0  0
  124.4620  124.4020   57.0020 C   0  0  0  0  0  0  0  0  0  0  0  0
  125.5320  123.5800   57.3450 C   0  0  0  0  0  0  0  0  0  0  0  0
  129.4070  127.1480   56.8680 C   0  0  0  0  0  0  0  0  0  0  0  0
  129.9050  128.6070   56.9860 C   0  0  0  0  0  0  0  0  0  0  0  0
  132.1258  132.1396   61.9290 H   0  0  0  0  0  0  0  0  0  0  0  0
  134.2664  131.5983   60.7819 H   0  0  0  0  0  0  0  0  0  0  0  0
  134.2411  130.6728   58.4670 H   0  0  0  0  0  0  0  0  0  0  0  0
  132.0770  130.2870   57.3045 H   0  0  0  0  0  0  0  0  0  0  0  0
  128.7355  131.1654   58.8506 H   0  0  0  0  0  0  0  0  0  0  0  0
  127.8983  129.5342   54.8543 H   0  0  0  0  0  0  0  0  0  0  0  0
  127.6790  129.5471   56.6432 H   0  0  0  0  0  0  0  0  0  0  0  0
  126.3273  131.7172   55.0414 H   0  0  0  0  0  0  0  0  0  0  0  0
  125.6491  130.0335   54.9682 H   0  0  0  0  0  0  0  0  0  0  0  0
  127.3575  130.7162   58.0504 H   0  0  0  0  0  0  0  0  0  0  0  0
  126.2016  131.0450   60.2369 H   0  0  0  0  0  0  0  0  0  0  0  0
  123.7481  131.4737   60.2881 H   0  0  0  0  0  0  0  0  0  0  0  0
  122.4398  131.5708   58.1728 H   0  0  0  0  0  0  0  0  0  0  0  0
  123.5915  131.2388   55.9839 H   0  0  0  0  0  0  0  0  0  0  0  0
  130.5083  128.5859   59.5204 H   0  0  0  0  0  0  0  0  0  0  0  0
  128.8757  129.0715   60.1218 H   0  0  0  0  0  0  0  0  0  0  0  0
  129.1217  126.5993   60.1465 H   0  0  0  0  0  0  0  0  0  0  0  0
  127.8689  127.1171   58.9546 H   0  0  0  0  0  0  0  0  0  0  0  0
  128.2103  125.0068   58.2451 H   0  0  0  0  0  0  0  0  0  0  0  0
  127.4895  123.3987   56.8279 H   0  0  0  0  0  0  0  0  0  0  0  0
  127.5442  122.3378   54.5805 H   0  0  0  0  0  0  0  0  0  0  0  0
  129.5153  122.6726   53.0901 H   0  0  0  0  0  0  0  0  0  0  0  0
  131.4389  124.0466   53.8646 H   0  0  0  0  0  0  0  0  0  0  0  0
  127.7891  122.4421   61.0945 H   0  0  0  0  0  0  0  0  0  0  0  0
  127.4883  124.1527   60.6100 H   0  0  0  0  0  0  0  0  0  0  0  0
  127.9322  122.7066   58.1933 H   0  0  0  0  0  0  0  0  0  0  0  0
  126.8183  121.6992   59.2152 H   0  0  0  0  0  0  0  0  0  0  0  0
  125.8716  124.4660   60.6307 H   0  0  0  0  0  0  0  0  0  0  0  0
  123.9543  125.9404   60.0112 H   0  0  0  0  0  0  0  0  0  0  0  0
  123.0567  125.8930   57.6887 H   0  0  0  0  0  0  0  0  0  0  0  0
  124.0602  124.3869   55.9781 H   0  0  0  0  0  0  0  0  0  0  0  0
  125.9793  122.9146   56.5919 H   0  0  0  0  0  0  0  0  0  0  0  0
  129.9345  126.6510   56.0405 H   0  0  0  0  0  0  0  0  0  0  0  0
  128.3239  127.1557   56.6762 H   0  0  0  0  0  0  0  0  0  0  0  0
  130.9801  128.6047   57.2187 H   0  0  0  0  0  0  0  0  0  0  0  0
  129.7244  129.1226   56.0312 H   0  0  0  0  0  0  0  0  0  0  0  0
  1  2  1  0
  2  3  2  0
  3  4  1  0
  4  5  2  0
  5  6  1  0
  6  7  2  0
  7  8  1  0
  8  9  1  0
  9 10  2  0
 10 11  1  0
 11 12  2  0
 12 13  1  0
 13 14  1  0
 14 15  1  0
 15 16  1  0
 16 17  2  0
 17 18  1  0
 18 19  2  0
 19 20  1  0
 20 21  2  0
  8 22  1  0
 22 23  1  0
 23 24  1  0
 24 25  1  0
 25 26  1  0
 26 27  1  0
 27 28  2  0
 28 29  1  0
 29 30  2  0
 30 31  1  0
 31 32  2  0
 32 33  1  0
 26 34  1  0
 34 35  2  0
 35 36  1  0
 36 37  2  0
 37 38  1  0
 38 39  1  0
 39 40  1  0
 40 41  1  0
 41 42  2  0
 42 43  1  0
 43 44  2  0
 44 45  1  0
 45 46  2  0
 25 47  1  0
 47 48  1  0
  7  2  1  0
 13  9  1  0
 21 16  1  0
 48 22  1  0
 32 27  1  0
 38 34  1  0
 46 41  1  0
  3 49  1  0
  4 50  1  0
  5 51  1  0
  6 52  1  0
  8 53  1  1
 14 54  1  0
 14 55  1  0
 15 56  1  0
 15 57  1  0
 17 58  1  0
 18 59  1  0
 19 60  1  0
 20 61  1  0
 21 62  1  0
 23 63  1  0
 23 64  1  0
 24 65  1  0
 24 66  1  0
 26 67  1  1
 28 68  1  0
 29 69  1  0
 30 70  1  0
 31 71  1  0
 39 72  1  0
 39 73  1  0
 40 74  1  0
 40 75  1  0
 42 76  1  0
 43 77  1  0
 44 78  1  0
 45 79  1  0
 46 80  1  0
 47 81  1  0
 47 82  1  0
 48 83  1  0
 48 84  1  0
M  END
>  <Binding energies>  (1) 
[-13.26]

>  <Ligand effiencies>  (1) 
[-0.27625]

>  <Interactions>  (1) 
["V-B:TYR:539:CE2:9845, V-B:PRO:540:N:9853, V-B:PRO:540:CB:9854, V-B:TYR:539:CZ:9846, V-B:PRO:540:CA:9852, V-B:TYR:539:CD1:9842, V-B:ILE:538:CA:9829, V-B:TYR:539:C:9836, V-B:LEU:363:CD1:8157, V-B:TYR:539:CE1:9844, V-B:MET:535:CE:9804, V-A:GLU:543:CD:4905, V-A:ASP:366:CB:3208, H-B:TYR:539:OH:9847, V-B:LEU:363:CA:8153, V-A:PRO:540:CB:4882, V-A:PRO:540:CA:4880, H-A:TYR:539:N:4867, V-A:TYR:539:CZ:4874, V-B:ASP:366:CB:8180, V-B:TYR:531:CZ:9763, V-B:TYR:531:CE2:9762, V-A:LEU:363:CA:3181, V-A:TYR:539:CE2:4873, V-B:TYR:531:CE1:9761, V-A:ASN:362:CB:3172, V-A:PRO:540:C:4878, V-B:ASP:366:CG:8181, V-B:ILE:369:CG2:8205, V-A:ASN:362:C:3168, V-A:ALA:541:CB:4889, V-B:ASP:366:CA:8178, V-B:ILE:369:CB:8204, V-B:ASP:366:C:8176"]

$$$$
RR14_Rahimova_2017
     RDKit          3D

 76 80  0  0  0  0  0  0  0  0999 V2000
  129.6230  127.6190   70.2830 C   0  0  0  0  0  0  0  0  0  0  0  0
  128.7530  126.8140   69.4960 O   0  0  0  0  0  0  0  0  0  0  0  0
  129.0900  126.5420   68.1840 C   0  0  0  0  0  0  0  0  0  0  0  0
  129.4610  125.2290   67.8950 C   0  0  0  0  0  0  0  0  0  0  0  0
  129.8410  124.8670   66.6070 C   0  0  0  0  0  0  0  0  0  0  0  0
  129.8590  125.8240   65.5890 C   0  0  0  0  0  0  0  0  0  0  0  0
  130.3370  125.4460   64.1920 C   0  0  0  0  0  0  0  0  0  0  0  0
  131.7350  125.0200   64.1550 N   0  0  0  0  0  0  0  0  0  0  0  0
  132.6670  125.6970   64.8350 N   0  0  0  0  0  0  0  0  0  0  0  0
  133.8520  125.0460   64.5520 N   0  0  0  0  0  0  0  0  0  0  0  0
  133.6160  123.9790   63.6900 N   0  0  0  0  0  0  0  0  0  0  0  0
  132.3250  123.9870   63.4580 C   0  0  0  0  0  0  0  0  0  0  0  0
  131.5920  123.0140   62.5450 C   0  0  0  0  0  0  0  0  0  0  0  0
  130.7190  123.6990   61.5770 N   0  0  0  0  0  0  0  0  0  0  0  0
  131.4290  124.7610   60.8530 C   0  0  0  0  0  0  0  0  0  0  0  0
  131.3940  124.5860   59.3190 C   0  0  0  0  0  0  0  0  0  0  0  0
  131.0320  125.8770   58.5560 C   0  0  0  0  0  0  0  0  0  0  0  0
  131.1160  125.7330   57.0990 N   0  0  0  0  0  0  0  0  0  0  0  0
  130.2610  124.6290   56.6450 C   0  0  0  0  0  0  0  0  0  0  0  0
  130.3660  124.4160   55.1200 C   0  0  0  0  0  0  0  0  0  0  0  0
  131.7270  124.2350   54.7440 O   0  0  0  0  0  0  0  0  0  0  0  0
  132.5340  125.3570   55.0830 C   0  0  0  0  0  0  0  0  0  0  0  0
  132.4960  125.5960   56.6080 C   0  0  0  0  0  0  0  0  0  0  0  0
  130.1480  122.7260   60.6350 C   0  0  0  0  0  0  0  0  0  0  0  0
  128.7010  122.9710   60.2130 C   0  0  0  0  0  0  0  0  0  0  0  0
  128.3240  122.8700   58.9140 C   0  0  0  0  0  0  0  0  0  0  0  0
  126.9400  123.1400   58.4740 C   0  0  0  0  0  0  0  0  0  0  0  0
  126.5110  123.0260   57.1410 C   0  0  0  0  0  0  0  0  0  0  0  0
  127.4630  122.6040   56.0290 C   0  0  0  0  0  0  0  0  0  0  0  0
  125.1770  123.3030   56.8300 C   0  0  0  0  0  0  0  0  0  0  0  0
  124.2800  123.6880   57.8250 C   0  0  0  0  0  0  0  0  0  0  0  0
  124.6960  123.8030   59.1540 C   0  0  0  0  0  0  0  0  0  0  0  0
  123.6910  124.2230   60.2180 C   0  0  0  0  0  0  0  0  0  0  0  0
  126.0340  123.5270   59.4780 C   0  0  0  0  0  0  0  0  0  0  0  0
  126.5000  123.6320   60.8050 N   0  0  0  0  0  0  0  0  0  0  0  0
  127.7580  123.3940   61.2540 C   0  0  0  0  0  0  0  0  0  0  0  0
  128.0340  123.5400   62.4450 O   0  0  0  0  0  0  0  0  0  0  0  0
  129.4610  127.1340   65.8610 C   0  0  0  0  0  0  0  0  0  0  0  0
  129.0820  127.4950   67.1510 C   0  0  0  0  0  0  0  0  0  0  0  0
  129.4261  127.4369   71.3498 H   0  0  0  0  0  0  0  0  0  0  0  0
  130.6677  127.3620   70.0538 H   0  0  0  0  0  0  0  0  0  0  0  0
  129.4478  128.6805   70.0538 H   0  0  0  0  0  0  0  0  0  0  0  0
  129.4530  124.4724   68.6935 H   0  0  0  0  0  0  0  0  0  0  0  0
  130.1274  123.8274   66.3897 H   0  0  0  0  0  0  0  0  0  0  0  0
  129.7108  124.6218   63.8198 H   0  0  0  0  0  0  0  0  0  0  0  0
  130.2537  126.3456   63.5645 H   0  0  0  0  0  0  0  0  0  0  0  0
  132.3352  122.4209   61.9919 H   0  0  0  0  0  0  0  0  0  0  0  0
  130.9558  122.3768   63.1769 H   0  0  0  0  0  0  0  0  0  0  0  0
  130.9641  125.7256   61.1047 H   0  0  0  0  0  0  0  0  0  0  0  0
  132.4839  124.7152   61.1613 H   0  0  0  0  0  0  0  0  0  0  0  0
  132.3873  124.2519   58.9848 H   0  0  0  0  0  0  0  0  0  0  0  0
  130.6072  123.8500   59.0971 H   0  0  0  0  0  0  0  0  0  0  0  0
  130.0027  126.1615   58.8199 H   0  0  0  0  0  0  0  0  0  0  0  0
  131.7628  126.6448   58.8500 H   0  0  0  0  0  0  0  0  0  0  0  0
  130.5700  123.7053   57.1561 H   0  0  0  0  0  0  0  0  0  0  0  0
  129.2177  124.8820   56.8850 H   0  0  0  0  0  0  0  0  0  0  0  0
  129.7885  123.5237   54.8366 H   0  0  0  0  0  0  0  0  0  0  0  0
  129.9646  125.3009   54.6044 H   0  0  0  0  0  0  0  0  0  0  0  0
  133.5713  125.1670   54.7702 H   0  0  0  0  0  0  0  0  0  0  0  0
  132.1456  126.2485   54.5689 H   0  0  0  0  0  0  0  0  0  0  0  0
  132.9727  124.7442   57.1151 H   0  0  0  0  0  0  0  0  0  0  0  0
  133.0331  126.5314   56.8238 H   0  0  0  0  0  0  0  0  0  0  0  0
  130.7689  122.7326   59.7270 H   0  0  0  0  0  0  0  0  0  0  0  0
  130.1418  121.7647   61.1697 H   0  0  0  0  0  0  0  0  0  0  0  0
  129.0733  122.5775   58.1637 H   0  0  0  0  0  0  0  0  0  0  0  0
  128.3842  122.1957   56.4703 H   0  0  0  0  0  0  0  0  0  0  0  0
  126.9821  121.8347   55.4069 H   0  0  0  0  0  0  0  0  0  0  0  0
  127.7101  123.4769   55.4069 H   0  0  0  0  0  0  0  0  0  0  0  0
  124.8313  123.2163   55.7893 H   0  0  0  0  0  0  0  0  0  0  0  0
  123.2340  123.9035   57.5613 H   0  0  0  0  0  0  0  0  0  0  0  0
  124.1176  124.0447   61.2161 H   0  0  0  0  0  0  0  0  0  0  0  0
  123.4610  125.2925   60.1033 H   0  0  0  0  0  0  0  0  0  0  0  0
  122.7683  123.6352   60.1033 H   0  0  0  0  0  0  0  0  0  0  0  0
  125.8480  123.9200   61.5180 H   0  0  0  0  0  0  0  0  0  0  0  0
  129.4468  127.8822   65.0548 H   0  0  0  0  0  0  0  0  0  0  0  0
  128.7751  128.5299   67.3626 H   0  0  0  0  0  0  0  0  0  0  0  0
  1  2  1  0
  2  3  1  0
  3  4  2  0
  4  5  1  0
  5  6  2  0
  6  7  1  0
  7  8  1  0
  8  9  1  0
  9 10  2  0
 10 11  1  0
 11 12  2  0
 12 13  1  0
 13 14  1  0
 14 15  1  0
 15 16  1  0
 16 17  1  0
 17 18  1  0
 18 19  1  0
 19 20  1  0
 20 21  1  0
 21 22  1  0
 22 23  1  0
 14 24  1  0
 24 25  1  0
 25 26  2  0
 26 27  1  0
 27 28  2  0
 28 29  1  0
 28 30  1  0
 30 31  2  0
 31 32  1  0
 32 33  1  0
 32 34  2  0
 34 35  1  0
 35 36  1  0
 36 37  2  0
  6 38  1  0
 38 39  2  0
 39  3  1  0
 12  8  1  0
 23 18  1  0
 36 25  1  0
 34 27  1  0
  1 40  1  0
  1 41  1  0
  1 42  1  0
  4 43  1  0
  5 44  1  0
  7 45  1  0
  7 46  1  0
 13 47  1  0
 13 48  1  0
 15 49  1  0
 15 50  1  0
 16 51  1  0
 16 52  1  0
 17 53  1  0
 17 54  1  0
 19 55  1  0
 19 56  1  0
 20 57  1  0
 20 58  1  0
 22 59  1  0
 22 60  1  0
 23 61  1  0
 23 62  1  0
 24 63  1  0
 24 64  1  0
 26 65  1  0
 29 66  1  0
 29 67  1  0
 29 68  1  0
 30 69  1  0
 31 70  1  0
 33 71  1  0
 33 72  1  0
 33 73  1  0
 35 74  1  0
 38 75  1  0
 39 76  1  0
M  END
>  <Binding energies>  (1) 
[-11.08]

>  <Ligand effiencies>  (1) 
[-0.277]

>  <Interactions>  (1) 
["V-B:TYR:539:CE2:9845, V-B:PRO:540:N:9853, V-B:PRO:540:CB:9854, V-B:TYR:539:CZ:9846, V-A:TYR:484:CZ:4343, V-B:PRO:540:CA:9852, V-B:TYR:539:CD1:9842, V-B:LEU:363:CD1:8157, V-B:ALA:541:CB:9861, V-B:TYR:539:CE1:9844, V-B:GLU:543:CD:9877, V-A:TYR:484:CE1:4341, V-B:ILE:538:CB:9831, V-B:GLU:543:CG:9876, H-B:GLU:543:OE2:9879, V-B:MET:535:CE:9804, V-A:GLU:543:CD:4905, V-A:ASP:366:CB:3208, V-A:HIS:456:CE1:4066, H-A:ARG:545:NH2:4925, H-A:ARG:545:NH1:4924, H-B:TYR:539:OH:9847, H-A:ARG:545:NE:4921, V-A:ASP:366:CG:3209, V-B:GLU:543:CB:9875, H-A:GLY:454:N:4046, H-A:TYR:484:OH:4344, V-A:TYR:531:CE1:4789, V-A:ASP:366:C:3204, V-A:ASN:370:CG:3242, V-A:ASN:370:CB:3241, V-B:LEU:363:CA:8153, V-B:TYR:539:CD2:9843, V-B:ASN:362:CB:8144, V-B:ASN:362:C:8140, V-B:HIS:456:CD2:9036, V-B:GLU:543:C:9871, V-A:ASP:366:CA:3206, V-B:GLU:543:CA:9873"]

$$$$
RR15_Rahimova_2017
     RDKit          3D

 85 89  0  0  0  0  0  0  0  0999 V2000
  131.0230  122.3860   64.4370 C   0  0  0  0  0  0  0  0  0  0  0  0
  131.9130  122.2910   63.3300 O   0  0  0  0  0  0  0  0  0  0  0  0
  131.7040  123.0890   62.2180 C   0  0  0  0  0  0  0  0  0  0  0  0
  130.6690  122.8800   61.2940 C   0  0  0  0  0  0  0  0  0  0  0  0
  130.5160  123.7200   60.1940 C   0  0  0  0  0  0  0  0  0  0  0  0
  131.3920  124.7900   59.9830 C   0  0  0  0  0  0  0  0  0  0  0  0
  131.2310  125.6930   58.7910 C   0  0  0  0  0  0  0  0  0  0  0  0
  131.8550  125.4860   57.6400 N   0  0  0  0  0  0  0  0  0  0  0  0
  131.4690  126.5140   56.8050 N   0  0  0  0  0  0  0  0  0  0  0  0
  130.6090  127.2140   57.5470 N   0  0  0  0  0  0  0  0  0  0  0  0
  130.0710  128.4990   57.1020 C   0  0  0  0  0  0  0  0  0  0  0  0
  129.0260  128.4060   55.9620 C   0  0  0  0  0  0  0  0  0  0  0  0
  129.4130  128.0530   54.8460 O   0  0  0  0  0  0  0  0  0  0  0  0
  127.7120  128.6840   56.2240 N   0  0  0  0  0  0  0  0  0  0  0  0
  126.9340  127.8780   57.1850 C   0  0  0  0  0  0  0  0  0  0  0  0
  127.6710  126.6100   57.6670 C   0  0  0  0  0  0  0  0  0  0  0  0
  126.7500  125.4150   58.0120 C   0  0  0  0  0  0  0  0  0  0  0  0
  126.7310  124.3690   56.9860 N   0  0  0  0  0  0  0  0  0  0  0  0
  128.0270  123.6950   56.8100 C   0  0  0  0  0  0  0  0  0  0  0  0
  127.9310  122.5470   55.7820 C   0  0  0  0  0  0  0  0  0  0  0  0
  126.8980  121.6400   56.1530 O   0  0  0  0  0  0  0  0  0  0  0  0
  125.6230  122.2690   56.2230 C   0  0  0  0  0  0  0  0  0  0  0  0
  125.6550  123.4080   57.2660 C   0  0  0  0  0  0  0  0  0  0  0  0
  127.0170  129.9110   55.7280 C   0  0  2  0  0  0  0  0  0  0  0  0
  127.9380  130.8850   54.9280 C   0  0  0  0  0  0  0  0  0  0  0  0
  127.7310  131.1210   53.7380 O   0  0  0  0  0  0  0  0  0  0  0  0
  128.9240  131.4650   55.6350 N   0  0  0  0  0  0  0  0  0  0  0  0
  129.8390  132.4810   55.1290 C   0  0  0  0  0  0  0  0  0  0  0  0
  130.9170  132.8290   56.1730 C   0  0  2  0  0  0  0  0  0  0  0  0
  132.2680  132.1130   55.9900 C   0  0  0  0  0  0  0  0  0  0  0  0
  132.2460  130.9980   57.0080 C   0  0  0  0  0  0  0  0  0  0  0  0
  131.4490  131.6360   58.1330 C   0  0  0  0  0  0  0  0  0  0  0  0
  130.4300  132.3370   57.4290 O   0  0  0  0  0  0  0  0  0  0  0  0
  126.1400  130.5120   56.8200 C   0  0  0  0  0  0  0  0  0  0  0  0
  124.7660  130.6240   56.5770 C   0  0  0  0  0  0  0  0  0  0  0  0
  123.9180  131.1660   57.5380 C   0  0  0  0  0  0  0  0  0  0  0  0
  124.4380  131.5980   58.7540 C   0  0  0  0  0  0  0  0  0  0  0  0
  123.6140  132.1230   59.6890 F   0  0  0  0  0  0  0  0  0  0  0  0
  125.8020  131.4930   59.0150 C   0  0  0  0  0  0  0  0  0  0  0  0
  126.6500  130.9530   58.0530 C   0  0  0  0  0  0  0  0  0  0  0  0
  130.4610  126.7650   58.7980 N   0  0  0  0  0  0  0  0  0  0  0  0
  132.4230  124.9980   60.9090 C   0  0  0  0  0  0  0  0  0  0  0  0
  132.5880  124.1620   62.0250 C   0  0  0  0  0  0  0  0  0  0  0  0
  133.5880  124.3280   62.9680 O   0  0  0  0  0  0  0  0  0  0  0  0
  133.3060  125.0270   64.1760 C   0  0  0  0  0  0  0  0  0  0  0  0
  131.5957  122.3249   65.3742 H   0  0  0  0  0  0  0  0  0  0  0  0
  130.4881  123.3463   64.3961 H   0  0  0  0  0  0  0  0  0  0  0  0
  130.2975  121.5602   64.3961 H   0  0  0  0  0  0  0  0  0  0  0  0
  129.9704  122.0430   61.4402 H   0  0  0  0  0  0  0  0  0  0  0  0
  129.6966  123.5400   59.4825 H   0  0  0  0  0  0  0  0  0  0  0  0
  129.5940  128.9874   57.9645 H   0  0  0  0  0  0  0  0  0  0  0  0
  130.9214  129.0672   56.6970 H   0  0  0  0  0  0  0  0  0  0  0  0
  126.7086  128.5035   58.0613 H   0  0  0  0  0  0  0  0  0  0  0  0
  126.0244  127.5442   56.6642 H   0  0  0  0  0  0  0  0  0  0  0  0
  128.3606  126.2918   56.8713 H   0  0  0  0  0  0  0  0  0  0  0  0
  128.1829  126.8858   58.6007 H   0  0  0  0  0  0  0  0  0  0  0  0
  127.0984  124.9694   58.9554 H   0  0  0  0  0  0  0  0  0  0  0  0
  125.7261  125.8100   58.0865 H   0  0  0  0  0  0  0  0  0  0  0  0
  128.7671  124.4290   56.4585 H   0  0  0  0  0  0  0  0  0  0  0  0
  128.3290  123.2682   57.7778 H   0  0  0  0  0  0  0  0  0  0  0  0
  127.7079  122.9656   54.7896 H   0  0  0  0  0  0  0  0  0  0  0  0
  128.8895  122.0080   55.7553 H   0  0  0  0  0  0  0  0  0  0  0  0
  125.3666  122.6843   55.2372 H   0  0  0  0  0  0  0  0  0  0  0  0
  124.8686  121.5260   56.5212 H   0  0  0  0  0  0  0  0  0  0  0  0
  124.6905  123.9366   57.2468 H   0  0  0  0  0  0  0  0  0  0  0  0
  125.8401  122.9633   58.2549 H   0  0  0  0  0  0  0  0  0  0  0  0
  126.3097  129.6197   54.9375 H   0  0  0  0  0  0  0  0  0  0  0  0
  129.0100  131.2400   56.6160 H   0  0  0  0  0  0  0  0  0  0  0  0
  130.3289  132.1020   54.2199 H   0  0  0  0  0  0  0  0  0  0  0  0
  129.2616  133.3908   54.9077 H   0  0  0  0  0  0  0  0  0  0  0  0
  131.0868  133.9126   56.0899 H   0  0  0  0  0  0  0  0  0  0  0  0
  132.3584  131.7077   54.9714 H   0  0  0  0  0  0  0  0  0  0  0  0
  133.1229  132.7908   56.1304 H   0  0  0  0  0  0  0  0  0  0  0  0
  131.7413  130.1034   56.6143 H   0  0  0  0  0  0  0  0  0  0  0  0
  133.2429  130.6429   57.3080 H   0  0  0  0  0  0  0  0  0  0  0  0
  131.0194  130.8727   58.7984 H   0  0  0  0  0  0  0  0  0  0  0  0
  132.0533  132.2813   58.7875 H   0  0  0  0  0  0  0  0  0  0  0  0
  124.3527  130.2803   55.6173 H   0  0  0  0  0  0  0  0  0  0  0  0
  122.8400  131.2526   57.3369 H   0  0  0  0  0  0  0  0  0  0  0  0
  126.2076  131.8358   59.9783 H   0  0  0  0  0  0  0  0  0  0  0  0
  127.7274  130.8707   58.2591 H   0  0  0  0  0  0  0  0  0  0  0  0
  133.1195  125.8359   60.7580 H   0  0  0  0  0  0  0  0  0  0  0  0
  133.5626  124.3910   65.0361 H   0  0  0  0  0  0  0  0  0  0  0  0
  133.9017  125.9510   64.2126 H   0  0  0  0  0  0  0  0  0  0  0  0
  132.2359  125.2790   64.2126 H   0  0  0  0  0  0  0  0  0  0  0  0
  1  2  1  0
  2  3  1  0
  3  4  2  0
  4  5  1  0
  5  6  2  0
  6  7  1  0
  7  8  1  0
  8  9  2  0
  9 10  1  0
 10 11  1  0
 11 12  1  0
 12 13  2  0
 12 14  1  0
 14 15  1  0
 15 16  1  0
 16 17  1  0
 17 18  1  0
 18 19  1  0
 19 20  1  0
 20 21  1  0
 21 22  1  0
 22 23  1  0
 14 24  1  0
 24 25  1  0
 25 26  2  0
 25 27  1  0
 27 28  1  0
 28 29  1  0
 29 30  1  0
 30 31  1  0
 31 32  1  0
 32 33  1  0
 24 34  1  0
 34 35  2  0
 35 36  1  0
 36 37  2  0
 37 38  1  0
 37 39  1  0
 39 40  2  0
 10 41  1  0
  6 42  1  0
 42 43  2  0
 43 44  1  0
 44 45  1  0
 43  3  1  0
 41  7  2  0
 23 18  1  0
 33 29  1  0
 40 34  1  0
  1 46  1  0
  1 47  1  0
  1 48  1  0
  4 49  1  0
  5 50  1  0
 11 51  1  0
 11 52  1  0
 15 53  1  0
 15 54  1  0
 16 55  1  0
 16 56  1  0
 17 57  1  0
 17 58  1  0
 19 59  1  0
 19 60  1  0
 20 61  1  0
 20 62  1  0
 22 63  1  0
 22 64  1  0
 23 65  1  0
 23 66  1  0
 24 67  1  6
 27 68  1  0
 28 69  1  0
 28 70  1  0
 29 71  1  1
 30 72  1  0
 30 73  1  0
 31 74  1  0
 31 75  1  0
 32 76  1  0
 32 77  1  0
 35 78  1  0
 36 79  1  0
 39 80  1  0
 40 81  1  0
 42 82  1  0
 45 83  1  0
 45 84  1  0
 45 85  1  0
M  END
>  <Binding energies>  (1) 
[-9.68]

>  <Ligand effiencies>  (1) 
[-0.21043478260869564]

>  <Interactions>  (1) 
["V-B:TYR:539:CE2:9845, V-B:PRO:540:N:9853, V-B:PRO:540:CB:9854, V-B:TYR:539:CZ:9846, V-A:TYR:484:CZ:4343, V-A:LEU:475:CD1:4254, V-B:PRO:540:CA:9852, H-B:TYR:539:N:9839, V-B:TYR:539:CD1:9842, V-B:ILE:538:CA:9829, V-B:LEU:363:CD1:8157, V-B:ILE:538:CG2:9832, V-B:TYR:539:CE1:9844, V-A:TYR:484:CE1:4341, V-B:ILE:538:CB:9831, V-A:LEU:475:CD2:4255, V-B:MET:535:CE:9804, V-A:ARG:545:CZ:4923, V-A:ASP:366:CB:3208, H-B:TYR:539:OH:9847, V-A:ASP:366:CG:3209, H-A:GLY:454:N:4046, H-A:TYR:531:OH:4792, V-B:PRO:540:CD:9856, V-A:PRO:540:CB:4882, V-A:TYR:539:C:4864, V-A:PRO:540:CA:4880, V-A:LEU:363:CD1:3185, V-A:PRO:540:N:4881, H-B:LYS:534:NZ:9792, V-A:ILE:538:CG2:4860, V-A:ILE:538:CA:4857, V-A:ILE:538:CD1:4862, V-A:TYR:531:CE2:4790, V-A:TYR:539:CZ:4874, V-B:ASP:366:CB:8180, V-B:TYR:531:CZ:9763, V-A:TYR:539:CE2:4873, V-B:TYR:531:CE1:9761, V-B:ASP:366:CG:8181, V-B:ILE:369:CG2:8205, V-B:ILE:369:CD1:8207, V-B:ASP:366:CA:8178, V-B:ILE:369:CB:8204, V-A:TYR:539:CA:4866, V-A:PRO:540:CD:4884, V-B:PRO:540:CG:9855, V-A:LEU:475:CG:4253, V-B:ASP:366:C:8176, V-B:ILE:369:CG1:8206"]

$$$$
RR16_Rahimova_2017
     RDKit          3D

 80 85  0  0  0  0  0  0  0  0999 V2000
  130.3540  120.9950   63.3000 O   0  0  0  0  0  0  0  0  0  0  0  0
  130.5590  122.3850   62.8760 S   0  0  0  0  0  0  0  0  0  0  0  0
  131.9020  122.9760   62.8600 O   0  0  0  0  0  0  0  0  0  0  0  0
  129.5230  123.4040   63.8770 N   0  0  0  0  0  0  0  0  0  0  0  0
  130.0150  124.6960   64.4120 C   0  0  0  0  0  0  0  0  0  0  0  0
  129.5120  125.8480   63.5040 C   0  0  0  0  0  0  0  0  0  0  0  0
  129.8130  127.2890   63.9580 C   0  0  0  0  0  0  0  0  0  0  0  0
  129.1440  127.6780   65.2870 C   0  0  0  0  0  0  0  0  0  0  0  0
  129.9210  127.3120   66.5670 C   0  0  0  0  0  0  0  0  0  0  0  0
  130.3890  125.8500   66.7130 C   0  0  0  0  0  0  0  0  0  0  0  0
  129.6130  124.7930   65.9030 C   0  0  0  0  0  0  0  0  0  0  0  0
  129.8730  122.5320   61.2310 C   0  0  0  0  0  0  0  0  0  0  0  0
  130.1310  123.6660   60.4580 C   0  0  0  0  0  0  0  0  0  0  0  0
  129.4930  123.8230   59.2310 C   0  0  0  0  0  0  0  0  0  0  0  0
  128.6010  122.8460   58.7820 C   0  0  0  0  0  0  0  0  0  0  0  0
  127.6730  123.1120   57.2730 S   0  0  0  0  0  0  0  0  0  0  0  0
  126.2510  122.9340   57.5950 O   0  0  0  0  0  0  0  0  0  0  0  0
  128.3020  122.3030   56.2220 O   0  0  0  0  0  0  0  0  0  0  0  0
  127.9470  124.8230   56.8910 N   0  0  0  0  0  0  0  0  0  0  0  0
  127.2060  125.7740   57.7600 C   0  0  0  0  0  0  0  0  0  0  0  0
  127.2540  127.1970   57.1670 C   0  0  0  0  0  0  0  0  0  0  0  0
  128.7060  127.6490   56.8750 C   0  0  0  0  0  0  0  0  0  0  0  0
  128.7720  129.0420   56.2420 C   0  0  0  0  0  0  0  0  0  0  0  0
  127.6920  129.5140   55.4840 C   0  0  0  0  0  0  0  0  0  0  0  0
  127.7060  130.7790   54.8950 C   0  0  0  0  0  0  0  0  0  0  0  0
  126.6380  131.2250   54.1600 O   0  0  0  0  0  0  0  0  0  0  0  0
  128.8400  131.5830   55.0820 C   0  0  0  0  0  0  0  0  0  0  0  0
  129.1240  132.8470   54.6510 N   0  0  0  0  0  0  0  0  0  0  0  0
  130.3680  133.1820   55.1410 N   0  0  0  0  0  0  0  0  0  0  0  0
  130.8560  132.1280   55.8220 N   0  0  0  0  0  0  0  0  0  0  0  0
  132.1280  132.2340   56.5240 C   0  0  0  0  0  0  0  0  0  0  0  0
  132.0470  131.7450   57.9640 C   0  0  0  0  0  0  0  0  0  0  0  0
  133.1580  131.1440   58.5650 C   0  0  0  0  0  0  0  0  0  0  0  0
  133.0930  130.7150   59.8910 C   0  0  0  0  0  0  0  0  0  0  0  0
  131.9180  130.8870   60.6240 C   0  0  0  0  0  0  0  0  0  0  0  0
  130.8080  131.4890   60.0310 C   0  0  0  0  0  0  0  0  0  0  0  0
  129.3560  131.7120   60.9380 Cl  0  0  0  0  0  0  0  0  0  0  0  0
  130.8710  131.9140   58.7020 C   0  0  0  0  0  0  0  0  0  0  0  0
  129.9300  131.0970   55.8420 C   0  0  0  0  0  0  0  0  0  0  0  0
  129.9190  129.8270   56.4290 C   0  0  0  0  0  0  0  0  0  0  0  0
  129.5040  126.5870   56.0740 C   0  0  0  0  0  0  0  0  0  0  0  0
  129.3760  125.1820   56.6960 C   0  0  0  0  0  0  0  0  0  0  0  0
  128.3770  121.6930   59.5370 C   0  0  0  0  0  0  0  0  0  0  0  0
  129.0110  121.5370   60.7650 C   0  0  0  0  0  0  0  0  0  0  0  0
  128.5130  123.3230   63.7350 H   0  0  0  0  0  0  0  0  0  0  0  0
  131.1120  124.7750   64.3914 H   0  0  0  0  0  0  0  0  0  0  0  0
  129.9697  125.7115   62.5131 H   0  0  0  0  0  0  0  0  0  0  0  0
  128.4152  125.7679   63.5281 H   0  0  0  0  0  0  0  0  0  0  0  0
  130.9017  127.3948   64.0746 H   0  0  0  0  0  0  0  0  0  0  0  0
  129.4030  127.9581   63.1871 H   0  0  0  0  0  0  0  0  0  0  0  0
  128.9962  128.7680   65.2830 H   0  0  0  0  0  0  0  0  0  0  0  0
  128.2107  127.0975   65.3303 H   0  0  0  0  0  0  0  0  0  0  0  0
  130.8154  127.9513   66.6055 H   0  0  0  0  0  0  0  0  0  0  0  0
  129.2040  127.4636   67.3873 H   0  0  0  0  0  0  0  0  0  0  0  0
  131.4423  125.8038   66.3992 H   0  0  0  0  0  0  0  0  0  0  0  0
  130.2136  125.5932   67.7681 H   0  0  0  0  0  0  0  0  0  0  0  0
  129.7844  123.8112   66.3684 H   0  0  0  0  0  0  0  0  0  0  0  0
  128.5576  125.1024   65.9202 H   0  0  0  0  0  0  0  0  0  0  0  0
  130.8349  124.4313   60.8170 H   0  0  0  0  0  0  0  0  0  0  0  0
  129.6905  124.7138   58.6166 H   0  0  0  0  0  0  0  0  0  0  0  0
  126.1578  125.4502   57.8397 H   0  0  0  0  0  0  0  0  0  0  0  0
  127.6754  125.7870   58.7547 H   0  0  0  0  0  0  0  0  0  0  0  0
  126.6810  127.2111   56.2282 H   0  0  0  0  0  0  0  0  0  0  0  0
  126.8217  127.8896   57.9042 H   0  0  0  0  0  0  0  0  0  0  0  0
  129.2064  127.7371   57.8506 H   0  0  0  0  0  0  0  0  0  0  0  0
  126.8101  128.8705   55.3498 H   0  0  0  0  0  0  0  0  0  0  0  0
  126.0550  131.8060   54.6540 H   0  0  0  0  0  0  0  0  0  0  0  0
  132.8765  131.6309   55.9891 H   0  0  0  0  0  0  0  0  0  0  0  0
  132.4058  133.2980   56.5495 H   0  0  0  0  0  0  0  0  0  0  0  0
  134.0861  131.0092   57.9902 H   0  0  0  0  0  0  0  0  0  0  0  0
  133.9684  130.2409   60.3589 H   0  0  0  0  0  0  0  0  0  0  0  0
  131.8671  130.5479   61.6692 H   0  0  0  0  0  0  0  0  0  0  0  0
  129.9929  132.3831   58.2342 H   0  0  0  0  0  0  0  0  0  0  0  0
  130.7752  129.4592   57.0134 H   0  0  0  0  0  0  0  0  0  0  0  0
  129.1200  126.5561   55.0437 H   0  0  0  0  0  0  0  0  0  0  0  0
  130.5661  126.8728   56.0929 H   0  0  0  0  0  0  0  0  0  0  0  0
  129.8452  124.4463   56.0262 H   0  0  0  0  0  0  0  0  0  0  0  0
  129.8780  125.1810   57.6748 H   0  0  0  0  0  0  0  0  0  0  0  0
  127.7012  120.9104   59.1617 H   0  0  0  0  0  0  0  0  0  0  0  0
  128.8342  120.6334   61.3668 H   0  0  0  0  0  0  0  0  0  0  0  0
  1  2  2  0
  2  3  2  0
  2  4  1  0
  4  5  1  0
  5  6  1  0
  6  7  1  0
  7  8  1  0
  8  9  1  0
  9 10  1  0
 10 11  1  0
  2 12  1  0
 12 13  2  0
 13 14  1  0
 14 15  2  0
 15 16  1  0
 16 17  2  0
 16 18  2  0
 16 19  1  0
 19 20  1  0
 20 21  1  0
 21 22  1  0
 22 23  1  0
 23 24  2  0
 24 25  1  0
 25 26  1  0
 25 27  2  0
 27 28  1  0
 28 29  2  0
 29 30  1  0
 30 31  1  0
 31 32  1  0
 32 33  2  0
 33 34  1  0
 34 35  2  0
 35 36  1  0
 36 37  1  0
 36 38  2  0
 30 39  1  0
 39 40  2  0
 22 41  1  0
 41 42  1  0
 15 43  1  0
 43 44  2  0
 11  5  1  0
 44 12  1  0
 42 19  1  0
 40 23  1  0
 39 27  1  0
 38 32  1  0
  4 45  1  0
  5 46  1  0
  6 47  1  0
  6 48  1  0
  7 49  1  0
  7 50  1  0
  8 51  1  0
  8 52  1  0
  9 53  1  0
  9 54  1  0
 10 55  1  0
 10 56  1  0
 11 57  1  0
 11 58  1  0
 13 59  1  0
 14 60  1  0
 20 61  1  0
 20 62  1  0
 21 63  1  0
 21 64  1  0
 22 65  1  0
 24 66  1  0
 26 67  1  0
 31 68  1  0
 31 69  1  0
 33 70  1  0
 34 71  1  0
 35 72  1  0
 38 73  1  0
 40 74  1  0
 41 75  1  0
 41 76  1  0
 42 77  1  0
 42 78  1  0
 43 79  1  0
 44 80  1  0
M  END
>  <Binding energies>  (1) 
[-11.15]

>  <Ligand effiencies>  (1) 
[-0.23229166666666667]

>  <Interactions>  (1) 
["V-B:TYR:539:CE2:9845, V-B:PRO:540:N:9853, V-B:TYR:539:CZ:9846, V-A:LEU:475:CD1:4254, V-B:PRO:540:CA:9852, H-B:TYR:539:N:9839, V-B:PRO:540:C:9850, V-B:TYR:539:C:9836, V-B:ALA:541:CB:9861, V-B:GLU:543:CD:9877, V-A:TYR:484:CE1:4341, V-B:GLU:543:CG:9876, H-B:GLU:543:OE2:9879, V-B:MET:535:CE:9804, V-A:GLU:543:CD:4905, V-A:HIS:456:CE1:4066, V-A:ASP:366:CG:3209, V-B:GLU:543:CB:9875, H-A:TYR:539:OH:4875, V-A:PRO:540:CB:4882, V-A:TYR:539:C:4864, V-A:PRO:540:CA:4880, H-A:TYR:539:N:4867, V-A:LEU:363:CD1:3185, V-A:PRO:540:N:4881, H-B:LYS:534:NZ:9792, V-A:ILE:538:CG2:4860, V-A:ILE:538:CD1:4862, V-B:TYR:539:CG:9841, V-B:TYR:539:CD2:9843, V-A:LEU:363:CA:3181, V-A:ASN:362:CB:3172, V-A:GLU:543:CB:4903, V-A:ASN:362:C:3168, V-A:PRO:540:CD:4884"]

$$$$
RR17_Rahimova_2017
     RDKit          3D

 63 66  0  0  0  0  0  0  0  0999 V2000
  126.9700  128.5720   74.2890 C   0  0  0  0  0  0  0  0  0  0  0  0
  128.3440  129.1250   73.9000 C   0  0  0  0  0  0  0  0  0  0  0  0
  129.1810  128.0400   73.5090 O   0  0  0  0  0  0  0  0  0  0  0  0
  129.0580  127.5140   72.2360 C   0  0  0  0  0  0  0  0  0  0  0  0
  129.9500  127.9900   71.2770 C   0  0  0  0  0  0  0  0  0  0  0  0
  129.9020  127.5210   69.9690 C   0  0  0  0  0  0  0  0  0  0  0  0
  128.9530  126.5600   69.5900 C   0  0  0  0  0  0  0  0  0  0  0  0
  128.9260  126.0720   68.1710 C   0  0  0  0  0  0  0  0  0  0  0  0
  129.5970  125.1080   67.7900 O   0  0  0  0  0  0  0  0  0  0  0  0
  128.0220  126.8410   67.1810 C   0  0  0  0  0  0  0  0  0  0  0  0
  128.9330  128.1590   66.2990 S   0  0  0  0  0  0  0  0  0  0  0  0
  128.1660  128.0460   64.7070 C   0  0  0  0  0  0  0  0  0  0  0  0
  127.0600  128.6570   64.3510 N   0  0  0  0  0  0  0  0  0  0  0  0
  126.7950  128.3210   63.0290 N   0  0  0  0  0  0  0  0  0  0  0  0
  127.7530  127.5210   62.6350 C   0  0  0  0  0  0  0  0  0  0  0  0
  127.8590  126.9210   61.2410 C   0  0  0  0  0  0  0  0  0  0  0  0
  126.5760  126.5070   60.6770 N   0  0  0  0  0  0  0  0  0  0  0  0
  126.4460  125.5840   59.6240 C   0  0  0  0  0  0  0  0  0  0  0  0
  127.1240  124.3710   59.7470 C   0  0  0  0  0  0  0  0  0  0  0  0
  127.0440  123.4150   58.7390 C   0  0  0  0  0  0  0  0  0  0  0  0
  126.2790  123.6600   57.5950 C   0  0  0  0  0  0  0  0  0  0  0  0
  126.2060  122.6020   56.4950 C   0  0  0  0  0  0  0  0  0  0  0  0
  126.4010  123.1210   55.2800 F   0  0  0  0  0  0  0  0  0  0  0  0
  127.1300  121.6600   56.6930 F   0  0  0  0  0  0  0  0  0  0  0  0
  125.0020  122.0300   56.5170 F   0  0  0  0  0  0  0  0  0  0  0  0
  125.5910  124.8720   57.4740 C   0  0  0  0  0  0  0  0  0  0  0  0
  125.6710  125.8270   58.4830 C   0  0  0  0  0  0  0  0  0  0  0  0
  128.6520  127.2950   63.6570 N   0  0  0  0  0  0  0  0  0  0  0  0
  129.8130  126.5070   63.6220 C   0  0  0  0  0  0  0  0  0  0  0  0
  130.0760  125.6250   64.6700 C   0  0  0  0  0  0  0  0  0  0  0  0
  131.2300  124.8460   64.6370 C   0  0  0  0  0  0  0  0  0  0  0  0
  132.1220  124.9480   63.5580 C   0  0  0  0  0  0  0  0  0  0  0  0
  133.2880  124.2170   63.4410 O   0  0  0  0  0  0  0  0  0  0  0  0
  133.7350  123.8240   62.1470 C   0  0  0  0  0  0  0  0  0  0  0  0
  131.8430  125.8390   62.5190 C   0  0  0  0  0  0  0  0  0  0  0  0
  130.6910  126.6200   62.5450 C   0  0  0  0  0  0  0  0  0  0  0  0
  128.0560  126.0810   70.5560 C   0  0  0  0  0  0  0  0  0  0  0  0
  128.1070  126.5510   71.8660 C   0  0  0  0  0  0  0  0  0  0  0  0
  126.8854  128.5380   75.3852 H   0  0  0  0  0  0  0  0  0  0  0  0
  126.1835  129.2236   73.8806 H   0  0  0  0  0  0  0  0  0  0  0  0
  126.8541  127.5572   73.8806 H   0  0  0  0  0  0  0  0  0  0  0  0
  128.2355  129.8291   73.0619 H   0  0  0  0  0  0  0  0  0  0  0  0
  128.7908  129.6526   74.7556 H   0  0  0  0  0  0  0  0  0  0  0  0
  130.6997  128.7444   71.5577 H   0  0  0  0  0  0  0  0  0  0  0  0
  130.6144  127.9069   69.2249 H   0  0  0  0  0  0  0  0  0  0  0  0
  127.6211  126.1315   66.4422 H   0  0  0  0  0  0  0  0  0  0  0  0
  127.2144  127.3152   67.7580 H   0  0  0  0  0  0  0  0  0  0  0  0
  128.3049  127.6727   60.5731 H   0  0  0  0  0  0  0  0  0  0  0  0
  128.4772  126.0154   61.3286 H   0  0  0  0  0  0  0  0  0  0  0  0
  125.7660  127.0600   60.9150 H   0  0  0  0  0  0  0  0  0  0  0  0
  127.7252  124.1691   60.6458 H   0  0  0  0  0  0  0  0  0  0  0  0
  127.5849  122.4628   58.8428 H   0  0  0  0  0  0  0  0  0  0  0  0
  124.9846  125.0709   56.5781 H   0  0  0  0  0  0  0  0  0  0  0  0
  125.1237  126.7760   58.3841 H   0  0  0  0  0  0  0  0  0  0  0  0
  129.3774  125.5453   65.5160 H   0  0  0  0  0  0  0  0  0  0  0  0
  131.4433  124.1479   65.4599 H   0  0  0  0  0  0  0  0  0  0  0  0
  134.5577  123.1007   62.2473 H   0  0  0  0  0  0  0  0  0  0  0  0
  132.9032  123.3594   61.5972 H   0  0  0  0  0  0  0  0  0  0  0  0
  134.0893  124.7084   61.5972 H   0  0  0  0  0  0  0  0  0  0  0  0
  132.5401  125.9243   61.6724 H   0  0  0  0  0  0  0  0  0  0  0  0
  130.4756  127.3195   61.7238 H   0  0  0  0  0  0  0  0  0  0  0  0
  127.3053  125.3272   70.2763 H   0  0  0  0  0  0  0  0  0  0  0  0
  127.3985  126.1655   72.6140 H   0  0  0  0  0  0  0  0  0  0  0  0
  1  2  1  0
  2  3  1  0
  3  4  1  0
  4  5  2  0
  5  6  1  0
  6  7  2  0
  7  8  1  0
  8  9  2  0
  8 10  1  0
 10 11  1  0
 11 12  1  0
 12 13  2  0
 13 14  1  0
 14 15  2  0
 15 16  1  0
 16 17  1  0
 17 18  1  0
 18 19  2  0
 19 20  1  0
 20 21  2  0
 21 22  1  0
 22 23  1  0
 22 24  1  0
 22 25  1  0
 21 26  1  0
 26 27  2  0
 15 28  1  0
 28 29  1  0
 29 30  2  0
 30 31  1  0
 31 32  2  0
 32 33  1  0
 33 34  1  0
 32 35  1  0
 35 36  2  0
  7 37  1  0
 37 38  2  0
 38  4  1  0
 28 12  1  0
 36 29  1  0
 27 18  1  0
  1 39  1  0
  1 40  1  0
  1 41  1  0
  2 42  1  0
  2 43  1  0
  5 44  1  0
  6 45  1  0
 10 46  1  0
 10 47  1  0
 16 48  1  0
 16 49  1  0
 17 50  1  0
 19 51  1  0
 20 52  1  0
 26 53  1  0
 27 54  1  0
 30 55  1  0
 31 56  1  0
 34 57  1  0
 34 58  1  0
 34 59  1  0
 35 60  1  0
 36 61  1  0
 37 62  1  0
 38 63  1  0
M  END
>  <Binding energies>  (1) 
[-8.6]

>  <Ligand effiencies>  (1) 
[-0.2205128205128205]

>  <Interactions>  (1) 
["V-B:PRO:540:N:9853, V-B:PRO:540:CB:9854, V-B:PRO:540:CA:9852, V-B:TYR:539:CD1:9842, V-B:ILE:538:CA:9829, V-B:ILE:538:C:9827, V-B:TYR:539:C:9836, V-B:LEU:363:CD1:8157, V-B:ILE:538:CG2:9832, V-B:TYR:539:CE1:9844, V-B:GLU:543:CD:9877, V-B:ILE:538:CB:9831, V-B:GLU:543:CG:9876, H-B:GLU:543:OE2:9879, V-B:MET:535:CE:9804, V-A:ARG:545:CZ:4923, V-A:GLY:454:CA:4045, V-A:GLU:543:CD:4905, V-A:HIS:456:CE1:4066, V-A:ASP:366:CG:3209, V-B:GLU:543:CB:9875, H-A:GLY:454:N:4046, H-A:TYR:484:OH:4344, V-B:PRO:540:CD:9856, V-B:TYR:539:CA:9838, V-B:TYR:539:CG:9841, H-B:ASP:366:OD1:8182, V-A:LYS:547:CE:4947, V-B:HIS:456:CD2:9036, H-A:LYS:547:NZ:4948, V-B:LYS:547:CE:9919, V-B:HIS:456:CB:9033, V-B:HIS:456:CE1:9038, V-B:GLY:544:C:9881, V-B:GLU:543:C:9871, V-B:PRO:540:CG:9855, H-B:ARG:545:NH2:9897"]

$$$$
RR18_Rahimova_2017
     RDKit          3D

 56 61  0  0  0  0  0  0  0  0999 V2000
  133.2660  131.3760   57.6980 C   0  0  0  0  0  0  0  0  0  0  0  0
  132.2980  130.6670   58.6120 C   0  0  0  0  0  0  0  0  0  0  0  0
  131.8000  130.9250   59.8790 C   0  0  0  0  0  0  0  0  0  0  0  0
  130.9280  129.8820   60.1880 C   0  0  0  0  0  0  0  0  0  0  0  0
  130.9230  129.0250   59.1000 C   0  0  0  0  0  0  0  0  0  0  0  0
  130.1960  127.7210   58.7830 C   0  0  1  0  0  0  0  0  0  0  0  0
  130.4760  127.2500   57.3250 C   0  0  0  0  0  0  0  0  0  0  0  0
  130.0150  128.0440   56.1900 C   0  0  0  0  0  0  0  0  0  0  0  0
  129.9590  127.5780   55.0510 O   0  0  0  0  0  0  0  0  0  0  0  0
  129.6490  129.3070   56.5100 N   0  0  0  0  0  0  0  0  0  0  0  0
  129.1790  130.3560   55.6910 C   0  0  0  0  0  0  0  0  0  0  0  0
  128.6450  130.1560   54.4050 C   0  0  0  0  0  0  0  0  0  0  0  0
  128.2040  131.2370   53.6440 C   0  0  0  0  0  0  0  0  0  0  0  0
  128.2950  132.5300   54.1490 C   0  0  0  0  0  0  0  0  0  0  0  0
  128.8320  132.7450   55.4160 C   0  0  0  0  0  0  0  0  0  0  0  0
  129.2780  131.6700   56.1920 C   0  0  0  0  0  0  0  0  0  0  0  0
  129.8630  131.9590   57.5710 C   0  0  0  0  0  0  0  0  0  0  0  0
  131.2450  126.1450   57.1380 C   0  0  0  0  0  0  0  0  0  0  0  0
  131.6980  125.3360   58.1360 N   0  0  0  0  0  0  0  0  0  0  0  0
  131.3300  125.5580   59.3440 C   0  0  0  0  0  0  0  0  0  0  0  0
  131.7060  124.5240   60.7020 S   0  0  0  0  0  0  0  0  0  0  0  0
  130.7930  125.5780   61.8260 C   0  0  0  0  0  0  0  0  0  0  0  0
  130.6180  125.3980   63.1810 C   0  0  0  0  0  0  0  0  0  0  0  0
  131.1430  124.1940   63.8430 C   0  0  0  0  0  0  0  0  0  0  0  0
  131.7820  123.2510   63.3790 O   0  0  0  0  0  0  0  0  0  0  0  0
  130.7840  124.2590   65.1290 N   0  0  0  0  0  0  0  0  0  0  0  0
  130.0980  125.3950   65.4330 C   0  0  0  0  0  0  0  0  0  0  0  0
  129.5930  125.7820   66.6740 C   0  0  0  0  0  0  0  0  0  0  0  0
  128.9420  127.0080   66.7820 C   0  0  0  0  0  0  0  0  0  0  0  0
  128.8160  127.8230   65.6580 C   0  0  0  0  0  0  0  0  0  0  0  0
  129.3300  127.4120   64.4260 C   0  0  0  0  0  0  0  0  0  0  0  0
  129.9700  126.1660   64.2910 C   0  0  0  0  0  0  0  0  0  0  0  0
  130.2330  126.6860   61.0510 C   0  0  0  0  0  0  0  0  0  0  0  0
  129.5050  127.5790   61.4750 O   0  0  0  0  0  0  0  0  0  0  0  0
  130.5910  126.6260   59.7390 N   0  0  0  0  0  0  0  0  0  0  0  0
  131.7610  129.5090   58.1450 O   0  0  0  0  0  0  0  0  0  0  0  0
  134.0083  131.9197   58.3008 H   0  0  0  0  0  0  0  0  0  0  0  0
  133.7785  130.6381   57.0633 H   0  0  0  0  0  0  0  0  0  0  0  0
  132.7171  132.0873   57.0633 H   0  0  0  0  0  0  0  0  0  0  0  0
  132.0453  131.7864   60.5177 H   0  0  0  0  0  0  0  0  0  0  0  0
  130.3535  129.7625   61.1184 H   0  0  0  0  0  0  0  0  0  0  0  0
  129.1208  127.9258   58.8927 H   0  0  0  0  0  0  0  0  0  0  0  0
  129.6640  129.5330   57.4930 H   0  0  0  0  0  0  0  0  0  0  0  0
  128.5749  129.1371   53.9964 H   0  0  0  0  0  0  0  0  0  0  0  0
  127.7831  131.0675   52.6420 H   0  0  0  0  0  0  0  0  0  0  0  0
  127.9432  133.3817   53.5483 H   0  0  0  0  0  0  0  0  0  0  0  0
  128.9061  133.7694   55.8100 H   0  0  0  0  0  0  0  0  0  0  0  0
  129.1631  131.6132   58.3460 H   0  0  0  0  0  0  0  0  0  0  0  0
  130.8216  131.4308   57.6807 H   0  0  0  0  0  0  0  0  0  0  0  0
  130.0260  133.0413   57.6807 H   0  0  0  0  0  0  0  0  0  0  0  0
  131.5217  125.8850   56.1056 H   0  0  0  0  0  0  0  0  0  0  0  0
  131.0210  123.5460   65.8030 H   0  0  0  0  0  0  0  0  0  0  0  0
  129.7070  125.1298   67.5525 H   0  0  0  0  0  0  0  0  0  0  0  0
  128.5294  127.3318   67.7489 H   0  0  0  0  0  0  0  0  0  0  0  0
  128.3088  128.7955   65.7418 H   0  0  0  0  0  0  0  0  0  0  0  0
  129.2333  128.0706   63.5503 H   0  0  0  0  0  0  0  0  0  0  0  0
  1  2  1  0
  2  3  2  0
  3  4  1  0
  4  5  2  0
  5  6  1  0
  6  7  1  0
  7  8  1  0
  8  9  2  0
  8 10  1  0
 10 11  1  0
 11 12  2  0
 12 13  1  0
 13 14  2  0
 14 15  1  0
 15 16  2  0
 16 17  1  0
  7 18  2  0
 18 19  1  0
 19 20  2  0
 20 21  1  0
 21 22  1  0
 22 23  2  0
 23 24  1  0
 24 25  2  0
 24 26  1  0
 26 27  1  0
 27 28  2  0
 28 29  1  0
 29 30  2  0
 30 31  1  0
 31 32  2  0
 22 33  1  0
 33 34  2  0
 33 35  1  0
  5 36  1  0
 36  2  1  0
 35  6  1  0
 16 11  1  0
 35 20  1  0
 32 23  1  0
 32 27  1  0
  1 37  1  0
  1 38  1  0
  1 39  1  0
  3 40  1  0
  4 41  1  0
  6 42  1  6
 10 43  1  0
 12 44  1  0
 13 45  1  0
 14 46  1  0
 15 47  1  0
 17 48  1  0
 17 49  1  0
 17 50  1  0
 18 51  1  0
 26 52  1  0
 28 53  1  0
 29 54  1  0
 30 55  1  0
 31 56  1  0
M  END
>  <Binding energies>  (1) 
[-9.35]

>  <Ligand effiencies>  (1) 
[-0.24605263157894736]

>  <Interactions>  (1) 
["V-A:TYR:484:CZ:4343, V-B:GLU:543:CD:9877, V-A:TYR:484:CE1:4341, V-B:GLU:543:CG:9876, V-B:MET:535:CE:9804, V-A:GLU:543:CD:4905, V-A:ASP:366:CB:3208, V-A:HIS:456:CE1:4066, H-B:TYR:539:OH:9847, V-A:ASP:366:CG:3209, V-B:GLU:543:CB:9875, H-A:TYR:484:OH:4344, H-A:TYR:531:OH:4792, V-A:PRO:540:CB:4882, V-A:TYR:539:CE1:4872, V-A:TYR:539:C:4864, V-A:PRO:540:CA:4880, V-A:LEU:363:CD1:3185, V-A:PRO:540:N:4881, V-A:TYR:539:CD1:4870, V-A:ILE:538:CA:4857, V-A:ILE:538:CD1:4862, V-A:TYR:539:CZ:4874, V-A:LEU:363:CA:3181, V-A:TYR:539:CD2:4871, V-A:LEU:363:CB:3183, V-A:TYR:539:CE2:4873, V-A:TYR:539:CG:4869"]

$$$$
RR19_Rahimova_2017
     RDKit          3D

 72 77  0  0  0  0  0  0  0  0999 V2000
  127.7090  129.0490   64.6900 O   0  0  0  0  0  0  0  0  0  0  0  0
  128.0320  127.9000   64.3730 C   0  0  0  0  0  0  0  0  0  0  0  0
  127.7380  127.2850   63.2000 N   0  0  0  0  0  0  0  0  0  0  0  0
  127.2430  127.7410   62.0030 C   0  0  0  0  0  0  0  0  0  0  0  0
  127.0680  129.3660   61.5630 S   0  0  0  0  0  0  0  0  0  0  0  0
  126.9140  126.6600   61.2230 N   0  0  0  0  0  0  0  0  0  0  0  0
  126.5270  126.5380   59.9280 C   0  0  0  0  0  0  0  0  0  0  0  0
  126.5560  127.4220   59.0690 O   0  0  0  0  0  0  0  0  0  0  0  0
  125.9850  125.1320   59.5640 C   0  0  2  0  0  0  0  0  0  0  0  0
  125.9770  124.1120   60.7390 C   0  0  0  0  0  0  0  0  0  0  0  0
  127.2600  123.3160   60.9140 C   0  0  0  0  0  0  0  0  0  0  0  0
  127.5900  122.2690   60.0260 C   0  0  0  0  0  0  0  0  0  0  0  0
  128.8030  121.6060   60.1540 C   0  0  0  0  0  0  0  0  0  0  0  0
  129.7050  121.9800   61.1420 C   0  0  0  0  0  0  0  0  0  0  0  0
  129.4070  123.0280   62.0040 C   0  0  0  0  0  0  0  0  0  0  0  0
  128.2010  123.7050   61.8920 C   0  0  0  0  0  0  0  0  0  0  0  0
  126.6730  124.5810   58.3650 N   0  0  0  0  0  0  0  0  0  0  0  0
  126.0080  123.8150   57.4550 C   0  0  0  0  0  0  0  0  0  0  0  0
  124.8280  123.4620   57.4960 O   0  0  0  0  0  0  0  0  0  0  0  0
  127.0020  123.4990   56.4000 C   0  0  0  0  0  0  0  0  0  0  0  0
  126.8870  122.7480   55.2300 C   0  0  0  0  0  0  0  0  0  0  0  0
  128.0070  122.6220   54.4010 C   0  0  0  0  0  0  0  0  0  0  0  0
  129.2150  123.2420   54.7480 C   0  0  0  0  0  0  0  0  0  0  0  0
  129.3100  123.9920   55.9260 C   0  0  0  0  0  0  0  0  0  0  0  0
  128.1820  124.1040   56.7390 C   0  0  0  0  0  0  0  0  0  0  0  0
  127.9730  124.8250   58.0190 C   0  0  0  0  0  0  0  0  0  0  0  0
  128.7970  125.5050   58.6320 O   0  0  0  0  0  0  0  0  0  0  0  0
  128.8370  127.0280   65.3730 C   0  0  2  0  0  0  0  0  0  0  0  0
  129.4860  127.8350   66.5340 C   0  0  0  0  0  0  0  0  0  0  0  0
  129.1360  127.3150   67.9160 C   0  0  0  0  0  0  0  0  0  0  0  0
  129.8830  127.7310   69.0400 C   0  0  0  0  0  0  0  0  0  0  0  0
  129.4980  127.3360   70.3150 C   0  0  0  0  0  0  0  0  0  0  0  0
  128.3640  126.5540   70.4930 C   0  0  0  0  0  0  0  0  0  0  0  0
  127.5970  126.1700   69.4000 C   0  0  0  0  0  0  0  0  0  0  0  0
  127.9650  126.5540   68.1170 C   0  0  0  0  0  0  0  0  0  0  0  0
  129.8280  126.1320   64.7100 N   0  0  0  0  0  0  0  0  0  0  0  0
  130.5230  126.5240   63.6060 C   0  0  0  0  0  0  0  0  0  0  0  0
  130.4340  127.5980   63.0110 O   0  0  0  0  0  0  0  0  0  0  0  0
  131.4090  125.3810   63.2720 C   0  0  0  0  0  0  0  0  0  0  0  0
  132.3350  125.2120   62.2420 C   0  0  0  0  0  0  0  0  0  0  0  0
  133.0450  124.0080   62.1700 C   0  0  0  0  0  0  0  0  0  0  0  0
  132.8260  123.0010   63.1200 C   0  0  0  0  0  0  0  0  0  0  0  0
  131.8950  123.1910   64.1470 C   0  0  0  0  0  0  0  0  0  0  0  0
  131.1950  124.3980   64.1990 C   0  0  0  0  0  0  0  0  0  0  0  0
  130.1670  124.8840   65.1510 C   0  0  0  0  0  0  0  0  0  0  0  0
  129.7160  124.2890   66.1300 O   0  0  0  0  0  0  0  0  0  0  0  0
  128.0290  126.3190   63.1720 H   0  0  0  0  0  0  0  0  0  0  0  0
  126.8610  125.7930   61.7370 H   0  0  0  0  0  0  0  0  0  0  0  0
  124.9235  125.2883   59.3216 H   0  0  0  0  0  0  0  0  0  0  0  0
  125.7913  124.6672   61.6703 H   0  0  0  0  0  0  0  0  0  0  0  0
  125.1928  123.3783   60.5009 H   0  0  0  0  0  0  0  0  0  0  0  0
  126.8857  121.9786   59.2325 H   0  0  0  0  0  0  0  0  0  0  0  0
  129.0509  120.7809   59.4701 H   0  0  0  0  0  0  0  0  0  0  0  0
  130.6601  121.4436   61.2424 H   0  0  0  0  0  0  0  0  0  0  0  0
  130.1303  123.3224   62.7787 H   0  0  0  0  0  0  0  0  0  0  0  0
  127.9779  124.5454   62.5657 H   0  0  0  0  0  0  0  0  0  0  0  0
  125.9351  122.2647   54.9646 H   0  0  0  0  0  0  0  0  0  0  0  0
  127.9392  122.0343   53.4737 H   0  0  0  0  0  0  0  0  0  0  0  0
  130.0920  123.1388   54.0920 H   0  0  0  0  0  0  0  0  0  0  0  0
  130.2542  124.4827   56.2048 H   0  0  0  0  0  0  0  0  0  0  0  0
  128.0774  126.3805   65.8354 H   0  0  0  0  0  0  0  0  0  0  0  0
  130.5788  127.7943   66.4153 H   0  0  0  0  0  0  0  0  0  0  0  0
  129.0917  128.8599   66.4695 H   0  0  0  0  0  0  0  0  0  0  0  0
  130.7698  128.3679   68.9059 H   0  0  0  0  0  0  0  0  0  0  0  0
  130.0936  127.6438   71.1871 H   0  0  0  0  0  0  0  0  0  0  0  0
  128.0715  126.2369   71.5049 H   0  0  0  0  0  0  0  0  0  0  0  0
  126.6947  125.5594   69.5514 H   0  0  0  0  0  0  0  0  0  0  0  0
  127.3431  126.2647   67.2570 H   0  0  0  0  0  0  0  0  0  0  0  0
  132.5035  126.0083   61.5021 H   0  0  0  0  0  0  0  0  0  0  0  0
  133.7778  123.8514   61.3647 H   0  0  0  0  0  0  0  0  0  0  0  0
  133.3883  122.0576   63.0579 H   0  0  0  0  0  0  0  0  0  0  0  0
  131.7183  122.4063   64.8974 H   0  0  0  0  0  0  0  0  0  0  0  0
  1  2  2  0
  2  3  1  0
  3  4  1  0
  4  5  2  0
  4  6  1  0
  6  7  1  0
  7  8  2  0
  7  9  1  0
  9 10  1  0
 10 11  1  0
 11 12  2  0
 12 13  1  0
 13 14  2  0
 14 15  1  0
 15 16  2  0
  9 17  1  0
 17 18  1  0
 18 19  2  0
 18 20  1  0
 20 21  2  0
 21 22  1  0
 22 23  2  0
 23 24  1  0
 24 25  2  0
 25 26  1  0
 26 27  2  0
  2 28  1  0
 28 29  1  0
 29 30  1  0
 30 31  2  0
 31 32  1  0
 32 33  2  0
 33 34  1  0
 34 35  2  0
 28 36  1  0
 36 37  1  0
 37 38  2  0
 37 39  1  0
 39 40  2  0
 40 41  1  0
 41 42  2  0
 42 43  1  0
 43 44  2  0
 44 45  1  0
 45 46  2  0
 16 11  1  0
 26 17  1  0
 35 30  1  0
 45 36  1  0
 25 20  1  0
 44 39  1  0
  3 47  1  0
  6 48  1  0
  9 49  1  6
 10 50  1  0
 10 51  1  0
 12 52  1  0
 13 53  1  0
 14 54  1  0
 15 55  1  0
 16 56  1  0
 21 57  1  0
 22 58  1  0
 23 59  1  0
 24 60  1  0
 28 61  1  1
 29 62  1  0
 29 63  1  0
 31 64  1  0
 32 65  1  0
 33 66  1  0
 34 67  1  0
 35 68  1  0
 40 69  1  0
 41 70  1  0
 42 71  1  0
 43 72  1  0
M  END
>  <Binding energies>  (1) 
[-11.19]

>  <Ligand effiencies>  (1) 
[-0.233125]

>  <Interactions>  (1) 
["V-B:TYR:539:CE2:9845, V-B:PRO:540:N:9853, V-B:TYR:539:CZ:9846, V-A:LEU:475:CD1:4254, V-B:PRO:540:CA:9852, V-B:TYR:539:CD1:9842, V-B:ILE:538:CA:9829, V-B:PRO:540:C:9850, V-B:TYR:539:C:9836, V-B:ALA:541:CB:9861, V-B:ILE:538:CG2:9832, V-B:TYR:539:CE1:9844, V-B:GLU:543:CD:9877, V-B:ILE:538:CB:9831, V-B:GLU:543:CG:9876, H-B:GLU:543:OE2:9879, V-B:MET:535:CE:9804, V-A:ARG:545:CZ:4923, V-A:GLY:454:CA:4045, V-A:GLU:543:CD:4905, V-A:HIS:456:CE1:4066, H-A:ARG:545:NH2:4925, V-A:ASP:366:CG:3209, V-A:GLU:543:CG:4904, V-B:GLU:543:CB:9875, H-A:TYR:484:OH:4344, V-B:TYR:539:CD2:9843, H-B:GLU:543:OE1:9878, V-B:HIS:456:CD2:9036, V-A:GLU:543:CB:4903, V-B:HIS:456:CE1:9038, V-B:GLY:544:C:9881, V-B:GLU:543:C:9871"]

$$$$
RR19_Rahimova_2017-again1
     RDKit          3D

 71 76  0  0  0  0  0  0  0  0999 V2000
  127.3160  121.6300   58.1520 O   0  0  0  0  0  0  0  0  0  0  0  0
  127.9070  122.6150   58.6030 C   0  0  0  0  0  0  0  0  0  0  0  0
  128.4400  123.6230   57.8730 N   0  0  0  0  0  0  0  0  0  0  0  0
  128.3790  123.9390   56.5450 C   0  0  0  0  0  0  0  0  0  0  0  0
  127.6890  123.1040   55.2600 S   0  0  0  0  0  0  0  0  0  0  0  0
  128.9510  125.1920   56.4100 N   0  0  0  0  0  0  0  0  0  0  0  0
  130.0750  125.6320   56.8750 C   0  0  0  0  0  0  0  0  0  0  0  0
  130.9820  125.0390   57.4930 O   0  0  0  0  0  0  0  0  0  0  0  0
  130.3450  127.1570   56.6460 C   0  0  2  0  0  0  0  0  0  0  0  0
  131.4090  127.7060   57.6550 C   0  0  0  0  0  0  0  0  0  0  0  0
  131.8000  129.1650   57.4330 C   0  0  0  0  0  0  0  0  0  0  0  0
  130.8150  130.1560   57.4180 C   0  0  0  0  0  0  0  0  0  0  0  0
  131.1710  131.4890   57.2310 C   0  0  0  0  0  0  0  0  0  0  0  0
  132.5130  131.8260   57.0560 C   0  0  0  0  0  0  0  0  0  0  0  0
  133.5000  130.8420   57.0650 C   0  0  0  0  0  0  0  0  0  0  0  0
  133.1420  129.5090   57.2510 C   0  0  0  0  0  0  0  0  0  0  0  0
  129.0950  127.9800   56.5480 N   0  0  0  0  0  0  0  0  0  0  0  0
  128.2280  128.0900   57.5950 C   0  0  0  0  0  0  0  0  0  0  0  0
  128.3210  127.5580   58.7020 O   0  0  0  0  0  0  0  0  0  0  0  0
  127.1440  128.9860   57.1160 C   0  0  0  0  0  0  0  0  0  0  0  0
  125.9920  129.4470   57.7540 C   0  0  0  0  0  0  0  0  0  0  0  0
  125.1320  130.2970   57.0490 C   0  0  0  0  0  0  0  0  0  0  0  0
  125.4320  130.6740   55.7340 C   0  0  0  0  0  0  0  0  0  0  0  0
  126.5930  130.2010   55.1130 C   0  0  0  0  0  0  0  0  0  0  0  0
  127.4360  129.3530   55.8320 C   0  0  0  0  0  0  0  0  0  0  0  0
  128.7140  128.7040   55.4510 C   0  0  0  0  0  0  0  0  0  0  0  0
  129.3030  128.8000   54.3760 O   0  0  0  0  0  0  0  0  0  0  0  0
  128.0890  122.7640   60.1430 C   0  0  2  0  0  0  0  0  0  0  0  0
  127.2000  123.8750   60.7730 C   0  0  0  0  0  0  0  0  0  0  0  0
  125.9540  124.1980   59.9690 C   0  0  0  0  0  0  0  0  0  0  0  0
  124.7270  123.5770   60.2860 C   0  0  0  0  0  0  0  0  0  0  0  0
  123.5680  123.9460   59.6160 C   0  0  0  0  0  0  0  0  0  0  0  0
  123.6040  124.9460   58.6510 C   0  0  0  0  0  0  0  0  0  0  0  0
  124.7980  125.5930   58.3560 C   0  0  0  0  0  0  0  0  0  0  0  0
  125.9680  125.2380   59.0150 C   0  0  0  0  0  0  0  0  0  0  0  0
  129.5140  122.8700   60.5800 N   0  0  0  0  0  0  0  0  0  0  0  0
  130.1960  121.7930   61.0620 C   0  0  0  0  0  0  0  0  0  0  0  0
  129.7540  120.6640   61.2760 O   0  0  0  0  0  0  0  0  0  0  0  0
  131.5880  122.2650   61.2650 C   0  0  0  0  0  0  0  0  0  0  0  0
  132.7220  121.5940   61.7260 C   0  0  0  0  0  0  0  0  0  0  0  0
  133.9310  122.2950   61.7970 C   0  0  0  0  0  0  0  0  0  0  0  0
  133.9900  123.6420   61.4140 C   0  0  0  0  0  0  0  0  0  0  0  0
  132.8410  124.2980   60.9580 C   0  0  0  0  0  0  0  0  0  0  0  0
  131.6460  123.5800   60.8920 C   0  0  0  0  0  0  0  0  0  0  0  0
  130.2940  123.9820   60.4320 C   0  0  0  0  0  0  0  0  0  0  0  0
  129.9530  125.0830   59.9970 O   0  0  0  0  0  0  0  0  0  0  0  0
  128.9040  124.3260   58.4270 H   0  0  0  0  0  0  0  0  0  0  0  0
  130.7944  127.2599   55.6473 H   0  0  0  0  0  0  0  0  0  0  0  0
  130.9993  127.6112   58.6714 H   0  0  0  0  0  0  0  0  0  0  0  0
  132.3214  127.1112   57.5011 H   0  0  0  0  0  0  0  0  0  0  0  0
  129.7581  129.8830   57.5540 H   0  0  0  0  0  0  0  0  0  0  0  0
  130.3983  132.2718   57.2213 H   0  0  0  0  0  0  0  0  0  0  0  0
  132.7953  132.8790   56.9094 H   0  0  0  0  0  0  0  0  0  0  0  0
  134.5560  131.1167   56.9259 H   0  0  0  0  0  0  0  0  0  0  0  0
  133.9156  128.7270   57.2546 H   0  0  0  0  0  0  0  0  0  0  0  0
  125.7647  129.1490   58.7882 H   0  0  0  0  0  0  0  0  0  0  0  0
  124.2161  130.6707   57.5301 H   0  0  0  0  0  0  0  0  0  0  0  0
  124.7524  131.3444   55.1875 H   0  0  0  0  0  0  0  0  0  0  0  0
  126.8360  130.4914   54.0802 H   0  0  0  0  0  0  0  0  0  0  0  0
  127.7211  121.8091   60.5465 H   0  0  0  0  0  0  0  0  0  0  0  0
  126.8891  123.5429   61.7745 H   0  0  0  0  0  0  0  0  0  0  0  0
  127.8076  124.7915   60.8006 H   0  0  0  0  0  0  0  0  0  0  0  0
  124.6887  122.8004   61.0641 H   0  0  0  0  0  0  0  0  0  0  0  0
  122.6172  123.4448   59.8499 H   0  0  0  0  0  0  0  0  0  0  0  0
  122.6832  125.2264   58.1185 H   0  0  0  0  0  0  0  0  0  0  0  0
  124.8166  126.3895   57.5975 H   0  0  0  0  0  0  0  0  0  0  0  0
  126.9062  125.7678   58.7932 H   0  0  0  0  0  0  0  0  0  0  0  0
  132.6664  120.5374   62.0268 H   0  0  0  0  0  0  0  0  0  0  0  0
  134.8387  121.7869   62.1548 H   0  0  0  0  0  0  0  0  0  0  0  0
  134.9442  124.1862   61.4721 H   0  0  0  0  0  0  0  0  0  0  0  0
  132.8788  125.3557   60.6583 H   0  0  0  0  0  0  0  0  0  0  0  0
  1  2  2  0
  2  3  1  0
  3  4  1  0
  4  5  2  0
  4  6  1  0
  6  7  2  0
  7  8  1  0
  7  9  1  0
  9 10  1  0
 10 11  1  0
 11 12  2  0
 12 13  1  0
 13 14  2  0
 14 15  1  0
 15 16  2  0
  9 17  1  0
 17 18  1  0
 18 19  2  0
 18 20  1  0
 20 21  2  0
 21 22  1  0
 22 23  2  0
 23 24  1  0
 24 25  2  0
 25 26  1  0
 26 27  2  0
  2 28  1  0
 28 29  1  0
 29 30  1  0
 30 31  2  0
 31 32  1  0
 32 33  2  0
 33 34  1  0
 34 35  2  0
 28 36  1  0
 36 37  1  0
 37 38  2  0
 37 39  1  0
 39 40  2  0
 40 41  1  0
 41 42  2  0
 42 43  1  0
 43 44  2  0
 44 45  1  0
 45 46  2  0
 16 11  1  0
 26 17  1  0
 35 30  1  0
 45 36  1  0
 25 20  1  0
 44 39  1  0
  3 47  1  0
  9 48  1  6
 10 49  1  0
 10 50  1  0
 12 51  1  0
 13 52  1  0
 14 53  1  0
 15 54  1  0
 16 55  1  0
 21 56  1  0
 22 57  1  0
 23 58  1  0
 24 59  1  0
 28 60  1  1
 29 61  1  0
 29 62  1  0
 31 63  1  0
 32 64  1  0
 33 65  1  0
 34 66  1  0
 35 67  1  0
 40 68  1  0
 41 69  1  0
 42 70  1  0
 43 71  1  0
M  CHG  1   8  -1
M  END
>  <Binding energies>  (1) 
[-10.11]

>  <Ligand effiencies>  (1) 
[-0.2151063829787234]

>  <Interactions>  (1) 
["V-B:TYR:539:CE2:9845, V-B:PRO:540:N:9853, V-B:PRO:540:CB:9854, V-B:TYR:539:CZ:9846, V-A:LEU:475:CD1:4254, V-B:PRO:540:CA:9852, H-B:TYR:539:N:9839, V-B:TYR:539:C:9836, V-B:LEU:363:CD1:8157, V-B:ALA:541:CB:9861, V-B:ILE:538:CG2:9832, V-B:TYR:539:CE1:9844, V-B:ILE:538:CB:9831, V-B:MET:535:CE:9804, V-A:GLY:454:CA:4045, V-A:ASP:366:CB:3208, H-B:TYR:539:OH:9847, V-A:ASP:366:CG:3209, H-A:TYR:531:OH:4792, V-B:LEU:363:CA:8153, V-A:PRO:540:CB:4882, V-A:PRO:540:CA:4880, V-A:LEU:363:CD1:3185, V-A:PRO:540:N:4881, V-A:TYR:531:CZ:4791, V-A:TYR:539:CZ:4874, V-B:ASP:366:CB:8180, V-B:TYR:531:CZ:9763, V-B:TYR:539:CD2:9843, V-A:LEU:363:CA:3181, V-A:LEU:363:CB:3183, V-A:TYR:539:CE2:4873, V-B:TYR:531:CE1:9761, V-B:ASN:362:C:8140, V-B:ASP:366:CG:8181, V-B:LEU:363:CB:8155"]

$$$$
RR1_Rahimova_2017
     RDKit          3D

 68 71  0  0  0  0  0  0  0  0999 V2000
  127.8000  122.4120   54.5830 C   0  0  0  0  0  0  0  0  0  0  0  0
  127.4100  122.0000   55.8880 O   0  0  0  0  0  0  0  0  0  0  0  0
  128.0360  122.5570   56.9860 C   0  0  0  0  0  0  0  0  0  0  0  0
  127.9470  122.0470   58.2910 C   0  0  0  0  0  0  0  0  0  0  0  0
  128.6080  122.6820   59.3390 C   0  0  0  0  0  0  0  0  0  0  0  0
  129.3710  123.8270   59.1030 C   0  0  0  0  0  0  0  0  0  0  0  0
  129.9630  124.4220   60.2330 N   0  0  0  0  0  0  0  0  0  0  0  0
  130.8580  125.4310   60.2990 C   0  0  0  0  0  0  0  0  0  0  0  0
  131.3760  125.9730   59.3230 O   0  0  0  0  0  0  0  0  0  0  0  0
  131.2130  125.8790   61.7260 C   0  0  0  0  0  0  0  0  0  0  0  0
  129.9630  125.4940   63.0020 S   0  0  0  0  0  0  0  0  0  0  0  0
  128.5350  125.9800   62.0940 C   0  0  0  0  0  0  0  0  0  0  0  0
  127.8380  125.1760   61.3310 N   0  0  0  0  0  0  0  0  0  0  0  0
  126.8620  125.9470   60.8620 C   0  0  0  0  0  0  0  0  0  0  0  0
  125.7990  125.4250   59.9390 C   0  0  0  0  0  0  0  0  0  0  0  0
  124.9050  124.4190   60.3420 C   0  0  0  0  0  0  0  0  0  0  0  0
  123.9280  123.9520   59.4610 C   0  0  0  0  0  0  0  0  0  0  0  0
  123.8660  124.5060   58.1840 C   0  0  0  0  0  0  0  0  0  0  0  0
  124.7130  125.4790   57.7610 N   0  0  0  0  0  0  0  0  0  0  0  0
  125.6550  125.9200   58.6330 C   0  0  0  0  0  0  0  0  0  0  0  0
  126.8900  127.2030   61.2680 N   0  0  0  0  0  0  0  0  0  0  0  0
  127.9660  127.2270   62.0590 N   0  0  0  0  0  0  0  0  0  0  0  0
  128.3530  128.4580   62.7500 C   0  0  0  0  0  0  0  0  0  0  0  0
  127.9810  128.5100   64.2420 C   0  0  0  0  0  0  0  0  0  0  0  0
  126.8450  128.8400   64.6000 O   0  0  0  0  0  0  0  0  0  0  0  0
  128.9760  128.1770   65.0870 N   0  0  0  0  0  0  0  0  0  0  0  0
  128.6750  128.0590   66.4370 N   0  0  0  0  0  0  0  0  0  0  0  0
  129.5190  127.3430   67.2110 C   0  0  0  0  0  0  0  0  0  0  0  0
  130.5930  126.8750   66.8150 O   0  0  0  0  0  0  0  0  0  0  0  0
  129.0880  127.1540   68.6510 C   0  0  0  0  0  0  0  0  0  0  0  0
  128.0120  126.3130   68.9530 C   0  0  0  0  0  0  0  0  0  0  0  0
  127.5920  126.1340   70.2670 C   0  0  0  0  0  0  0  0  0  0  0  0
  128.2340  126.8010   71.3230 C   0  0  0  0  0  0  0  0  0  0  0  0
  127.8570  126.6780   72.6490 O   0  0  0  0  0  0  0  0  0  0  0  0
  126.8910  127.5720   73.1890 C   0  0  0  0  0  0  0  0  0  0  0  0
  129.3090  127.6530   71.0400 C   0  0  0  0  0  0  0  0  0  0  0  0
  129.8950  128.3020   72.1150 O   0  0  0  0  0  0  0  0  0  0  0  0
  129.5300  129.6460   72.4090 C   0  0  0  0  0  0  0  0  0  0  0  0
  129.7290  127.8200   69.7090 C   0  0  0  0  0  0  0  0  0  0  0  0
  129.4630  124.3390   57.8000 C   0  0  0  0  0  0  0  0  0  0  0  0
  128.8010  123.7010   56.7550 C   0  0  0  0  0  0  0  0  0  0  0  0
  128.5543  123.2089   54.6602 H   0  0  0  0  0  0  0  0  0  0  0  0
  128.2258  121.5554   54.0400 H   0  0  0  0  0  0  0  0  0  0  0  0
  126.9213  122.7902   54.0400 H   0  0  0  0  0  0  0  0  0  0  0  0
  127.3527  121.1422   58.4862 H   0  0  0  0  0  0  0  0  0  0  0  0
  128.5285  122.2789   60.3594 H   0  0  0  0  0  0  0  0  0  0  0  0
  129.6960  124.0020   61.1130 H   0  0  0  0  0  0  0  0  0  0  0  0
  132.1535  125.3857   62.0125 H   0  0  0  0  0  0  0  0  0  0  0  0
  131.2823  126.9763   61.6908 H   0  0  0  0  0  0  0  0  0  0  0  0
  124.9751  123.9977   61.3557 H   0  0  0  0  0  0  0  0  0  0  0  0
  123.2234  123.1649   59.7678 H   0  0  0  0  0  0  0  0  0  0  0  0
  123.0972  124.1389   57.4882 H   0  0  0  0  0  0  0  0  0  0  0  0
  126.3441  126.7092   58.2978 H   0  0  0  0  0  0  0  0  0  0  0  0
  129.4443  128.5678   62.6663 H   0  0  0  0  0  0  0  0  0  0  0  0
  127.7940  129.2718   62.2650 H   0  0  0  0  0  0  0  0  0  0  0  0
  129.8310  127.7100   64.8180 H   0  0  0  0  0  0  0  0  0  0  0  0
  127.6780  128.0400   66.5920 H   0  0  0  0  0  0  0  0  0  0  0  0
  127.4907  125.7859   68.1403 H   0  0  0  0  0  0  0  0  0  0  0  0
  126.7475  125.4625   70.4813 H   0  0  0  0  0  0  0  0  0  0  0  0
  126.9309  127.5350   74.2877 H   0  0  0  0  0  0  0  0  0  0  0  0
  127.1076  128.5953   72.8484 H   0  0  0  0  0  0  0  0  0  0  0  0
  125.8875  127.2769   72.8484 H   0  0  0  0  0  0  0  0  0  0  0  0
  129.4921  129.7855   73.4995 H   0  0  0  0  0  0  0  0  0  0  0  0
  130.2747  130.3310   71.9774 H   0  0  0  0  0  0  0  0  0  0  0  0
  128.5412  129.8602   71.9774 H   0  0  0  0  0  0  0  0  0  0  0  0
  130.5771  128.4859   69.4913 H   0  0  0  0  0  0  0  0  0  0  0  0
  130.0576  125.2436   57.6045 H   0  0  0  0  0  0  0  0  0  0  0  0
  128.8818  124.1035   55.7345 H   0  0  0  0  0  0  0  0  0  0  0  0
  1  2  1  0
  2  3  1  0
  3  4  2  0
  4  5  1  0
  5  6  2  0
  6  7  1  0
  7  8  1  0
  8  9  2  0
  8 10  1  0
 10 11  1  0
 11 12  1  0
 12 13  2  0
 13 14  1  0
 14 15  1  0
 15 16  2  0
 16 17  1  0
 17 18  2  0
 18 19  1  0
 19 20  2  0
 14 21  2  0
 21 22  1  0
 22 23  1  0
 23 24  1  0
 24 25  2  0
 24 26  1  0
 26 27  1  0
 27 28  1  0
 28 29  2  0
 28 30  1  0
 30 31  2  0
 31 32  1  0
 32 33  2  0
 33 34  1  0
 34 35  1  0
 33 36  1  0
 36 37  1  0
 37 38  1  0
 36 39  2  0
  6 40  1  0
 40 41  2  0
 41  3  1  0
 22 12  1  0
 39 30  1  0
 20 15  1  0
  1 42  1  0
  1 43  1  0
  1 44  1  0
  4 45  1  0
  5 46  1  0
  7 47  1  0
 10 48  1  0
 10 49  1  0
 16 50  1  0
 17 51  1  0
 18 52  1  0
 20 53  1  0
 23 54  1  0
 23 55  1  0
 26 56  1  0
 27 57  1  0
 31 58  1  0
 32 59  1  0
 35 60  1  0
 35 61  1  0
 35 62  1  0
 38 63  1  0
 38 64  1  0
 38 65  1  0
 39 66  1  0
 40 67  1  0
 41 68  1  0
M  END
>  <Binding energies>  (1) 
[-8.49]

>  <Ligand effiencies>  (1) 
[-0.19295454545454546]

>  <Interactions>  (1) 
["V-B:TYR:539:CE2:9845, V-B:PRO:540:N:9853, V-B:PRO:540:CB:9854, V-B:TYR:539:CZ:9846, V-B:PRO:540:CA:9852, H-B:TYR:539:N:9839, V-B:TYR:539:CD1:9842, V-B:ILE:538:CA:9829, V-B:ILE:538:C:9827, V-B:TYR:539:C:9836, V-B:LEU:363:CD1:8157, V-B:ILE:538:CG2:9832, V-B:TYR:539:CE1:9844, V-B:GLU:543:CD:9877, V-B:ILE:538:CB:9831, V-B:MET:535:CE:9804, V-A:GLU:543:CD:4905, V-A:ASP:366:CG:3209, V-A:GLU:543:CG:4904, V-B:GLU:543:CB:9875, V-B:LEU:363:CA:8153, H-B:TYR:531:OH:9764, V-B:TYR:539:CG:9841, V-B:TYR:539:CD2:9843, V-B:ASN:362:C:8140, H-B:GLU:543:OE1:9878, V-A:LYS:547:CE:4947, V-B:HIS:456:CD2:9036, V-B:GLY:544:CA:9883, H-A:GLU:543:OE1:4906, V-A:GLU:543:CB:4903, H-A:LYS:547:NZ:4948, V-B:LYS:547:CE:9919, V-B:HIS:456:CB:9033, V-B:HIS:456:CE1:9038, V-B:GLY:544:C:9881, H-A:GLU:543:OE2:4907, V-B:GLU:543:C:9871, H-B:ARG:545:NH2:9897, H-B:HIS:456:NE2:9039, V-B:HIS:456:CG:9034"]

$$$$
RR20_Rahimova_2017
     RDKit          3D

 68 73  0  0  0  0  0  0  0  0999 V2000
  132.8310  131.3300   57.1520 C   0  0  0  0  0  0  0  0  0  0  0  0
  131.4050  131.3250   56.6330 C   0  0  0  0  0  0  0  0  0  0  0  0
  130.8570  132.4890   56.0940 C   0  0  0  0  0  0  0  0  0  0  0  0
  129.5520  132.4840   55.6090 C   0  0  0  0  0  0  0  0  0  0  0  0
  128.7790  131.3190   55.6720 C   0  0  0  0  0  0  0  0  0  0  0  0
  127.3700  131.3300   55.1210 C   0  0  0  0  0  0  0  0  0  0  0  0
  127.2360  131.4320   53.8990 O   0  0  0  0  0  0  0  0  0  0  0  0
  126.3150  131.2130   55.9790 N   0  0  0  0  0  0  0  0  0  0  0  0
  125.0210  130.6650   55.5420 C   0  0  0  0  0  0  0  0  0  0  0  0
  124.1610  130.5500   56.7890 C   0  0  0  0  0  0  0  0  0  0  0  0
  125.1600  130.6880   57.8970 C   0  0  0  0  0  0  0  0  0  0  0  0
  124.9660  130.5780   59.2740 C   0  0  0  0  0  0  0  0  0  0  0  0
  125.9940  130.9030   60.1680 C   0  0  0  0  0  0  0  0  0  0  0  0
  125.7880  130.7760   61.6520 C   0  0  0  0  0  0  0  0  0  0  0  0
  126.4400  129.8220   62.2970 N   0  0  0  0  0  0  0  0  0  0  0  0
  126.2020  129.8170   63.5840 C   0  0  0  0  0  0  0  0  0  0  0  0
  126.7200  128.9620   64.5460 N   0  0  0  0  0  0  0  0  0  0  0  0
  127.5340  129.2940   65.5780 C   0  0  0  0  0  0  0  0  0  0  0  0
  127.9130  130.4430   65.8140 O   0  0  0  0  0  0  0  0  0  0  0  0
  127.9930  128.1670   66.5330 C   0  0  0  0  0  0  0  0  0  0  0  0
  129.2960  127.5870   66.1550 N   0  0  0  0  0  0  0  0  0  0  0  0
  130.2600  127.6050   67.2650 C   0  0  0  0  0  0  0  0  0  0  0  0
  131.6710  127.2410   66.7490 C   0  0  0  0  0  0  0  0  0  0  0  0
  131.6730  126.0250   65.8220 C   0  0  0  0  0  0  0  0  0  0  0  0
  132.8680  125.3860   65.4740 C   0  0  0  0  0  0  0  0  0  0  0  0
  132.8740  124.3030   64.5980 C   0  0  0  0  0  0  0  0  0  0  0  0
  131.6760  123.8420   64.0600 C   0  0  0  0  0  0  0  0  0  0  0  0
  130.4780  124.4630   64.4060 C   0  0  0  0  0  0  0  0  0  0  0  0
  130.4590  125.5530   65.2830 C   0  0  0  0  0  0  0  0  0  0  0  0
  129.1390  126.1980   65.7070 C   0  0  0  0  0  0  0  0  0  0  0  0
  125.1030  131.0310   64.1090 S   0  0  0  0  0  0  0  0  0  0  0  0
  124.9510  131.5790   62.4560 C   0  0  0  0  0  0  0  0  0  0  0  0
  124.0160  132.7160   62.1080 C   0  0  0  0  0  0  0  0  0  0  0  0
  127.2020  131.3950   59.6490 C   0  0  0  0  0  0  0  0  0  0  0  0
  127.3920  131.5240   58.2730 C   0  0  0  0  0  0  0  0  0  0  0  0
  126.3860  131.1140   57.3880 C   0  0  0  0  0  0  0  0  0  0  0  0
  129.3450  130.1460   56.1880 C   0  0  0  0  0  0  0  0  0  0  0  0
  130.6510  130.1500   56.6720 C   0  0  0  0  0  0  0  0  0  0  0  0
  132.8209  131.3300   58.2520 H   0  0  0  0  0  0  0  0  0  0  0  0
  133.3560  130.4337   56.7901 H   0  0  0  0  0  0  0  0  0  0  0  0
  133.3498  132.2300   56.7901 H   0  0  0  0  0  0  0  0  0  0  0  0
  131.4559  133.4107   56.0522 H   0  0  0  0  0  0  0  0  0  0  0  0
  129.1263  133.4003   55.1741 H   0  0  0  0  0  0  0  0  0  0  0  0
  124.5478  131.3408   54.8145 H   0  0  0  0  0  0  0  0  0  0  0  0
  125.1465  129.6879   55.0525 H   0  0  0  0  0  0  0  0  0  0  0  0
  123.4118  131.3545   56.8289 H   0  0  0  0  0  0  0  0  0  0  0  0
  123.5861  129.6133   56.8359 H   0  0  0  0  0  0  0  0  0  0  0  0
  123.9962  130.2326   59.6615 H   0  0  0  0  0  0  0  0  0  0  0  0
  126.4660  127.9880   64.4560 H   0  0  0  0  0  0  0  0  0  0  0  0
  128.0746  128.5801   67.5492 H   0  0  0  0  0  0  0  0  0  0  0  0
  127.2453  127.3622   66.4761 H   0  0  0  0  0  0  0  0  0  0  0  0
  130.2836  128.6106   67.7101 H   0  0  0  0  0  0  0  0  0  0  0  0
  129.9520  126.8681   68.0214 H   0  0  0  0  0  0  0  0  0  0  0  0
  132.0757  128.1026   66.1978 H   0  0  0  0  0  0  0  0  0  0  0  0
  132.2864  126.9879   67.6249 H   0  0  0  0  0  0  0  0  0  0  0  0
  133.8173  125.7443   65.8987 H   0  0  0  0  0  0  0  0  0  0  0  0
  133.8226  123.8136   64.3322 H   0  0  0  0  0  0  0  0  0  0  0  0
  131.6752  122.9902   63.3640 H   0  0  0  0  0  0  0  0  0  0  0  0
  129.5330  124.0909   63.9835 H   0  0  0  0  0  0  0  0  0  0  0  0
  128.4501  126.1822   64.8496 H   0  0  0  0  0  0  0  0  0  0  0  0
  128.7495  125.6203   66.5582 H   0  0  0  0  0  0  0  0  0  0  0  0
  123.6378  133.1759   63.0329 H   0  0  0  0  0  0  0  0  0  0  0  0
  124.5588  133.4699   61.5190 H   0  0  0  0  0  0  0  0  0  0  0  0
  123.1714  132.3290   61.5190 H   0  0  0  0  0  0  0  0  0  0  0  0
  128.0104  131.6829   60.3372 H   0  0  0  0  0  0  0  0  0  0  0  0
  128.3298  131.9468   57.8835 H   0  0  0  0  0  0  0  0  0  0  0  0
  128.7554  129.2177   56.2110 H   0  0  0  0  0  0  0  0  0  0  0  0
  131.0881  129.2287   57.0845 H   0  0  0  0  0  0  0  0  0  0  0  0
  1  2  1  0
  2  3  2  0
  3  4  1  0
  4  5  2  0
  5  6  1  0
  6  7  2  0
  6  8  1  0
  8  9  1  0
  9 10  1  0
 10 11  1  0
 11 12  2  0
 12 13  1  0
 13 14  1  0
 14 15  1  0
 15 16  2  0
 16 17  1  0
 17 18  1  0
 18 19  2  0
 18 20  1  0
 20 21  1  0
 21 22  1  0
 22 23  1  0
 23 24  1  0
 24 25  2  0
 25 26  1  0
 26 27  2  0
 27 28  1  0
 28 29  2  0
 29 30  1  0
 16 31  1  0
 31 32  1  0
 32 33  1  0
 13 34  2  0
 34 35  1  0
 35 36  2  0
  5 37  1  0
 37 38  2  0
 38  2  1  0
 36  8  1  0
 36 11  1  0
 32 14  2  0
 30 21  1  0
 29 24  1  0
  1 39  1  0
  1 40  1  0
  1 41  1  0
  3 42  1  0
  4 43  1  0
  9 44  1  0
  9 45  1  0
 10 46  1  0
 10 47  1  0
 12 48  1  0
 17 49  1  0
 20 50  1  0
 20 51  1  0
 22 52  1  0
 22 53  1  0
 23 54  1  0
 23 55  1  0
 25 56  1  0
 26 57  1  0
 27 58  1  0
 28 59  1  0
 30 60  1  0
 30 61  1  0
 33 62  1  0
 33 63  1  0
 33 64  1  0
 34 65  1  0
 35 66  1  0
 37 67  1  0
 38 68  1  0
M  END
>  <Binding energies>  (1) 
[-11.09]

>  <Ligand effiencies>  (1) 
[-0.28435897435897434]

>  <Interactions>  (1) 
["V-B:GLU:543:CD:9877, V-B:GLU:543:CG:9876, H-B:GLU:543:OE2:9879, V-A:ARG:545:CZ:4923, V-A:GLY:454:CA:4045, V-A:GLU:543:CD:4905, V-A:HIS:456:CE1:4066, V-A:GLU:543:CG:4904, V-B:GLU:543:CB:9875, H-A:TYR:539:OH:4875, V-A:PRO:540:CB:4882, V-A:TYR:539:C:4864, V-A:LEU:363:CD1:3185, V-A:PRO:540:N:4881, H-B:LYS:534:NZ:9792, V-A:ILE:538:CG2:4860, V-A:ILE:538:CD1:4862, V-A:TYR:539:CZ:4874, V-B:ASP:366:CB:8180, V-B:TYR:531:CZ:9763, V-A:LEU:363:CA:3181, V-A:TYR:539:CD2:4871, V-A:TYR:539:CE2:4873, V-B:TYR:531:CE1:9761, H-B:GLU:543:OE1:9878, V-B:ASP:366:CG:8181, V-A:GLU:543:CB:4903, V-B:HIS:456:CE1:9038, V-B:GLY:454:CA:9017, V-B:ILE:369:CD1:8207, V-A:ARG:545:CG:4919, V-B:ASP:366:CA:8178, V-A:PRO:540:CD:4884, H-B:TYR:484:OH:9316, V-B:ASP:366:C:8176"]

$$$$
RR20_Rahimova_2017-again1
     RDKit          3D

 68 73  0  0  0  0  0  0  0  0999 V2000
  132.7680  131.3340   57.1670 C   0  0  0  0  0  0  0  0  0  0  0  0
  131.3490  131.3410   56.6290 C   0  0  0  0  0  0  0  0  0  0  0  0
  130.5680  130.1870   56.7100 C   0  0  0  0  0  0  0  0  0  0  0  0
  129.2640  130.1940   56.2240 C   0  0  0  0  0  0  0  0  0  0  0  0
  128.7330  131.3510   55.6420 C   0  0  0  0  0  0  0  0  0  0  0  0
  127.3080  131.3450   55.1340 C   0  0  0  0  0  0  0  0  0  0  0  0
  127.1330  131.4040   53.9150 O   0  0  0  0  0  0  0  0  0  0  0  0
  126.2820  131.2470   56.0300 N   0  0  0  0  0  0  0  0  0  0  0  0
  124.9970  130.6310   55.6610 C   0  0  0  0  0  0  0  0  0  0  0  0
  124.1720  130.5640   56.9360 C   0  0  0  0  0  0  0  0  0  0  0  0
  125.1940  130.8040   58.0060 C   0  0  0  0  0  0  0  0  0  0  0  0
  125.0370  130.7780   59.3920 C   0  0  0  0  0  0  0  0  0  0  0  0
  126.0770  131.1950   60.2380 C   0  0  0  0  0  0  0  0  0  0  0  0
  125.9070  131.1730   61.7300 C   0  0  0  0  0  0  0  0  0  0  0  0
  126.6640  130.3470   62.4340 N   0  0  0  0  0  0  0  0  0  0  0  0
  126.4420  130.3870   63.7250 C   0  0  0  0  0  0  0  0  0  0  0  0
  127.0150  129.6410   64.7220 N   0  0  0  0  0  0  0  0  0  0  0  0
  127.7250  130.1180   65.6880 C   0  0  0  0  0  0  0  0  0  0  0  0
  128.0050  131.2890   66.0090 O   0  0  0  0  0  0  0  0  0  0  0  0
  128.3250  129.0400   66.6140 C   0  0  0  0  0  0  0  0  0  0  0  0
  127.8430  127.6290   66.1670 N   0  0  2  0  0  0  0  0  0  0  0  0
  128.1450  126.5400   67.2170 C   0  0  0  0  0  0  0  0  0  0  0  0
  129.6670  126.3590   67.3650 C   0  0  0  0  0  0  0  0  0  0  0  0
  130.3870  126.2050   66.0280 C   0  0  0  0  0  0  0  0  0  0  0  0
  131.6620  125.6290   65.9890 C   0  0  0  0  0  0  0  0  0  0  0  0
  132.3680  125.5150   64.7940 C   0  0  0  0  0  0  0  0  0  0  0  0
  131.8000  125.9780   63.6130 C   0  0  0  0  0  0  0  0  0  0  0  0
  130.5270  126.5420   63.6340 C   0  0  0  0  0  0  0  0  0  0  0  0
  129.7990  126.6570   64.8240 C   0  0  0  0  0  0  0  0  0  0  0  0
  128.3800  127.2380   64.7690 C   0  0  0  0  0  0  0  0  0  0  0  0
  125.1960  131.4930   64.1670 S   0  0  0  0  0  0  0  0  0  0  0  0
  125.0100  131.9490   62.4910 C   0  0  0  0  0  0  0  0  0  0  0  0
  124.0260  133.0290   62.0930 C   0  0  0  0  0  0  0  0  0  0  0  0
  127.2550  131.6820   59.6560 C   0  0  0  0  0  0  0  0  0  0  0  0
  127.4080  131.7270   58.2690 C   0  0  0  0  0  0  0  0  0  0  0  0
  126.3940  131.2340   57.4380 C   0  0  0  0  0  0  0  0  0  0  0  0
  129.5120  132.5140   55.5910 C   0  0  0  0  0  0  0  0  0  0  0  0
  130.8160  132.5070   56.0780 C   0  0  0  0  0  0  0  0  0  0  0  0
  132.7432  131.3341   58.2667 H   0  0  0  0  0  0  0  0  0  0  0  0
  133.2902  130.4333   56.8121 H   0  0  0  0  0  0  0  0  0  0  0  0
  133.2991  132.2295   56.8121 H   0  0  0  0  0  0  0  0  0  0  0  0
  130.9832  129.2721   57.1579 H   0  0  0  0  0  0  0  0  0  0  0  0
  128.6476  129.2859   56.2976 H   0  0  0  0  0  0  0  0  0  0  0  0
  124.4831  131.2454   54.9071 H   0  0  0  0  0  0  0  0  0  0  0  0
  125.1439  129.6306   55.2278 H   0  0  0  0  0  0  0  0  0  0  0  0
  123.3960  131.3436   56.9472 H   0  0  0  0  0  0  0  0  0  0  0  0
  123.6315  129.6134   57.0555 H   0  0  0  0  0  0  0  0  0  0  0  0
  124.0891  130.4274   59.8262 H   0  0  0  0  0  0  0  0  0  0  0  0
  129.4229  129.0840   66.5613 H   0  0  0  0  0  0  0  0  0  0  0  0
  127.9944  129.2251   67.6467 H   0  0  0  0  0  0  0  0  0  0  0  0
  126.8350  127.6880   66.0980 H   0  0  0  0  0  0  0  0  0  0  0  0
  127.7178  126.8393   68.1855 H   0  0  0  0  0  0  0  0  0  0  0  0
  127.6984  125.5894   66.8901 H   0  0  0  0  0  0  0  0  0  0  0  0
  130.0751  127.2397   67.8825 H   0  0  0  0  0  0  0  0  0  0  0  0
  129.8322  125.4321   67.9339 H   0  0  0  0  0  0  0  0  0  0  0  0
  132.1153  125.2591   66.9205 H   0  0  0  0  0  0  0  0  0  0  0  0
  133.3699  125.0609   64.7848 H   0  0  0  0  0  0  0  0  0  0  0  0
  132.3537  125.8992   62.6658 H   0  0  0  0  0  0  0  0  0  0  0  0
  130.0838  126.9051   62.6950 H   0  0  0  0  0  0  0  0  0  0  0  0
  128.3908  128.1348   64.1322 H   0  0  0  0  0  0  0  0  0  0  0  0
  127.7168  126.4602   64.3626 H   0  0  0  0  0  0  0  0  0  0  0  0
  123.6042  133.4920   62.9973 H   0  0  0  0  0  0  0  0  0  0  0  0
  124.5434  133.7947   61.4963 H   0  0  0  0  0  0  0  0  0  0  0  0
  123.2156  132.5849   61.4963 H   0  0  0  0  0  0  0  0  0  0  0  0
  128.0723  132.0345   60.3023 H   0  0  0  0  0  0  0  0  0  0  0  0
  128.3237  132.1491   57.8294 H   0  0  0  0  0  0  0  0  0  0  0  0
  129.0916  133.4366   55.1644 H   0  0  0  0  0  0  0  0  0  0  0  0
  131.4264  133.4208   56.0285 H   0  0  0  0  0  0  0  0  0  0  0  0
  1  2  1  0
  2  3  2  0
  3  4  1  0
  4  5  2  0
  5  6  1  0
  6  7  2  0
  6  8  1  0
  8  9  1  0
  9 10  1  0
 10 11  1  0
 11 12  2  0
 12 13  1  0
 13 14  1  0
 14 15  1  0
 15 16  2  0
 16 17  1  0
 17 18  2  0
 18 19  1  0
 18 20  1  0
 20 21  1  0
 21 22  1  0
 22 23  1  0
 23 24  1  0
 24 25  2  0
 25 26  1  0
 26 27  2  0
 27 28  1  0
 28 29  2  0
 29 30  1  0
 16 31  1  0
 31 32  1  0
 32 33  1  0
 13 34  2  0
 34 35  1  0
 35 36  2  0
  5 37  1  0
 37 38  2  0
 38  2  1  0
 36  8  1  0
 36 11  1  0
 32 14  2  0
 30 21  1  0
 29 24  1  0
  1 39  1  0
  1 40  1  0
  1 41  1  0
  3 42  1  0
  4 43  1  0
  9 44  1  0
  9 45  1  0
 10 46  1  0
 10 47  1  0
 12 48  1  0
 20 49  1  0
 20 50  1  0
 21 51  1  6
 22 52  1  0
 22 53  1  0
 23 54  1  0
 23 55  1  0
 25 56  1  0
 26 57  1  0
 27 58  1  0
 28 59  1  0
 30 60  1  0
 30 61  1  0
 33 62  1  0
 33 63  1  0
 33 64  1  0
 34 65  1  0
 35 66  1  0
 37 67  1  0
 38 68  1  0
M  CHG  2  19  -1  21   1
M  END
>  <Binding energies>  (1) 
[-10.16]

>  <Ligand effiencies>  (1) 
[-0.26051282051282054]

>  <Interactions>  (1) 
["V-B:GLU:543:CD:9877, V-B:GLU:543:CG:9876, V-A:ARG:545:CZ:4923, V-A:GLU:543:CD:4905, V-A:HIS:456:CE1:4066, V-A:GLU:543:CG:4904, V-B:GLU:543:CB:9875, H-A:TYR:539:OH:4875, V-A:PRO:540:CB:4882, V-A:TYR:539:CE1:4872, V-A:TYR:539:C:4864, V-A:LEU:363:CD1:3185, V-A:PRO:540:N:4881, H-B:LYS:534:NZ:9792, V-A:ILE:538:CG2:4860, V-A:ILE:538:CD1:4862, V-A:TYR:539:CZ:4874, V-B:ASP:366:CB:8180, V-B:TYR:531:CZ:9763, V-A:LEU:363:CA:3181, V-A:TYR:539:CD2:4871, V-A:TYR:539:CE2:4873, V-B:TYR:531:CE1:9761, H-B:GLU:543:OE1:9878, V-B:ASP:366:CG:8181, V-A:GLU:543:CB:4903, V-B:HIS:456:CE1:9038, V-B:GLY:454:CA:9017, V-B:ILE:369:CD1:8207, V-B:ASP:366:CA:8178, H-B:TYR:484:OH:9316, V-B:ASP:366:C:8176"]

$$$$
RR21_Rahimova_2017
     RDKit          3D

 62 67  0  0  0  0  0  0  0  0999 V2000
  133.6680  123.8340   61.4260 C   0  0  0  0  0  0  0  0  0  0  0  0
  134.0120  124.5440   62.6120 O   0  0  0  0  0  0  0  0  0  0  0  0
  133.0060  125.0510   63.4120 C   0  0  0  0  0  0  0  0  0  0  0  0
  131.7040  125.3280   62.9630 C   0  0  0  0  0  0  0  0  0  0  0  0
  130.7440  125.8370   63.8380 C   0  0  0  0  0  0  0  0  0  0  0  0
  131.0570  126.0760   65.1810 C   0  0  0  0  0  0  0  0  0  0  0  0
  130.0230  126.6170   66.1200 C   0  0  0  0  0  0  0  0  0  0  0  0
  130.1960  126.5030   67.4220 N   0  0  0  0  0  0  0  0  0  0  0  0
  129.1280  127.0700   68.0040 N   0  0  0  0  0  0  0  0  0  0  0  0
  129.0020  127.1380   69.4160 C   0  0  0  0  0  0  0  0  0  0  0  0
  127.9890  126.4310   70.0810 C   0  0  0  0  0  0  0  0  0  0  0  0
  127.8790  126.5030   71.4670 C   0  0  0  0  0  0  0  0  0  0  0  0
  128.7790  127.2800   72.1920 C   0  0  0  0  0  0  0  0  0  0  0  0
  129.7870  127.9890   71.5440 C   0  0  0  0  0  0  0  0  0  0  0  0
  129.9000  127.9200   70.1580 C   0  0  0  0  0  0  0  0  0  0  0  0
  128.2760  127.5640   67.0490 C   0  0  0  0  0  0  0  0  0  0  0  0
  128.8140  127.2780   65.8040 C   0  0  0  0  0  0  0  0  0  0  0  0
  128.2950  127.6420   64.4940 C   0  0  0  0  0  0  0  0  0  0  0  0
  127.3930  128.6040   64.1890 C   0  0  0  0  0  0  0  0  0  0  0  0
  126.5600  129.7130   65.3010 S   0  0  0  0  0  0  0  0  0  0  0  0
  125.7480  130.4560   63.9310 C   0  0  0  0  0  0  0  0  0  0  0  0
  124.9110  131.4460   63.9440 N   0  0  0  0  0  0  0  0  0  0  0  0
  124.3310  131.9630   62.7530 C   0  0  0  0  0  0  0  0  0  0  0  0
  123.5480  132.9100   62.6780 O   0  0  0  0  0  0  0  0  0  0  0  0
  124.7640  131.2460   61.5040 C   0  0  0  0  0  0  0  0  0  0  0  0
  124.1870  131.7030   60.1580 C   0  0  0  0  0  0  0  0  0  0  0  0
  125.0920  131.4280   58.9590 C   0  0  0  0  0  0  0  0  0  0  0  0
  124.5600  130.8680   57.7950 C   0  0  0  0  0  0  0  0  0  0  0  0
  125.3830  130.6330   56.6960 C   0  0  0  0  0  0  0  0  0  0  0  0
  126.7390  130.9600   56.7570 C   0  0  0  0  0  0  0  0  0  0  0  0
  127.6280  130.7130   55.5530 C   0  0  0  0  0  0  0  0  0  0  0  0
  127.2700  131.5310   57.9170 C   0  0  0  0  0  0  0  0  0  0  0  0
  126.4480  131.7650   59.0150 C   0  0  0  0  0  0  0  0  0  0  0  0
  125.5950  130.2550   61.5070 N   0  0  0  0  0  0  0  0  0  0  0  0
  126.1000  129.8550   62.7510 N   0  0  0  0  0  0  0  0  0  0  0  0
  126.9890  128.8330   62.8090 C   0  0  0  0  0  0  0  0  0  0  0  0
  127.3980  128.1980   61.8290 O   0  0  0  0  0  0  0  0  0  0  0  0
  132.3550  125.8060   65.6270 C   0  0  0  0  0  0  0  0  0  0  0  0
  133.3170  125.2980   64.7540 C   0  0  0  0  0  0  0  0  0  0  0  0
  134.5640  125.0460   65.2180 F   0  0  0  0  0  0  0  0  0  0  0  0
  133.2029  122.8742   61.6951 H   0  0  0  0  0  0  0  0  0  0  0  0
  132.9594  124.4314   60.8335 H   0  0  0  0  0  0  0  0  0  0  0  0
  134.5760  123.6482   60.8335 H   0  0  0  0  0  0  0  0  0  0  0  0
  131.4390  125.1418   61.9118 H   0  0  0  0  0  0  0  0  0  0  0  0
  129.7306  126.0527   63.4685 H   0  0  0  0  0  0  0  0  0  0  0  0
  127.2796  125.8180   69.5057 H   0  0  0  0  0  0  0  0  0  0  0  0
  127.0843  125.9483   71.9874 H   0  0  0  0  0  0  0  0  0  0  0  0
  128.6927  127.3341   73.2873 H   0  0  0  0  0  0  0  0  0  0  0  0
  130.4918  128.6017   72.1252 H   0  0  0  0  0  0  0  0  0  0  0  0
  130.6950  128.4798   69.6436 H   0  0  0  0  0  0  0  0  0  0  0  0
  127.3311  128.0944   67.2382 H   0  0  0  0  0  0  0  0  0  0  0  0
  128.6850  127.0621   63.6445 H   0  0  0  0  0  0  0  0  0  0  0  0
  123.2332  131.1793   59.9967 H   0  0  0  0  0  0  0  0  0  0  0  0
  124.0707  132.7951   60.2202 H   0  0  0  0  0  0  0  0  0  0  0  0
  123.4912  130.6126   57.7463 H   0  0  0  0  0  0  0  0  0  0  0  0
  124.9647  130.1899   55.7802 H   0  0  0  0  0  0  0  0  0  0  0  0
  128.6360  130.4329   55.8928 H   0  0  0  0  0  0  0  0  0  0  0  0
  127.2059  129.8981   54.9465 H   0  0  0  0  0  0  0  0  0  0  0  0
  127.6868  131.6288   54.9465 H   0  0  0  0  0  0  0  0  0  0  0  0
  128.3369  131.7952   57.9618 H   0  0  0  0  0  0  0  0  0  0  0  0
  126.8651  132.2154   59.9278 H   0  0  0  0  0  0  0  0  0  0  0  0
  132.6200  125.9963   66.6775 H   0  0  0  0  0  0  0  0  0  0  0  0
  1  2  1  0
  2  3  1  0
  3  4  2  0
  4  5  1  0
  5  6  2  0
  6  7  1  0
  7  8  2  0
  8  9  1  0
  9 10  1  0
 10 11  2  0
 11 12  1  0
 12 13  2  0
 13 14  1  0
 14 15  2  0
  9 16  1  0
 16 17  2  0
 17 18  1  0
 18 19  2  0
 19 20  1  0
 20 21  1  0
 21 22  2  0
 22 23  1  0
 23 24  2  0
 23 25  1  0
 25 26  1  0
 26 27  1  0
 27 28  2  0
 28 29  1  0
 29 30  2  0
 30 31  1  0
 30 32  1  0
 32 33  2  0
 25 34  2  0
 34 35  1  0
 35 36  1  0
 36 37  2  0
  6 38  1  0
 38 39  2  0
 39 40  1  0
 39  3  1  0
 17  7  1  0
 36 19  1  0
 15 10  1  0
 35 21  1  0
 33 27  1  0
  1 41  1  0
  1 42  1  0
  1 43  1  0
  4 44  1  0
  5 45  1  0
 11 46  1  0
 12 47  1  0
 13 48  1  0
 14 49  1  0
 15 50  1  0
 16 51  1  0
 18 52  1  0
 26 53  1  0
 26 54  1  0
 28 55  1  0
 29 56  1  0
 31 57  1  0
 31 58  1  0
 31 59  1  0
 32 60  1  0
 33 61  1  0
 38 62  1  0
M  END
>  <Binding energies>  (1) 
[-10.86]

>  <Ligand effiencies>  (1) 
[-0.27149999999999996]

>  <Interactions>  (1) 
["V-B:GLU:543:CD:9877, V-A:ARG:545:CZ:4923, V-A:GLY:454:CA:4045, V-A:GLU:543:CD:4905, V-A:HIS:456:CE1:4066, H-A:ARG:545:NH1:4924, V-A:ASP:366:CG:3209, H-A:GLY:454:N:4046, V-A:TYR:539:CZ:4874, V-B:ASP:366:CB:8180, V-B:TYR:531:CZ:9763, V-A:TYR:539:CD2:4871, V-A:TYR:539:CE2:4873, V-B:TYR:531:CE1:9761, V-B:ASP:366:CG:8181, V-B:HIS:456:CD2:9036, V-B:LYS:547:CE:9919, V-B:HIS:456:CE1:9038, V-A:GLY:453:C:4038, V-A:GLY:453:CA:4040, V-B:GLY:544:C:9881, V-B:GLY:454:CA:9017, V-B:ILE:369:CG2:8205, V-B:ILE:369:CD1:8207, V-A:GLY:454:C:4043, V-A:ARG:545:CD:4920, H-B:GLY:454:N:9018, H-B:TYR:484:OH:9316"]

$$$$
RR22_Rahimova_2017
     RDKit          3D

 49 54  0  0  0  0  0  0  0  0999 V2000
  132.8460  124.7770   54.7810 O   0  0  0  0  0  0  0  0  0  0  0  0
  131.8980  124.9970   55.5320 C   0  0  0  0  0  0  0  0  0  0  0  0
  131.9210  125.6530   56.7500 N   0  0  0  0  0  0  0  0  0  0  0  0
  130.7100  125.8810   57.4770 C   0  0  1  0  0  0  0  0  0  0  0  0
  130.9320  125.3010   58.7660 O   0  0  0  0  0  0  0  0  0  0  0  0
  130.8490  126.1270   59.8880 C   0  0  0  0  0  0  0  0  0  0  0  0
  131.4200  125.6390   61.0630 C   0  0  0  0  0  0  0  0  0  0  0  0
  131.3400  126.3900   62.2360 C   0  0  0  0  0  0  0  0  0  0  0  0
  130.6850  127.6220   62.2340 C   0  0  0  0  0  0  0  0  0  0  0  0
  130.1130  128.1100   61.0580 C   0  0  0  0  0  0  0  0  0  0  0  0
  130.2060  127.3800   59.8690 C   0  0  0  0  0  0  0  0  0  0  0  0
  129.5840  127.7990   58.5560 C   0  0  1  0  0  0  0  0  0  0  0  0
  129.4330  129.2520   58.1540 C   0  0  0  0  0  0  0  0  0  0  0  0
  129.5320  129.1140   56.6320 C   0  0  0  0  0  0  0  0  0  0  0  0
  129.0700  130.1640   55.7030 C   0  0  0  0  0  0  0  0  0  0  0  0
  128.3130  129.8320   54.5700 C   0  0  0  0  0  0  0  0  0  0  0  0
  127.8780  130.8260   53.6980 C   0  0  0  0  0  0  0  0  0  0  0  0
  128.1960  132.1570   53.9530 C   0  0  0  0  0  0  0  0  0  0  0  0
  128.9460  132.5040   55.0740 C   0  0  0  0  0  0  0  0  0  0  0  0
  129.3810  131.5110   55.9470 C   0  0  0  0  0  0  0  0  0  0  0  0
  130.0790  128.0040   56.3030 N   0  0  0  0  0  0  0  0  0  0  0  0
  130.4060  127.3200   57.4860 N   0  0  0  0  0  0  0  0  0  0  0  0
  129.6310  125.0540   56.7950 C   0  0  0  0  0  0  0  0  0  0  0  0
  128.4520  124.7470   57.3870 C   0  0  0  0  0  0  0  0  0  0  0  0
  127.3200  123.9770   56.8380 C   0  0  0  0  0  0  0  0  0  0  0  0
  126.0210  124.4940   56.7280 C   0  0  0  0  0  0  0  0  0  0  0  0
  124.9990  123.7060   56.1980 C   0  0  0  0  0  0  0  0  0  0  0  0
  125.3030  122.4070   55.7930 C   0  0  0  0  0  0  0  0  0  0  0  0
  126.5470  121.8770   55.8950 N   0  0  0  0  0  0  0  0  0  0  0  0
  127.5280  122.6600   56.4120 C   0  0  0  0  0  0  0  0  0  0  0  0
  130.1810  124.4920   55.2100 S   0  0  0  0  0  0  0  0  0  0  0  0
  132.7940  125.9420   57.1650 H   0  0  0  0  0  0  0  0  0  0  0  0
  131.9317  124.6653   61.0649 H   0  0  0  0  0  0  0  0  0  0  0  0
  131.7938  126.0105   63.1634 H   0  0  0  0  0  0  0  0  0  0  0  0
  130.6192  128.2100   63.1613 H   0  0  0  0  0  0  0  0  0  0  0  0
  129.5856  129.0753   61.0666 H   0  0  0  0  0  0  0  0  0  0  0  0
  128.5715  127.4020   58.7209 H   0  0  0  0  0  0  0  0  0  0  0  0
  128.4614  129.6635   58.4650 H   0  0  0  0  0  0  0  0  0  0  0  0
  130.1637  129.9381   58.6071 H   0  0  0  0  0  0  0  0  0  0  0  0
  128.0616  128.7801   54.3693 H   0  0  0  0  0  0  0  0  0  0  0  0
  127.2849  130.5606   52.8104 H   0  0  0  0  0  0  0  0  0  0  0  0
  127.8519  132.9416   53.2630 H   0  0  0  0  0  0  0  0  0  0  0  0
  129.1935  133.5580   55.2686 H   0  0  0  0  0  0  0  0  0  0  0  0
  129.9722  131.7835   56.8337 H   0  0  0  0  0  0  0  0  0  0  0  0
  128.3214  125.1215   58.4130 H   0  0  0  0  0  0  0  0  0  0  0  0
  125.8079  125.5209   57.0596 H   0  0  0  0  0  0  0  0  0  0  0  0
  123.9767  124.1005   56.1018 H   0  0  0  0  0  0  0  0  0  0  0  0
  124.4989  121.7851   55.3725 H   0  0  0  0  0  0  0  0  0  0  0  0
  128.5396  122.2373   56.5008 H   0  0  0  0  0  0  0  0  0  0  0  0
  1  2  2  0
  2  3  1  0
  3  4  1  0
  4  5  1  1
  5  6  1  0
  6  7  2  0
  7  8  1  0
  8  9  2  0
  9 10  1  0
 10 11  2  0
 11 12  1  0
 12 13  1  0
 13 14  1  0
 14 15  1  0
 15 16  2  0
 16 17  1  0
 17 18  2  0
 18 19  1  0
 19 20  2  0
 14 21  2  0
 21 22  1  0
  4 23  1  0
 23 24  2  0
 24 25  1  0
 25 26  2  0
 26 27  1  0
 27 28  2  0
 28 29  1  0
 29 30  2  0
 23 31  1  0
 31  2  1  0
 22  4  1  0
 30 25  1  0
 11  6  1  0
 22 12  1  0
 20 15  1  0
  3 32  1  0
  7 33  1  0
  8 34  1  0
  9 35  1  0
 10 36  1  0
 12 37  1  6
 13 38  1  0
 13 39  1  0
 16 40  1  0
 17 41  1  0
 18 42  1  0
 19 43  1  0
 20 44  1  0
 24 45  1  0
 26 46  1  0
 27 47  1  0
 28 48  1  0
 30 49  1  0
M  END
>  <Binding energies>  (1) 
[-9.14]

>  <Ligand effiencies>  (1) 
[-0.285625]

>  <Interactions>  (1) 
["V-B:PRO:540:N:9853, V-B:PRO:540:CB:9854, V-B:TYR:539:CZ:9846, H-B:TYR:539:N:9839, V-B:TYR:539:CD1:9842, V-B:LEU:363:CD1:8157, V-B:ILE:538:CG2:9832, V-B:TYR:539:CE1:9844, V-B:ILE:538:CB:9831, V-B:MET:535:CE:9804, V-A:ARG:545:CZ:4923, V-A:GLU:543:CD:4905, V-A:ASP:366:CB:3208, H-B:TYR:539:OH:9847, V-A:ASP:366:CG:3209, H-A:TYR:531:OH:4792, V-B:PRO:540:CD:9856, V-A:TYR:539:CE1:4872, V-A:ILE:538:CA:4857, V-A:ILE:538:CD1:4862, V-A:TYR:539:CZ:4874, V-A:TYR:539:CE2:4873, H-A:ASP:366:OD1:3210, H-A:ASP:366:O:3205"]

$$$$
RR23_Rahimova_2017
     RDKit          3D

 65 70  0  0  0  0  0  0  0  0999 V2000
  131.3810  125.3790   53.6730 C   0  0  0  0  0  0  0  0  0  0  0  0
  130.2680  124.6980   54.4490 C   0  0  0  0  0  0  0  0  0  0  0  0
  129.5930  123.6120   53.8910 C   0  0  0  0  0  0  0  0  0  0  0  0
  128.5780  122.9820   54.6080 C   0  0  0  0  0  0  0  0  0  0  0  0
  128.2240  123.4400   55.8820 C   0  0  0  0  0  0  0  0  0  0  0  0
  127.1330  122.7300   56.6520 C   0  0  0  0  0  0  0  0  0  0  0  0
  126.5190  121.8300   56.0730 O   0  0  0  0  0  0  0  0  0  0  0  0
  126.8810  123.0910   57.9450 N   0  0  0  0  0  0  0  0  0  0  0  0
  125.5060  123.2600   58.4430 C   0  0  0  0  0  0  0  0  0  0  0  0
  125.6210  123.5140   59.9370 C   0  0  0  0  0  0  0  0  0  0  0  0
  127.0280  123.0970   60.2400 C   0  0  0  0  0  0  0  0  0  0  0  0
  127.6780  123.0250   61.4720 C   0  0  0  0  0  0  0  0  0  0  0  0
  129.0550  122.7640   61.5340 C   0  0  0  0  0  0  0  0  0  0  0  0
  129.8100  122.6760   62.8690 C   0  0  2  0  0  0  0  0  0  0  0  0
  129.6270  123.8620   63.6780 N   0  0  0  0  0  0  0  0  0  0  0  0
  130.6530  124.1140   64.3870 C   0  0  0  0  0  0  0  0  0  0  0  0
  130.8470  125.1550   65.2410 N   0  0  0  0  0  0  0  0  0  0  0  0
  130.0610  126.2410   65.4360 C   0  0  0  0  0  0  0  0  0  0  0  0
  128.9810  126.4540   64.8810 O   0  0  0  0  0  0  0  0  0  0  0  0
  130.5990  127.2770   66.4380 C   0  0  0  0  0  0  0  0  0  0  0  0
  129.8690  127.1360   67.7190 N   0  0  0  0  0  0  0  0  0  0  0  0
  128.6810  126.4190   67.6520 N   0  0  0  0  0  0  0  0  0  0  0  0
  127.9490  126.2260   68.7020 N   0  0  0  0  0  0  0  0  0  0  0  0
  128.3520  126.7450   69.9350 C   0  0  0  0  0  0  0  0  0  0  0  0
  127.5370  126.5200   71.0480 C   0  0  0  0  0  0  0  0  0  0  0  0
  127.9130  127.0260   72.2930 C   0  0  0  0  0  0  0  0  0  0  0  0
  129.0970  127.7540   72.4280 C   0  0  0  0  0  0  0  0  0  0  0  0
  129.9120  127.9800   71.3170 C   0  0  0  0  0  0  0  0  0  0  0  0
  129.5360  127.4710   70.0680 C   0  0  0  0  0  0  0  0  0  0  0  0
  130.4020  127.7080   68.8530 C   0  0  0  0  0  0  0  0  0  0  0  0
  131.4570  128.3490   68.8760 O   0  0  0  0  0  0  0  0  0  0  0  0
  132.0300  122.9830   64.2520 S   0  0  0  0  0  0  0  0  0  0  0  0
  131.3120  122.3370   62.7310 C   0  0  2  0  0  0  0  0  0  0  0  0
  132.0520  122.9520   61.5250 C   0  0  0  0  0  0  0  0  0  0  0  0
  129.7700  122.6250   60.3380 C   0  0  0  0  0  0  0  0  0  0  0  0
  129.1250  122.7180   59.1050 C   0  0  0  0  0  0  0  0  0  0  0  0
  127.7360  122.8990   59.0530 C   0  0  0  0  0  0  0  0  0  0  0  0
  128.9260  124.5140   56.4460 C   0  0  0  0  0  0  0  0  0  0  0  0
  129.9410  125.1430   55.7300 C   0  0  0  0  0  0  0  0  0  0  0  0
  132.1020  125.8202   54.3769 H   0  0  0  0  0  0  0  0  0  0  0  0
  131.8925  124.6390   53.0399 H   0  0  0  0  0  0  0  0  0  0  0  0
  130.9550  126.1713   53.0399 H   0  0  0  0  0  0  0  0  0  0  0  0
  129.8618  123.2536   52.8863 H   0  0  0  0  0  0  0  0  0  0  0  0
  128.0524  122.1204   54.1705 H   0  0  0  0  0  0  0  0  0  0  0  0
  125.0239  124.1155   57.9473 H   0  0  0  0  0  0  0  0  0  0  0  0
  124.8935  122.3703   58.2349 H   0  0  0  0  0  0  0  0  0  0  0  0
  125.4643  124.5774   60.1709 H   0  0  0  0  0  0  0  0  0  0  0  0
  124.8698  122.9708   60.5291 H   0  0  0  0  0  0  0  0  0  0  0  0
  127.1074  123.1738   62.4006 H   0  0  0  0  0  0  0  0  0  0  0  0
  129.3505  121.8218   63.3878 H   0  0  0  0  0  0  0  0  0  0  0  0
  131.7100  125.1420   65.7640 H   0  0  0  0  0  0  0  0  0  0  0  0
  131.6726  127.1052   66.6049 H   0  0  0  0  0  0  0  0  0  0  0  0
  130.4527  128.2910   66.0375 H   0  0  0  0  0  0  0  0  0  0  0  0
  126.6039  125.9470   70.9431 H   0  0  0  0  0  0  0  0  0  0  0  0
  127.2743  126.8507   73.1713 H   0  0  0  0  0  0  0  0  0  0  0  0
  129.3883  128.1503   73.4119 H   0  0  0  0  0  0  0  0  0  0  0  0
  130.8441  128.5546   71.4224 H   0  0  0  0  0  0  0  0  0  0  0  0
  131.4155  121.2549   62.5628 H   0  0  0  0  0  0  0  0  0  0  0  0
  132.8513  123.6163   61.8852 H   0  0  0  0  0  0  0  0  0  0  0  0
  132.4902  122.1483   60.9150 H   0  0  0  0  0  0  0  0  0  0  0  0
  131.3421  123.5298   60.9150 H   0  0  0  0  0  0  0  0  0  0  0  0
  130.8538  122.4402   60.3715 H   0  0  0  0  0  0  0  0  0  0  0  0
  129.7061  122.6493   58.1736 H   0  0  0  0  0  0  0  0  0  0  0  0
  128.6739  124.8615   57.4588 H   0  0  0  0  0  0  0  0  0  0  0  0
  130.4845  125.9900   56.1740 H   0  0  0  0  0  0  0  0  0  0  0  0
  1  2  1  0
  2  3  2  0
  3  4  1  0
  4  5  2  0
  5  6  1  0
  6  7  2  0
  6  8  1  0
  8  9  1  0
  9 10  1  0
 10 11  1  0
 11 12  2  0
 12 13  1  0
 13 14  1  0
 14 15  1  0
 15 16  2  0
 16 17  1  0
 17 18  1  0
 18 19  2  0
 18 20  1  0
 20 21  1  0
 21 22  1  0
 22 23  2  0
 23 24  1  0
 24 25  2  0
 25 26  1  0
 26 27  2  0
 27 28  1  0
 28 29  2  0
 29 30  1  0
 30 31  2  0
 16 32  1  0
 32 33  1  0
 33 34  1  0
 13 35  2  0
 35 36  1  0
 36 37  2  0
  5 38  1  0
 38 39  2  0
 39  2  1  0
 37  8  1  0
 37 11  1  0
 33 14  1  0
 30 21  1  0
 29 24  1  0
  1 40  1  0
  1 41  1  0
  1 42  1  0
  3 43  1  0
  4 44  1  0
  9 45  1  0
  9 46  1  0
 10 47  1  0
 10 48  1  0
 12 49  1  0
 14 50  1  1
 17 51  1  0
 20 52  1  0
 20 53  1  0
 25 54  1  0
 26 55  1  0
 27 56  1  0
 28 57  1  0
 33 58  1  1
 34 59  1  0
 34 60  1  0
 34 61  1  0
 35 62  1  0
 36 63  1  0
 38 64  1  0
 39 65  1  0
M  END
>  <Binding energies>  (1) 
[-11.49]

>  <Ligand effiencies>  (1) 
[-0.28725]

>  <Interactions>  (1) 
["V-B:TYR:539:CE2:9845, V-B:PRO:540:N:9853, V-B:PRO:540:CB:9854, V-B:TYR:539:CZ:9846, V-A:LEU:475:CD1:4254, V-B:PRO:540:CA:9852, H-B:TYR:539:N:9839, V-B:TYR:539:CD1:9842, V-B:ILE:538:CA:9829, V-B:ALA:541:CB:9861, V-B:TYR:539:CE1:9844, V-B:MET:535:CE:9804, V-A:GLU:543:CD:4905, V-A:HIS:456:CE1:4066, H-A:TYR:484:OH:4344, V-A:TYR:531:CE1:4789, V-A:ASN:370:CG:3242, V-A:MET:535:CE:4832, V-B:TYR:539:CD2:9843, V-B:HIS:456:CD2:9036, V-A:GLU:543:CB:4903, V-B:LYS:547:CE:9919, V-B:HIS:456:CE1:9038, V-B:GLY:544:C:9881, V-B:ALA:541:CA:9859, V-A:TYR:531:CD1:4787, H-A:ARG:545:N:4917"]

$$$$
RR24_Rahimova_2017
     RDKit          3D

 65 71  0  0  0  0  0  0  0  0999 V2000
  125.7440  122.7980   56.6730 C   0  0  0  0  0  0  0  0  0  0  0  0
  125.6510  123.7090   57.9050 C   0  0  2  0  0  0  0  0  0  0  0  0
  125.3610  125.1970   57.5480 C   0  0  0  0  0  0  0  0  0  0  0  0
  124.2630  125.7210   57.7630 O   0  0  0  0  0  0  0  0  0  0  0  0
  126.4300  125.8120   56.9620 O   0  0  0  0  0  0  0  0  0  0  0  0
  126.8650  127.0250   57.4470 C   0  0  0  0  0  0  0  0  0  0  0  0
  127.2230  128.0310   56.5480 C   0  0  0  0  0  0  0  0  0  0  0  0
  127.6560  129.2650   57.0260 C   0  0  0  0  0  0  0  0  0  0  0  0
  127.7240  129.5010   58.4020 C   0  0  0  0  0  0  0  0  0  0  0  0
  128.2190  130.8550   58.9220 C   0  0  1  0  0  0  0  0  0  0  0  0
  127.4090  131.3340   60.1500 C   0  0  0  0  0  0  0  0  0  0  0  0
  127.9920  131.7370   61.2940 C   0  0  0  0  0  0  0  0  0  0  0  0
  129.3550  131.7510   61.4570 N   0  0  0  0  0  0  0  0  0  0  0  0
  130.1990  131.3480   60.4480 C   0  0  0  0  0  0  0  0  0  0  0  0
  131.5170  131.4310   60.7660 N   0  0  0  0  0  0  0  0  0  0  0  0
  132.4960  131.0020   59.9230 C   0  0  0  0  0  0  0  0  0  0  0  0
  133.6280  130.8010   60.3680 O   0  0  0  0  0  0  0  0  0  0  0  0
  132.0470  130.6760   58.6530 N   0  0  0  0  0  0  0  0  0  0  0  0
  133.0820  130.2920   57.6720 C   0  0  0  0  0  0  0  0  0  0  0  0
  130.7350  130.5590   58.2250 C   0  0  0  0  0  0  0  0  0  0  0  0
  130.4060  130.2120   57.0870 O   0  0  0  0  0  0  0  0  0  0  0  0
  129.7420  130.9120   59.2450 C   0  0  0  0  0  0  0  0  0  0  0  0
  126.9910  132.1300   62.2730 C   0  0  0  0  0  0  0  0  0  0  0  0
  127.0770  132.6050   63.5820 C   0  0  0  0  0  0  0  0  0  0  0  0
  125.9020  132.9000   64.2780 C   0  0  0  0  0  0  0  0  0  0  0  0
  124.6570  132.7220   63.6660 C   0  0  0  0  0  0  0  0  0  0  0  0
  124.5780  132.2470   62.3540 C   0  0  0  0  0  0  0  0  0  0  0  0
  125.7560  131.9520   61.6640 C   0  0  0  0  0  0  0  0  0  0  0  0
  125.9620  131.4460   60.2910 C   0  0  0  0  0  0  0  0  0  0  0  0
  125.1360  131.1670   59.4230 O   0  0  0  0  0  0  0  0  0  0  0  0
  127.3470  128.4960   59.2990 C   0  0  0  0  0  0  0  0  0  0  0  0
  126.9120  127.2630   58.8220 C   0  0  0  0  0  0  0  0  0  0  0  0
  126.8330  123.5600   58.8030 N   0  0  0  0  0  0  0  0  0  0  0  0
  128.1050  123.7110   58.3390 C   0  0  0  0  0  0  0  0  0  0  0  0
  128.4550  123.9670   57.1840 O   0  0  0  0  0  0  0  0  0  0  0  0
  128.9840  123.5020   59.5160 C   0  0  0  0  0  0  0  0  0  0  0  0
  130.3740  123.5340   59.6360 C   0  0  0  0  0  0  0  0  0  0  0  0
  130.9420  123.2990   60.8940 C   0  0  0  0  0  0  0  0  0  0  0  0
  130.1250  123.0400   62.0010 C   0  0  0  0  0  0  0  0  0  0  0  0
  128.7330  123.0140   61.8600 C   0  0  0  0  0  0  0  0  0  0  0  0
  128.1850  123.2490   60.5990 C   0  0  0  0  0  0  0  0  0  0  0  0
  126.7730  123.2890   60.1430 C   0  0  0  0  0  0  0  0  0  0  0  0
  125.7640  123.1190   60.8280 O   0  0  0  0  0  0  0  0  0  0  0  0
  125.8507  121.7524   56.9974 H   0  0  0  0  0  0  0  0  0  0  0  0
  124.8304  122.9032   56.0694 H   0  0  0  0  0  0  0  0  0  0  0  0
  126.6174  123.0856   56.0694 H   0  0  0  0  0  0  0  0  0  0  0  0
  124.7732  123.3639   58.4710 H   0  0  0  0  0  0  0  0  0  0  0  0
  127.1632  127.8494   55.4647 H   0  0  0  0  0  0  0  0  0  0  0  0
  127.9453  130.0563   56.3188 H   0  0  0  0  0  0  0  0  0  0  0  0
  128.0519  131.5403   58.0779 H   0  0  0  0  0  0  0  0  0  0  0  0
  129.7500  132.0640   62.3320 H   0  0  0  0  0  0  0  0  0  0  0  0
  131.8120  131.7930   61.6600 H   0  0  0  0  0  0  0  0  0  0  0  0
  133.9848  129.9570   58.2037 H   0  0  0  0  0  0  0  0  0  0  0  0
  132.7036  129.4744   57.0408 H   0  0  0  0  0  0  0  0  0  0  0  0
  133.3284  131.1585   57.0408 H   0  0  0  0  0  0  0  0  0  0  0  0
  128.0576  132.7455   64.0601 H   0  0  0  0  0  0  0  0  0  0  0  0
  125.9563  133.2737   65.3112 H   0  0  0  0  0  0  0  0  0  0  0  0
  123.7360  132.9569   64.2197 H   0  0  0  0  0  0  0  0  0  0  0  0
  123.5999  132.1072   61.8706 H   0  0  0  0  0  0  0  0  0  0  0  0
  127.3944  128.6804   60.3824 H   0  0  0  0  0  0  0  0  0  0  0  0
  126.6055  126.4767   59.5276 H   0  0  0  0  0  0  0  0  0  0  0  0
  131.0092  123.7393   58.7617 H   0  0  0  0  0  0  0  0  0  0  0  0
  132.0354  123.3180   61.0131 H   0  0  0  0  0  0  0  0  0  0  0  0
  130.5792  122.8562   62.9858 H   0  0  0  0  0  0  0  0  0  0  0  0
  128.0846  122.8125   62.7254 H   0  0  0  0  0  0  0  0  0  0  0  0
  1  2  1  0
  2  3  1  0
  3  4  2  0
  3  5  1  0
  5  6  1  0
  6  7  2  0
  7  8  1  0
  8  9  2  0
  9 10  1  0
 10 11  1  0
 11 12  2  0
 12 13  1  0
 13 14  1  0
 14 15  1  0
 15 16  1  0
 16 17  2  0
 16 18  1  0
 18 19  1  0
 18 20  1  0
 20 21  2  0
 20 22  1  0
 12 23  1  0
 23 24  2  0
 24 25  1  0
 25 26  2  0
 26 27  1  0
 27 28  2  0
 28 29  1  0
 29 30  2  0
  9 31  1  0
 31 32  2  0
  2 33  1  0
 33 34  1  0
 34 35  2  0
 34 36  1  0
 36 37  2  0
 37 38  1  0
 38 39  2  0
 39 40  1  0
 40 41  2  0
 41 42  1  0
 42 43  2  0
 32  6  1  0
 42 33  1  0
 22 10  1  0
 28 23  1  0
 41 36  1  0
 29 11  1  0
 22 14  2  0
  1 44  1  0
  1 45  1  0
  1 46  1  0
  2 47  1  1
  7 48  1  0
  8 49  1  0
 10 50  1  6
 13 51  1  0
 15 52  1  0
 19 53  1  0
 19 54  1  0
 19 55  1  0
 24 56  1  0
 25 57  1  0
 26 58  1  0
 27 59  1  0
 31 60  1  0
 32 61  1  0
 37 62  1  0
 38 63  1  0
 39 64  1  0
 40 65  1  0
M  END
>  <Binding energies>  (1) 
[-10.51]

>  <Ligand effiencies>  (1) 
[-0.23355555555555554]

>  <Interactions>  (1) 
["V-B:TYR:539:CE2:9845, V-B:PRO:540:N:9853, V-B:PRO:540:CB:9854, V-B:TYR:539:CZ:9846, H-B:ALA:541:N:9860, V-B:PRO:540:CA:9852, V-B:LEU:363:CD1:8157, V-B:ALA:541:CB:9861, V-B:MET:535:CE:9804, V-A:GLU:543:CD:4905, V-A:ASP:366:CB:3208, H-A:ARG:545:NH2:4925, H-A:TYR:531:OH:4792, H-B:TYR:531:OH:9764, V-B:PRO:540:CD:9856, V-A:PRO:540:CB:4882, V-A:PRO:540:CA:4880, V-A:LEU:363:CA:3181, V-B:GLY:454:CA:9017, V-A:ALA:541:CB:4889, H-A:GLU:543:OE2:4907, V-B:LEU:475:CD2:9227, V-B:TYR:484:CZ:9315, V-B:TYR:484:CE1:9313, H-A:LEU:363:N:3182, H-A:ALA:541:O:4886"]

$$$$
RR24_Rahimova_2017-again1
     RDKit          3D

 63 69  0  0  0  0  0  0  0  0999 V2000
  125.7410  122.9360   56.7390 C   0  0  0  0  0  0  0  0  0  0  0  0
  125.7320  123.8640   57.9610 C   0  0  2  0  0  0  0  0  0  0  0  0
  125.4910  125.3580   57.6010 C   0  0  0  0  0  0  0  0  0  0  0  0
  124.4000  125.9100   57.7900 O   0  0  0  0  0  0  0  0  0  0  0  0
  126.5890  125.9500   57.0460 O   0  0  0  0  0  0  0  0  0  0  0  0
  126.9340  127.2290   57.4180 C   0  0  0  0  0  0  0  0  0  0  0  0
  127.2780  128.1620   56.4380 C   0  0  0  0  0  0  0  0  0  0  0  0
  127.6090  129.4630   56.8040 C   0  0  0  0  0  0  0  0  0  0  0  0
  127.5890  129.8420   58.1510 C   0  0  0  0  0  0  0  0  0  0  0  0
  127.9530  131.2760   58.5600 C   0  0  1  0  0  0  0  0  0  0  0  0
  126.9990  131.8080   59.6540 C   0  0  0  0  0  0  0  0  0  0  0  0
  125.6710  132.0610   59.6580 C   0  0  0  0  0  0  0  0  0  0  0  0
  124.8900  131.9230   58.6400 O   0  0  0  0  0  0  0  0  0  0  0  0
  125.2390  132.4850   60.9890 C   0  0  0  0  0  0  0  0  0  0  0  0
  123.9870  132.8430   61.5060 C   0  0  0  0  0  0  0  0  0  0  0  0
  123.8760  133.2060   62.8490 C   0  0  0  0  0  0  0  0  0  0  0  0
  125.0060  133.2130   63.6690 C   0  0  0  0  0  0  0  0  0  0  0  0
  126.2510  132.8570   63.1480 C   0  0  0  0  0  0  0  0  0  0  0  0
  126.3600  132.4910   61.8050 C   0  0  0  0  0  0  0  0  0  0  0  0
  127.4960  132.0960   60.9890 C   0  0  0  0  0  0  0  0  0  0  0  0
  128.7350  132.0020   61.2950 N   0  0  0  0  0  0  0  0  0  0  0  0
  129.6850  131.7310   60.3560 C   0  0  0  0  0  0  0  0  0  0  0  0
  130.9580  131.8320   60.8380 N   0  0  0  0  0  0  0  0  0  0  0  0
  131.9490  131.5840   60.0580 C   0  0  0  0  0  0  0  0  0  0  0  0
  133.0590  131.7030   60.6040 O   0  0  0  0  0  0  0  0  0  0  0  0
  131.7750  131.2220   58.7230 N   0  0  0  0  0  0  0  0  0  0  0  0
  132.8960  130.9290   57.7990 C   0  0  0  0  0  0  0  0  0  0  0  0
  130.5250  131.1120   58.1450 C   0  0  0  0  0  0  0  0  0  0  0  0
  130.3280  130.8180   56.9620 O   0  0  0  0  0  0  0  0  0  0  0  0
  129.4130  131.3870   59.0590 C   0  0  0  0  0  0  0  0  0  0  0  0
  127.2320  128.9080   59.1280 C   0  0  0  0  0  0  0  0  0  0  0  0
  126.8990  127.6070   58.7630 C   0  0  0  0  0  0  0  0  0  0  0  0
  126.9420  123.6750   58.8150 N   0  0  0  0  0  0  0  0  0  0  0  0
  126.8400  123.3250   60.1290 C   0  0  0  0  0  0  0  0  0  0  0  0
  125.8090  123.1260   60.7730 O   0  0  0  0  0  0  0  0  0  0  0  0
  128.2370  123.2330   60.6220 C   0  0  0  0  0  0  0  0  0  0  0  0
  128.7420  122.9180   61.8850 C   0  0  0  0  0  0  0  0  0  0  0  0
  130.1290  122.9080   62.0670 C   0  0  0  0  0  0  0  0  0  0  0  0
  130.9850  123.2070   60.9990 C   0  0  0  0  0  0  0  0  0  0  0  0
  130.4600  123.5190   59.7400 C   0  0  0  0  0  0  0  0  0  0  0  0
  129.0730  123.5260   59.5790 C   0  0  0  0  0  0  0  0  0  0  0  0
  128.2340  123.8110   58.3880 C   0  0  0  0  0  0  0  0  0  0  0  0
  128.6210  124.1040   57.2560 O   0  0  0  0  0  0  0  0  0  0  0  0
  125.7512  121.8884   57.0742 H   0  0  0  0  0  0  0  0  0  0  0  0
  124.8410  123.1185   56.1334 H   0  0  0  0  0  0  0  0  0  0  0  0
  126.6372  123.1359   56.1334 H   0  0  0  0  0  0  0  0  0  0  0  0
  124.8610  123.5623   58.5613 H   0  0  0  0  0  0  0  0  0  0  0  0
  127.2874  127.8689   55.3778 H   0  0  0  0  0  0  0  0  0  0  0  0
  127.8872  130.1958   56.0322 H   0  0  0  0  0  0  0  0  0  0  0  0
  127.8467  131.8908   57.6541 H   0  0  0  0  0  0  0  0  0  0  0  0
  123.0980  132.8380   60.8581 H   0  0  0  0  0  0  0  0  0  0  0  0
  122.8962  133.4872   63.2624 H   0  0  0  0  0  0  0  0  0  0  0  0
  124.9150  133.4995   64.7271 H   0  0  0  0  0  0  0  0  0  0  0  0
  127.1423  132.8648   63.7926 H   0  0  0  0  0  0  0  0  0  0  0  0
  133.7990  130.6930   58.3812 H   0  0  0  0  0  0  0  0  0  0  0  0
  132.6334  130.0693   57.1650 H   0  0  0  0  0  0  0  0  0  0  0  0
  133.0877  131.8072   57.1650 H   0  0  0  0  0  0  0  0  0  0  0  0
  127.2143  129.2021   60.1878 H   0  0  0  0  0  0  0  0  0  0  0  0
  126.6085  126.8767   59.5326 H   0  0  0  0  0  0  0  0  0  0  0  0
  128.0641  122.6828   62.7187 H   0  0  0  0  0  0  0  0  0  0  0  0
  130.5497  122.6641   63.0537 H   0  0  0  0  0  0  0  0  0  0  0  0
  132.0744  123.1965   61.1508 H   0  0  0  0  0  0  0  0  0  0  0  0
  131.1252  123.7535   58.8959 H   0  0  0  0  0  0  0  0  0  0  0  0
  1  2  1  0
  2  3  1  0
  3  4  2  0
  3  5  1  0
  5  6  1  0
  6  7  2  0
  7  8  1  0
  8  9  2  0
  9 10  1  0
 10 11  1  0
 11 12  2  0
 12 13  1  0
 12 14  1  0
 14 15  2  0
 15 16  1  0
 16 17  2  0
 17 18  1  0
 18 19  2  0
 19 20  1  0
 20 21  2  0
 21 22  1  0
 22 23  1  0
 23 24  2  0
 24 25  1  0
 24 26  1  0
 26 27  1  0
 26 28  1  0
 28 29  2  0
 28 30  1  0
  9 31  1  0
 31 32  2  0
  2 33  1  0
 33 34  1  0
 34 35  2  0
 34 36  1  0
 36 37  2  0
 37 38  1  0
 38 39  2  0
 39 40  1  0
 40 41  2  0
 41 42  1  0
 42 43  2  0
 32  6  1  0
 42 33  1  0
 30 10  1  0
 41 36  1  0
 20 11  1  0
 30 22  2  0
 19 14  1  0
  1 44  1  0
  1 45  1  0
  1 46  1  0
  2 47  1  1
  7 48  1  0
  8 49  1  0
 10 50  1  6
 15 51  1  0
 16 52  1  0
 17 53  1  0
 18 54  1  0
 27 55  1  0
 27 56  1  0
 27 57  1  0
 31 58  1  0
 32 59  1  0
 37 60  1  0
 38 61  1  0
 39 62  1  0
 40 63  1  0
M  CHG  2  13  -1  25  -1
M  END
>  <Binding energies>  (1) 
[-8.54]

>  <Ligand effiencies>  (1) 
[-0.1986046511627907]

>  <Interactions>  (1) 
["V-B:TYR:539:CE2:9845, V-B:PRO:540:N:9853, V-B:PRO:540:CB:9854, V-B:TYR:539:CZ:9846, H-B:ALA:541:N:9860, V-B:PRO:540:CA:9852, V-B:LEU:363:CD1:8157, V-B:ALA:541:CB:9861, V-B:MET:535:CE:9804, H-A:TYR:531:OH:4792, H-B:TYR:531:OH:9764, V-B:PRO:540:CD:9856, V-A:PRO:540:CB:4882, V-A:PRO:540:CA:4880, V-A:LEU:363:CD1:3185, V-A:LEU:363:CA:3181, V-A:TYR:539:CE2:4873, H-A:ALA:541:N:4888, V-A:PRO:540:C:4878, V-B:GLY:454:CA:9017, V-B:ILE:369:CG2:8205, V-B:ILE:369:CD1:8207, V-B:LEU:475:CD2:9227"]

$$$$
RR25_Rahimova_2017
     RDKit          3D

 63 68  0  0  0  0  0  0  0  0999 V2000
  129.2250  126.8670   68.0680 O   0  0  0  0  0  0  0  0  0  0  0  0
  129.2440  126.5500   66.8780 C   0  0  0  0  0  0  0  0  0  0  0  0
  129.9970  125.4480   66.5560 O   0  0  0  0  0  0  0  0  0  0  0  0
  129.9020  124.8480   65.3130 C   0  0  0  0  0  0  0  0  0  0  0  0
  130.2310  123.4950   65.2440 C   0  0  0  0  0  0  0  0  0  0  0  0
  130.1660  122.8290   64.0220 C   0  0  0  0  0  0  0  0  0  0  0  0
  129.7760  123.5030   62.8550 C   0  0  0  0  0  0  0  0  0  0  0  0
  129.7000  122.7890   61.5570 N   0  0  0  0  0  0  0  0  0  0  0  0
  130.7440  122.5520   60.9540 O   0  0  0  0  0  0  0  0  0  0  0  0
  128.5970  122.4620   61.1300 O   0  0  0  0  0  0  0  0  0  0  0  0
  129.4610  124.8690   62.9450 C   0  0  0  0  0  0  0  0  0  0  0  0
  129.5280  125.5530   64.1610 C   0  0  0  0  0  0  0  0  0  0  0  0
  129.1870  127.0250   64.3110 C   0  0  0  0  0  0  0  0  0  0  0  0
  128.5280  127.2700   65.6980 C   0  0  2  0  0  0  0  0  0  0  0  0
  128.2540  128.7850   65.9290 C   0  0  0  0  0  0  0  0  0  0  0  0
  128.7330  129.2730   66.9560 O   0  0  0  0  0  0  0  0  0  0  0  0
  127.6310  129.5620   64.9920 N   0  0  0  0  0  0  0  0  0  0  0  0
  126.7820  128.9990   63.9210 C   0  0  0  0  0  0  0  0  0  0  0  0
  126.9860  129.8250   62.6330 C   0  0  0  0  0  0  0  0  0  0  0  0
  126.7370  131.2500   62.8660 N   0  0  0  0  0  0  0  0  0  0  0  0
  126.8000  132.0190   61.6160 C   0  0  0  0  0  0  0  0  0  0  0  0
  128.1430  132.7770   61.4420 C   0  0  0  0  0  0  0  0  0  0  0  0
  128.9190  132.4610   60.2070 N   0  0  0  0  0  0  0  0  0  0  0  0
  130.2380  132.1150   60.4120 C   0  0  0  0  0  0  0  0  0  0  0  0
  130.7670  132.0990   61.5290 O   0  0  0  0  0  0  0  0  0  0  0  0
  130.9940  131.7340   59.1530 C   0  0  0  0  0  0  0  0  0  0  0  0
  132.3350  131.3410   59.2490 C   0  0  0  0  0  0  0  0  0  0  0  0
  133.0570  130.9760   58.1140 C   0  0  0  0  0  0  0  0  0  0  0  0
  132.4650  130.9900   56.8530 C   0  0  0  0  0  0  0  0  0  0  0  0
  131.1120  131.3810   56.7070 C   0  0  0  0  0  0  0  0  0  0  0  0
  130.4490  131.4160   55.4580 C   0  0  0  0  0  0  0  0  0  0  0  0
  129.1130  131.8070   55.3850 C   0  0  0  0  0  0  0  0  0  0  0  0
  128.4110  132.1710   56.5320 C   0  0  0  0  0  0  0  0  0  0  0  0
  129.0260  132.1510   57.7910 C   0  0  0  0  0  0  0  0  0  0  0  0
  130.3850  131.7520   57.8720 C   0  0  0  0  0  0  0  0  0  0  0  0
  128.2250  132.5450   59.0170 C   0  0  0  0  0  0  0  0  0  0  0  0
  127.0420  132.8950   58.9420 O   0  0  0  0  0  0  0  0  0  0  0  0
  127.6780  131.7620   63.8640 C   0  0  0  0  0  0  0  0  0  0  0  0
  127.5360  131.0230   65.2160 C   0  0  0  0  0  0  0  0  0  0  0  0
  130.5408  122.9553   66.1510 H   0  0  0  0  0  0  0  0  0  0  0  0
  130.4238  121.7608   63.9715 H   0  0  0  0  0  0  0  0  0  0  0  0
  129.1550  125.4116   62.0384 H   0  0  0  0  0  0  0  0  0  0  0  0
  130.1065  127.6235   64.2319 H   0  0  0  0  0  0  0  0  0  0  0  0
  128.4857  127.3199   63.5165 H   0  0  0  0  0  0  0  0  0  0  0  0
  127.5439  126.7790   65.6779 H   0  0  0  0  0  0  0  0  0  0  0  0
  127.0659  127.9523   63.7369 H   0  0  0  0  0  0  0  0  0  0  0  0
  125.7254  129.0379   64.2246 H   0  0  0  0  0  0  0  0  0  0  0  0
  128.0213  129.6950   62.2848 H   0  0  0  0  0  0  0  0  0  0  0  0
  126.2717  129.4682   61.8764 H   0  0  0  0  0  0  0  0  0  0  0  0
  126.6756  131.3262   60.7707 H   0  0  0  0  0  0  0  0  0  0  0  0
  125.9978  132.7709   61.6495 H   0  0  0  0  0  0  0  0  0  0  0  0
  127.9223  133.8546   61.4339 H   0  0  0  0  0  0  0  0  0  0  0  0
  128.7766  132.4527   62.2807 H   0  0  0  0  0  0  0  0  0  0  0  0
  132.8250  131.3201   60.2336 H   0  0  0  0  0  0  0  0  0  0  0  0
  134.1094  130.6725   58.2154 H   0  0  0  0  0  0  0  0  0  0  0  0
  133.0500  130.6967   55.9688 H   0  0  0  0  0  0  0  0  0  0  0  0
  130.9890  131.1340   54.5421 H   0  0  0  0  0  0  0  0  0  0  0  0
  128.6063  131.8284   54.4089 H   0  0  0  0  0  0  0  0  0  0  0  0
  127.3582  132.4787   56.4481 H   0  0  0  0  0  0  0  0  0  0  0  0
  128.7034  131.6266   63.4896 H   0  0  0  0  0  0  0  0  0  0  0  0
  127.4565  132.8266   64.0300 H   0  0  0  0  0  0  0  0  0  0  0  0
  128.3401  131.3430   65.8951 H   0  0  0  0  0  0  0  0  0  0  0  0
  126.5606  131.2627   65.6644 H   0  0  0  0  0  0  0  0  0  0  0  0
  1  2  2  0
  2  3  1  0
  3  4  1  0
  4  5  2  0
  5  6  1  0
  6  7  2  0
  7  8  1  0
  8  9  2  0
  8 10  1  0
  7 11  1  0
 11 12  2  0
 12 13  1  0
 13 14  1  0
 14 15  1  0
 15 16  2  0
 15 17  1  0
 17 18  1  0
 18 19  1  0
 19 20  1  0
 20 21  1  0
 21 22  1  0
 22 23  1  0
 23 24  1  0
 24 25  2  0
 24 26  1  0
 26 27  2  0
 27 28  1  0
 28 29  2  0
 29 30  1  0
 30 31  2  0
 31 32  1  0
 32 33  2  0
 33 34  1  0
 34 35  2  0
 34 36  1  0
 36 37  2  0
 20 38  1  0
 38 39  1  0
 14  2  1  0
 39 17  1  0
 12  4  1  0
 36 23  1  0
 35 26  1  0
 35 30  1  0
  5 40  1  0
  6 41  1  0
 11 42  1  0
 13 43  1  0
 13 44  1  0
 14 45  1  6
 18 46  1  0
 18 47  1  0
 19 48  1  0
 19 49  1  0
 21 50  1  0
 21 51  1  0
 22 52  1  0
 22 53  1  0
 27 54  1  0
 28 55  1  0
 29 56  1  0
 31 57  1  0
 32 58  1  0
 33 59  1  0
 38 60  1  0
 38 61  1  0
 39 62  1  0
 39 63  1  0
M  CHG  2   8   1  10  -1
M  END
>  <Binding energies>  (1) 
[-10.22]

>  <Ligand effiencies>  (1) 
[-0.2620512820512821]

>  <Interactions>  (1) 
["V-A:TYR:484:CZ:4343, V-B:ALA:541:CB:9861, V-B:GLU:543:CD:9877, V-A:TYR:484:CE1:4341, V-B:GLU:543:CG:9876, V-A:GLU:543:CD:4905, V-A:GLU:543:CG:4904, V-B:GLU:543:CB:9875, H-A:TYR:484:OH:4344, V-A:PRO:540:CB:4882, V-A:TYR:539:C:4864, V-A:PRO:540:CA:4880, V-A:LEU:363:CD1:3185, V-A:PRO:540:N:4881, V-A:TYR:531:CZ:4791, V-A:ILE:538:CD1:4862, V-A:TYR:539:CZ:4874, V-A:LEU:363:CA:3181, V-A:TYR:539:CD2:4871, V-A:TYR:539:CE2:4873, H-A:ALA:541:N:4888, V-A:PRO:540:C:4878, V-A:GLU:543:CB:4903, V-B:HIS:456:CE1:9038, V-A:ALA:541:CB:4889, V-B:TYR:484:CZ:9315, V-B:TYR:484:CE1:9313"]

$$$$
RR26_Rahimova_2017
     RDKit          3D

 59 65  0  0  0  0  0  0  0  0999 V2000
  124.8260  123.8810   58.1570 C   0  0  0  0  0  0  0  0  0  0  0  0
  126.0030  123.4650   57.2830 C   0  0  0  0  0  0  0  0  0  0  0  0
  125.7320  122.8950   56.0340 C   0  0  0  0  0  0  0  0  0  0  0  0
  126.7690  122.5330   55.1780 C   0  0  0  0  0  0  0  0  0  0  0  0
  128.0900  122.7440   55.5600 C   0  0  0  0  0  0  0  0  0  0  0  0
  128.3720  123.3110   56.8010 C   0  0  0  0  0  0  0  0  0  0  0  0
  127.3410  123.6740   57.6810 C   0  0  0  0  0  0  0  0  0  0  0  0
  127.7330  124.2650   59.0050 C   0  0  0  0  0  0  0  0  0  0  0  0
  127.9900  123.5120   60.0720 N   0  0  0  0  0  0  0  0  0  0  0  0
  128.2930  124.4100   60.9700 C   0  0  0  0  0  0  0  0  0  0  0  0
  128.7510  124.3920   62.6320 S   0  0  0  0  0  0  0  0  0  0  0  0
  128.8570  126.1920   62.5990 C   0  0  0  0  0  0  0  0  0  0  0  0
  129.1840  127.0200   63.6160 C   0  0  0  0  0  0  0  0  0  0  0  0
  129.5360  126.6670   64.9820 C   0  0  0  0  0  0  0  0  0  0  0  0
  129.1010  127.2580   66.1590 C   0  0  0  0  0  0  0  0  0  0  0  0
  129.6590  126.5710   67.2070 N   0  0  0  0  0  0  0  0  0  0  0  0
  129.4970  126.8070   68.5960 C   0  0  0  0  0  0  0  0  0  0  0  0
  130.3500  127.6860   69.2800 C   0  0  0  0  0  0  0  0  0  0  0  0
  130.1820  127.9070   70.6440 C   0  0  0  0  0  0  0  0  0  0  0  0
  129.1610  127.2530   71.3290 C   0  0  0  0  0  0  0  0  0  0  0  0
  128.3050  126.3800   70.6610 C   0  0  0  0  0  0  0  0  0  0  0  0
  128.4720  126.1550   69.2980 C   0  0  0  0  0  0  0  0  0  0  0  0
  130.4060  125.5530   66.7510 N   0  0  0  0  0  0  0  0  0  0  0  0
  130.3460  125.6020   65.4350 C   0  0  0  0  0  0  0  0  0  0  0  0
  131.0920  124.5930   64.6170 C   0  0  0  0  0  0  0  0  0  0  0  0
  130.6880  123.2490   64.6060 C   0  0  0  0  0  0  0  0  0  0  0  0
  131.3790  122.3000   63.8500 C   0  0  0  0  0  0  0  0  0  0  0  0
  132.4840  122.6910   63.0970 C   0  0  0  0  0  0  0  0  0  0  0  0
  132.8870  124.0340   63.0860 C   0  0  0  0  0  0  0  0  0  0  0  0
  132.1990  124.9780   63.8470 C   0  0  0  0  0  0  0  0  0  0  0  0
  134.0020  124.4580   62.3900 O   0  0  0  0  0  0  0  0  0  0  0  0
  134.4320  123.5550   61.3660 C   0  0  0  0  0  0  0  0  0  0  0  0
  134.4210  122.0980   61.8870 C   0  0  0  0  0  0  0  0  0  0  0  0
  133.1090  121.7300   62.3270 O   0  0  0  0  0  0  0  0  0  0  0  0
  128.5240  126.7430   61.2890 C   0  0  0  0  0  0  0  0  0  0  0  0
  128.4920  127.9210   60.9270 O   0  0  0  0  0  0  0  0  0  0  0  0
  128.2270  125.6530   60.4580 N   0  0  0  0  0  0  0  0  0  0  0  0
  127.8670  125.5710   59.1740 N   0  0  0  0  0  0  0  0  0  0  0  0
  125.1036  123.7829   59.2169 H   0  0  0  0  0  0  0  0  0  0  0  0
  124.5617  124.9270   57.9425 H   0  0  0  0  0  0  0  0  0  0  0  0
  123.9631  123.2334   57.9425 H   0  0  0  0  0  0  0  0  0  0  0  0
  124.6890  122.7312   55.7252 H   0  0  0  0  0  0  0  0  0  0  0  0
  126.5439  122.0807   54.2009 H   0  0  0  0  0  0  0  0  0  0  0  0
  128.9106  122.4636   54.8832 H   0  0  0  0  0  0  0  0  0  0  0  0
  129.4188  123.4766   57.0955 H   0  0  0  0  0  0  0  0  0  0  0  0
  129.1838  128.0946   63.3811 H   0  0  0  0  0  0  0  0  0  0  0  0
  128.4277  128.1243   66.2380 H   0  0  0  0  0  0  0  0  0  0  0  0
  131.1547  128.2026   68.7363 H   0  0  0  0  0  0  0  0  0  0  0  0
  130.8530  128.5954   71.1787 H   0  0  0  0  0  0  0  0  0  0  0  0
  129.0292  127.4272   72.4071 H   0  0  0  0  0  0  0  0  0  0  0  0
  127.4994  125.8700   71.2095 H   0  0  0  0  0  0  0  0  0  0  0  0
  127.7986  125.4641   68.7695 H   0  0  0  0  0  0  0  0  0  0  0  0
  129.8159  122.9393   65.2005 H   0  0  0  0  0  0  0  0  0  0  0  0
  131.0527  121.2495   63.8490 H   0  0  0  0  0  0  0  0  0  0  0  0
  132.5256  126.0284   63.8434 H   0  0  0  0  0  0  0  0  0  0  0  0
  133.7536  123.6361   60.5039 H   0  0  0  0  0  0  0  0  0  0  0  0
  135.4577  123.8180   61.0682 H   0  0  0  0  0  0  0  0  0  0  0  0
  134.7336  121.4222   61.0773 H   0  0  0  0  0  0  0  0  0  0  0  0
  135.1149  122.0201   62.7369 H   0  0  0  0  0  0  0  0  0  0  0  0
  1  2  1  0
  2  3  2  0
  3  4  1  0
  4  5  2  0
  5  6  1  0
  6  7  2  0
  7  8  1  0
  8  9  1  0
  9 10  2  0
 10 11  1  0
 11 12  1  0
 12 13  2  0
 13 14  1  0
 14 15  2  0
 15 16  1  0
 16 17  1  0
 17 18  2  0
 18 19  1  0
 19 20  2  0
 20 21  1  0
 21 22  2  0
 16 23  1  0
 23 24  2  0
 24 25  1  0
 25 26  2  0
 26 27  1  0
 27 28  2  0
 28 29  1  0
 29 30  2  0
 29 31  1  0
 31 32  1  0
 32 33  1  0
 33 34  1  0
 12 35  1  0
 35 36  2  0
 35 37  1  0
 37 38  1  0
  7  2  1  0
 38  8  2  0
 37 10  1  0
 24 14  1  0
 30 25  1  0
 22 17  1  0
 34 28  1  0
  1 39  1  0
  1 40  1  0
  1 41  1  0
  3 42  1  0
  4 43  1  0
  5 44  1  0
  6 45  1  0
 13 46  1  0
 15 47  1  0
 18 48  1  0
 19 49  1  0
 20 50  1  0
 21 51  1  0
 22 52  1  0
 26 53  1  0
 27 54  1  0
 30 55  1  0
 32 56  1  0
 32 57  1  0
 33 58  1  0
 33 59  1  0
M  END
>  <Binding energies>  (1) 
[-10.02]

>  <Ligand effiencies>  (1) 
[-0.2636842105263158]

>  <Interactions>  (1) 
["V-B:PRO:540:CB:9854, V-B:TYR:539:CZ:9846, V-A:TYR:484:CZ:4343, V-A:LEU:475:CD1:4254, V-B:PRO:540:CA:9852, V-B:TYR:539:CD1:9842, V-B:ILE:538:CA:9829, V-B:LEU:363:CD1:8157, V-B:ILE:538:CG2:9832, V-B:TYR:539:CE1:9844, V-B:GLU:543:CD:9877, V-A:TYR:484:CE1:4341, V-B:ILE:538:CB:9831, V-A:LEU:475:CD2:4255, V-B:GLU:543:CG:9876, V-B:MET:535:CE:9804, V-A:ARG:545:CZ:4923, V-A:GLY:454:CA:4045, V-A:GLU:543:CD:4905, V-A:HIS:456:CE1:4066, V-A:ASP:366:CG:3209, V-B:GLU:543:CB:9875, H-A:GLY:454:N:4046, H-A:TYR:484:OH:4344, V-B:HIS:456:CD2:9036, V-A:GLY:453:C:4038, V-A:GLY:453:CA:4040, V-A:ILE:369:CG1:3234, V-B:GLU:543:C:9871, V-A:LEU:475:CG:4253"]

$$$$
RR27_Rahimova_2017
     RDKit          3D

 66 71  0  0  0  0  0  0  0  0999 V2000
  132.4900  127.9720   56.6250 O   0  0  0  0  0  0  0  0  0  0  0  0
  131.5980  128.5670   57.2380 C   0  0  0  0  0  0  0  0  0  0  0  0
  131.6680  130.1200   57.3200 C   0  0  0  0  0  0  0  0  0  0  0  0
  131.9520  130.6380   58.7430 C   0  0  0  0  0  0  0  0  0  0  0  0
  130.9350  131.1530   59.5600 C   0  0  0  0  0  0  0  0  0  0  0  0
  131.2260  131.6100   60.8420 C   0  0  0  0  0  0  0  0  0  0  0  0
  132.5350  131.5560   61.3120 C   0  0  0  0  0  0  0  0  0  0  0  0
  133.5560  131.0500   60.5120 C   0  0  0  0  0  0  0  0  0  0  0  0
  133.2640  130.5930   59.2300 C   0  0  0  0  0  0  0  0  0  0  0  0
  130.4700  130.7840   56.6150 C   0  0  0  0  0  0  0  0  0  0  0  0
  129.5570  130.0410   55.8540 C   0  0  0  0  0  0  0  0  0  0  0  0
  128.4910  130.6760   55.2200 C   0  0  0  0  0  0  0  0  0  0  0  0
  128.3380  132.0540   55.3400 C   0  0  0  0  0  0  0  0  0  0  0  0
  129.2440  132.8060   56.0830 C   0  0  0  0  0  0  0  0  0  0  0  0
  130.3080  132.1720   56.7150 C   0  0  0  0  0  0  0  0  0  0  0  0
  130.4940  127.9160   57.7040 N   0  0  0  0  0  0  0  0  0  0  0  0
  129.5380  128.5150   58.6470 C   0  0  0  0  0  0  0  0  0  0  0  0
  130.0730  128.2290   60.0680 C   0  0  0  0  0  0  0  0  0  0  0  0
  130.3220  126.7090   60.3250 C   0  0  0  0  0  0  0  0  0  0  0  0
  130.9610  126.3800   61.6870 C   0  0  0  0  0  0  0  0  0  0  0  0
  132.1270  125.6710   61.6550 N   0  0  0  0  0  0  0  0  0  0  0  0
  132.7480  125.3770   62.8310 C   0  0  0  0  0  0  0  0  0  0  0  0
  133.9210  124.6770   62.9270 O   0  0  0  0  0  0  0  0  0  0  0  0
  132.1600  125.8160   64.0330 C   0  0  0  0  0  0  0  0  0  0  0  0
  132.5080  125.7030   65.3470 N   0  0  0  0  0  0  0  0  0  0  0  0
  131.5280  126.3350   66.0880 N   0  0  0  0  0  0  0  0  0  0  0  0
  130.5990  126.8350   65.2450 N   0  0  0  0  0  0  0  0  0  0  0  0
  129.4270  127.5370   65.7650 C   0  0  0  0  0  0  0  0  0  0  0  0
  129.1310  127.2330   67.2270 C   0  0  0  0  0  0  0  0  0  0  0  0
  127.9860  126.5110   67.5780 C   0  0  0  0  0  0  0  0  0  0  0  0
  127.7200  126.2240   68.9180 C   0  0  0  0  0  0  0  0  0  0  0  0
  128.5990  126.6520   69.9120 C   0  0  0  0  0  0  0  0  0  0  0  0
  129.7490  127.3650   69.5680 C   0  0  0  0  0  0  0  0  0  0  0  0
  130.8530  127.8730   70.7950 Cl  0  0  0  0  0  0  0  0  0  0  0  0
  130.0110  127.6590   68.2300 C   0  0  0  0  0  0  0  0  0  0  0  0
  130.9470  126.5320   63.9400 C   0  0  0  0  0  0  0  0  0  0  0  0
  130.3130  126.8260   62.8010 N   0  0  0  0  0  0  0  0  0  0  0  0
  131.0430  126.0260   59.1220 C   0  0  0  0  0  0  0  0  0  0  0  0
  130.4660  126.4460   57.7470 C   0  0  0  0  0  0  0  0  0  0  0  0
  132.5517  130.4389   56.7479 H   0  0  0  0  0  0  0  0  0  0  0  0
  129.9016  131.1960   59.1855 H   0  0  0  0  0  0  0  0  0  0  0  0
  130.4255  132.0118   61.4806 H   0  0  0  0  0  0  0  0  0  0  0  0
  132.7651  131.9166   62.3254 H   0  0  0  0  0  0  0  0  0  0  0  0
  134.5879  131.0116   60.8910 H   0  0  0  0  0  0  0  0  0  0  0  0
  134.0691  130.1940   58.5955 H   0  0  0  0  0  0  0  0  0  0  0  0
  129.6825  128.9525   55.7569 H   0  0  0  0  0  0  0  0  0  0  0  0
  127.7732  130.0903   54.6269 H   0  0  0  0  0  0  0  0  0  0  0  0
  127.4934  132.5537   54.8432 H   0  0  0  0  0  0  0  0  0  0  0  0
  129.1188  133.8954   56.1696 H   0  0  0  0  0  0  0  0  0  0  0  0
  131.0281  132.7649   57.2980 H   0  0  0  0  0  0  0  0  0  0  0  0
  129.4701  129.6000   58.4793 H   0  0  0  0  0  0  0  0  0  0  0  0
  128.5320  128.0911   58.5115 H   0  0  0  0  0  0  0  0  0  0  0  0
  131.0223  128.7684   60.2015 H   0  0  0  0  0  0  0  0  0  0  0  0
  129.3089  128.5657   60.7841 H   0  0  0  0  0  0  0  0  0  0  0  0
  129.3205  126.2597   60.3966 H   0  0  0  0  0  0  0  0  0  0  0  0
  134.5770  124.9630   62.2880 H   0  0  0  0  0  0  0  0  0  0  0  0
  129.5964  128.6190   65.6626 H   0  0  0  0  0  0  0  0  0  0  0  0
  128.5602  127.1912   65.1826 H   0  0  0  0  0  0  0  0  0  0  0  0
  127.2928  126.1681   66.7958 H   0  0  0  0  0  0  0  0  0  0  0  0
  126.8159  125.6595   69.1900 H   0  0  0  0  0  0  0  0  0  0  0  0
  128.3863  126.4278   70.9677 H   0  0  0  0  0  0  0  0  0  0  0  0
  130.9131  128.2282   67.9611 H   0  0  0  0  0  0  0  0  0  0  0  0
  132.1083  126.2986   59.1522 H   0  0  0  0  0  0  0  0  0  0  0  0
  130.8913  124.9412   59.2228 H   0  0  0  0  0  0  0  0  0  0  0  0
  131.0823  126.0318   56.9355 H   0  0  0  0  0  0  0  0  0  0  0  0
  129.4414  126.0673   57.6172 H   0  0  0  0  0  0  0  0  0  0  0  0
  1  2  2  0
  2  3  1  0
  3  4  1  0
  4  5  2  0
  5  6  1  0
  6  7  2  0
  7  8  1  0
  8  9  2  0
  3 10  1  0
 10 11  2  0
 11 12  1  0
 12 13  2  0
 13 14  1  0
 14 15  2  0
  2 16  1  0
 16 17  1  0
 17 18  1  0
 18 19  1  0
 19 20  1  0
 20 21  2  0
 21 22  1  0
 22 23  1  0
 22 24  2  0
 24 25  1  0
 25 26  2  0
 26 27  1  0
 27 28  1  0
 28 29  1  0
 29 30  2  0
 30 31  1  0
 31 32  2  0
 32 33  1  0
 33 34  1  0
 33 35  2  0
 27 36  1  0
 36 37  2  0
 19 38  1  0
 38 39  1  0
  9  4  1  0
 15 10  1  0
 39 16  1  0
 37 20  1  0
 36 24  1  0
 35 29  1  0
  3 40  1  0
  5 41  1  0
  6 42  1  0
  7 43  1  0
  8 44  1  0
  9 45  1  0
 11 46  1  0
 12 47  1  0
 13 48  1  0
 14 49  1  0
 15 50  1  0
 17 51  1  0
 17 52  1  0
 18 53  1  0
 18 54  1  0
 19 55  1  0
 23 56  1  0
 28 57  1  0
 28 58  1  0
 30 59  1  0
 31 60  1  0
 32 61  1  0
 35 62  1  0
 38 63  1  0
 38 64  1  0
 39 65  1  0
 39 66  1  0
M  END
>  <Binding energies>  (1) 
[-10.74]

>  <Ligand effiencies>  (1) 
[-0.2685]

>  <Interactions>  (1) 
["V-B:GLU:543:CD:9877, V-B:GLU:543:CG:9876, V-A:ARG:545:CZ:4923, V-A:GLU:543:CD:4905, V-A:ASP:366:CB:3208, V-A:HIS:456:CE1:4066, H-A:ARG:545:NH2:4925, H-A:ARG:545:NH1:4924, H-A:ARG:545:NE:4921, V-A:ASP:366:CG:3209, V-B:GLU:543:CB:9875, H-A:GLY:454:N:4046, H-A:TYR:484:OH:4344, H-A:TYR:531:OH:4792, V-A:PRO:540:CB:4882, V-A:TYR:539:CE1:4872, V-A:TYR:539:C:4864, V-A:PRO:540:CA:4880, V-A:PRO:540:N:4881, V-A:TYR:539:CZ:4874, V-A:LEU:363:CA:3181, V-A:TYR:539:CD2:4871, V-A:TYR:539:CE2:4873, V-A:TYR:539:CG:4869, V-A:ASN:362:CB:3172, V-A:PRO:540:C:4878, V-A:GLU:543:CB:4903, V-A:GLY:544:C:4909, V-B:HIS:456:CE1:9038, V-A:ASN:362:C:3168, V-B:GLU:543:C:9871, H-A:ASP:366:OD2:3211, V-A:TYR:539:CA:4866, V-A:ASN:362:CA:3170, V-A:HIS:456:CD2:4064"]

$$$$
RR27_Rahimova_2017-again1
     RDKit          3D

 66 71  0  0  0  0  0  0  0  0999 V2000
  132.5710  128.7180   56.6500 O   0  0  0  0  0  0  0  0  0  0  0  0
  131.4180  128.5020   57.0340 C   0  0  0  0  0  0  0  0  0  0  0  0
  130.6490  129.6570   57.7440 C   0  0  0  0  0  0  0  0  0  0  0  0
  129.9970  130.6330   56.7460 C   0  0  0  0  0  0  0  0  0  0  0  0
  129.8910  132.0070   57.0080 C   0  0  0  0  0  0  0  0  0  0  0  0
  129.2960  132.8580   56.0800 C   0  0  0  0  0  0  0  0  0  0  0  0
  128.8030  132.3390   54.8860 C   0  0  0  0  0  0  0  0  0  0  0  0
  128.9010  130.9790   54.6110 C   0  0  0  0  0  0  0  0  0  0  0  0
  129.4960  130.1290   55.5380 C   0  0  0  0  0  0  0  0  0  0  0  0
  131.5110  130.3520   58.8150 C   0  0  0  0  0  0  0  0  0  0  0  0
  130.9750  130.7260   60.0560 C   0  0  0  0  0  0  0  0  0  0  0  0
  131.7680  131.3720   61.0010 C   0  0  0  0  0  0  0  0  0  0  0  0
  133.1020  131.6440   60.7110 C   0  0  0  0  0  0  0  0  0  0  0  0
  133.6480  131.2810   59.4840 C   0  0  0  0  0  0  0  0  0  0  0  0
  132.8530  130.6420   58.5360 C   0  0  0  0  0  0  0  0  0  0  0  0
  130.7680  127.3480   56.7060 N   0  0  0  0  0  0  0  0  0  0  0  0
  129.5230  126.9020   57.3460 C   0  0  0  0  0  0  0  0  0  0  0  0
  129.9030  126.1370   58.6350 C   0  0  0  0  0  0  0  0  0  0  0  0
  131.0900  125.1270   58.4980 C   0  0  0  0  0  0  0  0  0  0  0  0
  131.8260  124.8680   59.8170 C   0  0  0  0  0  0  0  0  0  0  0  0
  131.4530  125.4620   60.9070 N   0  0  0  0  0  0  0  0  0  0  0  0
  132.1830  125.1610   62.0170 C   0  0  0  0  0  0  0  0  0  0  0  0
  133.2660  124.2980   62.0800 C   0  0  0  0  0  0  0  0  0  0  0  0
  133.7440  124.2470   63.3110 N   0  0  0  0  0  0  0  0  0  0  0  0
  132.9660  125.0930   64.0950 N   0  0  0  0  0  0  0  0  0  0  0  0
  132.0200  125.6200   63.2980 N   0  0  0  0  0  0  0  0  0  0  0  0
  131.0480  126.5730   63.8190 C   0  0  0  0  0  0  0  0  0  0  0  0
  130.5140  126.2010   65.1940 C   0  0  0  0  0  0  0  0  0  0  0  0
  130.0190  124.9140   65.4290 C   0  0  0  0  0  0  0  0  0  0  0  0
  129.5190  124.5730   66.6870 C   0  0  0  0  0  0  0  0  0  0  0  0
  129.5160  125.5150   67.7150 C   0  0  0  0  0  0  0  0  0  0  0  0
  130.0130  126.7980   67.4880 C   0  0  0  0  0  0  0  0  0  0  0  0
  130.0050  127.9640   68.7600 Cl  0  0  0  0  0  0  0  0  0  0  0  0
  130.5140  127.1400   66.2320 C   0  0  0  0  0  0  0  0  0  0  0  0
  133.7020  123.6100   60.8650 C   0  0  0  0  0  0  0  0  0  0  0  0
  134.6280  122.8140   60.7250 O   0  0  0  0  0  0  0  0  0  0  0  0
  132.8980  123.9800   59.8080 N   0  0  0  0  0  0  0  0  0  0  0  0
  132.0740  125.3830   57.3130 C   0  0  0  0  0  0  0  0  0  0  0  0
  131.5190  126.2200   56.1340 C   0  0  0  0  0  0  0  0  0  0  0  0
  129.8097  129.1990   58.2879 H   0  0  0  0  0  0  0  0  0  0  0  0
  130.2803  132.4149   57.9525 H   0  0  0  0  0  0  0  0  0  0  0  0
  129.2160  133.9349   56.2894 H   0  0  0  0  0  0  0  0  0  0  0  0
  128.3316  133.0106   54.1533 H   0  0  0  0  0  0  0  0  0  0  0  0
  128.5098  130.5772   53.6647 H   0  0  0  0  0  0  0  0  0  0  0  0
  129.5738  129.0534   55.3212 H   0  0  0  0  0  0  0  0  0  0  0  0
  129.9213  130.5076   60.2843 H   0  0  0  0  0  0  0  0  0  0  0  0
  131.3424  131.6659   61.9718 H   0  0  0  0  0  0  0  0  0  0  0  0
  133.7301  132.1505   61.4587 H   0  0  0  0  0  0  0  0  0  0  0  0
  134.7036  131.4979   59.2636 H   0  0  0  0  0  0  0  0  0  0  0  0
  133.2813  130.3632   57.5619 H   0  0  0  0  0  0  0  0  0  0  0  0
  128.8987  127.7721   57.5973 H   0  0  0  0  0  0  0  0  0  0  0  0
  128.9529  126.2514   56.6665 H   0  0  0  0  0  0  0  0  0  0  0  0
  130.1764  126.8785   59.4002 H   0  0  0  0  0  0  0  0  0  0  0  0
  129.0222  125.5318   58.8959 H   0  0  0  0  0  0  0  0  0  0  0  0
  130.5774  124.1937   58.2221 H   0  0  0  0  0  0  0  0  0  0  0  0
  131.5292  127.5598   63.8872 H   0  0  0  0  0  0  0  0  0  0  0  0
  130.1922  126.5745   63.1279 H   0  0  0  0  0  0  0  0  0  0  0  0
  130.0237  124.1685   64.6202 H   0  0  0  0  0  0  0  0  0  0  0  0
  129.1273  123.5610   66.8673 H   0  0  0  0  0  0  0  0  0  0  0  0
  129.1213  125.2459   68.7058 H   0  0  0  0  0  0  0  0  0  0  0  0
  130.9104  128.1510   66.0566 H   0  0  0  0  0  0  0  0  0  0  0  0
  133.1340  123.5500   58.9260 H   0  0  0  0  0  0  0  0  0  0  0  0
  132.9530  125.9090   57.7139 H   0  0  0  0  0  0  0  0  0  0  0  0
  132.2940  124.3906   56.8925 H   0  0  0  0  0  0  0  0  0  0  0  0
  132.3486  126.5957   55.5171 H   0  0  0  0  0  0  0  0  0  0  0  0
  130.8673  125.6051   55.4960 H   0  0  0  0  0  0  0  0  0  0  0  0
  1  2  2  0
  2  3  1  0
  3  4  1  0
  4  5  2  0
  5  6  1  0
  6  7  2  0
  7  8  1  0
  8  9  2  0
  3 10  1  0
 10 11  2  0
 11 12  1  0
 12 13  2  0
 13 14  1  0
 14 15  2  0
  2 16  1  0
 16 17  1  0
 17 18  1  0
 18 19  1  0
 19 20  1  0
 20 21  2  0
 21 22  1  0
 22 23  2  0
 23 24  1  0
 24 25  2  0
 25 26  1  0
 26 27  1  0
 27 28  1  0
 28 29  2  0
 29 30  1  0
 30 31  2  0
 31 32  1  0
 32 33  1  0
 32 34  2  0
 23 35  1  0
 35 36  2  0
 35 37  1  0
 19 38  1  0
 38 39  1  0
  9  4  1  0
 15 10  1  0
 39 16  1  0
 37 20  1  0
 26 22  1  0
 34 28  1  0
  3 40  1  0
  5 41  1  0
  6 42  1  0
  7 43  1  0
  8 44  1  0
  9 45  1  0
 11 46  1  0
 12 47  1  0
 13 48  1  0
 14 49  1  0
 15 50  1  0
 17 51  1  0
 17 52  1  0
 18 53  1  0
 18 54  1  0
 19 55  1  0
 27 56  1  0
 27 57  1  0
 29 58  1  0
 30 59  1  0
 31 60  1  0
 34 61  1  0
 37 62  1  0
 38 63  1  0
 38 64  1  0
 39 65  1  0
 39 66  1  0
M  END
>  <Binding energies>  (1) 
[-11.58]

>  <Ligand effiencies>  (1) 
[-0.2895]

>  <Interactions>  (1) 
["V-B:TYR:539:CE2:9845, V-B:TYR:539:CZ:9846, V-A:TYR:484:CZ:4343, V-B:GLU:543:CD:9877, V-A:TYR:484:CE1:4341, V-B:GLU:543:CG:9876, V-A:ARG:545:CZ:4923, V-A:GLU:543:CD:4905, V-A:ASP:366:CB:3208, V-A:HIS:456:CE1:4066, H-A:ARG:545:NH2:4925, H-B:TYR:539:OH:9847, V-A:ASP:366:CG:3209, V-B:GLU:543:CB:9875, H-A:GLY:454:N:4046, H-A:TYR:531:OH:4792, V-A:PRO:540:CB:4882, V-A:TYR:539:CE1:4872, V-A:TYR:539:C:4864, V-A:PRO:540:CA:4880, V-A:PRO:540:N:4881, V-A:ILE:538:CA:4857, V-A:ILE:538:CD1:4862, V-A:TYR:539:CZ:4874, V-A:LEU:363:CA:3181, V-A:TYR:539:CD2:4871, V-A:LEU:363:CB:3183, V-A:TYR:539:CE2:4873, V-A:TYR:539:CG:4869, V-A:ASN:362:CB:3172, V-A:GLU:543:CB:4903, V-A:GLU:543:C:4899, V-A:ASN:362:C:3168, V-A:TYR:539:CA:4866, V-B:GLU:543:CA:9873"]

$$$$
RR28_Rahimova_2017
     RDKit          3D

 82 85  0  0  0  0  0  0  0  0999 V2000
  131.0590  127.9980   68.2650 C   0  0  0  0  0  0  0  0  0  0  0  0
  130.1380  127.2340   67.3210 C   0  0  0  0  0  0  0  0  0  0  0  0
  129.1500  126.6560   67.7720 O   0  0  0  0  0  0  0  0  0  0  0  0
  130.4790  127.2430   66.0160 N   0  0  0  0  0  0  0  0  0  0  0  0
  129.7850  126.5880   64.8840 C   0  0  0  0  0  0  0  0  0  0  0  0
  128.6860  127.5560   64.3610 C   0  0  0  0  0  0  0  0  0  0  0  0
  128.3590  127.5540   62.9960 C   0  0  0  0  0  0  0  0  0  0  0  0
  127.3840  128.4090   62.4930 C   0  0  0  0  0  0  0  0  0  0  0  0
  126.7130  129.2890   63.3430 C   0  0  0  0  0  0  0  0  0  0  0  0
  125.6480  130.2250   62.7710 C   0  0  0  0  0  0  0  0  0  0  0  0
  125.6840  130.2780   61.4380 F   0  0  0  0  0  0  0  0  0  0  0  0
  124.4320  129.8190   63.1340 F   0  0  0  0  0  0  0  0  0  0  0  0
  125.8480  131.4560   63.2430 F   0  0  0  0  0  0  0  0  0  0  0  0
  127.0300  129.3030   64.7040 C   0  0  0  0  0  0  0  0  0  0  0  0
  128.0060  128.4460   65.2070 C   0  0  0  0  0  0  0  0  0  0  0  0
  129.2350  125.1810   65.3150 C   0  0  0  0  0  0  0  0  0  0  0  0
  130.3530  124.1630   65.6540 C   0  0  0  0  0  0  0  0  0  0  0  0
  131.1830  124.0380   64.4450 N   0  0  0  0  0  0  0  0  0  0  0  0
  130.9320  123.0550   63.5370 C   0  0  0  0  0  0  0  0  0  0  0  0
  130.1310  122.1460   63.7620 O   0  0  0  0  0  0  0  0  0  0  0  0
  131.7950  122.9840   62.2540 C   0  0  0  0  0  0  0  0  0  0  0  0
  131.2710  122.0440   61.1340 C   0  0  0  0  0  0  0  0  0  0  0  0
  129.7400  122.0780   60.9130 C   0  0  0  0  0  0  0  0  0  0  0  0
  129.1130  121.0240   61.0510 O   0  0  0  0  0  0  0  0  0  0  0  0
  129.1120  123.2700   60.7110 N   0  0  0  0  0  0  0  0  0  0  0  0
  129.8010  124.4750   60.2330 C   0  0  0  0  0  0  0  0  0  0  0  0
  129.8240  124.3870   58.6910 C   0  0  0  0  0  0  0  0  0  0  0  0
  128.4130  124.2390   58.0220 C   0  0  0  0  0  0  0  0  0  0  0  0
  128.5830  123.7690   56.6300 N   0  0  0  0  0  0  0  0  0  0  0  0
  127.9860  122.7220   56.0280 C   0  0  0  0  0  0  0  0  0  0  0  0
  128.3760  122.4650   54.5750 C   0  0  0  0  0  0  0  0  0  0  0  0
  127.1680  121.9850   56.5770 O   0  0  0  0  0  0  0  0  0  0  0  0
  127.7710  125.6630   57.9620 C   0  0  0  0  0  0  0  0  0  0  0  0
  126.6720  126.0370   58.7540 C   0  0  0  0  0  0  0  0  0  0  0  0
  126.1310  127.3170   58.6720 C   0  0  0  0  0  0  0  0  0  0  0  0
  126.6730  128.2570   57.7920 C   0  0  0  0  0  0  0  0  0  0  0  0
  126.0930  129.6670   57.6930 C   0  0  0  0  0  0  0  0  0  0  0  0
  126.5170  130.4220   58.7080 F   0  0  0  0  0  0  0  0  0  0  0  0
  126.4920  130.2250   56.5510 F   0  0  0  0  0  0  0  0  0  0  0  0
  124.7580  129.6640   57.7130 F   0  0  0  0  0  0  0  0  0  0  0  0
  127.7600  127.8980   56.9930 C   0  0  0  0  0  0  0  0  0  0  0  0
  128.2980  126.6190   57.0780 C   0  0  0  0  0  0  0  0  0  0  0  0
  127.5560  123.2060   58.8510 C   0  0  0  0  0  0  0  0  0  0  0  0
  127.6780  123.3040   60.3960 C   0  0  0  0  0  0  0  0  0  0  0  0
  131.8960  125.2760   64.0970 C   0  0  0  0  0  0  0  0  0  0  0  0
  130.8200  126.3340   63.7390 C   0  0  0  0  0  0  0  0  0  0  0  0
  130.7862  127.7717   69.3063 H   0  0  0  0  0  0  0  0  0  0  0  0
  132.1012  127.6956   68.0850 H   0  0  0  0  0  0  0  0  0  0  0  0
  130.9543  129.0781   68.0850 H   0  0  0  0  0  0  0  0  0  0  0  0
  131.3240  127.7340   65.7660 H   0  0  0  0  0  0  0  0  0  0  0  0
  128.8812  126.8665   62.3144 H   0  0  0  0  0  0  0  0  0  0  0  0
  127.1408  128.3914   61.4204 H   0  0  0  0  0  0  0  0  0  0  0  0
  126.5064  129.9939   65.3811 H   0  0  0  0  0  0  0  0  0  0  0  0
  128.2468  128.4669   66.2801 H   0  0  0  0  0  0  0  0  0  0  0  0
  128.6005  125.3116   66.2040 H   0  0  0  0  0  0  0  0  0  0  0  0
  128.6733  124.7753   64.4607 H   0  0  0  0  0  0  0  0  0  0  0  0
  130.9593  124.5301   66.4952 H   0  0  0  0  0  0  0  0  0  0  0  0
  129.9307  123.1912   65.9495 H   0  0  0  0  0  0  0  0  0  0  0  0
  131.8628  123.9996   61.8370 H   0  0  0  0  0  0  0  0  0  0  0  0
  132.7610  122.5620   62.5685 H   0  0  0  0  0  0  0  0  0  0  0  0
  131.7581  122.3327   60.1909 H   0  0  0  0  0  0  0  0  0  0  0  0
  131.5119  121.0199   61.4553 H   0  0  0  0  0  0  0  0  0  0  0  0
  129.2572  125.3757   60.5538 H   0  0  0  0  0  0  0  0  0  0  0  0
  130.8201  124.5383   60.6422 H   0  0  0  0  0  0  0  0  0  0  0  0
  130.2931  125.3030   58.3025 H   0  0  0  0  0  0  0  0  0  0  0  0
  130.3841  123.4741   58.4402 H   0  0  0  0  0  0  0  0  0  0  0  0
  129.2620  124.2840   56.0890 H   0  0  0  0  0  0  0  0  0  0  0  0
  129.2941  121.8600   54.5433 H   0  0  0  0  0  0  0  0  0  0  0  0
  127.5633  121.9249   54.0672 H   0  0  0  0  0  0  0  0  0  0  0  0
  128.5517  123.4248   54.0672 H   0  0  0  0  0  0  0  0  0  0  0  0
  126.2324  125.3069   59.4495 H   0  0  0  0  0  0  0  0  0  0  0  0
  125.2724  127.5897   59.3033 H   0  0  0  0  0  0  0  0  0  0  0  0
  128.1921  128.6293   56.2941 H   0  0  0  0  0  0  0  0  0  0  0  0
  129.1532  126.3503   56.4405 H   0  0  0  0  0  0  0  0  0  0  0  0
  126.4990  123.3571   58.5867 H   0  0  0  0  0  0  0  0  0  0  0  0
  127.9495  122.2138   58.5851 H   0  0  0  0  0  0  0  0  0  0  0  0
  127.2342  124.2454   60.7520 H   0  0  0  0  0  0  0  0  0  0  0  0
  127.1460  122.4760   60.8874 H   0  0  0  0  0  0  0  0  0  0  0  0
  132.4944  125.6206   64.9532 H   0  0  0  0  0  0  0  0  0  0  0  0
  132.5801  125.1105   63.2517 H   0  0  0  0  0  0  0  0  0  0  0  0
  131.3277  127.2832   63.5125 H   0  0  0  0  0  0  0  0  0  0  0  0
  130.2582  125.9435   62.8776 H   0  0  0  0  0  0  0  0  0  0  0  0
  1  2  1  0
  2  3  2  0
  2  4  1  0
  4  5  1  0
  5  6  1  0
  6  7  2  0
  7  8  1  0
  8  9  2  0
  9 10  1  0
 10 11  1  0
 10 12  1  0
 10 13  1  0
  9 14  1  0
 14 15  2  0
  5 16  1  0
 16 17  1  0
 17 18  1  0
 18 19  1  0
 19 20  2  0
 19 21  1  0
 21 22  1  0
 22 23  1  0
 23 24  2  0
 23 25  1  0
 25 26  1  0
 26 27  1  0
 27 28  1  0
 28 29  1  0
 29 30  1  0
 30 31  1  0
 30 32  2  0
 28 33  1  0
 33 34  2  0
 34 35  1  0
 35 36  2  0
 36 37  1  0
 37 38  1  0
 37 39  1  0
 37 40  1  0
 36 41  1  0
 41 42  2  0
 28 43  1  0
 43 44  1  0
 18 45  1  0
 45 46  1  0
 46  5  1  0
 15  6  1  0
 44 25  1  0
 42 33  1  0
  1 47  1  0
  1 48  1  0
  1 49  1  0
  4 50  1  0
  7 51  1  0
  8 52  1  0
 14 53  1  0
 15 54  1  0
 16 55  1  0
 16 56  1  0
 17 57  1  0
 17 58  1  0
 21 59  1  0
 21 60  1  0
 22 61  1  0
 22 62  1  0
 26 63  1  0
 26 64  1  0
 27 65  1  0
 27 66  1  0
 29 67  1  0
 31 68  1  0
 31 69  1  0
 31 70  1  0
 34 71  1  0
 35 72  1  0
 41 73  1  0
 42 74  1  0
 43 75  1  0
 43 76  1  0
 44 77  1  0
 44 78  1  0
 45 79  1  0
 45 80  1  0
 46 81  1  0
 46 82  1  0
M  END
>  <Binding energies>  (1) 
[-8.64]

>  <Ligand effiencies>  (1) 
[-0.18000000000000002]

>  <Interactions>  (1) 
["V-B:TYR:539:CE2:9845, V-B:TYR:539:CZ:9846, V-A:TYR:484:CZ:4343, V-B:PRO:540:CA:9852, H-B:TYR:539:N:9839, V-B:TYR:539:CD1:9842, V-B:ILE:538:CA:9829, V-B:ALA:541:CB:9861, V-B:ILE:538:CG2:9832, V-B:TYR:539:CE1:9844, V-B:GLU:543:CD:9877, V-A:TYR:484:CE1:4341, V-B:ILE:538:CB:9831, V-B:GLU:543:CG:9876, V-B:MET:535:CE:9804, V-A:ARG:545:CZ:4923, V-A:GLU:543:CD:4905, V-A:HIS:456:CE1:4066, V-B:GLU:543:CB:9875, V-B:ASP:366:CB:8180, V-B:TYR:531:CZ:9763, V-B:TYR:539:CD2:9843, V-B:ASP:366:CG:8181, H-A:GLU:543:OE1:4906, V-A:GLU:543:CB:4903, V-A:GLU:543:C:4899, V-B:ARG:545:CZ:9895, V-A:ARG:545:CG:4919, H-A:GLU:543:OE2:4907, V-B:ASP:366:CA:8178"]

$$$$
RR29_Rahimova_2017
     RDKit          3D

 35 36  0  0  0  0  0  0  0  0999 V2000
  130.9420  122.8620   62.8170 C   0  0  0  0  0  0  0  0  0  0  0  0
  130.9470  124.1860   62.0660 C   0  0  0  0  0  0  0  0  0  0  0  0
  130.2160  124.1110   60.7070 C   0  0  0  0  0  0  0  0  0  0  0  0
  129.4720  122.7710   60.5320 C   0  0  0  0  0  0  0  0  0  0  0  0
  128.2830  122.8890   59.5920 C   0  0  0  0  0  0  0  0  0  0  0  0
  127.1250  123.5780   60.0040 C   0  0  0  0  0  0  0  0  0  0  0  0
  126.0180  123.7000   59.1530 C   0  0  0  0  0  0  0  0  0  0  0  0
  126.1040  123.1080   57.8980 C   0  0  0  0  0  0  0  0  0  0  0  0
  127.2240  122.4370   57.4930 C   0  0  0  0  0  0  0  0  0  0  0  0
  128.3400  122.3090   58.3120 C   0  0  0  0  0  0  0  0  0  0  0  0
  127.0470  121.9940   56.2200 O   0  0  0  0  0  0  0  0  0  0  0  0
  125.6960  122.2270   55.9220 C   0  0  0  0  0  0  0  0  0  0  0  0
  125.1910  123.1070   56.8910 O   0  0  0  0  0  0  0  0  0  0  0  0
  131.5370  125.1910   62.5990 N   0  0  0  0  0  0  0  0  0  0  0  0
  131.6160  126.3660   61.8850 N   0  0  0  0  0  0  0  0  0  0  0  0
  130.8230  127.4300   62.0960 C   0  0  0  0  0  0  0  0  0  0  0  0
  129.8730  127.4980   63.0290 N   0  0  0  0  0  0  0  0  0  0  0  0
  130.9960  128.4910   61.3210 N   0  0  0  0  0  0  0  0  0  0  0  0
  130.9427  123.0547   63.9000 H   0  0  0  0  0  0  0  0  0  0  0  0
  130.0417  122.2906   62.5469 H   0  0  0  0  0  0  0  0  0  0  0  0
  131.8380  122.2838   62.5469 H   0  0  0  0  0  0  0  0  0  0  0  0
  129.4878  124.9333   60.6482 H   0  0  0  0  0  0  0  0  0  0  0  0
  130.9681  124.1923   59.9084 H   0  0  0  0  0  0  0  0  0  0  0  0
  130.1730  122.0280   60.1240 H   0  0  0  0  0  0  0  0  0  0  0  0
  129.0920  122.4661   61.5182 H   0  0  0  0  0  0  0  0  0  0  0  0
  127.0893  124.0265   61.0078 H   0  0  0  0  0  0  0  0  0  0  0  0
  125.1147  124.2439   59.4664 H   0  0  0  0  0  0  0  0  0  0  0  0
  129.2373  121.7722   57.9705 H   0  0  0  0  0  0  0  0  0  0  0  0
  125.6051  122.6779   54.9228 H   0  0  0  0  0  0  0  0  0  0  0  0
  125.1318  121.2827   55.9278 H   0  0  0  0  0  0  0  0  0  0  0  0
  132.3010  126.4000   61.1430 H   0  0  0  0  0  0  0  0  0  0  0  0
  129.5360  128.3960   63.3450 H   0  0  0  0  0  0  0  0  0  0  0  0
  129.5020  126.6460   63.4230 H   0  0  0  0  0  0  0  0  0  0  0  0
  131.4510  128.3940   60.4250 H   0  0  0  0  0  0  0  0  0  0  0  0
  130.6670  129.3950   61.6270 H   0  0  0  0  0  0  0  0  0  0  0  0
  1  2  1  0
  2  3  1  0
  3  4  1  0
  4  5  1  0
  5  6  2  0
  6  7  1  0
  7  8  2  0
  8  9  1  0
  9 10  2  0
  9 11  1  0
 11 12  1  0
 12 13  1  0
  2 14  2  0
 14 15  1  0
 15 16  1  0
 16 17  1  0
 16 18  2  0
 10  5  1  0
 13  8  1  0
  1 19  1  0
  1 20  1  0
  1 21  1  0
  3 22  1  0
  3 23  1  0
  4 24  1  0
  4 25  1  0
  6 26  1  0
  7 27  1  0
 10 28  1  0
 12 29  1  0
 12 30  1  0
 15 31  1  0
 17 32  1  0
 17 33  1  0
 18 34  1  0
 18 35  1  0
M  CHG  1  18   1
M  END
>  <Binding energies>  (1) 
[-7.36]

>  <Ligand effiencies>  (1) 
[-0.32]

>  <Interactions>  (1) 
["V-B:TYR:539:CE2:9845, V-B:PRO:540:N:9853, V-B:PRO:540:CB:9854, V-B:TYR:539:CZ:9846, V-B:PRO:540:CA:9852, H-B:TYR:539:N:9839, V-B:TYR:539:CD1:9842, V-B:ILE:538:CA:9829, V-B:TYR:539:C:9836, V-B:LEU:363:CD1:8157, V-B:ILE:538:CG2:9832, V-B:TYR:539:CE1:9844, V-B:ILE:538:CB:9831, V-A:ARG:545:CZ:4923, V-A:GLU:543:CD:4905, V-A:ASP:366:CG:3209, V-B:PRO:540:CD:9856, V-B:TYR:539:CG:9841, V-B:TYR:539:CD2:9843, H-A:GLU:543:OE1:4906, H-A:GLU:543:OE2:4907, H-A:ASP:366:OD1:3210, H-A:ASP:366:OD2:3211"]

$$$$
RR29_Rahimova_2017-again1
     RDKit          3D

 34 35  0  0  0  0  0  0  0  0999 V2000
  133.5130  129.9570   56.6870 C   0  0  0  0  0  0  0  0  0  0  0  0
  133.1560  130.8930   57.8320 C   0  0  0  0  0  0  0  0  0  0  0  0
  132.1850  132.0180   57.4250 C   0  0  0  0  0  0  0  0  0  0  0  0
  131.6660  131.8240   55.9840 C   0  0  0  0  0  0  0  0  0  0  0  0
  130.1640  131.5870   55.9390 C   0  0  0  0  0  0  0  0  0  0  0  0
  129.4200  131.5660   57.1350 C   0  0  0  0  0  0  0  0  0  0  0  0
  128.0350  131.3510   57.1170 C   0  0  0  0  0  0  0  0  0  0  0  0
  127.4310  131.1520   55.8810 C   0  0  0  0  0  0  0  0  0  0  0  0
  128.1480  131.1690   54.7180 C   0  0  0  0  0  0  0  0  0  0  0  0
  129.5210  131.3900   54.7050 C   0  0  0  0  0  0  0  0  0  0  0  0
  127.3060  130.9820   53.6680 O   0  0  0  0  0  0  0  0  0  0  0  0
  126.0710  130.6310   54.2320 C   0  0  0  0  0  0  0  0  0  0  0  0
  126.1170  130.9530   55.5960 O   0  0  0  0  0  0  0  0  0  0  0  0
  133.6790  130.6950   58.9900 N   0  0  0  0  0  0  0  0  0  0  0  0
  133.3710  131.5310   59.9300 N   0  0  0  0  0  0  0  0  0  0  0  0
  132.5380  131.1350   60.8210 C   0  0  0  0  0  0  0  0  0  0  0  0
  131.8890  129.8720   60.9160 N   0  0  0  0  0  0  0  0  0  0  0  0
  132.1500  131.9770   61.8850 N   0  0  0  0  0  0  0  0  0  0  0  0
  133.8772  129.0021   57.0939 H   0  0  0  0  0  0  0  0  0  0  0  0
  132.6208  129.7760   56.0696 H   0  0  0  0  0  0  0  0  0  0  0  0
  134.2991  130.4161   56.0696 H   0  0  0  0  0  0  0  0  0  0  0  0
  131.3292  132.0188   58.1160 H   0  0  0  0  0  0  0  0  0  0  0  0
  132.7264  132.9744   57.4709 H   0  0  0  0  0  0  0  0  0  0  0  0
  131.8996  132.7260   55.3993 H   0  0  0  0  0  0  0  0  0  0  0  0
  132.1599  130.9349   55.5650 H   0  0  0  0  0  0  0  0  0  0  0  0
  129.9328  131.7204   58.0959 H   0  0  0  0  0  0  0  0  0  0  0  0
  127.4476  131.3402   58.0470 H   0  0  0  0  0  0  0  0  0  0  0  0
  130.0847  131.4099   53.7606 H   0  0  0  0  0  0  0  0  0  0  0  0
  125.2623  131.1928   53.7417 H   0  0  0  0  0  0  0  0  0  0  0  0
  125.8776  129.5566   54.0966 H   0  0  0  0  0  0  0  0  0  0  0  0
  132.0400  129.1400   60.2360 H   0  0  0  0  0  0  0  0  0  0  0  0
  131.2410  129.6490   61.6560 H   0  0  0  0  0  0  0  0  0  0  0  0
  132.5050  132.9170   61.9830 H   0  0  0  0  0  0  0  0  0  0  0  0
  131.4930  131.6870   62.5940 H   0  0  0  0  0  0  0  0  0  0  0  0
  1  2  1  0
  2  3  1  0
  3  4  1  0
  4  5  1  0
  5  6  2  0
  6  7  1  0
  7  8  2  0
  8  9  1  0
  9 10  2  0
  9 11  1  0
 11 12  1  0
 12 13  1  0
  2 14  2  0
 14 15  1  0
 15 16  2  0
 16 17  1  0
 16 18  1  0
 10  5  1  0
 13  8  1  0
  1 19  1  0
  1 20  1  0
  1 21  1  0
  3 22  1  0
  3 23  1  0
  4 24  1  0
  4 25  1  0
  6 26  1  0
  7 27  1  0
 10 28  1  0
 12 29  1  0
 12 30  1  0
 17 31  1  0
 17 32  1  0
 18 33  1  0
 18 34  1  0
M  END
>  <Binding energies>  (1) 
[-6.92]

>  <Ligand effiencies>  (1) 
[-0.3145454545454545]

>  <Interactions>  (1) 
["V-A:GLU:543:CD:4905, V-A:ASP:366:CB:3208, V-A:ASP:366:CG:3209, V-A:GLU:543:CG:4904, H-B:TYR:531:OH:9764, H-A:TYR:539:OH:4875, V-A:PRO:540:CB:4882, V-A:PRO:540:CA:4880, V-A:LEU:363:CD1:3185, V-A:PRO:540:N:4881, H-B:LYS:534:NZ:9792, V-A:TYR:531:CZ:4791, V-A:ILE:538:CG2:4860, V-A:ILE:538:CD1:4862, V-A:TYR:531:CE2:4790, V-A:TYR:539:CZ:4874, V-A:LEU:363:CA:3181, V-A:TYR:539:CE2:4873, V-B:TYR:531:CE1:9761, V-A:ASN:362:CB:3172, V-A:PRO:540:C:4878, H-A:GLU:543:OE1:4906, H-A:GLU:543:OE2:4907, H-A:ASP:366:OD1:3210, V-A:PRO:540:CD:4884, V-A:ALA:541:CA:4887, V-A:ALA:541:C:4885, H-A:LEU:363:N:3182, V-A:PRO:540:CG:4883, H-A:ALA:541:O:4886"]

$$$$
RR2_Rahimova_2017
     RDKit          3D

 76 80  0  0  0  0  0  0  0  0999 V2000
  124.5140  129.5760   65.4690 C   0  0  0  0  0  0  0  0  0  0  0  0
  123.9310  130.3960   64.4630 O   0  0  0  0  0  0  0  0  0  0  0  0
  124.7390  130.9270   63.4740 C   0  0  0  0  0  0  0  0  0  0  0  0
  124.3440  131.1040   62.1410 C   0  0  0  0  0  0  0  0  0  0  0  0
  125.2290  131.6440   61.2120 C   0  0  0  0  0  0  0  0  0  0  0  0
  126.5260  132.0150   61.5900 C   0  0  0  0  0  0  0  0  0  0  0  0
  127.4730  132.5950   60.5570 C   0  0  0  0  0  0  0  0  0  0  0  0
  128.1200  133.6180   60.8090 O   0  0  0  0  0  0  0  0  0  0  0  0
  127.5380  131.9320   59.3780 N   0  0  0  0  0  0  0  0  0  0  0  0
  128.3200  132.4730   58.3630 N   0  0  0  0  0  0  0  0  0  0  0  0
  128.0500  132.1160   57.0920 C   0  0  0  0  0  0  0  0  0  0  0  0
  127.2810  131.2090   56.7620 O   0  0  0  0  0  0  0  0  0  0  0  0
  128.7590  132.9400   56.0090 C   0  0  0  0  0  0  0  0  0  0  0  0
  130.1370  132.0840   55.1610 S   0  0  0  0  0  0  0  0  0  0  0  0
  129.7440  130.3990   55.5210 C   0  0  0  0  0  0  0  0  0  0  0  0
  128.9400  129.6800   54.7790 N   0  0  0  0  0  0  0  0  0  0  0  0
  128.8030  128.4430   55.3910 N   0  0  0  0  0  0  0  0  0  0  0  0
  129.5540  128.4490   56.4660 C   0  0  0  0  0  0  0  0  0  0  0  0
  129.6820  127.2780   57.3860 C   0  0  0  0  0  0  0  0  0  0  0  0
  129.0750  127.3140   58.6440 C   0  0  0  0  0  0  0  0  0  0  0  0
  129.1960  126.2310   59.5110 C   0  0  0  0  0  0  0  0  0  0  0  0
  129.9120  125.0940   59.1190 C   0  0  0  0  0  0  0  0  0  0  0  0
  130.0750  123.9790   59.9550 N   0  0  0  0  0  0  0  0  0  0  0  0
  128.8060  122.7850   60.3090 S   0  0  0  0  0  0  0  0  0  0  0  0
  128.0560  123.3200   61.4520 O   0  0  0  0  0  0  0  0  0  0  0  0
  129.4330  121.4600   60.3740 O   0  0  0  0  0  0  0  0  0  0  0  0
  127.7040  122.8400   58.8980 C   0  0  0  0  0  0  0  0  0  0  0  0
  128.0950  122.3050   57.6680 C   0  0  0  0  0  0  0  0  0  0  0  0
  127.2300  122.3710   56.5800 C   0  0  0  0  0  0  0  0  0  0  0  0
  125.9740  122.9670   56.7210 C   0  0  0  0  0  0  0  0  0  0  0  0
  125.0380  123.0520   55.5290 C   0  0  0  0  0  0  0  0  0  0  0  0
  125.5880  123.5040   57.9510 C   0  0  0  0  0  0  0  0  0  0  0  0
  126.4520  123.4400   59.0400 C   0  0  0  0  0  0  0  0  0  0  0  0
  130.5150  125.0590   57.8620 C   0  0  0  0  0  0  0  0  0  0  0  0
  130.4000  126.1440   56.9970 C   0  0  0  0  0  0  0  0  0  0  0  0
  130.1830  129.6750   56.6140 N   0  0  0  0  0  0  0  0  0  0  0  0
  131.0340  130.1040   57.6530 C   0  0  0  0  0  0  0  0  0  0  0  0
  130.5060  130.3840   58.9140 C   0  0  0  0  0  0  0  0  0  0  0  0
  131.3520  130.8030   59.9370 C   0  0  0  0  0  0  0  0  0  0  0  0
  132.7220  130.9470   59.7120 C   0  0  0  0  0  0  0  0  0  0  0  0
  133.4800  131.3690   60.7870 O   0  0  0  0  0  0  0  0  0  0  0  0
  132.8250  131.7440   61.9960 C   0  0  0  0  0  0  0  0  0  0  0  0
  133.2440  130.6630   58.4400 C   0  0  0  0  0  0  0  0  0  0  0  0
  132.4030  130.2420   57.4140 C   0  0  0  0  0  0  0  0  0  0  0  0
  126.9130  131.8400   62.9280 C   0  0  0  0  0  0  0  0  0  0  0  0
  126.0250  131.3010   63.8560 C   0  0  0  0  0  0  0  0  0  0  0  0
  124.2393  129.9623   66.4616 H   0  0  0  0  0  0  0  0  0  0  0  0
  124.1447  128.5454   65.3616 H   0  0  0  0  0  0  0  0  0  0  0  0
  125.6087  129.5863   65.3616 H   0  0  0  0  0  0  0  0  0  0  0  0
  123.3300  130.8149   61.8274 H   0  0  0  0  0  0  0  0  0  0  0  0
  124.9063  131.7810   60.1694 H   0  0  0  0  0  0  0  0  0  0  0  0
  126.7420  131.4310   59.0100 H   0  0  0  0  0  0  0  0  0  0  0  0
  128.7500  133.3530   58.6160 H   0  0  0  0  0  0  0  0  0  0  0  0
  128.0131  133.2197   55.2505 H   0  0  0  0  0  0  0  0  0  0  0  0
  129.2049  133.8039   56.5237 H   0  0  0  0  0  0  0  0  0  0  0  0
  128.5000  128.2003   58.9504 H   0  0  0  0  0  0  0  0  0  0  0  0
  128.7280  126.2692   60.5058 H   0  0  0  0  0  0  0  0  0  0  0  0
  130.9850  123.8290   60.3650 H   0  0  0  0  0  0  0  0  0  0  0  0
  129.0829  121.8334   57.5601 H   0  0  0  0  0  0  0  0  0  0  0  0
  127.5350  121.9540   55.6089 H   0  0  0  0  0  0  0  0  0  0  0  0
  124.0009  123.1462   55.8832 H   0  0  0  0  0  0  0  0  0  0  0  0
  125.2987  123.9302   54.9200 H   0  0  0  0  0  0  0  0  0  0  0  0
  125.1362  122.1412   54.9200 H   0  0  0  0  0  0  0  0  0  0  0  0
  124.6010  123.9775   58.0590 H   0  0  0  0  0  0  0  0  0  0  0  0
  126.1490  123.8611   60.0100 H   0  0  0  0  0  0  0  0  0  0  0  0
  131.0841  124.1700   57.5524 H   0  0  0  0  0  0  0  0  0  0  0  0
  130.8752  126.1085   56.0056 H   0  0  0  0  0  0  0  0  0  0  0  0
  129.4272  130.2742   59.0986 H   0  0  0  0  0  0  0  0  0  0  0  0
  130.9371  131.0226   60.9318 H   0  0  0  0  0  0  0  0  0  0  0  0
  133.4200  131.4034   62.8562 H   0  0  0  0  0  0  0  0  0  0  0  0
  132.7210  132.8385   62.0324 H   0  0  0  0  0  0  0  0  0  0  0  0
  131.8285  131.2796   62.0324 H   0  0  0  0  0  0  0  0  0  0  0  0
  134.3224  130.7737   58.2534 H   0  0  0  0  0  0  0  0  0  0  0  0
  132.8150  130.0188   56.4188 H   0  0  0  0  0  0  0  0  0  0  0  0
  127.9251  132.1307   63.2460 H   0  0  0  0  0  0  0  0  0  0  0  0
  126.3426  131.1694   64.9009 H   0  0  0  0  0  0  0  0  0  0  0  0
  1  2  1  0
  2  3  1  0
  3  4  2  0
  4  5  1  0
  5  6  2  0
  6  7  1  0
  7  8  2  0
  7  9  1  0
  9 10  1  0
 10 11  1  0
 11 12  2  0
 11 13  1  0
 13 14  1  0
 14 15  1  0
 15 16  2  0
 16 17  1  0
 17 18  2  0
 18 19  1  0
 19 20  2  0
 20 21  1  0
 21 22  2  0
 22 23  1  0
 23 24  1  0
 24 25  2  0
 24 26  2  0
 24 27  1  0
 27 28  2  0
 28 29  1  0
 29 30  2  0
 30 31  1  0
 30 32  1  0
 32 33  2  0
 22 34  1  0
 34 35  2  0
 18 36  1  0
 36 37  1  0
 37 38  2  0
 38 39  1  0
 39 40  2  0
 40 41  1  0
 41 42  1  0
 40 43  1  0
 43 44  2  0
  6 45  1  0
 45 46  2  0
 46  3  1  0
 36 15  1  0
 44 37  1  0
 35 19  1  0
 33 27  1  0
  1 47  1  0
  1 48  1  0
  1 49  1  0
  4 50  1  0
  5 51  1  0
  9 52  1  0
 10 53  1  0
 13 54  1  0
 13 55  1  0
 20 56  1  0
 21 57  1  0
 23 58  1  0
 28 59  1  0
 29 60  1  0
 31 61  1  0
 31 62  1  0
 31 63  1  0
 32 64  1  0
 33 65  1  0
 34 66  1  0
 35 67  1  0
 38 68  1  0
 39 69  1  0
 42 70  1  0
 42 71  1  0
 42 72  1  0
 43 73  1  0
 44 74  1  0
 45 75  1  0
 46 76  1  0
M  END
>  <Binding energies>  (1) 
[-10.51]

>  <Ligand effiencies>  (1) 
[-0.21448979591836734]

>  <Interactions>  (1) 
["V-B:TYR:539:CE2:9845, V-B:PRO:540:N:9853, V-B:PRO:540:CB:9854, V-B:TYR:539:CZ:9846, V-B:PRO:540:CA:9852, V-B:TYR:539:CD1:9842, V-B:TYR:539:C:9836, V-B:LEU:363:CD1:8157, V-B:ILE:538:CG2:9832, V-B:TYR:539:CE1:9844, V-B:ILE:538:CB:9831, V-A:GLU:543:CD:4905, H-B:TYR:539:OH:9847, V-A:ASP:366:CG:3209, V-A:GLU:543:CG:4904, H-A:TYR:531:OH:4792, V-A:PRO:540:CB:4882, V-A:TYR:539:CE1:4872, V-A:TYR:539:C:4864, V-A:PRO:540:CA:4880, V-A:TYR:539:CD1:4870, V-A:TYR:539:CZ:4874, V-B:TYR:539:CG:9841, V-B:TYR:539:CD2:9843, V-A:LEU:363:CA:3181, V-A:TYR:539:CD2:4871, V-A:TYR:539:CE2:4873, V-A:TYR:539:CG:4869, H-A:ALA:541:N:4888, V-A:ASN:362:CB:3172, V-B:ASP:366:CG:8181, V-B:HIS:456:CE1:9038, V-B:ARG:545:CZ:9895, V-B:ARG:545:CD:9892, V-B:ILE:369:CD1:8207, H-A:TYR:539:O:4865, V-A:TYR:539:CA:4866, V-A:ALA:541:C:4885, H-A:LEU:363:N:3182, H-B:GLY:454:N:9018, V-A:ASN:362:CG:3173, H-B:TYR:484:OH:9316"]

$$$$
RR30_Rahimova_2017
     RDKit          3D

 29 30  0  0  0  0  0  0  0  0999 V2000
  129.8010  122.0790   61.6810 C   0  0  0  0  0  0  0  0  0  0  0  0
  128.9480  122.1240   60.4040 C   0  0  0  0  0  0  0  0  0  0  0  0
  127.7720  123.0680   60.5350 C   0  0  0  0  0  0  0  0  0  0  0  0
  127.7890  124.3740   60.6330 N   0  0  0  0  0  0  0  0  0  0  0  0
  126.4570  124.7660   60.7390 N   0  0  0  0  0  0  0  0  0  0  0  0
  125.7510  123.6640   60.7050 C   0  0  0  0  0  0  0  0  0  0  0  0
  123.9960  123.5070   60.7840 S   0  0  0  0  0  0  0  0  0  0  0  0
  123.5220  124.6120   59.4170 C   0  0  0  0  0  0  0  0  0  0  0  0
  124.4270  124.4400   58.1940 C   0  0  0  0  0  0  0  0  0  0  0  0
  124.4100  125.2970   57.3080 O   0  0  0  0  0  0  0  0  0  0  0  0
  125.1720  123.3130   58.1640 N   0  0  0  0  0  0  0  0  0  0  0  0
  126.0580  122.9370   57.1650 C   0  0  0  0  0  0  0  0  0  0  0  0
  126.1520  121.7780   56.5530 N   0  0  0  0  0  0  0  0  0  0  0  0
  127.1640  121.7640   55.6020 N   0  0  0  0  0  0  0  0  0  0  0  0
  127.8110  122.9030   55.5120 C   0  0  0  0  0  0  0  0  0  0  0  0
  128.9560  123.1310   54.5520 C   0  0  0  0  0  0  0  0  0  0  0  0
  127.2120  124.1120   56.6140 S   0  0  0  0  0  0  0  0  0  0  0  0
  126.5180  122.5510   60.5730 O   0  0  0  0  0  0  0  0  0  0  0  0
  129.1438  122.1137   62.5624 H   0  0  0  0  0  0  0  0  0  0  0  0
  130.3877  121.1487   61.6975 H   0  0  0  0  0  0  0  0  0  0  0  0
  130.4823  122.9425   61.6975 H   0  0  0  0  0  0  0  0  0  0  0  0
  129.5795  122.4586   59.5678 H   0  0  0  0  0  0  0  0  0  0  0  0
  128.5517  121.1133   60.2268 H   0  0  0  0  0  0  0  0  0  0  0  0
  122.4852  124.3892   59.1246 H   0  0  0  0  0  0  0  0  0  0  0  0
  123.6245  125.6488   59.7698 H   0  0  0  0  0  0  0  0  0  0  0  0
  125.0780  122.6690   58.9360 H   0  0  0  0  0  0  0  0  0  0  0  0
  129.8798  123.3149   55.1202 H   0  0  0  0  0  0  0  0  0  0  0  0
  129.0862  122.2411   53.9186 H   0  0  0  0  0  0  0  0  0  0  0  0
  128.7354  124.0028   53.9186 H   0  0  0  0  0  0  0  0  0  0  0  0
  1  2  1  0
  2  3  1  0
  3  4  2  0
  4  5  1  0
  5  6  2  0
  6  7  1  0
  7  8  1  0
  8  9  1  0
  9 10  2  0
  9 11  1  0
 11 12  1  0
 12 13  2  0
 13 14  1  0
 14 15  2  0
 15 16  1  0
 15 17  1  0
  6 18  1  0
 18  3  1  0
 17 12  1  0
  1 19  1  0
  1 20  1  0
  1 21  1  0
  2 22  1  0
  2 23  1  0
  8 24  1  0
  8 25  1  0
 11 26  1  0
 16 27  1  0
 16 28  1  0
 16 29  1  0
M  END
>  <Binding energies>  (1) 
[-6.75]

>  <Ligand effiencies>  (1) 
[-0.35526315789473684]

>  <Interactions>  (1) 
["V-B:TYR:539:CE2:9845, V-B:PRO:540:N:9853, V-B:PRO:540:CB:9854, H-B:ALA:541:N:9860, V-B:PRO:540:CA:9852, H-B:TYR:539:N:9839, V-B:TYR:539:CD1:9842, V-B:ILE:538:CA:9829, V-B:LEU:363:CD1:8157, V-B:ALA:541:CB:9861, V-B:TYR:539:CE1:9844, V-B:MET:535:CE:9804, V-B:LEU:363:CA:8153, H-B:TYR:531:OH:9764, V-B:PRO:540:CD:9856, V-B:ASP:366:CB:8180, V-B:TYR:539:CD2:9843, V-B:ASN:362:C:8140, V-B:ASP:366:CG:8181"]

$$$$
RR31_Rahimova_2017
     RDKit          3D

 44 45  0  0  0  0  0  0  0  0999 V2000
  127.8420  126.9440   72.0580 C   0  0  0  0  0  0  0  0  0  0  0  0
  128.3110  126.8420   70.6130 C   0  0  0  0  0  0  0  0  0  0  0  0
  127.4820  126.2350   69.6690 C   0  0  0  0  0  0  0  0  0  0  0  0
  127.8800  126.1290   68.3380 C   0  0  0  0  0  0  0  0  0  0  0  0
  129.1180  126.6350   67.9090 C   0  0  0  0  0  0  0  0  0  0  0  0
  129.5360  126.5270   66.5800 N   0  0  0  0  0  0  0  0  0  0  0  0
  129.1830  127.5390   65.5650 C   0  0  0  0  0  0  0  0  0  0  0  0
  129.3700  127.0600   64.1060 C   0  0  0  0  0  0  0  0  0  0  0  0
  130.7400  126.5950   63.8790 N   0  0  0  0  0  0  0  0  0  0  0  0
  130.9580  126.1670   62.4940 C   0  0  0  0  0  0  0  0  0  0  0  0
  129.7500  126.4520   61.5780 C   0  0  0  0  0  0  0  0  0  0  0  0
  129.9280  127.7420   60.7630 C   0  0  0  0  0  0  0  0  0  0  0  0
  130.8790  128.6970   61.4940 N   0  0  0  0  0  0  0  0  0  0  0  0
  130.9770  125.4710   64.7850 C   0  0  0  0  0  0  0  0  0  0  0  0
  130.8410  125.9160   66.2590 C   0  0  0  0  0  0  0  0  0  0  0  0
  129.9460  127.2350   68.8690 C   0  0  0  0  0  0  0  0  0  0  0  0
  129.5570  127.3460   70.2100 C   0  0  0  0  0  0  0  0  0  0  0  0
  130.5040  128.0060   71.2050 C   0  0  0  0  0  0  0  0  0  0  0  0
  128.6908  126.7594   72.7329 H   0  0  0  0  0  0  0  0  0  0  0  0
  127.4391  127.9508   72.2425 H   0  0  0  0  0  0  0  0  0  0  0  0
  127.0573  126.1955   72.2425 H   0  0  0  0  0  0  0  0  0  0  0  0
  126.5047  125.8363   69.9786 H   0  0  0  0  0  0  0  0  0  0  0  0
  127.2138  125.6411   67.6113 H   0  0  0  0  0  0  0  0  0  0  0  0
  128.1277  127.8160   65.7054 H   0  0  0  0  0  0  0  0  0  0  0  0
  129.8673  128.3878   65.7111 H   0  0  0  0  0  0  0  0  0  0  0  0
  128.6717  126.2339   63.9061 H   0  0  0  0  0  0  0  0  0  0  0  0
  129.1698  127.9050   63.4308 H   0  0  0  0  0  0  0  0  0  0  0  0
  131.8335  126.7008   62.0958 H   0  0  0  0  0  0  0  0  0  0  0  0
  131.1119  125.0779   62.5065 H   0  0  0  0  0  0  0  0  0  0  0  0
  129.6264  125.6085   60.8828 H   0  0  0  0  0  0  0  0  0  0  0  0
  128.8644  126.5779   62.2182 H   0  0  0  0  0  0  0  0  0  0  0  0
  130.3472  127.4947   59.7765 H   0  0  0  0  0  0  0  0  0  0  0  0
  128.9497  128.2299   60.6409 H   0  0  0  0  0  0  0  0  0  0  0  0
  130.9820  128.4140   62.4580 H   0  0  0  0  0  0  0  0  0  0  0  0
  130.5140  129.6380   61.4690 H   0  0  0  0  0  0  0  0  0  0  0  0
  131.7880  128.6890   61.0540 H   0  0  0  0  0  0  0  0  0  0  0  0
  130.2416  124.6796   64.5779 H   0  0  0  0  0  0  0  0  0  0  0  0
  131.9985  125.0965   64.6226 H   0  0  0  0  0  0  0  0  0  0  0  0
  130.9780  125.0337   66.9015 H   0  0  0  0  0  0  0  0  0  0  0  0
  131.6064  126.6868   66.4324 H   0  0  0  0  0  0  0  0  0  0  0  0
  130.9259  127.6285   68.5609 H   0  0  0  0  0  0  0  0  0  0  0  0
  130.1763  127.7776   72.2299 H   0  0  0  0  0  0  0  0  0  0  0  0
  131.5231  127.6215   71.0516 H   0  0  0  0  0  0  0  0  0  0  0  0
  130.4961  129.0952   71.0516 H   0  0  0  0  0  0  0  0  0  0  0  0
  1  2  1  0
  2  3  2  0
  3  4  1  0
  4  5  2  0
  5  6  1  0
  6  7  1  0
  7  8  1  0
  8  9  1  0
  9 10  1  0
 10 11  1  0
 11 12  1  0
 12 13  1  0
  9 14  1  0
 14 15  1  0
  5 16  1  0
 16 17  2  0
 17 18  1  0
 17  2  1  0
 15  6  1  0
  1 19  1  0
  1 20  1  0
  1 21  1  0
  3 22  1  0
  4 23  1  0
  7 24  1  0
  7 25  1  0
  8 26  1  0
  8 27  1  0
 10 28  1  0
 10 29  1  0
 11 30  1  0
 11 31  1  0
 12 32  1  0
 12 33  1  0
 13 34  1  0
 13 35  1  0
 13 36  1  0
 14 37  1  0
 14 38  1  0
 15 39  1  0
 15 40  1  0
 16 41  1  0
 18 42  1  0
 18 43  1  0
 18 44  1  0
M  CHG  1  13   1
M  END
>  <Binding energies>  (1) 
[-6.69]

>  <Ligand effiencies>  (1) 
[-0.3185714285714286]

>  <Interactions>  (1) 
["V-B:GLU:543:CD:9877, V-A:GLU:543:CD:4905, V-A:HIS:456:CE1:4066, H-A:ARG:545:NH2:4925, V-B:GLU:543:CB:9875, V-B:HIS:456:CD2:9036, H-A:GLU:543:OE1:4906, V-A:GLY:544:C:4909, V-B:LYS:547:CE:9919, V-B:HIS:456:CE1:9038, V-B:GLY:544:C:9881, H-A:GLU:543:OE2:4907, V-B:GLU:543:C:9871, H-A:ASP:366:OD1:3210, V-B:GLU:543:CA:9873"]

$$$$
RR32_Rahimova_2017
     RDKit          3D

 37 39  0  0  0  0  0  0  0  0999 V2000
  123.9870  124.0880   59.7140 C   0  0  0  0  0  0  0  0  0  0  0  0
  125.3710  123.5300   59.3980 C   0  0  0  0  0  0  0  0  0  0  0  0
  126.2530  123.3150   60.4580 C   0  0  0  0  0  0  0  0  0  0  0  0
  127.5230  122.8030   60.2080 C   0  0  0  0  0  0  0  0  0  0  0  0
  128.3950  122.5910   61.2610 N   0  0  0  0  0  0  0  0  0  0  0  0
  129.6120  121.8070   60.9830 C   0  0  0  0  0  0  0  0  0  0  0  0
  130.4260  121.4720   62.2550 C   0  0  0  0  0  0  0  0  0  0  0  0
  130.8110  122.7010   62.9480 N   0  0  0  0  0  0  0  0  0  0  0  0
  131.6060  122.3870   64.1300 C   0  0  0  0  0  0  0  0  0  0  0  0
  129.5890  123.4050   63.3310 C   0  0  0  0  0  0  0  0  0  0  0  0
  128.7600  123.7660   62.0760 C   0  0  0  0  0  0  0  0  0  0  0  0
  127.9570  122.5000   58.9570 N   0  0  0  0  0  0  0  0  0  0  0  0
  127.1200  122.7010   57.9030 C   0  0  0  0  0  0  0  0  0  0  0  0
  127.6000  122.3780   56.6100 C   0  0  0  0  0  0  0  0  0  0  0  0
  126.7890  122.5640   55.4960 C   0  0  0  0  0  0  0  0  0  0  0  0
  125.5020  123.0660   55.6370 C   0  0  0  0  0  0  0  0  0  0  0  0
  125.0000  123.3940   56.8930 C   0  0  0  0  0  0  0  0  0  0  0  0
  125.7950  123.2220   58.0630 C   0  0  0  0  0  0  0  0  0  0  0  0
  123.8536  124.1418   60.8046 H   0  0  0  0  0  0  0  0  0  0  0  0
  123.8905  125.0953   59.2827 H   0  0  0  0  0  0  0  0  0  0  0  0
  123.2188  123.4293   59.2827 H   0  0  0  0  0  0  0  0  0  0  0  0
  125.9455  123.5494   61.4878 H   0  0  0  0  0  0  0  0  0  0  0  0
  129.3174  120.8645   60.4984 H   0  0  0  0  0  0  0  0  0  0  0  0
  130.2554  122.4213   60.3360 H   0  0  0  0  0  0  0  0  0  0  0  0
  129.8123  120.8535   62.9264 H   0  0  0  0  0  0  0  0  0  0  0  0
  131.3348  120.9244   61.9650 H   0  0  0  0  0  0  0  0  0  0  0  0
  131.0242  122.6168   65.0348 H   0  0  0  0  0  0  0  0  0  0  0  0
  131.8667  121.3184   64.1233 H   0  0  0  0  0  0  0  0  0  0  0  0
  132.5266  122.9891   64.1233 H   0  0  0  0  0  0  0  0  0  0  0  0
  128.9890  122.7586   63.9884 H   0  0  0  0  0  0  0  0  0  0  0  0
  129.8607  124.3314   63.8583 H   0  0  0  0  0  0  0  0  0  0  0  0
  127.8359  124.2671   62.4000 H   0  0  0  0  0  0  0  0  0  0  0  0
  129.3856  124.4172   61.4479 H   0  0  0  0  0  0  0  0  0  0  0  0
  128.6176  121.9788   56.4868 H   0  0  0  0  0  0  0  0  0  0  0  0
  127.1698  122.3116   54.4954 H   0  0  0  0  0  0  0  0  0  0  0  0
  124.8722  123.2060   54.7461 H   0  0  0  0  0  0  0  0  0  0  0  0
  123.9779  123.7905   56.9835 H   0  0  0  0  0  0  0  0  0  0  0  0
  1  2  1  0
  2  3  2  0
  3  4  1  0
  4  5  1  0
  5  6  1  0
  6  7  1  0
  7  8  1  0
  8  9  1  0
  8 10  1  0
 10 11  1  0
  4 12  2  0
 12 13  1  0
 13 14  2  0
 14 15  1  0
 15 16  2  0
 16 17  1  0
 17 18  2  0
 18  2  1  0
 11  5  1  0
 18 13  1  0
  1 19  1  0
  1 20  1  0
  1 21  1  0
  3 22  1  0
  6 23  1  0
  6 24  1  0
  7 25  1  0
  7 26  1  0
  9 27  1  0
  9 28  1  0
  9 29  1  0
 10 30  1  0
 10 31  1  0
 11 32  1  0
 11 33  1  0
 14 34  1  0
 15 35  1  0
 16 36  1  0
 17 37  1  0
M  END
>  <Binding energies>  (1) 
[-6.53]

>  <Ligand effiencies>  (1) 
[-0.3627777777777778]

>  <Interactions>  (1) 
["V-B:TYR:539:CE2:9845, V-B:PRO:540:N:9853, V-B:PRO:540:CB:9854, V-A:TYR:484:CZ:4343, V-A:LEU:475:CD1:4254, V-B:PRO:540:CA:9852, V-B:TYR:539:CD1:9842, V-B:ILE:538:CA:9829, V-B:TYR:539:C:9836, V-B:LEU:363:CD1:8157, V-B:ALA:541:CB:9861, V-B:ILE:538:CG2:9832, V-B:TYR:539:CE1:9844, V-B:GLU:543:CD:9877, V-A:TYR:484:CE1:4341, V-B:ILE:538:CB:9831, V-A:LEU:475:CD2:4255, V-B:GLU:543:CG:9876, V-B:MET:535:CE:9804, V-A:GLY:454:CA:4045, V-B:LEU:363:CA:8153, V-B:TYR:539:CD2:9843, V-B:ASN:362:C:8140, V-A:LEU:475:CG:4253"]

$$$$
RR32_Rahimova_2017-again1
     RDKit          3D

 38 40  0  0  0  0  0  0  0  0999 V2000
  124.2140  123.9690   59.9240 C   0  0  0  0  0  0  0  0  0  0  0  0
  125.6180  123.5040   59.5630 C   0  0  0  0  0  0  0  0  0  0  0  0
  126.6100  123.4380   60.5420 C   0  0  0  0  0  0  0  0  0  0  0  0
  127.8980  123.0060   60.2080 C   0  0  0  0  0  0  0  0  0  0  0  0
  128.9110  122.9410   61.1710 N   0  0  0  0  0  0  0  0  0  0  0  0
  130.3250  123.1060   60.7790 C   0  0  0  0  0  0  0  0  0  0  0  0
  130.7620  124.5900   60.7390 C   0  0  0  0  0  0  0  0  0  0  0  0
  130.5960  125.1880   62.1500 N   0  0  0  0  0  0  0  0  0  0  0  0
  131.0020  126.6750   62.1650 C   0  0  0  0  0  0  0  0  0  0  0  0
  129.1280  125.0190   62.5900 C   0  0  0  0  0  0  0  0  0  0  0  0
  128.7630  123.5170   62.5250 C   0  0  0  0  0  0  0  0  0  0  0  0
  128.2240  122.6690   58.9300 N   0  0  0  0  0  0  0  0  0  0  0  0
  127.2770  122.7210   57.9550 C   0  0  0  0  0  0  0  0  0  0  0  0
  127.6470  122.3490   56.6400 C   0  0  0  0  0  0  0  0  0  0  0  0
  126.7090  122.3840   55.6120 C   0  0  0  0  0  0  0  0  0  0  0  0
  125.4010  122.7860   55.8630 C   0  0  0  0  0  0  0  0  0  0  0  0
  125.0070  123.1610   57.1450 C   0  0  0  0  0  0  0  0  0  0  0  0
  125.9370  123.1360   58.2210 C   0  0  0  0  0  0  0  0  0  0  0  0
  124.1093  124.0037   61.0185 H   0  0  0  0  0  0  0  0  0  0  0  0
  124.0415  124.9723   59.5072 H   0  0  0  0  0  0  0  0  0  0  0  0
  123.4768  123.2671   59.5072 H   0  0  0  0  0  0  0  0  0  0  0  0
  126.3789  123.7261   61.5781 H   0  0  0  0  0  0  0  0  0  0  0  0
  130.9564  122.5722   61.5046 H   0  0  0  0  0  0  0  0  0  0  0  0
  130.4393  122.6975   59.7641 H   0  0  0  0  0  0  0  0  0  0  0  0
  131.8151  124.6583   60.4288 H   0  0  0  0  0  0  0  0  0  0  0  0
  130.1427  125.1456   60.0194 H   0  0  0  0  0  0  0  0  0  0  0  0
  131.1840  124.6710   62.7880 H   0  0  0  0  0  0  0  0  0  0  0  0
  131.0959  127.0190   63.2056 H   0  0  0  0  0  0  0  0  0  0  0  0
  131.9663  126.7970   61.6500 H   0  0  0  0  0  0  0  0  0  0  0  0
  130.2335  127.2701   61.6500 H   0  0  0  0  0  0  0  0  0  0  0  0
  129.0052  125.3860   63.6197 H   0  0  0  0  0  0  0  0  0  0  0  0
  128.4677  125.5953   61.9252 H   0  0  0  0  0  0  0  0  0  0  0  0
  129.4216  122.9668   63.2132 H   0  0  0  0  0  0  0  0  0  0  0  0
  127.7035  123.4250   62.8061 H   0  0  0  0  0  0  0  0  0  0  0  0
  128.6790  122.0313   56.4300 H   0  0  0  0  0  0  0  0  0  0  0  0
  127.0042  122.0916   54.5935 H   0  0  0  0  0  0  0  0  0  0  0  0
  124.6707  122.8079   55.0407 H   0  0  0  0  0  0  0  0  0  0  0  0
  123.9697  123.4787   57.3267 H   0  0  0  0  0  0  0  0  0  0  0  0
  1  2  1  0
  2  3  2  0
  3  4  1  0
  4  5  1  0
  5  6  1  0
  6  7  1  0
  7  8  1  0
  8  9  1  0
  8 10  1  0
 10 11  1  0
  4 12  2  0
 12 13  1  0
 13 14  2  0
 14 15  1  0
 15 16  2  0
 16 17  1  0
 17 18  2  0
 18  2  1  0
 11  5  1  0
 18 13  1  0
  1 19  1  0
  1 20  1  0
  1 21  1  0
  3 22  1  0
  6 23  1  0
  6 24  1  0
  7 25  1  0
  7 26  1  0
  8 27  1  0
  9 28  1  0
  9 29  1  0
  9 30  1  0
 10 31  1  0
 10 32  1  0
 11 33  1  0
 11 34  1  0
 14 35  1  0
 15 36  1  0
 16 37  1  0
 17 38  1  0
M  CHG  1   8   1
M  END
>  <Binding energies>  (1) 
[-6.48]

>  <Ligand effiencies>  (1) 
[-0.3410526315789474]

>  <Interactions>  (1) 
["V-B:TYR:539:CE2:9845, V-B:PRO:540:N:9853, V-B:PRO:540:CB:9854, V-B:PRO:540:CA:9852, V-B:TYR:539:CD1:9842, V-B:ILE:538:CA:9829, V-B:TYR:539:C:9836, V-B:LEU:363:CD1:8157, V-B:ALA:541:CB:9861, V-B:ILE:538:CG2:9832, V-B:TYR:539:CE1:9844, V-B:GLU:543:CD:9877, V-B:ILE:538:CB:9831, V-B:GLU:543:CG:9876, V-B:PRO:540:CD:9856"]

$$$$
RR32_Rahimova_2017-again2
     RDKit          3D

 39 41  0  0  0  0  0  0  0  0999 V2000
  128.2700  122.6370   59.9560 C   0  0  0  0  0  0  0  0  0  0  0  0
  127.5310  123.9670   60.0290 C   0  0  0  0  0  0  0  0  0  0  0  0
  128.0050  124.9890   60.8580 C   0  0  0  0  0  0  0  0  0  0  0  0
  127.3360  126.2170   60.9440 C   0  0  0  0  0  0  0  0  0  0  0  0
  127.7900  127.3060   61.7700 N   0  0  0  0  0  0  0  0  0  0  0  0
  129.1200  127.2560   62.4340 C   0  0  0  0  0  0  0  0  0  0  0  0
  130.2320  127.7570   61.4730 C   0  0  0  0  0  0  0  0  0  0  0  0
  129.9270  129.2120   61.0440 N   0  0  0  0  0  0  0  0  0  0  0  0
  130.9810  129.7250   60.0440 C   0  0  0  0  0  0  0  0  0  0  0  0
  128.5030  129.3050   60.4460 C   0  0  0  0  0  0  0  0  0  0  0  0
  127.4830  128.7260   61.4620 C   0  0  0  0  0  0  0  0  0  0  0  0
  126.2260  126.3840   60.1950 N   0  0  0  0  0  0  0  0  0  0  0  0
  125.6880  125.4390   59.3530 C   0  0  0  0  0  0  0  0  0  0  0  0
  124.5170  125.7170   58.6130 C   0  0  0  0  0  0  0  0  0  0  0  0
  124.0020  124.7390   57.7670 C   0  0  0  0  0  0  0  0  0  0  0  0
  124.6290  123.5000   57.6490 C   0  0  0  0  0  0  0  0  0  0  0  0
  125.7850  123.2120   58.3740 C   0  0  0  0  0  0  0  0  0  0  0  0
  126.3500  124.1800   59.2520 C   0  0  0  0  0  0  0  0  0  0  0  0
  128.4720  122.2734   60.9743 H   0  0  0  0  0  0  0  0  0  0  0  0
  127.6507  121.9023   59.4205 H   0  0  0  0  0  0  0  0  0  0  0  0
  129.2209  122.7748   59.4205 H   0  0  0  0  0  0  0  0  0  0  0  0
  128.9168  124.8261   61.4514 H   0  0  0  0  0  0  0  0  0  0  0  0
  129.1011  127.8953   63.3290 H   0  0  0  0  0  0  0  0  0  0  0  0
  129.3369  126.2145   62.7137 H   0  0  0  0  0  0  0  0  0  0  0  0
  131.2038  127.7226   61.9873 H   0  0  0  0  0  0  0  0  0  0  0  0
  130.2648  127.1118   60.5827 H   0  0  0  0  0  0  0  0  0  0  0  0
  129.9500  129.7900   61.8740 H   0  0  0  0  0  0  0  0  0  0  0  0
  131.8370  130.1416   60.5950 H   0  0  0  0  0  0  0  0  0  0  0  0
  131.3223  128.8922   59.4115 H   0  0  0  0  0  0  0  0  0  0  0  0
  130.5362  130.5074   59.4115 H   0  0  0  0  0  0  0  0  0  0  0  0
  128.2590  130.3575   60.2392 H   0  0  0  0  0  0  0  0  0  0  0  0
  128.4578  128.7302   59.5092 H   0  0  0  0  0  0  0  0  0  0  0  0
  127.5267  129.3136   62.3909 H   0  0  0  0  0  0  0  0  0  0  0  0
  126.4771  128.7804   61.0201 H   0  0  0  0  0  0  0  0  0  0  0  0
  125.7580  127.2760   60.2540 H   0  0  0  0  0  0  0  0  0  0  0  0
  124.0188  126.6935   58.7042 H   0  0  0  0  0  0  0  0  0  0  0  0
  123.0913  124.9461   57.1859 H   0  0  0  0  0  0  0  0  0  0  0  0
  124.2068  122.7396   56.9755 H   0  0  0  0  0  0  0  0  0  0  0  0
  126.2647  122.2280   58.2665 H   0  0  0  0  0  0  0  0  0  0  0  0
  1  2  1  0
  2  3  2  0
  3  4  1  0
  4  5  1  0
  5  6  1  0
  6  7  1  0
  7  8  1  0
  8  9  1  0
  8 10  1  0
 10 11  1  0
  4 12  2  0
 12 13  1  0
 13 14  2  0
 14 15  1  0
 15 16  2  0
 16 17  1  0
 17 18  2  0
 18  2  1  0
 11  5  1  0
 18 13  1  0
  1 19  1  0
  1 20  1  0
  1 21  1  0
  3 22  1  0
  6 23  1  0
  6 24  1  0
  7 25  1  0
  7 26  1  0
  8 27  1  0
  9 28  1  0
  9 29  1  0
  9 30  1  0
 10 31  1  0
 10 32  1  0
 11 33  1  0
 11 34  1  0
 12 35  1  0
 14 36  1  0
 15 37  1  0
 16 38  1  0
 17 39  1  0
M  CHG  2   8   1  12   1
M  END
>  <Binding energies>  (1) 
[-7.4]

>  <Ligand effiencies>  (1) 
[-0.37]

>  <Interactions>  (1) 
["V-B:PRO:540:N:9853, V-B:PRO:540:CB:9854, V-B:PRO:540:CA:9852, V-B:LEU:363:CD1:8157, V-B:GLU:543:CD:9877, V-A:GLU:543:CD:4905, V-B:LEU:363:CA:8153, V-B:ASP:366:CB:8180, V-B:TYR:531:CE2:9762, H-B:ASP:366:OD1:8182, V-B:ASP:366:CG:8181, H-A:GLU:543:OE1:4906, H-A:GLU:543:OE2:4907"]

$$$$
RR33_Rahimova_2017
     RDKit          3D

 36 37  0  0  0  0  0  0  0  0999 V2000
  134.8180  125.0090   66.0390 C   0  0  0  0  0  0  0  0  0  0  0  0
  133.4980  125.0670   65.2640 C   0  0  0  0  0  0  0  0  0  0  0  0
  133.6110  124.2460   64.1050 O   0  0  0  0  0  0  0  0  0  0  0  0
  132.4820  123.9650   63.3610 C   0  0  0  0  0  0  0  0  0  0  0  0
  132.5610  124.2190   61.9920 C   0  0  0  0  0  0  0  0  0  0  0  0
  131.4720  123.9700   61.1610 C   0  0  0  0  0  0  0  0  0  0  0  0
  130.2820  123.4610   61.6910 C   0  0  0  0  0  0  0  0  0  0  0  0
  129.1130  123.1950   60.7980 C   0  0  0  0  0  0  0  0  0  0  0  0
  127.8410  123.4070   61.0560 N   0  0  0  0  0  0  0  0  0  0  0  0
  127.1940  123.0190   59.9680 C   0  0  0  0  0  0  0  0  0  0  0  0
  125.6870  123.1240   59.8810 C   0  0  0  0  0  0  0  0  0  0  0  0
  125.0960  123.1490   61.2110 N   0  0  0  0  0  0  0  0  0  0  0  0
  123.9060  123.9840   61.2270 C   0  0  0  0  0  0  0  0  0  0  0  0
  128.1030  122.5580   59.0240 C   0  0  0  0  0  0  0  0  0  0  0  0
  128.0080  122.0020   57.6240 C   0  0  0  0  0  0  0  0  0  0  0  0
  129.3380  122.6720   59.5640 O   0  0  0  0  0  0  0  0  0  0  0  0
  130.2000  123.2000   63.0620 C   0  0  0  0  0  0  0  0  0  0  0  0
  131.2890  123.4500   63.8930 C   0  0  0  0  0  0  0  0  0  0  0  0
  134.6098  125.0181   67.1191 H   0  0  0  0  0  0  0  0  0  0  0  0
  135.3566  124.0863   65.7772 H   0  0  0  0  0  0  0  0  0  0  0  0
  135.4355  125.8809   65.7772 H   0  0  0  0  0  0  0  0  0  0  0  0
  132.6793  124.6989   65.8997 H   0  0  0  0  0  0  0  0  0  0  0  0
  133.2829  126.1044   64.9683 H   0  0  0  0  0  0  0  0  0  0  0  0
  133.4921  124.6197   61.5649 H   0  0  0  0  0  0  0  0  0  0  0  0
  131.5479  124.1745   60.0828 H   0  0  0  0  0  0  0  0  0  0  0  0
  125.4195  124.0491   59.3494 H   0  0  0  0  0  0  0  0  0  0  0  0
  125.3019  122.2477   59.3390 H   0  0  0  0  0  0  0  0  0  0  0  0
  125.7680  123.5250   61.8660 H   0  0  0  0  0  0  0  0  0  0  0  0
  123.6152  124.1880   62.2681 H   0  0  0  0  0  0  0  0  0  0  0  0
  124.1171  124.9331   60.7125 H   0  0  0  0  0  0  0  0  0  0  0  0
  123.0853  123.4627   60.7125 H   0  0  0  0  0  0  0  0  0  0  0  0
  127.8229  120.9187   57.6715 H   0  0  0  0  0  0  0  0  0  0  0  0
  127.1806  122.4923   57.0901 H   0  0  0  0  0  0  0  0  0  0  0  0
  128.9512  122.1898   57.0901 H   0  0  0  0  0  0  0  0  0  0  0  0
  129.2698  122.7948   63.4868 H   0  0  0  0  0  0  0  0  0  0  0  0
  131.2143  123.2432   64.9708 H   0  0  0  0  0  0  0  0  0  0  0  0
  1  2  1  0
  2  3  1  0
  3  4  1  0
  4  5  2  0
  5  6  1  0
  6  7  2  0
  7  8  1  0
  8  9  2  0
  9 10  1  0
 10 11  1  0
 11 12  1  0
 12 13  1  0
 10 14  2  0
 14 15  1  0
 14 16  1  0
  7 17  1  0
 17 18  2  0
 18  4  1  0
 16  8  1  0
  1 19  1  0
  1 20  1  0
  1 21  1  0
  2 22  1  0
  2 23  1  0
  5 24  1  0
  6 25  1  0
 11 26  1  0
 11 27  1  0
 12 28  1  0
 13 29  1  0
 13 30  1  0
 13 31  1  0
 15 32  1  0
 15 33  1  0
 15 34  1  0
 17 35  1  0
 18 36  1  0
M  END
>  <Binding energies>  (1) 
[-5.88]

>  <Ligand effiencies>  (1) 
[-0.3094736842105263]

>  <Interactions>  (1) 
["V-B:TYR:539:CE2:9845, V-B:PRO:540:N:9853, V-B:PRO:540:CB:9854, V-B:TYR:539:CZ:9846, H-B:ALA:541:N:9860, V-B:PRO:540:CA:9852, V-B:TYR:539:CD1:9842, V-B:PRO:540:C:9850, V-B:TYR:539:C:9836, V-B:ALA:541:CB:9861, V-B:TYR:539:CE1:9844, H-B:GLU:543:OE2:9879, V-A:ARG:545:CZ:4923, V-A:GLY:454:CA:4045, V-A:HIS:456:CE1:4066, H-A:GLY:454:N:4046, H-A:TYR:484:OH:4344, V-B:TYR:539:CA:9838, V-B:TYR:539:CG:9841, V-B:TYR:539:CD2:9843, V-B:ASN:362:CB:8144, V-B:ASN:362:C:8140, V-A:GLY:453:C:4038, V-A:GLY:453:CA:4040, V-B:ASN:362:CA:8142, V-A:GLY:454:C:4043, V-A:ARG:545:CG:4919, V-A:ARG:545:CD:4920"]

$$$$
RR33_Rahimova_2017-again1
     RDKit          3D

 37 38  0  0  0  0  0  0  0  0999 V2000
  127.0260  127.8290   73.7130 C   0  0  0  0  0  0  0  0  0  0  0  0
  128.3880  128.5090   73.5470 C   0  0  0  0  0  0  0  0  0  0  0  0
  129.2910  127.5870   72.9460 O   0  0  0  0  0  0  0  0  0  0  0  0
  129.2850  127.4290   71.5720 C   0  0  0  0  0  0  0  0  0  0  0  0
  130.3520  127.9970   70.8760 C   0  0  0  0  0  0  0  0  0  0  0  0
  130.4340  127.8890   69.4910 C   0  0  0  0  0  0  0  0  0  0  0  0
  129.4410  127.2090   68.7780 C   0  0  0  0  0  0  0  0  0  0  0  0
  129.5250  127.0910   67.2900 C   0  0  0  0  0  0  0  0  0  0  0  0
  128.7360  127.6440   66.3950 N   0  0  0  0  0  0  0  0  0  0  0  0
  129.2070  127.2520   65.2200 C   0  0  0  0  0  0  0  0  0  0  0  0
  128.5430  127.6830   63.9260 C   0  0  0  0  0  0  0  0  0  0  0  0
  127.0630  128.0000   64.2010 N   0  0  0  0  0  0  0  0  0  0  0  0
  126.6200  129.3690   63.6680 C   0  0  0  0  0  0  0  0  0  0  0  0
  130.3100  126.4300   65.4130 C   0  0  0  0  0  0  0  0  0  0  0  0
  131.2620  125.6790   64.5150 C   0  0  0  0  0  0  0  0  0  0  0  0
  130.5120  126.3320   66.7480 O   0  0  0  0  0  0  0  0  0  0  0  0
  128.3690  126.6390   69.4720 C   0  0  0  0  0  0  0  0  0  0  0  0
  128.2900  126.7460   70.8580 C   0  0  0  0  0  0  0  0  0  0  0  0
  126.8005  127.7164   74.7837 H   0  0  0  0  0  0  0  0  0  0  0  0
  126.2484  128.4446   73.2373 H   0  0  0  0  0  0  0  0  0  0  0  0
  127.0508  126.8375   73.2373 H   0  0  0  0  0  0  0  0  0  0  0  0
  128.2827  129.3956   72.9044 H   0  0  0  0  0  0  0  0  0  0  0  0
  128.7718  128.8216   74.5293 H   0  0  0  0  0  0  0  0  0  0  0  0
  131.1366  128.5358   71.4275 H   0  0  0  0  0  0  0  0  0  0  0  0
  131.2824  128.3398   68.9552 H   0  0  0  0  0  0  0  0  0  0  0  0
  129.0454  128.5801   63.5352 H   0  0  0  0  0  0  0  0  0  0  0  0
  128.6171  126.8742   63.1841 H   0  0  0  0  0  0  0  0  0  0  0  0
  126.4930  127.2820   63.7780 H   0  0  0  0  0  0  0  0  0  0  0  0
  126.9090  127.9720   65.1990 H   0  0  0  0  0  0  0  0  0  0  0  0
  126.4032  130.0389   64.5132 H   0  0  0  0  0  0  0  0  0  0  0  0
  127.4241  129.8013   63.0544 H   0  0  0  0  0  0  0  0  0  0  0  0
  125.7151  129.2482   63.0544 H   0  0  0  0  0  0  0  0  0  0  0  0
  131.9779  125.1142   65.1302 H   0  0  0  0  0  0  0  0  0  0  0  0
  130.6948  124.9825   63.8801 H   0  0  0  0  0  0  0  0  0  0  0  0
  131.8073  126.3928   63.8801 H   0  0  0  0  0  0  0  0  0  0  0  0
  127.5834  126.1028   68.9195 H   0  0  0  0  0  0  0  0  0  0  0  0
  127.4436  126.2929   71.3950 H   0  0  0  0  0  0  0  0  0  0  0  0
  1  2  1  0
  2  3  1  0
  3  4  1  0
  4  5  2  0
  5  6  1  0
  6  7  2  0
  7  8  1  0
  8  9  2  0
  9 10  1  0
 10 11  1  0
 11 12  1  0
 12 13  1  0
 10 14  2  0
 14 15  1  0
 14 16  1  0
  7 17  1  0
 17 18  2  0
 18  4  1  0
 16  8  1  0
  1 19  1  0
  1 20  1  0
  1 21  1  0
  2 22  1  0
  2 23  1  0
  5 24  1  0
  6 25  1  0
 11 26  1  0
 11 27  1  0
 12 28  1  0
 12 29  1  0
 13 30  1  0
 13 31  1  0
 13 32  1  0
 15 33  1  0
 15 34  1  0
 15 35  1  0
 17 36  1  0
 18 37  1  0
M  CHG  1  12   1
M  END
>  <Binding energies>  (1) 
[-6.47]

>  <Ligand effiencies>  (1) 
[-0.3235]

>  <Interactions>  (1) 
["V-B:GLU:543:CD:9877, H-B:GLU:543:OE2:9879, V-A:GLU:543:CD:4905, V-A:HIS:456:CE1:4066, H-B:GLU:543:OE1:9878, V-A:LYS:547:CE:4947, V-B:HIS:456:CD2:9036, V-A:GLU:543:C:4899, H-A:LYS:547:NZ:4948, V-A:GLY:544:C:4909, V-B:LYS:547:CE:9919, V-B:HIS:456:CE1:9038"]

$$$$
RR3_Rahimova_2017
     RDKit          3D

 63 69  0  0  0  0  0  0  0  0999 V2000
  123.9980  132.7330   62.7730 C   0  0  0  0  0  0  0  0  0  0  0  0
  125.0040  132.9720   63.7030 C   0  0  0  0  0  0  0  0  0  0  0  0
  125.9110  131.9630   64.0130 C   0  0  0  0  0  0  0  0  0  0  0  0
  125.8250  130.7050   63.3990 C   0  0  0  0  0  0  0  0  0  0  0  0
  126.8020  129.6210   63.7330 C   0  0  0  0  0  0  0  0  0  0  0  0
  127.2150  129.4040   65.0550 C   0  0  0  0  0  0  0  0  0  0  0  0
  128.1260  128.3990   65.3640 C   0  0  0  0  0  0  0  0  0  0  0  0
  128.6530  127.5890   64.3550 C   0  0  0  0  0  0  0  0  0  0  0  0
  129.6370  126.5090   64.6800 C   0  0  0  0  0  0  0  0  0  0  0  0
  130.2000  125.8070   63.7020 N   0  0  0  0  0  0  0  0  0  0  0  0
  131.0390  124.9760   64.2730 C   0  0  0  0  0  0  0  0  0  0  0  0
  131.8780  124.0100   63.5680 C   0  0  0  0  0  0  0  0  0  0  0  0
  132.4220  122.8600   64.1140 C   0  0  0  0  0  0  0  0  0  0  0  0
  133.1460  122.1840   63.1670 N   0  0  0  0  0  0  0  0  0  0  0  0
  133.1050  122.8660   61.9710 C   0  0  0  0  0  0  0  0  0  0  0  0
  133.6850  122.5720   60.7320 C   0  0  0  0  0  0  0  0  0  0  0  0
  133.4550  123.4760   59.6950 C   0  0  0  0  0  0  0  0  0  0  0  0
  132.6850  124.6210   59.8770 C   0  0  0  0  0  0  0  0  0  0  0  0
  132.1070  124.9130   61.1100 C   0  0  0  0  0  0  0  0  0  0  0  0
  132.3080  124.0340   62.1900 C   0  0  0  0  0  0  0  0  0  0  0  0
  131.0250  125.1250   65.6320 N   0  0  0  0  0  0  0  0  0  0  0  0
  130.1080  126.0970   65.9380 C   0  0  0  0  0  0  0  0  0  0  0  0
  129.7790  126.4890   67.3410 C   0  0  0  0  0  0  0  0  0  0  0  0
  128.8480  125.7510   68.0740 C   0  0  0  0  0  0  0  0  0  0  0  0
  128.5290  126.1200   69.3760 C   0  0  0  0  0  0  0  0  0  0  0  0
  129.1340  127.2320   69.9790 C   0  0  0  0  0  0  0  0  0  0  0  0
  128.7740  127.6380   71.3730 C   0  0  0  0  0  0  0  0  0  0  0  0
  129.4110  128.7240   71.9940 C   0  0  0  0  0  0  0  0  0  0  0  0
  129.0720  129.1050   73.2900 C   0  0  0  0  0  0  0  0  0  0  0  0
  128.0900  128.4020   73.9810 C   0  0  0  0  0  0  0  0  0  0  0  0
  127.4450  127.3230   73.3850 C   0  0  0  0  0  0  0  0  0  0  0  0
  127.7870  126.9440   72.0900 C   0  0  0  0  0  0  0  0  0  0  0  0
  130.0800  127.9550   69.2380 C   0  0  0  0  0  0  0  0  0  0  0  0
  130.4020  127.5880   67.9350 C   0  0  0  0  0  0  0  0  0  0  0  0
  128.2380  127.7880   63.0360 C   0  0  0  0  0  0  0  0  0  0  0  0
  127.3270  128.7950   62.7300 C   0  0  0  0  0  0  0  0  0  0  0  0
  124.8020  130.4860   62.4660 C   0  0  0  0  0  0  0  0  0  0  0  0
  123.8930  131.4920   62.1520 C   0  0  0  0  0  0  0  0  0  0  0  0
  123.2808  133.5298   62.5267 H   0  0  0  0  0  0  0  0  0  0  0  0
  125.0825  133.9544   64.1915 H   0  0  0  0  0  0  0  0  0  0  0  0
  126.7056  132.1546   64.7491 H   0  0  0  0  0  0  0  0  0  0  0  0
  126.8130  130.0374   65.8595 H   0  0  0  0  0  0  0  0  0  0  0  0
  128.4331  128.2412   66.4084 H   0  0  0  0  0  0  0  0  0  0  0  0
  132.2919  122.5358   65.1571 H   0  0  0  0  0  0  0  0  0  0  0  0
  133.6220  121.3170   63.3650 H   0  0  0  0  0  0  0  0  0  0  0  0
  134.2948  121.6688   60.5826 H   0  0  0  0  0  0  0  0  0  0  0  0
  133.8943  123.2785   58.7061 H   0  0  0  0  0  0  0  0  0  0  0  0
  132.5302  125.3077   59.0317 H   0  0  0  0  0  0  0  0  0  0  0  0
  131.4998  125.8212   61.2381 H   0  0  0  0  0  0  0  0  0  0  0  0
  131.5720  124.5930   66.2950 H   0  0  0  0  0  0  0  0  0  0  0  0
  128.3646  124.8736   67.6195 H   0  0  0  0  0  0  0  0  0  0  0  0
  127.7915  125.5312   69.9411 H   0  0  0  0  0  0  0  0  0  0  0  0
  130.1879  129.2812   71.4500 H   0  0  0  0  0  0  0  0  0  0  0  0
  129.5784  129.9580   73.7653 H   0  0  0  0  0  0  0  0  0  0  0  0
  127.8220  128.7013   75.0050 H   0  0  0  0  0  0  0  0  0  0  0  0
  126.6680  126.7717   73.9348 H   0  0  0  0  0  0  0  0  0  0  0  0
  127.2768  126.0890   71.6223 H   0  0  0  0  0  0  0  0  0  0  0  0
  130.5749  128.8253   69.6937 H   0  0  0  0  0  0  0  0  0  0  0  0
  131.1496  128.1655   67.3714 H   0  0  0  0  0  0  0  0  0  0  0  0
  128.6331  127.1457   62.2352 H   0  0  0  0  0  0  0  0  0  0  0  0
  127.0147  128.9446   61.6859 H   0  0  0  0  0  0  0  0  0  0  0  0
  124.7165  129.5053   61.9752 H   0  0  0  0  0  0  0  0  0  0  0  0
  123.0958  131.3072   61.4169 H   0  0  0  0  0  0  0  0  0  0  0  0
  1  2  2  0
  2  3  1  0
  3  4  2  0
  4  5  1  0
  5  6  2  0
  6  7  1  0
  7  8  2  0
  8  9  1  0
  9 10  1  0
 10 11  2  0
 11 12  1  0
 12 13  2  0
 13 14  1  0
 14 15  1  0
 15 16  2  0
 16 17  1  0
 17 18  2  0
 18 19  1  0
 19 20  2  0
 11 21  1  0
 21 22  1  0
 22 23  1  0
 23 24  2  0
 24 25  1  0
 25 26  2  0
 26 27  1  0
 27 28  2  0
 28 29  1  0
 29 30  2  0
 30 31  1  0
 31 32  2  0
 26 33  1  0
 33 34  2  0
  8 35  1  0
 35 36  2  0
  4 37  1  0
 37 38  2  0
 38  1  1  0
 36  5  1  0
 22  9  2  0
 34 23  1  0
 20 12  1  0
 32 27  1  0
 20 15  1  0
  1 39  1  0
  2 40  1  0
  3 41  1  0
  6 42  1  0
  7 43  1  0
 13 44  1  0
 14 45  1  0
 16 46  1  0
 17 47  1  0
 18 48  1  0
 19 49  1  0
 21 50  1  0
 24 51  1  0
 25 52  1  0
 28 53  1  0
 29 54  1  0
 30 55  1  0
 31 56  1  0
 32 57  1  0
 33 58  1  0
 34 59  1  0
 35 60  1  0
 36 61  1  0
 37 62  1  0
 38 63  1  0
M  END
>  <Binding energies>  (1) 
[-10.16]

>  <Ligand effiencies>  (1) 
[-0.254]

>  <Interactions>  (1) 
["V-B:TYR:539:CE2:9845, V-B:TYR:539:CZ:9846, V-A:LEU:475:CD1:4254, V-B:GLU:543:CD:9877, V-A:GLY:454:CA:4045, V-A:GLU:543:CD:4905, V-A:ASP:366:CB:3208, V-A:HIS:456:CE1:4066, V-A:ASP:366:CG:3209, V-B:GLU:543:CB:9875, H-A:TYR:484:OH:4344, V-B:ASP:366:CG:8181, V-A:LYS:547:CE:4947, V-B:HIS:456:CD2:9036, V-A:ILE:369:CB:3232, V-A:GLU:543:CB:4903, V-A:GLU:543:C:4899, V-A:ILE:369:CG2:3233, V-B:LYS:547:CE:9919, V-B:HIS:456:CE1:9038, H-A:HIS:456:NE2:4067, V-A:ILE:369:CG1:3234, V-B:LYS:547:CD:9918, V-B:GLY:454:CA:9017, V-B:ILE:369:CD1:8207, V-B:GLU:543:C:9871, V-B:LEU:475:CD2:9227, V-A:ASP:366:CA:3206"]

$$$$
RR4_Rahimova_2017
     RDKit          3D

 66 70  0  0  0  0  0  0  0  0999 V2000
  130.0870  125.7090   73.6690 C   0  0  0  0  0  0  0  0  0  0  0  0
  129.8620  126.9920   73.0940 O   0  0  0  0  0  0  0  0  0  0  0  0
  129.7300  127.1030   71.7230 C   0  0  0  0  0  0  0  0  0  0  0  0
  128.6760  126.4060   71.1370 C   0  0  0  0  0  0  0  0  0  0  0  0
  128.4660  126.4600   69.7630 C   0  0  0  0  0  0  0  0  0  0  0  0
  129.3080  127.2120   68.9310 C   0  0  0  0  0  0  0  0  0  0  0  0
  129.0790  127.2670   67.4480 C   0  0  0  0  0  0  0  0  0  0  0  0
  128.1680  128.1470   66.8540 C   0  0  0  0  0  0  0  0  0  0  0  0
  127.9930  128.1630   65.4640 C   0  0  0  0  0  0  0  0  0  0  0  0
  127.0230  129.1490   64.8990 C   0  0  0  0  0  0  0  0  0  0  0  0
  125.6480  128.9440   65.0450 C   0  0  0  0  0  0  0  0  0  0  0  0
  124.7370  129.8640   64.5320 C   0  0  0  0  0  0  0  0  0  0  0  0
  125.1820  131.0080   63.8700 C   0  0  0  0  0  0  0  0  0  0  0  0
  124.2070  131.8640   63.3960 O   0  0  0  0  0  0  0  0  0  0  0  0
  123.8900  131.8550   62.0080 C   0  0  0  0  0  0  0  0  0  0  0  0
  126.5610  131.2210   63.7260 C   0  0  0  0  0  0  0  0  0  0  0  0
  127.4700  130.2990   64.2400 C   0  0  0  0  0  0  0  0  0  0  0  0
  128.7380  127.2490   64.6790 C   0  0  0  0  0  0  0  0  0  0  0  0
  128.5940  127.2240   63.2210 C   0  0  0  0  0  0  0  0  0  0  0  0
  128.4800  127.2050   62.0690 N   0  0  0  0  0  0  0  0  0  0  0  0
  129.6190  126.3680   65.3480 C   0  0  0  0  0  0  0  0  0  0  0  0
  130.6220  125.1490   64.5260 S   0  0  0  0  0  0  0  0  0  0  0  0
  129.5180  123.8140   63.9530 C   0  0  0  0  0  0  0  0  0  0  0  0
  129.5370  123.5780   62.4360 C   0  0  0  0  0  0  0  0  0  0  0  0
  130.6020  123.3720   61.8480 O   0  0  0  0  0  0  0  0  0  0  0  0
  128.3240  123.6320   61.8390 N   0  0  0  0  0  0  0  0  0  0  0  0
  128.0120  123.4580   60.4880 C   0  0  0  0  0  0  0  0  0  0  0  0
  129.2180  123.4600   59.2290 S   0  0  0  0  0  0  0  0  0  0  0  0
  128.0160  123.2090   58.0000 C   0  0  0  0  0  0  0  0  0  0  0  0
  126.7260  123.1320   58.5490 C   0  0  0  0  0  0  0  0  0  0  0  0
  126.7280  123.2570   59.9590 C   0  0  0  0  0  0  0  0  0  0  0  0
  125.5190  123.1920   60.7740 C   0  0  0  0  0  0  0  0  0  0  0  0
  124.5590  123.1410   61.4190 N   0  0  0  0  0  0  0  0  0  0  0  0
  125.4950  122.8750   57.6720 C   0  0  0  0  0  0  0  0  0  0  0  0
  125.9160  122.3390   56.2850 C   0  0  0  0  0  0  0  0  0  0  0  0
  127.0810  123.1440   55.6810 C   0  0  0  0  0  0  0  0  0  0  0  0
  128.3650  123.0290   56.5290 C   0  0  0  0  0  0  0  0  0  0  0  0
  129.7920  126.3950   66.6900 N   0  0  0  0  0  0  0  0  0  0  0  0
  130.3650  127.9140   69.5310 C   0  0  0  0  0  0  0  0  0  0  0  0
  130.5790  127.8620   70.9050 C   0  0  0  0  0  0  0  0  0  0  0  0
  130.0726  125.7911   74.7658 H   0  0  0  0  0  0  0  0  0  0  0  0
  129.2965  125.0172   73.3427 H   0  0  0  0  0  0  0  0  0  0  0  0
  131.0658  125.3275   73.3427 H   0  0  0  0  0  0  0  0  0  0  0  0
  128.0027  125.8066   71.7674 H   0  0  0  0  0  0  0  0  0  0  0  0
  127.6258  125.9038   69.3218 H   0  0  0  0  0  0  0  0  0  0  0  0
  127.5834  128.8331   67.4844 H   0  0  0  0  0  0  0  0  0  0  0  0
  125.2826  128.0487   65.5694 H   0  0  0  0  0  0  0  0  0  0  0  0
  123.6578  129.6869   64.6499 H   0  0  0  0  0  0  0  0  0  0  0  0
  122.7977  131.8240   61.8815 H   0  0  0  0  0  0  0  0  0  0  0  0
  124.2882  132.7648   61.5350 H   0  0  0  0  0  0  0  0  0  0  0  0
  124.3392  130.9692   61.5350 H   0  0  0  0  0  0  0  0  0  0  0  0
  126.9257  132.1189   63.2056 H   0  0  0  0  0  0  0  0  0  0  0  0
  128.5496  130.4770   64.1266 H   0  0  0  0  0  0  0  0  0  0  0  0
  129.8215  122.8806   64.4496 H   0  0  0  0  0  0  0  0  0  0  0  0
  128.4940  124.1243   64.2081 H   0  0  0  0  0  0  0  0  0  0  0  0
  127.5320  123.8080   62.4390 H   0  0  0  0  0  0  0  0  0  0  0  0
  124.8487  122.1338   58.1648 H   0  0  0  0  0  0  0  0  0  0  0  0
  124.9532  123.8226   57.5359 H   0  0  0  0  0  0  0  0  0  0  0  0
  126.2275  121.2893   56.3902 H   0  0  0  0  0  0  0  0  0  0  0  0
  125.0531  122.4341   55.6095 H   0  0  0  0  0  0  0  0  0  0  0  0
  127.2883  122.7641   54.6697 H   0  0  0  0  0  0  0  0  0  0  0  0
  126.7847  124.2030   55.6557 H   0  0  0  0  0  0  0  0  0  0  0  0
  128.8175  122.0379   56.3776 H   0  0  0  0  0  0  0  0  0  0  0  0
  129.0793  123.8073   56.2224 H   0  0  0  0  0  0  0  0  0  0  0  0
  131.0373  128.5170   68.9029 H   0  0  0  0  0  0  0  0  0  0  0  0
  131.4169  128.4181   71.3508 H   0  0  0  0  0  0  0  0  0  0  0  0
  1  2  1  0
  2  3  1  0
  3  4  2  0
  4  5  1  0
  5  6  2  0
  6  7  1  0
  7  8  2  0
  8  9  1  0
  9 10  1  0
 10 11  2  0
 11 12  1  0
 12 13  2  0
 13 14  1  0
 14 15  1  0
 13 16  1  0
 16 17  2  0
  9 18  2  0
 18 19  1  0
 19 20  3  0
 18 21  1  0
 21 22  1  0
 22 23  1  0
 23 24  1  0
 24 25  2  0
 24 26  1  0
 26 27  1  0
 27 28  1  0
 28 29  1  0
 29 30  2  0
 30 31  1  0
 31 32  1  0
 32 33  3  0
 30 34  1  0
 34 35  1  0
 35 36  1  0
 36 37  1  0
 21 38  2  0
  6 39  1  0
 39 40  2  0
 40  3  1  0
 38  7  1  0
 17 10  1  0
 31 27  2  0
 37 29  1  0
  1 41  1  0
  1 42  1  0
  1 43  1  0
  4 44  1  0
  5 45  1  0
  8 46  1  0
 11 47  1  0
 12 48  1  0
 15 49  1  0
 15 50  1  0
 15 51  1  0
 16 52  1  0
 17 53  1  0
 23 54  1  0
 23 55  1  0
 26 56  1  0
 34 57  1  0
 34 58  1  0
 35 59  1  0
 35 60  1  0
 36 61  1  0
 36 62  1  0
 37 63  1  0
 37 64  1  0
 39 65  1  0
 40 66  1  0
M  END
>  <Binding energies>  (1) 
[-12.32]

>  <Ligand effiencies>  (1) 
[-0.30048780487804877]

>  <Interactions>  (1) 
["V-B:TYR:539:CE2:9845, V-B:PRO:540:N:9853, V-B:PRO:540:CB:9854, V-B:TYR:539:CZ:9846, H-B:ALA:541:N:9860, V-B:PRO:540:CA:9852, V-B:TYR:539:CD1:9842, V-B:PRO:540:C:9850, V-B:LEU:363:CD1:8157, V-B:ALA:541:CB:9861, V-B:ILE:538:CG2:9832, V-B:TYR:539:CE1:9844, V-B:GLU:543:CD:9877, V-B:ILE:538:CB:9831, V-B:GLU:543:CG:9876, H-B:GLU:543:OE2:9879, V-B:MET:535:CE:9804, V-A:GLU:543:CD:4905, V-A:HIS:456:CE1:4066, V-A:GLU:543:CG:4904, V-B:PRO:540:CD:9856, V-B:ASP:366:CG:8181, V-A:GLU:543:C:4899, H-A:LYS:547:NZ:4948, V-A:GLY:544:C:4909, V-B:LYS:547:CE:9919, V-B:HIS:456:CE1:9038, V-B:ARG:545:CZ:9895, V-B:ILE:369:CD1:8207, V-A:HIS:456:CD2:4064, H-B:GLY:454:N:9018"]

$$$$
RR5_Rahimova_2017
     RDKit          3D

 77 82  0  0  0  0  0  0  0  0999 V2000
  127.7520  127.6310   58.6410 O   0  0  0  0  0  0  0  0  0  0  0  0
  127.7000  126.9870   59.6870 C   0  0  0  0  0  0  0  0  0  0  0  0
  127.0300  127.6030   60.9300 C   0  0  0  0  0  0  0  0  0  0  0  0
  128.0430  128.1540   61.9960 C   0  0  2  0  0  0  0  0  0  0  0  0
  128.4420  129.5630   61.8060 N   0  0  0  0  0  0  0  0  0  0  0  0
  127.5610  130.5060   61.2940 C   0  0  0  0  0  0  0  0  0  0  0  0
  126.3800  130.3220   60.9910 O   0  0  0  0  0  0  0  0  0  0  0  0
  128.2170  131.6730   61.1660 O   0  0  0  0  0  0  0  0  0  0  0  0
  128.4970  132.2300   59.8850 C   0  0  0  0  0  0  0  0  0  0  0  0
  129.1940  131.1940   58.9760 C   0  0  0  0  0  0  0  0  0  0  0  0
  129.1340  131.5410   57.4990 C   0  0  0  0  0  0  0  0  0  0  0  0
  128.0220  131.7590   56.6810 C   0  0  0  0  0  0  0  0  0  0  0  0
  128.2010  132.0930   55.3380 C   0  0  0  0  0  0  0  0  0  0  0  0
  129.4880  132.2090   54.8100 C   0  0  0  0  0  0  0  0  0  0  0  0
  130.6010  131.9890   55.6240 C   0  0  0  0  0  0  0  0  0  0  0  0
  130.4190  131.6540   56.9670 C   0  0  0  0  0  0  0  0  0  0  0  0
  131.3910  131.3650   58.0330 C   0  0  0  0  0  0  0  0  0  0  0  0
  132.7880  131.3310   58.0190 C   0  0  0  0  0  0  0  0  0  0  0  0
  133.4810  131.0000   59.1840 C   0  0  0  0  0  0  0  0  0  0  0  0
  132.7830  130.7080   60.3570 C   0  0  0  0  0  0  0  0  0  0  0  0
  131.3880  130.7470   60.3670 C   0  0  0  0  0  0  0  0  0  0  0  0
  130.6890  131.0810   59.2050 C   0  0  0  0  0  0  0  0  0  0  0  0
  129.3060  127.2600   62.0670 C   0  0  0  0  0  0  0  0  0  0  0  0
  129.2980  126.0710   62.3160 O   0  0  0  0  0  0  0  0  0  0  0  0
  130.4140  128.0070   61.7910 O   0  0  0  0  0  0  0  0  0  0  0  0
  128.1680  125.7280   59.8420 N   0  0  0  0  0  0  0  0  0  0  0  0
  128.8660  124.7720   58.9310 C   0  0  0  0  0  0  0  0  0  0  0  0
  129.7910  125.7260   58.1030 C   0  0  0  0  0  0  0  0  0  0  0  0
  129.8950  125.6170   56.7060 C   0  0  0  0  0  0  0  0  0  0  0  0
  130.7200  126.4710   55.9800 C   0  0  0  0  0  0  0  0  0  0  0  0
  131.4640  127.4430   56.6400 C   0  0  0  0  0  0  0  0  0  0  0  0
  131.3800  127.5750   58.0210 C   0  0  0  0  0  0  0  0  0  0  0  0
  130.5470  126.7270   58.7450 C   0  0  0  0  0  0  0  0  0  0  0  0
  129.6760  123.7780   59.8290 C   0  0  0  0  0  0  0  0  0  0  0  0
  129.0560  122.6980   60.4790 C   0  0  0  0  0  0  0  0  0  0  0  0
  129.7930  121.8370   61.2890 C   0  0  0  0  0  0  0  0  0  0  0  0
  131.1570  122.0460   61.4610 C   0  0  0  0  0  0  0  0  0  0  0  0
  131.7940  123.1070   60.8250 C   0  0  0  0  0  0  0  0  0  0  0  0
  131.0580  123.9600   60.0090 C   0  0  0  0  0  0  0  0  0  0  0  0
  127.7470  124.1050   58.0620 C   0  0  0  0  0  0  0  0  0  0  0  0
  126.4420  124.6290   58.0340 C   0  0  0  0  0  0  0  0  0  0  0  0
  125.4410  124.0350   57.2700 C   0  0  0  0  0  0  0  0  0  0  0  0
  125.7300  122.9060   56.5130 C   0  0  0  0  0  0  0  0  0  0  0  0
  127.0140  122.3730   56.5090 C   0  0  0  0  0  0  0  0  0  0  0  0
  128.0110  122.9690   57.2750 C   0  0  0  0  0  0  0  0  0  0  0  0
  126.3885  128.4338   60.6009 H   0  0  0  0  0  0  0  0  0  0  0  0
  126.4628  126.7966   61.4177 H   0  0  0  0  0  0  0  0  0  0  0  0
  127.4925  128.1213   62.9478 H   0  0  0  0  0  0  0  0  0  0  0  0
  129.4210  129.7980   61.8900 H   0  0  0  0  0  0  0  0  0  0  0  0
  127.5537  132.5452   59.4150 H   0  0  0  0  0  0  0  0  0  0  0  0
  129.1675  133.0923   60.0148 H   0  0  0  0  0  0  0  0  0  0  0  0
  128.6440  130.2773   59.2352 H   0  0  0  0  0  0  0  0  0  0  0  0
  127.0071  131.6674   57.0952 H   0  0  0  0  0  0  0  0  0  0  0  0
  127.3260  132.2653   54.6940 H   0  0  0  0  0  0  0  0  0  0  0  0
  129.6256  132.4741   53.7513 H   0  0  0  0  0  0  0  0  0  0  0  0
  131.6158  132.0792   55.2093 H   0  0  0  0  0  0  0  0  0  0  0  0
  133.3380  131.5638   57.0952 H   0  0  0  0  0  0  0  0  0  0  0  0
  134.5805  130.9691   59.1780 H   0  0  0  0  0  0  0  0  0  0  0  0
  133.3325  130.4471   61.2735 H   0  0  0  0  0  0  0  0  0  0  0  0
  130.8385  130.5144   61.2911 H   0  0  0  0  0  0  0  0  0  0  0  0
  130.5720  128.6830   62.4530 H   0  0  0  0  0  0  0  0  0  0  0  0
  128.1310  125.3900   60.7930 H   0  0  0  0  0  0  0  0  0  0  0  0
  129.3157  124.8451   56.1782 H   0  0  0  0  0  0  0  0  0  0  0  0
  130.7835  126.3773   54.8858 H   0  0  0  0  0  0  0  0  0  0  0  0
  132.1227  128.1111   56.0658 H   0  0  0  0  0  0  0  0  0  0  0  0
  131.9690  128.3460   58.5393 H   0  0  0  0  0  0  0  0  0  0  0  0
  130.4776  126.8401   59.8370 H   0  0  0  0  0  0  0  0  0  0  0  0
  127.9769  122.5304   60.3470 H   0  0  0  0  0  0  0  0  0  0  0  0
  129.2970  120.9935   61.7915 H   0  0  0  0  0  0  0  0  0  0  0  0
  131.7365  121.3677   62.1045 H   0  0  0  0  0  0  0  0  0  0  0  0
  132.8726  123.2702   60.9665 H   0  0  0  0  0  0  0  0  0  0  0  0
  131.5658  124.7903   59.4964 H   0  0  0  0  0  0  0  0  0  0  0  0
  126.2078  125.5253   58.6271 H   0  0  0  0  0  0  0  0  0  0  0  0
  124.4255  124.4577   57.2656 H   0  0  0  0  0  0  0  0  0  0  0  0
  124.9388  122.4316   55.9139 H   0  0  0  0  0  0  0  0  0  0  0  0
  127.2408  121.4837   55.9027 H   0  0  0  0  0  0  0  0  0  0  0  0
  129.0254  122.5437   57.2651 H   0  0  0  0  0  0  0  0  0  0  0  0
  1  2  2  0
  2  3  1  0
  3  4  1  0
  4  5  1  0
  5  6  1  0
  6  7  2  0
  6  8  1  0
  8  9  1  0
  9 10  1  0
 10 11  1  0
 11 12  2  0
 12 13  1  0
 13 14  2  0
 14 15  1  0
 15 16  2  0
 16 17  1  0
 17 18  2  0
 18 19  1  0
 19 20  2  0
 20 21  1  0
 21 22  2  0
  4 23  1  0
 23 24  2  0
 23 25  1  0
  2 26  1  0
 26 27  1  0
 27 28  1  0
 28 29  2  0
 29 30  1  0
 30 31  2  0
 31 32  1  0
 32 33  2  0
 27 34  1  0
 34 35  2  0
 35 36  1  0
 36 37  2  0
 37 38  1  0
 38 39  2  0
 27 40  1  0
 40 41  2  0
 41 42  1  0
 42 43  2  0
 43 44  1  0
 44 45  2  0
 22 10  1  0
 33 28  1  0
 39 34  1  0
 45 40  1  0
 16 11  1  0
 22 17  1  0
  3 46  1  0
  3 47  1  0
  4 48  1  1
  5 49  1  0
  9 50  1  0
  9 51  1  0
 10 52  1  0
 12 53  1  0
 13 54  1  0
 14 55  1  0
 15 56  1  0
 18 57  1  0
 19 58  1  0
 20 59  1  0
 21 60  1  0
 25 61  1  0
 26 62  1  0
 29 63  1  0
 30 64  1  0
 31 65  1  0
 32 66  1  0
 33 67  1  0
 35 68  1  0
 36 69  1  0
 37 70  1  0
 38 71  1  0
 39 72  1  0
 41 73  1  0
 42 74  1  0
 43 75  1  0
 44 76  1  0
 45 77  1  0
M  END
>  <Binding energies>  (1) 
[-9.94]

>  <Ligand effiencies>  (1) 
[-0.2070833333333333]

>  <Interactions>  (1) 
["V-B:TYR:539:CE2:9845, V-B:PRO:540:N:9853, V-B:PRO:540:CB:9854, V-B:TYR:539:CZ:9846, V-A:LEU:475:CD1:4254, V-B:PRO:540:CA:9852, V-B:TYR:539:CD1:9842, V-B:TYR:539:C:9836, V-B:LEU:363:CD1:8157, V-B:ALA:541:CB:9861, V-B:TYR:539:CE1:9844, V-B:ILE:538:CB:9831, H-B:GLU:543:OE2:9879, V-B:MET:535:CE:9804, V-A:GLU:543:CD:4905, V-A:ASP:366:CB:3208, H-A:ARG:545:NH2:4925, V-A:ASP:366:CG:3209, V-B:PRO:540:CD:9856, V-A:PRO:540:CB:4882, V-A:TYR:539:CE1:4872, V-A:PRO:540:CA:4880, V-A:LEU:363:CD1:3185, V-A:TYR:531:CZ:4791, V-A:ILE:538:CG2:4860, V-A:ILE:538:CA:4857, V-A:ILE:538:CD1:4862, V-A:TYR:539:CZ:4874, V-B:TYR:539:CD2:9843, V-A:LEU:363:CA:3181, V-A:TYR:539:CD2:4871, V-A:TYR:539:CE2:4873, V-A:ASN:362:CB:3172, H-A:GLU:543:OE1:4906, V-A:ASN:362:C:3168, H-A:GLU:543:OE2:4907"]

$$$$
RR5_Rahimova_2017-again1
     RDKit          3D

 76 81  0  0  0  0  0  0  0  0999 V2000
  128.1800  123.4200   57.3780 O   0  0  0  0  0  0  0  0  0  0  0  0
  128.9910  124.3290   57.5530 C   0  0  0  0  0  0  0  0  0  0  0  0
  130.0200  124.6310   56.4430 C   0  0  0  0  0  0  0  0  0  0  0  0
  131.3250  125.3750   56.8780 C   0  0  2  0  0  0  0  0  0  0  0  0
  130.9770  126.7390   57.3280 N   0  0  0  0  0  0  0  0  0  0  0  0
  130.3170  127.6370   56.4950 C   0  0  0  0  0  0  0  0  0  0  0  0
  129.9730  127.4370   55.3260 O   0  0  0  0  0  0  0  0  0  0  0  0
  130.1080  128.7810   57.1730 O   0  0  0  0  0  0  0  0  0  0  0  0
  129.4970  129.9020   56.5440 C   0  0  0  0  0  0  0  0  0  0  0  0
  130.0070  131.2090   57.1810 C   0  0  0  0  0  0  0  0  0  0  0  0
  129.0960  131.7510   58.2670 C   0  0  0  0  0  0  0  0  0  0  0  0
  127.7560  132.1420   58.1950 C   0  0  0  0  0  0  0  0  0  0  0  0
  127.1020  132.6020   59.3390 C   0  0  0  0  0  0  0  0  0  0  0  0
  127.7840  132.6770   60.5550 C   0  0  0  0  0  0  0  0  0  0  0  0
  129.1240  132.2920   60.6300 C   0  0  0  0  0  0  0  0  0  0  0  0
  129.7760  131.8310   59.4840 C   0  0  0  0  0  0  0  0  0  0  0  0
  131.1600  131.3800   59.2750 C   0  0  0  0  0  0  0  0  0  0  0  0
  132.2370  131.2790   60.1580 C   0  0  0  0  0  0  0  0  0  0  0  0
  133.4720  130.8250   59.6920 C   0  0  0  0  0  0  0  0  0  0  0  0
  133.6280  130.4740   58.3500 C   0  0  0  0  0  0  0  0  0  0  0  0
  132.5490  130.5740   57.4690 C   0  0  0  0  0  0  0  0  0  0  0  0
  131.3100  131.0250   57.9330 C   0  0  0  0  0  0  0  0  0  0  0  0
  132.4100  125.3930   55.7270 C   0  0  0  0  0  0  0  0  0  0  0  0
  132.5290  124.3070   55.1120 O   0  0  0  0  0  0  0  0  0  0  0  0
  133.0010  126.4810   55.5240 O   0  0  0  0  0  0  0  0  0  0  0  0
  128.9470  125.1580   58.6180 N   0  0  0  0  0  0  0  0  0  0  0  0
  128.0610  125.1190   59.8100 C   0  0  0  0  0  0  0  0  0  0  0  0
  128.0560  126.5100   60.5200 C   0  0  0  0  0  0  0  0  0  0  0  0
  129.1490  127.3860   60.3990 C   0  0  0  0  0  0  0  0  0  0  0  0
  129.1430  128.6320   61.0200 C   0  0  0  0  0  0  0  0  0  0  0  0
  128.0380  129.0210   61.7700 C   0  0  0  0  0  0  0  0  0  0  0  0
  126.9410  128.1750   61.9020 C   0  0  0  0  0  0  0  0  0  0  0  0
  126.9500  126.9300   61.2810 C   0  0  0  0  0  0  0  0  0  0  0  0
  126.5510  124.8540   59.5090 C   0  0  0  0  0  0  0  0  0  0  0  0
  125.7810  124.0300   60.3490 C   0  0  0  0  0  0  0  0  0  0  0  0
  124.4360  123.7920   60.0830 C   0  0  0  0  0  0  0  0  0  0  0  0
  123.8370  124.3800   58.9740 C   0  0  0  0  0  0  0  0  0  0  0  0
  124.5740  125.2090   58.1330 C   0  0  0  0  0  0  0  0  0  0  0  0
  125.9200  125.4450   58.4010 C   0  0  0  0  0  0  0  0  0  0  0  0
  128.7080  124.0300   60.7330 C   0  0  0  0  0  0  0  0  0  0  0  0
  128.8880  122.7050   60.3000 C   0  0  0  0  0  0  0  0  0  0  0  0
  129.4810  121.7540   61.1250 C   0  0  0  0  0  0  0  0  0  0  0  0
  129.9170  122.1180   62.3940 C   0  0  0  0  0  0  0  0  0  0  0  0
  129.7720  123.4270   62.8400 C   0  0  0  0  0  0  0  0  0  0  0  0
  129.1780  124.3760   62.0130 C   0  0  0  0  0  0  0  0  0  0  0  0
  130.3172  123.6717   55.9941 H   0  0  0  0  0  0  0  0  0  0  0  0
  129.5093  125.3215   55.7557 H   0  0  0  0  0  0  0  0  0  0  0  0
  131.7833  124.8277   57.7149 H   0  0  0  0  0  0  0  0  0  0  0  0
  131.1670  126.9960   58.2860 H   0  0  0  0  0  0  0  0  0  0  0  0
  129.7455  129.8982   55.4725 H   0  0  0  0  0  0  0  0  0  0  0  0
  128.4067  129.8388   56.6753 H   0  0  0  0  0  0  0  0  0  0  0  0
  130.0851  131.8769   56.3105 H   0  0  0  0  0  0  0  0  0  0  0  0
  127.2173  132.0872   57.2375 H   0  0  0  0  0  0  0  0  0  0  0  0
  126.0464  132.9063   59.2824 H   0  0  0  0  0  0  0  0  0  0  0  0
  127.2652  133.0397   61.4546 H   0  0  0  0  0  0  0  0  0  0  0  0
  129.6635  132.3514   61.5868 H   0  0  0  0  0  0  0  0  0  0  0  0
  132.1128  131.5558   61.2153 H   0  0  0  0  0  0  0  0  0  0  0  0
  134.3237  130.7437   60.3834 H   0  0  0  0  0  0  0  0  0  0  0  0
  134.6029  130.1179   57.9856 H   0  0  0  0  0  0  0  0  0  0  0  0
  132.6740  130.2983   56.4115 H   0  0  0  0  0  0  0  0  0  0  0  0
  129.7000  125.8260   58.6890 H   0  0  0  0  0  0  0  0  0  0  0  0
  130.0229  127.0820   59.8041 H   0  0  0  0  0  0  0  0  0  0  0  0
  130.0071  129.3050   60.9181 H   0  0  0  0  0  0  0  0  0  0  0  0
  128.0312  130.0046   62.2624 H   0  0  0  0  0  0  0  0  0  0  0  0
  126.0697  128.4895   62.4953 H   0  0  0  0  0  0  0  0  0  0  0  0
  126.0802  126.2649   61.3866 H   0  0  0  0  0  0  0  0  0  0  0  0
  126.2491  123.5664   61.2299 H   0  0  0  0  0  0  0  0  0  0  0  0
  123.8487  123.1412   60.7474 H   0  0  0  0  0  0  0  0  0  0  0  0
  122.7750  124.1889   58.7603 H   0  0  0  0  0  0  0  0  0  0  0  0
  124.0949  125.6760   57.2599 H   0  0  0  0  0  0  0  0  0  0  0  0
  126.4977  126.1036   57.7358 H   0  0  0  0  0  0  0  0  0  0  0  0
  128.5547  122.4150   59.2926 H   0  0  0  0  0  0  0  0  0  0  0  0
  129.6043  120.7186   60.7745 H   0  0  0  0  0  0  0  0  0  0  0  0
  130.3797  121.3655   63.0495 H   0  0  0  0  0  0  0  0  0  0  0  0
  130.1252  123.7114   63.8422 H   0  0  0  0  0  0  0  0  0  0  0  0
  129.0745  125.4127   62.3658 H   0  0  0  0  0  0  0  0  0  0  0  0
  1  2  2  0
  2  3  1  0
  3  4  1  0
  4  5  1  0
  5  6  1  0
  6  7  2  0
  6  8  1  0
  8  9  1  0
  9 10  1  0
 10 11  1  0
 11 12  2  0
 12 13  1  0
 13 14  2  0
 14 15  1  0
 15 16  2  0
 16 17  1  0
 17 18  2  0
 18 19  1  0
 19 20  2  0
 20 21  1  0
 21 22  2  0
  4 23  1  0
 23 24  2  0
 23 25  1  0
  2 26  1  0
 26 27  1  0
 27 28  1  0
 28 29  2  0
 29 30  1  0
 30 31  2  0
 31 32  1  0
 32 33  2  0
 27 34  1  0
 34 35  2  0
 35 36  1  0
 36 37  2  0
 37 38  1  0
 38 39  2  0
 27 40  1  0
 40 41  2  0
 41 42  1  0
 42 43  2  0
 43 44  1  0
 44 45  2  0
 22 10  1  0
 33 28  1  0
 39 34  1  0
 45 40  1  0
 16 11  1  0
 22 17  1  0
  3 46  1  0
  3 47  1  0
  4 48  1  1
  5 49  1  0
  9 50  1  0
  9 51  1  0
 10 52  1  0
 12 53  1  0
 13 54  1  0
 14 55  1  0
 15 56  1  0
 18 57  1  0
 19 58  1  0
 20 59  1  0
 21 60  1  0
 26 61  1  0
 29 62  1  0
 30 63  1  0
 31 64  1  0
 32 65  1  0
 33 66  1  0
 35 67  1  0
 36 68  1  0
 37 69  1  0
 38 70  1  0
 39 71  1  0
 41 72  1  0
 42 73  1  0
 43 74  1  0
 44 75  1  0
 45 76  1  0
M  CHG  1  25  -1
M  END
>  <Binding energies>  (1) 
[-9.97]

>  <Ligand effiencies>  (1) 
[-0.2121276595744681]

>  <Interactions>  (1) 
["V-B:TYR:539:CE2:9845, V-B:PRO:540:CB:9854, V-B:TYR:539:CZ:9846, V-B:PRO:540:CA:9852, V-B:LEU:363:CD1:8157, V-B:ALA:541:CB:9861, V-B:TYR:539:CE1:9844, V-B:GLU:543:CD:9877, V-B:MET:535:CE:9804, V-A:ASP:366:CB:3208, H-B:TYR:539:OH:9847, V-A:ASP:366:CG:3209, V-A:TYR:531:CE1:4789, V-A:ASP:366:C:3204, H-A:TYR:531:OH:4792, V-B:LEU:363:CA:8153, V-A:PRO:540:CB:4882, V-A:PRO:540:CA:4880, V-B:ASP:366:CB:8180, V-B:TYR:539:CD2:9843, V-A:LEU:363:CA:3181, V-A:TYR:539:CD2:4871, V-A:LEU:363:CB:3183, V-A:TYR:539:CE2:4873, V-A:ASN:362:CB:3172, V-A:ASN:362:C:3168, V-A:ALA:541:CB:4889, H-A:ASP:366:OD1:3210"]

$$$$
RR6_Rahimova_2017
     RDKit          3D

 63 66  0  0  0  0  0  0  0  0999 V2000
  128.0330  122.7520   54.8410 C   0  0  0  0  0  0  0  0  0  0  0  0
  127.5640  121.9090   55.8840 O   0  0  0  0  0  0  0  0  0  0  0  0
  126.4970  122.2650   56.6440 C   0  0  0  0  0  0  0  0  0  0  0  0
  125.3340  122.2650   56.2260 O   0  0  0  0  0  0  0  0  0  0  0  0
  126.8690  122.6580   58.0440 C   0  0  0  0  0  0  0  0  0  0  0  0
  126.1070  123.5720   58.7870 C   0  0  0  0  0  0  0  0  0  0  0  0
  126.4840  123.9220   60.0820 C   0  0  0  0  0  0  0  0  0  0  0  0
  127.6360  123.3640   60.6550 C   0  0  0  0  0  0  0  0  0  0  0  0
  128.1210  123.6690   61.9410 N   0  0  0  0  0  0  0  0  0  0  0  0
  129.3900  123.6420   62.4060 C   0  0  0  0  0  0  0  0  0  0  0  0
  130.3850  123.3400   61.7470 O   0  0  0  0  0  0  0  0  0  0  0  0
  129.5550  123.9590   63.8960 C   0  0  0  0  0  0  0  0  0  0  0  0
  130.5210  125.4710   64.2210 S   0  0  0  0  0  0  0  0  0  0  0  0
  129.4630  126.5680   65.1420 C   0  0  0  0  0  0  0  0  0  0  0  0
  129.5420  126.4210   66.4870 N   0  0  0  0  0  0  0  0  0  0  0  0
  128.8040  127.2210   67.2960 C   0  0  0  0  0  0  0  0  0  0  0  0
  128.9960  127.0360   68.7730 C   0  0  0  0  0  0  0  0  0  0  0  0
  128.1400  126.2060   69.5140 C   0  0  0  0  0  0  0  0  0  0  0  0
  128.3100  126.0450   70.8860 C   0  0  0  0  0  0  0  0  0  0  0  0
  129.3460  126.7070   71.5440 C   0  0  0  0  0  0  0  0  0  0  0  0
  129.5220  126.5350   73.0420 C   0  0  0  0  0  0  0  0  0  0  0  0
  130.2080  127.5330   70.8260 C   0  0  0  0  0  0  0  0  0  0  0  0
  130.0340  127.6900   69.4550 C   0  0  0  0  0  0  0  0  0  0  0  0
  127.9510  128.1900   66.7590 C   0  0  0  0  0  0  0  0  0  0  0  0
  127.8480  128.3590   65.3710 C   0  0  0  0  0  0  0  0  0  0  0  0
  126.9310  129.4240   64.8650 C   0  0  0  0  0  0  0  0  0  0  0  0
  125.5780  129.1440   64.6510 C   0  0  0  0  0  0  0  0  0  0  0  0
  124.7140  130.1350   64.1950 C   0  0  0  0  0  0  0  0  0  0  0  0
  125.1820  131.4250   63.9500 C   0  0  0  0  0  0  0  0  0  0  0  0
  124.2530  132.3440   63.5020 O   0  0  0  0  0  0  0  0  0  0  0  0
  123.9060  132.3630   62.1220 C   0  0  0  0  0  0  0  0  0  0  0  0
  126.5380  131.7130   64.1690 C   0  0  0  0  0  0  0  0  0  0  0  0
  127.3990  130.7200   64.6250 C   0  0  0  0  0  0  0  0  0  0  0  0
  128.6220  127.5200   64.5310 C   0  0  0  0  0  0  0  0  0  0  0  0
  128.5400  127.6230   63.0710 C   0  0  0  0  0  0  0  0  0  0  0  0
  128.4760  127.7070   61.9180 N   0  0  0  0  0  0  0  0  0  0  0  0
  128.3870  122.4420   59.9260 C   0  0  0  0  0  0  0  0  0  0  0  0
  128.0100  122.0950   58.6300 C   0  0  0  0  0  0  0  0  0  0  0  0
  128.5242  123.6349   55.2760 H   0  0  0  0  0  0  0  0  0  0  0  0
  128.7538  122.2003   54.2197 H   0  0  0  0  0  0  0  0  0  0  0  0
  127.1841  123.0736   54.2197 H   0  0  0  0  0  0  0  0  0  0  0  0
  125.2038  124.0163   58.3433 H   0  0  0  0  0  0  0  0  0  0  0  0
  125.8768  124.6374   60.6560 H   0  0  0  0  0  0  0  0  0  0  0  0
  127.4010  123.8530   62.6240 H   0  0  0  0  0  0  0  0  0  0  0  0
  128.5552  124.0841   64.3372 H   0  0  0  0  0  0  0  0  0  0  0  0
  130.1093  123.1209   64.3435 H   0  0  0  0  0  0  0  0  0  0  0  0
  127.3232  125.6753   69.0030 H   0  0  0  0  0  0  0  0  0  0  0  0
  127.6265  125.3949   71.4518 H   0  0  0  0  0  0  0  0  0  0  0  0
  128.8326  127.2087   73.5719 H   0  0  0  0  0  0  0  0  0  0  0  0
  129.3027  125.4935   73.3198 H   0  0  0  0  0  0  0  0  0  0  0  0
  130.5582  126.7782   73.3198 H   0  0  0  0  0  0  0  0  0  0  0  0
  131.0242  128.0597   71.3421 H   0  0  0  0  0  0  0  0  0  0  0  0
  130.7229  128.3390   68.8945 H   0  0  0  0  0  0  0  0  0  0  0  0
  127.3556  128.8252   67.4313 H   0  0  0  0  0  0  0  0  0  0  0  0
  125.1932  128.1319   64.8447 H   0  0  0  0  0  0  0  0  0  0  0  0
  123.6530  129.8985   64.0265 H   0  0  0  0  0  0  0  0  0  0  0  0
  122.8124  132.4229   62.0197 H   0  0  0  0  0  0  0  0  0  0  0  0
  124.3678  133.2372   61.6398 H   0  0  0  0  0  0  0  0  0  0  0  0
  124.2696  131.4436   61.6398 H   0  0  0  0  0  0  0  0  0  0  0  0
  126.9210  132.7266   63.9796 H   0  0  0  0  0  0  0  0  0  0  0  0
  128.4591  130.9566   64.7987 H   0  0  0  0  0  0  0  0  0  0  0  0
  129.2813  121.9865   60.3763 H   0  0  0  0  0  0  0  0  0  0  0  0
  128.6141  121.3722   58.0619 H   0  0  0  0  0  0  0  0  0  0  0  0
  1  2  1  0
  2  3  1  0
  3  4  2  0
  3  5  1  0
  5  6  2  0
  6  7  1  0
  7  8  2  0
  8  9  1  0
  9 10  1  0
 10 11  2  0
 10 12  1  0
 12 13  1  0
 13 14  1  0
 14 15  2  0
 15 16  1  0
 16 17  1  0
 17 18  2  0
 18 19  1  0
 19 20  2  0
 20 21  1  0
 20 22  1  0
 22 23  2  0
 16 24  2  0
 24 25  1  0
 25 26  1  0
 26 27  2  0
 27 28  1  0
 28 29  2  0
 29 30  1  0
 30 31  1  0
 29 32  1  0
 32 33  2  0
 25 34  2  0
 34 35  1  0
 35 36  3  0
  8 37  1  0
 37 38  2  0
 38  5  1  0
 34 14  1  0
 23 17  1  0
 33 26  1  0
  1 39  1  0
  1 40  1  0
  1 41  1  0
  6 42  1  0
  7 43  1  0
  9 44  1  0
 12 45  1  0
 12 46  1  0
 18 47  1  0
 19 48  1  0
 21 49  1  0
 21 50  1  0
 21 51  1  0
 22 52  1  0
 23 53  1  0
 24 54  1  0
 27 55  1  0
 28 56  1  0
 31 57  1  0
 31 58  1  0
 31 59  1  0
 32 60  1  0
 33 61  1  0
 37 62  1  0
 38 63  1  0
M  END
>  <Binding energies>  (1) 
[-10.91]

>  <Ligand effiencies>  (1) 
[-0.27974358974358976]

>  <Interactions>  (1) 
["V-B:TYR:539:CE2:9845, V-B:PRO:540:N:9853, V-B:PRO:540:CB:9854, V-B:TYR:539:CZ:9846, V-B:PRO:540:CA:9852, H-B:TYR:539:N:9839, V-B:TYR:539:CD1:9842, V-B:ILE:538:CA:9829, V-B:TYR:539:C:9836, V-B:ALA:541:CB:9861, V-B:ILE:538:CG2:9832, V-B:TYR:539:CE1:9844, V-B:GLU:543:CD:9877, V-B:ILE:538:CB:9831, V-B:GLU:543:CG:9876, H-B:GLU:543:OE2:9879, V-B:MET:535:CE:9804, V-A:GLU:543:CD:4905, V-A:HIS:456:CE1:4066, V-A:GLU:543:CG:4904, V-B:GLU:543:CB:9875, V-B:PRO:540:CD:9856, V-B:TYR:539:CG:9841, V-B:TYR:539:CD2:9843, V-B:LYS:547:CE:9919, V-B:HIS:456:CE1:9038, V-B:GLY:544:C:9881, V-B:GLY:454:CA:9017, V-B:ARG:545:CZ:9895, V-B:ILE:369:CD1:8207, V-B:GLU:543:C:9871, V-A:HIS:456:CD2:4064, H-B:GLY:454:N:9018"]

$$$$
RR7_Rahimova_2017
     RDKit          3D

 80 86  0  0  0  0  0  0  0  0999 V2000
  125.0050  130.7200   58.4450 C   0  0  0  0  0  0  0  0  0  0  0  0
  126.4150  130.5840   58.5960 O   0  0  0  0  0  0  0  0  0  0  0  0
  126.9860  129.3310   58.4840 C   0  0  0  0  0  0  0  0  0  0  0  0
  127.4570  128.9720   57.2230 C   0  0  0  0  0  0  0  0  0  0  0  0
  128.0520  127.7320   57.0150 C   0  0  0  0  0  0  0  0  0  0  0  0
  128.1810  126.8120   58.0660 C   0  0  0  0  0  0  0  0  0  0  0  0
  128.8740  125.4280   57.8690 C   0  0  0  0  0  0  0  0  0  0  0  0
  129.3690  125.0320   59.1680 O   0  0  0  0  0  0  0  0  0  0  0  0
  130.2460  123.9080   59.2890 C   0  0  0  0  0  0  0  0  0  0  0  0
  131.6730  124.4130   59.5560 C   0  0  1  0  0  0  0  0  0  0  0  0
  131.5960  125.2980   60.6700 O   0  0  0  0  0  0  0  0  0  0  0  0
  132.4030  124.8750   61.7310 C   0  0  1  0  0  0  0  0  0  0  0  0
  131.7930  125.2350   62.9970 N   0  0  0  0  0  0  0  0  0  0  0  0
  132.0930  124.7470   64.2560 C   0  0  0  0  0  0  0  0  0  0  0  0
  131.3500  125.2140   65.2300 N   0  0  0  0  0  0  0  0  0  0  0  0
  130.4580  126.0350   64.5950 C   0  0  0  0  0  0  0  0  0  0  0  0
  129.3920  126.8200   65.0760 C   0  0  0  0  0  0  0  0  0  0  0  0
  129.1310  126.8300   66.4590 N   0  0  0  0  0  0  0  0  0  0  0  0
  129.9170  127.2660   67.4720 C   0  0  0  0  0  0  0  0  0  0  0  0
  131.0510  127.7290   67.3210 O   0  0  0  0  0  0  0  0  0  0  0  0
  129.3340  127.1260   68.8620 C   0  0  0  0  0  0  0  0  0  0  0  0
  129.9920  127.7140   69.9530 C   0  0  0  0  0  0  0  0  0  0  0  0
  129.4700  127.6020   71.2380 C   0  0  0  0  0  0  0  0  0  0  0  0
  128.2830  126.9060   71.4430 C   0  0  0  0  0  0  0  0  0  0  0  0
  127.6120  126.3200   70.3740 C   0  0  0  0  0  0  0  0  0  0  0  0
  128.1340  126.4300   69.0870 C   0  0  0  0  0  0  0  0  0  0  0  0
  128.6420  127.5420   64.1900 N   0  0  0  0  0  0  0  0  0  0  0  0
  128.9670  127.4650   62.8730 C   0  0  0  0  0  0  0  0  0  0  0  0
  129.9720  126.7460   62.3040 N   0  0  0  0  0  0  0  0  0  0  0  0
  130.6930  126.0550   63.1960 C   0  0  0  0  0  0  0  0  0  0  0  0
  132.6000  123.3790   61.5140 C   0  0  0  0  0  0  0  0  0  0  0  0
  132.6720  123.3330   59.9970 C   0  0  2  0  0  0  0  0  0  0  0  0
  133.9830  123.5820   59.5200 O   0  0  0  0  0  0  0  0  0  0  0  0
  127.8780  124.3290   57.4090 C   0  0  0  0  0  0  0  0  0  0  0  0
  126.5960  124.6800   56.9580 C   0  0  0  0  0  0  0  0  0  0  0  0
  125.6910  123.7030   56.5570 C   0  0  0  0  0  0  0  0  0  0  0  0
  126.0580  122.3620   56.6040 C   0  0  0  0  0  0  0  0  0  0  0  0
  127.3240  121.9910   57.0480 C   0  0  0  0  0  0  0  0  0  0  0  0
  128.2290  122.9700   57.4500 C   0  0  0  0  0  0  0  0  0  0  0  0
  130.0380  125.3940   56.8380 C   0  0  0  0  0  0  0  0  0  0  0  0
  129.9500  124.5860   55.6940 C   0  0  0  0  0  0  0  0  0  0  0  0
  130.9900  124.5410   54.7710 C   0  0  0  0  0  0  0  0  0  0  0  0
  132.1370  125.3010   54.9880 C   0  0  0  0  0  0  0  0  0  0  0  0
  132.2510  126.0980   56.1220 C   0  0  0  0  0  0  0  0  0  0  0  0
  131.2090  126.1410   57.0440 C   0  0  0  0  0  0  0  0  0  0  0  0
  127.7180  127.1840   59.3370 C   0  0  0  0  0  0  0  0  0  0  0  0
  127.1230  128.4250   59.5460 C   0  0  0  0  0  0  0  0  0  0  0  0
  124.5327  130.7656   59.4374 H   0  0  0  0  0  0  0  0  0  0  0  0
  124.7830  131.6437   57.8905 H   0  0  0  0  0  0  0  0  0  0  0  0
  124.6106  129.8557   57.8905 H   0  0  0  0  0  0  0  0  0  0  0  0
  127.3574  129.6760   56.3837 H   0  0  0  0  0  0  0  0  0  0  0  0
  128.4259  127.4697   56.0143 H   0  0  0  0  0  0  0  0  0  0  0  0
  129.9175  123.2722   60.1243 H   0  0  0  0  0  0  0  0  0  0  0  0
  130.2276  123.3205   58.3592 H   0  0  0  0  0  0  0  0  0  0  0  0
  132.0243  124.8476   58.6085 H   0  0  0  0  0  0  0  0  0  0  0  0
  133.3880  125.3636   61.7631 H   0  0  0  0  0  0  0  0  0  0  0  0
  132.8986  124.0181   64.4280 H   0  0  0  0  0  0  0  0  0  0  0  0
  128.2300  126.4530   66.7180 H   0  0  0  0  0  0  0  0  0  0  0  0
  130.9283  128.2681   69.7911 H   0  0  0  0  0  0  0  0  0  0  0  0
  129.9940  128.0621   72.0887 H   0  0  0  0  0  0  0  0  0  0  0  0
  127.8712  126.8181   72.4592 H   0  0  0  0  0  0  0  0  0  0  0  0
  126.6734  125.7723   70.5444 H   0  0  0  0  0  0  0  0  0  0  0  0
  127.6032  125.9689   68.2411 H   0  0  0  0  0  0  0  0  0  0  0  0
  128.3432  128.0543   62.1848 H   0  0  0  0  0  0  0  0  0  0  0  0
  133.5309  123.0195   61.9769 H   0  0  0  0  0  0  0  0  0  0  0  0
  131.8205  122.7424   61.9579 H   0  0  0  0  0  0  0  0  0  0  0  0
  132.4243  122.3421   59.5886 H   0  0  0  0  0  0  0  0  0  0  0  0
  133.9970  123.4320   58.5710 H   0  0  0  0  0  0  0  0  0  0  0  0
  126.3038  125.7398   56.9213 H   0  0  0  0  0  0  0  0  0  0  0  0
  124.6893  123.9895   56.2042 H   0  0  0  0  0  0  0  0  0  0  0  0
  125.3422  121.5889   56.2879 H   0  0  0  0  0  0  0  0  0  0  0  0
  127.6084  120.9289   57.0812 H   0  0  0  0  0  0  0  0  0  0  0  0
  129.2284  122.6759   57.8031 H   0  0  0  0  0  0  0  0  0  0  0  0
  129.0473  123.9806   55.5249 H   0  0  0  0  0  0  0  0  0  0  0  0
  130.9070  123.9087   53.8747 H   0  0  0  0  0  0  0  0  0  0  0  0
  132.9585  125.2706   54.2572 H   0  0  0  0  0  0  0  0  0  0  0  0
  133.1613  126.6923   56.2897 H   0  0  0  0  0  0  0  0  0  0  0  0
  131.3039  126.7669   57.9436 H   0  0  0  0  0  0  0  0  0  0  0  0
  127.8266  126.4856   60.1798 H   0  0  0  0  0  0  0  0  0  0  0  0
  126.7588  128.6962   60.5479 H   0  0  0  0  0  0  0  0  0  0  0  0
  1  2  1  0
  2  3  1  0
  3  4  2  0
  4  5  1  0
  5  6  2  0
  6  7  1  0
  7  8  1  0
  8  9  1  0
  9 10  1  0
 10 11  1  0
 11 12  1  0
 12 13  1  0
 13 14  1  0
 14 15  2  0
 15 16  1  0
 16 17  2  0
 17 18  1  0
 18 19  1  0
 19 20  2  0
 19 21  1  0
 21 22  2  0
 22 23  1  0
 23 24  2  0
 24 25  1  0
 25 26  2  0
 17 27  1  0
 27 28  2  0
 28 29  1  0
 29 30  2  0
 12 31  1  0
 31 32  1  0
 32 33  1  0
  7 34  1  0
 34 35  2  0
 35 36  1  0
 36 37  2  0
 37 38  1  0
 38 39  2  0
  7 40  1  0
 40 41  2  0
 41 42  1  0
 42 43  2  0
 43 44  1  0
 44 45  2  0
  6 46  1  0
 46 47  2  0
 47  3  1  0
 32 10  1  0
 39 34  1  0
 45 40  1  0
 30 13  1  0
 30 16  1  0
 26 21  1  0
  1 48  1  0
  1 49  1  0
  1 50  1  0
  4 51  1  0
  5 52  1  0
  9 53  1  0
  9 54  1  0
 10 55  1  6
 12 56  1  6
 14 57  1  0
 18 58  1  0
 22 59  1  0
 23 60  1  0
 24 61  1  0
 25 62  1  0
 26 63  1  0
 28 64  1  0
 31 65  1  0
 31 66  1  0
 32 67  1  6
 33 68  1  0
 35 69  1  0
 36 70  1  0
 37 71  1  0
 38 72  1  0
 39 73  1  0
 41 74  1  0
 42 75  1  0
 43 76  1  0
 44 77  1  0
 45 78  1  0
 46 79  1  0
 47 80  1  0
M  END
>  <Binding energies>  (1) 
[-9.62]

>  <Ligand effiencies>  (1) 
[-0.1963265306122449]

>  <Interactions>  (1) 
["V-B:TYR:539:CE2:9845, V-B:PRO:540:N:9853, V-B:PRO:540:CB:9854, V-B:TYR:539:CZ:9846, V-B:PRO:540:CA:9852, V-B:TYR:539:CD1:9842, V-B:TYR:539:C:9836, V-B:LEU:363:CD1:8157, V-B:TYR:539:CE1:9844, V-B:GLU:543:CD:9877, V-B:ILE:538:CB:9831, V-B:MET:535:CE:9804, V-A:GLU:543:CD:4905, V-A:ASP:366:CB:3208, V-A:HIS:456:CE1:4066, H-B:TYR:539:OH:9847, V-A:ASP:366:CG:3209, V-B:GLU:543:CB:9875, H-A:TYR:484:OH:4344, V-A:TYR:531:CE1:4789, V-A:ASP:366:C:3204, V-A:ASN:370:CB:3241, V-B:PRO:540:CD:9856, V-B:TYR:539:CA:9838, V-B:ASP:366:CB:8180, V-B:TYR:539:CG:9841, H-B:GLU:543:OE1:9878, V-B:ASP:366:CG:8181, V-B:HIS:456:CD2:9036, V-B:GLY:544:CA:9883, V-A:GLU:543:CB:4903, V-B:HIS:456:CE1:9038, V-B:GLY:544:C:9881, V-B:GLU:543:C:9871, H-A:ASP:366:O:3205"]

$$$$
RR8_A_Rahimova_2017
     RDKit          3D

 73 77  0  0  0  0  0  0  0  0999 V2000
  131.9870  126.7720   55.9170 O   0  0  0  0  0  0  0  0  0  0  0  0
  130.8260  126.5810   55.5400 C   0  0  0  0  0  0  0  0  0  0  0  0
  130.1660  127.3710   54.6370 O   0  0  0  0  0  0  0  0  0  0  0  0
  129.4910  128.4950   55.1300 C   0  0  1  0  0  0  0  0  0  0  0  0
  128.3300  128.7620   54.3980 O   0  0  0  0  0  0  0  0  0  0  0  0
  127.2650  129.2030   55.2350 C   0  0  2  0  0  0  0  0  0  0  0  0
  126.7650  130.5630   54.7170 C   0  0  0  0  0  0  0  0  0  0  0  0
  127.6450  131.0170   53.6980 O   0  0  0  0  0  0  0  0  0  0  0  0
  128.1420  132.3320   53.9080 C   0  0  0  0  0  0  0  0  0  0  0  0
  128.9510  132.3790   55.1950 C   0  0  0  0  0  0  0  0  0  0  0  0
  130.3470  132.3910   55.1410 C   0  0  0  0  0  0  0  0  0  0  0  0
  131.0910  132.4400   56.3180 C   0  0  0  0  0  0  0  0  0  0  0  0
  130.4350  132.4810   57.5470 C   0  0  0  0  0  0  0  0  0  0  0  0
  129.0430  132.4750   57.6100 C   0  0  0  0  0  0  0  0  0  0  0  0
  128.3000  132.4270   56.4330 C   0  0  0  0  0  0  0  0  0  0  0  0
  127.8860  129.2190   56.6380 C   0  0  1  0  0  0  0  0  0  0  0  0
  126.9890  128.7750   57.6540 O   0  0  0  0  0  0  0  0  0  0  0  0
  125.7670  129.4970   57.7560 C   0  0  0  0  0  0  0  0  0  0  0  0
  125.9420  130.6830   58.6930 C   0  0  0  0  0  0  0  0  0  0  0  0
  127.0600  130.7460   59.5320 C   0  0  0  0  0  0  0  0  0  0  0  0
  127.2220  131.8240   60.3980 C   0  0  0  0  0  0  0  0  0  0  0  0
  126.2640  132.8360   60.4270 C   0  0  0  0  0  0  0  0  0  0  0  0
  125.1450  132.7780   59.6010 C   0  0  0  0  0  0  0  0  0  0  0  0
  124.9810  131.6990   58.7360 C   0  0  0  0  0  0  0  0  0  0  0  0
  129.0000  128.1930   56.5390 C   0  0  2  0  0  0  0  0  0  0  0  0
  129.9810  128.4170   57.5480 O   0  0  0  0  0  0  0  0  0  0  0  0
  131.1080  129.1900   57.1510 C   0  0  0  0  0  0  0  0  0  0  0  0
  131.7320  129.8590   58.3660 C   0  0  0  0  0  0  0  0  0  0  0  0
  133.0280  130.3820   58.2940 C   0  0  0  0  0  0  0  0  0  0  0  0
  133.5910  131.0030   59.4060 C   0  0  0  0  0  0  0  0  0  0  0  0
  132.8570  131.1030   60.5860 C   0  0  0  0  0  0  0  0  0  0  0  0
  131.5650  130.5890   60.6640 C   0  0  0  0  0  0  0  0  0  0  0  0
  131.0000  129.9680   59.5520 C   0  0  0  0  0  0  0  0  0  0  0  0
  129.9880  125.4350   56.0270 C   0  0  0  0  0  0  0  0  0  0  0  0
  129.5840  125.3270   57.3670 C   0  0  0  0  0  0  0  0  0  0  0  0
  128.8080  124.2510   57.7880 C   0  0  0  0  0  0  0  0  0  0  0  0
  128.4160  123.2550   56.8830 C   0  0  0  0  0  0  0  0  0  0  0  0
  127.5880  122.1100   57.3320 N   0  0  0  0  0  0  0  0  0  0  0  0
  126.7620  121.6410   56.5550 O   0  0  0  0  0  0  0  0  0  0  0  0
  127.7580  121.6710   58.4660 O   0  0  0  0  0  0  0  0  0  0  0  0
  128.8220  123.3630   55.5470 C   0  0  0  0  0  0  0  0  0  0  0  0
  129.5980  124.4380   55.1240 C   0  0  0  0  0  0  0  0  0  0  0  0
  130.1920  129.3411   55.0777 H   0  0  0  0  0  0  0  0  0  0  0  0
  126.3667  128.5682   55.2457 H   0  0  0  0  0  0  0  0  0  0  0  0
  125.7504  130.4519   54.3067 H   0  0  0  0  0  0  0  0  0  0  0  0
  126.7410  131.2908   55.5414 H   0  0  0  0  0  0  0  0  0  0  0  0
  128.7845  132.6187   53.0624 H   0  0  0  0  0  0  0  0  0  0  0  0
  127.2964  133.0312   53.9855 H   0  0  0  0  0  0  0  0  0  0  0  0
  130.8594  132.3617   54.1681 H   0  0  0  0  0  0  0  0  0  0  0  0
  132.1902  132.4463   56.2775 H   0  0  0  0  0  0  0  0  0  0  0  0
  131.0220  132.5185   58.4765 H   0  0  0  0  0  0  0  0  0  0  0  0
  128.5336  132.5080   58.5844 H   0  0  0  0  0  0  0  0  0  0  0  0
  127.2009  132.4268   56.4764 H   0  0  0  0  0  0  0  0  0  0  0  0
  128.1925  130.2395   56.9113 H   0  0  0  0  0  0  0  0  0  0  0  0
  125.4735  129.8596   56.7598 H   0  0  0  0  0  0  0  0  0  0  0  0
  124.9864  128.8326   58.1551 H   0  0  0  0  0  0  0  0  0  0  0  0
  127.8115  129.9431   59.5073 H   0  0  0  0  0  0  0  0  0  0  0  0
  128.1018  131.8768   61.0562 H   0  0  0  0  0  0  0  0  0  0  0  0
  126.3935  133.6890   61.1094 H   0  0  0  0  0  0  0  0  0  0  0  0
  124.3937  133.5809   59.6314 H   0  0  0  0  0  0  0  0  0  0  0  0
  124.0952  131.6454   58.0860 H   0  0  0  0  0  0  0  0  0  0  0  0
  128.7176  127.1413   56.6942 H   0  0  0  0  0  0  0  0  0  0  0  0
  131.8509  128.5334   56.6747 H   0  0  0  0  0  0  0  0  0  0  0  0
  130.7836  129.9632   56.4390 H   0  0  0  0  0  0  0  0  0  0  0  0
  133.6020  130.3026   57.3590 H   0  0  0  0  0  0  0  0  0  0  0  0
  134.6105  131.4127   59.3530 H   0  0  0  0  0  0  0  0  0  0  0  0
  133.3023  131.5927   61.4646 H   0  0  0  0  0  0  0  0  0  0  0  0
  130.9929  130.6729   61.5997 H   0  0  0  0  0  0  0  0  0  0  0  0
  129.9785  129.5637   59.6073 H   0  0  0  0  0  0  0  0  0  0  0  0
  129.8833  126.0995   58.0906 H   0  0  0  0  0  0  0  0  0  0  0  0
  128.4992  124.1815   58.8415 H   0  0  0  0  0  0  0  0  0  0  0  0
  128.5242  122.5894   54.8239 H   0  0  0  0  0  0  0  0  0  0  0  0
  129.9079  124.5053   54.0707 H   0  0  0  0  0  0  0  0  0  0  0  0
  1  2  2  0
  2  3  1  0
  3  4  1  0
  4  5  1  0
  5  6  1  0
  6  7  1  0
  7  8  1  0
  8  9  1  0
  9 10  1  0
 10 11  2  0
 11 12  1  0
 12 13  2  0
 13 14  1  0
 14 15  2  0
  6 16  1  0
 16 17  1  0
 17 18  1  0
 18 19  1  0
 19 20  2  0
 20 21  1  0
 21 22  2  0
 22 23  1  0
 23 24  2  0
 16 25  1  0
 25 26  1  0
 26 27  1  0
 27 28  1  0
 28 29  2  0
 29 30  1  0
 30 31  2  0
 31 32  1  0
 32 33  2  0
  2 34  1  0
 34 35  2  0
 35 36  1  0
 36 37  2  0
 37 38  1  0
 38 39  2  0
 38 40  1  0
 37 41  1  0
 41 42  2  0
 25  4  1  0
 33 28  1  0
 42 34  1  0
 15 10  1  0
 24 19  1  0
  4 43  1  1
  6 44  1  1
  7 45  1  0
  7 46  1  0
  9 47  1  0
  9 48  1  0
 11 49  1  0
 12 50  1  0
 13 51  1  0
 14 52  1  0
 15 53  1  0
 16 54  1  1
 18 55  1  0
 18 56  1  0
 20 57  1  0
 21 58  1  0
 22 59  1  0
 23 60  1  0
 24 61  1  0
 25 62  1  6
 27 63  1  0
 27 64  1  0
 29 65  1  0
 30 66  1  0
 31 67  1  0
 32 68  1  0
 33 69  1  0
 35 70  1  0
 36 71  1  0
 41 72  1  0
 42 73  1  0
M  CHG  2  38   1  40  -1
M  END
>  <Binding energies>  (1) 
[-9.89]

>  <Ligand effiencies>  (1) 
[-0.23547619047619048]

>  <Interactions>  (1) 
["V-B:PRO:540:N:9853, V-B:TYR:539:CZ:9846, V-B:PRO:540:CA:9852, H-B:TYR:539:N:9839, V-B:TYR:539:CD1:9842, V-B:TYR:539:C:9836, V-B:TYR:539:CE1:9844, V-B:MET:535:CE:9804, V-A:GLU:543:CD:4905, V-A:ASP:366:CB:3208, V-A:ASP:366:CG:3209, V-A:TYR:531:CE1:4789, H-A:TYR:531:OH:4792, H-B:TYR:531:OH:9764, V-A:PRO:540:CB:4882, V-A:TYR:539:CE1:4872, V-A:TYR:539:C:4864, V-A:PRO:540:CA:4880, V-B:TYR:539:CA:9838, V-A:PRO:540:N:4881, H-B:LYS:534:NZ:9792, V-A:TYR:539:CD1:4870, V-A:TYR:531:CZ:4791, V-A:ILE:538:CG2:4860, V-A:ILE:538:CA:4857, V-A:ILE:538:CD1:4862, V-A:TYR:539:CZ:4874, V-B:ASP:366:CB:8180, V-B:TYR:539:CG:9841, V-A:LEU:363:CA:3181, V-A:TYR:539:CD2:4871, V-A:TYR:539:CE2:4873, V-A:TYR:539:CG:4869, V-B:TYR:531:CE1:9761, V-A:ASN:362:CB:3172, V-B:ILE:369:CG2:8205, V-A:ASN:362:C:3168, V-A:PRO:540:CD:4884, V-A:ILE:538:CG1:4861, V-A:ILE:538:CB:4859"]

$$$$
RR8_B_Rahimova_2017
     RDKit          3D

 73 77  0  0  0  0  0  0  0  0999 V2000
  130.5850  132.8960   55.1260 O   0  0  0  0  0  0  0  0  0  0  0  0
  130.0700  132.1940   56.0020 C   0  0  0  0  0  0  0  0  0  0  0  0
  128.8310  131.6230   55.9050 O   0  0  0  0  0  0  0  0  0  0  0  0
  128.6480  130.5890   54.9690 C   0  0  2  0  0  0  0  0  0  0  0  0
  127.3130  130.4860   54.5600 O   0  0  0  0  0  0  0  0  0  0  0  0
  126.5870  129.5660   55.3750 C   0  0  2  0  0  0  0  0  0  0  0  0
  125.3890  130.2850   56.0210 C   0  0  0  0  0  0  0  0  0  0  0  0
  125.5530  130.2920   57.4330 O   0  0  0  0  0  0  0  0  0  0  0  0
  124.5740  131.0330   58.1460 C   0  0  0  0  0  0  0  0  0  0  0  0
  125.2610  131.8900   59.1980 C   0  0  0  0  0  0  0  0  0  0  0  0
  124.4960  132.7020   60.0400 C   0  0  0  0  0  0  0  0  0  0  0  0
  125.1200  133.5070   60.9890 C   0  0  0  0  0  0  0  0  0  0  0  0
  126.5100  133.4970   61.0930 C   0  0  0  0  0  0  0  0  0  0  0  0
  127.2790  132.6860   60.2620 C   0  0  0  0  0  0  0  0  0  0  0  0
  126.6550  131.8820   59.3110 C   0  0  0  0  0  0  0  0  0  0  0  0
  127.6330  129.0190   56.3540 C   0  0  1  0  0  0  0  0  0  0  0  0
  127.3660  127.6410   56.6300 O   0  0  0  0  0  0  0  0  0  0  0  0
  126.6830  127.3430   57.8510 C   0  0  0  0  0  0  0  0  0  0  0  0
  125.9770  125.9910   57.8030 C   0  0  0  0  0  0  0  0  0  0  0  0
  126.5350  124.9350   57.0770 C   0  0  0  0  0  0  0  0  0  0  0  0
  125.9050  123.6930   57.0620 C   0  0  0  0  0  0  0  0  0  0  0  0
  124.7170  123.5140   57.7680 C   0  0  0  0  0  0  0  0  0  0  0  0
  124.1530  124.5640   58.4890 C   0  0  0  0  0  0  0  0  0  0  0  0
  124.7850  125.8050   58.5080 C   0  0  0  0  0  0  0  0  0  0  0  0
  128.9550  129.2450   55.6270 C   0  0  2  0  0  0  0  0  0  0  0  0
  130.0320  129.2940   56.5590 O   0  0  0  0  0  0  0  0  0  0  0  0
  130.1620  128.1630   57.4070 C   0  0  0  0  0  0  0  0  0  0  0  0
  130.8130  127.0450   56.6130 C   0  0  0  0  0  0  0  0  0  0  0  0
  132.1780  127.0920   56.3160 C   0  0  0  0  0  0  0  0  0  0  0  0
  132.7610  126.0710   55.5700 C   0  0  0  0  0  0  0  0  0  0  0  0
  131.9790  125.0080   55.1230 C   0  0  0  0  0  0  0  0  0  0  0  0
  130.6180  124.9540   55.4160 C   0  0  0  0  0  0  0  0  0  0  0  0
  130.0340  125.9740   56.1630 C   0  0  0  0  0  0  0  0  0  0  0  0
  130.7320  131.9050   57.3180 C   0  0  0  0  0  0  0  0  0  0  0  0
  130.0170  131.9130   58.5240 C   0  0  0  0  0  0  0  0  0  0  0  0
  130.6590  131.6500   59.7290 C   0  0  0  0  0  0  0  0  0  0  0  0
  132.0330  131.3820   59.7620 C   0  0  0  0  0  0  0  0  0  0  0  0
  132.7210  131.1280   61.0520 N   0  0  0  0  0  0  0  0  0  0  0  0
  133.5900  130.2610   61.0940 O   0  0  0  0  0  0  0  0  0  0  0  0
  132.4010  131.7970   62.0310 O   0  0  0  0  0  0  0  0  0  0  0  0
  132.7460  131.3680   58.5560 C   0  0  0  0  0  0  0  0  0  0  0  0
  132.1040  131.6240   57.3490 C   0  0  0  0  0  0  0  0  0  0  0  0
  129.3064  130.8199   54.1186 H   0  0  0  0  0  0  0  0  0  0  0  0
  126.1281  128.7260   54.8330 H   0  0  0  0  0  0  0  0  0  0  0  0
  125.3383  131.3199   55.6515 H   0  0  0  0  0  0  0  0  0  0  0  0
  124.4585  129.7596   55.7600 H   0  0  0  0  0  0  0  0  0  0  0  0
  124.0221  131.6798   57.4481 H   0  0  0  0  0  0  0  0  0  0  0  0
  123.8717  130.3416   58.6346 H   0  0  0  0  0  0  0  0  0  0  0  0
  123.3995  132.7050   59.9527 H   0  0  0  0  0  0  0  0  0  0  0  0
  124.5199  134.1469   61.6526 H   0  0  0  0  0  0  0  0  0  0  0  0
  127.0046  134.1363   61.8391 H   0  0  0  0  0  0  0  0  0  0  0  0
  128.3749  132.6804   60.3563 H   0  0  0  0  0  0  0  0  0  0  0  0
  127.2576  131.2418   58.6499 H   0  0  0  0  0  0  0  0  0  0  0  0
  127.6353  129.5088   57.3390 H   0  0  0  0  0  0  0  0  0  0  0  0
  127.4148  127.3313   58.6722 H   0  0  0  0  0  0  0  0  0  0  0  0
  125.9177  128.1176   58.0069 H   0  0  0  0  0  0  0  0  0  0  0  0
  127.4706  125.0847   56.5182 H   0  0  0  0  0  0  0  0  0  0  0  0
  126.3429  122.8577   56.4958 H   0  0  0  0  0  0  0  0  0  0  0  0
  124.2193  122.5331   57.7558 H   0  0  0  0  0  0  0  0  0  0  0  0
  123.2132  124.4138   59.0406 H   0  0  0  0  0  0  0  0  0  0  0  0
  124.3463  126.6377   59.0773 H   0  0  0  0  0  0  0  0  0  0  0  0
  129.2716  128.4672   54.9165 H   0  0  0  0  0  0  0  0  0  0  0  0
  130.7895  128.4180   58.2737 H   0  0  0  0  0  0  0  0  0  0  0  0
  129.1732  127.8449   57.7692 H   0  0  0  0  0  0  0  0  0  0  0  0
  132.7905  127.9339   56.6709 H   0  0  0  0  0  0  0  0  0  0  0  0
  133.8350  126.1035   55.3344 H   0  0  0  0  0  0  0  0  0  0  0  0
  132.4410  124.2030   54.5326 H   0  0  0  0  0  0  0  0  0  0  0  0
  130.0083  124.1107   55.0594 H   0  0  0  0  0  0  0  0  0  0  0  0
  128.9603  125.9374   56.3991 H   0  0  0  0  0  0  0  0  0  0  0  0
  128.9385  132.1293   58.5168 H   0  0  0  0  0  0  0  0  0  0  0  0
  130.0819  131.6525   60.6655 H   0  0  0  0  0  0  0  0  0  0  0  0
  133.8246  131.1523   58.5638 H   0  0  0  0  0  0  0  0  0  0  0  0
  132.6784  131.6057   56.4110 H   0  0  0  0  0  0  0  0  0  0  0  0
  1  2  2  0
  2  3  1  0
  3  4  1  0
  4  5  1  0
  5  6  1  0
  6  7  1  0
  7  8  1  0
  8  9  1  0
  9 10  1  0
 10 11  2  0
 11 12  1  0
 12 13  2  0
 13 14  1  0
 14 15  2  0
  6 16  1  0
 16 17  1  0
 17 18  1  0
 18 19  1  0
 19 20  2  0
 20 21  1  0
 21 22  2  0
 22 23  1  0
 23 24  2  0
 16 25  1  0
 25 26  1  0
 26 27  1  0
 27 28  1  0
 28 29  2  0
 29 30  1  0
 30 31  2  0
 31 32  1  0
 32 33  2  0
  2 34  1  0
 34 35  2  0
 35 36  1  0
 36 37  2  0
 37 38  1  0
 38 39  2  0
 38 40  1  0
 37 41  1  0
 41 42  2  0
 25  4  1  0
 33 28  1  0
 42 34  1  0
 15 10  1  0
 24 19  1  0
  4 43  1  6
  6 44  1  6
  7 45  1  0
  7 46  1  0
  9 47  1  0
  9 48  1  0
 11 49  1  0
 12 50  1  0
 13 51  1  0
 14 52  1  0
 15 53  1  0
 16 54  1  1
 18 55  1  0
 18 56  1  0
 20 57  1  0
 21 58  1  0
 22 59  1  0
 23 60  1  0
 24 61  1  0
 25 62  1  6
 27 63  1  0
 27 64  1  0
 29 65  1  0
 30 66  1  0
 31 67  1  0
 32 68  1  0
 33 69  1  0
 35 70  1  0
 36 71  1  0
 41 72  1  0
 42 73  1  0
M  CHG  2  38   1  40  -1
M  END
>  <Binding energies>  (1) 
[-9.87]

>  <Ligand effiencies>  (1) 
[-0.235]

>  <Interactions>  (1) 
["V-B:PRO:540:CB:9854, V-B:PRO:540:CA:9852, V-B:LEU:363:CD1:8157, V-B:TYR:539:CE1:9844, V-B:MET:535:CE:9804, V-A:GLU:543:CD:4905, V-A:ASP:366:CB:3208, H-A:ARG:545:NH2:4925, V-A:TYR:531:CE1:4789, V-A:ASP:366:C:3204, H-A:TYR:531:OH:4792, V-A:ASN:370:CB:3241, V-B:LEU:363:CA:8153, H-B:TYR:531:OH:9764, V-A:PRO:540:CB:4882, V-A:TYR:539:C:4864, V-A:PRO:540:CA:4880, H-A:TYR:539:N:4867, V-A:LEU:363:CD1:3185, V-A:PRO:540:N:4881, V-A:TYR:531:CZ:4791, V-A:ILE:538:CD1:4862, V-A:TYR:539:CZ:4874, V-B:ASP:366:CB:8180, V-B:TYR:531:CZ:9763, V-A:LEU:363:CA:3181, V-A:TYR:539:CE2:4873, H-A:ALA:541:N:4888, V-B:TYR:531:CE1:9761, V-A:ASN:362:CB:3172, V-B:ASP:366:CG:8181, V-B:ILE:369:CG2:8205, V-B:ILE:369:CD1:8207, H-A:ASN:362:ND2:3175"]

$$$$
RR9_Rahimova_2017
     RDKit          3D

 64 68  0  0  0  0  0  0  0  0999 V2000
  129.8120  126.6440   72.2390 C   0  0  0  0  0  0  0  0  0  0  0  0
  129.2260  127.9500   71.6920 C   0  0  0  0  0  0  0  0  0  0  0  0
  129.9700  128.3390   70.5410 O   0  0  0  0  0  0  0  0  0  0  0  0
  129.8280  127.6230   69.3680 C   0  0  0  0  0  0  0  0  0  0  0  0
  130.6870  127.9600   68.3240 C   0  0  0  0  0  0  0  0  0  0  0  0
  130.6150  127.2950   67.1040 C   0  0  0  0  0  0  0  0  0  0  0  0
  129.6800  126.2710   66.8940 C   0  0  0  0  0  0  0  0  0  0  0  0
  129.5950  125.5540   65.5790 C   0  0  0  0  0  0  0  0  0  0  0  0
  129.2230  126.2190   64.4000 C   0  0  0  0  0  0  0  0  0  0  0  0
  129.1580  125.5450   63.1680 C   0  0  0  0  0  0  0  0  0  0  0  0
  128.8520  126.3350   61.9240 C   0  0  0  0  0  0  0  0  0  0  0  0
  129.7640  126.8090   61.2480 O   0  0  0  0  0  0  0  0  0  0  0  0
  127.5440  126.4930   61.6390 N   0  0  0  0  0  0  0  0  0  0  0  0
  126.9940  127.3250   60.5630 C   0  0  0  0  0  0  0  0  0  0  0  0
  126.7170  126.5320   59.2650 C   0  0  0  0  0  0  0  0  0  0  0  0
  125.5990  125.5010   59.3750 C   0  0  0  0  0  0  0  0  0  0  0  0
  125.6160  124.5550   60.4050 C   0  0  0  0  0  0  0  0  0  0  0  0
  124.5750  123.6370   60.5220 C   0  0  0  0  0  0  0  0  0  0  0  0
  123.5250  123.6650   59.6080 C   0  0  0  0  0  0  0  0  0  0  0  0
  123.5040  124.6010   58.5760 C   0  0  0  0  0  0  0  0  0  0  0  0
  124.5440  125.5210   58.4590 C   0  0  0  0  0  0  0  0  0  0  0  0
  129.4540  124.1600   63.1940 C   0  0  0  0  0  0  0  0  0  0  0  0
  129.5010  123.0410   62.2820 C   0  0  0  0  0  0  0  0  0  0  0  0
  129.1300  122.9780   60.8380 C   0  0  0  0  0  0  0  0  0  0  0  0
  129.7190  123.8550   59.9210 C   0  0  0  0  0  0  0  0  0  0  0  0
  129.3600  123.8060   58.5770 C   0  0  0  0  0  0  0  0  0  0  0  0
  128.4130  122.8770   58.1430 C   0  0  0  0  0  0  0  0  0  0  0  0
  128.0070  122.8350   56.6810 C   0  0  0  0  0  0  0  0  0  0  0  0
  127.8210  122.0010   59.0550 C   0  0  0  0  0  0  0  0  0  0  0  0
  128.1840  122.0500   60.3980 C   0  0  0  0  0  0  0  0  0  0  0  0
  129.9200  121.9600   62.9010 N   0  0  0  0  0  0  0  0  0  0  0  0
  130.1050  122.2680   64.1940 N   0  0  0  0  0  0  0  0  0  0  0  0
  129.8250  123.5920   64.4370 C   0  0  0  0  0  0  0  0  0  0  0  0
  129.9000  124.2260   65.6060 N   0  0  0  0  0  0  0  0  0  0  0  0
  128.8180  125.9390   67.9480 C   0  0  0  0  0  0  0  0  0  0  0  0
  128.8880  126.6030   69.1710 C   0  0  0  0  0  0  0  0  0  0  0  0
  129.8007  126.6693   73.3387 H   0  0  0  0  0  0  0  0  0  0  0  0
  129.2086  125.7949   71.8855 H   0  0  0  0  0  0  0  0  0  0  0  0
  130.8474  126.5303   71.8855 H   0  0  0  0  0  0  0  0  0  0  0  0
  128.1722  127.7959   71.4167 H   0  0  0  0  0  0  0  0  0  0  0  0
  129.2843  128.7365   72.4588 H   0  0  0  0  0  0  0  0  0  0  0  0
  131.4292  128.7594   68.4657 H   0  0  0  0  0  0  0  0  0  0  0  0
  131.3017  127.5766   66.2921 H   0  0  0  0  0  0  0  0  0  0  0  0
  128.9771  127.2904   64.4410 H   0  0  0  0  0  0  0  0  0  0  0  0
  126.8700  125.9960   62.2020 H   0  0  0  0  0  0  0  0  0  0  0  0
  126.0492  127.7680   60.9110 H   0  0  0  0  0  0  0  0  0  0  0  0
  127.7453  128.0923   60.3248 H   0  0  0  0  0  0  0  0  0  0  0  0
  126.4453  127.2493   58.4765 H   0  0  0  0  0  0  0  0  0  0  0  0
  127.6363  125.9709   59.0413 H   0  0  0  0  0  0  0  0  0  0  0  0
  126.4503  124.5360   61.1217 H   0  0  0  0  0  0  0  0  0  0  0  0
  124.5824  122.8935   61.3326 H   0  0  0  0  0  0  0  0  0  0  0  0
  122.7029  122.9402   59.7017 H   0  0  0  0  0  0  0  0  0  0  0  0
  122.6711  124.6136   57.8576 H   0  0  0  0  0  0  0  0  0  0  0  0
  124.5345  126.2623   57.6463 H   0  0  0  0  0  0  0  0  0  0  0  0
  130.4675  124.5850   60.2628 H   0  0  0  0  0  0  0  0  0  0  0  0
  129.8220  124.4985   57.8579 H   0  0  0  0  0  0  0  0  0  0  0  0
  126.9153  122.7221   56.6067 H   0  0  0  0  0  0  0  0  0  0  0  0
  128.3133  123.7696   56.1884 H   0  0  0  0  0  0  0  0  0  0  0  0
  128.4981  121.9829   56.1884 H   0  0  0  0  0  0  0  0  0  0  0  0
  127.0696  121.2740   58.7131 H   0  0  0  0  0  0  0  0  0  0  0  0
  127.7237  121.3548   61.1155 H   0  0  0  0  0  0  0  0  0  0  0  0
  130.4150  121.5670   64.8520 H   0  0  0  0  0  0  0  0  0  0  0  0
  128.0739  125.1411   67.8075 H   0  0  0  0  0  0  0  0  0  0  0  0
  128.2024  126.3252   69.9851 H   0  0  0  0  0  0  0  0  0  0  0  0
  1  2  1  0
  2  3  1  0
  3  4  1  0
  4  5  2  0
  5  6  1  0
  6  7  2  0
  7  8  1  0
  8  9  2  0
  9 10  1  0
 10 11  1  0
 11 12  2  0
 11 13  1  0
 13 14  1  0
 14 15  1  0
 15 16  1  0
 16 17  2  0
 17 18  1  0
 18 19  2  0
 19 20  1  0
 20 21  2  0
 10 22  2  0
 22 23  1  0
 23 24  1  0
 24 25  2  0
 25 26  1  0
 26 27  2  0
 27 28  1  0
 27 29  1  0
 29 30  2  0
 23 31  2  0
 31 32  1  0
 32 33  1  0
 33 34  2  0
  7 35  1  0
 35 36  2  0
 36  4  1  0
 34  8  1  0
 21 16  1  0
 33 22  1  0
 30 24  1  0
  1 37  1  0
  1 38  1  0
  1 39  1  0
  2 40  1  0
  2 41  1  0
  5 42  1  0
  6 43  1  0
  9 44  1  0
 13 45  1  0
 14 46  1  0
 14 47  1  0
 15 48  1  0
 15 49  1  0
 17 50  1  0
 18 51  1  0
 19 52  1  0
 20 53  1  0
 21 54  1  0
 25 55  1  0
 26 56  1  0
 28 57  1  0
 28 58  1  0
 28 59  1  0
 29 60  1  0
 30 61  1  0
 32 62  1  0
 35 63  1  0
 36 64  1  0
M  END
>  <Binding energies>  (1) 
[-8.93]

>  <Ligand effiencies>  (1) 
[-0.235]

>  <Interactions>  (1) 
["V-B:TYR:539:CE2:9845, V-B:PRO:540:N:9853, V-B:PRO:540:CB:9854, V-B:TYR:539:CZ:9846, V-A:LEU:475:CD1:4254, V-B:PRO:540:CA:9852, V-B:TYR:539:CD1:9842, V-B:PRO:540:C:9850, V-B:TYR:539:C:9836, V-B:LEU:363:CD1:8157, V-B:ALA:541:CB:9861, V-B:TYR:539:CE1:9844, V-B:GLU:543:CD:9877, V-A:TYR:484:CE1:4341, V-A:LEU:475:CD2:4255, V-B:GLU:543:CG:9876, H-B:GLU:543:OE2:9879, V-A:GLU:543:CD:4905, V-A:HIS:456:CE1:4066, V-B:GLU:543:CB:9875, H-A:TYR:484:OH:4344, V-B:LEU:363:CA:8153, V-B:ASP:366:CB:8180, V-B:TYR:539:CD2:9843, V-B:ASN:362:C:8140, H-B:GLU:543:OE1:9878, V-B:ASP:366:CG:8181, V-B:HIS:456:CD2:9036, V-A:GLU:543:CB:4903, V-A:GLU:543:C:4899, V-B:HIS:456:CE1:9038, V-B:LEU:363:CB:8155, V-A:HIS:456:CD2:4064"]

$$$$
