1a_Ghoteimi_2023
     RDKit          3D

 40 43  0  0  0  0  0  0  0  0999 V2000
  132.3180  131.7490   56.7460 C   0  0  0  0  0  0  0  0  0  0  0  0
  131.1450  132.1300   55.8390 C   0  0  0  0  0  0  0  0  0  0  0  0
  130.2120  132.9100   56.5770 O   0  0  0  0  0  0  0  0  0  0  0  0
  128.9570  132.4560   56.8230 C   0  0  0  0  0  0  0  0  0  0  0  0
  128.0920  132.3360   55.9490 O   0  0  0  0  0  0  0  0  0  0  0  0
  128.7250  132.1080   58.2660 C   0  0  0  0  0  0  0  0  0  0  0  0
  127.4420  132.1160   58.8340 C   0  0  0  0  0  0  0  0  0  0  0  0
  127.2590  131.7920   60.1760 C   0  0  0  0  0  0  0  0  0  0  0  0
  128.3600  131.4490   60.9750 C   0  0  0  0  0  0  0  0  0  0  0  0
  128.2910  131.1100   62.3400 N   0  0  0  0  0  0  0  0  0  0  0  0
  127.6530  131.7330   63.3550 C   0  0  0  0  0  0  0  0  0  0  0  0
  126.9710  132.7520   63.2540 O   0  0  0  0  0  0  0  0  0  0  0  0
  127.8100  131.0800   64.7280 C   0  0  0  0  0  0  0  0  0  0  0  0
  127.0570  129.4270   64.7780 S   0  0  0  0  0  0  0  0  0  0  0  0
  128.3110  128.3300   65.4000 C   0  0  0  0  0  0  0  0  0  0  0  0
  128.3680  128.2710   66.7520 N   0  0  0  0  0  0  0  0  0  0  0  0
  129.2810  127.4650   67.3550 C   0  0  0  0  0  0  0  0  0  0  0  0
  129.2670  127.4390   68.8560 C   0  0  0  0  0  0  0  0  0  0  0  0
  128.2020  126.8620   69.5660 C   0  0  0  0  0  0  0  0  0  0  0  0
  128.1920  126.8390   70.9580 C   0  0  0  0  0  0  0  0  0  0  0  0
  129.2450  127.3920   71.6830 C   0  0  0  0  0  0  0  0  0  0  0  0
  129.1520  127.3220   73.0600 O   0  0  0  0  0  0  0  0  0  0  0  0
  127.9540  127.7500   73.6980 C   0  0  0  0  0  0  0  0  0  0  0  0
  130.3140  127.9750   70.9890 C   0  0  0  0  0  0  0  0  0  0  0  0
  130.3200  127.9970   69.5980 C   0  0  0  0  0  0  0  0  0  0  0  0
  130.1660  126.6950   66.5900 C   0  0  0  0  0  0  0  0  0  0  0  0
  130.1430  126.7580   65.1910 C   0  0  0  0  0  0  0  0  0  0  0  0
  131.1370  125.9320   64.4410 C   0  0  0  0  0  0  0  0  0  0  0  0
  132.4640  125.8390   64.8740 C   0  0  0  0  0  0  0  0  0  0  0  0
  133.3810  125.0560   64.1780 C   0  0  0  0  0  0  0  0  0  0  0  0
  132.9900  124.3460   63.0430 C   0  0  0  0  0  0  0  0  0  0  0  0
  133.9670  123.5960   62.4200 O   0  0  0  0  0  0  0  0  0  0  0  0
  133.9810  123.5170   60.9980 C   0  0  0  0  0  0  0  0  0  0  0  0
  131.6580  124.4310   62.6110 C   0  0  0  0  0  0  0  0  0  0  0  0
  130.7430  125.2150   63.3070 C   0  0  0  0  0  0  0  0  0  0  0  0
  129.1860  127.5960   64.5700 C   0  0  0  0  0  0  0  0  0  0  0  0
  129.1030  127.6930   63.1090 C   0  0  0  0  0  0  0  0  0  0  0  0
  129.0380  127.7680   61.9560 N   0  0  0  0  0  0  0  0  0  0  0  0
  129.6370  131.4440   60.4140 C   0  0  0  0  0  0  0  0  0  0  0  0
  129.8190  131.7680   59.0710 C   0  0  0  0  0  0  0  0  0  0  0  0
  1  2  1  0
  2  3  1  0
  3  4  1  0
  4  5  2  0
  4  6  1  0
  6  7  2  0
  7  8  1  0
  8  9  2  0
  9 10  1  0
 10 11  1  0
 11 12  2  0
 11 13  1  0
 13 14  1  0
 14 15  1  0
 15 16  2  0
 16 17  1  0
 17 18  1  0
 18 19  2  0
 19 20  1  0
 20 21  2  0
 21 22  1  0
 22 23  1  0
 21 24  1  0
 24 25  2  0
 17 26  2  0
 26 27  1  0
 27 28  1  0
 28 29  2  0
 29 30  1  0
 30 31  2  0
 31 32  1  0
 32 33  1  0
 31 34  1  0
 34 35  2  0
 27 36  2  0
 36 37  1  0
 37 38  3  0
  9 39  1  0
 39 40  2  0
 40  6  1  0
 36 15  1  0
 25 18  1  0
 35 28  1  0
M  END
>  <Binding energies>  (1) 
[-10.5]

>  <Ligand effiencies>  (1) 
[-0.25609756097560976]

>  <Interactions>  (1) 
["V-B:GLU:543:CD:9877, V-A:ARG:545:CZ:4923, V-A:GLU:543:CD:4905, V-A:HIS:456:CE1:4066, V-A:ASP:366:CG:3209, V-A:GLU:543:CG:4904, H-A:GLY:454:N:4046, V-A:PRO:540:CB:4882, V-A:TYR:539:C:4864, V-A:PRO:540:CA:4880, H-A:TYR:539:N:4867, V-A:LEU:363:CD1:3185, V-A:ILE:538:CG2:4860, V-A:ILE:538:CD1:4862, V-A:TYR:539:CD2:4871, V-A:TYR:539:CE2:4873, V-B:HIS:456:CD2:9036, V-A:GLU:543:C:4899, H-A:LYS:547:NZ:4948, V-A:GLY:544:C:4909, V-B:LYS:547:CE:9919, V-B:HIS:456:CE1:9038, V-A:ALA:541:CB:4889, H-A:GLU:543:OE2:4907"]

$$$$
1b_Ghoteimi_2023
     RDKit          3D

 34 37  0  0  0  0  0  0  0  0999 V2000
  130.2990  125.6460   73.9310 C   0  0  0  0  0  0  0  0  0  0  0  0
  129.8760  126.8690   73.3370 O   0  0  0  0  0  0  0  0  0  0  0  0
  129.6060  126.9020   71.9830 C   0  0  0  0  0  0  0  0  0  0  0  0
  130.4850  127.6370   71.1880 C   0  0  0  0  0  0  0  0  0  0  0  0
  130.2920  127.7270   69.8130 C   0  0  0  0  0  0  0  0  0  0  0  0
  129.2150  127.0820   69.1880 C   0  0  0  0  0  0  0  0  0  0  0  0
  129.0080  127.1840   67.7030 C   0  0  0  0  0  0  0  0  0  0  0  0
  128.1370  128.1090   67.1170 C   0  0  0  0  0  0  0  0  0  0  0  0
  127.9840  128.1650   65.7260 C   0  0  0  0  0  0  0  0  0  0  0  0
  127.0320  129.1740   65.1710 C   0  0  0  0  0  0  0  0  0  0  0  0
  125.6530  128.9550   65.2370 C   0  0  0  0  0  0  0  0  0  0  0  0
  124.7630  129.8880   64.7140 C   0  0  0  0  0  0  0  0  0  0  0  0
  125.2320  131.0550   64.1100 C   0  0  0  0  0  0  0  0  0  0  0  0
  124.2760  131.9230   63.6180 O   0  0  0  0  0  0  0  0  0  0  0  0
  123.9680  131.9010   62.2290 C   0  0  0  0  0  0  0  0  0  0  0  0
  126.6150  131.2750   64.0340 C   0  0  0  0  0  0  0  0  0  0  0  0
  127.5030  130.3400   64.5580 C   0  0  0  0  0  0  0  0  0  0  0  0
  128.7410  127.2740   64.9270 C   0  0  0  0  0  0  0  0  0  0  0  0
  128.6890  127.3580   63.4650 C   0  0  0  0  0  0  0  0  0  0  0  0
  128.6470  127.4250   62.3100 N   0  0  0  0  0  0  0  0  0  0  0  0
  129.5860  126.3510   65.5830 C   0  0  0  0  0  0  0  0  0  0  0  0
  130.6030  125.1540   64.7430 S   0  0  0  0  0  0  0  0  0  0  0  0
  132.3340  125.4380   65.2420 C   0  0  0  0  0  0  0  0  0  0  0  0
  133.3870  125.0090   64.2100 C   0  0  0  0  0  0  0  0  0  0  0  0
  134.5900  125.0720   64.4740 O   0  0  0  0  0  0  0  0  0  0  0  0
  132.8790  124.5760   63.0340 N   0  0  0  0  0  0  0  0  0  0  0  0
  133.5880  124.1270   61.9270 C   0  0  0  0  0  0  0  0  0  0  0  0
  132.9900  123.8670   60.6940 C   0  0  0  0  0  0  0  0  0  0  0  0
  134.0180  123.4500   59.8790 C   0  0  0  0  0  0  0  0  0  0  0  0
  135.1740  123.4610   60.5840 O   0  0  0  0  0  0  0  0  0  0  0  0
  134.8890  123.8920   61.8800 N   0  0  0  0  0  0  0  0  0  0  0  0
  129.7260  126.3270   66.9300 N   0  0  0  0  0  0  0  0  0  0  0  0
  128.3350  126.3460   69.9980 C   0  0  0  0  0  0  0  0  0  0  0  0
  128.5230  126.2540   71.3730 C   0  0  0  0  0  0  0  0  0  0  0  0
  1  2  1  0
  2  3  1  0
  3  4  2  0
  4  5  1  0
  5  6  2  0
  6  7  1  0
  7  8  2  0
  8  9  1  0
  9 10  1  0
 10 11  2  0
 11 12  1  0
 12 13  2  0
 13 14  1  0
 14 15  1  0
 13 16  1  0
 16 17  2  0
  9 18  2  0
 18 19  1  0
 19 20  3  0
 18 21  1  0
 21 22  1  0
 22 23  1  0
 23 24  1  0
 24 25  2  0
 24 26  1  0
 26 27  1  0
 27 28  1  0
 28 29  2  0
 29 30  1  0
 30 31  1  0
 21 32  2  0
  6 33  1  0
 33 34  2  0
 34  3  1  0
 32  7  1  0
 17 10  1  0
 31 27  2  0
M  END
>  <Binding energies>  (2) 
[-9.63]

>  <Ligand effiencies>  (2) 
[-0.2751428571428572]

>  <Interactions>  (2) 
["V-B:GLU:543:CD:9877, V-A:ARG:545:CZ:4923, V-A:GLU:543:CD:4905, V-A:ASP:366:CB:3208, V-A:HIS:456:CE1:4066, H-A:ARG:545:NH1:4924, H-A:ARG:545:NE:4921, V-A:ASP:366:CG:3209, V-A:GLU:543:CG:4904, H-A:GLY:454:N:4046, V-A:ILE:369:CB:3232, H-A:LYS:547:NZ:4948, V-A:ILE:369:CG2:3233, V-A:GLY:544:C:4909, V-B:LYS:547:CE:9919, V-B:HIS:456:CE1:9038, V-A:ILE:369:CG1:3234, V-B:ARG:545:CZ:9895, V-B:ILE:369:CD1:8207, V-A:ASP:366:CA:3206, V-A:HIS:456:CD2:4064, H-B:GLY:454:N:9018"]

$$$$
1c_Ghoteimi_2023
     RDKit          3D

 34 37  0  0  0  0  0  0  0  0999 V2000
  128.7480  127.2500   74.0640 C   0  0  0  0  0  0  0  0  0  0  0  0
  129.8130  127.1090   73.1310 O   0  0  0  0  0  0  0  0  0  0  0  0
  129.5320  127.1240   71.7780 C   0  0  0  0  0  0  0  0  0  0  0  0
  130.3910  127.8640   70.9690 C   0  0  0  0  0  0  0  0  0  0  0  0
  130.1810  127.9360   69.5940 C   0  0  0  0  0  0  0  0  0  0  0  0
  129.1050  127.2710   68.9870 C   0  0  0  0  0  0  0  0  0  0  0  0
  128.8730  127.3510   67.5060 C   0  0  0  0  0  0  0  0  0  0  0  0
  128.0650  128.3310   66.9190 C   0  0  0  0  0  0  0  0  0  0  0  0
  127.9000  128.3820   65.5300 C   0  0  0  0  0  0  0  0  0  0  0  0
  127.0790  129.4950   64.9670 C   0  0  0  0  0  0  0  0  0  0  0  0
  127.6190  130.7770   64.8280 C   0  0  0  0  0  0  0  0  0  0  0  0
  126.8460  131.8180   64.3230 C   0  0  0  0  0  0  0  0  0  0  0  0
  125.5190  131.5990   63.9530 C   0  0  0  0  0  0  0  0  0  0  0  0
  124.8270  132.6900   63.4620 O   0  0  0  0  0  0  0  0  0  0  0  0
  124.2350  132.6130   62.1700 C   0  0  0  0  0  0  0  0  0  0  0  0
  124.9710  130.3150   64.0980 C   0  0  0  0  0  0  0  0  0  0  0  0
  125.7470  129.2750   64.6030 C   0  0  0  0  0  0  0  0  0  0  0  0
  128.5440  127.4020   64.7390 C   0  0  0  0  0  0  0  0  0  0  0  0
  128.3840  127.3800   63.2810 C   0  0  0  0  0  0  0  0  0  0  0  0
  128.2570  127.3650   62.1300 N   0  0  0  0  0  0  0  0  0  0  0  0
  129.3570  126.4540   65.3940 C   0  0  0  0  0  0  0  0  0  0  0  0
  130.3580  125.2730   64.5150 S   0  0  0  0  0  0  0  0  0  0  0  0
  132.0260  125.4550   65.2250 C   0  0  0  0  0  0  0  0  0  0  0  0
  133.1240  125.0660   64.2300 C   0  0  0  0  0  0  0  0  0  0  0  0
  134.2950  125.0080   64.6080 O   0  0  0  0  0  0  0  0  0  0  0  0
  132.6930  124.7680   62.9840 N   0  0  0  0  0  0  0  0  0  0  0  0
  133.4500  124.2440   61.9490 C   0  0  0  0  0  0  0  0  0  0  0  0
  134.7280  123.9300   61.9610 N   0  0  0  0  0  0  0  0  0  0  0  0
  135.1100  123.4160   60.8080 C   0  0  0  0  0  0  0  0  0  0  0  0
  134.1280  123.3030   59.8290 C   0  0  0  0  0  0  0  0  0  0  0  0
  132.6260  123.9070   60.4610 S   0  0  0  0  0  0  0  0  0  0  0  0
  129.5220  126.4370   66.7380 N   0  0  0  0  0  0  0  0  0  0  0  0
  128.2500  126.5240   69.8110 C   0  0  0  0  0  0  0  0  0  0  0  0
  128.4550  126.4500   71.1860 C   0  0  0  0  0  0  0  0  0  0  0  0
  1  2  1  0
  2  3  1  0
  3  4  2  0
  4  5  1  0
  5  6  2  0
  6  7  1  0
  7  8  2  0
  8  9  1  0
  9 10  1  0
 10 11  2  0
 11 12  1  0
 12 13  2  0
 13 14  1  0
 14 15  1  0
 13 16  1  0
 16 17  2  0
  9 18  2  0
 18 19  1  0
 19 20  3  0
 18 21  1  0
 21 22  1  0
 22 23  1  0
 23 24  1  0
 24 25  2  0
 24 26  1  0
 26 27  1  0
 27 28  2  0
 28 29  1  0
 29 30  2  0
 30 31  1  0
 21 32  2  0
  6 33  1  0
 33 34  2  0
 34  3  1  0
 32  7  1  0
 17 10  1  0
 31 27  1  0
M  END
>  <Binding energies>  (3) 
[-9.47]

>  <Ligand effiencies>  (3) 
[-0.2705714285714286]

>  <Interactions>  (3) 
["V-B:GLU:543:CD:9877, V-B:GLU:543:CG:9876, V-A:ARG:545:CZ:4923, V-A:GLU:543:CD:4905, V-A:ASP:366:CB:3208, V-A:HIS:456:CE1:4066, H-A:ARG:545:NH1:4924, H-A:ARG:545:NE:4921, V-A:ASP:366:CG:3209, V-A:GLU:543:CG:4904, H-A:GLY:454:N:4046, V-A:LYS:547:CE:4947, V-A:ILE:369:CB:3232, V-A:GLU:543:C:4899, H-A:LYS:547:NZ:4948, V-A:ILE:369:CG2:3233, V-A:GLY:544:C:4909, V-B:LYS:547:CE:9919, V-B:HIS:456:CE1:9038, V-A:GLY:453:C:4038, V-A:GLY:453:CA:4040, V-A:ILE:369:CG1:3234, V-B:GLY:454:CA:9017, V-B:ARG:545:CZ:9895, V-B:ILE:369:CD1:8207, V-A:ASP:366:CA:3206, V-A:HIS:456:CD2:4064, H-B:GLY:454:N:9018"]

$$$$
1d_Ghoteimi_2023
     RDKit          3D

 30 32  0  0  0  0  0  0  0  0999 V2000
  133.5240  124.5930   62.4660 C   0  0  0  0  0  0  0  0  0  0  0  0
  133.3060  124.1840   63.8070 O   0  0  0  0  0  0  0  0  0  0  0  0
  133.6230  125.0010   64.8330 C   0  0  0  0  0  0  0  0  0  0  0  0
  134.7560  125.3640   65.1520 O   0  0  0  0  0  0  0  0  0  0  0  0
  132.3920  125.4600   65.6110 C   0  0  0  0  0  0  0  0  0  0  0  0
  131.1050  125.8840   64.3980 S   0  0  0  0  0  0  0  0  0  0  0  0
  129.8890  126.8640   65.2500 C   0  0  0  0  0  0  0  0  0  0  0  0
  130.0070  126.8280   66.5990 N   0  0  0  0  0  0  0  0  0  0  0  0
  129.1400  127.5290   67.3740 C   0  0  0  0  0  0  0  0  0  0  0  0
  129.3440  127.4410   68.8590 C   0  0  0  0  0  0  0  0  0  0  0  0
  128.3990  126.8170   69.6880 C   0  0  0  0  0  0  0  0  0  0  0  0
  128.5870  126.7420   71.0650 C   0  0  0  0  0  0  0  0  0  0  0  0
  129.7220  127.2900   71.6570 C   0  0  0  0  0  0  0  0  0  0  0  0
  129.8230  127.1720   73.0300 O   0  0  0  0  0  0  0  0  0  0  0  0
  128.6460  127.2800   73.8230 C   0  0  0  0  0  0  0  0  0  0  0  0
  130.6750  127.9170   70.8420 C   0  0  0  0  0  0  0  0  0  0  0  0
  130.4840  127.9890   69.4650 C   0  0  0  0  0  0  0  0  0  0  0  0
  128.1270  128.2990   66.7920 C   0  0  0  0  0  0  0  0  0  0  0  0
  127.9720  128.3420   65.4010 C   0  0  0  0  0  0  0  0  0  0  0  0
  126.8640  129.1780   64.8460 C   0  0  0  0  0  0  0  0  0  0  0  0
  127.1100  130.0650   63.7940 C   0  0  0  0  0  0  0  0  0  0  0  0
  126.0830  130.8470   63.2730 C   0  0  0  0  0  0  0  0  0  0  0  0
  124.7910  130.7560   63.7880 C   0  0  0  0  0  0  0  0  0  0  0  0
  123.8370  131.5740   63.2140 O   0  0  0  0  0  0  0  0  0  0  0  0
  123.8880  131.8260   61.8140 C   0  0  0  0  0  0  0  0  0  0  0  0
  124.5350  129.8580   64.8360 C   0  0  0  0  0  0  0  0  0  0  0  0
  125.5640  129.0760   65.3540 C   0  0  0  0  0  0  0  0  0  0  0  0
  128.8640  127.5870   64.5990 C   0  0  0  0  0  0  0  0  0  0  0  0
  128.6840  127.5120   63.1460 C   0  0  0  0  0  0  0  0  0  0  0  0
  128.5410  127.4530   61.9990 N   0  0  0  0  0  0  0  0  0  0  0  0
  1  2  1  0
  2  3  1  0
  3  4  2  0
  3  5  1  0
  5  6  1  0
  6  7  1  0
  7  8  2  0
  8  9  1  0
  9 10  1  0
 10 11  2  0
 11 12  1  0
 12 13  2  0
 13 14  1  0
 14 15  1  0
 13 16  1  0
 16 17  2  0
  9 18  2  0
 18 19  1  0
 19 20  1  0
 20 21  2  0
 21 22  1  0
 22 23  2  0
 23 24  1  0
 24 25  1  0
 23 26  1  0
 26 27  2  0
 19 28  2  0
 28 29  1  0
 29 30  3  0
 28  7  1  0
 17 10  1  0
 27 20  1  0
M  END
>  <Binding energies>  (4) 
[-8.63]

>  <Ligand effiencies>  (4) 
[-0.2876666666666667]

>  <Interactions>  (4) 
["V-B:GLU:543:CD:9877, V-A:ARG:545:CZ:4923, V-A:GLY:454:CA:4045, V-A:GLU:543:CD:4905, V-A:HIS:456:CE1:4066, H-A:ARG:545:NH1:4924, H-A:ARG:545:NE:4921, V-A:ASP:366:CG:3209, H-A:GLY:454:N:4046, H-A:TYR:484:OH:4344, V-B:ASP:366:CG:8181, V-A:LYS:547:CE:4947, V-B:HIS:456:CD2:9036, V-A:GLU:543:CB:4903, V-A:GLU:543:C:4899, H-A:LYS:547:NZ:4948, V-A:GLY:544:C:4909, V-B:LYS:547:CE:9919, V-B:HIS:456:CE1:9038, V-B:ARG:545:CZ:9895, V-B:ILE:369:CD1:8207, V-A:HIS:456:CD2:4064, H-B:GLY:454:N:9018"]

$$$$
1j_Grossjean_2025
     RDKit          3D

 20 21  0  0  0  0  0  0  0  0999 V2000
  128.5260  122.1890   59.7810 C   0  0  0  0  0  0  0  0  0  0  0  0
  128.9460  123.2720   58.8050 C   0  0  0  0  0  0  0  0  0  0  0  0
  129.3640  124.5260   59.2430 C   0  0  0  0  0  0  0  0  0  0  0  0
  129.7520  125.4820   58.2990 C   0  0  0  0  0  0  0  0  0  0  0  0
  130.2240  126.8440   58.8050 C   0  0  0  0  0  0  0  0  0  0  0  0
  129.7020  125.1550   56.9250 C   0  0  0  0  0  0  0  0  0  0  0  0
  130.1530  126.1220   55.9210 C   0  0  0  0  0  0  0  0  0  0  0  0
  130.5110  126.8880   55.1310 N   0  0  0  0  0  0  0  0  0  0  0  0
  129.2380  123.8660   56.5690 C   0  0  0  0  0  0  0  0  0  0  0  0
  129.1080  123.2880   54.8910 S   0  0  0  0  0  0  0  0  0  0  0  0
  127.3970  122.7340   54.6290 C   0  0  0  0  0  0  0  0  0  0  0  0
  126.5760  122.7750   55.9190 C   0  0  0  0  0  0  0  0  0  0  0  0
  126.4750  121.7550   56.6030 O   0  0  0  0  0  0  0  0  0  0  0  0
  126.0130  123.9670   56.2140 N   0  0  0  0  0  0  0  0  0  0  0  0
  125.2220  124.2590   57.3160 C   0  0  0  0  0  0  0  0  0  0  0  0
  124.1880  125.0710   57.3750 N   0  0  0  0  0  0  0  0  0  0  0  0
  123.6710  125.1080   58.5870 C   0  0  0  0  0  0  0  0  0  0  0  0
  124.2880  124.3100   59.5450 C   0  0  0  0  0  0  0  0  0  0  0  0
  125.6190  123.4680   58.8080 S   0  0  0  0  0  0  0  0  0  0  0  0
  128.8850  122.9390   57.4940 N   0  0  0  0  0  0  0  0  0  0  0  0
  1  2  1  0
  2  3  2  0
  3  4  1  0
  4  5  1  0
  4  6  2  0
  6  7  1  0
  7  8  3  0
  6  9  1  0
  9 10  1  0
 10 11  1  0
 11 12  1  0
 12 13  2  0
 12 14  1  0
 14 15  1  0
 15 16  2  0
 16 17  1  0
 17 18  2  0
 18 19  1  0
  9 20  2  0
 20  2  1  0
 19 15  1  0
M  END
>  <Binding energies>  (5) 
[-6.84]

>  <Ligand effiencies>  (5) 
[-0.32571428571428573]

>  <Interactions>  (5) 
["V-B:TYR:539:CE2:9845, V-B:PRO:540:CB:9854, V-B:TYR:539:CZ:9846, V-B:PRO:540:CA:9852, H-B:TYR:539:N:9839, V-B:ILE:538:CA:9829, V-B:TYR:539:C:9836, V-B:LEU:363:CD1:8157, V-B:ILE:538:CG2:9832, V-B:TYR:539:CE1:9844, V-B:ILE:538:CB:9831, V-B:MET:535:CE:9804, H-B:TYR:539:OH:9847, H-A:TYR:531:OH:4792, V-B:LEU:363:CA:8153, H-B:TYR:531:OH:9764, V-B:ASP:366:CB:8180, V-B:TYR:539:CD2:9843, V-B:ASP:366:CG:8181, H-B:MET:535:SD:9803"]

$$$$
1o_Grossjean_2025
     RDKit          3D

 26 27  0  0  0  0  0  0  0  0999 V2000
  128.0670  122.1500   58.9020 C   0  0  0  0  0  0  0  0  0  0  0  0
  127.6930  121.6140   57.6400 O   0  0  0  0  0  0  0  0  0  0  0  0
  127.1060  122.3920   56.6950 C   0  0  0  0  0  0  0  0  0  0  0  0
  126.8200  121.9890   55.5640 O   0  0  0  0  0  0  0  0  0  0  0  0
  126.8350  123.7930   57.1640 C   0  0  0  0  0  0  0  0  0  0  0  0
  127.7990  124.8070   57.0680 C   0  0  0  0  0  0  0  0  0  0  0  0
  127.5140  126.0970   57.5100 C   0  0  0  0  0  0  0  0  0  0  0  0
  126.2670  126.3980   58.0600 C   0  0  0  0  0  0  0  0  0  0  0  0
  126.0840  127.7340   58.4660 N   0  0  0  0  0  0  0  0  0  0  0  0
  126.5170  128.8800   57.8950 C   0  0  0  0  0  0  0  0  0  0  0  0
  127.1460  128.9520   56.8390 O   0  0  0  0  0  0  0  0  0  0  0  0
  126.1490  130.1710   58.6410 C   0  0  0  0  0  0  0  0  0  0  0  0
  127.2600  130.6670   59.5880 C   0  0  0  0  0  0  0  0  0  0  0  0
  128.0610  132.2050   59.0430 S   0  0  0  0  0  0  0  0  0  0  0  0
  129.7760  131.8600   58.7060 C   0  0  0  0  0  0  0  0  0  0  0  0
  130.4770  131.4830   59.8050 N   0  0  0  0  0  0  0  0  0  0  0  0
  131.7910  131.1860   59.6690 C   0  0  0  0  0  0  0  0  0  0  0  0
  132.5050  130.7580   60.9380 C   0  0  0  0  0  0  0  0  0  0  0  0
  132.4560  131.2650   58.4480 C   0  0  0  0  0  0  0  0  0  0  0  0
  131.7500  131.6770   57.3140 C   0  0  0  0  0  0  0  0  0  0  0  0
  132.5060  131.7690   55.9890 C   0  0  0  0  0  0  0  0  0  0  0  0
  130.3780  131.9960   57.4320 C   0  0  0  0  0  0  0  0  0  0  0  0
  129.6360  132.4870   56.2680 C   0  0  0  0  0  0  0  0  0  0  0  0
  129.0520  132.8730   55.3460 N   0  0  0  0  0  0  0  0  0  0  0  0
  125.2970  125.3890   58.1540 C   0  0  0  0  0  0  0  0  0  0  0  0
  125.5830  124.1010   57.7110 C   0  0  0  0  0  0  0  0  0  0  0  0
  1  2  1  0
  2  3  1  0
  3  4  2  0
  3  5  1  0
  5  6  2  0
  6  7  1  0
  7  8  2  0
  8  9  1  0
  9 10  1  0
 10 11  2  0
 10 12  1  0
 12 13  1  0
 13 14  1  0
 14 15  1  0
 15 16  2  0
 16 17  1  0
 17 18  1  0
 17 19  2  0
 19 20  1  0
 20 21  1  0
 20 22  2  0
 22 23  1  0
 23 24  3  0
  8 25  1  0
 25 26  2  0
 26  5  1  0
 22 15  1  0
M  END
>  <Binding energies>  (6) 
[-8.62]

>  <Ligand effiencies>  (6) 
[-0.31925925925925924]

>  <Interactions>  (6) 
["V-B:TYR:539:CE2:9845, V-B:PRO:540:N:9853, V-B:TYR:539:CZ:9846, V-B:PRO:540:CA:9852, H-B:TYR:539:N:9839, V-B:TYR:539:C:9836, V-B:MET:535:CE:9804, V-A:GLU:543:CD:4905, H-B:TYR:531:OH:9764, V-A:PRO:540:CB:4882, V-A:TYR:539:C:4864, V-A:PRO:540:CA:4880, H-A:TYR:539:N:4867, V-A:LEU:363:CD1:3185, V-A:PRO:540:N:4881, V-A:TYR:531:CZ:4791, V-A:ILE:538:CG2:4860, V-A:ILE:538:CD1:4862, V-A:TYR:531:CE2:4790, V-B:ASP:366:CB:8180, V-B:TYR:539:CD2:9843, V-A:ASN:362:CB:3172, H-B:ASP:366:OD1:8182, V-B:ASP:366:CG:8181"]

$$$$
1p_Grossjean_2025
     RDKit          3D

 21 22  0  0  0  0  0  0  0  0999 V2000
  128.5770  132.3970   54.3190 C   0  0  0  0  0  0  0  0  0  0  0  0
  129.1740  132.2690   55.7080 C   0  0  0  0  0  0  0  0  0  0  0  0
  130.5290  132.0040   55.8960 C   0  0  0  0  0  0  0  0  0  0  0  0
  131.0240  131.8820   57.1990 C   0  0  0  0  0  0  0  0  0  0  0  0
  132.5090  131.5770   57.3820 C   0  0  0  0  0  0  0  0  0  0  0  0
  130.1400  132.0400   58.2910 C   0  0  0  0  0  0  0  0  0  0  0  0
  130.6230  131.8700   59.6620 C   0  0  0  0  0  0  0  0  0  0  0  0
  131.0060  131.7360   60.7460 N   0  0  0  0  0  0  0  0  0  0  0  0
  128.7840  132.3300   58.0060 C   0  0  0  0  0  0  0  0  0  0  0  0
  127.5450  132.5680   59.2590 S   0  0  0  0  0  0  0  0  0  0  0  0
  126.2850  131.2840   59.0040 C   0  0  0  0  0  0  0  0  0  0  0  0
  124.8540  131.7420   59.3420 C   0  0  0  0  0  0  0  0  0  0  0  0
  124.5410  131.7170   60.8460 C   0  0  0  0  0  0  0  0  0  0  0  0
  123.9940  132.6890   61.3690 O   0  0  0  0  0  0  0  0  0  0  0  0
  124.8910  130.5840   61.4970 N   0  0  0  0  0  0  0  0  0  0  0  0
  124.7210  130.3040   62.8470 C   0  0  0  0  0  0  0  0  0  0  0  0
  125.7680  129.9140   63.6810 C   0  0  0  0  0  0  0  0  0  0  0  0
  125.1920  129.7370   64.9190 C   0  0  0  0  0  0  0  0  0  0  0  0
  123.8680  130.0040   64.8340 O   0  0  0  0  0  0  0  0  0  0  0  0
  123.5810  130.3620   63.5150 N   0  0  0  0  0  0  0  0  0  0  0  0
  128.3100  132.4250   56.7380 N   0  0  0  0  0  0  0  0  0  0  0  0
  1  2  1  0
  2  3  2  0
  3  4  1  0
  4  5  1  0
  4  6  2  0
  6  7  1  0
  7  8  3  0
  6  9  1  0
  9 10  1  0
 10 11  1  0
 11 12  1  0
 12 13  1  0
 13 14  2  0
 13 15  1  0
 15 16  1  0
 16 17  1  0
 17 18  2  0
 18 19  1  0
 19 20  1  0
  9 21  2  0
 21  2  1  0
 20 16  2  0
M  END
>  <Binding energies>  (7) 
[-7.59]

>  <Ligand effiencies>  (7) 
[-0.345]

>  <Interactions>  (7) 
["V-A:PRO:540:CB:4882, V-A:TYR:539:CE1:4872, V-A:TYR:539:C:4864, V-A:PRO:540:CA:4880, V-A:LEU:363:CD1:3185, V-A:PRO:540:N:4881, V-A:TYR:539:CD1:4870, V-A:ILE:538:CA:4857, V-A:ILE:538:CD1:4862, V-A:TYR:539:CZ:4874, V-A:TYR:539:CD2:4871, V-A:TYR:539:CE2:4873, H-A:ALA:541:N:4888, V-A:PRO:540:C:4878, H-B:ASP:366:OD1:8182, V-B:ASP:366:CG:8181, H-B:ASP:366:OD2:8183, V-B:ILE:369:CG2:8205, V-B:ARG:545:CZ:9895, V-B:ILE:369:CD1:8207, H-B:GLY:454:N:9018, H-B:TYR:484:OH:9316, H-B:ARG:545:NE:9893, H-B:ARG:545:NH1:9896"]

$$$$
2a_Ghoteimi_2023
     RDKit          3D

 48 53  0  0  0  0  0  0  0  0999 V2000
  126.8730  122.4330   55.6760 C   0  0  0  0  0  0  0  0  0  0  0  0
  125.4630  122.6940   56.2140 C   0  0  0  0  0  0  0  0  0  0  0  0
  125.2550  124.0950   56.3340 O   0  0  0  0  0  0  0  0  0  0  0  0
  125.0520  124.6730   57.5450 C   0  0  0  0  0  0  0  0  0  0  0  0
  124.1610  125.5010   57.7630 O   0  0  0  0  0  0  0  0  0  0  0  0
  126.0140  124.2000   58.5970 C   0  0  0  0  0  0  0  0  0  0  0  0
  127.4000  124.1770   58.3790 C   0  0  0  0  0  0  0  0  0  0  0  0
  128.2640  123.7340   59.3750 C   0  0  0  0  0  0  0  0  0  0  0  0
  127.7660  123.3100   60.6090 C   0  0  0  0  0  0  0  0  0  0  0  0
  128.7300  122.8780   61.5410 N   0  0  0  0  0  0  0  0  0  0  0  0
  129.4840  121.7570   61.5490 C   0  0  0  0  0  0  0  0  0  0  0  0
  129.4170  120.8510   60.7180 O   0  0  0  0  0  0  0  0  0  0  0  0
  130.4560  121.6350   62.7300 C   0  0  0  0  0  0  0  0  0  0  0  0
  131.9280  122.7020   62.6090 S   0  0  0  0  0  0  0  0  0  0  0  0
  131.3280  124.3680   62.7700 C   0  0  0  0  0  0  0  0  0  0  0  0
  131.0070  124.7140   64.0380 N   0  0  0  0  0  0  0  0  0  0  0  0
  130.5280  125.9590   64.2890 C   0  0  0  0  0  0  0  0  0  0  0  0
  130.1860  126.2680   65.7110 C   0  0  0  0  0  0  0  0  0  0  0  0
  130.2490  127.5770   66.2040 C   0  0  0  0  0  0  0  0  0  0  0  0
  129.9410  127.8570   67.5320 C   0  0  0  0  0  0  0  0  0  0  0  0
  129.5500  126.8410   68.4160 C   0  0  0  0  0  0  0  0  0  0  0  0
  129.2720  127.1330   69.7550 N   0  0  0  0  0  0  0  0  0  0  0  0
  130.1580  128.0040   70.5530 C   0  0  0  0  0  0  0  0  0  0  0  0
  129.5220  128.5040   71.8670 C   0  0  0  0  0  0  0  0  0  0  0  0
  129.0650  127.4030   72.6360 O   0  0  0  0  0  0  0  0  0  0  0  0
  128.0830  126.6550   71.9370 C   0  0  0  0  0  0  0  0  0  0  0  0
  128.6740  126.0980   70.6250 C   0  0  0  0  0  0  0  0  0  0  0  0
  129.4990  125.5280   67.9190 C   0  0  0  0  0  0  0  0  0  0  0  0
  129.8050  125.2490   66.5910 C   0  0  0  0  0  0  0  0  0  0  0  0
  130.3730  126.8930   63.2620 C   0  0  0  0  0  0  0  0  0  0  0  0
  130.6990  126.5570   61.9410 C   0  0  0  0  0  0  0  0  0  0  0  0
  130.5030  127.6030   60.8910 C   0  0  0  0  0  0  0  0  0  0  0  0
  131.0090  128.8910   61.0790 C   0  0  0  0  0  0  0  0  0  0  0  0
  130.8150  129.8770   60.1170 C   0  0  0  0  0  0  0  0  0  0  0  0
  130.1110  129.6030   58.9340 C   0  0  0  0  0  0  0  0  0  0  0  0
  129.8890  130.5840   57.9630 N   0  0  0  0  0  0  0  0  0  0  0  0
  131.0230  131.0670   57.1500 C   0  0  0  0  0  0  0  0  0  0  0  0
  130.5840  131.8340   55.8850 C   0  0  0  0  0  0  0  0  0  0  0  0
  129.7250  132.9070   56.2400 O   0  0  0  0  0  0  0  0  0  0  0  0
  128.5570  132.4470   56.9020 C   0  0  0  0  0  0  0  0  0  0  0  0
  128.9420  131.6930   58.1910 C   0  0  0  0  0  0  0  0  0  0  0  0
  129.5960  128.3110   58.7580 C   0  0  0  0  0  0  0  0  0  0  0  0
  129.7890  127.3250   59.7220 C   0  0  0  0  0  0  0  0  0  0  0  0
  131.1980  125.2580   61.6810 C   0  0  0  0  0  0  0  0  0  0  0  0
  131.6080  124.8660   60.3280 C   0  0  0  0  0  0  0  0  0  0  0  0
  131.9310  124.5590   59.2600 N   0  0  0  0  0  0  0  0  0  0  0  0
  126.3820  123.3210   60.8310 C   0  0  0  0  0  0  0  0  0  0  0  0
  125.5180  123.7670   59.8340 C   0  0  0  0  0  0  0  0  0  0  0  0
  1  2  1  0
  2  3  1  0
  3  4  1  0
  4  5  2  0
  4  6  1  0
  6  7  2  0
  7  8  1  0
  8  9  2  0
  9 10  1  0
 10 11  1  0
 11 12  2  0
 11 13  1  0
 13 14  1  0
 14 15  1  0
 15 16  2  0
 16 17  1  0
 17 18  1  0
 18 19  2  0
 19 20  1  0
 20 21  2  0
 21 22  1  0
 22 23  1  0
 23 24  1  0
 24 25  1  0
 25 26  1  0
 26 27  1  0
 21 28  1  0
 28 29  2  0
 17 30  2  0
 30 31  1  0
 31 32  1  0
 32 33  2  0
 33 34  1  0
 34 35  2  0
 35 36  1  0
 36 37  1  0
 37 38  1  0
 38 39  1  0
 39 40  1  0
 40 41  1  0
 35 42  1  0
 42 43  2  0
 31 44  2  0
 44 45  1  0
 45 46  3  0
  9 47  1  0
 47 48  2  0
 48  6  1  0
 44 15  1  0
 29 18  1  0
 43 32  1  0
 27 22  1  0
 41 36  1  0
M  END
>  <Binding energies>  (8) 
[-11.36]

>  <Ligand effiencies>  (8) 
[-0.23183673469387753]

>  <Interactions>  (8) 
["V-B:TYR:539:CE2:9845, V-B:PRO:540:N:9853, V-B:PRO:540:CB:9854, V-A:LEU:475:CD1:4254, V-B:PRO:540:CA:9852, V-B:ILE:538:CA:9829, V-B:LEU:363:CD1:8157, V-B:ALA:541:CB:9861, V-B:ILE:538:CG2:9832, V-A:TYR:484:CE1:4341, V-B:ILE:538:CB:9831, V-B:GLU:543:CG:9876, H-B:GLU:543:OE2:9879, V-A:GLU:543:CD:4905, V-A:HIS:456:CE1:4066, H-B:TYR:539:OH:9847, V-A:ASP:366:CG:3209, V-A:GLU:543:CG:4904, V-B:GLU:543:CB:9875, H-B:TYR:531:OH:9764, V-B:PRO:540:CD:9856, V-A:TYR:539:C:4864, H-A:TYR:539:N:4867, V-A:ILE:538:CD1:4862, V-A:TYR:539:CZ:4874, V-A:TYR:539:CD2:4871, V-A:TYR:539:CE2:4873, V-A:TYR:539:CG:4869, V-B:HIS:456:CD2:9036, V-A:GLU:543:CB:4903, V-A:GLU:543:C:4899, H-A:LYS:547:NZ:4948, V-B:LYS:547:CE:9919"]

$$$$
2aa_Ghoteimi_2023
     RDKit          3D

 48 53  0  0  0  0  0  0  0  0999 V2000
  134.3640  129.2630   56.2990 C   0  0  0  0  0  0  0  0  0  0  0  0
  133.7870  129.9770   57.5260 C   0  0  0  0  0  0  0  0  0  0  0  0
  133.5610  131.3450   57.2120 O   0  0  0  0  0  0  0  0  0  0  0  0
  132.4180  131.7450   56.5970 C   0  0  0  0  0  0  0  0  0  0  0  0
  132.3740  132.1230   55.4220 O   0  0  0  0  0  0  0  0  0  0  0  0
  131.2090  131.6670   57.4850 C   0  0  0  0  0  0  0  0  0  0  0  0
  131.2720  131.1270   58.7770 C   0  0  0  0  0  0  0  0  0  0  0  0
  130.1350  131.0720   59.5780 C   0  0  0  0  0  0  0  0  0  0  0  0
  128.9120  131.5480   59.1020 C   0  0  0  0  0  0  0  0  0  0  0  0
  127.8280  131.4470   59.9950 N   0  0  0  0  0  0  0  0  0  0  0  0
  126.5560  131.8820   59.8650 C   0  0  0  0  0  0  0  0  0  0  0  0
  126.1000  132.4490   58.8700 O   0  0  0  0  0  0  0  0  0  0  0  0
  125.6560  131.5970   61.0740 C   0  0  0  0  0  0  0  0  0  0  0  0
  126.4630  131.4200   62.2440 O   0  0  0  0  0  0  0  0  0  0  0  0
  126.9110  130.1530   62.5960 C   0  0  0  0  0  0  0  0  0  0  0  0
  126.8800  129.1760   61.6470 N   0  0  0  0  0  0  0  0  0  0  0  0
  127.3130  127.9290   61.9570 C   0  0  0  0  0  0  0  0  0  0  0  0
  127.2450  126.9070   60.8670 C   0  0  0  0  0  0  0  0  0  0  0  0
  128.2800  126.7880   59.9340 C   0  0  0  0  0  0  0  0  0  0  0  0
  128.2260  125.8340   58.9210 C   0  0  0  0  0  0  0  0  0  0  0  0
  127.1380  124.9530   58.8120 C   0  0  0  0  0  0  0  0  0  0  0  0
  127.0610  123.9970   57.7930 N   0  0  0  0  0  0  0  0  0  0  0  0
  128.2590  123.2650   57.3320 C   0  0  0  0  0  0  0  0  0  0  0  0
  128.0610  122.5300   55.9890 C   0  0  0  0  0  0  0  0  0  0  0  0
  126.9390  121.6670   56.0690 O   0  0  0  0  0  0  0  0  0  0  0  0
  125.7480  122.3870   56.3480 C   0  0  0  0  0  0  0  0  0  0  0  0
  125.8770  123.1180   57.7020 C   0  0  0  0  0  0  0  0  0  0  0  0
  126.0930  125.0900   59.7370 C   0  0  0  0  0  0  0  0  0  0  0  0
  126.1480  126.0460   60.7470 C   0  0  0  0  0  0  0  0  0  0  0  0
  127.7760  127.6230   63.2410 C   0  0  0  0  0  0  0  0  0  0  0  0
  127.8080  128.6060   64.2370 C   0  0  0  0  0  0  0  0  0  0  0  0
  128.2890  128.2130   65.5970 C   0  0  0  0  0  0  0  0  0  0  0  0
  128.4350  126.8640   65.9310 C   0  0  0  0  0  0  0  0  0  0  0  0
  128.8640  126.4910   67.2010 C   0  0  0  0  0  0  0  0  0  0  0  0
  129.1450  127.4560   68.1810 C   0  0  0  0  0  0  0  0  0  0  0  0
  129.5800  127.1040   69.4610 N   0  0  0  0  0  0  0  0  0  0  0  0
  128.6770  126.4520   70.4280 C   0  0  0  0  0  0  0  0  0  0  0  0
  129.4130  125.8270   71.6330 C   0  0  0  0  0  0  0  0  0  0  0  0
  130.2150  126.8070   72.2720 O   0  0  0  0  0  0  0  0  0  0  0  0
  131.1900  127.3410   71.3900 C   0  0  0  0  0  0  0  0  0  0  0  0
  130.5020  128.0070   70.1810 C   0  0  0  0  0  0  0  0  0  0  0  0
  129.0030  128.8060   67.8340 C   0  0  0  0  0  0  0  0  0  0  0  0
  128.5750  129.1800   66.5640 C   0  0  0  0  0  0  0  0  0  0  0  0
  127.3760  129.9100   63.9010 C   0  0  0  0  0  0  0  0  0  0  0  0
  127.4210  131.0130   64.8640 C   0  0  0  0  0  0  0  0  0  0  0  0
  127.4570  131.8830   65.6260 N   0  0  0  0  0  0  0  0  0  0  0  0
  128.8420  132.0960   57.8130 C   0  0  0  0  0  0  0  0  0  0  0  0
  129.9810  132.1530   57.0160 C   0  0  0  0  0  0  0  0  0  0  0  0
  1  2  1  0
  2  3  1  0
  3  4  1  0
  4  5  2  0
  4  6  1  0
  6  7  2  0
  7  8  1  0
  8  9  2  0
  9 10  1  0
 10 11  1  0
 11 12  2  0
 11 13  1  0
 13 14  1  0
 14 15  1  0
 15 16  2  0
 16 17  1  0
 17 18  1  0
 18 19  2  0
 19 20  1  0
 20 21  2  0
 21 22  1  0
 22 23  1  0
 23 24  1  0
 24 25  1  0
 25 26  1  0
 26 27  1  0
 21 28  1  0
 28 29  2  0
 17 30  2  0
 30 31  1  0
 31 32  1  0
 32 33  2  0
 33 34  1  0
 34 35  2  0
 35 36  1  0
 36 37  1  0
 37 38  1  0
 38 39  1  0
 39 40  1  0
 40 41  1  0
 35 42  1  0
 42 43  2  0
 31 44  2  0
 44 45  1  0
 45 46  3  0
  9 47  1  0
 47 48  2  0
 48  6  1  0
 44 15  1  0
 29 18  1  0
 43 32  1  0
 27 22  1  0
 41 36  1  0
M  END
>  <Binding energies>  (9) 
[-10.18]

>  <Ligand effiencies>  (9) 
[-0.20775510204081632]

>  <Interactions>  (9) 
["V-B:PRO:540:N:9853, V-B:PRO:540:CB:9854, V-B:TYR:539:CZ:9846, V-B:PRO:540:CA:9852, H-B:TYR:539:N:9839, V-B:TYR:539:CD1:9842, V-B:LEU:363:CD1:8157, V-B:ILE:538:CG2:9832, V-B:TYR:539:CE1:9844, V-B:GLU:543:CD:9877, V-B:ILE:538:CB:9831, V-B:GLU:543:CG:9876, V-A:GLU:543:CD:4905, V-A:ASP:366:CB:3208, V-A:HIS:456:CE1:4066, V-A:ASP:366:CG:3209, V-A:GLU:543:CG:4904, V-B:GLU:543:CB:9875, H-A:TYR:531:OH:4792, V-B:PRO:540:CD:9856, V-A:PRO:540:CB:4882, V-A:TYR:539:C:4864, V-A:PRO:540:CA:4880, V-A:LEU:363:CD1:3185, V-A:PRO:540:N:4881, V-A:TYR:531:CZ:4791, V-A:TYR:531:CE2:4790, V-A:LEU:363:CA:3181, V-A:TYR:539:CD2:4871, V-A:GLU:543:CB:4903, V-A:GLU:543:C:4899, H-A:LYS:547:NZ:4948, V-A:GLY:544:C:4909, V-B:HIS:456:CE1:9038, H-A:GLU:543:OE2:4907, V-A:HIS:456:CD2:4064, H-B:TYR:484:OH:9316, V-A:LEU:363:C:3179, V-A:GLU:543:CA:4901, V-A:HIS:456:CG:4062"]

$$$$
2b_Ghoteimi_2023
     RDKit          3D

 42 47  0  0  0  0  0  0  0  0999 V2000
  129.4940  122.7900   65.1470 N   0  0  0  0  0  0  0  0  0  0  0  0
  129.5040  123.6980   64.4290 C   0  0  0  0  0  0  0  0  0  0  0  0
  129.5170  124.8510   63.5240 C   0  0  0  0  0  0  0  0  0  0  0  0
  129.4420  126.1700   64.0370 C   0  0  0  0  0  0  0  0  0  0  0  0
  129.3490  126.4900   65.4920 C   0  0  0  0  0  0  0  0  0  0  0  0
  129.9610  125.6640   66.4360 C   0  0  0  0  0  0  0  0  0  0  0  0
  129.8770  125.9580   67.7940 C   0  0  0  0  0  0  0  0  0  0  0  0
  129.1620  127.0780   68.2460 C   0  0  0  0  0  0  0  0  0  0  0  0
  129.0730  127.4000   69.6020 N   0  0  0  0  0  0  0  0  0  0  0  0
  128.3070  126.5170   70.5030 C   0  0  0  0  0  0  0  0  0  0  0  0
  127.9720  127.1700   71.8600 C   0  0  0  0  0  0  0  0  0  0  0  0
  129.1590  127.6320   72.4870 O   0  0  0  0  0  0  0  0  0  0  0  0
  129.8310  128.5950   71.6900 C   0  0  0  0  0  0  0  0  0  0  0  0
  130.2210  127.9730   70.3330 C   0  0  0  0  0  0  0  0  0  0  0  0
  128.5480  127.9000   67.2910 C   0  0  0  0  0  0  0  0  0  0  0  0
  128.6360  127.6090   65.9330 C   0  0  0  0  0  0  0  0  0  0  0  0
  129.4630  127.2390   63.1330 C   0  0  0  0  0  0  0  0  0  0  0  0
  129.5870  127.0040   61.7610 C   0  0  0  0  0  0  0  0  0  0  0  0
  129.6450  128.1120   60.7570 C   0  0  0  0  0  0  0  0  0  0  0  0
  130.6860  129.0460   60.7840 C   0  0  0  0  0  0  0  0  0  0  0  0
  130.7540  130.0700   59.8430 C   0  0  0  0  0  0  0  0  0  0  0  0
  129.7750  130.2060   58.8460 C   0  0  0  0  0  0  0  0  0  0  0  0
  129.8470  131.2120   57.8760 N   0  0  0  0  0  0  0  0  0  0  0  0
  131.1120  131.4450   57.1500 C   0  0  0  0  0  0  0  0  0  0  0  0
  131.1630  132.8020   56.4160 C   0  0  0  0  0  0  0  0  0  0  0  0
  130.0470  132.9270   55.5470 O   0  0  0  0  0  0  0  0  0  0  0  0
  128.8230  132.8680   56.2620 C   0  0  0  0  0  0  0  0  0  0  0  0
  128.7030  131.5150   56.9940 C   0  0  0  0  0  0  0  0  0  0  0  0
  128.7380  129.2630   58.8190 C   0  0  0  0  0  0  0  0  0  0  0  0
  128.6720  128.2380   59.7580 C   0  0  0  0  0  0  0  0  0  0  0  0
  129.6600  125.7400   61.2720 N   0  0  0  0  0  0  0  0  0  0  0  0
  129.6080  124.6880   62.1230 C   0  0  0  0  0  0  0  0  0  0  0  0
  129.7110  123.1080   61.3110 S   0  0  0  0  0  0  0  0  0  0  0  0
  130.4810  123.3760   59.6850 C   0  0  0  0  0  0  0  0  0  0  0  0
  129.4400  123.5200   58.5730 C   0  0  0  0  0  0  0  0  0  0  0  0
  129.4940  124.4920   57.8180 O   0  0  0  0  0  0  0  0  0  0  0  0
  128.5140  122.5390   58.5130 N   0  0  0  0  0  0  0  0  0  0  0  0
  127.4720  122.4190   57.6040 C   0  0  0  0  0  0  0  0  0  0  0  0
  126.2650  123.1040   57.7360 C   0  0  0  0  0  0  0  0  0  0  0  0
  125.5150  122.7180   56.6500 C   0  0  0  0  0  0  0  0  0  0  0  0
  126.2320  121.8460   55.9030 O   0  0  0  0  0  0  0  0  0  0  0  0
  127.4740  121.6650   56.5170 N   0  0  0  0  0  0  0  0  0  0  0  0
  1  2  3  0
  2  3  1  0
  3  4  2  0
  4  5  1  0
  5  6  2  0
  6  7  1  0
  7  8  2  0
  8  9  1  0
  9 10  1  0
 10 11  1  0
 11 12  1  0
 12 13  1  0
 13 14  1  0
  8 15  1  0
 15 16  2  0
  4 17  1  0
 17 18  2  0
 18 19  1  0
 19 20  2  0
 20 21  1  0
 21 22  2  0
 22 23  1  0
 23 24  1  0
 24 25  1  0
 25 26  1  0
 26 27  1  0
 27 28  1  0
 22 29  1  0
 29 30  2  0
 18 31  1  0
 31 32  2  0
 32 33  1  0
 33 34  1  0
 34 35  1  0
 35 36  2  0
 35 37  1  0
 37 38  1  0
 38 39  1  0
 39 40  2  0
 40 41  1  0
 41 42  1  0
 32  3  1  0
 42 38  2  0
 16  5  1  0
 30 19  1  0
 14  9  1  0
 28 23  1  0
M  END
>  <Binding energies>  (10) 
[-11.17]

>  <Ligand effiencies>  (10) 
[-0.25976744186046513]

>  <Interactions>  (10) 
["V-B:TYR:539:CE2:9845, V-B:PRO:540:N:9853, V-B:PRO:540:CB:9854, V-B:TYR:539:CZ:9846, V-B:PRO:540:CA:9852, H-B:TYR:539:N:9839, V-B:TYR:539:C:9836, V-B:LEU:363:CD1:8157, V-B:ALA:541:CB:9861, V-B:TYR:539:CE1:9844, V-B:GLU:543:CD:9877, V-B:GLU:543:CG:9876, V-A:GLU:543:CD:4905, V-A:HIS:456:CE1:4066, H-B:TYR:539:OH:9847, V-B:GLU:543:CB:9875, H-A:TYR:484:OH:4344, V-B:PRO:540:CD:9856, V-A:PRO:540:CB:4882, V-A:TYR:539:C:4864, V-A:PRO:540:CA:4880, H-A:TYR:539:N:4867, V-A:PRO:540:N:4881, V-A:TYR:539:CD1:4870, V-A:ILE:538:CG2:4860, V-A:TYR:539:CZ:4874, V-B:TYR:539:CG:9841, V-B:TYR:539:CD2:9843, V-A:TYR:539:CD2:4871, V-A:TYR:539:CE2:4873, V-A:TYR:539:CG:4869, V-B:HIS:456:CD2:9036, V-A:GLU:543:C:4899, H-A:LYS:547:NZ:4948, V-B:LYS:547:CE:9919, V-B:HIS:456:CE1:9038, H-B:TYR:539:O:9837, V-A:TYR:539:CA:4866, V-A:PRO:540:CD:4884"]

$$$$
2c_Ghoteimi_2023
     RDKit          3D

 42 47  0  0  0  0  0  0  0  0999 V2000
  130.6800  122.4790   64.8750 N   0  0  0  0  0  0  0  0  0  0  0  0
  130.6500  123.3700   64.1380 C   0  0  0  0  0  0  0  0  0  0  0  0
  130.6120  124.5040   63.2090 C   0  0  0  0  0  0  0  0  0  0  0  0
  130.4070  125.8220   63.6870 C   0  0  0  0  0  0  0  0  0  0  0  0
  130.2140  126.1630   65.1280 C   0  0  0  0  0  0  0  0  0  0  0  0
  131.1920  126.8840   65.8170 C   0  0  0  0  0  0  0  0  0  0  0  0
  131.0170  127.2110   67.1590 C   0  0  0  0  0  0  0  0  0  0  0  0
  129.8660  126.8120   67.8550 C   0  0  0  0  0  0  0  0  0  0  0  0
  129.6610  127.1460   69.1960 N   0  0  0  0  0  0  0  0  0  0  0  0
  128.8410  126.2580   70.0440 C   0  0  0  0  0  0  0  0  0  0  0  0
  128.3800  126.9250   71.3580 C   0  0  0  0  0  0  0  0  0  0  0  0
  129.5030  127.4150   72.0750 O   0  0  0  0  0  0  0  0  0  0  0  0
  130.2240  128.3800   71.3240 C   0  0  0  0  0  0  0  0  0  0  0  0
  130.7320  127.7520   70.0100 C   0  0  0  0  0  0  0  0  0  0  0  0
  128.8910  126.0850   67.1570 C   0  0  0  0  0  0  0  0  0  0  0  0
  129.0650  125.7610   65.8140 C   0  0  0  0  0  0  0  0  0  0  0  0
  130.3830  126.8710   62.7600 C   0  0  0  0  0  0  0  0  0  0  0  0
  130.5840  126.6190   61.3990 C   0  0  0  0  0  0  0  0  0  0  0  0
  130.5840  127.7060   60.3720 C   0  0  0  0  0  0  0  0  0  0  0  0
  130.5240  127.4000   59.0090 C   0  0  0  0  0  0  0  0  0  0  0  0
  130.5190  128.4080   58.0480 C   0  0  0  0  0  0  0  0  0  0  0  0
  130.5850  129.7620   58.4160 C   0  0  0  0  0  0  0  0  0  0  0  0
  130.5550  130.7870   57.4650 N   0  0  0  0  0  0  0  0  0  0  0  0
  129.3340  131.6030   57.3000 C   0  0  0  0  0  0  0  0  0  0  0  0
  129.3030  132.4140   55.9880 C   0  0  0  0  0  0  0  0  0  0  0  0
  130.4650  133.2190   55.8870 O   0  0  0  0  0  0  0  0  0  0  0  0
  131.6450  132.4320   55.8800 C   0  0  0  0  0  0  0  0  0  0  0  0
  131.7460  131.6160   57.1870 C   0  0  0  0  0  0  0  0  0  0  0  0
  130.6320  130.0630   59.7840 C   0  0  0  0  0  0  0  0  0  0  0  0
  130.6360  129.0550   60.7440 C   0  0  0  0  0  0  0  0  0  0  0  0
  130.7830  125.3560   60.9440 N   0  0  0  0  0  0  0  0  0  0  0  0
  130.7790  124.3210   61.8180 C   0  0  0  0  0  0  0  0  0  0  0  0
  131.0430  122.7390   61.0480 S   0  0  0  0  0  0  0  0  0  0  0  0
  129.4090  122.0410   60.6630 C   0  0  0  0  0  0  0  0  0  0  0  0
  128.7720  122.7090   59.4430 C   0  0  0  0  0  0  0  0  0  0  0  0
  129.1700  123.8190   59.0860 O   0  0  0  0  0  0  0  0  0  0  0  0
  127.7910  122.0050   58.8390 N   0  0  0  0  0  0  0  0  0  0  0  0
  127.0730  122.3810   57.7130 C   0  0  0  0  0  0  0  0  0  0  0  0
  127.2640  122.0000   56.4690 N   0  0  0  0  0  0  0  0  0  0  0  0
  126.3880  122.5520   55.6530 C   0  0  0  0  0  0  0  0  0  0  0  0
  125.4560  123.4050   56.2360 C   0  0  0  0  0  0  0  0  0  0  0  0
  125.7520  123.4810   57.9480 S   0  0  0  0  0  0  0  0  0  0  0  0
  1  2  3  0
  2  3  1  0
  3  4  2  0
  4  5  1  0
  5  6  2  0
  6  7  1  0
  7  8  2  0
  8  9  1  0
  9 10  1  0
 10 11  1  0
 11 12  1  0
 12 13  1  0
 13 14  1  0
  8 15  1  0
 15 16  2  0
  4 17  1  0
 17 18  2  0
 18 19  1  0
 19 20  2  0
 20 21  1  0
 21 22  2  0
 22 23  1  0
 23 24  1  0
 24 25  1  0
 25 26  1  0
 26 27  1  0
 27 28  1  0
 22 29  1  0
 29 30  2  0
 18 31  1  0
 31 32  2  0
 32 33  1  0
 33 34  1  0
 34 35  1  0
 35 36  2  0
 35 37  1  0
 37 38  1  0
 38 39  2  0
 39 40  1  0
 40 41  2  0
 41 42  1  0
 32  3  1  0
 42 38  1  0
 16  5  1  0
 30 19  1  0
 14  9  1  0
 28 23  1  0
M  END
>  <Binding energies>  (11) 
[-11.42]

>  <Ligand effiencies>  (11) 
[-0.26558139534883723]

>  <Interactions>  (11) 
["V-B:TYR:539:CE2:9845, V-B:PRO:540:N:9853, V-B:PRO:540:CB:9854, V-B:TYR:539:CZ:9846, V-B:PRO:540:CA:9852, H-B:TYR:539:N:9839, V-B:ILE:538:CA:9829, V-B:TYR:539:C:9836, V-B:LEU:363:CD1:8157, V-B:ALA:541:CB:9861, V-B:ILE:538:CG2:9832, V-B:GLU:543:CD:9877, V-B:ILE:538:CB:9831, V-B:GLU:543:CG:9876, V-A:GLU:543:CD:4905, V-A:HIS:456:CE1:4066, V-A:ASP:366:CG:3209, V-B:GLU:543:CB:9875, H-A:TYR:484:OH:4344, V-B:PRO:540:CD:9856, V-A:PRO:540:CB:4882, V-A:TYR:539:C:4864, V-A:PRO:540:CA:4880, H-A:TYR:539:N:4867, V-A:LEU:363:CD1:3185, V-A:PRO:540:N:4881, V-A:ILE:538:CG2:4860, V-A:ILE:538:CD1:4862, V-B:TYR:539:CD2:9843, V-B:HIS:456:CD2:9036, V-A:GLU:543:CB:4903, V-A:GLU:543:C:4899, H-A:LYS:547:NZ:4948, V-A:GLY:544:C:4909, H-B:TYR:539:O:9837, V-A:PRO:540:CD:4884, V-A:HIS:456:CD2:4064"]

$$$$
2j_Grossjean_2025
     RDKit          3D

 23 24  0  0  0  0  0  0  0  0999 V2000
  124.2510  131.3530   57.2720 C   0  0  0  0  0  0  0  0  0  0  0  0
  125.4820  130.5650   56.8680 C   0  0  0  0  0  0  0  0  0  0  0  0
  125.9740  129.5260   57.6540 C   0  0  0  0  0  0  0  0  0  0  0  0
  127.1150  128.8240   57.2360 C   0  0  0  0  0  0  0  0  0  0  0  0
  127.6450  127.6770   58.1170 C   0  0  0  0  0  0  0  0  0  0  0  0
  126.9540  127.6210   59.2560 F   0  0  0  0  0  0  0  0  0  0  0  0
  127.5190  126.5130   57.4770 F   0  0  0  0  0  0  0  0  0  0  0  0
  128.9330  127.8230   58.4340 F   0  0  0  0  0  0  0  0  0  0  0  0
  127.7330  129.2020   56.0170 C   0  0  0  0  0  0  0  0  0  0  0  0
  128.9270  128.5040   55.5320 C   0  0  0  0  0  0  0  0  0  0  0  0
  129.8690  127.9510   55.1490 N   0  0  0  0  0  0  0  0  0  0  0  0
  127.1660  130.2700   55.2820 C   0  0  0  0  0  0  0  0  0  0  0  0
  127.8590  130.8300   53.7330 S   0  0  0  0  0  0  0  0  0  0  0  0
  128.7530  132.3930   54.0350 C   0  0  0  0  0  0  0  0  0  0  0  0
  129.5580  132.4350   55.3420 C   0  0  0  0  0  0  0  0  0  0  0  0
  129.2890  133.2560   56.2210 O   0  0  0  0  0  0  0  0  0  0  0  0
  130.5560  131.5270   55.4210 N   0  0  0  0  0  0  0  0  0  0  0  0
  131.4310  131.3470   56.4840 C   0  0  0  0  0  0  0  0  0  0  0  0
  132.7450  131.4070   56.4660 N   0  0  0  0  0  0  0  0  0  0  0  0
  133.2570  131.1860   57.6620 C   0  0  0  0  0  0  0  0  0  0  0  0
  132.3470  130.9390   58.6850 C   0  0  0  0  0  0  0  0  0  0  0  0
  130.7360  131.0020   58.0350 S   0  0  0  0  0  0  0  0  0  0  0  0
  126.0600  130.9360   55.7030 N   0  0  0  0  0  0  0  0  0  0  0  0
  1  2  1  0
  2  3  2  0
  3  4  1  0
  4  5  1  0
  5  6  1  0
  5  7  1  0
  5  8  1  0
  4  9  2  0
  9 10  1  0
 10 11  3  0
  9 12  1  0
 12 13  1  0
 13 14  1  0
 14 15  1  0
 15 16  2  0
 15 17  1  0
 17 18  1  0
 18 19  2  0
 19 20  1  0
 20 21  2  0
 21 22  1  0
 12 23  2  0
 23  2  1  0
 22 18  1  0
M  END
>  <Binding energies>  (12) 
[-6.32]

>  <Ligand effiencies>  (12) 
[-0.26333333333333336]

>  <Interactions>  (12) 
["V-B:MET:535:CE:9804, H-A:TYR:531:OH:4792, H-B:TYR:531:OH:9764, H-A:TYR:539:OH:4875, V-A:PRO:540:CB:4882, V-A:TYR:539:CE1:4872, V-A:PRO:540:CA:4880, H-A:TYR:539:N:4867, V-A:LEU:363:CD1:3185, H-B:LYS:534:NZ:9792, V-A:ILE:538:CA:4857, V-A:ILE:538:CD1:4862, V-A:TYR:539:CZ:4874, V-B:ASP:366:CB:8180, V-A:LEU:363:CA:3181, V-A:LEU:363:CB:3183, V-A:TYR:539:CE2:4873, V-B:ILE:369:CG2:8205"]

$$$$
3ab_Grossjean_2025
     RDKit          3D

 33 35  0  0  0  0  0  0  0  0999 V2000
  128.0160  122.6690   54.9790 C   0  0  0  0  0  0  0  0  0  0  0  0
  127.2440  121.9190   55.9070 O   0  0  0  0  0  0  0  0  0  0  0  0
  126.3710  122.5330   56.7470 C   0  0  0  0  0  0  0  0  0  0  0  0
  125.2380  122.8890   56.4100 O   0  0  0  0  0  0  0  0  0  0  0  0
  126.9200  122.7330   58.1300 C   0  0  0  0  0  0  0  0  0  0  0  0
  128.1450  122.1770   58.5310 C   0  0  0  0  0  0  0  0  0  0  0  0
  128.6300  122.3800   59.8200 C   0  0  0  0  0  0  0  0  0  0  0  0
  127.8930  123.1470   60.7360 C   0  0  0  0  0  0  0  0  0  0  0  0
  128.2890  123.4220   62.0590 N   0  0  0  0  0  0  0  0  0  0  0  0
  129.4430  123.1340   62.6960 C   0  0  0  0  0  0  0  0  0  0  0  0
  130.4000  122.5340   62.2060 O   0  0  0  0  0  0  0  0  0  0  0  0
  129.5270  123.6070   64.1490 C   0  0  0  0  0  0  0  0  0  0  0  0
  130.5550  125.0960   64.3250 S   0  0  0  0  0  0  0  0  0  0  0  0
  129.5500  126.3520   65.0880 C   0  0  0  0  0  0  0  0  0  0  0  0
  129.6000  126.3370   66.4410 N   0  0  0  0  0  0  0  0  0  0  0  0
  128.8850  127.2460   67.1540 C   0  0  0  0  0  0  0  0  0  0  0  0
  128.9970  127.1640   68.6480 C   0  0  0  0  0  0  0  0  0  0  0  0
  128.0150  126.5080   69.4070 C   0  0  0  0  0  0  0  0  0  0  0  0
  128.1140  126.4280   70.7940 C   0  0  0  0  0  0  0  0  0  0  0  0
  129.2000  127.0060   71.4420 C   0  0  0  0  0  0  0  0  0  0  0  0
  130.1850  127.6660   70.7140 C   0  0  0  0  0  0  0  0  0  0  0  0
  130.0820  127.7430   69.3290 C   0  0  0  0  0  0  0  0  0  0  0  0
  128.0770  128.1870   66.5080 C   0  0  0  0  0  0  0  0  0  0  0  0
  127.9930  128.2100   65.1080 C   0  0  0  0  0  0  0  0  0  0  0  0
  127.0870  129.2600   64.4350 C   0  0  0  0  0  0  0  0  0  0  0  0
  127.7270  129.9780   63.5090 F   0  0  0  0  0  0  0  0  0  0  0  0
  126.0580  128.6610   63.8350 F   0  0  0  0  0  0  0  0  0  0  0  0
  126.6190  130.1090   65.3500 F   0  0  0  0  0  0  0  0  0  0  0  0
  128.7430  127.2620   64.3690 C   0  0  0  0  0  0  0  0  0  0  0  0
  128.6480  127.2060   62.9080 C   0  0  0  0  0  0  0  0  0  0  0  0
  128.5710  127.1640   61.7540 N   0  0  0  0  0  0  0  0  0  0  0  0
  126.6780  123.7070   60.3380 C   0  0  0  0  0  0  0  0  0  0  0  0
  126.1950  123.5010   59.0500 C   0  0  0  0  0  0  0  0  0  0  0  0
  1  2  1  0
  2  3  1  0
  3  4  2  0
  3  5  1  0
  5  6  2  0
  6  7  1  0
  7  8  2  0
  8  9  1  0
  9 10  1  0
 10 11  2  0
 10 12  1  0
 12 13  1  0
 13 14  1  0
 14 15  2  0
 15 16  1  0
 16 17  1  0
 17 18  2  0
 18 19  1  0
 19 20  2  0
 20 21  1  0
 21 22  2  0
 16 23  2  0
 23 24  1  0
 24 25  1  0
 25 26  1  0
 25 27  1  0
 25 28  1  0
 24 29  2  0
 29 30  1  0
 30 31  3  0
  8 32  1  0
 32 33  2  0
 33  5  1  0
 29 14  1  0
 22 17  1  0
M  END
>  <Binding energies>  (13) 
[-8.81]

>  <Ligand effiencies>  (13) 
[-0.25911764705882356]

>  <Interactions>  (13) 
["V-B:TYR:539:CE2:9845, V-B:PRO:540:N:9853, V-B:PRO:540:CB:9854, V-B:TYR:539:CZ:9846, V-B:PRO:540:CA:9852, H-B:TYR:539:N:9839, V-B:TYR:539:CD1:9842, V-B:ILE:538:CA:9829, V-B:TYR:539:C:9836, V-B:ALA:541:CB:9861, V-B:ILE:538:CG2:9832, V-B:TYR:539:CE1:9844, V-B:GLU:543:CD:9877, V-B:ILE:538:CB:9831, V-B:GLU:543:CG:9876, H-B:GLU:543:OE2:9879, V-B:MET:535:CE:9804, V-A:GLU:543:CD:4905, V-A:HIS:456:CE1:4066, V-B:PRO:540:CD:9856, V-B:TYR:539:CG:9841, V-B:TYR:539:CD2:9843, V-B:HIS:456:CD2:9036, V-B:HIS:456:CE1:9038, V-B:GLY:544:C:9881, V-B:ARG:545:CZ:9895, V-B:GLU:543:C:9871, V-A:HIS:456:CD2:4064"]

$$$$
3ac_Grossjean_2025
     RDKit          3D

 31 33  0  0  0  0  0  0  0  0999 V2000
  128.4530  127.9470   73.3260 C   0  0  0  0  0  0  0  0  0  0  0  0
  129.5240  127.6380   72.4390 O   0  0  0  0  0  0  0  0  0  0  0  0
  129.2410  127.3140   71.1260 C   0  0  0  0  0  0  0  0  0  0  0  0
  130.0830  127.8570   70.1560 C   0  0  0  0  0  0  0  0  0  0  0  0
  129.8790  127.5830   68.8070 C   0  0  0  0  0  0  0  0  0  0  0  0
  128.8200  126.7660   68.4070 C   0  0  0  0  0  0  0  0  0  0  0  0
  128.7060  126.5300   67.0240 N   0  0  0  0  0  0  0  0  0  0  0  0
  129.6760  126.2580   66.1240 C   0  0  0  0  0  0  0  0  0  0  0  0
  130.8720  126.1240   66.3860 O   0  0  0  0  0  0  0  0  0  0  0  0
  129.2080  126.1090   64.6760 C   0  0  0  0  0  0  0  0  0  0  0  0
  130.5070  126.5570   63.4840 S   0  0  0  0  0  0  0  0  0  0  0  0
  130.8470  125.1440   62.4510 C   0  0  0  0  0  0  0  0  0  0  0  0
  129.8030  124.7980   61.6610 N   0  0  0  0  0  0  0  0  0  0  0  0
  129.9160  123.7430   60.8130 C   0  0  0  0  0  0  0  0  0  0  0  0
  128.7120  123.4210   59.9790 C   0  0  0  0  0  0  0  0  0  0  0  0
  127.4240  123.7850   60.4060 C   0  0  0  0  0  0  0  0  0  0  0  0
  126.3030  123.4950   59.6330 C   0  0  0  0  0  0  0  0  0  0  0  0
  126.4550  122.8330   58.4190 C   0  0  0  0  0  0  0  0  0  0  0  0
  127.7180  122.4570   57.9750 C   0  0  0  0  0  0  0  0  0  0  0  0
  128.8360  122.7490   58.7510 C   0  0  0  0  0  0  0  0  0  0  0  0
  131.0950  122.9930   60.7570 C   0  0  0  0  0  0  0  0  0  0  0  0
  132.1830  123.3160   61.5810 C   0  0  0  0  0  0  0  0  0  0  0  0
  133.4610  122.4590   61.4910 C   0  0  0  0  0  0  0  0  0  0  0  0
  134.5590  123.1880   61.2820 F   0  0  0  0  0  0  0  0  0  0  0  0
  133.6440  121.7820   62.6260 F   0  0  0  0  0  0  0  0  0  0  0  0
  133.3540  121.5920   60.4830 F   0  0  0  0  0  0  0  0  0  0  0  0
  132.0580  124.4140   62.4680 C   0  0  0  0  0  0  0  0  0  0  0  0
  133.1380  124.7420   63.4010 C   0  0  0  0  0  0  0  0  0  0  0  0
  133.9910  125.0000   64.1390 N   0  0  0  0  0  0  0  0  0  0  0  0
  127.9720  126.2100   69.3770 C   0  0  0  0  0  0  0  0  0  0  0  0
  128.1800  126.4860   70.7260 C   0  0  0  0  0  0  0  0  0  0  0  0
  1  2  1  0
  2  3  1  0
  3  4  2  0
  4  5  1  0
  5  6  2  0
  6  7  1  0
  7  8  1  0
  8  9  2  0
  8 10  1  0
 10 11  1  0
 11 12  1  0
 12 13  2  0
 13 14  1  0
 14 15  1  0
 15 16  2  0
 16 17  1  0
 17 18  2  0
 18 19  1  0
 19 20  2  0
 14 21  2  0
 21 22  1  0
 22 23  1  0
 23 24  1  0
 23 25  1  0
 23 26  1  0
 22 27  2  0
 27 28  1  0
 28 29  3  0
  6 30  1  0
 30 31  2  0
 31  3  1  0
 27 12  1  0
 20 15  1  0
M  END
>  <Binding energies>  (14) 
[-8.11]

>  <Ligand effiencies>  (14) 
[-0.2534375]

>  <Interactions>  (14) 
["V-B:TYR:539:CE2:9845, V-B:PRO:540:N:9853, V-B:PRO:540:CB:9854, V-B:TYR:539:CZ:9846, V-A:LEU:475:CD1:4254, V-B:PRO:540:CA:9852, V-B:TYR:539:C:9836, V-B:TYR:539:CE1:9844, V-B:GLU:543:CD:9877, V-B:GLU:543:CG:9876, V-A:ARG:545:CZ:4923, V-A:GLY:454:CA:4045, V-A:HIS:456:CE1:4066, H-A:ARG:545:NH2:4925, H-A:ARG:545:NH1:4924, H-A:ARG:545:NE:4921, V-B:GLU:543:CB:9875, H-A:GLY:454:N:4046, V-B:TYR:539:CD2:9843, H-B:GLU:543:OE1:9878, V-B:HIS:456:CD2:9036, V-A:ILE:369:CB:3232, H-A:LYS:547:NZ:4948, V-A:ILE:369:CG2:3233, V-B:HIS:456:CE1:9038, V-A:GLY:453:C:4038, V-A:ILE:369:CG1:3234, V-B:GLU:543:C:9871"]

$$$$
3af_Grossjean_2025
     RDKit          3D

 29 31  0  0  0  0  0  0  0  0999 V2000
  130.6500  126.7680   54.7330 N   0  0  0  0  0  0  0  0  0  0  0  0
  129.8640  127.3580   55.3440 C   0  0  0  0  0  0  0  0  0  0  0  0
  128.8670  128.1030   56.1170 C   0  0  0  0  0  0  0  0  0  0  0  0
  128.4230  127.6260   57.3740 C   0  0  0  0  0  0  0  0  0  0  0  0
  128.9820  126.3430   58.0220 C   0  0  0  0  0  0  0  0  0  0  0  0
  128.7780  125.2550   57.2770 F   0  0  0  0  0  0  0  0  0  0  0  0
  130.2980  126.4630   58.2070 F   0  0  0  0  0  0  0  0  0  0  0  0
  128.3970  126.1330   59.2020 F   0  0  0  0  0  0  0  0  0  0  0  0
  127.4280  128.3460   58.0530 C   0  0  0  0  0  0  0  0  0  0  0  0
  126.8900  129.5090   57.4910 C   0  0  0  0  0  0  0  0  0  0  0  0
  125.8130  130.3060   58.1630 C   0  0  0  0  0  0  0  0  0  0  0  0
  124.6610  130.6920   57.4590 C   0  0  0  0  0  0  0  0  0  0  0  0
  123.6560  131.4300   58.0780 C   0  0  0  0  0  0  0  0  0  0  0  0
  123.7890  131.7920   59.4140 C   0  0  0  0  0  0  0  0  0  0  0  0
  124.9190  131.4190   60.1360 C   0  0  0  0  0  0  0  0  0  0  0  0
  125.9210  130.6810   59.5130 C   0  0  0  0  0  0  0  0  0  0  0  0
  127.3160  129.9610   56.2840 N   0  0  0  0  0  0  0  0  0  0  0  0
  128.2920  129.2950   55.6210 C   0  0  0  0  0  0  0  0  0  0  0  0
  128.7280  130.0470   54.0660 S   0  0  0  0  0  0  0  0  0  0  0  0
  128.9100  131.8360   54.3370 C   0  0  0  0  0  0  0  0  0  0  0  0
  129.6470  132.1410   55.6410 C   0  0  0  0  0  0  0  0  0  0  0  0
  129.4300  133.2070   56.2160 O   0  0  0  0  0  0  0  0  0  0  0  0
  130.5050  131.1850   56.0580 N   0  0  0  0  0  0  0  0  0  0  0  0
  131.3330  131.1560   57.1970 C   0  0  0  0  0  0  0  0  0  0  0  0
  130.9050  131.3120   58.5280 C   0  0  0  0  0  0  0  0  0  0  0  0
  131.8400  131.2640   59.5650 C   0  0  0  0  0  0  0  0  0  0  0  0
  133.1830  131.0600   59.2450 C   0  0  0  0  0  0  0  0  0  0  0  0
  133.6210  130.9060   57.9710 N   0  0  0  0  0  0  0  0  0  0  0  0
  132.7000  130.9550   56.9750 C   0  0  0  0  0  0  0  0  0  0  0  0
  1  2  3  0
  2  3  1  0
  3  4  2  0
  4  5  1  0
  5  6  1  0
  5  7  1  0
  5  8  1  0
  4  9  1  0
  9 10  2  0
 10 11  1  0
 11 12  2  0
 12 13  1  0
 13 14  2  0
 14 15  1  0
 15 16  2  0
 10 17  1  0
 17 18  2  0
 18 19  1  0
 19 20  1  0
 20 21  1  0
 21 22  2  0
 21 23  1  0
 23 24  1  0
 24 25  2  0
 25 26  1  0
 26 27  2  0
 27 28  1  0
 28 29  2  0
 18  3  1  0
 29 24  1  0
 16 11  1  0
M  END
>  <Binding energies>  (15) 
[-7.22]

>  <Ligand effiencies>  (15) 
[-0.24066666666666667]

>  <Interactions>  (15) 
["V-B:MET:535:CE:9804, H-A:TYR:531:OH:4792, V-A:PRO:540:CB:4882, V-A:PRO:540:CA:4880, H-A:TYR:539:N:4867, V-A:LEU:363:CD1:3185, V-A:ILE:538:CD1:4862, V-B:ASP:366:CB:8180, V-A:MET:535:CE:4832, V-A:LEU:363:CA:3181, V-A:TYR:539:CE2:4873, V-B:ASP:366:CG:8181, V-B:ILE:369:CG2:8205, V-B:ILE:369:CD1:8207, V-A:ASN:362:C:3168, V-B:ASP:366:CA:8178, V-B:ILE:369:CB:8204, H-A:LEU:363:N:3182, V-B:ASP:366:C:8176"]

$$$$
3ag_Grossjean_2025
     RDKit          3D

 30 32  0  0  0  0  0  0  0  0999 V2000
  130.9690  126.6790   54.9380 N   0  0  0  0  0  0  0  0  0  0  0  0
  130.1600  127.2800   55.5080 C   0  0  0  0  0  0  0  0  0  0  0  0
  129.1360  128.0370   56.2340 C   0  0  0  0  0  0  0  0  0  0  0  0
  128.7490  127.6610   57.5430 C   0  0  0  0  0  0  0  0  0  0  0  0
  129.4050  126.4900   58.3010 C   0  0  0  0  0  0  0  0  0  0  0  0
  130.7270  126.6270   58.4200 F   0  0  0  0  0  0  0  0  0  0  0  0
  128.8970  126.4040   59.5300 F   0  0  0  0  0  0  0  0  0  0  0  0
  129.1800  125.3430   57.6580 F   0  0  0  0  0  0  0  0  0  0  0  0
  127.7260  128.3850   58.1740 C   0  0  0  0  0  0  0  0  0  0  0  0
  127.1000  129.4470   57.5130 C   0  0  0  0  0  0  0  0  0  0  0  0
  126.0020  130.2520   58.1380 C   0  0  0  0  0  0  0  0  0  0  0  0
  124.8880  130.6540   57.3840 C   0  0  0  0  0  0  0  0  0  0  0  0
  123.8640  131.4030   57.9580 C   0  0  0  0  0  0  0  0  0  0  0  0
  123.9410  131.7610   59.3000 C   0  0  0  0  0  0  0  0  0  0  0  0
  125.0350  131.3780   60.0700 C   0  0  0  0  0  0  0  0  0  0  0  0
  126.0570  130.6310   59.4920 C   0  0  0  0  0  0  0  0  0  0  0  0
  127.4830  129.8130   56.2630 N   0  0  0  0  0  0  0  0  0  0  0  0
  128.4820  129.1400   55.6420 C   0  0  0  0  0  0  0  0  0  0  0  0
  128.8510  129.7590   54.0150 S   0  0  0  0  0  0  0  0  0  0  0  0
  128.5900  131.5580   54.0470 C   0  0  0  0  0  0  0  0  0  0  0  0
  129.5090  132.2570   55.0500 C   0  0  0  0  0  0  0  0  0  0  0  0
  129.0990  133.2320   55.6820 O   0  0  0  0  0  0  0  0  0  0  0  0
  130.7440  131.7430   55.1880 N   0  0  0  0  0  0  0  0  0  0  0  0
  131.7670  132.2310   56.1110 C   0  0  0  0  0  0  0  0  0  0  0  0
  131.6520  131.6650   57.5230 C   0  0  0  0  0  0  0  0  0  0  0  0
  130.3940  131.5340   58.1180 C   0  0  0  0  0  0  0  0  0  0  0  0
  130.2820  130.9910   59.3950 C   0  0  0  0  0  0  0  0  0  0  0  0
  131.4270  130.5710   60.0680 C   0  0  0  0  0  0  0  0  0  0  0  0
  132.6830  130.6840   59.4750 C   0  0  0  0  0  0  0  0  0  0  0  0
  132.7950  131.2270   58.1980 C   0  0  0  0  0  0  0  0  0  0  0  0
  1  2  3  0
  2  3  1  0
  3  4  2  0
  4  5  1  0
  5  6  1  0
  5  7  1  0
  5  8  1  0
  4  9  1  0
  9 10  2  0
 10 11  1  0
 11 12  2  0
 12 13  1  0
 13 14  2  0
 14 15  1  0
 15 16  2  0
 10 17  1  0
 17 18  2  0
 18 19  1  0
 19 20  1  0
 20 21  1  0
 21 22  2  0
 21 23  1  0
 23 24  1  0
 24 25  1  0
 25 26  2  0
 26 27  1  0
 27 28  2  0
 28 29  1  0
 29 30  2  0
 18  3  1  0
 30 25  1  0
 16 11  1  0
M  END
>  <Binding energies>  (16) 
[-7.7]

>  <Ligand effiencies>  (16) 
[-0.24838709677419354]

>  <Interactions>  (16) 
["V-B:MET:535:CE:9804, V-A:ASP:366:CG:3209, H-A:TYR:531:OH:4792, V-A:PRO:540:CB:4882, V-A:PRO:540:CA:4880, H-A:TYR:539:N:4867, V-A:LEU:363:CD1:3185, V-A:PRO:540:N:4881, V-A:TYR:531:CZ:4791, V-A:ILE:538:CG2:4860, V-A:ILE:538:CA:4857, V-A:ILE:538:CD1:4862, V-B:ASP:366:CB:8180, V-A:LEU:363:CA:3181, V-A:TYR:539:CE2:4873, V-B:ASP:366:CG:8181, V-B:ILE:369:CG2:8205, V-B:ILE:369:CD1:8207, V-B:ASP:366:CA:8178, V-B:ILE:369:CB:8204, V-A:PRO:540:CD:4884, V-B:ASP:366:C:8176"]

$$$$
3bc_Grossjean_2025
     RDKit          3D

 28 30  0  0  0  0  0  0  0  0999 V2000
  128.2710  127.8770   73.1460 C   0  0  0  0  0  0  0  0  0  0  0  0
  129.5130  127.6320   72.4940 O   0  0  0  0  0  0  0  0  0  0  0  0
  129.5200  127.3740   71.1360 C   0  0  0  0  0  0  0  0  0  0  0  0
  128.5800  126.4530   70.6730 C   0  0  0  0  0  0  0  0  0  0  0  0
  128.5120  126.1290   69.3210 C   0  0  0  0  0  0  0  0  0  0  0  0
  129.3920  126.7180   68.4110 C   0  0  0  0  0  0  0  0  0  0  0  0
  129.2390  126.3380   67.0650 N   0  0  0  0  0  0  0  0  0  0  0  0
  130.1820  126.1810   66.1110 C   0  0  0  0  0  0  0  0  0  0  0  0
  131.3940  126.3190   66.2930 O   0  0  0  0  0  0  0  0  0  0  0  0
  129.6410  125.7650   64.7360 C   0  0  0  0  0  0  0  0  0  0  0  0
  129.7680  123.9830   64.3600 S   0  0  0  0  0  0  0  0  0  0  0  0
  130.3420  123.8210   62.6840 C   0  0  0  0  0  0  0  0  0  0  0  0
  129.3490  123.6110   61.7850 N   0  0  0  0  0  0  0  0  0  0  0  0
  129.6470  123.4720   60.4670 C   0  0  0  0  0  0  0  0  0  0  0  0
  128.4940  123.2210   59.5410 C   0  0  0  0  0  0  0  0  0  0  0  0
  128.6940  122.6030   58.2980 C   0  0  0  0  0  0  0  0  0  0  0  0
  127.6290  122.3670   57.4330 C   0  0  0  0  0  0  0  0  0  0  0  0
  126.3440  122.7500   57.8030 C   0  0  0  0  0  0  0  0  0  0  0  0
  126.1180  123.3680   59.0280 C   0  0  0  0  0  0  0  0  0  0  0  0
  127.1870  123.6030   59.8890 C   0  0  0  0  0  0  0  0  0  0  0  0
  130.9700  123.5400   60.0190 C   0  0  0  0  0  0  0  0  0  0  0  0
  132.0050  123.7790   60.9310 C   0  0  0  0  0  0  0  0  0  0  0  0
  133.4330  123.8640   60.3940 C   0  0  0  0  0  0  0  0  0  0  0  0
  131.6970  123.9360   62.2990 C   0  0  0  0  0  0  0  0  0  0  0  0
  132.7570  124.2350   63.2640 C   0  0  0  0  0  0  0  0  0  0  0  0
  133.5970  124.4710   64.0240 N   0  0  0  0  0  0  0  0  0  0  0  0
  130.3320  127.6550   68.8660 C   0  0  0  0  0  0  0  0  0  0  0  0
  130.3960  127.9770   70.2200 C   0  0  0  0  0  0  0  0  0  0  0  0
  1  2  1  0
  2  3  1  0
  3  4  2  0
  4  5  1  0
  5  6  2  0
  6  7  1  0
  7  8  1  0
  8  9  2  0
  8 10  1  0
 10 11  1  0
 11 12  1  0
 12 13  2  0
 13 14  1  0
 14 15  1  0
 15 16  2  0
 16 17  1  0
 17 18  2  0
 18 19  1  0
 19 20  2  0
 14 21  2  0
 21 22  1  0
 22 23  1  0
 22 24  2  0
 24 25  1  0
 25 26  3  0
  6 27  1  0
 27 28  2  0
 28  3  1  0
 24 12  1  0
 20 15  1  0
M  END
>  <Binding energies>  (17) 
[-8.38]

>  <Ligand effiencies>  (17) 
[-0.2889655172413793]

>  <Interactions>  (17) 
["V-B:TYR:539:CE2:9845, V-B:PRO:540:N:9853, V-B:PRO:540:CB:9854, V-B:TYR:539:CZ:9846, V-B:PRO:540:CA:9852, V-B:TYR:539:CD1:9842, V-B:TYR:539:C:9836, V-B:TYR:539:CE1:9844, V-B:GLU:543:CD:9877, V-B:GLU:543:CG:9876, V-A:ASP:366:CB:3208, V-A:HIS:456:CE1:4066, V-A:ASP:366:CG:3209, V-B:GLU:543:CB:9875, H-A:GLY:454:N:4046, V-B:PRO:540:CD:9856, V-B:TYR:539:CG:9841, V-B:TYR:539:CD2:9843, H-B:GLU:543:OE1:9878, V-B:HIS:456:CD2:9036, V-A:GLU:543:CB:4903, V-A:GLU:543:C:4899, H-A:LYS:547:NZ:4948, V-A:GLY:544:C:4909, V-B:LYS:547:CE:9919, V-B:GLU:543:C:9871, V-A:ASP:366:CA:3206"]

$$$$
3bd_Grossjean_2025
     RDKit          3D

 26 28  0  0  0  0  0  0  0  0999 V2000
  128.8780  128.9650   60.4260 C   0  0  0  0  0  0  0  0  0  0  0  0
  129.9490  129.0110   59.3390 C   0  0  0  0  0  0  0  0  0  0  0  0
  130.0720  127.9100   58.4840 C   0  0  0  0  0  0  0  0  0  0  0  0
  131.0450  127.9130   57.4770 C   0  0  0  0  0  0  0  0  0  0  0  0
  131.2270  126.7680   56.5240 C   0  0  0  0  0  0  0  0  0  0  0  0
  132.4960  126.4590   56.0100 C   0  0  0  0  0  0  0  0  0  0  0  0
  132.6720  125.3990   55.1230 C   0  0  0  0  0  0  0  0  0  0  0  0
  131.5780  124.6320   54.7380 C   0  0  0  0  0  0  0  0  0  0  0  0
  130.3090  124.9200   55.2310 C   0  0  0  0  0  0  0  0  0  0  0  0
  130.1370  125.9800   56.1160 C   0  0  0  0  0  0  0  0  0  0  0  0
  131.8670  128.9800   57.3070 N   0  0  0  0  0  0  0  0  0  0  0  0
  131.7630  130.0560   58.1280 C   0  0  0  0  0  0  0  0  0  0  0  0
  132.9090  131.3870   57.8090 S   0  0  0  0  0  0  0  0  0  0  0  0
  132.4750  132.1320   56.2080 C   0  0  0  0  0  0  0  0  0  0  0  0
  130.9630  132.1630   55.9810 C   0  0  0  0  0  0  0  0  0  0  0  0
  130.3610  133.2310   56.1000 O   0  0  0  0  0  0  0  0  0  0  0  0
  130.3920  130.9770   55.6740 N   0  0  0  0  0  0  0  0  0  0  0  0
  129.0450  130.6910   55.3860 C   0  0  0  0  0  0  0  0  0  0  0  0
  128.7720  130.2590   54.0860 C   0  0  0  0  0  0  0  0  0  0  0  0
  127.4660  129.9600   53.7050 C   0  0  0  0  0  0  0  0  0  0  0  0
  126.4300  130.1030   54.6240 C   0  0  0  0  0  0  0  0  0  0  0  0
  126.6870  130.5470   55.9190 C   0  0  0  0  0  0  0  0  0  0  0  0
  127.9920  130.8450   56.3030 C   0  0  0  0  0  0  0  0  0  0  0  0
  130.8100  130.1160   59.1680 C   0  0  0  0  0  0  0  0  0  0  0  0
  130.7060  131.2850   60.0470 C   0  0  0  0  0  0  0  0  0  0  0  0
  130.6220  132.2070   60.7400 N   0  0  0  0  0  0  0  0  0  0  0  0
  1  2  1  0
  2  3  2  0
  3  4  1  0
  4  5  1  0
  5  6  2  0
  6  7  1  0
  7  8  2  0
  8  9  1  0
  9 10  2  0
  4 11  2  0
 11 12  1  0
 12 13  1  0
 13 14  1  0
 14 15  1  0
 15 16  2  0
 15 17  1  0
 17 18  1  0
 18 19  2  0
 19 20  1  0
 20 21  2  0
 21 22  1  0
 22 23  2  0
 12 24  2  0
 24 25  1  0
 25 26  3  0
 24  2  1  0
 10  5  1  0
 23 18  1  0
M  END
>  <Binding energies>  (18) 
[-8.41]

>  <Ligand effiencies>  (18) 
[-0.31148148148148147]

>  <Interactions>  (18) 
["V-B:TYR:539:CE1:9844, V-B:MET:535:CE:9804, V-A:ASP:366:CB:3208, V-A:TYR:531:CE1:4789, V-A:ASP:366:C:3204, V-A:ASN:370:CG:3242, H-A:TYR:531:OH:4792, V-A:ASN:370:CB:3241, V-A:PRO:540:CB:4882, V-A:PRO:540:CA:4880, H-A:TYR:539:N:4867, V-A:LEU:363:CD1:3185, V-A:PRO:540:N:4881, V-A:TYR:531:CZ:4791, V-A:ILE:538:CG2:4860, V-A:ILE:538:CD1:4862, V-A:TYR:539:CZ:4874, V-B:TYR:531:CZ:9763, V-A:TYR:539:CE2:4873, H-A:ALA:541:N:4888, V-B:TYR:531:CE1:9761, V-A:PRO:540:CD:4884"]

$$$$
3be_Grossjean_2025
     RDKit          3D

 27 29  0  0  0  0  0  0  0  0999 V2000
  129.5440  132.0050   56.2260 C   0  0  0  0  0  0  0  0  0  0  0  0
  130.8220  131.3480   56.7070 C   0  0  0  0  0  0  0  0  0  0  0  0
  131.9720  132.0940   56.9780 C   0  0  0  0  0  0  0  0  0  0  0  0
  133.1140  131.4220   57.4140 C   0  0  0  0  0  0  0  0  0  0  0  0
  133.0790  130.0330   57.5690 C   0  0  0  0  0  0  0  0  0  0  0  0
  131.8940  129.3470   57.2840 C   0  0  0  0  0  0  0  0  0  0  0  0
  131.9260  127.9490   57.4500 N   0  0  0  0  0  0  0  0  0  0  0  0
  131.4100  126.9910   56.6500 C   0  0  0  0  0  0  0  0  0  0  0  0
  130.7940  127.2080   55.6050 O   0  0  0  0  0  0  0  0  0  0  0  0
  131.6430  125.5520   57.1380 C   0  0  0  0  0  0  0  0  0  0  0  0
  131.7140  125.3490   58.9500 S   0  0  0  0  0  0  0  0  0  0  0  0
  130.6130  124.0270   59.4020 C   0  0  0  0  0  0  0  0  0  0  0  0
  129.5490  123.8990   58.5720 N   0  0  0  0  0  0  0  0  0  0  0  0
  128.6270  122.9250   58.7970 C   0  0  0  0  0  0  0  0  0  0  0  0
  127.4730  122.8600   57.8410 C   0  0  0  0  0  0  0  0  0  0  0  0
  126.1800  123.2220   58.2500 C   0  0  0  0  0  0  0  0  0  0  0  0
  125.1050  123.1610   57.3690 C   0  0  0  0  0  0  0  0  0  0  0  0
  125.3080  122.7360   56.0610 C   0  0  0  0  0  0  0  0  0  0  0  0
  126.5780  122.3690   55.6300 C   0  0  0  0  0  0  0  0  0  0  0  0
  127.6510  122.4300   56.5150 C   0  0  0  0  0  0  0  0  0  0  0  0
  128.7580  122.0500   59.8810 C   0  0  0  0  0  0  0  0  0  0  0  0
  129.8630  122.1530   60.7320 C   0  0  0  0  0  0  0  0  0  0  0  0
  129.9740  121.1650   61.8920 C   0  0  0  0  0  0  0  0  0  0  0  0
  130.8290  123.1550   60.4930 C   0  0  0  0  0  0  0  0  0  0  0  0
  132.0200  123.2460   61.3390 C   0  0  0  0  0  0  0  0  0  0  0  0
  132.9610  123.3160   62.0100 N   0  0  0  0  0  0  0  0  0  0  0  0
  130.7740  129.9990   56.8530 N   0  0  0  0  0  0  0  0  0  0  0  0
  1  2  1  0
  2  3  2  0
  3  4  1  0
  4  5  2  0
  5  6  1  0
  6  7  1  0
  7  8  1  0
  8  9  2  0
  8 10  1  0
 10 11  1  0
 11 12  1  0
 12 13  2  0
 13 14  1  0
 14 15  1  0
 15 16  2  0
 16 17  1  0
 17 18  2  0
 18 19  1  0
 19 20  2  0
 14 21  2  0
 21 22  1  0
 22 23  1  0
 22 24  2  0
 24 25  1  0
 25 26  3  0
  6 27  2  0
 27  2  1  0
 24 12  1  0
 20 15  1  0
M  END
>  <Binding energies>  (19) 
[-8.73]

>  <Ligand effiencies>  (19) 
[-0.3117857142857143]

>  <Interactions>  (19) 
["V-B:TYR:539:CE2:9845, V-B:PRO:540:N:9853, V-B:PRO:540:CB:9854, V-B:TYR:539:CZ:9846, V-A:LEU:475:CD1:4254, V-B:PRO:540:CA:9852, V-B:TYR:539:CD1:9842, V-B:ILE:538:CA:9829, V-B:TYR:539:C:9836, V-B:LEU:363:CD1:8157, V-B:ALA:541:CB:9861, V-B:ILE:538:CG2:9832, V-B:TYR:539:CE1:9844, V-B:ILE:538:CB:9831, V-A:ASP:366:CB:3208, H-B:TYR:539:OH:9847, V-A:ASP:366:CG:3209, H-A:TYR:531:OH:4792, V-B:PRO:540:CD:9856, V-A:PRO:540:CB:4882, V-A:PRO:540:CA:4880, V-A:LEU:363:CD1:3185, V-A:PRO:540:N:4881, V-B:TYR:539:CD2:9843, V-A:LEU:363:CA:3181, V-A:LEU:363:CB:3183, H-A:ASP:366:OD1:3210, H-A:ASP:366:OD2:3211, V-A:PRO:540:CD:4884"]

$$$$
3bf_Grossjean_2025
     RDKit          3D

 26 28  0  0  0  0  0  0  0  0999 V2000
  128.9590  128.9670   60.4800 C   0  0  0  0  0  0  0  0  0  0  0  0
  130.0270  129.0190   59.3890 C   0  0  0  0  0  0  0  0  0  0  0  0
  130.1500  127.9190   58.5340 C   0  0  0  0  0  0  0  0  0  0  0  0
  131.1050  127.9320   57.5120 C   0  0  0  0  0  0  0  0  0  0  0  0
  131.2730  126.7950   56.5490 C   0  0  0  0  0  0  0  0  0  0  0  0
  130.1660  126.0360   56.1370 C   0  0  0  0  0  0  0  0  0  0  0  0
  130.3130  124.9790   55.2430 C   0  0  0  0  0  0  0  0  0  0  0  0
  131.5750  124.6640   54.7490 C   0  0  0  0  0  0  0  0  0  0  0  0
  132.6880  125.3990   55.1430 C   0  0  0  0  0  0  0  0  0  0  0  0
  132.5370  126.4550   56.0380 C   0  0  0  0  0  0  0  0  0  0  0  0
  131.9220  129.0040   57.3340 N   0  0  0  0  0  0  0  0  0  0  0  0
  131.8320  130.0670   58.1710 C   0  0  0  0  0  0  0  0  0  0  0  0
  132.9820  131.3720   57.7920 S   0  0  0  0  0  0  0  0  0  0  0  0
  132.4760  132.1320   56.2120 C   0  0  0  0  0  0  0  0  0  0  0  0
  130.9610  132.1640   55.9600 C   0  0  0  0  0  0  0  0  0  0  0  0
  130.3520  133.2350   55.9240 O   0  0  0  0  0  0  0  0  0  0  0  0
  130.3970  130.9530   55.7600 N   0  0  0  0  0  0  0  0  0  0  0  0
  129.0480  130.6370   55.5170 C   0  0  0  0  0  0  0  0  0  0  0  0
  128.7620  129.9010   54.3620 C   0  0  0  0  0  0  0  0  0  0  0  0
  127.4440  129.5440   54.0720 C   0  0  0  0  0  0  0  0  0  0  0  0
  126.4380  129.9320   54.9580 C   0  0  0  0  0  0  0  0  0  0  0  0
  126.6870  130.6360   56.0910 N   0  0  0  0  0  0  0  0  0  0  0  0
  127.9740  130.9760   56.3600 C   0  0  0  0  0  0  0  0  0  0  0  0
  130.8790  130.1300   59.2110 C   0  0  0  0  0  0  0  0  0  0  0  0
  130.7330  131.3130   60.0640 C   0  0  0  0  0  0  0  0  0  0  0  0
  130.6180  132.2470   60.7390 N   0  0  0  0  0  0  0  0  0  0  0  0
  1  2  1  0
  2  3  2  0
  3  4  1  0
  4  5  1  0
  5  6  2  0
  6  7  1  0
  7  8  2  0
  8  9  1  0
  9 10  2  0
  4 11  2  0
 11 12  1  0
 12 13  1  0
 13 14  1  0
 14 15  1  0
 15 16  2  0
 15 17  1  0
 17 18  1  0
 18 19  2  0
 19 20  1  0
 20 21  2  0
 21 22  1  0
 22 23  2  0
 12 24  2  0
 24 25  1  0
 25 26  3  0
 24  2  1  0
 10  5  1  0
 23 18  1  0
M  END
>  <Binding energies>  (20) 
[-7.97]

>  <Ligand effiencies>  (20) 
[-0.29518518518518516]

>  <Interactions>  (20) 
["V-B:TYR:539:CE1:9844, V-B:MET:535:CE:9804, V-A:ASP:366:CB:3208, V-A:TYR:531:CE1:4789, V-A:ASP:366:C:3204, V-A:ASN:370:CG:3242, H-A:TYR:531:OH:4792, V-A:ASN:370:CB:3241, H-A:TYR:539:OH:4875, V-A:PRO:540:CB:4882, V-A:PRO:540:CA:4880, H-A:TYR:539:N:4867, V-A:LEU:363:CD1:3185, V-A:PRO:540:N:4881, V-A:TYR:531:CZ:4791, V-A:ILE:538:CG2:4860, V-A:ILE:538:CD1:4862, V-B:TYR:531:CZ:9763, H-A:ALA:541:N:4888, V-B:TYR:531:CE1:9761, V-A:PRO:540:CD:4884"]

$$$$
3bg_Grossjean_2025
     RDKit          3D

 27 29  0  0  0  0  0  0  0  0999 V2000
  128.7190  132.9690   54.0350 C   0  0  0  0  0  0  0  0  0  0  0  0
  128.8310  131.9340   55.1530 C   0  0  0  0  0  0  0  0  0  0  0  0
  129.9060  132.0350   56.0420 C   0  0  0  0  0  0  0  0  0  0  0  0
  130.0420  131.1120   57.0870 C   0  0  0  0  0  0  0  0  0  0  0  0
  131.1670  131.1700   58.0830 C   0  0  0  0  0  0  0  0  0  0  0  0
  130.9110  131.3050   59.4570 C   0  0  0  0  0  0  0  0  0  0  0  0
  131.9490  131.3420   60.3840 C   0  0  0  0  0  0  0  0  0  0  0  0
  133.2670  131.2460   59.9490 C   0  0  0  0  0  0  0  0  0  0  0  0
  133.5510  131.1240   58.5940 C   0  0  0  0  0  0  0  0  0  0  0  0
  132.5100  131.0900   57.6710 C   0  0  0  0  0  0  0  0  0  0  0  0
  129.1250  130.1230   57.2580 N   0  0  0  0  0  0  0  0  0  0  0  0
  128.0740  130.0120   56.4060 C   0  0  0  0  0  0  0  0  0  0  0  0
  126.9240  128.6930   56.7620 S   0  0  0  0  0  0  0  0  0  0  0  0
  127.2350  128.1070   58.4600 C   0  0  0  0  0  0  0  0  0  0  0  0
  126.7790  126.6580   58.6560 C   0  0  0  0  0  0  0  0  0  0  0  0
  127.6020  125.7430   58.6000 O   0  0  0  0  0  0  0  0  0  0  0  0
  125.4640  126.4670   58.8600 N   0  0  0  0  0  0  0  0  0  0  0  0
  124.7890  125.1690   58.8890 C   0  0  0  0  0  0  0  0  0  0  0  0
  125.3980  124.1910   57.8900 C   0  0  0  0  0  0  0  0  0  0  0  0
  124.9880  124.2090   56.5530 C   0  0  0  0  0  0  0  0  0  0  0  0
  125.5360  123.3110   55.6430 C   0  0  0  0  0  0  0  0  0  0  0  0
  126.5050  122.4030   56.0700 C   0  0  0  0  0  0  0  0  0  0  0  0
  126.9340  122.3920   57.3950 C   0  0  0  0  0  0  0  0  0  0  0  0
  126.3840  123.2920   58.3050 C   0  0  0  0  0  0  0  0  0  0  0  0
  127.8880  130.8990   55.3250 C   0  0  0  0  0  0  0  0  0  0  0  0
  126.7470  130.7720   54.4150 C   0  0  0  0  0  0  0  0  0  0  0  0
  125.8470  130.6730   53.6950 N   0  0  0  0  0  0  0  0  0  0  0  0
  1  2  1  0
  2  3  2  0
  3  4  1  0
  4  5  1  0
  5  6  2  0
  6  7  1  0
  7  8  2  0
  8  9  1  0
  9 10  2  0
  4 11  2  0
 11 12  1  0
 12 13  1  0
 13 14  1  0
 14 15  1  0
 15 16  2  0
 15 17  1  0
 17 18  1  0
 18 19  1  0
 19 20  2  0
 20 21  1  0
 21 22  2  0
 22 23  1  0
 23 24  2  0
 12 25  2  0
 25 26  1  0
 26 27  3  0
 25  2  1  0
 10  5  1  0
 24 19  1  0
M  END
>  <Binding energies>  (21) 
[-9.02]

>  <Ligand effiencies>  (21) 
[-0.3221428571428571]

>  <Interactions>  (21) 
["V-B:PRO:540:N:9853, V-B:PRO:540:CB:9854, V-B:PRO:540:CA:9852, V-B:ILE:538:CA:9829, V-B:TYR:539:C:9836, V-B:LEU:363:CD1:8157, V-B:ILE:538:CG2:9832, V-B:ILE:538:CB:9831, V-B:MET:535:CE:9804, H-B:TYR:531:OH:9764, V-B:PRO:540:CD:9856, H-A:TYR:539:OH:4875, V-A:PRO:540:CB:4882, V-A:TYR:539:CE1:4872, V-A:PRO:540:CA:4880, H-B:LYS:534:NZ:9792, V-A:TYR:539:CD1:4870, V-A:ILE:538:CA:4857, V-A:ILE:538:CD1:4862, V-A:TYR:539:CZ:4874, V-B:ASP:366:CB:8180, V-B:TYR:531:CE2:9762, V-A:LEU:363:CA:3181, V-A:ILE:538:C:4855, V-A:LEU:363:CB:3183, V-B:TYR:531:CE1:9761, V-A:ASN:362:CB:3172, H-B:ASP:366:OD1:8182, V-B:ASP:366:CG:8181, V-A:ASN:362:C:3168, V-A:ILE:538:CG1:4861, V-A:ILE:538:CB:4859"]

$$$$
3ca_Grossjean_2025
     RDKit          3D

 31 33  0  0  0  0  0  0  0  0999 V2000
  128.3150  122.7650   54.0210 C   0  0  0  0  0  0  0  0  0  0  0  0
  128.3570  122.8610   55.5480 C   0  0  0  0  0  0  0  0  0  0  0  0
  127.4030  121.9650   56.1060 O   0  0  0  0  0  0  0  0  0  0  0  0
  126.1600  122.3870   56.4480 C   0  0  0  0  0  0  0  0  0  0  0  0
  125.1290  121.9870   55.8970 O   0  0  0  0  0  0  0  0  0  0  0  0
  126.1610  123.3870   57.5690 C   0  0  0  0  0  0  0  0  0  0  0  0
  126.6010  122.9910   58.8380 C   0  0  0  0  0  0  0  0  0  0  0  0
  126.6130  123.8950   59.8980 C   0  0  0  0  0  0  0  0  0  0  0  0
  126.1790  125.2080   59.7120 C   0  0  0  0  0  0  0  0  0  0  0  0
  126.2330  126.0380   60.8480 N   0  0  0  0  0  0  0  0  0  0  0  0
  127.1070  127.0220   61.1550 C   0  0  0  0  0  0  0  0  0  0  0  0
  128.0420  127.3910   60.4460 O   0  0  0  0  0  0  0  0  0  0  0  0
  126.8600  127.7210   62.4960 C   0  0  0  0  0  0  0  0  0  0  0  0
  128.3900  128.3180   63.2870 S   0  0  0  0  0  0  0  0  0  0  0  0
  128.8780  127.1970   64.5910 C   0  0  0  0  0  0  0  0  0  0  0  0
  129.3280  125.9830   64.1840 N   0  0  0  0  0  0  0  0  0  0  0  0
  129.7330  125.0910   65.1140 C   0  0  0  0  0  0  0  0  0  0  0  0
  130.2380  123.7660   64.5800 C   0  0  0  0  0  0  0  0  0  0  0  0
  129.6930  125.3630   66.4800 C   0  0  0  0  0  0  0  0  0  0  0  0
  129.2160  126.6020   66.9260 C   0  0  0  0  0  0  0  0  0  0  0  0
  129.1800  126.8440   68.4000 C   0  0  0  0  0  0  0  0  0  0  0  0
  128.1690  126.2700   69.1820 C   0  0  0  0  0  0  0  0  0  0  0  0
  128.1210  126.4980   70.5540 C   0  0  0  0  0  0  0  0  0  0  0  0
  129.0850  127.3060   71.1520 C   0  0  0  0  0  0  0  0  0  0  0  0
  130.0930  127.8890   70.3890 C   0  0  0  0  0  0  0  0  0  0  0  0
  130.1370  127.6600   69.0160 C   0  0  0  0  0  0  0  0  0  0  0  0
  128.8040  127.5540   65.9590 C   0  0  0  0  0  0  0  0  0  0  0  0
  128.3440  128.8860   66.3630 C   0  0  0  0  0  0  0  0  0  0  0  0
  127.9810  129.9380   66.6840 N   0  0  0  0  0  0  0  0  0  0  0  0
  125.7430  125.6150   58.4420 C   0  0  0  0  0  0  0  0  0  0  0  0
  125.7340  124.7110   57.3830 C   0  0  0  0  0  0  0  0  0  0  0  0
  1  2  1  0
  2  3  1  0
  3  4  1  0
  4  5  2  0
  4  6  1  0
  6  7  2  0
  7  8  1  0
  8  9  2  0
  9 10  1  0
 10 11  1  0
 11 12  2  0
 11 13  1  0
 13 14  1  0
 14 15  1  0
 15 16  2  0
 16 17  1  0
 17 18  1  0
 17 19  2  0
 19 20  1  0
 20 21  1  0
 21 22  2  0
 22 23  1  0
 23 24  2  0
 24 25  1  0
 25 26  2  0
 20 27  2  0
 27 28  1  0
 28 29  3  0
  9 30  1  0
 30 31  2  0
 31  6  1  0
 27 15  1  0
 26 21  1  0
M  END
>  <Binding energies>  (22) 
[-9.03]

>  <Ligand effiencies>  (22) 
[-0.2821875]

>  <Interactions>  (22) 
["V-B:PRO:540:N:9853, V-B:PRO:540:CB:9854, V-B:TYR:539:CZ:9846, V-B:PRO:540:CA:9852, H-B:TYR:539:N:9839, V-B:TYR:539:CD1:9842, V-B:ILE:538:CA:9829, V-B:ILE:538:CG2:9832, V-B:TYR:539:CE1:9844, V-B:GLU:543:CD:9877, V-A:TYR:484:CE1:4341, V-B:ILE:538:CB:9831, V-B:GLU:543:CG:9876, H-B:GLU:543:OE2:9879, V-B:MET:535:CE:9804, V-A:GLU:543:CD:4905, V-A:HIS:456:CE1:4066, V-A:GLU:543:CG:4904, V-B:GLU:543:CB:9875, V-B:PRO:540:CD:9856, H-B:ASP:366:OD1:8182, V-B:HIS:456:CD2:9036, V-A:GLU:543:CB:4903, V-B:HIS:456:CE1:9038, V-B:GLY:544:C:9881, V-B:GLU:543:C:9871, H-B:TYR:484:OH:9316, V-B:VAL:537:C:9819"]

$$$$
3ce_Grossjean_2025
     RDKit          3D

 27 29  0  0  0  0  0  0  0  0999 V2000
  134.9750  124.9970   66.3110 C   0  0  0  0  0  0  0  0  0  0  0  0
  133.7690  125.1840   65.4110 C   0  0  0  0  0  0  0  0  0  0  0  0
  132.5730  125.7220   65.8930 C   0  0  0  0  0  0  0  0  0  0  0  0
  131.5080  125.8740   65.0060 C   0  0  0  0  0  0  0  0  0  0  0  0
  131.6600  125.4880   63.6720 C   0  0  0  0  0  0  0  0  0  0  0  0
  132.8820  124.9460   63.2570 C   0  0  0  0  0  0  0  0  0  0  0  0
  132.9840  124.5940   61.9000 N   0  0  0  0  0  0  0  0  0  0  0  0
  133.9370  123.8460   61.3010 C   0  0  0  0  0  0  0  0  0  0  0  0
  134.8980  123.3330   61.8760 O   0  0  0  0  0  0  0  0  0  0  0  0
  133.7680  123.6390   59.7960 C   0  0  0  0  0  0  0  0  0  0  0  0
  132.4470  124.6830   59.1110 S   0  0  0  0  0  0  0  0  0  0  0  0
  130.9250  123.8480   59.4920 C   0  0  0  0  0  0  0  0  0  0  0  0
  130.9280  123.2150   60.6910 N   0  0  0  0  0  0  0  0  0  0  0  0
  129.8080  122.5630   61.0810 C   0  0  0  0  0  0  0  0  0  0  0  0
  129.8760  121.8890   62.4370 C   0  0  0  0  0  0  0  0  0  0  0  0
  128.6610  122.5060   60.2940 C   0  0  0  0  0  0  0  0  0  0  0  0
  128.6470  123.1320   59.0400 C   0  0  0  0  0  0  0  0  0  0  0  0
  127.4030  123.0210   58.2220 C   0  0  0  0  0  0  0  0  0  0  0  0
  126.2090  123.5960   58.6750 C   0  0  0  0  0  0  0  0  0  0  0  0
  125.0440  123.4920   57.9200 C   0  0  0  0  0  0  0  0  0  0  0  0
  125.0650  122.8050   56.7100 C   0  0  0  0  0  0  0  0  0  0  0  0
  126.2410  122.2190   56.2490 C   0  0  0  0  0  0  0  0  0  0  0  0
  127.4050  122.3260   57.0050 C   0  0  0  0  0  0  0  0  0  0  0  0
  129.8090  123.8290   58.6220 C   0  0  0  0  0  0  0  0  0  0  0  0
  129.8480  124.5150   57.3260 C   0  0  0  0  0  0  0  0  0  0  0  0
  129.8780  125.0570   56.3050 N   0  0  0  0  0  0  0  0  0  0  0  0
  133.9310  124.8020   64.1180 N   0  0  0  0  0  0  0  0  0  0  0  0
  1  2  1  0
  2  3  2  0
  3  4  1  0
  4  5  2  0
  5  6  1  0
  6  7  1  0
  7  8  1  0
  8  9  2  0
  8 10  1  0
 10 11  1  0
 11 12  1  0
 12 13  2  0
 13 14  1  0
 14 15  1  0
 14 16  2  0
 16 17  1  0
 17 18  1  0
 18 19  2  0
 19 20  1  0
 20 21  2  0
 21 22  1  0
 22 23  2  0
 17 24  2  0
 24 25  1  0
 25 26  3  0
  6 27  2  0
 27  2  1  0
 24 12  1  0
 23 18  1  0
M  END
>  <Binding energies>  (23) 
[-8.18]

>  <Ligand effiencies>  (23) 
[-0.29214285714285715]

>  <Interactions>  (23) 
["V-B:TYR:539:CE2:9845, V-B:PRO:540:N:9853, V-B:PRO:540:CB:9854, V-B:TYR:539:CZ:9846, V-A:LEU:475:CD1:4254, V-B:PRO:540:CA:9852, V-B:TYR:539:CD1:9842, V-B:ILE:538:CA:9829, V-B:TYR:539:C:9836, V-B:LEU:363:CD1:8157, V-B:ALA:541:CB:9861, V-B:ILE:538:CG2:9832, V-B:TYR:539:CE1:9844, V-B:ILE:538:CB:9831, V-A:ARG:545:CZ:4923, V-A:GLY:454:CA:4045, V-A:ASP:366:CB:3208, V-A:HIS:456:CE1:4066, H-A:ARG:545:NH2:4925, H-A:ARG:545:NH1:4924, H-B:TYR:539:OH:9847, V-A:ASP:366:CG:3209, H-A:GLY:454:N:4046, V-B:PRO:540:CD:9856, V-A:ILE:369:CB:3232, V-A:ILE:369:CG2:3233, V-A:GLY:453:C:4038, V-A:GLY:453:CA:4040, V-A:GLY:454:C:4043, V-A:ARG:545:CG:4919, V-A:ARG:545:CD:4920, H-A:ASP:366:OD1:3210, H-A:ASP:366:OD2:3211, V-A:ASP:366:CA:3206, V-B:PRO:540:CG:9855, V-A:ILE:455:C:4048"]

$$$$
3cj_Grossjean_2025
     RDKit          3D

 25 27  0  0  0  0  0  0  0  0999 V2000
  129.0050  123.0190   61.6030 C   0  0  0  0  0  0  0  0  0  0  0  0
  128.0990  123.1460   60.3940 C   0  0  0  0  0  0  0  0  0  0  0  0
  128.6140  123.1900   59.1000 C   0  0  0  0  0  0  0  0  0  0  0  0
  127.7390  123.2840   58.0090 C   0  0  0  0  0  0  0  0  0  0  0  0
  128.3310  123.2630   56.6390 C   0  0  0  0  0  0  0  0  0  0  0  0
  129.3870  124.1200   56.3080 C   0  0  0  0  0  0  0  0  0  0  0  0
  129.9300  124.1090   55.0250 C   0  0  0  0  0  0  0  0  0  0  0  0
  129.4130  123.2420   54.0670 C   0  0  0  0  0  0  0  0  0  0  0  0
  128.3570  122.3910   54.3790 C   0  0  0  0  0  0  0  0  0  0  0  0
  127.8160  122.4040   55.6620 C   0  0  0  0  0  0  0  0  0  0  0  0
  126.3480  123.3660   58.2650 C   0  0  0  0  0  0  0  0  0  0  0  0
  125.3850  123.4950   57.1680 C   0  0  0  0  0  0  0  0  0  0  0  0
  124.6240  123.5960   56.3000 N   0  0  0  0  0  0  0  0  0  0  0  0
  125.9140  123.3090   59.6090 C   0  0  0  0  0  0  0  0  0  0  0  0
  124.1930  123.2660   60.0620 S   0  0  0  0  0  0  0  0  0  0  0  0
  123.6580  125.0070   60.0270 C   0  0  0  0  0  0  0  0  0  0  0  0
  124.2850  125.7730   58.8580 C   0  0  0  0  0  0  0  0  0  0  0  0
  123.7390  125.7500   57.7530 O   0  0  0  0  0  0  0  0  0  0  0  0
  125.4050  126.4660   59.1560 N   0  0  0  0  0  0  0  0  0  0  0  0
  126.0840  127.3400   58.3210 C   0  0  0  0  0  0  0  0  0  0  0  0
  125.8690  128.6260   58.1510 N   0  0  0  0  0  0  0  0  0  0  0  0
  126.7270  129.1510   57.3000 C   0  0  0  0  0  0  0  0  0  0  0  0
  127.6680  128.2810   56.7570 C   0  0  0  0  0  0  0  0  0  0  0  0
  127.4040  126.6880   57.4030 S   0  0  0  0  0  0  0  0  0  0  0  0
  126.7730  123.1910   60.6520 N   0  0  0  0  0  0  0  0  0  0  0  0
  1  2  1  0
  2  3  2  0
  3  4  1  0
  4  5  1  0
  5  6  2  0
  6  7  1  0
  7  8  2  0
  8  9  1  0
  9 10  2  0
  4 11  2  0
 11 12  1  0
 12 13  3  0
 11 14  1  0
 14 15  1  0
 15 16  1  0
 16 17  1  0
 17 18  2  0
 17 19  1  0
 19 20  1  0
 20 21  2  0
 21 22  1  0
 22 23  2  0
 23 24  1  0
 14 25  2  0
 25  2  1  0
 10  5  1  0
 24 20  1  0
M  END
>  <Binding energies>  (24) 
[-7.63]

>  <Ligand effiencies>  (24) 
[-0.29346153846153844]

>  <Interactions>  (24) 
["V-B:TYR:539:CE2:9845, V-B:PRO:540:CB:9854, V-B:TYR:539:CZ:9846, H-B:ALA:541:N:9860, V-B:PRO:540:CA:9852, V-B:TYR:539:CD1:9842, V-B:ILE:538:CA:9829, V-B:LEU:363:CD1:8157, V-B:ALA:541:CB:9861, V-B:ILE:538:CG2:9832, V-B:TYR:539:CE1:9844, V-B:ILE:538:CB:9831, H-B:GLU:543:OE2:9879, V-B:MET:535:CE:9804, V-B:LEU:363:CA:8153, H-B:TYR:531:OH:9764, V-B:ASP:366:CB:8180, H-B:ASP:366:OD1:8182, V-B:ASN:362:C:8140, V-B:ASP:366:CG:8181, V-B:VAL:537:C:9819"]

$$$$
4ba_Grossjean_2025
     RDKit          3D

 28 30  0  0  0  0  0  0  0  0999 V2000
  124.9930  123.7170   55.9270 C   0  0  0  0  0  0  0  0  0  0  0  0
  125.3930  122.3340   56.4770 C   0  0  0  0  0  0  0  0  0  0  0  0
  126.8760  122.1940   56.8790 C   0  0  0  0  0  0  0  0  0  0  0  0
  127.6620  121.6300   56.1150 O   0  0  0  0  0  0  0  0  0  0  0  0
  127.2970  122.7660   58.2020 C   0  0  0  0  0  0  0  0  0  0  0  0
  126.8250  124.0270   58.5880 C   0  0  0  0  0  0  0  0  0  0  0  0
  127.2010  124.5810   59.8080 C   0  0  0  0  0  0  0  0  0  0  0  0
  128.0520  123.8870   60.6690 C   0  0  0  0  0  0  0  0  0  0  0  0
  128.3740  124.5430   61.8720 N   0  0  0  0  0  0  0  0  0  0  0  0
  129.5800  124.7590   62.4520 C   0  0  0  0  0  0  0  0  0  0  0  0
  130.6490  124.3460   61.9990 O   0  0  0  0  0  0  0  0  0  0  0  0
  129.5450  125.5160   63.7050 C   0  0  0  0  0  0  0  0  0  0  0  0
  130.5030  124.9880   65.0870 S   0  0  0  0  0  0  0  0  0  0  0  0
  129.8870  126.2930   66.0720 C   0  0  0  0  0  0  0  0  0  0  0  0
  130.2690  126.4470   67.3390 N   0  0  0  0  0  0  0  0  0  0  0  0
  129.7240  127.4930   68.0010 C   0  0  0  0  0  0  0  0  0  0  0  0
  130.1650  127.6430   69.4460 C   0  0  0  0  0  0  0  0  0  0  0  0
  128.8180  128.3830   67.4300 C   0  0  0  0  0  0  0  0  0  0  0  0
  128.4120  128.2270   66.0950 C   0  0  0  0  0  0  0  0  0  0  0  0
  127.4150  129.2330   65.5110 C   0  0  0  0  0  0  0  0  0  0  0  0
  127.7090  129.5930   64.2600 F   0  0  0  0  0  0  0  0  0  0  0  0
  126.1920  128.7030   65.4970 F   0  0  0  0  0  0  0  0  0  0  0  0
  127.4060  130.3410   66.2530 F   0  0  0  0  0  0  0  0  0  0  0  0
  128.9640  127.1290   65.3700 C   0  0  0  0  0  0  0  0  0  0  0  0
  128.7820  126.6530   64.0210 C   0  0  0  0  0  0  0  0  0  0  0  0
  127.9380  127.2630   63.1280 N   0  0  0  0  0  0  0  0  0  0  0  0
  128.5340  122.6260   60.2870 C   0  0  0  0  0  0  0  0  0  0  0  0
  128.1570  122.0730   59.0660 C   0  0  0  0  0  0  0  0  0  0  0  0
  1  2  1  0
  2  3  1  0
  3  4  2  0
  3  5  1  0
  5  6  2  0
  6  7  1  0
  7  8  2  0
  8  9  1  0
  9 10  1  0
 10 11  2  0
 10 12  1  0
 12 13  1  0
 13 14  1  0
 14 15  2  0
 15 16  1  0
 16 17  1  0
 16 18  2  0
 18 19  1  0
 19 20  1  0
 20 21  1  0
 20 22  1  0
 20 23  1  0
 19 24  2  0
 24 25  1  0
 25 26  1  0
  8 27  1  0
 27 28  2  0
 28  5  1  0
 25 12  2  0
 24 14  1  0
M  END
>  <Binding energies>  (25) 
[-7.37]

>  <Ligand effiencies>  (25) 
[-0.23774193548387096]

>  <Interactions>  (25) 
["V-B:TYR:539:CE2:9845, V-B:PRO:540:N:9853, V-B:PRO:540:CB:9854, V-B:TYR:539:CZ:9846, V-B:PRO:540:CA:9852, H-B:TYR:539:N:9839, V-B:TYR:539:C:9836, V-B:LEU:363:CD1:8157, V-B:ALA:541:CB:9861, V-B:GLU:543:CD:9877, V-B:ILE:538:CB:9831, V-B:GLU:543:CG:9876, H-B:GLU:543:OE2:9879, V-B:MET:535:CE:9804, V-A:GLU:543:CD:4905, V-A:HIS:456:CE1:4066, V-A:GLU:543:CG:4904, V-B:PRO:540:CD:9856, V-B:TYR:531:CE2:9762, V-B:TYR:539:CG:9841, V-B:TYR:539:CD2:9843, H-B:GLU:543:OE1:9878, V-A:GLU:543:CB:4903, V-B:HIS:456:CE1:9038, H-A:GLU:543:OE2:4907, V-B:PRO:540:CG:9855, V-B:TYR:484:CZ:9315, V-B:TYR:484:CE1:9313"]

$$$$
4bb_Grossjean_2025
     RDKit          3D

 27 29  0  0  0  0  0  0  0  0999 V2000
  125.0590  122.4260   56.2680 C   0  0  0  0  0  0  0  0  0  0  0  0
  126.5340  122.2650   56.6390 C   0  0  0  0  0  0  0  0  0  0  0  0
  127.2630  121.6450   55.8630 O   0  0  0  0  0  0  0  0  0  0  0  0
  127.0120  122.8590   57.9300 C   0  0  0  0  0  0  0  0  0  0  0  0
  126.3970  124.0170   58.4230 C   0  0  0  0  0  0  0  0  0  0  0  0
  126.8220  124.5890   59.6180 C   0  0  0  0  0  0  0  0  0  0  0  0
  127.8620  124.0110   60.3490 C   0  0  0  0  0  0  0  0  0  0  0  0
  128.2130  124.6740   61.5420 N   0  0  0  0  0  0  0  0  0  0  0  0
  129.4270  124.8380   62.1220 C   0  0  0  0  0  0  0  0  0  0  0  0
  130.4760  124.3770   61.6740 O   0  0  0  0  0  0  0  0  0  0  0  0
  129.4220  125.5980   63.3750 C   0  0  0  0  0  0  0  0  0  0  0  0
  130.4440  125.0980   64.7200 S   0  0  0  0  0  0  0  0  0  0  0  0
  129.8420  126.3980   65.7230 C   0  0  0  0  0  0  0  0  0  0  0  0
  130.2750  126.5720   66.9700 N   0  0  0  0  0  0  0  0  0  0  0  0
  129.7350  127.6110   67.6470 C   0  0  0  0  0  0  0  0  0  0  0  0
  130.2440  127.7930   69.0650 C   0  0  0  0  0  0  0  0  0  0  0  0
  128.7800  128.4720   67.1120 C   0  0  0  0  0  0  0  0  0  0  0  0
  128.3200  128.2930   65.7980 C   0  0  0  0  0  0  0  0  0  0  0  0
  127.2690  129.2660   65.2530 C   0  0  0  0  0  0  0  0  0  0  0  0
  126.0530  128.7220   65.1600 F   0  0  0  0  0  0  0  0  0  0  0  0
  127.1720  130.3240   66.0580 F   0  0  0  0  0  0  0  0  0  0  0  0
  127.6190  129.6720   64.0330 F   0  0  0  0  0  0  0  0  0  0  0  0
  128.8690  127.2050   65.0550 C   0  0  0  0  0  0  0  0  0  0  0  0
  128.6470  126.7200   63.7160 C   0  0  0  0  0  0  0  0  0  0  0  0
  127.7610  127.3100   62.8520 N   0  0  0  0  0  0  0  0  0  0  0  0
  128.4880  122.8550   59.8580 C   0  0  0  0  0  0  0  0  0  0  0  0
  128.0620  122.2850   58.6600 C   0  0  0  0  0  0  0  0  0  0  0  0
  1  2  1  0
  2  3  2  0
  2  4  1  0
  4  5  2  0
  5  6  1  0
  6  7  2  0
  7  8  1  0
  8  9  1  0
  9 10  2  0
  9 11  1  0
 11 12  1  0
 12 13  1  0
 13 14  2  0
 14 15  1  0
 15 16  1  0
 15 17  2  0
 17 18  1  0
 18 19  1  0
 19 20  1  0
 19 21  1  0
 19 22  1  0
 18 23  2  0
 23 24  1  0
 24 25  1  0
  7 26  1  0
 26 27  2  0
 27  4  1  0
 24 11  2  0
 23 13  1  0
M  END
>  <Binding energies>  (26) 
[-7.27]

>  <Ligand effiencies>  (26) 
[-0.24233333333333332]

>  <Interactions>  (26) 
["V-B:TYR:539:CE2:9845, V-B:PRO:540:N:9853, V-B:PRO:540:CB:9854, V-B:TYR:539:CZ:9846, V-B:PRO:540:CA:9852, H-B:TYR:539:N:9839, V-B:TYR:539:C:9836, V-B:LEU:363:CD1:8157, V-B:ILE:538:CG2:9832, V-B:GLU:543:CD:9877, V-B:ILE:538:CB:9831, V-B:GLU:543:CG:9876, H-B:GLU:543:OE2:9879, V-A:GLU:543:CD:4905, V-A:HIS:456:CE1:4066, V-A:GLU:543:CG:4904, V-B:PRO:540:CD:9856, V-B:TYR:539:CD2:9843, H-B:ASP:366:OD1:8182, H-B:GLU:543:OE1:9878, V-A:GLU:543:CB:4903, V-A:GLU:543:C:4899, V-B:HIS:456:CE1:9038, V-B:ARG:545:CZ:9895, H-A:GLU:543:OE2:4907, V-B:PRO:540:CG:9855, V-B:TYR:484:CZ:9315, V-B:TYR:484:CE1:9313"]

$$$$
4bd_Grossjean_2025
     RDKit          3D

 24 26  0  0  0  0  0  0  0  0999 V2000
  134.7260  125.0390   65.9940 C   0  0  0  0  0  0  0  0  0  0  0  0
  133.4070  124.9200   65.2520 C   0  0  0  0  0  0  0  0  0  0  0  0
  132.3200  125.7220   65.5860 C   0  0  0  0  0  0  0  0  0  0  0  0
  131.1050  125.5990   64.8930 C   0  0  0  0  0  0  0  0  0  0  0  0
  129.9350  126.5020   65.2980 C   0  0  0  0  0  0  0  0  0  0  0  0
  129.4270  127.1900   64.2730 F   0  0  0  0  0  0  0  0  0  0  0  0
  128.9510  125.7630   65.8100 F   0  0  0  0  0  0  0  0  0  0  0  0
  130.3420  127.3860   66.2080 F   0  0  0  0  0  0  0  0  0  0  0  0
  131.0450  124.6290   63.8480 C   0  0  0  0  0  0  0  0  0  0  0  0
  129.9990  124.2280   62.9400 C   0  0  0  0  0  0  0  0  0  0  0  0
  128.7530  124.7990   62.9490 N   0  0  0  0  0  0  0  0  0  0  0  0
  130.3710  123.2040   62.0520 C   0  0  0  0  0  0  0  0  0  0  0  0
  129.5600  122.5520   61.0190 C   0  0  0  0  0  0  0  0  0  0  0  0
  129.5680  121.3260   60.8960 O   0  0  0  0  0  0  0  0  0  0  0  0
  128.8180  123.3860   60.2490 N   0  0  0  0  0  0  0  0  0  0  0  0
  127.9770  123.0880   59.1610 C   0  0  0  0  0  0  0  0  0  0  0  0
  126.6780  123.6000   59.2330 C   0  0  0  0  0  0  0  0  0  0  0  0
  125.7730  123.3680   58.2010 C   0  0  0  0  0  0  0  0  0  0  0  0
  126.1700  122.6310   57.0880 C   0  0  0  0  0  0  0  0  0  0  0  0
  127.4650  122.1280   56.9980 C   0  0  0  0  0  0  0  0  0  0  0  0
  128.3730  122.3570   58.0290 C   0  0  0  0  0  0  0  0  0  0  0  0
  132.0420  122.7100   62.3130 S   0  0  0  0  0  0  0  0  0  0  0  0
  132.2310  123.8700   63.6060 C   0  0  0  0  0  0  0  0  0  0  0  0
  133.3820  123.9920   64.2670 N   0  0  0  0  0  0  0  0  0  0  0  0
  1  2  1  0
  2  3  2  0
  3  4  1  0
  4  5  1  0
  5  6  1  0
  5  7  1  0
  5  8  1  0
  4  9  2  0
  9 10  1  0
 10 11  1  0
 10 12  2  0
 12 13  1  0
 13 14  2  0
 13 15  1  0
 15 16  1  0
 16 17  2  0
 17 18  1  0
 18 19  2  0
 19 20  1  0
 20 21  2  0
 12 22  1  0
 22 23  1  0
 23 24  2  0
 24  2  1  0
 23  9  1  0
 21 16  1  0
M  END
>  <Binding energies>  (27) 
[-6.45]

>  <Ligand effiencies>  (27) 
[-0.2388888888888889]

>  <Interactions>  (27) 
["V-B:TYR:539:CE2:9845, V-B:PRO:540:N:9853, V-B:PRO:540:CB:9854, V-B:TYR:539:CZ:9846, V-A:LEU:475:CD1:4254, V-B:PRO:540:CA:9852, V-B:TYR:539:CD1:9842, V-B:TYR:539:C:9836, V-B:ALA:541:CB:9861, V-B:TYR:539:CE1:9844, V-B:GLU:543:CD:9877, V-B:GLU:543:CG:9876, H-B:GLU:543:OE2:9879, V-A:ARG:545:CZ:4923, V-A:GLY:454:CA:4045, V-A:GLU:543:CD:4905, V-A:HIS:456:CE1:4066, V-B:GLU:543:CB:9875, H-A:GLY:454:N:4046, H-A:TYR:484:OH:4344, V-B:PRO:540:CD:9856, V-B:TYR:539:CA:9838, V-B:TYR:539:CG:9841, V-B:TYR:539:CD2:9843, H-B:GLU:543:OE1:9878, V-A:GLU:543:CB:4903, V-A:GLY:453:C:4038, V-A:GLY:453:CA:4040, V-A:GLY:454:C:4043, V-A:ARG:545:CG:4919, V-A:ARG:545:CD:4920"]

$$$$
4be_Grossjean_2025
     RDKit          3D

 25 27  0  0  0  0  0  0  0  0999 V2000
  128.5730  122.7470   54.7550 C   0  0  0  0  0  0  0  0  0  0  0  0
  127.9170  122.8360   56.1200 C   0  0  0  0  0  0  0  0  0  0  0  0
  126.5410  122.6550   56.2820 C   0  0  0  0  0  0  0  0  0  0  0  0
  126.0050  122.7540   57.5660 C   0  0  0  0  0  0  0  0  0  0  0  0
  126.8470  123.0280   58.6460 C   0  0  0  0  0  0  0  0  0  0  0  0
  128.2180  123.1920   58.4140 C   0  0  0  0  0  0  0  0  0  0  0  0
  129.0100  123.4720   59.5420 N   0  0  0  0  0  0  0  0  0  0  0  0
  129.4810  122.6200   60.4860 C   0  0  0  0  0  0  0  0  0  0  0  0
  129.2700  121.4050   60.4800 O   0  0  0  0  0  0  0  0  0  0  0  0
  130.2610  123.2400   61.5610 C   0  0  0  0  0  0  0  0  0  0  0  0
  131.9690  122.8500   61.7520 S   0  0  0  0  0  0  0  0  0  0  0  0
  132.0970  123.8920   63.1500 C   0  0  0  0  0  0  0  0  0  0  0  0
  133.2480  124.0400   63.8030 N   0  0  0  0  0  0  0  0  0  0  0  0
  133.2240  124.8750   64.8680 C   0  0  0  0  0  0  0  0  0  0  0  0
  134.5440  125.0280   65.6000 C   0  0  0  0  0  0  0  0  0  0  0  0
  132.0870  125.5600   65.2880 C   0  0  0  0  0  0  0  0  0  0  0  0
  130.8710  125.4090   64.6030 C   0  0  0  0  0  0  0  0  0  0  0  0
  129.6470  126.1860   65.1010 C   0  0  0  0  0  0  0  0  0  0  0  0
  129.9630  127.1690   65.9480 F   0  0  0  0  0  0  0  0  0  0  0  0
  129.0130  126.7390   64.0680 F   0  0  0  0  0  0  0  0  0  0  0  0
  128.8170  125.3600   65.7380 F   0  0  0  0  0  0  0  0  0  0  0  0
  130.8610  124.5320   63.4780 C   0  0  0  0  0  0  0  0  0  0  0  0
  129.8270  124.1290   62.5560 C   0  0  0  0  0  0  0  0  0  0  0  0
  128.5370  124.5850   62.6450 N   0  0  0  0  0  0  0  0  0  0  0  0
  128.7480  123.1020   57.1600 N   0  0  0  0  0  0  0  0  0  0  0  0
  1  2  1  0
  2  3  2  0
  3  4  1  0
  4  5  2  0
  5  6  1  0
  6  7  1  0
  7  8  1  0
  8  9  2  0
  8 10  1  0
 10 11  1  0
 11 12  1  0
 12 13  2  0
 13 14  1  0
 14 15  1  0
 14 16  2  0
 16 17  1  0
 17 18  1  0
 18 19  1  0
 18 20  1  0
 18 21  1  0
 17 22  2  0
 22 23  1  0
 23 24  1  0
  6 25  2  0
 25  2  1  0
 23 10  2  0
 22 12  1  0
M  END
>  <Binding energies>  (28) 
[-6.61]

>  <Ligand effiencies>  (28) 
[-0.23607142857142857]

>  <Interactions>  (28) 
["V-B:TYR:539:CE2:9845, V-B:PRO:540:N:9853, V-B:PRO:540:CB:9854, V-B:TYR:539:CZ:9846, V-B:PRO:540:CA:9852, V-B:TYR:539:CD1:9842, V-B:ILE:538:CA:9829, V-B:TYR:539:CE1:9844, V-B:GLU:543:CD:9877, V-B:ILE:538:CB:9831, V-B:GLU:543:CG:9876, H-B:GLU:543:OE2:9879, V-B:MET:535:CE:9804, V-A:ARG:545:CZ:4923, V-A:GLY:454:CA:4045, V-A:GLU:543:CD:4905, V-A:HIS:456:CE1:4066, H-B:TYR:539:OH:9847, V-B:GLU:543:CB:9875, H-A:GLY:454:N:4046, H-A:TYR:484:OH:4344, V-B:PRO:540:CD:9856, V-B:TYR:539:CD2:9843, H-B:GLU:543:OE1:9878, V-A:GLY:453:C:4038, V-A:GLY:453:CA:4040, V-A:GLY:454:C:4043, V-A:ARG:545:CG:4919, V-A:ARG:545:CD:4920"]

$$$$
4bg_Grossjean_2025
     RDKit          3D

 25 27  0  0  0  0  0  0  0  0999 V2000
  134.7580  125.1240   65.9690 C   0  0  0  0  0  0  0  0  0  0  0  0
  133.4350  124.9550   65.2450 C   0  0  0  0  0  0  0  0  0  0  0  0
  132.3470  125.7730   65.5380 C   0  0  0  0  0  0  0  0  0  0  0  0
  131.1270  125.6020   64.8640 C   0  0  0  0  0  0  0  0  0  0  0  0
  129.9580  126.5260   65.2210 C   0  0  0  0  0  0  0  0  0  0  0  0
  128.9110  125.8710   65.7280 F   0  0  0  0  0  0  0  0  0  0  0  0
  130.3490  127.4180   66.1310 F   0  0  0  0  0  0  0  0  0  0  0  0
  129.5380  127.1660   64.1300 F   0  0  0  0  0  0  0  0  0  0  0  0
  131.0630  124.5690   63.8830 C   0  0  0  0  0  0  0  0  0  0  0  0
  130.0090  124.1020   63.0160 C   0  0  0  0  0  0  0  0  0  0  0  0
  128.7500  124.6470   63.0170 N   0  0  0  0  0  0  0  0  0  0  0  0
  130.3900  123.0500   62.1680 C   0  0  0  0  0  0  0  0  0  0  0  0
  129.5760  122.3240   61.1940 C   0  0  0  0  0  0  0  0  0  0  0  0
  129.7200  121.1140   61.0100 O   0  0  0  0  0  0  0  0  0  0  0  0
  128.6400  123.0500   60.5480 N   0  0  0  0  0  0  0  0  0  0  0  0
  127.7260  122.5400   59.5260 C   0  0  0  0  0  0  0  0  0  0  0  0
  126.3670  123.2280   59.5260 C   0  0  0  0  0  0  0  0  0  0  0  0
  125.7350  123.5320   58.3160 C   0  0  0  0  0  0  0  0  0  0  0  0
  124.4760  124.1250   58.3190 C   0  0  0  0  0  0  0  0  0  0  0  0
  123.8450  124.4010   59.5300 C   0  0  0  0  0  0  0  0  0  0  0  0
  124.4610  124.0860   60.7390 C   0  0  0  0  0  0  0  0  0  0  0  0
  125.7210  123.4930   60.7370 C   0  0  0  0  0  0  0  0  0  0  0  0
  132.0630  122.5760   62.4460 S   0  0  0  0  0  0  0  0  0  0  0  0
  132.2530  123.8050   63.6730 C   0  0  0  0  0  0  0  0  0  0  0  0
  133.4080  123.9710   64.3180 N   0  0  0  0  0  0  0  0  0  0  0  0
  1  2  1  0
  2  3  2  0
  3  4  1  0
  4  5  1  0
  5  6  1  0
  5  7  1  0
  5  8  1  0
  4  9  2  0
  9 10  1  0
 10 11  1  0
 10 12  2  0
 12 13  1  0
 13 14  2  0
 13 15  1  0
 15 16  1  0
 16 17  1  0
 17 18  2  0
 18 19  1  0
 19 20  2  0
 20 21  1  0
 21 22  2  0
 12 23  1  0
 23 24  1  0
 24 25  2  0
 25  2  1  0
 24  9  1  0
 22 17  1  0
M  END
>  <Binding energies>  (29) 
[-6.67]

>  <Ligand effiencies>  (29) 
[-0.2382142857142857]

>  <Interactions>  (29) 
["V-B:TYR:539:CE2:9845, V-B:PRO:540:N:9853, V-B:PRO:540:CB:9854, V-A:LEU:475:CD1:4254, V-B:PRO:540:CA:9852, V-B:TYR:539:C:9836, V-B:LEU:363:CD1:8157, V-B:ALA:541:CB:9861, V-B:GLU:543:CD:9877, V-B:GLU:543:CG:9876, H-B:GLU:543:OE2:9879, V-A:ARG:545:CZ:4923, V-A:GLY:454:CA:4045, V-A:GLU:543:CD:4905, V-A:HIS:456:CE1:4066, V-B:GLU:543:CB:9875, H-A:GLY:454:N:4046, H-A:TYR:484:OH:4344, V-B:LEU:363:CA:8153, V-B:ASN:362:CB:8144, V-B:ASN:362:C:8140, H-B:GLU:543:OE1:9878, V-A:GLU:543:CB:4903, V-A:GLY:453:C:4038, V-A:GLY:453:CA:4040, V-A:GLY:454:C:4043, V-A:ARG:545:CG:4919, V-A:ARG:545:CD:4920"]

$$$$
4ca_Grossjean_2025
     RDKit          3D

 34 37  0  0  0  0  0  0  0  0999 V2000
  129.4530  123.0230   53.9910 C   0  0  0  0  0  0  0  0  0  0  0  0
  128.0040  122.7470   54.4040 C   0  0  0  0  0  0  0  0  0  0  0  0
  127.9920  121.9910   55.6070 O   0  0  0  0  0  0  0  0  0  0  0  0
  126.9450  122.0610   56.4700 C   0  0  0  0  0  0  0  0  0  0  0  0
  125.8130  121.6460   56.2000 O   0  0  0  0  0  0  0  0  0  0  0  0
  127.3010  122.6900   57.7850 C   0  0  0  0  0  0  0  0  0  0  0  0
  126.5940  123.8200   58.2170 C   0  0  0  0  0  0  0  0  0  0  0  0
  126.8990  124.4240   59.4340 C   0  0  0  0  0  0  0  0  0  0  0  0
  127.9190  123.9160   60.2390 C   0  0  0  0  0  0  0  0  0  0  0  0
  128.1360  124.5980   61.4530 N   0  0  0  0  0  0  0  0  0  0  0  0
  129.2440  125.2310   61.9120 C   0  0  0  0  0  0  0  0  0  0  0  0
  130.2870  125.3530   61.2690 O   0  0  0  0  0  0  0  0  0  0  0  0
  129.1260  125.8010   63.2560 C   0  0  0  0  0  0  0  0  0  0  0  0
  129.7360  124.9130   64.6510 S   0  0  0  0  0  0  0  0  0  0  0  0
  129.2800  126.2090   65.7310 C   0  0  0  0  0  0  0  0  0  0  0  0
  129.5030  126.1320   67.0400 N   0  0  0  0  0  0  0  0  0  0  0  0
  129.1270  127.1940   67.7990 C   0  0  0  0  0  0  0  0  0  0  0  0
  129.4010  127.0800   69.2710 C   0  0  0  0  0  0  0  0  0  0  0  0
  128.6900  126.1670   70.0660 C   0  0  0  0  0  0  0  0  0  0  0  0
  128.9360  126.0610   71.4330 C   0  0  0  0  0  0  0  0  0  0  0  0
  129.8990  126.8700   72.0260 C   0  0  0  0  0  0  0  0  0  0  0  0
  130.6160  127.7850   71.2620 C   0  0  0  0  0  0  0  0  0  0  0  0
  130.3670  127.8880   69.8960 C   0  0  0  0  0  0  0  0  0  0  0  0
  128.5080  128.3180   67.2410 C   0  0  0  0  0  0  0  0  0  0  0  0
  128.2640  128.4070   65.8630 C   0  0  0  0  0  0  0  0  0  0  0  0
  127.5850  129.6700   65.3180 C   0  0  0  0  0  0  0  0  0  0  0  0
  128.0540  130.0430   64.1260 F   0  0  0  0  0  0  0  0  0  0  0  0
  126.2770  129.4560   65.1830 F   0  0  0  0  0  0  0  0  0  0  0  0
  127.7810  130.6850   66.1590 F   0  0  0  0  0  0  0  0  0  0  0  0
  128.6700  127.3060   65.0550 C   0  0  0  0  0  0  0  0  0  0  0  0
  128.5980  127.0450   63.6380 C   0  0  0  0  0  0  0  0  0  0  0  0
  128.0570  127.9370   62.7480 N   0  0  0  0  0  0  0  0  0  0  0  0
  128.6280  122.7820   59.8180 C   0  0  0  0  0  0  0  0  0  0  0  0
  128.3210  122.1780   58.6020 C   0  0  0  0  0  0  0  0  0  0  0  0
  1  2  1  0
  2  3  1  0
  3  4  1  0
  4  5  2  0
  4  6  1  0
  6  7  2  0
  7  8  1  0
  8  9  2  0
  9 10  1  0
 10 11  1  0
 11 12  2  0
 11 13  1  0
 13 14  1  0
 14 15  1  0
 15 16  2  0
 16 17  1  0
 17 18  1  0
 18 19  2  0
 19 20  1  0
 20 21  2  0
 21 22  1  0
 22 23  2  0
 17 24  2  0
 24 25  1  0
 25 26  1  0
 26 27  1  0
 26 28  1  0
 26 29  1  0
 25 30  2  0
 30 31  1  0
 31 32  1  0
  9 33  1  0
 33 34  2  0
 34  6  1  0
 31 13  2  0
 30 15  1  0
 23 18  1  0
M  END
>  <Binding energies>  (30) 
[-8.84]

>  <Ligand effiencies>  (30) 
[-0.23891891891891892]

>  <Interactions>  (30) 
["V-B:TYR:539:CE2:9845, V-B:PRO:540:N:9853, V-B:TYR:539:CZ:9846, V-B:PRO:540:CA:9852, H-B:TYR:539:N:9839, V-B:TYR:539:CD1:9842, V-B:ILE:538:CA:9829, V-B:TYR:539:C:9836, V-B:ILE:538:CG2:9832, V-B:TYR:539:CE1:9844, V-B:GLU:543:CD:9877, V-B:ILE:538:CB:9831, V-B:GLU:543:CG:9876, H-B:GLU:543:OE2:9879, V-B:MET:535:CE:9804, V-A:GLU:543:CD:4905, V-A:HIS:456:CE1:4066, V-A:GLU:543:CG:4904, V-B:GLU:543:CB:9875, V-B:PRO:540:CD:9856, V-B:TYR:539:CA:9838, V-B:TYR:539:CG:9841, V-B:TYR:539:CD2:9843, H-B:ASP:366:OD1:8182, H-B:GLU:543:OE1:9878, V-A:GLU:543:CB:4903, V-A:GLU:543:C:4899, V-A:GLY:544:C:4909, V-B:HIS:456:CE1:9038, H-A:GLU:543:OE2:4907, V-B:TYR:484:CZ:9315, V-B:TYR:484:CE1:9313, V-A:HIS:456:CD2:4064"]

$$$$
4cb_Grossjean_2025
     RDKit          3D

 33 36  0  0  0  0  0  0  0  0999 V2000
  128.1420  122.7480   54.5550 C   0  0  0  0  0  0  0  0  0  0  0  0
  127.9530  121.8570   55.6460 O   0  0  0  0  0  0  0  0  0  0  0  0
  126.9030  122.0030   56.4940 C   0  0  0  0  0  0  0  0  0  0  0  0
  125.7520  121.6480   56.2220 O   0  0  0  0  0  0  0  0  0  0  0  0
  127.2810  122.6420   57.8010 C   0  0  0  0  0  0  0  0  0  0  0  0
  126.5420  123.7390   58.2650 C   0  0  0  0  0  0  0  0  0  0  0  0
  126.8620  124.3470   59.4750 C   0  0  0  0  0  0  0  0  0  0  0  0
  127.9290  123.8780   60.2420 C   0  0  0  0  0  0  0  0  0  0  0  0
  128.1550  124.5580   61.4540 N   0  0  0  0  0  0  0  0  0  0  0  0
  129.2770  125.1580   61.9230 C   0  0  0  0  0  0  0  0  0  0  0  0
  130.3310  125.2440   61.2910 O   0  0  0  0  0  0  0  0  0  0  0  0
  129.1620  125.7390   63.2630 C   0  0  0  0  0  0  0  0  0  0  0  0
  129.7780  124.8650   64.6640 S   0  0  0  0  0  0  0  0  0  0  0  0
  129.3210  126.1690   65.7360 C   0  0  0  0  0  0  0  0  0  0  0  0
  129.5460  126.1030   67.0450 N   0  0  0  0  0  0  0  0  0  0  0  0
  129.1650  127.1700   67.7960 C   0  0  0  0  0  0  0  0  0  0  0  0
  129.4370  127.0690   69.2690 C   0  0  0  0  0  0  0  0  0  0  0  0
  130.4080  127.8810   69.8760 C   0  0  0  0  0  0  0  0  0  0  0  0
  130.6680  127.7900   71.2420 C   0  0  0  0  0  0  0  0  0  0  0  0
  129.9590  126.8820   72.0210 C   0  0  0  0  0  0  0  0  0  0  0  0
  128.9930  126.0630   71.4430 C   0  0  0  0  0  0  0  0  0  0  0  0
  128.7380  126.1560   70.0780 C   0  0  0  0  0  0  0  0  0  0  0  0
  128.5400  128.2860   67.2290 C   0  0  0  0  0  0  0  0  0  0  0  0
  128.2950  128.3630   65.8500 C   0  0  0  0  0  0  0  0  0  0  0  0
  127.6080  129.6180   65.2950 C   0  0  0  0  0  0  0  0  0  0  0  0
  128.0760  129.9840   64.1000 F   0  0  0  0  0  0  0  0  0  0  0  0
  126.3020  129.3920   65.1600 F   0  0  0  0  0  0  0  0  0  0  0  0
  127.7950  130.6410   66.1280 F   0  0  0  0  0  0  0  0  0  0  0  0
  128.7060  127.2570   65.0510 C   0  0  0  0  0  0  0  0  0  0  0  0
  128.6330  126.9860   63.6360 C   0  0  0  0  0  0  0  0  0  0  0  0
  128.0920  127.8710   62.7390 N   0  0  0  0  0  0  0  0  0  0  0  0
  128.6730  122.7790   59.7860 C   0  0  0  0  0  0  0  0  0  0  0  0
  128.3500  122.1710   58.5770 C   0  0  0  0  0  0  0  0  0  0  0  0
  1  2  1  0
  2  3  1  0
  3  4  2  0
  3  5  1  0
  5  6  2  0
  6  7  1  0
  7  8  2  0
  8  9  1  0
  9 10  1  0
 10 11  2  0
 10 12  1  0
 12 13  1  0
 13 14  1  0
 14 15  2  0
 15 16  1  0
 16 17  1  0
 17 18  2  0
 18 19  1  0
 19 20  2  0
 20 21  1  0
 21 22  2  0
 16 23  2  0
 23 24  1  0
 24 25  1  0
 25 26  1  0
 25 27  1  0
 25 28  1  0
 24 29  2  0
 29 30  1  0
 30 31  1  0
  8 32  1  0
 32 33  2  0
 33  5  1  0
 30 12  2  0
 29 14  1  0
 22 17  1  0
M  END
>  <Binding energies>  (31) 
[-8.53]

>  <Ligand effiencies>  (31) 
[-0.23694444444444443]

>  <Interactions>  (31) 
["V-B:TYR:539:CE2:9845, V-B:PRO:540:N:9853, V-B:TYR:539:CZ:9846, V-B:PRO:540:CA:9852, H-B:TYR:539:N:9839, V-B:TYR:539:CD1:9842, V-B:ILE:538:CA:9829, V-B:TYR:539:C:9836, V-B:ILE:538:CG2:9832, V-B:TYR:539:CE1:9844, V-B:GLU:543:CD:9877, V-B:ILE:538:CB:9831, V-B:GLU:543:CG:9876, H-B:GLU:543:OE2:9879, V-B:MET:535:CE:9804, V-A:GLU:543:CD:4905, V-A:HIS:456:CE1:4066, V-A:GLU:543:CG:4904, V-B:GLU:543:CB:9875, V-B:PRO:540:CD:9856, V-B:TYR:539:CA:9838, V-B:TYR:539:CG:9841, V-B:TYR:539:CD2:9843, H-B:ASP:366:OD1:8182, H-B:GLU:543:OE1:9878, V-A:GLU:543:CB:4903, V-A:GLU:543:C:4899, V-A:GLY:544:C:4909, V-B:HIS:456:CE1:9038, H-A:GLU:543:OE2:4907, V-B:TYR:484:CZ:9315, V-B:TYR:484:CE1:9313, V-A:HIS:456:CD2:4064"]

$$$$
4cc_Grossjean_2025
     RDKit          3D

 31 34  0  0  0  0  0  0  0  0999 V2000
  127.5630  122.3650   55.3950 C   0  0  0  0  0  0  0  0  0  0  0  0
  126.9570  121.9040   56.5980 O   0  0  0  0  0  0  0  0  0  0  0  0
  127.3210  122.4810   57.8000 C   0  0  0  0  0  0  0  0  0  0  0  0
  126.5700  123.5810   58.2150 C   0  0  0  0  0  0  0  0  0  0  0  0
  126.8610  124.2260   59.4130 C   0  0  0  0  0  0  0  0  0  0  0  0
  127.9180  123.7850   60.2110 C   0  0  0  0  0  0  0  0  0  0  0  0
  128.1260  124.4900   61.4120 N   0  0  0  0  0  0  0  0  0  0  0  0
  129.2250  125.1630   61.8300 C   0  0  0  0  0  0  0  0  0  0  0  0
  130.2500  125.2940   61.1590 O   0  0  0  0  0  0  0  0  0  0  0  0
  129.1300  125.7520   63.1700 C   0  0  0  0  0  0  0  0  0  0  0  0
  129.7490  124.8770   64.5700 S   0  0  0  0  0  0  0  0  0  0  0  0
  129.2840  126.1770   65.6420 C   0  0  0  0  0  0  0  0  0  0  0  0
  129.5070  126.1090   66.9530 N   0  0  0  0  0  0  0  0  0  0  0  0
  129.1190  127.1710   67.7040 C   0  0  0  0  0  0  0  0  0  0  0  0
  129.3810  127.0650   69.1790 C   0  0  0  0  0  0  0  0  0  0  0  0
  130.3210  127.9010   69.8030 C   0  0  0  0  0  0  0  0  0  0  0  0
  130.5700  127.8070   71.1700 C   0  0  0  0  0  0  0  0  0  0  0  0
  129.8810  126.8720   71.9350 C   0  0  0  0  0  0  0  0  0  0  0  0
  128.9470  126.0300   71.3410 C   0  0  0  0  0  0  0  0  0  0  0  0
  128.7010  126.1260   69.9730 C   0  0  0  0  0  0  0  0  0  0  0  0
  128.4960  128.2880   67.1400 C   0  0  0  0  0  0  0  0  0  0  0  0
  128.2540  128.3690   65.7590 C   0  0  0  0  0  0  0  0  0  0  0  0
  127.5720  129.6260   65.2070 C   0  0  0  0  0  0  0  0  0  0  0  0
  128.0090  129.9700   63.9930 F   0  0  0  0  0  0  0  0  0  0  0  0
  126.2580  129.4220   65.1130 F   0  0  0  0  0  0  0  0  0  0  0  0
  127.7990  130.6570   66.0200 F   0  0  0  0  0  0  0  0  0  0  0  0
  128.6640  127.2640   64.9590 C   0  0  0  0  0  0  0  0  0  0  0  0
  128.5870  126.9900   63.5450 C   0  0  0  0  0  0  0  0  0  0  0  0
  128.0310  127.8690   62.6500 N   0  0  0  0  0  0  0  0  0  0  0  0
  128.6700  122.6720   59.8070 C   0  0  0  0  0  0  0  0  0  0  0  0
  128.3750  122.0290   58.6080 C   0  0  0  0  0  0  0  0  0  0  0  0
  1  2  1  0
  2  3  1  0
  3  4  2  0
  4  5  1  0
  5  6  2  0
  6  7  1  0
  7  8  1  0
  8  9  2  0
  8 10  1  0
 10 11  1  0
 11 12  1  0
 12 13  2  0
 13 14  1  0
 14 15  1  0
 15 16  2  0
 16 17  1  0
 17 18  2  0
 18 19  1  0
 19 20  2  0
 14 21  2  0
 21 22  1  0
 22 23  1  0
 23 24  1  0
 23 25  1  0
 23 26  1  0
 22 27  2  0
 27 28  1  0
 28 29  1  0
  6 30  1  0
 30 31  2  0
 31  3  1  0
 28 10  2  0
 27 12  1  0
 20 15  1  0
M  END
>  <Binding energies>  (32) 
[-7.83]

>  <Ligand effiencies>  (32) 
[-0.23029411764705882]

>  <Interactions>  (32) 
["V-B:TYR:539:CE2:9845, V-B:PRO:540:N:9853, V-B:TYR:539:CZ:9846, V-B:PRO:540:CA:9852, H-B:TYR:539:N:9839, V-B:TYR:539:CD1:9842, V-B:ILE:538:CA:9829, V-B:ILE:538:C:9827, V-B:TYR:539:C:9836, V-B:ILE:538:CG2:9832, V-B:TYR:539:CE1:9844, V-B:GLU:543:CD:9877, V-B:ILE:538:CB:9831, V-B:GLU:543:CG:9876, H-B:GLU:543:OE2:9879, V-B:MET:535:CE:9804, V-A:GLU:543:CD:4905, V-A:HIS:456:CE1:4066, V-A:GLU:543:CG:4904, V-B:GLU:543:CB:9875, V-B:TYR:539:CG:9841, V-B:TYR:539:CD2:9843, H-B:ASP:366:OD1:8182, H-B:GLU:543:OE1:9878, V-A:GLU:543:CB:4903, V-A:GLU:543:C:4899, V-A:GLY:544:C:4909, V-B:HIS:456:CE1:9038, H-A:GLU:543:OE2:4907, V-B:TYR:484:CZ:9315, V-B:TYR:484:CE1:9313, V-A:HIS:456:CD2:4064"]

$$$$
4ce_Grossjean_2025
     RDKit          3D

 30 33  0  0  0  0  0  0  0  0999 V2000
  128.0460  126.5170   70.4400 C   0  0  0  0  0  0  0  0  0  0  0  0
  128.9670  126.8270   69.2740 C   0  0  0  0  0  0  0  0  0  0  0  0
  129.9780  127.7870   69.3770 C   0  0  0  0  0  0  0  0  0  0  0  0
  130.7920  128.0140   68.2670 C   0  0  0  0  0  0  0  0  0  0  0  0
  130.5800  127.2850   67.0950 C   0  0  0  0  0  0  0  0  0  0  0  0
  129.5460  126.3430   67.0580 C   0  0  0  0  0  0  0  0  0  0  0  0
  129.3980  125.6230   65.8590 N   0  0  0  0  0  0  0  0  0  0  0  0
  130.3570  125.0540   65.0870 C   0  0  0  0  0  0  0  0  0  0  0  0
  131.5580  125.0770   65.3590 O   0  0  0  0  0  0  0  0  0  0  0  0
  129.8750  124.3860   63.8750 C   0  0  0  0  0  0  0  0  0  0  0  0
  128.8640  125.2570   62.7250 S   0  0  0  0  0  0  0  0  0  0  0  0
  128.7940  123.8690   61.6670 C   0  0  0  0  0  0  0  0  0  0  0  0
  128.1190  123.9030   60.5200 N   0  0  0  0  0  0  0  0  0  0  0  0
  128.1350  122.7800   59.7560 C   0  0  0  0  0  0  0  0  0  0  0  0
  127.3700  122.8530   58.4680 C   0  0  0  0  0  0  0  0  0  0  0  0
  126.0930  123.4370   58.4250 C   0  0  0  0  0  0  0  0  0  0  0  0
  125.3750  123.5030   57.2340 C   0  0  0  0  0  0  0  0  0  0  0  0
  125.9250  122.9860   56.0670 C   0  0  0  0  0  0  0  0  0  0  0  0
  127.1870  122.4020   56.0820 C   0  0  0  0  0  0  0  0  0  0  0  0
  127.9020  122.3360   57.2750 C   0  0  0  0  0  0  0  0  0  0  0  0
  128.8090  121.6210   60.1580 C   0  0  0  0  0  0  0  0  0  0  0  0
  129.5190  121.5720   61.3680 C   0  0  0  0  0  0  0  0  0  0  0  0
  130.2360  120.2720   61.7450 C   0  0  0  0  0  0  0  0  0  0  0  0
  129.8500  119.2280   61.0090 F   0  0  0  0  0  0  0  0  0  0  0  0
  131.5510  120.4160   61.5750 F   0  0  0  0  0  0  0  0  0  0  0  0
  129.9880  119.9750   63.0210 F   0  0  0  0  0  0  0  0  0  0  0  0
  129.5220  122.7500   62.1700 C   0  0  0  0  0  0  0  0  0  0  0  0
  130.1300  123.0750   63.4370 C   0  0  0  0  0  0  0  0  0  0  0  0
  130.8890  122.1810   64.1470 N   0  0  0  0  0  0  0  0  0  0  0  0
  128.7480  126.1110   68.1410 N   0  0  0  0  0  0  0  0  0  0  0  0
  1  2  1  0
  2  3  2  0
  3  4  1  0
  4  5  2  0
  5  6  1  0
  6  7  1  0
  7  8  1  0
  8  9  2  0
  8 10  1  0
 10 11  1  0
 11 12  1  0
 12 13  2  0
 13 14  1  0
 14 15  1  0
 15 16  2  0
 16 17  1  0
 17 18  2  0
 18 19  1  0
 19 20  2  0
 14 21  2  0
 21 22  1  0
 22 23  1  0
 23 24  1  0
 23 25  1  0
 23 26  1  0
 22 27  2  0
 27 28  1  0
 28 29  1  0
  6 30  2  0
 30  2  1  0
 28 10  2  0
 27 12  1  0
 20 15  1  0
M  END
>  <Binding energies>  (33) 
[-7.83]

>  <Ligand effiencies>  (33) 
[-0.23727272727272727]

>  <Interactions>  (33) 
["V-B:TYR:539:CE2:9845, V-B:PRO:540:N:9853, V-B:PRO:540:CB:9854, V-B:TYR:539:CZ:9846, V-A:TYR:484:CZ:4343, V-A:LEU:475:CD1:4254, V-B:PRO:540:CA:9852, V-B:TYR:539:CD1:9842, V-B:ILE:538:CA:9829, V-B:TYR:539:C:9836, V-B:LEU:363:CD1:8157, V-B:ALA:541:CB:9861, V-B:ILE:538:CG2:9832, V-B:TYR:539:CE1:9844, V-B:GLU:543:CD:9877, V-A:TYR:484:CE1:4341, V-B:ILE:538:CB:9831, V-A:LEU:475:CD2:4255, V-B:GLU:543:CG:9876, H-B:GLU:543:OE2:9879, V-A:GLU:543:CD:4905, V-A:HIS:456:CE1:4066, V-B:GLU:543:CB:9875, H-A:TYR:484:OH:4344, V-B:TYR:539:CG:9841, V-B:TYR:539:CD2:9843, H-B:GLU:543:OE1:9878, V-B:HIS:456:CD2:9036, V-A:GLU:543:CB:4903, V-A:GLU:543:C:4899, V-B:HIS:456:CE1:9038, V-B:GLY:544:C:9881, V-A:TRP:381:CH2:3368, V-A:LEU:475:CG:4253, V-A:PRO:482:CB:4322, V-A:PRO:482:CG:4323, V-A:TRP:381:CZ2:3366"]

$$$$
4cf_Grossjean_2025
     RDKit          3D

 29 32  0  0  0  0  0  0  0  0999 V2000
  130.9620  122.2000   64.1360 N   0  0  0  0  0  0  0  0  0  0  0  0
  130.2080  123.1090   63.4380 C   0  0  0  0  0  0  0  0  0  0  0  0
  129.9990  124.4290   63.8710 C   0  0  0  0  0  0  0  0  0  0  0  0
  130.4750  125.0750   65.0970 C   0  0  0  0  0  0  0  0  0  0  0  0
  131.6590  124.9980   65.4270 O   0  0  0  0  0  0  0  0  0  0  0  0
  129.5330  125.7470   65.8020 N   0  0  0  0  0  0  0  0  0  0  0  0
  129.6440  126.4250   67.0310 C   0  0  0  0  0  0  0  0  0  0  0  0
  130.5860  127.4300   67.3270 C   0  0  0  0  0  0  0  0  0  0  0  0
  130.5970  128.0130   68.5960 C   0  0  0  0  0  0  0  0  0  0  0  0
  129.6680  127.5770   69.5400 C   0  0  0  0  0  0  0  0  0  0  0  0
  128.7550  126.6060   69.2830 N   0  0  0  0  0  0  0  0  0  0  0  0
  128.7570  126.0480   68.0450 C   0  0  0  0  0  0  0  0  0  0  0  0
  128.9890  125.3180   62.7330 S   0  0  0  0  0  0  0  0  0  0  0  0
  128.8480  123.9190   61.6940 C   0  0  0  0  0  0  0  0  0  0  0  0
  128.1370  123.9570   60.5690 N   0  0  0  0  0  0  0  0  0  0  0  0
  128.0730  122.8140   59.8370 C   0  0  0  0  0  0  0  0  0  0  0  0
  127.2580  122.8850   58.5780 C   0  0  0  0  0  0  0  0  0  0  0  0
  127.7440  122.3450   57.3780 C   0  0  0  0  0  0  0  0  0  0  0  0
  126.9950  122.4050   56.2060 C   0  0  0  0  0  0  0  0  0  0  0  0
  125.7420  123.0080   56.2200 C   0  0  0  0  0  0  0  0  0  0  0  0
  125.2330  123.5490   57.3970 C   0  0  0  0  0  0  0  0  0  0  0  0
  125.9870  123.4850   58.5660 C   0  0  0  0  0  0  0  0  0  0  0  0
  128.7420  121.6490   60.2240 C   0  0  0  0  0  0  0  0  0  0  0  0
  129.4970  121.6000   61.4060 C   0  0  0  0  0  0  0  0  0  0  0  0
  130.2010  120.2880   61.7730 C   0  0  0  0  0  0  0  0  0  0  0  0
  129.7520  119.2400   61.0780 F   0  0  0  0  0  0  0  0  0  0  0  0
  131.5070  120.3950   61.5340 F   0  0  0  0  0  0  0  0  0  0  0  0
  130.0100  120.0200   63.0650 F   0  0  0  0  0  0  0  0  0  0  0  0
  129.5570  122.7870   62.1920 C   0  0  0  0  0  0  0  0  0  0  0  0
  1  2  1  0
  2  3  2  0
  3  4  1  0
  4  5  2  0
  4  6  1  0
  6  7  1  0
  7  8  2  0
  8  9  1  0
  9 10  2  0
 10 11  1  0
 11 12  2  0
  3 13  1  0
 13 14  1  0
 14 15  2  0
 15 16  1  0
 16 17  1  0
 17 18  2  0
 18 19  1  0
 19 20  2  0
 20 21  1  0
 21 22  2  0
 16 23  2  0
 23 24  1  0
 24 25  1  0
 25 26  1  0
 25 27  1  0
 25 28  1  0
 24 29  2  0
 29  2  1  0
 12  7  1  0
 29 14  1  0
 22 17  1  0
M  END
>  <Binding energies>  (34) 
[-7.38]

>  <Ligand effiencies>  (34) 
[-0.230625]

>  <Interactions>  (34) 
["V-B:TYR:539:CE2:9845, V-B:PRO:540:N:9853, V-B:PRO:540:CB:9854, V-B:TYR:539:CZ:9846, V-A:TYR:484:CZ:4343, V-A:LEU:475:CD1:4254, V-B:PRO:540:CA:9852, V-B:TYR:539:CD1:9842, V-B:ILE:538:CA:9829, V-B:TYR:539:C:9836, V-B:LEU:363:CD1:8157, V-B:ALA:541:CB:9861, V-B:ILE:538:CG2:9832, V-B:TYR:539:CE1:9844, V-B:GLU:543:CD:9877, V-A:TYR:484:CE1:4341, V-B:ILE:538:CB:9831, V-A:LEU:475:CD2:4255, V-B:GLU:543:CG:9876, H-B:GLU:543:OE2:9879, V-A:HIS:456:CE1:4066, V-B:GLU:543:CB:9875, H-A:TYR:484:OH:4344, V-B:TYR:539:CG:9841, V-B:TYR:539:CD2:9843, H-B:GLU:543:OE1:9878, V-A:GLU:543:CB:4903, V-A:GLU:543:C:4899, V-A:LEU:475:CG:4253, V-A:PRO:482:CB:4322, V-A:PRO:482:CG:4323"]

$$$$
4ci_Grossjean_2025
     RDKit          3D

 28 31  0  0  0  0  0  0  0  0999 V2000
  131.6730  122.9470   60.2390 N   0  0  0  0  0  0  0  0  0  0  0  0
  130.6310  123.3280   61.0450 C   0  0  0  0  0  0  0  0  0  0  0  0
  129.2840  123.1010   60.7200 C   0  0  0  0  0  0  0  0  0  0  0  0
  128.7300  122.4400   59.5350 C   0  0  0  0  0  0  0  0  0  0  0  0
  128.3740  121.2600   59.5820 O   0  0  0  0  0  0  0  0  0  0  0  0
  128.6570  123.2060   58.4190 N   0  0  0  0  0  0  0  0  0  0  0  0
  128.1810  122.8360   57.1670 C   0  0  0  0  0  0  0  0  0  0  0  0
  128.6430  123.3990   55.9780 C   0  0  0  0  0  0  0  0  0  0  0  0
  127.9300  122.7710   54.9840 C   0  0  0  0  0  0  0  0  0  0  0  0
  127.0820  121.8750   55.5450 O   0  0  0  0  0  0  0  0  0  0  0  0
  127.2510  121.9260   56.9290 N   0  0  0  0  0  0  0  0  0  0  0  0
  128.2140  123.7090   61.9800 S   0  0  0  0  0  0  0  0  0  0  0  0
  129.5720  124.2700   62.9260 C   0  0  0  0  0  0  0  0  0  0  0  0
  129.4000  124.8760   64.0990 N   0  0  0  0  0  0  0  0  0  0  0  0
  130.5160  125.2740   64.7640 C   0  0  0  0  0  0  0  0  0  0  0  0
  130.2890  125.9590   66.0810 C   0  0  0  0  0  0  0  0  0  0  0  0
  131.0930  127.0400   66.4790 C   0  0  0  0  0  0  0  0  0  0  0  0
  130.8870  127.6800   67.6980 C   0  0  0  0  0  0  0  0  0  0  0  0
  129.8700  127.2440   68.5420 C   0  0  0  0  0  0  0  0  0  0  0  0
  129.0630  126.1740   68.1760 C   0  0  0  0  0  0  0  0  0  0  0  0
  129.2730  125.5360   66.9560 C   0  0  0  0  0  0  0  0  0  0  0  0
  131.7970  125.0770   64.2380 C   0  0  0  0  0  0  0  0  0  0  0  0
  131.9900  124.4390   63.0030 C   0  0  0  0  0  0  0  0  0  0  0  0
  133.4230  124.2550   62.4880 C   0  0  0  0  0  0  0  0  0  0  0  0
  134.3130  125.0090   63.1350 F   0  0  0  0  0  0  0  0  0  0  0  0
  133.7940  122.9840   62.6360 F   0  0  0  0  0  0  0  0  0  0  0  0
  133.4830  124.5840   61.1970 F   0  0  0  0  0  0  0  0  0  0  0  0
  130.8270  124.0060   62.3040 C   0  0  0  0  0  0  0  0  0  0  0  0
  1  2  1  0
  2  3  2  0
  3  4  1  0
  4  5  2  0
  4  6  1  0
  6  7  1  0
  7  8  1  0
  8  9  2  0
  9 10  1  0
 10 11  1  0
  3 12  1  0
 12 13  1  0
 13 14  2  0
 14 15  1  0
 15 16  1  0
 16 17  2  0
 17 18  1  0
 18 19  2  0
 19 20  1  0
 20 21  2  0
 15 22  2  0
 22 23  1  0
 23 24  1  0
 24 25  1  0
 24 26  1  0
 24 27  1  0
 23 28  2  0
 28  2  1  0
 11  7  2  0
 28 13  1  0
 21 16  1  0
M  END
>  <Binding energies>  (35) 
[-7.51]

>  <Ligand effiencies>  (35) 
[-0.24225806451612902]

>  <Interactions>  (35) 
["V-B:TYR:539:CE2:9845, V-B:TYR:539:CZ:9846, H-B:TYR:539:N:9839, V-B:TYR:539:CD1:9842, V-B:ILE:538:CA:9829, V-B:ALA:541:CB:9861, V-B:ILE:538:CG2:9832, V-B:TYR:539:CE1:9844, V-B:GLU:543:CD:9877, V-B:ILE:538:CB:9831, V-B:GLU:543:CG:9876, V-B:MET:535:CE:9804, V-A:ARG:545:CZ:4923, V-A:GLY:454:CA:4045, V-A:GLU:543:CD:4905, V-A:ASP:366:CB:3208, V-A:HIS:456:CE1:4066, H-B:TYR:539:OH:9847, V-A:ASP:366:CG:3209, V-B:GLU:543:CB:9875, V-B:TYR:539:CD2:9843, V-A:GLU:543:CB:4903, V-A:GLY:453:C:4038, V-A:GLY:453:CA:4040"]

$$$$
8a_Ghoteimi_2023
     RDKit          3D

 40 44  0  0  0  0  0  0  0  0999 V2000
  129.4650  123.1160   53.9610 C   0  0  0  0  0  0  0  0  0  0  0  0
  128.0010  122.7440   54.2140 C   0  0  0  0  0  0  0  0  0  0  0  0
  127.9170  121.9110   55.3630 O   0  0  0  0  0  0  0  0  0  0  0  0
  126.8760  122.0180   56.2310 C   0  0  0  0  0  0  0  0  0  0  0  0
  125.7310  121.6380   55.9680 O   0  0  0  0  0  0  0  0  0  0  0  0
  127.2560  122.6480   57.5390 C   0  0  0  0  0  0  0  0  0  0  0  0
  126.3730  123.5500   58.1450 C   0  0  0  0  0  0  0  0  0  0  0  0
  126.6970  124.1530   59.3580 C   0  0  0  0  0  0  0  0  0  0  0  0
  127.9090  123.8680   59.9890 C   0  0  0  0  0  0  0  0  0  0  0  0
  128.1310  124.5400   61.2070 N   0  0  0  0  0  0  0  0  0  0  0  0
  129.2550  125.1210   61.6960 C   0  0  0  0  0  0  0  0  0  0  0  0
  130.3340  125.1490   61.1050 O   0  0  0  0  0  0  0  0  0  0  0  0
  129.1120  125.7440   63.0150 C   0  0  0  0  0  0  0  0  0  0  0  0
  129.9050  125.0410   64.4240 S   0  0  0  0  0  0  0  0  0  0  0  0
  129.2560  126.2830   65.4690 C   0  0  0  0  0  0  0  0  0  0  0  0
  129.4980  126.2930   66.7790 N   0  0  0  0  0  0  0  0  0  0  0  0
  128.9410  127.3010   67.5020 C   0  0  0  0  0  0  0  0  0  0  0  0
  129.2090  127.2810   68.9730 C   0  0  0  0  0  0  0  0  0  0  0  0
  128.3700  126.5810   69.8510 C   0  0  0  0  0  0  0  0  0  0  0  0
  128.6180  126.5760   71.2210 C   0  0  0  0  0  0  0  0  0  0  0  0
  129.7090  127.2650   71.7460 C   0  0  0  0  0  0  0  0  0  0  0  0
  129.8760  127.2060   73.1170 O   0  0  0  0  0  0  0  0  0  0  0  0
  128.7300  127.2850   73.9580 C   0  0  0  0  0  0  0  0  0  0  0  0
  130.5570  127.9640   70.8760 C   0  0  0  0  0  0  0  0  0  0  0  0
  130.3060  127.9700   69.5060 C   0  0  0  0  0  0  0  0  0  0  0  0
  128.1550  128.2940   66.9140 C   0  0  0  0  0  0  0  0  0  0  0  0
  127.9120  128.2970   65.5360 C   0  0  0  0  0  0  0  0  0  0  0  0
  127.0960  129.3950   64.9580 C   0  0  0  0  0  0  0  0  0  0  0  0
  125.7860  129.1510   64.5390 C   0  0  0  0  0  0  0  0  0  0  0  0
  125.0100  130.1820   64.0160 C   0  0  0  0  0  0  0  0  0  0  0  0
  125.5270  131.4730   63.9060 C   0  0  0  0  0  0  0  0  0  0  0  0
  124.6850  132.4320   63.3760 O   0  0  0  0  0  0  0  0  0  0  0  0
  123.8740  132.0990   62.2550 C   0  0  0  0  0  0  0  0  0  0  0  0
  126.8400  131.7220   64.3340 C   0  0  0  0  0  0  0  0  0  0  0  0
  127.6140  130.6890   64.8590 C   0  0  0  0  0  0  0  0  0  0  0  0
  128.4670  127.2390   64.7630 C   0  0  0  0  0  0  0  0  0  0  0  0
  128.3870  126.8950   63.3650 C   0  0  0  0  0  0  0  0  0  0  0  0
  127.6490  127.6250   62.4670 N   0  0  0  0  0  0  0  0  0  0  0  0
  128.7980  122.9620   59.3910 C   0  0  0  0  0  0  0  0  0  0  0  0
  128.4720  122.3610   58.1780 C   0  0  0  0  0  0  0  0  0  0  0  0
  1  2  1  0
  2  3  1  0
  3  4  1  0
  4  5  2  0
  4  6  1  0
  6  7  2  0
  7  8  1  0
  8  9  2  0
  9 10  1  0
 10 11  1  0
 11 12  2  0
 11 13  1  0
 13 14  1  0
 14 15  1  0
 15 16  2  0
 16 17  1  0
 17 18  1  0
 18 19  2  0
 19 20  1  0
 20 21  2  0
 21 22  1  0
 22 23  1  0
 21 24  1  0
 24 25  2  0
 17 26  2  0
 26 27  1  0
 27 28  1  0
 28 29  2  0
 29 30  1  0
 30 31  2  0
 31 32  1  0
 32 33  1  0
 31 34  1  0
 34 35  2  0
 27 36  2  0
 36 37  1  0
 37 38  1  0
  9 39  1  0
 39 40  2  0
 40  6  1  0
 37 13  2  0
 36 15  1  0
 25 18  1  0
 35 28  1  0
M  END
>  <Binding energies>  (36) 
[-10.97]

>  <Ligand effiencies>  (36) 
[-0.25511627906976747]

>  <Interactions>  (36) 
["V-B:TYR:539:CE2:9845, V-B:PRO:540:N:9853, V-B:TYR:539:CZ:9846, V-B:PRO:540:CA:9852, H-B:TYR:539:N:9839, V-B:TYR:539:CD1:9842, V-B:ILE:538:CA:9829, V-B:ILE:538:C:9827, V-B:TYR:539:C:9836, V-B:ILE:538:CG2:9832, V-B:TYR:539:CE1:9844, V-B:GLU:543:CD:9877, V-B:ILE:538:CB:9831, V-B:GLU:543:CG:9876, H-B:GLU:543:OE2:9879, V-B:MET:535:CE:9804, V-A:GLU:543:CD:4905, V-A:HIS:456:CE1:4066, V-A:GLU:543:CG:4904, V-B:GLU:543:CB:9875, V-B:PRO:540:CD:9856, V-B:TYR:539:CA:9838, V-B:TYR:539:CG:9841, V-B:TYR:539:CD2:9843, H-B:ASP:366:OD1:8182, H-B:GLU:543:OE1:9878, V-A:LYS:547:CE:4947, V-A:GLU:543:C:4899, H-A:LYS:547:NZ:4948, V-A:GLY:544:C:4909, V-B:LYS:547:CE:9919, V-B:HIS:456:CE1:9038, V-B:GLY:454:CA:9017, V-B:ARG:545:CZ:9895, V-B:ILE:369:CD1:8207, H-A:GLU:543:OE2:4907, V-A:HIS:456:CD2:4064, H-B:GLY:454:N:9018"]

$$$$
8c_Ghoteimi_2023
     RDKit          3D

 34 38  0  0  0  0  0  0  0  0999 V2000
  123.8720  133.5410   62.1740 C   0  0  0  0  0  0  0  0  0  0  0  0
  124.2690  133.4420   63.5370 O   0  0  0  0  0  0  0  0  0  0  0  0
  125.1410  132.4370   63.9130 C   0  0  0  0  0  0  0  0  0  0  0  0
  124.6940  131.1280   63.7420 C   0  0  0  0  0  0  0  0  0  0  0  0
  125.5040  130.0530   64.0960 C   0  0  0  0  0  0  0  0  0  0  0  0
  126.7830  130.2590   64.6310 C   0  0  0  0  0  0  0  0  0  0  0  0
  127.6570  129.1080   65.0170 C   0  0  0  0  0  0  0  0  0  0  0  0
  127.9010  128.7830   66.3540 C   0  0  0  0  0  0  0  0  0  0  0  0
  128.7190  127.6990   66.6880 C   0  0  0  0  0  0  0  0  0  0  0  0
  128.9640  127.3870   68.1150 C   0  0  0  0  0  0  0  0  0  0  0  0
  130.0410  127.9700   68.7880 C   0  0  0  0  0  0  0  0  0  0  0  0
  130.2640  127.6840   70.1310 C   0  0  0  0  0  0  0  0  0  0  0  0
  129.4210  126.8110   70.8200 C   0  0  0  0  0  0  0  0  0  0  0  0
  129.7170  126.5880   72.1510 O   0  0  0  0  0  0  0  0  0  0  0  0
  128.7360  126.8780   73.1390 C   0  0  0  0  0  0  0  0  0  0  0  0
  128.3420  126.2230   70.1410 C   0  0  0  0  0  0  0  0  0  0  0  0
  128.1190  126.5110   68.7970 C   0  0  0  0  0  0  0  0  0  0  0  0
  129.2870  126.9400   65.6300 C   0  0  0  0  0  0  0  0  0  0  0  0
  130.1510  125.7900   65.6100 C   0  0  0  0  0  0  0  0  0  0  0  0
  130.6040  125.1890   66.7580 N   0  0  0  0  0  0  0  0  0  0  0  0
  130.4800  125.3480   64.3180 C   0  0  0  0  0  0  0  0  0  0  0  0
  131.3240  124.2160   63.9280 C   0  0  0  0  0  0  0  0  0  0  0  0
  131.3610  123.1930   64.6140 O   0  0  0  0  0  0  0  0  0  0  0  0
  132.0380  124.3890   62.7880 N   0  0  0  0  0  0  0  0  0  0  0  0
  132.9050  123.4790   62.2010 C   0  0  0  0  0  0  0  0  0  0  0  0
  134.2080  123.5840   62.0530 N   0  0  0  0  0  0  0  0  0  0  0  0
  134.7150  122.5260   61.4520 C   0  0  0  0  0  0  0  0  0  0  0  0
  133.8120  121.5300   61.0950 C   0  0  0  0  0  0  0  0  0  0  0  0
  132.2140  122.0150   61.5780 S   0  0  0  0  0  0  0  0  0  0  0  0
  129.7160  126.3550   63.0870 S   0  0  0  0  0  0  0  0  0  0  0  0
  128.9660  127.3590   64.3070 C   0  0  0  0  0  0  0  0  0  0  0  0
  128.1870  128.3920   63.9880 N   0  0  0  0  0  0  0  0  0  0  0  0
  127.2270  131.5780   64.7970 C   0  0  0  0  0  0  0  0  0  0  0  0
  126.4190  132.6560   64.4450 C   0  0  0  0  0  0  0  0  0  0  0  0
  1  2  1  0
  2  3  1  0
  3  4  2  0
  4  5  1  0
  5  6  2  0
  6  7  1  0
  7  8  2  0
  8  9  1  0
  9 10  1  0
 10 11  2  0
 11 12  1  0
 12 13  2  0
 13 14  1  0
 14 15  1  0
 13 16  1  0
 16 17  2  0
  9 18  2  0
 18 19  1  0
 19 20  1  0
 19 21  2  0
 21 22  1  0
 22 23  2  0
 22 24  1  0
 24 25  1  0
 25 26  2  0
 26 27  1  0
 27 28  2  0
 28 29  1  0
 21 30  1  0
 30 31  1  0
 31 32  2  0
  6 33  1  0
 33 34  2  0
 34  3  1  0
 32  7  1  0
 17 10  1  0
 31 18  1  0
 29 25  1  0
M  END
>  <Binding energies>  (37) 
[-8.67]

>  <Ligand effiencies>  (37) 
[-0.23432432432432432]

>  <Interactions>  (37) 
["V-B:TYR:539:CE2:9845, V-A:TYR:484:CZ:4343, V-A:LEU:475:CD1:4254, V-B:GLU:543:CD:9877, V-A:TYR:484:CE1:4341, V-A:GLY:454:CA:4045, V-A:GLU:543:CD:4905, V-A:HIS:456:CE1:4066, V-A:GLU:543:CG:4904, V-B:GLU:543:CB:9875, H-A:GLY:454:N:4046, H-A:TYR:484:OH:4344, V-A:ILE:369:CB:3232, V-A:GLU:543:CB:4903, V-A:GLU:543:C:4899, H-A:LYS:547:NZ:4948, V-A:ILE:369:CG2:3233, V-B:LYS:547:CE:9919, V-B:HIS:456:CE1:9038, V-A:GLY:453:C:4038, H-A:HIS:456:NE2:4067, V-A:ILE:369:CG1:3234, V-B:GLY:454:CA:9017, V-B:ILE:369:CG2:8205, V-B:ILE:369:CD1:8207, V-B:GLU:543:C:9871, H-A:ASP:366:OD2:3211, V-B:LEU:475:CD2:9227, V-B:TYR:484:CZ:9315, V-B:TYR:484:CE1:9313, V-A:HIS:456:CD2:4064, H-B:GLY:454:N:9018"]

$$$$
8d_Ghoteimi_2023
     RDKit          3D

 30 33  0  0  0  0  0  0  0  0999 V2000
  132.8820  125.1260   64.2680 C   0  0  0  0  0  0  0  0  0  0  0  0
  132.2910  123.8540   64.4960 O   0  0  0  0  0  0  0  0  0  0  0  0
  130.9500  123.6770   64.3730 C   0  0  0  0  0  0  0  0  0  0  0  0
  130.4230  122.6170   64.0280 O   0  0  0  0  0  0  0  0  0  0  0  0
  130.1760  124.8960   64.6950 C   0  0  0  0  0  0  0  0  0  0  0  0
  129.4080  125.8190   63.4020 S   0  0  0  0  0  0  0  0  0  0  0  0
  128.7760  126.9760   64.5510 C   0  0  0  0  0  0  0  0  0  0  0  0
  128.0390  128.0180   64.1660 N   0  0  0  0  0  0  0  0  0  0  0  0
  127.5960  128.8560   65.1410 C   0  0  0  0  0  0  0  0  0  0  0  0
  126.7740  130.0190   64.6820 C   0  0  0  0  0  0  0  0  0  0  0  0
  125.4440  129.8500   64.2710 C   0  0  0  0  0  0  0  0  0  0  0  0
  124.6840  130.9350   63.8450 C   0  0  0  0  0  0  0  0  0  0  0  0
  125.2320  132.2170   63.8170 C   0  0  0  0  0  0  0  0  0  0  0  0
  124.4050  133.2330   63.3800 O   0  0  0  0  0  0  0  0  0  0  0  0
  124.2220  133.4270   61.9810 C   0  0  0  0  0  0  0  0  0  0  0  0
  126.5610  132.3980   64.2270 C   0  0  0  0  0  0  0  0  0  0  0  0
  127.3170  131.3100   64.6540 C   0  0  0  0  0  0  0  0  0  0  0  0
  127.8970  128.6560   66.4910 C   0  0  0  0  0  0  0  0  0  0  0  0
  128.6690  127.5610   66.8950 C   0  0  0  0  0  0  0  0  0  0  0  0
  128.9630  127.3710   68.3340 C   0  0  0  0  0  0  0  0  0  0  0  0
  130.0810  127.9810   68.9080 C   0  0  0  0  0  0  0  0  0  0  0  0
  130.3630  127.7950   70.2590 C   0  0  0  0  0  0  0  0  0  0  0  0
  129.5330  127.0040   71.0540 C   0  0  0  0  0  0  0  0  0  0  0  0
  129.8920  126.8750   72.3820 O   0  0  0  0  0  0  0  0  0  0  0  0
  129.8810  125.5850   72.9820 C   0  0  0  0  0  0  0  0  0  0  0  0
  128.4080  126.3950   70.4750 C   0  0  0  0  0  0  0  0  0  0  0  0
  128.1280  126.5810   69.1240 C   0  0  0  0  0  0  0  0  0  0  0  0
  129.1390  126.6710   65.8940 C   0  0  0  0  0  0  0  0  0  0  0  0
  129.9380  125.4780   65.9460 C   0  0  0  0  0  0  0  0  0  0  0  0
  130.4260  124.9660   67.1210 N   0  0  0  0  0  0  0  0  0  0  0  0
  1  2  1  0
  2  3  1  0
  3  4  2  0
  3  5  1  0
  5  6  1  0
  6  7  1  0
  7  8  2  0
  8  9  1  0
  9 10  1  0
 10 11  2  0
 11 12  1  0
 12 13  2  0
 13 14  1  0
 14 15  1  0
 13 16  1  0
 16 17  2  0
  9 18  2  0
 18 19  1  0
 19 20  1  0
 20 21  2  0
 21 22  1  0
 22 23  2  0
 23 24  1  0
 24 25  1  0
 23 26  1  0
 26 27  2  0
 19 28  2  0
 28 29  1  0
 29 30  1  0
 29  5  2  0
 28  7  1  0
 17 10  1  0
 27 20  1  0
M  END
>  <Binding energies>  (38) 
[-7.53]

>  <Ligand effiencies>  (38) 
[-0.2353125]

>  <Interactions>  (38) 
["V-A:TYR:484:CZ:4343, V-B:GLU:543:CD:9877, V-A:TYR:484:CE1:4341, V-B:GLU:543:CG:9876, V-A:ARG:545:CZ:4923, V-A:GLU:543:CD:4905, V-A:HIS:456:CE1:4066, V-A:GLU:543:CG:4904, V-B:GLU:543:CB:9875, H-A:TYR:484:OH:4344, V-A:GLU:543:CB:4903, V-A:GLU:543:C:4899, H-A:LYS:547:NZ:4948, V-B:LYS:547:CE:9919, V-B:HIS:456:CE1:9038, H-A:HIS:456:NE2:4067, V-B:GLY:454:CA:9017, V-B:ILE:369:CD1:8207, V-B:LEU:475:CD2:9227, V-B:TYR:484:CE1:9313, V-A:HIS:456:CD2:4064, H-B:GLY:454:N:9018, H-B:GLU:543:O:9872"]

$$$$
9a_Ghoteimi_2023
     RDKit          3D

 48 54  0  0  0  0  0  0  0  0999 V2000
  131.9530  132.4680   56.6240 C   0  0  0  0  0  0  0  0  0  0  0  0
  130.9140  132.2740   55.5150 C   0  0  0  0  0  0  0  0  0  0  0  0
  129.7270  132.9830   55.8500 O   0  0  0  0  0  0  0  0  0  0  0  0
  128.5770  132.3240   56.1450 C   0  0  0  0  0  0  0  0  0  0  0  0
  127.6460  132.1870   55.3440 O   0  0  0  0  0  0  0  0  0  0  0  0
  128.5450  131.7830   57.5450 C   0  0  0  0  0  0  0  0  0  0  0  0
  129.1070  130.5270   57.8070 C   0  0  0  0  0  0  0  0  0  0  0  0
  129.0910  129.9970   59.0940 C   0  0  0  0  0  0  0  0  0  0  0  0
  128.5160  130.7110   60.1460 C   0  0  0  0  0  0  0  0  0  0  0  0
  128.5560  130.0780   61.4030 N   0  0  0  0  0  0  0  0  0  0  0  0
  127.5650  129.8330   62.2960 C   0  0  0  0  0  0  0  0  0  0  0  0
  126.3880  130.1520   62.1280 O   0  0  0  0  0  0  0  0  0  0  0  0
  127.9810  129.1370   63.5170 C   0  0  0  0  0  0  0  0  0  0  0  0
  127.5030  129.7510   65.1000 S   0  0  0  0  0  0  0  0  0  0  0  0
  128.3300  128.4410   65.9090 C   0  0  0  0  0  0  0  0  0  0  0  0
  128.3210  128.3220   67.2360 N   0  0  0  0  0  0  0  0  0  0  0  0
  128.9850  127.2610   67.7660 C   0  0  0  0  0  0  0  0  0  0  0  0
  128.9520  127.1420   69.2550 C   0  0  0  0  0  0  0  0  0  0  0  0
  127.8850  126.5000   69.8940 C   0  0  0  0  0  0  0  0  0  0  0  0
  127.8470  126.3840   71.2810 C   0  0  0  0  0  0  0  0  0  0  0  0
  128.8820  126.8940   72.0810 C   0  0  0  0  0  0  0  0  0  0  0  0
  128.8480  126.8020   73.4760 N   0  0  0  0  0  0  0  0  0  0  0  0
  129.9200  126.1220   74.2310 C   0  0  0  0  0  0  0  0  0  0  0  0
  129.5450  125.8010   75.6930 C   0  0  0  0  0  0  0  0  0  0  0  0
  129.1240  126.9810   76.3570 O   0  0  0  0  0  0  0  0  0  0  0  0
  127.9860  127.5520   75.7310 C   0  0  0  0  0  0  0  0  0  0  0  0
  128.3210  127.9290   74.2730 C   0  0  0  0  0  0  0  0  0  0  0  0
  129.9410  127.5500   71.4360 C   0  0  0  0  0  0  0  0  0  0  0  0
  129.9770  127.6680   70.0500 C   0  0  0  0  0  0  0  0  0  0  0  0
  129.6750  126.3420   66.9720 C   0  0  0  0  0  0  0  0  0  0  0  0
  129.7040  126.4740   65.5790 C   0  0  0  0  0  0  0  0  0  0  0  0
  130.4840  125.4900   64.7850 C   0  0  0  0  0  0  0  0  0  0  0  0
  129.8730  124.3390   64.2810 C   0  0  0  0  0  0  0  0  0  0  0  0
  130.6020  123.4250   63.5260 C   0  0  0  0  0  0  0  0  0  0  0  0
  131.9580  123.6470   63.2380 C   0  0  0  0  0  0  0  0  0  0  0  0
  132.7130  122.7390   62.4920 N   0  0  0  0  0  0  0  0  0  0  0  0
  133.9930  123.1790   61.9040 C   0  0  0  0  0  0  0  0  0  0  0  0
  134.8890  122.0090   61.4450 C   0  0  0  0  0  0  0  0  0  0  0  0
  134.1770  121.1770   60.5420 O   0  0  0  0  0  0  0  0  0  0  0  0
  133.0140  120.6280   61.1410 C   0  0  0  0  0  0  0  0  0  0  0  0
  132.0680  121.7610   61.5930 C   0  0  0  0  0  0  0  0  0  0  0  0
  132.5600  124.8070   63.7470 C   0  0  0  0  0  0  0  0  0  0  0  0
  131.8320  125.7190   64.5060 C   0  0  0  0  0  0  0  0  0  0  0  0
  128.9850  127.5590   65.0010 C   0  0  0  0  0  0  0  0  0  0  0  0
  128.7480  127.9680   63.6380 C   0  0  0  0  0  0  0  0  0  0  0  0
  129.2230  127.2610   62.5630 N   0  0  0  0  0  0  0  0  0  0  0  0
  127.9530  131.9720   59.8940 C   0  0  0  0  0  0  0  0  0  0  0  0
  127.9690  132.5000   58.6050 C   0  0  0  0  0  0  0  0  0  0  0  0
  1  2  1  0
  2  3  1  0
  3  4  1  0
  4  5  2  0
  4  6  1  0
  6  7  2  0
  7  8  1  0
  8  9  2  0
  9 10  1  0
 10 11  1  0
 11 12  2  0
 11 13  1  0
 13 14  1  0
 14 15  1  0
 15 16  2  0
 16 17  1  0
 17 18  1  0
 18 19  2  0
 19 20  1  0
 20 21  2  0
 21 22  1  0
 22 23  1  0
 23 24  1  0
 24 25  1  0
 25 26  1  0
 26 27  1  0
 21 28  1  0
 28 29  2  0
 17 30  2  0
 30 31  1  0
 31 32  1  0
 32 33  2  0
 33 34  1  0
 34 35  2  0
 35 36  1  0
 36 37  1  0
 37 38  1  0
 38 39  1  0
 39 40  1  0
 40 41  1  0
 35 42  1  0
 42 43  2  0
 31 44  2  0
 44 45  1  0
 45 46  1  0
  9 47  1  0
 47 48  2  0
 48  6  1  0
 45 13  2  0
 44 15  1  0
 29 18  1  0
 43 32  1  0
 27 22  1  0
 41 36  1  0
M  END
>  <Binding energies>  (39) 
[-10.73]

>  <Ligand effiencies>  (39) 
[-0.2103921568627451]

>  <Interactions>  (39) 
["V-B:TYR:539:CE2:9845, V-A:LEU:475:CD1:4254, V-B:GLU:543:CD:9877, V-B:GLU:543:CG:9876, H-B:GLU:543:OE2:9879, V-A:ARG:545:CZ:4923, V-A:GLY:454:CA:4045, V-A:GLU:543:CD:4905, V-A:HIS:456:CE1:4066, V-A:GLU:543:CG:4904, H-A:TYR:539:OH:4875, V-A:PRO:540:CB:4882, V-A:TYR:539:C:4864, V-A:PRO:540:CA:4880, H-A:TYR:539:N:4867, V-A:LEU:363:CD1:3185, V-A:PRO:540:N:4881, V-A:ILE:538:CG2:4860, V-A:ILE:538:CD1:4862, V-A:TYR:539:CZ:4874, V-B:TYR:539:CD2:9843, V-A:TYR:539:CD2:4871, V-A:TYR:539:CE2:4873, V-A:TYR:539:CG:4869, V-A:LYS:547:CE:4947, V-B:HIS:456:CD2:9036, H-A:GLU:543:OE1:4906, V-A:ILE:369:CB:3232, V-A:GLU:543:CB:4903, V-A:ILE:369:CG2:3233, V-B:LYS:547:CE:9919, V-B:HIS:456:CE1:9038, V-A:GLY:453:C:4038, V-B:GLY:544:C:9881, V-A:ILE:369:CG1:3234, V-B:LYS:547:CD:9918, H-A:GLU:543:OE2:4907, V-A:PRO:540:CD:4884, V-A:HIS:456:CD2:4064, V-A:ILE:369:CD1:3235, V-A:PRO:540:CG:4883"]

$$$$
9b_Ghoteimi_2023
     RDKit          3D

 42 48  0  0  0  0  0  0  0  0999 V2000
  129.4270  127.6020   62.8230 N   0  0  0  0  0  0  0  0  0  0  0  0
  130.0280  127.0220   63.9120 C   0  0  0  0  0  0  0  0  0  0  0  0
  131.1100  126.1330   63.8160 C   0  0  0  0  0  0  0  0  0  0  0  0
  131.8130  125.6760   62.6150 C   0  0  0  0  0  0  0  0  0  0  0  0
  131.6100  126.2130   61.5240 O   0  0  0  0  0  0  0  0  0  0  0  0
  132.6710  124.6420   62.8000 N   0  0  0  0  0  0  0  0  0  0  0  0
  133.4520  124.0070   61.8420 C   0  0  0  0  0  0  0  0  0  0  0  0
  132.9200  123.4120   60.6990 C   0  0  0  0  0  0  0  0  0  0  0  0
  134.0050  122.9070   60.0210 C   0  0  0  0  0  0  0  0  0  0  0  0
  135.1320  123.1840   60.7200 O   0  0  0  0  0  0  0  0  0  0  0  0
  134.7680  123.8810   61.8730 N   0  0  0  0  0  0  0  0  0  0  0  0
  131.6050  125.5580   65.4070 S   0  0  0  0  0  0  0  0  0  0  0  0
  130.3520  126.4940   66.1860 C   0  0  0  0  0  0  0  0  0  0  0  0
  130.1730  126.4610   67.5050 N   0  0  0  0  0  0  0  0  0  0  0  0
  129.1590  127.2120   68.0100 C   0  0  0  0  0  0  0  0  0  0  0  0
  128.9670  127.1400   69.4900 C   0  0  0  0  0  0  0  0  0  0  0  0
  127.8500  126.5050   70.0450 C   0  0  0  0  0  0  0  0  0  0  0  0
  127.6690  126.4540   71.4240 C   0  0  0  0  0  0  0  0  0  0  0  0
  128.5920  127.0490   72.2990 C   0  0  0  0  0  0  0  0  0  0  0  0
  128.4250  127.0030   73.6870 N   0  0  0  0  0  0  0  0  0  0  0  0
  127.6770  128.0530   74.4070 C   0  0  0  0  0  0  0  0  0  0  0  0
  127.2990  127.6700   75.8530 C   0  0  0  0  0  0  0  0  0  0  0  0
  128.4600  127.2890   76.5730 O   0  0  0  0  0  0  0  0  0  0  0  0
  129.0940  126.1670   75.9820 C   0  0  0  0  0  0  0  0  0  0  0  0
  129.5250  126.5000   74.5370 C   0  0  0  0  0  0  0  0  0  0  0  0
  129.7190  127.6650   71.7380 C   0  0  0  0  0  0  0  0  0  0  0  0
  129.9020  127.7130   70.3590 C   0  0  0  0  0  0  0  0  0  0  0  0
  128.3480  128.0110   67.2000 C   0  0  0  0  0  0  0  0  0  0  0  0
  128.5460  128.0650   65.8160 C   0  0  0  0  0  0  0  0  0  0  0  0
  127.6760  128.9530   65.0030 C   0  0  0  0  0  0  0  0  0  0  0  0
  126.8650  128.4200   64.0010 C   0  0  0  0  0  0  0  0  0  0  0  0
  126.0340  129.2460   63.2510 C   0  0  0  0  0  0  0  0  0  0  0  0
  125.9930  130.6300   63.4820 C   0  0  0  0  0  0  0  0  0  0  0  0
  125.1550  131.4770   62.7510 N   0  0  0  0  0  0  0  0  0  0  0  0
  124.9580  132.8670   63.2060 C   0  0  0  0  0  0  0  0  0  0  0  0
  123.7310  133.5490   62.5630 C   0  0  0  0  0  0  0  0  0  0  0  0
  123.8310  133.4930   61.1480 O   0  0  0  0  0  0  0  0  0  0  0  0
  123.8870  132.1550   60.6770 C   0  0  0  0  0  0  0  0  0  0  0  0
  125.1140  131.4350   61.2760 C   0  0  0  0  0  0  0  0  0  0  0  0
  126.7990  131.1520   64.5040 C   0  0  0  0  0  0  0  0  0  0  0  0
  127.6300  130.3250   65.2550 C   0  0  0  0  0  0  0  0  0  0  0  0
  129.5800  127.2590   65.2620 C   0  0  0  0  0  0  0  0  0  0  0  0
  1  2  1  0
  2  3  2  0
  3  4  1  0
  4  5  2  0
  4  6  1  0
  6  7  1  0
  7  8  1  0
  8  9  2  0
  9 10  1  0
 10 11  1  0
  3 12  1  0
 12 13  1  0
 13 14  2  0
 14 15  1  0
 15 16  1  0
 16 17  2  0
 17 18  1  0
 18 19  2  0
 19 20  1  0
 20 21  1  0
 21 22  1  0
 22 23  1  0
 23 24  1  0
 24 25  1  0
 19 26  1  0
 26 27  2  0
 15 28  2  0
 28 29  1  0
 29 30  1  0
 30 31  2  0
 31 32  1  0
 32 33  2  0
 33 34  1  0
 34 35  1  0
 35 36  1  0
 36 37  1  0
 37 38  1  0
 38 39  1  0
 33 40  1  0
 40 41  2  0
 29 42  2  0
 42  2  1  0
 11  7  2  0
 42 13  1  0
 27 16  1  0
 41 30  1  0
 25 20  1  0
 39 34  1  0
M  END
>  <Binding energies>  (40) 
[-9.62]

>  <Ligand effiencies>  (40) 
[-0.21377777777777776]

>  <Interactions>  (40) 
["V-B:TYR:539:CE2:9845, V-B:TYR:539:CZ:9846, V-B:GLU:543:CD:9877, H-B:GLU:543:OE2:9879, V-A:ARG:545:CZ:4923, V-A:GLU:543:CD:4905, V-A:HIS:456:CE1:4066, H-A:ARG:545:NH2:4925, V-A:ASP:366:CG:3209, V-A:GLU:543:CG:4904, H-A:GLY:454:N:4046, H-A:TYR:484:OH:4344, V-B:ASP:366:CG:8181, V-A:LYS:547:CE:4947, V-B:HIS:456:CD2:9036, H-A:GLU:543:OE1:4906, V-A:ILE:369:CB:3232, V-A:ILE:369:CG2:3233, V-B:LYS:547:CE:9919, V-B:HIS:456:CE1:9038, V-B:GLY:544:C:9881, V-A:ILE:369:CG1:3234, V-B:LYS:547:CD:9918, V-B:GLY:454:CA:9017, V-B:ILE:369:CG2:8205, V-B:ILE:369:CD1:8207, H-A:GLU:543:OE2:4907, V-B:ILE:369:CB:8204, V-B:LEU:475:CD2:9227"]

$$$$
9c_Ghoteimi_2023
     RDKit          3D

 42 48  0  0  0  0  0  0  0  0999 V2000
  129.1980  127.8300   62.8600 N   0  0  0  0  0  0  0  0  0  0  0  0
  128.6240  128.2820   64.0210 C   0  0  0  0  0  0  0  0  0  0  0  0
  127.6660  129.3080   64.0620 C   0  0  0  0  0  0  0  0  0  0  0  0
  127.0860  130.0610   62.9460 C   0  0  0  0  0  0  0  0  0  0  0  0
  125.9590  129.7960   62.5230 O   0  0  0  0  0  0  0  0  0  0  0  0
  127.8740  131.0370   62.4320 N   0  0  0  0  0  0  0  0  0  0  0  0
  127.5730  131.8800   61.3710 C   0  0  0  0  0  0  0  0  0  0  0  0
  128.1450  131.9250   60.1870 N   0  0  0  0  0  0  0  0  0  0  0  0
  127.6070  132.8570   59.4240 C   0  0  0  0  0  0  0  0  0  0  0  0
  126.5720  133.5960   59.9920 C   0  0  0  0  0  0  0  0  0  0  0  0
  126.2960  133.0300   61.6120 S   0  0  0  0  0  0  0  0  0  0  0  0
  127.1700  129.6510   65.7180 S   0  0  0  0  0  0  0  0  0  0  0  0
  128.2580  128.4370   66.3450 C   0  0  0  0  0  0  0  0  0  0  0  0
  128.3750  128.2110   67.6530 N   0  0  0  0  0  0  0  0  0  0  0  0
  129.2620  127.2570   68.0370 C   0  0  0  0  0  0  0  0  0  0  0  0
  129.3890  127.0400   69.5100 C   0  0  0  0  0  0  0  0  0  0  0  0
  128.5670  126.1270   70.1810 C   0  0  0  0  0  0  0  0  0  0  0  0
  128.6820  125.9350   71.5540 C   0  0  0  0  0  0  0  0  0  0  0  0
  129.6180  126.6600   72.3110 C   0  0  0  0  0  0  0  0  0  0  0  0
  129.7510  126.4730   73.6910 N   0  0  0  0  0  0  0  0  0  0  0  0
  130.2740  125.2100   74.2500 C   0  0  0  0  0  0  0  0  0  0  0  0
  130.6790  125.3050   75.7360 C   0  0  0  0  0  0  0  0  0  0  0  0
  129.5880  125.7850   76.5040 O   0  0  0  0  0  0  0  0  0  0  0  0
  129.1860  127.0780   76.0840 C   0  0  0  0  0  0  0  0  0  0  0  0
  128.7390  127.0410   74.6060 C   0  0  0  0  0  0  0  0  0  0  0  0
  130.4510  127.5590   71.6300 C   0  0  0  0  0  0  0  0  0  0  0  0
  130.3370  127.7470   70.2560 C   0  0  0  0  0  0  0  0  0  0  0  0
  130.0060  126.5150   67.1160 C   0  0  0  0  0  0  0  0  0  0  0  0
  129.8700  126.7330   65.7410 C   0  0  0  0  0  0  0  0  0  0  0  0
  130.6590  125.8970   64.8020 C   0  0  0  0  0  0  0  0  0  0  0  0
  132.0530  125.9600   64.8030 C   0  0  0  0  0  0  0  0  0  0  0  0
  132.7970  125.1650   63.9350 C   0  0  0  0  0  0  0  0  0  0  0  0
  132.1660  124.2860   63.0420 C   0  0  0  0  0  0  0  0  0  0  0  0
  132.8930  123.4700   62.1700 N   0  0  0  0  0  0  0  0  0  0  0  0
  134.2230  123.9150   61.7090 C   0  0  0  0  0  0  0  0  0  0  0  0
  134.7320  123.1370   60.4760 C   0  0  0  0  0  0  0  0  0  0  0  0
  134.7340  121.7430   60.7490 O   0  0  0  0  0  0  0  0  0  0  0  0
  133.4350  121.2680   61.0630 C   0  0  0  0  0  0  0  0  0  0  0  0
  132.8890  122.0010   62.3070 C   0  0  0  0  0  0  0  0  0  0  0  0
  130.7650  124.2160   63.0640 C   0  0  0  0  0  0  0  0  0  0  0  0
  130.0210  125.0110   63.9310 C   0  0  0  0  0  0  0  0  0  0  0  0
  128.9720  127.7530   65.3160 C   0  0  0  0  0  0  0  0  0  0  0  0
  1  2  1  0
  2  3  2  0
  3  4  1  0
  4  5  2  0
  4  6  1  0
  6  7  1  0
  7  8  2  0
  8  9  1  0
  9 10  2  0
 10 11  1  0
  3 12  1  0
 12 13  1  0
 13 14  2  0
 14 15  1  0
 15 16  1  0
 16 17  2  0
 17 18  1  0
 18 19  2  0
 19 20  1  0
 20 21  1  0
 21 22  1  0
 22 23  1  0
 23 24  1  0
 24 25  1  0
 19 26  1  0
 26 27  2  0
 15 28  2  0
 28 29  1  0
 29 30  1  0
 30 31  2  0
 31 32  1  0
 32 33  2  0
 33 34  1  0
 34 35  1  0
 35 36  1  0
 36 37  1  0
 37 38  1  0
 38 39  1  0
 33 40  1  0
 40 41  2  0
 29 42  2  0
 42  2  1  0
 11  7  1  0
 42 13  1  0
 27 16  1  0
 41 30  1  0
 25 20  1  0
 39 34  1  0
M  END
>  <Binding energies>  (41) 
[-9.58]

>  <Ligand effiencies>  (41) 
[-0.21288888888888888]

>  <Interactions>  (41) 
["V-B:TYR:539:CE2:9845, V-A:LEU:475:CD1:4254, V-B:GLU:543:CD:9877, V-B:GLU:543:CG:9876, H-B:GLU:543:OE2:9879, V-A:ARG:545:CZ:4923, V-A:GLY:454:CA:4045, V-A:GLU:543:CD:4905, V-A:HIS:456:CE1:4066, V-A:ASP:366:CG:3209, V-A:TYR:539:CD2:4871, V-A:TYR:539:CE2:4873, V-A:LYS:547:CE:4947, H-A:GLU:543:OE1:4906, V-A:ILE:369:CB:3232, V-A:GLU:543:CB:4903, V-A:ILE:369:CG2:3233, V-B:LYS:547:CE:9919, V-B:HIS:456:CE1:9038, V-A:GLY:453:C:4038, V-A:GLY:453:CA:4040, V-A:ILE:369:CG1:3234, V-B:LYS:547:CD:9918, H-A:GLU:543:OE2:4907, V-A:ASP:366:CA:3206, V-A:HIS:456:CD2:4064"]

$$$$
RR11_Rahimova_2017
     RDKit          3D

 33 38  0  0  0  0  0  0  0  0999 V2000
  134.3450  121.7420   60.8490 N   0  0  0  0  0  0  0  0  0  0  0  0
  133.5610  122.5400   61.6810 C   0  0  0  0  0  0  0  0  0  0  0  0
  132.4120  122.0120   62.2670 C   0  0  0  0  0  0  0  0  0  0  0  0
  131.6320  122.8080   63.1000 C   0  0  0  0  0  0  0  0  0  0  0  0
  131.9920  124.1380   63.3560 C   0  0  0  0  0  0  0  0  0  0  0  0
  131.1540  124.9930   64.2590 C   0  0  0  0  0  0  0  0  0  0  0  0
  130.8260  126.2410   64.0070 N   0  0  0  0  0  0  0  0  0  0  0  0
  130.0550  126.6350   65.0690 C   0  0  0  0  0  0  0  0  0  0  0  0
  129.4370  127.8700   65.3060 C   0  0  0  0  0  0  0  0  0  0  0  0
  128.6760  128.0220   66.4710 C   0  0  0  0  0  0  0  0  0  0  0  0
  127.9980  129.3550   66.7580 C   0  0  0  0  0  0  0  0  0  0  0  0
  127.5870  130.0960   65.4930 C   0  0  0  0  0  0  0  0  0  0  0  0
  127.6910  131.4910   65.4480 C   0  0  0  0  0  0  0  0  0  0  0  0
  127.3350  132.2140   64.3080 C   0  0  0  0  0  0  0  0  0  0  0  0
  126.8710  131.5040   63.1930 C   0  0  0  0  0  0  0  0  0  0  0  0
  126.4570  131.9750   61.9740 N   0  0  0  0  0  0  0  0  0  0  0  0
  126.1180  130.9060   61.2860 C   0  0  0  0  0  0  0  0  0  0  0  0
  125.5840  130.9340   59.8830 C   0  0  0  0  0  0  0  0  0  0  0  0
  124.2230  131.1640   59.6450 C   0  0  0  0  0  0  0  0  0  0  0  0
  123.7250  131.1800   58.3440 C   0  0  0  0  0  0  0  0  0  0  0  0
  124.5870  130.9650   57.2710 C   0  0  0  0  0  0  0  0  0  0  0  0
  124.0890  130.9750   55.9680 N   0  0  0  0  0  0  0  0  0  0  0  0
  125.9430  130.7380   57.4920 C   0  0  0  0  0  0  0  0  0  0  0  0
  126.4390  130.7230   58.7930 C   0  0  0  0  0  0  0  0  0  0  0  0
  126.3010  129.7470   62.0090 N   0  0  0  0  0  0  0  0  0  0  0  0
  126.7840  130.0930   63.2490 C   0  0  0  0  0  0  0  0  0  0  0  0
  127.1430  129.3630   64.3850 C   0  0  0  0  0  0  0  0  0  0  0  0
  128.5600  126.9720   67.3880 C   0  0  0  0  0  0  0  0  0  0  0  0
  129.1670  125.7300   67.1840 C   0  0  0  0  0  0  0  0  0  0  0  0
  129.9090  125.5870   66.0090 C   0  0  0  0  0  0  0  0  0  0  0  0
  130.6290  124.5540   65.4570 N   0  0  0  0  0  0  0  0  0  0  0  0
  133.1500  124.6560   62.7600 C   0  0  0  0  0  0  0  0  0  0  0  0
  133.9320  123.8610   61.9260 C   0  0  0  0  0  0  0  0  0  0  0  0
  1  2  1  0
  2  3  2  0
  3  4  1  0
  4  5  2  0
  5  6  1  0
  6  7  2  0
  7  8  1  0
  8  9  2  0
  9 10  1  0
 10 11  1  0
 11 12  1  0
 12 13  2  0
 13 14  1  0
 14 15  2  0
 15 16  1  0
 16 17  2  0
 17 18  1  0
 18 19  2  0
 19 20  1  0
 20 21  2  0
 21 22  1  0
 21 23  1  0
 23 24  2  0
 17 25  1  0
 25 26  1  0
 26 27  2  0
 10 28  2  0
 28 29  1  0
 29 30  2  0
 30 31  1  0
  5 32  1  0
 32 33  2  0
 33  2  1  0
 31  6  1  0
 30  8  1  0
 27 12  1  0
 26 15  1  0
 24 18  1  0
M  END
>  <Binding energies>  (42) 
[-8.18]

>  <Ligand effiencies>  (42) 
[-0.20974358974358973]

>  <Interactions>  (42) 
["V-B:TYR:539:CE2:9845, V-A:TYR:484:CZ:4343, V-A:LEU:475:CD1:4254, V-A:TYR:484:CE1:4341, V-B:GLU:543:CG:9876, V-A:ARG:545:CZ:4923, V-A:GLY:454:CA:4045, V-A:GLU:543:CD:4905, V-A:HIS:456:CE1:4066, H-A:ARG:545:NH2:4925, V-A:ASP:366:CG:3209, V-A:GLU:543:CG:4904, V-B:GLU:543:CB:9875, H-A:TYR:484:OH:4344, H-B:TYR:531:OH:9764, H-A:TYR:539:OH:4875, V-A:TYR:539:CZ:4874, V-B:ASP:366:CB:8180, V-B:TYR:531:CZ:9763, V-A:TYR:539:CE2:4873, V-B:TYR:531:CE1:9761, H-B:ASP:366:OD1:8182, V-B:ASP:366:CG:8181, V-A:ILE:369:CB:3232, V-A:GLU:543:CB:4903, V-A:ILE:369:CG2:3233, V-B:HIS:456:CE1:9038, V-A:ILE:369:CG1:3234, V-B:ILE:369:CG2:8205, V-A:ALA:541:CB:4889, V-B:ASP:366:CA:8178, V-B:ILE:369:CB:8204, V-B:TYR:484:CZ:9315, V-B:TYR:484:CE1:9313, V-A:ILE:369:CD1:3235, V-B:ASP:366:C:8176, H-A:SER:385:O:3402, H-B:ASP:366:O:8177, V-B:ASN:370:CB:8213"]

$$$$
RR16_Rahimova_2017
     RDKit          3D

 44 49  0  0  0  0  0  0  0  0999 V2000
  130.3540  120.9950   63.3000 O   0  0  0  0  0  0  0  0  0  0  0  0
  130.5590  122.3850   62.8760 S   0  0  0  0  0  0  0  0  0  0  0  0
  131.9020  122.9760   62.8600 O   0  0  0  0  0  0  0  0  0  0  0  0
  129.5230  123.4040   63.8770 N   0  0  0  0  0  0  0  0  0  0  0  0
  130.0150  124.6960   64.4120 C   0  0  0  0  0  0  0  0  0  0  0  0
  129.5120  125.8480   63.5040 C   0  0  0  0  0  0  0  0  0  0  0  0
  129.8130  127.2890   63.9580 C   0  0  0  0  0  0  0  0  0  0  0  0
  129.1440  127.6780   65.2870 C   0  0  0  0  0  0  0  0  0  0  0  0
  129.9210  127.3120   66.5670 C   0  0  0  0  0  0  0  0  0  0  0  0
  130.3890  125.8500   66.7130 C   0  0  0  0  0  0  0  0  0  0  0  0
  129.6130  124.7930   65.9030 C   0  0  0  0  0  0  0  0  0  0  0  0
  129.8730  122.5320   61.2310 C   0  0  0  0  0  0  0  0  0  0  0  0
  130.1310  123.6660   60.4580 C   0  0  0  0  0  0  0  0  0  0  0  0
  129.4930  123.8230   59.2310 C   0  0  0  0  0  0  0  0  0  0  0  0
  128.6010  122.8460   58.7820 C   0  0  0  0  0  0  0  0  0  0  0  0
  127.6730  123.1120   57.2730 S   0  0  0  0  0  0  0  0  0  0  0  0
  126.2510  122.9340   57.5950 O   0  0  0  0  0  0  0  0  0  0  0  0
  128.3020  122.3030   56.2220 O   0  0  0  0  0  0  0  0  0  0  0  0
  127.9470  124.8230   56.8910 N   0  0  0  0  0  0  0  0  0  0  0  0
  127.2060  125.7740   57.7600 C   0  0  0  0  0  0  0  0  0  0  0  0
  127.2540  127.1970   57.1670 C   0  0  0  0  0  0  0  0  0  0  0  0
  128.7060  127.6490   56.8750 C   0  0  0  0  0  0  0  0  0  0  0  0
  128.7720  129.0420   56.2420 C   0  0  0  0  0  0  0  0  0  0  0  0
  127.6920  129.5140   55.4840 C   0  0  0  0  0  0  0  0  0  0  0  0
  127.7060  130.7790   54.8950 C   0  0  0  0  0  0  0  0  0  0  0  0
  126.6380  131.2250   54.1600 O   0  0  0  0  0  0  0  0  0  0  0  0
  128.8400  131.5830   55.0820 C   0  0  0  0  0  0  0  0  0  0  0  0
  129.1240  132.8470   54.6510 N   0  0  0  0  0  0  0  0  0  0  0  0
  130.3680  133.1820   55.1410 N   0  0  0  0  0  0  0  0  0  0  0  0
  130.8560  132.1280   55.8220 N   0  0  0  0  0  0  0  0  0  0  0  0
  132.1280  132.2340   56.5240 C   0  0  0  0  0  0  0  0  0  0  0  0
  132.0470  131.7450   57.9640 C   0  0  0  0  0  0  0  0  0  0  0  0
  133.1580  131.1440   58.5650 C   0  0  0  0  0  0  0  0  0  0  0  0
  133.0930  130.7150   59.8910 C   0  0  0  0  0  0  0  0  0  0  0  0
  131.9180  130.8870   60.6240 C   0  0  0  0  0  0  0  0  0  0  0  0
  130.8080  131.4890   60.0310 C   0  0  0  0  0  0  0  0  0  0  0  0
  129.3560  131.7120   60.9380 Cl  0  0  0  0  0  0  0  0  0  0  0  0
  130.8710  131.9140   58.7020 C   0  0  0  0  0  0  0  0  0  0  0  0
  129.9300  131.0970   55.8420 C   0  0  0  0  0  0  0  0  0  0  0  0
  129.9190  129.8270   56.4290 C   0  0  0  0  0  0  0  0  0  0  0  0
  129.5040  126.5870   56.0740 C   0  0  0  0  0  0  0  0  0  0  0  0
  129.3760  125.1820   56.6960 C   0  0  0  0  0  0  0  0  0  0  0  0
  128.3770  121.6930   59.5370 C   0  0  0  0  0  0  0  0  0  0  0  0
  129.0110  121.5370   60.7650 C   0  0  0  0  0  0  0  0  0  0  0  0
  1  2  2  0
  2  3  2  0
  2  4  1  0
  4  5  1  0
  5  6  1  0
  6  7  1  0
  7  8  1  0
  8  9  1  0
  9 10  1  0
 10 11  1  0
  2 12  1  0
 12 13  2  0
 13 14  1  0
 14 15  2  0
 15 16  1  0
 16 17  2  0
 16 18  2  0
 16 19  1  0
 19 20  1  0
 20 21  1  0
 21 22  1  0
 22 23  1  0
 23 24  2  0
 24 25  1  0
 25 26  1  0
 25 27  2  0
 27 28  1  0
 28 29  2  0
 29 30  1  0
 30 31  1  0
 31 32  1  0
 32 33  2  0
 33 34  1  0
 34 35  2  0
 35 36  1  0
 36 37  1  0
 36 38  2  0
 30 39  1  0
 39 40  2  0
 22 41  1  0
 41 42  1  0
 15 43  1  0
 43 44  2  0
 11  5  1  0
 44 12  1  0
 42 19  1  0
 40 23  1  0
 39 27  1  0
 38 32  1  0
M  END
>  <Binding energies>  (43) 
[-11.15]

>  <Ligand effiencies>  (43) 
[-0.23229166666666667]

>  <Interactions>  (43) 
["V-B:TYR:539:CE2:9845, V-B:PRO:540:N:9853, V-B:TYR:539:CZ:9846, V-A:LEU:475:CD1:4254, V-B:PRO:540:CA:9852, H-B:TYR:539:N:9839, V-B:PRO:540:C:9850, V-B:TYR:539:C:9836, V-B:ALA:541:CB:9861, V-B:GLU:543:CD:9877, V-A:TYR:484:CE1:4341, V-B:GLU:543:CG:9876, H-B:GLU:543:OE2:9879, V-B:MET:535:CE:9804, V-A:GLU:543:CD:4905, V-A:HIS:456:CE1:4066, V-A:ASP:366:CG:3209, V-B:GLU:543:CB:9875, H-A:TYR:539:OH:4875, V-A:PRO:540:CB:4882, V-A:TYR:539:C:4864, V-A:PRO:540:CA:4880, H-A:TYR:539:N:4867, V-A:LEU:363:CD1:3185, V-A:PRO:540:N:4881, H-B:LYS:534:NZ:9792, V-A:ILE:538:CG2:4860, V-A:ILE:538:CD1:4862, V-B:TYR:539:CG:9841, V-B:TYR:539:CD2:9843, V-A:LEU:363:CA:3181, V-A:ASN:362:CB:3172, V-A:GLU:543:CB:4903, V-A:ASN:362:C:3168, V-A:PRO:540:CD:4884"]

$$$$
RR18_Rahimova_2017
     RDKit          3D

 36 41  0  0  0  0  0  0  0  0999 V2000
  133.2660  131.3760   57.6980 C   0  0  0  0  0  0  0  0  0  0  0  0
  132.2980  130.6670   58.6120 C   0  0  0  0  0  0  0  0  0  0  0  0
  131.8000  130.9250   59.8790 C   0  0  0  0  0  0  0  0  0  0  0  0
  130.9280  129.8820   60.1880 C   0  0  0  0  0  0  0  0  0  0  0  0
  130.9230  129.0250   59.1000 C   0  0  0  0  0  0  0  0  0  0  0  0
  130.1960  127.7210   58.7830 C   0  0  1  0  0  0  0  0  0  0  0  0
  130.4760  127.2500   57.3250 C   0  0  0  0  0  0  0  0  0  0  0  0
  130.0150  128.0440   56.1900 C   0  0  0  0  0  0  0  0  0  0  0  0
  129.9590  127.5780   55.0510 O   0  0  0  0  0  0  0  0  0  0  0  0
  129.6490  129.3070   56.5100 N   0  0  0  0  0  0  0  0  0  0  0  0
  129.1790  130.3560   55.6910 C   0  0  0  0  0  0  0  0  0  0  0  0
  128.6450  130.1560   54.4050 C   0  0  0  0  0  0  0  0  0  0  0  0
  128.2040  131.2370   53.6440 C   0  0  0  0  0  0  0  0  0  0  0  0
  128.2950  132.5300   54.1490 C   0  0  0  0  0  0  0  0  0  0  0  0
  128.8320  132.7450   55.4160 C   0  0  0  0  0  0  0  0  0  0  0  0
  129.2780  131.6700   56.1920 C   0  0  0  0  0  0  0  0  0  0  0  0
  129.8630  131.9590   57.5710 C   0  0  0  0  0  0  0  0  0  0  0  0
  131.2450  126.1450   57.1380 C   0  0  0  0  0  0  0  0  0  0  0  0
  131.6980  125.3360   58.1360 N   0  0  0  0  0  0  0  0  0  0  0  0
  131.3300  125.5580   59.3440 C   0  0  0  0  0  0  0  0  0  0  0  0
  131.7060  124.5240   60.7020 S   0  0  0  0  0  0  0  0  0  0  0  0
  130.7930  125.5780   61.8260 C   0  0  0  0  0  0  0  0  0  0  0  0
  130.6180  125.3980   63.1810 C   0  0  0  0  0  0  0  0  0  0  0  0
  131.1430  124.1940   63.8430 C   0  0  0  0  0  0  0  0  0  0  0  0
  131.7820  123.2510   63.3790 O   0  0  0  0  0  0  0  0  0  0  0  0
  130.7840  124.2590   65.1290 N   0  0  0  0  0  0  0  0  0  0  0  0
  130.0980  125.3950   65.4330 C   0  0  0  0  0  0  0  0  0  0  0  0
  129.5930  125.7820   66.6740 C   0  0  0  0  0  0  0  0  0  0  0  0
  128.9420  127.0080   66.7820 C   0  0  0  0  0  0  0  0  0  0  0  0
  128.8160  127.8230   65.6580 C   0  0  0  0  0  0  0  0  0  0  0  0
  129.3300  127.4120   64.4260 C   0  0  0  0  0  0  0  0  0  0  0  0
  129.9700  126.1660   64.2910 C   0  0  0  0  0  0  0  0  0  0  0  0
  130.2330  126.6860   61.0510 C   0  0  0  0  0  0  0  0  0  0  0  0
  129.5050  127.5790   61.4750 O   0  0  0  0  0  0  0  0  0  0  0  0
  130.5910  126.6260   59.7390 N   0  0  0  0  0  0  0  0  0  0  0  0
  131.7610  129.5090   58.1450 O   0  0  0  0  0  0  0  0  0  0  0  0
  1  2  1  0
  2  3  2  0
  3  4  1  0
  4  5  2  0
  6  5  1  1
  6  7  1  0
  7  8  1  0
  8  9  2  0
  8 10  1  0
 10 11  1  0
 11 12  2  0
 12 13  1  0
 13 14  2  0
 14 15  1  0
 15 16  2  0
 16 17  1  0
  7 18  2  0
 18 19  1  0
 19 20  2  0
 20 21  1  0
 21 22  1  0
 22 23  2  0
 23 24  1  0
 24 25  2  0
 24 26  1  0
 26 27  1  0
 27 28  2  0
 28 29  1  0
 29 30  2  0
 30 31  1  0
 31 32  2  0
 22 33  1  0
 33 34  2  0
 33 35  1  0
  5 36  1  0
 36  2  1  0
 35  6  1  0
 16 11  1  0
 35 20  1  0
 32 23  1  0
 32 27  1  0
M  END
>  <Binding energies>  (44) 
[-9.35]

>  <Ligand effiencies>  (44) 
[-0.24605263157894736]

>  <Interactions>  (44) 
["V-A:TYR:484:CZ:4343, V-B:GLU:543:CD:9877, V-A:TYR:484:CE1:4341, V-B:GLU:543:CG:9876, V-B:MET:535:CE:9804, V-A:GLU:543:CD:4905, V-A:ASP:366:CB:3208, V-A:HIS:456:CE1:4066, H-B:TYR:539:OH:9847, V-A:ASP:366:CG:3209, V-B:GLU:543:CB:9875, H-A:TYR:484:OH:4344, H-A:TYR:531:OH:4792, V-A:PRO:540:CB:4882, V-A:TYR:539:CE1:4872, V-A:TYR:539:C:4864, V-A:PRO:540:CA:4880, V-A:LEU:363:CD1:3185, V-A:PRO:540:N:4881, V-A:TYR:539:CD1:4870, V-A:ILE:538:CA:4857, V-A:ILE:538:CD1:4862, V-A:TYR:539:CZ:4874, V-A:LEU:363:CA:3181, V-A:TYR:539:CD2:4871, V-A:LEU:363:CB:3183, V-A:TYR:539:CE2:4873, V-A:TYR:539:CG:4869"]

$$$$
RR20_Rahimova_2017
     RDKit          3D

 38 43  0  0  0  0  0  0  0  0999 V2000
  132.8310  131.3300   57.1520 C   0  0  0  0  0  0  0  0  0  0  0  0
  131.4050  131.3250   56.6330 C   0  0  0  0  0  0  0  0  0  0  0  0
  130.8570  132.4890   56.0940 C   0  0  0  0  0  0  0  0  0  0  0  0
  129.5520  132.4840   55.6090 C   0  0  0  0  0  0  0  0  0  0  0  0
  128.7790  131.3190   55.6720 C   0  0  0  0  0  0  0  0  0  0  0  0
  127.3700  131.3300   55.1210 C   0  0  0  0  0  0  0  0  0  0  0  0
  127.2360  131.4320   53.8990 O   0  0  0  0  0  0  0  0  0  0  0  0
  126.3150  131.2130   55.9790 N   0  0  0  0  0  0  0  0  0  0  0  0
  125.0210  130.6650   55.5420 C   0  0  0  0  0  0  0  0  0  0  0  0
  124.1610  130.5500   56.7890 C   0  0  0  0  0  0  0  0  0  0  0  0
  125.1600  130.6880   57.8970 C   0  0  0  0  0  0  0  0  0  0  0  0
  124.9660  130.5780   59.2740 C   0  0  0  0  0  0  0  0  0  0  0  0
  125.9940  130.9030   60.1680 C   0  0  0  0  0  0  0  0  0  0  0  0
  125.7880  130.7760   61.6520 C   0  0  0  0  0  0  0  0  0  0  0  0
  126.4400  129.8220   62.2970 N   0  0  0  0  0  0  0  0  0  0  0  0
  126.2020  129.8170   63.5840 C   0  0  0  0  0  0  0  0  0  0  0  0
  126.7200  128.9620   64.5460 N   0  0  0  0  0  0  0  0  0  0  0  0
  127.5340  129.2940   65.5780 C   0  0  0  0  0  0  0  0  0  0  0  0
  127.9130  130.4430   65.8140 O   0  0  0  0  0  0  0  0  0  0  0  0
  127.9930  128.1670   66.5330 C   0  0  0  0  0  0  0  0  0  0  0  0
  129.2960  127.5870   66.1550 N   0  0  0  0  0  0  0  0  0  0  0  0
  130.2600  127.6050   67.2650 C   0  0  0  0  0  0  0  0  0  0  0  0
  131.6710  127.2410   66.7490 C   0  0  0  0  0  0  0  0  0  0  0  0
  131.6730  126.0250   65.8220 C   0  0  0  0  0  0  0  0  0  0  0  0
  132.8680  125.3860   65.4740 C   0  0  0  0  0  0  0  0  0  0  0  0
  132.8740  124.3030   64.5980 C   0  0  0  0  0  0  0  0  0  0  0  0
  131.6760  123.8420   64.0600 C   0  0  0  0  0  0  0  0  0  0  0  0
  130.4780  124.4630   64.4060 C   0  0  0  0  0  0  0  0  0  0  0  0
  130.4590  125.5530   65.2830 C   0  0  0  0  0  0  0  0  0  0  0  0
  129.1390  126.1980   65.7070 C   0  0  0  0  0  0  0  0  0  0  0  0
  125.1030  131.0310   64.1090 S   0  0  0  0  0  0  0  0  0  0  0  0
  124.9510  131.5790   62.4560 C   0  0  0  0  0  0  0  0  0  0  0  0
  124.0160  132.7160   62.1080 C   0  0  0  0  0  0  0  0  0  0  0  0
  127.2020  131.3950   59.6490 C   0  0  0  0  0  0  0  0  0  0  0  0
  127.3920  131.5240   58.2730 C   0  0  0  0  0  0  0  0  0  0  0  0
  126.3860  131.1140   57.3880 C   0  0  0  0  0  0  0  0  0  0  0  0
  129.3450  130.1460   56.1880 C   0  0  0  0  0  0  0  0  0  0  0  0
  130.6510  130.1500   56.6720 C   0  0  0  0  0  0  0  0  0  0  0  0
  1  2  1  0
  2  3  2  0
  3  4  1  0
  4  5  2  0
  5  6  1  0
  6  7  2  0
  6  8  1  0
  8  9  1  0
  9 10  1  0
 10 11  1  0
 11 12  2  0
 12 13  1  0
 13 14  1  0
 14 15  1  0
 15 16  2  0
 16 17  1  0
 17 18  1  0
 18 19  2  0
 18 20  1  0
 20 21  1  0
 21 22  1  0
 22 23  1  0
 23 24  1  0
 24 25  2  0
 25 26  1  0
 26 27  2  0
 27 28  1  0
 28 29  2  0
 29 30  1  0
 16 31  1  0
 31 32  1  0
 32 33  1  0
 13 34  2  0
 34 35  1  0
 35 36  2  0
  5 37  1  0
 37 38  2  0
 38  2  1  0
 36  8  1  0
 36 11  1  0
 32 14  2  0
 30 21  1  0
 29 24  1  0
M  END
>  <Binding energies>  (45) 
[-11.09]

>  <Ligand effiencies>  (45) 
[-0.28435897435897434]

>  <Interactions>  (45) 
["V-B:GLU:543:CD:9877, V-B:GLU:543:CG:9876, H-B:GLU:543:OE2:9879, V-A:ARG:545:CZ:4923, V-A:GLY:454:CA:4045, V-A:GLU:543:CD:4905, V-A:HIS:456:CE1:4066, V-A:GLU:543:CG:4904, V-B:GLU:543:CB:9875, H-A:TYR:539:OH:4875, V-A:PRO:540:CB:4882, V-A:TYR:539:C:4864, V-A:LEU:363:CD1:3185, V-A:PRO:540:N:4881, H-B:LYS:534:NZ:9792, V-A:ILE:538:CG2:4860, V-A:ILE:538:CD1:4862, V-A:TYR:539:CZ:4874, V-B:ASP:366:CB:8180, V-B:TYR:531:CZ:9763, V-A:LEU:363:CA:3181, V-A:TYR:539:CD2:4871, V-A:TYR:539:CE2:4873, V-B:TYR:531:CE1:9761, H-B:GLU:543:OE1:9878, V-B:ASP:366:CG:8181, V-A:GLU:543:CB:4903, V-B:HIS:456:CE1:9038, V-B:GLY:454:CA:9017, V-B:ILE:369:CD1:8207, V-A:ARG:545:CG:4919, V-B:ASP:366:CA:8178, V-A:PRO:540:CD:4884, H-B:TYR:484:OH:9316, V-B:ASP:366:C:8176"]

$$$$
RR21_Rahimova_2017
     RDKit          3D

 40 45  0  0  0  0  0  0  0  0999 V2000
  133.6680  123.8340   61.4260 C   0  0  0  0  0  0  0  0  0  0  0  0
  134.0120  124.5440   62.6120 O   0  0  0  0  0  0  0  0  0  0  0  0
  133.0060  125.0510   63.4120 C   0  0  0  0  0  0  0  0  0  0  0  0
  131.7040  125.3280   62.9630 C   0  0  0  0  0  0  0  0  0  0  0  0
  130.7440  125.8370   63.8380 C   0  0  0  0  0  0  0  0  0  0  0  0
  131.0570  126.0760   65.1810 C   0  0  0  0  0  0  0  0  0  0  0  0
  130.0230  126.6170   66.1200 C   0  0  0  0  0  0  0  0  0  0  0  0
  130.1960  126.5030   67.4220 N   0  0  0  0  0  0  0  0  0  0  0  0
  129.1280  127.0700   68.0040 N   0  0  0  0  0  0  0  0  0  0  0  0
  129.0020  127.1380   69.4160 C   0  0  0  0  0  0  0  0  0  0  0  0
  127.9890  126.4310   70.0810 C   0  0  0  0  0  0  0  0  0  0  0  0
  127.8790  126.5030   71.4670 C   0  0  0  0  0  0  0  0  0  0  0  0
  128.7790  127.2800   72.1920 C   0  0  0  0  0  0  0  0  0  0  0  0
  129.7870  127.9890   71.5440 C   0  0  0  0  0  0  0  0  0  0  0  0
  129.9000  127.9200   70.1580 C   0  0  0  0  0  0  0  0  0  0  0  0
  128.2760  127.5640   67.0490 C   0  0  0  0  0  0  0  0  0  0  0  0
  128.8140  127.2780   65.8040 C   0  0  0  0  0  0  0  0  0  0  0  0
  128.2950  127.6420   64.4940 C   0  0  0  0  0  0  0  0  0  0  0  0
  127.3930  128.6040   64.1890 C   0  0  0  0  0  0  0  0  0  0  0  0
  126.5600  129.7130   65.3010 S   0  0  0  0  0  0  0  0  0  0  0  0
  125.7480  130.4560   63.9310 C   0  0  0  0  0  0  0  0  0  0  0  0
  124.9110  131.4460   63.9440 N   0  0  0  0  0  0  0  0  0  0  0  0
  124.3310  131.9630   62.7530 C   0  0  0  0  0  0  0  0  0  0  0  0
  123.5480  132.9100   62.6780 O   0  0  0  0  0  0  0  0  0  0  0  0
  124.7640  131.2460   61.5040 C   0  0  0  0  0  0  0  0  0  0  0  0
  124.1870  131.7030   60.1580 C   0  0  0  0  0  0  0  0  0  0  0  0
  125.0920  131.4280   58.9590 C   0  0  0  0  0  0  0  0  0  0  0  0
  124.5600  130.8680   57.7950 C   0  0  0  0  0  0  0  0  0  0  0  0
  125.3830  130.6330   56.6960 C   0  0  0  0  0  0  0  0  0  0  0  0
  126.7390  130.9600   56.7570 C   0  0  0  0  0  0  0  0  0  0  0  0
  127.6280  130.7130   55.5530 C   0  0  0  0  0  0  0  0  0  0  0  0
  127.2700  131.5310   57.9170 C   0  0  0  0  0  0  0  0  0  0  0  0
  126.4480  131.7650   59.0150 C   0  0  0  0  0  0  0  0  0  0  0  0
  125.5950  130.2550   61.5070 N   0  0  0  0  0  0  0  0  0  0  0  0
  126.1000  129.8550   62.7510 N   0  0  0  0  0  0  0  0  0  0  0  0
  126.9890  128.8330   62.8090 C   0  0  0  0  0  0  0  0  0  0  0  0
  127.3980  128.1980   61.8290 O   0  0  0  0  0  0  0  0  0  0  0  0
  132.3550  125.8060   65.6270 C   0  0  0  0  0  0  0  0  0  0  0  0
  133.3170  125.2980   64.7540 C   0  0  0  0  0  0  0  0  0  0  0  0
  134.5640  125.0460   65.2180 F   0  0  0  0  0  0  0  0  0  0  0  0
  1  2  1  0
  2  3  1  0
  3  4  2  0
  4  5  1  0
  5  6  2  0
  6  7  1  0
  7  8  2  0
  8  9  1  0
  9 10  1  0
 10 11  2  0
 11 12  1  0
 12 13  2  0
 13 14  1  0
 14 15  2  0
  9 16  1  0
 16 17  2  0
 17 18  1  0
 18 19  2  0
 19 20  1  0
 20 21  1  0
 21 22  2  0
 22 23  1  0
 23 24  2  0
 23 25  1  0
 25 26  1  0
 26 27  1  0
 27 28  2  0
 28 29  1  0
 29 30  2  0
 30 31  1  0
 30 32  1  0
 32 33  2  0
 25 34  2  0
 34 35  1  0
 35 36  1  0
 36 37  2  0
  6 38  1  0
 38 39  2  0
 39 40  1  0
 39  3  1  0
 17  7  1  0
 36 19  1  0
 15 10  1  0
 35 21  1  0
 33 27  1  0
M  END
>  <Binding energies>  (46) 
[-10.86]

>  <Ligand effiencies>  (46) 
[-0.27149999999999996]

>  <Interactions>  (46) 
["V-B:GLU:543:CD:9877, V-A:ARG:545:CZ:4923, V-A:GLY:454:CA:4045, V-A:GLU:543:CD:4905, V-A:HIS:456:CE1:4066, H-A:ARG:545:NH1:4924, V-A:ASP:366:CG:3209, H-A:GLY:454:N:4046, V-A:TYR:539:CZ:4874, V-B:ASP:366:CB:8180, V-B:TYR:531:CZ:9763, V-A:TYR:539:CD2:4871, V-A:TYR:539:CE2:4873, V-B:TYR:531:CE1:9761, V-B:ASP:366:CG:8181, V-B:HIS:456:CD2:9036, V-B:LYS:547:CE:9919, V-B:HIS:456:CE1:9038, V-A:GLY:453:C:4038, V-A:GLY:453:CA:4040, V-B:GLY:544:C:9881, V-B:GLY:454:CA:9017, V-B:ILE:369:CG2:8205, V-B:ILE:369:CD1:8207, V-A:GLY:454:C:4043, V-A:ARG:545:CD:4920, H-B:GLY:454:N:9018, H-B:TYR:484:OH:9316"]

$$$$
RR23_Rahimova_2017
     RDKit          3D

 39 44  0  0  0  0  0  0  0  0999 V2000
  131.3810  125.3790   53.6730 C   0  0  0  0  0  0  0  0  0  0  0  0
  130.2680  124.6980   54.4490 C   0  0  0  0  0  0  0  0  0  0  0  0
  129.5930  123.6120   53.8910 C   0  0  0  0  0  0  0  0  0  0  0  0
  128.5780  122.9820   54.6080 C   0  0  0  0  0  0  0  0  0  0  0  0
  128.2240  123.4400   55.8820 C   0  0  0  0  0  0  0  0  0  0  0  0
  127.1330  122.7300   56.6520 C   0  0  0  0  0  0  0  0  0  0  0  0
  126.5190  121.8300   56.0730 O   0  0  0  0  0  0  0  0  0  0  0  0
  126.8810  123.0910   57.9450 N   0  0  0  0  0  0  0  0  0  0  0  0
  125.5060  123.2600   58.4430 C   0  0  0  0  0  0  0  0  0  0  0  0
  125.6210  123.5140   59.9370 C   0  0  0  0  0  0  0  0  0  0  0  0
  127.0280  123.0970   60.2400 C   0  0  0  0  0  0  0  0  0  0  0  0
  127.6780  123.0250   61.4720 C   0  0  0  0  0  0  0  0  0  0  0  0
  129.0550  122.7640   61.5340 C   0  0  0  0  0  0  0  0  0  0  0  0
  129.8100  122.6760   62.8690 C   0  0  2  0  0  0  0  0  0  0  0  0
  129.6270  123.8620   63.6780 N   0  0  0  0  0  0  0  0  0  0  0  0
  130.6530  124.1140   64.3870 C   0  0  0  0  0  0  0  0  0  0  0  0
  130.8470  125.1550   65.2410 N   0  0  0  0  0  0  0  0  0  0  0  0
  130.0610  126.2410   65.4360 C   0  0  0  0  0  0  0  0  0  0  0  0
  128.9810  126.4540   64.8810 O   0  0  0  0  0  0  0  0  0  0  0  0
  130.5990  127.2770   66.4380 C   0  0  0  0  0  0  0  0  0  0  0  0
  129.8690  127.1360   67.7190 N   0  0  0  0  0  0  0  0  0  0  0  0
  128.6810  126.4190   67.6520 N   0  0  0  0  0  0  0  0  0  0  0  0
  127.9490  126.2260   68.7020 N   0  0  0  0  0  0  0  0  0  0  0  0
  128.3520  126.7450   69.9350 C   0  0  0  0  0  0  0  0  0  0  0  0
  127.5370  126.5200   71.0480 C   0  0  0  0  0  0  0  0  0  0  0  0
  127.9130  127.0260   72.2930 C   0  0  0  0  0  0  0  0  0  0  0  0
  129.0970  127.7540   72.4280 C   0  0  0  0  0  0  0  0  0  0  0  0
  129.9120  127.9800   71.3170 C   0  0  0  0  0  0  0  0  0  0  0  0
  129.5360  127.4710   70.0680 C   0  0  0  0  0  0  0  0  0  0  0  0
  130.4020  127.7080   68.8530 C   0  0  0  0  0  0  0  0  0  0  0  0
  131.4570  128.3490   68.8760 O   0  0  0  0  0  0  0  0  0  0  0  0
  132.0300  122.9830   64.2520 S   0  0  0  0  0  0  0  0  0  0  0  0
  131.3120  122.3370   62.7310 C   0  0  2  0  0  0  0  0  0  0  0  0
  132.0520  122.9520   61.5250 C   0  0  0  0  0  0  0  0  0  0  0  0
  129.7700  122.6250   60.3380 C   0  0  0  0  0  0  0  0  0  0  0  0
  129.1250  122.7180   59.1050 C   0  0  0  0  0  0  0  0  0  0  0  0
  127.7360  122.8990   59.0530 C   0  0  0  0  0  0  0  0  0  0  0  0
  128.9260  124.5140   56.4460 C   0  0  0  0  0  0  0  0  0  0  0  0
  129.9410  125.1430   55.7300 C   0  0  0  0  0  0  0  0  0  0  0  0
  1  2  1  0
  2  3  2  0
  3  4  1  0
  4  5  2  0
  5  6  1  0
  6  7  2  0
  6  8  1  0
  8  9  1  0
  9 10  1  0
 10 11  1  0
 11 12  2  0
 12 13  1  0
 14 13  1  6
 14 15  1  0
 15 16  2  0
 16 17  1  0
 17 18  1  0
 18 19  2  0
 18 20  1  0
 20 21  1  0
 21 22  1  0
 22 23  2  0
 23 24  1  0
 24 25  2  0
 25 26  1  0
 26 27  2  0
 27 28  1  0
 28 29  2  0
 29 30  1  0
 30 31  2  0
 16 32  1  0
 32 33  1  0
 33 34  1  6
 13 35  2  0
 35 36  1  0
 36 37  2  0
  5 38  1  0
 38 39  2  0
 39  2  1  0
 37  8  1  0
 37 11  1  0
 33 14  1  0
 30 21  1  0
 29 24  1  0
M  END
>  <Binding energies>  (47) 
[-11.49]

>  <Ligand effiencies>  (47) 
[-0.28725]

>  <Interactions>  (47) 
["V-B:TYR:539:CE2:9845, V-B:PRO:540:N:9853, V-B:PRO:540:CB:9854, V-B:TYR:539:CZ:9846, V-A:LEU:475:CD1:4254, V-B:PRO:540:CA:9852, H-B:TYR:539:N:9839, V-B:TYR:539:CD1:9842, V-B:ILE:538:CA:9829, V-B:ALA:541:CB:9861, V-B:TYR:539:CE1:9844, V-B:MET:535:CE:9804, V-A:GLU:543:CD:4905, V-A:HIS:456:CE1:4066, H-A:TYR:484:OH:4344, V-A:TYR:531:CE1:4789, V-A:ASN:370:CG:3242, V-A:MET:535:CE:4832, V-B:TYR:539:CD2:9843, V-B:HIS:456:CD2:9036, V-A:GLU:543:CB:4903, V-B:LYS:547:CE:9919, V-B:HIS:456:CE1:9038, V-B:GLY:544:C:9881, V-B:ALA:541:CA:9859, V-A:TYR:531:CD1:4787, H-A:ARG:545:N:4917"]

$$$$
RR26_Rahimova_2017
     RDKit          3D

 38 44  0  0  0  0  0  0  0  0999 V2000
  124.8260  123.8810   58.1570 C   0  0  0  0  0  0  0  0  0  0  0  0
  126.0030  123.4650   57.2830 C   0  0  0  0  0  0  0  0  0  0  0  0
  125.7320  122.8950   56.0340 C   0  0  0  0  0  0  0  0  0  0  0  0
  126.7690  122.5330   55.1780 C   0  0  0  0  0  0  0  0  0  0  0  0
  128.0900  122.7440   55.5600 C   0  0  0  0  0  0  0  0  0  0  0  0
  128.3720  123.3110   56.8010 C   0  0  0  0  0  0  0  0  0  0  0  0
  127.3410  123.6740   57.6810 C   0  0  0  0  0  0  0  0  0  0  0  0
  127.7330  124.2650   59.0050 C   0  0  0  0  0  0  0  0  0  0  0  0
  127.9900  123.5120   60.0720 N   0  0  0  0  0  0  0  0  0  0  0  0
  128.2930  124.4100   60.9700 C   0  0  0  0  0  0  0  0  0  0  0  0
  128.7510  124.3920   62.6320 S   0  0  0  0  0  0  0  0  0  0  0  0
  128.8570  126.1920   62.5990 C   0  0  0  0  0  0  0  0  0  0  0  0
  129.1840  127.0200   63.6160 C   0  0  0  0  0  0  0  0  0  0  0  0
  129.5360  126.6670   64.9820 C   0  0  0  0  0  0  0  0  0  0  0  0
  129.1010  127.2580   66.1590 C   0  0  0  0  0  0  0  0  0  0  0  0
  129.6590  126.5710   67.2070 N   0  0  0  0  0  0  0  0  0  0  0  0
  129.4970  126.8070   68.5960 C   0  0  0  0  0  0  0  0  0  0  0  0
  130.3500  127.6860   69.2800 C   0  0  0  0  0  0  0  0  0  0  0  0
  130.1820  127.9070   70.6440 C   0  0  0  0  0  0  0  0  0  0  0  0
  129.1610  127.2530   71.3290 C   0  0  0  0  0  0  0  0  0  0  0  0
  128.3050  126.3800   70.6610 C   0  0  0  0  0  0  0  0  0  0  0  0
  128.4720  126.1550   69.2980 C   0  0  0  0  0  0  0  0  0  0  0  0
  130.4060  125.5530   66.7510 N   0  0  0  0  0  0  0  0  0  0  0  0
  130.3460  125.6020   65.4350 C   0  0  0  0  0  0  0  0  0  0  0  0
  131.0920  124.5930   64.6170 C   0  0  0  0  0  0  0  0  0  0  0  0
  130.6880  123.2490   64.6060 C   0  0  0  0  0  0  0  0  0  0  0  0
  131.3790  122.3000   63.8500 C   0  0  0  0  0  0  0  0  0  0  0  0
  132.4840  122.6910   63.0970 C   0  0  0  0  0  0  0  0  0  0  0  0
  132.8870  124.0340   63.0860 C   0  0  0  0  0  0  0  0  0  0  0  0
  132.1990  124.9780   63.8470 C   0  0  0  0  0  0  0  0  0  0  0  0
  134.0020  124.4580   62.3900 O   0  0  0  0  0  0  0  0  0  0  0  0
  134.4320  123.5550   61.3660 C   0  0  0  0  0  0  0  0  0  0  0  0
  134.4210  122.0980   61.8870 C   0  0  0  0  0  0  0  0  0  0  0  0
  133.1090  121.7300   62.3270 O   0  0  0  0  0  0  0  0  0  0  0  0
  128.5240  126.7430   61.2890 C   0  0  0  0  0  0  0  0  0  0  0  0
  128.4920  127.9210   60.9270 O   0  0  0  0  0  0  0  0  0  0  0  0
  128.2270  125.6530   60.4580 N   0  0  0  0  0  0  0  0  0  0  0  0
  127.8670  125.5710   59.1740 N   0  0  0  0  0  0  0  0  0  0  0  0
  1  2  1  0
  2  3  2  0
  3  4  1  0
  4  5  2  0
  5  6  1  0
  6  7  2  0
  7  8  1  0
  8  9  1  0
  9 10  2  0
 10 11  1  0
 11 12  1  0
 12 13  2  0
 13 14  1  0
 14 15  2  0
 15 16  1  0
 16 17  1  0
 17 18  2  0
 18 19  1  0
 19 20  2  0
 20 21  1  0
 21 22  2  0
 16 23  1  0
 23 24  2  0
 24 25  1  0
 25 26  2  0
 26 27  1  0
 27 28  2  0
 28 29  1  0
 29 30  2  0
 29 31  1  0
 31 32  1  0
 32 33  1  0
 33 34  1  0
 12 35  1  0
 35 36  2  0
 35 37  1  0
 37 38  1  0
  7  2  1  0
 38  8  2  0
 37 10  1  0
 24 14  1  0
 30 25  1  0
 22 17  1  0
 34 28  1  0
M  END
>  <Binding energies>  (48) 
[-10.02]

>  <Ligand effiencies>  (48) 
[-0.2636842105263158]

>  <Interactions>  (48) 
["V-B:PRO:540:CB:9854, V-B:TYR:539:CZ:9846, V-A:TYR:484:CZ:4343, V-A:LEU:475:CD1:4254, V-B:PRO:540:CA:9852, V-B:TYR:539:CD1:9842, V-B:ILE:538:CA:9829, V-B:LEU:363:CD1:8157, V-B:ILE:538:CG2:9832, V-B:TYR:539:CE1:9844, V-B:GLU:543:CD:9877, V-A:TYR:484:CE1:4341, V-B:ILE:538:CB:9831, V-A:LEU:475:CD2:4255, V-B:GLU:543:CG:9876, V-B:MET:535:CE:9804, V-A:ARG:545:CZ:4923, V-A:GLY:454:CA:4045, V-A:GLU:543:CD:4905, V-A:HIS:456:CE1:4066, V-A:ASP:366:CG:3209, V-B:GLU:543:CB:9875, H-A:GLY:454:N:4046, H-A:TYR:484:OH:4344, V-B:HIS:456:CD2:9036, V-A:GLY:453:C:4038, V-A:GLY:453:CA:4040, V-A:ILE:369:CG1:3234, V-B:GLU:543:C:9871, V-A:LEU:475:CG:4253"]

$$$$
RR2_Rahimova_2017
     RDKit          3D

 46 50  0  0  0  0  0  0  0  0999 V2000
  124.5140  129.5760   65.4690 C   0  0  0  0  0  0  0  0  0  0  0  0
  123.9310  130.3960   64.4630 O   0  0  0  0  0  0  0  0  0  0  0  0
  124.7390  130.9270   63.4740 C   0  0  0  0  0  0  0  0  0  0  0  0
  124.3440  131.1040   62.1410 C   0  0  0  0  0  0  0  0  0  0  0  0
  125.2290  131.6440   61.2120 C   0  0  0  0  0  0  0  0  0  0  0  0
  126.5260  132.0150   61.5900 C   0  0  0  0  0  0  0  0  0  0  0  0
  127.4730  132.5950   60.5570 C   0  0  0  0  0  0  0  0  0  0  0  0
  128.1200  133.6180   60.8090 O   0  0  0  0  0  0  0  0  0  0  0  0
  127.5380  131.9320   59.3780 N   0  0  0  0  0  0  0  0  0  0  0  0
  128.3200  132.4730   58.3630 N   0  0  0  0  0  0  0  0  0  0  0  0
  128.0500  132.1160   57.0920 C   0  0  0  0  0  0  0  0  0  0  0  0
  127.2810  131.2090   56.7620 O   0  0  0  0  0  0  0  0  0  0  0  0
  128.7590  132.9400   56.0090 C   0  0  0  0  0  0  0  0  0  0  0  0
  130.1370  132.0840   55.1610 S   0  0  0  0  0  0  0  0  0  0  0  0
  129.7440  130.3990   55.5210 C   0  0  0  0  0  0  0  0  0  0  0  0
  128.9400  129.6800   54.7790 N   0  0  0  0  0  0  0  0  0  0  0  0
  128.8030  128.4430   55.3910 N   0  0  0  0  0  0  0  0  0  0  0  0
  129.5540  128.4490   56.4660 C   0  0  0  0  0  0  0  0  0  0  0  0
  129.6820  127.2780   57.3860 C   0  0  0  0  0  0  0  0  0  0  0  0
  129.0750  127.3140   58.6440 C   0  0  0  0  0  0  0  0  0  0  0  0
  129.1960  126.2310   59.5110 C   0  0  0  0  0  0  0  0  0  0  0  0
  129.9120  125.0940   59.1190 C   0  0  0  0  0  0  0  0  0  0  0  0
  130.0750  123.9790   59.9550 N   0  0  0  0  0  0  0  0  0  0  0  0
  128.8060  122.7850   60.3090 S   0  0  0  0  0  0  0  0  0  0  0  0
  128.0560  123.3200   61.4520 O   0  0  0  0  0  0  0  0  0  0  0  0
  129.4330  121.4600   60.3740 O   0  0  0  0  0  0  0  0  0  0  0  0
  127.7040  122.8400   58.8980 C   0  0  0  0  0  0  0  0  0  0  0  0
  128.0950  122.3050   57.6680 C   0  0  0  0  0  0  0  0  0  0  0  0
  127.2300  122.3710   56.5800 C   0  0  0  0  0  0  0  0  0  0  0  0
  125.9740  122.9670   56.7210 C   0  0  0  0  0  0  0  0  0  0  0  0
  125.0380  123.0520   55.5290 C   0  0  0  0  0  0  0  0  0  0  0  0
  125.5880  123.5040   57.9510 C   0  0  0  0  0  0  0  0  0  0  0  0
  126.4520  123.4400   59.0400 C   0  0  0  0  0  0  0  0  0  0  0  0
  130.5150  125.0590   57.8620 C   0  0  0  0  0  0  0  0  0  0  0  0
  130.4000  126.1440   56.9970 C   0  0  0  0  0  0  0  0  0  0  0  0
  130.1830  129.6750   56.6140 N   0  0  0  0  0  0  0  0  0  0  0  0
  131.0340  130.1040   57.6530 C   0  0  0  0  0  0  0  0  0  0  0  0
  130.5060  130.3840   58.9140 C   0  0  0  0  0  0  0  0  0  0  0  0
  131.3520  130.8030   59.9370 C   0  0  0  0  0  0  0  0  0  0  0  0
  132.7220  130.9470   59.7120 C   0  0  0  0  0  0  0  0  0  0  0  0
  133.4800  131.3690   60.7870 O   0  0  0  0  0  0  0  0  0  0  0  0
  132.8250  131.7440   61.9960 C   0  0  0  0  0  0  0  0  0  0  0  0
  133.2440  130.6630   58.4400 C   0  0  0  0  0  0  0  0  0  0  0  0
  132.4030  130.2420   57.4140 C   0  0  0  0  0  0  0  0  0  0  0  0
  126.9130  131.8400   62.9280 C   0  0  0  0  0  0  0  0  0  0  0  0
  126.0250  131.3010   63.8560 C   0  0  0  0  0  0  0  0  0  0  0  0
  1  2  1  0
  2  3  1  0
  3  4  2  0
  4  5  1  0
  5  6  2  0
  6  7  1  0
  7  8  2  0
  7  9  1  0
  9 10  1  0
 10 11  1  0
 11 12  2  0
 11 13  1  0
 13 14  1  0
 14 15  1  0
 15 16  2  0
 16 17  1  0
 17 18  2  0
 18 19  1  0
 19 20  2  0
 20 21  1  0
 21 22  2  0
 22 23  1  0
 23 24  1  0
 24 25  2  0
 24 26  2  0
 24 27  1  0
 27 28  2  0
 28 29  1  0
 29 30  2  0
 30 31  1  0
 30 32  1  0
 32 33  2  0
 22 34  1  0
 34 35  2  0
 18 36  1  0
 36 37  1  0
 37 38  2  0
 38 39  1  0
 39 40  2  0
 40 41  1  0
 41 42  1  0
 40 43  1  0
 43 44  2  0
  6 45  1  0
 45 46  2  0
 46  3  1  0
 36 15  1  0
 44 37  1  0
 35 19  1  0
 33 27  1  0
M  END
>  <Binding energies>  (49) 
[-10.51]

>  <Ligand effiencies>  (49) 
[-0.21448979591836734]

>  <Interactions>  (49) 
["V-B:TYR:539:CE2:9845, V-B:PRO:540:N:9853, V-B:PRO:540:CB:9854, V-B:TYR:539:CZ:9846, V-B:PRO:540:CA:9852, V-B:TYR:539:CD1:9842, V-B:TYR:539:C:9836, V-B:LEU:363:CD1:8157, V-B:ILE:538:CG2:9832, V-B:TYR:539:CE1:9844, V-B:ILE:538:CB:9831, V-A:GLU:543:CD:4905, H-B:TYR:539:OH:9847, V-A:ASP:366:CG:3209, V-A:GLU:543:CG:4904, H-A:TYR:531:OH:4792, V-A:PRO:540:CB:4882, V-A:TYR:539:CE1:4872, V-A:TYR:539:C:4864, V-A:PRO:540:CA:4880, V-A:TYR:539:CD1:4870, V-A:TYR:539:CZ:4874, V-B:TYR:539:CG:9841, V-B:TYR:539:CD2:9843, V-A:LEU:363:CA:3181, V-A:TYR:539:CD2:4871, V-A:TYR:539:CE2:4873, V-A:TYR:539:CG:4869, H-A:ALA:541:N:4888, V-A:ASN:362:CB:3172, V-B:ASP:366:CG:8181, V-B:HIS:456:CE1:9038, V-B:ARG:545:CZ:9895, V-B:ARG:545:CD:9892, V-B:ILE:369:CD1:8207, H-A:TYR:539:O:4865, V-A:TYR:539:CA:4866, V-A:ALA:541:C:4885, H-A:LEU:363:N:3182, H-B:GLY:454:N:9018, V-A:ASN:362:CG:3173, H-B:TYR:484:OH:9316"]

$$$$
RR33_Rahimova_2017
     RDKit          3D

 18 19  0  0  0  0  0  0  0  0999 V2000
  134.8180  125.0090   66.0390 C   0  0  0  0  0  0  0  0  0  0  0  0
  133.4980  125.0670   65.2640 C   0  0  0  0  0  0  0  0  0  0  0  0
  133.6110  124.2460   64.1050 O   0  0  0  0  0  0  0  0  0  0  0  0
  132.4820  123.9650   63.3610 C   0  0  0  0  0  0  0  0  0  0  0  0
  132.5610  124.2190   61.9920 C   0  0  0  0  0  0  0  0  0  0  0  0
  131.4720  123.9700   61.1610 C   0  0  0  0  0  0  0  0  0  0  0  0
  130.2820  123.4610   61.6910 C   0  0  0  0  0  0  0  0  0  0  0  0
  129.1130  123.1950   60.7980 C   0  0  0  0  0  0  0  0  0  0  0  0
  127.8410  123.4070   61.0560 N   0  0  0  0  0  0  0  0  0  0  0  0
  127.1940  123.0190   59.9680 C   0  0  0  0  0  0  0  0  0  0  0  0
  125.6870  123.1240   59.8810 C   0  0  0  0  0  0  0  0  0  0  0  0
  125.0960  123.1490   61.2110 N   0  0  0  0  0  0  0  0  0  0  0  0
  123.9060  123.9840   61.2270 C   0  0  0  0  0  0  0  0  0  0  0  0
  128.1030  122.5580   59.0240 C   0  0  0  0  0  0  0  0  0  0  0  0
  128.0080  122.0020   57.6240 C   0  0  0  0  0  0  0  0  0  0  0  0
  129.3380  122.6720   59.5640 O   0  0  0  0  0  0  0  0  0  0  0  0
  130.2000  123.2000   63.0620 C   0  0  0  0  0  0  0  0  0  0  0  0
  131.2890  123.4500   63.8930 C   0  0  0  0  0  0  0  0  0  0  0  0
  1  2  1  0
  2  3  1  0
  3  4  1  0
  4  5  2  0
  5  6  1  0
  6  7  2  0
  7  8  1  0
  8  9  2  0
  9 10  1  0
 10 11  1  0
 11 12  1  0
 12 13  1  0
 10 14  2  0
 14 15  1  0
 14 16  1  0
  7 17  1  0
 17 18  2  0
 18  4  1  0
 16  8  1  0
M  END
>  <Binding energies>  (50) 
[-5.88]

>  <Ligand effiencies>  (50) 
[-0.3094736842105263]

>  <Interactions>  (50) 
["V-B:TYR:539:CE2:9845, V-B:PRO:540:N:9853, V-B:PRO:540:CB:9854, V-B:TYR:539:CZ:9846, H-B:ALA:541:N:9860, V-B:PRO:540:CA:9852, V-B:TYR:539:CD1:9842, V-B:PRO:540:C:9850, V-B:TYR:539:C:9836, V-B:ALA:541:CB:9861, V-B:TYR:539:CE1:9844, H-B:GLU:543:OE2:9879, V-A:ARG:545:CZ:4923, V-A:GLY:454:CA:4045, V-A:HIS:456:CE1:4066, H-A:GLY:454:N:4046, H-A:TYR:484:OH:4344, V-B:TYR:539:CA:9838, V-B:TYR:539:CG:9841, V-B:TYR:539:CD2:9843, V-B:ASN:362:CB:8144, V-B:ASN:362:C:8140, V-A:GLY:453:C:4038, V-A:GLY:453:CA:4040, V-B:ASN:362:CA:8142, V-A:GLY:454:C:4043, V-A:ARG:545:CG:4919, V-A:ARG:545:CD:4920"]

$$$$
RR3_Rahimova_2017
     RDKit          3D

 38 44  0  0  0  0  0  0  0  0999 V2000
  123.9980  132.7330   62.7730 C   0  0  0  0  0  0  0  0  0  0  0  0
  125.0040  132.9720   63.7030 C   0  0  0  0  0  0  0  0  0  0  0  0
  125.9110  131.9630   64.0130 C   0  0  0  0  0  0  0  0  0  0  0  0
  125.8250  130.7050   63.3990 C   0  0  0  0  0  0  0  0  0  0  0  0
  126.8020  129.6210   63.7330 C   0  0  0  0  0  0  0  0  0  0  0  0
  127.2150  129.4040   65.0550 C   0  0  0  0  0  0  0  0  0  0  0  0
  128.1260  128.3990   65.3640 C   0  0  0  0  0  0  0  0  0  0  0  0
  128.6530  127.5890   64.3550 C   0  0  0  0  0  0  0  0  0  0  0  0
  129.6370  126.5090   64.6800 C   0  0  0  0  0  0  0  0  0  0  0  0
  130.2000  125.8070   63.7020 N   0  0  0  0  0  0  0  0  0  0  0  0
  131.0390  124.9760   64.2730 C   0  0  0  0  0  0  0  0  0  0  0  0
  131.8780  124.0100   63.5680 C   0  0  0  0  0  0  0  0  0  0  0  0
  132.4220  122.8600   64.1140 C   0  0  0  0  0  0  0  0  0  0  0  0
  133.1460  122.1840   63.1670 N   0  0  0  0  0  0  0  0  0  0  0  0
  133.1050  122.8660   61.9710 C   0  0  0  0  0  0  0  0  0  0  0  0
  133.6850  122.5720   60.7320 C   0  0  0  0  0  0  0  0  0  0  0  0
  133.4550  123.4760   59.6950 C   0  0  0  0  0  0  0  0  0  0  0  0
  132.6850  124.6210   59.8770 C   0  0  0  0  0  0  0  0  0  0  0  0
  132.1070  124.9130   61.1100 C   0  0  0  0  0  0  0  0  0  0  0  0
  132.3080  124.0340   62.1900 C   0  0  0  0  0  0  0  0  0  0  0  0
  131.0250  125.1250   65.6320 N   0  0  0  0  0  0  0  0  0  0  0  0
  130.1080  126.0970   65.9380 C   0  0  0  0  0  0  0  0  0  0  0  0
  129.7790  126.4890   67.3410 C   0  0  0  0  0  0  0  0  0  0  0  0
  128.8480  125.7510   68.0740 C   0  0  0  0  0  0  0  0  0  0  0  0
  128.5290  126.1200   69.3760 C   0  0  0  0  0  0  0  0  0  0  0  0
  129.1340  127.2320   69.9790 C   0  0  0  0  0  0  0  0  0  0  0  0
  128.7740  127.6380   71.3730 C   0  0  0  0  0  0  0  0  0  0  0  0
  129.4110  128.7240   71.9940 C   0  0  0  0  0  0  0  0  0  0  0  0
  129.0720  129.1050   73.2900 C   0  0  0  0  0  0  0  0  0  0  0  0
  128.0900  128.4020   73.9810 C   0  0  0  0  0  0  0  0  0  0  0  0
  127.4450  127.3230   73.3850 C   0  0  0  0  0  0  0  0  0  0  0  0
  127.7870  126.9440   72.0900 C   0  0  0  0  0  0  0  0  0  0  0  0
  130.0800  127.9550   69.2380 C   0  0  0  0  0  0  0  0  0  0  0  0
  130.4020  127.5880   67.9350 C   0  0  0  0  0  0  0  0  0  0  0  0
  128.2380  127.7880   63.0360 C   0  0  0  0  0  0  0  0  0  0  0  0
  127.3270  128.7950   62.7300 C   0  0  0  0  0  0  0  0  0  0  0  0
  124.8020  130.4860   62.4660 C   0  0  0  0  0  0  0  0  0  0  0  0
  123.8930  131.4920   62.1520 C   0  0  0  0  0  0  0  0  0  0  0  0
  1  2  2  0
  2  3  1  0
  3  4  2  0
  4  5  1  0
  5  6  2  0
  6  7  1  0
  7  8  2  0
  8  9  1  0
  9 10  1  0
 10 11  2  0
 11 12  1  0
 12 13  2  0
 13 14  1  0
 14 15  1  0
 15 16  2  0
 16 17  1  0
 17 18  2  0
 18 19  1  0
 19 20  2  0
 11 21  1  0
 21 22  1  0
 22 23  1  0
 23 24  2  0
 24 25  1  0
 25 26  2  0
 26 27  1  0
 27 28  2  0
 28 29  1  0
 29 30  2  0
 30 31  1  0
 31 32  2  0
 26 33  1  0
 33 34  2  0
  8 35  1  0
 35 36  2  0
  4 37  1  0
 37 38  2  0
 38  1  1  0
 36  5  1  0
 22  9  2  0
 34 23  1  0
 20 12  1  0
 32 27  1  0
 20 15  1  0
M  END
>  <Binding energies>  (51) 
[-10.16]

>  <Ligand effiencies>  (51) 
[-0.254]

>  <Interactions>  (51) 
["V-B:TYR:539:CE2:9845, V-B:TYR:539:CZ:9846, V-A:LEU:475:CD1:4254, V-B:GLU:543:CD:9877, V-A:GLY:454:CA:4045, V-A:GLU:543:CD:4905, V-A:ASP:366:CB:3208, V-A:HIS:456:CE1:4066, V-A:ASP:366:CG:3209, V-B:GLU:543:CB:9875, H-A:TYR:484:OH:4344, V-B:ASP:366:CG:8181, V-A:LYS:547:CE:4947, V-B:HIS:456:CD2:9036, V-A:ILE:369:CB:3232, V-A:GLU:543:CB:4903, V-A:GLU:543:C:4899, V-A:ILE:369:CG2:3233, V-B:LYS:547:CE:9919, V-B:HIS:456:CE1:9038, H-A:HIS:456:NE2:4067, V-A:ILE:369:CG1:3234, V-B:LYS:547:CD:9918, V-B:GLY:454:CA:9017, V-B:ILE:369:CD1:8207, V-B:GLU:543:C:9871, V-B:LEU:475:CD2:9227, V-A:ASP:366:CA:3206"]

$$$$
RR4_Rahimova_2017
     RDKit          3D

 40 44  0  0  0  0  0  0  0  0999 V2000
  130.0870  125.7090   73.6690 C   0  0  0  0  0  0  0  0  0  0  0  0
  129.8620  126.9920   73.0940 O   0  0  0  0  0  0  0  0  0  0  0  0
  129.7300  127.1030   71.7230 C   0  0  0  0  0  0  0  0  0  0  0  0
  128.6760  126.4060   71.1370 C   0  0  0  0  0  0  0  0  0  0  0  0
  128.4660  126.4600   69.7630 C   0  0  0  0  0  0  0  0  0  0  0  0
  129.3080  127.2120   68.9310 C   0  0  0  0  0  0  0  0  0  0  0  0
  129.0790  127.2670   67.4480 C   0  0  0  0  0  0  0  0  0  0  0  0
  128.1680  128.1470   66.8540 C   0  0  0  0  0  0  0  0  0  0  0  0
  127.9930  128.1630   65.4640 C   0  0  0  0  0  0  0  0  0  0  0  0
  127.0230  129.1490   64.8990 C   0  0  0  0  0  0  0  0  0  0  0  0
  125.6480  128.9440   65.0450 C   0  0  0  0  0  0  0  0  0  0  0  0
  124.7370  129.8640   64.5320 C   0  0  0  0  0  0  0  0  0  0  0  0
  125.1820  131.0080   63.8700 C   0  0  0  0  0  0  0  0  0  0  0  0
  124.2070  131.8640   63.3960 O   0  0  0  0  0  0  0  0  0  0  0  0
  123.8900  131.8550   62.0080 C   0  0  0  0  0  0  0  0  0  0  0  0
  126.5610  131.2210   63.7260 C   0  0  0  0  0  0  0  0  0  0  0  0
  127.4700  130.2990   64.2400 C   0  0  0  0  0  0  0  0  0  0  0  0
  128.7380  127.2490   64.6790 C   0  0  0  0  0  0  0  0  0  0  0  0
  128.5940  127.2240   63.2210 C   0  0  0  0  0  0  0  0  0  0  0  0
  128.4800  127.2050   62.0690 N   0  0  0  0  0  0  0  0  0  0  0  0
  129.6190  126.3680   65.3480 C   0  0  0  0  0  0  0  0  0  0  0  0
  130.6220  125.1490   64.5260 S   0  0  0  0  0  0  0  0  0  0  0  0
  129.5180  123.8140   63.9530 C   0  0  0  0  0  0  0  0  0  0  0  0
  129.5370  123.5780   62.4360 C   0  0  0  0  0  0  0  0  0  0  0  0
  130.6020  123.3720   61.8480 O   0  0  0  0  0  0  0  0  0  0  0  0
  128.3240  123.6320   61.8390 N   0  0  0  0  0  0  0  0  0  0  0  0
  128.0120  123.4580   60.4880 C   0  0  0  0  0  0  0  0  0  0  0  0
  129.2180  123.4600   59.2290 S   0  0  0  0  0  0  0  0  0  0  0  0
  128.0160  123.2090   58.0000 C   0  0  0  0  0  0  0  0  0  0  0  0
  126.7260  123.1320   58.5490 C   0  0  0  0  0  0  0  0  0  0  0  0
  126.7280  123.2570   59.9590 C   0  0  0  0  0  0  0  0  0  0  0  0
  125.5190  123.1920   60.7740 C   0  0  0  0  0  0  0  0  0  0  0  0
  124.5590  123.1410   61.4190 N   0  0  0  0  0  0  0  0  0  0  0  0
  125.4950  122.8750   57.6720 C   0  0  0  0  0  0  0  0  0  0  0  0
  125.9160  122.3390   56.2850 C   0  0  0  0  0  0  0  0  0  0  0  0
  127.0810  123.1440   55.6810 C   0  0  0  0  0  0  0  0  0  0  0  0
  128.3650  123.0290   56.5290 C   0  0  0  0  0  0  0  0  0  0  0  0
  129.7920  126.3950   66.6900 N   0  0  0  0  0  0  0  0  0  0  0  0
  130.3650  127.9140   69.5310 C   0  0  0  0  0  0  0  0  0  0  0  0
  130.5790  127.8620   70.9050 C   0  0  0  0  0  0  0  0  0  0  0  0
  1  2  1  0
  2  3  1  0
  3  4  2  0
  4  5  1  0
  5  6  2  0
  6  7  1  0
  7  8  2  0
  8  9  1  0
  9 10  1  0
 10 11  2  0
 11 12  1  0
 12 13  2  0
 13 14  1  0
 14 15  1  0
 13 16  1  0
 16 17  2  0
  9 18  2  0
 18 19  1  0
 19 20  3  0
 18 21  1  0
 21 22  1  0
 22 23  1  0
 23 24  1  0
 24 25  2  0
 24 26  1  0
 26 27  1  0
 27 28  1  0
 28 29  1  0
 29 30  2  0
 30 31  1  0
 31 32  1  0
 32 33  3  0
 30 34  1  0
 34 35  1  0
 35 36  1  0
 36 37  1  0
 21 38  2  0
  6 39  1  0
 39 40  2  0
 40  3  1  0
 38  7  1  0
 17 10  1  0
 31 27  2  0
 37 29  1  0
M  END
>  <Binding energies>  (52) 
[-12.32]

>  <Ligand effiencies>  (52) 
[-0.30048780487804877]

>  <Interactions>  (52) 
["V-B:TYR:539:CE2:9845, V-B:PRO:540:N:9853, V-B:PRO:540:CB:9854, V-B:TYR:539:CZ:9846, H-B:ALA:541:N:9860, V-B:PRO:540:CA:9852, V-B:TYR:539:CD1:9842, V-B:PRO:540:C:9850, V-B:LEU:363:CD1:8157, V-B:ALA:541:CB:9861, V-B:ILE:538:CG2:9832, V-B:TYR:539:CE1:9844, V-B:GLU:543:CD:9877, V-B:ILE:538:CB:9831, V-B:GLU:543:CG:9876, H-B:GLU:543:OE2:9879, V-B:MET:535:CE:9804, V-A:GLU:543:CD:4905, V-A:HIS:456:CE1:4066, V-A:GLU:543:CG:4904, V-B:PRO:540:CD:9856, V-B:ASP:366:CG:8181, V-A:GLU:543:C:4899, H-A:LYS:547:NZ:4948, V-A:GLY:544:C:4909, V-B:LYS:547:CE:9919, V-B:HIS:456:CE1:9038, V-B:ARG:545:CZ:9895, V-B:ILE:369:CD1:8207, V-A:HIS:456:CD2:4064, H-B:GLY:454:N:9018"]

$$$$
RR6_Rahimova_2017
     RDKit          3D

 38 41  0  0  0  0  0  0  0  0999 V2000
  128.0330  122.7520   54.8410 C   0  0  0  0  0  0  0  0  0  0  0  0
  127.5640  121.9090   55.8840 O   0  0  0  0  0  0  0  0  0  0  0  0
  126.4970  122.2650   56.6440 C   0  0  0  0  0  0  0  0  0  0  0  0
  125.3340  122.2650   56.2260 O   0  0  0  0  0  0  0  0  0  0  0  0
  126.8690  122.6580   58.0440 C   0  0  0  0  0  0  0  0  0  0  0  0
  126.1070  123.5720   58.7870 C   0  0  0  0  0  0  0  0  0  0  0  0
  126.4840  123.9220   60.0820 C   0  0  0  0  0  0  0  0  0  0  0  0
  127.6360  123.3640   60.6550 C   0  0  0  0  0  0  0  0  0  0  0  0
  128.1210  123.6690   61.9410 N   0  0  0  0  0  0  0  0  0  0  0  0
  129.3900  123.6420   62.4060 C   0  0  0  0  0  0  0  0  0  0  0  0
  130.3850  123.3400   61.7470 O   0  0  0  0  0  0  0  0  0  0  0  0
  129.5550  123.9590   63.8960 C   0  0  0  0  0  0  0  0  0  0  0  0
  130.5210  125.4710   64.2210 S   0  0  0  0  0  0  0  0  0  0  0  0
  129.4630  126.5680   65.1420 C   0  0  0  0  0  0  0  0  0  0  0  0
  129.5420  126.4210   66.4870 N   0  0  0  0  0  0  0  0  0  0  0  0
  128.8040  127.2210   67.2960 C   0  0  0  0  0  0  0  0  0  0  0  0
  128.9960  127.0360   68.7730 C   0  0  0  0  0  0  0  0  0  0  0  0
  128.1400  126.2060   69.5140 C   0  0  0  0  0  0  0  0  0  0  0  0
  128.3100  126.0450   70.8860 C   0  0  0  0  0  0  0  0  0  0  0  0
  129.3460  126.7070   71.5440 C   0  0  0  0  0  0  0  0  0  0  0  0
  129.5220  126.5350   73.0420 C   0  0  0  0  0  0  0  0  0  0  0  0
  130.2080  127.5330   70.8260 C   0  0  0  0  0  0  0  0  0  0  0  0
  130.0340  127.6900   69.4550 C   0  0  0  0  0  0  0  0  0  0  0  0
  127.9510  128.1900   66.7590 C   0  0  0  0  0  0  0  0  0  0  0  0
  127.8480  128.3590   65.3710 C   0  0  0  0  0  0  0  0  0  0  0  0
  126.9310  129.4240   64.8650 C   0  0  0  0  0  0  0  0  0  0  0  0
  125.5780  129.1440   64.6510 C   0  0  0  0  0  0  0  0  0  0  0  0
  124.7140  130.1350   64.1950 C   0  0  0  0  0  0  0  0  0  0  0  0
  125.1820  131.4250   63.9500 C   0  0  0  0  0  0  0  0  0  0  0  0
  124.2530  132.3440   63.5020 O   0  0  0  0  0  0  0  0  0  0  0  0
  123.9060  132.3630   62.1220 C   0  0  0  0  0  0  0  0  0  0  0  0
  126.5380  131.7130   64.1690 C   0  0  0  0  0  0  0  0  0  0  0  0
  127.3990  130.7200   64.6250 C   0  0  0  0  0  0  0  0  0  0  0  0
  128.6220  127.5200   64.5310 C   0  0  0  0  0  0  0  0  0  0  0  0
  128.5400  127.6230   63.0710 C   0  0  0  0  0  0  0  0  0  0  0  0
  128.4760  127.7070   61.9180 N   0  0  0  0  0  0  0  0  0  0  0  0
  128.3870  122.4420   59.9260 C   0  0  0  0  0  0  0  0  0  0  0  0
  128.0100  122.0950   58.6300 C   0  0  0  0  0  0  0  0  0  0  0  0
  1  2  1  0
  2  3  1  0
  3  4  2  0
  3  5  1  0
  5  6  2  0
  6  7  1  0
  7  8  2  0
  8  9  1  0
  9 10  1  0
 10 11  2  0
 10 12  1  0
 12 13  1  0
 13 14  1  0
 14 15  2  0
 15 16  1  0
 16 17  1  0
 17 18  2  0
 18 19  1  0
 19 20  2  0
 20 21  1  0
 20 22  1  0
 22 23  2  0
 16 24  2  0
 24 25  1  0
 25 26  1  0
 26 27  2  0
 27 28  1  0
 28 29  2  0
 29 30  1  0
 30 31  1  0
 29 32  1  0
 32 33  2  0
 25 34  2  0
 34 35  1  0
 35 36  3  0
  8 37  1  0
 37 38  2  0
 38  5  1  0
 34 14  1  0
 23 17  1  0
 33 26  1  0
M  END
>  <Binding energies>  (53) 
[-10.91]

>  <Ligand effiencies>  (53) 
[-0.27974358974358976]

>  <Interactions>  (53) 
["V-B:TYR:539:CE2:9845, V-B:PRO:540:N:9853, V-B:PRO:540:CB:9854, V-B:TYR:539:CZ:9846, V-B:PRO:540:CA:9852, H-B:TYR:539:N:9839, V-B:TYR:539:CD1:9842, V-B:ILE:538:CA:9829, V-B:TYR:539:C:9836, V-B:ALA:541:CB:9861, V-B:ILE:538:CG2:9832, V-B:TYR:539:CE1:9844, V-B:GLU:543:CD:9877, V-B:ILE:538:CB:9831, V-B:GLU:543:CG:9876, H-B:GLU:543:OE2:9879, V-B:MET:535:CE:9804, V-A:GLU:543:CD:4905, V-A:HIS:456:CE1:4066, V-A:GLU:543:CG:4904, V-B:GLU:543:CB:9875, V-B:PRO:540:CD:9856, V-B:TYR:539:CG:9841, V-B:TYR:539:CD2:9843, V-B:LYS:547:CE:9919, V-B:HIS:456:CE1:9038, V-B:GLY:544:C:9881, V-B:GLY:454:CA:9017, V-B:ARG:545:CZ:9895, V-B:ILE:369:CD1:8207, V-B:GLU:543:C:9871, V-A:HIS:456:CD2:4064, H-B:GLY:454:N:9018"]

$$$$
RR7_Rahimova_2017
     RDKit          3D

 47 53  0  0  0  0  0  0  0  0999 V2000
  125.0050  130.7200   58.4450 C   0  0  0  0  0  0  0  0  0  0  0  0
  126.4150  130.5840   58.5960 O   0  0  0  0  0  0  0  0  0  0  0  0
  126.9860  129.3310   58.4840 C   0  0  0  0  0  0  0  0  0  0  0  0
  127.4570  128.9720   57.2230 C   0  0  0  0  0  0  0  0  0  0  0  0
  128.0520  127.7320   57.0150 C   0  0  0  0  0  0  0  0  0  0  0  0
  128.1810  126.8120   58.0660 C   0  0  0  0  0  0  0  0  0  0  0  0
  128.8740  125.4280   57.8690 C   0  0  0  0  0  0  0  0  0  0  0  0
  129.3690  125.0320   59.1680 O   0  0  0  0  0  0  0  0  0  0  0  0
  130.2460  123.9080   59.2890 C   0  0  0  0  0  0  0  0  0  0  0  0
  131.6730  124.4130   59.5560 C   0  0  1  0  0  0  0  0  0  0  0  0
  131.5960  125.2980   60.6700 O   0  0  0  0  0  0  0  0  0  0  0  0
  132.4030  124.8750   61.7310 C   0  0  1  0  0  0  0  0  0  0  0  0
  131.7930  125.2350   62.9970 N   0  0  0  0  0  0  0  0  0  0  0  0
  132.0930  124.7470   64.2560 C   0  0  0  0  0  0  0  0  0  0  0  0
  131.3500  125.2140   65.2300 N   0  0  0  0  0  0  0  0  0  0  0  0
  130.4580  126.0350   64.5950 C   0  0  0  0  0  0  0  0  0  0  0  0
  129.3920  126.8200   65.0760 C   0  0  0  0  0  0  0  0  0  0  0  0
  129.1310  126.8300   66.4590 N   0  0  0  0  0  0  0  0  0  0  0  0
  129.9170  127.2660   67.4720 C   0  0  0  0  0  0  0  0  0  0  0  0
  131.0510  127.7290   67.3210 O   0  0  0  0  0  0  0  0  0  0  0  0
  129.3340  127.1260   68.8620 C   0  0  0  0  0  0  0  0  0  0  0  0
  129.9920  127.7140   69.9530 C   0  0  0  0  0  0  0  0  0  0  0  0
  129.4700  127.6020   71.2380 C   0  0  0  0  0  0  0  0  0  0  0  0
  128.2830  126.9060   71.4430 C   0  0  0  0  0  0  0  0  0  0  0  0
  127.6120  126.3200   70.3740 C   0  0  0  0  0  0  0  0  0  0  0  0
  128.1340  126.4300   69.0870 C   0  0  0  0  0  0  0  0  0  0  0  0
  128.6420  127.5420   64.1900 N   0  0  0  0  0  0  0  0  0  0  0  0
  128.9670  127.4650   62.8730 C   0  0  0  0  0  0  0  0  0  0  0  0
  129.9720  126.7460   62.3040 N   0  0  0  0  0  0  0  0  0  0  0  0
  130.6930  126.0550   63.1960 C   0  0  0  0  0  0  0  0  0  0  0  0
  132.6000  123.3790   61.5140 C   0  0  0  0  0  0  0  0  0  0  0  0
  132.6720  123.3330   59.9970 C   0  0  2  0  0  0  0  0  0  0  0  0
  133.9830  123.5820   59.5200 O   0  0  0  0  0  0  0  0  0  0  0  0
  127.8780  124.3290   57.4090 C   0  0  0  0  0  0  0  0  0  0  0  0
  126.5960  124.6800   56.9580 C   0  0  0  0  0  0  0  0  0  0  0  0
  125.6910  123.7030   56.5570 C   0  0  0  0  0  0  0  0  0  0  0  0
  126.0580  122.3620   56.6040 C   0  0  0  0  0  0  0  0  0  0  0  0
  127.3240  121.9910   57.0480 C   0  0  0  0  0  0  0  0  0  0  0  0
  128.2290  122.9700   57.4500 C   0  0  0  0  0  0  0  0  0  0  0  0
  130.0380  125.3940   56.8380 C   0  0  0  0  0  0  0  0  0  0  0  0
  129.9500  124.5860   55.6940 C   0  0  0  0  0  0  0  0  0  0  0  0
  130.9900  124.5410   54.7710 C   0  0  0  0  0  0  0  0  0  0  0  0
  132.1370  125.3010   54.9880 C   0  0  0  0  0  0  0  0  0  0  0  0
  132.2510  126.0980   56.1220 C   0  0  0  0  0  0  0  0  0  0  0  0
  131.2090  126.1410   57.0440 C   0  0  0  0  0  0  0  0  0  0  0  0
  127.7180  127.1840   59.3370 C   0  0  0  0  0  0  0  0  0  0  0  0
  127.1230  128.4250   59.5460 C   0  0  0  0  0  0  0  0  0  0  0  0
  1  2  1  0
  2  3  1  0
  3  4  2  0
  4  5  1  0
  5  6  2  0
  6  7  1  0
  7  8  1  0
  8  9  1  0
 10  9  1  1
 10 11  1  0
 11 12  1  0
 12 13  1  1
 13 14  1  0
 14 15  2  0
 15 16  1  0
 16 17  2  0
 17 18  1  0
 18 19  1  0
 19 20  2  0
 19 21  1  0
 21 22  2  0
 22 23  1  0
 23 24  2  0
 24 25  1  0
 25 26  2  0
 17 27  1  0
 27 28  2  0
 28 29  1  0
 29 30  2  0
 12 31  1  0
 31 32  1  0
 32 33  1  1
  7 34  1  0
 34 35  2  0
 35 36  1  0
 36 37  2  0
 37 38  1  0
 38 39  2  0
  7 40  1  0
 40 41  2  0
 41 42  1  0
 42 43  2  0
 43 44  1  0
 44 45  2  0
  6 46  1  0
 46 47  2  0
 47  3  1  0
 32 10  1  0
 39 34  1  0
 45 40  1  0
 30 13  1  0
 30 16  1  0
 26 21  1  0
M  END
>  <Binding energies>  (54) 
[-9.62]

>  <Ligand effiencies>  (54) 
[-0.1963265306122449]

>  <Interactions>  (54) 
["V-B:TYR:539:CE2:9845, V-B:PRO:540:N:9853, V-B:PRO:540:CB:9854, V-B:TYR:539:CZ:9846, V-B:PRO:540:CA:9852, V-B:TYR:539:CD1:9842, V-B:TYR:539:C:9836, V-B:LEU:363:CD1:8157, V-B:TYR:539:CE1:9844, V-B:GLU:543:CD:9877, V-B:ILE:538:CB:9831, V-B:MET:535:CE:9804, V-A:GLU:543:CD:4905, V-A:ASP:366:CB:3208, V-A:HIS:456:CE1:4066, H-B:TYR:539:OH:9847, V-A:ASP:366:CG:3209, V-B:GLU:543:CB:9875, H-A:TYR:484:OH:4344, V-A:TYR:531:CE1:4789, V-A:ASP:366:C:3204, V-A:ASN:370:CB:3241, V-B:PRO:540:CD:9856, V-B:TYR:539:CA:9838, V-B:ASP:366:CB:8180, V-B:TYR:539:CG:9841, H-B:GLU:543:OE1:9878, V-B:ASP:366:CG:8181, V-B:HIS:456:CD2:9036, V-B:GLY:544:CA:9883, V-A:GLU:543:CB:4903, V-B:HIS:456:CE1:9038, V-B:GLY:544:C:9881, V-B:GLU:543:C:9871, H-A:ASP:366:O:3205"]

$$$$
RR8_A_Rahimova_2017
     RDKit          3D

 42 46  0  0  0  0  0  0  0  0999 V2000
  131.9870  126.7720   55.9170 O   0  0  0  0  0  0  0  0  0  0  0  0
  130.8260  126.5810   55.5400 C   0  0  0  0  0  0  0  0  0  0  0  0
  130.1660  127.3710   54.6370 O   0  0  0  0  0  0  0  0  0  0  0  0
  129.4910  128.4950   55.1300 C   0  0  1  0  0  0  0  0  0  0  0  0
  128.3300  128.7620   54.3980 O   0  0  0  0  0  0  0  0  0  0  0  0
  127.2650  129.2030   55.2350 C   0  0  2  0  0  0  0  0  0  0  0  0
  126.7650  130.5630   54.7170 C   0  0  0  0  0  0  0  0  0  0  0  0
  127.6450  131.0170   53.6980 O   0  0  0  0  0  0  0  0  0  0  0  0
  128.1420  132.3320   53.9080 C   0  0  0  0  0  0  0  0  0  0  0  0
  128.9510  132.3790   55.1950 C   0  0  0  0  0  0  0  0  0  0  0  0
  130.3470  132.3910   55.1410 C   0  0  0  0  0  0  0  0  0  0  0  0
  131.0910  132.4400   56.3180 C   0  0  0  0  0  0  0  0  0  0  0  0
  130.4350  132.4810   57.5470 C   0  0  0  0  0  0  0  0  0  0  0  0
  129.0430  132.4750   57.6100 C   0  0  0  0  0  0  0  0  0  0  0  0
  128.3000  132.4270   56.4330 C   0  0  0  0  0  0  0  0  0  0  0  0
  127.8860  129.2190   56.6380 C   0  0  1  0  0  0  0  0  0  0  0  0
  126.9890  128.7750   57.6540 O   0  0  0  0  0  0  0  0  0  0  0  0
  125.7670  129.4970   57.7560 C   0  0  0  0  0  0  0  0  0  0  0  0
  125.9420  130.6830   58.6930 C   0  0  0  0  0  0  0  0  0  0  0  0
  127.0600  130.7460   59.5320 C   0  0  0  0  0  0  0  0  0  0  0  0
  127.2220  131.8240   60.3980 C   0  0  0  0  0  0  0  0  0  0  0  0
  126.2640  132.8360   60.4270 C   0  0  0  0  0  0  0  0  0  0  0  0
  125.1450  132.7780   59.6010 C   0  0  0  0  0  0  0  0  0  0  0  0
  124.9810  131.6990   58.7360 C   0  0  0  0  0  0  0  0  0  0  0  0
  129.0000  128.1930   56.5390 C   0  0  2  0  0  0  0  0  0  0  0  0
  129.9810  128.4170   57.5480 O   0  0  0  0  0  0  0  0  0  0  0  0
  131.1080  129.1900   57.1510 C   0  0  0  0  0  0  0  0  0  0  0  0
  131.7320  129.8590   58.3660 C   0  0  0  0  0  0  0  0  0  0  0  0
  133.0280  130.3820   58.2940 C   0  0  0  0  0  0  0  0  0  0  0  0
  133.5910  131.0030   59.4060 C   0  0  0  0  0  0  0  0  0  0  0  0
  132.8570  131.1030   60.5860 C   0  0  0  0  0  0  0  0  0  0  0  0
  131.5650  130.5890   60.6640 C   0  0  0  0  0  0  0  0  0  0  0  0
  131.0000  129.9680   59.5520 C   0  0  0  0  0  0  0  0  0  0  0  0
  129.9880  125.4350   56.0270 C   0  0  0  0  0  0  0  0  0  0  0  0
  129.5840  125.3270   57.3670 C   0  0  0  0  0  0  0  0  0  0  0  0
  128.8080  124.2510   57.7880 C   0  0  0  0  0  0  0  0  0  0  0  0
  128.4160  123.2550   56.8830 C   0  0  0  0  0  0  0  0  0  0  0  0
  127.5880  122.1100   57.3320 N   0  0  0  0  0  0  0  0  0  0  0  0
  126.7620  121.6410   56.5550 O   0  0  0  0  0  0  0  0  0  0  0  0
  127.7580  121.6710   58.4660 O   0  0  0  0  0  0  0  0  0  0  0  0
  128.8220  123.3630   55.5470 C   0  0  0  0  0  0  0  0  0  0  0  0
  129.5980  124.4380   55.1240 C   0  0  0  0  0  0  0  0  0  0  0  0
  1  2  2  0
  2  3  1  0
  4  3  1  6
  4  5  1  0
  5  6  1  0
  6  7  1  6
  7  8  1  0
  8  9  1  0
  9 10  1  0
 10 11  2  0
 11 12  1  0
 12 13  2  0
 13 14  1  0
 14 15  2  0
  6 16  1  0
 16 17  1  1
 17 18  1  0
 18 19  1  0
 19 20  2  0
 20 21  1  0
 21 22  2  0
 22 23  1  0
 23 24  2  0
 16 25  1  0
 25 26  1  1
 26 27  1  0
 27 28  1  0
 28 29  2  0
 29 30  1  0
 30 31  2  0
 31 32  1  0
 32 33  2  0
  2 34  1  0
 34 35  2  0
 35 36  1  0
 36 37  2  0
 37 38  1  0
 38 39  2  0
 38 40  1  0
 37 41  1  0
 41 42  2  0
 25  4  1  0
 33 28  1  0
 42 34  1  0
 15 10  1  0
 24 19  1  0
M  CHG  2  38   1  40  -1
M  END
>  <Binding energies>  (55) 
[-9.89]

>  <Ligand effiencies>  (55) 
[-0.23547619047619048]

>  <Interactions>  (55) 
["V-B:PRO:540:N:9853, V-B:TYR:539:CZ:9846, V-B:PRO:540:CA:9852, H-B:TYR:539:N:9839, V-B:TYR:539:CD1:9842, V-B:TYR:539:C:9836, V-B:TYR:539:CE1:9844, V-B:MET:535:CE:9804, V-A:GLU:543:CD:4905, V-A:ASP:366:CB:3208, V-A:ASP:366:CG:3209, V-A:TYR:531:CE1:4789, H-A:TYR:531:OH:4792, H-B:TYR:531:OH:9764, V-A:PRO:540:CB:4882, V-A:TYR:539:CE1:4872, V-A:TYR:539:C:4864, V-A:PRO:540:CA:4880, V-B:TYR:539:CA:9838, V-A:PRO:540:N:4881, H-B:LYS:534:NZ:9792, V-A:TYR:539:CD1:4870, V-A:TYR:531:CZ:4791, V-A:ILE:538:CG2:4860, V-A:ILE:538:CA:4857, V-A:ILE:538:CD1:4862, V-A:TYR:539:CZ:4874, V-B:ASP:366:CB:8180, V-B:TYR:539:CG:9841, V-A:LEU:363:CA:3181, V-A:TYR:539:CD2:4871, V-A:TYR:539:CE2:4873, V-A:TYR:539:CG:4869, V-B:TYR:531:CE1:9761, V-A:ASN:362:CB:3172, V-B:ILE:369:CG2:8205, V-A:ASN:362:C:3168, V-A:PRO:540:CD:4884, V-A:ILE:538:CG1:4861, V-A:ILE:538:CB:4859"]

$$$$
RR8_B_Rahimova_2017
     RDKit          3D

 42 46  0  0  0  0  0  0  0  0999 V2000
  130.5850  132.8960   55.1260 O   0  0  0  0  0  0  0  0  0  0  0  0
  130.0700  132.1940   56.0020 C   0  0  0  0  0  0  0  0  0  0  0  0
  128.8310  131.6230   55.9050 O   0  0  0  0  0  0  0  0  0  0  0  0
  128.6480  130.5890   54.9690 C   0  0  2  0  0  0  0  0  0  0  0  0
  127.3130  130.4860   54.5600 O   0  0  0  0  0  0  0  0  0  0  0  0
  126.5870  129.5660   55.3750 C   0  0  2  0  0  0  0  0  0  0  0  0
  125.3890  130.2850   56.0210 C   0  0  0  0  0  0  0  0  0  0  0  0
  125.5530  130.2920   57.4330 O   0  0  0  0  0  0  0  0  0  0  0  0
  124.5740  131.0330   58.1460 C   0  0  0  0  0  0  0  0  0  0  0  0
  125.2610  131.8900   59.1980 C   0  0  0  0  0  0  0  0  0  0  0  0
  124.4960  132.7020   60.0400 C   0  0  0  0  0  0  0  0  0  0  0  0
  125.1200  133.5070   60.9890 C   0  0  0  0  0  0  0  0  0  0  0  0
  126.5100  133.4970   61.0930 C   0  0  0  0  0  0  0  0  0  0  0  0
  127.2790  132.6860   60.2620 C   0  0  0  0  0  0  0  0  0  0  0  0
  126.6550  131.8820   59.3110 C   0  0  0  0  0  0  0  0  0  0  0  0
  127.6330  129.0190   56.3540 C   0  0  1  0  0  0  0  0  0  0  0  0
  127.3660  127.6410   56.6300 O   0  0  0  0  0  0  0  0  0  0  0  0
  126.6830  127.3430   57.8510 C   0  0  0  0  0  0  0  0  0  0  0  0
  125.9770  125.9910   57.8030 C   0  0  0  0  0  0  0  0  0  0  0  0
  126.5350  124.9350   57.0770 C   0  0  0  0  0  0  0  0  0  0  0  0
  125.9050  123.6930   57.0620 C   0  0  0  0  0  0  0  0  0  0  0  0
  124.7170  123.5140   57.7680 C   0  0  0  0  0  0  0  0  0  0  0  0
  124.1530  124.5640   58.4890 C   0  0  0  0  0  0  0  0  0  0  0  0
  124.7850  125.8050   58.5080 C   0  0  0  0  0  0  0  0  0  0  0  0
  128.9550  129.2450   55.6270 C   0  0  2  0  0  0  0  0  0  0  0  0
  130.0320  129.2940   56.5590 O   0  0  0  0  0  0  0  0  0  0  0  0
  130.1620  128.1630   57.4070 C   0  0  0  0  0  0  0  0  0  0  0  0
  130.8130  127.0450   56.6130 C   0  0  0  0  0  0  0  0  0  0  0  0
  132.1780  127.0920   56.3160 C   0  0  0  0  0  0  0  0  0  0  0  0
  132.7610  126.0710   55.5700 C   0  0  0  0  0  0  0  0  0  0  0  0
  131.9790  125.0080   55.1230 C   0  0  0  0  0  0  0  0  0  0  0  0
  130.6180  124.9540   55.4160 C   0  0  0  0  0  0  0  0  0  0  0  0
  130.0340  125.9740   56.1630 C   0  0  0  0  0  0  0  0  0  0  0  0
  130.7320  131.9050   57.3180 C   0  0  0  0  0  0  0  0  0  0  0  0
  130.0170  131.9130   58.5240 C   0  0  0  0  0  0  0  0  0  0  0  0
  130.6590  131.6500   59.7290 C   0  0  0  0  0  0  0  0  0  0  0  0
  132.0330  131.3820   59.7620 C   0  0  0  0  0  0  0  0  0  0  0  0
  132.7210  131.1280   61.0520 N   0  0  0  0  0  0  0  0  0  0  0  0
  133.5900  130.2610   61.0940 O   0  0  0  0  0  0  0  0  0  0  0  0
  132.4010  131.7970   62.0310 O   0  0  0  0  0  0  0  0  0  0  0  0
  132.7460  131.3680   58.5560 C   0  0  0  0  0  0  0  0  0  0  0  0
  132.1040  131.6240   57.3490 C   0  0  0  0  0  0  0  0  0  0  0  0
  1  2  2  0
  2  3  1  0
  4  3  1  1
  4  5  1  0
  5  6  1  0
  6  7  1  1
  7  8  1  0
  8  9  1  0
  9 10  1  0
 10 11  2  0
 11 12  1  0
 12 13  2  0
 13 14  1  0
 14 15  2  0
  6 16  1  0
 16 17  1  6
 17 18  1  0
 18 19  1  0
 19 20  2  0
 20 21  1  0
 21 22  2  0
 22 23  1  0
 23 24  2  0
 16 25  1  0
 25 26  1  1
 26 27  1  0
 27 28  1  0
 28 29  2  0
 29 30  1  0
 30 31  2  0
 31 32  1  0
 32 33  2  0
  2 34  1  0
 34 35  2  0
 35 36  1  0
 36 37  2  0
 37 38  1  0
 38 39  2  0
 38 40  1  0
 37 41  1  0
 41 42  2  0
 25  4  1  0
 33 28  1  0
 42 34  1  0
 15 10  1  0
 24 19  1  0
M  CHG  2  38   1  40  -1
M  END
>  <Binding energies>  (56) 
[-9.87]

>  <Ligand effiencies>  (56) 
[-0.235]

>  <Interactions>  (56) 
["V-B:PRO:540:CB:9854, V-B:PRO:540:CA:9852, V-B:LEU:363:CD1:8157, V-B:TYR:539:CE1:9844, V-B:MET:535:CE:9804, V-A:GLU:543:CD:4905, V-A:ASP:366:CB:3208, H-A:ARG:545:NH2:4925, V-A:TYR:531:CE1:4789, V-A:ASP:366:C:3204, H-A:TYR:531:OH:4792, V-A:ASN:370:CB:3241, V-B:LEU:363:CA:8153, H-B:TYR:531:OH:9764, V-A:PRO:540:CB:4882, V-A:TYR:539:C:4864, V-A:PRO:540:CA:4880, H-A:TYR:539:N:4867, V-A:LEU:363:CD1:3185, V-A:PRO:540:N:4881, V-A:TYR:531:CZ:4791, V-A:ILE:538:CD1:4862, V-A:TYR:539:CZ:4874, V-B:ASP:366:CB:8180, V-B:TYR:531:CZ:9763, V-A:LEU:363:CA:3181, V-A:TYR:539:CE2:4873, H-A:ALA:541:N:4888, V-B:TYR:531:CE1:9761, V-A:ASN:362:CB:3172, V-B:ASP:366:CG:8181, V-B:ILE:369:CG2:8205, V-B:ILE:369:CD1:8207, H-A:ASN:362:ND2:3175"]

$$$$
RR9_Rahimova_2017
     RDKit          3D

 36 40  0  0  0  0  0  0  0  0999 V2000
  129.8120  126.6440   72.2390 C   0  0  0  0  0  0  0  0  0  0  0  0
  129.2260  127.9500   71.6920 C   0  0  0  0  0  0  0  0  0  0  0  0
  129.9700  128.3390   70.5410 O   0  0  0  0  0  0  0  0  0  0  0  0
  129.8280  127.6230   69.3680 C   0  0  0  0  0  0  0  0  0  0  0  0
  130.6870  127.9600   68.3240 C   0  0  0  0  0  0  0  0  0  0  0  0
  130.6150  127.2950   67.1040 C   0  0  0  0  0  0  0  0  0  0  0  0
  129.6800  126.2710   66.8940 C   0  0  0  0  0  0  0  0  0  0  0  0
  129.5950  125.5540   65.5790 C   0  0  0  0  0  0  0  0  0  0  0  0
  129.2230  126.2190   64.4000 C   0  0  0  0  0  0  0  0  0  0  0  0
  129.1580  125.5450   63.1680 C   0  0  0  0  0  0  0  0  0  0  0  0
  128.8520  126.3350   61.9240 C   0  0  0  0  0  0  0  0  0  0  0  0
  129.7640  126.8090   61.2480 O   0  0  0  0  0  0  0  0  0  0  0  0
  127.5440  126.4930   61.6390 N   0  0  0  0  0  0  0  0  0  0  0  0
  126.9940  127.3250   60.5630 C   0  0  0  0  0  0  0  0  0  0  0  0
  126.7170  126.5320   59.2650 C   0  0  0  0  0  0  0  0  0  0  0  0
  125.5990  125.5010   59.3750 C   0  0  0  0  0  0  0  0  0  0  0  0
  125.6160  124.5550   60.4050 C   0  0  0  0  0  0  0  0  0  0  0  0
  124.5750  123.6370   60.5220 C   0  0  0  0  0  0  0  0  0  0  0  0
  123.5250  123.6650   59.6080 C   0  0  0  0  0  0  0  0  0  0  0  0
  123.5040  124.6010   58.5760 C   0  0  0  0  0  0  0  0  0  0  0  0
  124.5440  125.5210   58.4590 C   0  0  0  0  0  0  0  0  0  0  0  0
  129.4540  124.1600   63.1940 C   0  0  0  0  0  0  0  0  0  0  0  0
  129.5010  123.0410   62.2820 C   0  0  0  0  0  0  0  0  0  0  0  0
  129.1300  122.9780   60.8380 C   0  0  0  0  0  0  0  0  0  0  0  0
  129.7190  123.8550   59.9210 C   0  0  0  0  0  0  0  0  0  0  0  0
  129.3600  123.8060   58.5770 C   0  0  0  0  0  0  0  0  0  0  0  0
  128.4130  122.8770   58.1430 C   0  0  0  0  0  0  0  0  0  0  0  0
  128.0070  122.8350   56.6810 C   0  0  0  0  0  0  0  0  0  0  0  0
  127.8210  122.0010   59.0550 C   0  0  0  0  0  0  0  0  0  0  0  0
  128.1840  122.0500   60.3980 C   0  0  0  0  0  0  0  0  0  0  0  0
  129.9200  121.9600   62.9010 N   0  0  0  0  0  0  0  0  0  0  0  0
  130.1050  122.2680   64.1940 N   0  0  0  0  0  0  0  0  0  0  0  0
  129.8250  123.5920   64.4370 C   0  0  0  0  0  0  0  0  0  0  0  0
  129.9000  124.2260   65.6060 N   0  0  0  0  0  0  0  0  0  0  0  0
  128.8180  125.9390   67.9480 C   0  0  0  0  0  0  0  0  0  0  0  0
  128.8880  126.6030   69.1710 C   0  0  0  0  0  0  0  0  0  0  0  0
  1  2  1  0
  2  3  1  0
  3  4  1  0
  4  5  2  0
  5  6  1  0
  6  7  2  0
  7  8  1  0
  8  9  2  0
  9 10  1  0
 10 11  1  0
 11 12  2  0
 11 13  1  0
 13 14  1  0
 14 15  1  0
 15 16  1  0
 16 17  2  0
 17 18  1  0
 18 19  2  0
 19 20  1  0
 20 21  2  0
 10 22  2  0
 22 23  1  0
 23 24  1  0
 24 25  2  0
 25 26  1  0
 26 27  2  0
 27 28  1  0
 27 29  1  0
 29 30  2  0
 23 31  2  0
 31 32  1  0
 32 33  1  0
 33 34  2  0
  7 35  1  0
 35 36  2  0
 36  4  1  0
 34  8  1  0
 21 16  1  0
 33 22  1  0
 30 24  1  0
M  END
>  <Binding energies>  (57) 
[-8.93]

>  <Ligand effiencies>  (57) 
[-0.235]

>  <Interactions>  (57) 
["V-B:TYR:539:CE2:9845, V-B:PRO:540:N:9853, V-B:PRO:540:CB:9854, V-B:TYR:539:CZ:9846, V-A:LEU:475:CD1:4254, V-B:PRO:540:CA:9852, V-B:TYR:539:CD1:9842, V-B:PRO:540:C:9850, V-B:TYR:539:C:9836, V-B:LEU:363:CD1:8157, V-B:ALA:541:CB:9861, V-B:TYR:539:CE1:9844, V-B:GLU:543:CD:9877, V-A:TYR:484:CE1:4341, V-A:LEU:475:CD2:4255, V-B:GLU:543:CG:9876, H-B:GLU:543:OE2:9879, V-A:GLU:543:CD:4905, V-A:HIS:456:CE1:4066, V-B:GLU:543:CB:9875, H-A:TYR:484:OH:4344, V-B:LEU:363:CA:8153, V-B:ASP:366:CB:8180, V-B:TYR:539:CD2:9843, V-B:ASN:362:C:8140, H-B:GLU:543:OE1:9878, V-B:ASP:366:CG:8181, V-B:HIS:456:CD2:9036, V-A:GLU:543:CB:4903, V-A:GLU:543:C:4899, V-B:HIS:456:CE1:9038, V-B:LEU:363:CB:8155, V-A:HIS:456:CD2:4064"]

$$$$
