1a_Grossjean_2025
     RDKit          3D

 26 27  0  0  0  0  0  0  0  0999 V2000
  132.0820  131.5490   57.1290 C   0  0  0  0  0  0  0  0  0  0  0  0
  131.4830  132.2190   55.8890 C   0  0  0  0  0  0  0  0  0  0  0  0
  130.2940  132.9090   56.2510 O   0  0  0  0  0  0  0  0  0  0  0  0
  129.1090  132.6250   55.6520 C   0  0  0  0  0  0  0  0  0  0  0  0
  128.7060  133.1980   54.6350 O   0  0  0  0  0  0  0  0  0  0  0  0
  128.3280  131.5550   56.3590 C   0  0  0  0  0  0  0  0  0  0  0  0
  127.4840  130.7190   55.6150 C   0  0  0  0  0  0  0  0  0  0  0  0
  126.7450  129.7210   56.2420 C   0  0  0  0  0  0  0  0  0  0  0  0
  126.8300  129.5380   57.6230 C   0  0  0  0  0  0  0  0  0  0  0  0
  126.0360  128.5010   58.1510 N   0  0  0  0  0  0  0  0  0  0  0  0
  126.1200  127.1660   57.9710 C   0  0  0  0  0  0  0  0  0  0  0  0
  126.9560  126.5890   57.2750 O   0  0  0  0  0  0  0  0  0  0  0  0
  125.0700  126.3370   58.7140 C   0  0  0  0  0  0  0  0  0  0  0  0
  124.6680  124.7960   57.8370 S   0  0  0  0  0  0  0  0  0  0  0  0
  126.1360  123.7920   57.8200 C   0  0  0  0  0  0  0  0  0  0  0  0
  126.7430  123.7300   56.6090 N   0  0  0  0  0  0  0  0  0  0  0  0
  127.8680  122.9870   56.4820 C   0  0  0  0  0  0  0  0  0  0  0  0
  128.4840  122.9540   55.0950 C   0  0  0  0  0  0  0  0  0  0  0  0
  128.4350  122.2920   57.5480 C   0  0  0  0  0  0  0  0  0  0  0  0
  127.8290  122.3670   58.8060 C   0  0  0  0  0  0  0  0  0  0  0  0
  128.4760  121.6090   59.9640 C   0  0  0  0  0  0  0  0  0  0  0  0
  126.6540  123.1390   58.9640 C   0  0  0  0  0  0  0  0  0  0  0  0
  126.0300  123.2710   60.2830 C   0  0  0  0  0  0  0  0  0  0  0  0
  125.5380  123.3740   61.3250 N   0  0  0  0  0  0  0  0  0  0  0  0
  127.6790  130.3640   58.3750 C   0  0  0  0  0  0  0  0  0  0  0  0
  128.4170  131.3630   57.7460 C   0  0  0  0  0  0  0  0  0  0  0  0
  1  2  1  0
  2  3  1  0
  3  4  1  0
  4  5  2  0
  4  6  1  0
  6  7  2  0
  7  8  1  0
  8  9  2  0
  9 10  1  0
 10 11  1  0
 11 12  2  0
 11 13  1  0
 13 14  1  0
 14 15  1  0
 15 16  2  0
 16 17  1  0
 17 18  1  0
 17 19  2  0
 19 20  1  0
 20 21  1  0
 20 22  2  0
 22 23  1  0
 23 24  3  0
  9 25  1  0
 25 26  2  0
 26  6  1  0
 22 15  1  0
M  END
>  <Binding energies>  (1) 
[-8.22]

>  <Ligand effiencies>  (1) 
[-0.30444444444444446]

>  <Interactions>  (1) 
["V-B:TYR:539:CE2:9845, V-B:PRO:540:N:9853, V-B:PRO:540:CB:9854, V-B:TYR:539:CZ:9846, H-B:ALA:541:N:9860, V-B:PRO:540:CA:9852, V-B:TYR:539:CD1:9842, V-B:PRO:540:C:9850, V-B:TYR:539:C:9836, V-B:ALA:541:CB:9861, V-B:TYR:539:CE1:9844, V-B:MET:535:CE:9804, H-B:TYR:531:OH:9764, V-A:PRO:540:CB:4882, V-A:TYR:539:C:4864, V-A:PRO:540:CA:4880, H-A:TYR:539:N:4867, V-A:LEU:363:CD1:3185, V-A:PRO:540:N:4881, V-A:ILE:538:CG2:4860, V-A:ILE:538:CD1:4862, V-B:ASP:366:CB:8180, V-B:TYR:539:CG:9841, V-B:TYR:539:CD2:9843, V-A:TYR:539:CD2:4871, V-A:TYR:539:CE2:4873, V-A:TYR:539:CG:4869, H-B:ASP:366:OD1:8182, V-B:ASP:366:CG:8181"]

$$$$
1aa_Ghoteimi_2023
     RDKit          3D

 40 43  0  0  0  0  0  0  0  0999 V2000
  129.4200  123.1410   54.2250 C   0  0  0  0  0  0  0  0  0  0  0  0
  128.0010  122.7050   54.6030 C   0  0  0  0  0  0  0  0  0  0  0  0
  128.0320  122.0270   55.8540 O   0  0  0  0  0  0  0  0  0  0  0  0
  126.9450  122.0060   56.6660 C   0  0  0  0  0  0  0  0  0  0  0  0
  125.8270  121.6330   56.2970 O   0  0  0  0  0  0  0  0  0  0  0  0
  127.2360  122.4800   58.0610 C   0  0  0  0  0  0  0  0  0  0  0  0
  126.4020  123.3950   58.7230 C   0  0  0  0  0  0  0  0  0  0  0  0
  126.6970  123.8170   60.0170 C   0  0  0  0  0  0  0  0  0  0  0  0
  127.8340  123.3270   60.6750 C   0  0  0  0  0  0  0  0  0  0  0  0
  128.2310  123.6820   61.9780 N   0  0  0  0  0  0  0  0  0  0  0  0
  129.3680  124.2690   62.4180 C   0  0  0  0  0  0  0  0  0  0  0  0
  130.3050  124.6170   61.6990 O   0  0  0  0  0  0  0  0  0  0  0  0
  129.4920  124.5170   63.9300 C   0  0  0  0  0  0  0  0  0  0  0  0
  130.0280  125.8220   64.1820 O   0  0  0  0  0  0  0  0  0  0  0  0
  129.3430  126.7170   64.9920 C   0  0  0  0  0  0  0  0  0  0  0  0
  129.5740  126.6740   66.3330 N   0  0  0  0  0  0  0  0  0  0  0  0
  128.9120  127.5250   67.1610 C   0  0  0  0  0  0  0  0  0  0  0  0
  129.2250  127.4150   68.6260 C   0  0  0  0  0  0  0  0  0  0  0  0
  128.3650  126.7310   69.4980 C   0  0  0  0  0  0  0  0  0  0  0  0
  128.6520  126.6300   70.8560 C   0  0  0  0  0  0  0  0  0  0  0  0
  129.8050  127.2050   71.3850 C   0  0  0  0  0  0  0  0  0  0  0  0
  130.0060  127.0540   72.7430 O   0  0  0  0  0  0  0  0  0  0  0  0
  130.1600  125.7450   73.2810 C   0  0  0  0  0  0  0  0  0  0  0  0
  130.6760  127.8870   70.5250 C   0  0  0  0  0  0  0  0  0  0  0  0
  130.3880  127.9860   69.1670 C   0  0  0  0  0  0  0  0  0  0  0  0
  128.0080  128.4610   66.6460 C   0  0  0  0  0  0  0  0  0  0  0  0
  127.7600  128.5350   65.2690 C   0  0  0  0  0  0  0  0  0  0  0  0
  126.7930  129.5620   64.7820 C   0  0  0  0  0  0  0  0  0  0  0  0
  127.2190  130.8720   64.5430 C   0  0  0  0  0  0  0  0  0  0  0  0
  126.3260  131.8340   64.0790 C   0  0  0  0  0  0  0  0  0  0  0  0
  124.9920  131.5060   63.8400 C   0  0  0  0  0  0  0  0  0  0  0  0
  124.1780  132.5240   63.3810 O   0  0  0  0  0  0  0  0  0  0  0  0
  124.2080  132.8690   62.0010 C   0  0  0  0  0  0  0  0  0  0  0  0
  124.5610  130.1910   64.0710 C   0  0  0  0  0  0  0  0  0  0  0  0
  125.4560  129.2310   64.5350 C   0  0  0  0  0  0  0  0  0  0  0  0
  128.4410  127.6310   64.4200 C   0  0  0  0  0  0  0  0  0  0  0  0
  128.2140  127.6030   62.9740 C   0  0  0  0  0  0  0  0  0  0  0  0
  128.0360  127.5790   61.8310 N   0  0  0  0  0  0  0  0  0  0  0  0
  128.6660  122.4190   60.0180 C   0  0  0  0  0  0  0  0  0  0  0  0
  128.3710  121.9990   58.7250 C   0  0  0  0  0  0  0  0  0  0  0  0
  1  2  1  0
  2  3  1  0
  3  4  1  0
  4  5  2  0
  4  6  1  0
  6  7  2  0
  7  8  1  0
  8  9  2  0
  9 10  1  0
 10 11  1  0
 11 12  2  0
 11 13  1  0
 13 14  1  0
 14 15  1  0
 15 16  2  0
 16 17  1  0
 17 18  1  0
 18 19  2  0
 19 20  1  0
 20 21  2  0
 21 22  1  0
 22 23  1  0
 21 24  1  0
 24 25  2  0
 17 26  2  0
 26 27  1  0
 27 28  1  0
 28 29  2  0
 29 30  1  0
 30 31  2  0
 31 32  1  0
 32 33  1  0
 31 34  1  0
 34 35  2  0
 27 36  2  0
 36 37  1  0
 37 38  3  0
  9 39  1  0
 39 40  2  0
 40  6  1  0
 36 15  1  0
 25 18  1  0
 35 28  1  0
M  END
>  <Binding energies>  (2) 
[-10.77]

>  <Ligand effiencies>  (2) 
[-0.2626829268292683]

>  <Interactions>  (2) 
["V-B:TYR:539:CE2:9845, V-B:PRO:540:N:9853, V-B:PRO:540:CB:9854, V-B:TYR:539:CZ:9846, V-B:PRO:540:CA:9852, H-B:TYR:539:N:9839, V-B:TYR:539:CD1:9842, V-B:ILE:538:CA:9829, V-B:TYR:539:C:9836, V-B:ALA:541:CB:9861, V-B:ILE:538:CG2:9832, V-B:TYR:539:CE1:9844, V-B:GLU:543:CD:9877, V-B:ILE:538:CB:9831, V-B:GLU:543:CG:9876, H-B:GLU:543:OE2:9879, V-B:MET:535:CE:9804, V-A:GLU:543:CD:4905, V-A:HIS:456:CE1:4066, V-A:GLU:543:CG:4904, V-B:PRO:540:CD:9856, V-B:TYR:539:CA:9838, V-B:TYR:539:CG:9841, V-B:TYR:539:CD2:9843, V-A:GLU:543:CB:4903, V-A:GLU:543:C:4899, H-A:LYS:547:NZ:4948, V-A:GLY:544:C:4909, V-B:LYS:547:CE:9919, V-B:HIS:456:CE1:9038, V-B:GLY:454:CA:9017, V-B:ARG:545:CZ:9895, V-B:ILE:369:CD1:8207, V-A:HIS:456:CD2:4064, H-B:GLY:454:N:9018"]

$$$$
1b_Grossjean_2025
     RDKit          3D

 25 26  0  0  0  0  0  0  0  0999 V2000
  127.9750  122.0620   58.7260 C   0  0  0  0  0  0  0  0  0  0  0  0
  127.7270  121.6470   57.3900 O   0  0  0  0  0  0  0  0  0  0  0  0
  126.9680  122.4020   56.5540 C   0  0  0  0  0  0  0  0  0  0  0  0
  126.4880  121.9760   55.4990 O   0  0  0  0  0  0  0  0  0  0  0  0
  126.7630  123.8070   57.0450 C   0  0  0  0  0  0  0  0  0  0  0  0
  127.7880  124.7650   57.0030 C   0  0  0  0  0  0  0  0  0  0  0  0
  127.5660  126.0580   57.4670 C   0  0  0  0  0  0  0  0  0  0  0  0
  126.3210  126.4220   57.9790 C   0  0  0  0  0  0  0  0  0  0  0  0
  126.2100  127.7550   58.4200 N   0  0  0  0  0  0  0  0  0  0  0  0
  126.6410  128.9000   57.8470 C   0  0  0  0  0  0  0  0  0  0  0  0
  127.2340  128.9830   56.7720 O   0  0  0  0  0  0  0  0  0  0  0  0
  126.3330  130.1790   58.6270 C   0  0  0  0  0  0  0  0  0  0  0  0
  127.0360  131.6540   57.8310 S   0  0  0  0  0  0  0  0  0  0  0  0
  128.8080  131.4860   57.8730 C   0  0  0  0  0  0  0  0  0  0  0  0
  129.2730  130.8840   58.9960 N   0  0  0  0  0  0  0  0  0  0  0  0
  130.6080  130.7040   59.1310 C   0  0  0  0  0  0  0  0  0  0  0  0
  131.0540  130.0100   60.4050 C   0  0  0  0  0  0  0  0  0  0  0  0
  131.5250  131.1220   58.1690 C   0  0  0  0  0  0  0  0  0  0  0  0
  131.0560  131.7630   57.0180 C   0  0  0  0  0  0  0  0  0  0  0  0
  132.0810  132.2270   55.9840 C   0  0  0  0  0  0  0  0  0  0  0  0
  129.6660  131.9630   56.8540 C   0  0  0  0  0  0  0  0  0  0  0  0
  129.1560  132.6710   55.6780 C   0  0  0  0  0  0  0  0  0  0  0  0
  128.7560  133.2310   54.7480 N   0  0  0  0  0  0  0  0  0  0  0  0
  125.2910  125.4700   58.0240 C   0  0  0  0  0  0  0  0  0  0  0  0
  125.5140  124.1780   57.5600 C   0  0  0  0  0  0  0  0  0  0  0  0
  1  2  1  0
  2  3  1  0
  3  4  2  0
  3  5  1  0
  5  6  2  0
  6  7  1  0
  7  8  2  0
  8  9  1  0
  9 10  1  0
 10 11  2  0
 10 12  1  0
 12 13  1  0
 13 14  1  0
 14 15  2  0
 15 16  1  0
 16 17  1  0
 16 18  2  0
 18 19  1  0
 19 20  1  0
 19 21  2  0
 21 22  1  0
 22 23  3  0
  8 24  1  0
 24 25  2  0
 25  5  1  0
 21 14  1  0
M  END
>  <Binding energies>  (3) 
[-7.93]

>  <Ligand effiencies>  (3) 
[-0.305]

>  <Interactions>  (3) 
["V-B:TYR:539:CE2:9845, V-B:PRO:540:N:9853, V-B:TYR:539:CZ:9846, V-B:PRO:540:CA:9852, H-B:TYR:539:N:9839, V-B:TYR:539:C:9836, V-B:MET:535:CE:9804, H-B:TYR:531:OH:9764, V-B:PRO:540:CD:9856, V-A:PRO:540:CB:4882, V-A:TYR:539:C:4864, V-A:PRO:540:CA:4880, H-A:TYR:539:N:4867, V-A:LEU:363:CD1:3185, V-A:PRO:540:N:4881, V-A:ILE:538:CG2:4860, V-A:ILE:538:CD1:4862, V-B:ASP:366:CB:8180, V-B:TYR:539:CG:9841, V-B:TYR:539:CD2:9843, V-A:TYR:539:CD2:4871, V-A:TYR:539:CE2:4873, V-A:TYR:539:CG:4869, H-B:ASP:366:OD1:8182, V-B:ASP:366:CG:8181, V-A:PRO:540:CD:4884"]

$$$$
1c_Grossjean_2025
     RDKit          3D

 23 24  0  0  0  0  0  0  0  0999 V2000
  127.6050  122.3940   55.3480 C   0  0  0  0  0  0  0  0  0  0  0  0
  126.9290  121.8840   56.4930 O   0  0  0  0  0  0  0  0  0  0  0  0
  127.2410  122.3890   57.7400 C   0  0  0  0  0  0  0  0  0  0  0  0
  126.3450  123.3120   58.2790 C   0  0  0  0  0  0  0  0  0  0  0  0
  126.5710  123.8770   59.5310 C   0  0  0  0  0  0  0  0  0  0  0  0
  127.7080  123.5150   60.2680 C   0  0  0  0  0  0  0  0  0  0  0  0
  128.0380  124.0310   61.5360 N   0  0  0  0  0  0  0  0  0  0  0  0
  129.1050  124.7700   61.9090 C   0  0  0  0  0  0  0  0  0  0  0  0
  130.0050  125.1530   61.1620 O   0  0  0  0  0  0  0  0  0  0  0  0
  129.1540  125.1490   63.3910 C   0  0  0  0  0  0  0  0  0  0  0  0
  130.1270  123.9590   64.3610 S   0  0  0  0  0  0  0  0  0  0  0  0
  130.9890  122.8840   63.2320 C   0  0  0  0  0  0  0  0  0  0  0  0
  130.2370  121.8400   62.8000 N   0  0  0  0  0  0  0  0  0  0  0  0
  130.7870  120.9540   61.9370 C   0  0  0  0  0  0  0  0  0  0  0  0
  129.8830  119.8200   61.4910 C   0  0  0  0  0  0  0  0  0  0  0  0
  132.0990  121.0640   61.4820 C   0  0  0  0  0  0  0  0  0  0  0  0
  132.8910  122.1220   61.9390 C   0  0  0  0  0  0  0  0  0  0  0  0
  134.3310  122.2110   61.4390 C   0  0  0  0  0  0  0  0  0  0  0  0
  132.3380  123.0590   62.8430 C   0  0  0  0  0  0  0  0  0  0  0  0
  133.1690  124.1420   63.3760 C   0  0  0  0  0  0  0  0  0  0  0  0
  133.8250  124.9970   63.7950 N   0  0  0  0  0  0  0  0  0  0  0  0
  128.6130  122.6000   59.7280 C   0  0  0  0  0  0  0  0  0  0  0  0
  128.3830  122.0370   58.4750 C   0  0  0  0  0  0  0  0  0  0  0  0
  1  2  1  0
  2  3  1  0
  3  4  2  0
  4  5  1  0
  5  6  2  0
  6  7  1  0
  7  8  1  0
  8  9  2  0
  8 10  1  0
 10 11  1  0
 11 12  1  0
 12 13  2  0
 13 14  1  0
 14 15  1  0
 14 16  2  0
 16 17  1  0
 17 18  1  0
 17 19  2  0
 19 20  1  0
 20 21  3  0
  6 22  1  0
 22 23  2  0
 23  3  1  0
 19 12  1  0
M  END
>  <Binding energies>  (4) 
[-7.3]

>  <Ligand effiencies>  (4) 
[-0.30416666666666664]

>  <Interactions>  (4) 
["V-B:TYR:539:CE2:9845, V-B:PRO:540:N:9853, V-B:PRO:540:CB:9854, V-B:TYR:539:CZ:9846, V-A:LEU:475:CD1:4254, V-B:PRO:540:CA:9852, H-B:TYR:539:N:9839, V-B:TYR:539:CD1:9842, V-B:ILE:538:CA:9829, V-B:ILE:538:C:9827, V-B:TYR:539:C:9836, V-B:ALA:541:CB:9861, V-B:ILE:538:CG2:9832, V-B:TYR:539:CE1:9844, V-B:GLU:543:CD:9877, V-B:ILE:538:CB:9831, V-B:GLU:543:CG:9876, H-B:GLU:543:OE2:9879, V-B:MET:535:CE:9804, V-A:GLY:454:CA:4045, H-A:ARG:545:NH2:4925, H-A:ARG:545:NH1:4924, H-A:ARG:545:NE:4921, H-A:GLY:454:N:4046, H-A:TYR:484:OH:4344, V-B:TYR:539:CG:9841, V-B:TYR:539:CD2:9843, V-A:ILE:369:CG2:3233, V-A:ILE:369:CG1:3234, V-A:PRO:482:CG:4323"]

$$$$
1d_Grossjean_2025
     RDKit          3D

 21 22  0  0  0  0  0  0  0  0999 V2000
  128.7730  121.6510   59.9140 C   0  0  0  0  0  0  0  0  0  0  0  0
  127.6020  122.4770   59.4200 C   0  0  0  0  0  0  0  0  0  0  0  0
  126.8620  123.2840   60.2820 C   0  0  0  0  0  0  0  0  0  0  0  0
  125.7980  124.0320   59.7690 C   0  0  0  0  0  0  0  0  0  0  0  0
  125.0120  124.9210   60.7310 C   0  0  0  0  0  0  0  0  0  0  0  0
  125.4930  123.9450   58.3910 C   0  0  0  0  0  0  0  0  0  0  0  0
  124.4130  124.7550   57.8220 C   0  0  0  0  0  0  0  0  0  0  0  0
  123.5600  125.3980   57.3760 N   0  0  0  0  0  0  0  0  0  0  0  0
  126.2810  123.0820   57.5940 C   0  0  0  0  0  0  0  0  0  0  0  0
  126.0380  122.8500   55.8470 S   0  0  0  0  0  0  0  0  0  0  0  0
  127.5470  122.0790   55.1870 C   0  0  0  0  0  0  0  0  0  0  0  0
  128.6450  123.1070   54.9100 C   0  0  0  0  0  0  0  0  0  0  0  0
  128.9720  123.3380   53.7460 O   0  0  0  0  0  0  0  0  0  0  0  0
  129.1620  123.7090   56.0030 N   0  0  0  0  0  0  0  0  0  0  0  0
  130.1820  124.6730   56.1040 C   0  0  0  0  0  0  0  0  0  0  0  0
  130.1140  125.5120   57.2200 C   0  0  0  0  0  0  0  0  0  0  0  0
  131.0770  126.4970   57.4190 C   0  0  0  0  0  0  0  0  0  0  0  0
  132.1160  126.6410   56.5030 C   0  0  0  0  0  0  0  0  0  0  0  0
  132.2010  125.8060   55.3910 C   0  0  0  0  0  0  0  0  0  0  0  0
  131.2380  124.8210   55.1890 C   0  0  0  0  0  0  0  0  0  0  0  0
  127.3250  122.3760   58.0980 N   0  0  0  0  0  0  0  0  0  0  0  0
  1  2  1  0
  2  3  2  0
  3  4  1  0
  4  5  1  0
  4  6  2  0
  6  7  1  0
  7  8  3  0
  6  9  1  0
  9 10  1  0
 10 11  1  0
 11 12  1  0
 12 13  2  0
 12 14  1  0
 14 15  1  0
 15 16  2  0
 16 17  1  0
 17 18  2  0
 18 19  1  0
 19 20  2  0
  9 21  2  0
 21  2  1  0
 20 15  1  0
M  END
>  <Binding energies>  (5) 
[-7.17]

>  <Ligand effiencies>  (5) 
[-0.3259090909090909]

>  <Interactions>  (5) 
["V-B:TYR:539:CE2:9845, V-B:PRO:540:N:9853, V-B:PRO:540:CB:9854, V-B:TYR:539:CZ:9846, V-B:PRO:540:CA:9852, V-B:TYR:539:CD1:9842, V-B:ILE:538:CA:9829, V-B:ILE:538:C:9827, V-B:TYR:539:C:9836, V-B:LEU:363:CD1:8157, V-B:ALA:541:CB:9861, V-B:ILE:538:CG2:9832, V-B:TYR:539:CE1:9844, V-B:ILE:538:CB:9831, V-B:MET:535:CE:9804, V-A:ASP:366:CB:3208, V-A:TYR:531:CE1:4789, H-B:TYR:531:OH:9764, V-A:TYR:531:CZ:4791, V-B:TYR:539:CG:9841, V-B:TYR:539:CD2:9843"]

$$$$
1e_Grossjean_2025
     RDKit          3D

 22 23  0  0  0  0  0  0  0  0999 V2000
  124.5410  132.1230   60.2020 C   0  0  0  0  0  0  0  0  0  0  0  0
  124.7300  131.6840   58.7620 C   0  0  0  0  0  0  0  0  0  0  0  0
  123.6410  131.3900   57.9380 C   0  0  0  0  0  0  0  0  0  0  0  0
  123.8930  130.9900   56.6250 C   0  0  0  0  0  0  0  0  0  0  0  0
  125.2100  130.8940   56.1720 C   0  0  0  0  0  0  0  0  0  0  0  0
  126.2550  131.2100   57.0490 C   0  0  0  0  0  0  0  0  0  0  0  0
  127.5600  131.0830   56.5400 N   0  0  0  0  0  0  0  0  0  0  0  0
  127.9610  131.0670   55.2500 C   0  0  0  0  0  0  0  0  0  0  0  0
  127.2120  131.1540   54.2760 O   0  0  0  0  0  0  0  0  0  0  0  0
  129.4650  130.8980   55.0230 C   0  0  0  0  0  0  0  0  0  0  0  0
  130.4220  132.2540   55.7660 S   0  0  0  0  0  0  0  0  0  0  0  0
  130.4760  132.0140   57.5310 C   0  0  0  0  0  0  0  0  0  0  0  0
  129.3870  132.5050   58.1750 N   0  0  0  0  0  0  0  0  0  0  0  0
  129.3160  132.3840   59.5220 C   0  0  0  0  0  0  0  0  0  0  0  0
  128.0680  132.9490   60.1710 C   0  0  0  0  0  0  0  0  0  0  0  0
  130.3220  131.7850   60.2760 C   0  0  0  0  0  0  0  0  0  0  0  0
  131.4600  131.2970   59.6260 C   0  0  0  0  0  0  0  0  0  0  0  0
  132.5570  130.6600   60.4780 C   0  0  0  0  0  0  0  0  0  0  0  0
  131.5580  131.4150   58.2200 C   0  0  0  0  0  0  0  0  0  0  0  0
  132.7680  130.9620   57.5300 C   0  0  0  0  0  0  0  0  0  0  0  0
  133.7250  130.6030   56.9880 N   0  0  0  0  0  0  0  0  0  0  0  0
  126.0160  131.5970   58.3370 N   0  0  0  0  0  0  0  0  0  0  0  0
  1  2  1  0
  2  3  2  0
  3  4  1  0
  4  5  2  0
  5  6  1  0
  6  7  1  0
  7  8  1  0
  8  9  2  0
  8 10  1  0
 10 11  1  0
 11 12  1  0
 12 13  2  0
 13 14  1  0
 14 15  1  0
 14 16  2  0
 16 17  1  0
 17 18  1  0
 17 19  2  0
 19 20  1  0
 20 21  3  0
  6 22  2  0
 22  2  1  0
 19 12  1  0
M  END
>  <Binding energies>  (6) 
[-7.01]

>  <Ligand effiencies>  (6) 
[-0.30478260869565216]

>  <Interactions>  (6) 
["H-A:TYR:531:OH:4792, H-A:TYR:539:OH:4875, V-A:PRO:540:CB:4882, V-A:TYR:539:C:4864, V-A:PRO:540:CA:4880, H-A:TYR:539:N:4867, V-A:LEU:363:CD1:3185, V-A:PRO:540:N:4881, H-B:LYS:534:NZ:9792, V-A:ILE:538:CD1:4862, V-A:TYR:539:CZ:4874, V-B:ASP:366:CB:8180, V-B:TYR:531:CZ:9763, V-A:LEU:363:CA:3181, V-A:TYR:539:CE2:4873, V-B:TYR:531:CE1:9761, V-A:ASN:362:CB:3172, V-B:ASP:366:CG:8181, V-B:ILE:369:CG2:8205, V-B:ILE:369:CD1:8207, V-B:ASP:366:CA:8178, V-B:ILE:369:CB:8204, V-B:ASP:366:C:8176"]

$$$$
1f_Grossjean_2025
     RDKit          3D

 21 22  0  0  0  0  0  0  0  0999 V2000
  124.1900  131.3500   57.1090 C   0  0  0  0  0  0  0  0  0  0  0  0
  125.4230  130.5250   56.7930 C   0  0  0  0  0  0  0  0  0  0  0  0
  125.9010  129.5590   57.6750 C   0  0  0  0  0  0  0  0  0  0  0  0
  127.0510  128.8380   57.3340 C   0  0  0  0  0  0  0  0  0  0  0  0
  127.5670  127.7980   58.3260 C   0  0  0  0  0  0  0  0  0  0  0  0
  127.6920  129.1010   56.1020 C   0  0  0  0  0  0  0  0  0  0  0  0
  128.9290  128.3950   55.7530 C   0  0  0  0  0  0  0  0  0  0  0  0
  129.9040  127.8370   55.4790 N   0  0  0  0  0  0  0  0  0  0  0  0
  127.1210  130.0790   55.2550 C   0  0  0  0  0  0  0  0  0  0  0  0
  127.7870  130.5430   53.6690 S   0  0  0  0  0  0  0  0  0  0  0  0
  128.7090  132.1060   53.8670 C   0  0  0  0  0  0  0  0  0  0  0  0
  129.4010  132.2810   55.2270 C   0  0  0  0  0  0  0  0  0  0  0  0
  129.1280  133.2420   55.9480 O   0  0  0  0  0  0  0  0  0  0  0  0
  130.3140  131.3300   55.5190 N   0  0  0  0  0  0  0  0  0  0  0  0
  131.1180  131.1780   56.6640 C   0  0  0  0  0  0  0  0  0  0  0  0
  130.6570  130.8370   57.9500 C   0  0  0  0  0  0  0  0  0  0  0  0
  131.5700  130.7150   59.0010 C   0  0  0  0  0  0  0  0  0  0  0  0
  132.9230  130.9330   58.7410 C   0  0  0  0  0  0  0  0  0  0  0  0
  133.3930  131.2570   57.5100 N   0  0  0  0  0  0  0  0  0  0  0  0
  132.4940  131.3730   56.4990 C   0  0  0  0  0  0  0  0  0  0  0  0
  126.0190  130.7900   55.6060 N   0  0  0  0  0  0  0  0  0  0  0  0
  1  2  1  0
  2  3  2  0
  3  4  1  0
  4  5  1  0
  4  6  2  0
  6  7  1  0
  7  8  3  0
  6  9  1  0
  9 10  1  0
 10 11  1  0
 11 12  1  0
 12 13  2  0
 12 14  1  0
 14 15  1  0
 15 16  2  0
 16 17  1  0
 17 18  2  0
 18 19  1  0
 19 20  2  0
  9 21  2  0
 21  2  1  0
 20 15  1  0
M  END
>  <Binding energies>  (7) 
[-6.91]

>  <Ligand effiencies>  (7) 
[-0.3140909090909091]

>  <Interactions>  (7) 
["V-B:MET:535:CE:9804, H-A:TYR:531:OH:4792, H-B:TYR:531:OH:9764, H-A:TYR:539:OH:4875, V-A:PRO:540:CB:4882, V-A:TYR:539:CE1:4872, V-A:PRO:540:CA:4880, H-A:TYR:539:N:4867, V-A:LEU:363:CD1:3185, H-B:LYS:534:NZ:9792, V-A:TYR:531:CZ:4791, V-A:ILE:538:CA:4857, V-A:ILE:538:CD1:4862, V-A:TYR:531:CE2:4790, V-A:TYR:539:CZ:4874, V-B:ASP:366:CB:8180, V-B:TYR:531:CZ:9763, V-A:LEU:363:CA:3181, V-A:TYR:539:CE2:4873, V-B:TYR:531:CE1:9761, V-B:ILE:369:CG2:8205, V-B:ASP:366:C:8176"]

$$$$
1g_Grossjean_2025
     RDKit          3D

 22 23  0  0  0  0  0  0  0  0999 V2000
  123.8760  131.5490   57.0710 C   0  0  0  0  0  0  0  0  0  0  0  0
  125.1150  130.7060   56.8330 C   0  0  0  0  0  0  0  0  0  0  0  0
  125.6300  129.8700   57.8220 C   0  0  0  0  0  0  0  0  0  0  0  0
  126.7840  129.1280   57.5500 C   0  0  0  0  0  0  0  0  0  0  0  0
  127.3400  128.2300   58.6560 C   0  0  0  0  0  0  0  0  0  0  0  0
  127.3940  129.2360   56.2800 C   0  0  0  0  0  0  0  0  0  0  0  0
  128.6320  128.5090   55.9910 C   0  0  0  0  0  0  0  0  0  0  0  0
  129.6110  127.9340   55.7660 N   0  0  0  0  0  0  0  0  0  0  0  0
  126.7870  130.0890   55.3280 C   0  0  0  0  0  0  0  0  0  0  0  0
  127.4140  130.3360   53.6820 S   0  0  0  0  0  0  0  0  0  0  0  0
  128.8720  131.4120   53.8150 C   0  0  0  0  0  0  0  0  0  0  0  0
  128.9840  132.0580   55.1970 C   0  0  0  0  0  0  0  0  0  0  0  0
  128.6610  133.2360   55.3550 O   0  0  0  0  0  0  0  0  0  0  0  0
  129.4480  131.2730   56.1840 N   0  0  0  0  0  0  0  0  0  0  0  0
  129.5810  131.6650   57.5870 C   0  0  0  0  0  0  0  0  0  0  0  0
  130.9630  131.4110   58.1820 C   0  0  0  0  0  0  0  0  0  0  0  0
  132.0640  131.2350   57.3380 C   0  0  0  0  0  0  0  0  0  0  0  0
  133.3260  131.0050   57.8800 C   0  0  0  0  0  0  0  0  0  0  0  0
  133.4830  130.9560   59.2650 C   0  0  0  0  0  0  0  0  0  0  0  0
  132.3910  131.1360   60.1100 C   0  0  0  0  0  0  0  0  0  0  0  0
  131.1290  131.3650   59.5690 C   0  0  0  0  0  0  0  0  0  0  0  0
  125.6800  130.8230   55.6080 N   0  0  0  0  0  0  0  0  0  0  0  0
  1  2  1  0
  2  3  2  0
  3  4  1  0
  4  5  1  0
  4  6  2  0
  6  7  1  0
  7  8  3  0
  6  9  1  0
  9 10  1  0
 10 11  1  0
 11 12  1  0
 12 13  2  0
 12 14  1  0
 14 15  1  0
 15 16  1  0
 16 17  2  0
 17 18  1  0
 18 19  2  0
 19 20  1  0
 20 21  2  0
  9 22  2  0
 22  2  1  0
 21 16  1  0
M  END
>  <Binding energies>  (8) 
[-6.8]

>  <Ligand effiencies>  (8) 
[-0.2956521739130435]

>  <Interactions>  (8) 
["V-B:MET:535:CE:9804, V-A:ASP:366:CG:3209, H-A:TYR:531:OH:4792, H-B:TYR:531:OH:9764, H-A:TYR:539:OH:4875, V-A:PRO:540:CB:4882, V-A:PRO:540:CA:4880, H-A:TYR:539:N:4867, V-A:LEU:363:CD1:3185, H-B:LYS:534:NZ:9792, V-A:ILE:538:CD1:4862, V-A:TYR:539:CZ:4874, V-B:ASP:366:CB:8180, V-B:TYR:531:CZ:9763, V-A:LEU:363:CA:3181, V-A:LEU:363:CB:3183, V-A:TYR:539:CE2:4873, V-B:TYR:531:CE1:9761, V-B:ASP:366:CG:8181, V-B:ILE:369:CG2:8205, V-A:ASN:362:C:3168, V-B:ILE:369:CB:8204, V-B:ASP:366:C:8176"]

$$$$
1h_Grossjean_2025
     RDKit          3D

 28 29  0  0  0  0  0  0  0  0999 V2000
  128.4520  122.7300   54.3330 C   0  0  0  0  0  0  0  0  0  0  0  0
  128.1410  122.0300   55.5320 O   0  0  0  0  0  0  0  0  0  0  0  0
  128.0650  122.7280   56.7240 C   0  0  0  0  0  0  0  0  0  0  0  0
  129.0950  123.5380   57.2260 C   0  0  0  0  0  0  0  0  0  0  0  0
  128.9530  124.2030   58.4440 C   0  0  0  0  0  0  0  0  0  0  0  0
  130.0720  125.0980   58.9670 C   0  0  0  0  0  0  0  0  0  0  0  0
  131.3890  124.4610   58.9770 N   0  0  0  0  0  0  0  0  0  0  0  0
  132.2830  124.5400   59.9780 C   0  0  0  0  0  0  0  0  0  0  0  0
  132.0790  125.1460   61.0300 O   0  0  0  0  0  0  0  0  0  0  0  0
  133.6180  123.8270   59.7580 C   0  0  0  0  0  0  0  0  0  0  0  0
  133.9700  122.6200   61.0710 S   0  0  0  0  0  0  0  0  0  0  0  0
  132.4570  122.3220   61.9700 C   0  0  0  0  0  0  0  0  0  0  0  0
  131.6630  121.3350   61.4780 N   0  0  0  0  0  0  0  0  0  0  0  0
  130.5020  121.0540   62.1140 C   0  0  0  0  0  0  0  0  0  0  0  0
  129.6730  119.9380   61.5070 C   0  0  0  0  0  0  0  0  0  0  0  0
  130.0840  121.7370   63.2540 C   0  0  0  0  0  0  0  0  0  0  0  0
  130.8920  122.7570   63.7700 C   0  0  0  0  0  0  0  0  0  0  0  0
  130.4160  123.4910   65.0210 C   0  0  0  0  0  0  0  0  0  0  0  0
  132.1090  123.0670   63.1210 C   0  0  0  0  0  0  0  0  0  0  0  0
  132.9740  124.1310   63.6370 C   0  0  0  0  0  0  0  0  0  0  0  0
  133.6560  124.9730   64.0450 N   0  0  0  0  0  0  0  0  0  0  0  0
  127.7570  124.0900   59.1550 C   0  0  0  0  0  0  0  0  0  0  0  0
  126.7080  123.2910   58.6750 C   0  0  0  0  0  0  0  0  0  0  0  0
  125.4980  123.1310   59.3260 O   0  0  0  0  0  0  0  0  0  0  0  0
  125.1290  124.0490   60.3500 C   0  0  0  0  0  0  0  0  0  0  0  0
  126.8780  122.6060   57.4630 C   0  0  0  0  0  0  0  0  0  0  0  0
  125.8570  121.8250   56.9770 O   0  0  0  0  0  0  0  0  0  0  0  0
  125.0240  122.4840   56.0330 C   0  0  0  0  0  0  0  0  0  0  0  0
  1  2  1  0
  2  3  1  0
  3  4  2  0
  4  5  1  0
  5  6  1  0
  6  7  1  0
  7  8  1  0
  8  9  2  0
  8 10  1  0
 10 11  1  0
 11 12  1  0
 12 13  2  0
 13 14  1  0
 14 15  1  0
 14 16  2  0
 16 17  1  0
 17 18  1  0
 17 19  2  0
 19 20  1  0
 20 21  3  0
  5 22  2  0
 22 23  1  0
 23 24  1  0
 24 25  1  0
 23 26  2  0
 26 27  1  0
 27 28  1  0
 26  3  1  0
 19 12  1  0
M  END
>  <Binding energies>  (9) 
[-7.43]

>  <Ligand effiencies>  (9) 
[-0.25620689655172413]

>  <Interactions>  (9) 
["V-B:TYR:539:CE2:9845, V-B:PRO:540:N:9853, V-B:PRO:540:CB:9854, V-B:TYR:539:CZ:9846, V-A:TYR:484:CZ:4343, V-A:LEU:475:CD1:4254, V-B:PRO:540:CA:9852, H-B:TYR:539:N:9839, V-B:TYR:539:CD1:9842, V-B:ILE:538:CA:9829, V-B:TYR:539:C:9836, V-B:LEU:363:CD1:8157, V-B:ALA:541:CB:9861, V-B:ILE:538:CG2:9832, V-B:TYR:539:CE1:9844, V-A:TYR:484:CE1:4341, V-B:ILE:538:CB:9831, V-A:LEU:475:CD2:4255, V-B:GLU:543:CG:9876, V-B:MET:535:CE:9804, V-A:GLY:454:CA:4045, V-A:ASP:366:CB:3208, H-A:ARG:545:NH2:4925, H-A:ARG:545:NH1:4924, H-B:TYR:539:OH:9847, H-A:ARG:545:NE:4921, V-A:ASP:366:CG:3209, H-A:GLY:454:N:4046, V-B:PRO:540:CD:9856, V-B:TYR:539:CD2:9843, V-A:ILE:369:CB:3232, V-B:ALA:541:CA:9859, V-A:ASP:366:CA:3206, V-B:PRO:540:CG:9855, V-A:PRO:482:CG:4323"]

$$$$
1i_Grossjean_2025
     RDKit          3D

 20 21  0  0  0  0  0  0  0  0999 V2000
  128.0010  122.6770   55.1300 C   0  0  0  0  0  0  0  0  0  0  0  0
  127.3820  122.8360   56.5060 C   0  0  0  0  0  0  0  0  0  0  0  0
  126.1050  123.3650   56.6740 C   0  0  0  0  0  0  0  0  0  0  0  0
  125.5810  123.4790   57.9670 C   0  0  0  0  0  0  0  0  0  0  0  0
  124.1720  124.0470   58.1250 C   0  0  0  0  0  0  0  0  0  0  0  0
  126.3620  123.0600   59.0690 C   0  0  0  0  0  0  0  0  0  0  0  0
  125.8140  123.1230   60.4260 C   0  0  0  0  0  0  0  0  0  0  0  0
  125.3780  123.1730   61.4970 N   0  0  0  0  0  0  0  0  0  0  0  0
  127.6580  122.5570   58.8050 C   0  0  0  0  0  0  0  0  0  0  0  0
  128.7740  121.9880   60.0690 S   0  0  0  0  0  0  0  0  0  0  0  0
  130.1680  123.1530   60.1360 C   0  0  0  0  0  0  0  0  0  0  0  0
  130.7910  123.2240   61.5330 C   0  0  0  0  0  0  0  0  0  0  0  0
  130.4450  122.4110   62.3900 O   0  0  0  0  0  0  0  0  0  0  0  0
  131.7020  124.2050   61.7140 N   0  0  0  0  0  0  0  0  0  0  0  0
  132.4080  124.4930   62.8730 C   0  0  0  0  0  0  0  0  0  0  0  0
  131.7900  124.7720   64.0910 C   0  0  0  0  0  0  0  0  0  0  0  0
  132.8210  124.9990   64.9720 C   0  0  0  0  0  0  0  0  0  0  0  0
  134.0000  124.8670   64.3190 O   0  0  0  0  0  0  0  0  0  0  0  0
  133.7250  124.5480   62.9880 N   0  0  0  0  0  0  0  0  0  0  0  0
  128.1490  122.4330   57.5460 N   0  0  0  0  0  0  0  0  0  0  0  0
  1  2  1  0
  2  3  2  0
  3  4  1  0
  4  5  1  0
  4  6  2  0
  6  7  1  0
  7  8  3  0
  6  9  1  0
  9 10  1  0
 10 11  1  0
 11 12  1  0
 12 13  2  0
 12 14  1  0
 14 15  1  0
 15 16  1  0
 16 17  2  0
 17 18  1  0
 18 19  1  0
  9 20  2  0
 20  2  1  0
 19 15  2  0
M  END
>  <Binding energies>  (10) 
[-7.37]

>  <Ligand effiencies>  (10) 
[-0.35095238095238096]

>  <Interactions>  (10) 
["V-B:TYR:539:CE2:9845, V-B:PRO:540:N:9853, V-B:PRO:540:CB:9854, V-B:TYR:539:CZ:9846, H-B:ALA:541:N:9860, V-B:PRO:540:CA:9852, V-B:TYR:539:CD1:9842, V-B:ILE:538:CA:9829, V-B:PRO:540:C:9850, V-B:TYR:539:C:9836, V-B:LEU:363:CD1:8157, V-B:ILE:538:CG2:9832, V-B:TYR:539:CE1:9844, V-B:ILE:538:CB:9831, V-B:MET:535:CE:9804, V-A:ARG:545:CZ:4923, V-A:HIS:456:CE1:4066, H-A:ARG:545:NH1:4924, H-A:ARG:545:NE:4921, H-A:GLY:454:N:4046, V-B:LEU:363:CA:8153, H-A:ASP:366:OD1:3210, H-A:ASP:366:OD2:3211"]

$$$$
1k_Grossjean_2025
     RDKit          3D

 25 25  0  0  0  0  0  0  0  0999 V2000
  127.6200  122.5030   57.1810 C   0  0  0  0  0  0  0  0  0  0  0  0
  127.5120  121.9830   55.8650 O   0  0  0  0  0  0  0  0  0  0  0  0
  128.1690  122.7790   54.8870 C   0  0  0  0  0  0  0  0  0  0  0  0
  129.1230  123.7600   55.5810 C   0  0  0  0  0  0  0  0  0  0  0  0
  129.8100  124.5260   54.5990 O   0  0  0  0  0  0  0  0  0  0  0  0
  131.2210  124.5420   54.7710 C   0  0  0  0  0  0  0  0  0  0  0  0
  131.6680  125.9520   55.1760 C   0  0  0  0  0  0  0  0  0  0  0  0
  130.6290  126.8800   54.8900 O   0  0  0  0  0  0  0  0  0  0  0  0
  129.7840  127.1510   56.0000 C   0  0  0  0  0  0  0  0  0  0  0  0
  130.1840  128.4950   56.6380 C   0  0  0  0  0  0  0  0  0  0  0  0
  129.8890  129.6610   55.8040 N   0  0  0  0  0  0  0  0  0  0  0  0
  128.6720  129.9970   55.3430 C   0  0  0  0  0  0  0  0  0  0  0  0
  127.6560  129.3430   55.5870 O   0  0  0  0  0  0  0  0  0  0  0  0
  128.6180  131.2630   54.4730 C   0  0  0  0  0  0  0  0  0  0  0  0
  128.8840  132.8400   55.3560 S   0  0  0  0  0  0  0  0  0  0  0  0
  129.1730  132.5020   57.0870 C   0  0  0  0  0  0  0  0  0  0  0  0
  128.1120  132.6920   57.9140 N   0  0  0  0  0  0  0  0  0  0  0  0
  128.2650  132.4640   59.2380 C   0  0  0  0  0  0  0  0  0  0  0  0
  127.0380  132.7080   60.0950 C   0  0  0  0  0  0  0  0  0  0  0  0
  129.4680  132.0320   59.7920 C   0  0  0  0  0  0  0  0  0  0  0  0
  130.5660  131.8240   58.9510 C   0  0  0  0  0  0  0  0  0  0  0  0
  131.8760  131.3510   59.5780 C   0  0  0  0  0  0  0  0  0  0  0  0
  130.4290  132.0610   57.5650 C   0  0  0  0  0  0  0  0  0  0  0  0
  131.5640  131.8560   56.6610 C   0  0  0  0  0  0  0  0  0  0  0  0
  132.4610  131.6940   55.9480 N   0  0  0  0  0  0  0  0  0  0  0  0
  1  2  1  0
  2  3  1  0
  3  4  1  0
  4  5  1  0
  5  6  1  0
  6  7  1  0
  7  8  1  0
  8  9  1  0
  9 10  1  0
 10 11  1  0
 11 12  1  0
 12 13  2  0
 12 14  1  0
 14 15  1  0
 15 16  1  0
 16 17  2  0
 17 18  1  0
 18 19  1  0
 18 20  2  0
 20 21  1  0
 21 22  1  0
 21 23  2  0
 23 24  1  0
 24 25  3  0
 23 16  1  0
M  END
>  <Binding energies>  (11) 
[-6.09]

>  <Ligand effiencies>  (11) 
[-0.23423076923076921]

>  <Interactions>  (11) 
["V-B:PRO:540:N:9853, V-B:TYR:539:CZ:9846, V-B:PRO:540:CA:9852, H-B:TYR:539:N:9839, V-B:TYR:539:CD1:9842, V-B:ILE:538:CA:9829, V-B:TYR:539:C:9836, V-B:ILE:538:CG2:9832, V-B:TYR:539:CE1:9844, V-B:ILE:538:CB:9831, V-B:MET:535:CE:9804, V-A:TYR:531:CE1:4789, H-A:TYR:531:OH:4792, H-B:TYR:531:OH:9764, V-A:PRO:540:CB:4882, V-A:TYR:539:C:4864, V-A:PRO:540:CA:4880, H-A:TYR:539:N:4867, V-A:PRO:540:N:4881, V-A:TYR:531:CZ:4791, V-A:ILE:538:CD1:4862, V-A:TYR:539:CD2:4871, V-A:TYR:539:CE2:4873"]

$$$$
1l_Grossjean_2025
     RDKit          3D

 17 17  0  0  0  0  0  0  0  0999 V2000
  125.3880  130.3300   57.0030 C   0  0  0  0  0  0  0  0  0  0  0  0
  126.3860  130.1450   56.0100 O   0  0  0  0  0  0  0  0  0  0  0  0
  127.2330  131.2520   55.9760 N   0  0  0  0  0  0  0  0  0  0  0  0
  127.6140  131.7470   54.7830 C   0  0  0  0  0  0  0  0  0  0  0  0
  127.0880  131.4320   53.7120 O   0  0  0  0  0  0  0  0  0  0  0  0
  128.7620  132.7650   54.8360 C   0  0  0  0  0  0  0  0  0  0  0  0
  130.3370  132.1190   55.4970 S   0  0  0  0  0  0  0  0  0  0  0  0
  130.1930  132.0170   57.2730 C   0  0  0  0  0  0  0  0  0  0  0  0
  129.0170  132.4500   57.7960 N   0  0  0  0  0  0  0  0  0  0  0  0
  128.8410  132.4020   59.1370 C   0  0  0  0  0  0  0  0  0  0  0  0
  127.5020  132.9030   59.6450 C   0  0  0  0  0  0  0  0  0  0  0  0
  129.8190  131.9250   60.0070 C   0  0  0  0  0  0  0  0  0  0  0  0
  131.0340  131.4740   59.4800 C   0  0  0  0  0  0  0  0  0  0  0  0
  132.0920  130.9540   60.4520 C   0  0  0  0  0  0  0  0  0  0  0  0
  131.2390  131.5160   58.0830 C   0  0  0  0  0  0  0  0  0  0  0  0
  132.5030  131.0510   57.5040 C   0  0  0  0  0  0  0  0  0  0  0  0
  133.5000  130.6830   57.0480 N   0  0  0  0  0  0  0  0  0  0  0  0
  1  2  1  0
  2  3  1  0
  3  4  1  0
  4  5  2  0
  4  6  1  0
  6  7  1  0
  7  8  1  0
  8  9  2  0
  9 10  1  0
 10 11  1  0
 10 12  2  0
 12 13  1  0
 13 14  1  0
 13 15  2  0
 15 16  1  0
 16 17  3  0
 15  8  1  0
M  END
>  <Binding energies>  (12) 
[-5.68]

>  <Ligand effiencies>  (12) 
[-0.31555555555555553]

>  <Interactions>  (12) 
["H-A:TYR:531:OH:4792, H-B:TYR:531:OH:9764, H-A:TYR:539:OH:4875, V-A:PRO:540:CB:4882, V-A:TYR:539:CE1:4872, V-A:TYR:539:C:4864, V-A:PRO:540:CA:4880, V-A:LEU:363:CD1:3185, V-A:PRO:540:N:4881, H-B:LYS:534:NZ:9792, V-A:TYR:539:CD1:4870, V-A:ILE:538:CA:4857, V-A:ILE:538:CD1:4862, V-A:TYR:539:CZ:4874, V-B:TYR:531:CZ:9763, V-A:ILE:538:C:4855, V-A:TYR:539:CD2:4871, V-A:TYR:539:CE2:4873, V-A:TYR:539:CG:4869"]

$$$$
1m_Grossjean_2025
     RDKit          3D

 20 20  0  0  0  0  0  0  0  0999 V2000
  124.2990  132.4390   62.9440 C   0  0  0  0  0  0  0  0  0  0  0  0
  123.9280  131.0680   62.9140 O   0  0  0  0  0  0  0  0  0  0  0  0
  124.4170  130.2050   63.8280 C   0  0  0  0  0  0  0  0  0  0  0  0
  123.8580  129.8820   64.8800 O   0  0  0  0  0  0  0  0  0  0  0  0
  125.7870  129.6410   63.3970 C   0  0  0  0  0  0  0  0  0  0  0  0
  126.1530  130.0200   62.0240 N   0  0  0  0  0  0  0  0  0  0  0  0
  127.1400  130.8680   61.6790 C   0  0  0  0  0  0  0  0  0  0  0  0
  127.8500  131.4440   62.5060 O   0  0  0  0  0  0  0  0  0  0  0  0
  127.3280  131.0860   60.1720 C   0  0  0  0  0  0  0  0  0  0  0  0
  128.2650  132.5900   59.7310 S   0  0  0  0  0  0  0  0  0  0  0  0
  129.9310  132.1030   59.3340 C   0  0  0  0  0  0  0  0  0  0  0  0
  130.6740  131.7740   60.4220 N   0  0  0  0  0  0  0  0  0  0  0  0
  131.9560  131.3820   60.2400 C   0  0  0  0  0  0  0  0  0  0  0  0
  132.7170  131.0120   61.4990 C   0  0  0  0  0  0  0  0  0  0  0  0
  132.5510  131.3130   58.9820 C   0  0  0  0  0  0  0  0  0  0  0  0
  131.8030  131.6750   57.8560 C   0  0  0  0  0  0  0  0  0  0  0  0
  132.4800  131.6070   56.4890 C   0  0  0  0  0  0  0  0  0  0  0  0
  130.4610  132.0890   58.0210 C   0  0  0  0  0  0  0  0  0  0  0  0
  129.6760  132.5190   56.8620 C   0  0  0  0  0  0  0  0  0  0  0  0
  129.0560  132.8590   55.9460 N   0  0  0  0  0  0  0  0  0  0  0  0
  1  2  1  0
  2  3  1  0
  3  4  2  0
  3  5  1  0
  5  6  1  0
  6  7  1  0
  7  8  2  0
  7  9  1  0
  9 10  1  0
 10 11  1  0
 11 12  2  0
 12 13  1  0
 13 14  1  0
 13 15  2  0
 15 16  1  0
 16 17  1  0
 16 18  2  0
 18 19  1  0
 19 20  3  0
 18 11  1  0
M  END
>  <Binding energies>  (13) 
[-6.34]

>  <Ligand effiencies>  (13) 
[-0.3019047619047619]

>  <Interactions>  (13) 
["V-A:GLU:543:CD:4905, V-A:PRO:540:CB:4882, V-A:TYR:539:C:4864, V-A:PRO:540:CA:4880, H-A:TYR:539:N:4867, V-A:LEU:363:CD1:3185, V-A:PRO:540:N:4881, H-A:ALA:541:N:4888, V-A:ASN:362:CB:3172, H-B:ASP:366:OD1:8182, V-B:ASP:366:CG:8181, H-B:ASP:366:OD2:8183, V-B:GLY:454:CA:9017, V-B:ARG:545:CZ:9895, V-B:ILE:369:CD1:8207, H-B:GLY:454:N:9018, H-B:TYR:484:OH:9316, H-B:ARG:545:NE:9893, H-B:ARG:545:NH1:9896"]

$$$$
1n_Grossjean_2025
     RDKit          3D

 27 28  0  0  0  0  0  0  0  0999 V2000
  132.1610  132.4940   56.2630 C   0  0  0  0  0  0  0  0  0  0  0  0
  130.7080  132.1570   56.6120 C   0  0  0  0  0  0  0  0  0  0  0  0
  129.8360  132.9910   55.8590 O   0  0  0  0  0  0  0  0  0  0  0  0
  128.7230  132.4870   55.2660 C   0  0  0  0  0  0  0  0  0  0  0  0
  128.2940  132.8840   54.1790 O   0  0  0  0  0  0  0  0  0  0  0  0
  128.0740  131.3890   56.0580 C   0  0  0  0  0  0  0  0  0  0  0  0
  127.9080  130.0960   55.5380 C   0  0  0  0  0  0  0  0  0  0  0  0
  127.2990  129.1020   56.2980 C   0  0  0  0  0  0  0  0  0  0  0  0
  126.8390  129.3780   57.5860 C   0  0  0  0  0  0  0  0  0  0  0  0
  126.2350  128.3010   58.2640 N   0  0  0  0  0  0  0  0  0  0  0  0
  126.6560  127.0260   58.4090 C   0  0  0  0  0  0  0  0  0  0  0  0
  127.7030  126.5640   57.9530 O   0  0  0  0  0  0  0  0  0  0  0  0
  125.7290  126.1090   59.2160 C   0  0  0  0  0  0  0  0  0  0  0  0
  124.3820  125.8360   58.5120 C   0  0  0  0  0  0  0  0  0  0  0  0
  124.2340  124.1760   57.7850 S   0  0  0  0  0  0  0  0  0  0  0  0
  125.8610  123.4560   57.7500 C   0  0  0  0  0  0  0  0  0  0  0  0
  126.3730  123.3310   56.4990 N   0  0  0  0  0  0  0  0  0  0  0  0
  127.6130  122.8100   56.3530 C   0  0  0  0  0  0  0  0  0  0  0  0
  128.1230  122.7120   54.9280 C   0  0  0  0  0  0  0  0  0  0  0  0
  128.3850  122.3900   57.4340 C   0  0  0  0  0  0  0  0  0  0  0  0
  127.8580  122.4940   58.7260 C   0  0  0  0  0  0  0  0  0  0  0  0
  128.7170  122.0150   59.8940 C   0  0  0  0  0  0  0  0  0  0  0  0
  126.5630  123.0310   58.9030 C   0  0  0  0  0  0  0  0  0  0  0  0
  125.9720  123.1020   60.2400 C   0  0  0  0  0  0  0  0  0  0  0  0
  125.5060  123.1570   61.2980 N   0  0  0  0  0  0  0  0  0  0  0  0
  127.0110  130.6640   58.1170 C   0  0  0  0  0  0  0  0  0  0  0  0
  127.6230  131.6570   57.3560 C   0  0  0  0  0  0  0  0  0  0  0  0
  1  2  1  0
  2  3  1  0
  3  4  1  0
  4  5  2  0
  4  6  1  0
  6  7  2  0
  7  8  1  0
  8  9  2  0
  9 10  1  0
 10 11  1  0
 11 12  2  0
 11 13  1  0
 13 14  1  0
 14 15  1  0
 15 16  1  0
 16 17  2  0
 17 18  1  0
 18 19  1  0
 18 20  2  0
 20 21  1  0
 21 22  1  0
 21 23  2  0
 23 24  1  0
 24 25  3  0
  9 26  1  0
 26 27  2  0
 27  6  1  0
 23 16  1  0
M  END
>  <Binding energies>  (14) 
[-8.77]

>  <Ligand effiencies>  (14) 
[-0.3132142857142857]

>  <Interactions>  (14) 
["V-B:TYR:539:CE2:9845, V-B:PRO:540:N:9853, V-B:PRO:540:CB:9854, V-B:TYR:539:CZ:9846, H-B:ALA:541:N:9860, V-B:PRO:540:CA:9852, V-B:TYR:539:CD1:9842, V-B:ILE:538:CA:9829, V-B:PRO:540:C:9850, V-B:TYR:539:C:9836, V-B:ALA:541:CB:9861, V-B:ILE:538:CG2:9832, V-B:TYR:539:CE1:9844, V-B:ILE:538:CB:9831, V-B:MET:535:CE:9804, H-B:TYR:531:OH:9764, V-A:PRO:540:CB:4882, V-A:TYR:539:CE1:4872, V-A:TYR:539:C:4864, V-A:PRO:540:CA:4880, H-A:TYR:539:N:4867, V-A:LEU:363:CD1:3185, V-A:PRO:540:N:4881, H-B:LYS:534:NZ:9792, V-A:TYR:539:CD1:4870, V-A:ILE:538:CG2:4860, V-A:ILE:538:CD1:4862, V-A:TYR:539:CZ:4874, V-B:ASP:366:CB:8180, V-B:TYR:539:CG:9841, V-B:TYR:539:CD2:9843, V-A:TYR:539:CD2:4871, V-A:TYR:539:CE2:4873, V-A:TYR:539:CG:4869, H-B:ASP:366:OD1:8182, V-B:ASP:366:CG:8181, V-A:PRO:540:CD:4884, V-A:PRO:540:CG:4883"]

$$$$
1q_Grossjean_2025
     RDKit          3D

 21 21  0  0  0  0  0  0  0  0999 V2000
  133.1290  125.0130   55.1470 C   0  0  0  0  0  0  0  0  0  0  0  0
  131.7690  124.7160   55.4270 O   0  0  0  0  0  0  0  0  0  0  0  0
  130.8260  125.6880   55.3730 C   0  0  0  0  0  0  0  0  0  0  0  0
  130.6950  126.5080   54.4630 O   0  0  0  0  0  0  0  0  0  0  0  0
  129.8950  125.7310   56.6040 C   0  0  0  0  0  0  0  0  0  0  0  0
  130.3150  124.8130   57.6730 N   0  0  0  0  0  0  0  0  0  0  0  0
  129.7330  124.6910   58.8820 C   0  0  0  0  0  0  0  0  0  0  0  0
  128.7550  125.3550   59.2290 O   0  0  0  0  0  0  0  0  0  0  0  0
  130.3520  123.6480   59.8240 C   0  0  0  0  0  0  0  0  0  0  0  0
  129.3310  122.9150   60.7160 C   0  0  0  0  0  0  0  0  0  0  0  0
  128.3960  121.6240   59.8430 S   0  0  0  0  0  0  0  0  0  0  0  0
  127.4430  122.3900   58.5480 C   0  0  0  0  0  0  0  0  0  0  0  0
  127.9760  122.2160   57.3120 N   0  0  0  0  0  0  0  0  0  0  0  0
  127.3410  122.7560   56.2460 C   0  0  0  0  0  0  0  0  0  0  0  0
  128.0060  122.5330   54.9000 C   0  0  0  0  0  0  0  0  0  0  0  0
  126.1550  123.4760   56.3630 C   0  0  0  0  0  0  0  0  0  0  0  0
  125.5830  123.6410   57.6280 C   0  0  0  0  0  0  0  0  0  0  0  0
  124.2710  124.4190   57.7280 C   0  0  0  0  0  0  0  0  0  0  0  0
  126.2260  123.0840   58.7570 C   0  0  0  0  0  0  0  0  0  0  0  0
  125.6120  123.1970   60.0810 C   0  0  0  0  0  0  0  0  0  0  0  0
  125.1230  123.2890   61.1260 N   0  0  0  0  0  0  0  0  0  0  0  0
  1  2  1  0
  2  3  1  0
  3  4  2  0
  3  5  1  0
  5  6  1  0
  6  7  1  0
  7  8  2  0
  7  9  1  0
  9 10  1  0
 10 11  1  0
 11 12  1  0
 12 13  2  0
 13 14  1  0
 14 15  1  0
 14 16  2  0
 16 17  1  0
 17 18  1  0
 17 19  2  0
 19 20  1  0
 20 21  3  0
 19 12  1  0
M  END
>  <Binding energies>  (15) 
[-6.48]

>  <Ligand effiencies>  (15) 
[-0.29454545454545455]

>  <Interactions>  (15) 
["V-B:TYR:539:CE2:9845, V-B:PRO:540:N:9853, V-B:PRO:540:CB:9854, V-B:TYR:539:CZ:9846, H-B:ALA:541:N:9860, V-B:PRO:540:CA:9852, H-B:TYR:539:N:9839, V-B:TYR:539:CD1:9842, V-B:ILE:538:CA:9829, V-B:PRO:540:C:9850, V-B:TYR:539:C:9836, V-B:LEU:363:CD1:8157, V-B:ILE:538:CG2:9832, V-B:TYR:539:CE1:9844, V-B:ILE:538:CB:9831, V-B:MET:535:CE:9804, H-B:TYR:539:OH:9847, V-A:TYR:531:CE1:4789, V-A:ASP:366:C:3204, V-A:ASN:370:CG:3242, H-A:TYR:531:OH:4792, V-A:ASN:370:CB:3241"]

$$$$
2a_Grossjean_2025
     RDKit          3D

 29 30  0  0  0  0  0  0  0  0999 V2000
  130.5700  132.7460   56.2110 C   0  0  0  0  0  0  0  0  0  0  0  0
  129.8610  131.7480   55.2910 C   0  0  0  0  0  0  0  0  0  0  0  0
  128.5830  132.2640   54.9340 O   0  0  0  0  0  0  0  0  0  0  0  0
  127.5380  131.4340   54.6840 C   0  0  0  0  0  0  0  0  0  0  0  0
  126.8990  131.4430   53.6270 O   0  0  0  0  0  0  0  0  0  0  0  0
  127.2510  130.4870   55.8140 C   0  0  0  0  0  0  0  0  0  0  0  0
  126.8990  130.9440   57.0930 C   0  0  0  0  0  0  0  0  0  0  0  0
  126.6410  130.0400   58.1190 C   0  0  0  0  0  0  0  0  0  0  0  0
  126.7340  128.6670   57.8930 C   0  0  0  0  0  0  0  0  0  0  0  0
  126.4660  127.8470   59.0060 N   0  0  0  0  0  0  0  0  0  0  0  0
  127.2960  127.3890   59.9670 C   0  0  0  0  0  0  0  0  0  0  0  0
  128.5080  127.6010   60.0260 O   0  0  0  0  0  0  0  0  0  0  0  0
  126.6380  126.5350   61.0560 C   0  0  0  0  0  0  0  0  0  0  0  0
  125.4790  125.2910   60.3960 S   0  0  0  0  0  0  0  0  0  0  0  0
  126.3860  124.0410   59.4920 C   0  0  0  0  0  0  0  0  0  0  0  0
  127.3400  123.3810   60.1970 N   0  0  0  0  0  0  0  0  0  0  0  0
  128.0730  122.4320   59.5740 C   0  0  0  0  0  0  0  0  0  0  0  0
  129.1380  121.7580   60.4190 C   0  0  0  0  0  0  0  0  0  0  0  0
  127.8840  122.0940   58.2370 C   0  0  0  0  0  0  0  0  0  0  0  0
  126.8970  122.7560   57.4910 C   0  0  0  0  0  0  0  0  0  0  0  0
  126.6990  122.3700   56.0130 C   0  0  0  0  0  0  0  0  0  0  0  0
  125.5950  121.6350   55.8760 F   0  0  0  0  0  0  0  0  0  0  0  0
  126.5830  123.4690   55.2660 F   0  0  0  0  0  0  0  0  0  0  0  0
  127.7190  121.6590   55.5250 F   0  0  0  0  0  0  0  0  0  0  0  0
  126.1230  123.7570   58.1320 C   0  0  0  0  0  0  0  0  0  0  0  0
  125.0800  124.4830   57.3990 C   0  0  0  0  0  0  0  0  0  0  0  0
  124.2570  125.0570   56.8210 N   0  0  0  0  0  0  0  0  0  0  0  0
  127.0770  128.2020   56.6160 C   0  0  0  0  0  0  0  0  0  0  0  0
  127.3310  129.1070   55.5890 C   0  0  0  0  0  0  0  0  0  0  0  0
  1  2  1  0
  2  3  1  0
  3  4  1  0
  4  5  2  0
  4  6  1  0
  6  7  2  0
  7  8  1  0
  8  9  2  0
  9 10  1  0
 10 11  1  0
 11 12  2  0
 11 13  1  0
 13 14  1  0
 14 15  1  0
 15 16  2  0
 16 17  1  0
 17 18  1  0
 17 19  2  0
 19 20  1  0
 20 21  1  0
 21 22  1  0
 21 23  1  0
 21 24  1  0
 20 25  2  0
 25 26  1  0
 26 27  3  0
  9 28  1  0
 28 29  2  0
 29  6  1  0
 25 15  1  0
M  END
>  <Binding energies>  (16) 
[-7.44]

>  <Ligand effiencies>  (16) 
[-0.24800000000000003]

>  <Interactions>  (16) 
["V-B:TYR:539:CE2:9845, V-B:PRO:540:N:9853, V-B:PRO:540:CB:9854, V-B:TYR:539:CZ:9846, V-B:PRO:540:CA:9852, V-B:TYR:539:CD1:9842, V-B:ILE:538:CA:9829, V-B:ILE:538:C:9827, V-B:TYR:539:C:9836, V-B:LEU:363:CD1:8157, V-B:ALA:541:CB:9861, V-B:ILE:538:CG2:9832, V-B:TYR:539:CE1:9844, V-B:GLU:543:CD:9877, V-B:ILE:538:CB:9831, V-B:MET:535:CE:9804, H-B:TYR:531:OH:9764, V-B:PRO:540:CD:9856, H-A:TYR:539:OH:4875, V-A:TYR:539:CE1:4872, V-A:TYR:539:C:4864, V-A:PRO:540:CA:4880, V-B:TYR:539:CA:9838, V-A:PRO:540:N:4881, H-B:LYS:534:NZ:9792, V-A:ILE:538:CG2:4860, V-A:ILE:538:CD1:4862, V-A:TYR:539:CZ:4874, V-B:TYR:539:CG:9841, V-B:TYR:539:CD2:9843, V-A:TYR:539:CE2:4873, H-B:ASP:366:OD1:8182, V-B:ASP:366:CG:8181, V-A:TYR:539:CA:4866, V-A:PRO:540:CD:4884, V-B:ILE:538:CG1:9833, V-B:ILE:538:CD1:9834, V-B:PRO:540:CG:9855, H-B:ARG:545:NH2:9897"]

$$$$
2b_Grossjean_2025
     RDKit          3D

 28 29  0  0  0  0  0  0  0  0999 V2000
  125.3370  122.3710   56.2770 C   0  0  0  0  0  0  0  0  0  0  0  0
  126.5480  121.6980   56.5900 O   0  0  0  0  0  0  0  0  0  0  0  0
  127.7200  122.3750   56.6860 C   0  0  0  0  0  0  0  0  0  0  0  0
  128.4600  122.5960   55.7210 O   0  0  0  0  0  0  0  0  0  0  0  0
  128.0310  122.8270   58.0840 C   0  0  0  0  0  0  0  0  0  0  0  0
  127.7960  122.0080   59.1980 C   0  0  0  0  0  0  0  0  0  0  0  0
  128.0950  122.4570   60.4810 C   0  0  0  0  0  0  0  0  0  0  0  0
  128.6370  123.7270   60.6780 C   0  0  0  0  0  0  0  0  0  0  0  0
  128.8950  124.0830   62.0150 N   0  0  0  0  0  0  0  0  0  0  0  0
  129.3780  125.2370   62.5230 C   0  0  0  0  0  0  0  0  0  0  0  0
  129.7190  126.2190   61.8610 O   0  0  0  0  0  0  0  0  0  0  0  0
  129.5130  125.2740   64.0480 C   0  0  0  0  0  0  0  0  0  0  0  0
  130.1700  123.7230   64.7470 S   0  0  0  0  0  0  0  0  0  0  0  0
  130.9520  122.7580   63.4620 C   0  0  0  0  0  0  0  0  0  0  0  0
  130.2120  121.7370   62.9590 N   0  0  0  0  0  0  0  0  0  0  0  0
  130.7430  120.9620   61.9870 C   0  0  0  0  0  0  0  0  0  0  0  0
  129.8580  119.8360   61.4880 C   0  0  0  0  0  0  0  0  0  0  0  0
  132.0190  121.1710   61.4730 C   0  0  0  0  0  0  0  0  0  0  0  0
  132.8000  122.2240   61.9730 C   0  0  0  0  0  0  0  0  0  0  0  0
  134.2080  122.4450   61.3890 C   0  0  0  0  0  0  0  0  0  0  0  0
  135.0470  121.5210   61.8590 F   0  0  0  0  0  0  0  0  0  0  0  0
  134.1720  122.3590   60.0580 F   0  0  0  0  0  0  0  0  0  0  0  0
  134.7140  123.6410   61.6990 F   0  0  0  0  0  0  0  0  0  0  0  0
  132.2580  123.0420   62.9970 C   0  0  0  0  0  0  0  0  0  0  0  0
  133.0310  124.1530   63.5610 C   0  0  0  0  0  0  0  0  0  0  0  0
  133.6420  125.0300   64.0050 N   0  0  0  0  0  0  0  0  0  0  0  0
  128.8680  124.5560   59.5700 C   0  0  0  0  0  0  0  0  0  0  0  0
  128.5680  124.1050   58.2880 C   0  0  0  0  0  0  0  0  0  0  0  0
  1  2  1  0
  2  3  1  0
  3  4  2  0
  3  5  1  0
  5  6  2  0
  6  7  1  0
  7  8  2  0
  8  9  1  0
  9 10  1  0
 10 11  2  0
 10 12  1  0
 12 13  1  0
 13 14  1  0
 14 15  2  0
 15 16  1  0
 16 17  1  0
 16 18  2  0
 18 19  1  0
 19 20  1  0
 20 21  1  0
 20 22  1  0
 20 23  1  0
 19 24  2  0
 24 25  1  0
 25 26  3  0
  8 27  1  0
 27 28  2  0
 28  5  1  0
 24 14  1  0
M  END
>  <Binding energies>  (17) 
[-6.74]

>  <Ligand effiencies>  (17) 
[-0.23241379310344829]

>  <Interactions>  (17) 
["V-B:TYR:539:CE2:9845, V-B:PRO:540:N:9853, V-B:PRO:540:CB:9854, V-B:TYR:539:CZ:9846, V-A:LEU:475:CD1:4254, V-B:PRO:540:CA:9852, H-B:TYR:539:N:9839, V-B:TYR:539:CD1:9842, V-B:PRO:540:C:9850, V-B:TYR:539:C:9836, V-B:LEU:363:CD1:8157, V-B:ALA:541:CB:9861, V-B:ILE:538:CG2:9832, V-B:TYR:539:CE1:9844, V-B:GLU:543:CD:9877, V-B:ILE:538:CB:9831, V-B:GLU:543:CG:9876, H-B:GLU:543:OE2:9879, V-A:GLY:454:CA:4045, H-A:ARG:545:NH2:4925, H-A:ARG:545:NH1:4924, H-A:ARG:545:NE:4921, V-A:ASP:366:CG:3209, H-A:GLY:454:N:4046, H-A:TYR:484:OH:4344, V-B:PRO:540:CD:9856, V-B:TYR:539:CG:9841, V-B:TYR:539:CD2:9843, V-A:ILE:369:CB:3232, V-A:ILE:369:CG2:3233, V-A:GLY:453:C:4038, V-A:GLY:453:CA:4040, V-A:ILE:369:CG1:3234, V-B:PRO:540:CG:9855, V-A:PRO:482:CG:4323, V-A:ILE:369:CD1:3235"]

$$$$
2c_Grossjean_2025
     RDKit          3D

 26 27  0  0  0  0  0  0  0  0999 V2000
  132.6200  131.3810   61.4360 C   0  0  0  0  0  0  0  0  0  0  0  0
  133.3070  131.2480   60.1950 O   0  0  0  0  0  0  0  0  0  0  0  0
  132.5810  131.2570   59.0200 C   0  0  0  0  0  0  0  0  0  0  0  0
  131.1940  131.3280   59.1440 C   0  0  0  0  0  0  0  0  0  0  0  0
  130.3780  131.3400   58.0160 C   0  0  0  0  0  0  0  0  0  0  0  0
  130.9510  131.2710   56.7380 C   0  0  0  0  0  0  0  0  0  0  0  0
  130.2100  131.2960   55.5420 N   0  0  0  0  0  0  0  0  0  0  0  0
  129.3400  132.2330   55.1090 C   0  0  0  0  0  0  0  0  0  0  0  0
  129.0070  133.2300   55.7520 O   0  0  0  0  0  0  0  0  0  0  0  0
  128.7290  131.9590   53.7260 C   0  0  0  0  0  0  0  0  0  0  0  0
  127.4870  130.6200   53.6680 S   0  0  0  0  0  0  0  0  0  0  0  0
  126.9200  130.2620   55.3260 C   0  0  0  0  0  0  0  0  0  0  0  0
  125.7570  130.8610   55.6910 N   0  0  0  0  0  0  0  0  0  0  0  0
  125.2730  130.6430   56.9330 C   0  0  0  0  0  0  0  0  0  0  0  0
  123.9800  131.3600   57.2710 C   0  0  0  0  0  0  0  0  0  0  0  0
  125.9150  129.8200   57.8560 C   0  0  0  0  0  0  0  0  0  0  0  0
  127.1130  129.1860   57.4980 C   0  0  0  0  0  0  0  0  0  0  0  0
  127.8100  128.2770   58.5300 C   0  0  0  0  0  0  0  0  0  0  0  0
  127.8760  127.0280   58.0660 F   0  0  0  0  0  0  0  0  0  0  0  0
  129.0460  128.7170   58.7670 F   0  0  0  0  0  0  0  0  0  0  0  0
  127.1660  128.2360   59.6990 F   0  0  0  0  0  0  0  0  0  0  0  0
  127.6350  129.4090   56.1990 C   0  0  0  0  0  0  0  0  0  0  0  0
  128.8860  128.7730   55.7710 C   0  0  0  0  0  0  0  0  0  0  0  0
  129.8730  128.2710   55.4350 N   0  0  0  0  0  0  0  0  0  0  0  0
  132.3390  131.2150   56.6070 C   0  0  0  0  0  0  0  0  0  0  0  0
  133.1510  131.2030   57.7370 C   0  0  0  0  0  0  0  0  0  0  0  0
  1  2  1  0
  2  3  1  0
  3  4  2  0
  4  5  1  0
  5  6  2  0
  6  7  1  0
  7  8  1  0
  8  9  2  0
  8 10  1  0
 10 11  1  0
 11 12  1  0
 12 13  2  0
 13 14  1  0
 14 15  1  0
 14 16  2  0
 16 17  1  0
 17 18  1  0
 18 19  1  0
 18 20  1  0
 18 21  1  0
 17 22  2  0
 22 23  1  0
 23 24  3  0
  6 25  1  0
 25 26  2  0
 26  3  1  0
 22 12  1  0
M  END
>  <Binding energies>  (18) 
[-6.81]

>  <Ligand effiencies>  (18) 
[-0.2522222222222222]

>  <Interactions>  (18) 
["V-B:MET:535:CE:9804, V-A:GLU:543:CD:4905, H-A:TYR:531:OH:4792, H-B:TYR:531:OH:9764, H-A:TYR:539:OH:4875, V-A:PRO:540:CB:4882, V-A:PRO:540:CA:4880, H-A:TYR:539:N:4867, V-A:LEU:363:CD1:3185, H-B:LYS:534:NZ:9792, V-A:TYR:531:CZ:4791, V-A:ILE:538:CA:4857, V-A:ILE:538:CD1:4862, V-A:TYR:539:CZ:4874, V-B:ASP:366:CB:8180, V-A:LEU:363:CA:3181, V-A:LEU:363:CB:3183, V-A:TYR:539:CE2:4873, V-A:ASN:362:CB:3172, V-B:ILE:369:CG2:8205, V-B:ASP:366:CA:8178, H-A:LEU:363:N:3182, V-B:ASP:366:C:8176"]

$$$$
2d_Ghoteimi_2023
     RDKit          3D

 38 42  0  0  0  0  0  0  0  0999 V2000
  124.6640  130.5530   62.5920 C   0  0  0  0  0  0  0  0  0  0  0  0
  123.8840  130.5650   63.7780 O   0  0  0  0  0  0  0  0  0  0  0  0
  124.2410  129.8150   64.8410 C   0  0  0  0  0  0  0  0  0  0  0  0
  123.5830  129.6800   65.8760 O   0  0  0  0  0  0  0  0  0  0  0  0
  125.5940  129.1240   64.6080 C   0  0  0  0  0  0  0  0  0  0  0  0
  126.8920  129.8360   65.6770 S   0  0  0  0  0  0  0  0  0  0  0  0
  128.0540  128.5470   66.0790 C   0  0  0  0  0  0  0  0  0  0  0  0
  128.1800  128.3370   67.4120 N   0  0  0  0  0  0  0  0  0  0  0  0
  129.0380  127.3880   67.8630 C   0  0  0  0  0  0  0  0  0  0  0  0
  129.1370  127.2260   69.3460 C   0  0  0  0  0  0  0  0  0  0  0  0
  128.1610  126.5130   70.0510 C   0  0  0  0  0  0  0  0  0  0  0  0
  128.2460  126.3580   71.4320 C   0  0  0  0  0  0  0  0  0  0  0  0
  129.3180  126.9010   72.1570 C   0  0  0  0  0  0  0  0  0  0  0  0
  129.4090  126.7700   73.5470 N   0  0  0  0  0  0  0  0  0  0  0  0
  128.3410  127.2590   74.4410 C   0  0  0  0  0  0  0  0  0  0  0  0
  128.7730  127.3700   75.9180 C   0  0  0  0  0  0  0  0  0  0  0  0
  129.2770  126.1230   76.3690 O   0  0  0  0  0  0  0  0  0  0  0  0
  130.4070  125.7140   75.6170 C   0  0  0  0  0  0  0  0  0  0  0  0
  130.0260  125.5600   74.1290 C   0  0  0  0  0  0  0  0  0  0  0  0
  130.2860  127.6260   71.4480 C   0  0  0  0  0  0  0  0  0  0  0  0
  130.1990  127.7830   70.0680 C   0  0  0  0  0  0  0  0  0  0  0  0
  129.7930  126.6180   66.9750 C   0  0  0  0  0  0  0  0  0  0  0  0
  129.6570  126.7910   65.5920 C   0  0  0  0  0  0  0  0  0  0  0  0
  130.4750  125.9130   64.7030 C   0  0  0  0  0  0  0  0  0  0  0  0
  129.8590  124.9250   63.9330 C   0  0  0  0  0  0  0  0  0  0  0  0
  130.6100  124.1100   63.0910 C   0  0  0  0  0  0  0  0  0  0  0  0
  132.0040  124.2590   62.9980 C   0  0  0  0  0  0  0  0  0  0  0  0
  132.7770  123.4610   62.1500 N   0  0  0  0  0  0  0  0  0  0  0  0
  132.7760  121.9890   62.2670 C   0  0  0  0  0  0  0  0  0  0  0  0
  133.3880  121.2750   61.0430 C   0  0  0  0  0  0  0  0  0  0  0  0
  134.6980  121.7640   60.8010 O   0  0  0  0  0  0  0  0  0  0  0  0
  134.6980  123.1590   60.5420 C   0  0  0  0  0  0  0  0  0  0  0  0
  134.1220  123.9220   61.7550 C   0  0  0  0  0  0  0  0  0  0  0  0
  132.6110  125.2660   63.7610 C   0  0  0  0  0  0  0  0  0  0  0  0
  131.8590  126.0810   64.6020 C   0  0  0  0  0  0  0  0  0  0  0  0
  128.7580  127.7810   65.1220 C   0  0  0  0  0  0  0  0  0  0  0  0
  128.5660  127.9870   63.6830 C   0  0  0  0  0  0  0  0  0  0  0  0
  128.4180  128.1470   62.5460 N   0  0  0  0  0  0  0  0  0  0  0  0
  1  2  1  0
  2  3  1  0
  3  4  2  0
  3  5  1  0
  5  6  1  0
  6  7  1  0
  7  8  2  0
  8  9  1  0
  9 10  1  0
 10 11  2  0
 11 12  1  0
 12 13  2  0
 13 14  1  0
 14 15  1  0
 15 16  1  0
 16 17  1  0
 17 18  1  0
 18 19  1  0
 13 20  1  0
 20 21  2  0
  9 22  2  0
 22 23  1  0
 23 24  1  0
 24 25  2  0
 25 26  1  0
 26 27  2  0
 27 28  1  0
 28 29  1  0
 29 30  1  0
 30 31  1  0
 31 32  1  0
 32 33  1  0
 27 34  1  0
 34 35  2  0
 23 36  2  0
 36 37  1  0
 37 38  3  0
 36  7  1  0
 21 10  1  0
 35 24  1  0
 19 14  1  0
 33 28  1  0
M  END
>  <Binding energies>  (19) 
[-9.47]

>  <Ligand effiencies>  (19) 
[-0.2492105263157895]

>  <Interactions>  (19) 
["V-B:TYR:539:CE2:9845, V-A:LEU:475:CD1:4254, V-B:GLU:543:CD:9877, V-B:GLU:543:CG:9876, V-A:ARG:545:CZ:4923, V-A:GLY:454:CA:4045, V-A:GLU:543:CD:4905, V-A:HIS:456:CE1:4066, V-A:ASP:366:CG:3209, V-B:ASP:366:CG:8181, V-A:LYS:547:CE:4947, V-B:HIS:456:CD2:9036, V-A:ILE:369:CB:3232, V-A:ILE:369:CG2:3233, V-B:LYS:547:CE:9919, V-B:HIS:456:CE1:9038, V-A:GLY:453:C:4038, V-A:GLY:453:CA:4040, V-B:GLY:544:C:9881, V-A:ILE:369:CG1:3234, V-B:LYS:547:CD:9918, V-B:ARG:545:CZ:9895, V-A:ASP:366:CA:3206, V-A:HIS:456:CD2:4064, H-B:GLY:454:N:9018, H-B:TYR:484:OH:9316, H-B:ARG:545:NE:9893"]

$$$$
2d_Grossjean_2025
     RDKit          3D

 24 25  0  0  0  0  0  0  0  0999 V2000
  124.2120  131.3230   57.2910 C   0  0  0  0  0  0  0  0  0  0  0  0
  125.4700  130.5730   56.8940 C   0  0  0  0  0  0  0  0  0  0  0  0
  126.0510  129.6270   57.7350 C   0  0  0  0  0  0  0  0  0  0  0  0
  127.2110  128.9560   57.3200 C   0  0  0  0  0  0  0  0  0  0  0  0
  127.8340  127.9060   58.2600 C   0  0  0  0  0  0  0  0  0  0  0  0
  127.8030  126.7030   57.6840 F   0  0  0  0  0  0  0  0  0  0  0  0
  129.1030  128.2240   58.5250 F   0  0  0  0  0  0  0  0  0  0  0  0
  127.1930  127.8100   59.4260 F   0  0  0  0  0  0  0  0  0  0  0  0
  127.7610  129.2730   56.0520 C   0  0  0  0  0  0  0  0  0  0  0  0
  128.9450  128.5680   55.5540 C   0  0  0  0  0  0  0  0  0  0  0  0
  129.8790  128.0090   55.1600 N   0  0  0  0  0  0  0  0  0  0  0  0
  127.1170  130.2660   55.2760 C   0  0  0  0  0  0  0  0  0  0  0  0
  127.6890  130.8070   53.6770 S   0  0  0  0  0  0  0  0  0  0  0  0
  128.7010  132.3080   53.8950 C   0  0  0  0  0  0  0  0  0  0  0  0
  129.3700  132.3850   55.2710 C   0  0  0  0  0  0  0  0  0  0  0  0
  129.0010  133.2500   56.0670 O   0  0  0  0  0  0  0  0  0  0  0  0
  130.3570  131.4920   55.4910 N   0  0  0  0  0  0  0  0  0  0  0  0
  131.1490  131.3080   56.6400 C   0  0  0  0  0  0  0  0  0  0  0  0
  130.4570  131.1520   57.8430 C   0  0  0  0  0  0  0  0  0  0  0  0
  131.1520  130.9700   59.0350 C   0  0  0  0  0  0  0  0  0  0  0  0
  132.5460  130.9550   59.0250 C   0  0  0  0  0  0  0  0  0  0  0  0
  133.2470  131.1230   57.8350 C   0  0  0  0  0  0  0  0  0  0  0  0
  132.5540  131.3040   56.6410 C   0  0  0  0  0  0  0  0  0  0  0  0
  125.9840  130.8890   55.6830 N   0  0  0  0  0  0  0  0  0  0  0  0
  1  2  1  0
  2  3  2  0
  3  4  1  0
  4  5  1  0
  5  6  1  0
  5  7  1  0
  5  8  1  0
  4  9  2  0
  9 10  1  0
 10 11  3  0
  9 12  1  0
 12 13  1  0
 13 14  1  0
 14 15  1  0
 15 16  2  0
 15 17  1  0
 17 18  1  0
 18 19  2  0
 19 20  1  0
 20 21  2  0
 21 22  1  0
 22 23  2  0
 12 24  2  0
 24  2  1  0
 23 18  1  0
M  END
>  <Binding energies>  (20) 
[-6.88]

>  <Ligand effiencies>  (20) 
[-0.2752]

>  <Interactions>  (20) 
["V-B:MET:535:CE:9804, H-A:TYR:531:OH:4792, H-B:TYR:531:OH:9764, H-A:TYR:539:OH:4875, V-A:PRO:540:CB:4882, V-A:TYR:539:CE1:4872, V-A:PRO:540:CA:4880, H-A:TYR:539:N:4867, V-A:LEU:363:CD1:3185, H-B:LYS:534:NZ:9792, V-A:TYR:531:CZ:4791, V-A:ILE:538:CA:4857, V-A:ILE:538:CD1:4862, V-A:TYR:539:CZ:4874, V-B:ASP:366:CB:8180, V-A:LEU:363:CA:3181, V-A:LEU:363:CB:3183, V-A:TYR:539:CE2:4873, V-B:ILE:369:CG2:8205, V-B:ASP:366:C:8176"]

$$$$
2e_Grossjean_2025
     RDKit          3D

 25 26  0  0  0  0  0  0  0  0999 V2000
  130.6740  131.4340   60.3910 C   0  0  0  0  0  0  0  0  0  0  0  0
  131.3940  131.3240   59.0610 C   0  0  0  0  0  0  0  0  0  0  0  0
  132.7590  131.0320   58.9890 C   0  0  0  0  0  0  0  0  0  0  0  0
  133.3520  130.9350   57.7300 C   0  0  0  0  0  0  0  0  0  0  0  0
  132.5760  131.1310   56.5840 C   0  0  0  0  0  0  0  0  0  0  0  0
  131.2160  131.4310   56.7290 C   0  0  0  0  0  0  0  0  0  0  0  0
  130.4740  131.5750   55.5440 N   0  0  0  0  0  0  0  0  0  0  0  0
  129.4520  132.4250   55.2990 C   0  0  0  0  0  0  0  0  0  0  0  0
  129.0460  133.2860   56.0820 O   0  0  0  0  0  0  0  0  0  0  0  0
  128.7420  132.2450   53.9540 C   0  0  0  0  0  0  0  0  0  0  0  0
  128.2950  130.5060   53.6450 S   0  0  0  0  0  0  0  0  0  0  0  0
  127.5430  129.9340   55.1520 C   0  0  0  0  0  0  0  0  0  0  0  0
  126.4520  130.6380   55.5420 N   0  0  0  0  0  0  0  0  0  0  0  0
  125.8450  130.2980   56.7010 C   0  0  0  0  0  0  0  0  0  0  0  0
  124.6310  131.1250   57.0770 C   0  0  0  0  0  0  0  0  0  0  0  0
  126.2990  129.2590   57.5120 C   0  0  0  0  0  0  0  0  0  0  0  0
  127.4320  128.5270   57.1280 C   0  0  0  0  0  0  0  0  0  0  0  0
  127.9340  127.3960   58.0450 C   0  0  0  0  0  0  0  0  0  0  0  0
  127.1740  127.3210   59.1380 F   0  0  0  0  0  0  0  0  0  0  0  0
  127.8830  126.2300   57.4010 F   0  0  0  0  0  0  0  0  0  0  0  0
  129.1950  127.5800   58.4460 F   0  0  0  0  0  0  0  0  0  0  0  0
  128.0760  128.8680   55.9130 C   0  0  0  0  0  0  0  0  0  0  0  0
  129.2820  128.1610   55.4700 C   0  0  0  0  0  0  0  0  0  0  0  0
  130.2350  127.6030   55.1210 N   0  0  0  0  0  0  0  0  0  0  0  0
  130.6280  131.5190   57.9570 N   0  0  0  0  0  0  0  0  0  0  0  0
  1  2  1  0
  2  3  2  0
  3  4  1  0
  4  5  2  0
  5  6  1  0
  6  7  1  0
  7  8  1  0
  8  9  2  0
  8 10  1  0
 10 11  1  0
 11 12  1  0
 12 13  2  0
 13 14  1  0
 14 15  1  0
 14 16  2  0
 16 17  1  0
 17 18  1  0
 18 19  1  0
 18 20  1  0
 18 21  1  0
 17 22  2  0
 22 23  1  0
 23 24  3  0
  6 25  2  0
 25  2  1  0
 22 12  1  0
M  END
>  <Binding energies>  (21) 
[-7.05]

>  <Ligand effiencies>  (21) 
[-0.27115384615384613]

>  <Interactions>  (21) 
["V-B:MET:535:CE:9804, H-A:TYR:531:OH:4792, H-B:TYR:531:OH:9764, H-A:TYR:539:OH:4875, V-A:PRO:540:CB:4882, V-A:TYR:539:CE1:4872, V-A:PRO:540:CA:4880, H-A:TYR:539:N:4867, V-A:LEU:363:CD1:3185, V-A:TYR:531:CZ:4791, V-A:ILE:538:CA:4857, V-A:ILE:538:CD1:4862, V-A:TYR:531:CE2:4790, V-A:TYR:539:CZ:4874, V-B:TYR:531:CZ:9763, V-A:LEU:363:CA:3181, V-A:LEU:363:CB:3183, V-A:TYR:539:CE2:4873"]

$$$$
2f_Grossjean_2025
     RDKit          3D

 24 25  0  0  0  0  0  0  0  0999 V2000
  132.3460  131.7170   61.5370 C   0  0  0  0  0  0  0  0  0  0  0  0
  131.9030  130.8280   60.3900 C   0  0  0  0  0  0  0  0  0  0  0  0
  130.9370  129.8400   60.5630 C   0  0  0  0  0  0  0  0  0  0  0  0
  130.5670  129.0380   59.4730 C   0  0  0  0  0  0  0  0  0  0  0  0
  129.5050  127.9430   59.6870 C   0  0  0  0  0  0  0  0  0  0  0  0
  128.4640  128.1490   58.8780 F   0  0  0  0  0  0  0  0  0  0  0  0
  130.0270  126.7450   59.4230 F   0  0  0  0  0  0  0  0  0  0  0  0
  129.0380  127.9120   60.9380 F   0  0  0  0  0  0  0  0  0  0  0  0
  131.1900  129.2670   58.2190 C   0  0  0  0  0  0  0  0  0  0  0  0
  130.8800  128.4190   57.0660 C   0  0  0  0  0  0  0  0  0  0  0  0
  130.6330  127.7500   56.1540 N   0  0  0  0  0  0  0  0  0  0  0  0
  132.1430  130.3110   58.1310 C   0  0  0  0  0  0  0  0  0  0  0  0
  133.0130  130.7460   56.6380 S   0  0  0  0  0  0  0  0  0  0  0  0
  132.2700  132.2750   55.9750 C   0  0  0  0  0  0  0  0  0  0  0  0
  130.7470  132.2300   55.7850 C   0  0  0  0  0  0  0  0  0  0  0  0
  130.0550  133.2200   56.0250 O   0  0  0  0  0  0  0  0  0  0  0  0
  130.2700  131.0380   55.3660 N   0  0  0  0  0  0  0  0  0  0  0  0
  128.9450  130.6540   55.0850 C   0  0  0  0  0  0  0  0  0  0  0  0
  128.2370  129.6260   55.7360 C   0  0  0  0  0  0  0  0  0  0  0  0
  126.9210  129.3490   55.3620 C   0  0  0  0  0  0  0  0  0  0  0  0
  126.3420  130.1110   54.3460 C   0  0  0  0  0  0  0  0  0  0  0  0
  126.9990  131.1120   53.7080 N   0  0  0  0  0  0  0  0  0  0  0  0
  128.2780  131.3690   54.0840 C   0  0  0  0  0  0  0  0  0  0  0  0
  132.5040  131.0610   59.2010 N   0  0  0  0  0  0  0  0  0  0  0  0
  1  2  1  0
  2  3  2  0
  3  4  1  0
  4  5  1  0
  5  6  1  0
  5  7  1  0
  5  8  1  0
  4  9  2  0
  9 10  1  0
 10 11  3  0
  9 12  1  0
 12 13  1  0
 13 14  1  0
 14 15  1  0
 15 16  2  0
 15 17  1  0
 17 18  1  0
 18 19  2  0
 19 20  1  0
 20 21  2  0
 21 22  1  0
 22 23  2  0
 12 24  2  0
 24  2  1  0
 23 18  1  0
M  END
>  <Binding energies>  (22) 
[-6.74]

>  <Ligand effiencies>  (22) 
[-0.2696]

>  <Interactions>  (22) 
["V-B:MET:535:CE:9804, V-A:GLU:543:CD:4905, H-A:TYR:531:OH:4792, H-A:TYR:539:OH:4875, V-A:PRO:540:CB:4882, V-A:PRO:540:CA:4880, H-A:TYR:539:N:4867, V-A:LEU:363:CD1:3185, V-A:PRO:540:N:4881, H-B:LYS:534:NZ:9792, V-A:TYR:531:CZ:4791, V-A:ILE:538:CG2:4860, V-A:ILE:538:CD1:4862, V-B:TYR:531:CZ:9763, V-B:TYR:531:CE1:9761, V-A:ASN:362:CB:3172, V-A:PRO:540:C:4878, V-A:PRO:540:CD:4884"]

$$$$
2g_Grossjean_2025
     RDKit          3D

 25 26  0  0  0  0  0  0  0  0999 V2000
  129.0520  121.4520   60.7430 C   0  0  0  0  0  0  0  0  0  0  0  0
  128.0160  122.2630   59.9890 C   0  0  0  0  0  0  0  0  0  0  0  0
  126.8740  122.7540   60.6180 C   0  0  0  0  0  0  0  0  0  0  0  0
  125.9410  123.4930   59.8750 C   0  0  0  0  0  0  0  0  0  0  0  0
  124.6790  124.0200   60.5870 C   0  0  0  0  0  0  0  0  0  0  0  0
  123.5890  123.7120   59.8820 F   0  0  0  0  0  0  0  0  0  0  0  0
  124.5810  123.4700   61.7970 F   0  0  0  0  0  0  0  0  0  0  0  0
  124.6910  125.3450   60.7450 F   0  0  0  0  0  0  0  0  0  0  0  0
  126.1990  123.7240   58.5000 C   0  0  0  0  0  0  0  0  0  0  0  0
  125.2300  124.4400   57.6660 C   0  0  0  0  0  0  0  0  0  0  0  0
  124.4640  125.0060   57.0080 N   0  0  0  0  0  0  0  0  0  0  0  0
  127.4010  123.2120   57.9530 C   0  0  0  0  0  0  0  0  0  0  0  0
  127.8920  123.4310   56.2560 S   0  0  0  0  0  0  0  0  0  0  0  0
  129.3600  124.5150   56.2460 C   0  0  0  0  0  0  0  0  0  0  0  0
  129.7110  125.1330   57.6060 C   0  0  0  0  0  0  0  0  0  0  0  0
  129.0100  126.0100   58.1140 O   0  0  0  0  0  0  0  0  0  0  0  0
  130.8270  124.6540   58.1870 N   0  0  0  0  0  0  0  0  0  0  0  0
  131.3580  125.0790   59.4830 C   0  0  0  0  0  0  0  0  0  0  0  0
  132.2310  124.0380   60.1760 C   0  0  0  0  0  0  0  0  0  0  0  0
  133.5540  123.8520   59.7620 C   0  0  0  0  0  0  0  0  0  0  0  0
  134.3650  122.9290   60.4180 C   0  0  0  0  0  0  0  0  0  0  0  0
  133.8540  122.2020   61.4910 C   0  0  0  0  0  0  0  0  0  0  0  0
  132.5410  122.3920   61.9170 C   0  0  0  0  0  0  0  0  0  0  0  0
  131.7300  123.3150   61.2620 C   0  0  0  0  0  0  0  0  0  0  0  0
  128.2800  122.4810   58.6810 N   0  0  0  0  0  0  0  0  0  0  0  0
  1  2  1  0
  2  3  2  0
  3  4  1  0
  4  5  1  0
  5  6  1  0
  5  7  1  0
  5  8  1  0
  4  9  2  0
  9 10  1  0
 10 11  3  0
  9 12  1  0
 12 13  1  0
 13 14  1  0
 14 15  1  0
 15 16  2  0
 15 17  1  0
 17 18  1  0
 18 19  1  0
 19 20  2  0
 20 21  1  0
 21 22  2  0
 22 23  1  0
 23 24  2  0
 12 25  2  0
 25  2  1  0
 24 19  1  0
M  END
>  <Binding energies>  (23) 
[-6.78]

>  <Ligand effiencies>  (23) 
[-0.26076923076923075]

>  <Interactions>  (23) 
["V-B:TYR:539:CE2:9845, V-B:PRO:540:CB:9854, V-B:TYR:539:CZ:9846, V-A:LEU:475:CD1:4254, V-B:PRO:540:CA:9852, V-B:PRO:540:C:9850, V-B:TYR:539:C:9836, V-B:LEU:363:CD1:8157, V-B:ALA:541:CB:9861, V-B:TYR:539:CE1:9844, V-B:GLU:543:CD:9877, V-B:MET:535:CE:9804, V-A:GLY:454:CA:4045, V-A:ASP:366:CB:3208, H-B:TYR:539:OH:9847, V-A:ASP:366:CG:3209, V-B:LEU:363:CA:8153, H-B:TYR:531:OH:9764, V-B:TYR:539:CD2:9843, V-B:ASN:362:CB:8144, V-B:ASN:362:C:8140, V-B:ASP:366:CG:8181, V-A:ILE:369:CB:3232, V-A:ILE:369:CG2:3233, V-A:ILE:369:CG1:3234, V-B:ARG:545:CZ:9895, V-B:ALA:541:CA:9859, V-B:LEU:363:CB:8155, V-A:ASP:366:CA:3206"]

$$$$
2h_Grossjean_2025
     RDKit          3D

 31 32  0  0  0  0  0  0  0  0999 V2000
  128.0680  122.4160   54.9320 C   0  0  0  0  0  0  0  0  0  0  0  0
  127.6130  121.9950   56.2130 O   0  0  0  0  0  0  0  0  0  0  0  0
  127.4790  122.9280   57.2260 C   0  0  0  0  0  0  0  0  0  0  0  0
  128.3650  123.0400   58.3090 C   0  0  0  0  0  0  0  0  0  0  0  0
  128.1700  124.0110   59.2880 C   0  0  0  0  0  0  0  0  0  0  0  0
  127.0880  124.8900   59.2090 C   0  0  0  0  0  0  0  0  0  0  0  0
  126.9060  125.9600   60.2840 C   0  0  0  0  0  0  0  0  0  0  0  0
  126.5540  127.2760   59.7490 N   0  0  0  0  0  0  0  0  0  0  0  0
  127.3620  128.3500   59.7510 C   0  0  0  0  0  0  0  0  0  0  0  0
  128.4720  128.3590   60.2860 O   0  0  0  0  0  0  0  0  0  0  0  0
  126.8180  129.5900   59.0260 C   0  0  0  0  0  0  0  0  0  0  0  0
  127.4650  131.1840   59.6340 S   0  0  0  0  0  0  0  0  0  0  0  0
  129.1720  131.2680   59.1400 C   0  0  0  0  0  0  0  0  0  0  0  0
  130.0430  130.9590   60.1320 N   0  0  0  0  0  0  0  0  0  0  0  0
  131.3680  131.0100   59.8710 C   0  0  0  0  0  0  0  0  0  0  0  0
  132.2830  130.6600   61.0290 C   0  0  0  0  0  0  0  0  0  0  0  0
  131.8750  131.3610   58.6210 C   0  0  0  0  0  0  0  0  0  0  0  0
  130.9890  131.6640   57.5760 C   0  0  0  0  0  0  0  0  0  0  0  0
  131.5680  132.0410   56.1990 C   0  0  0  0  0  0  0  0  0  0  0  0
  130.9030  131.4040   55.2350 F   0  0  0  0  0  0  0  0  0  0  0  0
  131.4860  133.3490   55.9450 F   0  0  0  0  0  0  0  0  0  0  0  0
  132.8560  131.7000   56.1340 F   0  0  0  0  0  0  0  0  0  0  0  0
  129.5950  131.6080   57.8330 C   0  0  0  0  0  0  0  0  0  0  0  0
  128.6280  131.8580   56.7610 C   0  0  0  0  0  0  0  0  0  0  0  0
  127.8670  132.0520   55.9120 N   0  0  0  0  0  0  0  0  0  0  0  0
  126.1810  124.7740   58.1440 C   0  0  0  0  0  0  0  0  0  0  0  0
  125.1120  125.6340   58.0610 O   0  0  0  0  0  0  0  0  0  0  0  0
  123.8910  125.1010   58.5560 C   0  0  0  0  0  0  0  0  0  0  0  0
  126.3910  123.8060   57.1470 C   0  0  0  0  0  0  0  0  0  0  0  0
  125.5150  123.7020   56.0930 O   0  0  0  0  0  0  0  0  0  0  0  0
  124.9270  122.4160   55.9510 C   0  0  0  0  0  0  0  0  0  0  0  0
  1  2  1  0
  2  3  1  0
  3  4  2  0
  4  5  1  0
  5  6  2  0
  6  7  1  0
  7  8  1  0
  8  9  1  0
  9 10  2  0
  9 11  1  0
 11 12  1  0
 12 13  1  0
 13 14  2  0
 14 15  1  0
 15 16  1  0
 15 17  2  0
 17 18  1  0
 18 19  1  0
 19 20  1  0
 19 21  1  0
 19 22  1  0
 18 23  2  0
 23 24  1  0
 24 25  3  0
  6 26  1  0
 26 27  1  0
 27 28  1  0
 26 29  2  0
 29 30  1  0
 30 31  1  0
 29  3  1  0
 23 13  1  0
M  END
>  <Binding energies>  (24) 
[-6.32]

>  <Ligand effiencies>  (24) 
[-0.1975]

>  <Interactions>  (24) 
["V-B:TYR:539:CE2:9845, V-B:PRO:540:N:9853, V-B:PRO:540:CB:9854, V-B:TYR:539:CZ:9846, H-B:TYR:539:N:9839, V-B:TYR:539:CD1:9842, V-B:ILE:538:CA:9829, V-B:LEU:363:CD1:8157, V-B:ILE:538:CG2:9832, V-B:TYR:539:CE1:9844, V-B:ILE:538:CB:9831, V-B:MET:535:CE:9804, V-A:GLU:543:CD:4905, V-B:LEU:363:CA:8153, H-B:TYR:531:OH:9764, V-B:PRO:540:CD:9856, V-A:PRO:540:CB:4882, V-A:TYR:539:C:4864, V-A:PRO:540:CA:4880, V-A:LEU:363:CD1:3185, V-A:PRO:540:N:4881, V-A:TYR:531:CZ:4791, V-A:ILE:538:CG2:4860, V-A:ILE:538:CA:4857, V-A:ILE:538:CD1:4862, V-A:TYR:531:CE2:4790, V-B:ASP:366:CB:8180, V-A:ILE:538:C:4855, V-A:TYR:539:CD2:4871, V-A:TYR:539:CE2:4873, V-A:ASN:362:CB:3172, H-B:ASP:366:OD1:8182, V-B:ASP:366:CG:8181, V-A:TYR:539:CA:4866, V-A:PRO:540:CD:4884, V-B:ILE:538:CD1:9834, V-B:PRO:540:CG:9855, V-A:PRO:540:CG:4883, V-A:ILE:538:CB:4859"]

$$$$
2i_Grossjean_2025
     RDKit          3D

 23 24  0  0  0  0  0  0  0  0999 V2000
  128.6030  132.3820   54.6440 C   0  0  0  0  0  0  0  0  0  0  0  0
  129.1740  132.2210   56.0410 C   0  0  0  0  0  0  0  0  0  0  0  0
  130.4920  131.8220   56.2490 C   0  0  0  0  0  0  0  0  0  0  0  0
  130.9740  131.6900   57.5590 C   0  0  0  0  0  0  0  0  0  0  0  0
  132.4340  131.2470   57.7710 C   0  0  0  0  0  0  0  0  0  0  0  0
  132.5960  129.9930   57.3470 F   0  0  0  0  0  0  0  0  0  0  0  0
  133.2580  132.0440   57.0900 F   0  0  0  0  0  0  0  0  0  0  0  0
  132.8060  131.2890   59.0530 F   0  0  0  0  0  0  0  0  0  0  0  0
  130.0940  131.9710   58.6360 C   0  0  0  0  0  0  0  0  0  0  0  0
  130.5460  131.8510   60.0260 C   0  0  0  0  0  0  0  0  0  0  0  0
  130.9020  131.7570   61.1230 N   0  0  0  0  0  0  0  0  0  0  0  0
  128.7710  132.3680   58.3340 C   0  0  0  0  0  0  0  0  0  0  0  0
  127.5740  132.7400   59.6060 S   0  0  0  0  0  0  0  0  0  0  0  0
  126.7660  131.1850   60.0920 C   0  0  0  0  0  0  0  0  0  0  0  0
  126.4670  131.1310   61.5920 C   0  0  0  0  0  0  0  0  0  0  0  0
  127.1060  131.8570   62.3560 O   0  0  0  0  0  0  0  0  0  0  0  0
  125.5180  130.2490   61.9710 N   0  0  0  0  0  0  0  0  0  0  0  0
  125.0840  130.0050   63.2640 C   0  0  0  0  0  0  0  0  0  0  0  0
  125.7870  129.5160   64.3740 C   0  0  0  0  0  0  0  0  0  0  0  0
  124.8580  129.4810   65.3880 C   0  0  0  0  0  0  0  0  0  0  0  0
  123.6700  129.9280   64.9170 O   0  0  0  0  0  0  0  0  0  0  0  0
  123.8320  130.2620   63.5700 N   0  0  0  0  0  0  0  0  0  0  0  0
  128.3250  132.4910   57.0570 N   0  0  0  0  0  0  0  0  0  0  0  0
  1  2  1  0
  2  3  2  0
  3  4  1  0
  4  5  1  0
  5  6  1  0
  5  7  1  0
  5  8  1  0
  4  9  2  0
  9 10  1  0
 10 11  3  0
  9 12  1  0
 12 13  1  0
 13 14  1  0
 14 15  1  0
 15 16  2  0
 15 17  1  0
 17 18  1  0
 18 19  1  0
 19 20  2  0
 20 21  1  0
 21 22  1  0
 12 23  2  0
 23  2  1  0
 22 18  2  0
M  END
>  <Binding energies>  (25) 
[-7.09]

>  <Ligand effiencies>  (25) 
[-0.29541666666666666]

>  <Interactions>  (25) 
["V-A:ASP:366:CB:3208, V-A:PRO:540:CB:4882, V-A:TYR:539:CE1:4872, V-A:TYR:539:C:4864, V-A:PRO:540:CA:4880, V-A:LEU:363:CD1:3185, V-A:PRO:540:N:4881, V-A:TYR:539:CD1:4870, V-A:ILE:538:CA:4857, V-A:ILE:538:CD1:4862, V-A:TYR:539:CZ:4874, V-A:LEU:363:CA:3181, V-A:TYR:539:CD2:4871, V-A:LEU:363:CB:3183, V-A:TYR:539:CE2:4873, H-A:ALA:541:N:4888, V-A:PRO:540:C:4878, H-B:ASP:366:OD1:8182, V-B:ASP:366:CG:8181, H-B:ASP:366:OD2:8183, V-B:HIS:456:CE1:9038, V-B:ARG:545:CZ:9895, V-B:ARG:545:CD:9892, V-A:PRO:540:CD:4884, H-B:ARG:545:NH2:9897, H-B:GLY:454:N:9018, H-B:TYR:484:OH:9316, V-A:PRO:540:CG:4883, H-B:ARG:545:NE:9893, H-B:ARG:545:NH1:9896, V-A:LEU:363:CG:3184"]

$$$$
2k_Grossjean_2025
     RDKit          3D

 28 28  0  0  0  0  0  0  0  0999 V2000
  127.9860  122.8310   56.4980 C   0  0  0  0  0  0  0  0  0  0  0  0
  126.8930  121.9290   56.5590 O   0  0  0  0  0  0  0  0  0  0  0  0
  125.7370  122.3920   55.8720 C   0  0  0  0  0  0  0  0  0  0  0  0
  125.0330  123.4670   56.7100 C   0  0  0  0  0  0  0  0  0  0  0  0
  125.3900  123.2980   58.0740 O   0  0  0  0  0  0  0  0  0  0  0  0
  124.7240  124.1830   58.9670 C   0  0  0  0  0  0  0  0  0  0  0  0
  124.2260  125.3940   58.1680 C   0  0  0  0  0  0  0  0  0  0  0  0
  125.3620  126.1330   57.7470 O   0  0  0  0  0  0  0  0  0  0  0  0
  126.2300  126.5520   58.7890 C   0  0  0  0  0  0  0  0  0  0  0  0
  126.3720  128.0850   58.7370 C   0  0  0  0  0  0  0  0  0  0  0  0
  126.3580  128.6140   57.3700 N   0  0  0  0  0  0  0  0  0  0  0  0
  126.6110  129.8900   57.0220 C   0  0  0  0  0  0  0  0  0  0  0  0
  126.9180  130.7660   57.8330 O   0  0  0  0  0  0  0  0  0  0  0  0
  126.4740  130.2120   55.5260 C   0  0  0  0  0  0  0  0  0  0  0  0
  127.9930  129.9910   54.5360 S   0  0  0  0  0  0  0  0  0  0  0  0
  129.3610  129.6110   55.6230 C   0  0  0  0  0  0  0  0  0  0  0  0
  129.5900  128.2910   55.8410 N   0  0  0  0  0  0  0  0  0  0  0  0
  130.6060  127.9300   56.6560 C   0  0  0  0  0  0  0  0  0  0  0  0
  130.7900  126.4380   56.8580 C   0  0  0  0  0  0  0  0  0  0  0  0
  131.4390  128.8580   57.2740 C   0  0  0  0  0  0  0  0  0  0  0  0
  131.2260  130.2280   57.0570 C   0  0  0  0  0  0  0  0  0  0  0  0
  132.1600  131.2420   57.7450 C   0  0  0  0  0  0  0  0  0  0  0  0
  132.5630  132.2130   56.9240 F   0  0  0  0  0  0  0  0  0  0  0  0
  131.5310  131.8200   58.7700 F   0  0  0  0  0  0  0  0  0  0  0  0
  133.2500  130.6230   58.2000 F   0  0  0  0  0  0  0  0  0  0  0  0
  130.1580  130.6220   56.2100 C   0  0  0  0  0  0  0  0  0  0  0  0
  129.8880  132.0390   55.9510 C   0  0  0  0  0  0  0  0  0  0  0  0
  129.6750  133.1580   55.7460 N   0  0  0  0  0  0  0  0  0  0  0  0
  1  2  1  0
  2  3  1  0
  3  4  1  0
  4  5  1  0
  5  6  1  0
  6  7  1  0
  7  8  1  0
  8  9  1  0
  9 10  1  0
 10 11  1  0
 11 12  1  0
 12 13  2  0
 12 14  1  0
 14 15  1  0
 15 16  1  0
 16 17  2  0
 17 18  1  0
 18 19  1  0
 18 20  2  0
 20 21  1  0
 21 22  1  0
 22 23  1  0
 22 24  1  0
 22 25  1  0
 21 26  2  0
 26 27  1  0
 27 28  3  0
 26 16  1  0
M  END
>  <Binding energies>  (26) 
[-5.67]

>  <Ligand effiencies>  (26) 
[-0.19551724137931034]

>  <Interactions>  (26) 
["V-B:PRO:540:N:9853, V-B:PRO:540:CB:9854, V-B:TYR:539:CZ:9846, H-B:TYR:539:N:9839, V-B:TYR:539:CD1:9842, V-B:ILE:538:CA:9829, V-B:LEU:363:CD1:8157, V-B:ILE:538:CG2:9832, V-B:TYR:539:CE1:9844, V-B:ILE:538:CB:9831, V-A:ASP:366:CB:3208, V-A:ASP:366:CG:3209, H-A:TYR:531:OH:4792, H-B:TYR:531:OH:9764, V-B:PRO:540:CD:9856, V-A:PRO:540:CB:4882, V-A:PRO:540:CA:4880, H-A:TYR:539:N:4867, V-A:LEU:363:CD1:3185, V-A:PRO:540:N:4881, V-A:ILE:538:CG2:4860, V-A:ILE:538:CD1:4862, V-B:ASP:366:CB:8180, V-B:TYR:531:CZ:9763, V-B:TYR:531:CE2:9762, V-A:LEU:363:CA:3181, V-B:TYR:531:CE1:9761, V-B:ASP:366:CG:8181, V-A:PRO:540:CD:4884, V-A:PRO:540:CG:4883"]

$$$$
3aa_Grossjean_2025
     RDKit          3D

 34 36  0  0  0  0  0  0  0  0999 V2000
  127.8460  131.2990   54.6980 C   0  0  0  0  0  0  0  0  0  0  0  0
  128.7590  132.5240   54.5890 C   0  0  0  0  0  0  0  0  0  0  0  0
  129.1350  132.9520   55.8920 O   0  0  0  0  0  0  0  0  0  0  0  0
  130.3740  132.6930   56.3830 C   0  0  0  0  0  0  0  0  0  0  0  0
  131.4010  133.2290   55.9570 O   0  0  0  0  0  0  0  0  0  0  0  0
  130.3730  131.6740   57.4870 C   0  0  0  0  0  0  0  0  0  0  0  0
  129.8000  131.9360   58.7400 C   0  0  0  0  0  0  0  0  0  0  0  0
  129.8130  130.9670   59.7400 C   0  0  0  0  0  0  0  0  0  0  0  0
  130.3900  129.7180   59.5070 C   0  0  0  0  0  0  0  0  0  0  0  0
  130.3470  128.8100   60.5840 N   0  0  0  0  0  0  0  0  0  0  0  0
  130.2840  127.4600   60.5690 C   0  0  0  0  0  0  0  0  0  0  0  0
  130.2300  126.7580   59.5580 O   0  0  0  0  0  0  0  0  0  0  0  0
  130.2700  126.7860   61.9410 C   0  0  0  0  0  0  0  0  0  0  0  0
  128.6860  125.9560   62.2700 S   0  0  0  0  0  0  0  0  0  0  0  0
  128.7720  124.3490   61.5100 C   0  0  0  0  0  0  0  0  0  0  0  0
  128.0140  124.2350   60.3930 N   0  0  0  0  0  0  0  0  0  0  0  0
  127.9870  123.0590   59.7150 C   0  0  0  0  0  0  0  0  0  0  0  0
  127.1360  123.0160   58.4820 C   0  0  0  0  0  0  0  0  0  0  0  0
  125.8480  123.5770   58.4830 C   0  0  0  0  0  0  0  0  0  0  0  0
  125.0520  123.5420   57.3410 C   0  0  0  0  0  0  0  0  0  0  0  0
  125.5340  122.9450   56.1810 C   0  0  0  0  0  0  0  0  0  0  0  0
  126.8070  122.3850   56.1540 C   0  0  0  0  0  0  0  0  0  0  0  0
  127.6010  122.4240   57.2960 C   0  0  0  0  0  0  0  0  0  0  0  0
  128.7390  121.9620   60.1490 C   0  0  0  0  0  0  0  0  0  0  0  0
  129.5180  122.0510   61.3130 C   0  0  0  0  0  0  0  0  0  0  0  0
  130.3230  120.8180   61.7640 C   0  0  0  0  0  0  0  0  0  0  0  0
  129.9210  119.6920   61.1710 F   0  0  0  0  0  0  0  0  0  0  0  0
  131.6150  120.9810   61.4760 F   0  0  0  0  0  0  0  0  0  0  0  0
  130.1930  120.6470   63.0800 F   0  0  0  0  0  0  0  0  0  0  0  0
  129.5300  123.2750   62.0250 C   0  0  0  0  0  0  0  0  0  0  0  0
  130.2800  123.4070   63.2780 C   0  0  0  0  0  0  0  0  0  0  0  0
  130.8710  123.5120   64.2680 N   0  0  0  0  0  0  0  0  0  0  0  0
  130.9770  129.4530   58.2610 C   0  0  0  0  0  0  0  0  0  0  0  0
  130.9650  130.4240   57.2640 C   0  0  0  0  0  0  0  0  0  0  0  0
  1  2  1  0
  2  3  1  0
  3  4  1  0
  4  5  2  0
  4  6  1  0
  6  7  2  0
  7  8  1  0
  8  9  2  0
  9 10  1  0
 10 11  1  0
 11 12  2  0
 11 13  1  0
 13 14  1  0
 14 15  1  0
 15 16  2  0
 16 17  1  0
 17 18  1  0
 18 19  2  0
 19 20  1  0
 20 21  2  0
 21 22  1  0
 22 23  2  0
 17 24  2  0
 24 25  1  0
 25 26  1  0
 26 27  1  0
 26 28  1  0
 26 29  1  0
 25 30  2  0
 30 31  1  0
 31 32  3  0
  9 33  1  0
 33 34  2  0
 34  6  1  0
 30 15  1  0
 23 18  1  0
M  END
>  <Binding energies>  (27) 
[-8.65]

>  <Ligand effiencies>  (27) 
[-0.24714285714285716]

>  <Interactions>  (27) 
["V-B:TYR:539:CE2:9845, V-B:PRO:540:N:9853, V-B:PRO:540:CB:9854, V-A:LEU:475:CD1:4254, V-B:PRO:540:CA:9852, V-B:TYR:539:CD1:9842, V-B:ILE:538:CA:9829, V-B:TYR:539:C:9836, V-B:LEU:363:CD1:8157, V-B:ALA:541:CB:9861, V-B:ILE:538:CG2:9832, V-B:TYR:539:CE1:9844, V-B:ILE:538:CB:9831, V-A:LEU:475:CD2:4255, H-A:TYR:484:OH:4344, V-B:PRO:540:CD:9856, V-A:TYR:539:CE1:4872, V-A:TYR:539:C:4864, V-A:PRO:540:CA:4880, H-A:TYR:539:N:4867, V-A:PRO:540:N:4881, V-A:TYR:539:CD1:4870, V-A:ILE:538:CG2:4860, V-A:ILE:538:CA:4857, V-A:ILE:538:CD1:4862, V-A:TYR:539:CZ:4874, V-B:TYR:539:CD2:9843, H-A:GLU:543:OE1:4906, H-A:GLU:543:OE2:4907, H-A:ASP:366:OD1:3210, V-A:TYR:539:CA:4866, V-A:LEU:475:CG:4253, V-A:PRO:482:CG:4323"]

$$$$
3ad_Grossjean_2025
     RDKit          3D

 29 31  0  0  0  0  0  0  0  0999 V2000
  130.3850  132.1460   60.7770 N   0  0  0  0  0  0  0  0  0  0  0  0
  130.4870  131.2460   60.0570 C   0  0  0  0  0  0  0  0  0  0  0  0
  130.6130  130.1030   59.1470 C   0  0  0  0  0  0  0  0  0  0  0  0
  129.7510  128.9850   59.2660 C   0  0  0  0  0  0  0  0  0  0  0  0
  128.6180  128.9140   60.3070 C   0  0  0  0  0  0  0  0  0  0  0  0
  127.7930  127.8850   60.1050 F   0  0  0  0  0  0  0  0  0  0  0  0
  129.1330  128.7830   61.5310 F   0  0  0  0  0  0  0  0  0  0  0  0
  127.8850  130.0270   60.2630 F   0  0  0  0  0  0  0  0  0  0  0  0
  129.9440  127.8970   58.4000 C   0  0  0  0  0  0  0  0  0  0  0  0
  130.9670  127.9230   57.4480 C   0  0  0  0  0  0  0  0  0  0  0  0
  131.2260  126.7820   56.5090 C   0  0  0  0  0  0  0  0  0  0  0  0
  132.5070  126.5680   55.9760 C   0  0  0  0  0  0  0  0  0  0  0  0
  132.7550  125.5110   55.1050 C   0  0  0  0  0  0  0  0  0  0  0  0
  131.7200  124.6490   54.7540 C   0  0  0  0  0  0  0  0  0  0  0  0
  130.4430  124.8370   55.2710 C   0  0  0  0  0  0  0  0  0  0  0  0
  130.2000  125.8960   56.1430 C   0  0  0  0  0  0  0  0  0  0  0  0
  131.7940  128.9940   57.3430 N   0  0  0  0  0  0  0  0  0  0  0  0
  131.6150  130.0640   58.1520 C   0  0  0  0  0  0  0  0  0  0  0  0
  132.7800  131.3780   57.8660 S   0  0  0  0  0  0  0  0  0  0  0  0
  132.5030  131.9850   56.1750 C   0  0  0  0  0  0  0  0  0  0  0  0
  131.0150  132.1130   55.8430 C   0  0  0  0  0  0  0  0  0  0  0  0
  130.4990  133.2310   55.8290 O   0  0  0  0  0  0  0  0  0  0  0  0
  130.3770  130.9520   55.5860 N   0  0  0  0  0  0  0  0  0  0  0  0
  129.0330  130.7200   55.2400 C   0  0  0  0  0  0  0  0  0  0  0  0
  128.1110  130.8250   56.2860 C   0  0  0  0  0  0  0  0  0  0  0  0
  126.7550  130.6100   56.0530 C   0  0  0  0  0  0  0  0  0  0  0  0
  126.3190  130.2850   54.7720 C   0  0  0  0  0  0  0  0  0  0  0  0
  127.2260  130.1700   53.7230 C   0  0  0  0  0  0  0  0  0  0  0  0
  128.5830  130.3840   53.9510 C   0  0  0  0  0  0  0  0  0  0  0  0
  1  2  3  0
  2  3  1  0
  3  4  2  0
  4  5  1  0
  5  6  1  0
  5  7  1  0
  5  8  1  0
  4  9  1  0
  9 10  2  0
 10 11  1  0
 11 12  2  0
 12 13  1  0
 13 14  2  0
 14 15  1  0
 15 16  2  0
 10 17  1  0
 17 18  2  0
 18 19  1  0
 19 20  1  0
 20 21  1  0
 21 22  2  0
 21 23  1  0
 23 24  1  0
 24 25  2  0
 25 26  1  0
 26 27  2  0
 27 28  1  0
 28 29  2  0
 18  3  1  0
 29 24  1  0
 16 11  1  0
M  END
>  <Binding energies>  (28) 
[-7.85]

>  <Ligand effiencies>  (28) 
[-0.26166666666666666]

>  <Interactions>  (28) 
["V-B:TYR:539:CE1:9844, V-B:MET:535:CE:9804, V-A:GLU:543:CD:4905, V-A:ASP:366:CB:3208, V-A:TYR:531:CE1:4789, V-A:ASP:366:C:3204, V-A:ASN:370:CG:3242, H-A:TYR:531:OH:4792, V-A:ASN:370:CB:3241, V-A:PRO:540:CB:4882, V-A:PRO:540:CA:4880, H-A:TYR:539:N:4867, V-A:LEU:363:CD1:3185, V-A:TYR:531:CZ:4791, V-A:ILE:538:CG2:4860, V-A:ILE:538:CD1:4862, V-A:TYR:531:CE2:4790, V-A:TYR:539:CZ:4874, V-B:TYR:531:CZ:9763, V-A:TYR:539:CE2:4873, H-A:ALA:541:N:4888, V-B:TYR:531:CE1:9761"]

$$$$
3ai_Grossjean_2025
     RDKit          3D

 28 30  0  0  0  0  0  0  0  0999 V2000
  130.2890  132.1800   60.7330 N   0  0  0  0  0  0  0  0  0  0  0  0
  130.3870  131.2750   60.0180 C   0  0  0  0  0  0  0  0  0  0  0  0
  130.5110  130.1280   59.1130 C   0  0  0  0  0  0  0  0  0  0  0  0
  129.6450  129.0140   59.2340 C   0  0  0  0  0  0  0  0  0  0  0  0
  128.5090  128.9530   60.2730 C   0  0  0  0  0  0  0  0  0  0  0  0
  127.8140  130.0900   60.3490 F   0  0  0  0  0  0  0  0  0  0  0  0
  127.6540  127.9790   59.9560 F   0  0  0  0  0  0  0  0  0  0  0  0
  129.0090  128.7110   61.4850 F   0  0  0  0  0  0  0  0  0  0  0  0
  129.8340  127.9210   58.3750 C   0  0  0  0  0  0  0  0  0  0  0  0
  130.8600  127.9380   57.4240 C   0  0  0  0  0  0  0  0  0  0  0  0
  131.1150  126.7940   56.4890 C   0  0  0  0  0  0  0  0  0  0  0  0
  130.0580  125.9880   56.0390 C   0  0  0  0  0  0  0  0  0  0  0  0
  130.2860  124.9270   55.1660 C   0  0  0  0  0  0  0  0  0  0  0  0
  131.5790  124.6590   54.7300 C   0  0  0  0  0  0  0  0  0  0  0  0
  132.6440  125.4440   55.1600 C   0  0  0  0  0  0  0  0  0  0  0  0
  132.4120  126.5040   56.0310 C   0  0  0  0  0  0  0  0  0  0  0  0
  131.6930  129.0040   57.3180 N   0  0  0  0  0  0  0  0  0  0  0  0
  131.5150  130.0820   58.1190 C   0  0  0  0  0  0  0  0  0  0  0  0
  132.6850  131.3900   57.8200 S   0  0  0  0  0  0  0  0  0  0  0  0
  132.3040  132.1210   56.1920 C   0  0  0  0  0  0  0  0  0  0  0  0
  130.8110  132.1720   55.8380 C   0  0  0  0  0  0  0  0  0  0  0  0
  130.1950  133.2410   55.8540 O   0  0  0  0  0  0  0  0  0  0  0  0
  130.2640  130.9770   55.5210 N   0  0  0  0  0  0  0  0  0  0  0  0
  128.9480  130.7240   55.1570 C   0  0  0  0  0  0  0  0  0  0  0  0
  128.1050  129.8820   55.8810 C   0  0  0  0  0  0  0  0  0  0  0  0
  126.9110  129.8970   55.1990 C   0  0  0  0  0  0  0  0  0  0  0  0
  127.0270  130.7070   54.1200 O   0  0  0  0  0  0  0  0  0  0  0  0
  128.3230  131.2250   54.1040 N   0  0  0  0  0  0  0  0  0  0  0  0
  1  2  3  0
  2  3  1  0
  3  4  2  0
  4  5  1  0
  5  6  1  0
  5  7  1  0
  5  8  1  0
  4  9  1  0
  9 10  2  0
 10 11  1  0
 11 12  2  0
 12 13  1  0
 13 14  2  0
 14 15  1  0
 15 16  2  0
 10 17  1  0
 17 18  2  0
 18 19  1  0
 19 20  1  0
 20 21  1  0
 21 22  2  0
 21 23  1  0
 23 24  1  0
 24 25  1  0
 25 26  2  0
 26 27  1  0
 27 28  1  0
 18  3  1  0
 28 24  2  0
 16 11  1  0
M  END
>  <Binding energies>  (29) 
[-7.42]

>  <Ligand effiencies>  (29) 
[-0.2558620689655172]

>  <Interactions>  (29) 
["V-B:TYR:539:CE1:9844, V-B:MET:535:CE:9804, V-A:GLU:543:CD:4905, V-A:ASP:366:CB:3208, V-A:TYR:531:CE1:4789, V-A:ASP:366:C:3204, V-A:ASN:370:CG:3242, H-A:TYR:531:OH:4792, V-A:ASN:370:CB:3241, H-A:TYR:539:OH:4875, V-A:PRO:540:CB:4882, V-A:PRO:540:CA:4880, H-A:TYR:539:N:4867, V-A:LEU:363:CD1:3185, V-A:PRO:540:N:4881, H-B:LYS:534:NZ:9792, V-A:TYR:531:CZ:4791, V-A:ILE:538:CG2:4860, V-A:ILE:538:CD1:4862, H-A:ALA:541:N:4888, V-B:TYR:531:CE1:9761, V-A:PRO:540:CD:4884"]

$$$$
3aj_Grossjean_2025
     RDKit          3D

 28 30  0  0  0  0  0  0  0  0999 V2000
  130.9570  132.1230   60.9080 N   0  0  0  0  0  0  0  0  0  0  0  0
  130.9680  131.2220   60.1810 C   0  0  0  0  0  0  0  0  0  0  0  0
  130.9800  130.0810   59.2620 C   0  0  0  0  0  0  0  0  0  0  0  0
  130.1690  128.9450   59.5070 C   0  0  0  0  0  0  0  0  0  0  0  0
  129.2080  128.8530   60.7080 C   0  0  0  0  0  0  0  0  0  0  0  0
  129.8090  128.4240   61.8200 F   0  0  0  0  0  0  0  0  0  0  0  0
  128.6880  130.0530   60.9690 F   0  0  0  0  0  0  0  0  0  0  0  0
  128.2180  128.0030   60.4360 F   0  0  0  0  0  0  0  0  0  0  0  0
  130.2530  127.8590   58.6230 C   0  0  0  0  0  0  0  0  0  0  0  0
  131.1220  127.9030   57.5280 C   0  0  0  0  0  0  0  0  0  0  0  0
  131.2570  126.7680   56.5590 C   0  0  0  0  0  0  0  0  0  0  0  0
  130.1370  126.0120   56.1810 C   0  0  0  0  0  0  0  0  0  0  0  0
  130.2540  124.9580   55.2770 C   0  0  0  0  0  0  0  0  0  0  0  0
  131.4990  124.6450   54.7400 C   0  0  0  0  0  0  0  0  0  0  0  0
  132.6240  125.3800   55.0980 C   0  0  0  0  0  0  0  0  0  0  0  0
  132.5020  126.4330   56.0000 C   0  0  0  0  0  0  0  0  0  0  0  0
  131.9020  128.9900   57.3010 N   0  0  0  0  0  0  0  0  0  0  0  0
  131.8220  130.0610   58.1270 C   0  0  0  0  0  0  0  0  0  0  0  0
  132.9000  131.3990   57.6600 S   0  0  0  0  0  0  0  0  0  0  0  0
  132.2700  132.1060   56.1000 C   0  0  0  0  0  0  0  0  0  0  0  0
  130.7450  132.0490   55.9300 C   0  0  0  0  0  0  0  0  0  0  0  0
  130.0650  133.0760   55.9830 O   0  0  0  0  0  0  0  0  0  0  0  0
  130.2470  130.8100   55.7220 N   0  0  0  0  0  0  0  0  0  0  0  0
  128.9130  130.4740   55.5310 C   0  0  0  0  0  0  0  0  0  0  0  0
  128.1580  129.7020   56.2830 N   0  0  0  0  0  0  0  0  0  0  0  0
  126.9340  129.6040   55.8040 C   0  0  0  0  0  0  0  0  0  0  0  0
  126.6740  130.3100   54.6320 C   0  0  0  0  0  0  0  0  0  0  0  0
  128.1190  131.1410   54.1400 S   0  0  0  0  0  0  0  0  0  0  0  0
  1  2  3  0
  2  3  1  0
  3  4  2  0
  4  5  1  0
  5  6  1  0
  5  7  1  0
  5  8  1  0
  4  9  1  0
  9 10  2  0
 10 11  1  0
 11 12  2  0
 12 13  1  0
 13 14  2  0
 14 15  1  0
 15 16  2  0
 10 17  1  0
 17 18  2  0
 18 19  1  0
 19 20  1  0
 20 21  1  0
 21 22  2  0
 21 23  1  0
 23 24  1  0
 24 25  2  0
 25 26  1  0
 26 27  2  0
 27 28  1  0
 18  3  1  0
 28 24  1  0
 16 11  1  0
M  END
>  <Binding energies>  (30) 
[-7.43]

>  <Ligand effiencies>  (30) 
[-0.25620689655172413]

>  <Interactions>  (30) 
["V-B:TYR:539:CE1:9844, V-B:MET:535:CE:9804, V-A:GLU:543:CD:4905, V-A:ASP:366:CB:3208, V-A:TYR:531:CE1:4789, V-A:ASP:366:C:3204, V-A:ASN:370:CG:3242, H-A:TYR:531:OH:4792, V-A:ASN:370:CB:3241, V-A:PRO:540:CB:4882, V-A:PRO:540:CA:4880, H-A:TYR:539:N:4867, V-A:LEU:363:CD1:3185, V-A:PRO:540:N:4881, V-A:TYR:531:CZ:4791, V-A:ILE:538:CG2:4860, V-A:ILE:538:CD1:4862, H-A:ALA:541:N:4888, V-B:TYR:531:CE1:9761, V-A:PRO:540:CD:4884"]

$$$$
3ak_Grossjean_2025
     RDKit          3D

 33 34  0  0  0  0  0  0  0  0999 V2000
  130.4900  132.1510   56.1760 C   0  0  0  0  0  0  0  0  0  0  0  0
  129.9410  133.1170   55.2930 O   0  0  0  0  0  0  0  0  0  0  0  0
  128.7320  132.6970   54.6760 C   0  0  0  0  0  0  0  0  0  0  0  0
  128.4660  131.2320   55.0440 C   0  0  0  0  0  0  0  0  0  0  0  0
  128.4270  130.4550   53.8520 O   0  0  0  0  0  0  0  0  0  0  0  0
  129.0970  129.1990   53.9130 C   0  0  0  0  0  0  0  0  0  0  0  0
  129.2160  128.6290   55.3390 C   0  0  0  0  0  0  0  0  0  0  0  0
  130.0400  127.4720   55.3120 O   0  0  0  0  0  0  0  0  0  0  0  0
  130.7110  127.2140   56.5380 C   0  0  0  0  0  0  0  0  0  0  0  0
  130.6780  125.7080   56.8560 C   0  0  0  0  0  0  0  0  0  0  0  0
  129.8380  124.9350   55.9390 N   0  0  0  0  0  0  0  0  0  0  0  0
  130.2780  124.1140   54.9660 C   0  0  0  0  0  0  0  0  0  0  0  0
  131.4750  123.9120   54.7550 O   0  0  0  0  0  0  0  0  0  0  0  0
  129.2470  123.3960   54.0790 C   0  0  0  0  0  0  0  0  0  0  0  0
  128.2670  122.0690   54.8740 S   0  0  0  0  0  0  0  0  0  0  0  0
  127.7270  122.6380   56.4790 C   0  0  0  0  0  0  0  0  0  0  0  0
  128.6650  122.6080   57.4580 N   0  0  0  0  0  0  0  0  0  0  0  0
  128.3490  123.0150   58.7130 C   0  0  0  0  0  0  0  0  0  0  0  0
  129.4470  122.9490   59.7330 C   0  0  0  0  0  0  0  0  0  0  0  0
  130.5050  123.8710   59.7080 C   0  0  0  0  0  0  0  0  0  0  0  0
  131.5250  123.8170   60.6540 C   0  0  0  0  0  0  0  0  0  0  0  0
  131.4990  122.8380   61.6420 C   0  0  0  0  0  0  0  0  0  0  0  0
  130.4610  121.9150   61.6910 C   0  0  0  0  0  0  0  0  0  0  0  0
  129.4420  121.9720   60.7440 C   0  0  0  0  0  0  0  0  0  0  0  0
  127.0650  123.4840   59.0130 C   0  0  0  0  0  0  0  0  0  0  0  0
  126.0770  123.5270   58.0190 C   0  0  0  0  0  0  0  0  0  0  0  0
  124.6740  124.0470   58.3880 C   0  0  0  0  0  0  0  0  0  0  0  0
  124.3930  125.1430   57.6830 F   0  0  0  0  0  0  0  0  0  0  0  0
  123.7560  123.1160   58.1230 F   0  0  0  0  0  0  0  0  0  0  0  0
  124.5610  124.3620   59.6800 F   0  0  0  0  0  0  0  0  0  0  0  0
  126.4110  123.0910   56.7140 C   0  0  0  0  0  0  0  0  0  0  0  0
  125.4180  123.1140   55.6350 C   0  0  0  0  0  0  0  0  0  0  0  0
  124.6340  123.1300   54.7830 N   0  0  0  0  0  0  0  0  0  0  0  0
  1  2  1  0
  2  3  1  0
  3  4  1  0
  4  5  1  0
  5  6  1  0
  6  7  1  0
  7  8  1  0
  8  9  1  0
  9 10  1  0
 10 11  1  0
 11 12  1  0
 12 13  2  0
 12 14  1  0
 14 15  1  0
 15 16  1  0
 16 17  2  0
 17 18  1  0
 18 19  1  0
 19 20  2  0
 20 21  1  0
 21 22  2  0
 22 23  1  0
 23 24  2  0
 18 25  2  0
 25 26  1  0
 26 27  1  0
 27 28  1  0
 27 29  1  0
 27 30  1  0
 26 31  2  0
 31 32  1  0
 32 33  3  0
 31 16  1  0
 24 19  1  0
M  END
>  <Binding energies>  (31) 
[-7.4]

>  <Ligand effiencies>  (31) 
[-0.21764705882352942]

>  <Interactions>  (31) 
["V-B:TYR:539:CE2:9845, V-B:PRO:540:CB:9854, V-B:TYR:539:CZ:9846, V-A:LEU:475:CD1:4254, V-B:PRO:540:CA:9852, H-B:TYR:539:N:9839, V-B:TYR:539:CD1:9842, V-B:LEU:363:CD1:8157, V-B:ALA:541:CB:9861, V-B:ILE:538:CG2:9832, V-B:TYR:539:CE1:9844, V-B:ILE:538:CB:9831, V-B:MET:535:CE:9804, H-B:TYR:539:OH:9847, H-A:TYR:531:OH:4792, V-B:LEU:363:CA:8153, V-A:TYR:539:CE1:4872, V-A:TYR:539:C:4864, H-A:TYR:539:N:4867, V-A:PRO:540:N:4881, V-A:TYR:539:CD1:4870, V-A:TYR:531:CZ:4791, V-A:ILE:538:CA:4857, V-A:ILE:538:CD1:4862, V-A:TYR:539:CZ:4874, V-B:TYR:531:CZ:9763, V-B:TYR:531:CE2:9762, V-A:MET:535:CE:4832, V-B:TYR:539:CD2:9843, V-A:TYR:539:CE2:4873, V-A:TYR:539:CG:4869, V-B:LEU:363:CB:8155, V-B:PRO:540:CG:9855, V-B:LEU:363:CG:8156"]

$$$$
3bk_Grossjean_2025
     RDKit          3D

 30 31  0  0  0  0  0  0  0  0999 V2000
  127.9310  122.4260   55.1570 C   0  0  0  0  0  0  0  0  0  0  0  0
  127.3010  122.0220   56.3630 O   0  0  0  0  0  0  0  0  0  0  0  0
  126.8050  123.1080   57.1340 C   0  0  0  0  0  0  0  0  0  0  0  0
  127.9440  124.0950   57.4260 C   0  0  0  0  0  0  0  0  0  0  0  0
  127.5470  125.4010   57.0330 O   0  0  0  0  0  0  0  0  0  0  0  0
  127.3230  126.2860   58.1230 C   0  0  0  0  0  0  0  0  0  0  0  0
  128.3790  127.3980   58.0980 C   0  0  0  0  0  0  0  0  0  0  0  0
  127.9220  128.4630   57.2740 O   0  0  0  0  0  0  0  0  0  0  0  0
  126.5070  128.5930   57.2340 C   0  0  0  0  0  0  0  0  0  0  0  0
  126.1340  129.8960   56.5140 C   0  0  0  0  0  0  0  0  0  0  0  0
  127.2500  130.4470   55.7440 N   0  0  0  0  0  0  0  0  0  0  0  0
  127.1770  130.9090   54.4840 C   0  0  0  0  0  0  0  0  0  0  0  0
  126.1350  130.9400   53.8260 O   0  0  0  0  0  0  0  0  0  0  0  0
  128.4760  131.4440   53.8770 C   0  0  0  0  0  0  0  0  0  0  0  0
  129.1070  132.8910   54.7840 S   0  0  0  0  0  0  0  0  0  0  0  0
  129.2970  132.4600   56.5060 C   0  0  0  0  0  0  0  0  0  0  0  0
  128.1790  132.5580   57.2690 N   0  0  0  0  0  0  0  0  0  0  0  0
  128.2300  132.2520   58.5920 C   0  0  0  0  0  0  0  0  0  0  0  0
  126.9460  132.3670   59.3570 C   0  0  0  0  0  0  0  0  0  0  0  0
  126.8960  133.0630   60.5760 C   0  0  0  0  0  0  0  0  0  0  0  0
  125.7060  133.1680   61.2930 C   0  0  0  0  0  0  0  0  0  0  0  0
  124.5480  132.5780   60.7990 C   0  0  0  0  0  0  0  0  0  0  0  0
  124.5690  131.8870   59.5920 C   0  0  0  0  0  0  0  0  0  0  0  0
  125.7600  131.7860   58.8770 C   0  0  0  0  0  0  0  0  0  0  0  0
  129.4250  131.8290   59.1850 C   0  0  0  0  0  0  0  0  0  0  0  0
  130.5880  131.7230   58.4140 C   0  0  0  0  0  0  0  0  0  0  0  0
  131.8700  131.2580   59.1010 C   0  0  0  0  0  0  0  0  0  0  0  0
  130.5350  132.0430   57.0410 C   0  0  0  0  0  0  0  0  0  0  0  0
  131.7370  131.9390   56.2080 C   0  0  0  0  0  0  0  0  0  0  0  0
  132.6860  131.8580   55.5500 N   0  0  0  0  0  0  0  0  0  0  0  0
  1  2  1  0
  2  3  1  0
  3  4  1  0
  4  5  1  0
  5  6  1  0
  6  7  1  0
  7  8  1  0
  8  9  1  0
  9 10  1  0
 10 11  1  0
 11 12  1  0
 12 13  2  0
 12 14  1  0
 14 15  1  0
 15 16  1  0
 16 17  2  0
 17 18  1  0
 18 19  1  0
 19 20  2  0
 20 21  1  0
 21 22  2  0
 22 23  1  0
 23 24  2  0
 18 25  2  0
 25 26  1  0
 26 27  1  0
 26 28  2  0
 28 29  1  0
 29 30  3  0
 28 16  1  0
 24 19  1  0
M  END
>  <Binding energies>  (32) 
[-6.78]

>  <Ligand effiencies>  (32) 
[-0.21870967741935485]

>  <Interactions>  (32) 
["V-B:PRO:540:CA:9852, H-B:TYR:539:N:9839, V-B:TYR:539:CD1:9842, V-B:ILE:538:CA:9829, V-B:ILE:538:CG2:9832, V-B:TYR:539:CE1:9844, V-B:ILE:538:CB:9831, V-B:MET:535:CE:9804, H-A:TYR:531:OH:4792, H-A:TYR:539:OH:4875, V-A:PRO:540:CB:4882, V-A:TYR:539:C:4864, V-A:PRO:540:CA:4880, H-A:TYR:539:N:4867, V-A:LEU:363:CD1:3185, V-A:PRO:540:N:4881, H-B:LYS:534:NZ:9792, V-A:ILE:538:CG2:4860, V-A:ILE:538:CD1:4862, V-A:TYR:539:CZ:4874, V-B:TYR:531:CZ:9763, V-A:TYR:539:CD2:4871, V-A:TYR:539:CE2:4873, V-B:TYR:531:CE1:9761, V-B:ASP:366:CG:8181, V-B:ILE:369:CG2:8205, V-B:ILE:369:CD1:8207"]

$$$$
3cb_Grossjean_2025
     RDKit          3D

 30 32  0  0  0  0  0  0  0  0999 V2000
  127.9240  122.4750   55.1360 C   0  0  0  0  0  0  0  0  0  0  0  0
  126.9990  121.7200   55.9040 O   0  0  0  0  0  0  0  0  0  0  0  0
  125.8180  122.2580   56.3040 C   0  0  0  0  0  0  0  0  0  0  0  0
  124.7380  122.0080   55.7610 O   0  0  0  0  0  0  0  0  0  0  0  0
  125.9570  123.1900   57.4740 C   0  0  0  0  0  0  0  0  0  0  0  0
  127.0200  123.0890   58.3830 C   0  0  0  0  0  0  0  0  0  0  0  0
  127.1200  123.9710   59.4550 C   0  0  0  0  0  0  0  0  0  0  0  0
  126.1620  124.9670   59.6460 C   0  0  0  0  0  0  0  0  0  0  0  0
  126.3630  125.8050   60.7600 N   0  0  0  0  0  0  0  0  0  0  0  0
  127.2220  126.8340   60.9290 C   0  0  0  0  0  0  0  0  0  0  0  0
  128.0080  127.2440   60.0730 O   0  0  0  0  0  0  0  0  0  0  0  0
  127.1470  127.5070   62.3080 C   0  0  0  0  0  0  0  0  0  0  0  0
  128.7580  127.9930   63.0160 S   0  0  0  0  0  0  0  0  0  0  0  0
  129.0740  126.9430   64.4190 C   0  0  0  0  0  0  0  0  0  0  0  0
  129.5070  125.7040   64.0790 N   0  0  0  0  0  0  0  0  0  0  0  0
  129.7800  124.8200   65.0630 C   0  0  0  0  0  0  0  0  0  0  0  0
  130.2720  123.4580   64.6100 C   0  0  0  0  0  0  0  0  0  0  0  0
  129.6300  125.1290   66.4120 C   0  0  0  0  0  0  0  0  0  0  0  0
  129.1680  126.3980   66.7870 C   0  0  0  0  0  0  0  0  0  0  0  0
  129.0170  126.6790   68.2470 C   0  0  0  0  0  0  0  0  0  0  0  0
  129.9530  127.4830   68.9100 C   0  0  0  0  0  0  0  0  0  0  0  0
  129.8150  127.7600   70.2680 C   0  0  0  0  0  0  0  0  0  0  0  0
  128.7340  127.2350   70.9700 C   0  0  0  0  0  0  0  0  0  0  0  0
  127.7900  126.4400   70.3270 C   0  0  0  0  0  0  0  0  0  0  0  0
  127.9300  126.1670   68.9680 C   0  0  0  0  0  0  0  0  0  0  0  0
  128.8640  127.3330   65.7640 C   0  0  0  0  0  0  0  0  0  0  0  0
  128.2900  128.6410   66.0950 C   0  0  0  0  0  0  0  0  0  0  0  0
  127.8370  129.6740   66.3550 N   0  0  0  0  0  0  0  0  0  0  0  0
  125.0970  125.0770   58.7380 C   0  0  0  0  0  0  0  0  0  0  0  0
  124.9980  124.1940   57.6650 C   0  0  0  0  0  0  0  0  0  0  0  0
  1  2  1  0
  2  3  1  0
  3  4  2  0
  3  5  1  0
  5  6  2  0
  6  7  1  0
  7  8  2  0
  8  9  1  0
  9 10  1  0
 10 11  2  0
 10 12  1  0
 12 13  1  0
 13 14  1  0
 14 15  2  0
 15 16  1  0
 16 17  1  0
 16 18  2  0
 18 19  1  0
 19 20  1  0
 20 21  2  0
 21 22  1  0
 22 23  2  0
 23 24  1  0
 24 25  2  0
 19 26  2  0
 26 27  1  0
 27 28  3  0
  8 29  1  0
 29 30  2  0
 30  5  1  0
 26 14  1  0
 25 20  1  0
M  END
>  <Binding energies>  (33) 
[-8.96]

>  <Ligand effiencies>  (33) 
[-0.28903225806451616]

>  <Interactions>  (33) 
["V-B:PRO:540:N:9853, V-B:PRO:540:CB:9854, V-A:TYR:484:CZ:4343, V-B:PRO:540:CA:9852, H-B:TYR:539:N:9839, V-B:TYR:539:CD1:9842, V-B:ILE:538:CA:9829, V-B:LEU:363:CD1:8157, V-B:ILE:538:CG2:9832, V-B:TYR:539:CE1:9844, V-B:GLU:543:CD:9877, V-A:TYR:484:CE1:4341, V-B:ILE:538:CB:9831, V-B:GLU:543:CG:9876, H-B:GLU:543:OE2:9879, V-B:MET:535:CE:9804, V-A:GLU:543:CD:4905, V-A:HIS:456:CE1:4066, V-A:GLU:543:CG:4904, V-B:GLU:543:CB:9875, V-B:PRO:540:CD:9856, H-B:ASP:366:OD1:8182, V-B:HIS:456:CD2:9036, V-A:GLU:543:CB:4903, V-B:HIS:456:CE1:9038, V-B:GLY:544:C:9881, V-B:GLU:543:C:9871, H-B:TYR:484:OH:9316"]

$$$$
3ch_Grossjean_2025
     RDKit          3D

 32 34  0  0  0  0  0  0  0  0999 V2000
  124.3360  125.4700   58.6550 C   0  0  0  0  0  0  0  0  0  0  0  0
  124.6060  124.1320   59.0580 O   0  0  0  0  0  0  0  0  0  0  0  0
  125.8500  123.5810   58.8080 C   0  0  0  0  0  0  0  0  0  0  0  0
  126.8650  123.4630   59.7710 C   0  0  0  0  0  0  0  0  0  0  0  0
  128.1000  122.8830   59.4470 C   0  0  0  0  0  0  0  0  0  0  0  0
  129.1730  122.7170   60.3430 N   0  0  0  0  0  0  0  0  0  0  0  0
  130.4320  123.2030   60.2810 C   0  0  0  0  0  0  0  0  0  0  0  0
  130.8760  123.9240   59.3870 O   0  0  0  0  0  0  0  0  0  0  0  0
  131.3380  122.8400   61.4570 C   0  0  0  0  0  0  0  0  0  0  0  0
  132.7190  124.0060   61.6460 S   0  0  0  0  0  0  0  0  0  0  0  0
  132.5950  124.6540   63.2990 C   0  0  0  0  0  0  0  0  0  0  0  0
  133.7590  124.6110   63.9950 N   0  0  0  0  0  0  0  0  0  0  0  0
  133.7690  125.0740   65.2650 C   0  0  0  0  0  0  0  0  0  0  0  0
  135.1000  124.9920   65.9870 C   0  0  0  0  0  0  0  0  0  0  0  0
  132.6340  125.5890   65.8860 C   0  0  0  0  0  0  0  0  0  0  0  0
  131.4230  125.6480   65.1810 C   0  0  0  0  0  0  0  0  0  0  0  0
  130.2290  126.1990   65.8910 C   0  0  0  0  0  0  0  0  0  0  0  0
  129.5540  127.3110   65.3730 C   0  0  0  0  0  0  0  0  0  0  0  0
  128.4460  127.8360   66.0330 C   0  0  0  0  0  0  0  0  0  0  0  0
  128.0100  127.2500   67.2190 C   0  0  0  0  0  0  0  0  0  0  0  0
  128.6740  126.1480   67.7510 C   0  0  0  0  0  0  0  0  0  0  0  0
  129.7820  125.6270   67.0880 C   0  0  0  0  0  0  0  0  0  0  0  0
  131.4010  125.1850   63.8410 C   0  0  0  0  0  0  0  0  0  0  0  0
  130.1890  125.3100   63.0260 C   0  0  0  0  0  0  0  0  0  0  0  0
  129.2310  125.4070   62.3830 N   0  0  0  0  0  0  0  0  0  0  0  0
  128.3210  122.4390   58.1420 C   0  0  0  0  0  0  0  0  0  0  0  0
  127.3230  122.5480   57.1610 C   0  0  0  0  0  0  0  0  0  0  0  0
  127.4750  122.1210   55.8530 O   0  0  0  0  0  0  0  0  0  0  0  0
  128.3740  122.8110   54.9910 C   0  0  0  0  0  0  0  0  0  0  0  0
  126.0930  123.1230   57.5060 C   0  0  0  0  0  0  0  0  0  0  0  0
  125.1010  123.2190   56.5590 O   0  0  0  0  0  0  0  0  0  0  0  0
  124.8230  122.0000   55.8850 C   0  0  0  0  0  0  0  0  0  0  0  0
  1  2  1  0
  2  3  1  0
  3  4  2  0
  4  5  1  0
  5  6  1  0
  6  7  1  0
  7  8  2  0
  7  9  1  0
  9 10  1  0
 10 11  1  0
 11 12  2  0
 12 13  1  0
 13 14  1  0
 13 15  2  0
 15 16  1  0
 16 17  1  0
 17 18  2  0
 18 19  1  0
 19 20  2  0
 20 21  1  0
 21 22  2  0
 16 23  2  0
 23 24  1  0
 24 25  3  0
  5 26  2  0
 26 27  1  0
 27 28  1  0
 28 29  1  0
 27 30  2  0
 30 31  1  0
 31 32  1  0
 30  3  1  0
 23 11  1  0
 22 17  1  0
M  END
>  <Binding energies>  (34) 
[-8.35]

>  <Ligand effiencies>  (34) 
[-0.253030303030303]

>  <Interactions>  (34) 
["V-B:TYR:539:CE2:9845, V-B:PRO:540:N:9853, V-B:PRO:540:CB:9854, V-B:TYR:539:CZ:9846, V-B:PRO:540:CA:9852, H-B:TYR:539:N:9839, V-B:TYR:539:CD1:9842, V-B:ILE:538:CA:9829, V-B:TYR:539:C:9836, V-B:LEU:363:CD1:8157, V-B:ILE:538:CG2:9832, V-B:TYR:539:CE1:9844, V-B:GLU:543:CD:9877, V-B:ILE:538:CB:9831, V-B:MET:535:CE:9804, V-A:ARG:545:CZ:4923, V-A:GLY:454:CA:4045, V-A:GLU:543:CD:4905, V-A:HIS:456:CE1:4066, H-B:TYR:539:OH:9847, V-B:GLU:543:CB:9875, H-A:GLY:454:N:4046, V-B:PRO:540:CD:9856, V-B:ASP:366:CB:8180, V-B:TYR:539:CG:9841, V-B:TYR:539:CD2:9843, V-B:ASP:366:CG:8181, V-B:HIS:456:CE1:9038, V-A:GLY:453:C:4038, V-A:GLY:453:CA:4040, V-A:GLY:454:C:4043, V-A:ARG:545:CG:4919, V-A:ARG:545:CD:4920, V-B:ILE:538:CG1:9833, V-B:ILE:538:CD1:9834, V-B:PRO:540:CG:9855"]

$$$$
3ci_Grossjean_2025
     RDKit          3D

 25 27  0  0  0  0  0  0  0  0999 V2000
  130.8970  125.0220   60.9830 C   0  0  0  0  0  0  0  0  0  0  0  0
  130.7560  125.3620   59.5110 C   0  0  0  0  0  0  0  0  0  0  0  0
  130.0300  124.5550   58.6410 C   0  0  0  0  0  0  0  0  0  0  0  0
  129.9140  124.9200   57.2920 C   0  0  0  0  0  0  0  0  0  0  0  0
  129.1130  124.0310   56.3980 C   0  0  0  0  0  0  0  0  0  0  0  0
  129.5420  123.7530   55.0930 C   0  0  0  0  0  0  0  0  0  0  0  0
  128.7870  122.9310   54.2600 C   0  0  0  0  0  0  0  0  0  0  0  0
  127.5940  122.3880   54.7280 C   0  0  0  0  0  0  0  0  0  0  0  0
  127.1490  122.6610   56.0180 C   0  0  0  0  0  0  0  0  0  0  0  0
  127.9060  123.4830   56.8480 C   0  0  0  0  0  0  0  0  0  0  0  0
  130.5580  126.1070   56.8570 C   0  0  0  0  0  0  0  0  0  0  0  0
  130.5080  126.5160   55.4500 C   0  0  0  0  0  0  0  0  0  0  0  0
  130.4660  126.8390   54.3390 N   0  0  0  0  0  0  0  0  0  0  0  0
  131.2720  126.8720   57.8110 C   0  0  0  0  0  0  0  0  0  0  0  0
  132.1020  128.3960   57.3780 S   0  0  0  0  0  0  0  0  0  0  0  0
  131.5760  129.7200   58.5150 C   0  0  0  0  0  0  0  0  0  0  0  0
  130.6420  130.7460   57.8640 C   0  0  0  0  0  0  0  0  0  0  0  0
  130.0070  131.5230   58.5800 O   0  0  0  0  0  0  0  0  0  0  0  0
  130.5760  130.7060   56.5140 N   0  0  0  0  0  0  0  0  0  0  0  0
  129.8360  131.5360   55.6830 C   0  0  0  0  0  0  0  0  0  0  0  0
  128.8980  131.0560   54.7700 C   0  0  0  0  0  0  0  0  0  0  0  0
  128.3950  132.1780   54.1500 C   0  0  0  0  0  0  0  0  0  0  0  0
  128.9990  133.2750   54.6660 O   0  0  0  0  0  0  0  0  0  0  0  0
  129.9110  132.8550   55.6360 N   0  0  0  0  0  0  0  0  0  0  0  0
  131.3700  126.4970   59.1120 N   0  0  0  0  0  0  0  0  0  0  0  0
  1  2  1  0
  2  3  2  0
  3  4  1  0
  4  5  1  0
  5  6  2  0
  6  7  1  0
  7  8  2  0
  8  9  1  0
  9 10  2  0
  4 11  2  0
 11 12  1  0
 12 13  3  0
 11 14  1  0
 14 15  1  0
 15 16  1  0
 16 17  1  0
 17 18  2  0
 17 19  1  0
 19 20  1  0
 20 21  1  0
 21 22  2  0
 22 23  1  0
 23 24  1  0
 14 25  2  0
 25  2  1  0
 10  5  1  0
 24 20  2  0
M  END
>  <Binding energies>  (35) 
[-7.65]

>  <Ligand effiencies>  (35) 
[-0.29423076923076924]

>  <Interactions>  (35) 
["V-B:TYR:539:CZ:9846, V-B:TYR:539:CD1:9842, V-B:ILE:538:CA:9829, V-B:ILE:538:C:9827, V-B:ILE:538:CG2:9832, V-B:TYR:539:CE1:9844, V-B:ILE:538:CB:9831, V-B:MET:535:CE:9804, V-A:ASP:366:CB:3208, V-A:ASP:366:CG:3209, V-A:TYR:531:CE1:4789, H-A:TYR:531:OH:4792, V-A:TYR:539:CE1:4872, H-A:TYR:539:N:4867, V-A:ILE:538:CA:4857, V-A:ILE:538:CD1:4862, V-A:TYR:539:CZ:4874"]

$$$$
3ck_Grossjean_2025
     RDKit          3D

 30 31  0  0  0  0  0  0  0  0999 V2000
  127.8920  122.6350   55.1090 C   0  0  0  0  0  0  0  0  0  0  0  0
  127.1300  121.8020   55.9680 O   0  0  0  0  0  0  0  0  0  0  0  0
  126.6580  122.4680   57.1300 C   0  0  0  0  0  0  0  0  0  0  0  0
  127.7220  122.3940   58.2320 C   0  0  0  0  0  0  0  0  0  0  0  0
  127.1780  122.8960   59.4460 O   0  0  0  0  0  0  0  0  0  0  0  0
  126.4570  124.1120   59.2960 C   0  0  0  0  0  0  0  0  0  0  0  0
  127.4340  125.2290   58.9080 C   0  0  0  0  0  0  0  0  0  0  0  0
  126.7000  126.2640   58.2710 O   0  0  0  0  0  0  0  0  0  0  0  0
  127.2880  127.5530   58.3600 C   0  0  0  0  0  0  0  0  0  0  0  0
  126.2430  128.6220   57.9890 C   0  0  0  0  0  0  0  0  0  0  0  0
  126.4070  129.1620   56.6360 N   0  0  0  0  0  0  0  0  0  0  0  0
  126.3460  130.4630   56.2980 C   0  0  0  0  0  0  0  0  0  0  0  0
  126.1680  131.3670   57.1180 O   0  0  0  0  0  0  0  0  0  0  0  0
  126.5230  130.7670   54.8020 C   0  0  0  0  0  0  0  0  0  0  0  0
  128.1520  130.3330   54.1010 S   0  0  0  0  0  0  0  0  0  0  0  0
  129.1340  129.5290   55.3580 C   0  0  0  0  0  0  0  0  0  0  0  0
  129.0950  128.1720   55.3540 N   0  0  0  0  0  0  0  0  0  0  0  0
  129.8110  127.4980   56.2810 C   0  0  0  0  0  0  0  0  0  0  0  0
  129.7160  125.9860   56.2150 C   0  0  0  0  0  0  0  0  0  0  0  0
  130.5880  128.1400   57.2420 C   0  0  0  0  0  0  0  0  0  0  0  0
  130.6390  129.5400   57.2690 C   0  0  0  0  0  0  0  0  0  0  0  0
  131.4670  130.1850   58.3320 C   0  0  0  0  0  0  0  0  0  0  0  0
  130.8770  130.5830   59.5380 C   0  0  0  0  0  0  0  0  0  0  0  0
  131.6410  131.1940   60.5300 C   0  0  0  0  0  0  0  0  0  0  0  0
  132.9980  131.4170   60.3150 C   0  0  0  0  0  0  0  0  0  0  0  0
  133.5980  131.0350   59.1170 C   0  0  0  0  0  0  0  0  0  0  0  0
  132.8320  130.4240   58.1280 C   0  0  0  0  0  0  0  0  0  0  0  0
  129.9020  130.2600   56.2940 C   0  0  0  0  0  0  0  0  0  0  0  0
  129.9510  131.7260   56.2490 C   0  0  0  0  0  0  0  0  0  0  0  0
  129.9900  132.8820   56.2130 N   0  0  0  0  0  0  0  0  0  0  0  0
  1  2  1  0
  2  3  1  0
  3  4  1  0
  4  5  1  0
  5  6  1  0
  6  7  1  0
  7  8  1  0
  8  9  1  0
  9 10  1  0
 10 11  1  0
 11 12  1  0
 12 13  2  0
 12 14  1  0
 14 15  1  0
 15 16  1  0
 16 17  2  0
 17 18  1  0
 18 19  1  0
 18 20  2  0
 20 21  1  0
 21 22  1  0
 22 23  2  0
 23 24  1  0
 24 25  2  0
 25 26  1  0
 26 27  2  0
 21 28  2  0
 28 29  1  0
 29 30  3  0
 28 16  1  0
 27 22  1  0
M  END
>  <Binding energies>  (36) 
[-6.74]

>  <Ligand effiencies>  (36) 
[-0.2174193548387097]

>  <Interactions>  (36) 
["V-B:PRO:540:N:9853, V-B:PRO:540:CB:9854, V-B:PRO:540:CA:9852, H-B:TYR:539:N:9839, V-B:TYR:539:CD1:9842, V-B:ILE:538:CA:9829, V-B:TYR:539:C:9836, V-B:ILE:538:CG2:9832, V-B:TYR:539:CE1:9844, V-B:ILE:538:CB:9831, V-B:MET:535:CE:9804, V-A:ASP:366:CG:3209, H-A:TYR:531:OH:4792, H-B:TYR:531:OH:9764, V-B:PRO:540:CD:9856, H-A:TYR:539:OH:4875, V-A:PRO:540:CB:4882, V-A:PRO:540:CA:4880, H-A:TYR:539:N:4867, V-A:TYR:539:CZ:4874, V-B:TYR:531:CZ:9763, V-A:LEU:363:CA:3181, V-A:LEU:363:CB:3183, V-A:TYR:539:CE2:4873, V-B:TYR:531:CE1:9761, V-A:ASN:362:CB:3172, V-A:ASN:362:C:3168"]

$$$$
4aa_Grossjean_2025
     RDKit          3D

 26 28  0  0  0  0  0  0  0  0999 V2000
  129.3840  123.0640   54.0200 C   0  0  0  0  0  0  0  0  0  0  0  0
  127.9490  122.7390   54.4460 C   0  0  0  0  0  0  0  0  0  0  0  0
  127.9720  121.9940   55.6570 O   0  0  0  0  0  0  0  0  0  0  0  0
  126.9550  122.0780   56.5520 C   0  0  0  0  0  0  0  0  0  0  0  0
  125.8020  121.7060   56.3090 O   0  0  0  0  0  0  0  0  0  0  0  0
  127.3690  122.6740   57.8660 C   0  0  0  0  0  0  0  0  0  0  0  0
  126.8400  123.9120   58.2530 C   0  0  0  0  0  0  0  0  0  0  0  0
  127.2080  124.4930   59.4640 C   0  0  0  0  0  0  0  0  0  0  0  0
  128.1040  123.8450   60.3160 C   0  0  0  0  0  0  0  0  0  0  0  0
  128.4130  124.5240   61.5100 N   0  0  0  0  0  0  0  0  0  0  0  0
  129.6120  124.7580   62.0960 C   0  0  0  0  0  0  0  0  0  0  0  0
  130.6870  124.3440   61.6620 O   0  0  0  0  0  0  0  0  0  0  0  0
  129.5600  125.5380   63.3340 C   0  0  0  0  0  0  0  0  0  0  0  0
  130.5840  125.1020   64.7050 S   0  0  0  0  0  0  0  0  0  0  0  0
  129.9140  126.3930   65.6760 C   0  0  0  0  0  0  0  0  0  0  0  0
  130.3130  126.6130   66.9300 N   0  0  0  0  0  0  0  0  0  0  0  0
  129.7110  127.6430   67.5730 C   0  0  0  0  0  0  0  0  0  0  0  0
  130.1760  127.8730   69.0000 C   0  0  0  0  0  0  0  0  0  0  0  0
  128.7330  128.4510   66.9980 C   0  0  0  0  0  0  0  0  0  0  0  0
  128.3180  128.2190   65.6820 C   0  0  0  0  0  0  0  0  0  0  0  0
  127.2480  129.1280   65.0980 C   0  0  0  0  0  0  0  0  0  0  0  0
  128.9230  127.1450   64.9760 C   0  0  0  0  0  0  0  0  0  0  0  0
  128.7380  126.6330   63.6440 C   0  0  0  0  0  0  0  0  0  0  0  0
  127.8350  127.1830   62.7690 N   0  0  0  0  0  0  0  0  0  0  0  0
  128.6420  122.6070   59.9350 C   0  0  0  0  0  0  0  0  0  0  0  0
  128.2760  122.0290   58.7220 C   0  0  0  0  0  0  0  0  0  0  0  0
  1  2  1  0
  2  3  1  0
  3  4  1  0
  4  5  2  0
  4  6  1  0
  6  7  2  0
  7  8  1  0
  8  9  2  0
  9 10  1  0
 10 11  1  0
 11 12  2  0
 11 13  1  0
 13 14  1  0
 14 15  1  0
 15 16  2  0
 16 17  1  0
 17 18  1  0
 17 19  2  0
 19 20  1  0
 20 21  1  0
 20 22  2  0
 22 23  1  0
 23 24  1  0
  9 25  1  0
 25 26  2  0
 26  6  1  0
 23 13  2  0
 22 15  1  0
M  END
>  <Binding energies>  (37) 
[-7.69]

>  <Ligand effiencies>  (37) 
[-0.26517241379310347]

>  <Interactions>  (37) 
["V-B:TYR:539:CE2:9845, V-B:PRO:540:N:9853, V-B:TYR:539:CZ:9846, V-B:PRO:540:CA:9852, H-B:TYR:539:N:9839, V-B:TYR:539:CD1:9842, V-B:ILE:538:CA:9829, V-B:TYR:539:C:9836, V-B:ILE:538:CG2:9832, V-B:TYR:539:CE1:9844, V-B:GLU:543:CD:9877, V-B:ILE:538:CB:9831, H-B:GLU:543:OE2:9879, V-B:MET:535:CE:9804, V-A:GLU:543:CD:4905, V-A:HIS:456:CE1:4066, V-A:GLU:543:CG:4904, V-B:PRO:540:CD:9856, V-B:TYR:539:CA:9838, V-B:TYR:539:CG:9841, V-B:TYR:539:CD2:9843, H-B:ASP:366:OD1:8182, H-B:GLU:543:OE1:9878, V-A:GLU:543:CB:4903, V-A:GLU:543:C:4899, V-B:HIS:456:CE1:9038, H-A:GLU:543:OE2:4907"]

$$$$
4ab_Grossjean_2025
     RDKit          3D

 25 27  0  0  0  0  0  0  0  0999 V2000
  128.0150  122.7440   54.7160 C   0  0  0  0  0  0  0  0  0  0  0  0
  127.9980  121.9820   55.9150 O   0  0  0  0  0  0  0  0  0  0  0  0
  126.9680  122.0840   56.7930 C   0  0  0  0  0  0  0  0  0  0  0  0
  125.8040  121.7790   56.5130 O   0  0  0  0  0  0  0  0  0  0  0  0
  127.3830  122.6100   58.1360 C   0  0  0  0  0  0  0  0  0  0  0  0
  126.4960  123.4220   58.8550 C   0  0  0  0  0  0  0  0  0  0  0  0
  126.8520  123.9280   60.1030 C   0  0  0  0  0  0  0  0  0  0  0  0
  128.0950  123.6260   60.6600 C   0  0  0  0  0  0  0  0  0  0  0  0
  128.3520  124.1960   61.9210 N   0  0  0  0  0  0  0  0  0  0  0  0
  129.4740  124.7870   62.4000 C   0  0  0  0  0  0  0  0  0  0  0  0
  130.5280  124.8870   61.7700 O   0  0  0  0  0  0  0  0  0  0  0  0
  129.3740  125.3000   63.7670 C   0  0  0  0  0  0  0  0  0  0  0  0
  129.6380  124.2260   65.1430 S   0  0  0  0  0  0  0  0  0  0  0  0
  129.3110  125.5170   66.2760 C   0  0  0  0  0  0  0  0  0  0  0  0
  129.3530  125.3280   67.5950 N   0  0  0  0  0  0  0  0  0  0  0  0
  129.0770  126.4110   68.3620 C   0  0  0  0  0  0  0  0  0  0  0  0
  129.1250  126.1720   69.8590 C   0  0  0  0  0  0  0  0  0  0  0  0
  128.7680  127.6670   67.8460 C   0  0  0  0  0  0  0  0  0  0  0  0
  128.7240  127.8630   66.4600 C   0  0  0  0  0  0  0  0  0  0  0  0
  128.3800  129.2520   65.9460 C   0  0  0  0  0  0  0  0  0  0  0  0
  129.0040  126.7490   65.6230 C   0  0  0  0  0  0  0  0  0  0  0  0
  129.0410  126.5950   64.1940 C   0  0  0  0  0  0  0  0  0  0  0  0
  128.7740  127.6350   63.3390 N   0  0  0  0  0  0  0  0  0  0  0  0
  128.9920  122.8180   59.9450 C   0  0  0  0  0  0  0  0  0  0  0  0
  128.6350  122.3160   58.6960 C   0  0  0  0  0  0  0  0  0  0  0  0
  1  2  1  0
  2  3  1  0
  3  4  2  0
  3  5  1  0
  5  6  2  0
  6  7  1  0
  7  8  2  0
  8  9  1  0
  9 10  1  0
 10 11  2  0
 10 12  1  0
 12 13  1  0
 13 14  1  0
 14 15  2  0
 15 16  1  0
 16 17  1  0
 16 18  2  0
 18 19  1  0
 19 20  1  0
 19 21  2  0
 21 22  1  0
 22 23  1  0
  8 24  1  0
 24 25  2  0
 25  5  1  0
 22 12  2  0
 21 14  1  0
M  END
>  <Binding energies>  (38) 
[-7.43]

>  <Ligand effiencies>  (38) 
[-0.26535714285714285]

>  <Interactions>  (38) 
["V-B:TYR:539:CE2:9845, V-B:PRO:540:N:9853, V-B:PRO:540:CB:9854, V-B:TYR:539:CZ:9846, V-B:PRO:540:CA:9852, H-B:TYR:539:N:9839, V-B:TYR:539:CD1:9842, V-B:ILE:538:CA:9829, V-B:TYR:539:C:9836, V-B:ALA:541:CB:9861, V-B:ILE:538:CG2:9832, V-B:TYR:539:CE1:9844, V-B:GLU:543:CD:9877, V-A:TYR:484:CE1:4341, V-B:ILE:538:CB:9831, V-B:GLU:543:CG:9876, H-B:GLU:543:OE2:9879, V-B:MET:535:CE:9804, V-A:GLU:543:CD:4905, V-A:HIS:456:CE1:4066, V-A:GLU:543:CG:4904, V-B:GLU:543:CB:9875, V-B:PRO:540:CD:9856, V-B:TYR:539:CA:9838, V-B:TYR:539:CG:9841, V-B:TYR:539:CD2:9843, H-B:GLU:543:OE1:9878, H-A:GLU:543:OE1:4906, V-A:GLU:543:CB:4903, V-B:HIS:456:CE1:9038, H-A:GLU:543:OE2:4907, V-A:HIS:456:CD2:4064"]

$$$$
4ac_Grossjean_2025
     RDKit          3D

 23 25  0  0  0  0  0  0  0  0999 V2000
  124.9320  122.9700   55.2160 C   0  0  0  0  0  0  0  0  0  0  0  0
  125.6440  121.9970   55.9720 O   0  0  0  0  0  0  0  0  0  0  0  0
  126.3440  122.3940   57.0950 C   0  0  0  0  0  0  0  0  0  0  0  0
  127.6890  122.0310   57.1510 C   0  0  0  0  0  0  0  0  0  0  0  0
  128.4750  122.3880   58.2430 C   0  0  0  0  0  0  0  0  0  0  0  0
  127.9260  123.1250   59.2930 C   0  0  0  0  0  0  0  0  0  0  0  0
  128.7920  123.4280   60.3590 N   0  0  0  0  0  0  0  0  0  0  0  0
  129.5610  122.5970   61.1020 C   0  0  0  0  0  0  0  0  0  0  0  0
  129.5880  121.3720   60.9610 O   0  0  0  0  0  0  0  0  0  0  0  0
  130.3840  123.2480   62.1250 C   0  0  0  0  0  0  0  0  0  0  0  0
  132.0710  122.7800   62.3440 S   0  0  0  0  0  0  0  0  0  0  0  0
  132.2730  123.9370   63.6400 C   0  0  0  0  0  0  0  0  0  0  0  0
  133.4330  124.0830   64.2810 N   0  0  0  0  0  0  0  0  0  0  0  0
  133.4560  125.0140   65.2660 C   0  0  0  0  0  0  0  0  0  0  0  0
  134.7850  125.1660   65.9820 C   0  0  0  0  0  0  0  0  0  0  0  0
  132.3550  125.7920   65.6220 C   0  0  0  0  0  0  0  0  0  0  0  0
  131.1390  125.6350   64.9480 C   0  0  0  0  0  0  0  0  0  0  0  0
  129.9680  126.5070   65.3740 C   0  0  0  0  0  0  0  0  0  0  0  0
  131.0790  124.6700   63.9070 C   0  0  0  0  0  0  0  0  0  0  0  0
  130.0170  124.2590   63.0280 C   0  0  0  0  0  0  0  0  0  0  0  0
  128.7650  124.8160   63.0830 N   0  0  0  0  0  0  0  0  0  0  0  0
  126.5710  123.4840   59.2500 C   0  0  0  0  0  0  0  0  0  0  0  0
  125.7870  123.1240   58.1560 C   0  0  0  0  0  0  0  0  0  0  0  0
  1  2  1  0
  2  3  1  0
  3  4  2  0
  4  5  1  0
  5  6  2  0
  6  7  1  0
  7  8  1  0
  8  9  2  0
  8 10  1  0
 10 11  1  0
 11 12  1  0
 12 13  2  0
 13 14  1  0
 14 15  1  0
 14 16  2  0
 16 17  1  0
 17 18  1  0
 17 19  2  0
 19 20  1  0
 20 21  1  0
  6 22  1  0
 22 23  2  0
 23  3  1  0
 20 10  2  0
 19 12  1  0
M  END
>  <Binding energies>  (39) 
[-6.95]

>  <Ligand effiencies>  (39) 
[-0.2673076923076923]

>  <Interactions>  (39) 
["V-B:TYR:539:CE2:9845, V-B:PRO:540:N:9853, V-B:PRO:540:CB:9854, V-B:TYR:539:CZ:9846, V-A:LEU:475:CD1:4254, V-B:PRO:540:CA:9852, H-B:TYR:539:N:9839, V-B:TYR:539:CD1:9842, V-B:TYR:539:C:9836, V-B:LEU:363:CD1:8157, V-B:ALA:541:CB:9861, V-B:ILE:538:CG2:9832, V-B:TYR:539:CE1:9844, V-B:GLU:543:CD:9877, V-B:ILE:538:CB:9831, V-B:GLU:543:CG:9876, H-B:GLU:543:OE2:9879, V-A:ARG:545:CZ:4923, V-A:GLY:454:CA:4045, V-A:GLU:543:CD:4905, V-A:HIS:456:CE1:4066, H-A:GLY:454:N:4046, H-A:TYR:484:OH:4344, V-B:PRO:540:CD:9856, V-B:TYR:539:CA:9838, V-B:TYR:539:CG:9841, V-B:TYR:539:CD2:9843, H-B:GLU:543:OE1:9878, V-A:GLY:453:C:4038, V-A:GLY:453:CA:4040, V-A:GLY:454:C:4043, V-A:ARG:545:CG:4919, V-A:ARG:545:CD:4920"]

$$$$
4ad_Grossjean_2025
     RDKit          3D

 21 23  0  0  0  0  0  0  0  0999 V2000
  134.5520  125.0080   65.8670 C   0  0  0  0  0  0  0  0  0  0  0  0
  133.2570  124.8850   65.0850 C   0  0  0  0  0  0  0  0  0  0  0  0
  132.1760  125.7220   65.3490 C   0  0  0  0  0  0  0  0  0  0  0  0
  130.9900  125.5880   64.6160 C   0  0  0  0  0  0  0  0  0  0  0  0
  129.8360  126.5240   64.9430 C   0  0  0  0  0  0  0  0  0  0  0  0
  130.9410  124.5820   63.6140 C   0  0  0  0  0  0  0  0  0  0  0  0
  129.9110  124.1770   62.6960 C   0  0  0  0  0  0  0  0  0  0  0  0
  128.6830  124.7900   62.6580 N   0  0  0  0  0  0  0  0  0  0  0  0
  130.2790  123.1130   61.8570 C   0  0  0  0  0  0  0  0  0  0  0  0
  129.4800  122.4450   60.8280 C   0  0  0  0  0  0  0  0  0  0  0  0
  129.4750  121.2160   60.7370 O   0  0  0  0  0  0  0  0  0  0  0  0
  128.7640  123.2680   60.0230 N   0  0  0  0  0  0  0  0  0  0  0  0
  127.9400  122.9530   58.9260 C   0  0  0  0  0  0  0  0  0  0  0  0
  126.6150  123.3930   59.0100 C   0  0  0  0  0  0  0  0  0  0  0  0
  125.7240  123.1400   57.9700 C   0  0  0  0  0  0  0  0  0  0  0  0
  126.1600  122.4530   56.8400 C   0  0  0  0  0  0  0  0  0  0  0  0
  127.4800  122.0210   56.7390 C   0  0  0  0  0  0  0  0  0  0  0  0
  128.3730  122.2720   57.7770 C   0  0  0  0  0  0  0  0  0  0  0  0
  131.9300  122.5860   62.1860 S   0  0  0  0  0  0  0  0  0  0  0  0
  132.1150  123.7890   63.4420 C   0  0  0  0  0  0  0  0  0  0  0  0
  133.2460  123.9150   64.1380 N   0  0  0  0  0  0  0  0  0  0  0  0
  1  2  1  0
  2  3  2  0
  3  4  1  0
  4  5  1  0
  4  6  2  0
  6  7  1  0
  7  8  1  0
  7  9  2  0
  9 10  1  0
 10 11  2  0
 10 12  1  0
 12 13  1  0
 13 14  2  0
 14 15  1  0
 15 16  2  0
 16 17  1  0
 17 18  2  0
  9 19  1  0
 19 20  1  0
 20 21  2  0
 21  2  1  0
 20  6  1  0
 18 13  1  0
M  END
>  <Binding energies>  (40) 
[-6.86]

>  <Ligand effiencies>  (40) 
[-0.28583333333333333]

>  <Interactions>  (40) 
["V-B:TYR:539:CE2:9845, V-B:PRO:540:N:9853, V-B:PRO:540:CB:9854, V-B:TYR:539:CZ:9846, V-A:LEU:475:CD1:4254, V-B:PRO:540:CA:9852, V-B:TYR:539:CD1:9842, V-B:TYR:539:C:9836, V-B:ALA:541:CB:9861, V-B:TYR:539:CE1:9844, V-B:GLU:543:CD:9877, V-B:GLU:543:CG:9876, H-B:GLU:543:OE2:9879, V-A:ARG:545:CZ:4923, V-A:GLY:454:CA:4045, V-A:GLU:543:CD:4905, V-A:HIS:456:CE1:4066, H-A:GLY:454:N:4046, H-A:TYR:484:OH:4344, V-B:PRO:540:CD:9856, V-B:TYR:539:CA:9838, V-B:TYR:539:CG:9841, V-B:TYR:539:CD2:9843, H-B:GLU:543:OE1:9878, V-A:GLY:453:C:4038, V-A:GLY:453:CA:4040, V-A:GLY:454:C:4043, V-A:ARG:545:CG:4919, V-A:ARG:545:CD:4920"]

$$$$
4ae_Grossjean_2025
     RDKit          3D

 22 24  0  0  0  0  0  0  0  0999 V2000
  128.6970  122.7830   54.5670 C   0  0  0  0  0  0  0  0  0  0  0  0
  128.0040  122.7540   55.9150 C   0  0  0  0  0  0  0  0  0  0  0  0
  126.6420  122.4620   56.0300 C   0  0  0  0  0  0  0  0  0  0  0  0
  126.0700  122.4600   57.3030 C   0  0  0  0  0  0  0  0  0  0  0  0
  126.8620  122.7500   58.4160 C   0  0  0  0  0  0  0  0  0  0  0  0
  128.2210  123.0260   58.2300 C   0  0  0  0  0  0  0  0  0  0  0  0
  128.9620  123.3300   59.3860 N   0  0  0  0  0  0  0  0  0  0  0  0
  129.3700  122.4960   60.3750 C   0  0  0  0  0  0  0  0  0  0  0  0
  129.1250  121.2890   60.3990 O   0  0  0  0  0  0  0  0  0  0  0  0
  130.1370  123.1280   61.4510 C   0  0  0  0  0  0  0  0  0  0  0  0
  131.8660  122.8180   61.6120 S   0  0  0  0  0  0  0  0  0  0  0  0
  131.9640  123.8310   63.0340 C   0  0  0  0  0  0  0  0  0  0  0  0
  133.1100  124.0190   63.6890 N   0  0  0  0  0  0  0  0  0  0  0  0
  133.0480  124.8210   64.7780 C   0  0  0  0  0  0  0  0  0  0  0  0
  134.3620  125.0170   65.5130 C   0  0  0  0  0  0  0  0  0  0  0  0
  131.8790  125.4370   65.2230 C   0  0  0  0  0  0  0  0  0  0  0  0
  130.6780  125.2380   64.5330 C   0  0  0  0  0  0  0  0  0  0  0  0
  129.4280  125.9270   65.0580 C   0  0  0  0  0  0  0  0  0  0  0  0
  130.7030  124.4000   63.3850 C   0  0  0  0  0  0  0  0  0  0  0  0
  129.6780  123.9850   62.4650 C   0  0  0  0  0  0  0  0  0  0  0  0
  128.3750  124.3980   62.5830 N   0  0  0  0  0  0  0  0  0  0  0  0
  128.7870  123.0360   56.9870 N   0  0  0  0  0  0  0  0  0  0  0  0
  1  2  1  0
  2  3  2  0
  3  4  1  0
  4  5  2  0
  5  6  1  0
  6  7  1  0
  7  8  1  0
  8  9  2  0
  8 10  1  0
 10 11  1  0
 11 12  1  0
 12 13  2  0
 13 14  1  0
 14 15  1  0
 14 16  2  0
 16 17  1  0
 17 18  1  0
 17 19  2  0
 19 20  1  0
 20 21  1  0
  6 22  2  0
 22  2  1  0
 20 10  2  0
 19 12  1  0
M  END
>  <Binding energies>  (41) 
[-7.12]

>  <Ligand effiencies>  (41) 
[-0.2848]

>  <Interactions>  (41) 
["V-B:TYR:539:CE2:9845, V-B:PRO:540:N:9853, V-B:PRO:540:CB:9854, V-B:TYR:539:CZ:9846, V-B:PRO:540:CA:9852, V-B:TYR:539:CD1:9842, V-B:ILE:538:CA:9829, V-B:TYR:539:C:9836, V-B:ALA:541:CB:9861, V-B:ILE:538:CG2:9832, V-B:TYR:539:CE1:9844, V-B:GLU:543:CD:9877, V-B:ILE:538:CB:9831, V-B:GLU:543:CG:9876, H-B:GLU:543:OE2:9879, V-B:MET:535:CE:9804, V-A:ARG:545:CZ:4923, V-A:GLY:454:CA:4045, V-A:HIS:456:CE1:4066, H-B:TYR:539:OH:9847, H-A:GLY:454:N:4046, H-A:TYR:484:OH:4344, V-B:PRO:540:CD:9856, V-B:TYR:539:CD2:9843, H-B:GLU:543:OE1:9878, V-A:GLY:453:C:4038, V-A:GLY:453:CA:4040, V-A:GLY:454:C:4043, V-A:ARG:545:CG:4919, V-A:ARG:545:CD:4920"]

$$$$
4af_Grossjean_2025
     RDKit          3D

 21 23  0  0  0  0  0  0  0  0999 V2000
  134.4020  125.0120   65.5950 C   0  0  0  0  0  0  0  0  0  0  0  0
  133.0850  124.8500   64.8570 C   0  0  0  0  0  0  0  0  0  0  0  0
  131.9480  125.5480   65.2570 C   0  0  0  0  0  0  0  0  0  0  0  0
  130.7440  125.3810   64.5630 C   0  0  0  0  0  0  0  0  0  0  0  0
  129.5290  126.1620   65.0390 C   0  0  0  0  0  0  0  0  0  0  0  0
  130.7340  124.4870   63.4580 C   0  0  0  0  0  0  0  0  0  0  0  0
  129.6970  124.0850   62.5460 C   0  0  0  0  0  0  0  0  0  0  0  0
  128.4170  124.5730   62.6310 N   0  0  0  0  0  0  0  0  0  0  0  0
  130.1160  123.1600   61.5770 C   0  0  0  0  0  0  0  0  0  0  0  0
  129.3250  122.5210   60.5230 C   0  0  0  0  0  0  0  0  0  0  0  0
  129.3580  121.3000   60.3670 O   0  0  0  0  0  0  0  0  0  0  0  0
  128.5700  123.3620   59.7750 N   0  0  0  0  0  0  0  0  0  0  0  0
  127.7450  123.0810   58.6700 C   0  0  0  0  0  0  0  0  0  0  0  0
  126.3980  123.4630   58.5400 C   0  0  0  0  0  0  0  0  0  0  0  0
  125.6850  123.1040   57.3950 C   0  0  0  0  0  0  0  0  0  0  0  0
  126.3360  122.3660   56.4060 C   0  0  0  0  0  0  0  0  0  0  0  0
  127.6330  121.9780   56.5100 N   0  0  0  0  0  0  0  0  0  0  0  0
  128.3120  122.3350   57.6290 C   0  0  0  0  0  0  0  0  0  0  0  0
  131.8240  122.7590   61.7770 S   0  0  0  0  0  0  0  0  0  0  0  0
  131.9640  123.8340   63.1500 C   0  0  0  0  0  0  0  0  0  0  0  0
  133.1130  123.9910   63.8080 N   0  0  0  0  0  0  0  0  0  0  0  0
  1  2  1  0
  2  3  2  0
  3  4  1  0
  4  5  1  0
  4  6  2  0
  6  7  1  0
  7  8  1  0
  7  9  2  0
  9 10  1  0
 10 11  2  0
 10 12  1  0
 12 13  1  0
 13 14  2  0
 14 15  1  0
 15 16  2  0
 16 17  1  0
 17 18  2  0
  9 19  1  0
 19 20  1  0
 20 21  2  0
 21  2  1  0
 20  6  1  0
 18 13  1  0
M  END
>  <Binding energies>  (42) 
[-7.11]

>  <Ligand effiencies>  (42) 
[-0.29625]

>  <Interactions>  (42) 
["V-B:TYR:539:CE2:9845, V-B:PRO:540:N:9853, V-B:PRO:540:CB:9854, V-B:TYR:539:CZ:9846, V-B:PRO:540:CA:9852, H-B:TYR:539:N:9839, V-B:TYR:539:CD1:9842, V-B:TYR:539:C:9836, V-B:ALA:541:CB:9861, V-B:TYR:539:CE1:9844, V-B:GLU:543:CD:9877, V-B:ILE:538:CB:9831, V-B:GLU:543:CG:9876, H-B:GLU:543:OE2:9879, V-A:ARG:545:CZ:4923, V-A:GLY:454:CA:4045, V-A:HIS:456:CE1:4066, H-A:GLY:454:N:4046, H-A:TYR:484:OH:4344, V-B:PRO:540:CD:9856, V-B:TYR:539:CG:9841, V-B:TYR:539:CD2:9843, H-B:GLU:543:OE1:9878, V-A:GLY:453:C:4038, V-A:GLY:453:CA:4040, V-A:GLY:454:C:4043, V-A:ARG:545:CG:4919, V-A:ARG:545:CD:4920"]

$$$$
4ag_Grossjean_2025
     RDKit          3D

 22 24  0  0  0  0  0  0  0  0999 V2000
  129.1240  126.0320   65.3190 C   0  0  0  0  0  0  0  0  0  0  0  0
  129.4100  126.5140   66.7290 C   0  0  0  0  0  0  0  0  0  0  0  0
  130.5800  127.2100   67.0260 C   0  0  0  0  0  0  0  0  0  0  0  0
  130.8230  127.6460   68.3340 C   0  0  0  0  0  0  0  0  0  0  0  0
  132.1150  128.4010   68.6080 C   0  0  0  0  0  0  0  0  0  0  0  0
  129.8450  127.3550   69.3220 C   0  0  0  0  0  0  0  0  0  0  0  0
  129.7720  127.6460   70.7280 C   0  0  0  0  0  0  0  0  0  0  0  0
  130.7620  128.3320   71.3880 N   0  0  0  0  0  0  0  0  0  0  0  0
  128.6100  127.1660   71.3490 C   0  0  0  0  0  0  0  0  0  0  0  0
  128.2100  127.2920   72.7500 C   0  0  0  0  0  0  0  0  0  0  0  0
  129.0460  127.4250   73.6480 O   0  0  0  0  0  0  0  0  0  0  0  0
  126.8840  127.2350   72.9970 N   0  0  0  0  0  0  0  0  0  0  0  0
  126.2610  127.3650   74.3140 C   0  0  0  0  0  0  0  0  0  0  0  0
  125.8110  128.7820   74.6490 C   0  0  0  0  0  0  0  0  0  0  0  0
  124.6070  128.9870   75.3290 C   0  0  0  0  0  0  0  0  0  0  0  0
  124.2060  130.2800   75.6590 C   0  0  0  0  0  0  0  0  0  0  0  0
  125.0150  131.3610   75.3170 C   0  0  0  0  0  0  0  0  0  0  0  0
  126.2230  131.1630   74.6520 C   0  0  0  0  0  0  0  0  0  0  0  0
  126.6250  129.8710   74.3240 C   0  0  0  0  0  0  0  0  0  0  0  0
  127.5610  126.3420   70.1950 S   0  0  0  0  0  0  0  0  0  0  0  0
  128.6890  126.6380   68.8900 C   0  0  0  0  0  0  0  0  0  0  0  0
  128.4540  126.2210   67.6450 N   0  0  0  0  0  0  0  0  0  0  0  0
  1  2  1  0
  2  3  2  0
  3  4  1  0
  4  5  1  0
  4  6  2  0
  6  7  1  0
  7  8  1  0
  7  9  2  0
  9 10  1  0
 10 11  2  0
 10 12  1  0
 12 13  1  0
 13 14  1  0
 14 15  2  0
 15 16  1  0
 16 17  2  0
 17 18  1  0
 18 19  2  0
  9 20  1  0
 20 21  1  0
 21 22  2  0
 22  2  1  0
 21  6  1  0
 19 14  1  0
M  END
>  <Binding energies>  (43) 
[-7.65]

>  <Ligand effiencies>  (43) 
[-0.306]

>  <Interactions>  (43) 
["V-B:GLU:543:CD:9877, V-B:GLU:543:CG:9876, V-A:GLU:543:CD:4905, V-A:HIS:456:CE1:4066, V-B:GLU:543:CB:9875, V-B:HIS:456:CD2:9036, V-A:GLU:543:CB:4903, V-A:GLU:543:C:4899, H-A:LYS:547:NZ:4948, V-A:GLY:544:C:4909, V-B:LYS:547:CE:9919, V-B:HIS:456:CB:9033, V-B:HIS:456:CE1:9038, V-B:GLY:544:C:9881, V-B:LYS:547:CD:9918, V-A:ARG:545:CG:4919, V-B:GLU:543:C:9871, H-B:HIS:456:NE2:9039, V-A:ARG:545:CB:4918, V-A:ARG:545:CA:4916, H-A:GLY:544:O:4910, H-A:GLU:543:O:4900, V-A:GLU:543:CA:4901, V-A:GLY:544:CA:4911, V-B:HIS:456:CG:9034, V-B:ASP:473:CG:9208, V-B:HIS:456:C:9029, V-B:ASP:473:CB:9207, V-B:VAL:457:C:9041, V-B:LYS:471:CB:9185, V-B:LYS:471:CE:9188, V-B:VAL:458:CG2:9055, V-B:VAL:457:CA:9043, H-B:GLY:544:O:9882"]

$$$$
4ah_Grossjean_2025
     RDKit          3D

 28 30  0  0  0  0  0  0  0  0999 V2000
  129.4820  123.2660   71.6480 C   0  0  0  0  0  0  0  0  0  0  0  0
  128.7440  124.4330   71.9910 O   0  0  0  0  0  0  0  0  0  0  0  0
  128.9390  125.5970   71.2680 C   0  0  0  0  0  0  0  0  0  0  0  0
  128.5860  125.7500   69.9190 C   0  0  0  0  0  0  0  0  0  0  0  0
  128.8150  126.9550   69.2520 C   0  0  0  0  0  0  0  0  0  0  0  0
  128.3820  127.1180   67.8000 C   0  0  0  0  0  0  0  0  0  0  0  0
  129.2040  126.3610   66.8550 N   0  0  0  0  0  0  0  0  0  0  0  0
  130.5390  126.4860   66.7070 C   0  0  0  0  0  0  0  0  0  0  0  0
  131.2060  127.3010   67.3470 O   0  0  0  0  0  0  0  0  0  0  0  0
  131.1560  125.6200   65.7030 C   0  0  0  0  0  0  0  0  0  0  0  0
  132.6780  126.0880   64.9430 S   0  0  0  0  0  0  0  0  0  0  0  0
  132.6700  124.6540   63.9400 C   0  0  0  0  0  0  0  0  0  0  0  0
  133.6450  124.3960   63.0690 N   0  0  0  0  0  0  0  0  0  0  0  0
  133.5190  123.2510   62.3550 C   0  0  0  0  0  0  0  0  0  0  0  0
  134.6390  122.9790   61.3680 C   0  0  0  0  0  0  0  0  0  0  0  0
  132.4520  122.3670   62.4920 C   0  0  0  0  0  0  0  0  0  0  0  0
  131.4280  122.6400   63.4060 C   0  0  0  0  0  0  0  0  0  0  0  0
  130.2830  121.6450   63.5190 C   0  0  0  0  0  0  0  0  0  0  0  0
  131.5240  123.8340   64.1720 C   0  0  0  0  0  0  0  0  0  0  0  0
  130.6710  124.4150   65.1730 C   0  0  0  0  0  0  0  0  0  0  0  0
  129.4970  123.8260   65.5700 N   0  0  0  0  0  0  0  0  0  0  0  0
  129.3760  128.0290   69.9450 C   0  0  0  0  0  0  0  0  0  0  0  0
  129.7450  127.9020   71.2930 C   0  0  0  0  0  0  0  0  0  0  0  0
  130.3190  128.9190   72.0350 O   0  0  0  0  0  0  0  0  0  0  0  0
  129.5010  129.9820   72.5130 C   0  0  0  0  0  0  0  0  0  0  0  0
  129.5260  126.6790   71.9420 C   0  0  0  0  0  0  0  0  0  0  0  0
  129.8650  126.5460   73.2670 O   0  0  0  0  0  0  0  0  0  0  0  0
  128.8240  126.8970   74.1680 C   0  0  0  0  0  0  0  0  0  0  0  0
  1  2  1  0
  2  3  1  0
  3  4  2  0
  4  5  1  0
  5  6  1  0
  6  7  1  0
  7  8  1  0
  8  9  2  0
  8 10  1  0
 10 11  1  0
 11 12  1  0
 12 13  2  0
 13 14  1  0
 14 15  1  0
 14 16  2  0
 16 17  1  0
 17 18  1  0
 17 19  2  0
 19 20  1  0
 20 21  1  0
  5 22  2  0
 22 23  1  0
 23 24  1  0
 24 25  1  0
 23 26  2  0
 26 27  1  0
 27 28  1  0
 26  3  1  0
 20 10  2  0
 19 12  1  0
M  END
>  <Binding energies>  (44) 
[-7.0]

>  <Ligand effiencies>  (44) 
[-0.22580645161290322]

>  <Interactions>  (44) 
["V-A:TYR:484:CZ:4343, V-A:LEU:475:CD1:4254, V-B:ALA:541:CB:9861, V-B:GLU:543:CD:9877, V-A:TYR:484:CE1:4341, V-A:LEU:475:CD2:4255, V-B:GLU:543:CG:9876, H-B:GLU:543:OE2:9879, V-A:ARG:545:CZ:4923, V-A:GLY:454:CA:4045, V-A:HIS:456:CE1:4066, V-B:GLU:543:CB:9875, H-A:GLY:454:N:4046, H-A:TYR:484:OH:4344, H-B:GLU:543:OE1:9878, V-A:LYS:547:CE:4947, V-B:HIS:456:CD2:9036, H-A:LYS:547:NZ:4948, V-B:LYS:547:CE:9919, V-B:HIS:456:CE1:9038, V-A:GLY:453:C:4038, V-A:ILE:369:CG1:3234, V-A:ARG:545:CD:4920, V-B:GLU:543:C:9871, V-A:HIS:456:CD2:4064, H-B:GLU:543:O:9872, H-B:LYS:547:NZ:9920, V-B:GLU:543:CA:9873, V-A:GLY:544:CA:4911, V-A:TYR:484:CG:4338, V-A:TYR:484:CD1:4339"]

$$$$
4ai_Grossjean_2025
     RDKit          3D

 20 22  0  0  0  0  0  0  0  0999 V2000
  134.3370  124.9980   65.5570 C   0  0  0  0  0  0  0  0  0  0  0  0
  133.0250  124.7820   64.8250 C   0  0  0  0  0  0  0  0  0  0  0  0
  131.8820  125.4970   65.1770 C   0  0  0  0  0  0  0  0  0  0  0  0
  130.6840  125.2860   64.4840 C   0  0  0  0  0  0  0  0  0  0  0  0
  129.4640  126.0930   64.9040 C   0  0  0  0  0  0  0  0  0  0  0  0
  130.6860  124.3330   63.4300 C   0  0  0  0  0  0  0  0  0  0  0  0
  129.6590  123.8780   62.5330 C   0  0  0  0  0  0  0  0  0  0  0  0
  128.3750  124.3620   62.5840 N   0  0  0  0  0  0  0  0  0  0  0  0
  130.0920  122.9130   61.6110 C   0  0  0  0  0  0  0  0  0  0  0  0
  129.3170  122.2330   60.5710 C   0  0  0  0  0  0  0  0  0  0  0  0
  129.1530  121.0120   60.6050 O   0  0  0  0  0  0  0  0  0  0  0  0
  128.8000  123.0400   59.6110 N   0  0  0  0  0  0  0  0  0  0  0  0
  128.0230  122.6670   58.5220 C   0  0  0  0  0  0  0  0  0  0  0  0
  126.8610  123.3420   58.1470 C   0  0  0  0  0  0  0  0  0  0  0  0
  126.3950  122.6670   57.0420 C   0  0  0  0  0  0  0  0  0  0  0  0
  127.2320  121.6390   56.7660 O   0  0  0  0  0  0  0  0  0  0  0  0
  128.2610  121.6500   57.7090 N   0  0  0  0  0  0  0  0  0  0  0  0
  131.7960  122.5220   61.8520 S   0  0  0  0  0  0  0  0  0  0  0  0
  131.9210  123.6670   63.1700 C   0  0  0  0  0  0  0  0  0  0  0  0
  133.0640  123.8640   63.8280 N   0  0  0  0  0  0  0  0  0  0  0  0
  1  2  1  0
  2  3  2  0
  3  4  1  0
  4  5  1  0
  4  6  2  0
  6  7  1  0
  7  8  1  0
  7  9  2  0
  9 10  1  0
 10 11  2  0
 10 12  1  0
 12 13  1  0
 13 14  1  0
 14 15  2  0
 15 16  1  0
 16 17  1  0
  9 18  1  0
 18 19  1  0
 19 20  2  0
 20  2  1  0
 19  6  1  0
 17 13  2  0
M  END
>  <Binding energies>  (45) 
[-6.84]

>  <Ligand effiencies>  (45) 
[-0.29739130434782607]

>  <Interactions>  (45) 
["V-B:TYR:539:CE2:9845, V-B:PRO:540:N:9853, V-B:PRO:540:CB:9854, V-B:TYR:539:CZ:9846, V-A:LEU:475:CD1:4254, V-B:PRO:540:CA:9852, H-B:TYR:539:N:9839, V-B:TYR:539:C:9836, V-B:ALA:541:CB:9861, V-B:GLU:543:CD:9877, V-B:GLU:543:CG:9876, H-B:GLU:543:OE2:9879, V-A:ARG:545:CZ:4923, V-A:GLY:454:CA:4045, V-A:HIS:456:CE1:4066, H-A:GLY:454:N:4046, H-A:TYR:484:OH:4344, V-B:PRO:540:CD:9856, V-B:TYR:539:CD2:9843, H-B:GLU:543:OE1:9878, V-A:GLY:453:C:4038, V-A:GLY:453:CA:4040, V-A:GLY:454:C:4043, V-A:ARG:545:CG:4919, V-A:ARG:545:CD:4920"]

$$$$
4aj_Grossjean_2025
     RDKit          3D

 20 22  0  0  0  0  0  0  0  0999 V2000
  124.6340  123.1020   55.1550 C   0  0  0  0  0  0  0  0  0  0  0  0
  125.2610  123.2110   56.5330 C   0  0  0  0  0  0  0  0  0  0  0  0
  124.4860  123.5040   57.6530 C   0  0  0  0  0  0  0  0  0  0  0  0
  125.0860  123.6050   58.9130 C   0  0  0  0  0  0  0  0  0  0  0  0
  124.1960  123.9270   60.1040 C   0  0  0  0  0  0  0  0  0  0  0  0
  126.4890  123.3980   58.9990 C   0  0  0  0  0  0  0  0  0  0  0  0
  127.4070  123.4270   60.1050 C   0  0  0  0  0  0  0  0  0  0  0  0
  127.0010  123.6940   61.3870 N   0  0  0  0  0  0  0  0  0  0  0  0
  128.7370  123.1540   59.7490 C   0  0  0  0  0  0  0  0  0  0  0  0
  129.9210  123.1110   60.6100 C   0  0  0  0  0  0  0  0  0  0  0  0
  129.8060  123.0570   61.8360 O   0  0  0  0  0  0  0  0  0  0  0  0
  131.1120  123.1230   59.9630 N   0  0  0  0  0  0  0  0  0  0  0  0
  132.3740  123.0780   60.5390 C   0  0  0  0  0  0  0  0  0  0  0  0
  132.7240  122.5100   61.6730 N   0  0  0  0  0  0  0  0  0  0  0  0
  134.0130  122.6590   61.9120 C   0  0  0  0  0  0  0  0  0  0  0  0
  134.7390  123.3640   60.9560 C   0  0  0  0  0  0  0  0  0  0  0  0
  133.6650  123.8530   59.6790 S   0  0  0  0  0  0  0  0  0  0  0  0
  128.8860  122.8680   58.0140 S   0  0  0  0  0  0  0  0  0  0  0  0
  127.1690  123.1020   57.7790 C   0  0  0  0  0  0  0  0  0  0  0  0
  126.6010  123.0060   56.5760 N   0  0  0  0  0  0  0  0  0  0  0  0
  1  2  1  0
  2  3  2  0
  3  4  1  0
  4  5  1  0
  4  6  2  0
  6  7  1  0
  7  8  1  0
  7  9  2  0
  9 10  1  0
 10 11  2  0
 10 12  1  0
 12 13  1  0
 13 14  2  0
 14 15  1  0
 15 16  2  0
 16 17  1  0
  9 18  1  0
 18 19  1  0
 19 20  2  0
 20  2  1  0
 19  6  1  0
 17 13  1  0
M  END
>  <Binding energies>  (46) 
[-6.37]

>  <Ligand effiencies>  (46) 
[-0.27695652173913043]

>  <Interactions>  (46) 
["V-B:TYR:539:CE2:9845, V-B:PRO:540:CB:9854, V-B:TYR:539:CZ:9846, V-B:PRO:540:CA:9852, V-B:TYR:539:CD1:9842, V-B:LEU:363:CD1:8157, V-B:ALA:541:CB:9861, V-B:ILE:538:CG2:9832, V-B:TYR:539:CE1:9844, V-B:GLU:543:CD:9877, V-B:ILE:538:CB:9831, V-B:GLU:543:CG:9876, H-B:GLU:543:OE2:9879, V-A:GLY:454:CA:4045, V-A:ASP:366:CB:3208, H-B:TYR:539:OH:9847, V-A:ASP:366:CG:3209, V-B:TYR:539:CG:9841, V-B:TYR:539:CD2:9843, V-B:ASN:362:C:8140, V-A:ILE:369:CB:3232, V-A:GLY:453:C:4038, V-A:ILE:369:CG1:3234, V-A:ASP:366:CA:3206, V-B:ILE:538:CD1:9834"]

$$$$
4ak_Grossjean_2025
     RDKit          3D

 25 26  0  0  0  0  0  0  0  0999 V2000
  128.7410  125.3050   57.6930 C   0  0  0  0  0  0  0  0  0  0  0  0
  127.8350  124.2310   57.8930 O   0  0  0  0  0  0  0  0  0  0  0  0
  128.3190  122.9850   57.4070 C   0  0  0  0  0  0  0  0  0  0  0  0
  127.7090  122.7020   56.0280 C   0  0  0  0  0  0  0  0  0  0  0  0
  126.4930  121.9830   56.1900 O   0  0  0  0  0  0  0  0  0  0  0  0
  125.5240  122.6640   56.9770 C   0  0  0  0  0  0  0  0  0  0  0  0
  124.9880  123.8670   56.1920 C   0  0  0  0  0  0  0  0  0  0  0  0
  124.8830  124.9860   57.0620 O   0  0  0  0  0  0  0  0  0  0  0  0
  123.6610  125.0380   57.7860 C   0  0  0  0  0  0  0  0  0  0  0  0
  123.8700  124.4260   59.1830 C   0  0  0  0  0  0  0  0  0  0  0  0
  125.2780  124.2410   59.5370 N   0  0  0  0  0  0  0  0  0  0  0  0
  125.7280  123.6120   60.6410 C   0  0  0  0  0  0  0  0  0  0  0  0
  124.9690  123.1010   61.4670 O   0  0  0  0  0  0  0  0  0  0  0  0
  127.1800  123.5600   60.8040 C   0  0  0  0  0  0  0  0  0  0  0  0
  128.0490  122.0450   60.5610 S   0  0  0  0  0  0  0  0  0  0  0  0
  129.5810  122.8140   60.9090 C   0  0  0  0  0  0  0  0  0  0  0  0
  130.7300  122.1380   60.8920 N   0  0  0  0  0  0  0  0  0  0  0  0
  131.8450  122.8520   61.1820 C   0  0  0  0  0  0  0  0  0  0  0  0
  133.1430  122.0650   61.1570 C   0  0  0  0  0  0  0  0  0  0  0  0
  131.8380  124.2130   61.4830 C   0  0  0  0  0  0  0  0  0  0  0  0
  130.6300  124.9200   61.4990 C   0  0  0  0  0  0  0  0  0  0  0  0
  130.6720  126.4020   61.8370 C   0  0  0  0  0  0  0  0  0  0  0  0
  129.4390  124.2040   61.2010 C   0  0  0  0  0  0  0  0  0  0  0  0
  128.0600  124.6040   61.1290 C   0  0  0  0  0  0  0  0  0  0  0  0
  127.6570  125.8950   61.3620 N   0  0  0  0  0  0  0  0  0  0  0  0
  1  2  1  0
  2  3  1  0
  3  4  1  0
  4  5  1  0
  5  6  1  0
  6  7  1  0
  7  8  1  0
  8  9  1  0
  9 10  1  0
 10 11  1  0
 11 12  1  0
 12 13  2  0
 12 14  1  0
 14 15  1  0
 15 16  1  0
 16 17  2  0
 17 18  1  0
 18 19  1  0
 18 20  2  0
 20 21  1  0
 21 22  1  0
 21 23  2  0
 23 24  1  0
 24 25  1  0
 24 14  2  0
 23 16  1  0
M  END
>  <Binding energies>  (47) 
[-5.6]

>  <Ligand effiencies>  (47) 
[-0.19999999999999998]

>  <Interactions>  (47) 
["V-B:TYR:539:CE2:9845, V-B:PRO:540:N:9853, V-B:PRO:540:CB:9854, V-B:TYR:539:CZ:9846, H-B:ALA:541:N:9860, V-A:LEU:475:CD1:4254, V-B:PRO:540:CA:9852, H-B:TYR:539:N:9839, V-B:TYR:539:CD1:9842, V-B:PRO:540:C:9850, V-B:LEU:363:CD1:8157, V-B:ALA:541:CB:9861, V-B:TYR:539:CE1:9844, V-B:GLU:543:CD:9877, H-B:GLU:543:OE2:9879, V-B:MET:535:CE:9804, V-B:LEU:363:CA:8153, H-B:TYR:531:OH:9764, V-B:PRO:540:CD:9856, V-B:ASP:366:CB:8180, V-B:TYR:531:CZ:9763, V-B:TYR:531:CE2:9762, H-B:ASP:366:OD1:8182, V-B:ASN:362:C:8140, H-B:GLU:543:OE1:9878, V-B:ALA:541:CA:9859, V-B:PRO:540:CG:9855"]

$$$$
4al_Grossjean_2025
     RDKit          3D

 16 17  0  0  0  0  0  0  0  0999 V2000
  127.1330  130.4430   55.5960 C   0  0  0  0  0  0  0  0  0  0  0  0
  127.2940  131.7530   56.1200 O   0  0  0  0  0  0  0  0  0  0  0  0
  128.4430  132.4490   55.9160 C   0  0  0  0  0  0  0  0  0  0  0  0
  128.6110  133.2460   54.9890 O   0  0  0  0  0  0  0  0  0  0  0  0
  129.4830  132.1530   56.9250 C   0  0  0  0  0  0  0  0  0  0  0  0
  129.1540  132.4290   58.6370 S   0  0  0  0  0  0  0  0  0  0  0  0
  130.7530  131.8740   59.0760 C   0  0  0  0  0  0  0  0  0  0  0  0
  131.1620  131.8360   60.3440 N   0  0  0  0  0  0  0  0  0  0  0  0
  132.4250  131.3850   60.5500 C   0  0  0  0  0  0  0  0  0  0  0  0
  132.8710  131.3500   62.0000 C   0  0  0  0  0  0  0  0  0  0  0  0
  133.2770  130.9760   59.5260 C   0  0  0  0  0  0  0  0  0  0  0  0
  132.8450  131.0170   58.1960 C   0  0  0  0  0  0  0  0  0  0  0  0
  133.8110  130.5610   57.1150 C   0  0  0  0  0  0  0  0  0  0  0  0
  131.5270  131.4840   57.9430 C   0  0  0  0  0  0  0  0  0  0  0  0
  130.7760  131.6540   56.7290 C   0  0  0  0  0  0  0  0  0  0  0  0
  131.2900  131.3520   55.4950 N   0  0  0  0  0  0  0  0  0  0  0  0
  1  2  1  0
  2  3  1  0
  3  4  2  0
  3  5  1  0
  5  6  1  0
  6  7  1  0
  7  8  2  0
  8  9  1  0
  9 10  1  0
  9 11  2  0
 11 12  1  0
 12 13  1  0
 12 14  2  0
 14 15  1  0
 15 16  1  0
 15  5  2  0
 14  7  1  0
M  END
>  <Binding energies>  (48) 
[-5.76]

>  <Ligand effiencies>  (48) 
[-0.32]

>  <Interactions>  (48) 
["V-A:GLU:543:CD:4905, V-A:ASP:366:CB:3208, V-A:GLU:543:CG:4904, H-A:TYR:531:OH:4792, H-A:TYR:539:OH:4875, V-A:PRO:540:CB:4882, V-A:TYR:539:CE1:4872, V-A:TYR:539:C:4864, V-A:PRO:540:CA:4880, H-A:TYR:539:N:4867, V-A:LEU:363:CD1:3185, V-A:PRO:540:N:4881, V-A:TYR:531:CZ:4791, V-A:ILE:538:CD1:4862, V-A:TYR:531:CE2:4790, V-A:TYR:539:CZ:4874, V-A:LEU:363:CA:3181, V-A:TYR:539:CD2:4871, V-A:LEU:363:CB:3183, V-A:TYR:539:CE2:4873, V-A:TYR:539:CG:4869, H-A:ALA:541:N:4888, V-A:ASN:362:CB:3172, V-A:ASN:362:C:3168, V-A:ASN:362:CG:3173, V-A:LEU:363:C:3179, V-A:LEU:363:CG:3184"]

$$$$
4bc_Grossjean_2025
     RDKit          3D

 26 28  0  0  0  0  0  0  0  0999 V2000
  125.8770  122.6350   55.9070 C   0  0  0  0  0  0  0  0  0  0  0  0
  126.8710  121.9520   56.6640 O   0  0  0  0  0  0  0  0  0  0  0  0
  127.2980  122.4960   57.8600 C   0  0  0  0  0  0  0  0  0  0  0  0
  126.6000  123.6110   58.3220 C   0  0  0  0  0  0  0  0  0  0  0  0
  126.9590  124.2270   59.5180 C   0  0  0  0  0  0  0  0  0  0  0  0
  128.0200  123.7280   60.2750 C   0  0  0  0  0  0  0  0  0  0  0  0
  128.3190  124.4250   61.4600 N   0  0  0  0  0  0  0  0  0  0  0  0
  129.5270  124.7680   61.9710 C   0  0  0  0  0  0  0  0  0  0  0  0
  130.6030  124.4690   61.4520 O   0  0  0  0  0  0  0  0  0  0  0  0
  129.4870  125.5340   63.2210 C   0  0  0  0  0  0  0  0  0  0  0  0
  130.5150  125.0760   64.5750 S   0  0  0  0  0  0  0  0  0  0  0  0
  129.8910  126.3830   65.5520 C   0  0  0  0  0  0  0  0  0  0  0  0
  130.3180  126.5870   66.7980 N   0  0  0  0  0  0  0  0  0  0  0  0
  129.7600  127.6290   67.4550 C   0  0  0  0  0  0  0  0  0  0  0  0
  130.2650  127.8460   68.8700 C   0  0  0  0  0  0  0  0  0  0  0  0
  128.7920  128.4640   66.9020 C   0  0  0  0  0  0  0  0  0  0  0  0
  128.3380  128.2550   65.5910 C   0  0  0  0  0  0  0  0  0  0  0  0
  127.2690  129.1990   65.0270 C   0  0  0  0  0  0  0  0  0  0  0  0
  126.0800  128.6120   64.8800 F   0  0  0  0  0  0  0  0  0  0  0  0
  127.1060  130.2350   65.8500 F   0  0  0  0  0  0  0  0  0  0  0  0
  127.6470  129.6430   63.8290 F   0  0  0  0  0  0  0  0  0  0  0  0
  128.9080  127.1640   64.8690 C   0  0  0  0  0  0  0  0  0  0  0  0
  128.7010  126.6540   63.5350 C   0  0  0  0  0  0  0  0  0  0  0  0
  127.8130  127.2200   62.6560 N   0  0  0  0  0  0  0  0  0  0  0  0
  128.7370  122.6150   59.8100 C   0  0  0  0  0  0  0  0  0  0  0  0
  128.3750  122.0020   58.6140 C   0  0  0  0  0  0  0  0  0  0  0  0
  1  2  1  0
  2  3  1  0
  3  4  2  0
  4  5  1  0
  5  6  2  0
  6  7  1  0
  7  8  1  0
  8  9  2  0
  8 10  1  0
 10 11  1  0
 11 12  1  0
 12 13  2  0
 13 14  1  0
 14 15  1  0
 14 16  2  0
 16 17  1  0
 17 18  1  0
 18 19  1  0
 18 20  1  0
 18 21  1  0
 17 22  2  0
 22 23  1  0
 23 24  1  0
  6 25  1  0
 25 26  2  0
 26  3  1  0
 23 10  2  0
 22 12  1  0
M  END
>  <Binding energies>  (49) 
[-6.41]

>  <Ligand effiencies>  (49) 
[-0.2210344827586207]

>  <Interactions>  (49) 
["V-B:TYR:539:CE2:9845, V-B:PRO:540:N:9853, V-B:TYR:539:CZ:9846, V-B:PRO:540:CA:9852, H-B:TYR:539:N:9839, V-B:TYR:539:CD1:9842, V-B:TYR:539:C:9836, V-B:ILE:538:CG2:9832, V-B:TYR:539:CE1:9844, V-B:GLU:543:CD:9877, V-B:ILE:538:CB:9831, H-B:GLU:543:OE2:9879, V-A:GLU:543:CD:4905, V-A:HIS:456:CE1:4066, V-A:GLU:543:CG:4904, V-B:PRO:540:CD:9856, V-B:TYR:539:CG:9841, V-B:TYR:539:CD2:9843, H-B:ASP:366:OD1:8182, H-B:GLU:543:OE1:9878, V-A:GLU:543:CB:4903, V-A:GLU:543:C:4899, V-B:HIS:456:CE1:9038, V-B:ARG:545:CZ:9895, H-A:GLU:543:OE2:4907, V-B:TYR:484:CZ:9315, V-B:TYR:484:CE1:9313"]

$$$$
4bf_Grossjean_2025
     RDKit          3D

 24 26  0  0  0  0  0  0  0  0999 V2000
  134.5890  125.0140   65.6250 C   0  0  0  0  0  0  0  0  0  0  0  0
  133.2680  124.9030   64.8840 C   0  0  0  0  0  0  0  0  0  0  0  0
  132.1830  125.7020   65.2310 C   0  0  0  0  0  0  0  0  0  0  0  0
  130.9660  125.5860   64.5400 C   0  0  0  0  0  0  0  0  0  0  0  0
  129.7980  126.4850   64.9580 C   0  0  0  0  0  0  0  0  0  0  0  0
  130.1380  127.3890   65.8810 F   0  0  0  0  0  0  0  0  0  0  0  0
  129.3380  127.1510   63.8990 F   0  0  0  0  0  0  0  0  0  0  0  0
  128.8170  125.7410   65.4720 F   0  0  0  0  0  0  0  0  0  0  0  0
  130.9030  124.6260   63.4860 C   0  0  0  0  0  0  0  0  0  0  0  0
  129.8530  124.2330   62.5800 C   0  0  0  0  0  0  0  0  0  0  0  0
  128.6050  124.8020   62.6010 N   0  0  0  0  0  0  0  0  0  0  0  0
  130.2220  123.2230   61.6760 C   0  0  0  0  0  0  0  0  0  0  0  0
  129.4030  122.5710   60.6490 C   0  0  0  0  0  0  0  0  0  0  0  0
  129.4220  121.3470   60.5160 O   0  0  0  0  0  0  0  0  0  0  0  0
  128.6420  123.4040   59.8990 N   0  0  0  0  0  0  0  0  0  0  0  0
  127.7930  123.1100   58.8150 C   0  0  0  0  0  0  0  0  0  0  0  0
  126.4470  123.5000   58.7040 C   0  0  0  0  0  0  0  0  0  0  0  0
  125.7090  123.1270   57.5780 C   0  0  0  0  0  0  0  0  0  0  0  0
  126.3370  122.3680   56.5900 C   0  0  0  0  0  0  0  0  0  0  0  0
  127.6320  121.9730   56.6760 N   0  0  0  0  0  0  0  0  0  0  0  0
  128.3350  122.3420   57.7770 C   0  0  0  0  0  0  0  0  0  0  0  0
  131.8930  122.7240   61.9280 S   0  0  0  0  0  0  0  0  0  0  0  0
  132.0890  123.8700   63.2320 C   0  0  0  0  0  0  0  0  0  0  0  0
  133.2410  123.9850   63.8900 N   0  0  0  0  0  0  0  0  0  0  0  0
  1  2  1  0
  2  3  2  0
  3  4  1  0
  4  5  1  0
  5  6  1  0
  5  7  1  0
  5  8  1  0
  4  9  2  0
  9 10  1  0
 10 11  1  0
 10 12  2  0
 12 13  1  0
 13 14  2  0
 13 15  1  0
 15 16  1  0
 16 17  2  0
 17 18  1  0
 18 19  2  0
 19 20  1  0
 20 21  2  0
 12 22  1  0
 22 23  1  0
 23 24  2  0
 24  2  1  0
 23  9  1  0
 21 16  1  0
M  END
>  <Binding energies>  (50) 
[-6.64]

>  <Ligand effiencies>  (50) 
[-0.2459259259259259]

>  <Interactions>  (50) 
["V-B:TYR:539:CE2:9845, V-B:PRO:540:N:9853, V-B:PRO:540:CB:9854, V-B:TYR:539:CZ:9846, V-A:LEU:475:CD1:4254, V-B:PRO:540:CA:9852, H-B:TYR:539:N:9839, V-B:TYR:539:CD1:9842, V-B:TYR:539:C:9836, V-B:ALA:541:CB:9861, V-B:TYR:539:CE1:9844, V-B:GLU:543:CD:9877, V-B:ILE:538:CB:9831, V-B:GLU:543:CG:9876, H-B:GLU:543:OE2:9879, V-A:ARG:545:CZ:4923, V-A:GLY:454:CA:4045, V-A:GLU:543:CD:4905, V-A:HIS:456:CE1:4066, V-B:GLU:543:CB:9875, H-A:GLY:454:N:4046, H-A:TYR:484:OH:4344, V-B:PRO:540:CD:9856, V-B:TYR:539:CG:9841, V-B:TYR:539:CD2:9843, H-B:GLU:543:OE1:9878, V-A:GLU:543:CB:4903, V-A:GLY:453:C:4038, V-A:GLY:453:CA:4040, V-A:GLY:454:C:4043, V-A:ARG:545:CG:4919, V-A:ARG:545:CD:4920"]

$$$$
4bh_Grossjean_2025
     RDKit          3D

 31 33  0  0  0  0  0  0  0  0999 V2000
  129.4850  123.2150   71.6440 C   0  0  0  0  0  0  0  0  0  0  0  0
  128.7650  124.4000   71.9650 O   0  0  0  0  0  0  0  0  0  0  0  0
  129.0040  125.5560   71.2450 C   0  0  0  0  0  0  0  0  0  0  0  0
  128.6390  125.7320   69.9010 C   0  0  0  0  0  0  0  0  0  0  0  0
  128.9140  126.9270   69.2350 C   0  0  0  0  0  0  0  0  0  0  0  0
  128.4700  127.1170   67.7900 C   0  0  0  0  0  0  0  0  0  0  0  0
  129.3300  126.4380   66.8200 N   0  0  0  0  0  0  0  0  0  0  0  0
  129.5880  125.1140   66.7950 C   0  0  0  0  0  0  0  0  0  0  0  0
  129.1380  124.3360   67.6380 O   0  0  0  0  0  0  0  0  0  0  0  0
  130.4770  124.6520   65.7280 C   0  0  0  0  0  0  0  0  0  0  0  0
  132.0040  125.4780   65.4340 S   0  0  0  0  0  0  0  0  0  0  0  0
  132.3680  124.4160   64.0940 C   0  0  0  0  0  0  0  0  0  0  0  0
  133.4960  124.5400   63.3950 N   0  0  0  0  0  0  0  0  0  0  0  0
  133.6680  123.6590   62.3830 C   0  0  0  0  0  0  0  0  0  0  0  0
  134.9580  123.8200   61.5990 C   0  0  0  0  0  0  0  0  0  0  0  0
  132.7490  122.6650   62.0560 C   0  0  0  0  0  0  0  0  0  0  0  0
  131.5580  122.5300   62.7870 C   0  0  0  0  0  0  0  0  0  0  0  0
  130.5790  121.4200   62.3930 C   0  0  0  0  0  0  0  0  0  0  0  0
  129.4800  121.8810   61.7910 F   0  0  0  0  0  0  0  0  0  0  0  0
  131.1700  120.5750   61.5490 F   0  0  0  0  0  0  0  0  0  0  0  0
  130.1900  120.7550   63.4810 F   0  0  0  0  0  0  0  0  0  0  0  0
  131.3450  123.4450   63.8600 C   0  0  0  0  0  0  0  0  0  0  0  0
  130.2680  123.6160   64.8050 C   0  0  0  0  0  0  0  0  0  0  0  0
  129.1460  122.8280   64.8030 N   0  0  0  0  0  0  0  0  0  0  0  0
  129.5350  127.9710   69.9230 C   0  0  0  0  0  0  0  0  0  0  0  0
  129.9180  127.8210   71.2650 C   0  0  0  0  0  0  0  0  0  0  0  0
  130.5480  128.8060   72.0040 O   0  0  0  0  0  0  0  0  0  0  0  0
  129.8120  129.9580   72.4020 C   0  0  0  0  0  0  0  0  0  0  0  0
  129.6520  126.6060   71.9130 C   0  0  0  0  0  0  0  0  0  0  0  0
  130.0050  126.4510   73.2330 O   0  0  0  0  0  0  0  0  0  0  0  0
  130.9970  125.4580   73.4520 C   0  0  0  0  0  0  0  0  0  0  0  0
  1  2  1  0
  2  3  1  0
  3  4  2  0
  4  5  1  0
  5  6  1  0
  6  7  1  0
  7  8  1  0
  8  9  2  0
  8 10  1  0
 10 11  1  0
 11 12  1  0
 12 13  2  0
 13 14  1  0
 14 15  1  0
 14 16  2  0
 16 17  1  0
 17 18  1  0
 18 19  1  0
 18 20  1  0
 18 21  1  0
 17 22  2  0
 22 23  1  0
 23 24  1  0
  5 25  2  0
 25 26  1  0
 26 27  1  0
 27 28  1  0
 26 29  2  0
 29 30  1  0
 30 31  1  0
 29  3  1  0
 23 10  2  0
 22 12  1  0
M  END
>  <Binding energies>  (51) 
[-6.57]

>  <Ligand effiencies>  (51) 
[-0.19323529411764706]

>  <Interactions>  (51) 
["V-B:TYR:539:CE2:9845, V-A:TYR:484:CZ:4343, V-A:LEU:475:CD1:4254, V-B:ALA:541:CB:9861, V-B:GLU:543:CD:9877, V-A:TYR:484:CE1:4341, V-A:LEU:475:CD2:4255, V-B:GLU:543:CG:9876, V-A:GLY:454:CA:4045, V-A:HIS:456:CE1:4066, V-A:ASP:366:CG:3209, V-B:GLU:543:CB:9875, H-A:GLY:454:N:4046, H-A:TYR:484:OH:4344, V-B:TYR:539:CD2:9843, V-A:LYS:547:CE:4947, V-B:HIS:456:CD2:9036, H-A:GLU:543:OE1:4906, V-A:GLU:543:C:4899, H-A:LYS:547:NZ:4948, V-B:HIS:456:CE1:9038, V-A:GLY:453:C:4038, V-A:GLY:453:CA:4040, V-A:ILE:369:CG1:3234, V-B:GLU:543:C:9871, V-A:HIS:456:CD2:4064, V-A:LEU:475:CG:4253, H-B:LYS:547:NZ:9920, V-B:GLU:543:CA:9873, V-A:GLY:544:CA:4911, V-A:TYR:484:CG:4338, V-A:TYR:484:CD1:4339"]

$$$$
4bi_Grossjean_2025
     RDKit          3D

 23 25  0  0  0  0  0  0  0  0999 V2000
  125.9220  122.1030   55.9980 C   0  0  0  0  0  0  0  0  0  0  0  0
  127.1240  122.6340   56.7580 C   0  0  0  0  0  0  0  0  0  0  0  0
  128.0200  123.5160   56.1590 C   0  0  0  0  0  0  0  0  0  0  0  0
  129.1250  124.0030   56.8760 C   0  0  0  0  0  0  0  0  0  0  0  0
  130.0790  124.9770   56.1770 C   0  0  0  0  0  0  0  0  0  0  0  0
  131.3650  124.6870   56.3840 F   0  0  0  0  0  0  0  0  0  0  0  0
  129.8700  124.9480   54.8610 F   0  0  0  0  0  0  0  0  0  0  0  0
  129.8710  126.2150   56.6290 F   0  0  0  0  0  0  0  0  0  0  0  0
  129.2790  123.5520   58.2210 C   0  0  0  0  0  0  0  0  0  0  0  0
  130.2640  123.8230   59.2390 C   0  0  0  0  0  0  0  0  0  0  0  0
  131.3350  124.6550   59.0320 N   0  0  0  0  0  0  0  0  0  0  0  0
  130.0250  123.1680   60.4590 C   0  0  0  0  0  0  0  0  0  0  0  0
  130.8210  123.2070   61.6890 C   0  0  0  0  0  0  0  0  0  0  0  0
  130.8800  122.2250   62.4320 O   0  0  0  0  0  0  0  0  0  0  0  0
  131.4800  124.3700   61.9190 N   0  0  0  0  0  0  0  0  0  0  0  0
  132.3080  124.6740   62.9920 C   0  0  0  0  0  0  0  0  0  0  0  0
  131.8270  125.0920   64.2310 C   0  0  0  0  0  0  0  0  0  0  0  0
  132.9490  125.2880   65.0040 C   0  0  0  0  0  0  0  0  0  0  0  0
  134.0490  125.0020   64.2680 O   0  0  0  0  0  0  0  0  0  0  0  0
  133.6290  124.6140   62.9930 N   0  0  0  0  0  0  0  0  0  0  0  0
  128.5750  122.1700   60.3720 S   0  0  0  0  0  0  0  0  0  0  0  0
  128.2890  122.6480   58.7150 C   0  0  0  0  0  0  0  0  0  0  0  0
  127.2410  122.1910   58.0310 N   0  0  0  0  0  0  0  0  0  0  0  0
  1  2  1  0
  2  3  2  0
  3  4  1  0
  4  5  1  0
  5  6  1  0
  5  7  1  0
  5  8  1  0
  4  9  2  0
  9 10  1  0
 10 11  1  0
 10 12  2  0
 12 13  1  0
 13 14  2  0
 13 15  1  0
 15 16  1  0
 16 17  1  0
 17 18  2  0
 18 19  1  0
 19 20  1  0
 12 21  1  0
 21 22  1  0
 22 23  2  0
 23  2  1  0
 22  9  1  0
 20 16  2  0
M  END
>  <Binding energies>  (52) 
[-6.35]

>  <Ligand effiencies>  (52) 
[-0.24423076923076922]

>  <Interactions>  (52) 
["V-B:TYR:539:CE2:9845, V-B:PRO:540:N:9853, V-B:PRO:540:CB:9854, V-B:TYR:539:CZ:9846, V-B:PRO:540:CA:9852, V-B:ILE:538:CA:9829, V-B:ALA:541:CB:9861, V-B:ILE:538:CG2:9832, V-B:TYR:539:CE1:9844, V-B:ILE:538:CB:9831, V-B:MET:535:CE:9804, V-A:ARG:545:CZ:4923, V-A:HIS:456:CE1:4066, H-A:ARG:545:NH2:4925, H-A:ARG:545:NH1:4924, H-B:TYR:539:OH:9847, H-A:ARG:545:NE:4921, V-A:ASP:366:CG:3209, H-A:GLY:454:N:4046, V-B:PRO:540:CD:9856, V-B:TYR:539:CD2:9843, H-A:ASP:366:OD1:3210"]

$$$$
4bj_Grossjean_2025
     RDKit          3D

 23 25  0  0  0  0  0  0  0  0999 V2000
  133.5960  125.4580   65.3300 C   0  0  0  0  0  0  0  0  0  0  0  0
  132.9120  125.0110   64.0500 C   0  0  0  0  0  0  0  0  0  0  0  0
  133.6520  124.5420   62.9680 C   0  0  0  0  0  0  0  0  0  0  0  0
  133.0070  124.1380   61.7880 C   0  0  0  0  0  0  0  0  0  0  0  0
  133.8630  123.6310   60.6220 C   0  0  0  0  0  0  0  0  0  0  0  0
  133.5810  124.2350   59.4660 F   0  0  0  0  0  0  0  0  0  0  0  0
  135.1520  123.8470   60.8820 F   0  0  0  0  0  0  0  0  0  0  0  0
  133.6610  122.3240   60.4510 F   0  0  0  0  0  0  0  0  0  0  0  0
  131.5830  124.2300   61.7590 C   0  0  0  0  0  0  0  0  0  0  0  0
  130.6000  123.9200   60.7490 C   0  0  0  0  0  0  0  0  0  0  0  0
  130.9370  123.4340   59.5110 N   0  0  0  0  0  0  0  0  0  0  0  0
  129.2750  124.1530   61.1480 C   0  0  0  0  0  0  0  0  0  0  0  0
  128.0430  123.9600   60.3800 C   0  0  0  0  0  0  0  0  0  0  0  0
  128.0820  123.7590   59.1640 O   0  0  0  0  0  0  0  0  0  0  0  0
  126.8940  124.0060   61.0990 N   0  0  0  0  0  0  0  0  0  0  0  0
  125.6020  123.8430   60.6190 C   0  0  0  0  0  0  0  0  0  0  0  0
  124.6580  123.0560   61.0880 N   0  0  0  0  0  0  0  0  0  0  0  0
  123.5470  123.1590   60.3870 C   0  0  0  0  0  0  0  0  0  0  0  0
  123.5750  124.0480   59.3170 C   0  0  0  0  0  0  0  0  0  0  0  0
  125.1490  124.7820   59.2320 S   0  0  0  0  0  0  0  0  0  0  0  0
  129.2050  124.7900   62.7900 S   0  0  0  0  0  0  0  0  0  0  0  0
  130.9460  124.7240   62.9380 C   0  0  0  0  0  0  0  0  0  0  0  0
  131.5620  125.1090   64.0540 N   0  0  0  0  0  0  0  0  0  0  0  0
  1  2  1  0
  2  3  2  0
  3  4  1  0
  4  5  1  0
  5  6  1  0
  5  7  1  0
  5  8  1  0
  4  9  2  0
  9 10  1  0
 10 11  1  0
 10 12  2  0
 12 13  1  0
 13 14  2  0
 13 15  1  0
 15 16  1  0
 16 17  2  0
 17 18  1  0
 18 19  2  0
 19 20  1  0
 12 21  1  0
 21 22  1  0
 22 23  2  0
 23  2  1  0
 22  9  1  0
 20 16  1  0
M  END
>  <Binding energies>  (53) 
[-6.13]

>  <Ligand effiencies>  (53) 
[-0.23576923076923076]

>  <Interactions>  (53) 
["V-B:TYR:539:CE2:9845, V-B:PRO:540:CB:9854, V-B:TYR:539:CZ:9846, H-B:ALA:541:N:9860, V-B:PRO:540:CA:9852, V-B:LEU:363:CD1:8157, V-B:GLU:543:CD:9877, V-B:GLU:543:CG:9876, H-B:GLU:543:OE2:9879, V-A:ARG:545:CZ:4923, V-A:GLY:454:CA:4045, V-A:ASP:366:CB:3208, V-A:HIS:456:CE1:4066, H-B:TYR:539:OH:9847, V-A:ASP:366:CG:3209, V-B:LEU:363:CA:8153, V-B:ASN:362:CB:8144, V-B:ASN:362:C:8140, V-A:ILE:369:CB:3232, V-A:ILE:369:CG2:3233, V-A:GLY:453:C:4038, V-A:GLY:453:CA:4040, V-A:ILE:369:CG1:3234, V-A:ARG:545:CG:4919, V-A:ARG:545:CD:4920, V-B:LEU:363:CB:8155, V-A:ASP:366:CA:3206"]

$$$$
4bk_Grossjean_2025
     RDKit          3D

 28 29  0  0  0  0  0  0  0  0999 V2000
  127.5450  122.7000   55.3610 C   0  0  0  0  0  0  0  0  0  0  0  0
  127.5820  121.8990   56.5320 O   0  0  0  0  0  0  0  0  0  0  0  0
  126.7900  122.4140   57.5950 C   0  0  0  0  0  0  0  0  0  0  0  0
  127.5920  122.3620   58.9020 C   0  0  0  0  0  0  0  0  0  0  0  0
  127.9820  123.6780   59.2680 O   0  0  0  0  0  0  0  0  0  0  0  0
  127.2350  124.2190   60.3490 C   0  0  0  0  0  0  0  0  0  0  0  0
  126.4920  123.0880   61.0720 C   0  0  0  0  0  0  0  0  0  0  0  0
  125.1620  123.0080   60.5790 O   0  0  0  0  0  0  0  0  0  0  0  0
  124.3160  124.0560   61.0350 C   0  0  0  0  0  0  0  0  0  0  0  0
  123.8860  124.9220   59.8380 C   0  0  0  0  0  0  0  0  0  0  0  0
  124.9430  125.8040   59.3410 N   0  0  0  0  0  0  0  0  0  0  0  0
  125.4900  125.7490   58.1090 C   0  0  0  0  0  0  0  0  0  0  0  0
  125.1210  124.9370   57.2590 O   0  0  0  0  0  0  0  0  0  0  0  0
  126.5480  126.7210   57.8290 C   0  0  0  0  0  0  0  0  0  0  0  0
  126.2400  128.4440   58.0310 S   0  0  0  0  0  0  0  0  0  0  0  0
  127.8770  128.8360   57.5620 C   0  0  0  0  0  0  0  0  0  0  0  0
  128.3040  130.0970   57.5110 N   0  0  0  0  0  0  0  0  0  0  0  0
  129.5920  130.2750   57.1370 C   0  0  0  0  0  0  0  0  0  0  0  0
  130.0560  131.7190   57.0880 C   0  0  0  0  0  0  0  0  0  0  0  0
  130.4550  129.2310   56.8150 C   0  0  0  0  0  0  0  0  0  0  0  0
  130.0130  127.9000   56.8650 C   0  0  0  0  0  0  0  0  0  0  0  0
  130.9980  126.7860   56.4980 C   0  0  0  0  0  0  0  0  0  0  0  0
  130.6360  126.1060   55.4080 F   0  0  0  0  0  0  0  0  0  0  0  0
  132.2020  127.3080   56.2620 F   0  0  0  0  0  0  0  0  0  0  0  0
  131.0870  125.9130   57.5010 F   0  0  0  0  0  0  0  0  0  0  0  0
  128.6590  127.6770   57.2580 C   0  0  0  0  0  0  0  0  0  0  0  0
  127.8700  126.4820   57.4250 C   0  0  0  0  0  0  0  0  0  0  0  0
  128.3700  125.2250   57.2030 N   0  0  0  0  0  0  0  0  0  0  0  0
  1  2  1  0
  2  3  1  0
  3  4  1  0
  4  5  1  0
  5  6  1  0
  6  7  1  0
  7  8  1  0
  8  9  1  0
  9 10  1  0
 10 11  1  0
 11 12  1  0
 12 13  2  0
 12 14  1  0
 14 15  1  0
 15 16  1  0
 16 17  2  0
 17 18  1  0
 18 19  1  0
 18 20  2  0
 20 21  1  0
 21 22  1  0
 22 23  1  0
 22 24  1  0
 22 25  1  0
 21 26  2  0
 26 27  1  0
 27 28  1  0
 27 14  2  0
 26 16  1  0
M  END
>  <Binding energies>  (54) 
[-4.43]

>  <Ligand effiencies>  (54) 
[-0.1429032258064516]

>  <Interactions>  (54) 
["V-B:PRO:540:N:9853, V-B:PRO:540:CB:9854, H-B:ALA:541:N:9860, V-B:PRO:540:CA:9852, H-B:TYR:539:N:9839, V-B:TYR:539:CD1:9842, V-B:ILE:538:CA:9829, V-B:PRO:540:C:9850, V-B:TYR:539:C:9836, V-B:ALA:541:CB:9861, V-B:ILE:538:CG2:9832, V-B:TYR:539:CE1:9844, V-B:ILE:538:CB:9831, V-B:MET:535:CE:9804, V-A:ASP:366:CB:3208, V-A:TYR:531:CE1:4789, V-B:LEU:363:CA:8153, H-B:TYR:531:OH:9764, V-B:PRO:540:CD:9856, V-A:TYR:531:CZ:4791, V-B:ASP:366:CB:8180, V-B:ASN:362:CB:8144, H-B:ASP:366:OD1:8182, V-B:ASN:362:C:8140, V-B:ASP:366:CG:8181, V-B:ALA:541:CA:9859"]

$$$$
4cd_Grossjean_2025
     RDKit          3D

 29 32  0  0  0  0  0  0  0  0999 V2000
  130.9960  122.2980   64.1470 N   0  0  0  0  0  0  0  0  0  0  0  0
  130.1990  123.1800   63.4620 C   0  0  0  0  0  0  0  0  0  0  0  0
  129.9550  124.4930   63.8980 C   0  0  0  0  0  0  0  0  0  0  0  0
  130.4470  125.1610   65.1070 C   0  0  0  0  0  0  0  0  0  0  0  0
  131.6480  125.1670   65.3760 O   0  0  0  0  0  0  0  0  0  0  0  0
  129.4960  125.7560   65.8690 N   0  0  0  0  0  0  0  0  0  0  0  0
  129.6240  126.4260   67.0990 C   0  0  0  0  0  0  0  0  0  0  0  0
  128.7230  126.0490   68.0990 C   0  0  0  0  0  0  0  0  0  0  0  0
  128.7780  126.6450   69.3550 C   0  0  0  0  0  0  0  0  0  0  0  0
  129.7410  127.6160   69.6170 C   0  0  0  0  0  0  0  0  0  0  0  0
  130.6530  127.9920   68.6350 C   0  0  0  0  0  0  0  0  0  0  0  0
  130.6010  127.3980   67.3760 C   0  0  0  0  0  0  0  0  0  0  0  0
  128.8990  125.3490   62.7760 S   0  0  0  0  0  0  0  0  0  0  0  0
  128.7860  123.9460   61.7410 C   0  0  0  0  0  0  0  0  0  0  0  0
  128.0590  123.9610   60.6260 N   0  0  0  0  0  0  0  0  0  0  0  0
  128.0200  122.8180   59.8940 C   0  0  0  0  0  0  0  0  0  0  0  0
  127.1910  122.8650   58.6430 C   0  0  0  0  0  0  0  0  0  0  0  0
  125.9240  123.4720   58.6440 C   0  0  0  0  0  0  0  0  0  0  0  0
  125.1500  123.5200   57.4880 C   0  0  0  0  0  0  0  0  0  0  0  0
  125.6330  122.9600   56.3100 C   0  0  0  0  0  0  0  0  0  0  0  0
  126.8850  122.3560   56.2810 C   0  0  0  0  0  0  0  0  0  0  0  0
  127.6570  122.3120   57.4380 C   0  0  0  0  0  0  0  0  0  0  0  0
  128.7260  121.6720   60.2730 C   0  0  0  0  0  0  0  0  0  0  0  0
  129.4990  121.6460   61.4460 C   0  0  0  0  0  0  0  0  0  0  0  0
  130.2450  120.3560   61.8050 C   0  0  0  0  0  0  0  0  0  0  0  0
  129.8090  119.2920   61.1250 F   0  0  0  0  0  0  0  0  0  0  0  0
  131.5430  120.4950   61.5380 F   0  0  0  0  0  0  0  0  0  0  0  0
  130.0880  120.0910   63.1020 F   0  0  0  0  0  0  0  0  0  0  0  0
  129.5370  122.8360   62.2280 C   0  0  0  0  0  0  0  0  0  0  0  0
  1  2  1  0
  2  3  2  0
  3  4  1  0
  4  5  2  0
  4  6  1  0
  6  7  1  0
  7  8  2  0
  8  9  1  0
  9 10  2  0
 10 11  1  0
 11 12  2  0
  3 13  1  0
 13 14  1  0
 14 15  2  0
 15 16  1  0
 16 17  1  0
 17 18  2  0
 18 19  1  0
 19 20  2  0
 20 21  1  0
 21 22  2  0
 16 23  2  0
 23 24  1  0
 24 25  1  0
 25 26  1  0
 25 27  1  0
 25 28  1  0
 24 29  2  0
 29  2  1  0
 12  7  1  0
 29 14  1  0
 22 17  1  0
M  END
>  <Binding energies>  (55) 
[-7.75]

>  <Ligand effiencies>  (55) 
[-0.2421875]

>  <Interactions>  (55) 
["V-B:TYR:539:CE2:9845, V-B:PRO:540:N:9853, V-B:PRO:540:CB:9854, V-A:TYR:484:CZ:4343, V-A:LEU:475:CD1:4254, V-B:PRO:540:CA:9852, V-B:TYR:539:CD1:9842, V-B:ILE:538:CA:9829, V-B:TYR:539:C:9836, V-B:LEU:363:CD1:8157, V-B:ALA:541:CB:9861, V-B:TYR:539:CE1:9844, V-B:GLU:543:CD:9877, V-A:TYR:484:CE1:4341, V-B:ILE:538:CB:9831, V-A:LEU:475:CD2:4255, V-B:GLU:543:CG:9876, H-B:GLU:543:OE2:9879, V-A:HIS:456:CE1:4066, V-B:GLU:543:CB:9875, H-A:TYR:484:OH:4344, V-B:PRO:540:CD:9856, V-B:TYR:539:CG:9841, V-B:TYR:539:CD2:9843, H-B:GLU:543:OE1:9878, V-A:GLU:543:CB:4903, V-A:GLU:543:C:4899, V-B:HIS:456:CE1:9038, V-A:LEU:475:CG:4253, V-A:PRO:482:CB:4322, V-A:PRO:482:CG:4323"]

$$$$
4cg_Grossjean_2025
     RDKit          3D

 30 33  0  0  0  0  0  0  0  0999 V2000
  131.2430  122.4610   64.0180 N   0  0  0  0  0  0  0  0  0  0  0  0
  130.4190  123.3370   63.3600 C   0  0  0  0  0  0  0  0  0  0  0  0
  130.2260  124.6640   63.7700 C   0  0  0  0  0  0  0  0  0  0  0  0
  130.8560  125.3760   64.8810 C   0  0  0  0  0  0  0  0  0  0  0  0
  131.9570  125.0360   65.3210 O   0  0  0  0  0  0  0  0  0  0  0  0
  130.1440  126.3920   65.4130 N   0  0  0  0  0  0  0  0  0  0  0  0
  130.5840  127.2520   66.5100 C   0  0  0  0  0  0  0  0  0  0  0  0
  129.7450  127.1000   67.7740 C   0  0  0  0  0  0  0  0  0  0  0  0
  128.5600  126.3610   67.7350 C   0  0  0  0  0  0  0  0  0  0  0  0
  127.8070  126.1930   68.8950 C   0  0  0  0  0  0  0  0  0  0  0  0
  128.2470  126.7560   70.0900 C   0  0  0  0  0  0  0  0  0  0  0  0
  129.4360  127.4800   70.1380 C   0  0  0  0  0  0  0  0  0  0  0  0
  130.1900  127.6470   68.9800 C   0  0  0  0  0  0  0  0  0  0  0  0
  129.1230  125.5150   62.6930 S   0  0  0  0  0  0  0  0  0  0  0  0
  128.9080  124.0820   61.7150 C   0  0  0  0  0  0  0  0  0  0  0  0
  128.1130  124.0830   60.6490 N   0  0  0  0  0  0  0  0  0  0  0  0
  128.0110  122.9250   59.9460 C   0  0  0  0  0  0  0  0  0  0  0  0
  127.1040  122.9580   58.7490 C   0  0  0  0  0  0  0  0  0  0  0  0
  127.5040  122.3940   57.5260 C   0  0  0  0  0  0  0  0  0  0  0  0
  126.6680  122.4220   56.4140 C   0  0  0  0  0  0  0  0  0  0  0  0
  125.4150  123.0200   56.5070 C   0  0  0  0  0  0  0  0  0  0  0  0
  124.9950  123.5890   57.7050 C   0  0  0  0  0  0  0  0  0  0  0  0
  125.8350  123.5580   58.8140 C   0  0  0  0  0  0  0  0  0  0  0  0
  128.6960  121.7660   60.3310 C   0  0  0  0  0  0  0  0  0  0  0  0
  129.5370  121.7540   61.4540 C   0  0  0  0  0  0  0  0  0  0  0  0
  130.2570  120.4500   61.8190 C   0  0  0  0  0  0  0  0  0  0  0  0
  131.5570  120.4680   61.5180 F   0  0  0  0  0  0  0  0  0  0  0  0
  130.1530  120.2310   63.1310 F   0  0  0  0  0  0  0  0  0  0  0  0
  129.7080  119.4330   61.1580 F   0  0  0  0  0  0  0  0  0  0  0  0
  129.6620  122.9690   62.1890 C   0  0  0  0  0  0  0  0  0  0  0  0
  1  2  1  0
  2  3  2  0
  3  4  1  0
  4  5  2  0
  4  6  1  0
  6  7  1  0
  7  8  1  0
  8  9  2  0
  9 10  1  0
 10 11  2  0
 11 12  1  0
 12 13  2  0
  3 14  1  0
 14 15  1  0
 15 16  2  0
 16 17  1  0
 17 18  1  0
 18 19  2  0
 19 20  1  0
 20 21  2  0
 21 22  1  0
 22 23  2  0
 17 24  2  0
 24 25  1  0
 25 26  1  0
 26 27  1  0
 26 28  1  0
 26 29  1  0
 25 30  2  0
 30  2  1  0
 13  8  1  0
 30 15  1  0
 23 18  1  0
M  END
>  <Binding energies>  (56) 
[-7.77]

>  <Ligand effiencies>  (56) 
[-0.23545454545454544]

>  <Interactions>  (56) 
["V-B:TYR:539:CE2:9845, V-B:PRO:540:N:9853, V-B:PRO:540:CB:9854, V-A:LEU:475:CD1:4254, V-B:PRO:540:CA:9852, V-B:TYR:539:CD1:9842, V-B:TYR:539:C:9836, V-B:LEU:363:CD1:8157, V-B:ALA:541:CB:9861, V-B:GLU:543:CD:9877, V-B:ILE:538:CB:9831, V-A:LEU:475:CD2:4255, V-A:GLU:543:CD:4905, V-A:HIS:456:CE1:4066, V-B:GLU:543:CB:9875, H-A:TYR:484:OH:4344, V-B:PRO:540:CD:9856, V-B:TYR:539:CD2:9843, H-B:GLU:543:OE1:9878, V-B:HIS:456:CD2:9036, H-A:GLU:543:OE1:4906, V-A:GLU:543:CB:4903, V-B:HIS:456:CE1:9038, V-B:GLU:543:C:9871, V-A:LEU:475:CG:4253, V-A:PRO:482:CB:4322, V-A:PRO:482:CG:4323"]

$$$$
4ch_Grossjean_2025
     RDKit          3D

 36 39  0  0  0  0  0  0  0  0999 V2000
  124.2800  124.2200   60.7900 C   0  0  0  0  0  0  0  0  0  0  0  0
  124.7050  124.1140   59.4360 O   0  0  0  0  0  0  0  0  0  0  0  0
  125.8780  123.4410   59.1440 C   0  0  0  0  0  0  0  0  0  0  0  0
  126.8920  123.1900   60.0830 C   0  0  0  0  0  0  0  0  0  0  0  0
  128.0510  122.5020   59.7180 C   0  0  0  0  0  0  0  0  0  0  0  0
  129.1530  122.2640   60.7440 C   0  0  0  0  0  0  0  0  0  0  0  0
  129.0770  123.1320   61.9200 N   0  0  0  0  0  0  0  0  0  0  0  0
  130.0330  123.9980   62.3180 C   0  0  0  0  0  0  0  0  0  0  0  0
  131.0820  124.1620   61.6910 O   0  0  0  0  0  0  0  0  0  0  0  0
  129.7370  124.7670   63.5270 C   0  0  0  0  0  0  0  0  0  0  0  0
  130.2340  124.1590   65.1030 S   0  0  0  0  0  0  0  0  0  0  0  0
  129.5800  125.5680   65.9020 C   0  0  0  0  0  0  0  0  0  0  0  0
  129.6440  125.7100   67.2230 N   0  0  0  0  0  0  0  0  0  0  0  0
  129.1130  126.8420   67.7540 C   0  0  0  0  0  0  0  0  0  0  0  0
  129.1950  126.9690   69.2480 C   0  0  0  0  0  0  0  0  0  0  0  0
  128.1960  126.4240   70.0720 C   0  0  0  0  0  0  0  0  0  0  0  0
  128.2660  126.5390   71.4580 C   0  0  0  0  0  0  0  0  0  0  0  0
  129.3400  127.2020   72.0420 C   0  0  0  0  0  0  0  0  0  0  0  0
  130.3410  127.7550   71.2500 C   0  0  0  0  0  0  0  0  0  0  0  0
  130.2660  127.6390   69.8640 C   0  0  0  0  0  0  0  0  0  0  0  0
  128.5050  127.8170   66.9570 C   0  0  0  0  0  0  0  0  0  0  0  0
  128.4310  127.6780   65.5610 C   0  0  0  0  0  0  0  0  0  0  0  0
  127.7510  128.7840   64.7470 C   0  0  0  0  0  0  0  0  0  0  0  0
  128.3750  129.0470   63.5960 F   0  0  0  0  0  0  0  0  0  0  0  0
  126.5030  128.4250   64.4520 F   0  0  0  0  0  0  0  0  0  0  0  0
  127.7270  129.9140   65.4540 F   0  0  0  0  0  0  0  0  0  0  0  0
  128.9960  126.5000   64.9930 C   0  0  0  0  0  0  0  0  0  0  0  0
  129.1120  126.0190   63.6380 C   0  0  0  0  0  0  0  0  0  0  0  0
  128.6420  126.7210   62.5570 N   0  0  0  0  0  0  0  0  0  0  0  0
  128.2100  122.0730   58.4000 C   0  0  0  0  0  0  0  0  0  0  0  0
  127.2130  122.3120   57.4400 C   0  0  0  0  0  0  0  0  0  0  0  0
  127.3040  121.9140   56.1190 O   0  0  0  0  0  0  0  0  0  0  0  0
  127.9820  122.7470   55.1830 C   0  0  0  0  0  0  0  0  0  0  0  0
  126.0490  122.9910   57.8270 C   0  0  0  0  0  0  0  0  0  0  0  0
  125.0730  123.2440   56.8950 O   0  0  0  0  0  0  0  0  0  0  0  0
  124.9090  124.6220   56.5870 C   0  0  0  0  0  0  0  0  0  0  0  0
  1  2  1  0
  2  3  1  0
  3  4  2  0
  4  5  1  0
  5  6  1  0
  6  7  1  0
  7  8  1  0
  8  9  2  0
  8 10  1  0
 10 11  1  0
 11 12  1  0
 12 13  2  0
 13 14  1  0
 14 15  1  0
 15 16  2  0
 16 17  1  0
 17 18  2  0
 18 19  1  0
 19 20  2  0
 14 21  2  0
 21 22  1  0
 22 23  1  0
 23 24  1  0
 23 25  1  0
 23 26  1  0
 22 27  2  0
 27 28  1  0
 28 29  1  0
  5 30  2  0
 30 31  1  0
 31 32  1  0
 32 33  1  0
 31 34  2  0
 34 35  1  0
 35 36  1  0
 34  3  1  0
 28 10  2  0
 27 12  1  0
 20 15  1  0
M  END
>  <Binding energies>  (57) 
[-8.05]

>  <Ligand effiencies>  (57) 
[-0.20641025641025643]

>  <Interactions>  (57) 
["V-B:TYR:539:CE2:9845, V-B:PRO:540:N:9853, V-B:PRO:540:CB:9854, V-B:TYR:539:CZ:9846, V-A:TYR:484:CZ:4343, V-B:PRO:540:CA:9852, H-B:TYR:539:N:9839, V-B:TYR:539:CD1:9842, V-B:ILE:538:CA:9829, V-B:TYR:539:C:9836, V-B:LEU:363:CD1:8157, V-B:ALA:541:CB:9861, V-B:ILE:538:CG2:9832, V-B:TYR:539:CE1:9844, V-B:GLU:543:CD:9877, V-A:TYR:484:CE1:4341, V-B:ILE:538:CB:9831, V-B:GLU:543:CG:9876, H-B:GLU:543:OE2:9879, V-B:MET:535:CE:9804, V-A:GLU:543:CD:4905, V-A:HIS:456:CE1:4066, V-A:GLU:543:CG:4904, V-B:GLU:543:CB:9875, V-B:PRO:540:CD:9856, V-B:TYR:531:CZ:9763, V-B:TYR:531:CE2:9762, V-B:TYR:539:CG:9841, V-B:TYR:539:CD2:9843, V-B:ASN:362:CB:8144, V-B:ASN:362:C:8140, H-B:GLU:543:OE1:9878, V-B:HIS:456:CD2:9036, V-A:GLU:543:CB:4903, V-A:GLY:544:C:4909, V-B:LYS:547:CE:9919, V-B:HIS:456:CE1:9038, H-A:GLU:543:OE2:4907, V-A:HIS:456:CD2:4064"]

$$$$
4cj_Grossjean_2025
     RDKit          3D

 28 31  0  0  0  0  0  0  0  0999 V2000
  131.0370  122.2730   64.1180 N   0  0  0  0  0  0  0  0  0  0  0  0
  130.2210  123.1510   63.4510 C   0  0  0  0  0  0  0  0  0  0  0  0
  129.9680  124.4570   63.8990 C   0  0  0  0  0  0  0  0  0  0  0  0
  130.4870  125.1310   65.0910 C   0  0  0  0  0  0  0  0  0  0  0  0
  131.6550  124.9660   65.4510 O   0  0  0  0  0  0  0  0  0  0  0  0
  129.5990  125.9170   65.7490 N   0  0  0  0  0  0  0  0  0  0  0  0
  129.8350  126.6600   66.8980 C   0  0  0  0  0  0  0  0  0  0  0  0
  130.8520  127.4570   67.1490 N   0  0  0  0  0  0  0  0  0  0  0  0
  130.7530  128.0070   68.3430 C   0  0  0  0  0  0  0  0  0  0  0  0
  129.6320  127.6580   69.0910 C   0  0  0  0  0  0  0  0  0  0  0  0
  128.6610  126.5480   68.1700 S   0  0  0  0  0  0  0  0  0  0  0  0
  128.8900  125.3110   62.7960 S   0  0  0  0  0  0  0  0  0  0  0  0
  128.7850  123.9150   61.7490 C   0  0  0  0  0  0  0  0  0  0  0  0
  128.0550  123.9360   60.6370 N   0  0  0  0  0  0  0  0  0  0  0  0
  128.0400  122.8080   59.8810 C   0  0  0  0  0  0  0  0  0  0  0  0
  127.2170  122.8690   58.6260 C   0  0  0  0  0  0  0  0  0  0  0  0
  127.7010  122.3300   57.4230 C   0  0  0  0  0  0  0  0  0  0  0  0
  126.9450  122.3890   56.2550 C   0  0  0  0  0  0  0  0  0  0  0  0
  125.6910  122.9910   56.2730 C   0  0  0  0  0  0  0  0  0  0  0  0
  125.1900  123.5340   57.4510 C   0  0  0  0  0  0  0  0  0  0  0  0
  125.9480  123.4720   58.6160 C   0  0  0  0  0  0  0  0  0  0  0  0
  128.7390  121.6560   60.2590 C   0  0  0  0  0  0  0  0  0  0  0  0
  129.5110  121.6230   61.4320 C   0  0  0  0  0  0  0  0  0  0  0  0
  130.2540  120.3290   61.7850 C   0  0  0  0  0  0  0  0  0  0  0  0
  129.8290  119.2740   61.0880 F   0  0  0  0  0  0  0  0  0  0  0  0
  131.5550  120.4760   61.5350 F   0  0  0  0  0  0  0  0  0  0  0  0
  130.0840  120.0490   63.0770 F   0  0  0  0  0  0  0  0  0  0  0  0
  129.5490  122.8080   62.2210 C   0  0  0  0  0  0  0  0  0  0  0  0
  1  2  1  0
  2  3  2  0
  3  4  1  0
  4  5  2  0
  4  6  1  0
  6  7  1  0
  7  8  2  0
  8  9  1  0
  9 10  2  0
 10 11  1  0
  3 12  1  0
 12 13  1  0
 13 14  2  0
 14 15  1  0
 15 16  1  0
 16 17  2  0
 17 18  1  0
 18 19  2  0
 19 20  1  0
 20 21  2  0
 15 22  2  0
 22 23  1  0
 23 24  1  0
 24 25  1  0
 24 26  1  0
 24 27  1  0
 23 28  2  0
 28  2  1  0
 11  7  1  0
 28 13  1  0
 21 16  1  0
M  END
>  <Binding energies>  (58) 
[-6.98]

>  <Ligand effiencies>  (58) 
[-0.22516129032258067]

>  <Interactions>  (58) 
["V-B:TYR:539:CE2:9845, V-B:PRO:540:N:9853, V-B:PRO:540:CB:9854, V-A:TYR:484:CZ:4343, V-A:LEU:475:CD1:4254, V-B:PRO:540:CA:9852, V-B:TYR:539:CD1:9842, V-B:ILE:538:CA:9829, V-B:TYR:539:C:9836, V-B:LEU:363:CD1:8157, V-B:ALA:541:CB:9861, V-B:TYR:539:CE1:9844, V-B:GLU:543:CD:9877, V-A:TYR:484:CE1:4341, V-B:ILE:538:CB:9831, V-A:LEU:475:CD2:4255, V-B:GLU:543:CG:9876, H-B:GLU:543:OE2:9879, V-A:HIS:456:CE1:4066, V-B:GLU:543:CB:9875, H-A:TYR:484:OH:4344, V-B:TYR:539:CG:9841, V-B:TYR:539:CD2:9843, H-B:GLU:543:OE1:9878, V-A:GLU:543:CB:4903, V-A:GLU:543:C:4899, V-B:HIS:456:CE1:9038, V-A:TRP:381:CH2:3368, V-A:LEU:475:CG:4253, V-A:PRO:482:CB:4322, V-A:PRO:482:CG:4323"]

$$$$
4ck_Grossjean_2025
     RDKit          3D

 33 35  0  0  0  0  0  0  0  0999 V2000
  127.7170  122.7490   56.7400 C   0  0  0  0  0  0  0  0  0  0  0  0
  126.7250  121.8570   56.2570 O   0  0  0  0  0  0  0  0  0  0  0  0
  125.4090  122.3870   56.3230 C   0  0  0  0  0  0  0  0  0  0  0  0
  125.4320  123.6850   57.1390 C   0  0  0  0  0  0  0  0  0  0  0  0
  124.6140  123.5250   58.2890 O   0  0  0  0  0  0  0  0  0  0  0  0
  124.9840  124.3700   59.3710 C   0  0  0  0  0  0  0  0  0  0  0  0
  124.7590  123.6230   60.6910 C   0  0  0  0  0  0  0  0  0  0  0  0
  125.9930  123.0600   61.1140 O   0  0  0  0  0  0  0  0  0  0  0  0
  126.9030  122.8050   60.0510 C   0  0  0  0  0  0  0  0  0  0  0  0
  128.3440  122.9950   60.5490 C   0  0  0  0  0  0  0  0  0  0  0  0
  128.4020  123.7930   61.7740 N   0  0  0  0  0  0  0  0  0  0  0  0
  129.4830  124.4530   62.2370 C   0  0  0  0  0  0  0  0  0  0  0  0
  130.5590  124.4730   61.6350 O   0  0  0  0  0  0  0  0  0  0  0  0
  129.3050  125.1650   63.5030 C   0  0  0  0  0  0  0  0  0  0  0  0
  129.8830  124.4520   65.0060 S   0  0  0  0  0  0  0  0  0  0  0  0
  129.3710  125.8530   65.9170 C   0  0  0  0  0  0  0  0  0  0  0  0
  129.5480  125.9300   67.2340 N   0  0  0  0  0  0  0  0  0  0  0  0
  129.1160  127.0580   67.8560 C   0  0  0  0  0  0  0  0  0  0  0  0
  129.3480  127.1200   69.3380 C   0  0  0  0  0  0  0  0  0  0  0  0
  130.3930  127.8930   69.8710 C   0  0  0  0  0  0  0  0  0  0  0  0
  130.6150  127.9530   71.2450 C   0  0  0  0  0  0  0  0  0  0  0  0
  129.7920  127.2390   72.1080 C   0  0  0  0  0  0  0  0  0  0  0  0
  128.7470  126.4690   71.6080 C   0  0  0  0  0  0  0  0  0  0  0  0
  128.5280  126.4130   70.2340 C   0  0  0  0  0  0  0  0  0  0  0  0
  128.5160  128.1070   67.1520 C   0  0  0  0  0  0  0  0  0  0  0  0
  128.3230  128.0360   65.7630 C   0  0  0  0  0  0  0  0  0  0  0  0
  127.6550  129.2210   65.0550 C   0  0  0  0  0  0  0  0  0  0  0  0
  128.1800  129.4780   63.8560 F   0  0  0  0  0  0  0  0  0  0  0  0
  126.3590  128.9670   64.8770 F   0  0  0  0  0  0  0  0  0  0  0  0
  127.7900  130.3220   65.7940 F   0  0  0  0  0  0  0  0  0  0  0  0
  128.7700  126.8570   65.1010 C   0  0  0  0  0  0  0  0  0  0  0  0
  128.7530  126.4370   63.7200 C   0  0  0  0  0  0  0  0  0  0  0  0
  128.2390  127.2140   62.7140 N   0  0  0  0  0  0  0  0  0  0  0  0
  1  2  1  0
  2  3  1  0
  3  4  1  0
  4  5  1  0
  5  6  1  0
  6  7  1  0
  7  8  1  0
  8  9  1  0
  9 10  1  0
 10 11  1  0
 11 12  1  0
 12 13  2  0
 12 14  1  0
 14 15  1  0
 15 16  1  0
 16 17  2  0
 17 18  1  0
 18 19  1  0
 19 20  2  0
 20 21  1  0
 21 22  2  0
 22 23  1  0
 23 24  2  0
 18 25  2  0
 25 26  1  0
 26 27  1  0
 27 28  1  0
 27 29  1  0
 27 30  1  0
 26 31  2  0
 31 32  1  0
 32 33  1  0
 32 14  2  0
 31 16  1  0
 24 19  1  0
M  END
>  <Binding energies>  (59) 
[-6.96]

>  <Ligand effiencies>  (59) 
[-0.19333333333333333]

>  <Interactions>  (59) 
["V-B:PRO:540:N:9853, V-B:PRO:540:CB:9854, H-B:ALA:541:N:9860, V-B:PRO:540:CA:9852, H-B:TYR:539:N:9839, V-B:TYR:539:CD1:9842, V-B:PRO:540:C:9850, V-B:LEU:363:CD1:8157, V-B:ALA:541:CB:9861, V-B:ILE:538:CG2:9832, V-B:TYR:539:CE1:9844, V-B:GLU:543:CD:9877, V-B:ILE:538:CB:9831, V-B:GLU:543:CG:9876, H-B:GLU:543:OE2:9879, V-A:GLU:543:CD:4905, V-A:HIS:456:CE1:4066, V-A:GLU:543:CG:4904, V-B:GLU:543:CB:9875, V-B:PRO:540:CD:9856, H-B:GLU:543:OE1:9878, V-A:GLU:543:CB:4903, V-A:GLU:543:C:4899, V-A:GLY:544:C:4909, V-B:LYS:547:CE:9919, V-B:HIS:456:CE1:9038, H-A:GLU:543:OE2:4907, V-B:PRO:540:CG:9855, V-B:TYR:484:CE1:9313, V-A:HIS:456:CD2:4064"]

$$$$
4dd_Grossjean_2025
     RDKit          3D

 26 29  0  0  0  0  0  0  0  0999 V2000
  130.2460  120.2800   61.8820 C   0  0  0  0  0  0  0  0  0  0  0  0
  129.5460  121.5760   61.5010 C   0  0  0  0  0  0  0  0  0  0  0  0
  128.8410  121.6150   60.2920 C   0  0  0  0  0  0  0  0  0  0  0  0
  128.1760  122.7780   59.8850 C   0  0  0  0  0  0  0  0  0  0  0  0
  127.4180  122.8510   58.5920 C   0  0  0  0  0  0  0  0  0  0  0  0
  127.9710  122.3480   57.4040 C   0  0  0  0  0  0  0  0  0  0  0  0
  127.2720  122.4090   56.2010 C   0  0  0  0  0  0  0  0  0  0  0  0
  126.0040  122.9790   56.1700 C   0  0  0  0  0  0  0  0  0  0  0  0
  125.4300  123.4830   57.3320 C   0  0  0  0  0  0  0  0  0  0  0  0
  126.1320  123.4170   58.5330 C   0  0  0  0  0  0  0  0  0  0  0  0
  128.1940  123.9160   60.6320 N   0  0  0  0  0  0  0  0  0  0  0  0
  128.8590  123.8770   61.7860 C   0  0  0  0  0  0  0  0  0  0  0  0
  128.9480  125.2610   62.8520 S   0  0  0  0  0  0  0  0  0  0  0  0
  129.9280  124.3630   64.0130 C   0  0  0  0  0  0  0  0  0  0  0  0
  130.3720  124.9970   65.2560 C   0  0  0  0  0  0  0  0  0  0  0  0
  131.5560  124.9560   65.5940 O   0  0  0  0  0  0  0  0  0  0  0  0
  129.4010  125.6180   65.9700 N   0  0  0  0  0  0  0  0  0  0  0  0
  129.4800  126.2670   67.2150 C   0  0  0  0  0  0  0  0  0  0  0  0
  130.4490  127.2690   67.3220 C   0  0  0  0  0  0  0  0  0  0  0  0
  130.5970  127.9800   68.5100 C   0  0  0  0  0  0  0  0  0  0  0  0
  129.7680  127.6940   69.5920 C   0  0  0  0  0  0  0  0  0  0  0  0
  128.7910  126.7080   69.4960 C   0  0  0  0  0  0  0  0  0  0  0  0
  128.6410  125.9950   68.3090 C   0  0  0  0  0  0  0  0  0  0  0  0
  130.1660  123.0540   63.5670 C   0  0  0  0  0  0  0  0  0  0  0  0
  130.9040  122.1310   64.2660 N   0  0  0  0  0  0  0  0  0  0  0  0
  129.5620  122.7500   62.2970 C   0  0  0  0  0  0  0  0  0  0  0  0
  1  2  1  0
  2  3  2  0
  3  4  1  0
  4  5  1  0
  5  6  2  0
  6  7  1  0
  7  8  2  0
  8  9  1  0
  9 10  2  0
  4 11  2  0
 11 12  1  0
 12 13  1  0
 13 14  1  0
 14 15  1  0
 15 16  2  0
 15 17  1  0
 17 18  1  0
 18 19  2  0
 19 20  1  0
 20 21  2  0
 21 22  1  0
 22 23  2  0
 14 24  2  0
 24 25  1  0
 24 26  1  0
 26  2  1  0
 10  5  1  0
 26 12  2  0
 23 18  1  0
M  END
>  <Binding energies>  (60) 
[-8.09]

>  <Ligand effiencies>  (60) 
[-0.2789655172413793]

>  <Interactions>  (60) 
["V-B:TYR:539:CE2:9845, V-B:PRO:540:N:9853, V-B:PRO:540:CB:9854, V-B:TYR:539:CZ:9846, V-A:TYR:484:CZ:4343, V-A:LEU:475:CD1:4254, V-B:PRO:540:CA:9852, V-B:TYR:539:CD1:9842, V-B:ILE:538:CA:9829, V-B:TYR:539:C:9836, V-B:LEU:363:CD1:8157, V-B:ALA:541:CB:9861, V-B:ILE:538:CG2:9832, V-B:TYR:539:CE1:9844, V-B:GLU:543:CD:9877, V-A:TYR:484:CE1:4341, V-B:ILE:538:CB:9831, V-A:LEU:475:CD2:4255, V-B:GLU:543:CG:9876, H-B:GLU:543:OE2:9879, V-A:HIS:456:CE1:4066, V-B:GLU:543:CB:9875, H-A:TYR:484:OH:4344, V-B:TYR:539:CG:9841, V-B:TYR:539:CD2:9843, H-B:GLU:543:OE1:9878, V-A:GLU:543:CB:4903, V-A:GLU:543:C:4899, V-B:HIS:456:CE1:9038, V-B:GLU:543:C:9871, V-A:LEU:475:CG:4253"]

$$$$
4dg_Grossjean_2025
     RDKit          3D

 27 30  0  0  0  0  0  0  0  0999 V2000
  132.1250  128.6220   68.6320 C   0  0  0  0  0  0  0  0  0  0  0  0
  130.9320  127.7200   68.3520 C   0  0  0  0  0  0  0  0  0  0  0  0
  130.7860  127.2010   67.0610 C   0  0  0  0  0  0  0  0  0  0  0  0
  129.7100  126.3650   66.7390 C   0  0  0  0  0  0  0  0  0  0  0  0
  129.5270  125.7920   65.3610 C   0  0  0  0  0  0  0  0  0  0  0  0
  129.7570  124.4290   65.1110 C   0  0  0  0  0  0  0  0  0  0  0  0
  129.5930  123.8940   63.8360 C   0  0  0  0  0  0  0  0  0  0  0  0
  129.1950  124.7160   62.7880 C   0  0  0  0  0  0  0  0  0  0  0  0
  128.9640  126.0710   63.0060 C   0  0  0  0  0  0  0  0  0  0  0  0
  129.1300  126.6020   64.2820 C   0  0  0  0  0  0  0  0  0  0  0  0
  128.7770  126.0070   67.6620 N   0  0  0  0  0  0  0  0  0  0  0  0
  128.9150  126.5010   68.8930 C   0  0  0  0  0  0  0  0  0  0  0  0
  127.7840  126.1270   70.1720 S   0  0  0  0  0  0  0  0  0  0  0  0
  128.6850  127.1190   71.3180 C   0  0  0  0  0  0  0  0  0  0  0  0
  128.2030  127.2790   72.6890 C   0  0  0  0  0  0  0  0  0  0  0  0
  128.9770  127.5140   73.6180 O   0  0  0  0  0  0  0  0  0  0  0  0
  126.8760  127.1160   72.8690 N   0  0  0  0  0  0  0  0  0  0  0  0
  126.1720  127.2510   74.1440 C   0  0  0  0  0  0  0  0  0  0  0  0
  125.8700  128.6980   74.5190 C   0  0  0  0  0  0  0  0  0  0  0  0
  126.8140  129.6950   74.2530 C   0  0  0  0  0  0  0  0  0  0  0  0
  126.5290  131.0210   74.5650 C   0  0  0  0  0  0  0  0  0  0  0  0
  125.2980  131.3490   75.1300 C   0  0  0  0  0  0  0  0  0  0  0  0
  124.3470  130.3630   75.3820 C   0  0  0  0  0  0  0  0  0  0  0  0
  124.6310  129.0360   75.0690 C   0  0  0  0  0  0  0  0  0  0  0  0
  129.7990  127.7160   70.7090 C   0  0  0  0  0  0  0  0  0  0  0  0
  130.6700  128.5500   71.3630 N   0  0  0  0  0  0  0  0  0  0  0  0
  129.9590  127.3670   69.3230 C   0  0  0  0  0  0  0  0  0  0  0  0
  1  2  1  0
  2  3  2  0
  3  4  1  0
  4  5  1  0
  5  6  2  0
  6  7  1  0
  7  8  2  0
  8  9  1  0
  9 10  2  0
  4 11  2  0
 11 12  1  0
 12 13  1  0
 13 14  1  0
 14 15  1  0
 15 16  2  0
 15 17  1  0
 17 18  1  0
 18 19  1  0
 19 20  2  0
 20 21  1  0
 21 22  2  0
 22 23  1  0
 23 24  2  0
 14 25  2  0
 25 26  1  0
 25 27  1  0
 27  2  1  0
 10  5  1  0
 27 12  2  0
 24 19  1  0
M  END
>  <Binding energies>  (61) 
[-8.12]

>  <Ligand effiencies>  (61) 
[-0.27066666666666667]

>  <Interactions>  (61) 
["V-B:GLU:543:CD:9877, V-A:TYR:484:CE1:4341, V-B:GLU:543:CG:9876, V-A:GLU:543:CD:4905, V-A:HIS:456:CE1:4066, V-B:GLU:543:CB:9875, V-B:HIS:456:CD2:9036, V-B:GLY:544:CA:9883, V-A:GLU:543:CB:4903, V-A:GLU:543:C:4899, H-A:LYS:547:NZ:4948, V-A:GLY:544:C:4909, V-B:LYS:547:CE:9919, V-B:HIS:456:CB:9033, V-B:HIS:456:CE1:9038, V-B:GLY:544:C:9881, V-B:LYS:547:CD:9918, V-A:ARG:545:CG:4919, V-B:GLU:543:C:9871, H-B:HIS:456:NE2:9039, V-A:ARG:545:CB:4918, V-A:ARG:545:CA:4916, H-A:GLY:544:O:4910, H-A:GLU:543:O:4900, V-A:GLU:543:CA:4901, V-A:GLY:544:CA:4911, V-B:HIS:456:CG:9034, V-B:ASP:473:CG:9208, V-B:HIS:456:C:9029, V-B:ASP:473:CB:9207, V-B:VAL:457:C:9041, V-B:LYS:471:CE:9188, V-B:VAL:458:CG2:9055, V-B:VAL:457:CA:9043, V-B:LYS:547:CG:9917, V-B:HIS:456:CA:9031, H-B:GLY:544:O:9882"]

$$$$
4dj_Grossjean_2025
     RDKit          3D

 25 28  0  0  0  0  0  0  0  0999 V2000
  130.2620  120.3390   61.8940 C   0  0  0  0  0  0  0  0  0  0  0  0
  129.5590  121.6280   61.5000 C   0  0  0  0  0  0  0  0  0  0  0  0
  128.8390  121.6470   60.3000 C   0  0  0  0  0  0  0  0  0  0  0  0
  128.1700  122.8040   59.8790 C   0  0  0  0  0  0  0  0  0  0  0  0
  127.3850  122.8520   58.5990 C   0  0  0  0  0  0  0  0  0  0  0  0
  126.0920  123.3980   58.5670 C   0  0  0  0  0  0  0  0  0  0  0  0
  125.3590  123.4450   57.3850 C   0  0  0  0  0  0  0  0  0  0  0  0
  125.9100  122.9400   56.2110 C   0  0  0  0  0  0  0  0  0  0  0  0
  127.1870  122.3900   56.2140 C   0  0  0  0  0  0  0  0  0  0  0  0
  127.9160  122.3460   57.3990 C   0  0  0  0  0  0  0  0  0  0  0  0
  128.1760  123.9460   60.6190 N   0  0  0  0  0  0  0  0  0  0  0  0
  128.8620  123.9300   61.7610 C   0  0  0  0  0  0  0  0  0  0  0  0
  128.9590  125.3300   62.8050 S   0  0  0  0  0  0  0  0  0  0  0  0
  129.9690  124.4570   63.9600 C   0  0  0  0  0  0  0  0  0  0  0  0
  130.4520  125.1220   65.1710 C   0  0  0  0  0  0  0  0  0  0  0  0
  131.6070  124.9480   65.5680 O   0  0  0  0  0  0  0  0  0  0  0  0
  129.5490  125.9120   65.8030 N   0  0  0  0  0  0  0  0  0  0  0  0
  129.7490  126.6460   66.9630 C   0  0  0  0  0  0  0  0  0  0  0  0
  130.7350  127.4750   67.2350 N   0  0  0  0  0  0  0  0  0  0  0  0
  130.6070  128.0020   68.4370 C   0  0  0  0  0  0  0  0  0  0  0  0
  129.4940  127.6030   69.1700 C   0  0  0  0  0  0  0  0  0  0  0  0
  128.5710  126.4730   68.2240 S   0  0  0  0  0  0  0  0  0  0  0  0
  130.2080  123.1430   63.5300 C   0  0  0  0  0  0  0  0  0  0  0  0
  130.9650  122.2370   64.2300 N   0  0  0  0  0  0  0  0  0  0  0  0
  129.5830  122.8150   62.2770 C   0  0  0  0  0  0  0  0  0  0  0  0
  1  2  1  0
  2  3  2  0
  3  4  1  0
  4  5  1  0
  5  6  2  0
  6  7  1  0
  7  8  2  0
  8  9  1  0
  9 10  2  0
  4 11  2  0
 11 12  1  0
 12 13  1  0
 13 14  1  0
 14 15  1  0
 15 16  2  0
 15 17  1  0
 17 18  1  0
 18 19  2  0
 19 20  1  0
 20 21  2  0
 21 22  1  0
 14 23  2  0
 23 24  1  0
 23 25  1  0
 25  2  1  0
 10  5  1  0
 25 12  2  0
 22 18  1  0
M  END
>  <Binding energies>  (62) 
[-7.37]

>  <Ligand effiencies>  (62) 
[-0.26321428571428573]

>  <Interactions>  (62) 
["V-B:TYR:539:CE2:9845, V-B:PRO:540:N:9853, V-B:PRO:540:CB:9854, V-B:TYR:539:CZ:9846, V-A:TYR:484:CZ:4343, V-A:LEU:475:CD1:4254, V-B:PRO:540:CA:9852, V-B:TYR:539:CD1:9842, V-B:ILE:538:CA:9829, V-B:TYR:539:C:9836, V-B:LEU:363:CD1:8157, V-B:ALA:541:CB:9861, V-B:ILE:538:CG2:9832, V-B:TYR:539:CE1:9844, V-B:GLU:543:CD:9877, V-A:TYR:484:CE1:4341, V-B:ILE:538:CB:9831, V-A:LEU:475:CD2:4255, V-B:GLU:543:CG:9876, H-B:GLU:543:OE2:9879, V-A:HIS:456:CE1:4066, V-B:GLU:543:CB:9875, H-A:TYR:484:OH:4344, V-B:TYR:539:CG:9841, V-B:TYR:539:CD2:9843, H-B:GLU:543:OE1:9878, V-A:GLU:543:CB:4903, V-A:GLU:543:C:4899, V-B:HIS:456:CE1:9038, V-A:LEU:475:CG:4253"]

$$$$
4ea_Grossjean_2025
     RDKit          3D

 31 34  0  0  0  0  0  0  0  0999 V2000
  129.8050  123.3820   53.7670 C   0  0  0  0  0  0  0  0  0  0  0  0
  128.5060  122.7340   54.2540 C   0  0  0  0  0  0  0  0  0  0  0  0
  128.0980  123.3500   55.4690 O   0  0  0  0  0  0  0  0  0  0  0  0
  127.4740  122.6370   56.4420 C   0  0  0  0  0  0  0  0  0  0  0  0
  126.7980  121.6280   56.2190 O   0  0  0  0  0  0  0  0  0  0  0  0
  127.6890  123.1990   57.8180 C   0  0  0  0  0  0  0  0  0  0  0  0
  128.6300  124.2210   57.9990 C   0  0  0  0  0  0  0  0  0  0  0  0
  128.8530  124.7630   59.2620 C   0  0  0  0  0  0  0  0  0  0  0  0
  128.1420  124.2960   60.3680 C   0  0  0  0  0  0  0  0  0  0  0  0
  128.4500  124.9180   61.5930 N   0  0  0  0  0  0  0  0  0  0  0  0
  129.6350  125.0460   62.2400 C   0  0  0  0  0  0  0  0  0  0  0  0
  130.7050  124.6040   61.8210 O   0  0  0  0  0  0  0  0  0  0  0  0
  129.5750  125.7670   63.5140 C   0  0  0  0  0  0  0  0  0  0  0  0
  130.6750  125.3470   64.8300 S   0  0  0  0  0  0  0  0  0  0  0  0
  129.9850  126.5760   65.8650 C   0  0  0  0  0  0  0  0  0  0  0  0
  130.4240  126.7790   67.1080 N   0  0  0  0  0  0  0  0  0  0  0  0
  129.8050  127.7630   67.8050 C   0  0  0  0  0  0  0  0  0  0  0  0
  130.3200  127.9780   69.2160 C   0  0  0  0  0  0  0  0  0  0  0  0
  128.7670  128.5390   67.2940 C   0  0  0  0  0  0  0  0  0  0  0  0
  128.3080  128.3220   65.9910 C   0  0  0  0  0  0  0  0  0  0  0  0
  127.2050  129.1550   65.4620 C   0  0  0  0  0  0  0  0  0  0  0  0
  127.4850  130.3480   64.7890 C   0  0  0  0  0  0  0  0  0  0  0  0
  126.4470  131.1310   64.2900 C   0  0  0  0  0  0  0  0  0  0  0  0
  125.1280  130.7220   64.4670 C   0  0  0  0  0  0  0  0  0  0  0  0
  124.8370  129.5370   65.1400 C   0  0  0  0  0  0  0  0  0  0  0  0
  125.8760  128.7560   65.6390 C   0  0  0  0  0  0  0  0  0  0  0  0
  128.9330  127.2990   65.2250 C   0  0  0  0  0  0  0  0  0  0  0  0
  128.7200  126.8170   63.8850 C   0  0  0  0  0  0  0  0  0  0  0  0
  127.7630  127.3480   63.0590 N   0  0  0  0  0  0  0  0  0  0  0  0
  127.1970  123.2720   60.1960 C   0  0  0  0  0  0  0  0  0  0  0  0
  126.9760  122.7320   58.9320 C   0  0  0  0  0  0  0  0  0  0  0  0
  1  2  1  0
  2  3  1  0
  3  4  1  0
  4  5  2  0
  4  6  1  0
  6  7  2  0
  7  8  1  0
  8  9  2  0
  9 10  1  0
 10 11  1  0
 11 12  2  0
 11 13  1  0
 13 14  1  0
 14 15  1  0
 15 16  2  0
 16 17  1  0
 17 18  1  0
 17 19  2  0
 19 20  1  0
 20 21  1  0
 21 22  2  0
 22 23  1  0
 23 24  2  0
 24 25  1  0
 25 26  2  0
 20 27  2  0
 27 28  1  0
 28 29  1  0
  9 30  1  0
 30 31  2  0
 31  6  1  0
 28 13  2  0
 27 15  1  0
 26 21  1  0
M  END
>  <Binding energies>  (63) 
[-8.61]

>  <Ligand effiencies>  (63) 
[-0.25323529411764706]

>  <Interactions>  (63) 
["V-B:PRO:540:N:9853, V-B:PRO:540:CB:9854, V-B:PRO:540:CA:9852, H-B:TYR:539:N:9839, V-B:TYR:539:CD1:9842, V-B:ILE:538:CA:9829, V-B:TYR:539:C:9836, V-B:ILE:538:CG2:9832, V-B:TYR:539:CE1:9844, V-B:GLU:543:CD:9877, V-B:ILE:538:CB:9831, H-B:GLU:543:OE2:9879, V-B:MET:535:CE:9804, V-A:GLU:543:CD:4905, V-A:HIS:456:CE1:4066, V-A:GLU:543:CG:4904, H-B:GLU:543:OE1:9878, V-A:GLU:543:CB:4903, V-A:GLU:543:C:4899, V-B:HIS:456:CE1:9038, V-B:ARG:545:CZ:9895, H-A:GLU:543:OE2:4907"]

$$$$
4eb_Grossjean_2025
     RDKit          3D

 30 33  0  0  0  0  0  0  0  0999 V2000
  128.2580  122.7150   54.6920 C   0  0  0  0  0  0  0  0  0  0  0  0
  127.9970  121.8780   55.8080 O   0  0  0  0  0  0  0  0  0  0  0  0
  126.8760  122.0420   56.5580 C   0  0  0  0  0  0  0  0  0  0  0  0
  125.7650  121.6220   56.2200 O   0  0  0  0  0  0  0  0  0  0  0  0
  127.1220  122.7860   57.8380 C   0  0  0  0  0  0  0  0  0  0  0  0
  128.4400  123.0180   58.2520 C   0  0  0  0  0  0  0  0  0  0  0  0
  128.7020  123.7040   59.4340 C   0  0  0  0  0  0  0  0  0  0  0  0
  127.6530  124.1740   60.2260 C   0  0  0  0  0  0  0  0  0  0  0  0
  128.0360  124.8540   61.3990 N   0  0  0  0  0  0  0  0  0  0  0  0
  129.2330  125.3780   61.7580 C   0  0  0  0  0  0  0  0  0  0  0  0
  130.2470  125.3360   61.0600 O   0  0  0  0  0  0  0  0  0  0  0  0
  129.2630  126.0240   63.0730 C   0  0  0  0  0  0  0  0  0  0  0  0
  130.5180  125.6100   64.2430 S   0  0  0  0  0  0  0  0  0  0  0  0
  129.8650  126.7330   65.4140 C   0  0  0  0  0  0  0  0  0  0  0  0
  130.4200  126.8990   66.6160 N   0  0  0  0  0  0  0  0  0  0  0  0
  129.8180  127.7990   67.4300 C   0  0  0  0  0  0  0  0  0  0  0  0
  130.4650  127.9730   68.7920 C   0  0  0  0  0  0  0  0  0  0  0  0
  128.6860  128.5300   67.0760 C   0  0  0  0  0  0  0  0  0  0  0  0
  128.1070  128.3520   65.8130 C   0  0  0  0  0  0  0  0  0  0  0  0
  126.9040  129.1350   65.4510 C   0  0  0  0  0  0  0  0  0  0  0  0
  125.6460  128.7480   65.9210 C   0  0  0  0  0  0  0  0  0  0  0  0
  124.5140  129.4860   65.5820 C   0  0  0  0  0  0  0  0  0  0  0  0
  124.6410  130.6100   64.7690 C   0  0  0  0  0  0  0  0  0  0  0  0
  125.8910  131.0020   64.2930 C   0  0  0  0  0  0  0  0  0  0  0  0
  127.0210  130.2630   64.6330 C   0  0  0  0  0  0  0  0  0  0  0  0
  128.7100  127.4160   64.9290 C   0  0  0  0  0  0  0  0  0  0  0  0
  128.3890  126.9920   63.5920 C   0  0  0  0  0  0  0  0  0  0  0  0
  127.3190  127.5010   62.8990 N   0  0  0  0  0  0  0  0  0  0  0  0
  126.3290  123.9470   59.8200 C   0  0  0  0  0  0  0  0  0  0  0  0
  126.0700  123.2590   58.6380 C   0  0  0  0  0  0  0  0  0  0  0  0
  1  2  1  0
  2  3  1  0
  3  4  2  0
  3  5  1  0
  5  6  2  0
  6  7  1  0
  7  8  2  0
  8  9  1  0
  9 10  1  0
 10 11  2  0
 10 12  1  0
 12 13  1  0
 13 14  1  0
 14 15  2  0
 15 16  1  0
 16 17  1  0
 16 18  2  0
 18 19  1  0
 19 20  1  0
 20 21  2  0
 21 22  1  0
 22 23  2  0
 23 24  1  0
 24 25  2  0
 19 26  2  0
 26 27  1  0
 27 28  1  0
  8 29  1  0
 29 30  2  0
 30  5  1  0
 27 12  2  0
 26 14  1  0
 25 20  1  0
M  END
>  <Binding energies>  (64) 
[-8.94]

>  <Ligand effiencies>  (64) 
[-0.2709090909090909]

>  <Interactions>  (64) 
["V-B:TYR:539:CE2:9845, V-B:PRO:540:N:9853, V-B:PRO:540:CB:9854, V-B:TYR:539:CZ:9846, V-B:PRO:540:CA:9852, H-B:TYR:539:N:9839, V-B:TYR:539:CD1:9842, V-B:ILE:538:CA:9829, V-B:TYR:539:C:9836, V-B:ILE:538:CG2:9832, V-B:TYR:539:CE1:9844, V-B:GLU:543:CD:9877, V-B:ILE:538:CB:9831, H-B:GLU:543:OE2:9879, V-B:MET:535:CE:9804, V-A:GLU:543:CD:4905, V-A:HIS:456:CE1:4066, V-A:GLU:543:CG:4904, V-B:PRO:540:CD:9856, V-B:TYR:539:CA:9838, H-B:ASP:366:OD1:8182, H-B:GLU:543:OE1:9878, V-A:GLU:543:CB:4903, V-A:GLU:543:C:4899, V-B:HIS:456:CE1:9038, V-B:GLY:454:CA:9017, V-B:ARG:545:CG:9891, V-B:ARG:545:CZ:9895, V-B:ARG:545:CD:9892"]

$$$$
8b_Ghoteimi_2023
     RDKit          3D

 34 38  0  0  0  0  0  0  0  0999 V2000
  123.9150  133.5460   61.6880 C   0  0  0  0  0  0  0  0  0  0  0  0
  123.7780  133.0030   62.9970 O   0  0  0  0  0  0  0  0  0  0  0  0
  124.6280  131.9900   63.3980 C   0  0  0  0  0  0  0  0  0  0  0  0
  125.9040  132.3720   63.8070 C   0  0  0  0  0  0  0  0  0  0  0  0
  126.8270  131.4200   64.2270 C   0  0  0  0  0  0  0  0  0  0  0  0
  126.4980  130.0570   64.2490 C   0  0  0  0  0  0  0  0  0  0  0  0
  127.4870  129.0290   64.6970 C   0  0  0  0  0  0  0  0  0  0  0  0
  127.6220  128.6740   66.0440 C   0  0  0  0  0  0  0  0  0  0  0  0
  128.5540  127.7090   66.4370 C   0  0  0  0  0  0  0  0  0  0  0  0
  128.6780  127.3630   67.8720 C   0  0  0  0  0  0  0  0  0  0  0  0
  127.7750  126.4760   68.4610 C   0  0  0  0  0  0  0  0  0  0  0  0
  127.8990  126.1440   69.8080 C   0  0  0  0  0  0  0  0  0  0  0  0
  128.9210  126.6930   70.5830 C   0  0  0  0  0  0  0  0  0  0  0  0
  128.9680  126.3050   71.9090 O   0  0  0  0  0  0  0  0  0  0  0  0
  128.1640  126.9930   72.8620 C   0  0  0  0  0  0  0  0  0  0  0  0
  129.8250  127.5870   69.9880 C   0  0  0  0  0  0  0  0  0  0  0  0
  129.7010  127.9180   68.6410 C   0  0  0  0  0  0  0  0  0  0  0  0
  129.3500  127.0990   65.4300 C   0  0  0  0  0  0  0  0  0  0  0  0
  130.3770  126.0910   65.4750 C   0  0  0  0  0  0  0  0  0  0  0  0
  130.7780  125.5040   66.6480 N   0  0  0  0  0  0  0  0  0  0  0  0
  130.9150  125.7720   64.2190 C   0  0  0  0  0  0  0  0  0  0  0  0
  131.9610  124.7980   63.8960 C   0  0  0  0  0  0  0  0  0  0  0  0
  132.3340  123.9750   64.7350 O   0  0  0  0  0  0  0  0  0  0  0  0
  132.4650  124.8820   62.6390 N   0  0  0  0  0  0  0  0  0  0  0  0
  133.4530  124.0890   62.0710 C   0  0  0  0  0  0  0  0  0  0  0  0
  133.1750  123.0200   61.2200 C   0  0  0  0  0  0  0  0  0  0  0  0
  134.4050  122.5010   60.8840 C   0  0  0  0  0  0  0  0  0  0  0  0
  135.3730  123.2220   61.4970 O   0  0  0  0  0  0  0  0  0  0  0  0
  134.7580  124.2270   62.2450 N   0  0  0  0  0  0  0  0  0  0  0  0
  130.1540  126.7200   62.9400 S   0  0  0  0  0  0  0  0  0  0  0  0
  129.1240  127.5350   64.0940 C   0  0  0  0  0  0  0  0  0  0  0  0
  128.2370  128.4560   63.7180 N   0  0  0  0  0  0  0  0  0  0  0  0
  125.2120  129.6790   63.8380 C   0  0  0  0  0  0  0  0  0  0  0  0
  124.2860  130.6300   63.4170 C   0  0  0  0  0  0  0  0  0  0  0  0
  1  2  1  0
  2  3  1  0
  3  4  2  0
  4  5  1  0
  5  6  2  0
  6  7  1  0
  7  8  2  0
  8  9  1  0
  9 10  1  0
 10 11  2  0
 11 12  1  0
 12 13  2  0
 13 14  1  0
 14 15  1  0
 13 16  1  0
 16 17  2  0
  9 18  2  0
 18 19  1  0
 19 20  1  0
 19 21  2  0
 21 22  1  0
 22 23  2  0
 22 24  1  0
 24 25  1  0
 25 26  1  0
 26 27  2  0
 27 28  1  0
 28 29  1  0
 21 30  1  0
 30 31  1  0
 31 32  2  0
  6 33  1  0
 33 34  2  0
 34  3  1  0
 32  7  1  0
 17 10  1  0
 31 18  1  0
 29 25  2  0
M  END
>  <Binding energies>  (65) 
[-8.5]

>  <Ligand effiencies>  (65) 
[-0.22972972972972974]

>  <Interactions>  (65) 
["V-A:TYR:484:CZ:4343, V-B:GLU:543:CD:9877, V-A:GLU:543:CD:4905, V-A:HIS:456:CE1:4066, H-A:ARG:545:NH1:4924, V-A:ASP:366:CG:3209, V-B:GLU:543:CB:9875, H-A:GLY:454:N:4046, H-A:TYR:484:OH:4344, V-B:ASP:366:CG:8181, V-B:HIS:456:CD2:9036, V-A:ILE:369:CB:3232, V-A:GLU:543:CB:4903, V-A:ILE:369:CG2:3233, V-B:LYS:547:CE:9919, V-B:HIS:456:CE1:9038, H-A:HIS:456:NE2:4067, V-B:GLY:544:C:9881, V-A:ILE:369:CG1:3234, V-B:GLY:454:CA:9017, V-B:ILE:369:CG2:8205, V-B:ARG:545:CZ:9895, V-B:ILE:369:CD1:8207, V-B:GLU:543:C:9871, H-A:ASP:366:OD1:3210, H-A:ASP:366:OD2:3211, V-B:LEU:475:CD2:9227, H-B:GLY:454:N:9018"]

$$$$
9d_Ghoteimi_2023
     RDKit          3D

 38 43  0  0  0  0  0  0  0  0999 V2000
  127.7940  122.7850   56.4430 C   0  0  0  0  0  0  0  0  0  0  0  0
  128.6500  123.1870   57.5030 O   0  0  0  0  0  0  0  0  0  0  0  0
  128.5620  122.6050   58.7270 C   0  0  0  0  0  0  0  0  0  0  0  0
  128.3820  121.3980   58.9060 O   0  0  0  0  0  0  0  0  0  0  0  0
  128.7000  123.5740   59.8370 C   0  0  0  0  0  0  0  0  0  0  0  0
  128.5140  123.0320   61.5040 S   0  0  0  0  0  0  0  0  0  0  0  0
  128.8340  124.6410   62.1050 C   0  0  0  0  0  0  0  0  0  0  0  0
  128.8710  124.9040   63.4110 N   0  0  0  0  0  0  0  0  0  0  0  0
  129.1450  126.1840   63.7760 C   0  0  0  0  0  0  0  0  0  0  0  0
  129.2060  126.4500   65.2460 C   0  0  0  0  0  0  0  0  0  0  0  0
  129.4510  125.4080   66.1460 C   0  0  0  0  0  0  0  0  0  0  0  0
  129.5070  125.6440   67.5170 C   0  0  0  0  0  0  0  0  0  0  0  0
  129.3330  126.9360   68.0370 C   0  0  0  0  0  0  0  0  0  0  0  0
  129.3700  127.1870   69.4140 N   0  0  0  0  0  0  0  0  0  0  0  0
  128.7690  126.2470   70.3820 C   0  0  0  0  0  0  0  0  0  0  0  0
  128.5920  126.8360   71.7970 C   0  0  0  0  0  0  0  0  0  0  0  0
  129.8310  127.3350   72.2730 O   0  0  0  0  0  0  0  0  0  0  0  0
  130.3330  128.3640   71.4360 C   0  0  0  0  0  0  0  0  0  0  0  0
  130.5630  127.8240   70.0090 C   0  0  0  0  0  0  0  0  0  0  0  0
  129.0730  127.9750   67.1310 C   0  0  0  0  0  0  0  0  0  0  0  0
  129.0130  127.7370   65.7610 C   0  0  0  0  0  0  0  0  0  0  0  0
  129.3480  127.1990   62.8380 C   0  0  0  0  0  0  0  0  0  0  0  0
  129.2920  126.9320   61.4650 C   0  0  0  0  0  0  0  0  0  0  0  0
  129.4880  128.0550   60.5100 C   0  0  0  0  0  0  0  0  0  0  0  0
  130.6480  128.8310   60.5510 C   0  0  0  0  0  0  0  0  0  0  0  0
  130.8350  129.8700   59.6430 C   0  0  0  0  0  0  0  0  0  0  0  0
  129.8740  130.1480   58.6580 C   0  0  0  0  0  0  0  0  0  0  0  0
  130.0340  131.1900   57.7420 N   0  0  0  0  0  0  0  0  0  0  0  0
  128.9270  131.5110   56.8200 C   0  0  0  0  0  0  0  0  0  0  0  0
  129.0740  132.8940   56.1500 C   0  0  0  0  0  0  0  0  0  0  0  0
  130.3270  132.9840   55.4890 O   0  0  0  0  0  0  0  0  0  0  0  0
  131.4100  132.8140   56.3920 C   0  0  0  0  0  0  0  0  0  0  0  0
  131.3220  131.4270   57.0630 C   0  0  0  0  0  0  0  0  0  0  0  0
  128.7120  129.3620   58.6280 C   0  0  0  0  0  0  0  0  0  0  0  0
  128.5250  128.3260   59.5370 C   0  0  0  0  0  0  0  0  0  0  0  0
  129.0470  125.5900   61.0620 C   0  0  0  0  0  0  0  0  0  0  0  0
  128.9830  124.9440   59.7760 C   0  0  0  0  0  0  0  0  0  0  0  0
  129.2030  125.6090   58.5970 N   0  0  0  0  0  0  0  0  0  0  0  0
  1  2  1  0
  2  3  1  0
  3  4  2  0
  3  5  1  0
  5  6  1  0
  6  7  1  0
  7  8  2  0
  8  9  1  0
  9 10  1  0
 10 11  2  0
 11 12  1  0
 12 13  2  0
 13 14  1  0
 14 15  1  0
 15 16  1  0
 16 17  1  0
 17 18  1  0
 18 19  1  0
 13 20  1  0
 20 21  2  0
  9 22  2  0
 22 23  1  0
 23 24  1  0
 24 25  2  0
 25 26  1  0
 26 27  2  0
 27 28  1  0
 28 29  1  0
 29 30  1  0
 30 31  1  0
 31 32  1  0
 32 33  1  0
 27 34  1  0
 34 35  2  0
 23 36  2  0
 36 37  1  0
 37 38  1  0
 37  5  2  0
 36  7  1  0
 21 10  1  0
 35 24  1  0
 19 14  1  0
 33 28  1  0
M  END
>  <Binding energies>  (66) 
[-8.28]

>  <Ligand effiencies>  (66) 
[-0.207]

>  <Interactions>  (66) 
["V-B:TYR:539:CE2:9845, V-B:TYR:539:CZ:9846, V-B:TYR:539:CD1:9842, V-B:ALA:541:CB:9861, V-B:TYR:539:CE1:9844, V-B:GLU:543:CD:9877, V-B:GLU:543:CG:9876, V-A:GLU:543:CD:4905, V-A:HIS:456:CE1:4066, V-B:GLU:543:CB:9875, V-A:PRO:540:CB:4882, V-A:TYR:539:C:4864, V-A:PRO:540:CA:4880, H-A:TYR:539:N:4867, V-A:PRO:540:N:4881, V-A:TYR:539:CD1:4870, V-A:ILE:538:CG2:4860, V-A:TYR:539:CZ:4874, V-B:TYR:539:CD2:9843, V-A:TYR:539:CD2:4871, V-A:TYR:539:CE2:4873, V-A:TYR:539:CG:4869, V-B:HIS:456:CD2:9036, V-A:GLU:543:CB:4903, V-A:GLU:543:C:4899, H-A:LYS:547:NZ:4948, V-A:GLY:544:C:4909, V-B:HIS:456:CE1:9038, V-A:TYR:539:CA:4866, V-A:PRO:540:CD:4884, V-A:HIS:456:CD2:4064"]

$$$$
RR10_Rahimova_2017
     RDKit          3D

 34 38  0  0  0  0  0  0  0  0999 V2000
  130.8710  125.9200   64.8600 C   0  0  0  0  0  0  0  0  0  0  0  0
  131.5530  124.8400   64.0020 C   0  0  1  0  0  0  0  0  0  0  0  0
  130.8460  123.4710   64.1280 C   0  0  0  0  0  0  0  0  0  0  0  0
  131.5680  122.3950   63.2860 C   0  0  0  0  0  0  0  0  0  0  0  0
  131.6540  122.7850   61.7880 C   0  0  1  0  0  0  0  0  0  0  0  0
  130.3220  122.7730   61.1700 N   0  0  0  0  0  0  0  0  0  0  0  0
  129.5530  121.6830   60.9940 C   0  0  0  0  0  0  0  0  0  0  0  0
  129.8910  120.5560   61.3640 O   0  0  0  0  0  0  0  0  0  0  0  0
  128.2020  121.8940   60.2800 C   0  0  1  0  0  0  0  0  0  0  0  0
  127.3250  122.8640   61.1140 C   0  0  0  0  0  0  0  0  0  0  0  0
  126.0070  123.1510   60.3560 C   0  0  0  0  0  0  0  0  0  0  0  0
  126.2490  123.6160   58.9010 C   0  0  0  0  0  0  0  0  0  0  0  0
  127.1490  122.6680   58.1900 N   0  0  0  0  0  0  0  0  0  0  0  0
  127.2580  122.9320   56.4410 S   0  0  0  0  0  0  0  0  0  0  0  0
  126.0410  123.6280   56.0080 O   0  0  0  0  0  0  0  0  0  0  0  0
  127.6450  121.6610   55.8170 O   0  0  0  0  0  0  0  0  0  0  0  0
  128.6140  124.0850   56.2280 C   0  0  0  0  0  0  0  0  0  0  0  0
  129.5630  123.8490   55.2280 C   0  0  0  0  0  0  0  0  0  0  0  0
  130.6450  124.7080   55.0120 C   0  0  0  0  0  0  0  0  0  0  0  0
  130.7320  125.8240   55.8480 C   0  0  0  0  0  0  0  0  0  0  0  0
  131.6210  126.8670   55.9540 N   0  0  0  0  0  0  0  0  0  0  0  0
  131.1960  127.6850   56.9800 C   0  0  0  0  0  0  0  0  0  0  0  0
  131.9200  128.9300   57.4040 C   0  0  0  0  0  0  0  0  0  0  0  0
  131.2820  129.8820   58.2120 C   0  0  0  0  0  0  0  0  0  0  0  0
  131.9530  131.0350   58.6090 C   0  0  0  0  0  0  0  0  0  0  0  0
  133.2680  131.2440   58.1990 C   0  0  0  0  0  0  0  0  0  0  0  0
  133.9160  130.3090   57.3970 C   0  0  0  0  0  0  0  0  0  0  0  0
  133.2430  129.1560   57.0010 C   0  0  0  0  0  0  0  0  0  0  0  0
  130.0910  127.2420   57.5370 N   0  0  0  0  0  0  0  0  0  0  0  0
  129.7810  126.0910   56.8610 C   0  0  0  0  0  0  0  0  0  0  0  0
  128.7050  125.2130   57.0530 C   0  0  0  0  0  0  0  0  0  0  0  0
  128.4570  122.4730   58.8660 C   0  0  0  0  0  0  0  0  0  0  0  0
  132.3500  124.1690   61.6780 C   0  0  0  0  0  0  0  0  0  0  0  0
  131.6270  125.2490   62.5120 C   0  0  0  0  0  0  0  0  0  0  0  0
  2  1  1  1
  2  3  1  0
  3  4  1  0
  4  5  1  0
  5  6  1  1
  6  7  1  0
  7  8  2  0
  9  7  1  1
  9 10  1  0
 10 11  1  0
 11 12  1  0
 12 13  1  0
 13 14  1  0
 14 15  2  0
 14 16  2  0
 14 17  1  0
 17 18  2  0
 18 19  1  0
 19 20  2  0
 20 21  1  0
 21 22  1  0
 22 23  1  0
 23 24  2  0
 24 25  1  0
 25 26  2  0
 26 27  1  0
 27 28  2  0
 22 29  2  0
 29 30  1  0
 30 31  2  0
 13 32  1  0
  5 33  1  0
 33 34  1  0
 34  2  1  0
 32  9  1  0
 31 17  1  0
 30 20  1  0
 28 23  1  0
M  END
>  <Binding energies>  (67) 
[-10.18]

>  <Ligand effiencies>  (67) 
[-0.2827777777777778]

>  <Interactions>  (67) 
["V-B:TYR:539:CE2:9845, V-B:PRO:540:CB:9854, V-B:TYR:539:CZ:9846, V-A:LEU:475:CD1:4254, V-B:PRO:540:CA:9852, H-B:TYR:539:N:9839, V-B:PRO:540:C:9850, V-B:TYR:539:C:9836, V-B:ALA:541:CB:9861, V-B:TYR:539:CE1:9844, V-B:MET:535:CE:9804, V-A:ASP:366:CB:3208, V-A:ASP:366:CG:3209, V-A:TYR:531:CE1:4789, H-A:TYR:531:OH:4792, V-A:PRO:540:CB:4882, V-A:PRO:540:CA:4880, V-A:LEU:363:CD1:3185, V-A:TYR:531:CZ:4791, V-B:TYR:539:CD2:9843, V-A:LEU:363:CA:3181, V-A:LEU:363:CB:3183, V-B:ALA:541:CA:9859, V-A:LEU:363:C:3179"]

$$$$
RR12_Rahimova_2017
     RDKit          3D

 26 28  0  0  0  0  0  0  0  0999 V2000
  130.6620  127.6320   56.6280 C   0  0  0  0  0  0  0  0  0  0  0  0
  129.9010  126.3020   56.7150 C   0  0  0  0  0  0  0  0  0  0  0  0
  129.0230  126.2040   57.9760 C   0  0  0  0  0  0  0  0  0  0  0  0
  127.6860  125.7200   57.6400 N   0  0  0  0  0  0  0  0  0  0  0  0
  126.5050  126.4450   57.6250 C   0  0  0  0  0  0  0  0  0  0  0  0
  126.4050  127.9090   58.0180 C   0  0  0  0  0  0  0  0  0  0  0  0
  127.4340  128.7860   57.2810 C   0  0  0  0  0  0  0  0  0  0  0  0
  126.7840  129.7330   56.2550 C   0  0  0  0  0  0  0  0  0  0  0  0
  127.6560  130.8250   55.8230 N   0  0  0  0  0  0  0  0  0  0  0  0
  127.7230  131.3100   54.5700 C   0  0  0  0  0  0  0  0  0  0  0  0
  127.0460  130.8700   53.6380 O   0  0  0  0  0  0  0  0  0  0  0  0
  128.7070  132.4670   54.3580 C   0  0  0  0  0  0  0  0  0  0  0  0
  129.0700  133.0220   55.6240 O   0  0  0  0  0  0  0  0  0  0  0  0
  130.1220  132.4690   56.3290 C   0  0  0  0  0  0  0  0  0  0  0  0
  131.3180  132.3000   55.6270 C   0  0  0  0  0  0  0  0  0  0  0  0
  132.4350  131.7540   56.2540 C   0  0  0  0  0  0  0  0  0  0  0  0
  132.3580  131.3740   57.5910 C   0  0  0  0  0  0  0  0  0  0  0  0
  131.1720  131.5330   58.3050 C   0  0  0  0  0  0  0  0  0  0  0  0
  130.0550  132.0790   57.6760 C   0  0  0  0  0  0  0  0  0  0  0  0
  125.4660  125.7390   57.2540 N   0  0  0  0  0  0  0  0  0  0  0  0
  125.9660  124.4960   56.9820 C   0  0  0  0  0  0  0  0  0  0  0  0
  125.2890  123.3510   56.5330 C   0  0  0  0  0  0  0  0  0  0  0  0
  126.0320  122.1900   56.3200 C   0  0  0  0  0  0  0  0  0  0  0  0
  127.4090  122.1590   56.5450 C   0  0  0  0  0  0  0  0  0  0  0  0
  128.1110  123.2800   56.9930 C   0  0  0  0  0  0  0  0  0  0  0  0
  127.3640  124.4460   57.2080 C   0  0  0  0  0  0  0  0  0  0  0  0
  1  2  1  0
  2  3  1  0
  3  4  1  0
  4  5  1  0
  5  6  1  0
  6  7  1  0
  7  8  1  0
  8  9  1  0
  9 10  1  0
 10 11  2  0
 10 12  1  0
 12 13  1  0
 13 14  1  0
 14 15  2  0
 15 16  1  0
 16 17  2  0
 17 18  1  0
 18 19  2  0
  5 20  2  0
 20 21  1  0
 21 22  2  0
 22 23  1  0
 23 24  2  0
 24 25  1  0
 25 26  2  0
 26  4  1  0
 19 14  1  0
 26 21  1  0
M  END
>  <Binding energies>  (68) 
[-7.04]

>  <Ligand effiencies>  (68) 
[-0.2607407407407407]

>  <Interactions>  (68) 
["V-B:PRO:540:N:9853, V-B:PRO:540:CB:9854, V-B:TYR:539:CZ:9846, V-B:PRO:540:CA:9852, V-B:TYR:539:CD1:9842, V-B:TYR:539:C:9836, V-B:LEU:363:CD1:8157, V-B:ILE:538:CG2:9832, V-B:TYR:539:CE1:9844, V-B:ILE:538:CB:9831, V-B:MET:535:CE:9804, H-B:TYR:531:OH:9764, V-B:PRO:540:CD:9856, H-A:TYR:539:OH:4875, V-A:PRO:540:CB:4882, V-A:TYR:539:CE1:4872, V-A:TYR:539:C:4864, V-A:PRO:540:CA:4880, H-A:TYR:539:N:4867, V-B:TYR:539:CA:9838, V-A:LEU:363:CD1:3185, V-A:PRO:540:N:4881, H-B:LYS:534:NZ:9792, V-A:TYR:539:CD1:4870, V-A:TYR:531:CZ:4791, V-A:ILE:538:CG2:4860, V-A:ILE:538:CA:4857, V-A:ILE:538:CD1:4862, V-A:TYR:531:CE2:4790, V-A:TYR:539:CZ:4874"]

$$$$
RR13_Rahimova_2017
     RDKit          3D

 48 54  0  0  0  0  0  0  0  0999 V2000
  129.4440  131.9360   61.1190 Cl  0  0  0  0  0  0  0  0  0  0  0  0
  130.8890  131.5110   60.2660 C   0  0  0  0  0  0  0  0  0  0  0  0
  132.1110  131.7280   60.9090 C   0  0  0  0  0  0  0  0  0  0  0  0
  133.3090  131.4270   60.2680 C   0  0  0  0  0  0  0  0  0  0  0  0
  133.2950  130.9090   58.9760 C   0  0  0  0  0  0  0  0  0  0  0  0
  132.0800  130.6900   58.3280 C   0  0  0  0  0  0  0  0  0  0  0  0
  130.8600  130.9760   58.9620 C   0  0  0  0  0  0  0  0  0  0  0  0
  129.5290  130.7470   58.2140 C   0  0  1  0  0  0  0  0  0  0  0  0
  129.5100  131.5060   56.8780 C   0  0  0  0  0  0  0  0  0  0  0  0
  130.2480  132.5450   56.5540 N   0  0  0  0  0  0  0  0  0  0  0  0
  129.8630  132.9000   55.2650 N   0  0  0  0  0  0  0  0  0  0  0  0
  128.8580  132.0610   54.8230 N   0  0  0  0  0  0  0  0  0  0  0  0
  128.6410  131.2260   55.8450 N   0  0  0  0  0  0  0  0  0  0  0  0
  127.6560  130.1570   55.7280 C   0  0  0  0  0  0  0  0  0  0  0  0
  126.2450  130.7480   55.5550 C   0  0  0  0  0  0  0  0  0  0  0  0
  125.5430  130.9580   56.8880 C   0  0  0  0  0  0  0  0  0  0  0  0
  126.2740  130.9040   58.0780 C   0  0  0  0  0  0  0  0  0  0  0  0
  125.6300  131.0880   59.2980 C   0  0  0  0  0  0  0  0  0  0  0  0
  124.2570  131.3270   59.3240 C   0  0  0  0  0  0  0  0  0  0  0  0
  123.5230  131.3820   58.1420 C   0  0  0  0  0  0  0  0  0  0  0  0
  124.1660  131.1970   56.9210 C   0  0  0  0  0  0  0  0  0  0  0  0
  129.1790  129.3160   58.0550 N   0  0  0  0  0  0  0  0  0  0  0  0
  129.4290  128.5800   59.3080 C   0  0  0  0  0  0  0  0  0  0  0  0
  128.9430  127.1160   59.1920 C   0  0  0  0  0  0  0  0  0  0  0  0
  129.6650  126.4130   58.1190 N   0  0  0  0  0  0  0  0  0  0  0  0
  129.2880  124.9830   58.0260 C   0  0  1  0  0  0  0  0  0  0  0  0
  129.4250  124.3480   56.6250 C   0  0  0  0  0  0  0  0  0  0  0  0
  128.3620  123.5530   56.1760 C   0  0  0  0  0  0  0  0  0  0  0  0
  128.3910  122.9540   54.9170 C   0  0  0  0  0  0  0  0  0  0  0  0
  129.4930  123.1370   54.0870 C   0  0  0  0  0  0  0  0  0  0  0  0
  130.5670  123.9090   54.5210 C   0  0  0  0  0  0  0  0  0  0  0  0
  130.5490  124.5110   55.7820 C   0  0  0  0  0  0  0  0  0  0  0  0
  131.9610  125.3940   56.2560 Cl  0  0  0  0  0  0  0  0  0  0  0  0
  129.9870  124.1080   59.0700 C   0  0  0  0  0  0  0  0  0  0  0  0
  131.2860  123.9780   59.2090 N   0  0  0  0  0  0  0  0  0  0  0  0
  131.4710  123.1100   60.2800 N   0  0  0  0  0  0  0  0  0  0  0  0
  130.2500  122.7300   60.7970 N   0  0  0  0  0  0  0  0  0  0  0  0
  129.3480  123.3750   60.0480 N   0  0  0  0  0  0  0  0  0  0  0  0
  127.9230  123.1910   60.3000 C   0  0  0  0  0  0  0  0  0  0  0  0
  127.2100  122.7090   59.0230 C   0  0  0  0  0  0  0  0  0  0  0  0
  126.0370  123.6020   58.6490 C   0  0  0  0  0  0  0  0  0  0  0  0
  125.4720  124.4490   59.6060 C   0  0  0  0  0  0  0  0  0  0  0  0
  124.4020  125.2720   59.2610 C   0  0  0  0  0  0  0  0  0  0  0  0
  123.9020  125.2440   57.9610 C   0  0  0  0  0  0  0  0  0  0  0  0
  124.4620  124.4020   57.0020 C   0  0  0  0  0  0  0  0  0  0  0  0
  125.5320  123.5800   57.3450 C   0  0  0  0  0  0  0  0  0  0  0  0
  129.4070  127.1480   56.8680 C   0  0  0  0  0  0  0  0  0  0  0  0
  129.9050  128.6070   56.9860 C   0  0  0  0  0  0  0  0  0  0  0  0
  1  2  1  0
  2  3  2  0
  3  4  1  0
  4  5  2  0
  5  6  1  0
  6  7  2  0
  7  8  1  0
  8  9  1  0
  9 10  2  0
 10 11  1  0
 11 12  2  0
 12 13  1  0
 13 14  1  0
 14 15  1  0
 15 16  1  0
 16 17  2  0
 17 18  1  0
 18 19  2  0
 19 20  1  0
 20 21  2  0
  8 22  1  6
 22 23  1  0
 23 24  1  0
 24 25  1  0
 26 25  1  6
 26 27  1  0
 27 28  2  0
 28 29  1  0
 29 30  2  0
 30 31  1  0
 31 32  2  0
 32 33  1  0
 26 34  1  0
 34 35  2  0
 35 36  1  0
 36 37  2  0
 37 38  1  0
 38 39  1  0
 39 40  1  0
 40 41  1  0
 41 42  2  0
 42 43  1  0
 43 44  2  0
 44 45  1  0
 45 46  2  0
 25 47  1  0
 47 48  1  0
  7  2  1  0
 13  9  1  0
 21 16  1  0
 48 22  1  0
 32 27  1  0
 38 34  1  0
 46 41  1  0
M  END
>  <Binding energies>  (69) 
[-13.26]

>  <Ligand effiencies>  (69) 
[-0.27625]

>  <Interactions>  (69) 
["V-B:TYR:539:CE2:9845, V-B:PRO:540:N:9853, V-B:PRO:540:CB:9854, V-B:TYR:539:CZ:9846, V-B:PRO:540:CA:9852, V-B:TYR:539:CD1:9842, V-B:ILE:538:CA:9829, V-B:TYR:539:C:9836, V-B:LEU:363:CD1:8157, V-B:TYR:539:CE1:9844, V-B:MET:535:CE:9804, V-A:GLU:543:CD:4905, V-A:ASP:366:CB:3208, H-B:TYR:539:OH:9847, V-B:LEU:363:CA:8153, V-A:PRO:540:CB:4882, V-A:PRO:540:CA:4880, H-A:TYR:539:N:4867, V-A:TYR:539:CZ:4874, V-B:ASP:366:CB:8180, V-B:TYR:531:CZ:9763, V-B:TYR:531:CE2:9762, V-A:LEU:363:CA:3181, V-A:TYR:539:CE2:4873, V-B:TYR:531:CE1:9761, V-A:ASN:362:CB:3172, V-A:PRO:540:C:4878, V-B:ASP:366:CG:8181, V-B:ILE:369:CG2:8205, V-A:ASN:362:C:3168, V-A:ALA:541:CB:4889, V-B:ASP:366:CA:8178, V-B:ILE:369:CB:8204, V-B:ASP:366:C:8176"]

$$$$
RR14_Rahimova_2017
     RDKit          3D

 39 43  0  0  0  0  0  0  0  0999 V2000
  129.6230  127.6190   70.2830 C   0  0  0  0  0  0  0  0  0  0  0  0
  128.7530  126.8140   69.4960 O   0  0  0  0  0  0  0  0  0  0  0  0
  129.0900  126.5420   68.1840 C   0  0  0  0  0  0  0  0  0  0  0  0
  129.4610  125.2290   67.8950 C   0  0  0  0  0  0  0  0  0  0  0  0
  129.8410  124.8670   66.6070 C   0  0  0  0  0  0  0  0  0  0  0  0
  129.8590  125.8240   65.5890 C   0  0  0  0  0  0  0  0  0  0  0  0
  130.3370  125.4460   64.1920 C   0  0  0  0  0  0  0  0  0  0  0  0
  131.7350  125.0200   64.1550 N   0  0  0  0  0  0  0  0  0  0  0  0
  132.6670  125.6970   64.8350 N   0  0  0  0  0  0  0  0  0  0  0  0
  133.8520  125.0460   64.5520 N   0  0  0  0  0  0  0  0  0  0  0  0
  133.6160  123.9790   63.6900 N   0  0  0  0  0  0  0  0  0  0  0  0
  132.3250  123.9870   63.4580 C   0  0  0  0  0  0  0  0  0  0  0  0
  131.5920  123.0140   62.5450 C   0  0  0  0  0  0  0  0  0  0  0  0
  130.7190  123.6990   61.5770 N   0  0  0  0  0  0  0  0  0  0  0  0
  131.4290  124.7610   60.8530 C   0  0  0  0  0  0  0  0  0  0  0  0
  131.3940  124.5860   59.3190 C   0  0  0  0  0  0  0  0  0  0  0  0
  131.0320  125.8770   58.5560 C   0  0  0  0  0  0  0  0  0  0  0  0
  131.1160  125.7330   57.0990 N   0  0  0  0  0  0  0  0  0  0  0  0
  130.2610  124.6290   56.6450 C   0  0  0  0  0  0  0  0  0  0  0  0
  130.3660  124.4160   55.1200 C   0  0  0  0  0  0  0  0  0  0  0  0
  131.7270  124.2350   54.7440 O   0  0  0  0  0  0  0  0  0  0  0  0
  132.5340  125.3570   55.0830 C   0  0  0  0  0  0  0  0  0  0  0  0
  132.4960  125.5960   56.6080 C   0  0  0  0  0  0  0  0  0  0  0  0
  130.1480  122.7260   60.6350 C   0  0  0  0  0  0  0  0  0  0  0  0
  128.7010  122.9710   60.2130 C   0  0  0  0  0  0  0  0  0  0  0  0
  128.3240  122.8700   58.9140 C   0  0  0  0  0  0  0  0  0  0  0  0
  126.9400  123.1400   58.4740 C   0  0  0  0  0  0  0  0  0  0  0  0
  126.5110  123.0260   57.1410 C   0  0  0  0  0  0  0  0  0  0  0  0
  127.4630  122.6040   56.0290 C   0  0  0  0  0  0  0  0  0  0  0  0
  125.1770  123.3030   56.8300 C   0  0  0  0  0  0  0  0  0  0  0  0
  124.2800  123.6880   57.8250 C   0  0  0  0  0  0  0  0  0  0  0  0
  124.6960  123.8030   59.1540 C   0  0  0  0  0  0  0  0  0  0  0  0
  123.6910  124.2230   60.2180 C   0  0  0  0  0  0  0  0  0  0  0  0
  126.0340  123.5270   59.4780 C   0  0  0  0  0  0  0  0  0  0  0  0
  126.5000  123.6320   60.8050 N   0  0  0  0  0  0  0  0  0  0  0  0
  127.7580  123.3940   61.2540 C   0  0  0  0  0  0  0  0  0  0  0  0
  128.0340  123.5400   62.4450 O   0  0  0  0  0  0  0  0  0  0  0  0
  129.4610  127.1340   65.8610 C   0  0  0  0  0  0  0  0  0  0  0  0
  129.0820  127.4950   67.1510 C   0  0  0  0  0  0  0  0  0  0  0  0
  1  2  1  0
  2  3  1  0
  3  4  2  0
  4  5  1  0
  5  6  2  0
  6  7  1  0
  7  8  1  0
  8  9  1  0
  9 10  2  0
 10 11  1  0
 11 12  2  0
 12 13  1  0
 13 14  1  0
 14 15  1  0
 15 16  1  0
 16 17  1  0
 17 18  1  0
 18 19  1  0
 19 20  1  0
 20 21  1  0
 21 22  1  0
 22 23  1  0
 14 24  1  0
 24 25  1  0
 25 26  2  0
 26 27  1  0
 27 28  2  0
 28 29  1  0
 28 30  1  0
 30 31  2  0
 31 32  1  0
 32 33  1  0
 32 34  2  0
 34 35  1  0
 35 36  1  0
 36 37  2  0
  6 38  1  0
 38 39  2  0
 39  3  1  0
 12  8  1  0
 23 18  1  0
 36 25  1  0
 34 27  1  0
M  END
>  <Binding energies>  (70) 
[-11.08]

>  <Ligand effiencies>  (70) 
[-0.277]

>  <Interactions>  (70) 
["V-B:TYR:539:CE2:9845, V-B:PRO:540:N:9853, V-B:PRO:540:CB:9854, V-B:TYR:539:CZ:9846, V-A:TYR:484:CZ:4343, V-B:PRO:540:CA:9852, V-B:TYR:539:CD1:9842, V-B:LEU:363:CD1:8157, V-B:ALA:541:CB:9861, V-B:TYR:539:CE1:9844, V-B:GLU:543:CD:9877, V-A:TYR:484:CE1:4341, V-B:ILE:538:CB:9831, V-B:GLU:543:CG:9876, H-B:GLU:543:OE2:9879, V-B:MET:535:CE:9804, V-A:GLU:543:CD:4905, V-A:ASP:366:CB:3208, V-A:HIS:456:CE1:4066, H-A:ARG:545:NH2:4925, H-A:ARG:545:NH1:4924, H-B:TYR:539:OH:9847, H-A:ARG:545:NE:4921, V-A:ASP:366:CG:3209, V-B:GLU:543:CB:9875, H-A:GLY:454:N:4046, H-A:TYR:484:OH:4344, V-A:TYR:531:CE1:4789, V-A:ASP:366:C:3204, V-A:ASN:370:CG:3242, V-A:ASN:370:CB:3241, V-B:LEU:363:CA:8153, V-B:TYR:539:CD2:9843, V-B:ASN:362:CB:8144, V-B:ASN:362:C:8140, V-B:HIS:456:CD2:9036, V-B:GLU:543:C:9871, V-A:ASP:366:CA:3206, V-B:GLU:543:CA:9873"]

$$$$
RR15_Rahimova_2017
     RDKit          3D

 45 49  0  0  0  0  0  0  0  0999 V2000
  131.0230  122.3860   64.4370 C   0  0  0  0  0  0  0  0  0  0  0  0
  131.9130  122.2910   63.3300 O   0  0  0  0  0  0  0  0  0  0  0  0
  131.7040  123.0890   62.2180 C   0  0  0  0  0  0  0  0  0  0  0  0
  130.6690  122.8800   61.2940 C   0  0  0  0  0  0  0  0  0  0  0  0
  130.5160  123.7200   60.1940 C   0  0  0  0  0  0  0  0  0  0  0  0
  131.3920  124.7900   59.9830 C   0  0  0  0  0  0  0  0  0  0  0  0
  131.2310  125.6930   58.7910 C   0  0  0  0  0  0  0  0  0  0  0  0
  131.8550  125.4860   57.6400 N   0  0  0  0  0  0  0  0  0  0  0  0
  131.4690  126.5140   56.8050 N   0  0  0  0  0  0  0  0  0  0  0  0
  130.6090  127.2140   57.5470 N   0  0  0  0  0  0  0  0  0  0  0  0
  130.0710  128.4990   57.1020 C   0  0  0  0  0  0  0  0  0  0  0  0
  129.0260  128.4060   55.9620 C   0  0  0  0  0  0  0  0  0  0  0  0
  129.4130  128.0530   54.8460 O   0  0  0  0  0  0  0  0  0  0  0  0
  127.7120  128.6840   56.2240 N   0  0  0  0  0  0  0  0  0  0  0  0
  126.9340  127.8780   57.1850 C   0  0  0  0  0  0  0  0  0  0  0  0
  127.6710  126.6100   57.6670 C   0  0  0  0  0  0  0  0  0  0  0  0
  126.7500  125.4150   58.0120 C   0  0  0  0  0  0  0  0  0  0  0  0
  126.7310  124.3690   56.9860 N   0  0  0  0  0  0  0  0  0  0  0  0
  128.0270  123.6950   56.8100 C   0  0  0  0  0  0  0  0  0  0  0  0
  127.9310  122.5470   55.7820 C   0  0  0  0  0  0  0  0  0  0  0  0
  126.8980  121.6400   56.1530 O   0  0  0  0  0  0  0  0  0  0  0  0
  125.6230  122.2690   56.2230 C   0  0  0  0  0  0  0  0  0  0  0  0
  125.6550  123.4080   57.2660 C   0  0  0  0  0  0  0  0  0  0  0  0
  127.0170  129.9110   55.7280 C   0  0  2  0  0  0  0  0  0  0  0  0
  127.9380  130.8850   54.9280 C   0  0  0  0  0  0  0  0  0  0  0  0
  127.7310  131.1210   53.7380 O   0  0  0  0  0  0  0  0  0  0  0  0
  128.9240  131.4650   55.6350 N   0  0  0  0  0  0  0  0  0  0  0  0
  129.8390  132.4810   55.1290 C   0  0  0  0  0  0  0  0  0  0  0  0
  130.9170  132.8290   56.1730 C   0  0  2  0  0  0  0  0  0  0  0  0
  132.2680  132.1130   55.9900 C   0  0  0  0  0  0  0  0  0  0  0  0
  132.2460  130.9980   57.0080 C   0  0  0  0  0  0  0  0  0  0  0  0
  131.4490  131.6360   58.1330 C   0  0  0  0  0  0  0  0  0  0  0  0
  130.4300  132.3370   57.4290 O   0  0  0  0  0  0  0  0  0  0  0  0
  126.1400  130.5120   56.8200 C   0  0  0  0  0  0  0  0  0  0  0  0
  124.7660  130.6240   56.5770 C   0  0  0  0  0  0  0  0  0  0  0  0
  123.9180  131.1660   57.5380 C   0  0  0  0  0  0  0  0  0  0  0  0
  124.4380  131.5980   58.7540 C   0  0  0  0  0  0  0  0  0  0  0  0
  123.6140  132.1230   59.6890 F   0  0  0  0  0  0  0  0  0  0  0  0
  125.8020  131.4930   59.0150 C   0  0  0  0  0  0  0  0  0  0  0  0
  126.6500  130.9530   58.0530 C   0  0  0  0  0  0  0  0  0  0  0  0
  130.4610  126.7650   58.7980 N   0  0  0  0  0  0  0  0  0  0  0  0
  132.4230  124.9980   60.9090 C   0  0  0  0  0  0  0  0  0  0  0  0
  132.5880  124.1620   62.0250 C   0  0  0  0  0  0  0  0  0  0  0  0
  133.5880  124.3280   62.9680 O   0  0  0  0  0  0  0  0  0  0  0  0
  133.3060  125.0270   64.1760 C   0  0  0  0  0  0  0  0  0  0  0  0
  1  2  1  0
  2  3  1  0
  3  4  2  0
  4  5  1  0
  5  6  2  0
  6  7  1  0
  7  8  1  0
  8  9  2  0
  9 10  1  0
 10 11  1  0
 11 12  1  0
 12 13  2  0
 12 14  1  0
 14 15  1  0
 15 16  1  0
 16 17  1  0
 17 18  1  0
 18 19  1  0
 19 20  1  0
 20 21  1  0
 21 22  1  0
 22 23  1  0
 24 14  1  1
 24 25  1  0
 25 26  2  0
 25 27  1  0
 27 28  1  0
 29 28  1  6
 29 30  1  0
 30 31  1  0
 31 32  1  0
 32 33  1  0
 24 34  1  0
 34 35  2  0
 35 36  1  0
 36 37  2  0
 37 38  1  0
 37 39  1  0
 39 40  2  0
 10 41  1  0
  6 42  1  0
 42 43  2  0
 43 44  1  0
 44 45  1  0
 43  3  1  0
 41  7  2  0
 23 18  1  0
 33 29  1  0
 40 34  1  0
M  END
>  <Binding energies>  (71) 
[-9.68]

>  <Ligand effiencies>  (71) 
[-0.21043478260869564]

>  <Interactions>  (71) 
["V-B:TYR:539:CE2:9845, V-B:PRO:540:N:9853, V-B:PRO:540:CB:9854, V-B:TYR:539:CZ:9846, V-A:TYR:484:CZ:4343, V-A:LEU:475:CD1:4254, V-B:PRO:540:CA:9852, H-B:TYR:539:N:9839, V-B:TYR:539:CD1:9842, V-B:ILE:538:CA:9829, V-B:LEU:363:CD1:8157, V-B:ILE:538:CG2:9832, V-B:TYR:539:CE1:9844, V-A:TYR:484:CE1:4341, V-B:ILE:538:CB:9831, V-A:LEU:475:CD2:4255, V-B:MET:535:CE:9804, V-A:ARG:545:CZ:4923, V-A:ASP:366:CB:3208, H-B:TYR:539:OH:9847, V-A:ASP:366:CG:3209, H-A:GLY:454:N:4046, H-A:TYR:531:OH:4792, V-B:PRO:540:CD:9856, V-A:PRO:540:CB:4882, V-A:TYR:539:C:4864, V-A:PRO:540:CA:4880, V-A:LEU:363:CD1:3185, V-A:PRO:540:N:4881, H-B:LYS:534:NZ:9792, V-A:ILE:538:CG2:4860, V-A:ILE:538:CA:4857, V-A:ILE:538:CD1:4862, V-A:TYR:531:CE2:4790, V-A:TYR:539:CZ:4874, V-B:ASP:366:CB:8180, V-B:TYR:531:CZ:9763, V-A:TYR:539:CE2:4873, V-B:TYR:531:CE1:9761, V-B:ASP:366:CG:8181, V-B:ILE:369:CG2:8205, V-B:ILE:369:CD1:8207, V-B:ASP:366:CA:8178, V-B:ILE:369:CB:8204, V-A:TYR:539:CA:4866, V-A:PRO:540:CD:4884, V-B:PRO:540:CG:9855, V-A:LEU:475:CG:4253, V-B:ASP:366:C:8176, V-B:ILE:369:CG1:8206"]

$$$$
RR17_Rahimova_2017
     RDKit          3D

 38 41  0  0  0  0  0  0  0  0999 V2000
  126.9700  128.5720   74.2890 C   0  0  0  0  0  0  0  0  0  0  0  0
  128.3440  129.1250   73.9000 C   0  0  0  0  0  0  0  0  0  0  0  0
  129.1810  128.0400   73.5090 O   0  0  0  0  0  0  0  0  0  0  0  0
  129.0580  127.5140   72.2360 C   0  0  0  0  0  0  0  0  0  0  0  0
  129.9500  127.9900   71.2770 C   0  0  0  0  0  0  0  0  0  0  0  0
  129.9020  127.5210   69.9690 C   0  0  0  0  0  0  0  0  0  0  0  0
  128.9530  126.5600   69.5900 C   0  0  0  0  0  0  0  0  0  0  0  0
  128.9260  126.0720   68.1710 C   0  0  0  0  0  0  0  0  0  0  0  0
  129.5970  125.1080   67.7900 O   0  0  0  0  0  0  0  0  0  0  0  0
  128.0220  126.8410   67.1810 C   0  0  0  0  0  0  0  0  0  0  0  0
  128.9330  128.1590   66.2990 S   0  0  0  0  0  0  0  0  0  0  0  0
  128.1660  128.0460   64.7070 C   0  0  0  0  0  0  0  0  0  0  0  0
  127.0600  128.6570   64.3510 N   0  0  0  0  0  0  0  0  0  0  0  0
  126.7950  128.3210   63.0290 N   0  0  0  0  0  0  0  0  0  0  0  0
  127.7530  127.5210   62.6350 C   0  0  0  0  0  0  0  0  0  0  0  0
  127.8590  126.9210   61.2410 C   0  0  0  0  0  0  0  0  0  0  0  0
  126.5760  126.5070   60.6770 N   0  0  0  0  0  0  0  0  0  0  0  0
  126.4460  125.5840   59.6240 C   0  0  0  0  0  0  0  0  0  0  0  0
  127.1240  124.3710   59.7470 C   0  0  0  0  0  0  0  0  0  0  0  0
  127.0440  123.4150   58.7390 C   0  0  0  0  0  0  0  0  0  0  0  0
  126.2790  123.6600   57.5950 C   0  0  0  0  0  0  0  0  0  0  0  0
  126.2060  122.6020   56.4950 C   0  0  0  0  0  0  0  0  0  0  0  0
  126.4010  123.1210   55.2800 F   0  0  0  0  0  0  0  0  0  0  0  0
  127.1300  121.6600   56.6930 F   0  0  0  0  0  0  0  0  0  0  0  0
  125.0020  122.0300   56.5170 F   0  0  0  0  0  0  0  0  0  0  0  0
  125.5910  124.8720   57.4740 C   0  0  0  0  0  0  0  0  0  0  0  0
  125.6710  125.8270   58.4830 C   0  0  0  0  0  0  0  0  0  0  0  0
  128.6520  127.2950   63.6570 N   0  0  0  0  0  0  0  0  0  0  0  0
  129.8130  126.5070   63.6220 C   0  0  0  0  0  0  0  0  0  0  0  0
  130.0760  125.6250   64.6700 C   0  0  0  0  0  0  0  0  0  0  0  0
  131.2300  124.8460   64.6370 C   0  0  0  0  0  0  0  0  0  0  0  0
  132.1220  124.9480   63.5580 C   0  0  0  0  0  0  0  0  0  0  0  0
  133.2880  124.2170   63.4410 O   0  0  0  0  0  0  0  0  0  0  0  0
  133.7350  123.8240   62.1470 C   0  0  0  0  0  0  0  0  0  0  0  0
  131.8430  125.8390   62.5190 C   0  0  0  0  0  0  0  0  0  0  0  0
  130.6910  126.6200   62.5450 C   0  0  0  0  0  0  0  0  0  0  0  0
  128.0560  126.0810   70.5560 C   0  0  0  0  0  0  0  0  0  0  0  0
  128.1070  126.5510   71.8660 C   0  0  0  0  0  0  0  0  0  0  0  0
  1  2  1  0
  2  3  1  0
  3  4  1  0
  4  5  2  0
  5  6  1  0
  6  7  2  0
  7  8  1  0
  8  9  2  0
  8 10  1  0
 10 11  1  0
 11 12  1  0
 12 13  2  0
 13 14  1  0
 14 15  2  0
 15 16  1  0
 16 17  1  0
 17 18  1  0
 18 19  2  0
 19 20  1  0
 20 21  2  0
 21 22  1  0
 22 23  1  0
 22 24  1  0
 22 25  1  0
 21 26  1  0
 26 27  2  0
 15 28  1  0
 28 29  1  0
 29 30  2  0
 30 31  1  0
 31 32  2  0
 32 33  1  0
 33 34  1  0
 32 35  1  0
 35 36  2  0
  7 37  1  0
 37 38  2  0
 38  4  1  0
 28 12  1  0
 36 29  1  0
 27 18  1  0
M  END
>  <Binding energies>  (72) 
[-8.6]

>  <Ligand effiencies>  (72) 
[-0.2205128205128205]

>  <Interactions>  (72) 
["V-B:PRO:540:N:9853, V-B:PRO:540:CB:9854, V-B:PRO:540:CA:9852, V-B:TYR:539:CD1:9842, V-B:ILE:538:CA:9829, V-B:ILE:538:C:9827, V-B:TYR:539:C:9836, V-B:LEU:363:CD1:8157, V-B:ILE:538:CG2:9832, V-B:TYR:539:CE1:9844, V-B:GLU:543:CD:9877, V-B:ILE:538:CB:9831, V-B:GLU:543:CG:9876, H-B:GLU:543:OE2:9879, V-B:MET:535:CE:9804, V-A:ARG:545:CZ:4923, V-A:GLY:454:CA:4045, V-A:GLU:543:CD:4905, V-A:HIS:456:CE1:4066, V-A:ASP:366:CG:3209, V-B:GLU:543:CB:9875, H-A:GLY:454:N:4046, H-A:TYR:484:OH:4344, V-B:PRO:540:CD:9856, V-B:TYR:539:CA:9838, V-B:TYR:539:CG:9841, H-B:ASP:366:OD1:8182, V-A:LYS:547:CE:4947, V-B:HIS:456:CD2:9036, H-A:LYS:547:NZ:4948, V-B:LYS:547:CE:9919, V-B:HIS:456:CB:9033, V-B:HIS:456:CE1:9038, V-B:GLY:544:C:9881, V-B:GLU:543:C:9871, V-B:PRO:540:CG:9855, H-B:ARG:545:NH2:9897"]

$$$$
RR19_Rahimova_2017
     RDKit          3D

 46 51  0  0  0  0  0  0  0  0999 V2000
  127.7090  129.0490   64.6900 O   0  0  0  0  0  0  0  0  0  0  0  0
  128.0320  127.9000   64.3730 C   0  0  0  0  0  0  0  0  0  0  0  0
  127.7380  127.2850   63.2000 N   0  0  0  0  0  0  0  0  0  0  0  0
  127.2430  127.7410   62.0030 C   0  0  0  0  0  0  0  0  0  0  0  0
  127.0680  129.3660   61.5630 S   0  0  0  0  0  0  0  0  0  0  0  0
  126.9140  126.6600   61.2230 N   0  0  0  0  0  0  0  0  0  0  0  0
  126.5270  126.5380   59.9280 C   0  0  0  0  0  0  0  0  0  0  0  0
  126.5560  127.4220   59.0690 O   0  0  0  0  0  0  0  0  0  0  0  0
  125.9850  125.1320   59.5640 C   0  0  2  0  0  0  0  0  0  0  0  0
  125.9770  124.1120   60.7390 C   0  0  0  0  0  0  0  0  0  0  0  0
  127.2600  123.3160   60.9140 C   0  0  0  0  0  0  0  0  0  0  0  0
  127.5900  122.2690   60.0260 C   0  0  0  0  0  0  0  0  0  0  0  0
  128.8030  121.6060   60.1540 C   0  0  0  0  0  0  0  0  0  0  0  0
  129.7050  121.9800   61.1420 C   0  0  0  0  0  0  0  0  0  0  0  0
  129.4070  123.0280   62.0040 C   0  0  0  0  0  0  0  0  0  0  0  0
  128.2010  123.7050   61.8920 C   0  0  0  0  0  0  0  0  0  0  0  0
  126.6730  124.5810   58.3650 N   0  0  0  0  0  0  0  0  0  0  0  0
  126.0080  123.8150   57.4550 C   0  0  0  0  0  0  0  0  0  0  0  0
  124.8280  123.4620   57.4960 O   0  0  0  0  0  0  0  0  0  0  0  0
  127.0020  123.4990   56.4000 C   0  0  0  0  0  0  0  0  0  0  0  0
  126.8870  122.7480   55.2300 C   0  0  0  0  0  0  0  0  0  0  0  0
  128.0070  122.6220   54.4010 C   0  0  0  0  0  0  0  0  0  0  0  0
  129.2150  123.2420   54.7480 C   0  0  0  0  0  0  0  0  0  0  0  0
  129.3100  123.9920   55.9260 C   0  0  0  0  0  0  0  0  0  0  0  0
  128.1820  124.1040   56.7390 C   0  0  0  0  0  0  0  0  0  0  0  0
  127.9730  124.8250   58.0190 C   0  0  0  0  0  0  0  0  0  0  0  0
  128.7970  125.5050   58.6320 O   0  0  0  0  0  0  0  0  0  0  0  0
  128.8370  127.0280   65.3730 C   0  0  2  0  0  0  0  0  0  0  0  0
  129.4860  127.8350   66.5340 C   0  0  0  0  0  0  0  0  0  0  0  0
  129.1360  127.3150   67.9160 C   0  0  0  0  0  0  0  0  0  0  0  0
  129.8830  127.7310   69.0400 C   0  0  0  0  0  0  0  0  0  0  0  0
  129.4980  127.3360   70.3150 C   0  0  0  0  0  0  0  0  0  0  0  0
  128.3640  126.5540   70.4930 C   0  0  0  0  0  0  0  0  0  0  0  0
  127.5970  126.1700   69.4000 C   0  0  0  0  0  0  0  0  0  0  0  0
  127.9650  126.5540   68.1170 C   0  0  0  0  0  0  0  0  0  0  0  0
  129.8280  126.1320   64.7100 N   0  0  0  0  0  0  0  0  0  0  0  0
  130.5230  126.5240   63.6060 C   0  0  0  0  0  0  0  0  0  0  0  0
  130.4340  127.5980   63.0110 O   0  0  0  0  0  0  0  0  0  0  0  0
  131.4090  125.3810   63.2720 C   0  0  0  0  0  0  0  0  0  0  0  0
  132.3350  125.2120   62.2420 C   0  0  0  0  0  0  0  0  0  0  0  0
  133.0450  124.0080   62.1700 C   0  0  0  0  0  0  0  0  0  0  0  0
  132.8260  123.0010   63.1200 C   0  0  0  0  0  0  0  0  0  0  0  0
  131.8950  123.1910   64.1470 C   0  0  0  0  0  0  0  0  0  0  0  0
  131.1950  124.3980   64.1990 C   0  0  0  0  0  0  0  0  0  0  0  0
  130.1670  124.8840   65.1510 C   0  0  0  0  0  0  0  0  0  0  0  0
  129.7160  124.2890   66.1300 O   0  0  0  0  0  0  0  0  0  0  0  0
  1  2  2  0
  2  3  1  0
  3  4  1  0
  4  5  2  0
  4  6  1  0
  6  7  1  0
  7  8  2  0
  7  9  1  0
  9 10  1  1
 10 11  1  0
 11 12  2  0
 12 13  1  0
 13 14  2  0
 14 15  1  0
 15 16  2  0
  9 17  1  0
 17 18  1  0
 18 19  2  0
 18 20  1  0
 20 21  2  0
 21 22  1  0
 22 23  2  0
 23 24  1  0
 24 25  2  0
 25 26  1  0
 26 27  2  0
  2 28  1  0
 28 29  1  1
 29 30  1  0
 30 31  2  0
 31 32  1  0
 32 33  2  0
 33 34  1  0
 34 35  2  0
 28 36  1  0
 36 37  1  0
 37 38  2  0
 37 39  1  0
 39 40  2  0
 40 41  1  0
 41 42  2  0
 42 43  1  0
 43 44  2  0
 44 45  1  0
 45 46  2  0
 16 11  1  0
 26 17  1  0
 35 30  1  0
 45 36  1  0
 25 20  1  0
 44 39  1  0
M  END
>  <Binding energies>  (73) 
[-11.19]

>  <Ligand effiencies>  (73) 
[-0.233125]

>  <Interactions>  (73) 
["V-B:TYR:539:CE2:9845, V-B:PRO:540:N:9853, V-B:TYR:539:CZ:9846, V-A:LEU:475:CD1:4254, V-B:PRO:540:CA:9852, V-B:TYR:539:CD1:9842, V-B:ILE:538:CA:9829, V-B:PRO:540:C:9850, V-B:TYR:539:C:9836, V-B:ALA:541:CB:9861, V-B:ILE:538:CG2:9832, V-B:TYR:539:CE1:9844, V-B:GLU:543:CD:9877, V-B:ILE:538:CB:9831, V-B:GLU:543:CG:9876, H-B:GLU:543:OE2:9879, V-B:MET:535:CE:9804, V-A:ARG:545:CZ:4923, V-A:GLY:454:CA:4045, V-A:GLU:543:CD:4905, V-A:HIS:456:CE1:4066, H-A:ARG:545:NH2:4925, V-A:ASP:366:CG:3209, V-A:GLU:543:CG:4904, V-B:GLU:543:CB:9875, H-A:TYR:484:OH:4344, V-B:TYR:539:CD2:9843, H-B:GLU:543:OE1:9878, V-B:HIS:456:CD2:9036, V-A:GLU:543:CB:4903, V-B:HIS:456:CE1:9038, V-B:GLY:544:C:9881, V-B:GLU:543:C:9871"]

$$$$
RR1_Rahimova_2017
     RDKit          3D

 41 44  0  0  0  0  0  0  0  0999 V2000
  127.8000  122.4120   54.5830 C   0  0  0  0  0  0  0  0  0  0  0  0
  127.4100  122.0000   55.8880 O   0  0  0  0  0  0  0  0  0  0  0  0
  128.0360  122.5570   56.9860 C   0  0  0  0  0  0  0  0  0  0  0  0
  127.9470  122.0470   58.2910 C   0  0  0  0  0  0  0  0  0  0  0  0
  128.6080  122.6820   59.3390 C   0  0  0  0  0  0  0  0  0  0  0  0
  129.3710  123.8270   59.1030 C   0  0  0  0  0  0  0  0  0  0  0  0
  129.9630  124.4220   60.2330 N   0  0  0  0  0  0  0  0  0  0  0  0
  130.8580  125.4310   60.2990 C   0  0  0  0  0  0  0  0  0  0  0  0
  131.3760  125.9730   59.3230 O   0  0  0  0  0  0  0  0  0  0  0  0
  131.2130  125.8790   61.7260 C   0  0  0  0  0  0  0  0  0  0  0  0
  129.9630  125.4940   63.0020 S   0  0  0  0  0  0  0  0  0  0  0  0
  128.5350  125.9800   62.0940 C   0  0  0  0  0  0  0  0  0  0  0  0
  127.8380  125.1760   61.3310 N   0  0  0  0  0  0  0  0  0  0  0  0
  126.8620  125.9470   60.8620 C   0  0  0  0  0  0  0  0  0  0  0  0
  125.7990  125.4250   59.9390 C   0  0  0  0  0  0  0  0  0  0  0  0
  124.9050  124.4190   60.3420 C   0  0  0  0  0  0  0  0  0  0  0  0
  123.9280  123.9520   59.4610 C   0  0  0  0  0  0  0  0  0  0  0  0
  123.8660  124.5060   58.1840 C   0  0  0  0  0  0  0  0  0  0  0  0
  124.7130  125.4790   57.7610 N   0  0  0  0  0  0  0  0  0  0  0  0
  125.6550  125.9200   58.6330 C   0  0  0  0  0  0  0  0  0  0  0  0
  126.8900  127.2030   61.2680 N   0  0  0  0  0  0  0  0  0  0  0  0
  127.9660  127.2270   62.0590 N   0  0  0  0  0  0  0  0  0  0  0  0
  128.3530  128.4580   62.7500 C   0  0  0  0  0  0  0  0  0  0  0  0
  127.9810  128.5100   64.2420 C   0  0  0  0  0  0  0  0  0  0  0  0
  126.8450  128.8400   64.6000 O   0  0  0  0  0  0  0  0  0  0  0  0
  128.9760  128.1770   65.0870 N   0  0  0  0  0  0  0  0  0  0  0  0
  128.6750  128.0590   66.4370 N   0  0  0  0  0  0  0  0  0  0  0  0
  129.5190  127.3430   67.2110 C   0  0  0  0  0  0  0  0  0  0  0  0
  130.5930  126.8750   66.8150 O   0  0  0  0  0  0  0  0  0  0  0  0
  129.0880  127.1540   68.6510 C   0  0  0  0  0  0  0  0  0  0  0  0
  128.0120  126.3130   68.9530 C   0  0  0  0  0  0  0  0  0  0  0  0
  127.5920  126.1340   70.2670 C   0  0  0  0  0  0  0  0  0  0  0  0
  128.2340  126.8010   71.3230 C   0  0  0  0  0  0  0  0  0  0  0  0
  127.8570  126.6780   72.6490 O   0  0  0  0  0  0  0  0  0  0  0  0
  126.8910  127.5720   73.1890 C   0  0  0  0  0  0  0  0  0  0  0  0
  129.3090  127.6530   71.0400 C   0  0  0  0  0  0  0  0  0  0  0  0
  129.8950  128.3020   72.1150 O   0  0  0  0  0  0  0  0  0  0  0  0
  129.5300  129.6460   72.4090 C   0  0  0  0  0  0  0  0  0  0  0  0
  129.7290  127.8200   69.7090 C   0  0  0  0  0  0  0  0  0  0  0  0
  129.4630  124.3390   57.8000 C   0  0  0  0  0  0  0  0  0  0  0  0
  128.8010  123.7010   56.7550 C   0  0  0  0  0  0  0  0  0  0  0  0
  1  2  1  0
  2  3  1  0
  3  4  2  0
  4  5  1  0
  5  6  2  0
  6  7  1  0
  7  8  1  0
  8  9  2  0
  8 10  1  0
 10 11  1  0
 11 12  1  0
 12 13  2  0
 13 14  1  0
 14 15  1  0
 15 16  2  0
 16 17  1  0
 17 18  2  0
 18 19  1  0
 19 20  2  0
 14 21  2  0
 21 22  1  0
 22 23  1  0
 23 24  1  0
 24 25  2  0
 24 26  1  0
 26 27  1  0
 27 28  1  0
 28 29  2  0
 28 30  1  0
 30 31  2  0
 31 32  1  0
 32 33  2  0
 33 34  1  0
 34 35  1  0
 33 36  1  0
 36 37  1  0
 37 38  1  0
 36 39  2  0
  6 40  1  0
 40 41  2  0
 41  3  1  0
 22 12  1  0
 39 30  1  0
 20 15  1  0
M  END
>  <Binding energies>  (74) 
[-8.49]

>  <Ligand effiencies>  (74) 
[-0.19295454545454546]

>  <Interactions>  (74) 
["V-B:TYR:539:CE2:9845, V-B:PRO:540:N:9853, V-B:PRO:540:CB:9854, V-B:TYR:539:CZ:9846, V-B:PRO:540:CA:9852, H-B:TYR:539:N:9839, V-B:TYR:539:CD1:9842, V-B:ILE:538:CA:9829, V-B:ILE:538:C:9827, V-B:TYR:539:C:9836, V-B:LEU:363:CD1:8157, V-B:ILE:538:CG2:9832, V-B:TYR:539:CE1:9844, V-B:GLU:543:CD:9877, V-B:ILE:538:CB:9831, V-B:MET:535:CE:9804, V-A:GLU:543:CD:4905, V-A:ASP:366:CG:3209, V-A:GLU:543:CG:4904, V-B:GLU:543:CB:9875, V-B:LEU:363:CA:8153, H-B:TYR:531:OH:9764, V-B:TYR:539:CG:9841, V-B:TYR:539:CD2:9843, V-B:ASN:362:C:8140, H-B:GLU:543:OE1:9878, V-A:LYS:547:CE:4947, V-B:HIS:456:CD2:9036, V-B:GLY:544:CA:9883, H-A:GLU:543:OE1:4906, V-A:GLU:543:CB:4903, H-A:LYS:547:NZ:4948, V-B:LYS:547:CE:9919, V-B:HIS:456:CB:9033, V-B:HIS:456:CE1:9038, V-B:GLY:544:C:9881, H-A:GLU:543:OE2:4907, V-B:GLU:543:C:9871, H-B:ARG:545:NH2:9897, H-B:HIS:456:NE2:9039, V-B:HIS:456:CG:9034"]

$$$$
RR22_Rahimova_2017
     RDKit          3D

 31 36  0  0  0  0  0  0  0  0999 V2000
  132.8460  124.7770   54.7810 O   0  0  0  0  0  0  0  0  0  0  0  0
  131.8980  124.9970   55.5320 C   0  0  0  0  0  0  0  0  0  0  0  0
  131.9210  125.6530   56.7500 N   0  0  0  0  0  0  0  0  0  0  0  0
  130.7100  125.8810   57.4770 C   0  0  1  0  0  0  0  0  0  0  0  0
  130.9320  125.3010   58.7660 O   0  0  0  0  0  0  0  0  0  0  0  0
  130.8490  126.1270   59.8880 C   0  0  0  0  0  0  0  0  0  0  0  0
  131.4200  125.6390   61.0630 C   0  0  0  0  0  0  0  0  0  0  0  0
  131.3400  126.3900   62.2360 C   0  0  0  0  0  0  0  0  0  0  0  0
  130.6850  127.6220   62.2340 C   0  0  0  0  0  0  0  0  0  0  0  0
  130.1130  128.1100   61.0580 C   0  0  0  0  0  0  0  0  0  0  0  0
  130.2060  127.3800   59.8690 C   0  0  0  0  0  0  0  0  0  0  0  0
  129.5840  127.7990   58.5560 C   0  0  1  0  0  0  0  0  0  0  0  0
  129.4330  129.2520   58.1540 C   0  0  0  0  0  0  0  0  0  0  0  0
  129.5320  129.1140   56.6320 C   0  0  0  0  0  0  0  0  0  0  0  0
  129.0700  130.1640   55.7030 C   0  0  0  0  0  0  0  0  0  0  0  0
  128.3130  129.8320   54.5700 C   0  0  0  0  0  0  0  0  0  0  0  0
  127.8780  130.8260   53.6980 C   0  0  0  0  0  0  0  0  0  0  0  0
  128.1960  132.1570   53.9530 C   0  0  0  0  0  0  0  0  0  0  0  0
  128.9460  132.5040   55.0740 C   0  0  0  0  0  0  0  0  0  0  0  0
  129.3810  131.5110   55.9470 C   0  0  0  0  0  0  0  0  0  0  0  0
  130.0790  128.0040   56.3030 N   0  0  0  0  0  0  0  0  0  0  0  0
  130.4060  127.3200   57.4860 N   0  0  0  0  0  0  0  0  0  0  0  0
  129.6310  125.0540   56.7950 C   0  0  0  0  0  0  0  0  0  0  0  0
  128.4520  124.7470   57.3870 C   0  0  0  0  0  0  0  0  0  0  0  0
  127.3200  123.9770   56.8380 C   0  0  0  0  0  0  0  0  0  0  0  0
  126.0210  124.4940   56.7280 C   0  0  0  0  0  0  0  0  0  0  0  0
  124.9990  123.7060   56.1980 C   0  0  0  0  0  0  0  0  0  0  0  0
  125.3030  122.4070   55.7930 C   0  0  0  0  0  0  0  0  0  0  0  0
  126.5470  121.8770   55.8950 N   0  0  0  0  0  0  0  0  0  0  0  0
  127.5280  122.6600   56.4120 C   0  0  0  0  0  0  0  0  0  0  0  0
  130.1810  124.4920   55.2100 S   0  0  0  0  0  0  0  0  0  0  0  0
  1  2  2  0
  2  3  1  0
  4  3  1  6
  4  5  1  0
  5  6  1  0
  6  7  2  0
  7  8  1  0
  8  9  2  0
  9 10  1  0
 10 11  2  0
 11 12  1  0
 12 13  1  1
 13 14  1  0
 14 15  1  0
 15 16  2  0
 16 17  1  0
 17 18  2  0
 18 19  1  0
 19 20  2  0
 14 21  2  0
 21 22  1  0
  4 23  1  0
 23 24  2  0
 24 25  1  0
 25 26  2  0
 26 27  1  0
 27 28  2  0
 28 29  1  0
 29 30  2  0
 23 31  1  0
 31  2  1  0
 22  4  1  0
 30 25  1  0
 11  6  1  0
 22 12  1  0
 20 15  1  0
M  END
>  <Binding energies>  (75) 
[-9.14]

>  <Ligand effiencies>  (75) 
[-0.285625]

>  <Interactions>  (75) 
["V-B:PRO:540:N:9853, V-B:PRO:540:CB:9854, V-B:TYR:539:CZ:9846, H-B:TYR:539:N:9839, V-B:TYR:539:CD1:9842, V-B:LEU:363:CD1:8157, V-B:ILE:538:CG2:9832, V-B:TYR:539:CE1:9844, V-B:ILE:538:CB:9831, V-B:MET:535:CE:9804, V-A:ARG:545:CZ:4923, V-A:GLU:543:CD:4905, V-A:ASP:366:CB:3208, H-B:TYR:539:OH:9847, V-A:ASP:366:CG:3209, H-A:TYR:531:OH:4792, V-B:PRO:540:CD:9856, V-A:TYR:539:CE1:4872, V-A:ILE:538:CA:4857, V-A:ILE:538:CD1:4862, V-A:TYR:539:CZ:4874, V-A:TYR:539:CE2:4873, H-A:ASP:366:OD1:3210, H-A:ASP:366:O:3205"]

$$$$
RR24_Rahimova_2017
     RDKit          3D

 43 49  0  0  0  0  0  0  0  0999 V2000
  125.7440  122.7980   56.6730 C   0  0  0  0  0  0  0  0  0  0  0  0
  125.6510  123.7090   57.9050 C   0  0  2  0  0  0  0  0  0  0  0  0
  125.3610  125.1970   57.5480 C   0  0  0  0  0  0  0  0  0  0  0  0
  124.2630  125.7210   57.7630 O   0  0  0  0  0  0  0  0  0  0  0  0
  126.4300  125.8120   56.9620 O   0  0  0  0  0  0  0  0  0  0  0  0
  126.8650  127.0250   57.4470 C   0  0  0  0  0  0  0  0  0  0  0  0
  127.2230  128.0310   56.5480 C   0  0  0  0  0  0  0  0  0  0  0  0
  127.6560  129.2650   57.0260 C   0  0  0  0  0  0  0  0  0  0  0  0
  127.7240  129.5010   58.4020 C   0  0  0  0  0  0  0  0  0  0  0  0
  128.2190  130.8550   58.9220 C   0  0  1  0  0  0  0  0  0  0  0  0
  127.4090  131.3340   60.1500 C   0  0  0  0  0  0  0  0  0  0  0  0
  127.9920  131.7370   61.2940 C   0  0  0  0  0  0  0  0  0  0  0  0
  129.3550  131.7510   61.4570 N   0  0  0  0  0  0  0  0  0  0  0  0
  130.1990  131.3480   60.4480 C   0  0  0  0  0  0  0  0  0  0  0  0
  131.5170  131.4310   60.7660 N   0  0  0  0  0  0  0  0  0  0  0  0
  132.4960  131.0020   59.9230 C   0  0  0  0  0  0  0  0  0  0  0  0
  133.6280  130.8010   60.3680 O   0  0  0  0  0  0  0  0  0  0  0  0
  132.0470  130.6760   58.6530 N   0  0  0  0  0  0  0  0  0  0  0  0
  133.0820  130.2920   57.6720 C   0  0  0  0  0  0  0  0  0  0  0  0
  130.7350  130.5590   58.2250 C   0  0  0  0  0  0  0  0  0  0  0  0
  130.4060  130.2120   57.0870 O   0  0  0  0  0  0  0  0  0  0  0  0
  129.7420  130.9120   59.2450 C   0  0  0  0  0  0  0  0  0  0  0  0
  126.9910  132.1300   62.2730 C   0  0  0  0  0  0  0  0  0  0  0  0
  127.0770  132.6050   63.5820 C   0  0  0  0  0  0  0  0  0  0  0  0
  125.9020  132.9000   64.2780 C   0  0  0  0  0  0  0  0  0  0  0  0
  124.6570  132.7220   63.6660 C   0  0  0  0  0  0  0  0  0  0  0  0
  124.5780  132.2470   62.3540 C   0  0  0  0  0  0  0  0  0  0  0  0
  125.7560  131.9520   61.6640 C   0  0  0  0  0  0  0  0  0  0  0  0
  125.9620  131.4460   60.2910 C   0  0  0  0  0  0  0  0  0  0  0  0
  125.1360  131.1670   59.4230 O   0  0  0  0  0  0  0  0  0  0  0  0
  127.3470  128.4960   59.2990 C   0  0  0  0  0  0  0  0  0  0  0  0
  126.9120  127.2630   58.8220 C   0  0  0  0  0  0  0  0  0  0  0  0
  126.8330  123.5600   58.8030 N   0  0  0  0  0  0  0  0  0  0  0  0
  128.1050  123.7110   58.3390 C   0  0  0  0  0  0  0  0  0  0  0  0
  128.4550  123.9670   57.1840 O   0  0  0  0  0  0  0  0  0  0  0  0
  128.9840  123.5020   59.5160 C   0  0  0  0  0  0  0  0  0  0  0  0
  130.3740  123.5340   59.6360 C   0  0  0  0  0  0  0  0  0  0  0  0
  130.9420  123.2990   60.8940 C   0  0  0  0  0  0  0  0  0  0  0  0
  130.1250  123.0400   62.0010 C   0  0  0  0  0  0  0  0  0  0  0  0
  128.7330  123.0140   61.8600 C   0  0  0  0  0  0  0  0  0  0  0  0
  128.1850  123.2490   60.5990 C   0  0  0  0  0  0  0  0  0  0  0  0
  126.7730  123.2890   60.1430 C   0  0  0  0  0  0  0  0  0  0  0  0
  125.7640  123.1190   60.8280 O   0  0  0  0  0  0  0  0  0  0  0  0
  2  1  1  6
  2  3  1  0
  3  4  2  0
  3  5  1  0
  5  6  1  0
  6  7  2  0
  7  8  1  0
  8  9  2  0
 10  9  1  1
 10 11  1  0
 11 12  2  0
 12 13  1  0
 13 14  1  0
 14 15  1  0
 15 16  1  0
 16 17  2  0
 16 18  1  0
 18 19  1  0
 18 20  1  0
 20 21  2  0
 20 22  1  0
 12 23  1  0
 23 24  2  0
 24 25  1  0
 25 26  2  0
 26 27  1  0
 27 28  2  0
 28 29  1  0
 29 30  2  0
  9 31  1  0
 31 32  2  0
  2 33  1  0
 33 34  1  0
 34 35  2  0
 34 36  1  0
 36 37  2  0
 37 38  1  0
 38 39  2  0
 39 40  1  0
 40 41  2  0
 41 42  1  0
 42 43  2  0
 32  6  1  0
 42 33  1  0
 22 10  1  0
 28 23  1  0
 41 36  1  0
 29 11  1  0
 22 14  2  0
M  END
>  <Binding energies>  (76) 
[-10.51]

>  <Ligand effiencies>  (76) 
[-0.23355555555555554]

>  <Interactions>  (76) 
["V-B:TYR:539:CE2:9845, V-B:PRO:540:N:9853, V-B:PRO:540:CB:9854, V-B:TYR:539:CZ:9846, H-B:ALA:541:N:9860, V-B:PRO:540:CA:9852, V-B:LEU:363:CD1:8157, V-B:ALA:541:CB:9861, V-B:MET:535:CE:9804, V-A:GLU:543:CD:4905, V-A:ASP:366:CB:3208, H-A:ARG:545:NH2:4925, H-A:TYR:531:OH:4792, H-B:TYR:531:OH:9764, V-B:PRO:540:CD:9856, V-A:PRO:540:CB:4882, V-A:PRO:540:CA:4880, V-A:LEU:363:CA:3181, V-B:GLY:454:CA:9017, V-A:ALA:541:CB:4889, H-A:GLU:543:OE2:4907, V-B:LEU:475:CD2:9227, V-B:TYR:484:CZ:9315, V-B:TYR:484:CE1:9313, H-A:LEU:363:N:3182, H-A:ALA:541:O:4886"]

$$$$
RR25_Rahimova_2017
     RDKit          3D

 39 44  0  0  0  0  0  0  0  0999 V2000
  129.2250  126.8670   68.0680 O   0  0  0  0  0  0  0  0  0  0  0  0
  129.2440  126.5500   66.8780 C   0  0  0  0  0  0  0  0  0  0  0  0
  129.9970  125.4480   66.5560 O   0  0  0  0  0  0  0  0  0  0  0  0
  129.9020  124.8480   65.3130 C   0  0  0  0  0  0  0  0  0  0  0  0
  130.2310  123.4950   65.2440 C   0  0  0  0  0  0  0  0  0  0  0  0
  130.1660  122.8290   64.0220 C   0  0  0  0  0  0  0  0  0  0  0  0
  129.7760  123.5030   62.8550 C   0  0  0  0  0  0  0  0  0  0  0  0
  129.7000  122.7890   61.5570 N   0  0  0  0  0  0  0  0  0  0  0  0
  130.7440  122.5520   60.9540 O   0  0  0  0  0  0  0  0  0  0  0  0
  128.5970  122.4620   61.1300 O   0  0  0  0  0  0  0  0  0  0  0  0
  129.4610  124.8690   62.9450 C   0  0  0  0  0  0  0  0  0  0  0  0
  129.5280  125.5530   64.1610 C   0  0  0  0  0  0  0  0  0  0  0  0
  129.1870  127.0250   64.3110 C   0  0  0  0  0  0  0  0  0  0  0  0
  128.5280  127.2700   65.6980 C   0  0  2  0  0  0  0  0  0  0  0  0
  128.2540  128.7850   65.9290 C   0  0  0  0  0  0  0  0  0  0  0  0
  128.7330  129.2730   66.9560 O   0  0  0  0  0  0  0  0  0  0  0  0
  127.6310  129.5620   64.9920 N   0  0  0  0  0  0  0  0  0  0  0  0
  126.7820  128.9990   63.9210 C   0  0  0  0  0  0  0  0  0  0  0  0
  126.9860  129.8250   62.6330 C   0  0  0  0  0  0  0  0  0  0  0  0
  126.7370  131.2500   62.8660 N   0  0  0  0  0  0  0  0  0  0  0  0
  126.8000  132.0190   61.6160 C   0  0  0  0  0  0  0  0  0  0  0  0
  128.1430  132.7770   61.4420 C   0  0  0  0  0  0  0  0  0  0  0  0
  128.9190  132.4610   60.2070 N   0  0  0  0  0  0  0  0  0  0  0  0
  130.2380  132.1150   60.4120 C   0  0  0  0  0  0  0  0  0  0  0  0
  130.7670  132.0990   61.5290 O   0  0  0  0  0  0  0  0  0  0  0  0
  130.9940  131.7340   59.1530 C   0  0  0  0  0  0  0  0  0  0  0  0
  132.3350  131.3410   59.2490 C   0  0  0  0  0  0  0  0  0  0  0  0
  133.0570  130.9760   58.1140 C   0  0  0  0  0  0  0  0  0  0  0  0
  132.4650  130.9900   56.8530 C   0  0  0  0  0  0  0  0  0  0  0  0
  131.1120  131.3810   56.7070 C   0  0  0  0  0  0  0  0  0  0  0  0
  130.4490  131.4160   55.4580 C   0  0  0  0  0  0  0  0  0  0  0  0
  129.1130  131.8070   55.3850 C   0  0  0  0  0  0  0  0  0  0  0  0
  128.4110  132.1710   56.5320 C   0  0  0  0  0  0  0  0  0  0  0  0
  129.0260  132.1510   57.7910 C   0  0  0  0  0  0  0  0  0  0  0  0
  130.3850  131.7520   57.8720 C   0  0  0  0  0  0  0  0  0  0  0  0
  128.2250  132.5450   59.0170 C   0  0  0  0  0  0  0  0  0  0  0  0
  127.0420  132.8950   58.9420 O   0  0  0  0  0  0  0  0  0  0  0  0
  127.6780  131.7620   63.8640 C   0  0  0  0  0  0  0  0  0  0  0  0
  127.5360  131.0230   65.2160 C   0  0  0  0  0  0  0  0  0  0  0  0
  1  2  2  0
  2  3  1  0
  3  4  1  0
  4  5  2  0
  5  6  1  0
  6  7  2  0
  7  8  1  0
  8  9  2  0
  8 10  1  0
  7 11  1  0
 11 12  2  0
 12 13  1  0
 13 14  1  0
 14 15  1  1
 15 16  2  0
 15 17  1  0
 17 18  1  0
 18 19  1  0
 19 20  1  0
 20 21  1  0
 21 22  1  0
 22 23  1  0
 23 24  1  0
 24 25  2  0
 24 26  1  0
 26 27  2  0
 27 28  1  0
 28 29  2  0
 29 30  1  0
 30 31  2  0
 31 32  1  0
 32 33  2  0
 33 34  1  0
 34 35  2  0
 34 36  1  0
 36 37  2  0
 20 38  1  0
 38 39  1  0
 14  2  1  0
 39 17  1  0
 12  4  1  0
 36 23  1  0
 35 26  1  0
 35 30  1  0
M  CHG  2   8   1  10  -1
M  END
>  <Binding energies>  (77) 
[-10.22]

>  <Ligand effiencies>  (77) 
[-0.2620512820512821]

>  <Interactions>  (77) 
["V-A:TYR:484:CZ:4343, V-B:ALA:541:CB:9861, V-B:GLU:543:CD:9877, V-A:TYR:484:CE1:4341, V-B:GLU:543:CG:9876, V-A:GLU:543:CD:4905, V-A:GLU:543:CG:4904, V-B:GLU:543:CB:9875, H-A:TYR:484:OH:4344, V-A:PRO:540:CB:4882, V-A:TYR:539:C:4864, V-A:PRO:540:CA:4880, V-A:LEU:363:CD1:3185, V-A:PRO:540:N:4881, V-A:TYR:531:CZ:4791, V-A:ILE:538:CD1:4862, V-A:TYR:539:CZ:4874, V-A:LEU:363:CA:3181, V-A:TYR:539:CD2:4871, V-A:TYR:539:CE2:4873, H-A:ALA:541:N:4888, V-A:PRO:540:C:4878, V-A:GLU:543:CB:4903, V-B:HIS:456:CE1:9038, V-A:ALA:541:CB:4889, V-B:TYR:484:CZ:9315, V-B:TYR:484:CE1:9313"]

$$$$
RR27_Rahimova_2017
     RDKit          3D

 39 44  0  0  0  0  0  0  0  0999 V2000
  132.4900  127.9720   56.6250 O   0  0  0  0  0  0  0  0  0  0  0  0
  131.5980  128.5670   57.2380 C   0  0  0  0  0  0  0  0  0  0  0  0
  131.6680  130.1200   57.3200 C   0  0  0  0  0  0  0  0  0  0  0  0
  131.9520  130.6380   58.7430 C   0  0  0  0  0  0  0  0  0  0  0  0
  130.9350  131.1530   59.5600 C   0  0  0  0  0  0  0  0  0  0  0  0
  131.2260  131.6100   60.8420 C   0  0  0  0  0  0  0  0  0  0  0  0
  132.5350  131.5560   61.3120 C   0  0  0  0  0  0  0  0  0  0  0  0
  133.5560  131.0500   60.5120 C   0  0  0  0  0  0  0  0  0  0  0  0
  133.2640  130.5930   59.2300 C   0  0  0  0  0  0  0  0  0  0  0  0
  130.4700  130.7840   56.6150 C   0  0  0  0  0  0  0  0  0  0  0  0
  129.5570  130.0410   55.8540 C   0  0  0  0  0  0  0  0  0  0  0  0
  128.4910  130.6760   55.2200 C   0  0  0  0  0  0  0  0  0  0  0  0
  128.3380  132.0540   55.3400 C   0  0  0  0  0  0  0  0  0  0  0  0
  129.2440  132.8060   56.0830 C   0  0  0  0  0  0  0  0  0  0  0  0
  130.3080  132.1720   56.7150 C   0  0  0  0  0  0  0  0  0  0  0  0
  130.4940  127.9160   57.7040 N   0  0  0  0  0  0  0  0  0  0  0  0
  129.5380  128.5150   58.6470 C   0  0  0  0  0  0  0  0  0  0  0  0
  130.0730  128.2290   60.0680 C   0  0  0  0  0  0  0  0  0  0  0  0
  130.3220  126.7090   60.3250 C   0  0  0  0  0  0  0  0  0  0  0  0
  130.9610  126.3800   61.6870 C   0  0  0  0  0  0  0  0  0  0  0  0
  132.1270  125.6710   61.6550 N   0  0  0  0  0  0  0  0  0  0  0  0
  132.7480  125.3770   62.8310 C   0  0  0  0  0  0  0  0  0  0  0  0
  133.9210  124.6770   62.9270 O   0  0  0  0  0  0  0  0  0  0  0  0
  132.1600  125.8160   64.0330 C   0  0  0  0  0  0  0  0  0  0  0  0
  132.5080  125.7030   65.3470 N   0  0  0  0  0  0  0  0  0  0  0  0
  131.5280  126.3350   66.0880 N   0  0  0  0  0  0  0  0  0  0  0  0
  130.5990  126.8350   65.2450 N   0  0  0  0  0  0  0  0  0  0  0  0
  129.4270  127.5370   65.7650 C   0  0  0  0  0  0  0  0  0  0  0  0
  129.1310  127.2330   67.2270 C   0  0  0  0  0  0  0  0  0  0  0  0
  127.9860  126.5110   67.5780 C   0  0  0  0  0  0  0  0  0  0  0  0
  127.7200  126.2240   68.9180 C   0  0  0  0  0  0  0  0  0  0  0  0
  128.5990  126.6520   69.9120 C   0  0  0  0  0  0  0  0  0  0  0  0
  129.7490  127.3650   69.5680 C   0  0  0  0  0  0  0  0  0  0  0  0
  130.8530  127.8730   70.7950 Cl  0  0  0  0  0  0  0  0  0  0  0  0
  130.0110  127.6590   68.2300 C   0  0  0  0  0  0  0  0  0  0  0  0
  130.9470  126.5320   63.9400 C   0  0  0  0  0  0  0  0  0  0  0  0
  130.3130  126.8260   62.8010 N   0  0  0  0  0  0  0  0  0  0  0  0
  131.0430  126.0260   59.1220 C   0  0  0  0  0  0  0  0  0  0  0  0
  130.4660  126.4460   57.7470 C   0  0  0  0  0  0  0  0  0  0  0  0
  1  2  2  0
  2  3  1  0
  3  4  1  0
  4  5  2  0
  5  6  1  0
  6  7  2  0
  7  8  1  0
  8  9  2  0
  3 10  1  0
 10 11  2  0
 11 12  1  0
 12 13  2  0
 13 14  1  0
 14 15  2  0
  2 16  1  0
 16 17  1  0
 17 18  1  0
 18 19  1  0
 19 20  1  0
 20 21  2  0
 21 22  1  0
 22 23  1  0
 22 24  2  0
 24 25  1  0
 25 26  2  0
 26 27  1  0
 27 28  1  0
 28 29  1  0
 29 30  2  0
 30 31  1  0
 31 32  2  0
 32 33  1  0
 33 34  1  0
 33 35  2  0
 27 36  1  0
 36 37  2  0
 19 38  1  0
 38 39  1  0
  9  4  1  0
 15 10  1  0
 39 16  1  0
 37 20  1  0
 36 24  1  0
 35 29  1  0
M  END
>  <Binding energies>  (78) 
[-10.74]

>  <Ligand effiencies>  (78) 
[-0.2685]

>  <Interactions>  (78) 
["V-B:GLU:543:CD:9877, V-B:GLU:543:CG:9876, V-A:ARG:545:CZ:4923, V-A:GLU:543:CD:4905, V-A:ASP:366:CB:3208, V-A:HIS:456:CE1:4066, H-A:ARG:545:NH2:4925, H-A:ARG:545:NH1:4924, H-A:ARG:545:NE:4921, V-A:ASP:366:CG:3209, V-B:GLU:543:CB:9875, H-A:GLY:454:N:4046, H-A:TYR:484:OH:4344, H-A:TYR:531:OH:4792, V-A:PRO:540:CB:4882, V-A:TYR:539:CE1:4872, V-A:TYR:539:C:4864, V-A:PRO:540:CA:4880, V-A:PRO:540:N:4881, V-A:TYR:539:CZ:4874, V-A:LEU:363:CA:3181, V-A:TYR:539:CD2:4871, V-A:TYR:539:CE2:4873, V-A:TYR:539:CG:4869, V-A:ASN:362:CB:3172, V-A:PRO:540:C:4878, V-A:GLU:543:CB:4903, V-A:GLY:544:C:4909, V-B:HIS:456:CE1:9038, V-A:ASN:362:C:3168, V-B:GLU:543:C:9871, H-A:ASP:366:OD2:3211, V-A:TYR:539:CA:4866, V-A:ASN:362:CA:3170, V-A:HIS:456:CD2:4064"]

$$$$
RR28_Rahimova_2017
     RDKit          3D

 46 49  0  0  0  0  0  0  0  0999 V2000
  131.0590  127.9980   68.2650 C   0  0  0  0  0  0  0  0  0  0  0  0
  130.1380  127.2340   67.3210 C   0  0  0  0  0  0  0  0  0  0  0  0
  129.1500  126.6560   67.7720 O   0  0  0  0  0  0  0  0  0  0  0  0
  130.4790  127.2430   66.0160 N   0  0  0  0  0  0  0  0  0  0  0  0
  129.7850  126.5880   64.8840 C   0  0  0  0  0  0  0  0  0  0  0  0
  128.6860  127.5560   64.3610 C   0  0  0  0  0  0  0  0  0  0  0  0
  128.3590  127.5540   62.9960 C   0  0  0  0  0  0  0  0  0  0  0  0
  127.3840  128.4090   62.4930 C   0  0  0  0  0  0  0  0  0  0  0  0
  126.7130  129.2890   63.3430 C   0  0  0  0  0  0  0  0  0  0  0  0
  125.6480  130.2250   62.7710 C   0  0  0  0  0  0  0  0  0  0  0  0
  125.6840  130.2780   61.4380 F   0  0  0  0  0  0  0  0  0  0  0  0
  124.4320  129.8190   63.1340 F   0  0  0  0  0  0  0  0  0  0  0  0
  125.8480  131.4560   63.2430 F   0  0  0  0  0  0  0  0  0  0  0  0
  127.0300  129.3030   64.7040 C   0  0  0  0  0  0  0  0  0  0  0  0
  128.0060  128.4460   65.2070 C   0  0  0  0  0  0  0  0  0  0  0  0
  129.2350  125.1810   65.3150 C   0  0  0  0  0  0  0  0  0  0  0  0
  130.3530  124.1630   65.6540 C   0  0  0  0  0  0  0  0  0  0  0  0
  131.1830  124.0380   64.4450 N   0  0  0  0  0  0  0  0  0  0  0  0
  130.9320  123.0550   63.5370 C   0  0  0  0  0  0  0  0  0  0  0  0
  130.1310  122.1460   63.7620 O   0  0  0  0  0  0  0  0  0  0  0  0
  131.7950  122.9840   62.2540 C   0  0  0  0  0  0  0  0  0  0  0  0
  131.2710  122.0440   61.1340 C   0  0  0  0  0  0  0  0  0  0  0  0
  129.7400  122.0780   60.9130 C   0  0  0  0  0  0  0  0  0  0  0  0
  129.1130  121.0240   61.0510 O   0  0  0  0  0  0  0  0  0  0  0  0
  129.1120  123.2700   60.7110 N   0  0  0  0  0  0  0  0  0  0  0  0
  129.8010  124.4750   60.2330 C   0  0  0  0  0  0  0  0  0  0  0  0
  129.8240  124.3870   58.6910 C   0  0  0  0  0  0  0  0  0  0  0  0
  128.4130  124.2390   58.0220 C   0  0  0  0  0  0  0  0  0  0  0  0
  128.5830  123.7690   56.6300 N   0  0  0  0  0  0  0  0  0  0  0  0
  127.9860  122.7220   56.0280 C   0  0  0  0  0  0  0  0  0  0  0  0
  128.3760  122.4650   54.5750 C   0  0  0  0  0  0  0  0  0  0  0  0
  127.1680  121.9850   56.5770 O   0  0  0  0  0  0  0  0  0  0  0  0
  127.7710  125.6630   57.9620 C   0  0  0  0  0  0  0  0  0  0  0  0
  126.6720  126.0370   58.7540 C   0  0  0  0  0  0  0  0  0  0  0  0
  126.1310  127.3170   58.6720 C   0  0  0  0  0  0  0  0  0  0  0  0
  126.6730  128.2570   57.7920 C   0  0  0  0  0  0  0  0  0  0  0  0
  126.0930  129.6670   57.6930 C   0  0  0  0  0  0  0  0  0  0  0  0
  126.5170  130.4220   58.7080 F   0  0  0  0  0  0  0  0  0  0  0  0
  126.4920  130.2250   56.5510 F   0  0  0  0  0  0  0  0  0  0  0  0
  124.7580  129.6640   57.7130 F   0  0  0  0  0  0  0  0  0  0  0  0
  127.7600  127.8980   56.9930 C   0  0  0  0  0  0  0  0  0  0  0  0
  128.2980  126.6190   57.0780 C   0  0  0  0  0  0  0  0  0  0  0  0
  127.5560  123.2060   58.8510 C   0  0  0  0  0  0  0  0  0  0  0  0
  127.6780  123.3040   60.3960 C   0  0  0  0  0  0  0  0  0  0  0  0
  131.8960  125.2760   64.0970 C   0  0  0  0  0  0  0  0  0  0  0  0
  130.8200  126.3340   63.7390 C   0  0  0  0  0  0  0  0  0  0  0  0
  1  2  1  0
  2  3  2  0
  2  4  1  0
  4  5  1  0
  5  6  1  0
  6  7  2  0
  7  8  1  0
  8  9  2  0
  9 10  1  0
 10 11  1  0
 10 12  1  0
 10 13  1  0
  9 14  1  0
 14 15  2  0
  5 16  1  0
 16 17  1  0
 17 18  1  0
 18 19  1  0
 19 20  2  0
 19 21  1  0
 21 22  1  0
 22 23  1  0
 23 24  2  0
 23 25  1  0
 25 26  1  0
 26 27  1  0
 27 28  1  0
 28 29  1  0
 29 30  1  0
 30 31  1  0
 30 32  2  0
 28 33  1  0
 33 34  2  0
 34 35  1  0
 35 36  2  0
 36 37  1  0
 37 38  1  0
 37 39  1  0
 37 40  1  0
 36 41  1  0
 41 42  2  0
 28 43  1  0
 43 44  1  0
 18 45  1  0
 45 46  1  0
 46  5  1  0
 15  6  1  0
 44 25  1  0
 42 33  1  0
M  END
>  <Binding energies>  (79) 
[-8.64]

>  <Ligand effiencies>  (79) 
[-0.18000000000000002]

>  <Interactions>  (79) 
["V-B:TYR:539:CE2:9845, V-B:TYR:539:CZ:9846, V-A:TYR:484:CZ:4343, V-B:PRO:540:CA:9852, H-B:TYR:539:N:9839, V-B:TYR:539:CD1:9842, V-B:ILE:538:CA:9829, V-B:ALA:541:CB:9861, V-B:ILE:538:CG2:9832, V-B:TYR:539:CE1:9844, V-B:GLU:543:CD:9877, V-A:TYR:484:CE1:4341, V-B:ILE:538:CB:9831, V-B:GLU:543:CG:9876, V-B:MET:535:CE:9804, V-A:ARG:545:CZ:4923, V-A:GLU:543:CD:4905, V-A:HIS:456:CE1:4066, V-B:GLU:543:CB:9875, V-B:ASP:366:CB:8180, V-B:TYR:531:CZ:9763, V-B:TYR:539:CD2:9843, V-B:ASP:366:CG:8181, H-A:GLU:543:OE1:4906, V-A:GLU:543:CB:4903, V-A:GLU:543:C:4899, V-B:ARG:545:CZ:9895, V-A:ARG:545:CG:4919, H-A:GLU:543:OE2:4907, V-B:ASP:366:CA:8178"]

$$$$
RR29_Rahimova_2017
     RDKit          3D

 18 19  0  0  0  0  0  0  0  0999 V2000
  130.9420  122.8620   62.8170 C   0  0  0  0  0  0  0  0  0  0  0  0
  130.9470  124.1860   62.0660 C   0  0  0  0  0  0  0  0  0  0  0  0
  130.2160  124.1110   60.7070 C   0  0  0  0  0  0  0  0  0  0  0  0
  129.4720  122.7710   60.5320 C   0  0  0  0  0  0  0  0  0  0  0  0
  128.2830  122.8890   59.5920 C   0  0  0  0  0  0  0  0  0  0  0  0
  127.1250  123.5780   60.0040 C   0  0  0  0  0  0  0  0  0  0  0  0
  126.0180  123.7000   59.1530 C   0  0  0  0  0  0  0  0  0  0  0  0
  126.1040  123.1080   57.8980 C   0  0  0  0  0  0  0  0  0  0  0  0
  127.2240  122.4370   57.4930 C   0  0  0  0  0  0  0  0  0  0  0  0
  128.3400  122.3090   58.3120 C   0  0  0  0  0  0  0  0  0  0  0  0
  127.0470  121.9940   56.2200 O   0  0  0  0  0  0  0  0  0  0  0  0
  125.6960  122.2270   55.9220 C   0  0  0  0  0  0  0  0  0  0  0  0
  125.1910  123.1070   56.8910 O   0  0  0  0  0  0  0  0  0  0  0  0
  131.5370  125.1910   62.5990 N   0  0  0  0  0  0  0  0  0  0  0  0
  131.6160  126.3660   61.8850 N   0  0  0  0  0  0  0  0  0  0  0  0
  130.8230  127.4300   62.0960 C   0  0  0  0  0  0  0  0  0  0  0  0
  129.8730  127.4980   63.0290 N   0  0  0  0  0  0  0  0  0  0  0  0
  130.9960  128.4910   61.3210 N   0  0  0  0  0  0  0  0  0  0  0  0
  1  2  1  0
  2  3  1  0
  3  4  1  0
  4  5  1  0
  5  6  2  0
  6  7  1  0
  7  8  2  0
  8  9  1  0
  9 10  2  0
  9 11  1  0
 11 12  1  0
 12 13  1  0
  2 14  2  0
 14 15  1  0
 15 16  1  0
 16 17  1  0
 16 18  2  0
 10  5  1  0
 13  8  1  0
M  CHG  1  18   1
M  END
>  <Binding energies>  (80) 
[-7.36]

>  <Ligand effiencies>  (80) 
[-0.32]

>  <Interactions>  (80) 
["V-B:TYR:539:CE2:9845, V-B:PRO:540:N:9853, V-B:PRO:540:CB:9854, V-B:TYR:539:CZ:9846, V-B:PRO:540:CA:9852, H-B:TYR:539:N:9839, V-B:TYR:539:CD1:9842, V-B:ILE:538:CA:9829, V-B:TYR:539:C:9836, V-B:LEU:363:CD1:8157, V-B:ILE:538:CG2:9832, V-B:TYR:539:CE1:9844, V-B:ILE:538:CB:9831, V-A:ARG:545:CZ:4923, V-A:GLU:543:CD:4905, V-A:ASP:366:CG:3209, V-B:PRO:540:CD:9856, V-B:TYR:539:CG:9841, V-B:TYR:539:CD2:9843, H-A:GLU:543:OE1:4906, H-A:GLU:543:OE2:4907, H-A:ASP:366:OD1:3210, H-A:ASP:366:OD2:3211"]

$$$$
RR30_Rahimova_2017
     RDKit          3D

 18 19  0  0  0  0  0  0  0  0999 V2000
  129.8010  122.0790   61.6810 C   0  0  0  0  0  0  0  0  0  0  0  0
  128.9480  122.1240   60.4040 C   0  0  0  0  0  0  0  0  0  0  0  0
  127.7720  123.0680   60.5350 C   0  0  0  0  0  0  0  0  0  0  0  0
  127.7890  124.3740   60.6330 N   0  0  0  0  0  0  0  0  0  0  0  0
  126.4570  124.7660   60.7390 N   0  0  0  0  0  0  0  0  0  0  0  0
  125.7510  123.6640   60.7050 C   0  0  0  0  0  0  0  0  0  0  0  0
  123.9960  123.5070   60.7840 S   0  0  0  0  0  0  0  0  0  0  0  0
  123.5220  124.6120   59.4170 C   0  0  0  0  0  0  0  0  0  0  0  0
  124.4270  124.4400   58.1940 C   0  0  0  0  0  0  0  0  0  0  0  0
  124.4100  125.2970   57.3080 O   0  0  0  0  0  0  0  0  0  0  0  0
  125.1720  123.3130   58.1640 N   0  0  0  0  0  0  0  0  0  0  0  0
  126.0580  122.9370   57.1650 C   0  0  0  0  0  0  0  0  0  0  0  0
  126.1520  121.7780   56.5530 N   0  0  0  0  0  0  0  0  0  0  0  0
  127.1640  121.7640   55.6020 N   0  0  0  0  0  0  0  0  0  0  0  0
  127.8110  122.9030   55.5120 C   0  0  0  0  0  0  0  0  0  0  0  0
  128.9560  123.1310   54.5520 C   0  0  0  0  0  0  0  0  0  0  0  0
  127.2120  124.1120   56.6140 S   0  0  0  0  0  0  0  0  0  0  0  0
  126.5180  122.5510   60.5730 O   0  0  0  0  0  0  0  0  0  0  0  0
  1  2  1  0
  2  3  1  0
  3  4  2  0
  4  5  1  0
  5  6  2  0
  6  7  1  0
  7  8  1  0
  8  9  1  0
  9 10  2  0
  9 11  1  0
 11 12  1  0
 12 13  2  0
 13 14  1  0
 14 15  2  0
 15 16  1  0
 15 17  1  0
  6 18  1  0
 18  3  1  0
 17 12  1  0
M  END
>  <Binding energies>  (81) 
[-6.75]

>  <Ligand effiencies>  (81) 
[-0.35526315789473684]

>  <Interactions>  (81) 
["V-B:TYR:539:CE2:9845, V-B:PRO:540:N:9853, V-B:PRO:540:CB:9854, H-B:ALA:541:N:9860, V-B:PRO:540:CA:9852, H-B:TYR:539:N:9839, V-B:TYR:539:CD1:9842, V-B:ILE:538:CA:9829, V-B:LEU:363:CD1:8157, V-B:ALA:541:CB:9861, V-B:TYR:539:CE1:9844, V-B:MET:535:CE:9804, V-B:LEU:363:CA:8153, H-B:TYR:531:OH:9764, V-B:PRO:540:CD:9856, V-B:ASP:366:CB:8180, V-B:TYR:539:CD2:9843, V-B:ASN:362:C:8140, V-B:ASP:366:CG:8181"]

$$$$
RR31_Rahimova_2017
     RDKit          3D

 18 19  0  0  0  0  0  0  0  0999 V2000
  127.8420  126.9440   72.0580 C   0  0  0  0  0  0  0  0  0  0  0  0
  128.3110  126.8420   70.6130 C   0  0  0  0  0  0  0  0  0  0  0  0
  127.4820  126.2350   69.6690 C   0  0  0  0  0  0  0  0  0  0  0  0
  127.8800  126.1290   68.3380 C   0  0  0  0  0  0  0  0  0  0  0  0
  129.1180  126.6350   67.9090 C   0  0  0  0  0  0  0  0  0  0  0  0
  129.5360  126.5270   66.5800 N   0  0  0  0  0  0  0  0  0  0  0  0
  129.1830  127.5390   65.5650 C   0  0  0  0  0  0  0  0  0  0  0  0
  129.3700  127.0600   64.1060 C   0  0  0  0  0  0  0  0  0  0  0  0
  130.7400  126.5950   63.8790 N   0  0  0  0  0  0  0  0  0  0  0  0
  130.9580  126.1670   62.4940 C   0  0  0  0  0  0  0  0  0  0  0  0
  129.7500  126.4520   61.5780 C   0  0  0  0  0  0  0  0  0  0  0  0
  129.9280  127.7420   60.7630 C   0  0  0  0  0  0  0  0  0  0  0  0
  130.8790  128.6970   61.4940 N   0  0  0  0  0  0  0  0  0  0  0  0
  130.9770  125.4710   64.7850 C   0  0  0  0  0  0  0  0  0  0  0  0
  130.8410  125.9160   66.2590 C   0  0  0  0  0  0  0  0  0  0  0  0
  129.9460  127.2350   68.8690 C   0  0  0  0  0  0  0  0  0  0  0  0
  129.5570  127.3460   70.2100 C   0  0  0  0  0  0  0  0  0  0  0  0
  130.5040  128.0060   71.2050 C   0  0  0  0  0  0  0  0  0  0  0  0
  1  2  1  0
  2  3  2  0
  3  4  1  0
  4  5  2  0
  5  6  1  0
  6  7  1  0
  7  8  1  0
  8  9  1  0
  9 10  1  0
 10 11  1  0
 11 12  1  0
 12 13  1  0
  9 14  1  0
 14 15  1  0
  5 16  1  0
 16 17  2  0
 17 18  1  0
 17  2  1  0
 15  6  1  0
M  CHG  1  13   1
M  END
>  <Binding energies>  (82) 
[-6.69]

>  <Ligand effiencies>  (82) 
[-0.3185714285714286]

>  <Interactions>  (82) 
["V-B:GLU:543:CD:9877, V-A:GLU:543:CD:4905, V-A:HIS:456:CE1:4066, H-A:ARG:545:NH2:4925, V-B:GLU:543:CB:9875, V-B:HIS:456:CD2:9036, H-A:GLU:543:OE1:4906, V-A:GLY:544:C:4909, V-B:LYS:547:CE:9919, V-B:HIS:456:CE1:9038, V-B:GLY:544:C:9881, H-A:GLU:543:OE2:4907, V-B:GLU:543:C:9871, H-A:ASP:366:OD1:3210, V-B:GLU:543:CA:9873"]

$$$$
RR32_Rahimova_2017
     RDKit          3D

 18 20  0  0  0  0  0  0  0  0999 V2000
  123.9870  124.0880   59.7140 C   0  0  0  0  0  0  0  0  0  0  0  0
  125.3710  123.5300   59.3980 C   0  0  0  0  0  0  0  0  0  0  0  0
  126.2530  123.3150   60.4580 C   0  0  0  0  0  0  0  0  0  0  0  0
  127.5230  122.8030   60.2080 C   0  0  0  0  0  0  0  0  0  0  0  0
  128.3950  122.5910   61.2610 N   0  0  0  0  0  0  0  0  0  0  0  0
  129.6120  121.8070   60.9830 C   0  0  0  0  0  0  0  0  0  0  0  0
  130.4260  121.4720   62.2550 C   0  0  0  0  0  0  0  0  0  0  0  0
  130.8110  122.7010   62.9480 N   0  0  0  0  0  0  0  0  0  0  0  0
  131.6060  122.3870   64.1300 C   0  0  0  0  0  0  0  0  0  0  0  0
  129.5890  123.4050   63.3310 C   0  0  0  0  0  0  0  0  0  0  0  0
  128.7600  123.7660   62.0760 C   0  0  0  0  0  0  0  0  0  0  0  0
  127.9570  122.5000   58.9570 N   0  0  0  0  0  0  0  0  0  0  0  0
  127.1200  122.7010   57.9030 C   0  0  0  0  0  0  0  0  0  0  0  0
  127.6000  122.3780   56.6100 C   0  0  0  0  0  0  0  0  0  0  0  0
  126.7890  122.5640   55.4960 C   0  0  0  0  0  0  0  0  0  0  0  0
  125.5020  123.0660   55.6370 C   0  0  0  0  0  0  0  0  0  0  0  0
  125.0000  123.3940   56.8930 C   0  0  0  0  0  0  0  0  0  0  0  0
  125.7950  123.2220   58.0630 C   0  0  0  0  0  0  0  0  0  0  0  0
  1  2  1  0
  2  3  2  0
  3  4  1  0
  4  5  1  0
  5  6  1  0
  6  7  1  0
  7  8  1  0
  8  9  1  0
  8 10  1  0
 10 11  1  0
  4 12  2  0
 12 13  1  0
 13 14  2  0
 14 15  1  0
 15 16  2  0
 16 17  1  0
 17 18  2  0
 18  2  1  0
 11  5  1  0
 18 13  1  0
M  END
>  <Binding energies>  (83) 
[-6.53]

>  <Ligand effiencies>  (83) 
[-0.3627777777777778]

>  <Interactions>  (83) 
["V-B:TYR:539:CE2:9845, V-B:PRO:540:N:9853, V-B:PRO:540:CB:9854, V-A:TYR:484:CZ:4343, V-A:LEU:475:CD1:4254, V-B:PRO:540:CA:9852, V-B:TYR:539:CD1:9842, V-B:ILE:538:CA:9829, V-B:TYR:539:C:9836, V-B:LEU:363:CD1:8157, V-B:ALA:541:CB:9861, V-B:ILE:538:CG2:9832, V-B:TYR:539:CE1:9844, V-B:GLU:543:CD:9877, V-A:TYR:484:CE1:4341, V-B:ILE:538:CB:9831, V-A:LEU:475:CD2:4255, V-B:GLU:543:CG:9876, V-B:MET:535:CE:9804, V-A:GLY:454:CA:4045, V-B:LEU:363:CA:8153, V-B:TYR:539:CD2:9843, V-B:ASN:362:C:8140, V-A:LEU:475:CG:4253"]

$$$$
RR5_Rahimova_2017
     RDKit          3D

 45 50  0  0  0  0  0  0  0  0999 V2000
  127.7520  127.6310   58.6410 O   0  0  0  0  0  0  0  0  0  0  0  0
  127.7000  126.9870   59.6870 C   0  0  0  0  0  0  0  0  0  0  0  0
  127.0300  127.6030   60.9300 C   0  0  0  0  0  0  0  0  0  0  0  0
  128.0430  128.1540   61.9960 C   0  0  2  0  0  0  0  0  0  0  0  0
  128.4420  129.5630   61.8060 N   0  0  0  0  0  0  0  0  0  0  0  0
  127.5610  130.5060   61.2940 C   0  0  0  0  0  0  0  0  0  0  0  0
  126.3800  130.3220   60.9910 O   0  0  0  0  0  0  0  0  0  0  0  0
  128.2170  131.6730   61.1660 O   0  0  0  0  0  0  0  0  0  0  0  0
  128.4970  132.2300   59.8850 C   0  0  0  0  0  0  0  0  0  0  0  0
  129.1940  131.1940   58.9760 C   0  0  0  0  0  0  0  0  0  0  0  0
  129.1340  131.5410   57.4990 C   0  0  0  0  0  0  0  0  0  0  0  0
  128.0220  131.7590   56.6810 C   0  0  0  0  0  0  0  0  0  0  0  0
  128.2010  132.0930   55.3380 C   0  0  0  0  0  0  0  0  0  0  0  0
  129.4880  132.2090   54.8100 C   0  0  0  0  0  0  0  0  0  0  0  0
  130.6010  131.9890   55.6240 C   0  0  0  0  0  0  0  0  0  0  0  0
  130.4190  131.6540   56.9670 C   0  0  0  0  0  0  0  0  0  0  0  0
  131.3910  131.3650   58.0330 C   0  0  0  0  0  0  0  0  0  0  0  0
  132.7880  131.3310   58.0190 C   0  0  0  0  0  0  0  0  0  0  0  0
  133.4810  131.0000   59.1840 C   0  0  0  0  0  0  0  0  0  0  0  0
  132.7830  130.7080   60.3570 C   0  0  0  0  0  0  0  0  0  0  0  0
  131.3880  130.7470   60.3670 C   0  0  0  0  0  0  0  0  0  0  0  0
  130.6890  131.0810   59.2050 C   0  0  0  0  0  0  0  0  0  0  0  0
  129.3060  127.2600   62.0670 C   0  0  0  0  0  0  0  0  0  0  0  0
  129.2980  126.0710   62.3160 O   0  0  0  0  0  0  0  0  0  0  0  0
  130.4140  128.0070   61.7910 O   0  0  0  0  0  0  0  0  0  0  0  0
  128.1680  125.7280   59.8420 N   0  0  0  0  0  0  0  0  0  0  0  0
  128.8660  124.7720   58.9310 C   0  0  0  0  0  0  0  0  0  0  0  0
  129.7910  125.7260   58.1030 C   0  0  0  0  0  0  0  0  0  0  0  0
  129.8950  125.6170   56.7060 C   0  0  0  0  0  0  0  0  0  0  0  0
  130.7200  126.4710   55.9800 C   0  0  0  0  0  0  0  0  0  0  0  0
  131.4640  127.4430   56.6400 C   0  0  0  0  0  0  0  0  0  0  0  0
  131.3800  127.5750   58.0210 C   0  0  0  0  0  0  0  0  0  0  0  0
  130.5470  126.7270   58.7450 C   0  0  0  0  0  0  0  0  0  0  0  0
  129.6760  123.7780   59.8290 C   0  0  0  0  0  0  0  0  0  0  0  0
  129.0560  122.6980   60.4790 C   0  0  0  0  0  0  0  0  0  0  0  0
  129.7930  121.8370   61.2890 C   0  0  0  0  0  0  0  0  0  0  0  0
  131.1570  122.0460   61.4610 C   0  0  0  0  0  0  0  0  0  0  0  0
  131.7940  123.1070   60.8250 C   0  0  0  0  0  0  0  0  0  0  0  0
  131.0580  123.9600   60.0090 C   0  0  0  0  0  0  0  0  0  0  0  0
  127.7470  124.1050   58.0620 C   0  0  0  0  0  0  0  0  0  0  0  0
  126.4420  124.6290   58.0340 C   0  0  0  0  0  0  0  0  0  0  0  0
  125.4410  124.0350   57.2700 C   0  0  0  0  0  0  0  0  0  0  0  0
  125.7300  122.9060   56.5130 C   0  0  0  0  0  0  0  0  0  0  0  0
  127.0140  122.3730   56.5090 C   0  0  0  0  0  0  0  0  0  0  0  0
  128.0110  122.9690   57.2750 C   0  0  0  0  0  0  0  0  0  0  0  0
  1  2  2  0
  2  3  1  0
  4  3  1  6
  4  5  1  0
  5  6  1  0
  6  7  2  0
  6  8  1  0
  8  9  1  0
  9 10  1  0
 10 11  1  0
 11 12  2  0
 12 13  1  0
 13 14  2  0
 14 15  1  0
 15 16  2  0
 16 17  1  0
 17 18  2  0
 18 19  1  0
 19 20  2  0
 20 21  1  0
 21 22  2  0
  4 23  1  0
 23 24  2  0
 23 25  1  0
  2 26  1  0
 26 27  1  0
 27 28  1  0
 28 29  2  0
 29 30  1  0
 30 31  2  0
 31 32  1  0
 32 33  2  0
 27 34  1  0
 34 35  2  0
 35 36  1  0
 36 37  2  0
 37 38  1  0
 38 39  2  0
 27 40  1  0
 40 41  2  0
 41 42  1  0
 42 43  2  0
 43 44  1  0
 44 45  2  0
 22 10  1  0
 33 28  1  0
 39 34  1  0
 45 40  1  0
 16 11  1  0
 22 17  1  0
M  END
>  <Binding energies>  (84) 
[-9.94]

>  <Ligand effiencies>  (84) 
[-0.2070833333333333]

>  <Interactions>  (84) 
["V-B:TYR:539:CE2:9845, V-B:PRO:540:N:9853, V-B:PRO:540:CB:9854, V-B:TYR:539:CZ:9846, V-A:LEU:475:CD1:4254, V-B:PRO:540:CA:9852, V-B:TYR:539:CD1:9842, V-B:TYR:539:C:9836, V-B:LEU:363:CD1:8157, V-B:ALA:541:CB:9861, V-B:TYR:539:CE1:9844, V-B:ILE:538:CB:9831, H-B:GLU:543:OE2:9879, V-B:MET:535:CE:9804, V-A:GLU:543:CD:4905, V-A:ASP:366:CB:3208, H-A:ARG:545:NH2:4925, V-A:ASP:366:CG:3209, V-B:PRO:540:CD:9856, V-A:PRO:540:CB:4882, V-A:TYR:539:CE1:4872, V-A:PRO:540:CA:4880, V-A:LEU:363:CD1:3185, V-A:TYR:531:CZ:4791, V-A:ILE:538:CG2:4860, V-A:ILE:538:CA:4857, V-A:ILE:538:CD1:4862, V-A:TYR:539:CZ:4874, V-B:TYR:539:CD2:9843, V-A:LEU:363:CA:3181, V-A:TYR:539:CD2:4871, V-A:TYR:539:CE2:4873, V-A:ASN:362:CB:3172, H-A:GLU:543:OE1:4906, V-A:ASN:362:C:3168, H-A:GLU:543:OE2:4907"]

$$$$
