1a_Grossjean_2025
     RDKit          3D

 26 27  0  0  0  0  0  0  0  0999 V2000
  132.5410  131.1840   57.7680 C   0  0  0  0  0  0  0  0  0  0  0  0
  132.0970  131.7160   56.4030 C   0  0  0  0  0  0  0  0  0  0  0  0
  131.3400  132.9060   56.5810 O   0  0  0  0  0  0  0  0  0  0  0  0
  130.0610  132.9980   56.1300 C   0  0  0  0  0  0  0  0  0  0  0  0
  129.7670  133.3840   54.9950 O   0  0  0  0  0  0  0  0  0  0  0  0
  129.0400  132.5990   57.1560 C   0  0  0  0  0  0  0  0  0  0  0  0
  128.2450  131.4680   56.9260 C   0  0  0  0  0  0  0  0  0  0  0  0
  127.2870  131.0750   57.8550 C   0  0  0  0  0  0  0  0  0  0  0  0
  127.1010  131.8020   59.0310 C   0  0  0  0  0  0  0  0  0  0  0  0
  126.1030  131.3160   59.8990 N   0  0  0  0  0  0  0  0  0  0  0  0
  124.7720  131.5370   59.9000 C   0  0  0  0  0  0  0  0  0  0  0  0
  124.1630  132.2420   59.0950 O   0  0  0  0  0  0  0  0  0  0  0  0
  123.9910  130.8340   61.0120 C   0  0  0  0  0  0  0  0  0  0  0  0
  123.9270  131.8230   62.5360 S   0  0  0  0  0  0  0  0  0  0  0  0
  124.3170  130.7410   63.8930 C   0  0  0  0  0  0  0  0  0  0  0  0
  123.3820  130.7360   64.8750 N   0  0  0  0  0  0  0  0  0  0  0  0
  123.5810  129.9500   65.9600 C   0  0  0  0  0  0  0  0  0  0  0  0
  122.5000  130.0070   67.0230 C   0  0  0  0  0  0  0  0  0  0  0  0
  124.7030  129.1370   66.1030 C   0  0  0  0  0  0  0  0  0  0  0  0
  125.6630  129.1180   65.0860 C   0  0  0  0  0  0  0  0  0  0  0  0
  126.8770  128.2080   65.2570 C   0  0  0  0  0  0  0  0  0  0  0  0
  125.4740  129.9290   63.9420 C   0  0  0  0  0  0  0  0  0  0  0  0
  126.4420  129.8890   62.8420 C   0  0  0  0  0  0  0  0  0  0  0  0
  127.2070  129.8550   61.9750 N   0  0  0  0  0  0  0  0  0  0  0  0
  127.8980  132.9310   59.2750 C   0  0  0  0  0  0  0  0  0  0  0  0
  128.8560  133.3240   58.3440 C   0  0  0  0  0  0  0  0  0  0  0  0
  1  2  1  0
  2  3  1  0
  3  4  1  0
  4  5  2  0
  4  6  1  0
  6  7  2  0
  7  8  1  0
  8  9  2  0
  9 10  1  0
 10 11  1  0
 11 12  2  0
 11 13  1  0
 13 14  1  0
 14 15  1  0
 15 16  2  0
 16 17  1  0
 17 18  1  0
 17 19  2  0
 19 20  1  0
 20 21  1  0
 20 22  2  0
 22 23  1  0
 23 24  3  0
  9 25  1  0
 25 26  2  0
 26  6  1  0
 22 15  1  0
M  END
>  <Binding energies>  (1) 
[-7.82]

>  <Ligand effiencies>  (1) 
[-0.2896296296296296]

>  <Interactions>  (1) 
["V-B:GLU:543:CD:9876, V-A:PRO:540:N:4879, V-A:TYR:539:CE2:4871, V-A:PRO:540:CA:4878, V-A:TYR:539:CE1:4870, V-A:TYR:539:CZ:4872, V-A:PRO:540:CB:4880, V-A:LEU:363:CD1:3184, V-A:TYR:539:C:4862, V-A:PRO:540:CD:4882, V-A:TYR:539:CD2:4869, H-B:GLY:454:N:9017, H-A:TYR:539:N:4865, V-B:ASP:366:CG:8180, V-A:TYR:539:CD1:4868, V-A:TYR:539:CG:4867, V-A:TYR:539:CA:4864, V-B:ARG:545:CZ:9894, H-A:TYR:539:OH:4873, V-B:HIS:456:CE1:9037, V-B:ARG:545:CG:9890, V-B:ARG:545:CD:9891, V-B:GLY:453:CA:9011, V-B:GLY:453:C:9009, V-B:ILE:455:C:9019, V-B:ARG:545:CB:9889"]

$$$$
1aa_Ghoteimi_2023
     RDKit          3D

 40 43  0  0  0  0  0  0  0  0999 V2000
  129.3920  117.6490   59.9560 C   0  0  0  0  0  0  0  0  0  0  0  0
  130.1660  118.6640   60.8010 C   0  0  0  0  0  0  0  0  0  0  0  0
  130.5900  119.7420   59.9760 O   0  0  0  0  0  0  0  0  0  0  0  0
  131.8380  120.2650   60.0930 C   0  0  0  0  0  0  0  0  0  0  0  0
  132.7980  119.8910   59.4130 O   0  0  0  0  0  0  0  0  0  0  0  0
  131.9350  121.3440   61.1320 C   0  0  0  0  0  0  0  0  0  0  0  0
  133.0160  122.2380   61.1750 C   0  0  0  0  0  0  0  0  0  0  0  0
  133.0790  123.2300   62.1510 C   0  0  0  0  0  0  0  0  0  0  0  0
  132.0550  123.3480   63.1020 C   0  0  0  0  0  0  0  0  0  0  0  0
  132.0120  124.3070   64.1310 N   0  0  0  0  0  0  0  0  0  0  0  0
  133.0150  124.8920   64.8270 C   0  0  0  0  0  0  0  0  0  0  0  0
  134.2130  124.6680   64.6570 O   0  0  0  0  0  0  0  0  0  0  0  0
  132.6210  125.9120   65.9070 C   0  0  0  0  0  0  0  0  0  0  0  0
  131.4100  125.5090   66.5600 O   0  0  0  0  0  0  0  0  0  0  0  0
  130.4410  126.4480   66.8840 C   0  0  0  0  0  0  0  0  0  0  0  0
  130.3020  126.8000   68.1920 N   0  0  0  0  0  0  0  0  0  0  0  0
  129.3550  127.7070   68.5500 C   0  0  0  0  0  0  0  0  0  0  0  0
  129.2670  128.0430   70.0110 C   0  0  0  0  0  0  0  0  0  0  0  0
  129.1150  127.0360   70.9760 C   0  0  0  0  0  0  0  0  0  0  0  0
  129.0320  127.3450   72.3310 C   0  0  0  0  0  0  0  0  0  0  0  0
  129.1000  128.6680   72.7630 C   0  0  0  0  0  0  0  0  0  0  0  0
  129.0070  128.8790   74.1260 O   0  0  0  0  0  0  0  0  0  0  0  0
  128.1360  129.8940   74.6130 C   0  0  0  0  0  0  0  0  0  0  0  0
  129.2570  129.6850   71.8120 C   0  0  0  0  0  0  0  0  0  0  0  0
  129.3410  129.3720   70.4580 C   0  0  0  0  0  0  0  0  0  0  0  0
  128.5310  128.2980   67.5850 C   0  0  0  0  0  0  0  0  0  0  0  0
  128.6610  127.9620   66.2310 C   0  0  0  0  0  0  0  0  0  0  0  0
  127.7600  128.6360   65.2490 C   0  0  0  0  0  0  0  0  0  0  0  0
  126.4720  128.1400   65.0220 C   0  0  0  0  0  0  0  0  0  0  0  0
  125.6230  128.7690   64.1150 C   0  0  0  0  0  0  0  0  0  0  0  0
  126.0390  129.9050   63.4230 C   0  0  0  0  0  0  0  0  0  0  0  0
  125.1290  130.4610   62.5440 O   0  0  0  0  0  0  0  0  0  0  0  0
  123.7570  130.5260   62.9140 C   0  0  0  0  0  0  0  0  0  0  0  0
  127.3280  130.4100   63.6540 C   0  0  0  0  0  0  0  0  0  0  0  0
  128.1760  129.7800   64.5600 C   0  0  0  0  0  0  0  0  0  0  0  0
  129.6380  127.0030   65.8730 C   0  0  0  0  0  0  0  0  0  0  0  0
  129.8170  126.5560   64.4900 C   0  0  0  0  0  0  0  0  0  0  0  0
  129.9600  126.2020   63.3980 N   0  0  0  0  0  0  0  0  0  0  0  0
  130.9800  122.4590   63.0630 C   0  0  0  0  0  0  0  0  0  0  0  0
  130.9180  121.4680   62.0890 C   0  0  0  0  0  0  0  0  0  0  0  0
  1  2  1  0
  2  3  1  0
  3  4  1  0
  4  5  2  0
  4  6  1  0
  6  7  2  0
  7  8  1  0
  8  9  2  0
  9 10  1  0
 10 11  1  0
 11 12  2  0
 11 13  1  0
 13 14  1  0
 14 15  1  0
 15 16  2  0
 16 17  1  0
 17 18  1  0
 18 19  2  0
 19 20  1  0
 20 21  2  0
 21 22  1  0
 22 23  1  0
 21 24  1  0
 24 25  2  0
 17 26  2  0
 26 27  1  0
 27 28  1  0
 28 29  2  0
 29 30  1  0
 30 31  2  0
 31 32  1  0
 32 33  1  0
 31 34  1  0
 34 35  2  0
 27 36  2  0
 36 37  1  0
 37 38  3  0
  9 39  1  0
 39 40  2  0
 40  6  1  0
 36 15  1  0
 25 18  1  0
 35 28  1  0
M  END
>  <Binding energies>  (2) 
[-9.01]

>  <Ligand effiencies>  (2) 
[-0.2197560975609756]

>  <Interactions>  (2) 
["V-B:TYR:539:C:9835, V-B:TYR:539:CD2:9842, V-A:LEU:475:CD2:4254, V-A:TRP:381:CZ2:3365, V-B:TYR:539:CE2:9844, V-B:ALA:541:CB:9860, V-A:TRP:381:CH2:3367, V-A:PRO:482:CB:4321, V-B:GLU:543:CD:9876, V-A:GLU:543:CG:4902, V-A:GLU:543:CD:4903, H-A:TYR:484:OH:4343, V-B:TYR:539:CA:9837, V-A:TRP:381:CZ3:3366, V-B:ARG:545:CZ:9894, V-B:HIS:456:CE1:9037, V-A:HIS:456:CE1:4064, H-A:HIS:456:NE2:4065, H-B:LYS:547:NZ:9919, H-A:LYS:547:NZ:4946, V-B:LYS:547:CE:9918, V-B:HIS:456:CD2:9035, V-A:GLU:543:C:4897, V-A:ILE:369:CD1:3234, V-A:PRO:482:CG:4322, V-A:TRP:381:CE2:3362, V-A:ARG:545:CZ:4921, H-A:GLY:454:N:4045, V-A:ARG:545:CD:4918, V-A:ARG:545:CG:4917, V-B:TYR:539:CB:9839, V-A:TRP:381:CD2:3360, V-A:TRP:381:CE3:3363"]

$$$$
1b_Grossjean_2025
     RDKit          3D

 25 26  0  0  0  0  0  0  0  0999 V2000
  132.0060  131.7600   56.8220 C   0  0  0  0  0  0  0  0  0  0  0  0
  131.3060  132.9890   56.6730 O   0  0  0  0  0  0  0  0  0  0  0  0
  130.0420  133.0160   56.1790 C   0  0  0  0  0  0  0  0  0  0  0  0
  129.7690  133.3680   55.0270 O   0  0  0  0  0  0  0  0  0  0  0  0
  129.0070  132.5680   57.1710 C   0  0  0  0  0  0  0  0  0  0  0  0
  128.1070  131.5290   56.8860 C   0  0  0  0  0  0  0  0  0  0  0  0
  127.1600  131.1390   57.8270 C   0  0  0  0  0  0  0  0  0  0  0  0
  127.0900  131.7730   59.0680 C   0  0  0  0  0  0  0  0  0  0  0  0
  126.0920  131.2970   59.9400 N   0  0  0  0  0  0  0  0  0  0  0  0
  124.7460  131.3690   59.8450 C   0  0  0  0  0  0  0  0  0  0  0  0
  124.1210  131.8890   58.9210 O   0  0  0  0  0  0  0  0  0  0  0  0
  123.9730  130.7270   60.9980 C   0  0  0  0  0  0  0  0  0  0  0  0
  123.9570  131.7780   62.4820 S   0  0  0  0  0  0  0  0  0  0  0  0
  124.3380  130.7350   63.8740 C   0  0  0  0  0  0  0  0  0  0  0  0
  123.3790  130.7320   64.8320 N   0  0  0  0  0  0  0  0  0  0  0  0
  123.5650  129.9720   65.9360 C   0  0  0  0  0  0  0  0  0  0  0  0
  122.4440  130.0060   66.9590 C   0  0  0  0  0  0  0  0  0  0  0  0
  124.7080  129.1990   66.1330 C   0  0  0  0  0  0  0  0  0  0  0  0
  125.7130  129.2130   65.1600 C   0  0  0  0  0  0  0  0  0  0  0  0
  126.9640  128.3720   65.4050 C   0  0  0  0  0  0  0  0  0  0  0  0
  125.5400  130.0010   63.9990 C   0  0  0  0  0  0  0  0  0  0  0  0
  126.5980  130.0650   62.9870 C   0  0  0  0  0  0  0  0  0  0  0  0
  127.4350  130.1140   62.1900 N   0  0  0  0  0  0  0  0  0  0  0  0
  127.9860  132.8120   59.3600 C   0  0  0  0  0  0  0  0  0  0  0  0
  128.9340  133.2010   58.4180 C   0  0  0  0  0  0  0  0  0  0  0  0
  1  2  1  0
  2  3  1  0
  3  4  2  0
  3  5  1  0
  5  6  2  0
  6  7  1  0
  7  8  2  0
  8  9  1  0
  9 10  1  0
 10 11  2  0
 10 12  1  0
 12 13  1  0
 13 14  1  0
 14 15  2  0
 15 16  1  0
 16 17  1  0
 16 18  2  0
 18 19  1  0
 19 20  1  0
 19 21  2  0
 21 22  1  0
 22 23  3  0
  8 24  1  0
 24 25  2  0
 25  5  1  0
 21 14  1  0
M  END
>  <Binding energies>  (3) 
[-7.58]

>  <Ligand effiencies>  (3) 
[-0.2915384615384615]

>  <Interactions>  (3) 
["V-B:GLU:543:CD:9876, V-A:PRO:540:N:4879, V-A:TYR:539:CE2:4871, V-A:PRO:540:CA:4878, V-A:TYR:539:CE1:4870, V-A:TYR:539:CZ:4872, V-A:PRO:540:CB:4880, V-A:LEU:363:CD1:3184, V-A:TYR:539:C:4862, V-A:PRO:540:CD:4882, V-A:TYR:539:CD2:4869, H-B:GLY:454:N:9017, H-A:TYR:539:N:4865, V-B:ASP:366:CG:8180, V-A:TYR:539:CD1:4868, V-A:TYR:539:CG:4867, V-A:TYR:539:CA:4864, V-B:ARG:545:CZ:9894, H-A:TYR:539:OH:4873, V-B:HIS:456:CE1:9037, V-B:ARG:545:CG:9890, V-B:ARG:545:CD:9891, V-B:GLY:453:CA:9011, V-B:GLY:453:C:9009, V-B:ILE:455:C:9019, V-B:ARG:545:CB:9889"]

$$$$
1c_Grossjean_2025
     RDKit          3D

 23 24  0  0  0  0  0  0  0  0999 V2000
  129.9830  132.8450   55.1390 C   0  0  0  0  0  0  0  0  0  0  0  0
  130.0210  133.1850   56.5210 O   0  0  0  0  0  0  0  0  0  0  0  0
  129.0240  132.7180   57.3570 C   0  0  0  0  0  0  0  0  0  0  0  0
  128.8710  133.3820   58.5730 C   0  0  0  0  0  0  0  0  0  0  0  0
  127.8940  132.9860   59.4820 C   0  0  0  0  0  0  0  0  0  0  0  0
  127.0450  131.9120   59.1760 C   0  0  0  0  0  0  0  0  0  0  0  0
  126.0330  131.4230   60.0240 N   0  0  0  0  0  0  0  0  0  0  0  0
  124.6920  131.5130   59.8990 C   0  0  0  0  0  0  0  0  0  0  0  0
  124.0960  132.0490   58.9650 O   0  0  0  0  0  0  0  0  0  0  0  0
  123.8830  130.8750   61.0300 C   0  0  0  0  0  0  0  0  0  0  0  0
  123.9810  131.8460   62.5630 S   0  0  0  0  0  0  0  0  0  0  0  0
  124.3380  130.7360   63.9100 C   0  0  0  0  0  0  0  0  0  0  0  0
  123.3880  130.7410   64.8800 N   0  0  0  0  0  0  0  0  0  0  0  0
  123.5510  129.9360   65.9560 C   0  0  0  0  0  0  0  0  0  0  0  0
  122.4440  129.9890   66.9910 C   0  0  0  0  0  0  0  0  0  0  0  0
  124.6610  129.1100   66.1150 C   0  0  0  0  0  0  0  0  0  0  0  0
  125.6580  129.1150   65.1340 C   0  0  0  0  0  0  0  0  0  0  0  0
  126.8740  128.2130   65.3400 C   0  0  0  0  0  0  0  0  0  0  0  0
  125.5100  129.9500   64.0020 C   0  0  0  0  0  0  0  0  0  0  0  0
  126.5700  130.0090   62.9920 C   0  0  0  0  0  0  0  0  0  0  0  0
  127.4070  130.0560   62.1950 N   0  0  0  0  0  0  0  0  0  0  0  0
  127.2030  131.2370   57.9640 C   0  0  0  0  0  0  0  0  0  0  0  0
  128.1820  131.6360   57.0580 C   0  0  0  0  0  0  0  0  0  0  0  0
  1  2  1  0
  2  3  1  0
  3  4  2  0
  4  5  1  0
  5  6  2  0
  6  7  1  0
  7  8  1  0
  8  9  2  0
  8 10  1  0
 10 11  1  0
 11 12  1  0
 12 13  2  0
 13 14  1  0
 14 15  1  0
 14 16  2  0
 16 17  1  0
 17 18  1  0
 17 19  2  0
 19 20  1  0
 20 21  3  0
  6 22  1  0
 22 23  2  0
 23  3  1  0
 19 12  1  0
M  END
>  <Binding energies>  (4) 
[-6.92]

>  <Ligand effiencies>  (4) 
[-0.28833333333333333]

>  <Interactions>  (4) 
["V-B:GLU:543:CD:9876, V-A:PRO:540:N:4879, V-A:TYR:539:CE2:4871, V-A:PRO:540:CA:4878, V-A:TYR:539:CE1:4870, V-A:TYR:539:CZ:4872, V-A:TYR:539:C:4862, V-A:TYR:539:CD2:4869, H-B:GLY:454:N:9017, V-B:ILE:369:CD1:8206, H-A:TYR:539:N:4865, V-B:ASP:366:CG:8180, V-A:TYR:539:CD1:4868, V-A:TYR:539:CG:4867, V-A:TYR:539:CA:4864, V-B:ARG:545:CZ:9894, H-A:TYR:539:OH:4873, V-A:ILE:538:CA:4855, V-B:HIS:456:CE1:9037, V-B:ARG:545:CG:9890, V-B:ARG:545:CD:9891, V-B:GLY:453:CA:9011, V-B:GLY:453:C:9009, V-B:ILE:455:C:9019, V-B:ARG:545:CB:9889"]

$$$$
1d_Grossjean_2025
     RDKit          3D

 21 22  0  0  0  0  0  0  0  0999 V2000
  128.2710  122.6940   56.1110 C   0  0  0  0  0  0  0  0  0  0  0  0
  127.4110  123.0250   57.3150 C   0  0  0  0  0  0  0  0  0  0  0  0
  126.0920  123.4520   57.1750 C   0  0  0  0  0  0  0  0  0  0  0  0
  125.3420  123.7330   58.3220 C   0  0  0  0  0  0  0  0  0  0  0  0
  123.8940  124.1850   58.1430 C   0  0  0  0  0  0  0  0  0  0  0  0
  125.9430  123.5860   59.5930 C   0  0  0  0  0  0  0  0  0  0  0  0
  125.1630  123.8290   60.8090 C   0  0  0  0  0  0  0  0  0  0  0  0
  124.5440  124.0210   61.7680 N   0  0  0  0  0  0  0  0  0  0  0  0
  127.2950  123.1710   59.6400 C   0  0  0  0  0  0  0  0  0  0  0  0
  128.2060  122.9360   61.1500 S   0  0  0  0  0  0  0  0  0  0  0  0
  129.0800  121.3470   61.0140 C   0  0  0  0  0  0  0  0  0  0  0  0
  130.3450  121.4560   60.1610 C   0  0  0  0  0  0  0  0  0  0  0  0
  131.0980  120.4850   60.0760 O   0  0  0  0  0  0  0  0  0  0  0  0
  130.5200  122.6400   59.5360 N   0  0  0  0  0  0  0  0  0  0  0  0
  131.5680  123.0730   58.7030 C   0  0  0  0  0  0  0  0  0  0  0  0
  131.1950  123.9010   57.6400 C   0  0  0  0  0  0  0  0  0  0  0  0
  132.1540  124.3900   56.7590 C   0  0  0  0  0  0  0  0  0  0  0  0
  133.4940  124.0580   56.9430 C   0  0  0  0  0  0  0  0  0  0  0  0
  133.8810  123.2420   58.0030 C   0  0  0  0  0  0  0  0  0  0  0  0
  132.9230  122.7500   58.8860 C   0  0  0  0  0  0  0  0  0  0  0  0
  128.0070  122.8800   58.5220 N   0  0  0  0  0  0  0  0  0  0  0  0
  1  2  1  0
  2  3  2  0
  3  4  1  0
  4  5  1  0
  4  6  2  0
  6  7  1  0
  7  8  3  0
  6  9  1  0
  9 10  1  0
 10 11  1  0
 11 12  1  0
 12 13  2  0
 12 14  1  0
 14 15  1  0
 15 16  2  0
 16 17  1  0
 17 18  2  0
 18 19  1  0
 19 20  2  0
  9 21  2  0
 21  2  1  0
 20 15  1  0
M  END
>  <Binding energies>  (5) 
[-6.69]

>  <Ligand effiencies>  (5) 
[-0.30409090909090913]

>  <Interactions>  (5) 
["V-B:TYR:539:C:9835, V-B:TYR:539:CD2:9842, V-B:PRO:540:C:9849, V-B:TYR:539:CE2:9844, V-B:PRO:540:N:9852, V-B:ALA:541:CB:9860, V-B:PRO:540:CA:9851, V-B:MET:535:CE:9803, V-B:PRO:540:CB:9853, H-B:ALA:541:N:9859, V-B:ALA:541:CA:9858, V-A:TYR:531:CZ:4789, V-A:ASP:366:CB:3207, V-B:LEU:363:CB:8154, V-B:ASP:366:CG:8180, V-B:LEU:363:CD1:8156, V-B:TYR:539:CZ:9845, V-B:ASP:366:CB:8179, V-B:LEU:363:CA:8152, V-B:TYR:539:CE1:9843, V-A:ILE:369:CD1:3234, V-A:ILE:369:CG2:3232, H-B:ARG:545:NH2:9896, V-A:ILE:369:CB:3231, V-A:TYR:531:CE1:4787, V-A:ASP:366:CA:3205, V-A:ASP:366:C:3203, V-B:TYR:539:CD1:9841, V-B:TYR:539:CG:9840"]

$$$$
1e_Grossjean_2025
     RDKit          3D

 22 23  0  0  0  0  0  0  0  0999 V2000
  135.0710  125.0010   66.6160 C   0  0  0  0  0  0  0  0  0  0  0  0
  133.9070  125.1490   65.6540 C   0  0  0  0  0  0  0  0  0  0  0  0
  132.6350  125.5240   66.0970 C   0  0  0  0  0  0  0  0  0  0  0  0
  131.6120  125.6370   65.1550 C   0  0  0  0  0  0  0  0  0  0  0  0
  131.8800  125.3750   63.8090 C   0  0  0  0  0  0  0  0  0  0  0  0
  133.1770  125.0080   63.4330 C   0  0  0  0  0  0  0  0  0  0  0  0
  133.3830  124.7460   62.0670 N   0  0  0  0  0  0  0  0  0  0  0  0
  133.5430  123.5520   61.4550 C   0  0  0  0  0  0  0  0  0  0  0  0
  133.5450  122.4600   62.0260 O   0  0  0  0  0  0  0  0  0  0  0  0
  133.7660  123.6040   59.9420 C   0  0  0  0  0  0  0  0  0  0  0  0
  133.0730  122.1480   59.1020 S   0  0  0  0  0  0  0  0  0  0  0  0
  131.5070  121.7480   59.8520 C   0  0  0  0  0  0  0  0  0  0  0  0
  131.3600  120.4260   60.1240 N   0  0  0  0  0  0  0  0  0  0  0  0
  130.2080  120.0000   60.6930 C   0  0  0  0  0  0  0  0  0  0  0  0
  130.1210  118.5130   60.9740 C   0  0  0  0  0  0  0  0  0  0  0  0
  129.1590  120.8630   61.0020 C   0  0  0  0  0  0  0  0  0  0  0  0
  129.2890  122.2240   60.7040 C   0  0  0  0  0  0  0  0  0  0  0  0
  128.1170  123.1460   61.0360 C   0  0  0  0  0  0  0  0  0  0  0  0
  130.4820  122.6910   60.1060 C   0  0  0  0  0  0  0  0  0  0  0  0
  130.6100  124.1020   59.7350 C   0  0  0  0  0  0  0  0  0  0  0  0
  130.7090  125.2170   59.4420 N   0  0  0  0  0  0  0  0  0  0  0  0
  134.1820  124.8920   64.3500 N   0  0  0  0  0  0  0  0  0  0  0  0
  1  2  1  0
  2  3  2  0
  3  4  1  0
  4  5  2  0
  5  6  1  0
  6  7  1  0
  7  8  1  0
  8  9  2  0
  8 10  1  0
 10 11  1  0
 11 12  1  0
 12 13  2  0
 13 14  1  0
 14 15  1  0
 14 16  2  0
 16 17  1  0
 17 18  1  0
 17 19  2  0
 19 20  1  0
 20 21  3  0
  6 22  2  0
 22  2  1  0
 19 12  1  0
M  END
>  <Binding energies>  (6) 
[-7.14]

>  <Ligand effiencies>  (6) 
[-0.3104347826086956]

>  <Interactions>  (6) 
["V-B:TYR:539:C:9835, V-B:TYR:539:CD2:9842, V-A:LEU:475:CD2:4254, V-A:TRP:381:CZ2:3365, V-B:PRO:540:C:9849, V-B:TYR:539:CE2:9844, V-B:ALA:541:CB:9860, V-A:TRP:381:CH2:3367, V-B:PRO:540:CA:9851, V-A:PRO:482:CB:4321, V-B:ALA:541:CA:9858, V-A:ASP:366:CB:3207, V-A:ASP:366:CG:3208, H-A:TYR:484:OH:4343, V-A:HIS:456:CE1:4064, V-A:ILE:369:CD1:3234, V-A:PRO:482:CG:4322, V-A:ASP:366:CA:3205, V-A:TRP:381:CE2:3362, V-A:ARG:545:CZ:4921, V-A:GLY:453:CA:4039, H-A:GLY:454:N:4045, V-A:ARG:545:CD:4918, V-A:ARG:545:CG:4917, H-A:ARG:545:NH1:4922, V-A:GLY:453:C:4037, V-A:HIS:456:CD2:4063, H-A:ASP:366:OD1:3209, H-A:ASP:366:OD2:3210"]

$$$$
1f_Grossjean_2025
     RDKit          3D

 21 22  0  0  0  0  0  0  0  0999 V2000
  128.2260  122.4980   61.2430 C   0  0  0  0  0  0  0  0  0  0  0  0
  129.5500  122.5130   60.5020 C   0  0  0  0  0  0  0  0  0  0  0  0
  130.4000  121.4100   60.5060 C   0  0  0  0  0  0  0  0  0  0  0  0
  131.6140  121.4860   59.8140 C   0  0  0  0  0  0  0  0  0  0  0  0
  132.5380  120.2710   59.8490 C   0  0  0  0  0  0  0  0  0  0  0  0
  131.9430  122.6750   59.1230 C   0  0  0  0  0  0  0  0  0  0  0  0
  133.2340  122.7930   58.4400 C   0  0  0  0  0  0  0  0  0  0  0  0
  134.2530  122.8850   57.9010 N   0  0  0  0  0  0  0  0  0  0  0  0
  131.0060  123.7350   59.1490 C   0  0  0  0  0  0  0  0  0  0  0  0
  131.2460  125.3030   58.3390 S   0  0  0  0  0  0  0  0  0  0  0  0
  131.1740  125.0360   56.5340 C   0  0  0  0  0  0  0  0  0  0  0  0
  129.8420  124.4720   56.0170 C   0  0  0  0  0  0  0  0  0  0  0  0
  129.6510  124.3290   54.8090 O   0  0  0  0  0  0  0  0  0  0  0  0
  128.9400  124.1900   56.9810 N   0  0  0  0  0  0  0  0  0  0  0  0
  127.6400  123.6610   56.8680 C   0  0  0  0  0  0  0  0  0  0  0  0
  126.4550  124.3070   57.2680 C   0  0  0  0  0  0  0  0  0  0  0  0
  125.2250  123.6650   57.0930 C   0  0  0  0  0  0  0  0  0  0  0  0
  125.2110  122.3930   56.5210 C   0  0  0  0  0  0  0  0  0  0  0  0
  126.3370  121.7520   56.1230 N   0  0  0  0  0  0  0  0  0  0  0  0
  127.5240  122.3880   56.2990 C   0  0  0  0  0  0  0  0  0  0  0  0
  129.8430  123.6590   59.8430 N   0  0  0  0  0  0  0  0  0  0  0  0
  1  2  1  0
  2  3  2  0
  3  4  1  0
  4  5  1  0
  4  6  2  0
  6  7  1  0
  7  8  3  0
  6  9  1  0
  9 10  1  0
 10 11  1  0
 11 12  1  0
 12 13  2  0
 12 14  1  0
 14 15  1  0
 15 16  2  0
 16 17  1  0
 17 18  2  0
 18 19  1  0
 19 20  2  0
  9 21  2  0
 21  2  1  0
 20 15  1  0
M  END
>  <Binding energies>  (7) 
[-6.46]

>  <Ligand effiencies>  (7) 
[-0.29363636363636364]

>  <Interactions>  (7) 
["V-B:TYR:539:C:9835, V-B:TYR:539:CD2:9842, V-A:LEU:475:CD2:4254, V-B:PRO:540:C:9849, V-B:TYR:539:CE2:9844, V-B:PRO:540:N:9852, V-B:ALA:541:CB:9860, V-A:TRP:381:CH2:3367, V-B:PRO:540:CA:9851, V-B:MET:535:CE:9803, V-B:PRO:540:CB:9853, V-B:ALA:541:CA:9858, V-A:TYR:531:CZ:4789, H-B:TYR:539:N:9838, V-B:TYR:539:CA:9837, V-B:PRO:540:CD:9855, V-B:LEU:363:CD1:8156, V-B:TYR:539:CZ:9845, V-B:TYR:539:CE1:9843, V-A:ILE:369:CD1:3234, V-A:ILE:369:CG2:3232, V-A:ILE:369:CB:3231, V-A:TYR:531:CE1:4787, H-A:TYR:531:OH:4790, H-B:TYR:539:OH:9846, H-A:LYS:534:NZ:4818, V-B:TYR:539:CD1:9841, V-B:TYR:539:CG:9840, V-B:ILE:538:CG2:9831"]

$$$$
1g_Grossjean_2025
     RDKit          3D

 22 23  0  0  0  0  0  0  0  0999 V2000
  129.9220  121.9150   60.8010 C   0  0  0  0  0  0  0  0  0  0  0  0
  128.7870  122.5080   59.9870 C   0  0  0  0  0  0  0  0  0  0  0  0
  127.7040  123.1390   60.5960 C   0  0  0  0  0  0  0  0  0  0  0  0
  126.6790  123.6530   59.7950 C   0  0  0  0  0  0  0  0  0  0  0  0
  125.4940  124.3270   60.4860 C   0  0  0  0  0  0  0  0  0  0  0  0
  126.7700  123.5280   58.3900 C   0  0  0  0  0  0  0  0  0  0  0  0
  125.6840  124.0120   57.5340 C   0  0  0  0  0  0  0  0  0  0  0  0
  124.8240  124.3940   56.8600 N   0  0  0  0  0  0  0  0  0  0  0  0
  127.9180  122.8950   57.8570 C   0  0  0  0  0  0  0  0  0  0  0  0
  128.2000  122.6620   56.1160 S   0  0  0  0  0  0  0  0  0  0  0  0
  128.7060  124.2680   55.4320 C   0  0  0  0  0  0  0  0  0  0  0  0
  130.2100  124.5030   55.5740 C   0  0  0  0  0  0  0  0  0  0  0  0
  130.8300  125.0900   54.6850 O   0  0  0  0  0  0  0  0  0  0  0  0
  130.7820  124.0340   56.6970 N   0  0  0  0  0  0  0  0  0  0  0  0
  132.1880  124.1980   57.0650 C   0  0  0  0  0  0  0  0  0  0  0  0
  132.5180  123.7700   58.4910 C   0  0  0  0  0  0  0  0  0  0  0  0
  132.9590  122.4670   58.7440 C   0  0  0  0  0  0  0  0  0  0  0  0
  133.2610  122.0760   60.0460 C   0  0  0  0  0  0  0  0  0  0  0  0
  133.1250  122.9890   61.0900 C   0  0  0  0  0  0  0  0  0  0  0  0
  132.6910  124.2900   60.8440 C   0  0  0  0  0  0  0  0  0  0  0  0
  132.3870  124.6820   59.5420 C   0  0  0  0  0  0  0  0  0  0  0  0
  128.8970  122.3790   58.6440 N   0  0  0  0  0  0  0  0  0  0  0  0
  1  2  1  0
  2  3  2  0
  3  4  1  0
  4  5  1  0
  4  6  2  0
  6  7  1  0
  7  8  3  0
  6  9  1  0
  9 10  1  0
 10 11  1  0
 11 12  1  0
 12 13  2  0
 12 14  1  0
 14 15  1  0
 15 16  1  0
 16 17  2  0
 17 18  1  0
 18 19  2  0
 19 20  1  0
 20 21  2  0
  9 22  2  0
 22  2  1  0
 21 16  1  0
M  END
>  <Binding energies>  (8) 
[-6.68]

>  <Ligand effiencies>  (8) 
[-0.29043478260869565]

>  <Interactions>  (8) 
["V-B:TYR:539:C:9835, V-B:TYR:539:CE2:9844, V-B:PRO:540:N:9852, V-B:PRO:540:CA:9851, V-B:MET:535:CE:9803, V-B:PRO:540:CB:9853, V-A:TYR:531:CZ:4789, V-A:ASP:366:CB:3207, V-A:ASP:366:CG:3208, V-B:TYR:539:CZ:9845, V-A:ILE:369:CD1:3234, V-A:ILE:369:CG2:3232, V-A:ILE:369:CB:3231, V-A:TYR:531:CE1:4787, H-A:TYR:531:OH:4790, H-B:TYR:539:OH:9846, H-A:LYS:534:NZ:4818, H-B:TYR:531:OH:9763"]

$$$$
1h_Grossjean_2025
     RDKit          3D

 28 29  0  0  0  0  0  0  0  0999 V2000
  134.6030  124.0000   62.1940 C   0  0  0  0  0  0  0  0  0  0  0  0
  134.2180  124.5040   63.4680 O   0  0  0  0  0  0  0  0  0  0  0  0
  132.9110  124.3490   63.8930 C   0  0  0  0  0  0  0  0  0  0  0  0
  131.9420  123.6110   63.1950 C   0  0  0  0  0  0  0  0  0  0  0  0
  130.6370  123.5090   63.6770 C   0  0  0  0  0  0  0  0  0  0  0  0
  129.6000  122.6850   62.9200 C   0  0  0  0  0  0  0  0  0  0  0  0
  129.2580  123.2230   61.6040 N   0  0  0  0  0  0  0  0  0  0  0  0
  128.0150  123.3020   61.0950 C   0  0  0  0  0  0  0  0  0  0  0  0
  127.0050  122.9470   61.7030 O   0  0  0  0  0  0  0  0  0  0  0  0
  127.8920  123.8630   59.6780 C   0  0  0  0  0  0  0  0  0  0  0  0
  128.6130  122.7450   58.4390 S   0  0  0  0  0  0  0  0  0  0  0  0
  130.3910  122.8590   58.5570 C   0  0  0  0  0  0  0  0  0  0  0  0
  130.9570  122.1920   59.5970 N   0  0  0  0  0  0  0  0  0  0  0  0
  132.3020  122.2330   59.7430 C   0  0  0  0  0  0  0  0  0  0  0  0
  132.8590  121.4610   60.9240 C   0  0  0  0  0  0  0  0  0  0  0  0
  133.1320  122.9350   58.8720 C   0  0  0  0  0  0  0  0  0  0  0  0
  132.5620  123.6280   57.7990 C   0  0  0  0  0  0  0  0  0  0  0  0
  133.4900  124.3880   56.8550 C   0  0  0  0  0  0  0  0  0  0  0  0
  131.1590  123.5970   57.6270 C   0  0  0  0  0  0  0  0  0  0  0  0
  130.5330  124.3160   56.5140 C   0  0  0  0  0  0  0  0  0  0  0  0
  130.0390  124.8840   55.6340 N   0  0  0  0  0  0  0  0  0  0  0  0
  130.3000  124.1180   64.8870 C   0  0  0  0  0  0  0  0  0  0  0  0
  131.2500  124.8570   65.6090 C   0  0  0  0  0  0  0  0  0  0  0  0
  130.9860  125.4880   66.8110 O   0  0  0  0  0  0  0  0  0  0  0  0
  130.1030  126.6040   66.8370 C   0  0  0  0  0  0  0  0  0  0  0  0
  132.5500  124.9750   65.0950 C   0  0  0  0  0  0  0  0  0  0  0  0
  133.4920  125.6900   65.7940 O   0  0  0  0  0  0  0  0  0  0  0  0
  134.5330  124.8940   66.3420 C   0  0  0  0  0  0  0  0  0  0  0  0
  1  2  1  0
  2  3  1  0
  3  4  2  0
  4  5  1  0
  5  6  1  0
  6  7  1  0
  7  8  1  0
  8  9  2  0
  8 10  1  0
 10 11  1  0
 11 12  1  0
 12 13  2  0
 13 14  1  0
 14 15  1  0
 14 16  2  0
 16 17  1  0
 17 18  1  0
 17 19  2  0
 19 20  1  0
 20 21  3  0
  5 22  2  0
 22 23  1  0
 23 24  1  0
 24 25  1  0
 23 26  2  0
 26 27  1  0
 27 28  1  0
 26  3  1  0
 19 12  1  0
M  END
>  <Binding energies>  (9) 
[-6.78]

>  <Ligand effiencies>  (9) 
[-0.23379310344827586]

>  <Interactions>  (9) 
["V-B:TYR:539:CD2:9842, V-A:LEU:475:CD2:4254, V-B:TYR:539:CE2:9844, V-B:ALA:541:CB:9860, H-B:ALA:541:N:9859, V-B:GLU:543:CD:9876, V-A:TYR:531:CZ:4789, V-A:ASP:366:CB:3207, V-A:ASP:366:CG:3208, H-A:TYR:484:OH:4343, V-B:GLU:543:CG:9875, V-B:TYR:539:CZ:9845, V-A:TYR:484:CZ:4342, H-A:HIS:456:NE2:4065, V-A:ILE:369:CD1:3234, V-A:ILE:369:CG2:3232, V-A:TYR:531:CE1:4787, V-A:ASP:366:CA:3205, V-A:ASP:366:C:3203, H-B:TYR:539:OH:9846, V-A:GLY:453:CA:4039, H-A:GLY:454:N:4045, V-A:GLY:454:CA:4044, H-A:LYS:534:NZ:4818, V-A:ARG:545:CD:4918, V-A:ARG:545:CG:4917, H-A:ARG:545:NE:4919, V-A:GLY:453:C:4037, V-A:HIS:456:CD2:4063, V-A:ASN:370:CB:3240"]

$$$$
1i_Grossjean_2025
     RDKit          3D

 20 21  0  0  0  0  0  0  0  0999 V2000
  128.2630  122.1470   60.5730 C   0  0  0  0  0  0  0  0  0  0  0  0
  129.6780  122.3520   60.0650 C   0  0  0  0  0  0  0  0  0  0  0  0
  130.7100  121.4830   60.4110 C   0  0  0  0  0  0  0  0  0  0  0  0
  131.9940  121.7160   59.9040 C   0  0  0  0  0  0  0  0  0  0  0  0
  133.1060  120.7400   60.2840 C   0  0  0  0  0  0  0  0  0  0  0  0
  132.2120  122.8290   59.0600 C   0  0  0  0  0  0  0  0  0  0  0  0
  133.5360  123.0630   58.4780 C   0  0  0  0  0  0  0  0  0  0  0  0
  134.5830  123.2440   58.0180 N   0  0  0  0  0  0  0  0  0  0  0  0
  131.1100  123.6720   58.7820 C   0  0  0  0  0  0  0  0  0  0  0  0
  131.2050  125.1130   57.7430 S   0  0  0  0  0  0  0  0  0  0  0  0
  131.0020  124.5650   56.0210 C   0  0  0  0  0  0  0  0  0  0  0  0
  129.5490  124.2080   55.6980 C   0  0  0  0  0  0  0  0  0  0  0  0
  129.0310  124.6570   54.6750 O   0  0  0  0  0  0  0  0  0  0  0  0
  128.9350  123.4010   56.5910 N   0  0  0  0  0  0  0  0  0  0  0  0
  127.6300  122.9330   56.5430 C   0  0  0  0  0  0  0  0  0  0  0  0
  126.5610  123.5970   57.1400 C   0  0  0  0  0  0  0  0  0  0  0  0
  125.4590  122.8200   56.8680 C   0  0  0  0  0  0  0  0  0  0  0  0
  125.8450  121.7420   56.1450 O   0  0  0  0  0  0  0  0  0  0  0  0
  127.2240  121.8240   55.9460 N   0  0  0  0  0  0  0  0  0  0  0  0
  129.8650  123.4260   59.2620 N   0  0  0  0  0  0  0  0  0  0  0  0
  1  2  1  0
  2  3  2  0
  3  4  1  0
  4  5  1  0
  4  6  2  0
  6  7  1  0
  7  8  3  0
  6  9  1  0
  9 10  1  0
 10 11  1  0
 11 12  1  0
 12 13  2  0
 12 14  1  0
 14 15  1  0
 15 16  1  0
 16 17  2  0
 17 18  1  0
 18 19  1  0
  9 20  2  0
 20  2  1  0
 19 15  2  0
M  END
>  <Binding energies>  (10) 
[-6.82]

>  <Ligand effiencies>  (10) 
[-0.32476190476190475]

>  <Interactions>  (10) 
["V-B:TYR:539:C:9835, V-B:TYR:539:CD2:9842, V-A:LEU:475:CD2:4254, V-B:PRO:540:C:9849, V-B:TYR:539:CE2:9844, V-B:PRO:540:N:9852, V-B:ALA:541:CB:9860, V-A:TRP:381:CH2:3367, V-B:PRO:540:CA:9851, V-B:MET:535:CE:9803, V-B:PRO:540:CB:9853, V-A:TYR:531:CZ:4789, H-B:TYR:539:N:9838, V-B:PRO:540:CD:9855, V-B:TYR:539:CZ:9845, V-B:TYR:539:CE1:9843, V-A:ILE:369:CD1:3234, V-A:ILE:369:CG2:3232, V-A:ILE:369:CB:3231, V-A:TYR:531:CE1:4787, H-A:TYR:531:OH:4790, H-A:LYS:534:NZ:4818"]

$$$$
1k_Grossjean_2025
     RDKit          3D

 25 25  0  0  0  0  0  0  0  0999 V2000
  128.4430  133.3900   59.7730 C   0  0  0  0  0  0  0  0  0  0  0  0
  128.5010  133.3280   58.3570 O   0  0  0  0  0  0  0  0  0  0  0  0
  129.6990  132.7430   57.8640 C   0  0  0  0  0  0  0  0  0  0  0  0
  129.7920  132.9630   56.3480 C   0  0  0  0  0  0  0  0  0  0  0  0
  131.1090  133.3800   56.0110 O   0  0  0  0  0  0  0  0  0  0  0  0
  131.7820  132.4880   55.1320 C   0  0  0  0  0  0  0  0  0  0  0  0
  130.7980  131.4210   54.6360 C   0  0  0  0  0  0  0  0  0  0  0  0
  131.1990  130.1450   55.1190 O   0  0  0  0  0  0  0  0  0  0  0  0
  130.3460  129.6220   56.1280 C   0  0  0  0  0  0  0  0  0  0  0  0
  129.3660  128.6120   55.5030 C   0  0  0  0  0  0  0  0  0  0  0  0
  129.7800  127.2150   55.6450 N   0  0  0  0  0  0  0  0  0  0  0  0
  128.9450  126.1650   55.7360 C   0  0  0  0  0  0  0  0  0  0  0  0
  127.7180  126.2760   55.7030 O   0  0  0  0  0  0  0  0  0  0  0  0
  129.6200  124.7930   55.8920 C   0  0  0  0  0  0  0  0  0  0  0  0
  128.4890  123.3770   56.1220 S   0  0  0  0  0  0  0  0  0  0  0  0
  127.9830  123.3030   57.8350 C   0  0  0  0  0  0  0  0  0  0  0  0
  128.9120  122.8350   58.7080 N   0  0  0  0  0  0  0  0  0  0  0  0
  128.5900  122.7440   60.0190 C   0  0  0  0  0  0  0  0  0  0  0  0
  129.6760  122.2040   60.9290 C   0  0  0  0  0  0  0  0  0  0  0  0
  127.3430  123.1190   60.5140 C   0  0  0  0  0  0  0  0  0  0  0  0
  126.3800  123.6100   59.6260 C   0  0  0  0  0  0  0  0  0  0  0  0
  125.0190  124.0160   60.1890 C   0  0  0  0  0  0  0  0  0  0  0  0
  126.6940  123.7090   58.2530 C   0  0  0  0  0  0  0  0  0  0  0  0
  125.7030  124.2160   57.2990 C   0  0  0  0  0  0  0  0  0  0  0  0
  124.9200  124.6170   56.5470 N   0  0  0  0  0  0  0  0  0  0  0  0
  1  2  1  0
  2  3  1  0
  3  4  1  0
  4  5  1  0
  5  6  1  0
  6  7  1  0
  7  8  1  0
  8  9  1  0
  9 10  1  0
 10 11  1  0
 11 12  1  0
 12 13  2  0
 12 14  1  0
 14 15  1  0
 15 16  1  0
 16 17  2  0
 17 18  1  0
 18 19  1  0
 18 20  2  0
 20 21  1  0
 21 22  1  0
 21 23  2  0
 23 24  1  0
 24 25  3  0
 23 16  1  0
M  END
>  <Binding energies>  (11) 
[-5.99]

>  <Ligand effiencies>  (11) 
[-0.23038461538461538]

>  <Interactions>  (11) 
["V-B:PRO:540:C:9849, V-B:PRO:540:CA:9851, V-B:MET:535:CE:9803, V-B:PRO:540:CB:9853, V-A:PRO:540:N:4879, V-A:TYR:531:CZ:4789, V-A:TYR:539:CE2:4871, V-A:PRO:540:CA:4878, V-A:TYR:539:CE1:4870, V-A:PRO:540:CB:4880, V-A:LEU:363:CD1:3184, V-A:TYR:539:C:4862, V-A:TYR:539:CD2:4869, H-A:TYR:539:N:4865, V-A:TYR:539:CD1:4868, V-A:TYR:539:CG:4867, V-A:ILE:538:CG2:4858, V-A:ILE:538:CA:4855, V-A:TYR:531:CE1:4787, H-A:TYR:531:OH:4790, V-A:ILE:538:CD1:4860, H-B:TYR:531:OH:9763"]

$$$$
1l_Grossjean_2025
     RDKit          3D

 17 17  0  0  0  0  0  0  0  0999 V2000
  123.8060  124.6240   57.9160 C   0  0  0  0  0  0  0  0  0  0  0  0
  124.3770  123.3400   57.7060 O   0  0  0  0  0  0  0  0  0  0  0  0
  125.7600  123.4510   57.5710 N   0  0  0  0  0  0  0  0  0  0  0  0
  126.4180  122.5470   56.8210 C   0  0  0  0  0  0  0  0  0  0  0  0
  125.8590  121.7540   56.0580 O   0  0  0  0  0  0  0  0  0  0  0  0
  127.9470  122.5700   56.9630 C   0  0  0  0  0  0  0  0  0  0  0  0
  128.5840  123.6830   58.2610 S   0  0  0  0  0  0  0  0  0  0  0  0
  130.3650  123.5680   58.2670 C   0  0  0  0  0  0  0  0  0  0  0  0
  130.9190  123.0420   59.3900 N   0  0  0  0  0  0  0  0  0  0  0  0
  132.2660  122.9260   59.4620 C   0  0  0  0  0  0  0  0  0  0  0  0
  132.8090  122.3300   60.7470 C   0  0  0  0  0  0  0  0  0  0  0  0
  133.1110  123.3240   58.4290 C   0  0  0  0  0  0  0  0  0  0  0  0
  132.5530  123.8660   57.2660 C   0  0  0  0  0  0  0  0  0  0  0  0
  133.4980  124.2940   56.1450 C   0  0  0  0  0  0  0  0  0  0  0  0
  131.1490  123.9960   57.1710 C   0  0  0  0  0  0  0  0  0  0  0  0
  130.5370  124.5600   55.9640 C   0  0  0  0  0  0  0  0  0  0  0  0
  130.0550  125.0060   55.0110 N   0  0  0  0  0  0  0  0  0  0  0  0
  1  2  1  0
  2  3  1  0
  3  4  1  0
  4  5  2  0
  4  6  1  0
  6  7  1  0
  7  8  1  0
  8  9  2  0
  9 10  1  0
 10 11  1  0
 10 12  2  0
 12 13  1  0
 13 14  1  0
 13 15  2  0
 15 16  1  0
 16 17  3  0
 15  8  1  0
M  END
>  <Binding energies>  (12) 
[-5.82]

>  <Ligand effiencies>  (12) 
[-0.32333333333333336]

>  <Interactions>  (12) 
["V-B:TYR:539:C:9835, V-B:TYR:539:CE2:9844, V-B:PRO:540:N:9852, V-B:PRO:540:CA:9851, V-B:MET:535:CE:9803, V-B:PRO:540:CB:9853, V-A:TYR:531:CZ:4789, V-A:ASP:366:CB:3207, H-B:TYR:539:N:9838, V-B:LEU:363:CB:8154, V-B:ASP:366:CG:8180, V-B:PRO:540:CD:9855, V-B:LEU:363:CD1:8156, V-B:TYR:539:CZ:9845, V-B:ASP:366:CB:8179, V-B:LEU:363:CA:8152, V-A:ILE:369:CD1:3234, V-A:TYR:531:CE1:4787, V-A:ASP:366:C:3203, H-B:TYR:539:OH:9846, H-A:LYS:534:NZ:4818, V-B:TYR:539:CG:9840, V-A:ASN:370:CB:3240, V-A:TYR:531:CD1:4785"]

$$$$
1m_Grossjean_2025
     RDKit          3D

 20 20  0  0  0  0  0  0  0  0999 V2000
  127.5470  122.4960   56.7650 C   0  0  0  0  0  0  0  0  0  0  0  0
  127.0820  123.8190   56.9920 O   0  0  0  0  0  0  0  0  0  0  0  0
  125.7940  124.0450   57.3230 C   0  0  0  0  0  0  0  0  0  0  0  0
  124.9020  124.3900   56.5410 O   0  0  0  0  0  0  0  0  0  0  0  0
  125.5470  123.8100   58.8270 C   0  0  0  0  0  0  0  0  0  0  0  0
  126.7910  123.6020   59.5830 N   0  0  0  0  0  0  0  0  0  0  0  0
  126.8730  123.2760   60.8870 C   0  0  0  0  0  0  0  0  0  0  0  0
  125.8820  123.1300   61.6060 O   0  0  0  0  0  0  0  0  0  0  0  0
  128.2940  123.1020   61.4380 C   0  0  0  0  0  0  0  0  0  0  0  0
  129.3360  121.9320   60.5010 S   0  0  0  0  0  0  0  0  0  0  0  0
  130.9840  122.6020   60.4260 C   0  0  0  0  0  0  0  0  0  0  0  0
  131.4540  122.7440   59.1600 N   0  0  0  0  0  0  0  0  0  0  0  0
  132.6960  123.2510   58.9800 C   0  0  0  0  0  0  0  0  0  0  0  0
  133.1450  123.3990   57.5380 C   0  0  0  0  0  0  0  0  0  0  0  0
  133.5180  123.6220   60.0420 C   0  0  0  0  0  0  0  0  0  0  0  0
  133.0540  123.4550   61.3510 C   0  0  0  0  0  0  0  0  0  0  0  0
  133.9790  123.8540   62.4990 C   0  0  0  0  0  0  0  0  0  0  0  0
  131.7610  122.9270   61.5640 C   0  0  0  0  0  0  0  0  0  0  0  0
  131.2750  122.6970   62.9270 C   0  0  0  0  0  0  0  0  0  0  0  0
  130.8910  122.5160   64.0030 N   0  0  0  0  0  0  0  0  0  0  0  0
  1  2  1  0
  2  3  1  0
  3  4  2  0
  3  5  1  0
  5  6  1  0
  6  7  1  0
  7  8  2  0
  7  9  1  0
  9 10  1  0
 10 11  1  0
 11 12  2  0
 12 13  1  0
 13 14  1  0
 13 15  2  0
 15 16  1  0
 16 17  1  0
 16 18  2  0
 18 19  1  0
 19 20  3  0
 18 11  1  0
M  END
>  <Binding energies>  (13) 
[-5.71]

>  <Ligand effiencies>  (13) 
[-0.2719047619047619]

>  <Interactions>  (13) 
["V-B:TYR:539:C:9835, V-B:PRO:540:C:9849, V-B:TYR:539:CE2:9844, V-B:PRO:540:N:9852, V-B:ALA:541:CB:9860, V-B:PRO:540:CA:9851, V-B:MET:535:CE:9803, V-B:PRO:540:CB:9853, H-B:ALA:541:N:9859, V-B:GLU:543:CD:9876, V-A:ASP:366:CB:3207, V-A:ASP:366:CG:3208, H-A:TYR:484:OH:4343, V-B:TYR:539:CZ:9845, V-A:ILE:369:CD1:3234, H-B:TYR:531:OH:9763"]

$$$$
1n_Grossjean_2025
     RDKit          3D

 27 28  0  0  0  0  0  0  0  0999 V2000
  124.1210  123.6160   61.0820 C   0  0  0  0  0  0  0  0  0  0  0  0
  125.0650  123.9870   59.9340 C   0  0  0  0  0  0  0  0  0  0  0  0
  124.4190  123.7360   58.6920 O   0  0  0  0  0  0  0  0  0  0  0  0
  124.9950  124.0970   57.5160 C   0  0  0  0  0  0  0  0  0  0  0  0
  124.3510  124.4410   56.5210 O   0  0  0  0  0  0  0  0  0  0  0  0
  126.4960  124.0490   57.5520 C   0  0  0  0  0  0  0  0  0  0  0  0
  127.2690  125.1820   57.8520 C   0  0  0  0  0  0  0  0  0  0  0  0
  128.6580  125.1030   57.8740 C   0  0  0  0  0  0  0  0  0  0  0  0
  129.3040  123.8990   57.5900 C   0  0  0  0  0  0  0  0  0  0  0  0
  130.7110  123.9340   57.6350 N   0  0  0  0  0  0  0  0  0  0  0  0
  131.5960  124.3150   56.6880 C   0  0  0  0  0  0  0  0  0  0  0  0
  131.3070  124.7260   55.5650 O   0  0  0  0  0  0  0  0  0  0  0  0
  133.0750  124.2160   57.0860 C   0  0  0  0  0  0  0  0  0  0  0  0
  133.3770  123.0100   58.0010 C   0  0  0  0  0  0  0  0  0  0  0  0
  133.0920  123.3170   59.7700 S   0  0  0  0  0  0  0  0  0  0  0  0
  131.6660  122.3710   60.2600 C   0  0  0  0  0  0  0  0  0  0  0  0
  130.5450  123.1200   60.4140 N   0  0  0  0  0  0  0  0  0  0  0  0
  129.3940  122.5020   60.7690 C   0  0  0  0  0  0  0  0  0  0  0  0
  128.1800  123.4000   60.9120 C   0  0  0  0  0  0  0  0  0  0  0  0
  129.3140  121.1290   60.9890 C   0  0  0  0  0  0  0  0  0  0  0  0
  130.4700  120.3510   60.8530 C   0  0  0  0  0  0  0  0  0  0  0  0
  130.3620  118.8500   61.1120 C   0  0  0  0  0  0  0  0  0  0  0  0
  131.6840  120.9750   60.4880 C   0  0  0  0  0  0  0  0  0  0  0  0
  132.9150  120.1890   60.3900 C   0  0  0  0  0  0  0  0  0  0  0  0
  133.8880  119.5660   60.3140 N   0  0  0  0  0  0  0  0  0  0  0  0
  128.5380  122.7610   57.2990 C   0  0  0  0  0  0  0  0  0  0  0  0
  127.1480  122.8400   57.2810 C   0  0  0  0  0  0  0  0  0  0  0  0
  1  2  1  0
  2  3  1  0
  3  4  1  0
  4  5  2  0
  4  6  1  0
  6  7  2  0
  7  8  1  0
  8  9  2  0
  9 10  1  0
 10 11  1  0
 11 12  2  0
 11 13  1  0
 13 14  1  0
 14 15  1  0
 15 16  1  0
 16 17  2  0
 17 18  1  0
 18 19  1  0
 18 20  2  0
 20 21  1  0
 21 22  1  0
 21 23  2  0
 23 24  1  0
 24 25  3  0
  9 26  1  0
 26 27  2  0
 27  6  1  0
 23 16  1  0
M  END
>  <Binding energies>  (14) 
[-7.5]

>  <Ligand effiencies>  (14) 
[-0.26785714285714285]

>  <Interactions>  (14) 
["V-B:TYR:539:C:9835, V-B:TYR:539:CD2:9842, V-A:LEU:475:CD2:4254, V-A:TRP:381:CZ2:3365, V-B:PRO:540:C:9849, V-B:TYR:539:CE2:9844, V-B:PRO:540:N:9852, V-B:ALA:541:CB:9860, V-A:TRP:381:CH2:3367, V-B:PRO:540:CA:9851, V-B:MET:535:CE:9803, V-B:PRO:540:CB:9853, V-A:PRO:482:CB:4321, V-A:TYR:531:CZ:4789, V-A:ASP:366:CB:3207, V-B:LEU:363:CD1:8156, V-B:TYR:539:CZ:9845, V-A:ILE:369:CG2:3232, V-A:ILE:369:CB:3231, V-A:TYR:531:CE1:4787, H-A:TYR:531:OH:4790, V-B:ASN:362:CB:8143, V-A:ASP:366:C:3203, H-B:TYR:539:OH:9846, H-A:LYS:534:NZ:4818, H-B:TYR:531:OH:9763, V-B:ASN:362:C:8139"]

$$$$
1q_Grossjean_2025
     RDKit          3D

 21 21  0  0  0  0  0  0  0  0999 V2000
  125.0780  122.9100   56.8750 C   0  0  0  0  0  0  0  0  0  0  0  0
  126.0400  122.1230   56.1880 O   0  0  0  0  0  0  0  0  0  0  0  0
  127.3650  122.3270   56.3880 C   0  0  0  0  0  0  0  0  0  0  0  0
  128.2160  121.4430   56.5060 O   0  0  0  0  0  0  0  0  0  0  0  0
  127.7640  123.8140   56.4970 C   0  0  0  0  0  0  0  0  0  0  0  0
  129.2100  124.0100   56.6800 N   0  0  0  0  0  0  0  0  0  0  0  0
  130.0530  124.5490   55.7790 C   0  0  0  0  0  0  0  0  0  0  0  0
  129.6900  124.9500   54.6720 O   0  0  0  0  0  0  0  0  0  0  0  0
  131.5220  124.6570   56.2140 C   0  0  0  0  0  0  0  0  0  0  0  0
  131.7250  124.7730   57.7380 C   0  0  0  0  0  0  0  0  0  0  0  0
  132.3910  123.2630   58.5000 S   0  0  0  0  0  0  0  0  0  0  0  0
  131.0830  122.4600   59.4050 C   0  0  0  0  0  0  0  0  0  0  0  0
  129.8920  123.1060   59.3180 N   0  0  0  0  0  0  0  0  0  0  0  0
  128.8220  122.5910   59.9670 C   0  0  0  0  0  0  0  0  0  0  0  0
  127.5310  123.3780   59.8370 C   0  0  0  0  0  0  0  0  0  0  0  0
  128.8890  121.4170   60.7140 C   0  0  0  0  0  0  0  0  0  0  0  0
  130.1030  120.7290   60.7890 C   0  0  0  0  0  0  0  0  0  0  0  0
  130.1470  119.4340   61.5990 C   0  0  0  0  0  0  0  0  0  0  0  0
  131.2350  121.2450   60.1180 C   0  0  0  0  0  0  0  0  0  0  0  0
  132.5000  120.5090   60.1390 C   0  0  0  0  0  0  0  0  0  0  0  0
  133.4980  119.9230   60.1580 N   0  0  0  0  0  0  0  0  0  0  0  0
  1  2  1  0
  2  3  1  0
  3  4  2  0
  3  5  1  0
  5  6  1  0
  6  7  1  0
  7  8  2  0
  7  9  1  0
  9 10  1  0
 10 11  1  0
 11 12  1  0
 12 13  2  0
 13 14  1  0
 14 15  1  0
 14 16  2  0
 16 17  1  0
 17 18  1  0
 17 19  2  0
 19 20  1  0
 20 21  3  0
 19 12  1  0
M  END
>  <Binding energies>  (15) 
[-5.95]

>  <Ligand effiencies>  (15) 
[-0.27045454545454545]

>  <Interactions>  (15) 
["V-B:TYR:539:C:9835, V-B:TYR:539:CD2:9842, V-A:LEU:475:CD2:4254, V-A:LEU:475:CD1:4253, V-B:PRO:540:C:9849, V-B:TYR:539:CE2:9844, V-B:PRO:540:N:9852, V-B:ALA:541:CB:9860, V-A:TRP:381:CH2:3367, V-B:PRO:540:CA:9851, V-B:MET:535:CE:9803, V-B:PRO:540:CB:9853, V-A:PRO:482:CB:4321, V-A:TYR:531:CZ:4789, H-B:TYR:539:N:9838, V-B:TYR:539:CA:9837, V-B:PRO:540:CD:9855, V-B:LEU:363:CD1:8156, V-B:TYR:539:CZ:9845, V-A:ILE:369:CG2:3232, V-A:TYR:531:CE1:4787, H-A:LYS:534:NZ:4818, V-B:TYR:539:CD1:9841, V-B:TYR:539:CG:9840"]

$$$$
2a_Grossjean_2025
     RDKit          3D

 29 30  0  0  0  0  0  0  0  0999 V2000
  133.1180  131.1130   58.0410 C   0  0  0  0  0  0  0  0  0  0  0  0
  131.6370  131.2490   57.6740 C   0  0  0  0  0  0  0  0  0  0  0  0
  131.4300  132.4910   57.0110 O   0  0  0  0  0  0  0  0  0  0  0  0
  130.2000  132.8470   56.5590 C   0  0  0  0  0  0  0  0  0  0  0  0
  130.0050  133.3780   55.4620 O   0  0  0  0  0  0  0  0  0  0  0  0
  129.0960  132.5080   57.5200 C   0  0  0  0  0  0  0  0  0  0  0  0
  128.1730  131.4850   57.2580 C   0  0  0  0  0  0  0  0  0  0  0  0
  127.1600  131.1970   58.1690 C   0  0  0  0  0  0  0  0  0  0  0  0
  127.0440  131.9270   59.3530 C   0  0  0  0  0  0  0  0  0  0  0  0
  125.9760  131.5590   60.1920 N   0  0  0  0  0  0  0  0  0  0  0  0
  124.6770  131.3380   59.8970 C   0  0  0  0  0  0  0  0  0  0  0  0
  124.1680  131.4520   58.7810 O   0  0  0  0  0  0  0  0  0  0  0  0
  123.7950  130.9170   61.0770 C   0  0  0  0  0  0  0  0  0  0  0  0
  124.0860  131.9020   62.5840 S   0  0  0  0  0  0  0  0  0  0  0  0
  124.3950  130.8110   63.9680 C   0  0  0  0  0  0  0  0  0  0  0  0
  123.4080  130.7450   64.8970 N   0  0  0  0  0  0  0  0  0  0  0  0
  123.5790  129.9490   65.9770 C   0  0  0  0  0  0  0  0  0  0  0  0
  122.4440  129.9500   66.9850 C   0  0  0  0  0  0  0  0  0  0  0  0
  124.7250  129.1850   66.1730 C   0  0  0  0  0  0  0  0  0  0  0  0
  125.7550  129.2310   65.2200 C   0  0  0  0  0  0  0  0  0  0  0  0
  127.0170  128.3780   65.4510 C   0  0  0  0  0  0  0  0  0  0  0  0
  127.3160  127.6940   64.3460 F   0  0  0  0  0  0  0  0  0  0  0  0
  128.0470  129.1650   65.7660 F   0  0  0  0  0  0  0  0  0  0  0  0
  126.8690  127.4950   66.4420 F   0  0  0  0  0  0  0  0  0  0  0  0
  125.5900  130.0640   64.0850 C   0  0  0  0  0  0  0  0  0  0  0  0
  126.6360  130.1520   63.0600 C   0  0  0  0  0  0  0  0  0  0  0  0
  127.4610  130.2210   62.2520 N   0  0  0  0  0  0  0  0  0  0  0  0
  127.9690  132.9460   59.6250 C   0  0  0  0  0  0  0  0  0  0  0  0
  128.9830  133.2290   58.7150 C   0  0  0  0  0  0  0  0  0  0  0  0
  1  2  1  0
  2  3  1  0
  3  4  1  0
  4  5  2  0
  4  6  1  0
  6  7  2  0
  7  8  1  0
  8  9  2  0
  9 10  1  0
 10 11  1  0
 11 12  2  0
 11 13  1  0
 13 14  1  0
 14 15  1  0
 15 16  2  0
 16 17  1  0
 17 18  1  0
 17 19  2  0
 19 20  1  0
 20 21  1  0
 21 22  1  0
 21 23  1  0
 21 24  1  0
 20 25  2  0
 25 26  1  0
 26 27  3  0
  9 28  1  0
 28 29  2  0
 29  6  1  0
 25 15  1  0
M  END
>  <Binding energies>  (16) 
[-7.19]

>  <Ligand effiencies>  (16) 
[-0.23966666666666667]

>  <Interactions>  (16) 
["V-B:GLU:543:CD:9876, V-A:GLU:543:CG:4902, V-A:PRO:540:N:4879, V-A:TYR:539:CE2:4871, V-A:TYR:531:CE2:4788, V-A:PRO:540:CA:4878, V-A:TYR:539:CE1:4870, V-A:TYR:539:CZ:4872, V-A:PRO:540:CB:4880, V-A:LEU:363:CD1:3184, V-A:TYR:539:C:4862, V-A:LEU:363:CA:3180, V-A:PRO:540:CD:4882, V-B:GLU:543:CG:9875, V-A:TYR:539:CD2:4869, H-B:GLY:454:N:9017, V-B:ILE:369:CD1:8206, H-A:TYR:539:N:4865, V-B:ASP:366:CG:8180, V-A:TYR:539:CD1:4868, V-A:TYR:539:CG:4867, V-B:ARG:545:CZ:9894, H-A:TYR:539:OH:4873, V-B:HIS:456:CE1:9037, V-B:ARG:545:CG:9890, V-B:ARG:545:CD:9891, V-B:GLU:543:CB:9874, V-B:GLY:453:CA:9011, V-B:GLY:453:C:9009, V-B:ILE:455:C:9019, V-B:ARG:545:CB:9889"]

$$$$
2b_Grossjean_2025
     RDKit          3D

 28 29  0  0  0  0  0  0  0  0999 V2000
  130.0610  125.2790   72.2590 C   0  0  0  0  0  0  0  0  0  0  0  0
  129.3790  126.2800   73.0020 O   0  0  0  0  0  0  0  0  0  0  0  0
  129.3990  127.5780   72.6080 C   0  0  0  0  0  0  0  0  0  0  0  0
  129.6390  128.5180   73.3720 O   0  0  0  0  0  0  0  0  0  0  0  0
  129.0950  127.7600   71.1490 C   0  0  0  0  0  0  0  0  0  0  0  0
  129.9640  128.4480   70.2890 C   0  0  0  0  0  0  0  0  0  0  0  0
  129.6510  128.6000   68.9410 C   0  0  0  0  0  0  0  0  0  0  0  0
  128.4720  128.0650   68.4240 C   0  0  0  0  0  0  0  0  0  0  0  0
  128.2520  128.2810   67.0500 N   0  0  0  0  0  0  0  0  0  0  0  0
  127.1110  128.1860   66.3350 C   0  0  0  0  0  0  0  0  0  0  0  0
  126.0140  127.8500   66.7830 O   0  0  0  0  0  0  0  0  0  0  0  0
  127.2460  128.5160   64.8440 C   0  0  0  0  0  0  0  0  0  0  0  0
  128.2880  129.9770   64.5250 S   0  0  0  0  0  0  0  0  0  0  0  0
  127.3600  131.1990   63.6060 C   0  0  0  0  0  0  0  0  0  0  0  0
  126.0100  131.1250   63.7250 N   0  0  0  0  0  0  0  0  0  0  0  0
  125.2450  132.0140   63.0540 C   0  0  0  0  0  0  0  0  0  0  0  0
  123.7470  131.8570   63.2290 C   0  0  0  0  0  0  0  0  0  0  0  0
  125.7860  133.0130   62.2480 C   0  0  0  0  0  0  0  0  0  0  0  0
  127.1790  133.1130   62.1160 C   0  0  0  0  0  0  0  0  0  0  0  0
  127.7620  134.2260   61.2250 C   0  0  0  0  0  0  0  0  0  0  0  0
  128.5660  135.0110   61.9440 F   0  0  0  0  0  0  0  0  0  0  0  0
  128.4620  133.6920   60.2230 F   0  0  0  0  0  0  0  0  0  0  0  0
  126.8200  135.0030   60.6860 F   0  0  0  0  0  0  0  0  0  0  0  0
  127.9940  132.1820   62.8100 C   0  0  0  0  0  0  0  0  0  0  0  0
  129.4550  132.2350   62.7040 C   0  0  0  0  0  0  0  0  0  0  0  0
  130.6090  132.2780   62.6200 N   0  0  0  0  0  0  0  0  0  0  0  0
  127.5940  127.3820   69.2780 C   0  0  0  0  0  0  0  0  0  0  0  0
  127.9070  127.2320   70.6260 C   0  0  0  0  0  0  0  0  0  0  0  0
  1  2  1  0
  2  3  1  0
  3  4  2  0
  3  5  1  0
  5  6  2  0
  6  7  1  0
  7  8  2  0
  8  9  1  0
  9 10  1  0
 10 11  2  0
 10 12  1  0
 12 13  1  0
 13 14  1  0
 14 15  2  0
 15 16  1  0
 16 17  1  0
 16 18  2  0
 18 19  1  0
 19 20  1  0
 20 21  1  0
 20 22  1  0
 20 23  1  0
 19 24  2  0
 24 25  1  0
 25 26  3  0
  8 27  1  0
 27 28  2  0
 28  5  1  0
 24 14  1  0
M  END
>  <Binding energies>  (17) 
[-6.82]

>  <Ligand effiencies>  (17) 
[-0.23517241379310347]

>  <Interactions>  (17) 
["V-A:GLU:543:CG:4902, V-A:PRO:540:N:4879, V-A:TYR:539:CE2:4871, V-A:PRO:540:CA:4878, V-A:PRO:540:C:4876, V-A:ALA:541:CA:4885, H-A:ALA:541:N:4886, V-A:TYR:539:C:4862, V-B:GLY:454:CA:9016, V-A:TYR:539:CD2:4869, V-B:ILE:369:CD1:8206, V-B:LEU:475:CD2:9226, V-B:TRP:381:CH2:8339, V-A:ALA:541:CB:4887, V-A:GLU:543:CB:4901, V-B:HIS:456:CE1:9037, H-B:TYR:484:OH:9315, V-A:HIS:456:CE1:4064, H-B:LYS:547:NZ:9919, H-A:LYS:547:NZ:4946, H-A:GLU:543:OE1:4904, H-B:ARG:545:NE:9892"]

$$$$
2c_Grossjean_2025
     RDKit          3D

 26 27  0  0  0  0  0  0  0  0999 V2000
  131.2910  132.5670   54.8480 C   0  0  0  0  0  0  0  0  0  0  0  0
  130.4660  133.3780   55.6790 O   0  0  0  0  0  0  0  0  0  0  0  0
  130.1550  132.9400   56.9520 C   0  0  0  0  0  0  0  0  0  0  0  0
  131.0400  132.0310   57.5310 C   0  0  0  0  0  0  0  0  0  0  0  0
  130.8110  131.5320   58.8110 C   0  0  0  0  0  0  0  0  0  0  0  0
  129.6740  131.9350   59.5260 C   0  0  0  0  0  0  0  0  0  0  0  0
  129.3680  131.5000   60.8280 N   0  0  0  0  0  0  0  0  0  0  0  0
  130.0680  131.6930   61.9670 C   0  0  0  0  0  0  0  0  0  0  0  0
  131.1600  132.2610   62.0310 O   0  0  0  0  0  0  0  0  0  0  0  0
  129.4210  131.1060   63.2310 C   0  0  0  0  0  0  0  0  0  0  0  0
  128.0760  132.1040   63.9610 S   0  0  0  0  0  0  0  0  0  0  0  0
  127.1170  132.8570   62.6530 C   0  0  0  0  0  0  0  0  0  0  0  0
  127.4200  134.1510   62.3720 N   0  0  0  0  0  0  0  0  0  0  0  0
  126.7300  134.7870   61.4010 C   0  0  0  0  0  0  0  0  0  0  0  0
  127.1150  136.2330   61.1590 C   0  0  0  0  0  0  0  0  0  0  0  0
  125.7210  134.1670   60.6660 C   0  0  0  0  0  0  0  0  0  0  0  0
  125.3970  132.8290   60.9340 C   0  0  0  0  0  0  0  0  0  0  0  0
  124.2800  132.1560   60.1110 C   0  0  0  0  0  0  0  0  0  0  0  0
  123.7670  133.0270   59.2410 F   0  0  0  0  0  0  0  0  0  0  0  0
  124.7700  131.1130   59.4420 F   0  0  0  0  0  0  0  0  0  0  0  0
  123.2770  131.7110   60.8720 F   0  0  0  0  0  0  0  0  0  0  0  0
  126.1100  132.1500   61.9540 C   0  0  0  0  0  0  0  0  0  0  0  0
  125.8110  130.7510   62.2780 C   0  0  0  0  0  0  0  0  0  0  0  0
  125.5750  129.6470   62.5330 N   0  0  0  0  0  0  0  0  0  0  0  0
  128.7940  132.8570   58.9570 C   0  0  0  0  0  0  0  0  0  0  0  0
  129.0270  133.3540   57.6780 C   0  0  0  0  0  0  0  0  0  0  0  0
  1  2  1  0
  2  3  1  0
  3  4  2  0
  4  5  1  0
  5  6  2  0
  6  7  1  0
  7  8  1  0
  8  9  2  0
  8 10  1  0
 10 11  1  0
 11 12  1  0
 12 13  2  0
 13 14  1  0
 14 15  1  0
 14 16  2  0
 16 17  1  0
 17 18  1  0
 18 19  1  0
 18 20  1  0
 18 21  1  0
 17 22  2  0
 22 23  1  0
 23 24  3  0
  6 25  1  0
 25 26  2  0
 26  3  1  0
 22 12  1  0
M  END
>  <Binding energies>  (18) 
[-6.38]

>  <Ligand effiencies>  (18) 
[-0.23629629629629628]

>  <Interactions>  (18) 
["V-A:GLU:543:CG:4902, V-A:PRO:540:N:4879, V-A:TYR:539:CE2:4871, V-A:PRO:540:CA:4878, V-A:TYR:539:CE1:4870, H-A:ALA:541:N:4886, V-A:TYR:539:CZ:4872, V-A:PRO:540:CB:4880, V-A:TYR:539:C:4862, V-A:PRO:540:CD:4882, V-A:GLU:543:CD:4903, V-A:TYR:539:CD2:4869, V-B:ILE:369:CD1:8206, V-B:LEU:475:CD2:9226, V-B:TRP:381:CH2:8339, H-A:TYR:539:N:4865, V-A:TYR:539:CD1:4868, V-A:TYR:539:CG:4867, V-A:ILE:538:CG2:4858, V-A:TYR:539:CA:4864, V-A:ILE:538:CA:4855, V-B:ILE:369:CG2:8204, V-B:ILE:369:CB:8203, H-B:TYR:484:OH:9315, V-B:ILE:369:CG1:8205, V-B:TRP:381:CZ2:8337, V-B:TRP:381:CZ3:8338, V-A:ILE:538:CD1:4860, V-A:TYR:539:CB:4866"]

$$$$
2d_Ghoteimi_2023
     RDKit          3D

 38 42  0  0  0  0  0  0  0  0999 V2000
  123.8140  130.7080   58.2650 C   0  0  0  0  0  0  0  0  0  0  0  0
  123.5410  131.9970   58.7930 O   0  0  0  0  0  0  0  0  0  0  0  0
  123.3770  132.1730   60.1200 C   0  0  0  0  0  0  0  0  0  0  0  0
  123.7890  133.1380   60.7710 O   0  0  0  0  0  0  0  0  0  0  0  0
  122.5920  131.0100   60.7450 C   0  0  0  0  0  0  0  0  0  0  0  0
  122.8060  130.9670   62.5580 S   0  0  0  0  0  0  0  0  0  0  0  0
  124.5280  130.6750   62.9110 C   0  0  0  0  0  0  0  0  0  0  0  0
  125.3460  130.9820   61.8760 N   0  0  0  0  0  0  0  0  0  0  0  0
  126.6850  130.8030   62.0030 C   0  0  0  0  0  0  0  0  0  0  0  0
  127.5220  131.1470   60.8130 C   0  0  0  0  0  0  0  0  0  0  0  0
  128.1970  132.3710   60.7470 C   0  0  0  0  0  0  0  0  0  0  0  0
  128.9790  132.6980   59.6420 C   0  0  0  0  0  0  0  0  0  0  0  0
  129.1220  131.8070   58.5670 C   0  0  0  0  0  0  0  0  0  0  0  0
  129.8890  132.1280   57.4410 N   0  0  0  0  0  0  0  0  0  0  0  0
  129.3920  133.0590   56.4080 C   0  0  0  0  0  0  0  0  0  0  0  0
  130.1900  133.0000   55.0890 C   0  0  0  0  0  0  0  0  0  0  0  0
  131.5680  133.2200   55.3460 O   0  0  0  0  0  0  0  0  0  0  0  0
  132.0990  132.2360   56.2180 C   0  0  0  0  0  0  0  0  0  0  0  0
  131.3540  132.2660   57.5690 C   0  0  0  0  0  0  0  0  0  0  0  0
  128.4330  130.5880   58.6320 C   0  0  0  0  0  0  0  0  0  0  0  0
  127.6500  130.2620   59.7350 C   0  0  0  0  0  0  0  0  0  0  0  0
  127.2370  130.3090   63.1880 C   0  0  0  0  0  0  0  0  0  0  0  0
  126.4170  130.0150   64.2840 C   0  0  0  0  0  0  0  0  0  0  0  0
  127.0790  129.5180   65.5270 C   0  0  0  0  0  0  0  0  0  0  0  0
  128.0230  130.3090   66.1840 C   0  0  0  0  0  0  0  0  0  0  0  0
  128.6370  129.8600   67.3500 C   0  0  0  0  0  0  0  0  0  0  0  0
  128.3240  128.6020   67.8920 C   0  0  0  0  0  0  0  0  0  0  0  0
  128.9180  128.1370   69.0680 N   0  0  0  0  0  0  0  0  0  0  0  0
  128.3510  127.0000   69.8190 C   0  0  0  0  0  0  0  0  0  0  0  0
  129.3200  126.4080   70.8640 C   0  0  0  0  0  0  0  0  0  0  0  0
  129.7650  127.4270   71.7460 O   0  0  0  0  0  0  0  0  0  0  0  0
  130.4440  128.4620   71.0520 C   0  0  0  0  0  0  0  0  0  0  0  0
  129.5010  129.1090   70.0140 C   0  0  0  0  0  0  0  0  0  0  0  0
  127.3620  127.8230   67.2350 C   0  0  0  0  0  0  0  0  0  0  0  0
  126.7480  128.2730   66.0700 C   0  0  0  0  0  0  0  0  0  0  0  0
  125.0190  130.2060   64.1520 C   0  0  0  0  0  0  0  0  0  0  0  0
  124.1210  129.9310   65.2770 C   0  0  0  0  0  0  0  0  0  0  0  0
  123.4150  129.7130   66.1690 N   0  0  0  0  0  0  0  0  0  0  0  0
  1  2  1  0
  2  3  1  0
  3  4  2  0
  3  5  1  0
  5  6  1  0
  6  7  1  0
  7  8  2  0
  8  9  1  0
  9 10  1  0
 10 11  2  0
 11 12  1  0
 12 13  2  0
 13 14  1  0
 14 15  1  0
 15 16  1  0
 16 17  1  0
 17 18  1  0
 18 19  1  0
 13 20  1  0
 20 21  2  0
  9 22  2  0
 22 23  1  0
 23 24  1  0
 24 25  2  0
 25 26  1  0
 26 27  2  0
 27 28  1  0
 28 29  1  0
 29 30  1  0
 30 31  1  0
 31 32  1  0
 32 33  1  0
 27 34  1  0
 34 35  2  0
 23 36  2  0
 36 37  1  0
 37 38  3  0
 36  7  1  0
 21 10  1  0
 35 24  1  0
 19 14  1  0
 33 28  1  0
M  END
>  <Binding energies>  (19) 
[-9.1]

>  <Ligand effiencies>  (19) 
[-0.2394736842105263]

>  <Interactions>  (19) 
["V-B:GLU:543:CD:9876, V-A:GLU:543:CG:4902, V-A:PRO:540:N:4879, V-A:PRO:540:CG:4881, V-A:PRO:540:CA:4878, V-A:TYR:539:CE1:4870, V-A:TYR:539:CZ:4872, V-A:PRO:540:CB:4880, V-A:LEU:363:CD1:3184, V-A:TYR:539:C:4862, V-A:PRO:540:CD:4882, H-B:GLY:454:N:9017, V-B:ILE:369:CD1:8206, H-A:TYR:539:N:4865, V-B:ASP:366:CG:8180, V-B:ASP:366:CB:8179, V-A:TYR:539:CD1:4868, V-A:TYR:539:CG:4867, V-A:TYR:539:CA:4864, V-B:ARG:545:CZ:9894, H-A:TYR:539:OH:4873, V-A:ILE:538:CA:4855, V-B:ASP:366:C:8175, V-B:ASP:366:CA:8177, V-B:ILE:369:CG2:8204, V-A:ILE:538:C:4853, V-B:ILE:369:CB:8203, V-A:GLU:543:CB:4901, V-B:TYR:484:CE1:9312, V-B:HIS:456:CE1:9037, V-B:TYR:484:CZ:9314, V-B:ARG:545:CD:9891, V-A:HIS:456:CE1:4064, V-B:GLU:543:CB:9874, V-B:HIS:456:CD2:9035, V-A:GLU:543:C:4897, V-A:GLY:544:C:4907, V-B:ILE:369:CG1:8205, H-B:ARG:545:NE:9892"]

$$$$
2d_Grossjean_2025
     RDKit          3D

 24 25  0  0  0  0  0  0  0  0999 V2000
  124.6570  123.6240   62.1140 C   0  0  0  0  0  0  0  0  0  0  0  0
  125.4470  123.5060   60.8240 C   0  0  0  0  0  0  0  0  0  0  0  0
  124.8560  123.7350   59.5840 C   0  0  0  0  0  0  0  0  0  0  0  0
  125.6290  123.6180   58.4200 C   0  0  0  0  0  0  0  0  0  0  0  0
  124.9610  123.8850   57.0570 C   0  0  0  0  0  0  0  0  0  0  0  0
  123.7520  124.4170   57.2380 F   0  0  0  0  0  0  0  0  0  0  0  0
  125.7030  124.7310   56.3410 F   0  0  0  0  0  0  0  0  0  0  0  0
  124.8060  122.7760   56.3310 F   0  0  0  0  0  0  0  0  0  0  0  0
  126.9960  123.2610   58.5460 C   0  0  0  0  0  0  0  0  0  0  0  0
  127.8580  123.1720   57.3650 C   0  0  0  0  0  0  0  0  0  0  0  0
  128.5380  123.1030   56.4310 N   0  0  0  0  0  0  0  0  0  0  0  0
  127.5040  123.0240   59.8460 C   0  0  0  0  0  0  0  0  0  0  0  0
  129.1850  122.5370   60.1840 S   0  0  0  0  0  0  0  0  0  0  0  0
  129.2500  121.7580   61.8310 C   0  0  0  0  0  0  0  0  0  0  0  0
  130.3300  122.3590   62.7360 C   0  0  0  0  0  0  0  0  0  0  0  0
  131.4090  121.7760   62.8470 O   0  0  0  0  0  0  0  0  0  0  0  0
  129.9880  123.4960   63.3780 N   0  0  0  0  0  0  0  0  0  0  0  0
  130.7510  124.2800   64.2630 C   0  0  0  0  0  0  0  0  0  0  0  0
  130.1160  124.6610   65.4470 C   0  0  0  0  0  0  0  0  0  0  0  0
  130.7860  125.4440   66.3830 C   0  0  0  0  0  0  0  0  0  0  0  0
  132.0940  125.8540   66.1290 C   0  0  0  0  0  0  0  0  0  0  0  0
  132.7320  125.4920   64.9460 C   0  0  0  0  0  0  0  0  0  0  0  0
  132.0650  124.7090   64.0090 C   0  0  0  0  0  0  0  0  0  0  0  0
  126.7470  123.1620   60.9620 N   0  0  0  0  0  0  0  0  0  0  0  0
  1  2  1  0
  2  3  2  0
  3  4  1  0
  4  5  1  0
  5  6  1  0
  5  7  1  0
  5  8  1  0
  4  9  2  0
  9 10  1  0
 10 11  3  0
  9 12  1  0
 12 13  1  0
 13 14  1  0
 14 15  1  0
 15 16  2  0
 15 17  1  0
 17 18  1  0
 18 19  2  0
 19 20  1  0
 20 21  2  0
 21 22  1  0
 22 23  2  0
 12 24  2  0
 24  2  1  0
 23 18  1  0
M  END
>  <Binding energies>  (20) 
[-6.8]

>  <Ligand effiencies>  (20) 
[-0.272]

>  <Interactions>  (20) 
["V-B:TYR:539:C:9835, V-B:PRO:540:C:9849, V-B:PRO:540:N:9852, V-B:ALA:541:CB:9860, V-B:PRO:540:CA:9851, V-B:MET:535:CE:9803, V-B:PRO:540:CB:9853, H-B:ALA:541:N:9859, H-B:GLU:543:OE2:9878, V-B:GLU:543:CD:9876, V-B:ALA:541:CA:9858, V-B:GLU:543:CG:9875, V-B:LEU:363:CB:8154, V-B:PRO:540:CD:9855, V-B:LEU:363:CD1:8156, V-B:TYR:531:CZ:9762, V-B:TYR:531:CE2:9761, V-B:ASP:366:CB:8179, V-B:LEU:363:CA:8152, V-A:HIS:456:CE1:4064, V-B:LEU:363:CG:8155, V-B:ASN:362:CB:8143, V-A:ARG:545:CZ:4921, V-B:ILE:538:CG2:9831"]

$$$$
2e_Grossjean_2025
     RDKit          3D

 25 26  0  0  0  0  0  0  0  0999 V2000
  135.4410  125.0960   66.6850 C   0  0  0  0  0  0  0  0  0  0  0  0
  134.2380  125.2370   65.7730 C   0  0  0  0  0  0  0  0  0  0  0  0
  133.0310  125.7710   66.2310 C   0  0  0  0  0  0  0  0  0  0  0  0
  131.9690  125.8810   65.3310 C   0  0  0  0  0  0  0  0  0  0  0  0
  132.1370  125.4580   64.0100 C   0  0  0  0  0  0  0  0  0  0  0  0
  133.3700  124.9230   63.6200 C   0  0  0  0  0  0  0  0  0  0  0  0
  133.4990  124.5540   62.2700 N   0  0  0  0  0  0  0  0  0  0  0  0
  133.2050  123.3640   61.7000 C   0  0  0  0  0  0  0  0  0  0  0  0
  132.6940  122.4070   62.2840 O   0  0  0  0  0  0  0  0  0  0  0  0
  133.5930  123.2180   60.2250 C   0  0  0  0  0  0  0  0  0  0  0  0
  132.1890  123.5480   59.1130 S   0  0  0  0  0  0  0  0  0  0  0  0
  130.8260  122.6180   59.7790 C   0  0  0  0  0  0  0  0  0  0  0  0
  129.7200  123.3540   60.0510 N   0  0  0  0  0  0  0  0  0  0  0  0
  128.6530  122.7330   60.6020 C   0  0  0  0  0  0  0  0  0  0  0  0
  127.4490  123.6130   60.8800 C   0  0  0  0  0  0  0  0  0  0  0  0
  128.6470  121.3720   60.9060 C   0  0  0  0  0  0  0  0  0  0  0  0
  129.7870  120.6000   60.6390 C   0  0  0  0  0  0  0  0  0  0  0  0
  129.7730  119.1030   61.0010 C   0  0  0  0  0  0  0  0  0  0  0  0
  130.2980  118.3870   60.0060 F   0  0  0  0  0  0  0  0  0  0  0  0
  130.4870  118.8950   62.1070 F   0  0  0  0  0  0  0  0  0  0  0  0
  128.5410  118.6380   61.2230 F   0  0  0  0  0  0  0  0  0  0  0  0
  130.9120  121.2350   60.0570 C   0  0  0  0  0  0  0  0  0  0  0  0
  132.1440  120.4890   59.7810 C   0  0  0  0  0  0  0  0  0  0  0  0
  133.1170  119.9000   59.5640 N   0  0  0  0  0  0  0  0  0  0  0  0
  134.4160  124.8200   64.4930 N   0  0  0  0  0  0  0  0  0  0  0  0
  1  2  1  0
  2  3  2  0
  3  4  1  0
  4  5  2  0
  5  6  1  0
  6  7  1  0
  7  8  1  0
  8  9  2  0
  8 10  1  0
 10 11  1  0
 11 12  1  0
 12 13  2  0
 13 14  1  0
 14 15  1  0
 14 16  2  0
 16 17  1  0
 17 18  1  0
 18 19  1  0
 18 20  1  0
 18 21  1  0
 17 22  2  0
 22 23  1  0
 23 24  3  0
  6 25  2  0
 25  2  1  0
 22 12  1  0
M  END
>  <Binding energies>  (21) 
[-7.1]

>  <Ligand effiencies>  (21) 
[-0.27307692307692305]

>  <Interactions>  (21) 
["V-B:TYR:539:C:9835, V-B:TYR:539:CD2:9842, V-A:LEU:475:CD2:4254, V-A:TRP:381:CZ2:3365, V-A:LEU:475:CD1:4253, V-B:PRO:540:C:9849, V-B:TYR:539:CE2:9844, V-B:ALA:541:CB:9860, V-A:TRP:381:CH2:3367, V-B:PRO:540:CA:9851, V-A:PRO:482:CB:4321, V-B:GLU:543:CD:9876, V-B:ALA:541:CA:9858, V-A:ASP:366:CG:3208, H-A:TYR:484:OH:4343, V-A:TRP:381:CZ3:3366, V-A:HIS:456:CE1:4064, V-A:ILE:369:CD1:3234, V-A:ILE:369:CG2:3232, V-A:PRO:482:CG:4322, V-A:TRP:381:CE2:3362, V-A:ARG:545:CZ:4921, V-A:GLY:453:CA:4039, H-A:GLY:454:N:4045, V-A:LEU:475:CG:4252, V-A:ARG:545:CD:4918, V-A:ARG:545:CG:4917, H-A:ARG:545:NH1:4922, V-A:ARG:545:CB:4916, V-A:GLY:453:C:4037, V-A:ILE:455:C:4047, V-A:HIS:456:CD2:4063, H-A:ASP:366:OD1:3209, H-A:ASP:366:OD2:3210, V-B:TYR:539:CB:9839, V-A:TRP:381:CD2:3360, V-A:TRP:381:CE3:3363"]

$$$$
2f_Grossjean_2025
     RDKit          3D

 24 25  0  0  0  0  0  0  0  0999 V2000
  124.5040  123.8230   62.0700 C   0  0  0  0  0  0  0  0  0  0  0  0
  125.3320  123.6530   60.8110 C   0  0  0  0  0  0  0  0  0  0  0  0
  124.8120  123.9400   59.5510 C   0  0  0  0  0  0  0  0  0  0  0  0
  125.6160  123.7580   58.4150 C   0  0  0  0  0  0  0  0  0  0  0  0
  125.0180  124.0700   57.0290 C   0  0  0  0  0  0  0  0  0  0  0  0
  124.7930  122.9360   56.3620 F   0  0  0  0  0  0  0  0  0  0  0  0
  123.8660  124.7260   57.1680 F   0  0  0  0  0  0  0  0  0  0  0  0
  125.8230  124.8230   56.2760 F   0  0  0  0  0  0  0  0  0  0  0  0
  126.9440  123.2920   58.5910 C   0  0  0  0  0  0  0  0  0  0  0  0
  127.8030  123.0330   57.4330 C   0  0  0  0  0  0  0  0  0  0  0  0
  128.4820  122.8290   56.5180 N   0  0  0  0  0  0  0  0  0  0  0  0
  127.3960  123.0520   59.9110 C   0  0  0  0  0  0  0  0  0  0  0  0
  129.0320  122.4770   60.3180 S   0  0  0  0  0  0  0  0  0  0  0  0
  129.1060  122.2110   62.1230 C   0  0  0  0  0  0  0  0  0  0  0  0
  130.4420  122.5830   62.7810 C   0  0  0  0  0  0  0  0  0  0  0  0
  131.4210  121.8420   62.6780 O   0  0  0  0  0  0  0  0  0  0  0  0
  130.4230  123.7450   63.4690 N   0  0  0  0  0  0  0  0  0  0  0  0
  131.4600  124.3830   64.1760 C   0  0  0  0  0  0  0  0  0  0  0  0
  131.2910  125.2240   65.2920 C   0  0  0  0  0  0  0  0  0  0  0  0
  132.4090  125.7910   65.9060 C   0  0  0  0  0  0  0  0  0  0  0  0
  133.6720  125.5010   65.3910 C   0  0  0  0  0  0  0  0  0  0  0  0
  133.8640  124.6880   64.3210 N   0  0  0  0  0  0  0  0  0  0  0  0
  132.7670  124.1430   63.7360 C   0  0  0  0  0  0  0  0  0  0  0  0
  126.5970  123.2110   60.9950 N   0  0  0  0  0  0  0  0  0  0  0  0
  1  2  1  0
  2  3  2  0
  3  4  1  0
  4  5  1  0
  5  6  1  0
  5  7  1  0
  5  8  1  0
  4  9  2  0
  9 10  1  0
 10 11  3  0
  9 12  1  0
 12 13  1  0
 13 14  1  0
 14 15  1  0
 15 16  2  0
 15 17  1  0
 17 18  1  0
 18 19  2  0
 19 20  1  0
 20 21  2  0
 21 22  1  0
 22 23  2  0
 12 24  2  0
 24  2  1  0
 23 18  1  0
M  END
>  <Binding energies>  (22) 
[-7.22]

>  <Ligand effiencies>  (22) 
[-0.2888]

>  <Interactions>  (22) 
["V-B:TYR:539:C:9835, V-B:PRO:540:C:9849, V-B:PRO:540:N:9852, V-B:ALA:541:CB:9860, V-B:PRO:540:CA:9851, V-B:MET:535:CE:9803, V-B:PRO:540:CB:9853, H-B:ALA:541:N:9859, H-B:GLU:543:OE2:9878, V-B:GLU:543:CD:9876, V-B:ALA:541:CA:9858, H-A:TYR:484:OH:4343, V-B:PRO:540:CD:9855, V-B:LEU:363:CD1:8156, V-B:TYR:531:CZ:9762, V-B:TYR:531:CE2:9761, V-B:ASP:366:CB:8179, V-B:LEU:363:CA:8152, V-B:ARG:545:CZ:9894, V-B:ASN:362:CB:8143, V-A:ARG:545:CZ:4921, H-A:GLY:454:N:4045, V-A:ARG:545:CD:4918, V-B:ASN:362:CG:8144"]

$$$$
2g_Grossjean_2025
     RDKit          3D

 25 26  0  0  0  0  0  0  0  0999 V2000
  127.4760  123.6160   60.8720 C   0  0  0  0  0  0  0  0  0  0  0  0
  128.6750  122.7300   60.5910 C   0  0  0  0  0  0  0  0  0  0  0  0
  128.6760  121.3770   60.9210 C   0  0  0  0  0  0  0  0  0  0  0  0
  129.8130  120.6010   60.6470 C   0  0  0  0  0  0  0  0  0  0  0  0
  129.7990  119.1080   61.0270 C   0  0  0  0  0  0  0  0  0  0  0  0
  130.4900  118.9110   62.1510 F   0  0  0  0  0  0  0  0  0  0  0  0
  128.5420  118.7020   61.2160 F   0  0  0  0  0  0  0  0  0  0  0  0
  130.3380  118.3300   60.0860 F   0  0  0  0  0  0  0  0  0  0  0  0
  130.9280  121.2250   60.0310 C   0  0  0  0  0  0  0  0  0  0  0  0
  132.1600  120.4740   59.7750 C   0  0  0  0  0  0  0  0  0  0  0  0
  133.1320  119.8800   59.5740 N   0  0  0  0  0  0  0  0  0  0  0  0
  130.8240  122.5990   59.7040 C   0  0  0  0  0  0  0  0  0  0  0  0
  132.1160  123.5300   58.9070 S   0  0  0  0  0  0  0  0  0  0  0  0
  131.3180  124.6970   57.7530 C   0  0  0  0  0  0  0  0  0  0  0  0
  130.3540  124.0500   56.7500 C   0  0  0  0  0  0  0  0  0  0  0  0
  130.4750  124.2270   55.5360 O   0  0  0  0  0  0  0  0  0  0  0  0
  129.3800  123.2930   57.2890 N   0  0  0  0  0  0  0  0  0  0  0  0
  128.3520  122.5710   56.5390 C   0  0  0  0  0  0  0  0  0  0  0  0
  126.9220  122.9770   56.8800 C   0  0  0  0  0  0  0  0  0  0  0  0
  125.8580  122.1450   56.5220 C   0  0  0  0  0  0  0  0  0  0  0  0
  124.5540  122.4960   56.8670 C   0  0  0  0  0  0  0  0  0  0  0  0
  124.3210  123.6720   57.5750 C   0  0  0  0  0  0  0  0  0  0  0  0
  125.3790  124.4990   57.9470 C   0  0  0  0  0  0  0  0  0  0  0  0
  126.6820  124.1490   57.6030 C   0  0  0  0  0  0  0  0  0  0  0  0
  129.7260  123.3390   59.9970 N   0  0  0  0  0  0  0  0  0  0  0  0
  1  2  1  0
  2  3  2  0
  3  4  1  0
  4  5  1  0
  5  6  1  0
  5  7  1  0
  5  8  1  0
  4  9  2  0
  9 10  1  0
 10 11  3  0
  9 12  1  0
 12 13  1  0
 13 14  1  0
 14 15  1  0
 15 16  2  0
 15 17  1  0
 17 18  1  0
 18 19  1  0
 19 20  2  0
 20 21  1  0
 21 22  2  0
 22 23  1  0
 23 24  2  0
 12 25  2  0
 25  2  1  0
 24 19  1  0
M  END
>  <Binding energies>  (23) 
[-6.41]

>  <Ligand effiencies>  (23) 
[-0.24653846153846154]

>  <Interactions>  (23) 
["V-B:TYR:539:C:9835, V-B:TYR:539:CD2:9842, V-A:LEU:475:CD2:4254, V-A:TRP:381:CZ2:3365, V-A:LEU:475:CD1:4253, V-B:PRO:540:C:9849, V-B:TYR:539:CE2:9844, V-B:PRO:540:N:9852, V-B:ALA:541:CB:9860, V-A:TRP:381:CH2:3367, H-B:TYR:539:O:9836, V-B:PRO:540:CA:9851, V-B:MET:535:CE:9803, V-B:PRO:540:CB:9853, V-A:PRO:482:CB:4321, V-B:GLU:543:CD:9876, V-B:ALA:541:CA:9858, V-B:TYR:539:CA:9837, V-A:TRP:381:CZ3:3366, V-B:PRO:540:CD:9855, V-B:LEU:363:CD1:8156, V-B:TYR:539:CZ:9845, V-B:TYR:539:CE1:9843, V-A:ILE:369:CG2:3232, V-A:PRO:482:CG:4322, V-B:PRO:540:CG:9854, V-A:TRP:381:CE2:3362, H-B:TYR:539:OH:9846, V-A:LEU:475:CG:4252, H-A:LYS:534:NZ:4818, V-B:TYR:539:CD1:9841, V-B:TYR:539:CG:9840, V-B:TYR:539:CB:9839, V-A:TRP:381:CD2:3360, V-A:TRP:381:CE3:3363"]

$$$$
2h_Grossjean_2025
     RDKit          3D

 31 32  0  0  0  0  0  0  0  0999 V2000
  134.0350  125.1240   65.6950 C   0  0  0  0  0  0  0  0  0  0  0  0
  133.9450  124.6150   64.3690 O   0  0  0  0  0  0  0  0  0  0  0  0
  132.9170  125.0420   63.5470 C   0  0  0  0  0  0  0  0  0  0  0  0
  132.0330  126.0820   63.8730 C   0  0  0  0  0  0  0  0  0  0  0  0
  131.0260  126.4620   62.9890 C   0  0  0  0  0  0  0  0  0  0  0  0
  130.8790  125.8130   61.7620 C   0  0  0  0  0  0  0  0  0  0  0  0
  129.7790  126.2610   60.8000 C   0  0  0  0  0  0  0  0  0  0  0  0
  128.4260  126.0410   61.3120 N   0  0  0  0  0  0  0  0  0  0  0  0
  127.2980  126.4600   60.7120 C   0  0  0  0  0  0  0  0  0  0  0  0
  127.2920  127.1540   59.6940 O   0  0  0  0  0  0  0  0  0  0  0  0
  125.9890  126.0090   61.3750 C   0  0  0  0  0  0  0  0  0  0  0  0
  125.5290  124.2710   61.0690 S   0  0  0  0  0  0  0  0  0  0  0  0
  126.8790  123.5310   60.1750 C   0  0  0  0  0  0  0  0  0  0  0  0
  127.7680  122.8830   60.9670 N   0  0  0  0  0  0  0  0  0  0  0  0
  128.8430  122.3010   60.3930 C   0  0  0  0  0  0  0  0  0  0  0  0
  129.7990  121.6010   61.3400 C   0  0  0  0  0  0  0  0  0  0  0  0
  129.0720  122.3340   59.0180 C   0  0  0  0  0  0  0  0  0  0  0  0
  128.1520  122.9820   58.1800 C   0  0  0  0  0  0  0  0  0  0  0  0
  128.4180  123.0000   56.6620 C   0  0  0  0  0  0  0  0  0  0  0  0
  129.7250  122.8820   56.4280 F   0  0  0  0  0  0  0  0  0  0  0  0
  127.8040  122.0050   56.0190 F   0  0  0  0  0  0  0  0  0  0  0  0
  127.9860  124.1470   56.1350 F   0  0  0  0  0  0  0  0  0  0  0  0
  127.0150  123.5920   58.7680 C   0  0  0  0  0  0  0  0  0  0  0  0
  125.9950  124.2300   57.9310 C   0  0  0  0  0  0  0  0  0  0  0  0
  125.1890  124.7310   57.2680 N   0  0  0  0  0  0  0  0  0  0  0  0
  131.7400  124.7560   61.4330 C   0  0  0  0  0  0  0  0  0  0  0  0
  131.6000  124.1100   60.2270 O   0  0  0  0  0  0  0  0  0  0  0  0
  132.6170  124.4090   59.2800 C   0  0  0  0  0  0  0  0  0  0  0  0
  132.7680  124.3870   62.3170 C   0  0  0  0  0  0  0  0  0  0  0  0
  133.6250  123.3640   61.9890 O   0  0  0  0  0  0  0  0  0  0  0  0
  133.2990  122.1180   62.5890 C   0  0  0  0  0  0  0  0  0  0  0  0
  1  2  1  0
  2  3  1  0
  3  4  2  0
  4  5  1  0
  5  6  2  0
  6  7  1  0
  7  8  1  0
  8  9  1  0
  9 10  2  0
  9 11  1  0
 11 12  1  0
 12 13  1  0
 13 14  2  0
 14 15  1  0
 15 16  1  0
 15 17  2  0
 17 18  1  0
 18 19  1  0
 19 20  1  0
 19 21  1  0
 19 22  1  0
 18 23  2  0
 23 24  1  0
 24 25  3  0
  6 26  1  0
 26 27  1  0
 27 28  1  0
 26 29  2  0
 29 30  1  0
 30 31  1  0
 29  3  1  0
 23 13  1  0
M  END
>  <Binding energies>  (24) 
[-6.01]

>  <Ligand effiencies>  (24) 
[-0.1878125]

>  <Interactions>  (24) 
["V-B:TYR:539:C:9835, V-B:TYR:539:CD2:9842, V-A:LEU:475:CD2:4254, V-B:TYR:539:CE2:9844, V-B:PRO:540:N:9852, V-B:ALA:541:CB:9860, V-B:PRO:540:CA:9851, V-B:MET:535:CE:9803, H-B:ALA:541:N:9859, H-B:GLU:543:OE2:9878, V-B:GLU:543:CD:9876, V-A:ASP:366:CB:3207, V-A:ASP:366:CG:3208, V-A:GLU:543:CD:4903, H-A:TYR:484:OH:4343, V-B:TYR:539:CA:9837, V-B:ASP:366:CG:8180, V-B:TYR:539:CZ:9845, V-B:TYR:539:CE1:9843, V-A:ILE:369:CD1:3234, H-B:ARG:545:NH2:9896, V-A:ARG:545:CZ:4921, H-A:GLY:454:N:4045, V-A:GLY:454:CA:4044, V-A:ARG:545:CD:4918, V-B:TYR:539:CD1:9841, V-B:TYR:539:CG:9840, H-B:TYR:531:OH:9763"]

$$$$
2i_Grossjean_2025
     RDKit          3D

 23 24  0  0  0  0  0  0  0  0999 V2000
  124.4910  123.4680   62.1150 C   0  0  0  0  0  0  0  0  0  0  0  0
  125.4900  123.4740   60.9740 C   0  0  0  0  0  0  0  0  0  0  0  0
  125.0860  123.6260   59.6500 C   0  0  0  0  0  0  0  0  0  0  0  0
  126.0490  123.6270   58.6310 C   0  0  0  0  0  0  0  0  0  0  0  0
  125.5840  123.7960   57.1720 C   0  0  0  0  0  0  0  0  0  0  0  0
  124.2890  124.1160   57.1400 F   0  0  0  0  0  0  0  0  0  0  0  0
  126.2840  124.7620   56.5770 F   0  0  0  0  0  0  0  0  0  0  0  0
  125.7400  122.6850   56.4480 F   0  0  0  0  0  0  0  0  0  0  0  0
  127.4130  123.4700   58.9870 C   0  0  0  0  0  0  0  0  0  0  0  0
  128.4610  123.4650   57.9620 C   0  0  0  0  0  0  0  0  0  0  0  0
  129.2890  123.4610   57.1530 N   0  0  0  0  0  0  0  0  0  0  0  0
  127.7340  123.3190   60.3560 C   0  0  0  0  0  0  0  0  0  0  0  0
  129.4150  123.1080   60.9220 S   0  0  0  0  0  0  0  0  0  0  0  0
  129.3790  122.0970   62.4330 C   0  0  0  0  0  0  0  0  0  0  0  0
  130.1630  122.7400   63.5790 C   0  0  0  0  0  0  0  0  0  0  0  0
  131.0480  122.0890   64.1380 O   0  0  0  0  0  0  0  0  0  0  0  0
  129.7950  123.9960   63.9120 N   0  0  0  0  0  0  0  0  0  0  0  0
  130.3380  124.7780   64.9180 C   0  0  0  0  0  0  0  0  0  0  0  0
  129.7360  125.7470   65.7330 C   0  0  0  0  0  0  0  0  0  0  0  0
  130.7480  126.1940   66.5510 C   0  0  0  0  0  0  0  0  0  0  0  0
  131.8880  125.5260   66.2510 O   0  0  0  0  0  0  0  0  0  0  0  0
  131.6100  124.6290   65.2180 N   0  0  0  0  0  0  0  0  0  0  0  0
  126.7860  123.3230   61.3280 N   0  0  0  0  0  0  0  0  0  0  0  0
  1  2  1  0
  2  3  2  0
  3  4  1  0
  4  5  1  0
  5  6  1  0
  5  7  1  0
  5  8  1  0
  4  9  2  0
  9 10  1  0
 10 11  3  0
  9 12  1  0
 12 13  1  0
 13 14  1  0
 14 15  1  0
 15 16  2  0
 15 17  1  0
 17 18  1  0
 18 19  1  0
 19 20  2  0
 20 21  1  0
 21 22  1  0
 12 23  2  0
 23  2  1  0
 22 18  2  0
M  END
>  <Binding energies>  (25) 
[-6.69]

>  <Ligand effiencies>  (25) 
[-0.27875]

>  <Interactions>  (25) 
["V-B:TYR:539:C:9835, V-B:PRO:540:C:9849, V-B:PRO:540:N:9852, V-B:ALA:541:CB:9860, V-B:PRO:540:CA:9851, V-B:MET:535:CE:9803, V-B:PRO:540:CB:9853, H-B:ALA:541:N:9859, H-B:GLU:543:OE2:9878, V-B:GLU:543:CD:9876, V-B:ALA:541:CA:9858, H-A:TYR:484:OH:4343, V-B:GLU:543:CG:9875, V-B:PRO:540:CD:9855, V-B:LEU:363:CD1:8156, V-B:TYR:531:CE2:9761, V-A:HIS:456:CE1:4064, H-A:HIS:456:NE2:4065, V-B:GLU:543:CB:9874, V-B:ASN:362:CB:8143, V-B:ASN:362:CG:8144"]

$$$$
2k_Grossjean_2025
     RDKit          3D

 28 28  0  0  0  0  0  0  0  0999 V2000
  131.3880  132.9390   54.9060 C   0  0  0  0  0  0  0  0  0  0  0  0
  130.8700  133.3780   56.1520 O   0  0  0  0  0  0  0  0  0  0  0  0
  129.6710  132.7150   56.5330 C   0  0  0  0  0  0  0  0  0  0  0  0
  130.0090  131.3680   57.1840 C   0  0  0  0  0  0  0  0  0  0  0  0
  131.2760  131.4650   57.8180 O   0  0  0  0  0  0  0  0  0  0  0  0
  132.2760  130.6230   57.2570 C   0  0  0  0  0  0  0  0  0  0  0  0
  133.5610  130.7800   58.0810 C   0  0  0  0  0  0  0  0  0  0  0  0
  133.3200  130.2370   59.3690 O   0  0  0  0  0  0  0  0  0  0  0  0
  133.8420  130.9950   60.4510 C   0  0  0  0  0  0  0  0  0  0  0  0
  132.6730  131.5030   61.3150 C   0  0  0  0  0  0  0  0  0  0  0  0
  131.4070  131.5720   60.5810 N   0  0  0  0  0  0  0  0  0  0  0  0
  130.2500  132.0700   61.0590 C   0  0  0  0  0  0  0  0  0  0  0  0
  130.1360  132.5580   62.1840 O   0  0  0  0  0  0  0  0  0  0  0  0
  129.0430  131.9750   60.1140 C   0  0  0  0  0  0  0  0  0  0  0  0
  127.7740  133.2710   60.3320 S   0  0  0  0  0  0  0  0  0  0  0  0
  126.2500  132.5220   60.8910 C   0  0  0  0  0  0  0  0  0  0  0  0
  125.3210  132.2900   59.9280 N   0  0  0  0  0  0  0  0  0  0  0  0
  124.1420  131.7290   60.2800 C   0  0  0  0  0  0  0  0  0  0  0  0
  123.1540  131.5140   59.1510 C   0  0  0  0  0  0  0  0  0  0  0  0
  123.8440  131.3670   61.5910 C   0  0  0  0  0  0  0  0  0  0  0  0
  124.7930  131.5900   62.6010 C   0  0  0  0  0  0  0  0  0  0  0  0
  124.4490  131.1790   64.0450 C   0  0  0  0  0  0  0  0  0  0  0  0
  123.3880  130.3730   64.1140 F   0  0  0  0  0  0  0  0  0  0  0  0
  125.4790  130.5340   64.5940 F   0  0  0  0  0  0  0  0  0  0  0  0
  124.1780  132.2610   64.7760 F   0  0  0  0  0  0  0  0  0  0  0  0
  126.0310  132.1850   62.2470 C   0  0  0  0  0  0  0  0  0  0  0  0
  127.0570  132.4440   63.2620 C   0  0  0  0  0  0  0  0  0  0  0  0
  127.8670  132.6480   64.0640 N   0  0  0  0  0  0  0  0  0  0  0  0
  1  2  1  0
  2  3  1  0
  3  4  1  0
  4  5  1  0
  5  6  1  0
  6  7  1  0
  7  8  1  0
  8  9  1  0
  9 10  1  0
 10 11  1  0
 11 12  1  0
 12 13  2  0
 12 14  1  0
 14 15  1  0
 15 16  1  0
 16 17  2  0
 17 18  1  0
 18 19  1  0
 18 20  2  0
 20 21  1  0
 21 22  1  0
 22 23  1  0
 22 24  1  0
 22 25  1  0
 21 26  2  0
 26 27  1  0
 27 28  3  0
 26 16  1  0
M  END
>  <Binding energies>  (26) 
[-5.57]

>  <Ligand effiencies>  (26) 
[-0.1920689655172414]

>  <Interactions>  (26) 
["V-A:PRO:540:N:4879, V-A:ASN:362:C:3167, V-A:TYR:531:CZ:4789, V-A:TYR:539:CE2:4871, V-A:TYR:531:CE2:4788, V-A:PRO:540:CA:4878, V-A:PRO:540:C:4876, V-A:TYR:539:CE1:4870, H-A:ALA:541:N:4886, V-A:PRO:540:CB:4880, V-A:LEU:363:CD1:3184, V-A:ASN:362:CB:3171, V-A:LEU:363:CA:3180, V-B:GLY:454:CA:9016, V-B:ILE:369:CD1:8206, V-B:LEU:475:CD2:9226, H-A:TYR:539:N:4865, V-B:ASP:366:CB:8179, V-A:LEU:363:CB:3182, V-A:TYR:539:CD1:4868, V-A:TYR:539:CG:4867, V-A:ILE:538:CG2:4858, V-B:ARG:545:CZ:9894, H-A:TYR:539:OH:4873, V-A:ILE:538:CA:4855, V-B:ASP:366:C:8175, V-B:ASP:366:CA:8177, V-B:ILE:369:CG2:8204, V-B:ILE:369:CB:8203, V-A:ILE:538:CB:4857, V-B:TYR:484:CZ:9314, H-B:TYR:484:OH:9315, V-B:GLY:453:CA:9011, V-B:GLY:453:C:9009, V-B:GLY:454:C:9014, V-A:ILE:538:CD1:4860"]

$$$$
3aa_Grossjean_2025
     RDKit          3D

 34 36  0  0  0  0  0  0  0  0999 V2000
  128.7420  123.2900   55.8290 C   0  0  0  0  0  0  0  0  0  0  0  0
  128.0490  122.4220   56.8840 C   0  0  0  0  0  0  0  0  0  0  0  0
  126.7240  122.1270   56.4600 O   0  0  0  0  0  0  0  0  0  0  0  0
  125.6530  122.7110   57.0550 C   0  0  0  0  0  0  0  0  0  0  0  0
  124.4830  122.4270   56.7810 O   0  0  0  0  0  0  0  0  0  0  0  0
  126.0320  123.7520   58.0700 C   0  0  0  0  0  0  0  0  0  0  0  0
  126.3230  123.4190   59.4020 C   0  0  0  0  0  0  0  0  0  0  0  0
  126.6760  124.4080   60.3160 C   0  0  0  0  0  0  0  0  0  0  0  0
  126.7520  125.7440   59.9190 C   0  0  0  0  0  0  0  0  0  0  0  0
  127.1210  126.6640   60.9210 N   0  0  0  0  0  0  0  0  0  0  0  0
  127.3350  127.9950   60.8310 C   0  0  0  0  0  0  0  0  0  0  0  0
  127.2620  128.6620   59.7980 O   0  0  0  0  0  0  0  0  0  0  0  0
  127.7090  128.6920   62.1390 C   0  0  0  0  0  0  0  0  0  0  0  0
  129.2750  129.6070   61.9930 S   0  0  0  0  0  0  0  0  0  0  0  0
  128.9080  131.1390   61.1670 C   0  0  0  0  0  0  0  0  0  0  0  0
  128.9850  131.0600   59.8170 N   0  0  0  0  0  0  0  0  0  0  0  0
  128.7300  132.1600   59.0630 C   0  0  0  0  0  0  0  0  0  0  0  0
  128.8210  131.9890   57.5760 C   0  0  0  0  0  0  0  0  0  0  0  0
  129.7320  132.7470   56.8240 C   0  0  0  0  0  0  0  0  0  0  0  0
  129.8240  132.5920   55.4430 C   0  0  0  0  0  0  0  0  0  0  0  0
  129.0030  131.6760   54.7950 C   0  0  0  0  0  0  0  0  0  0  0  0
  128.0930  130.9110   55.5180 C   0  0  0  0  0  0  0  0  0  0  0  0
  128.0060  131.0660   56.8990 C   0  0  0  0  0  0  0  0  0  0  0  0
  128.3800  133.3760   59.6600 C   0  0  0  0  0  0  0  0  0  0  0  0
  128.3120  133.4860   61.0570 C   0  0  0  0  0  0  0  0  0  0  0  0
  127.9350  134.8450   61.6780 C   0  0  0  0  0  0  0  0  0  0  0  0
  128.9780  135.6690   61.7920 F   0  0  0  0  0  0  0  0  0  0  0  0
  127.0240  135.4590   60.9220 F   0  0  0  0  0  0  0  0  0  0  0  0
  127.4310  134.6630   62.8990 F   0  0  0  0  0  0  0  0  0  0  0  0
  128.5940  132.3400   61.8400 C   0  0  0  0  0  0  0  0  0  0  0  0
  128.5940  132.4120   63.3040 C   0  0  0  0  0  0  0  0  0  0  0  0
  128.5950  132.4680   64.4610 N   0  0  0  0  0  0  0  0  0  0  0  0
  126.4490  126.0850   58.5920 C   0  0  0  0  0  0  0  0  0  0  0  0
  126.0950  125.0960   57.6810 C   0  0  0  0  0  0  0  0  0  0  0  0
  1  2  1  0
  2  3  1  0
  3  4  1  0
  4  5  2  0
  4  6  1  0
  6  7  2  0
  7  8  1  0
  8  9  2  0
  9 10  1  0
 10 11  1  0
 11 12  2  0
 11 13  1  0
 13 14  1  0
 14 15  1  0
 15 16  2  0
 16 17  1  0
 17 18  1  0
 18 19  2  0
 19 20  1  0
 20 21  2  0
 21 22  1  0
 22 23  2  0
 17 24  2  0
 24 25  1  0
 25 26  1  0
 26 27  1  0
 26 28  1  0
 26 29  1  0
 25 30  2  0
 30 31  1  0
 31 32  3  0
  9 33  1  0
 33 34  2  0
 34  6  1  0
 30 15  1  0
 23 18  1  0
M  END
>  <Binding energies>  (27) 
[-8.22]

>  <Ligand effiencies>  (27) 
[-0.23485714285714288]

>  <Interactions>  (27) 
["V-B:TYR:539:C:9835, V-B:TYR:539:CD2:9842, V-B:TYR:539:CE2:9844, V-B:PRO:540:N:9852, V-B:PRO:540:CA:9851, V-B:MET:535:CE:9803, V-B:PRO:540:CB:9853, H-B:GLU:543:OE1:9877, H-B:GLU:543:OE2:9878, V-A:GLU:543:CG:4902, V-A:PRO:540:N:4879, V-A:TYR:539:CE2:4871, V-A:PRO:540:CA:4878, V-A:PRO:540:C:4876, V-A:TYR:539:CE1:4870, V-A:ALA:541:CA:4885, V-A:TYR:539:CZ:4872, V-A:TYR:539:C:4862, V-A:TYR:539:CD2:4869, V-B:LEU:475:CD2:9226, V-B:TRP:381:CH2:8339, H-B:TYR:539:N:9838, V-B:PRO:540:CD:9855, V-B:TYR:539:CZ:9845, V-A:TYR:539:CD1:4868, V-A:ALA:541:CB:4887, V-A:TYR:539:CG:4867, V-B:LEU:475:CD1:9225, H-B:TYR:484:OH:9315, V-B:TYR:539:CE1:9843, V-B:LEU:475:CG:9224, V-B:TYR:539:CD1:9841, V-B:TYR:539:CG:9840, V-B:PRO:482:CB:9293, V-B:PRO:482:CG:9294"]

$$$$
3ad_Grossjean_2025
     RDKit          3D

 29 31  0  0  0  0  0  0  0  0999 V2000
  124.3320  131.3590   60.4750 N   0  0  0  0  0  0  0  0  0  0  0  0
  125.2360  131.4330   59.7560 C   0  0  0  0  0  0  0  0  0  0  0  0
  126.3790  131.5250   58.8420 C   0  0  0  0  0  0  0  0  0  0  0  0
  126.4200  130.7550   57.6550 C   0  0  0  0  0  0  0  0  0  0  0  0
  125.2710  129.8220   57.2270 C   0  0  0  0  0  0  0  0  0  0  0  0
  125.3240  128.6280   57.8200 F   0  0  0  0  0  0  0  0  0  0  0  0
  124.0970  130.3740   57.5410 F   0  0  0  0  0  0  0  0  0  0  0  0
  125.3130  129.6160   55.9100 F   0  0  0  0  0  0  0  0  0  0  0  0
  127.5580  130.8430   56.8380 C   0  0  0  0  0  0  0  0  0  0  0  0
  128.6240  131.6740   57.1980 C   0  0  0  0  0  0  0  0  0  0  0  0
  129.8690  131.7940   56.3700 C   0  0  0  0  0  0  0  0  0  0  0  0
  130.7250  132.8980   56.5180 C   0  0  0  0  0  0  0  0  0  0  0  0
  131.8820  133.0150   55.7540 C   0  0  0  0  0  0  0  0  0  0  0  0
  132.2010  132.0270   54.8270 C   0  0  0  0  0  0  0  0  0  0  0  0
  131.3720  130.9230   54.6640 C   0  0  0  0  0  0  0  0  0  0  0  0
  130.2150  130.8080   55.4310 C   0  0  0  0  0  0  0  0  0  0  0  0
  128.5830  132.4050   58.3410 N   0  0  0  0  0  0  0  0  0  0  0  0
  127.4870  132.3520   59.1340 C   0  0  0  0  0  0  0  0  0  0  0  0
  127.6020  133.3830   60.5790 S   0  0  0  0  0  0  0  0  0  0  0  0
  128.2730  132.3580   61.9220 C   0  0  0  0  0  0  0  0  0  0  0  0
  129.7780  132.1210   61.7710 C   0  0  0  0  0  0  0  0  0  0  0  0
  130.5370  132.5110   62.6590 O   0  0  0  0  0  0  0  0  0  0  0  0
  130.1540  131.4860   60.6400 N   0  0  0  0  0  0  0  0  0  0  0  0
  131.4370  131.1080   60.2040 C   0  0  0  0  0  0  0  0  0  0  0  0
  131.5030  130.5650   58.9170 C   0  0  0  0  0  0  0  0  0  0  0  0
  132.7240  130.1540   58.3890 C   0  0  0  0  0  0  0  0  0  0  0  0
  133.8820  130.2800   59.1510 C   0  0  0  0  0  0  0  0  0  0  0  0
  133.8300  130.8110   60.4360 C   0  0  0  0  0  0  0  0  0  0  0  0
  132.6110  131.2240   60.9680 C   0  0  0  0  0  0  0  0  0  0  0  0
  1  2  3  0
  2  3  1  0
  3  4  2  0
  4  5  1  0
  5  6  1  0
  5  7  1  0
  5  8  1  0
  4  9  1  0
  9 10  2  0
 10 11  1  0
 11 12  2  0
 12 13  1  0
 13 14  2  0
 14 15  1  0
 15 16  2  0
 10 17  1  0
 17 18  2  0
 18 19  1  0
 19 20  1  0
 20 21  1  0
 21 22  2  0
 21 23  1  0
 23 24  1  0
 24 25  2  0
 25 26  1  0
 26 27  2  0
 27 28  1  0
 28 29  2  0
 18  3  1  0
 29 24  1  0
 16 11  1  0
M  END
>  <Binding energies>  (28) 
[-7.85]

>  <Ligand effiencies>  (28) 
[-0.26166666666666666]

>  <Interactions>  (28) 
["V-A:PRO:540:N:4879, V-A:ASN:362:C:3167, V-A:TYR:531:CZ:4789, V-A:TYR:539:CE2:4871, V-A:PRO:540:CG:4881, V-A:TYR:531:CE2:4788, V-A:PRO:540:CA:4878, V-A:TYR:539:CE1:4870, V-A:ASP:366:CB:3207, H-A:ALA:541:N:4886, V-A:TYR:539:CZ:4872, V-A:PRO:540:CB:4880, V-A:LEU:363:CD1:3184, V-A:TYR:539:C:4862, V-A:ASN:362:CB:3171, V-A:LEU:363:CA:3180, V-A:PRO:540:CD:4882, V-A:ASP:366:CG:3208, V-A:TYR:539:CD2:4869, V-B:ASP:366:CG:8180, V-B:TYR:531:CZ:9762, V-B:ASP:366:CB:8179, V-A:ILE:538:CG2:4858, V-B:TYR:531:CE1:9760, V-A:ILE:538:CA:4855, V-B:ASP:366:C:8175, V-B:ASP:366:CA:8177, V-A:ILE:538:CD1:4860"]

$$$$
3ai_Grossjean_2025
     RDKit          3D

 28 30  0  0  0  0  0  0  0  0999 V2000
  124.2610  132.8720   61.9010 N   0  0  0  0  0  0  0  0  0  0  0  0
  125.2060  132.7990   61.2370 C   0  0  0  0  0  0  0  0  0  0  0  0
  126.4040  132.7070   60.3970 C   0  0  0  0  0  0  0  0  0  0  0  0
  127.4740  133.6210   60.5590 C   0  0  0  0  0  0  0  0  0  0  0  0
  127.4710  134.7220   61.6380 C   0  0  0  0  0  0  0  0  0  0  0  0
  128.6430  135.3530   61.7370 F   0  0  0  0  0  0  0  0  0  0  0  0
  126.5450  135.6380   61.3500 F   0  0  0  0  0  0  0  0  0  0  0  0
  127.2010  134.1940   62.8320 F   0  0  0  0  0  0  0  0  0  0  0  0
  128.5780  133.5210   59.6990 C   0  0  0  0  0  0  0  0  0  0  0  0
  128.6120  132.5400   58.7030 C   0  0  0  0  0  0  0  0  0  0  0  0
  129.7600  132.3940   57.7500 C   0  0  0  0  0  0  0  0  0  0  0  0
  129.7260  133.0100   56.4890 C   0  0  0  0  0  0  0  0  0  0  0  0
  130.7900  132.8830   55.6000 C   0  0  0  0  0  0  0  0  0  0  0  0
  131.9070  132.1370   55.9630 C   0  0  0  0  0  0  0  0  0  0  0  0
  131.9670  131.5190   57.2080 C   0  0  0  0  0  0  0  0  0  0  0  0
  130.9010  131.6490   58.0940 C   0  0  0  0  0  0  0  0  0  0  0  0
  127.5810  131.6710   58.5460 N   0  0  0  0  0  0  0  0  0  0  0  0
  126.5150  131.7320   59.3800 C   0  0  0  0  0  0  0  0  0  0  0  0
  125.2740  130.5020   59.0360 S   0  0  0  0  0  0  0  0  0  0  0  0
  125.6330  129.0410   60.0690 C   0  0  0  0  0  0  0  0  0  0  0  0
  125.6990  129.3140   61.5790 C   0  0  0  0  0  0  0  0  0  0  0  0
  126.7800  129.3190   62.1730 O   0  0  0  0  0  0  0  0  0  0  0  0
  124.5010  129.5370   62.1640 N   0  0  0  0  0  0  0  0  0  0  0  0
  124.2570  129.8150   63.5030 C   0  0  0  0  0  0  0  0  0  0  0  0
  125.1250  129.4430   64.5290 C   0  0  0  0  0  0  0  0  0  0  0  0
  124.5290  129.8930   65.6840 C   0  0  0  0  0  0  0  0  0  0  0  0
  123.3620  130.5050   65.3710 O   0  0  0  0  0  0  0  0  0  0  0  0
  123.2010  130.4490   63.9860 N   0  0  0  0  0  0  0  0  0  0  0  0
  1  2  3  0
  2  3  1  0
  3  4  2  0
  4  5  1  0
  5  6  1  0
  5  7  1  0
  5  8  1  0
  4  9  1  0
  9 10  2  0
 10 11  1  0
 11 12  2  0
 12 13  1  0
 13 14  2  0
 14 15  1  0
 15 16  2  0
 10 17  1  0
 17 18  2  0
 18 19  1  0
 19 20  1  0
 20 21  1  0
 21 22  2  0
 21 23  1  0
 23 24  1  0
 24 25  1  0
 25 26  2  0
 26 27  1  0
 27 28  1  0
 18  3  1  0
 28 24  2  0
 16 11  1  0
M  END
>  <Binding energies>  (29) 
[-7.87]

>  <Ligand effiencies>  (29) 
[-0.2713793103448276]

>  <Interactions>  (29) 
["H-B:ASP:366:OD1:8181, H-B:ASP:366:OD2:8182, V-A:PRO:540:N:4879, V-A:TYR:539:CE2:4871, V-A:PRO:540:CA:4878, V-A:PRO:540:C:4876, V-A:TYR:539:CE1:4870, V-A:ALA:541:CA:4885, V-A:TYR:539:CZ:4872, V-A:PRO:540:CB:4880, V-A:LEU:363:CD1:3184, V-A:TYR:539:C:4862, V-A:PRO:540:CD:4882, H-B:ARG:545:NH1:9895, V-A:TYR:539:CD2:4869, H-B:GLY:454:N:9017, V-B:LEU:475:CD2:9226, V-B:TRP:381:CH2:8339, V-B:ASP:366:CG:8180, V-B:ASP:366:CB:8179, V-A:TYR:539:CD1:4868, V-A:ALA:541:CB:4887, V-A:TYR:539:CG:4867, V-A:TYR:539:CA:4864, V-B:ARG:545:CZ:9894, H-A:TYR:539:OH:4873, V-A:ILE:538:CA:4855, V-B:LEU:475:CD1:9225, V-B:HIS:456:CE1:9037, V-B:ARG:545:CD:9891, V-B:LEU:475:CG:9224, V-B:TRP:381:CZ2:8337, V-B:PRO:482:CB:9293"]

$$$$
3aj_Grossjean_2025
     RDKit          3D

 28 30  0  0  0  0  0  0  0  0999 V2000
  124.1490  133.2180   61.8560 N   0  0  0  0  0  0  0  0  0  0  0  0
  125.1100  133.0850   61.2260 C   0  0  0  0  0  0  0  0  0  0  0  0
  126.3290  132.9180   60.4300 C   0  0  0  0  0  0  0  0  0  0  0  0
  127.4380  133.7790   60.6150 C   0  0  0  0  0  0  0  0  0  0  0  0
  127.4540  134.8990   61.6730 C   0  0  0  0  0  0  0  0  0  0  0  0
  126.5980  135.8860   61.3960 F   0  0  0  0  0  0  0  0  0  0  0  0
  127.1250  134.4040   62.8670 F   0  0  0  0  0  0  0  0  0  0  0  0
  128.6710  135.4380   61.7490 F   0  0  0  0  0  0  0  0  0  0  0  0
  128.5640  133.6080   59.7940 C   0  0  0  0  0  0  0  0  0  0  0  0
  128.5810  132.6090   58.8160 C   0  0  0  0  0  0  0  0  0  0  0  0
  129.7520  132.3890   57.9070 C   0  0  0  0  0  0  0  0  0  0  0  0
  130.8500  131.6240   58.3280 C   0  0  0  0  0  0  0  0  0  0  0  0
  131.9410  131.4120   57.4870 C   0  0  0  0  0  0  0  0  0  0  0  0
  131.9460  131.9660   56.2110 C   0  0  0  0  0  0  0  0  0  0  0  0
  130.8680  132.7270   55.7700 C   0  0  0  0  0  0  0  0  0  0  0  0
  129.7800  132.9350   56.6130 C   0  0  0  0  0  0  0  0  0  0  0  0
  127.5120  131.7900   58.6370 N   0  0  0  0  0  0  0  0  0  0  0  0
  126.4230  131.9200   59.4320 C   0  0  0  0  0  0  0  0  0  0  0  0
  125.1340  130.7490   59.0680 S   0  0  0  0  0  0  0  0  0  0  0  0
  125.3170  129.3410   60.2150 C   0  0  0  0  0  0  0  0  0  0  0  0
  125.5200  129.7260   61.6880 C   0  0  0  0  0  0  0  0  0  0  0  0
  126.5540  130.2870   62.0570 O   0  0  0  0  0  0  0  0  0  0  0  0
  124.4920  129.4000   62.5030 N   0  0  0  0  0  0  0  0  0  0  0  0
  124.4100  129.6370   63.8690 C   0  0  0  0  0  0  0  0  0  0  0  0
  123.5450  130.3960   64.5060 N   0  0  0  0  0  0  0  0  0  0  0  0
  123.7580  130.3880   65.8070 C   0  0  0  0  0  0  0  0  0  0  0  0
  124.8210  129.6060   66.2520 C   0  0  0  0  0  0  0  0  0  0  0  0
  125.5750  128.8470   64.8830 S   0  0  0  0  0  0  0  0  0  0  0  0
  1  2  3  0
  2  3  1  0
  3  4  2  0
  4  5  1  0
  5  6  1  0
  5  7  1  0
  5  8  1  0
  4  9  1  0
  9 10  2  0
 10 11  1  0
 11 12  2  0
 12 13  1  0
 13 14  2  0
 14 15  1  0
 15 16  2  0
 10 17  1  0
 17 18  2  0
 18 19  1  0
 19 20  1  0
 20 21  1  0
 21 22  2  0
 21 23  1  0
 23 24  1  0
 24 25  2  0
 25 26  1  0
 26 27  2  0
 27 28  1  0
 18  3  1  0
 28 24  1  0
 16 11  1  0
M  END
>  <Binding energies>  (30) 
[-7.63]

>  <Ligand effiencies>  (30) 
[-0.2631034482758621]

>  <Interactions>  (30) 
["H-B:ASP:366:OD1:8181, H-B:ASP:366:OD2:8182, V-A:PRO:540:N:4879, V-A:TYR:539:CE2:4871, V-A:PRO:540:CA:4878, V-A:PRO:540:C:4876, V-A:TYR:539:CE1:4870, V-A:ALA:541:CA:4885, V-A:TYR:539:CZ:4872, V-A:PRO:540:CB:4880, V-A:LEU:363:CD1:3184, V-A:TYR:539:C:4862, V-A:PRO:540:CD:4882, V-B:GLY:454:CA:9016, V-A:TYR:539:CD2:4869, H-B:GLY:454:N:9017, V-B:LEU:475:CD2:9226, V-B:TRP:381:CH2:8339, V-B:ASP:366:CG:8180, V-B:ASP:366:CB:8179, V-A:TYR:539:CD1:4868, V-A:ALA:541:CB:4887, V-A:TYR:539:CG:4867, V-A:TYR:539:CA:4864, V-B:ARG:545:CZ:9894, H-A:TYR:539:OH:4873, V-B:LEU:475:CD1:9225, V-B:HIS:456:CE1:9037, V-B:ARG:545:CG:9890, V-B:ARG:545:CD:9891, V-B:LEU:475:CG:9224, V-B:TRP:381:CZ2:8337, V-B:PRO:482:CB:9293"]

$$$$
3ak_Grossjean_2025
     RDKit          3D

 33 34  0  0  0  0  0  0  0  0999 V2000
  124.0640  130.0170   64.4750 C   0  0  0  0  0  0  0  0  0  0  0  0
  123.5870  131.1080   63.7020 O   0  0  0  0  0  0  0  0  0  0  0  0
  124.6150  131.8040   63.0130 C   0  0  0  0  0  0  0  0  0  0  0  0
  124.0680  132.2980   61.6680 C   0  0  0  0  0  0  0  0  0  0  0  0
  124.6460  131.5250   60.6210 O   0  0  0  0  0  0  0  0  0  0  0  0
  123.7310  130.7420   59.8590 C   0  0  0  0  0  0  0  0  0  0  0  0
  124.1180  130.6070   58.3750 C   0  0  0  0  0  0  0  0  0  0  0  0
  124.6870  129.3230   58.1550 O   0  0  0  0  0  0  0  0  0  0  0  0
  126.0340  129.3600   57.7040 C   0  0  0  0  0  0  0  0  0  0  0  0
  126.7050  130.6750   58.1390 C   0  0  0  0  0  0  0  0  0  0  0  0
  127.3420  131.4000   57.0370 N   0  0  0  0  0  0  0  0  0  0  0  0
  127.7030  130.8760   55.8500 C   0  0  0  0  0  0  0  0  0  0  0  0
  127.5110  129.6950   55.5570 O   0  0  0  0  0  0  0  0  0  0  0  0
  128.3850  131.7860   54.8150 C   0  0  0  0  0  0  0  0  0  0  0  0
  129.6610  132.9350   55.4510 S   0  0  0  0  0  0  0  0  0  0  0  0
  130.1950  132.3660   57.0570 C   0  0  0  0  0  0  0  0  0  0  0  0
  129.4430  132.7800   58.1060 N   0  0  0  0  0  0  0  0  0  0  0  0
  129.7730  132.4060   59.3680 C   0  0  0  0  0  0  0  0  0  0  0  0
  128.8850  132.9080   60.4680 C   0  0  0  0  0  0  0  0  0  0  0  0
  127.8450  133.8090   60.1940 C   0  0  0  0  0  0  0  0  0  0  0  0
  127.0150  134.2770   61.2110 C   0  0  0  0  0  0  0  0  0  0  0  0
  127.2150  133.8460   62.5180 C   0  0  0  0  0  0  0  0  0  0  0  0
  128.2370  132.9520   62.8150 C   0  0  0  0  0  0  0  0  0  0  0  0
  129.0640  132.4860   61.7970 C   0  0  0  0  0  0  0  0  0  0  0  0
  130.8760  131.5780   59.6050 C   0  0  0  0  0  0  0  0  0  0  0  0
  131.6700  131.1340   58.5380 C   0  0  0  0  0  0  0  0  0  0  0  0
  132.8790  130.2260   58.8380 C   0  0  0  0  0  0  0  0  0  0  0  0
  132.5290  128.9460   58.7160 F   0  0  0  0  0  0  0  0  0  0  0  0
  133.8700  130.4870   57.9850 F   0  0  0  0  0  0  0  0  0  0  0  0
  133.3600  130.3950   60.0720 F   0  0  0  0  0  0  0  0  0  0  0  0
  131.3260  131.5370   57.2250 C   0  0  0  0  0  0  0  0  0  0  0  0
  132.1200  131.1040   56.0710 C   0  0  0  0  0  0  0  0  0  0  0  0
  132.7480  130.7630   55.1600 N   0  0  0  0  0  0  0  0  0  0  0  0
  1  2  1  0
  2  3  1  0
  3  4  1  0
  4  5  1  0
  5  6  1  0
  6  7  1  0
  7  8  1  0
  8  9  1  0
  9 10  1  0
 10 11  1  0
 11 12  1  0
 12 13  2  0
 12 14  1  0
 14 15  1  0
 15 16  1  0
 16 17  2  0
 17 18  1  0
 18 19  1  0
 19 20  2  0
 20 21  1  0
 21 22  2  0
 22 23  1  0
 23 24  2  0
 18 25  2  0
 25 26  1  0
 26 27  1  0
 27 28  1  0
 27 29  1  0
 27 30  1  0
 26 31  2  0
 31 32  1  0
 32 33  3  0
 31 16  1  0
 24 19  1  0
M  END
>  <Binding energies>  (31) 
[-5.62]

>  <Ligand effiencies>  (31) 
[-0.1652941176470588]

>  <Interactions>  (31) 
["V-A:PRO:540:N:4879, V-A:ASN:362:C:3167, V-A:TYR:531:CZ:4789, V-A:TYR:539:CE2:4871, V-A:TYR:531:CE2:4788, V-A:PRO:540:CA:4878, V-A:TYR:539:CE1:4870, V-A:ASP:366:CB:3207, V-A:TYR:539:CZ:4872, V-A:PRO:540:CB:4880, V-A:LEU:363:CD1:3184, V-A:TYR:539:C:4862, V-A:LEU:363:CA:3180, V-A:ASP:366:CG:3208, V-A:TYR:539:CD2:4869, H-B:GLY:454:N:9017, V-B:ILE:369:CD1:8206, V-B:LEU:475:CD2:9226, H-A:TYR:539:N:4865, V-B:ASP:366:CG:8180, V-B:ASP:366:CB:8179, V-A:LEU:363:CB:3182, V-A:TYR:539:CD1:4868, V-A:ALA:541:CB:4887, V-B:ARG:545:CZ:9894, H-A:TYR:539:OH:4873, V-B:LEU:475:CD1:9225, V-B:ASP:366:C:8175, V-B:ASP:366:CA:8177, H-A:TYR:531:OH:4790, H-B:TYR:531:OH:9763"]

$$$$
3bk_Grossjean_2025
     RDKit          3D

 30 31  0  0  0  0  0  0  0  0999 V2000
  130.0810  124.3790   67.7490 C   0  0  0  0  0  0  0  0  0  0  0  0
  131.0080  125.1360   66.9850 O   0  0  0  0  0  0  0  0  0  0  0  0
  130.3920  125.9790   66.0210 C   0  0  0  0  0  0  0  0  0  0  0  0
  130.4410  125.3070   64.6410 C   0  0  0  0  0  0  0  0  0  0  0  0
  130.9990  126.2100   63.6970 O   0  0  0  0  0  0  0  0  0  0  0  0
  132.3460  125.9170   63.3490 C   0  0  0  0  0  0  0  0  0  0  0  0
  132.9970  125.1080   64.4780 C   0  0  0  0  0  0  0  0  0  0  0  0
  134.2270  124.5620   64.0200 O   0  0  0  0  0  0  0  0  0  0  0  0
  134.1460  123.9650   62.7320 C   0  0  0  0  0  0  0  0  0  0  0  0
  133.7070  122.5010   62.8740 C   0  0  0  0  0  0  0  0  0  0  0  0
  132.3430  122.2780   62.3900 N   0  0  0  0  0  0  0  0  0  0  0  0
  131.2370  122.2620   63.1540 C   0  0  0  0  0  0  0  0  0  0  0  0
  131.2440  122.4550   64.3700 O   0  0  0  0  0  0  0  0  0  0  0  0
  129.9120  122.0140   62.4290 C   0  0  0  0  0  0  0  0  0  0  0  0
  130.1460  121.0820   60.8820 S   0  0  0  0  0  0  0  0  0  0  0  0
  129.9150  122.1860   59.4990 C   0  0  0  0  0  0  0  0  0  0  0  0
  128.6300  122.4040   59.1220 N   0  0  0  0  0  0  0  0  0  0  0  0
  128.3580  123.2280   58.0750 C   0  0  0  0  0  0  0  0  0  0  0  0
  126.9120  123.4310   57.7390 C   0  0  0  0  0  0  0  0  0  0  0  0
  126.2210  122.4970   56.9500 C   0  0  0  0  0  0  0  0  0  0  0  0
  124.8780  122.6830   56.6290 C   0  0  0  0  0  0  0  0  0  0  0  0
  124.2060  123.8080   57.0960 C   0  0  0  0  0  0  0  0  0  0  0  0
  124.8660  124.7460   57.8830 C   0  0  0  0  0  0  0  0  0  0  0  0
  126.2080  124.5560   58.2030 C   0  0  0  0  0  0  0  0  0  0  0  0
  129.3910  123.8660   57.3780 C   0  0  0  0  0  0  0  0  0  0  0  0
  130.7220  123.6520   57.7520 C   0  0  0  0  0  0  0  0  0  0  0  0
  131.8180  124.3670   56.9640 C   0  0  0  0  0  0  0  0  0  0  0  0
  131.0040  122.7940   58.8360 C   0  0  0  0  0  0  0  0  0  0  0  0
  132.3880  122.5520   59.2530 C   0  0  0  0  0  0  0  0  0  0  0  0
  133.4820  122.3610   59.5810 N   0  0  0  0  0  0  0  0  0  0  0  0
  1  2  1  0
  2  3  1  0
  3  4  1  0
  4  5  1  0
  5  6  1  0
  6  7  1  0
  7  8  1  0
  8  9  1  0
  9 10  1  0
 10 11  1  0
 11 12  1  0
 12 13  2  0
 12 14  1  0
 14 15  1  0
 15 16  1  0
 16 17  2  0
 17 18  1  0
 18 19  1  0
 19 20  2  0
 20 21  1  0
 21 22  2  0
 22 23  1  0
 23 24  2  0
 18 25  2  0
 25 26  1  0
 26 27  1  0
 26 28  2  0
 28 29  1  0
 29 30  3  0
 28 16  1  0
 24 19  1  0
M  END
>  <Binding energies>  (32) 
[-6.82]

>  <Ligand effiencies>  (32) 
[-0.22]

>  <Interactions>  (32) 
["V-B:TYR:539:C:9835, V-B:TYR:539:CD2:9842, V-A:LEU:475:CD2:4254, V-B:TYR:539:CE2:9844, V-B:PRO:540:N:9852, V-B:ALA:541:CB:9860, V-B:PRO:540:CA:9851, V-B:MET:535:CE:9803, V-B:PRO:540:CB:9853, V-A:TYR:531:CZ:4789, V-A:ASP:366:CG:3208, H-A:TYR:484:OH:4343, V-B:GLU:543:CG:9875, V-A:TYR:484:CE1:4340, V-B:PRO:540:CD:9855, V-B:LEU:363:CD1:8156, V-B:TYR:539:CZ:9845, V-B:TYR:531:CE2:9761, V-A:TYR:484:CZ:4342, V-B:GLU:543:CA:9872, V-A:HIS:456:CE1:4064, H-A:HIS:456:NE2:4065, V-B:GLU:543:CB:9874, V-A:ILE:369:CD1:3234, V-A:TYR:531:CE1:4787, V-A:ARG:545:CZ:4921, V-A:GLY:453:CA:4039, H-A:GLY:454:N:4045, V-A:GLY:454:CA:4044, V-A:GLY:453:C:4037"]

$$$$
3cb_Grossjean_2025
     RDKit          3D

 30 32  0  0  0  0  0  0  0  0999 V2000
  132.0220  131.7760   56.9710 C   0  0  0  0  0  0  0  0  0  0  0  0
  131.3510  133.0080   56.7510 O   0  0  0  0  0  0  0  0  0  0  0  0
  130.0880  133.0370   56.2510 C   0  0  0  0  0  0  0  0  0  0  0  0
  129.8220  133.3760   55.0940 O   0  0  0  0  0  0  0  0  0  0  0  0
  129.0450  132.6190   57.2480 C   0  0  0  0  0  0  0  0  0  0  0  0
  128.1530  131.5660   56.9940 C   0  0  0  0  0  0  0  0  0  0  0  0
  127.2010  131.2020   57.9410 C   0  0  0  0  0  0  0  0  0  0  0  0
  127.1140  131.8810   59.1560 C   0  0  0  0  0  0  0  0  0  0  0  0
  126.1160  131.4270   60.0420 N   0  0  0  0  0  0  0  0  0  0  0  0
  124.7930  131.2440   59.8380 C   0  0  0  0  0  0  0  0  0  0  0  0
  124.2100  131.4400   58.7700 O   0  0  0  0  0  0  0  0  0  0  0  0
  124.0240  130.7360   61.0670 C   0  0  0  0  0  0  0  0  0  0  0  0
  124.0500  131.8560   62.5090 S   0  0  0  0  0  0  0  0  0  0  0  0
  124.4200  130.8790   63.9500 C   0  0  0  0  0  0  0  0  0  0  0  0
  123.3730  130.7550   64.8020 N   0  0  0  0  0  0  0  0  0  0  0  0
  123.5390  130.0330   65.9330 C   0  0  0  0  0  0  0  0  0  0  0  0
  122.3220  129.9280   66.8320 C   0  0  0  0  0  0  0  0  0  0  0  0
  124.7430  129.4170   66.2590 C   0  0  0  0  0  0  0  0  0  0  0  0
  125.8440  129.5440   65.4020 C   0  0  0  0  0  0  0  0  0  0  0  0
  127.1160  128.8680   65.8000 C   0  0  0  0  0  0  0  0  0  0  0  0
  127.8530  129.3420   66.8920 C   0  0  0  0  0  0  0  0  0  0  0  0
  129.0340  128.7130   67.2780 C   0  0  0  0  0  0  0  0  0  0  0  0
  129.4830  127.6000   66.5710 C   0  0  0  0  0  0  0  0  0  0  0  0
  128.7600  127.1110   65.4880 C   0  0  0  0  0  0  0  0  0  0  0  0
  127.5780  127.7410   65.1060 C   0  0  0  0  0  0  0  0  0  0  0  0
  125.6900  130.3100   64.2170 C   0  0  0  0  0  0  0  0  0  0  0  0
  126.8330  130.5540   63.3320 C   0  0  0  0  0  0  0  0  0  0  0  0
  127.7340  130.7460   62.6320 N   0  0  0  0  0  0  0  0  0  0  0  0
  128.0050  132.9320   59.4210 C   0  0  0  0  0  0  0  0  0  0  0  0
  128.9590  133.2950   58.4730 C   0  0  0  0  0  0  0  0  0  0  0  0
  1  2  1  0
  2  3  1  0
  3  4  2  0
  3  5  1  0
  5  6  2  0
  6  7  1  0
  7  8  2  0
  8  9  1  0
  9 10  1  0
 10 11  2  0
 10 12  1  0
 12 13  1  0
 13 14  1  0
 14 15  2  0
 15 16  1  0
 16 17  1  0
 16 18  2  0
 18 19  1  0
 19 20  1  0
 20 21  2  0
 21 22  1  0
 22 23  2  0
 23 24  1  0
 24 25  2  0
 19 26  2  0
 26 27  1  0
 27 28  3  0
  8 29  1  0
 29 30  2  0
 30  5  1  0
 26 14  1  0
 25 20  1  0
M  END
>  <Binding energies>  (33) 
[-8.39]

>  <Ligand effiencies>  (33) 
[-0.2706451612903226]

>  <Interactions>  (33) 
["V-B:GLU:543:CD:9876, V-A:GLU:543:CG:4902, V-A:PRO:540:N:4879, V-A:TYR:539:CE2:4871, V-A:PRO:540:CA:4878, V-A:TYR:539:CE1:4870, V-A:TYR:539:CZ:4872, V-A:PRO:540:CB:4880, V-A:LEU:363:CD1:3184, V-A:TYR:539:C:4862, V-A:PRO:540:CD:4882, V-A:GLU:543:CD:4903, V-B:GLU:543:CG:9875, V-A:TYR:539:CD2:4869, H-B:GLY:454:N:9017, H-A:TYR:539:N:4865, V-B:ASP:366:CG:8180, V-A:TYR:539:CD1:4868, V-A:TYR:539:CG:4867, V-A:TYR:539:CA:4864, V-B:ARG:545:CZ:9894, H-A:TYR:539:OH:4873, V-A:GLU:543:CB:4901, V-B:HIS:456:CE1:9037, V-B:ARG:545:CG:9890, V-B:ARG:545:CD:9891, V-B:GLY:453:CA:9011, V-B:GLY:453:C:9009, V-B:ILE:455:C:9019, V-B:ARG:545:CB:9889"]

$$$$
3ch_Grossjean_2025
     RDKit          3D

 32 34  0  0  0  0  0  0  0  0999 V2000
  125.4220  124.1100   61.3690 C   0  0  0  0  0  0  0  0  0  0  0  0
  126.0030  122.8790   60.9500 O   0  0  0  0  0  0  0  0  0  0  0  0
  127.2730  122.8770   60.4000 C   0  0  0  0  0  0  0  0  0  0  0  0
  128.4560  122.8860   61.1560 C   0  0  0  0  0  0  0  0  0  0  0  0
  129.7100  122.8730   60.5290 C   0  0  0  0  0  0  0  0  0  0  0  0
  130.9480  122.8750   61.2000 N   0  0  0  0  0  0  0  0  0  0  0  0
  131.8540  121.8830   61.3430 C   0  0  0  0  0  0  0  0  0  0  0  0
  131.7520  120.7500   60.8740 O   0  0  0  0  0  0  0  0  0  0  0  0
  133.1160  122.2500   62.1230 C   0  0  0  0  0  0  0  0  0  0  0  0
  133.4870  124.0270   62.0310 S   0  0  0  0  0  0  0  0  0  0  0  0
  133.1710  124.6820   63.6560 C   0  0  0  0  0  0  0  0  0  0  0  0
  134.2510  124.6630   64.4760 N   0  0  0  0  0  0  0  0  0  0  0  0
  134.1140  125.1320   65.7360 C   0  0  0  0  0  0  0  0  0  0  0  0
  135.3580  125.0760   66.6010 C   0  0  0  0  0  0  0  0  0  0  0  0
  132.9090  125.6320   66.2240 C   0  0  0  0  0  0  0  0  0  0  0  0
  131.7830  125.6670   65.3890 C   0  0  0  0  0  0  0  0  0  0  0  0
  130.5090  126.2030   65.9580 C   0  0  0  0  0  0  0  0  0  0  0  0
  130.0680  125.7780   67.2170 C   0  0  0  0  0  0  0  0  0  0  0  0
  128.8770  126.2660   67.7510 C   0  0  0  0  0  0  0  0  0  0  0  0
  128.1200  127.1810   67.0230 C   0  0  0  0  0  0  0  0  0  0  0  0
  128.5410  127.6080   65.7670 C   0  0  0  0  0  0  0  0  0  0  0  0
  129.7320  127.1170   65.2360 C   0  0  0  0  0  0  0  0  0  0  0  0
  131.9160  125.1960   64.0580 C   0  0  0  0  0  0  0  0  0  0  0  0
  130.7990  125.2970   63.1130 C   0  0  0  0  0  0  0  0  0  0  0  0
  129.9180  125.3740   62.3680 N   0  0  0  0  0  0  0  0  0  0  0  0
  129.7720  122.8700   59.1340 C   0  0  0  0  0  0  0  0  0  0  0  0
  128.6040  122.8630   58.3570 C   0  0  0  0  0  0  0  0  0  0  0  0
  128.5960  122.8530   56.9720 O   0  0  0  0  0  0  0  0  0  0  0  0
  129.3890  123.7980   56.2610 C   0  0  0  0  0  0  0  0  0  0  0  0
  127.3610  122.8690   59.0020 C   0  0  0  0  0  0  0  0  0  0  0  0
  126.2090  122.8440   58.2520 O   0  0  0  0  0  0  0  0  0  0  0  0
  125.6920  124.1310   57.9410 C   0  0  0  0  0  0  0  0  0  0  0  0
  1  2  1  0
  2  3  1  0
  3  4  2  0
  4  5  1  0
  5  6  1  0
  6  7  1  0
  7  8  2  0
  7  9  1  0
  9 10  1  0
 10 11  1  0
 11 12  2  0
 12 13  1  0
 13 14  1  0
 13 15  2  0
 15 16  1  0
 16 17  1  0
 17 18  2  0
 18 19  1  0
 19 20  2  0
 20 21  1  0
 21 22  2  0
 16 23  2  0
 23 24  1  0
 24 25  3  0
  5 26  2  0
 26 27  1  0
 27 28  1  0
 28 29  1  0
 27 30  2  0
 30 31  1  0
 31 32  1  0
 30  3  1  0
 23 11  1  0
 22 17  1  0
M  END
>  <Binding energies>  (34) 
[-7.58]

>  <Ligand effiencies>  (34) 
[-0.2296969696969697]

>  <Interactions>  (34) 
["V-B:TYR:539:C:9835, V-A:LEU:475:CD2:4254, V-B:PRO:540:C:9849, V-B:TYR:539:CE2:9844, V-B:PRO:540:N:9852, V-B:ALA:541:CB:9860, V-B:PRO:540:CA:9851, V-B:PRO:540:CB:9853, H-B:ALA:541:N:9859, V-B:GLU:543:CD:9876, V-A:GLU:543:CD:4903, H-A:TYR:484:OH:4343, V-B:GLU:543:CG:9875, V-B:TYR:539:CZ:9845, V-A:HIS:456:CE1:4064, V-B:GLU:543:CB:9874, V-B:TYR:539:CE1:9843, V-A:ILE:369:CD1:3234, V-A:ARG:545:CZ:4921, V-A:GLY:453:CA:4039, H-A:GLY:454:N:4045, V-A:ARG:545:CD:4918, V-A:ARG:545:CG:4917, V-A:GLY:453:C:4037, V-A:ILE:455:C:4047, V-A:HIS:456:CD2:4063"]

$$$$
3ci_Grossjean_2025
     RDKit          3D

 25 27  0  0  0  0  0  0  0  0999 V2000
  127.9280  133.8030   61.2250 C   0  0  0  0  0  0  0  0  0  0  0  0
  127.8540  133.0080   59.9350 C   0  0  0  0  0  0  0  0  0  0  0  0
  128.8800  133.0410   58.9960 C   0  0  0  0  0  0  0  0  0  0  0  0
  128.7740  132.2760   57.8260 C   0  0  0  0  0  0  0  0  0  0  0  0
  129.9060  132.3310   56.8540 C   0  0  0  0  0  0  0  0  0  0  0  0
  131.1590  131.7970   57.1820 C   0  0  0  0  0  0  0  0  0  0  0  0
  132.2140  131.8580   56.2750 C   0  0  0  0  0  0  0  0  0  0  0  0
  132.0210  132.4610   55.0350 C   0  0  0  0  0  0  0  0  0  0  0  0
  130.7850  133.0040   54.6970 C   0  0  0  0  0  0  0  0  0  0  0  0
  129.7320  132.9410   55.6060 C   0  0  0  0  0  0  0  0  0  0  0  0
  127.6050  131.4950   57.6360 C   0  0  0  0  0  0  0  0  0  0  0  0
  127.4180  130.7080   56.4120 C   0  0  0  0  0  0  0  0  0  0  0  0
  127.2720  130.0870   55.4460 N   0  0  0  0  0  0  0  0  0  0  0  0
  126.6110  131.5150   58.6450 C   0  0  0  0  0  0  0  0  0  0  0  0
  125.1090  130.5540   58.5180 S   0  0  0  0  0  0  0  0  0  0  0  0
  123.7130  131.5150   59.1890 C   0  0  0  0  0  0  0  0  0  0  0  0
  123.7990  131.7380   60.7030 C   0  0  0  0  0  0  0  0  0  0  0  0
  123.9560  132.8810   61.1350 O   0  0  0  0  0  0  0  0  0  0  0  0
  123.7080  130.6260   61.4650 N   0  0  0  0  0  0  0  0  0  0  0  0
  123.7280  130.5530   62.8520 C   0  0  0  0  0  0  0  0  0  0  0  0
  124.8990  130.6590   63.6020 C   0  0  0  0  0  0  0  0  0  0  0  0
  124.4960  130.5340   64.9120 C   0  0  0  0  0  0  0  0  0  0  0  0
  123.1530  130.3620   64.9480 O   0  0  0  0  0  0  0  0  0  0  0  0
  122.6780  130.3740   63.6360 N   0  0  0  0  0  0  0  0  0  0  0  0
  126.7370  132.2660   59.7680 N   0  0  0  0  0  0  0  0  0  0  0  0
  1  2  1  0
  2  3  2  0
  3  4  1  0
  4  5  1  0
  5  6  2  0
  6  7  1  0
  7  8  2  0
  8  9  1  0
  9 10  2  0
  4 11  2  0
 11 12  1  0
 12 13  3  0
 11 14  1  0
 14 15  1  0
 15 16  1  0
 16 17  1  0
 17 18  2  0
 17 19  1  0
 19 20  1  0
 20 21  1  0
 21 22  2  0
 22 23  1  0
 23 24  1  0
 14 25  2  0
 25  2  1  0
 10  5  1  0
 24 20  2  0
M  END
>  <Binding energies>  (35) 
[-8.41]

>  <Ligand effiencies>  (35) 
[-0.32346153846153847]

>  <Interactions>  (35) 
["H-B:ASP:366:OD1:8181, H-B:ASP:366:OD2:8182, V-A:PRO:540:N:4879, V-A:TYR:539:CE2:4871, V-A:PRO:540:CA:4878, V-A:TYR:539:CE1:4870, V-A:TYR:539:CZ:4872, V-A:PRO:540:CB:4880, V-A:LEU:363:CD1:3184, V-A:TYR:539:C:4862, H-B:ARG:545:NH1:9895, V-A:TYR:539:CD2:4869, H-B:GLY:454:N:9017, V-B:ILE:369:CD1:8206, V-B:ASP:366:CG:8180, V-A:TYR:539:CD1:4868, V-A:TYR:539:CG:4867, V-A:ILE:538:CG2:4858, H-A:TYR:539:OH:4873, V-A:ILE:538:CA:4855, V-B:ASP:366:CA:8177, V-B:ILE:369:CG2:8204, V-A:ILE:538:C:4853, V-B:ILE:369:CB:8203, V-A:ILE:538:CB:4857, V-A:ILE:538:CD1:4860"]

$$$$
3ck_Grossjean_2025
     RDKit          3D

 30 31  0  0  0  0  0  0  0  0999 V2000
  133.0690  130.7950   58.0880 C   0  0  0  0  0  0  0  0  0  0  0  0
  132.7700  131.9000   57.2490 O   0  0  0  0  0  0  0  0  0  0  0  0
  131.7720  131.6190   56.2780 C   0  0  0  0  0  0  0  0  0  0  0  0
  131.2250  132.9350   55.7090 C   0  0  0  0  0  0  0  0  0  0  0  0
  130.1600  133.3960   56.5290 O   0  0  0  0  0  0  0  0  0  0  0  0
  129.9340  132.5970   57.6840 C   0  0  0  0  0  0  0  0  0  0  0  0
  128.6050  133.0120   58.3280 C   0  0  0  0  0  0  0  0  0  0  0  0
  128.1750  131.9630   59.1820 O   0  0  0  0  0  0  0  0  0  0  0  0
  127.5490  130.8740   58.5200 C   0  0  0  0  0  0  0  0  0  0  0  0
  126.0190  131.0410   58.5870 C   0  0  0  0  0  0  0  0  0  0  0  0
  125.5760  132.0270   59.5770 N   0  0  0  0  0  0  0  0  0  0  0  0
  124.3380  132.5450   59.6680 C   0  0  0  0  0  0  0  0  0  0  0  0
  123.4120  132.2180   58.9230 O   0  0  0  0  0  0  0  0  0  0  0  0
  124.1370  133.5870   60.7800 C   0  0  0  0  0  0  0  0  0  0  0  0
  123.9420  132.9080   62.4630 S   0  0  0  0  0  0  0  0  0  0  0  0
  125.4910  132.1880   62.9860 C   0  0  0  0  0  0  0  0  0  0  0  0
  126.5970  132.6510   62.3510 N   0  0  0  0  0  0  0  0  0  0  0  0
  127.8030  132.1470   62.6930 C   0  0  0  0  0  0  0  0  0  0  0  0
  128.9920  132.7110   61.9390 C   0  0  0  0  0  0  0  0  0  0  0  0
  127.9570  131.1690   63.6730 C   0  0  0  0  0  0  0  0  0  0  0  0
  126.8290  130.6710   64.3380 C   0  0  0  0  0  0  0  0  0  0  0  0
  127.0400  129.6070   65.3640 C   0  0  0  0  0  0  0  0  0  0  0  0
  126.2240  128.4690   65.3740 C   0  0  0  0  0  0  0  0  0  0  0  0
  126.4090  127.4760   66.3350 C   0  0  0  0  0  0  0  0  0  0  0  0
  127.4070  127.6220   67.2930 C   0  0  0  0  0  0  0  0  0  0  0  0
  128.2210  128.7530   67.3020 C   0  0  0  0  0  0  0  0  0  0  0  0
  128.0340  129.7420   66.3410 C   0  0  0  0  0  0  0  0  0  0  0  0
  125.5580  131.2010   63.9970 C   0  0  0  0  0  0  0  0  0  0  0  0
  124.3460  130.7470   64.6890 C   0  0  0  0  0  0  0  0  0  0  0  0
  123.3910  130.3900   65.2360 N   0  0  0  0  0  0  0  0  0  0  0  0
  1  2  1  0
  2  3  1  0
  3  4  1  0
  4  5  1  0
  5  6  1  0
  6  7  1  0
  7  8  1  0
  8  9  1  0
  9 10  1  0
 10 11  1  0
 11 12  1  0
 12 13  2  0
 12 14  1  0
 14 15  1  0
 15 16  1  0
 16 17  2  0
 17 18  1  0
 18 19  1  0
 18 20  2  0
 20 21  1  0
 21 22  1  0
 22 23  2  0
 23 24  1  0
 24 25  2  0
 25 26  1  0
 26 27  2  0
 21 28  2  0
 28 29  1  0
 29 30  3  0
 28 16  1  0
 27 22  1  0
M  END
>  <Binding energies>  (36) 
[-6.65]

>  <Ligand effiencies>  (36) 
[-0.21451612903225808]

>  <Interactions>  (36) 
["V-B:GLU:543:CD:9876, V-A:GLU:543:CG:4902, V-A:PRO:540:N:4879, V-A:TYR:539:CE2:4871, V-A:TYR:531:CE2:4788, V-A:PRO:540:CA:4878, V-A:TYR:539:CE1:4870, V-A:TYR:539:CZ:4872, V-A:PRO:540:CB:4880, V-A:LEU:363:CD1:3184, V-A:TYR:539:C:4862, V-A:LEU:363:CA:3180, V-A:PRO:540:CD:4882, V-B:GLU:543:CG:9875, V-A:TYR:539:CD2:4869, H-B:GLY:454:N:9017, V-B:ILE:369:CD1:8206, V-B:LEU:475:CD2:9226, H-A:TYR:539:N:4865, V-A:TYR:539:CD1:4868, V-A:ALA:541:CB:4887, V-A:TYR:539:CG:4867, V-A:ILE:538:CG2:4858, H-A:TYR:539:OH:4873, V-A:ILE:538:CA:4855, V-B:ILE:369:CG2:8204, V-B:HIS:456:CE1:9037, V-B:ARG:545:CG:9890, V-B:GLU:543:CB:9874"]

$$$$
4aa_Grossjean_2025
     RDKit          3D

 26 28  0  0  0  0  0  0  0  0999 V2000
  123.7580  123.7670   58.4910 C   0  0  0  0  0  0  0  0  0  0  0  0
  123.8640  124.7500   57.3210 C   0  0  0  0  0  0  0  0  0  0  0  0
  124.9360  124.3600   56.4730 O   0  0  0  0  0  0  0  0  0  0  0  0
  125.7170  123.2910   56.7750 C   0  0  0  0  0  0  0  0  0  0  0  0
  125.5440  122.1650   56.2980 O   0  0  0  0  0  0  0  0  0  0  0  0
  126.8100  123.6120   57.7530 C   0  0  0  0  0  0  0  0  0  0  0  0
  126.8660  122.9180   58.9690 C   0  0  0  0  0  0  0  0  0  0  0  0
  127.8640  123.1960   59.8990 C   0  0  0  0  0  0  0  0  0  0  0  0
  128.8310  124.1660   59.6290 C   0  0  0  0  0  0  0  0  0  0  0  0
  129.7880  124.3720   60.6410 N   0  0  0  0  0  0  0  0  0  0  0  0
  131.1280  124.5550   60.5520 C   0  0  0  0  0  0  0  0  0  0  0  0
  131.7620  124.5240   59.4970 O   0  0  0  0  0  0  0  0  0  0  0  0
  131.8140  124.7760   61.8260 C   0  0  0  0  0  0  0  0  0  0  0  0
  133.5220  124.3630   62.0010 S   0  0  0  0  0  0  0  0  0  0  0  0
  133.5170  124.8540   63.6800 C   0  0  0  0  0  0  0  0  0  0  0  0
  134.6110  124.7790   64.4400 N   0  0  0  0  0  0  0  0  0  0  0  0
  134.4700  125.1870   65.7250 C   0  0  0  0  0  0  0  0  0  0  0  0
  135.7250  125.0900   66.5740 C   0  0  0  0  0  0  0  0  0  0  0  0
  133.2770  125.6660   66.2600 C   0  0  0  0  0  0  0  0  0  0  0  0
  132.1320  125.7440   65.4600 C   0  0  0  0  0  0  0  0  0  0  0  0
  130.8520  126.2730   66.0900 C   0  0  0  0  0  0  0  0  0  0  0  0
  132.2380  125.3210   64.1070 C   0  0  0  0  0  0  0  0  0  0  0  0
  131.2840  125.2610   63.0320 C   0  0  0  0  0  0  0  0  0  0  0  0
  129.9790  125.6530   63.1900 N   0  0  0  0  0  0  0  0  0  0  0  0
  128.7800  124.8700   58.4170 C   0  0  0  0  0  0  0  0  0  0  0  0
  127.7790  124.5920   57.4900 C   0  0  0  0  0  0  0  0  0  0  0  0
  1  2  1  0
  2  3  1  0
  3  4  1  0
  4  5  2  0
  4  6  1  0
  6  7  2  0
  7  8  1  0
  8  9  2  0
  9 10  1  0
 10 11  1  0
 11 12  2  0
 11 13  1  0
 13 14  1  0
 14 15  1  0
 15 16  2  0
 16 17  1  0
 17 18  1  0
 17 19  2  0
 19 20  1  0
 20 21  1  0
 20 22  2  0
 22 23  1  0
 23 24  1  0
  9 25  1  0
 25 26  2  0
 26  6  1  0
 23 13  2  0
 22 15  1  0
M  END
>  <Binding energies>  (37) 
[-7.42]

>  <Ligand effiencies>  (37) 
[-0.2558620689655172]

>  <Interactions>  (37) 
["V-B:TYR:539:C:9835, V-B:PRO:540:N:9852, V-B:PRO:540:CA:9851, V-B:MET:535:CE:9803, V-B:PRO:540:CB:9853, H-B:GLU:543:OE2:9878, V-B:GLU:543:CD:9876, V-A:ASP:366:CG:3208, V-A:GLU:543:CD:4903, H-A:TYR:484:OH:4343, H-B:TYR:539:N:9838, V-B:LEU:363:CB:8154, V-B:ASP:366:CG:8180, V-B:LEU:363:CD1:8156, V-B:TYR:531:CZ:9762, V-B:TYR:531:CE2:9761, V-B:ASP:366:CB:8179, V-B:LEU:363:CA:8152, V-A:HIS:456:CE1:4064, V-A:ARG:545:CZ:4921, V-A:GLY:453:CA:4039, H-A:GLY:454:N:4045, V-A:GLY:454:CA:4044, V-A:ARG:545:CD:4918, V-A:ARG:545:CG:4917, H-A:ARG:545:NH1:4922, H-B:TYR:531:OH:9763, V-A:ARG:545:CB:4916, V-A:GLY:453:C:4037, V-A:ILE:455:C:4047, V-A:HIS:456:CD2:4063"]

$$$$
4ab_Grossjean_2025
     RDKit          3D

 25 27  0  0  0  0  0  0  0  0999 V2000
  123.7890  124.0260   57.8900 C   0  0  0  0  0  0  0  0  0  0  0  0
  124.6890  123.8110   56.8130 O   0  0  0  0  0  0  0  0  0  0  0  0
  125.5970  122.8020   56.8520 C   0  0  0  0  0  0  0  0  0  0  0  0
  125.5150  121.7850   56.1540 O   0  0  0  0  0  0  0  0  0  0  0  0
  126.7070  123.0410   57.8330 C   0  0  0  0  0  0  0  0  0  0  0  0
  126.4470  123.7860   58.9910 C   0  0  0  0  0  0  0  0  0  0  0  0
  127.4570  124.0270   59.9200 C   0  0  0  0  0  0  0  0  0  0  0  0
  128.7410  123.5220   59.7150 C   0  0  0  0  0  0  0  0  0  0  0  0
  129.6840  123.8320   60.7130 N   0  0  0  0  0  0  0  0  0  0  0  0
  131.0180  124.0510   60.6170 C   0  0  0  0  0  0  0  0  0  0  0  0
  131.6600  123.9660   59.5690 O   0  0  0  0  0  0  0  0  0  0  0  0
  131.6890  124.3820   61.8750 C   0  0  0  0  0  0  0  0  0  0  0  0
  133.4330  124.1630   62.0390 S   0  0  0  0  0  0  0  0  0  0  0  0
  133.3920  124.7010   63.7030 C   0  0  0  0  0  0  0  0  0  0  0  0
  134.4940  124.7680   64.4510 N   0  0  0  0  0  0  0  0  0  0  0  0
  134.3250  125.1990   65.7240 C   0  0  0  0  0  0  0  0  0  0  0  0
  135.5900  125.2620   66.5600 C   0  0  0  0  0  0  0  0  0  0  0  0
  133.0920  125.5650   66.2610 C   0  0  0  0  0  0  0  0  0  0  0  0
  131.9370  125.4940   65.4730 C   0  0  0  0  0  0  0  0  0  0  0  0
  130.6150  125.9020   66.1050 C   0  0  0  0  0  0  0  0  0  0  0  0
  132.0750  125.0420   64.1330 C   0  0  0  0  0  0  0  0  0  0  0  0
  131.1230  124.8450   63.0730 C   0  0  0  0  0  0  0  0  0  0  0  0
  129.7830  125.0960   63.2370 N   0  0  0  0  0  0  0  0  0  0  0  0
  129.0120  122.7800   58.5560 C   0  0  0  0  0  0  0  0  0  0  0  0
  128.0020  122.5420   57.6270 C   0  0  0  0  0  0  0  0  0  0  0  0
  1  2  1  0
  2  3  1  0
  3  4  2  0
  3  5  1  0
  5  6  2  0
  6  7  1  0
  7  8  2  0
  8  9  1  0
  9 10  1  0
 10 11  2  0
 10 12  1  0
 12 13  1  0
 13 14  1  0
 14 15  2  0
 15 16  1  0
 16 17  1  0
 16 18  2  0
 18 19  1  0
 19 20  1  0
 19 21  2  0
 21 22  1  0
 22 23  1  0
  8 24  1  0
 24 25  2  0
 25  5  1  0
 22 12  2  0
 21 14  1  0
M  END
>  <Binding energies>  (38) 
[-7.74]

>  <Ligand effiencies>  (38) 
[-0.2764285714285714]

>  <Interactions>  (38) 
["V-B:TYR:539:C:9835, V-B:TYR:539:CD2:9842, V-B:TYR:539:CE2:9844, V-B:PRO:540:N:9852, V-B:PRO:540:CA:9851, V-B:MET:535:CE:9803, V-B:PRO:540:CB:9853, H-B:GLU:543:OE2:9878, V-B:GLU:543:CD:9876, V-A:ASP:366:CG:3208, H-A:TYR:484:OH:4343, H-B:TYR:539:N:9838, V-B:LEU:363:CB:8154, V-B:PRO:540:CD:9855, V-B:LEU:363:CD1:8156, V-B:LEU:363:CA:8152, V-A:HIS:456:CE1:4064, V-A:ILE:369:CD1:3234, V-B:LEU:363:CG:8155, V-A:ARG:545:CZ:4921, V-A:GLY:453:CA:4039, H-A:GLY:454:N:4045, V-A:ARG:545:CD:4918, V-A:ARG:545:CG:4917, H-A:ARG:545:NH1:4922, V-A:ARG:545:CB:4916, V-A:GLY:453:C:4037, V-A:ILE:455:C:4047, V-A:HIS:456:CD2:4063"]

$$$$
4ac_Grossjean_2025
     RDKit          3D

 23 25  0  0  0  0  0  0  0  0999 V2000
  124.8870  122.3830   56.4720 C   0  0  0  0  0  0  0  0  0  0  0  0
  126.2580  122.1400   56.1710 O   0  0  0  0  0  0  0  0  0  0  0  0
  127.2200  122.4550   57.1100 C   0  0  0  0  0  0  0  0  0  0  0  0
  126.7590  122.8660   58.3600 C   0  0  0  0  0  0  0  0  0  0  0  0
  127.6550  123.2040   59.3710 C   0  0  0  0  0  0  0  0  0  0  0  0
  129.0300  123.1250   59.1450 C   0  0  0  0  0  0  0  0  0  0  0  0
  129.8590  123.4990   60.2200 N   0  0  0  0  0  0  0  0  0  0  0  0
  131.1290  123.9690   60.1990 C   0  0  0  0  0  0  0  0  0  0  0  0
  131.7930  124.1150   59.1710 O   0  0  0  0  0  0  0  0  0  0  0  0
  131.6970  124.3000   61.5090 C   0  0  0  0  0  0  0  0  0  0  0  0
  133.3720  123.8920   61.8830 S   0  0  0  0  0  0  0  0  0  0  0  0
  133.2290  124.5720   63.4890 C   0  0  0  0  0  0  0  0  0  0  0  0
  134.2480  124.5730   64.3480 N   0  0  0  0  0  0  0  0  0  0  0  0
  134.0040  125.1300   65.5590 C   0  0  0  0  0  0  0  0  0  0  0  0
  135.1770  125.1220   66.5230 C   0  0  0  0  0  0  0  0  0  0  0  0
  132.7760  125.6770   65.9280 C   0  0  0  0  0  0  0  0  0  0  0  0
  131.7090  125.6740   65.0230 C   0  0  0  0  0  0  0  0  0  0  0  0
  130.3890  126.2830   65.4720 C   0  0  0  0  0  0  0  0  0  0  0  0
  131.9280  125.1000   63.7420 C   0  0  0  0  0  0  0  0  0  0  0  0
  131.0750  124.9340   62.5960 C   0  0  0  0  0  0  0  0  0  0  0  0
  129.7710  125.3630   62.5860 N   0  0  0  0  0  0  0  0  0  0  0  0
  129.5030  122.7250   57.8870 C   0  0  0  0  0  0  0  0  0  0  0  0
  128.6030  122.3880   56.8780 C   0  0  0  0  0  0  0  0  0  0  0  0
  1  2  1  0
  2  3  1  0
  3  4  2  0
  4  5  1  0
  5  6  2  0
  6  7  1  0
  7  8  1  0
  8  9  2  0
  8 10  1  0
 10 11  1  0
 11 12  1  0
 12 13  2  0
 13 14  1  0
 14 15  1  0
 14 16  2  0
 16 17  1  0
 17 18  1  0
 17 19  2  0
 19 20  1  0
 20 21  1  0
  6 22  1  0
 22 23  2  0
 23  3  1  0
 20 10  2  0
 19 12  1  0
M  END
>  <Binding energies>  (39) 
[-7.24]

>  <Ligand effiencies>  (39) 
[-0.2784615384615385]

>  <Interactions>  (39) 
["V-B:TYR:539:C:9835, V-B:TYR:539:CD2:9842, V-B:TYR:539:CE2:9844, V-B:PRO:540:N:9852, V-B:PRO:540:CA:9851, V-B:MET:535:CE:9803, V-B:PRO:540:CB:9853, H-B:GLU:543:OE2:9878, V-B:GLU:543:CD:9876, V-A:ASP:366:CG:3208, V-A:GLU:543:CD:4903, H-A:TYR:484:OH:4343, H-B:TYR:539:N:9838, V-B:PRO:540:CD:9855, V-B:LEU:363:CD1:8156, V-B:TYR:539:CZ:9845, V-B:TYR:539:CE1:9843, V-A:ILE:369:CD1:3234, V-B:PRO:540:CG:9854, V-A:ARG:545:CZ:4921, V-A:GLY:453:CA:4039, H-A:GLY:454:N:4045, V-A:ARG:545:CD:4918, V-B:TYR:539:CD1:9841, V-A:ARG:545:CG:4917, V-B:TYR:539:CG:9840, V-A:GLY:453:C:4037, V-A:HIS:456:CD2:4063, V-B:ILE:538:CG2:9831"]

$$$$
4ad_Grossjean_2025
     RDKit          3D

 21 23  0  0  0  0  0  0  0  0999 V2000
  131.1070  132.9130   54.6650 C   0  0  0  0  0  0  0  0  0  0  0  0
  131.2190  132.4050   56.0910 C   0  0  0  0  0  0  0  0  0  0  0  0
  132.2700  131.5760   56.4770 C   0  0  0  0  0  0  0  0  0  0  0  0
  132.3510  131.1170   57.7970 C   0  0  0  0  0  0  0  0  0  0  0  0
  133.5150  130.2120   58.1710 C   0  0  0  0  0  0  0  0  0  0  0  0
  131.3370  131.5260   58.7050 C   0  0  0  0  0  0  0  0  0  0  0  0
  131.1140  131.2510   60.0980 C   0  0  0  0  0  0  0  0  0  0  0  0
  131.9630  130.4610   60.8320 N   0  0  0  0  0  0  0  0  0  0  0  0
  129.9640  131.8610   60.6250 C   0  0  0  0  0  0  0  0  0  0  0  0
  129.4330  131.7830   61.9860 C   0  0  0  0  0  0  0  0  0  0  0  0
  129.7550  132.6160   62.8350 O   0  0  0  0  0  0  0  0  0  0  0  0
  128.5770  130.7560   62.2180 N   0  0  0  0  0  0  0  0  0  0  0  0
  127.9330  130.3790   63.4120 C   0  0  0  0  0  0  0  0  0  0  0  0
  126.5390  130.2930   63.3540 C   0  0  0  0  0  0  0  0  0  0  0  0
  125.8120  129.9180   64.4800 C   0  0  0  0  0  0  0  0  0  0  0  0
  126.4790  129.6210   65.6650 C   0  0  0  0  0  0  0  0  0  0  0  0
  127.8690  129.6900   65.7330 C   0  0  0  0  0  0  0  0  0  0  0  0
  128.5990  130.0650   64.6080 C   0  0  0  0  0  0  0  0  0  0  0  0
  129.1250  132.8040   59.3920 S   0  0  0  0  0  0  0  0  0  0  0  0
  130.3140  132.3750   58.1840 C   0  0  0  0  0  0  0  0  0  0  0  0
  130.2350  132.8140   56.9270 N   0  0  0  0  0  0  0  0  0  0  0  0
  1  2  1  0
  2  3  2  0
  3  4  1  0
  4  5  1  0
  4  6  2  0
  6  7  1  0
  7  8  1  0
  7  9  2  0
  9 10  1  0
 10 11  2  0
 10 12  1  0
 12 13  1  0
 13 14  2  0
 14 15  1  0
 15 16  2  0
 16 17  1  0
 17 18  2  0
  9 19  1  0
 19 20  1  0
 20 21  2  0
 21  2  1  0
 20  6  1  0
 18 13  1  0
M  END
>  <Binding energies>  (40) 
[-6.72]

>  <Ligand effiencies>  (40) 
[-0.27999999999999997]

>  <Interactions>  (40) 
["V-A:GLU:543:CG:4902, V-A:PRO:540:N:4879, V-A:TYR:531:CZ:4789, V-A:TYR:531:CE2:4788, V-A:PRO:540:CA:4878, H-A:ALA:541:N:4886, V-A:PRO:540:CB:4880, V-A:LEU:363:CD1:3184, V-A:TYR:539:C:4862, V-A:LEU:363:CA:3180, V-A:PRO:540:CD:4882, H-A:GLU:543:OE2:4905, V-A:GLU:543:CD:4903, H-A:TYR:539:N:4865, V-A:ILE:538:CG2:4858, V-A:ILE:538:CA:4855, V-A:ILE:538:CB:4857, V-B:HIS:456:CE1:9037, V-A:ILE:538:CD1:4860, H-A:ASP:366:OD2:3210"]

$$$$
4ae_Grossjean_2025
     RDKit          3D

 22 24  0  0  0  0  0  0  0  0999 V2000
  128.6290  130.3800   67.1080 C   0  0  0  0  0  0  0  0  0  0  0  0
  127.9890  130.0280   65.7790 C   0  0  0  0  0  0  0  0  0  0  0  0
  126.7910  129.3130   65.7100 C   0  0  0  0  0  0  0  0  0  0  0  0
  126.2660  129.0180   64.4520 C   0  0  0  0  0  0  0  0  0  0  0  0
  126.9430  129.4390   63.3050 C   0  0  0  0  0  0  0  0  0  0  0  0
  128.1340  130.1590   63.4450 C   0  0  0  0  0  0  0  0  0  0  0  0
  128.7800  130.5370   62.2560 N   0  0  0  0  0  0  0  0  0  0  0  0
  129.6980  131.5180   62.0640 C   0  0  0  0  0  0  0  0  0  0  0  0
  130.1080  132.2580   62.9590 O   0  0  0  0  0  0  0  0  0  0  0  0
  130.1870  131.6590   60.6910 C   0  0  0  0  0  0  0  0  0  0  0  0
  129.2880  132.6230   59.5190 S   0  0  0  0  0  0  0  0  0  0  0  0
  130.4400  132.2520   58.2570 C   0  0  0  0  0  0  0  0  0  0  0  0
  130.3040  132.7240   57.0170 N   0  0  0  0  0  0  0  0  0  0  0  0
  131.2630  132.3570   56.1330 C   0  0  0  0  0  0  0  0  0  0  0  0
  131.0860  132.8990   54.7260 C   0  0  0  0  0  0  0  0  0  0  0  0
  132.3450  131.5390   56.4570 C   0  0  0  0  0  0  0  0  0  0  0  0
  132.4840  131.0470   57.7590 C   0  0  0  0  0  0  0  0  0  0  0  0
  133.6790  130.1560   58.0630 C   0  0  0  0  0  0  0  0  0  0  0  0
  131.4960  131.4090   58.7150 C   0  0  0  0  0  0  0  0  0  0  0  0
  131.3300  131.0870   60.1070 C   0  0  0  0  0  0  0  0  0  0  0  0
  132.2160  130.2900   60.7870 N   0  0  0  0  0  0  0  0  0  0  0  0
  128.6580  130.4450   64.6740 N   0  0  0  0  0  0  0  0  0  0  0  0
  1  2  1  0
  2  3  2  0
  3  4  1  0
  4  5  2  0
  5  6  1  0
  6  7  1  0
  7  8  1  0
  8  9  2  0
  8 10  1  0
 10 11  1  0
 11 12  1  0
 12 13  2  0
 13 14  1  0
 14 15  1  0
 14 16  2  0
 16 17  1  0
 17 18  1  0
 17 19  2  0
 19 20  1  0
 20 21  1  0
  6 22  2  0
 22  2  1  0
 20 10  2  0
 19 12  1  0
M  END
>  <Binding energies>  (41) 
[-6.95]

>  <Ligand effiencies>  (41) 
[-0.278]

>  <Interactions>  (41) 
["V-A:GLU:543:CG:4902, V-A:PRO:540:N:4879, V-A:TYR:531:CZ:4789, V-A:TYR:531:CE2:4788, V-A:PRO:540:CA:4878, V-A:ASP:366:CB:3207, H-A:ALA:541:N:4886, V-A:PRO:540:CB:4880, V-A:LEU:363:CD1:3184, V-A:TYR:539:C:4862, V-A:LEU:363:CA:3180, V-A:PRO:540:CD:4882, H-A:GLU:543:OE2:4905, V-A:GLU:543:CD:4903, V-A:ILE:538:CG2:4858, V-A:ILE:538:CA:4855, V-A:ILE:538:CB:4857, V-A:GLU:543:CB:4901, V-B:TYR:484:CE1:9312, V-B:HIS:456:CE1:9037, V-B:TYR:484:CZ:9314, H-B:TYR:484:OH:9315, V-A:ILE:538:CD1:4860, H-A:ASP:366:OD2:3210, V-A:GLU:543:CA:4899"]

$$$$
4af_Grossjean_2025
     RDKit          3D

 21 23  0  0  0  0  0  0  0  0999 V2000
  130.6180  132.9440   55.3630 C   0  0  0  0  0  0  0  0  0  0  0  0
  130.5830  132.5330   56.8230 C   0  0  0  0  0  0  0  0  0  0  0  0
  131.6570  131.8630   57.4060 C   0  0  0  0  0  0  0  0  0  0  0  0
  131.6020  131.4910   58.7550 C   0  0  0  0  0  0  0  0  0  0  0  0
  132.7970  130.7610   59.3450 C   0  0  0  0  0  0  0  0  0  0  0  0
  130.4280  131.8200   59.4850 C   0  0  0  0  0  0  0  0  0  0  0  0
  130.0420  131.5930   60.8530 C   0  0  0  0  0  0  0  0  0  0  0  0
  130.8600  130.9500   61.7470 N   0  0  0  0  0  0  0  0  0  0  0  0
  128.7680  132.0870   61.1750 C   0  0  0  0  0  0  0  0  0  0  0  0
  128.0550  132.0050   62.4510 C   0  0  0  0  0  0  0  0  0  0  0  0
  128.4180  132.6770   63.4170 O   0  0  0  0  0  0  0  0  0  0  0  0
  126.9900  131.1660   62.4670 N   0  0  0  0  0  0  0  0  0  0  0  0
  126.1330  130.8270   63.5310 C   0  0  0  0  0  0  0  0  0  0  0  0
  126.4540  129.9620   64.5930 C   0  0  0  0  0  0  0  0  0  0  0  0
  125.5020  129.6950   65.5780 C   0  0  0  0  0  0  0  0  0  0  0  0
  124.2470  130.2970   65.4770 C   0  0  0  0  0  0  0  0  0  0  0  0
  123.9100  131.1280   64.4590 N   0  0  0  0  0  0  0  0  0  0  0  0
  124.8460  131.3770   63.5080 C   0  0  0  0  0  0  0  0  0  0  0  0
  128.0080  132.8500   59.7760 S   0  0  0  0  0  0  0  0  0  0  0  0
  129.4000  132.5070   58.7730 C   0  0  0  0  0  0  0  0  0  0  0  0
  129.4490  132.8630   57.4890 N   0  0  0  0  0  0  0  0  0  0  0  0
  1  2  1  0
  2  3  2  0
  3  4  1  0
  4  5  1  0
  4  6  2  0
  6  7  1  0
  7  8  1  0
  7  9  2  0
  9 10  1  0
 10 11  2  0
 10 12  1  0
 12 13  1  0
 13 14  2  0
 14 15  1  0
 15 16  2  0
 16 17  1  0
 17 18  2  0
  9 19  1  0
 19 20  1  0
 20 21  2  0
 21  2  1  0
 20  6  1  0
 18 13  1  0
M  END
>  <Binding energies>  (42) 
[-6.64]

>  <Ligand effiencies>  (42) 
[-0.27666666666666667]

>  <Interactions>  (42) 
["V-A:PRO:540:N:4879, V-A:TYR:539:CE2:4871, V-A:PRO:540:CA:4878, V-A:PRO:540:CB:4880, V-A:TYR:539:C:4862, V-A:PRO:540:CD:4882, H-A:GLU:543:OE2:4905, V-A:GLU:543:CD:4903, V-A:TYR:539:CD2:4869, H-B:GLY:454:N:9017, V-A:TYR:539:CD1:4868, V-A:ILE:538:CA:4855, V-B:HIS:456:CE1:9037, H-B:TYR:484:OH:9315"]

$$$$
4ag_Grossjean_2025
     RDKit          3D

 22 24  0  0  0  0  0  0  0  0999 V2000
  130.6520  132.8590   54.7100 C   0  0  0  0  0  0  0  0  0  0  0  0
  130.8990  132.3690   56.1250 C   0  0  0  0  0  0  0  0  0  0  0  0
  132.0200  131.5980   56.4310 C   0  0  0  0  0  0  0  0  0  0  0  0
  132.2300  131.1580   57.7430 C   0  0  0  0  0  0  0  0  0  0  0  0
  133.4670  130.3200   58.0280 C   0  0  0  0  0  0  0  0  0  0  0  0
  131.2710  131.5220   58.7260 C   0  0  0  0  0  0  0  0  0  0  0  0
  131.1750  131.2490   60.1340 C   0  0  0  0  0  0  0  0  0  0  0  0
  132.1160  130.5070   60.8030 N   0  0  0  0  0  0  0  0  0  0  0  0
  130.0420  131.8050   60.7460 C   0  0  0  0  0  0  0  0  0  0  0  0
  129.6410  131.7340   62.1510 C   0  0  0  0  0  0  0  0  0  0  0  0
  129.9420  132.6230   62.9500 O   0  0  0  0  0  0  0  0  0  0  0  0
  128.9450  130.6370   62.5150 N   0  0  0  0  0  0  0  0  0  0  0  0
  128.4220  130.3710   63.8550 C   0  0  0  0  0  0  0  0  0  0  0  0
  126.9110  130.5330   63.9730 C   0  0  0  0  0  0  0  0  0  0  0  0
  126.2640  131.5530   63.2700 C   0  0  0  0  0  0  0  0  0  0  0  0
  124.8800  131.6880   63.3570 C   0  0  0  0  0  0  0  0  0  0  0  0
  124.1480  130.7960   64.1380 C   0  0  0  0  0  0  0  0  0  0  0  0
  124.7850  129.7680   64.8290 C   0  0  0  0  0  0  0  0  0  0  0  0
  126.1680  129.6320   64.7420 C   0  0  0  0  0  0  0  0  0  0  0  0
  129.0610  132.6990   59.5840 S   0  0  0  0  0  0  0  0  0  0  0  0
  130.1680  132.3150   58.2850 C   0  0  0  0  0  0  0  0  0  0  0  0
  129.9660  132.7370   57.0360 N   0  0  0  0  0  0  0  0  0  0  0  0
  1  2  1  0
  2  3  2  0
  3  4  1  0
  4  5  1  0
  4  6  2  0
  6  7  1  0
  7  8  1  0
  7  9  2  0
  9 10  1  0
 10 11  2  0
 10 12  1  0
 12 13  1  0
 13 14  1  0
 14 15  2  0
 15 16  1  0
 16 17  2  0
 17 18  1  0
 18 19  2  0
  9 20  1  0
 20 21  1  0
 21 22  2  0
 22  2  1  0
 21  6  1  0
 19 14  1  0
M  END
>  <Binding energies>  (43) 
[-6.98]

>  <Ligand effiencies>  (43) 
[-0.2792]

>  <Interactions>  (43) 
["V-A:GLU:543:CG:4902, V-A:PRO:540:N:4879, V-A:TYR:531:CZ:4789, V-A:TYR:531:CE2:4788, V-A:PRO:540:CA:4878, H-A:ALA:541:N:4886, V-A:PRO:540:CB:4880, V-A:LEU:363:CD1:3184, V-A:TYR:539:C:4862, V-A:LEU:363:CA:3180, V-A:PRO:540:CD:4882, H-A:GLU:543:OE2:4905, V-A:GLU:543:CD:4903, V-A:ILE:538:CG2:4858, V-B:ARG:545:CZ:9894, V-A:ILE:538:CA:4855, V-A:ILE:538:CD1:4860, H-A:ASP:366:OD2:3210"]

$$$$
4ah_Grossjean_2025
     RDKit          3D

 28 30  0  0  0  0  0  0  0  0999 V2000
  125.7040  130.0310   57.7730 C   0  0  0  0  0  0  0  0  0  0  0  0
  126.8790  130.7900   58.0320 O   0  0  0  0  0  0  0  0  0  0  0  0
  127.9660  130.6690   57.1840 C   0  0  0  0  0  0  0  0  0  0  0  0
  128.3250  129.4770   56.5350 C   0  0  0  0  0  0  0  0  0  0  0  0
  129.4370  129.4270   55.6940 C   0  0  0  0  0  0  0  0  0  0  0  0
  129.7840  128.1360   54.9610 C   0  0  0  0  0  0  0  0  0  0  0  0
  129.9870  126.9940   55.8520 N   0  0  0  0  0  0  0  0  0  0  0  0
  129.5550  125.7360   55.6220 C   0  0  0  0  0  0  0  0  0  0  0  0
  128.8970  125.4320   54.6260 O   0  0  0  0  0  0  0  0  0  0  0  0
  129.8780  124.7490   56.6520 C   0  0  0  0  0  0  0  0  0  0  0  0
  128.6070  124.1110   57.6970 S   0  0  0  0  0  0  0  0  0  0  0  0
  129.7610  123.1310   58.5740 C   0  0  0  0  0  0  0  0  0  0  0  0
  129.3920  122.3380   59.5810 N   0  0  0  0  0  0  0  0  0  0  0  0
  130.3820  121.6300   60.1750 C   0  0  0  0  0  0  0  0  0  0  0  0
  129.9410  120.7370   61.3200 C   0  0  0  0  0  0  0  0  0  0  0  0
  131.7190  121.6950   59.7900 C   0  0  0  0  0  0  0  0  0  0  0  0
  132.1050  122.5300   58.7350 C   0  0  0  0  0  0  0  0  0  0  0  0
  133.5760  122.5670   58.3520 C   0  0  0  0  0  0  0  0  0  0  0  0
  131.0930  123.2900   58.0870 C   0  0  0  0  0  0  0  0  0  0  0  0
  131.1330  124.2280   56.9980 C   0  0  0  0  0  0  0  0  0  0  0  0
  132.3000  124.5650   56.3610 N   0  0  0  0  0  0  0  0  0  0  0  0
  130.1850  130.5840   55.4740 C   0  0  0  0  0  0  0  0  0  0  0  0
  129.8540  131.7890   56.1130 C   0  0  0  0  0  0  0  0  0  0  0  0
  130.5590  132.9680   55.9530 O   0  0  0  0  0  0  0  0  0  0  0  0
  131.8390  132.9360   55.3300 C   0  0  0  0  0  0  0  0  0  0  0  0
  128.7450  131.8160   56.9710 C   0  0  0  0  0  0  0  0  0  0  0  0
  128.3980  132.9930   57.5900 O   0  0  0  0  0  0  0  0  0  0  0  0
  128.6650  133.0140   58.9850 C   0  0  0  0  0  0  0  0  0  0  0  0
  1  2  1  0
  2  3  1  0
  3  4  2  0
  4  5  1  0
  5  6  1  0
  6  7  1  0
  7  8  1  0
  8  9  2  0
  8 10  1  0
 10 11  1  0
 11 12  1  0
 12 13  2  0
 13 14  1  0
 14 15  1  0
 14 16  2  0
 16 17  1  0
 17 18  1  0
 17 19  2  0
 19 20  1  0
 20 21  1  0
  5 22  2  0
 22 23  1  0
 23 24  1  0
 24 25  1  0
 23 26  2  0
 26 27  1  0
 27 28  1  0
 26  3  1  0
 20 10  2  0
 19 12  1  0
M  END
>  <Binding energies>  (44) 
[-7.23]

>  <Ligand effiencies>  (44) 
[-0.23322580645161292]

>  <Interactions>  (44) 
["V-B:TYR:539:CD2:9842, V-B:TYR:539:CE2:9844, V-B:ALA:541:CB:9860, V-A:PRO:540:N:4879, V-A:TYR:531:CZ:4789, V-A:TYR:539:CE2:4871, V-A:PRO:540:CA:4878, V-A:TYR:539:CE1:4870, V-A:TYR:539:CZ:4872, V-A:LEU:363:CD1:3184, V-A:TYR:539:C:4862, V-A:PRO:540:CD:4882, V-A:TYR:539:CD2:4869, H-A:TYR:539:N:4865, V-B:TYR:539:CZ:9845, V-A:TYR:539:CD1:4868, V-A:TYR:539:CG:4867, V-A:ILE:538:CG2:4858, H-A:TYR:539:OH:4873, V-A:ILE:538:CA:4855, V-A:ILE:538:CB:4857, V-A:ILE:369:CD1:3234, V-A:ILE:369:CG2:3232, V-A:ILE:369:CB:3231, V-A:TYR:531:CE1:4787, H-A:TYR:531:OH:4790, H-B:TYR:539:OH:9846, H-A:LYS:534:NZ:4818, V-A:ILE:538:CD1:4860, H-A:ASP:366:O:3204"]

$$$$
4ai_Grossjean_2025
     RDKit          3D

 20 22  0  0  0  0  0  0  0  0999 V2000
  130.8510  132.6220   54.6460 C   0  0  0  0  0  0  0  0  0  0  0  0
  131.1340  132.1820   56.0710 C   0  0  0  0  0  0  0  0  0  0  0  0
  132.2670  131.4300   56.3770 C   0  0  0  0  0  0  0  0  0  0  0  0
  132.5110  131.0390   57.6990 C   0  0  0  0  0  0  0  0  0  0  0  0
  133.7620  130.2210   57.9830 C   0  0  0  0  0  0  0  0  0  0  0  0
  131.5740  131.4360   58.6920 C   0  0  0  0  0  0  0  0  0  0  0  0
  131.5150  131.2160   60.1110 C   0  0  0  0  0  0  0  0  0  0  0  0
  132.4740  130.4970   60.7820 N   0  0  0  0  0  0  0  0  0  0  0  0
  130.4030  131.8030   60.7340 C   0  0  0  0  0  0  0  0  0  0  0  0
  130.0280  131.7700   62.1500 C   0  0  0  0  0  0  0  0  0  0  0  0
  130.4710  132.6080   62.9370 O   0  0  0  0  0  0  0  0  0  0  0  0
  129.1680  130.7810   62.5000 N   0  0  0  0  0  0  0  0  0  0  0  0
  128.6440  130.5250   63.7600 C   0  0  0  0  0  0  0  0  0  0  0  0
  128.1150  129.2880   64.1280 C   0  0  0  0  0  0  0  0  0  0  0  0
  127.7060  129.4470   65.4320 C   0  0  0  0  0  0  0  0  0  0  0  0
  127.9760  130.7120   65.8300 O   0  0  0  0  0  0  0  0  0  0  0  0
  128.5720  131.3860   64.7620 N   0  0  0  0  0  0  0  0  0  0  0  0
  129.3790  132.6310   59.5590 S   0  0  0  0  0  0  0  0  0  0  0  0
  130.4560  132.2040   58.2480 C   0  0  0  0  0  0  0  0  0  0  0  0
  130.2190  132.5760   56.9900 N   0  0  0  0  0  0  0  0  0  0  0  0
  1  2  1  0
  2  3  2  0
  3  4  1  0
  4  5  1  0
  4  6  2  0
  6  7  1  0
  7  8  1  0
  7  9  2  0
  9 10  1  0
 10 11  2  0
 10 12  1  0
 12 13  1  0
 13 14  1  0
 14 15  2  0
 15 16  1  0
 16 17  1  0
  9 18  1  0
 18 19  1  0
 19 20  2  0
 20  2  1  0
 19  6  1  0
 17 13  2  0
M  END
>  <Binding energies>  (45) 
[-6.59]

>  <Ligand effiencies>  (45) 
[-0.28652173913043477]

>  <Interactions>  (45) 
["V-A:GLU:543:CG:4902, V-A:PRO:540:N:4879, V-A:TYR:531:CZ:4789, V-A:TYR:531:CE2:4788, V-A:PRO:540:CA:4878, H-A:ALA:541:N:4886, V-A:PRO:540:CB:4880, V-A:LEU:363:CD1:3184, V-A:TYR:539:C:4862, V-A:LEU:363:CA:3180, H-A:GLU:543:OE2:4905, V-A:GLU:543:CD:4903, V-A:LEU:363:CB:3182, V-A:ILE:538:CG2:4858, V-A:ILE:538:CA:4855, H-B:TYR:484:OH:9315, V-A:ILE:538:CD1:4860, H-A:ASP:366:OD2:3210"]

$$$$
4aj_Grossjean_2025
     RDKit          3D

 20 22  0  0  0  0  0  0  0  0999 V2000
  131.0520  132.7330   54.6970 C   0  0  0  0  0  0  0  0  0  0  0  0
  131.2580  132.2370   56.1160 C   0  0  0  0  0  0  0  0  0  0  0  0
  132.3370  131.4180   56.4400 C   0  0  0  0  0  0  0  0  0  0  0  0
  132.5040  130.9670   57.7550 C   0  0  0  0  0  0  0  0  0  0  0  0
  133.6980  130.0740   58.0570 C   0  0  0  0  0  0  0  0  0  0  0  0
  131.5480  131.3750   58.7220 C   0  0  0  0  0  0  0  0  0  0  0  0
  131.4160  131.1050   60.1290 C   0  0  0  0  0  0  0  0  0  0  0  0
  132.3070  130.3150   60.8090 N   0  0  0  0  0  0  0  0  0  0  0  0
  130.3080  131.7240   60.7270 C   0  0  0  0  0  0  0  0  0  0  0  0
  129.8690  131.6570   62.1230 C   0  0  0  0  0  0  0  0  0  0  0  0
  130.0230  132.6190   62.8780 O   0  0  0  0  0  0  0  0  0  0  0  0
  129.2880  130.4900   62.4940 N   0  0  0  0  0  0  0  0  0  0  0  0
  128.7790  130.1740   63.7470 C   0  0  0  0  0  0  0  0  0  0  0  0
  128.5940  130.9800   64.7700 N   0  0  0  0  0  0  0  0  0  0  0  0
  128.0860  130.3410   65.8050 C   0  0  0  0  0  0  0  0  0  0  0  0
  127.8470  128.9800   65.6320 C   0  0  0  0  0  0  0  0  0  0  0  0
  128.3170  128.5250   64.0210 S   0  0  0  0  0  0  0  0  0  0  0  0
  129.3820  132.6530   59.5460 S   0  0  0  0  0  0  0  0  0  0  0  0
  130.4910  132.2180   58.2640 C   0  0  0  0  0  0  0  0  0  0  0  0
  130.3280  132.6480   57.0130 N   0  0  0  0  0  0  0  0  0  0  0  0
  1  2  1  0
  2  3  2  0
  3  4  1  0
  4  5  1  0
  4  6  2  0
  6  7  1  0
  7  8  1  0
  7  9  2  0
  9 10  1  0
 10 11  2  0
 10 12  1  0
 12 13  1  0
 13 14  2  0
 14 15  1  0
 15 16  2  0
 16 17  1  0
  9 18  1  0
 18 19  1  0
 19 20  2  0
 20  2  1  0
 19  6  1  0
 17 13  1  0
M  END
>  <Binding energies>  (46) 
[-6.48]

>  <Ligand effiencies>  (46) 
[-0.2817391304347826]

>  <Interactions>  (46) 
["V-A:GLU:543:CG:4902, V-A:PRO:540:N:4879, V-A:TYR:531:CZ:4789, V-A:TYR:531:CE2:4788, V-A:PRO:540:CA:4878, V-A:ASP:366:CB:3207, H-A:ALA:541:N:4886, V-A:PRO:540:CB:4880, V-A:LEU:363:CD1:3184, V-A:TYR:539:C:4862, V-A:LEU:363:CA:3180, V-A:PRO:540:CD:4882, H-A:GLU:543:OE2:4905, V-A:GLU:543:CD:4903, V-A:ILE:538:CG2:4858, V-A:ILE:538:CA:4855, V-B:TYR:484:CE1:9312, V-B:TYR:484:CZ:9314, H-B:TYR:484:OH:9315, V-A:ILE:538:CD1:4860, H-A:ASP:366:OD2:3210"]

$$$$
4ak_Grossjean_2025
     RDKit          3D

 25 26  0  0  0  0  0  0  0  0999 V2000
  132.1830  132.5690   55.0180 C   0  0  0  0  0  0  0  0  0  0  0  0
  131.1330  133.4800   55.3020 O   0  0  0  0  0  0  0  0  0  0  0  0
  129.8650  132.8530   55.4530 C   0  0  0  0  0  0  0  0  0  0  0  0
  129.7830  132.1920   56.8350 C   0  0  0  0  0  0  0  0  0  0  0  0
  128.4380  132.2230   57.2930 O   0  0  0  0  0  0  0  0  0  0  0  0
  127.6580  131.1170   56.8580 C   0  0  0  0  0  0  0  0  0  0  0  0
  128.2750  129.8190   57.3930 C   0  0  0  0  0  0  0  0  0  0  0  0
  128.3610  128.8700   56.3380 O   0  0  0  0  0  0  0  0  0  0  0  0
  129.4420  129.1020   55.4440 C   0  0  0  0  0  0  0  0  0  0  0  0
  129.8000  127.7880   54.7270 C   0  0  0  0  0  0  0  0  0  0  0  0
  130.0910  126.6830   55.6400 N   0  0  0  0  0  0  0  0  0  0  0  0
  129.5660  125.4430   55.5560 C   0  0  0  0  0  0  0  0  0  0  0  0
  128.7850  125.1150   54.6610 O   0  0  0  0  0  0  0  0  0  0  0  0
  129.9840  124.4970   56.5890 C   0  0  0  0  0  0  0  0  0  0  0  0
  128.7810  123.5980   57.5130 S   0  0  0  0  0  0  0  0  0  0  0  0
  130.0270  122.7750   58.4240 C   0  0  0  0  0  0  0  0  0  0  0  0
  129.7350  121.8840   59.3720 N   0  0  0  0  0  0  0  0  0  0  0  0
  130.7940  121.3210   60.0040 C   0  0  0  0  0  0  0  0  0  0  0  0
  130.4420  120.3090   61.0800 C   0  0  0  0  0  0  0  0  0  0  0  0
  132.1220  121.6230   59.7120 C   0  0  0  0  0  0  0  0  0  0  0  0
  132.4250  122.5580   58.7150 C   0  0  0  0  0  0  0  0  0  0  0  0
  133.8890  122.8580   58.4350 C   0  0  0  0  0  0  0  0  0  0  0  0
  131.3410  123.1710   58.0310 C   0  0  0  0  0  0  0  0  0  0  0  0
  131.2880  124.1500   56.9790 C   0  0  0  0  0  0  0  0  0  0  0  0
  132.4190  124.6890   56.4200 N   0  0  0  0  0  0  0  0  0  0  0  0
  1  2  1  0
  2  3  1  0
  3  4  1  0
  4  5  1  0
  5  6  1  0
  6  7  1  0
  7  8  1  0
  8  9  1  0
  9 10  1  0
 10 11  1  0
 11 12  1  0
 12 13  2  0
 12 14  1  0
 14 15  1  0
 15 16  1  0
 16 17  2  0
 17 18  1  0
 18 19  1  0
 18 20  2  0
 20 21  1  0
 21 22  1  0
 21 23  2  0
 23 24  1  0
 24 25  1  0
 24 14  2  0
 23 16  1  0
M  END
>  <Binding energies>  (47) 
[-5.71]

>  <Ligand effiencies>  (47) 
[-0.20392857142857143]

>  <Interactions>  (47) 
["V-B:TYR:539:CD2:9842, V-A:LEU:475:CD2:4254, V-B:TYR:539:CE2:9844, V-B:ALA:541:CB:9860, V-A:TYR:531:CZ:4789, V-A:TYR:539:CE1:4870, V-A:TYR:539:CZ:4872, V-A:LEU:363:CD1:3184, H-A:TYR:539:N:4865, V-B:TYR:539:CZ:9845, V-A:TYR:539:CD1:4868, V-A:ILE:538:CG2:4858, V-A:ILE:538:CA:4855, V-A:ILE:369:CD1:3234, V-A:ILE:369:CG2:3232, V-A:ILE:369:CB:3231, V-A:TYR:531:CE1:4787, H-A:TYR:531:OH:4790, H-B:TYR:539:OH:9846, H-A:LYS:534:NZ:4818, V-A:ILE:538:CD1:4860, V-A:ILE:369:CG1:3233, H-A:ASP:366:O:3204"]

$$$$
4al_Grossjean_2025
     RDKit          3D

 16 17  0  0  0  0  0  0  0  0999 V2000
  127.6120  134.7310   61.4810 C   0  0  0  0  0  0  0  0  0  0  0  0
  127.8040  133.3240   61.4570 O   0  0  0  0  0  0  0  0  0  0  0  0
  129.0270  132.7830   61.6940 C   0  0  0  0  0  0  0  0  0  0  0  0
  129.4990  132.6120   62.8210 O   0  0  0  0  0  0  0  0  0  0  0  0
  129.7450  132.4160   60.4540 C   0  0  0  0  0  0  0  0  0  0  0  0
  129.1300  132.9500   58.8880 S   0  0  0  0  0  0  0  0  0  0  0  0
  130.4450  132.1560   58.0540 C   0  0  0  0  0  0  0  0  0  0  0  0
  130.5610  132.1910   56.7260 N   0  0  0  0  0  0  0  0  0  0  0  0
  131.6270  131.5340   56.2040 C   0  0  0  0  0  0  0  0  0  0  0  0
  131.7390  131.5870   54.6910 C   0  0  0  0  0  0  0  0  0  0  0  0
  132.5680  130.8520   56.9710 C   0  0  0  0  0  0  0  0  0  0  0  0
  132.4440  130.8170   58.3640 C   0  0  0  0  0  0  0  0  0  0  0  0
  133.4960  130.0600   59.1580 C   0  0  0  0  0  0  0  0  0  0  0  0
  131.3390  131.4940   58.9470 C   0  0  0  0  0  0  0  0  0  0  0  0
  130.9140  131.6590   60.3100 C   0  0  0  0  0  0  0  0  0  0  0  0
  131.6000  131.1210   61.3680 N   0  0  0  0  0  0  0  0  0  0  0  0
  1  2  1  0
  2  3  1  0
  3  4  2  0
  3  5  1  0
  5  6  1  0
  6  7  1  0
  7  8  2  0
  8  9  1  0
  9 10  1  0
  9 11  2  0
 11 12  1  0
 12 13  1  0
 12 14  2  0
 14 15  1  0
 15 16  1  0
 15  5  2  0
 14  7  1  0
M  END
>  <Binding energies>  (48) 
[-5.29]

>  <Ligand effiencies>  (48) 
[-0.29388888888888887]

>  <Interactions>  (48) 
["V-A:PRO:540:N:4879, V-A:TYR:531:CZ:4789, V-A:TYR:531:CE2:4788, V-A:PRO:540:CA:4878, V-A:PRO:540:C:4876, V-A:ASP:366:CB:3207, H-A:ALA:541:N:4886, V-A:PRO:540:CB:4880, V-A:LEU:363:CD1:3184, V-A:TYR:539:C:4862, V-A:LEU:363:CA:3180, H-A:GLU:543:OE2:4905, V-A:ASP:366:CG:3208, V-A:GLU:543:CD:4903, V-A:TYR:539:CD2:4869, V-B:LEU:475:CD2:9226, V-A:ALA:541:CB:4887, V-A:ILE:538:CD1:4860, H-A:ASP:366:OD2:3210"]

$$$$
4bc_Grossjean_2025
     RDKit          3D

 26 28  0  0  0  0  0  0  0  0999 V2000
  125.0710  122.5010   56.5730 C   0  0  0  0  0  0  0  0  0  0  0  0
  126.4350  122.1870   56.3130 O   0  0  0  0  0  0  0  0  0  0  0  0
  127.3920  122.5110   57.2550 C   0  0  0  0  0  0  0  0  0  0  0  0
  126.9250  122.8800   58.5160 C   0  0  0  0  0  0  0  0  0  0  0  0
  127.8140  123.2250   59.5300 C   0  0  0  0  0  0  0  0  0  0  0  0
  129.1900  123.1970   59.2970 C   0  0  0  0  0  0  0  0  0  0  0  0
  130.0110  123.5760   60.3750 N   0  0  0  0  0  0  0  0  0  0  0  0
  131.0790  124.4110   60.3870 C   0  0  0  0  0  0  0  0  0  0  0  0
  131.5310  124.9640   59.3840 O   0  0  0  0  0  0  0  0  0  0  0  0
  131.6960  124.6240   61.7000 C   0  0  0  0  0  0  0  0  0  0  0  0
  133.4200  124.3370   61.9270 S   0  0  0  0  0  0  0  0  0  0  0  0
  133.3200  124.7860   63.6130 C   0  0  0  0  0  0  0  0  0  0  0  0
  134.3940  124.7750   64.4010 N   0  0  0  0  0  0  0  0  0  0  0  0
  134.1920  125.1400   65.6870 C   0  0  0  0  0  0  0  0  0  0  0  0
  135.4290  125.1250   66.5660 C   0  0  0  0  0  0  0  0  0  0  0  0
  132.9520  125.5130   66.2010 C   0  0  0  0  0  0  0  0  0  0  0  0
  131.8160  125.5260   65.3760 C   0  0  0  0  0  0  0  0  0  0  0  0
  130.4730  125.9410   65.9870 C   0  0  0  0  0  0  0  0  0  0  0  0
  129.8180  126.8380   65.2470 F   0  0  0  0  0  0  0  0  0  0  0  0
  129.6860  124.8730   66.1100 F   0  0  0  0  0  0  0  0  0  0  0  0
  130.6720  126.4820   67.1890 F   0  0  0  0  0  0  0  0  0  0  0  0
  131.9960  125.1480   64.0120 C   0  0  0  0  0  0  0  0  0  0  0  0
  131.0900  125.0470   62.8930 C   0  0  0  0  0  0  0  0  0  0  0  0
  129.7540  125.3410   62.9940 N   0  0  0  0  0  0  0  0  0  0  0  0
  129.6690  122.8400   58.0270 C   0  0  0  0  0  0  0  0  0  0  0  0
  128.7760  122.4960   57.0160 C   0  0  0  0  0  0  0  0  0  0  0  0
  1  2  1  0
  2  3  1  0
  3  4  2  0
  4  5  1  0
  5  6  2  0
  6  7  1  0
  7  8  1  0
  8  9  2  0
  8 10  1  0
 10 11  1  0
 11 12  1  0
 12 13  2  0
 13 14  1  0
 14 15  1  0
 14 16  2  0
 16 17  1  0
 17 18  1  0
 18 19  1  0
 18 20  1  0
 18 21  1  0
 17 22  2  0
 22 23  1  0
 23 24  1  0
  6 25  1  0
 25 26  2  0
 26  3  1  0
 23 10  2  0
 22 12  1  0
M  END
>  <Binding energies>  (49) 
[-6.85]

>  <Ligand effiencies>  (49) 
[-0.23620689655172414]

>  <Interactions>  (49) 
["V-B:TYR:539:C:9835, V-B:TYR:539:CD2:9842, V-B:TYR:539:CE2:9844, V-B:PRO:540:N:9852, V-B:PRO:540:CA:9851, V-B:MET:535:CE:9803, V-B:PRO:540:CB:9853, H-B:GLU:543:OE2:9878, V-B:GLU:543:CD:9876, V-A:ASP:366:CG:3208, V-A:GLU:543:CD:4903, H-A:TYR:484:OH:4343, V-B:GLU:543:CG:9875, H-B:TYR:539:N:9838, V-B:PRO:540:CD:9855, V-B:LEU:363:CD1:8156, V-B:TYR:539:CZ:9845, V-A:HIS:456:CE1:4064, V-B:GLU:543:CB:9874, V-B:TYR:539:CE1:9843, V-A:ARG:545:CZ:4921, V-A:GLY:453:CA:4039, H-A:GLY:454:N:4045, V-A:ARG:545:CD:4918, V-B:TYR:539:CD1:9841, V-A:ARG:545:CG:4917, V-B:TYR:539:CG:9840, H-A:ARG:545:NH1:4922, V-A:ARG:545:CB:4916, V-A:GLY:453:C:4037, V-A:ILE:455:C:4047, V-A:HIS:456:CD2:4063"]

$$$$
4bf_Grossjean_2025
     RDKit          3D

 24 26  0  0  0  0  0  0  0  0999 V2000
  130.6990  132.9690   55.3460 C   0  0  0  0  0  0  0  0  0  0  0  0
  130.6570  132.5590   56.8080 C   0  0  0  0  0  0  0  0  0  0  0  0
  131.7190  131.8720   57.3910 C   0  0  0  0  0  0  0  0  0  0  0  0
  131.6650  131.4970   58.7420 C   0  0  0  0  0  0  0  0  0  0  0  0
  132.8560  130.7400   59.3400 C   0  0  0  0  0  0  0  0  0  0  0  0
  133.4610  131.4110   60.3240 F   0  0  0  0  0  0  0  0  0  0  0  0
  132.4450  129.5760   59.8450 F   0  0  0  0  0  0  0  0  0  0  0  0
  133.7680  130.5130   58.3940 F   0  0  0  0  0  0  0  0  0  0  0  0
  130.4900  131.8490   59.4720 C   0  0  0  0  0  0  0  0  0  0  0  0
  130.0840  131.6370   60.8390 C   0  0  0  0  0  0  0  0  0  0  0  0
  130.8740  130.9870   61.7530 N   0  0  0  0  0  0  0  0  0  0  0  0
  128.8170  132.1580   61.1490 C   0  0  0  0  0  0  0  0  0  0  0  0
  128.0890  132.0940   62.4210 C   0  0  0  0  0  0  0  0  0  0  0  0
  128.3700  132.8600   63.3430 O   0  0  0  0  0  0  0  0  0  0  0  0
  127.1060  131.1630   62.4810 N   0  0  0  0  0  0  0  0  0  0  0  0
  126.2650  130.8150   63.5550 C   0  0  0  0  0  0  0  0  0  0  0  0
  126.5840  129.9060   64.5790 C   0  0  0  0  0  0  0  0  0  0  0  0
  125.6490  129.6380   65.5810 C   0  0  0  0  0  0  0  0  0  0  0  0
  124.4130  130.2840   65.5320 C   0  0  0  0  0  0  0  0  0  0  0  0
  124.0790  131.1600   64.5520 N   0  0  0  0  0  0  0  0  0  0  0  0
  124.9980  131.4100   63.5840 C   0  0  0  0  0  0  0  0  0  0  0  0
  128.0830  132.9270   59.7440 S   0  0  0  0  0  0  0  0  0  0  0  0
  129.4750  132.5540   58.7540 C   0  0  0  0  0  0  0  0  0  0  0  0
  129.5310  132.9090   57.4720 N   0  0  0  0  0  0  0  0  0  0  0  0
  1  2  1  0
  2  3  2  0
  3  4  1  0
  4  5  1  0
  5  6  1  0
  5  7  1  0
  5  8  1  0
  4  9  2  0
  9 10  1  0
 10 11  1  0
 10 12  2  0
 12 13  1  0
 13 14  2  0
 13 15  1  0
 15 16  1  0
 16 17  2  0
 17 18  1  0
 18 19  2  0
 19 20  1  0
 20 21  2  0
 12 22  1  0
 22 23  1  0
 23 24  2  0
 24  2  1  0
 23  9  1  0
 21 16  1  0
M  END
>  <Binding energies>  (50) 
[-6.43]

>  <Ligand effiencies>  (50) 
[-0.23814814814814814]

>  <Interactions>  (50) 
["V-A:PRO:540:N:4879, V-A:ASN:362:C:3167, V-A:TYR:539:CE2:4871, V-A:PRO:540:CG:4881, V-A:TYR:531:CE2:4788, V-A:PRO:540:CA:4878, V-A:PRO:540:CB:4880, V-A:LEU:363:CD1:3184, V-A:TYR:539:C:4862, V-A:ASN:362:CB:3171, V-A:LEU:363:CA:3180, V-A:PRO:540:CD:4882, H-A:GLU:543:OE2:4905, V-A:ASP:366:CG:3208, V-A:GLU:543:CD:4903, V-A:TYR:539:CD2:4869, H-B:GLY:454:N:9017, V-A:LEU:363:CB:3182, V-A:ILE:538:CG2:4858, V-A:ILE:538:CA:4855, V-A:ILE:538:C:4853, V-B:HIS:456:CE1:9037, H-B:TYR:484:OH:9315"]

$$$$
4bh_Grossjean_2025
     RDKit          3D

 31 33  0  0  0  0  0  0  0  0999 V2000
  123.0810  131.0860   62.2670 C   0  0  0  0  0  0  0  0  0  0  0  0
  123.7720  131.7130   63.3420 O   0  0  0  0  0  0  0  0  0  0  0  0
  124.8200  131.0510   63.9540 C   0  0  0  0  0  0  0  0  0  0  0  0
  126.1690  131.4080   63.8030 C   0  0  0  0  0  0  0  0  0  0  0  0
  127.1760  130.6920   64.4510 C   0  0  0  0  0  0  0  0  0  0  0  0
  128.6310  131.1230   64.3110 C   0  0  0  0  0  0  0  0  0  0  0  0
  129.0570  131.3000   62.9220 N   0  0  0  0  0  0  0  0  0  0  0  0
  128.8340  132.3980   62.1710 C   0  0  0  0  0  0  0  0  0  0  0  0
  128.1970  133.3680   62.5860 O   0  0  0  0  0  0  0  0  0  0  0  0
  129.3570  132.3590   60.8040 C   0  0  0  0  0  0  0  0  0  0  0  0
  128.4920  133.1750   59.5060 S   0  0  0  0  0  0  0  0  0  0  0  0
  129.6640  132.6330   58.3270 C   0  0  0  0  0  0  0  0  0  0  0  0
  129.5550  132.9570   57.0390 N   0  0  0  0  0  0  0  0  0  0  0  0
  130.5240  132.4810   56.2240 C   0  0  0  0  0  0  0  0  0  0  0  0
  130.3800  132.8600   54.7600 C   0  0  0  0  0  0  0  0  0  0  0  0
  131.5890  131.6980   56.6600 C   0  0  0  0  0  0  0  0  0  0  0  0
  131.7080  131.3520   58.0150 C   0  0  0  0  0  0  0  0  0  0  0  0
  132.8990  130.4910   58.4490 C   0  0  0  0  0  0  0  0  0  0  0  0
  133.8240  130.3570   57.4960 F   0  0  0  0  0  0  0  0  0  0  0  0
  133.4940  131.0430   59.5060 F   0  0  0  0  0  0  0  0  0  0  0  0
  132.4770  129.2680   58.7710 F   0  0  0  0  0  0  0  0  0  0  0  0
  130.7020  131.8350   58.9020 C   0  0  0  0  0  0  0  0  0  0  0  0
  130.4900  131.6860   60.3210 C   0  0  0  0  0  0  0  0  0  0  0  0
  131.3280  130.9560   61.1250 N   0  0  0  0  0  0  0  0  0  0  0  0
  126.8350  129.6240   65.2820 C   0  0  0  0  0  0  0  0  0  0  0  0
  125.4950  129.2390   65.4460 C   0  0  0  0  0  0  0  0  0  0  0  0
  125.0860  128.1840   66.2420 O   0  0  0  0  0  0  0  0  0  0  0  0
  126.0650  127.3910   66.9050 C   0  0  0  0  0  0  0  0  0  0  0  0
  124.4970  129.9580   64.7720 C   0  0  0  0  0  0  0  0  0  0  0  0
  123.1790  129.6030   64.9380 O   0  0  0  0  0  0  0  0  0  0  0  0
  122.6240  130.0090   66.1810 C   0  0  0  0  0  0  0  0  0  0  0  0
  1  2  1  0
  2  3  1  0
  3  4  2  0
  4  5  1  0
  5  6  1  0
  6  7  1  0
  7  8  1  0
  8  9  2  0
  8 10  1  0
 10 11  1  0
 11 12  1  0
 12 13  2  0
 13 14  1  0
 14 15  1  0
 14 16  2  0
 16 17  1  0
 17 18  1  0
 18 19  1  0
 18 20  1  0
 18 21  1  0
 17 22  2  0
 22 23  1  0
 23 24  1  0
  5 25  2  0
 25 26  1  0
 26 27  1  0
 27 28  1  0
 26 29  2  0
 29 30  1  0
 30 31  1  0
 29  3  1  0
 23 10  2  0
 22 12  1  0
M  END
>  <Binding energies>  (51) 
[-6.72]

>  <Ligand effiencies>  (51) 
[-0.1976470588235294]

>  <Interactions>  (51) 
["V-B:GLU:543:CD:9876, V-A:GLU:543:CG:4902, V-A:PRO:540:N:4879, V-A:ASN:362:C:3167, V-A:TYR:531:CZ:4789, V-A:TYR:539:CE2:4871, V-A:TYR:531:CE2:4788, V-A:PRO:540:CA:4878, V-A:ASP:366:CB:3207, V-A:PRO:540:CB:4880, V-A:LEU:363:CD1:3184, V-A:TYR:539:C:4862, V-A:LEU:363:CA:3180, H-A:GLU:543:OE2:4905, V-A:ASP:366:CG:3208, V-A:GLU:543:CD:4903, V-B:GLY:454:CA:9016, H-B:ARG:545:NH1:9895, V-A:TYR:539:CD2:4869, H-B:GLY:454:N:9017, V-B:ILE:369:CD1:8206, H-A:TYR:539:N:4865, V-A:LEU:363:CB:3182, V-A:TYR:539:CD1:4868, V-A:ALA:541:CB:4887, V-A:TYR:531:CD2:4786, V-B:ARG:545:CZ:9894, V-A:ILE:538:CA:4855, V-B:HIS:456:CE1:9037, V-B:ARG:545:CG:9890, V-B:ARG:545:CD:9891, V-B:GLU:543:CB:9874, H-B:ARG:545:NH2:9896, V-B:GLY:453:CA:9011, V-B:GLY:453:C:9009, H-B:ARG:545:NE:9892, V-A:ILE:538:CD1:4860, H-A:ASP:366:OD2:3210, V-A:LEU:363:CG:3183"]

$$$$
4bi_Grossjean_2025
     RDKit          3D

 23 25  0  0  0  0  0  0  0  0999 V2000
  133.5080  122.0880   62.8780 C   0  0  0  0  0  0  0  0  0  0  0  0
  132.7910  122.4100   61.5800 C   0  0  0  0  0  0  0  0  0  0  0  0
  133.4960  122.8370   60.4580 C   0  0  0  0  0  0  0  0  0  0  0  0
  132.8200  123.1280   59.2610 C   0  0  0  0  0  0  0  0  0  0  0  0
  133.6390  123.5860   58.0500 C   0  0  0  0  0  0  0  0  0  0  0  0
  133.5300  122.7640   57.0040 F   0  0  0  0  0  0  0  0  0  0  0  0
  133.2270  124.7900   57.6550 F   0  0  0  0  0  0  0  0  0  0  0  0
  134.9310  123.6480   58.3760 F   0  0  0  0  0  0  0  0  0  0  0  0
  131.4020  122.9700   59.2590 C   0  0  0  0  0  0  0  0  0  0  0  0
  130.3950  123.1700   58.2460 C   0  0  0  0  0  0  0  0  0  0  0  0
  130.6920  123.6050   56.9800 N   0  0  0  0  0  0  0  0  0  0  0  0
  129.0880  122.8750   58.6700 C   0  0  0  0  0  0  0  0  0  0  0  0
  127.8370  122.9790   57.9130 C   0  0  0  0  0  0  0  0  0  0  0  0
  127.6200  122.2400   56.9510 O   0  0  0  0  0  0  0  0  0  0  0  0
  126.9620  123.9140   58.3610 N   0  0  0  0  0  0  0  0  0  0  0  0
  125.7080  124.2140   57.8440 C   0  0  0  0  0  0  0  0  0  0  0  0
  124.5490  124.2290   58.6190 C   0  0  0  0  0  0  0  0  0  0  0  0
  123.5390  124.5660   57.7470 C   0  0  0  0  0  0  0  0  0  0  0  0
  124.0630  124.7450   56.5110 O   0  0  0  0  0  0  0  0  0  0  0  0
  125.4390  124.5190   56.5860 N   0  0  0  0  0  0  0  0  0  0  0  0
  129.0660  122.3610   60.3550 S   0  0  0  0  0  0  0  0  0  0  0  0
  130.8010  122.5250   60.4760 C   0  0  0  0  0  0  0  0  0  0  0  0
  131.4480  122.2490   61.6080 N   0  0  0  0  0  0  0  0  0  0  0  0
  1  2  1  0
  2  3  2  0
  3  4  1  0
  4  5  1  0
  5  6  1  0
  5  7  1  0
  5  8  1  0
  4  9  2  0
  9 10  1  0
 10 11  1  0
 10 12  2  0
 12 13  1  0
 13 14  2  0
 13 15  1  0
 15 16  1  0
 16 17  1  0
 17 18  2  0
 18 19  1  0
 19 20  1  0
 12 21  1  0
 21 22  1  0
 22 23  2  0
 23  2  1  0
 22  9  1  0
 20 16  2  0
M  END
>  <Binding energies>  (52) 
[-6.12]

>  <Ligand effiencies>  (52) 
[-0.2353846153846154]

>  <Interactions>  (52) 
["V-B:TYR:539:C:9835, V-B:TYR:539:CD2:9842, V-A:LEU:475:CD2:4254, V-B:TYR:539:CE2:9844, V-B:PRO:540:N:9852, V-B:PRO:540:CA:9851, V-B:PRO:540:CB:9853, V-A:TYR:531:CZ:4789, V-A:ASP:366:CB:3207, V-A:ASP:366:CG:3208, H-B:TYR:539:N:9838, V-B:LEU:363:CB:8154, V-B:ASP:366:CG:8180, V-B:LEU:363:CD1:8156, V-B:TYR:539:CZ:9845, V-B:TYR:531:CE2:9761, V-B:ASP:366:CB:8179, V-B:LEU:363:CA:8152, V-A:ILE:369:CD1:3234, V-A:ILE:369:CG2:3232, V-B:LEU:363:CG:8155, V-A:ILE:369:CB:3231, V-A:TYR:531:CE1:4787, V-A:ASP:366:CA:3205, V-A:ASP:366:C:3203, H-B:TYR:539:OH:9846, V-A:GLY:454:CA:4044, H-B:TYR:531:OH:9763, V-A:ILE:369:CG1:3233"]

$$$$
4bj_Grossjean_2025
     RDKit          3D

 23 25  0  0  0  0  0  0  0  0999 V2000
  135.4380  125.1230   66.6170 C   0  0  0  0  0  0  0  0  0  0  0  0
  134.2010  125.1250   65.7360 C   0  0  0  0  0  0  0  0  0  0  0  0
  132.9550  125.4760   66.2490 C   0  0  0  0  0  0  0  0  0  0  0  0
  131.8190  125.4670   65.4250 C   0  0  0  0  0  0  0  0  0  0  0  0
  130.4680  125.8580   66.0360 C   0  0  0  0  0  0  0  0  0  0  0  0
  130.5730  126.3100   67.2870 F   0  0  0  0  0  0  0  0  0  0  0  0
  129.9060  126.8220   65.3070 F   0  0  0  0  0  0  0  0  0  0  0  0
  129.6620  124.7960   66.0610 F   0  0  0  0  0  0  0  0  0  0  0  0
  132.0050  125.0900   64.0620 C   0  0  0  0  0  0  0  0  0  0  0  0
  131.0990  124.9620   62.9460 C   0  0  0  0  0  0  0  0  0  0  0  0
  129.7550  125.2140   63.0510 N   0  0  0  0  0  0  0  0  0  0  0  0
  131.7160  124.5670   61.7490 C   0  0  0  0  0  0  0  0  0  0  0  0
  131.1020  124.3330   60.4390 C   0  0  0  0  0  0  0  0  0  0  0  0
  130.1970  123.5060   60.3050 O   0  0  0  0  0  0  0  0  0  0  0  0
  131.5880  125.0890   59.4250 N   0  0  0  0  0  0  0  0  0  0  0  0
  131.1750  125.0720   58.1000 C   0  0  0  0  0  0  0  0  0  0  0  0
  130.0560  125.5460   57.5950 N   0  0  0  0  0  0  0  0  0  0  0  0
  129.9960  125.3620   56.2910 C   0  0  0  0  0  0  0  0  0  0  0  0
  131.0860  124.7230   55.7090 C   0  0  0  0  0  0  0  0  0  0  0  0
  132.2470  124.3440   56.9460 S   0  0  0  0  0  0  0  0  0  0  0  0
  133.4460  124.3160   61.9740 S   0  0  0  0  0  0  0  0  0  0  0  0
  133.3360  124.7570   63.6620 C   0  0  0  0  0  0  0  0  0  0  0  0
  134.4110  124.7650   64.4490 N   0  0  0  0  0  0  0  0  0  0  0  0
  1  2  1  0
  2  3  2  0
  3  4  1  0
  4  5  1  0
  5  6  1  0
  5  7  1  0
  5  8  1  0
  4  9  2  0
  9 10  1  0
 10 11  1  0
 10 12  2  0
 12 13  1  0
 13 14  2  0
 13 15  1  0
 15 16  1  0
 16 17  2  0
 17 18  1  0
 18 19  2  0
 19 20  1  0
 12 21  1  0
 21 22  1  0
 22 23  2  0
 23  2  1  0
 22  9  1  0
 20 16  1  0
M  END
>  <Binding energies>  (53) 
[-5.6]

>  <Ligand effiencies>  (53) 
[-0.21538461538461537]

>  <Interactions>  (53) 
["V-B:TYR:539:CE2:9844, H-B:GLU:543:OE2:9878, V-B:GLU:543:CD:9876, V-A:TYR:531:CZ:4789, V-A:ASP:366:CG:3208, V-A:GLU:543:CD:4903, H-A:TYR:484:OH:4343, V-B:GLU:543:CG:9875, V-B:TYR:539:CZ:9845, V-A:HIS:456:CE1:4064, V-B:GLU:543:CB:9874, V-A:TYR:531:CE1:4787, H-A:TYR:531:OH:4790, V-A:ARG:545:CZ:4921, V-A:GLY:453:CA:4039, H-A:GLY:454:N:4045, V-A:ARG:545:CD:4918, V-A:ARG:545:CG:4917, H-A:ARG:545:NH1:4922, V-A:ARG:545:CB:4916, V-A:GLY:453:C:4037, V-A:ILE:455:C:4047, V-A:HIS:456:CD2:4063, H-A:ASP:366:OD1:3209, H-A:ASP:366:OD2:3210"]

$$$$
4bk_Grossjean_2025
     RDKit          3D

 28 29  0  0  0  0  0  0  0  0999 V2000
  129.1700  125.3540   55.0720 C   0  0  0  0  0  0  0  0  0  0  0  0
  129.1200  123.9490   54.8720 O   0  0  0  0  0  0  0  0  0  0  0  0
  129.0410  123.2080   56.0830 C   0  0  0  0  0  0  0  0  0  0  0  0
  127.8760  122.2140   56.0000 C   0  0  0  0  0  0  0  0  0  0  0  0
  126.7970  122.6830   56.7980 O   0  0  0  0  0  0  0  0  0  0  0  0
  125.5430  122.1020   56.4670 C   0  0  0  0  0  0  0  0  0  0  0  0
  124.5200  123.2130   56.2000 C   0  0  0  0  0  0  0  0  0  0  0  0
  124.9550  124.4120   56.8260 O   0  0  0  0  0  0  0  0  0  0  0  0
  124.1850  124.7790   57.9650 C   0  0  0  0  0  0  0  0  0  0  0  0
  124.7480  124.0710   59.2100 C   0  0  0  0  0  0  0  0  0  0  0  0
  126.1840  123.7960   59.1310 N   0  0  0  0  0  0  0  0  0  0  0  0
  126.9580  123.3920   60.1590 C   0  0  0  0  0  0  0  0  0  0  0  0
  126.5050  123.1940   61.2880 O   0  0  0  0  0  0  0  0  0  0  0  0
  128.3760  123.1910   59.8580 C   0  0  0  0  0  0  0  0  0  0  0  0
  129.2700  124.4140   58.9580 S   0  0  0  0  0  0  0  0  0  0  0  0
  130.7420  123.4770   59.0620 C   0  0  0  0  0  0  0  0  0  0  0  0
  131.8800  123.9070   58.5190 N   0  0  0  0  0  0  0  0  0  0  0  0
  132.9530  123.0960   58.6670 C   0  0  0  0  0  0  0  0  0  0  0  0
  134.2390  123.6070   58.0430 C   0  0  0  0  0  0  0  0  0  0  0  0
  132.9150  121.8760   59.3370 C   0  0  0  0  0  0  0  0  0  0  0  0
  131.7190  121.4160   59.9100 C   0  0  0  0  0  0  0  0  0  0  0  0
  131.7250  120.0660   60.6350 C   0  0  0  0  0  0  0  0  0  0  0  0
  131.2110  120.1310   61.8650 F   0  0  0  0  0  0  0  0  0  0  0  0
  131.0040  119.1820   59.9460 F   0  0  0  0  0  0  0  0  0  0  0  0
  132.9760  119.6210   60.7480 F   0  0  0  0  0  0  0  0  0  0  0  0
  130.5680  122.2490   59.7740 C   0  0  0  0  0  0  0  0  0  0  0  0
  129.2030  122.1180   60.2200 C   0  0  0  0  0  0  0  0  0  0  0  0
  128.7570  121.0350   60.9330 N   0  0  0  0  0  0  0  0  0  0  0  0
  1  2  1  0
  2  3  1  0
  3  4  1  0
  4  5  1  0
  5  6  1  0
  6  7  1  0
  7  8  1  0
  8  9  1  0
  9 10  1  0
 10 11  1  0
 11 12  1  0
 12 13  2  0
 12 14  1  0
 14 15  1  0
 15 16  1  0
 16 17  2  0
 17 18  1  0
 18 19  1  0
 18 20  2  0
 20 21  1  0
 21 22  1  0
 22 23  1  0
 22 24  1  0
 22 25  1  0
 21 26  2  0
 26 27  1  0
 27 28  1  0
 27 14  2  0
 26 16  1  0
M  END
>  <Binding energies>  (54) 
[-5.32]

>  <Ligand effiencies>  (54) 
[-0.17161290322580647]

>  <Interactions>  (54) 
["V-B:TYR:539:C:9835, V-B:TYR:539:CD2:9842, V-A:LEU:475:CD2:4254, V-A:TRP:381:CZ2:3365, V-A:LEU:475:CD1:4253, V-B:PRO:540:C:9849, V-B:TYR:539:CE2:9844, V-B:PRO:540:N:9852, V-B:ALA:541:CB:9860, V-A:TRP:381:CH2:3367, H-B:TYR:539:O:9836, V-B:PRO:540:CA:9851, V-B:MET:535:CE:9803, V-B:PRO:540:CB:9853, H-B:ALA:541:N:9859, V-B:ALA:541:CA:9858, V-A:ASP:366:CB:3207, V-A:ASP:366:CG:3208, V-B:TYR:539:CA:9837, V-B:ASP:366:CG:8180, V-A:TRP:381:CZ3:3366, V-B:PRO:540:CD:9855, V-B:LEU:363:CD1:8156, V-B:TYR:539:CZ:9845, V-B:TYR:531:CE2:9761, V-B:ASP:366:CB:8179, V-B:LEU:363:CA:8152, V-B:TYR:539:CE1:9843, V-A:ILE:369:CD1:3234, V-A:ILE:369:CG2:3232, V-A:ILE:369:CB:3231, H-B:PRO:540:O:9850, V-A:ASP:366:CA:3205, V-A:ASP:366:C:3203, H-B:TYR:539:OH:9846, V-A:LEU:475:CG:4252, H-A:LYS:534:NZ:4818, V-B:TYR:539:CD1:9841, V-B:TYR:539:CG:9840, H-B:TYR:531:OH:9763, V-A:ILE:369:CG1:3233, V-B:ILE:538:CG2:9831"]

$$$$
4cd_Grossjean_2025
     RDKit          3D

 29 32  0  0  0  0  0  0  0  0999 V2000
  129.3760  126.6380   63.6610 N   0  0  0  0  0  0  0  0  0  0  0  0
  129.6710  126.1390   64.9050 C   0  0  0  0  0  0  0  0  0  0  0  0
  130.1660  124.8420   65.1150 C   0  0  0  0  0  0  0  0  0  0  0  0
  130.4390  123.7960   64.1250 C   0  0  0  0  0  0  0  0  0  0  0  0
  131.2400  122.8940   64.3690 O   0  0  0  0  0  0  0  0  0  0  0  0
  129.7500  123.9030   62.9620 N   0  0  0  0  0  0  0  0  0  0  0  0
  129.8170  123.1070   61.8040 C   0  0  0  0  0  0  0  0  0  0  0  0
  129.6350  123.7750   60.5900 C   0  0  0  0  0  0  0  0  0  0  0  0
  129.6970  123.0770   59.3880 C   0  0  0  0  0  0  0  0  0  0  0  0
  129.9470  121.7070   59.3980 C   0  0  0  0  0  0  0  0  0  0  0  0
  130.1430  121.0310   60.5990 C   0  0  0  0  0  0  0  0  0  0  0  0
  130.0820  121.7270   61.8040 C   0  0  0  0  0  0  0  0  0  0  0  0
  130.4440  124.5390   66.8290 S   0  0  0  0  0  0  0  0  0  0  0  0
  129.8900  126.1410   67.2490 C   0  0  0  0  0  0  0  0  0  0  0  0
  129.8550  126.5550   68.5140 N   0  0  0  0  0  0  0  0  0  0  0  0
  129.3960  127.8130   68.7440 C   0  0  0  0  0  0  0  0  0  0  0  0
  129.3650  128.2500   70.1790 C   0  0  0  0  0  0  0  0  0  0  0  0
  130.4910  128.8420   70.7740 C   0  0  0  0  0  0  0  0  0  0  0  0
  130.4690  129.2510   72.1050 C   0  0  0  0  0  0  0  0  0  0  0  0
  129.3160  129.0720   72.8630 C   0  0  0  0  0  0  0  0  0  0  0  0
  128.1860  128.4910   72.2970 C   0  0  0  0  0  0  0  0  0  0  0  0
  128.2120  128.0860   70.9660 C   0  0  0  0  0  0  0  0  0  0  0  0
  128.9940  128.6550   67.7030 C   0  0  0  0  0  0  0  0  0  0  0  0
  129.0310  128.2300   66.3640 C   0  0  0  0  0  0  0  0  0  0  0  0
  128.5720  129.2030   65.2720 C   0  0  0  0  0  0  0  0  0  0  0  0
  129.3520  129.1810   64.1890 F   0  0  0  0  0  0  0  0  0  0  0  0
  127.3360  128.8920   64.8810 F   0  0  0  0  0  0  0  0  0  0  0  0
  128.5830  130.4490   65.7460 F   0  0  0  0  0  0  0  0  0  0  0  0
  129.4990  126.9080   66.1130 C   0  0  0  0  0  0  0  0  0  0  0  0
  1  2  1  0
  2  3  2  0
  3  4  1  0
  4  5  2  0
  4  6  1  0
  6  7  1  0
  7  8  2  0
  8  9  1  0
  9 10  2  0
 10 11  1  0
 11 12  2  0
  3 13  1  0
 13 14  1  0
 14 15  2  0
 15 16  1  0
 16 17  1  0
 17 18  2  0
 18 19  1  0
 19 20  2  0
 20 21  1  0
 21 22  2  0
 16 23  2  0
 23 24  1  0
 24 25  1  0
 25 26  1  0
 25 27  1  0
 25 28  1  0
 24 29  2  0
 29  2  1  0
 12  7  1  0
 29 14  1  0
 22 17  1  0
M  END
>  <Binding energies>  (55) 
[-7.16]

>  <Ligand effiencies>  (55) 
[-0.22375]

>  <Interactions>  (55) 
["V-B:TYR:539:CD2:9842, V-B:TYR:539:CE2:9844, V-B:ALA:541:CB:9860, H-B:GLU:543:OE2:9878, V-B:GLU:543:CD:9876, V-A:GLU:543:CG:4902, H-A:GLU:543:OE2:4905, V-A:GLU:543:CD:4903, H-A:TYR:484:OH:4343, V-B:GLU:543:CG:9875, V-A:TYR:484:CE1:4340, V-A:GLU:543:CB:4901, V-B:TYR:484:CE1:9312, V-B:HIS:456:CE1:9037, V-B:TYR:484:CZ:9314, V-A:TYR:484:CZ:4342, V-A:HIS:456:CE1:4064, H-A:HIS:456:NE2:4065, V-B:GLU:543:CB:9874, V-A:LYS:547:CE:4945, V-B:HIS:456:CD2:9035, V-A:GLU:543:C:4897, V-A:GLY:544:C:4907, H-A:GLU:543:OE1:4904, V-A:GLY:544:CA:4909"]

$$$$
4cg_Grossjean_2025
     RDKit          3D

 30 33  0  0  0  0  0  0  0  0999 V2000
  129.3740  126.5310   63.6030 N   0  0  0  0  0  0  0  0  0  0  0  0
  129.6410  126.0410   64.8560 C   0  0  0  0  0  0  0  0  0  0  0  0
  130.0880  124.7330   65.0890 C   0  0  0  0  0  0  0  0  0  0  0  0
  130.3970  123.6870   64.1150 C   0  0  0  0  0  0  0  0  0  0  0  0
  131.2490  122.8260   64.3450 O   0  0  0  0  0  0  0  0  0  0  0  0
  129.7250  123.7500   62.9460 N   0  0  0  0  0  0  0  0  0  0  0  0
  129.8560  122.8010   61.8410 C   0  0  0  0  0  0  0  0  0  0  0  0
  128.8060  122.9900   60.7520 C   0  0  0  0  0  0  0  0  0  0  0  0
  129.1320  122.7190   59.4200 C   0  0  0  0  0  0  0  0  0  0  0  0
  128.1660  122.8600   58.4260 C   0  0  0  0  0  0  0  0  0  0  0  0
  126.8770  123.2620   58.7690 C   0  0  0  0  0  0  0  0  0  0  0  0
  126.5430  123.5170   60.0970 C   0  0  0  0  0  0  0  0  0  0  0  0
  127.5070  123.3750   61.0910 C   0  0  0  0  0  0  0  0  0  0  0  0
  130.3510  124.4400   66.8070 S   0  0  0  0  0  0  0  0  0  0  0  0
  129.8390  126.0640   67.2030 C   0  0  0  0  0  0  0  0  0  0  0  0
  129.8100  126.4950   68.4610 N   0  0  0  0  0  0  0  0  0  0  0  0
  129.4030  127.7740   68.6720 C   0  0  0  0  0  0  0  0  0  0  0  0
  129.3800  128.2300   70.1030 C   0  0  0  0  0  0  0  0  0  0  0  0
  130.5060  128.8370   70.6850 C   0  0  0  0  0  0  0  0  0  0  0  0
  130.4900  129.2600   72.0100 C   0  0  0  0  0  0  0  0  0  0  0  0
  129.3450  129.0800   72.7790 C   0  0  0  0  0  0  0  0  0  0  0  0
  128.2170  128.4790   72.2300 C   0  0  0  0  0  0  0  0  0  0  0  0
  128.2370  128.0570   70.9040 C   0  0  0  0  0  0  0  0  0  0  0  0
  129.0080  128.6070   67.6190 C   0  0  0  0  0  0  0  0  0  0  0  0
  129.0330  128.1620   66.2880 C   0  0  0  0  0  0  0  0  0  0  0  0
  128.5870  129.1260   65.1820 C   0  0  0  0  0  0  0  0  0  0  0  0
  129.3640  129.0750   64.0980 F   0  0  0  0  0  0  0  0  0  0  0  0
  127.3450  128.8270   64.7990 F   0  0  0  0  0  0  0  0  0  0  0  0
  128.6180  130.3780   65.6360 F   0  0  0  0  0  0  0  0  0  0  0  0
  129.4740  126.8270   66.0540 C   0  0  0  0  0  0  0  0  0  0  0  0
  1  2  1  0
  2  3  2  0
  3  4  1  0
  4  5  2  0
  4  6  1  0
  6  7  1  0
  7  8  1  0
  8  9  2  0
  9 10  1  0
 10 11  2  0
 11 12  1  0
 12 13  2  0
  3 14  1  0
 14 15  1  0
 15 16  2  0
 16 17  1  0
 17 18  1  0
 18 19  2  0
 19 20  1  0
 20 21  2  0
 21 22  1  0
 22 23  2  0
 17 24  2  0
 24 25  1  0
 25 26  1  0
 26 27  1  0
 26 28  1  0
 26 29  1  0
 25 30  2  0
 30  2  1  0
 13  8  1  0
 30 15  1  0
 23 18  1  0
M  END
>  <Binding energies>  (56) 
[-7.38]

>  <Ligand effiencies>  (56) 
[-0.22363636363636363]

>  <Interactions>  (56) 
["V-B:TYR:539:C:9835, V-B:PRO:540:N:9852, V-B:PRO:540:CA:9851, V-B:PRO:540:CB:9853, H-B:GLU:543:OE2:9878, V-B:GLU:543:CD:9876, V-A:GLU:543:CG:4902, H-A:GLU:543:OE2:4905, V-A:GLU:543:CD:4903, H-A:TYR:484:OH:4343, V-B:GLU:543:CG:9875, V-A:TYR:484:CE1:4340, V-A:GLU:543:CB:4901, V-B:HIS:456:CE1:9037, V-A:TYR:484:CZ:4342, V-A:HIS:456:CE1:4064, H-A:HIS:456:NE2:4065, V-B:GLU:543:CB:9874, V-A:LYS:547:CE:4945, V-B:HIS:456:CD2:9035, V-A:GLU:543:C:4897, V-A:GLY:544:C:4907, H-A:GLU:543:OE1:4904, V-A:GLY:544:CA:4909"]

$$$$
4ch_Grossjean_2025
     RDKit          3D

 36 39  0  0  0  0  0  0  0  0999 V2000
  127.8400  122.1120   56.1990 C   0  0  0  0  0  0  0  0  0  0  0  0
  128.4280  123.1360   56.9950 O   0  0  0  0  0  0  0  0  0  0  0  0
  128.1610  123.1780   58.3510 C   0  0  0  0  0  0  0  0  0  0  0  0
  129.1430  123.0550   59.3480 C   0  0  0  0  0  0  0  0  0  0  0  0
  128.8000  123.1090   60.7000 C   0  0  0  0  0  0  0  0  0  0  0  0
  129.8750  122.9460   61.7680 C   0  0  0  0  0  0  0  0  0  0  0  0
  129.7470  123.8700   62.8950 N   0  0  0  0  0  0  0  0  0  0  0  0
  130.4100  123.7740   64.0670 C   0  0  0  0  0  0  0  0  0  0  0  0
  131.2330  122.8840   64.2920 O   0  0  0  0  0  0  0  0  0  0  0  0
  130.1240  124.8170   65.0520 C   0  0  0  0  0  0  0  0  0  0  0  0
  130.4120  124.5170   66.7630 S   0  0  0  0  0  0  0  0  0  0  0  0
  129.8860  126.1300   67.1790 C   0  0  0  0  0  0  0  0  0  0  0  0
  129.8640  126.5500   68.4410 N   0  0  0  0  0  0  0  0  0  0  0  0
  129.4440  127.8230   68.6670 C   0  0  0  0  0  0  0  0  0  0  0  0
  129.4250  128.2630   70.1030 C   0  0  0  0  0  0  0  0  0  0  0  0
  130.5640  128.8320   70.6960 C   0  0  0  0  0  0  0  0  0  0  0  0
  130.5540  129.2420   72.0270 C   0  0  0  0  0  0  0  0  0  0  0  0
  129.4000  129.0870   72.7870 C   0  0  0  0  0  0  0  0  0  0  0  0
  128.2590  128.5230   72.2260 C   0  0  0  0  0  0  0  0  0  0  0  0
  128.2750  128.1130   70.8960 C   0  0  0  0  0  0  0  0  0  0  0  0
  129.0330  128.6600   67.6260 C   0  0  0  0  0  0  0  0  0  0  0  0
  129.0510  128.2280   66.2900 C   0  0  0  0  0  0  0  0  0  0  0  0
  128.5870  129.1980   65.1980 C   0  0  0  0  0  0  0  0  0  0  0  0
  129.3600  129.1700   64.1090 F   0  0  0  0  0  0  0  0  0  0  0  0
  127.3490  128.8880   64.8150 F   0  0  0  0  0  0  0  0  0  0  0  0
  128.6030  130.4460   65.6660 F   0  0  0  0  0  0  0  0  0  0  0  0
  129.5010  126.9000   66.0410 C   0  0  0  0  0  0  0  0  0  0  0  0
  129.6600  126.1240   64.8350 C   0  0  0  0  0  0  0  0  0  0  0  0
  129.3710  126.6200   63.5890 N   0  0  0  0  0  0  0  0  0  0  0  0
  127.4630  123.2700   61.0650 C   0  0  0  0  0  0  0  0  0  0  0  0
  126.4610  123.3940   60.0900 C   0  0  0  0  0  0  0  0  0  0  0  0
  125.1180  123.5570   60.3800 O   0  0  0  0  0  0  0  0  0  0  0  0
  124.6960  123.5990   61.7390 C   0  0  0  0  0  0  0  0  0  0  0  0
  126.8240  123.3530   58.7360 C   0  0  0  0  0  0  0  0  0  0  0  0
  125.8520  123.4580   57.7710 O   0  0  0  0  0  0  0  0  0  0  0  0
  125.2280  124.7340   57.7140 C   0  0  0  0  0  0  0  0  0  0  0  0
  1  2  1  0
  2  3  1  0
  3  4  2  0
  4  5  1  0
  5  6  1  0
  6  7  1  0
  7  8  1  0
  8  9  2  0
  8 10  1  0
 10 11  1  0
 11 12  1  0
 12 13  2  0
 13 14  1  0
 14 15  1  0
 15 16  2  0
 16 17  1  0
 17 18  2  0
 18 19  1  0
 19 20  2  0
 14 21  2  0
 21 22  1  0
 22 23  1  0
 23 24  1  0
 23 25  1  0
 23 26  1  0
 22 27  2  0
 27 28  1  0
 28 29  1  0
  5 30  2  0
 30 31  1  0
 31 32  1  0
 32 33  1  0
 31 34  2  0
 34 35  1  0
 35 36  1  0
 34  3  1  0
 28 10  2  0
 27 12  1  0
 20 15  1  0
M  END
>  <Binding energies>  (57) 
[-7.63]

>  <Ligand effiencies>  (57) 
[-0.19564102564102565]

>  <Interactions>  (57) 
["V-B:TYR:539:C:9835, V-B:TYR:539:CD2:9842, V-B:PRO:540:C:9849, V-B:TYR:539:CE2:9844, V-B:PRO:540:N:9852, V-B:PRO:540:CA:9851, V-B:MET:535:CE:9803, V-B:PRO:540:CB:9853, H-B:GLU:543:OE2:9878, V-B:GLU:543:CD:9876, V-A:GLU:543:CG:4902, H-A:GLU:543:OE2:4905, V-A:GLU:543:CD:4903, H-A:TYR:484:OH:4343, V-B:GLU:543:CG:9875, V-A:TYR:484:CE1:4340, V-B:TYR:539:CA:9837, V-B:TYR:539:CZ:9845, V-A:GLU:543:CB:4901, V-B:TYR:484:CE1:9312, V-B:HIS:456:CE1:9037, V-B:TYR:484:CZ:9314, V-A:TYR:484:CZ:4342, V-A:HIS:456:CE1:4064, H-A:HIS:456:NE2:4065, V-B:GLU:543:CB:9874, V-B:TYR:539:CE1:9843, V-A:LYS:547:CE:4945, V-B:HIS:456:CD2:9035, V-A:GLU:543:C:4897, V-A:GLY:544:C:4907, H-A:GLU:543:OE1:4904, V-B:ASN:362:CB:8143, V-B:TYR:539:CD1:9841, V-B:TYR:539:CG:9840, V-A:GLY:544:CA:4909"]

$$$$
4cj_Grossjean_2025
     RDKit          3D

 28 31  0  0  0  0  0  0  0  0999 V2000
  129.3690  126.5480   63.5930 N   0  0  0  0  0  0  0  0  0  0  0  0
  129.6300  126.0500   64.8440 C   0  0  0  0  0  0  0  0  0  0  0  0
  130.0930  124.7440   65.0710 C   0  0  0  0  0  0  0  0  0  0  0  0
  130.3890  123.6960   64.0910 C   0  0  0  0  0  0  0  0  0  0  0  0
  131.2800  122.8700   64.3000 O   0  0  0  0  0  0  0  0  0  0  0  0
  129.6310  123.7200   62.9670 N   0  0  0  0  0  0  0  0  0  0  0  0
  129.7080  122.8450   61.8910 C   0  0  0  0  0  0  0  0  0  0  0  0
  129.3270  123.0580   60.6490 N   0  0  0  0  0  0  0  0  0  0  0  0
  129.5520  122.0070   59.8870 C   0  0  0  0  0  0  0  0  0  0  0  0
  130.1300  120.9050   60.5120 C   0  0  0  0  0  0  0  0  0  0  0  0
  130.3900  121.2790   62.1900 S   0  0  0  0  0  0  0  0  0  0  0  0
  130.3340  124.4430   66.7910 S   0  0  0  0  0  0  0  0  0  0  0  0
  129.8120  126.0630   67.1920 C   0  0  0  0  0  0  0  0  0  0  0  0
  129.7730  126.4870   68.4520 N   0  0  0  0  0  0  0  0  0  0  0  0
  129.3620  127.7630   68.6670 C   0  0  0  0  0  0  0  0  0  0  0  0
  129.3430  128.2150   70.0990 C   0  0  0  0  0  0  0  0  0  0  0  0
  128.1990  128.0360   70.8930 C   0  0  0  0  0  0  0  0  0  0  0  0
  128.1720  128.4570   72.2200 C   0  0  0  0  0  0  0  0  0  0  0  0
  129.2930  129.0680   72.7730 C   0  0  0  0  0  0  0  0  0  0  0  0
  130.4380  129.2600   72.0080 C   0  0  0  0  0  0  0  0  0  0  0  0
  130.4600  128.8360   70.6820 C   0  0  0  0  0  0  0  0  0  0  0  0
  128.9680  128.5980   67.6160 C   0  0  0  0  0  0  0  0  0  0  0  0
  129.0020  128.1600   66.2830 C   0  0  0  0  0  0  0  0  0  0  0  0
  128.5600  129.1290   65.1800 C   0  0  0  0  0  0  0  0  0  0  0  0
  129.3490  129.0950   64.1040 F   0  0  0  0  0  0  0  0  0  0  0  0
  127.3260  128.8210   64.7800 F   0  0  0  0  0  0  0  0  0  0  0  0
  128.5720  130.3780   65.6440 F   0  0  0  0  0  0  0  0  0  0  0  0
  129.4510  126.8290   66.0450 C   0  0  0  0  0  0  0  0  0  0  0  0
  1  2  1  0
  2  3  2  0
  3  4  1  0
  4  5  2  0
  4  6  1  0
  6  7  1  0
  7  8  2  0
  8  9  1  0
  9 10  2  0
 10 11  1  0
  3 12  1  0
 12 13  1  0
 13 14  2  0
 14 15  1  0
 15 16  1  0
 16 17  2  0
 17 18  1  0
 18 19  2  0
 19 20  1  0
 20 21  2  0
 15 22  2  0
 22 23  1  0
 23 24  1  0
 24 25  1  0
 24 26  1  0
 24 27  1  0
 23 28  2  0
 28  2  1  0
 11  7  1  0
 28 13  1  0
 21 16  1  0
M  END
>  <Binding energies>  (58) 
[-6.85]

>  <Ligand effiencies>  (58) 
[-0.22096774193548385]

>  <Interactions>  (58) 
["V-B:TYR:539:CD2:9842, V-A:LEU:475:CD2:4254, V-B:ALA:541:CB:9860, H-B:GLU:543:OE2:9878, V-B:GLU:543:CD:9876, V-A:GLU:543:CG:4902, H-A:GLU:543:OE2:4905, V-A:GLU:543:CD:4903, H-A:TYR:484:OH:4343, V-B:GLU:543:CG:9875, V-A:TYR:484:CE1:4340, V-A:GLU:543:CB:4901, V-B:HIS:456:CE1:9037, V-A:TYR:484:CZ:4342, V-A:HIS:456:CE1:4064, H-A:HIS:456:NE2:4065, V-B:GLU:543:CB:9874, V-A:LYS:547:CE:4945, V-B:HIS:456:CD2:9035, V-A:GLU:543:C:4897, V-A:GLY:544:C:4907, H-A:GLU:543:OE1:4904, V-A:GLY:544:CA:4909"]

$$$$
4ck_Grossjean_2025
     RDKit          3D

 33 35  0  0  0  0  0  0  0  0999 V2000
  124.8270  128.9880   75.0840 C   0  0  0  0  0  0  0  0  0  0  0  0
  126.1490  128.8720   74.5810 O   0  0  0  0  0  0  0  0  0  0  0  0
  126.7330  130.1210   74.2360 C   0  0  0  0  0  0  0  0  0  0  0  0
  128.1420  129.8780   73.6820 C   0  0  0  0  0  0  0  0  0  0  0  0
  128.6910  128.7220   74.3000 O   0  0  0  0  0  0  0  0  0  0  0  0
  129.4160  127.8900   73.4040 C   0  0  0  0  0  0  0  0  0  0  0  0
  129.9430  128.7410   72.2420 C   0  0  0  0  0  0  0  0  0  0  0  0
  130.2210  127.8880   71.1400 O   0  0  0  0  0  0  0  0  0  0  0  0
  130.9210  128.5280   70.0800 C   0  0  0  0  0  0  0  0  0  0  0  0
  129.9360  128.8920   68.9590 C   0  0  0  0  0  0  0  0  0  0  0  0
  130.0910  128.0270   67.7890 N   0  0  0  0  0  0  0  0  0  0  0  0
  129.6530  126.7550   67.6830 C   0  0  0  0  0  0  0  0  0  0  0  0
  129.0340  126.1880   68.5850 O   0  0  0  0  0  0  0  0  0  0  0  0
  129.9470  126.0810   66.4180 C   0  0  0  0  0  0  0  0  0  0  0  0
  130.4500  124.3920   66.4130 S   0  0  0  0  0  0  0  0  0  0  0  0
  130.5220  124.3750   64.6670 C   0  0  0  0  0  0  0  0  0  0  0  0
  130.8730  123.2800   63.9970 N   0  0  0  0  0  0  0  0  0  0  0  0
  130.9020  123.3630   62.6410 C   0  0  0  0  0  0  0  0  0  0  0  0
  131.2840  122.1050   61.9140 C   0  0  0  0  0  0  0  0  0  0  0  0
  132.5730  121.9460   61.3800 C   0  0  0  0  0  0  0  0  0  0  0  0
  132.9320  120.7830   60.7030 C   0  0  0  0  0  0  0  0  0  0  0  0
  132.0040  119.7590   60.5500 C   0  0  0  0  0  0  0  0  0  0  0  0
  130.7220  119.8880   61.0730 C   0  0  0  0  0  0  0  0  0  0  0  0
  130.3670  121.0520   61.7510 C   0  0  0  0  0  0  0  0  0  0  0  0
  130.5700  124.5410   61.9650 C   0  0  0  0  0  0  0  0  0  0  0  0
  130.2000  125.7020   62.6620 C   0  0  0  0  0  0  0  0  0  0  0  0
  129.8520  126.9610   61.8580 C   0  0  0  0  0  0  0  0  0  0  0  0
  129.8860  126.7660   60.5390 F   0  0  0  0  0  0  0  0  0  0  0  0
  128.6230  127.3700   62.1700 F   0  0  0  0  0  0  0  0  0  0  0  0
  130.7230  127.9300   62.1410 F   0  0  0  0  0  0  0  0  0  0  0  0
  130.1680  125.6280   64.0840 C   0  0  0  0  0  0  0  0  0  0  0  0
  129.8360  126.5840   65.1130 C   0  0  0  0  0  0  0  0  0  0  0  0
  129.4510  127.8700   64.8350 N   0  0  0  0  0  0  0  0  0  0  0  0
  1  2  1  0
  2  3  1  0
  3  4  1  0
  4  5  1  0
  5  6  1  0
  6  7  1  0
  7  8  1  0
  8  9  1  0
  9 10  1  0
 10 11  1  0
 11 12  1  0
 12 13  2  0
 12 14  1  0
 14 15  1  0
 15 16  1  0
 16 17  2  0
 17 18  1  0
 18 19  1  0
 19 20  2  0
 20 21  1  0
 21 22  2  0
 22 23  1  0
 23 24  2  0
 18 25  2  0
 25 26  1  0
 26 27  1  0
 27 28  1  0
 27 29  1  0
 27 30  1  0
 26 31  2  0
 31 32  1  0
 32 33  1  0
 32 14  2  0
 31 16  1  0
 24 19  1  0
M  END
>  <Binding energies>  (59) 
[-6.07]

>  <Ligand effiencies>  (59) 
[-0.16861111111111113]

>  <Interactions>  (59) 
["V-B:TYR:539:CD2:9842, V-A:LEU:475:CD2:4254, V-A:TRP:381:CZ2:3365, V-B:ALA:541:CB:9860, V-A:TRP:381:CH2:3367, H-B:GLU:543:OE2:9878, V-B:GLU:543:CD:9876, V-A:GLU:543:CG:4902, H-A:GLU:543:OE2:4905, V-A:GLU:543:CD:4903, H-A:TYR:484:OH:4343, V-B:GLU:543:CG:9875, V-A:TYR:484:CE1:4340, V-A:GLU:543:CB:4901, V-A:TYR:484:CZ:4342, V-A:HIS:456:CE1:4064, V-A:LYS:547:CE:4945, H-B:LYS:547:NZ:9919, H-A:LYS:547:NZ:4946, V-B:LYS:547:CE:9918, V-B:HIS:456:CD2:9035, V-B:HIS:456:CB:9032, V-A:GLU:543:C:4897, V-B:LYS:547:CD:9917, V-A:ILE:369:CD1:3234, V-A:GLY:544:C:4907, V-A:ILE:369:CG2:3232, H-A:GLU:543:OE1:4904, V-B:HIS:456:CG:9033, V-B:LYS:547:CG:9916, V-B:HIS:456:C:9028"]

$$$$
4dd_Grossjean_2025
     RDKit          3D

 26 29  0  0  0  0  0  0  0  0999 V2000
  128.7890  129.1070   65.4010 C   0  0  0  0  0  0  0  0  0  0  0  0
  129.1350  128.1390   66.5220 C   0  0  0  0  0  0  0  0  0  0  0  0
  129.0850  128.6100   67.8400 C   0  0  0  0  0  0  0  0  0  0  0  0
  129.3920  127.7690   68.9170 C   0  0  0  0  0  0  0  0  0  0  0  0
  129.3520  128.2470   70.3380 C   0  0  0  0  0  0  0  0  0  0  0  0
  128.1870  128.1150   71.1100 C   0  0  0  0  0  0  0  0  0  0  0  0
  128.1440  128.5540   72.4300 C   0  0  0  0  0  0  0  0  0  0  0  0
  129.2700  129.1370   73.0000 C   0  0  0  0  0  0  0  0  0  0  0  0
  130.4390  129.2800   72.2600 C   0  0  0  0  0  0  0  0  0  0  0  0
  130.4780  128.8370   70.9400 C   0  0  0  0  0  0  0  0  0  0  0  0
  129.7610  126.4720   68.7330 N   0  0  0  0  0  0  0  0  0  0  0  0
  129.8030  126.0210   67.4800 C   0  0  0  0  0  0  0  0  0  0  0  0
  130.2430  124.3710   67.1020 S   0  0  0  0  0  0  0  0  0  0  0  0
  130.0370  124.6620   65.3730 C   0  0  0  0  0  0  0  0  0  0  0  0
  130.2560  123.5830   64.4080 C   0  0  0  0  0  0  0  0  0  0  0  0
  130.8640  122.5620   64.7350 O   0  0  0  0  0  0  0  0  0  0  0  0
  129.7430  123.7960   63.1720 N   0  0  0  0  0  0  0  0  0  0  0  0
  129.8230  122.9960   62.0180 C   0  0  0  0  0  0  0  0  0  0  0  0
  130.9350  122.1530   61.9340 C   0  0  0  0  0  0  0  0  0  0  0  0
  131.0980  121.3120   60.8370 C   0  0  0  0  0  0  0  0  0  0  0  0
  130.1420  121.3060   59.8250 C   0  0  0  0  0  0  0  0  0  0  0  0
  129.0240  122.1310   59.9010 C   0  0  0  0  0  0  0  0  0  0  0  0
  128.8580  122.9750   60.9960 C   0  0  0  0  0  0  0  0  0  0  0  0
  129.6490  125.9890   65.1270 C   0  0  0  0  0  0  0  0  0  0  0  0
  129.4210  126.4980   63.8730 N   0  0  0  0  0  0  0  0  0  0  0  0
  129.5060  126.7850   66.3170 C   0  0  0  0  0  0  0  0  0  0  0  0
  1  2  1  0
  2  3  2  0
  3  4  1  0
  4  5  1  0
  5  6  2  0
  6  7  1  0
  7  8  2  0
  8  9  1  0
  9 10  2  0
  4 11  2  0
 11 12  1  0
 12 13  1  0
 13 14  1  0
 14 15  1  0
 15 16  2  0
 15 17  1  0
 17 18  1  0
 18 19  2  0
 19 20  1  0
 20 21  2  0
 21 22  1  0
 22 23  2  0
 14 24  2  0
 24 25  1  0
 24 26  1  0
 26  2  1  0
 10  5  1  0
 26 12  2  0
 23 18  1  0
M  END
>  <Binding energies>  (60) 
[-7.65]

>  <Ligand effiencies>  (60) 
[-0.2637931034482759]

>  <Interactions>  (60) 
["V-B:TYR:539:C:9835, V-B:TYR:539:CD2:9842, V-A:LEU:475:CD2:4254, V-B:TYR:539:CE2:9844, V-B:PRO:540:CA:9851, H-B:GLU:543:OE2:9878, V-B:GLU:543:CD:9876, V-A:GLU:543:CG:4902, H-A:GLU:543:OE2:4905, V-A:GLU:543:CD:4903, H-A:TYR:484:OH:4343, V-B:GLU:543:CG:9875, V-A:TYR:484:CE1:4340, V-A:GLU:543:CB:4901, V-B:HIS:456:CE1:9037, V-A:TYR:484:CZ:4342, V-A:HIS:456:CE1:4064, H-A:HIS:456:NE2:4065, V-B:GLU:543:CB:9874, V-A:LYS:547:CE:4945, V-B:HIS:456:CD2:9035, V-A:GLU:543:C:4897, V-A:GLY:544:C:4907, H-A:GLU:543:OE1:4904, V-A:GLY:544:CA:4909"]

$$$$
4dg_Grossjean_2025
     RDKit          3D

 27 30  0  0  0  0  0  0  0  0999 V2000
  128.9370  128.9780   65.0430 C   0  0  0  0  0  0  0  0  0  0  0  0
  129.2490  128.0150   66.1800 C   0  0  0  0  0  0  0  0  0  0  0  0
  129.1910  128.5020   67.4910 C   0  0  0  0  0  0  0  0  0  0  0  0
  129.4670  127.6670   68.5810 C   0  0  0  0  0  0  0  0  0  0  0  0
  129.4110  128.1600   70.0000 C   0  0  0  0  0  0  0  0  0  0  0  0
  130.5190  128.7930   70.5870 C   0  0  0  0  0  0  0  0  0  0  0  0
  130.4740  129.2480   71.9020 C   0  0  0  0  0  0  0  0  0  0  0  0
  129.3170  129.0770   72.6530 C   0  0  0  0  0  0  0  0  0  0  0  0
  128.2050  128.4500   72.0980 C   0  0  0  0  0  0  0  0  0  0  0  0
  128.2550  127.9960   70.7830 C   0  0  0  0  0  0  0  0  0  0  0  0
  129.7820  126.3540   68.4180 N   0  0  0  0  0  0  0  0  0  0  0  0
  129.8390  125.8890   67.1700 C   0  0  0  0  0  0  0  0  0  0  0  0
  130.2390  124.2240   66.8190 S   0  0  0  0  0  0  0  0  0  0  0  0
  130.0790  124.5060   65.0860 C   0  0  0  0  0  0  0  0  0  0  0  0
  130.3480  123.4250   64.1380 C   0  0  0  0  0  0  0  0  0  0  0  0
  131.1980  122.5640   64.3700 O   0  0  0  0  0  0  0  0  0  0  0  0
  129.6380  123.4580   62.9910 N   0  0  0  0  0  0  0  0  0  0  0  0
  129.7240  122.4720   61.9140 C   0  0  0  0  0  0  0  0  0  0  0  0
  128.7770  122.7580   60.7540 C   0  0  0  0  0  0  0  0  0  0  0  0
  127.5030  123.2750   61.0090 C   0  0  0  0  0  0  0  0  0  0  0  0
  126.6470  123.5670   59.9500 C   0  0  0  0  0  0  0  0  0  0  0  0
  127.0720  123.3530   58.6410 C   0  0  0  0  0  0  0  0  0  0  0  0
  128.3460  122.8550   58.3790 C   0  0  0  0  0  0  0  0  0  0  0  0
  129.2030  122.5630   59.4370 C   0  0  0  0  0  0  0  0  0  0  0  0
  129.7460  125.8410   64.8140 C   0  0  0  0  0  0  0  0  0  0  0  0
  129.5730  126.3430   63.5500 N   0  0  0  0  0  0  0  0  0  0  0  0
  129.5910  126.6510   65.9930 C   0  0  0  0  0  0  0  0  0  0  0  0
  1  2  1  0
  2  3  2  0
  3  4  1  0
  4  5  1  0
  5  6  2  0
  6  7  1  0
  7  8  2  0
  8  9  1  0
  9 10  2  0
  4 11  2  0
 11 12  1  0
 12 13  1  0
 13 14  1  0
 14 15  1  0
 15 16  2  0
 15 17  1  0
 17 18  1  0
 18 19  1  0
 19 20  2  0
 20 21  1  0
 21 22  2  0
 22 23  1  0
 23 24  2  0
 14 25  2  0
 25 26  1  0
 25 27  1  0
 27  2  1  0
 10  5  1  0
 27 12  2  0
 24 19  1  0
M  END
>  <Binding energies>  (61) 
[-7.74]

>  <Ligand effiencies>  (61) 
[-0.258]

>  <Interactions>  (61) 
["V-B:TYR:539:C:9835, V-B:PRO:540:N:9852, V-B:ALA:541:CB:9860, V-B:PRO:540:CA:9851, V-B:PRO:540:CB:9853, H-B:GLU:543:OE2:9878, V-B:GLU:543:CD:9876, V-A:GLU:543:CG:4902, H-A:GLU:543:OE2:4905, V-A:GLU:543:CD:4903, H-A:TYR:484:OH:4343, V-B:GLU:543:CG:9875, V-A:TYR:484:CE1:4340, V-A:GLU:543:CB:4901, V-B:HIS:456:CE1:9037, V-A:TYR:484:CZ:4342, V-A:HIS:456:CE1:4064, H-A:HIS:456:NE2:4065, V-B:GLU:543:CB:9874, V-A:LYS:547:CE:4945, V-B:HIS:456:CD2:9035, V-A:GLU:543:C:4897, V-A:GLY:544:C:4907, H-A:GLU:543:OE1:4904, V-A:GLY:544:CA:4909"]

$$$$
4dj_Grossjean_2025
     RDKit          3D

 25 28  0  0  0  0  0  0  0  0999 V2000
  128.6430  129.0530   65.1750 C   0  0  0  0  0  0  0  0  0  0  0  0
  129.0550  128.1030   66.2890 C   0  0  0  0  0  0  0  0  0  0  0  0
  129.0010  128.5700   67.6070 C   0  0  0  0  0  0  0  0  0  0  0  0
  129.3680  127.7460   68.6780 C   0  0  0  0  0  0  0  0  0  0  0  0
  129.3150  128.2180   70.1040 C   0  0  0  0  0  0  0  0  0  0  0  0
  130.4300  128.8280   70.7020 C   0  0  0  0  0  0  0  0  0  0  0  0
  130.3880  129.2680   72.0230 C   0  0  0  0  0  0  0  0  0  0  0  0
  129.2260  129.0990   72.7690 C   0  0  0  0  0  0  0  0  0  0  0  0
  128.1080  128.4950   72.2030 C   0  0  0  0  0  0  0  0  0  0  0  0
  128.1540  128.0580   70.8830 C   0  0  0  0  0  0  0  0  0  0  0  0
  129.7730  126.4610   68.4900 N   0  0  0  0  0  0  0  0  0  0  0  0
  129.8250  126.0150   67.2350 C   0  0  0  0  0  0  0  0  0  0  0  0
  130.3360  124.3870   66.8490 S   0  0  0  0  0  0  0  0  0  0  0  0
  130.1060  124.6740   65.1230 C   0  0  0  0  0  0  0  0  0  0  0  0
  130.3920  123.6160   64.1530 C   0  0  0  0  0  0  0  0  0  0  0  0
  131.2720  122.7800   64.3730 O   0  0  0  0  0  0  0  0  0  0  0  0
  129.6390  123.6390   63.0250 N   0  0  0  0  0  0  0  0  0  0  0  0
  129.7110  122.7580   61.9560 C   0  0  0  0  0  0  0  0  0  0  0  0
  129.2770  122.9420   60.7270 N   0  0  0  0  0  0  0  0  0  0  0  0
  129.5130  121.8900   59.9670 C   0  0  0  0  0  0  0  0  0  0  0  0
  130.1550  120.8190   60.5800 C   0  0  0  0  0  0  0  0  0  0  0  0
  130.4620  121.2210   62.2440 S   0  0  0  0  0  0  0  0  0  0  0  0
  129.6570  125.9820   64.8840 C   0  0  0  0  0  0  0  0  0  0  0  0
  129.3980  126.4830   63.6320 N   0  0  0  0  0  0  0  0  0  0  0  0
  129.4860  126.7680   66.0750 C   0  0  0  0  0  0  0  0  0  0  0  0
  1  2  1  0
  2  3  2  0
  3  4  1  0
  4  5  1  0
  5  6  2  0
  6  7  1  0
  7  8  2  0
  8  9  1  0
  9 10  2  0
  4 11  2  0
 11 12  1  0
 12 13  1  0
 13 14  1  0
 14 15  1  0
 15 16  2  0
 15 17  1  0
 17 18  1  0
 18 19  2  0
 19 20  1  0
 20 21  2  0
 21 22  1  0
 14 23  2  0
 23 24  1  0
 23 25  1  0
 25  2  1  0
 10  5  1  0
 25 12  2  0
 22 18  1  0
M  END
>  <Binding energies>  (62) 
[-7.23]

>  <Ligand effiencies>  (62) 
[-0.25821428571428573]

>  <Interactions>  (62) 
["V-B:TYR:539:CD2:9842, V-A:LEU:475:CD2:4254, V-B:ALA:541:CB:9860, H-B:GLU:543:OE2:9878, V-B:GLU:543:CD:9876, V-A:GLU:543:CG:4902, H-A:GLU:543:OE2:4905, V-A:GLU:543:CD:4903, H-A:TYR:484:OH:4343, V-B:GLU:543:CG:9875, V-A:TYR:484:CE1:4340, V-A:GLU:543:CB:4901, V-B:HIS:456:CE1:9037, V-A:TYR:484:CZ:4342, V-A:HIS:456:CE1:4064, H-A:HIS:456:NE2:4065, V-B:GLU:543:CB:9874, V-A:LYS:547:CE:4945, V-B:HIS:456:CD2:9035, V-A:GLU:543:C:4897, V-A:GLY:544:C:4907, H-A:GLU:543:OE1:4904, V-A:GLY:544:CA:4909"]

$$$$
4ea_Grossjean_2025
     RDKit          3D

 31 34  0  0  0  0  0  0  0  0999 V2000
  123.6430  123.7090   58.4720 C   0  0  0  0  0  0  0  0  0  0  0  0
  124.1260  124.8330   57.5520 C   0  0  0  0  0  0  0  0  0  0  0  0
  124.9130  124.2820   56.5040 O   0  0  0  0  0  0  0  0  0  0  0  0
  125.7260  123.2170   56.7240 C   0  0  0  0  0  0  0  0  0  0  0  0
  125.5690  122.1190   56.1810 O   0  0  0  0  0  0  0  0  0  0  0  0
  126.8360  123.5080   57.6920 C   0  0  0  0  0  0  0  0  0  0  0  0
  126.6340  123.2640   59.0560 C   0  0  0  0  0  0  0  0  0  0  0  0
  127.6430  123.5230   59.9800 C   0  0  0  0  0  0  0  0  0  0  0  0
  128.8730  124.0310   59.5600 C   0  0  0  0  0  0  0  0  0  0  0  0
  129.8170  124.2540   60.5810 N   0  0  0  0  0  0  0  0  0  0  0  0
  131.1620  124.4090   60.5150 C   0  0  0  0  0  0  0  0  0  0  0  0
  131.8140  124.3740   59.4700 O   0  0  0  0  0  0  0  0  0  0  0  0
  131.8290  124.6270   61.8010 C   0  0  0  0  0  0  0  0  0  0  0  0
  133.5600  124.3260   61.9720 S   0  0  0  0  0  0  0  0  0  0  0  0
  133.5250  124.7950   63.6560 C   0  0  0  0  0  0  0  0  0  0  0  0
  134.6220  124.7830   64.4150 N   0  0  0  0  0  0  0  0  0  0  0  0
  134.4600  125.1690   65.7040 C   0  0  0  0  0  0  0  0  0  0  0  0
  135.7200  125.1470   66.5490 C   0  0  0  0  0  0  0  0  0  0  0  0
  133.2390  125.5630   66.2470 C   0  0  0  0  0  0  0  0  0  0  0  0
  132.0910  125.5740   65.4480 C   0  0  0  0  0  0  0  0  0  0  0  0
  130.8010  125.9960   66.0390 C   0  0  0  0  0  0  0  0  0  0  0  0
  130.0420  127.0000   65.4300 C   0  0  0  0  0  0  0  0  0  0  0  0
  128.8280  127.3950   65.9840 C   0  0  0  0  0  0  0  0  0  0  0  0
  128.3730  126.7880   67.1520 C   0  0  0  0  0  0  0  0  0  0  0  0
  129.1220  125.7900   67.7700 C   0  0  0  0  0  0  0  0  0  0  0  0
  130.3360  125.3960   67.2140 C   0  0  0  0  0  0  0  0  0  0  0  0
  132.2190  125.1760   64.0890 C   0  0  0  0  0  0  0  0  0  0  0  0
  131.2700  125.0710   63.0100 C   0  0  0  0  0  0  0  0  0  0  0  0
  129.9440  125.3810   63.1690 N   0  0  0  0  0  0  0  0  0  0  0  0
  129.0840  124.2790   58.1950 C   0  0  0  0  0  0  0  0  0  0  0  0
  128.0740  124.0190   57.2730 C   0  0  0  0  0  0  0  0  0  0  0  0
  1  2  1  0
  2  3  1  0
  3  4  1  0
  4  5  2  0
  4  6  1  0
  6  7  2  0
  7  8  1  0
  8  9  2  0
  9 10  1  0
 10 11  1  0
 11 12  2  0
 11 13  1  0
 13 14  1  0
 14 15  1  0
 15 16  2  0
 16 17  1  0
 17 18  1  0
 17 19  2  0
 19 20  1  0
 20 21  1  0
 21 22  2  0
 22 23  1  0
 23 24  2  0
 24 25  1  0
 25 26  2  0
 20 27  2  0
 27 28  1  0
 28 29  1  0
  9 30  1  0
 30 31  2  0
 31  6  1  0
 28 13  2  0
 27 15  1  0
 26 21  1  0
M  END
>  <Binding energies>  (63) 
[-8.69]

>  <Ligand effiencies>  (63) 
[-0.2555882352941176]

>  <Interactions>  (63) 
["V-B:PRO:540:N:9852, V-B:PRO:540:CA:9851, V-B:MET:535:CE:9803, V-B:PRO:540:CB:9853, H-B:GLU:543:OE2:9878, V-B:GLU:543:CD:9876, V-A:ASP:366:CG:3208, V-A:GLU:543:CD:4903, H-A:TYR:484:OH:4343, V-B:GLU:543:CG:9875, H-B:TYR:539:N:9838, V-B:LEU:363:CB:8154, V-B:ASP:366:CG:8180, V-B:LEU:363:CD1:8156, V-B:TYR:531:CZ:9762, V-B:TYR:531:CE2:9761, V-B:ASP:366:CB:8179, V-B:LEU:363:CA:8152, V-B:GLU:543:CA:9872, V-A:HIS:456:CE1:4064, V-B:GLU:543:CB:9874, V-B:GLU:543:C:9870, V-A:ILE:369:CD1:3234, V-B:LEU:363:CG:8155, V-A:ARG:545:CZ:4921, V-A:GLY:453:CA:4039, H-A:GLY:454:N:4045, V-A:ARG:545:CD:4918, V-A:ARG:545:CG:4917, H-A:ARG:545:NH1:4922, H-B:TYR:531:OH:9763, V-A:ARG:545:CB:4916, V-A:GLY:453:C:4037, V-A:ILE:455:C:4047, V-A:HIS:456:CD2:4063"]

$$$$
4eb_Grossjean_2025
     RDKit          3D

 30 33  0  0  0  0  0  0  0  0999 V2000
  123.8270  124.7120   57.5620 C   0  0  0  0  0  0  0  0  0  0  0  0
  124.7010  124.1590   56.5890 O   0  0  0  0  0  0  0  0  0  0  0  0
  125.4420  123.0530   56.8640 C   0  0  0  0  0  0  0  0  0  0  0  0
  125.2070  121.9410   56.3830 O   0  0  0  0  0  0  0  0  0  0  0  0
  126.5760  123.3200   57.8120 C   0  0  0  0  0  0  0  0  0  0  0  0
  126.2910  123.6130   59.1520 C   0  0  0  0  0  0  0  0  0  0  0  0
  127.3200  123.8650   60.0550 C   0  0  0  0  0  0  0  0  0  0  0  0
  128.6510  123.8290   59.6400 C   0  0  0  0  0  0  0  0  0  0  0  0
  129.6070  124.0990   60.6390 N   0  0  0  0  0  0  0  0  0  0  0  0
  130.9070  124.4680   60.5340 C   0  0  0  0  0  0  0  0  0  0  0  0
  131.4960  124.6350   59.4660 O   0  0  0  0  0  0  0  0  0  0  0  0
  131.6060  124.6650   61.8060 C   0  0  0  0  0  0  0  0  0  0  0  0
  133.3430  124.3780   61.9240 S   0  0  0  0  0  0  0  0  0  0  0  0
  133.3490  124.8100   63.6190 C   0  0  0  0  0  0  0  0  0  0  0  0
  134.4660  124.7920   64.3480 N   0  0  0  0  0  0  0  0  0  0  0  0
  134.3350  125.1490   65.6480 C   0  0  0  0  0  0  0  0  0  0  0  0
  135.6190  125.1210   66.4580 C   0  0  0  0  0  0  0  0  0  0  0  0
  133.1260  125.5180   66.2330 C   0  0  0  0  0  0  0  0  0  0  0  0
  131.9560  125.5360   65.4650 C   0  0  0  0  0  0  0  0  0  0  0  0
  130.6780  125.9310   66.1000 C   0  0  0  0  0  0  0  0  0  0  0  0
  129.9150  126.9680   65.5550 C   0  0  0  0  0  0  0  0  0  0  0  0
  128.7120  127.3400   66.1510 C   0  0  0  0  0  0  0  0  0  0  0  0
  128.2740  126.6750   67.2950 C   0  0  0  0  0  0  0  0  0  0  0  0
  129.0300  125.6420   67.8460 C   0  0  0  0  0  0  0  0  0  0  0  0
  130.2320  125.2720   67.2490 C   0  0  0  0  0  0  0  0  0  0  0  0
  132.0520  125.1680   64.0950 C   0  0  0  0  0  0  0  0  0  0  0  0
  131.0770  125.0770   63.0400 C   0  0  0  0  0  0  0  0  0  0  0  0
  129.7510  125.3700   63.2400 N   0  0  0  0  0  0  0  0  0  0  0  0
  128.9460  123.5360   58.3000 C   0  0  0  0  0  0  0  0  0  0  0  0
  127.9160  123.2850   57.3980 C   0  0  0  0  0  0  0  0  0  0  0  0
  1  2  1  0
  2  3  1  0
  3  4  2  0
  3  5  1  0
  5  6  2  0
  6  7  1  0
  7  8  2  0
  8  9  1  0
  9 10  1  0
 10 11  2  0
 10 12  1  0
 12 13  1  0
 13 14  1  0
 14 15  2  0
 15 16  1  0
 16 17  1  0
 16 18  2  0
 18 19  1  0
 19 20  1  0
 20 21  2  0
 21 22  1  0
 22 23  2  0
 23 24  1  0
 24 25  2  0
 19 26  2  0
 26 27  1  0
 27 28  1  0
  8 29  1  0
 29 30  2  0
 30  5  1  0
 27 12  2  0
 26 14  1  0
 25 20  1  0
M  END
>  <Binding energies>  (64) 
[-8.8]

>  <Ligand effiencies>  (64) 
[-0.26666666666666666]

>  <Interactions>  (64) 
["V-B:TYR:539:C:9835, V-B:PRO:540:N:9852, V-B:PRO:540:CA:9851, V-B:MET:535:CE:9803, V-B:PRO:540:CB:9853, H-B:GLU:543:OE2:9878, V-B:GLU:543:CD:9876, V-A:ASP:366:CG:3208, V-A:GLU:543:CD:4903, H-A:TYR:484:OH:4343, V-B:GLU:543:CG:9875, H-B:TYR:539:N:9838, V-B:ASP:366:CG:8180, V-B:PRO:540:CD:9855, V-B:LEU:363:CD1:8156, V-B:TYR:531:CZ:9762, V-B:TYR:531:CE2:9761, V-B:ASP:366:CB:8179, V-B:LEU:363:CA:8152, V-B:GLU:543:CA:9872, V-A:HIS:456:CE1:4064, V-B:GLU:543:CB:9874, V-B:GLU:543:C:9870, V-A:ARG:545:CZ:4921, V-A:GLY:453:CA:4039, H-A:GLY:454:N:4045, V-A:GLY:454:CA:4044, V-A:ARG:545:CD:4918, V-A:ARG:545:CG:4917, H-A:ARG:545:NH1:4922, H-B:TYR:531:OH:9763, V-A:GLY:453:C:4037, V-A:ILE:455:C:4047, V-A:HIS:456:CD2:4063"]

$$$$
8b_Ghoteimi_2023
     RDKit          3D

 34 38  0  0  0  0  0  0  0  0999 V2000
  128.0920  130.5180   74.6450 C   0  0  0  0  0  0  0  0  0  0  0  0
  128.9540  129.4400   74.2940 O   0  0  0  0  0  0  0  0  0  0  0  0
  129.0640  129.0700   72.9670 C   0  0  0  0  0  0  0  0  0  0  0  0
  127.9330  128.5040   72.3820 C   0  0  0  0  0  0  0  0  0  0  0  0
  127.9510  128.1010   71.0510 C   0  0  0  0  0  0  0  0  0  0  0  0
  129.1050  128.2530   70.2680 C   0  0  0  0  0  0  0  0  0  0  0  0
  129.1310  127.8190   68.8370 C   0  0  0  0  0  0  0  0  0  0  0  0
  128.5570  128.5920   67.8220 C   0  0  0  0  0  0  0  0  0  0  0  0
  128.5950  128.1640   66.4920 C   0  0  0  0  0  0  0  0  0  0  0  0
  127.9690  129.0010   65.4420 C   0  0  0  0  0  0  0  0  0  0  0  0
  126.7350  128.6400   64.8980 C   0  0  0  0  0  0  0  0  0  0  0  0
  126.1430  129.4340   63.9190 C   0  0  0  0  0  0  0  0  0  0  0  0
  126.7740  130.5940   63.4690 C   0  0  0  0  0  0  0  0  0  0  0  0
  126.1130  131.3200   62.4960 O   0  0  0  0  0  0  0  0  0  0  0  0
  124.8470  130.8640   62.0310 C   0  0  0  0  0  0  0  0  0  0  0  0
  128.0170  130.9520   64.0150 C   0  0  0  0  0  0  0  0  0  0  0  0
  128.6070  130.1590   64.9940 C   0  0  0  0  0  0  0  0  0  0  0  0
  129.2400  126.9310   66.2040 C   0  0  0  0  0  0  0  0  0  0  0  0
  129.4640  126.2090   64.9790 C   0  0  0  0  0  0  0  0  0  0  0  0
  129.0320  126.6740   63.7630 N   0  0  0  0  0  0  0  0  0  0  0  0
  130.1610  125.0030   65.1490 C   0  0  0  0  0  0  0  0  0  0  0  0
  130.5610  124.0300   64.1310 C   0  0  0  0  0  0  0  0  0  0  0  0
  131.7400  123.6820   64.0210 O   0  0  0  0  0  0  0  0  0  0  0  0
  129.5580  123.5630   63.3460 N   0  0  0  0  0  0  0  0  0  0  0  0
  129.6520  122.6390   62.3140 C   0  0  0  0  0  0  0  0  0  0  0  0
  130.8650  122.1170   61.8670 C   0  0  0  0  0  0  0  0  0  0  0  0
  130.5300  121.2550   60.8480 C   0  0  0  0  0  0  0  0  0  0  0  0
  129.1860  121.2550   60.6910 O   0  0  0  0  0  0  0  0  0  0  0  0
  128.6390  122.1350   61.6270 N   0  0  0  0  0  0  0  0  0  0  0  0
  130.5600  124.7320   66.8470 S   0  0  0  0  0  0  0  0  0  0  0  0
  129.7930  126.2320   67.3150 C   0  0  0  0  0  0  0  0  0  0  0  0
  129.7540  126.6370   68.5840 N   0  0  0  0  0  0  0  0  0  0  0  0
  130.2380  128.8250   70.8620 C   0  0  0  0  0  0  0  0  0  0  0  0
  130.2230  129.2290   72.1940 C   0  0  0  0  0  0  0  0  0  0  0  0
  1  2  1  0
  2  3  1  0
  3  4  2  0
  4  5  1  0
  5  6  2  0
  6  7  1  0
  7  8  2  0
  8  9  1  0
  9 10  1  0
 10 11  2  0
 11 12  1  0
 12 13  2  0
 13 14  1  0
 14 15  1  0
 13 16  1  0
 16 17  2  0
  9 18  2  0
 18 19  1  0
 19 20  1  0
 19 21  2  0
 21 22  1  0
 22 23  2  0
 22 24  1  0
 24 25  1  0
 25 26  1  0
 26 27  2  0
 27 28  1  0
 28 29  1  0
 21 30  1  0
 30 31  1  0
 31 32  2  0
  6 33  1  0
 33 34  2  0
 34  3  1  0
 32  7  1  0
 17 10  1  0
 31 18  1  0
 29 25  2  0
M  END
>  <Binding energies>  (65) 
[-7.89]

>  <Ligand effiencies>  (65) 
[-0.21324324324324323]

>  <Interactions>  (65) 
["V-B:ALA:541:CB:9860, H-B:ALA:541:N:9859, H-B:GLU:543:OE1:9877, H-B:GLU:543:OE2:9878, V-B:GLU:543:CD:9876, V-A:GLU:543:CG:4902, V-A:GLU:543:CD:4903, H-A:TYR:484:OH:4343, V-B:GLU:543:CG:9875, V-A:TYR:484:CE1:4340, V-B:HIS:456:CE1:9037, V-A:TYR:484:CZ:4342, V-A:HIS:456:CE1:4064, H-A:HIS:456:NE2:4065, V-B:GLU:543:CB:9874, V-A:LYS:547:CE:4945, H-A:LYS:547:NZ:4946, V-B:HIS:456:CD2:9035, V-A:GLU:543:C:4897, V-A:GLY:544:C:4907, H-A:GLU:543:OE1:4904, V-B:HIS:456:CG:9033"]

$$$$
9d_Ghoteimi_2023
     RDKit          3D

 38 43  0  0  0  0  0  0  0  0999 V2000
  122.9420  130.0900   66.5020 C   0  0  0  0  0  0  0  0  0  0  0  0
  123.6200  130.9020   65.5540 O   0  0  0  0  0  0  0  0  0  0  0  0
  123.7420  130.5060   64.2600 C   0  0  0  0  0  0  0  0  0  0  0  0
  122.9130  130.7550   63.3810 O   0  0  0  0  0  0  0  0  0  0  0  0
  124.9790  129.7340   64.0080 C   0  0  0  0  0  0  0  0  0  0  0  0
  125.3350  129.1510   62.3830 S   0  0  0  0  0  0  0  0  0  0  0  0
  126.8400  128.4450   62.9220 C   0  0  0  0  0  0  0  0  0  0  0  0
  127.6630  127.8270   62.0770 N   0  0  0  0  0  0  0  0  0  0  0  0
  128.8170  127.3280   62.5930 C   0  0  0  0  0  0  0  0  0  0  0  0
  129.7370  126.6610   61.6210 C   0  0  0  0  0  0  0  0  0  0  0  0
  130.7800  125.8470   62.0740 C   0  0  0  0  0  0  0  0  0  0  0  0
  131.6440  125.2240   61.1780 C   0  0  0  0  0  0  0  0  0  0  0  0
  131.4880  125.3830   59.7910 C   0  0  0  0  0  0  0  0  0  0  0  0
  132.3590  124.7780   58.8790 N   0  0  0  0  0  0  0  0  0  0  0  0
  133.1180  123.5610   59.2320 C   0  0  0  0  0  0  0  0  0  0  0  0
  134.2680  123.2380   58.2560 C   0  0  0  0  0  0  0  0  0  0  0  0
  133.7730  123.1610   56.9300 O   0  0  0  0  0  0  0  0  0  0  0  0
  133.1920  124.3880   56.5210 C   0  0  0  0  0  0  0  0  0  0  0  0
  132.0080  124.7500   57.4430 C   0  0  0  0  0  0  0  0  0  0  0  0
  130.4500  126.2130   59.3430 C   0  0  0  0  0  0  0  0  0  0  0  0
  129.5890  126.8380   60.2400 C   0  0  0  0  0  0  0  0  0  0  0  0
  129.1260  127.4170   63.9520 C   0  0  0  0  0  0  0  0  0  0  0  0
  128.2550  128.0480   64.8480 C   0  0  0  0  0  0  0  0  0  0  0  0
  128.6200  128.0910   66.2880 C   0  0  0  0  0  0  0  0  0  0  0  0
  128.9250  129.3040   66.9110 C   0  0  0  0  0  0  0  0  0  0  0  0
  129.2470  129.3410   68.2650 C   0  0  0  0  0  0  0  0  0  0  0  0
  129.2570  128.1680   69.0360 C   0  0  0  0  0  0  0  0  0  0  0  0
  129.5870  128.1780   70.3930 N   0  0  0  0  0  0  0  0  0  0  0  0
  129.3240  126.9730   71.2040 C   0  0  0  0  0  0  0  0  0  0  0  0
  130.0750  126.9710   72.5530 C   0  0  0  0  0  0  0  0  0  0  0  0
  129.7680  128.1500   73.2820 O   0  0  0  0  0  0  0  0  0  0  0  0
  130.1440  129.3200   72.5700 C   0  0  0  0  0  0  0  0  0  0  0  0
  129.3910  129.3810   71.2240 C   0  0  0  0  0  0  0  0  0  0  0  0
  128.9500  126.9560   68.4000 C   0  0  0  0  0  0  0  0  0  0  0  0
  128.6300  126.9190   67.0460 C   0  0  0  0  0  0  0  0  0  0  0  0
  127.0610  128.6150   64.3210 C   0  0  0  0  0  0  0  0  0  0  0  0
  125.9880  129.3740   64.9100 C   0  0  0  0  0  0  0  0  0  0  0  0
  125.9680  129.7310   66.2340 N   0  0  0  0  0  0  0  0  0  0  0  0
  1  2  1  0
  2  3  1  0
  3  4  2  0
  3  5  1  0
  5  6  1  0
  6  7  1  0
  7  8  2  0
  8  9  1  0
  9 10  1  0
 10 11  2  0
 11 12  1  0
 12 13  2  0
 13 14  1  0
 14 15  1  0
 15 16  1  0
 16 17  1  0
 17 18  1  0
 18 19  1  0
 13 20  1  0
 20 21  2  0
  9 22  2  0
 22 23  1  0
 23 24  1  0
 24 25  2  0
 25 26  1  0
 26 27  2  0
 27 28  1  0
 28 29  1  0
 29 30  1  0
 30 31  1  0
 31 32  1  0
 32 33  1  0
 27 34  1  0
 34 35  2  0
 23 36  2  0
 36 37  1  0
 37 38  1  0
 37  5  2  0
 36  7  1  0
 21 10  1  0
 35 24  1  0
 19 14  1  0
 33 28  1  0
M  END
>  <Binding energies>  (66) 
[-8.52]

>  <Ligand effiencies>  (66) 
[-0.213]

>  <Interactions>  (66) 
["V-B:GLU:543:CD:9876, V-A:GLU:543:CG:4902, V-A:TYR:531:CZ:4789, V-A:ASP:366:CB:3207, V-A:ASP:366:CG:3208, V-A:GLU:543:CD:4903, V-B:GLU:543:CG:9875, V-B:GLY:454:CA:9016, H-B:ARG:545:NH1:9895, H-B:GLY:454:N:9017, V-B:ARG:545:CZ:9894, V-A:GLU:543:CB:4901, V-B:HIS:456:CE1:9037, V-B:TYR:484:CZ:9314, V-B:ARG:545:CG:9890, H-B:TYR:484:OH:9315, V-B:ARG:545:CD:9891, V-A:HIS:456:CE1:4064, V-B:GLU:543:CB:9874, V-A:LYS:547:CE:4945, H-B:LYS:547:NZ:9919, H-A:LYS:547:NZ:4946, V-B:HIS:456:CD2:9035, H-B:HIS:456:NE2:9038, V-A:ILE:369:CD1:3234, V-A:ILE:369:CG2:3232, V-B:GLY:453:CA:9011, V-B:GLY:453:C:9009, V-A:ILE:369:CB:3231, V-A:TYR:531:CE1:4787, V-A:ASP:366:CA:3205, V-A:ASP:366:C:3203, H-B:TYR:539:OH:9846, V-A:ASN:370:CB:3240, V-A:ILE:369:CG1:3233, H-A:ASN:370:N:3239, V-A:GLU:543:CA:4899"]

$$$$
RR10_Rahimova_2017
     RDKit          3D

 34 38  0  0  0  0  0  0  0  0999 V2000
  126.7390  135.7310   61.0280 C   0  0  0  0  0  0  0  0  0  0  0  0
  126.8510  134.3250   61.6420 C   0  0  1  0  0  0  0  0  0  0  0  0
  126.7110  133.2160   60.5740 C   0  0  0  0  0  0  0  0  0  0  0  0
  126.7920  131.8130   61.2180 C   0  0  0  0  0  0  0  0  0  0  0  0
  128.1160  131.6030   61.9970 C   0  0  1  0  0  0  0  0  0  0  0  0
  129.2600  131.5520   61.0760 N   0  0  0  0  0  0  0  0  0  0  0  0
  130.5270  131.8820   61.3860 C   0  0  0  0  0  0  0  0  0  0  0  0
  130.8680  132.2510   62.5130 O   0  0  0  0  0  0  0  0  0  0  0  0
  131.5650  131.7960   60.2480 C   0  0  1  0  0  0  0  0  0  0  0  0
  132.4700  130.5560   60.4710 C   0  0  0  0  0  0  0  0  0  0  0  0
  133.4530  130.4130   59.2840 C   0  0  0  0  0  0  0  0  0  0  0  0
  132.7340  130.4290   57.9150 C   0  0  0  0  0  0  0  0  0  0  0  0
  131.8380  131.6120   57.8060 N   0  0  0  0  0  0  0  0  0  0  0  0
  131.1950  131.8980   56.1800 S   0  0  0  0  0  0  0  0  0  0  0  0
  132.2610  131.6120   55.2110 O   0  0  0  0  0  0  0  0  0  0  0  0
  130.5290  133.2060   56.1820 O   0  0  0  0  0  0  0  0  0  0  0  0
  129.9390  130.6400   55.9490 C   0  0  0  0  0  0  0  0  0  0  0  0
  128.8040  130.9380   55.1860 C   0  0  0  0  0  0  0  0  0  0  0  0
  127.7880  130.0030   54.9700 C   0  0  0  0  0  0  0  0  0  0  0  0
  127.9610  128.7460   55.5550 C   0  0  0  0  0  0  0  0  0  0  0  0
  127.2100  127.5950   55.5800 N   0  0  0  0  0  0  0  0  0  0  0  0
  127.8920  126.6580   56.3290 C   0  0  0  0  0  0  0  0  0  0  0  0
  127.3790  125.2720   56.5910 C   0  0  0  0  0  0  0  0  0  0  0  0
  126.0540  125.0700   57.0000 C   0  0  0  0  0  0  0  0  0  0  0  0
  125.5760  123.7850   57.2400 C   0  0  0  0  0  0  0  0  0  0  0  0
  126.4230  122.6920   57.0740 C   0  0  0  0  0  0  0  0  0  0  0  0
  127.7420  122.8740   56.6670 C   0  0  0  0  0  0  0  0  0  0  0  0
  128.2180  124.1610   56.4270 C   0  0  0  0  0  0  0  0  0  0  0  0
  129.0330  127.1270   56.7820 N   0  0  0  0  0  0  0  0  0  0  0  0
  129.1030  128.4160   56.3230 C   0  0  0  0  0  0  0  0  0  0  0  0
  130.1080  129.3740   56.5200 C   0  0  0  0  0  0  0  0  0  0  0  0
  130.8280  131.6920   58.8910 C   0  0  0  0  0  0  0  0  0  0  0  0
  128.2520  132.7330   63.0530 C   0  0  0  0  0  0  0  0  0  0  0  0
  128.1790  134.1370   62.4130 C   0  0  0  0  0  0  0  0  0  0  0  0
  2  1  1  6
  2  3  1  0
  3  4  1  0
  4  5  1  0
  5  6  1  6
  6  7  1  0
  7  8  2  0
  9  7  1  1
  9 10  1  0
 10 11  1  0
 11 12  1  0
 12 13  1  0
 13 14  1  0
 14 15  2  0
 14 16  2  0
 14 17  1  0
 17 18  2  0
 18 19  1  0
 19 20  2  0
 20 21  1  0
 21 22  1  0
 22 23  1  0
 23 24  2  0
 24 25  1  0
 25 26  2  0
 26 27  1  0
 27 28  2  0
 22 29  2  0
 29 30  1  0
 30 31  2  0
 13 32  1  0
  5 33  1  0
 33 34  1  0
 34  2  1  0
 32  9  1  0
 31 17  1  0
 30 20  1  0
 28 23  1  0
M  END
>  <Binding energies>  (67) 
[-10.6]

>  <Ligand effiencies>  (67) 
[-0.29444444444444445]

>  <Interactions>  (67) 
["V-B:TYR:539:C:9835, V-B:PRO:540:N:9852, V-B:PRO:540:CA:9851, V-B:MET:535:CE:9803, V-A:PRO:540:N:4879, V-A:TYR:531:CZ:4789, V-A:TYR:539:CE2:4871, V-A:TYR:531:CE2:4788, V-A:PRO:540:CA:4878, V-A:TYR:539:CE1:4870, V-A:ALA:541:CA:4885, H-A:ALA:541:N:4886, V-A:PRO:540:CB:4880, V-A:LEU:363:CD1:3184, V-A:LEU:363:CA:3180, V-A:TYR:539:CD2:4869, V-B:LEU:475:CD2:9226, V-B:TRP:381:CH2:8339, H-A:TYR:539:N:4865, V-B:PRO:540:CD:9855, V-A:ALA:541:CB:4887, H-A:TYR:531:OH:4790, V-A:MET:535:CG:4828, V-B:TRP:381:CZ2:8337, V-B:TRP:381:CZ3:8338, H-B:TYR:531:OH:9763, H-B:MET:535:SD:9802"]

$$$$
RR12_Rahimova_2017
     RDKit          3D

 26 28  0  0  0  0  0  0  0  0999 V2000
  132.0460  123.6350   58.3550 C   0  0  0  0  0  0  0  0  0  0  0  0
  130.5190  123.7380   58.2550 C   0  0  0  0  0  0  0  0  0  0  0  0
  129.8110  122.4240   58.6310 C   0  0  0  0  0  0  0  0  0  0  0  0
  128.6730  122.6830   59.5100 N   0  0  0  0  0  0  0  0  0  0  0  0
  128.6350  122.5870   60.8930 C   0  0  0  0  0  0  0  0  0  0  0  0
  129.8100  122.1360   61.7430 C   0  0  0  0  0  0  0  0  0  0  0  0
  130.8860  123.2280   61.8850 C   0  0  0  0  0  0  0  0  0  0  0  0
  131.9730  122.8630   62.9140 C   0  0  0  0  0  0  0  0  0  0  0  0
  132.0980  123.8260   64.0080 N   0  0  0  0  0  0  0  0  0  0  0  0
  133.1940  124.5610   64.2680 C   0  0  0  0  0  0  0  0  0  0  0  0
  134.2270  124.4940   63.5980 O   0  0  0  0  0  0  0  0  0  0  0  0
  133.0850  125.5130   65.4660 C   0  0  0  0  0  0  0  0  0  0  0  0
  131.9820  125.1240   66.2860 O   0  0  0  0  0  0  0  0  0  0  0  0
  130.7950  125.8260   66.2000 C   0  0  0  0  0  0  0  0  0  0  0  0
  130.1060  126.0290   67.3980 C   0  0  0  0  0  0  0  0  0  0  0  0
  128.9020  126.7280   67.4120 C   0  0  0  0  0  0  0  0  0  0  0  0
  128.3830  127.2290   66.2220 C   0  0  0  0  0  0  0  0  0  0  0  0
  129.0550  127.0340   65.0180 C   0  0  0  0  0  0  0  0  0  0  0  0
  130.2590  126.3340   65.0050 C   0  0  0  0  0  0  0  0  0  0  0  0
  127.4730  122.9100   61.4050 N   0  0  0  0  0  0  0  0  0  0  0  0
  126.7020  123.2610   60.3320 C   0  0  0  0  0  0  0  0  0  0  0  0
  125.3710  123.7030   60.3090 C   0  0  0  0  0  0  0  0  0  0  0  0
  124.8020  124.0100   59.0720 C   0  0  0  0  0  0  0  0  0  0  0  0
  125.5300  123.8840   57.8880 C   0  0  0  0  0  0  0  0  0  0  0  0
  126.8550  123.4460   57.8780 C   0  0  0  0  0  0  0  0  0  0  0  0
  127.4260  123.1370   59.1200 C   0  0  0  0  0  0  0  0  0  0  0  0
  1  2  1  0
  2  3  1  0
  3  4  1  0
  4  5  1  0
  5  6  1  0
  6  7  1  0
  7  8  1  0
  8  9  1  0
  9 10  1  0
 10 11  2  0
 10 12  1  0
 12 13  1  0
 13 14  1  0
 14 15  2  0
 15 16  1  0
 16 17  2  0
 17 18  1  0
 18 19  2  0
  5 20  2  0
 20 21  1  0
 21 22  2  0
 22 23  1  0
 23 24  2  0
 24 25  1  0
 25 26  2  0
 26  4  1  0
 19 14  1  0
 26 21  1  0
M  END
>  <Binding energies>  (68) 
[-6.5]

>  <Ligand effiencies>  (68) 
[-0.24074074074074073]

>  <Interactions>  (68) 
["V-B:TYR:539:C:9835, V-B:TYR:539:CD2:9842, V-B:PRO:540:C:9849, V-B:TYR:539:CE2:9844, V-B:PRO:540:N:9852, V-B:ALA:541:CB:9860, V-B:PRO:540:CA:9851, V-B:PRO:540:CB:9853, H-B:ALA:541:N:9859, V-B:GLU:543:CD:9876, V-A:GLU:543:CD:4903, H-A:TYR:484:OH:4343, V-B:GLU:543:CG:9875, V-B:TYR:539:CZ:9845, V-A:HIS:456:CE1:4064, H-A:HIS:456:NE2:4065, V-B:GLU:543:CB:9874, V-A:ARG:545:CZ:4921, H-A:GLY:454:N:4045, V-A:ARG:545:CD:4918"]

$$$$
RR13_Rahimova_2017
     RDKit          3D

 48 54  0  0  0  0  0  0  0  0999 V2000
  129.8680  132.0720   61.5950 Cl  0  0  0  0  0  0  0  0  0  0  0  0
  131.4450  131.6930   60.9880 C   0  0  0  0  0  0  0  0  0  0  0  0
  132.5410  131.9660   61.8090 C   0  0  0  0  0  0  0  0  0  0  0  0
  133.8360  131.7040   61.3700 C   0  0  0  0  0  0  0  0  0  0  0  0
  134.0440  131.1680   60.1020 C   0  0  0  0  0  0  0  0  0  0  0  0
  132.9550  130.8920   59.2770 C   0  0  0  0  0  0  0  0  0  0  0  0
  131.6410  131.1380   59.7060 C   0  0  0  0  0  0  0  0  0  0  0  0
  130.4530  130.8470   58.7630 C   0  0  1  0  0  0  0  0  0  0  0  0
  130.5170  131.7280   57.5070 C   0  0  0  0  0  0  0  0  0  0  0  0
  131.3370  131.5870   56.4890 N   0  0  0  0  0  0  0  0  0  0  0  0
  131.0420  132.6260   55.6130 N   0  0  0  0  0  0  0  0  0  0  0  0
  130.0340  133.4130   56.1340 N   0  0  0  0  0  0  0  0  0  0  0  0
  129.7440  132.8530   57.3140 N   0  0  0  0  0  0  0  0  0  0  0  0
  128.6800  133.3990   58.1480 C   0  0  0  0  0  0  0  0  0  0  0  0
  127.7030  132.2840   58.5650 C   0  0  0  0  0  0  0  0  0  0  0  0
  127.0620  132.5570   59.9170 C   0  0  0  0  0  0  0  0  0  0  0  0
  127.2720  133.7830   60.5540 C   0  0  0  0  0  0  0  0  0  0  0  0
  126.6910  134.0300   61.7950 C   0  0  0  0  0  0  0  0  0  0  0  0
  125.9030  133.0500   62.3950 C   0  0  0  0  0  0  0  0  0  0  0  0
  125.6900  131.8250   61.7660 C   0  0  0  0  0  0  0  0  0  0  0  0
  126.2710  131.5780   60.5240 C   0  0  0  0  0  0  0  0  0  0  0  0
  130.2960  129.4090   58.4370 N   0  0  0  0  0  0  0  0  0  0  0  0
  129.1170  129.1990   57.5780 C   0  0  0  0  0  0  0  0  0  0  0  0
  129.0230  127.7230   57.1250 C   0  0  0  0  0  0  0  0  0  0  0  0
  128.8830  126.8310   58.2880 N   0  0  0  0  0  0  0  0  0  0  0  0
  128.7070  125.4130   57.8960 C   0  0  1  0  0  0  0  0  0  0  0  0
  127.2450  124.9470   57.7200 C   0  0  0  0  0  0  0  0  0  0  0  0
  126.2370  125.8570   58.0660 C   0  0  0  0  0  0  0  0  0  0  0  0
  124.8890  125.5290   57.9230 C   0  0  0  0  0  0  0  0  0  0  0  0
  124.5280  124.2770   57.4350 C   0  0  0  0  0  0  0  0  0  0  0  0
  125.5140  123.3520   57.1000 C   0  0  0  0  0  0  0  0  0  0  0  0
  126.8670  123.6700   57.2430 C   0  0  0  0  0  0  0  0  0  0  0  0
  128.0140  122.4290   56.8650 Cl  0  0  0  0  0  0  0  0  0  0  0  0
  129.5360  125.0210   56.6710 C   0  0  0  0  0  0  0  0  0  0  0  0
  129.0900  124.9600   55.4380 N   0  0  0  0  0  0  0  0  0  0  0  0
  130.1770  124.5820   54.6570 N   0  0  0  0  0  0  0  0  0  0  0  0
  131.2980  124.4300   55.4470 N   0  0  0  0  0  0  0  0  0  0  0  0
  130.8830  124.7270   56.6840 N   0  0  0  0  0  0  0  0  0  0  0  0
  131.8140  124.6510   57.8050 C   0  0  0  0  0  0  0  0  0  0  0  0
  132.7170  123.4110   57.6690 C   0  0  0  0  0  0  0  0  0  0  0  0
  133.0110  122.7650   59.0140 C   0  0  0  0  0  0  0  0  0  0  0  0
  133.2680  123.5640   60.1310 C   0  0  0  0  0  0  0  0  0  0  0  0
  133.5300  122.9730   61.3640 C   0  0  0  0  0  0  0  0  0  0  0  0
  133.5340  121.5830   61.4760 C   0  0  0  0  0  0  0  0  0  0  0  0
  133.2780  120.7810   60.3650 C   0  0  0  0  0  0  0  0  0  0  0  0
  133.0150  121.3720   59.1330 C   0  0  0  0  0  0  0  0  0  0  0  0
  130.0660  127.0410   59.1410 C   0  0  0  0  0  0  0  0  0  0  0  0
  130.1480  128.5150   59.5990 C   0  0  0  0  0  0  0  0  0  0  0  0
  1  2  1  0
  2  3  2  0
  3  4  1  0
  4  5  2  0
  5  6  1  0
  6  7  2  0
  7  8  1  0
  8  9  1  0
  9 10  2  0
 10 11  1  0
 11 12  2  0
 12 13  1  0
 13 14  1  0
 14 15  1  0
 15 16  1  0
 16 17  2  0
 17 18  1  0
 18 19  2  0
 19 20  1  0
 20 21  2  0
  8 22  1  6
 22 23  1  0
 23 24  1  0
 24 25  1  0
 26 25  1  6
 26 27  1  0
 27 28  2  0
 28 29  1  0
 29 30  2  0
 30 31  1  0
 31 32  2  0
 32 33  1  0
 26 34  1  0
 34 35  2  0
 35 36  1  0
 36 37  2  0
 37 38  1  0
 38 39  1  0
 39 40  1  0
 40 41  1  0
 41 42  2  0
 42 43  1  0
 43 44  2  0
 44 45  1  0
 45 46  2  0
 25 47  1  0
 47 48  1  0
  7  2  1  0
 13  9  1  0
 21 16  1  0
 48 22  1  0
 32 27  1  0
 38 34  1  0
 46 41  1  0
M  END
>  <Binding energies>  (69) 
[-12.49]

>  <Ligand effiencies>  (69) 
[-0.2602083333333333]

>  <Interactions>  (69) 
["V-B:TYR:539:C:9835, V-B:TYR:539:CD2:9842, V-A:LEU:475:CD2:4254, V-B:TYR:539:CE2:9844, V-B:PRO:540:N:9852, V-A:TRP:381:CH2:3367, V-B:PRO:540:CA:9851, V-B:MET:535:CE:9803, V-B:PRO:540:CB:9853, V-A:PRO:540:N:4879, V-A:ASN:362:C:3167, V-A:TYR:531:CZ:4789, V-A:TYR:539:CE2:4871, V-A:PRO:540:CA:4878, V-A:PRO:540:C:4876, V-A:TYR:539:CE1:4870, V-A:TYR:539:CZ:4872, V-A:PRO:540:CB:4880, V-A:TYR:539:C:4862, V-A:ASN:362:CB:3171, V-A:LEU:363:CA:3180, V-A:PRO:540:CD:4882, V-A:ASP:366:CG:3208, V-A:GLU:543:CD:4903, V-A:TYR:539:CD2:4869, V-B:LEU:475:CD2:9226, H-A:TYR:539:N:4865, V-B:ASP:366:CG:8180, V-B:LEU:363:CD1:8156, V-B:TYR:539:CZ:9845, V-B:ASP:366:CB:8179, V-A:LEU:363:CB:3182, V-A:TYR:539:CD1:4868, V-A:TYR:539:CG:4867, V-A:TYR:539:CA:4864, V-B:TYR:539:CE1:9843, V-A:ILE:369:CD1:3234, V-A:ILE:369:CG2:3232, V-A:ILE:369:CB:3231, V-A:TYR:531:CE1:4787, H-A:TYR:531:OH:4790, H-B:TYR:539:OH:9846, H-A:LYS:534:NZ:4818, V-B:TYR:539:CD1:9841, V-B:TYR:539:CG:9840, V-A:ASN:362:CG:3172, V-A:ASN:362:CA:3169"]

$$$$
RR14_Rahimova_2017
     RDKit          3D

 39 43  0  0  0  0  0  0  0  0999 V2000
  131.0520  121.7470   62.6760 C   0  0  0  0  0  0  0  0  0  0  0  0
  129.9100  122.5320   62.3480 O   0  0  0  0  0  0  0  0  0  0  0  0
  129.4480  122.5370   61.0460 C   0  0  0  0  0  0  0  0  0  0  0  0
  128.1320  122.9600   60.8540 C   0  0  0  0  0  0  0  0  0  0  0  0
  127.5720  122.9740   59.5810 C   0  0  0  0  0  0  0  0  0  0  0  0
  128.3250  122.5580   58.4810 C   0  0  0  0  0  0  0  0  0  0  0  0
  127.6940  122.5110   57.0950 C   0  0  0  0  0  0  0  0  0  0  0  0
  126.5040  123.3520   56.9720 N   0  0  0  0  0  0  0  0  0  0  0  0
  125.3250  122.8110   56.6450 N   0  0  0  0  0  0  0  0  0  0  0  0
  124.4510  123.8790   56.5910 N   0  0  0  0  0  0  0  0  0  0  0  0
  125.1240  125.0620   56.8810 N   0  0  0  0  0  0  0  0  0  0  0  0
  126.3710  124.7170   57.1030 C   0  0  0  0  0  0  0  0  0  0  0  0
  127.5000  125.6810   57.4380 C   0  0  0  0  0  0  0  0  0  0  0  0
  127.6010  126.7870   56.4720 N   0  0  0  0  0  0  0  0  0  0  0  0
  126.8420  127.9670   56.9060 C   0  0  0  0  0  0  0  0  0  0  0  0
  126.8780  129.1280   55.8890 C   0  0  0  0  0  0  0  0  0  0  0  0
  127.0820  130.5140   56.5380 C   0  0  0  0  0  0  0  0  0  0  0  0
  128.4200  131.0700   56.3110 N   0  0  0  0  0  0  0  0  0  0  0  0
  128.7140  132.1130   57.3020 C   0  0  0  0  0  0  0  0  0  0  0  0
  130.0960  132.7560   57.0590 C   0  0  0  0  0  0  0  0  0  0  0  0
  130.1810  133.2420   55.7240 O   0  0  0  0  0  0  0  0  0  0  0  0
  130.0080  132.2080   54.7620 C   0  0  0  0  0  0  0  0  0  0  0  0
  128.6230  131.5490   54.9350 C   0  0  0  0  0  0  0  0  0  0  0  0
  129.0120  127.1370   56.2490 C   0  0  0  0  0  0  0  0  0  0  0  0
  130.0420  126.1590   56.8100 C   0  0  0  0  0  0  0  0  0  0  0  0
  130.3950  126.1900   58.1180 C   0  0  0  0  0  0  0  0  0  0  0  0
  131.4180  125.2820   58.6780 C   0  0  0  0  0  0  0  0  0  0  0  0
  131.7930  125.2720   60.0320 C   0  0  0  0  0  0  0  0  0  0  0  0
  131.1590  126.2180   61.0430 C   0  0  0  0  0  0  0  0  0  0  0  0
  132.7710  124.3700   60.4600 C   0  0  0  0  0  0  0  0  0  0  0  0
  133.3690  123.4890   59.5600 C   0  0  0  0  0  0  0  0  0  0  0  0
  133.0010  123.4890   58.2120 C   0  0  0  0  0  0  0  0  0  0  0  0
  133.6710  122.5130   57.2540 C   0  0  0  0  0  0  0  0  0  0  0  0
  132.0200  124.3910   57.7710 C   0  0  0  0  0  0  0  0  0  0  0  0
  131.6180  124.4290   56.4190 N   0  0  0  0  0  0  0  0  0  0  0  0
  130.6860  125.2440   55.8630 C   0  0  0  0  0  0  0  0  0  0  0  0
  130.4430  125.1810   54.6580 O   0  0  0  0  0  0  0  0  0  0  0  0
  129.6520  122.1620   58.6590 C   0  0  0  0  0  0  0  0  0  0  0  0
  130.2110  122.1460   59.9330 C   0  0  0  0  0  0  0  0  0  0  0  0
  1  2  1  0
  2  3  1  0
  3  4  2  0
  4  5  1  0
  5  6  2  0
  6  7  1  0
  7  8  1  0
  8  9  1  0
  9 10  2  0
 10 11  1  0
 11 12  2  0
 12 13  1  0
 13 14  1  0
 14 15  1  0
 15 16  1  0
 16 17  1  0
 17 18  1  0
 18 19  1  0
 19 20  1  0
 20 21  1  0
 21 22  1  0
 22 23  1  0
 14 24  1  0
 24 25  1  0
 25 26  2  0
 26 27  1  0
 27 28  2  0
 28 29  1  0
 28 30  1  0
 30 31  2  0
 31 32  1  0
 32 33  1  0
 32 34  2  0
 34 35  1  0
 35 36  1  0
 36 37  2  0
  6 38  1  0
 38 39  2  0
 39  3  1  0
 12  8  1  0
 23 18  1  0
 36 25  1  0
 34 27  1  0
M  END
>  <Binding energies>  (70) 
[-9.9]

>  <Ligand effiencies>  (70) 
[-0.2475]

>  <Interactions>  (70) 
["V-B:TYR:539:C:9835, V-B:TYR:539:CD2:9842, V-A:LEU:475:CD2:4254, V-B:TYR:539:CE2:9844, V-B:PRO:540:N:9852, V-B:ALA:541:CB:9860, V-B:PRO:540:CA:9851, V-B:MET:535:CE:9803, V-A:PRO:540:N:4879, V-A:TYR:531:CZ:4789, V-A:PRO:540:CA:4878, V-A:TYR:539:CE1:4870, V-A:ASP:366:CB:3207, V-A:TYR:539:CZ:4872, V-A:TYR:539:C:4862, V-A:PRO:540:CD:4882, V-A:ASP:366:CG:3208, H-A:TYR:539:N:4865, V-B:TYR:539:CZ:9845, V-A:TYR:539:CD1:4868, V-A:ILE:369:CD1:3234, V-A:ILE:369:CG2:3232, V-A:ILE:369:CB:3231, V-A:TYR:531:CE1:4787, H-A:TYR:531:OH:4790, H-B:TYR:539:OH:9846, H-A:LYS:534:NZ:4818, H-B:TYR:531:OH:9763"]

$$$$
RR15_Rahimova_2017
     RDKit          3D

 45 49  0  0  0  0  0  0  0  0999 V2000
  133.9380  123.7440   61.8160 C   0  0  0  0  0  0  0  0  0  0  0  0
  134.1070  123.8340   63.2270 O   0  0  0  0  0  0  0  0  0  0  0  0
  133.1230  124.4320   63.9950 C   0  0  0  0  0  0  0  0  0  0  0  0
  131.7550  124.3840   63.6800 C   0  0  0  0  0  0  0  0  0  0  0  0
  130.8150  125.0110   64.4950 C   0  0  0  0  0  0  0  0  0  0  0  0
  131.2120  125.7040   65.6430 C   0  0  0  0  0  0  0  0  0  0  0  0
  130.1980  126.3860   66.5190 C   0  0  0  0  0  0  0  0  0  0  0  0
  129.6870  125.8210   67.6040 N   0  0  0  0  0  0  0  0  0  0  0  0
  128.7980  126.7370   68.1290 N   0  0  0  0  0  0  0  0  0  0  0  0
  128.9060  127.7840   67.3100 N   0  0  0  0  0  0  0  0  0  0  0  0
  128.0110  128.9360   67.4040 C   0  0  0  0  0  0  0  0  0  0  0  0
  128.0230  129.8700   66.1680 C   0  0  0  0  0  0  0  0  0  0  0  0
  128.6050  130.9530   66.2620 O   0  0  0  0  0  0  0  0  0  0  0  0
  127.4230  129.4650   65.0070 N   0  0  0  0  0  0  0  0  0  0  0  0
  126.0680  128.8780   65.0070 C   0  0  0  0  0  0  0  0  0  0  0  0
  125.0480  129.6780   65.8450 C   0  0  0  0  0  0  0  0  0  0  0  0
  123.6220  129.7380   65.2470 C   0  0  0  0  0  0  0  0  0  0  0  0
  123.4620  130.7540   64.2030 N   0  0  0  0  0  0  0  0  0  0  0  0
  124.4350  131.8530   64.2970 C   0  0  0  0  0  0  0  0  0  0  0  0
  124.2800  132.8480   63.1270 C   0  0  0  0  0  0  0  0  0  0  0  0
  124.3620  132.1600   61.8830 O   0  0  0  0  0  0  0  0  0  0  0  0
  123.3540  131.1650   61.7460 C   0  0  0  0  0  0  0  0  0  0  0  0
  123.4870  130.1210   62.8770 C   0  0  0  0  0  0  0  0  0  0  0  0
  127.9810  129.7510   63.6500 C   0  0  2  0  0  0  0  0  0  0  0  0
  127.5120  131.1100   63.0410 C   0  0  0  0  0  0  0  0  0  0  0  0
  126.7220  131.1440   62.0980 O   0  0  0  0  0  0  0  0  0  0  0  0
  127.9940  132.2130   63.6410 N   0  0  0  0  0  0  0  0  0  0  0  0
  127.6170  133.5830   63.3140 C   0  0  0  0  0  0  0  0  0  0  0  0
  128.3420  134.0730   62.0460 C   0  0  2  0  0  0  0  0  0  0  0  0
  127.4790  134.1300   60.7730 C   0  0  0  0  0  0  0  0  0  0  0  0
  127.8630  132.8910   60.0000 C   0  0  0  0  0  0  0  0  0  0  0  0
  129.3310  132.7540   60.3640 C   0  0  0  0  0  0  0  0  0  0  0  0
  129.3370  133.0840   61.7490 O   0  0  0  0  0  0  0  0  0  0  0  0
  127.8930  128.5160   62.7600 C   0  0  0  0  0  0  0  0  0  0  0  0
  126.6920  128.2760   62.0820 C   0  0  0  0  0  0  0  0  0  0  0  0
  126.5540  127.1640   61.2570 C   0  0  0  0  0  0  0  0  0  0  0  0
  127.6200  126.2820   61.1020 C   0  0  0  0  0  0  0  0  0  0  0  0
  127.4860  125.2020   60.3000 F   0  0  0  0  0  0  0  0  0  0  0  0
  128.8220  126.5050   61.7670 C   0  0  0  0  0  0  0  0  0  0  0  0
  128.9590  127.6170   62.5930 C   0  0  0  0  0  0  0  0  0  0  0  0
  129.7320  127.5970   66.2740 N   0  0  0  0  0  0  0  0  0  0  0  0
  132.5770  125.7480   65.9560 C   0  0  0  0  0  0  0  0  0  0  0  0
  133.5370  125.1180   65.1460 C   0  0  0  0  0  0  0  0  0  0  0  0
  134.8950  125.1300   65.4140 O   0  0  0  0  0  0  0  0  0  0  0  0
  135.3470  125.0040   66.7580 C   0  0  0  0  0  0  0  0  0  0  0  0
  1  2  1  0
  2  3  1  0
  3  4  2  0
  4  5  1  0
  5  6  2  0
  6  7  1  0
  7  8  1  0
  8  9  2  0
  9 10  1  0
 10 11  1  0
 11 12  1  0
 12 13  2  0
 12 14  1  0
 14 15  1  0
 15 16  1  0
 16 17  1  0
 17 18  1  0
 18 19  1  0
 19 20  1  0
 20 21  1  0
 21 22  1  0
 22 23  1  0
 24 14  1  1
 24 25  1  0
 25 26  2  0
 25 27  1  0
 27 28  1  0
 29 28  1  1
 29 30  1  0
 30 31  1  0
 31 32  1  0
 32 33  1  0
 24 34  1  0
 34 35  2  0
 35 36  1  0
 36 37  2  0
 37 38  1  0
 37 39  1  0
 39 40  2  0
 10 41  1  0
  6 42  1  0
 42 43  2  0
 43 44  1  0
 44 45  1  0
 43  3  1  0
 41  7  2  0
 23 18  1  0
 33 29  1  0
 40 34  1  0
M  END
>  <Binding energies>  (71) 
[-8.61]

>  <Ligand effiencies>  (71) 
[-0.18717391304347825]

>  <Interactions>  (71) 
["V-A:GLU:543:CG:4902, V-A:PRO:540:N:4879, V-A:TYR:539:CE2:4871, V-A:PRO:540:CA:4878, V-A:PRO:540:C:4876, V-A:ALA:541:CA:4885, H-A:ALA:541:N:4886, V-A:ASP:366:CG:3208, H-A:TYR:484:OH:4343, V-B:GLY:454:CA:9016, V-A:TYR:539:CD2:4869, H-B:GLY:454:N:9017, V-B:ILE:369:CD1:8206, V-B:LEU:475:CD2:9226, V-A:ALA:541:CB:4887, V-B:ARG:545:CZ:9894, V-B:LEU:475:CD1:9225, V-B:HIS:456:CE1:9037, V-B:TYR:484:CZ:9314, H-B:TYR:484:OH:9315, V-B:ARG:545:CD:9891, H-A:HIS:456:NE2:4065, V-A:ILE:369:CD1:3234, V-B:GLY:453:CA:9011, V-A:ARG:545:CZ:4921, V-A:GLY:453:CA:4039, H-A:GLY:454:N:4045, V-A:ARG:545:CD:4918, V-A:ARG:545:CG:4917, H-A:ARG:545:NH1:4922, H-A:ARG:545:NE:4919, V-A:ARG:545:CB:4916, V-A:GLY:453:C:4037, V-A:ILE:455:C:4047, V-A:HIS:456:CD2:4063"]

$$$$
RR17_Rahimova_2017
     RDKit          3D

 38 41  0  0  0  0  0  0  0  0999 V2000
  124.8900  122.2370   56.4920 C   0  0  0  0  0  0  0  0  0  0  0  0
  126.1270  122.8080   57.1920 C   0  0  0  0  0  0  0  0  0  0  0  0
  127.2920  122.2600   56.5810 O   0  0  0  0  0  0  0  0  0  0  0  0
  128.5270  122.8150   56.8590 C   0  0  0  0  0  0  0  0  0  0  0  0
  129.0780  122.5170   58.1040 C   0  0  0  0  0  0  0  0  0  0  0  0
  130.3160  123.0310   58.4740 C   0  0  0  0  0  0  0  0  0  0  0  0
  131.0340  123.8600   57.6000 C   0  0  0  0  0  0  0  0  0  0  0  0
  132.3690  124.4000   58.0250 C   0  0  0  0  0  0  0  0  0  0  0  0
  133.2850  124.6050   57.2240 O   0  0  0  0  0  0  0  0  0  0  0  0
  132.5650  124.6780   59.5320 C   0  0  0  0  0  0  0  0  0  0  0  0
  133.5210  123.3570   60.3590 S   0  0  0  0  0  0  0  0  0  0  0  0
  133.3870  123.8910   62.0420 C   0  0  0  0  0  0  0  0  0  0  0  0
  134.3900  124.2480   62.8080 N   0  0  0  0  0  0  0  0  0  0  0  0
  133.8740  124.6060   64.0480 N   0  0  0  0  0  0  0  0  0  0  0  0
  132.5750  124.4550   63.9820 C   0  0  0  0  0  0  0  0  0  0  0  0
  131.6130  124.7480   65.1230 C   0  0  0  0  0  0  0  0  0  0  0  0
  131.3470  126.1720   65.3200 N   0  0  0  0  0  0  0  0  0  0  0  0
  130.0580  126.7100   65.4840 C   0  0  0  0  0  0  0  0  0  0  0  0
  129.4500  127.2750   64.3630 C   0  0  0  0  0  0  0  0  0  0  0  0
  128.1770  127.8310   64.4570 C   0  0  0  0  0  0  0  0  0  0  0  0
  127.4940  127.8230   65.6760 C   0  0  0  0  0  0  0  0  0  0  0  0
  126.0990  128.4420   65.7640 C   0  0  0  0  0  0  0  0  0  0  0  0
  126.1430  129.7560   65.9960 F   0  0  0  0  0  0  0  0  0  0  0  0
  125.4310  128.2480   64.6260 F   0  0  0  0  0  0  0  0  0  0  0  0
  125.4260  127.8640   66.7590 F   0  0  0  0  0  0  0  0  0  0  0  0
  128.0980  127.2490   66.8000 C   0  0  0  0  0  0  0  0  0  0  0  0
  129.3700  126.6930   66.7050 C   0  0  0  0  0  0  0  0  0  0  0  0
  132.1990  123.9910   62.7380 N   0  0  0  0  0  0  0  0  0  0  0  0
  130.9020  123.7170   62.2780 C   0  0  0  0  0  0  0  0  0  0  0  0
  130.1110  124.7580   61.7910 C   0  0  0  0  0  0  0  0  0  0  0  0
  128.8230  124.4860   61.3380 C   0  0  0  0  0  0  0  0  0  0  0  0
  128.3230  123.1740   61.3710 C   0  0  0  0  0  0  0  0  0  0  0  0
  127.0600  122.8120   60.9440 O   0  0  0  0  0  0  0  0  0  0  0  0
  125.9940  123.7490   61.0540 C   0  0  0  0  0  0  0  0  0  0  0  0
  129.1290  122.1450   61.8650 C   0  0  0  0  0  0  0  0  0  0  0  0
  130.4180  122.4100   62.3180 C   0  0  0  0  0  0  0  0  0  0  0  0
  130.4800  124.1590   56.3470 C   0  0  0  0  0  0  0  0  0  0  0  0
  129.2400  123.6430   55.9790 C   0  0  0  0  0  0  0  0  0  0  0  0
  1  2  1  0
  2  3  1  0
  3  4  1  0
  4  5  2  0
  5  6  1  0
  6  7  2  0
  7  8  1  0
  8  9  2  0
  8 10  1  0
 10 11  1  0
 11 12  1  0
 12 13  2  0
 13 14  1  0
 14 15  2  0
 15 16  1  0
 16 17  1  0
 17 18  1  0
 18 19  2  0
 19 20  1  0
 20 21  2  0
 21 22  1  0
 22 23  1  0
 22 24  1  0
 22 25  1  0
 21 26  1  0
 26 27  2  0
 15 28  1  0
 28 29  1  0
 29 30  2  0
 30 31  1  0
 31 32  2  0
 32 33  1  0
 33 34  1  0
 32 35  1  0
 35 36  2  0
  7 37  1  0
 37 38  2  0
 38  4  1  0
 28 12  1  0
 36 29  1  0
 27 18  1  0
M  END
>  <Binding energies>  (72) 
[-8.64]

>  <Ligand effiencies>  (72) 
[-0.22153846153846155]

>  <Interactions>  (72) 
["V-B:TYR:539:C:9835, V-B:TYR:539:CD2:9842, V-B:TYR:539:CE2:9844, V-B:PRO:540:N:9852, V-B:ALA:541:CB:9860, V-B:PRO:540:CA:9851, V-B:MET:535:CE:9803, V-B:PRO:540:CB:9853, H-B:ALA:541:N:9859, V-B:GLU:543:CD:9876, V-B:ALA:541:CA:9858, V-A:ASP:366:CB:3207, H-A:GLU:543:OE2:4905, V-A:ASP:366:CG:3208, V-A:GLU:543:CD:4903, H-A:TYR:484:OH:4343, V-B:GLU:543:CG:9875, H-B:TYR:539:N:9838, V-B:PRO:540:CD:9855, V-B:LEU:363:CD1:8156, V-B:TYR:539:CZ:9845, V-B:ARG:545:CZ:9894, V-B:HIS:456:CE1:9037, V-B:TYR:484:CZ:9314, V-B:ARG:545:CG:9890, V-B:ARG:545:CD:9891, V-A:TYR:484:CZ:4342, V-B:GLU:543:CB:9874, V-B:TYR:539:CE1:9843, V-A:ILE:369:CD1:3234, H-A:GLU:543:OE1:4904, V-B:PRO:540:CG:9854, H-A:TYR:531:OH:4790, H-B:TYR:539:OH:9846, H-A:GLY:454:N:4045, V-B:TYR:539:CD1:9841, V-B:TYR:539:CG:9840, V-B:ILE:538:CG2:9831"]

$$$$
RR19_Rahimova_2017
     RDKit          3D

 46 51  0  0  0  0  0  0  0  0999 V2000
  126.0670  129.4300   60.8920 O   0  0  0  0  0  0  0  0  0  0  0  0
  127.3000  129.4920   60.8660 C   0  0  0  0  0  0  0  0  0  0  0  0
  128.1530  128.4420   60.9720 N   0  0  0  0  0  0  0  0  0  0  0  0
  127.9740  127.0820   60.9170 C   0  0  0  0  0  0  0  0  0  0  0  0
  126.5560  126.2930   60.4340 S   0  0  0  0  0  0  0  0  0  0  0  0
  129.1350  126.4690   61.3190 N   0  0  0  0  0  0  0  0  0  0  0  0
  129.5460  125.1760   61.3190 C   0  0  0  0  0  0  0  0  0  0  0  0
  128.9860  124.2310   60.7580 O   0  0  0  0  0  0  0  0  0  0  0  0
  130.8360  124.9260   62.1380 C   0  0  2  0  0  0  0  0  0  0  0  0
  131.5490  123.5750   61.8390 C   0  0  0  0  0  0  0  0  0  0  0  0
  132.2630  123.5030   60.4990 C   0  0  0  0  0  0  0  0  0  0  0  0
  132.8460  122.2970   60.0530 C   0  0  0  0  0  0  0  0  0  0  0  0
  133.4250  122.2290   58.7930 C   0  0  0  0  0  0  0  0  0  0  0  0
  133.4180  123.3400   57.9580 C   0  0  0  0  0  0  0  0  0  0  0  0
  132.8210  124.5240   58.3710 C   0  0  0  0  0  0  0  0  0  0  0  0
  132.2350  124.6120   59.6270 C   0  0  0  0  0  0  0  0  0  0  0  0
  130.5940  125.1050   63.5960 N   0  0  0  0  0  0  0  0  0  0  0  0
  130.3640  126.3380   64.1300 C   0  0  0  0  0  0  0  0  0  0  0  0
  130.3520  127.4190   63.5370 O   0  0  0  0  0  0  0  0  0  0  0  0
  130.1260  126.1060   65.5760 C   0  0  0  0  0  0  0  0  0  0  0  0
  129.8470  126.9980   66.6120 C   0  0  0  0  0  0  0  0  0  0  0  0
  129.6580  126.4890   67.9020 C   0  0  0  0  0  0  0  0  0  0  0  0
  129.7470  125.1100   68.1370 C   0  0  0  0  0  0  0  0  0  0  0  0
  130.0270  124.2320   67.0840 C   0  0  0  0  0  0  0  0  0  0  0  0
  130.2140  124.7600   65.8060 C   0  0  0  0  0  0  0  0  0  0  0  0
  130.5090  124.0950   64.5130 C   0  0  0  0  0  0  0  0  0  0  0  0
  130.6390  122.8860   64.3110 O   0  0  0  0  0  0  0  0  0  0  0  0
  127.9940  130.8720   60.7130 C   0  0  2  0  0  0  0  0  0  0  0  0
  127.3050  131.8140   59.6830 C   0  0  0  0  0  0  0  0  0  0  0  0
  128.0980  132.0140   58.4050 C   0  0  0  0  0  0  0  0  0  0  0  0
  129.1880  132.9120   58.3810 C   0  0  0  0  0  0  0  0  0  0  0  0
  129.9740  133.0180   57.2410 C   0  0  0  0  0  0  0  0  0  0  0  0
  129.7120  132.2240   56.1320 C   0  0  0  0  0  0  0  0  0  0  0  0
  128.6670  131.3080   56.1550 C   0  0  0  0  0  0  0  0  0  0  0  0
  127.8680  131.1880   57.2850 C   0  0  0  0  0  0  0  0  0  0  0  0
  129.4610  130.7710   60.4650 N   0  0  0  0  0  0  0  0  0  0  0  0
  130.3620  131.4840   61.1970 C   0  0  0  0  0  0  0  0  0  0  0  0
  130.1220  132.2830   62.1030 O   0  0  0  0  0  0  0  0  0  0  0  0
  131.6930  131.0940   60.6700 C   0  0  0  0  0  0  0  0  0  0  0  0
  132.9770  131.5070   61.0320 C   0  0  0  0  0  0  0  0  0  0  0  0
  134.0720  130.9590   60.3540 C   0  0  0  0  0  0  0  0  0  0  0  0
  133.8740  130.0160   59.3380 C   0  0  0  0  0  0  0  0  0  0  0  0
  132.5790  129.6130   58.9910 C   0  0  0  0  0  0  0  0  0  0  0  0
  131.5000  130.1730   59.6780 C   0  0  0  0  0  0  0  0  0  0  0  0
  130.0400  129.9480   59.5420 C   0  0  0  0  0  0  0  0  0  0  0  0
  129.4730  129.1820   58.7620 O   0  0  0  0  0  0  0  0  0  0  0  0
  1  2  2  0
  2  3  1  0
  3  4  1  0
  4  5  2  0
  4  6  1  0
  6  7  1  0
  7  8  2  0
  7  9  1  0
  9 10  1  1
 10 11  1  0
 11 12  2  0
 12 13  1  0
 13 14  2  0
 14 15  1  0
 15 16  2  0
  9 17  1  0
 17 18  1  0
 18 19  2  0
 18 20  1  0
 20 21  2  0
 21 22  1  0
 22 23  2  0
 23 24  1  0
 24 25  2  0
 25 26  1  0
 26 27  2  0
  2 28  1  0
 28 29  1  6
 29 30  1  0
 30 31  2  0
 31 32  1  0
 32 33  2  0
 33 34  1  0
 34 35  2  0
 28 36  1  0
 36 37  1  0
 37 38  2  0
 37 39  1  0
 39 40  2  0
 40 41  1  0
 41 42  2  0
 42 43  1  0
 43 44  2  0
 44 45  1  0
 45 46  2  0
 16 11  1  0
 26 17  1  0
 35 30  1  0
 45 36  1  0
 25 20  1  0
 44 39  1  0
M  END
>  <Binding energies>  (73) 
[-10.33]

>  <Ligand effiencies>  (73) 
[-0.21520833333333333]

>  <Interactions>  (73) 
["V-B:TYR:539:CE2:9844, V-B:GLU:543:CD:9876, V-A:PRO:540:N:4879, V-A:ASN:362:C:3167, V-A:TYR:539:CE2:4871, V-A:PRO:540:CA:4878, V-A:TYR:539:CE1:4870, V-A:ASP:366:CB:3207, H-A:ALA:541:N:4886, V-A:TYR:539:CZ:4872, V-A:PRO:540:CB:4880, V-A:TYR:539:C:4862, V-A:ASN:362:CB:3171, V-A:LEU:363:CA:3180, V-A:PRO:540:CD:4882, V-A:ASP:366:CG:3208, V-A:GLU:543:CD:4903, H-A:TYR:484:OH:4343, V-B:GLU:543:CG:9875, V-A:TYR:484:CE1:4340, V-A:TYR:539:CD2:4869, V-A:TYR:539:CD1:4868, V-A:TYR:539:CG:4867, V-A:TYR:539:CA:4864, V-A:TYR:484:CZ:4342, V-B:GLU:543:CA:9872, V-A:HIS:456:CE1:4064, V-B:GLU:543:CB:9874, V-B:GLU:543:C:9870, V-A:ILE:369:CD1:3234, V-A:ILE:369:CG2:3232, V-A:ILE:369:CB:3231, V-A:ASN:362:CA:3169"]

$$$$
RR1_Rahimova_2017
     RDKit          3D

 41 44  0  0  0  0  0  0  0  0999 V2000
  123.7470  124.7810   57.5610 C   0  0  0  0  0  0  0  0  0  0  0  0
  125.0660  124.7680   57.0250 O   0  0  0  0  0  0  0  0  0  0  0  0
  126.0620  124.0930   57.7030 C   0  0  0  0  0  0  0  0  0  0  0  0
  127.0440  123.3020   57.0850 C   0  0  0  0  0  0  0  0  0  0  0  0
  128.0060  122.6520   57.8520 C   0  0  0  0  0  0  0  0  0  0  0  0
  128.0100  122.7840   59.2420 C   0  0  0  0  0  0  0  0  0  0  0  0
  128.9940  122.0520   59.9320 N   0  0  0  0  0  0  0  0  0  0  0  0
  129.5400  122.2840   61.1450 C   0  0  0  0  0  0  0  0  0  0  0  0
  129.2960  123.2650   61.8480 O   0  0  0  0  0  0  0  0  0  0  0  0
  130.5310  121.2080   61.6180 C   0  0  0  0  0  0  0  0  0  0  0  0
  131.9800  120.9490   60.5360 S   0  0  0  0  0  0  0  0  0  0  0  0
  131.9280  122.4930   59.6910 C   0  0  0  0  0  0  0  0  0  0  0  0
  131.1090  122.7670   58.7070 N   0  0  0  0  0  0  0  0  0  0  0  0
  131.4040  124.0220   58.3870 C   0  0  0  0  0  0  0  0  0  0  0  0
  130.6850  124.7640   57.2960 C   0  0  0  0  0  0  0  0  0  0  0  0
  129.8420  125.8500   57.5780 C   0  0  0  0  0  0  0  0  0  0  0  0
  129.1850  126.5180   56.5440 C   0  0  0  0  0  0  0  0  0  0  0  0
  129.3880  126.0810   55.2360 C   0  0  0  0  0  0  0  0  0  0  0  0
  130.1950  125.0350   54.9270 N   0  0  0  0  0  0  0  0  0  0  0  0
  130.8260  124.4000   55.9470 C   0  0  0  0  0  0  0  0  0  0  0  0
  132.3700  124.5750   59.0960 N   0  0  0  0  0  0  0  0  0  0  0  0
  132.7100  123.5930   59.9360 N   0  0  0  0  0  0  0  0  0  0  0  0
  133.7560  123.8000   60.9370 C   0  0  0  0  0  0  0  0  0  0  0  0
  133.2460  124.0900   62.3590 C   0  0  0  0  0  0  0  0  0  0  0  0
  134.0370  124.2530   63.2950 O   0  0  0  0  0  0  0  0  0  0  0  0
  131.9060  124.1450   62.4820 N   0  0  0  0  0  0  0  0  0  0  0  0
  131.3760  124.5470   63.7000 N   0  0  0  0  0  0  0  0  0  0  0  0
  130.3660  125.4440   63.6830 C   0  0  0  0  0  0  0  0  0  0  0  0
  129.8160  125.8490   62.6530 O   0  0  0  0  0  0  0  0  0  0  0  0
  129.8980  125.9310   65.0400 C   0  0  0  0  0  0  0  0  0  0  0  0
  130.1820  125.1810   66.1870 C   0  0  0  0  0  0  0  0  0  0  0  0
  129.7520  125.6030   67.4400 C   0  0  0  0  0  0  0  0  0  0  0  0
  129.0160  126.7900   67.5850 C   0  0  0  0  0  0  0  0  0  0  0  0
  128.5470  127.2580   68.8000 O   0  0  0  0  0  0  0  0  0  0  0  0
  127.1970  127.0090   69.1740 C   0  0  0  0  0  0  0  0  0  0  0  0
  128.7150  127.5510   66.4480 C   0  0  0  0  0  0  0  0  0  0  0  0
  127.9690  128.7020   66.6420 O   0  0  0  0  0  0  0  0  0  0  0  0
  128.6040  129.8780   67.1310 C   0  0  0  0  0  0  0  0  0  0  0  0
  129.1610  127.1170   65.1870 C   0  0  0  0  0  0  0  0  0  0  0  0
  127.0310  123.5750   59.8630 C   0  0  0  0  0  0  0  0  0  0  0  0
  126.0710  124.2240   59.0920 C   0  0  0  0  0  0  0  0  0  0  0  0
  1  2  1  0
  2  3  1  0
  3  4  2  0
  4  5  1  0
  5  6  2  0
  6  7  1  0
  7  8  1  0
  8  9  2  0
  8 10  1  0
 10 11  1  0
 11 12  1  0
 12 13  2  0
 13 14  1  0
 14 15  1  0
 15 16  2  0
 16 17  1  0
 17 18  2  0
 18 19  1  0
 19 20  2  0
 14 21  2  0
 21 22  1  0
 22 23  1  0
 23 24  1  0
 24 25  2  0
 24 26  1  0
 26 27  1  0
 27 28  1  0
 28 29  2  0
 28 30  1  0
 30 31  2  0
 31 32  1  0
 32 33  2  0
 33 34  1  0
 34 35  1  0
 33 36  1  0
 36 37  1  0
 37 38  1  0
 36 39  2  0
  6 40  1  0
 40 41  2  0
 41  3  1  0
 22 12  1  0
 39 30  1  0
 20 15  1  0
M  END
>  <Binding energies>  (74) 
[-7.92]

>  <Ligand effiencies>  (74) 
[-0.18]

>  <Interactions>  (74) 
["V-B:TYR:539:C:9835, V-A:LEU:475:CD2:4254, V-B:TYR:539:CE2:9844, V-B:PRO:540:N:9852, V-B:ALA:541:CB:9860, H-B:TYR:539:O:9836, V-B:PRO:540:CA:9851, V-B:MET:535:CE:9803, V-B:GLU:543:CD:9876, V-A:GLU:543:CG:4902, V-A:ASP:366:CB:3207, V-A:ASP:366:CG:3208, V-A:GLU:543:CD:4903, H-A:TYR:484:OH:4343, V-B:GLU:543:CG:9875, V-B:ASP:366:CG:8180, V-B:LEU:363:CD1:8156, V-B:TYR:531:CZ:9762, V-B:TYR:539:CZ:9845, V-B:TYR:531:CE2:9761, V-B:ASP:366:CB:8179, V-B:LEU:363:CA:8152, V-A:GLU:543:CB:4901, V-B:TYR:484:CE1:9312, V-B:HIS:456:CE1:9037, V-A:HIS:456:CE1:4064, V-B:GLU:543:CB:9874, V-B:GLU:543:C:9870, V-A:ILE:369:CD1:3234, V-A:TYR:531:CE1:4787, H-B:TYR:539:OH:9846, H-A:GLY:454:N:4045, H-A:LYS:534:NZ:4818, H-B:TYR:531:OH:9763"]

$$$$
RR22_Rahimova_2017
     RDKit          3D

 31 36  0  0  0  0  0  0  0  0999 V2000
  130.4540  118.5460   61.5710 O   0  0  0  0  0  0  0  0  0  0  0  0
  130.6270  119.7530   61.4190 C   0  0  0  0  0  0  0  0  0  0  0  0
  130.9390  120.4200   60.2470 N   0  0  0  0  0  0  0  0  0  0  0  0
  131.0470  121.8470   60.2270 C   0  0  1  0  0  0  0  0  0  0  0  0
  132.3530  122.1160   59.7080 O   0  0  0  0  0  0  0  0  0  0  0  0
  132.4590  122.8660   58.5370 C   0  0  0  0  0  0  0  0  0  0  0  0
  133.6790  122.8010   57.8640 C   0  0  0  0  0  0  0  0  0  0  0  0
  133.8740  123.5550   56.7070 C   0  0  0  0  0  0  0  0  0  0  0  0
  132.8540  124.3780   56.2290 C   0  0  0  0  0  0  0  0  0  0  0  0
  131.6330  124.4450   56.9030 C   0  0  0  0  0  0  0  0  0  0  0  0
  131.4140  123.6760   58.0500 C   0  0  0  0  0  0  0  0  0  0  0  0
  130.1470  123.7090   58.8740 C   0  0  1  0  0  0  0  0  0  0  0  0
  128.7840  123.9590   58.2610 C   0  0  0  0  0  0  0  0  0  0  0  0
  127.9100  123.1570   59.2300 C   0  0  0  0  0  0  0  0  0  0  0  0
  126.4510  123.3570   59.3420 C   0  0  0  0  0  0  0  0  0  0  0  0
  125.8380  123.4420   60.6010 C   0  0  0  0  0  0  0  0  0  0  0  0
  124.4620  123.6320   60.7010 C   0  0  0  0  0  0  0  0  0  0  0  0
  123.6930  123.7370   59.5450 C   0  0  0  0  0  0  0  0  0  0  0  0
  124.2870  123.6550   58.2890 C   0  0  0  0  0  0  0  0  0  0  0  0
  125.6620  123.4670   58.1870 C   0  0  0  0  0  0  0  0  0  0  0  0
  128.6070  122.3040   59.8820 N   0  0  0  0  0  0  0  0  0  0  0  0
  129.9380  122.4120   59.4450 N   0  0  0  0  0  0  0  0  0  0  0  0
  131.0410  122.3040   61.6780 C   0  0  0  0  0  0  0  0  0  0  0  0
  131.4620  123.5300   62.0670 C   0  0  0  0  0  0  0  0  0  0  0  0
  131.4910  124.1040   63.4260 C   0  0  0  0  0  0  0  0  0  0  0  0
  132.4640  125.0200   63.8520 C   0  0  0  0  0  0  0  0  0  0  0  0
  132.4280  125.5220   65.1540 C   0  0  0  0  0  0  0  0  0  0  0  0
  131.4140  125.0850   66.0070 C   0  0  0  0  0  0  0  0  0  0  0  0
  130.4650  124.1940   65.6250 N   0  0  0  0  0  0  0  0  0  0  0  0
  130.5160  123.7190   64.3540 C   0  0  0  0  0  0  0  0  0  0  0  0
  130.5130  120.9930   62.7440 S   0  0  0  0  0  0  0  0  0  0  0  0
  1  2  2  0
  2  3  1  0
  4  3  1  1
  4  5  1  0
  5  6  1  0
  6  7  2  0
  7  8  1  0
  8  9  2  0
  9 10  1  0
 10 11  2  0
 11 12  1  0
 12 13  1  6
 13 14  1  0
 14 15  1  0
 15 16  2  0
 16 17  1  0
 17 18  2  0
 18 19  1  0
 19 20  2  0
 14 21  2  0
 21 22  1  0
  4 23  1  0
 23 24  2  0
 24 25  1  0
 25 26  2  0
 26 27  1  0
 27 28  2  0
 28 29  1  0
 29 30  2  0
 23 31  1  0
 31  2  1  0
 22  4  1  0
 30 25  1  0
 11  6  1  0
 22 12  1  0
 20 15  1  0
M  END
>  <Binding energies>  (75) 
[-8.7]

>  <Ligand effiencies>  (75) 
[-0.271875]

>  <Interactions>  (75) 
["V-B:TYR:539:CD2:9842, V-A:LEU:475:CD2:4254, V-B:PRO:540:C:9849, V-B:TYR:539:CE2:9844, V-B:PRO:540:N:9852, V-B:ALA:541:CB:9860, H-B:TYR:539:O:9836, V-B:PRO:540:CA:9851, V-B:PRO:540:CB:9853, V-A:TYR:531:CZ:4789, H-A:TYR:484:OH:4343, V-B:GLU:543:CG:9875, V-B:LEU:363:CB:8154, V-B:ASP:366:CG:8180, V-B:LEU:363:CD1:8156, V-B:TYR:539:CZ:9845, V-B:LEU:363:CA:8152, V-A:TYR:484:CZ:4342, V-A:ILE:369:CD1:3234, V-A:ILE:369:CG2:3232, V-A:ILE:369:CB:3231, V-A:TYR:531:CE1:4787, V-B:ASN:362:CB:8143, V-A:ASP:366:C:3203, V-A:ASN:370:CB:3240, V-B:ASN:362:C:8139, V-A:ASN:370:CA:3238"]

$$$$
RR24_Rahimova_2017
     RDKit          3D

 43 49  0  0  0  0  0  0  0  0999 V2000
  128.0730  134.8970   61.8010 C   0  0  0  0  0  0  0  0  0  0  0  0
  127.9200  133.3690   61.8090 C   0  0  2  0  0  0  0  0  0  0  0  0
  127.6800  132.7830   63.2310 C   0  0  0  0  0  0  0  0  0  0  0  0
  128.2300  133.2490   64.2340 O   0  0  0  0  0  0  0  0  0  0  0  0
  126.8340  131.7110   63.2190 O   0  0  0  0  0  0  0  0  0  0  0  0
  127.2320  130.5260   63.7950 C   0  0  0  0  0  0  0  0  0  0  0  0
  127.9150  130.5520   65.0130 C   0  0  0  0  0  0  0  0  0  0  0  0
  128.3130  129.3600   65.6100 C   0  0  0  0  0  0  0  0  0  0  0  0
  128.0230  128.1370   64.9990 C   0  0  0  0  0  0  0  0  0  0  0  0
  128.4810  126.8280   65.6520 C   0  0  1  0  0  0  0  0  0  0  0  0
  129.9010  126.4190   65.1930 C   0  0  0  0  0  0  0  0  0  0  0  0
  130.8820  126.1020   66.0570 C   0  0  0  0  0  0  0  0  0  0  0  0
  130.6940  126.1190   67.4180 N   0  0  0  0  0  0  0  0  0  0  0  0
  129.4820  126.4670   67.9670 C   0  0  0  0  0  0  0  0  0  0  0  0
  129.4590  126.4260   69.3240 N   0  0  0  0  0  0  0  0  0  0  0  0
  128.3720  126.8120   70.0450 C   0  0  0  0  0  0  0  0  0  0  0  0
  128.5020  127.0590   71.2460 O   0  0  0  0  0  0  0  0  0  0  0  0
  127.2400  127.0460   69.2800 N   0  0  0  0  0  0  0  0  0  0  0  0
  126.0060  127.3810   70.0220 C   0  0  0  0  0  0  0  0  0  0  0  0
  127.1520  127.1150   67.9000 C   0  0  0  0  0  0  0  0  0  0  0  0
  126.1160  127.3810   67.2840 O   0  0  0  0  0  0  0  0  0  0  0  0
  128.4110  126.8150   67.2080 C   0  0  0  0  0  0  0  0  0  0  0  0
  132.1050  125.7600   65.3500 C   0  0  0  0  0  0  0  0  0  0  0  0
  133.3760  125.3740   65.7770 C   0  0  0  0  0  0  0  0  0  0  0  0
  134.3640  125.1080   64.8260 C   0  0  0  0  0  0  0  0  0  0  0  0
  134.0780  125.2260   63.4620 C   0  0  0  0  0  0  0  0  0  0  0  0
  132.8030  125.6120   63.0400 C   0  0  0  0  0  0  0  0  0  0  0  0
  131.8200  125.8780   63.9950 C   0  0  0  0  0  0  0  0  0  0  0  0
  130.4110  126.2940   63.8320 C   0  0  0  0  0  0  0  0  0  0  0  0
  129.7670  126.5030   62.8060 O   0  0  0  0  0  0  0  0  0  0  0  0
  127.3220  128.1130   63.7880 C   0  0  0  0  0  0  0  0  0  0  0  0
  126.9220  129.3050   63.1910 C   0  0  0  0  0  0  0  0  0  0  0  0
  129.0430  132.6890   61.0970 N   0  0  0  0  0  0  0  0  0  0  0  0
  129.0170  132.4940   59.7480 C   0  0  0  0  0  0  0  0  0  0  0  0
  128.1240  132.8150   58.9630 O   0  0  0  0  0  0  0  0  0  0  0  0
  130.2940  131.8090   59.4240 C   0  0  0  0  0  0  0  0  0  0  0  0
  130.8070  131.3630   58.2060 C   0  0  0  0  0  0  0  0  0  0  0  0
  132.0620  130.7430   58.1950 C   0  0  0  0  0  0  0  0  0  0  0  0
  132.7780  130.5790   59.3870 C   0  0  0  0  0  0  0  0  0  0  0  0
  132.2470  131.0340   60.5990 C   0  0  0  0  0  0  0  0  0  0  0  0
  130.9940  131.6490   60.5890 C   0  0  0  0  0  0  0  0  0  0  0  0
  130.1850  132.2260   61.6910 C   0  0  0  0  0  0  0  0  0  0  0  0
  130.4820  132.2800   62.8850 O   0  0  0  0  0  0  0  0  0  0  0  0
  2  1  1  1
  2  3  1  0
  3  4  2  0
  3  5  1  0
  5  6  1  0
  6  7  2  0
  7  8  1  0
  8  9  2  0
 10  9  1  1
 10 11  1  0
 11 12  2  0
 12 13  1  0
 13 14  1  0
 14 15  1  0
 15 16  1  0
 16 17  2  0
 16 18  1  0
 18 19  1  0
 18 20  1  0
 20 21  2  0
 20 22  1  0
 12 23  1  0
 23 24  2  0
 24 25  1  0
 25 26  2  0
 26 27  1  0
 27 28  2  0
 28 29  1  0
 29 30  2  0
  9 31  1  0
 31 32  2  0
  2 33  1  0
 33 34  1  0
 34 35  2  0
 34 36  1  0
 36 37  2  0
 37 38  1  0
 38 39  2  0
 39 40  1  0
 40 41  2  0
 41 42  1  0
 42 43  2  0
 32  6  1  0
 42 33  1  0
 22 10  1  0
 28 23  1  0
 41 36  1  0
 29 11  1  0
 22 14  2  0
M  END
>  <Binding energies>  (76) 
[-10.1]

>  <Ligand effiencies>  (76) 
[-0.22444444444444445]

>  <Interactions>  (76) 
["V-B:GLU:543:CD:9876, V-A:GLU:543:CG:4902, V-A:PRO:540:CA:4878, V-A:PRO:540:C:4876, V-A:ALA:541:CA:4885, H-A:ALA:541:N:4886, V-A:PRO:540:CB:4880, V-A:ASP:366:CG:3208, V-A:GLU:543:CD:4903, V-B:GLU:543:CG:9875, V-B:LEU:475:CD2:9226, V-A:ALA:541:CB:4887, V-B:HIS:456:CE1:9037, V-B:TYR:484:CZ:9314, V-B:ARG:545:CG:9890, H-B:TYR:484:OH:9315, H-B:GLU:543:O:9871, V-A:HIS:456:CE1:4064, V-B:GLU:543:CB:9874, H-B:LYS:547:NZ:9919, V-B:HIS:456:CD2:9035, V-B:GLU:543:C:9870, V-B:HIS:456:CG:9033, V-A:ARG:545:CZ:4921, V-A:GLY:453:CA:4039, V-A:ARG:545:CD:4918, V-B:GLY:544:C:9880, V-A:GLY:453:C:4037, V-B:ARG:545:CA:9887, H-A:HIS:456:ND1:4062"]

$$$$
RR25_Rahimova_2017
     RDKit          3D

 39 44  0  0  0  0  0  0  0  0999 V2000
  133.7160  125.1630   66.3940 O   0  0  0  0  0  0  0  0  0  0  0  0
  132.6360  125.5190   65.9210 C   0  0  0  0  0  0  0  0  0  0  0  0
  131.6090  125.6920   66.8160 O   0  0  0  0  0  0  0  0  0  0  0  0
  130.4330  126.3220   66.4530 C   0  0  0  0  0  0  0  0  0  0  0  0
  129.7110  126.9390   67.4730 C   0  0  0  0  0  0  0  0  0  0  0  0
  128.5120  127.5850   67.1780 C   0  0  0  0  0  0  0  0  0  0  0  0
  128.0180  127.6210   65.8660 C   0  0  0  0  0  0  0  0  0  0  0  0
  126.7450  128.3170   65.5540 N   0  0  0  0  0  0  0  0  0  0  0  0
  125.6880  127.7830   65.8810 O   0  0  0  0  0  0  0  0  0  0  0  0
  126.7940  129.4010   64.9810 O   0  0  0  0  0  0  0  0  0  0  0  0
  128.7550  126.9830   64.8550 C   0  0  0  0  0  0  0  0  0  0  0  0
  129.9540  126.3230   65.1350 C   0  0  0  0  0  0  0  0  0  0  0  0
  130.7920  125.6280   64.0760 C   0  0  0  0  0  0  0  0  0  0  0  0
  132.3010  125.7750   64.4230 C   0  0  2  0  0  0  0  0  0  0  0  0
  133.1870  124.9910   63.4130 C   0  0  0  0  0  0  0  0  0  0  0  0
  134.1430  124.3750   63.8940 O   0  0  0  0  0  0  0  0  0  0  0  0
  132.8600  124.8810   62.0900 N   0  0  0  0  0  0  0  0  0  0  0  0
  131.9410  125.8200   61.4120 C   0  0  0  0  0  0  0  0  0  0  0  0
  131.0930  125.0390   60.3860 C   0  0  0  0  0  0  0  0  0  0  0  0
  131.9390  124.2950   59.4480 N   0  0  0  0  0  0  0  0  0  0  0  0
  131.1410  123.6590   58.3910 C   0  0  0  0  0  0  0  0  0  0  0  0
  130.2610  122.4940   58.9190 C   0  0  0  0  0  0  0  0  0  0  0  0
  128.7990  122.7740   59.0280 N   0  0  0  0  0  0  0  0  0  0  0  0
  128.3010  122.8110   60.3130 C   0  0  0  0  0  0  0  0  0  0  0  0
  128.9930  122.5940   61.3140 O   0  0  0  0  0  0  0  0  0  0  0  0
  126.8280  123.1610   60.4090 C   0  0  0  0  0  0  0  0  0  0  0  0
  126.2240  123.2520   61.6700 C   0  0  0  0  0  0  0  0  0  0  0  0
  124.8750  123.5790   61.7960 C   0  0  0  0  0  0  0  0  0  0  0  0
  124.0900  123.8280   60.6710 C   0  0  0  0  0  0  0  0  0  0  0  0
  124.6570  123.7480   59.3770 C   0  0  0  0  0  0  0  0  0  0  0  0
  123.9190  123.9900   58.1940 C   0  0  0  0  0  0  0  0  0  0  0  0
  124.5410  123.8970   56.9500 C   0  0  0  0  0  0  0  0  0  0  0  0
  125.8900  123.5650   56.8470 C   0  0  0  0  0  0  0  0  0  0  0  0
  126.6600  123.3170   57.9910 C   0  0  0  0  0  0  0  0  0  0  0  0
  126.0350  123.4110   59.2610 C   0  0  0  0  0  0  0  0  0  0  0  0
  128.1280  122.9680   57.8380 C   0  0  0  0  0  0  0  0  0  0  0  0
  128.6700  122.8840   56.7310 O   0  0  0  0  0  0  0  0  0  0  0  0
  132.7480  123.3160   60.1780 C   0  0  0  0  0  0  0  0  0  0  0  0
  133.6680  123.9980   61.2180 C   0  0  0  0  0  0  0  0  0  0  0  0
  1  2  2  0
  2  3  1  0
  3  4  1  0
  4  5  2  0
  5  6  1  0
  6  7  2  0
  7  8  1  0
  8  9  2  0
  8 10  1  0
  7 11  1  0
 11 12  2  0
 12 13  1  0
 13 14  1  0
 14 15  1  6
 15 16  2  0
 15 17  1  0
 17 18  1  0
 18 19  1  0
 19 20  1  0
 20 21  1  0
 21 22  1  0
 22 23  1  0
 23 24  1  0
 24 25  2  0
 24 26  1  0
 26 27  2  0
 27 28  1  0
 28 29  2  0
 29 30  1  0
 30 31  2  0
 31 32  1  0
 32 33  2  0
 33 34  1  0
 34 35  2  0
 34 36  1  0
 36 37  2  0
 20 38  1  0
 38 39  1  0
 14  2  1  0
 39 17  1  0
 12  4  1  0
 36 23  1  0
 35 26  1  0
 35 30  1  0
M  CHG  2   8   1  10  -1
M  END
>  <Binding energies>  (77) 
[-10.73]

>  <Ligand effiencies>  (77) 
[-0.2751282051282051]

>  <Interactions>  (77) 
["V-B:TYR:539:C:9835, V-B:TYR:539:CD2:9842, V-B:PRO:540:C:9849, V-B:TYR:539:CE2:9844, V-B:PRO:540:N:9852, V-B:PRO:540:CA:9851, V-B:MET:535:CE:9803, V-B:PRO:540:CB:9853, V-B:GLU:543:CD:9876, V-B:ALA:541:CA:9858, V-A:ASP:366:CG:3208, H-A:TYR:484:OH:4343, V-B:GLU:543:CG:9875, V-B:LEU:363:CB:8154, V-B:ASP:366:CG:8180, V-B:LEU:363:CD1:8156, V-B:TYR:531:CE2:9761, V-B:LEU:363:CA:8152, H-B:TYR:484:OH:9315, V-A:HIS:456:CE1:4064, H-A:HIS:456:NE2:4065, V-A:ILE:369:CD1:3234, H-B:ARG:545:NE:9892, V-B:ASN:362:CB:8143, V-A:ARG:545:CZ:4921, H-A:GLY:454:N:4045, V-B:ASN:362:C:8139"]

$$$$
RR27_Rahimova_2017
     RDKit          3D

 39 44  0  0  0  0  0  0  0  0999 V2000
  130.3340  123.0760   57.6110 O   0  0  0  0  0  0  0  0  0  0  0  0
  129.4020  123.2250   58.4070 C   0  0  0  0  0  0  0  0  0  0  0  0
  128.3380  124.3190   58.1010 C   0  0  0  0  0  0  0  0  0  0  0  0
  126.9590  123.7370   57.7390 C   0  0  0  0  0  0  0  0  0  0  0  0
  125.7710  124.2570   58.2760 C   0  0  0  0  0  0  0  0  0  0  0  0
  124.5410  123.7080   57.9260 C   0  0  0  0  0  0  0  0  0  0  0  0
  124.4920  122.6370   57.0380 C   0  0  0  0  0  0  0  0  0  0  0  0
  125.6610  122.1090   56.4990 C   0  0  0  0  0  0  0  0  0  0  0  0
  126.8910  122.6580   56.8490 C   0  0  0  0  0  0  0  0  0  0  0  0
  128.8730  125.3780   57.1180 C   0  0  0  0  0  0  0  0  0  0  0  0
  129.0690  126.7110   57.5060 C   0  0  0  0  0  0  0  0  0  0  0  0
  129.5440  127.6450   56.5880 C   0  0  0  0  0  0  0  0  0  0  0  0
  129.8190  127.2530   55.2810 C   0  0  0  0  0  0  0  0  0  0  0  0
  129.6180  125.9350   54.8800 C   0  0  0  0  0  0  0  0  0  0  0  0
  129.1430  125.0020   55.7970 C   0  0  0  0  0  0  0  0  0  0  0  0
  129.2060  122.3660   59.4480 N   0  0  0  0  0  0  0  0  0  0  0  0
  128.2810  122.6360   60.5590 C   0  0  0  0  0  0  0  0  0  0  0  0
  129.0720  123.4380   61.6160 C   0  0  0  0  0  0  0  0  0  0  0  0
  130.3810  122.7140   62.0670 C   0  0  0  0  0  0  0  0  0  0  0  0
  131.2640  123.5220   63.0360 C   0  0  0  0  0  0  0  0  0  0  0  0
  132.5580  123.7260   62.6510 N   0  0  0  0  0  0  0  0  0  0  0  0
  133.3740  124.4580   63.4590 C   0  0  0  0  0  0  0  0  0  0  0  0
  134.6870  124.7340   63.1800 O   0  0  0  0  0  0  0  0  0  0  0  0
  132.8510  124.9710   64.6610 C   0  0  0  0  0  0  0  0  0  0  0  0
  133.3750  125.7260   65.6700 N   0  0  0  0  0  0  0  0  0  0  0  0
  132.3740  125.9160   66.6040 N   0  0  0  0  0  0  0  0  0  0  0  0
  131.2530  125.2970   66.1740 N   0  0  0  0  0  0  0  0  0  0  0  0
  130.0390  125.3160   66.9850 C   0  0  0  0  0  0  0  0  0  0  0  0
  129.4210  126.7000   67.1310 C   0  0  0  0  0  0  0  0  0  0  0  0
  130.0150  127.6520   67.9660 C   0  0  0  0  0  0  0  0  0  0  0  0
  129.4550  128.9240   68.0900 C   0  0  0  0  0  0  0  0  0  0  0  0
  128.3020  129.2530   67.3780 C   0  0  0  0  0  0  0  0  0  0  0  0
  127.7100  128.3110   66.5350 C   0  0  0  0  0  0  0  0  0  0  0  0
  126.2980  128.7240   65.6310 Cl  0  0  0  0  0  0  0  0  0  0  0  0
  128.2650  127.0360   66.4160 C   0  0  0  0  0  0  0  0  0  0  0  0
  131.5010  124.6820   64.9580 C   0  0  0  0  0  0  0  0  0  0  0  0
  130.6820  123.9620   64.1870 N   0  0  0  0  0  0  0  0  0  0  0  0
  131.1690  122.1270   60.8550 C   0  0  0  0  0  0  0  0  0  0  0  0
  130.2590  121.4100   59.8260 C   0  0  0  0  0  0  0  0  0  0  0  0
  1  2  2  0
  2  3  1  0
  3  4  1  0
  4  5  2  0
  5  6  1  0
  6  7  2  0
  7  8  1  0
  8  9  2  0
  3 10  1  0
 10 11  2  0
 11 12  1  0
 12 13  2  0
 13 14  1  0
 14 15  2  0
  2 16  1  0
 16 17  1  0
 17 18  1  0
 18 19  1  0
 19 20  1  0
 20 21  2  0
 21 22  1  0
 22 23  1  0
 22 24  2  0
 24 25  1  0
 25 26  2  0
 26 27  1  0
 27 28  1  0
 28 29  1  0
 29 30  2  0
 30 31  1  0
 31 32  2  0
 32 33  1  0
 33 34  1  0
 33 35  2  0
 27 36  1  0
 36 37  2  0
 19 38  1  0
 38 39  1  0
  9  4  1  0
 15 10  1  0
 39 16  1  0
 37 20  1  0
 36 24  1  0
 35 29  1  0
M  END
>  <Binding energies>  (78) 
[-10.93]

>  <Ligand effiencies>  (78) 
[-0.27325]

>  <Interactions>  (78) 
["V-B:TYR:539:C:9835, V-B:TYR:539:CD2:9842, V-B:TYR:539:CE2:9844, V-B:PRO:540:N:9852, V-B:PRO:540:CA:9851, V-B:MET:535:CE:9803, V-B:PRO:540:CB:9853, V-B:GLU:543:CD:9876, V-A:GLU:543:CG:4902, V-A:TYR:531:CZ:4789, H-A:TYR:484:OH:4343, V-B:GLU:543:CG:9875, V-B:TYR:539:CA:9837, V-B:PRO:540:CD:9855, V-B:LEU:363:CD1:8156, H-A:ARG:545:NH2:4923, V-A:GLU:543:CB:4901, V-B:HIS:456:CE1:9037, V-A:HIS:456:CE1:4064, H-A:HIS:456:NE2:4065, V-B:GLU:543:CB:9874, V-A:TYR:531:CE1:4787, V-B:PRO:540:CG:9854, H-B:TYR:539:OH:9846, H-A:GLY:454:N:4045, H-A:ARG:545:NH1:4922, H-A:ARG:545:NE:4919, H-A:ASP:366:OD1:3209, H-A:ASP:366:OD2:3210"]

$$$$
RR28_Rahimova_2017
     RDKit          3D

 46 49  0  0  0  0  0  0  0  0999 V2000
  127.4740  136.9390   61.4170 C   0  0  0  0  0  0  0  0  0  0  0  0
  127.6760  135.4300   61.4880 C   0  0  0  0  0  0  0  0  0  0  0  0
  128.6240  134.9740   62.1250 O   0  0  0  0  0  0  0  0  0  0  0  0
  126.7750  134.6740   60.8280 N   0  0  0  0  0  0  0  0  0  0  0  0
  126.7230  133.1990   60.7160 C   0  0  0  0  0  0  0  0  0  0  0  0
  128.0320  132.7190   60.0250 C   0  0  0  0  0  0  0  0  0  0  0  0
  128.2230  132.9760   58.6580 C   0  0  0  0  0  0  0  0  0  0  0  0
  129.3780  132.5570   58.0060 C   0  0  0  0  0  0  0  0  0  0  0  0
  130.3710  131.8690   58.7060 C   0  0  0  0  0  0  0  0  0  0  0  0
  131.6310  131.4130   57.9720 C   0  0  0  0  0  0  0  0  0  0  0  0
  132.6250  131.1110   58.8110 F   0  0  0  0  0  0  0  0  0  0  0  0
  131.3720  130.3330   57.2340 F   0  0  0  0  0  0  0  0  0  0  0  0
  132.0480  132.3920   57.1680 F   0  0  0  0  0  0  0  0  0  0  0  0
  130.1920  131.6050   60.0670 C   0  0  0  0  0  0  0  0  0  0  0  0
  129.0360  132.0250   60.7180 C   0  0  0  0  0  0  0  0  0  0  0  0
  125.4140  132.7490   59.9740 C   0  0  0  0  0  0  0  0  0  0  0  0
  124.1210  133.0670   60.7650 C   0  0  0  0  0  0  0  0  0  0  0  0
  124.2400  132.3710   62.0560 N   0  0  0  0  0  0  0  0  0  0  0  0
  123.7150  131.1260   62.2180 C   0  0  0  0  0  0  0  0  0  0  0  0
  122.9860  130.6090   61.3690 O   0  0  0  0  0  0  0  0  0  0  0  0
  123.9020  130.4060   63.5750 C   0  0  0  0  0  0  0  0  0  0  0  0
  124.9250  129.2370   63.5880 C   0  0  0  0  0  0  0  0  0  0  0  0
  126.3920  129.6520   63.8490 C   0  0  0  0  0  0  0  0  0  0  0  0
  127.0640  130.0370   62.8880 O   0  0  0  0  0  0  0  0  0  0  0  0
  126.8590  129.7140   65.1280 N   0  0  0  0  0  0  0  0  0  0  0  0
  126.2450  128.9920   66.2480 C   0  0  0  0  0  0  0  0  0  0  0  0
  126.8530  127.5730   66.2450 C   0  0  0  0  0  0  0  0  0  0  0  0
  128.4190  127.5300   66.3360 C   0  0  0  0  0  0  0  0  0  0  0  0
  128.8920  126.1910   65.9250 N   0  0  0  0  0  0  0  0  0  0  0  0
  130.0050  125.5440   66.3250 C   0  0  0  0  0  0  0  0  0  0  0  0
  130.2440  124.1680   65.7110 C   0  0  0  0  0  0  0  0  0  0  0  0
  130.8130  125.9970   67.1340 O   0  0  0  0  0  0  0  0  0  0  0  0
  128.8060  127.7270   67.8370 C   0  0  0  0  0  0  0  0  0  0  0  0
  129.8860  128.5280   68.2460 C   0  0  0  0  0  0  0  0  0  0  0  0
  130.1970  128.6780   69.5950 C   0  0  0  0  0  0  0  0  0  0  0  0
  129.4390  128.0280   70.5700 C   0  0  0  0  0  0  0  0  0  0  0  0
  129.7650  128.1860   72.0550 C   0  0  0  0  0  0  0  0  0  0  0  0
  130.7790  127.3900   72.4010 F   0  0  0  0  0  0  0  0  0  0  0  0
  130.1160  129.4500   72.2930 F   0  0  0  0  0  0  0  0  0  0  0  0
  128.7240  127.8870   72.8340 F   0  0  0  0  0  0  0  0  0  0  0  0
  128.3680  127.2220   70.1800 C   0  0  0  0  0  0  0  0  0  0  0  0
  128.0590  127.0750   68.8310 C   0  0  0  0  0  0  0  0  0  0  0  0
  129.0190  128.6400   65.3880 C   0  0  0  0  0  0  0  0  0  0  0  0
  128.2770  130.0040   65.3810 C   0  0  0  0  0  0  0  0  0  0  0  0
  125.3300  132.8870   62.8970 C   0  0  0  0  0  0  0  0  0  0  0  0
  126.6580  132.5870   62.1530 C   0  0  0  0  0  0  0  0  0  0  0  0
  1  2  1  0
  2  3  2  0
  2  4  1  0
  4  5  1  0
  5  6  1  0
  6  7  2  0
  7  8  1  0
  8  9  2  0
  9 10  1  0
 10 11  1  0
 10 12  1  0
 10 13  1  0
  9 14  1  0
 14 15  2  0
  5 16  1  0
 16 17  1  0
 17 18  1  0
 18 19  1  0
 19 20  2  0
 19 21  1  0
 21 22  1  0
 22 23  1  0
 23 24  2  0
 23 25  1  0
 25 26  1  0
 26 27  1  0
 27 28  1  0
 28 29  1  0
 29 30  1  0
 30 31  1  0
 30 32  2  0
 28 33  1  0
 33 34  2  0
 34 35  1  0
 35 36  2  0
 36 37  1  0
 37 38  1  0
 37 39  1  0
 37 40  1  0
 36 41  1  0
 41 42  2  0
 28 43  1  0
 43 44  1  0
 18 45  1  0
 45 46  1  0
 46  5  1  0
 15  6  1  0
 44 25  1  0
 42 33  1  0
M  END
>  <Binding energies>  (79) 
[-9.32]

>  <Ligand effiencies>  (79) 
[-0.19416666666666668]

>  <Interactions>  (79) 
["H-B:GLU:543:OE1:9877, H-B:GLU:543:OE2:9878, V-B:GLU:543:CD:9876, V-A:GLU:543:CG:4902, V-A:PRO:540:N:4879, V-A:TYR:531:CZ:4789, V-A:TYR:539:CE2:4871, V-A:PRO:540:CG:4881, V-A:PRO:540:CA:4878, V-A:TYR:539:CE1:4870, H-A:ALA:541:N:4886, V-A:TYR:539:CZ:4872, V-A:PRO:540:CB:4880, V-A:LEU:363:CD1:3184, V-A:TYR:539:C:4862, V-A:PRO:540:CD:4882, V-A:GLU:543:CD:4903, V-B:GLU:543:CG:9875, V-A:TYR:484:CE1:4340, V-A:TYR:539:CD2:4869, V-B:ILE:369:CD1:8206, V-B:LEU:475:CD2:9226, V-B:TRP:381:CH2:8339, V-A:TYR:539:CD1:4868, V-A:ALA:541:CB:4887, V-A:TYR:539:CG:4867, V-B:ARG:545:CZ:9894, V-B:LEU:475:CD1:9225, V-B:ILE:369:CG2:8204, V-A:GLU:543:CB:4901, V-B:HIS:456:CE1:9037, V-A:TYR:484:CZ:4342, V-A:HIS:456:CE1:4064, H-A:HIS:456:NE2:4065, V-B:GLU:543:CB:9874, V-A:LYS:547:CE:4945, V-B:LYS:547:CE:9918, V-A:GLU:543:C:4897, V-A:GLY:544:C:4907, V-B:TRP:381:CZ2:8337, V-B:PRO:482:CB:9293, V-B:TRP:381:CZ3:8338, H-A:TYR:539:O:4863, V-B:TRP:381:CE2:8334, V-B:PRO:482:CG:9294"]

$$$$
RR29_Rahimova_2017
     RDKit          3D

 18 19  0  0  0  0  0  0  0  0999 V2000
  129.7970  124.1950   68.4350 C   0  0  0  0  0  0  0  0  0  0  0  0
  130.1050  125.3410   67.4830 C   0  0  0  0  0  0  0  0  0  0  0  0
  129.3050  126.6240   67.8040 C   0  0  0  0  0  0  0  0  0  0  0  0
  130.0710  127.5470   68.7740 C   0  0  0  0  0  0  0  0  0  0  0  0
  129.2560  127.8850   70.0130 C   0  0  0  0  0  0  0  0  0  0  0  0
  127.9030  127.5000   70.0920 C   0  0  0  0  0  0  0  0  0  0  0  0
  127.1350  127.8010   71.2250 C   0  0  0  0  0  0  0  0  0  0  0  0
  127.7540  128.5000   72.2550 C   0  0  0  0  0  0  0  0  0  0  0  0
  129.0660  128.8770   72.1830 C   0  0  0  0  0  0  0  0  0  0  0  0
  129.8550  128.5830   71.0760 C   0  0  0  0  0  0  0  0  0  0  0  0
  129.4150  129.5090   73.3340 O   0  0  0  0  0  0  0  0  0  0  0  0
  128.2180  129.7030   74.0390 C   0  0  0  0  0  0  0  0  0  0  0  0
  127.2410  128.8830   73.4540 O   0  0  0  0  0  0  0  0  0  0  0  0
  130.9510  125.1460   66.5410 N   0  0  0  0  0  0  0  0  0  0  0  0
  131.1680  126.1540   65.6260 N   0  0  0  0  0  0  0  0  0  0  0  0
  130.6010  126.1990   64.4100 C   0  0  0  0  0  0  0  0  0  0  0  0
  129.7440  125.2950   63.9340 N   0  0  0  0  0  0  0  0  0  0  0  0
  130.9120  127.2180   63.6230 N   0  0  0  0  0  0  0  0  0  0  0  0
  1  2  1  0
  2  3  1  0
  3  4  1  0
  4  5  1  0
  5  6  2  0
  6  7  1  0
  7  8  2  0
  8  9  1  0
  9 10  2  0
  9 11  1  0
 11 12  1  0
 12 13  1  0
  2 14  2  0
 14 15  1  0
 15 16  1  0
 16 17  1  0
 16 18  2  0
 10  5  1  0
 13  8  1  0
M  CHG  1  18   1
M  END
>  <Binding energies>  (80) 
[-7.35]

>  <Ligand effiencies>  (80) 
[-0.31956521739130433]

>  <Interactions>  (80) 
["H-B:GLU:543:OE2:9878, V-B:GLU:543:CD:9876, H-A:GLU:543:OE2:4905, V-A:GLU:543:CD:4903, H-A:TYR:484:OH:4343, V-B:GLU:543:CG:9875, V-A:TYR:484:CE1:4340, V-B:HIS:456:CE1:9037, V-A:TYR:484:CZ:4342, V-B:GLU:543:CA:9872, V-A:HIS:456:CE1:4064, H-A:HIS:456:NE2:4065, V-B:GLU:543:CB:9874, H-B:LYS:547:NZ:9919, H-A:LYS:547:NZ:4946, V-B:HIS:456:CD2:9035, V-B:GLU:543:C:9870, H-A:GLU:543:OE1:4904, V-B:HIS:456:CG:9033, V-B:GLY:544:C:9880"]

$$$$
RR30_Rahimova_2017
     RDKit          3D

 18 19  0  0  0  0  0  0  0  0999 V2000
  131.9510  130.2390   60.1210 C   0  0  0  0  0  0  0  0  0  0  0  0
  132.2700  131.4550   61.0030 C   0  0  0  0  0  0  0  0  0  0  0  0
  131.0210  132.1060   61.5550 C   0  0  0  0  0  0  0  0  0  0  0  0
  130.6640  132.2410   62.8080 N   0  0  0  0  0  0  0  0  0  0  0  0
  129.4350  132.8970   62.7870 N   0  0  0  0  0  0  0  0  0  0  0  0
  129.1520  133.0940   61.5250 C   0  0  0  0  0  0  0  0  0  0  0  0
  127.7300  133.8930   60.8530 S   0  0  0  0  0  0  0  0  0  0  0  0
  126.9970  132.5040   59.9320 C   0  0  0  0  0  0  0  0  0  0  0  0
  127.7440  132.2160   58.6270 C   0  0  0  0  0  0  0  0  0  0  0  0
  127.3410  131.3150   57.8890 O   0  0  0  0  0  0  0  0  0  0  0  0
  128.8400  132.9720   58.3950 N   0  0  0  0  0  0  0  0  0  0  0  0
  129.6760  132.8940   57.2910 C   0  0  0  0  0  0  0  0  0  0  0  0
  129.7800  133.7380   56.2880 N   0  0  0  0  0  0  0  0  0  0  0  0
  130.7260  133.3340   55.3550 N   0  0  0  0  0  0  0  0  0  0  0  0
  131.3160  132.2030   55.6670 C   0  0  0  0  0  0  0  0  0  0  0  0
  132.3780  131.5590   54.8060 C   0  0  0  0  0  0  0  0  0  0  0  0
  130.7430  131.5300   57.1680 S   0  0  0  0  0  0  0  0  0  0  0  0
  130.1130  132.6230   60.6890 O   0  0  0  0  0  0  0  0  0  0  0  0
  1  2  1  0
  2  3  1  0
  3  4  2  0
  4  5  1  0
  5  6  2  0
  6  7  1  0
  7  8  1  0
  8  9  1  0
  9 10  2  0
  9 11  1  0
 11 12  1  0
 12 13  2  0
 13 14  1  0
 14 15  2  0
 15 16  1  0
 15 17  1  0
  6 18  1  0
 18  3  1  0
 17 12  1  0
M  END
>  <Binding energies>  (81) 
[-6.58]

>  <Ligand effiencies>  (81) 
[-0.3463157894736842]

>  <Interactions>  (81) 
["V-A:PRO:540:N:4879, V-A:TYR:539:CE2:4871, V-A:TYR:531:CE2:4788, V-A:PRO:540:CA:4878, V-A:PRO:540:C:4876, V-A:TYR:539:CE1:4870, H-A:ALA:541:N:4886, V-A:TYR:539:CZ:4872, V-A:PRO:540:CB:4880, V-A:LEU:363:CD1:3184, V-A:TYR:539:C:4862, V-A:PRO:540:CD:4882, V-A:TYR:539:CD2:4869, H-A:TYR:539:N:4865, V-A:TYR:539:CD1:4868, V-A:ALA:541:CB:4887, V-A:TYR:539:CG:4867, H-A:TYR:539:OH:4873, V-A:ILE:538:CD1:4860, H-A:TYR:539:O:4863"]

$$$$
RR31_Rahimova_2017
     RDKit          3D

 18 19  0  0  0  0  0  0  0  0999 V2000
  122.8300  131.4370   59.4620 C   0  0  0  0  0  0  0  0  0  0  0  0
  124.3360  131.3500   59.2530 C   0  0  0  0  0  0  0  0  0  0  0  0
  124.8480  130.3850   58.3850 C   0  0  0  0  0  0  0  0  0  0  0  0
  126.2210  130.2820   58.1700 C   0  0  0  0  0  0  0  0  0  0  0  0
  127.1230  131.1470   58.8110 C   0  0  0  0  0  0  0  0  0  0  0  0
  128.5020  131.0500   58.6140 N   0  0  0  0  0  0  0  0  0  0  0  0
  129.3980  132.2110   58.7720 C   0  0  0  0  0  0  0  0  0  0  0  0
  130.7920  132.0260   58.1270 C   0  0  0  0  0  0  0  0  0  0  0  0
  131.4520  130.8240   58.6430 N   0  0  0  0  0  0  0  0  0  0  0  0
  132.7910  130.6400   58.0760 C   0  0  0  0  0  0  0  0  0  0  0  0
  133.8770  130.4280   59.1500 C   0  0  0  0  0  0  0  0  0  0  0  0
  133.3570  130.7150   60.5680 C   0  0  0  0  0  0  0  0  0  0  0  0
  132.3740  129.6200   60.9970 N   0  0  0  0  0  0  0  0  0  0  0  0
  130.6090  129.6790   58.2980 C   0  0  0  0  0  0  0  0  0  0  0  0
  129.2170  129.8040   58.9580 C   0  0  0  0  0  0  0  0  0  0  0  0
  126.5950  132.1060   59.6880 C   0  0  0  0  0  0  0  0  0  0  0  0
  125.2180  132.2190   59.9130 C   0  0  0  0  0  0  0  0  0  0  0  0
  124.7080  133.2800   60.8800 C   0  0  0  0  0  0  0  0  0  0  0  0
  1  2  1  0
  2  3  2  0
  3  4  1  0
  4  5  2  0
  5  6  1  0
  6  7  1  0
  7  8  1  0
  8  9  1  0
  9 10  1  0
 10 11  1  0
 11 12  1  0
 12 13  1  0
  9 14  1  0
 14 15  1  0
  5 16  1  0
 16 17  2  0
 17 18  1  0
 17  2  1  0
 15  6  1  0
M  CHG  1  13   1
M  END
>  <Binding energies>  (82) 
[-5.83]

>  <Ligand effiencies>  (82) 
[-0.2776190476190476]

>  <Interactions>  (82) 
["V-A:PRO:540:N:4879, V-A:ASN:362:C:3167, V-A:TYR:539:CE2:4871, V-A:TYR:531:CE2:4788, V-A:PRO:540:CA:4878, V-A:TYR:539:CZ:4872, V-A:PRO:540:CB:4880, V-A:LEU:363:CD1:3184, V-A:ASN:362:CB:3171, V-A:LEU:363:CA:3180, H-A:GLU:543:OE2:4905, V-A:ASP:366:CG:3208, V-A:GLU:543:CD:4903, V-B:ILE:369:CD1:8206, V-B:LEU:475:CD2:9226, V-B:ASP:366:CB:8179, V-A:LEU:363:CB:3182, V-B:ASP:366:C:8175, V-B:ASP:366:CA:8177, V-B:ILE:369:CG2:8204, V-B:ILE:369:CB:8203, H-A:GLU:543:OE1:4904, V-B:ILE:369:CG1:8205, H-A:ASP:366:OD2:3210"]

$$$$
RR32_Rahimova_2017
     RDKit          3D

 18 20  0  0  0  0  0  0  0  0999 V2000
  130.8210  132.9700   55.4680 C   0  0  0  0  0  0  0  0  0  0  0  0
  130.5400  132.5670   56.9120 C   0  0  0  0  0  0  0  0  0  0  0  0
  129.3240  132.9500   57.4800 C   0  0  0  0  0  0  0  0  0  0  0  0
  129.0330  132.5970   58.7940 C   0  0  0  0  0  0  0  0  0  0  0  0
  127.8250  132.9790   59.3540 N   0  0  0  0  0  0  0  0  0  0  0  0
  126.8160  131.9250   59.5650 C   0  0  0  0  0  0  0  0  0  0  0  0
  125.4440  132.4770   60.0220 C   0  0  0  0  0  0  0  0  0  0  0  0
  125.5930  133.2370   61.2630 N   0  0  0  0  0  0  0  0  0  0  0  0
  124.2950  133.7300   61.7110 C   0  0  0  0  0  0  0  0  0  0  0  0
  126.4970  134.3550   61.0010 C   0  0  0  0  0  0  0  0  0  0  0  0
  127.8830  133.8320   60.5560 C   0  0  0  0  0  0  0  0  0  0  0  0
  129.8920  131.8860   59.5690 N   0  0  0  0  0  0  0  0  0  0  0  0
  131.0870  131.5010   59.0450 C   0  0  0  0  0  0  0  0  0  0  0  0
  131.9640  130.7620   59.8770 C   0  0  0  0  0  0  0  0  0  0  0  0
  133.1980  130.3420   59.3950 C   0  0  0  0  0  0  0  0  0  0  0  0
  133.5850  130.6400   58.0940 C   0  0  0  0  0  0  0  0  0  0  0  0
  132.7470  131.3640   57.2500 C   0  0  0  0  0  0  0  0  0  0  0  0
  131.4730  131.8160   57.7020 C   0  0  0  0  0  0  0  0  0  0  0  0
  1  2  1  0
  2  3  2  0
  3  4  1  0
  4  5  1  0
  5  6  1  0
  6  7  1  0
  7  8  1  0
  8  9  1  0
  8 10  1  0
 10 11  1  0
  4 12  2  0
 12 13  1  0
 13 14  2  0
 14 15  1  0
 15 16  2  0
 16 17  1  0
 17 18  2  0
 18  2  1  0
 11  5  1  0
 18 13  1  0
M  END
>  <Binding energies>  (83) 
[-6.19]

>  <Ligand effiencies>  (83) 
[-0.3438888888888889]

>  <Interactions>  (83) 
["V-A:PRO:540:N:4879, V-A:TYR:531:CZ:4789, V-A:TYR:539:CE2:4871, V-A:TYR:531:CE2:4788, V-A:PRO:540:CA:4878, V-A:TYR:539:CE1:4870, V-A:TYR:539:CZ:4872, V-A:PRO:540:CB:4880, V-A:LEU:363:CD1:3184, V-A:TYR:539:C:4862, V-A:LEU:363:CA:3180, V-A:PRO:540:CD:4882, V-A:TYR:539:CD2:4869, V-B:ILE:369:CD1:8206, V-B:LEU:475:CD2:9226, V-A:LEU:363:CB:3182, V-A:TYR:539:CD1:4868, V-A:TYR:539:CG:4867, V-A:ILE:538:CG2:4858, V-A:ILE:538:CA:4855"]

$$$$
RR5_Rahimova_2017
     RDKit          3D

 45 50  0  0  0  0  0  0  0  0999 V2000
  132.0840  122.7430   62.3460 O   0  0  0  0  0  0  0  0  0  0  0  0
  131.8650  123.8830   61.9390 C   0  0  0  0  0  0  0  0  0  0  0  0
  132.4470  125.0900   62.6990 C   0  0  0  0  0  0  0  0  0  0  0  0
  131.7730  125.3520   64.0930 C   0  0  2  0  0  0  0  0  0  0  0  0
  131.0100  126.6120   64.1890 N   0  0  0  0  0  0  0  0  0  0  0  0
  130.3510  127.1490   63.0920 C   0  0  0  0  0  0  0  0  0  0  0  0
  130.2750  126.6550   61.9640 O   0  0  0  0  0  0  0  0  0  0  0  0
  129.8100  128.3250   63.4560 O   0  0  0  0  0  0  0  0  0  0  0  0
  128.3980  128.5160   63.4860 C   0  0  0  0  0  0  0  0  0  0  0  0
  127.9640  129.1990   64.8010 C   0  0  0  0  0  0  0  0  0  0  0  0
  126.5000  129.5990   64.8260 C   0  0  0  0  0  0  0  0  0  0  0  0
  125.7930  130.4390   63.9610 C   0  0  0  0  0  0  0  0  0  0  0  0
  124.4280  130.6520   64.1600 C   0  0  0  0  0  0  0  0  0  0  0  0
  123.7690  130.0290   65.2210 C   0  0  0  0  0  0  0  0  0  0  0  0
  124.4730  129.1920   66.0880 C   0  0  0  0  0  0  0  0  0  0  0  0
  125.8380  128.9810   65.8870 C   0  0  0  0  0  0  0  0  0  0  0  0
  126.8130  128.1720   66.6360 C   0  0  0  0  0  0  0  0  0  0  0  0
  126.6670  127.3780   67.7760 C   0  0  0  0  0  0  0  0  0  0  0  0
  127.7780  126.7210   68.3060 C   0  0  0  0  0  0  0  0  0  0  0  0
  129.0280  126.8550   67.6980 C   0  0  0  0  0  0  0  0  0  0  0  0
  129.1690  127.6450   66.5570 C   0  0  0  0  0  0  0  0  0  0  0  0
  128.0590  128.3020   66.0210 C   0  0  0  0  0  0  0  0  0  0  0  0
  132.8220  125.2900   65.2310 C   0  0  0  0  0  0  0  0  0  0  0  0
  133.8930  124.7220   65.1550 O   0  0  0  0  0  0  0  0  0  0  0  0
  132.3650  125.9830   66.3150 O   0  0  0  0  0  0  0  0  0  0  0  0
  131.1590  124.1820   60.8250 N   0  0  0  0  0  0  0  0  0  0  0  0
  130.4410  123.3540   59.8110 C   0  0  0  0  0  0  0  0  0  0  0  0
  131.1970  123.7250   58.4910 C   0  0  0  0  0  0  0  0  0  0  0  0
  130.5020  124.0800   57.3230 C   0  0  0  0  0  0  0  0  0  0  0  0
  131.1850  124.4100   56.1550 C   0  0  0  0  0  0  0  0  0  0  0  0
  132.5750  124.3780   56.1320 C   0  0  0  0  0  0  0  0  0  0  0  0
  133.2880  124.0310   57.2740 C   0  0  0  0  0  0  0  0  0  0  0  0
  132.6050  123.7120   58.4430 C   0  0  0  0  0  0  0  0  0  0  0  0
  130.6320  121.8530   60.2130 C   0  0  0  0  0  0  0  0  0  0  0  0
  131.8070  121.1500   59.9030 C   0  0  0  0  0  0  0  0  0  0  0  0
  131.9480  119.8090   60.2530 C   0  0  0  0  0  0  0  0  0  0  0  0
  130.9150  119.1540   60.9160 C   0  0  0  0  0  0  0  0  0  0  0  0
  129.7430  119.8300   61.2370 C   0  0  0  0  0  0  0  0  0  0  0  0
  129.6080  121.1720   60.8940 C   0  0  0  0  0  0  0  0  0  0  0  0
  128.9550  123.8480   59.8200 C   0  0  0  0  0  0  0  0  0  0  0  0
  128.5720  124.9780   60.5650 C   0  0  0  0  0  0  0  0  0  0  0  0
  127.2510  125.4170   60.5840 C   0  0  0  0  0  0  0  0  0  0  0  0
  126.2870  124.7350   59.8500 C   0  0  0  0  0  0  0  0  0  0  0  0
  126.6370  123.6240   59.0930 C   0  0  0  0  0  0  0  0  0  0  0  0
  127.9590  123.1880   59.0770 C   0  0  0  0  0  0  0  0  0  0  0  0
  1  2  2  0
  2  3  1  0
  4  3  1  6
  4  5  1  0
  5  6  1  0
  6  7  2  0
  6  8  1  0
  8  9  1  0
  9 10  1  0
 10 11  1  0
 11 12  2  0
 12 13  1  0
 13 14  2  0
 14 15  1  0
 15 16  2  0
 16 17  1  0
 17 18  2  0
 18 19  1  0
 19 20  2  0
 20 21  1  0
 21 22  2  0
  4 23  1  0
 23 24  2  0
 23 25  1  0
  2 26  1  0
 26 27  1  0
 27 28  1  0
 28 29  2  0
 29 30  1  0
 30 31  2  0
 31 32  1  0
 32 33  2  0
 27 34  1  0
 34 35  2  0
 35 36  1  0
 36 37  2  0
 37 38  1  0
 38 39  2  0
 27 40  1  0
 40 41  2  0
 41 42  1  0
 42 43  2  0
 43 44  1  0
 44 45  2  0
 22 10  1  0
 33 28  1  0
 39 34  1  0
 45 40  1  0
 16 11  1  0
 22 17  1  0
M  END
>  <Binding energies>  (84) 
[-10.84]

>  <Ligand effiencies>  (84) 
[-0.22583333333333333]

>  <Interactions>  (84) 
["V-B:TYR:539:CD2:9842, V-A:LEU:475:CD2:4254, V-A:TRP:381:CZ2:3365, V-B:TYR:539:CE2:9844, V-B:ALA:541:CB:9860, V-A:TRP:381:CH2:3367, V-B:PRO:540:CA:9851, V-B:PRO:540:CB:9853, V-B:ALA:541:CA:9858, V-A:TYR:531:CZ:4789, V-A:ASP:366:CB:3207, H-A:GLU:543:OE2:4905, V-A:ASP:366:CG:3208, V-A:GLU:543:CD:4903, H-A:TYR:484:OH:4343, V-A:TRP:381:CZ3:3366, V-B:TYR:539:CZ:9845, V-B:ARG:545:CZ:9894, V-B:HIS:456:CE1:9037, V-B:ARG:545:CG:9890, V-B:ARG:545:CD:9891, V-B:GLU:543:CA:9872, H-A:HIS:456:NE2:4065, V-B:GLU:543:CB:9874, V-B:GLU:543:C:9870, H-A:GLU:543:OE1:4904, V-A:TYR:531:CE1:4787, V-A:ASP:366:C:3203, V-A:ARG:545:CZ:4921, H-A:GLY:454:N:4045, H-A:ASP:366:OD2:3210, V-A:ASN:370:CB:3240"]

$$$$
