1a_Ghoteimi_2023
     RDKit          3D

 67 70  0  0  0  0  0  0  0  0999 V2000
  124.8900  122.5360   56.6470 C   0  0  0  0  0  0  0  0  0  0  0  0
  126.0150  123.1930   57.4530 C   0  0  0  0  0  0  0  0  0  0  0  0
  127.1030  122.2850   57.5700 O   0  0  0  0  0  0  0  0  0  0  0  0
  128.3780  122.7320   57.7120 C   0  0  0  0  0  0  0  0  0  0  0  0
  129.1540  122.8870   56.7650 O   0  0  0  0  0  0  0  0  0  0  0  0
  128.7470  123.0230   59.1380 C   0  0  0  0  0  0  0  0  0  0  0  0
  129.3960  122.0770   59.9450 C   0  0  0  0  0  0  0  0  0  0  0  0
  129.7240  122.3750   61.2650 C   0  0  0  0  0  0  0  0  0  0  0  0
  129.4100  123.6330   61.8030 C   0  0  0  0  0  0  0  0  0  0  0  0
  129.6890  124.0380   63.1220 N   0  0  0  0  0  0  0  0  0  0  0  0
  130.3610  123.3950   64.1010 C   0  0  0  0  0  0  0  0  0  0  0  0
  130.8880  122.2870   64.0000 O   0  0  0  0  0  0  0  0  0  0  0  0
  130.4590  124.1420   65.4310 C   0  0  0  0  0  0  0  0  0  0  0  0
  130.9910  125.8640   65.1980 S   0  0  0  0  0  0  0  0  0  0  0  0
  129.7840  126.8710   66.0290 C   0  0  0  0  0  0  0  0  0  0  0  0
  129.9580  126.9430   67.3700 N   0  0  0  0  0  0  0  0  0  0  0  0
  129.1050  127.6870   68.1220 C   0  0  0  0  0  0  0  0  0  0  0  0
  129.3760  127.7330   69.5980 C   0  0  0  0  0  0  0  0  0  0  0  0
  129.0160  126.6670   70.4400 C   0  0  0  0  0  0  0  0  0  0  0  0
  129.2700  126.7120   71.8080 C   0  0  0  0  0  0  0  0  0  0  0  0
  129.8880  127.8220   72.3780 C   0  0  0  0  0  0  0  0  0  0  0  0
  130.1030  127.7800   73.7430 O   0  0  0  0  0  0  0  0  0  0  0  0
  130.6980  126.6210   74.3150 C   0  0  0  0  0  0  0  0  0  0  0  0
  130.2490  128.8960   71.5520 C   0  0  0  0  0  0  0  0  0  0  0  0
  129.9940  128.8470   70.1850 C   0  0  0  0  0  0  0  0  0  0  0  0
  128.0450  128.3790   67.5230 C   0  0  0  0  0  0  0  0  0  0  0  0
  127.8310  128.3000   66.1410 C   0  0  0  0  0  0  0  0  0  0  0  0
  126.6620  129.0390   65.5760 C   0  0  0  0  0  0  0  0  0  0  0  0
  126.8310  129.9680   64.5440 C   0  0  0  0  0  0  0  0  0  0  0  0
  125.7350  130.6420   64.0130 C   0  0  0  0  0  0  0  0  0  0  0  0
  124.4500  130.3960   64.4950 C   0  0  0  0  0  0  0  0  0  0  0  0
  123.4240  131.1100   63.9070 O   0  0  0  0  0  0  0  0  0  0  0  0
  123.0060  130.7680   62.5900 C   0  0  0  0  0  0  0  0  0  0  0  0
  124.2750  129.4580   65.5240 C   0  0  0  0  0  0  0  0  0  0  0  0
  125.3730  128.7860   66.0550 C   0  0  0  0  0  0  0  0  0  0  0  0
  128.7260  127.5270   65.3630 C   0  0  0  0  0  0  0  0  0  0  0  0
  128.5620  127.4190   63.9100 C   0  0  0  0  0  0  0  0  0  0  0  0
  128.4320  127.3350   62.7630 N   0  0  0  0  0  0  0  0  0  0  0  0
  128.7610  124.5740   61.0040 C   0  0  0  0  0  0  0  0  0  0  0  0
  128.4340  124.2750   59.6840 C   0  0  0  0  0  0  0  0  0  0  0  0
  124.1496  122.1036   57.3360 H   0  0  0  0  0  0  0  0  0  0  0  0
  124.4034  123.2919   56.0131 H   0  0  0  0  0  0  0  0  0  0  0  0
  125.3093  121.7408   56.0131 H   0  0  0  0  0  0  0  0  0  0  0  0
  126.3515  124.1049   56.9380 H   0  0  0  0  0  0  0  0  0  0  0  0
  125.6450  123.4550   58.4552 H   0  0  0  0  0  0  0  0  0  0  0  0
  129.6484  121.0897   59.5309 H   0  0  0  0  0  0  0  0  0  0  0  0
  130.2304  121.6228   61.8877 H   0  0  0  0  0  0  0  0  0  0  0  0
  129.3590  124.9650   63.3460 H   0  0  0  0  0  0  0  0  0  0  0  0
  129.4719  124.1365   65.9164 H   0  0  0  0  0  0  0  0  0  0  0  0
  131.2084  123.6334   66.0552 H   0  0  0  0  0  0  0  0  0  0  0  0
  128.5248  125.7814   70.0105 H   0  0  0  0  0  0  0  0  0  0  0  0
  128.9799  125.8630   72.4444 H   0  0  0  0  0  0  0  0  0  0  0  0
  130.6609  126.6932   75.4120 H   0  0  0  0  0  0  0  0  0  0  0  0
  130.1475  125.7267   73.9876 H   0  0  0  0  0  0  0  0  0  0  0  0
  131.7455  126.5471   73.9876 H   0  0  0  0  0  0  0  0  0  0  0  0
  130.7360  129.7814   71.9867 H   0  0  0  0  0  0  0  0  0  0  0  0
  130.2828  129.6990   69.5520 H   0  0  0  0  0  0  0  0  0  0  0  0
  127.3739  128.9906   68.1439 H   0  0  0  0  0  0  0  0  0  0  0  0
  127.8380  130.1675   64.1489 H   0  0  0  0  0  0  0  0  0  0  0  0
  125.8839  131.3749   63.2063 H   0  0  0  0  0  0  0  0  0  0  0  0
  122.1557  130.0723   62.6442 H   0  0  0  0  0  0  0  0  0  0  0  0
  122.7009  131.6788   62.0540 H   0  0  0  0  0  0  0  0  0  0  0  0
  123.8384  130.2886   62.0540 H   0  0  0  0  0  0  0  0  0  0  0  0
  123.2666  129.2528   65.9126 H   0  0  0  0  0  0  0  0  0  0  0  0
  125.2249  128.0495   66.8585 H   0  0  0  0  0  0  0  0  0  0  0  0
  128.5055  125.5598   61.4198 H   0  0  0  0  0  0  0  0  0  0  0  0
  127.9255  125.0283   59.0643 H   0  0  0  0  0  0  0  0  0  0  0  0
  1  2  1  0
  2  3  1  0
  3  4  1  0
  4  5  2  0
  4  6  1  0
  6  7  2  0
  7  8  1  0
  8  9  2  0
  9 10  1  0
 10 11  1  0
 11 12  2  0
 11 13  1  0
 13 14  1  0
 14 15  1  0
 15 16  2  0
 16 17  1  0
 17 18  1  0
 18 19  2  0
 19 20  1  0
 20 21  2  0
 21 22  1  0
 22 23  1  0
 21 24  1  0
 24 25  2  0
 17 26  2  0
 26 27  1  0
 27 28  1  0
 28 29  2  0
 29 30  1  0
 30 31  2  0
 31 32  1  0
 32 33  1  0
 31 34  1  0
 34 35  2  0
 27 36  2  0
 36 37  1  0
 37 38  3  0
  9 39  1  0
 39 40  2  0
 40  6  1  0
 36 15  1  0
 25 18  1  0
 35 28  1  0
  1 41  1  0
  1 42  1  0
  1 43  1  0
  2 44  1  0
  2 45  1  0
  7 46  1  0
  8 47  1  0
 10 48  1  0
 13 49  1  0
 13 50  1  0
 19 51  1  0
 20 52  1  0
 23 53  1  0
 23 54  1  0
 23 55  1  0
 24 56  1  0
 25 57  1  0
 26 58  1  0
 29 59  1  0
 30 60  1  0
 33 61  1  0
 33 62  1  0
 33 63  1  0
 34 64  1  0
 35 65  1  0
 39 66  1  0
 40 67  1  0
M  END
>  <Binding energies>  (1) 
[-9.32]

>  <Ligand effiencies>  (1) 
[-0.22731707317073171]

>  <Interactions>  (1) 
["V-B:TYR:539:C:9835, V-B:TYR:539:CD2:9842, V-B:TYR:539:CE2:9844, V-B:PRO:540:N:9852, V-B:ALA:541:CB:9860, V-B:PRO:540:CA:9851, V-B:MET:535:CE:9803, V-B:PRO:540:CB:9853, H-B:GLU:543:OE2:9878, V-B:GLU:543:CD:9876, V-A:GLU:543:CD:4903, H-A:TYR:484:OH:4343, V-B:GLU:543:CG:9875, V-A:TYR:484:CE1:4340, H-B:GLY:454:N:9017, V-B:ILE:369:CD1:8206, V-B:PRO:540:CD:9855, V-B:LEU:363:CD1:8156, V-B:ARG:545:CZ:9894, V-B:HIS:456:CE1:9037, V-B:ARG:545:CG:9890, V-B:ARG:545:CD:9891, V-A:TYR:484:CZ:4342, V-A:HIS:456:CE1:4064, V-A:LYS:547:CE:4945, H-B:LYS:547:NZ:9919, H-A:LYS:547:NZ:4946, V-B:LYS:547:CE:9918, V-A:GLU:543:C:4897, V-A:GLY:544:C:4907, V-B:GLY:453:CA:9011, V-B:PRO:540:CG:9854, H-B:TYR:539:OH:9846"]

$$$$
1a_Grossjean_2025
     RDKit          3D

 45 46  0  0  0  0  0  0  0  0999 V2000
  132.5410  131.1840   57.7680 C   0  0  0  0  0  0  0  0  0  0  0  0
  132.0970  131.7160   56.4030 C   0  0  0  0  0  0  0  0  0  0  0  0
  131.3400  132.9060   56.5810 O   0  0  0  0  0  0  0  0  0  0  0  0
  130.0610  132.9980   56.1300 C   0  0  0  0  0  0  0  0  0  0  0  0
  129.7670  133.3840   54.9950 O   0  0  0  0  0  0  0  0  0  0  0  0
  129.0400  132.5990   57.1560 C   0  0  0  0  0  0  0  0  0  0  0  0
  128.2450  131.4680   56.9260 C   0  0  0  0  0  0  0  0  0  0  0  0
  127.2870  131.0750   57.8550 C   0  0  0  0  0  0  0  0  0  0  0  0
  127.1010  131.8020   59.0310 C   0  0  0  0  0  0  0  0  0  0  0  0
  126.1030  131.3160   59.8990 N   0  0  0  0  0  0  0  0  0  0  0  0
  124.7720  131.5370   59.9000 C   0  0  0  0  0  0  0  0  0  0  0  0
  124.1630  132.2420   59.0950 O   0  0  0  0  0  0  0  0  0  0  0  0
  123.9910  130.8340   61.0120 C   0  0  0  0  0  0  0  0  0  0  0  0
  123.9270  131.8230   62.5360 S   0  0  0  0  0  0  0  0  0  0  0  0
  124.3170  130.7410   63.8930 C   0  0  0  0  0  0  0  0  0  0  0  0
  123.3820  130.7360   64.8750 N   0  0  0  0  0  0  0  0  0  0  0  0
  123.5810  129.9500   65.9600 C   0  0  0  0  0  0  0  0  0  0  0  0
  122.5000  130.0070   67.0230 C   0  0  0  0  0  0  0  0  0  0  0  0
  124.7030  129.1370   66.1030 C   0  0  0  0  0  0  0  0  0  0  0  0
  125.6630  129.1180   65.0860 C   0  0  0  0  0  0  0  0  0  0  0  0
  126.8770  128.2080   65.2570 C   0  0  0  0  0  0  0  0  0  0  0  0
  125.4740  129.9290   63.9420 C   0  0  0  0  0  0  0  0  0  0  0  0
  126.4420  129.8890   62.8420 C   0  0  0  0  0  0  0  0  0  0  0  0
  127.2070  129.8550   61.9750 N   0  0  0  0  0  0  0  0  0  0  0  0
  127.8980  132.9310   59.2750 C   0  0  0  0  0  0  0  0  0  0  0  0
  128.8560  133.3240   58.3440 C   0  0  0  0  0  0  0  0  0  0  0  0
  132.0548  131.7666   58.5644 H   0  0  0  0  0  0  0  0  0  0  0  0
  132.2541  130.1261   57.8602 H   0  0  0  0  0  0  0  0  0  0  0  0
  133.6332  131.2771   57.8602 H   0  0  0  0  0  0  0  0  0  0  0  0
  132.9830  131.9337   55.7885 H   0  0  0  0  0  0  0  0  0  0  0  0
  131.4776  130.9597   55.8988 H   0  0  0  0  0  0  0  0  0  0  0  0
  128.3797  130.8858   56.0025 H   0  0  0  0  0  0  0  0  0  0  0  0
  126.6715  130.1842   57.6608 H   0  0  0  0  0  0  0  0  0  0  0  0
  126.4480  130.6830   60.6050 H   0  0  0  0  0  0  0  0  0  0  0  0
  122.9635  130.6531   60.6635 H   0  0  0  0  0  0  0  0  0  0  0  0
  124.5070  129.8904   61.2429 H   0  0  0  0  0  0  0  0  0  0  0  0
  122.9644  129.9825   68.0199 H   0  0  0  0  0  0  0  0  0  0  0  0
  121.9232  130.9368   66.9099 H   0  0  0  0  0  0  0  0  0  0  0  0
  121.8286  129.1430   66.9099 H   0  0  0  0  0  0  0  0  0  0  0  0
  124.8322  128.5184   67.0034 H   0  0  0  0  0  0  0  0  0  0  0  0
  127.0756  128.0591   66.3286 H   0  0  0  0  0  0  0  0  0  0  0  0
  126.6763  127.2360   64.7828 H   0  0  0  0  0  0  0  0  0  0  0  0
  127.7537  128.6733   64.7828 H   0  0  0  0  0  0  0  0  0  0  0  0
  127.7657  133.5064   60.2031 H   0  0  0  0  0  0  0  0  0  0  0  0
  129.4750  134.2116   58.5414 H   0  0  0  0  0  0  0  0  0  0  0  0
  1  2  1  0
  2  3  1  0
  3  4  1  0
  4  5  2  0
  4  6  1  0
  6  7  2  0
  7  8  1  0
  8  9  2  0
  9 10  1  0
 10 11  1  0
 11 12  2  0
 11 13  1  0
 13 14  1  0
 14 15  1  0
 15 16  2  0
 16 17  1  0
 17 18  1  0
 17 19  2  0
 19 20  1  0
 20 21  1  0
 20 22  2  0
 22 23  1  0
 23 24  3  0
  9 25  1  0
 25 26  2  0
 26  6  1  0
 22 15  1  0
  1 27  1  0
  1 28  1  0
  1 29  1  0
  2 30  1  0
  2 31  1  0
  7 32  1  0
  8 33  1  0
 10 34  1  0
 13 35  1  0
 13 36  1  0
 18 37  1  0
 18 38  1  0
 18 39  1  0
 19 40  1  0
 21 41  1  0
 21 42  1  0
 21 43  1  0
 25 44  1  0
 26 45  1  0
M  END
>  <Binding energies>  (1) 
[-7.82]

>  <Ligand effiencies>  (1) 
[-0.2896296296296296]

>  <Interactions>  (1) 
["V-B:GLU:543:CD:9876, V-A:PRO:540:N:4879, V-A:TYR:539:CE2:4871, V-A:PRO:540:CA:4878, V-A:TYR:539:CE1:4870, V-A:TYR:539:CZ:4872, V-A:PRO:540:CB:4880, V-A:LEU:363:CD1:3184, V-A:TYR:539:C:4862, V-A:PRO:540:CD:4882, V-A:TYR:539:CD2:4869, H-B:GLY:454:N:9017, H-A:TYR:539:N:4865, V-B:ASP:366:CG:8180, V-A:TYR:539:CD1:4868, V-A:TYR:539:CG:4867, V-A:TYR:539:CA:4864, V-B:ARG:545:CZ:9894, H-A:TYR:539:OH:4873, V-B:HIS:456:CE1:9037, V-B:ARG:545:CG:9890, V-B:ARG:545:CD:9891, V-B:GLY:453:CA:9011, V-B:GLY:453:C:9009, V-B:ILE:455:C:9019, V-B:ARG:545:CB:9889"]

$$$$
1aa_Ghoteimi_2023
     RDKit          3D

 67 70  0  0  0  0  0  0  0  0999 V2000
  129.3920  117.6490   59.9560 C   0  0  0  0  0  0  0  0  0  0  0  0
  130.1660  118.6640   60.8010 C   0  0  0  0  0  0  0  0  0  0  0  0
  130.5900  119.7420   59.9760 O   0  0  0  0  0  0  0  0  0  0  0  0
  131.8380  120.2650   60.0930 C   0  0  0  0  0  0  0  0  0  0  0  0
  132.7980  119.8910   59.4130 O   0  0  0  0  0  0  0  0  0  0  0  0
  131.9350  121.3440   61.1320 C   0  0  0  0  0  0  0  0  0  0  0  0
  133.0160  122.2380   61.1750 C   0  0  0  0  0  0  0  0  0  0  0  0
  133.0790  123.2300   62.1510 C   0  0  0  0  0  0  0  0  0  0  0  0
  132.0550  123.3480   63.1020 C   0  0  0  0  0  0  0  0  0  0  0  0
  132.0120  124.3070   64.1310 N   0  0  0  0  0  0  0  0  0  0  0  0
  133.0150  124.8920   64.8270 C   0  0  0  0  0  0  0  0  0  0  0  0
  134.2130  124.6680   64.6570 O   0  0  0  0  0  0  0  0  0  0  0  0
  132.6210  125.9120   65.9070 C   0  0  0  0  0  0  0  0  0  0  0  0
  131.4100  125.5090   66.5600 O   0  0  0  0  0  0  0  0  0  0  0  0
  130.4410  126.4480   66.8840 C   0  0  0  0  0  0  0  0  0  0  0  0
  130.3020  126.8000   68.1920 N   0  0  0  0  0  0  0  0  0  0  0  0
  129.3550  127.7070   68.5500 C   0  0  0  0  0  0  0  0  0  0  0  0
  129.2670  128.0430   70.0110 C   0  0  0  0  0  0  0  0  0  0  0  0
  129.1150  127.0360   70.9760 C   0  0  0  0  0  0  0  0  0  0  0  0
  129.0320  127.3450   72.3310 C   0  0  0  0  0  0  0  0  0  0  0  0
  129.1000  128.6680   72.7630 C   0  0  0  0  0  0  0  0  0  0  0  0
  129.0070  128.8790   74.1260 O   0  0  0  0  0  0  0  0  0  0  0  0
  128.1360  129.8940   74.6130 C   0  0  0  0  0  0  0  0  0  0  0  0
  129.2570  129.6850   71.8120 C   0  0  0  0  0  0  0  0  0  0  0  0
  129.3410  129.3720   70.4580 C   0  0  0  0  0  0  0  0  0  0  0  0
  128.5310  128.2980   67.5850 C   0  0  0  0  0  0  0  0  0  0  0  0
  128.6610  127.9620   66.2310 C   0  0  0  0  0  0  0  0  0  0  0  0
  127.7600  128.6360   65.2490 C   0  0  0  0  0  0  0  0  0  0  0  0
  126.4720  128.1400   65.0220 C   0  0  0  0  0  0  0  0  0  0  0  0
  125.6230  128.7690   64.1150 C   0  0  0  0  0  0  0  0  0  0  0  0
  126.0390  129.9050   63.4230 C   0  0  0  0  0  0  0  0  0  0  0  0
  125.1290  130.4610   62.5440 O   0  0  0  0  0  0  0  0  0  0  0  0
  123.7570  130.5260   62.9140 C   0  0  0  0  0  0  0  0  0  0  0  0
  127.3280  130.4100   63.6540 C   0  0  0  0  0  0  0  0  0  0  0  0
  128.1760  129.7800   64.5600 C   0  0  0  0  0  0  0  0  0  0  0  0
  129.6380  127.0030   65.8730 C   0  0  0  0  0  0  0  0  0  0  0  0
  129.8170  126.5560   64.4900 C   0  0  0  0  0  0  0  0  0  0  0  0
  129.9600  126.2020   63.3980 N   0  0  0  0  0  0  0  0  0  0  0  0
  130.9800  122.4590   63.0630 C   0  0  0  0  0  0  0  0  0  0  0  0
  130.9180  121.4680   62.0890 C   0  0  0  0  0  0  0  0  0  0  0  0
  128.8595  116.9507   60.6184 H   0  0  0  0  0  0  0  0  0  0  0  0
  128.6660  118.1781   59.3212 H   0  0  0  0  0  0  0  0  0  0  0  0
  130.0944  117.0889   59.3212 H   0  0  0  0  0  0  0  0  0  0  0  0
  129.5151  119.0479   61.6003 H   0  0  0  0  0  0  0  0  0  0  0  0
  131.0450  118.1756   61.2469 H   0  0  0  0  0  0  0  0  0  0  0  0
  133.8216  122.1546   60.4306 H   0  0  0  0  0  0  0  0  0  0  0  0
  133.9336  123.9221   62.1758 H   0  0  0  0  0  0  0  0  0  0  0  0
  131.0780  124.6030   64.3780 H   0  0  0  0  0  0  0  0  0  0  0  0
  133.4280  125.9811   66.6513 H   0  0  0  0  0  0  0  0  0  0  0  0
  132.4599  126.8903   65.4306 H   0  0  0  0  0  0  0  0  0  0  0  0
  129.0605  125.9848   70.6567 H   0  0  0  0  0  0  0  0  0  0  0  0
  128.9116  126.5370   73.0676 H   0  0  0  0  0  0  0  0  0  0  0  0
  128.1427  129.8862   75.7130 H   0  0  0  0  0  0  0  0  0  0  0  0
  128.4777  130.8750   74.2512 H   0  0  0  0  0  0  0  0  0  0  0  0
  127.1145  129.7052   74.2512 H   0  0  0  0  0  0  0  0  0  0  0  0
  129.3141  130.7345   72.1364 H   0  0  0  0  0  0  0  0  0  0  0  0
  129.4678  130.1816   69.7242 H   0  0  0  0  0  0  0  0  0  0  0  0
  127.7736  129.0339   67.8929 H   0  0  0  0  0  0  0  0  0  0  0  0
  126.1273  127.2468   65.5637 H   0  0  0  0  0  0  0  0  0  0  0  0
  124.6143  128.3654   63.9430 H   0  0  0  0  0  0  0  0  0  0  0  0
  123.6728  130.5300   64.0108 H   0  0  0  0  0  0  0  0  0  0  0  0
  123.3111  131.4463   62.5087 H   0  0  0  0  0  0  0  0  0  0  0  0
  123.2261  129.6520   62.5087 H   0  0  0  0  0  0  0  0  0  0  0  0
  127.6693  131.3072   63.1169 H   0  0  0  0  0  0  0  0  0  0  0  0
  129.1832  130.1857   64.7360 H   0  0  0  0  0  0  0  0  0  0  0  0
  130.1754  122.5426   63.8084 H   0  0  0  0  0  0  0  0  0  0  0  0
  130.0636  120.7755   62.0694 H   0  0  0  0  0  0  0  0  0  0  0  0
  1  2  1  0
  2  3  1  0
  3  4  1  0
  4  5  2  0
  4  6  1  0
  6  7  2  0
  7  8  1  0
  8  9  2  0
  9 10  1  0
 10 11  1  0
 11 12  2  0
 11 13  1  0
 13 14  1  0
 14 15  1  0
 15 16  2  0
 16 17  1  0
 17 18  1  0
 18 19  2  0
 19 20  1  0
 20 21  2  0
 21 22  1  0
 22 23  1  0
 21 24  1  0
 24 25  2  0
 17 26  2  0
 26 27  1  0
 27 28  1  0
 28 29  2  0
 29 30  1  0
 30 31  2  0
 31 32  1  0
 32 33  1  0
 31 34  1  0
 34 35  2  0
 27 36  2  0
 36 37  1  0
 37 38  3  0
  9 39  1  0
 39 40  2  0
 40  6  1  0
 36 15  1  0
 25 18  1  0
 35 28  1  0
  1 41  1  0
  1 42  1  0
  1 43  1  0
  2 44  1  0
  2 45  1  0
  7 46  1  0
  8 47  1  0
 10 48  1  0
 13 49  1  0
 13 50  1  0
 19 51  1  0
 20 52  1  0
 23 53  1  0
 23 54  1  0
 23 55  1  0
 24 56  1  0
 25 57  1  0
 26 58  1  0
 29 59  1  0
 30 60  1  0
 33 61  1  0
 33 62  1  0
 33 63  1  0
 34 64  1  0
 35 65  1  0
 39 66  1  0
 40 67  1  0
M  END
>  <Binding energies>  (1) 
[-9.01]

>  <Ligand effiencies>  (1) 
[-0.2197560975609756]

>  <Interactions>  (1) 
["V-B:TYR:539:C:9835, V-B:TYR:539:CD2:9842, V-A:LEU:475:CD2:4254, V-A:TRP:381:CZ2:3365, V-B:TYR:539:CE2:9844, V-B:ALA:541:CB:9860, V-A:TRP:381:CH2:3367, V-A:PRO:482:CB:4321, V-B:GLU:543:CD:9876, V-A:GLU:543:CG:4902, V-A:GLU:543:CD:4903, H-A:TYR:484:OH:4343, V-B:TYR:539:CA:9837, V-A:TRP:381:CZ3:3366, V-B:ARG:545:CZ:9894, V-B:HIS:456:CE1:9037, V-A:HIS:456:CE1:4064, H-A:HIS:456:NE2:4065, H-B:LYS:547:NZ:9919, H-A:LYS:547:NZ:4946, V-B:LYS:547:CE:9918, V-B:HIS:456:CD2:9035, V-A:GLU:543:C:4897, V-A:ILE:369:CD1:3234, V-A:PRO:482:CG:4322, V-A:TRP:381:CE2:3362, V-A:ARG:545:CZ:4921, H-A:GLY:454:N:4045, V-A:ARG:545:CD:4918, V-A:ARG:545:CG:4917, V-B:TYR:539:CB:9839, V-A:TRP:381:CD2:3360, V-A:TRP:381:CE3:3363"]

$$$$
1b_Ghoteimi_2023
     RDKit          3D

 54 57  0  0  0  0  0  0  0  0999 V2000
  130.5170  126.5830   74.2540 C   0  0  0  0  0  0  0  0  0  0  0  0
  129.9710  127.7630   73.6770 O   0  0  0  0  0  0  0  0  0  0  0  0
  129.7640  127.8110   72.3120 C   0  0  0  0  0  0  0  0  0  0  0  0
  129.2390  126.6650   71.7190 C   0  0  0  0  0  0  0  0  0  0  0  0
  128.9980  126.6210   70.3490 C   0  0  0  0  0  0  0  0  0  0  0  0
  129.2720  127.7260   69.5290 C   0  0  0  0  0  0  0  0  0  0  0  0
  129.0120  127.6750   68.0490 C   0  0  0  0  0  0  0  0  0  0  0  0
  127.9710  128.3770   67.4340 C   0  0  0  0  0  0  0  0  0  0  0  0
  127.7740  128.2980   66.0500 C   0  0  0  0  0  0  0  0  0  0  0  0
  126.6390  129.0710   65.4620 C   0  0  0  0  0  0  0  0  0  0  0  0
  125.3300  128.8400   65.8930 C   0  0  0  0  0  0  0  0  0  0  0  0
  124.2680  129.5520   65.3420 C   0  0  0  0  0  0  0  0  0  0  0  0
  124.4930  130.5050   64.3480 C   0  0  0  0  0  0  0  0  0  0  0  0
  123.3790  131.1620   63.8600 O   0  0  0  0  0  0  0  0  0  0  0  0
  122.8310  130.7620   62.6090 C   0  0  0  0  0  0  0  0  0  0  0  0
  125.8040  130.7350   63.9080 C   0  0  0  0  0  0  0  0  0  0  0  0
  126.8640  130.0210   64.4600 C   0  0  0  0  0  0  0  0  0  0  0  0
  128.6610  127.5000   65.2870 C   0  0  0  0  0  0  0  0  0  0  0  0
  128.5570  127.4600   63.8250 C   0  0  0  0  0  0  0  0  0  0  0  0
  128.4740  127.4290   62.6710 N   0  0  0  0  0  0  0  0  0  0  0  0
  129.6790  126.8000   65.9730 C   0  0  0  0  0  0  0  0  0  0  0  0
  130.8760  125.7460   65.1810 S   0  0  0  0  0  0  0  0  0  0  0  0
  130.4770  124.0190   65.6140 C   0  0  0  0  0  0  0  0  0  0  0  0
  130.2530  123.0840   64.4160 C   0  0  0  0  0  0  0  0  0  0  0  0
  130.8160  121.9890   64.3570 O   0  0  0  0  0  0  0  0  0  0  0  0
  129.4120  123.5680   63.4740 N   0  0  0  0  0  0  0  0  0  0  0  0
  129.0260  122.9460   62.2930 C   0  0  0  0  0  0  0  0  0  0  0  0
  129.9320  122.3730   61.4020 C   0  0  0  0  0  0  0  0  0  0  0  0
  129.1610  121.8710   60.3790 C   0  0  0  0  0  0  0  0  0  0  0  0
  127.8560  122.1270   60.6420 O   0  0  0  0  0  0  0  0  0  0  0  0
  127.7840  122.8080   61.8570 N   0  0  0  0  0  0  0  0  0  0  0  0
  129.8550  126.9060   67.3120 N   0  0  0  0  0  0  0  0  0  0  0  0
  129.8020  128.8750   70.1370 C   0  0  0  0  0  0  0  0  0  0  0  0
  130.0450  128.9230   71.5060 C   0  0  0  0  0  0  0  0  0  0  0  0
  130.4811  126.6606   75.3507 H   0  0  0  0  0  0  0  0  0  0  0  0
  129.9310  125.7108   73.9288 H   0  0  0  0  0  0  0  0  0  0  0  0
  131.5612  126.4651   73.9288 H   0  0  0  0  0  0  0  0  0  0  0  0
  129.0126  125.7857   72.3400 H   0  0  0  0  0  0  0  0  0  0  0  0
  128.5858  125.7045   69.9016 H   0  0  0  0  0  0  0  0  0  0  0  0
  127.2991  128.9984   68.0443 H   0  0  0  0  0  0  0  0  0  0  0  0
  125.1371  128.0896   66.6739 H   0  0  0  0  0  0  0  0  0  0  0  0
  123.2431  129.3617   65.6932 H   0  0  0  0  0  0  0  0  0  0  0  0
  121.9535  130.1215   62.7811 H   0  0  0  0  0  0  0  0  0  0  0  0
  122.5285  131.6531   62.0395 H   0  0  0  0  0  0  0  0  0  0  0  0
  123.5875  130.2022   62.0395 H   0  0  0  0  0  0  0  0  0  0  0  0
  125.9958  131.4822   63.1239 H   0  0  0  0  0  0  0  0  0  0  0  0
  127.8886  130.2056   64.1048 H   0  0  0  0  0  0  0  0  0  0  0  0
  131.3087  123.6160   66.2105 H   0  0  0  0  0  0  0  0  0  0  0  0
  129.5230  124.0519   66.1606 H   0  0  0  0  0  0  0  0  0  0  0  0
  129.0040  124.4760   63.6400 H   0  0  0  0  0  0  0  0  0  0  0  0
  131.0271  122.3312   61.4964 H   0  0  0  0  0  0  0  0  0  0  0  0
  129.5422  121.3463   59.4905 H   0  0  0  0  0  0  0  0  0  0  0  0
  130.0298  129.7555   69.5183 H   0  0  0  0  0  0  0  0  0  0  0  0
  130.4590  129.8366   71.9575 H   0  0  0  0  0  0  0  0  0  0  0  0
  1  2  1  0
  2  3  1  0
  3  4  2  0
  4  5  1  0
  5  6  2  0
  6  7  1  0
  7  8  2  0
  8  9  1  0
  9 10  1  0
 10 11  2  0
 11 12  1  0
 12 13  2  0
 13 14  1  0
 14 15  1  0
 13 16  1  0
 16 17  2  0
  9 18  2  0
 18 19  1  0
 19 20  3  0
 18 21  1  0
 21 22  1  0
 22 23  1  0
 23 24  1  0
 24 25  2  0
 24 26  1  0
 26 27  1  0
 27 28  1  0
 28 29  2  0
 29 30  1  0
 30 31  1  0
 21 32  2  0
  6 33  1  0
 33 34  2  0
 34  3  1  0
 32  7  1  0
 17 10  1  0
 31 27  2  0
  1 35  1  0
  1 36  1  0
  1 37  1  0
  4 38  1  0
  5 39  1  0
  8 40  1  0
 11 41  1  0
 12 42  1  0
 15 43  1  0
 15 44  1  0
 15 45  1  0
 16 46  1  0
 17 47  1  0
 23 48  1  0
 23 49  1  0
 26 50  1  0
 28 51  1  0
 29 52  1  0
 33 53  1  0
 34 54  1  0
M  END
>  <Binding energies>  (1) 
[-9.0]

>  <Ligand effiencies>  (1) 
[-0.2571428571428571]

>  <Interactions>  (1) 
["V-B:ALA:541:CB:9860, H-B:ALA:541:N:9859, H-B:GLU:543:OE2:9878, V-B:GLU:543:CD:9876, V-A:GLU:543:CD:4903, H-A:TYR:484:OH:4343, V-B:GLU:543:CG:9875, V-A:TYR:484:CE1:4340, H-B:GLY:454:N:9017, V-B:ILE:369:CD1:8206, V-B:ARG:545:CZ:9894, V-B:HIS:456:CE1:9037, V-B:ARG:545:CG:9890, V-B:ARG:545:CD:9891, V-A:TYR:484:CZ:4342, V-A:HIS:456:CE1:4064, V-A:LYS:547:CE:4945, H-B:LYS:547:NZ:9919, H-A:LYS:547:NZ:4946, V-B:LYS:547:CE:9918, V-A:GLU:543:C:4897, V-B:GLY:453:CA:9011, V-B:GLY:453:C:9009"]

$$$$
1b_Grossjean_2025
     RDKit          3D

 42 43  0  0  0  0  0  0  0  0999 V2000
  132.0060  131.7600   56.8220 C   0  0  0  0  0  0  0  0  0  0  0  0
  131.3060  132.9890   56.6730 O   0  0  0  0  0  0  0  0  0  0  0  0
  130.0420  133.0160   56.1790 C   0  0  0  0  0  0  0  0  0  0  0  0
  129.7690  133.3680   55.0270 O   0  0  0  0  0  0  0  0  0  0  0  0
  129.0070  132.5680   57.1710 C   0  0  0  0  0  0  0  0  0  0  0  0
  128.1070  131.5290   56.8860 C   0  0  0  0  0  0  0  0  0  0  0  0
  127.1600  131.1390   57.8270 C   0  0  0  0  0  0  0  0  0  0  0  0
  127.0900  131.7730   59.0680 C   0  0  0  0  0  0  0  0  0  0  0  0
  126.0920  131.2970   59.9400 N   0  0  0  0  0  0  0  0  0  0  0  0
  124.7460  131.3690   59.8450 C   0  0  0  0  0  0  0  0  0  0  0  0
  124.1210  131.8890   58.9210 O   0  0  0  0  0  0  0  0  0  0  0  0
  123.9730  130.7270   60.9980 C   0  0  0  0  0  0  0  0  0  0  0  0
  123.9570  131.7780   62.4820 S   0  0  0  0  0  0  0  0  0  0  0  0
  124.3380  130.7350   63.8740 C   0  0  0  0  0  0  0  0  0  0  0  0
  123.3790  130.7320   64.8320 N   0  0  0  0  0  0  0  0  0  0  0  0
  123.5650  129.9720   65.9360 C   0  0  0  0  0  0  0  0  0  0  0  0
  122.4440  130.0060   66.9590 C   0  0  0  0  0  0  0  0  0  0  0  0
  124.7080  129.1990   66.1330 C   0  0  0  0  0  0  0  0  0  0  0  0
  125.7130  129.2130   65.1600 C   0  0  0  0  0  0  0  0  0  0  0  0
  126.9640  128.3720   65.4050 C   0  0  0  0  0  0  0  0  0  0  0  0
  125.5400  130.0010   63.9990 C   0  0  0  0  0  0  0  0  0  0  0  0
  126.5980  130.0650   62.9870 C   0  0  0  0  0  0  0  0  0  0  0  0
  127.4350  130.1140   62.1900 N   0  0  0  0  0  0  0  0  0  0  0  0
  127.9860  132.8120   59.3600 C   0  0  0  0  0  0  0  0  0  0  0  0
  128.9340  133.2010   58.4180 C   0  0  0  0  0  0  0  0  0  0  0  0
  132.1327  131.5376   57.8918 H   0  0  0  0  0  0  0  0  0  0  0  0
  131.4329  130.9514   56.3447 H   0  0  0  0  0  0  0  0  0  0  0  0
  132.9938  131.8404   56.3447 H   0  0  0  0  0  0  0  0  0  0  0  0
  128.1511  131.0199   55.9119 H   0  0  0  0  0  0  0  0  0  0  0  0
  126.4602  130.3238   57.5909 H   0  0  0  0  0  0  0  0  0  0  0  0
  126.4530  130.8430   60.7660 H   0  0  0  0  0  0  0  0  0  0  0  0
  122.9358  130.5529   60.6758 H   0  0  0  0  0  0  0  0  0  0  0  0
  124.4749  129.7832   61.2575 H   0  0  0  0  0  0  0  0  0  0  0  0
  122.8718  129.9930   67.9723 H   0  0  0  0  0  0  0  0  0  0  0  0
  121.8512  130.9225   66.8230 H   0  0  0  0  0  0  0  0  0  0  0  0
  121.7967  129.1271   66.8230 H   0  0  0  0  0  0  0  0  0  0  0  0
  124.8182  128.5869   67.0403 H   0  0  0  0  0  0  0  0  0  0  0  0
  127.1263  128.2629   66.4875 H   0  0  0  0  0  0  0  0  0  0  0  0
  126.8323  127.3783   64.9520 H   0  0  0  0  0  0  0  0  0  0  0  0
  127.8345  128.8690   64.9520 H   0  0  0  0  0  0  0  0  0  0  0  0
  127.9394  133.3200   60.3346 H   0  0  0  0  0  0  0  0  0  0  0  0
  129.6342  134.0153   58.6559 H   0  0  0  0  0  0  0  0  0  0  0  0
  1  2  1  0
  2  3  1  0
  3  4  2  0
  3  5  1  0
  5  6  2  0
  6  7  1  0
  7  8  2  0
  8  9  1  0
  9 10  1  0
 10 11  2  0
 10 12  1  0
 12 13  1  0
 13 14  1  0
 14 15  2  0
 15 16  1  0
 16 17  1  0
 16 18  2  0
 18 19  1  0
 19 20  1  0
 19 21  2  0
 21 22  1  0
 22 23  3  0
  8 24  1  0
 24 25  2  0
 25  5  1  0
 21 14  1  0
  1 26  1  0
  1 27  1  0
  1 28  1  0
  6 29  1  0
  7 30  1  0
  9 31  1  0
 12 32  1  0
 12 33  1  0
 17 34  1  0
 17 35  1  0
 17 36  1  0
 18 37  1  0
 20 38  1  0
 20 39  1  0
 20 40  1  0
 24 41  1  0
 25 42  1  0
M  END
>  <Binding energies>  (1) 
[-7.58]

>  <Ligand effiencies>  (1) 
[-0.2915384615384615]

>  <Interactions>  (1) 
["V-B:GLU:543:CD:9876, V-A:PRO:540:N:4879, V-A:TYR:539:CE2:4871, V-A:PRO:540:CA:4878, V-A:TYR:539:CE1:4870, V-A:TYR:539:CZ:4872, V-A:PRO:540:CB:4880, V-A:LEU:363:CD1:3184, V-A:TYR:539:C:4862, V-A:PRO:540:CD:4882, V-A:TYR:539:CD2:4869, H-B:GLY:454:N:9017, H-A:TYR:539:N:4865, V-B:ASP:366:CG:8180, V-A:TYR:539:CD1:4868, V-A:TYR:539:CG:4867, V-A:TYR:539:CA:4864, V-B:ARG:545:CZ:9894, H-A:TYR:539:OH:4873, V-B:HIS:456:CE1:9037, V-B:ARG:545:CG:9890, V-B:ARG:545:CD:9891, V-B:GLY:453:CA:9011, V-B:GLY:453:C:9009, V-B:ILE:455:C:9019, V-B:ARG:545:CB:9889"]

$$$$
1c_Ghoteimi_2023
     RDKit          3D

 54 57  0  0  0  0  0  0  0  0999 V2000
  124.1190  132.2270   61.8780 C   0  0  0  0  0  0  0  0  0  0  0  0
  124.9840  132.5960   62.9460 O   0  0  0  0  0  0  0  0  0  0  0  0
  125.7110  131.6170   63.5960 C   0  0  0  0  0  0  0  0  0  0  0  0
  124.9830  130.6630   64.3030 C   0  0  0  0  0  0  0  0  0  0  0  0
  125.6330  129.6420   64.9900 C   0  0  0  0  0  0  0  0  0  0  0  0
  127.0330  129.5440   64.9910 C   0  0  0  0  0  0  0  0  0  0  0  0
  127.7390  128.4470   65.7350 C   0  0  0  0  0  0  0  0  0  0  0  0
  128.8440  127.7680   65.2110 C   0  0  0  0  0  0  0  0  0  0  0  0
  129.4870  126.7700   65.9530 C   0  0  0  0  0  0  0  0  0  0  0  0
  130.7000  126.1340   65.3600 C   0  0  0  0  0  0  0  0  0  0  0  0
  131.8760  126.0130   66.1050 C   0  0  0  0  0  0  0  0  0  0  0  0
  133.0130  125.4400   65.5440 C   0  0  0  0  0  0  0  0  0  0  0  0
  132.9980  124.9810   64.2270 C   0  0  0  0  0  0  0  0  0  0  0  0
  134.1710  124.4260   63.7530 O   0  0  0  0  0  0  0  0  0  0  0  0
  134.2390  123.9980   62.3970 C   0  0  0  0  0  0  0  0  0  0  0  0
  131.8210  125.1070   63.4730 C   0  0  0  0  0  0  0  0  0  0  0  0
  130.6850  125.6810   64.0370 C   0  0  0  0  0  0  0  0  0  0  0  0
  128.9730  126.4450   67.2310 C   0  0  0  0  0  0  0  0  0  0  0  0
  129.5800  125.3860   68.0440 C   0  0  0  0  0  0  0  0  0  0  0  0
  130.0610  124.5500   68.6840 N   0  0  0  0  0  0  0  0  0  0  0  0
  127.8670  127.1810   67.7050 C   0  0  0  0  0  0  0  0  0  0  0  0
  127.2260  126.9970   69.3540 S   0  0  0  0  0  0  0  0  0  0  0  0
  128.3690  127.9480   70.4080 C   0  0  0  0  0  0  0  0  0  0  0  0
  128.9620  127.0950   71.5340 C   0  0  0  0  0  0  0  0  0  0  0  0
  129.1740  127.6040   72.6360 O   0  0  0  0  0  0  0  0  0  0  0  0
  129.1710  125.7970   71.2240 N   0  0  0  0  0  0  0  0  0  0  0  0
  129.5500  124.7870   72.0950 C   0  0  0  0  0  0  0  0  0  0  0  0
  129.3810  124.7410   73.3990 N   0  0  0  0  0  0  0  0  0  0  0  0
  129.8290  123.6070   73.9040 C   0  0  0  0  0  0  0  0  0  0  0  0
  130.3730  122.7030   72.9980 C   0  0  0  0  0  0  0  0  0  0  0  0
  130.2940  123.3840   71.4010 S   0  0  0  0  0  0  0  0  0  0  0  0
  127.2750  128.1590   66.9790 N   0  0  0  0  0  0  0  0  0  0  0  0
  127.7560  130.5060   64.2700 C   0  0  0  0  0  0  0  0  0  0  0  0
  127.1100  131.5300   63.5830 C   0  0  0  0  0  0  0  0  0  0  0  0
  123.1802  131.8265   62.2882 H   0  0  0  0  0  0  0  0  0  0  0  0
  123.9017  133.1107   61.2601 H   0  0  0  0  0  0  0  0  0  0  0  0
  124.6065  131.4585   61.2601 H   0  0  0  0  0  0  0  0  0  0  0  0
  123.8844  130.7170   64.3185 H   0  0  0  0  0  0  0  0  0  0  0  0
  125.0390  128.8987   65.5419 H   0  0  0  0  0  0  0  0  0  0  0  0
  129.2116  128.0208   64.2055 H   0  0  0  0  0  0  0  0  0  0  0  0
  131.9030  126.3738   67.1438 H   0  0  0  0  0  0  0  0  0  0  0  0
  133.9306  125.3483   66.1436 H   0  0  0  0  0  0  0  0  0  0  0  0
  134.4115  122.9121   62.3635 H   0  0  0  0  0  0  0  0  0  0  0  0
  133.2920  124.2346   61.8899 H   0  0  0  0  0  0  0  0  0  0  0  0
  135.0660  124.5165   61.8899 H   0  0  0  0  0  0  0  0  0  0  0  0
  131.7960  124.7509   62.4325 H   0  0  0  0  0  0  0  0  0  0  0  0
  129.7682  125.7790   63.4372 H   0  0  0  0  0  0  0  0  0  0  0  0
  129.1898  128.3319   69.7843 H   0  0  0  0  0  0  0  0  0  0  0  0
  127.7999  128.7685   70.8694 H   0  0  0  0  0  0  0  0  0  0  0  0
  128.9630  125.5060   70.2810 H   0  0  0  0  0  0  0  0  0  0  0  0
  129.7752  123.3891   74.9809 H   0  0  0  0  0  0  0  0  0  0  0  0
  130.7867  121.7158   73.2514 H   0  0  0  0  0  0  0  0  0  0  0  0
  128.8543  130.4501   64.2471 H   0  0  0  0  0  0  0  0  0  0  0  0
  127.6999  132.2740   63.0276 H   0  0  0  0  0  0  0  0  0  0  0  0
  1  2  1  0
  2  3  1  0
  3  4  2  0
  4  5  1  0
  5  6  2  0
  6  7  1  0
  7  8  2  0
  8  9  1  0
  9 10  1  0
 10 11  2  0
 11 12  1  0
 12 13  2  0
 13 14  1  0
 14 15  1  0
 13 16  1  0
 16 17  2  0
  9 18  2  0
 18 19  1  0
 19 20  3  0
 18 21  1  0
 21 22  1  0
 22 23  1  0
 23 24  1  0
 24 25  2  0
 24 26  1  0
 26 27  1  0
 27 28  2  0
 28 29  1  0
 29 30  2  0
 30 31  1  0
 21 32  2  0
  6 33  1  0
 33 34  2  0
 34  3  1  0
 32  7  1  0
 17 10  1  0
 31 27  1  0
  1 35  1  0
  1 36  1  0
  1 37  1  0
  4 38  1  0
  5 39  1  0
  8 40  1  0
 11 41  1  0
 12 42  1  0
 15 43  1  0
 15 44  1  0
 15 45  1  0
 16 46  1  0
 17 47  1  0
 23 48  1  0
 23 49  1  0
 26 50  1  0
 29 51  1  0
 30 52  1  0
 33 53  1  0
 34 54  1  0
M  END
>  <Binding energies>  (1) 
[-8.43]

>  <Ligand effiencies>  (1) 
[-0.24085714285714285]

>  <Interactions>  (1) 
["V-B:GLU:543:CD:9876, V-A:ASP:366:CG:3208, V-A:GLU:543:CD:4903, H-A:TYR:484:OH:4343, V-B:GLU:543:CG:9875, V-B:ILE:369:CD1:8206, V-B:HIS:456:CE1:9037, H-B:TYR:484:OH:9315, H-B:GLU:543:O:9871, V-B:GLU:543:CA:9872, V-A:HIS:456:CE1:4064, H-A:HIS:456:NE2:4065, V-B:GLU:543:CB:9874, H-B:LYS:547:NZ:9919, V-A:HIS:456:CG:4061, V-B:LYS:547:CE:9918, V-B:HIS:456:CD2:9035, V-B:GLU:543:C:9870, V-A:ILE:369:CD1:3234, V-A:ARG:545:CZ:4921, H-A:GLY:454:N:4045, V-A:GLY:453:C:4037, V-A:HIS:456:CD2:4063"]

$$$$
1c_Grossjean_2025
     RDKit          3D

 40 41  0  0  0  0  0  0  0  0999 V2000
  129.9830  132.8450   55.1390 C   0  0  0  0  0  0  0  0  0  0  0  0
  130.0210  133.1850   56.5210 O   0  0  0  0  0  0  0  0  0  0  0  0
  129.0240  132.7180   57.3570 C   0  0  0  0  0  0  0  0  0  0  0  0
  128.8710  133.3820   58.5730 C   0  0  0  0  0  0  0  0  0  0  0  0
  127.8940  132.9860   59.4820 C   0  0  0  0  0  0  0  0  0  0  0  0
  127.0450  131.9120   59.1760 C   0  0  0  0  0  0  0  0  0  0  0  0
  126.0330  131.4230   60.0240 N   0  0  0  0  0  0  0  0  0  0  0  0
  124.6920  131.5130   59.8990 C   0  0  0  0  0  0  0  0  0  0  0  0
  124.0960  132.0490   58.9650 O   0  0  0  0  0  0  0  0  0  0  0  0
  123.8830  130.8750   61.0300 C   0  0  0  0  0  0  0  0  0  0  0  0
  123.9810  131.8460   62.5630 S   0  0  0  0  0  0  0  0  0  0  0  0
  124.3380  130.7360   63.9100 C   0  0  0  0  0  0  0  0  0  0  0  0
  123.3880  130.7410   64.8800 N   0  0  0  0  0  0  0  0  0  0  0  0
  123.5510  129.9360   65.9560 C   0  0  0  0  0  0  0  0  0  0  0  0
  122.4440  129.9890   66.9910 C   0  0  0  0  0  0  0  0  0  0  0  0
  124.6610  129.1100   66.1150 C   0  0  0  0  0  0  0  0  0  0  0  0
  125.6580  129.1150   65.1340 C   0  0  0  0  0  0  0  0  0  0  0  0
  126.8740  128.2130   65.3400 C   0  0  0  0  0  0  0  0  0  0  0  0
  125.5100  129.9500   64.0020 C   0  0  0  0  0  0  0  0  0  0  0  0
  126.5700  130.0090   62.9920 C   0  0  0  0  0  0  0  0  0  0  0  0
  127.4070  130.0560   62.1950 N   0  0  0  0  0  0  0  0  0  0  0  0
  127.2030  131.2370   57.9640 C   0  0  0  0  0  0  0  0  0  0  0  0
  128.1820  131.6360   57.0580 C   0  0  0  0  0  0  0  0  0  0  0  0
  129.8614  131.7570   55.0323 H   0  0  0  0  0  0  0  0  0  0  0  0
  129.1365  133.3574   54.6585 H   0  0  0  0  0  0  0  0  0  0  0  0
  130.9217  133.1579   54.6585 H   0  0  0  0  0  0  0  0  0  0  0  0
  129.5297  134.2285   58.8170 H   0  0  0  0  0  0  0  0  0  0  0  0
  127.7877  133.5153   60.4404 H   0  0  0  0  0  0  0  0  0  0  0  0
  126.3720  130.8900   60.8110 H   0  0  0  0  0  0  0  0  0  0  0  0
  122.8301  130.8060   60.7192 H   0  0  0  0  0  0  0  0  0  0  0  0
  124.3031  129.8782   61.2299 H   0  0  0  0  0  0  0  0  0  0  0  0
  122.8834  129.9680   67.9992 H   0  0  0  0  0  0  0  0  0  0  0  0
  121.8658  130.9159   66.8623 H   0  0  0  0  0  0  0  0  0  0  0  0
  121.7799  129.1216   66.8623 H   0  0  0  0  0  0  0  0  0  0  0  0
  124.7523  128.4627   66.9997 H   0  0  0  0  0  0  0  0  0  0  0  0
  127.0535  128.0798   66.4171 H   0  0  0  0  0  0  0  0  0  0  0  0
  126.6869  127.2335   64.8756 H   0  0  0  0  0  0  0  0  0  0  0  0
  127.7570  128.6762   64.8756 H   0  0  0  0  0  0  0  0  0  0  0  0
  126.5502  130.3850   57.7235 H   0  0  0  0  0  0  0  0  0  0  0  0
  128.2959  131.1008   56.1038 H   0  0  0  0  0  0  0  0  0  0  0  0
  1  2  1  0
  2  3  1  0
  3  4  2  0
  4  5  1  0
  5  6  2  0
  6  7  1  0
  7  8  1  0
  8  9  2  0
  8 10  1  0
 10 11  1  0
 11 12  1  0
 12 13  2  0
 13 14  1  0
 14 15  1  0
 14 16  2  0
 16 17  1  0
 17 18  1  0
 17 19  2  0
 19 20  1  0
 20 21  3  0
  6 22  1  0
 22 23  2  0
 23  3  1  0
 19 12  1  0
  1 24  1  0
  1 25  1  0
  1 26  1  0
  4 27  1  0
  5 28  1  0
  7 29  1  0
 10 30  1  0
 10 31  1  0
 15 32  1  0
 15 33  1  0
 15 34  1  0
 16 35  1  0
 18 36  1  0
 18 37  1  0
 18 38  1  0
 22 39  1  0
 23 40  1  0
M  END
>  <Binding energies>  (1) 
[-6.92]

>  <Ligand effiencies>  (1) 
[-0.28833333333333333]

>  <Interactions>  (1) 
["V-B:GLU:543:CD:9876, V-A:PRO:540:N:4879, V-A:TYR:539:CE2:4871, V-A:PRO:540:CA:4878, V-A:TYR:539:CE1:4870, V-A:TYR:539:CZ:4872, V-A:TYR:539:C:4862, V-A:TYR:539:CD2:4869, H-B:GLY:454:N:9017, V-B:ILE:369:CD1:8206, H-A:TYR:539:N:4865, V-B:ASP:366:CG:8180, V-A:TYR:539:CD1:4868, V-A:TYR:539:CG:4867, V-A:TYR:539:CA:4864, V-B:ARG:545:CZ:9894, H-A:TYR:539:OH:4873, V-A:ILE:538:CA:4855, V-B:HIS:456:CE1:9037, V-B:ARG:545:CG:9890, V-B:ARG:545:CD:9891, V-B:GLY:453:CA:9011, V-B:GLY:453:C:9009, V-B:ILE:455:C:9019, V-B:ARG:545:CB:9889"]

$$$$
1d_Ghoteimi_2023
     RDKit          3D

 50 52  0  0  0  0  0  0  0  0999 V2000
  123.6340  130.0410   63.5720 C   0  0  0  0  0  0  0  0  0  0  0  0
  124.0510  130.7040   64.7550 O   0  0  0  0  0  0  0  0  0  0  0  0
  124.0070  130.0720   65.9470 C   0  0  0  0  0  0  0  0  0  0  0  0
  123.2900  130.3680   66.9030 O   0  0  0  0  0  0  0  0  0  0  0  0
  124.9790  128.8960   66.0150 C   0  0  0  0  0  0  0  0  0  0  0  0
  126.5390  129.4310   65.2520 S   0  0  0  0  0  0  0  0  0  0  0  0
  127.8460  128.5180   66.0440 C   0  0  0  0  0  0  0  0  0  0  0  0
  127.8660  128.6530   67.3910 N   0  0  0  0  0  0  0  0  0  0  0  0
  128.8150  128.0130   68.1220 C   0  0  0  0  0  0  0  0  0  0  0  0
  128.7640  128.2100   69.6090 C   0  0  0  0  0  0  0  0  0  0  0  0
  129.7970  128.8720   70.2920 C   0  0  0  0  0  0  0  0  0  0  0  0
  129.7510  129.0480   71.6710 C   0  0  0  0  0  0  0  0  0  0  0  0
  128.6740  128.5680   72.4120 C   0  0  0  0  0  0  0  0  0  0  0  0
  128.7140  128.7850   73.7760 O   0  0  0  0  0  0  0  0  0  0  0  0
  127.9600  129.8570   74.3310 C   0  0  0  0  0  0  0  0  0  0  0  0
  127.6350  127.9050   71.7450 C   0  0  0  0  0  0  0  0  0  0  0  0
  127.6830  127.7320   70.3650 C   0  0  0  0  0  0  0  0  0  0  0  0
  129.7700  127.2030   67.4960 C   0  0  0  0  0  0  0  0  0  0  0  0
  129.7810  127.0580   66.1030 C   0  0  0  0  0  0  0  0  0  0  0  0
  130.8330  126.1840   65.5010 C   0  0  0  0  0  0  0  0  0  0  0  0
  130.5150  125.3250   64.4440 C   0  0  0  0  0  0  0  0  0  0  0  0
  131.4900  124.5080   63.8780 C   0  0  0  0  0  0  0  0  0  0  0  0
  132.8010  124.5360   64.3510 C   0  0  0  0  0  0  0  0  0  0  0  0
  133.6990  123.6870   63.7340 O   0  0  0  0  0  0  0  0  0  0  0  0
  134.1640  123.9990   62.4260 C   0  0  0  0  0  0  0  0  0  0  0  0
  133.1280  125.4060   65.4030 C   0  0  0  0  0  0  0  0  0  0  0  0
  132.1520  126.2220   65.9670 C   0  0  0  0  0  0  0  0  0  0  0  0
  128.8050  127.7500   65.3450 C   0  0  0  0  0  0  0  0  0  0  0  0
  128.8340  127.7180   63.8800 C   0  0  0  0  0  0  0  0  0  0  0  0
  128.8570  127.6910   62.7230 N   0  0  0  0  0  0  0  0  0  0  0  0
  123.0658  129.1377   63.8388 H   0  0  0  0  0  0  0  0  0  0  0  0
  122.9962  130.7138   62.9800 H   0  0  0  0  0  0  0  0  0  0  0  0
  124.5167  129.7575   62.9800 H   0  0  0  0  0  0  0  0  0  0  0  0
  125.1519  128.6120   67.0635 H   0  0  0  0  0  0  0  0  0  0  0  0
  124.5685  128.0233   65.4859 H   0  0  0  0  0  0  0  0  0  0  0  0
  130.6578  129.2582   69.7265 H   0  0  0  0  0  0  0  0  0  0  0  0
  130.5731  129.5713   72.1811 H   0  0  0  0  0  0  0  0  0  0  0  0
  127.9984  129.8024   75.4290 H   0  0  0  0  0  0  0  0  0  0  0  0
  128.3841  130.8153   73.9965 H   0  0  0  0  0  0  0  0  0  0  0  0
  126.9148  129.7819   73.9965 H   0  0  0  0  0  0  0  0  0  0  0  0
  126.7770  127.5193   72.3152 H   0  0  0  0  0  0  0  0  0  0  0  0
  126.8580  127.2107   69.8574 H   0  0  0  0  0  0  0  0  0  0  0  0
  130.5192  126.6752   68.1043 H   0  0  0  0  0  0  0  0  0  0  0  0
  129.4859  125.2947   64.0566 H   0  0  0  0  0  0  0  0  0  0  0  0
  131.2234  123.8344   63.0502 H   0  0  0  0  0  0  0  0  0  0  0  0
  135.0755  124.6106   62.4971 H   0  0  0  0  0  0  0  0  0  0  0  0
  134.3884  123.0680   61.8848 H   0  0  0  0  0  0  0  0  0  0  0  0
  133.3876  124.5596   61.8848 H   0  0  0  0  0  0  0  0  0  0  0  0
  134.1596  125.4429   65.7830 H   0  0  0  0  0  0  0  0  0  0  0  0
  132.4200  126.9039   66.7875 H   0  0  0  0  0  0  0  0  0  0  0  0
  1  2  1  0
  2  3  1  0
  3  4  2  0
  3  5  1  0
  5  6  1  0
  6  7  1  0
  7  8  2  0
  8  9  1  0
  9 10  1  0
 10 11  2  0
 11 12  1  0
 12 13  2  0
 13 14  1  0
 14 15  1  0
 13 16  1  0
 16 17  2  0
  9 18  2  0
 18 19  1  0
 19 20  1  0
 20 21  2  0
 21 22  1  0
 22 23  2  0
 23 24  1  0
 24 25  1  0
 23 26  1  0
 26 27  2  0
 19 28  2  0
 28 29  1  0
 29 30  3  0
 28  7  1  0
 17 10  1  0
 27 20  1  0
  1 31  1  0
  1 32  1  0
  1 33  1  0
  5 34  1  0
  5 35  1  0
 11 36  1  0
 12 37  1  0
 15 38  1  0
 15 39  1  0
 15 40  1  0
 16 41  1  0
 17 42  1  0
 18 43  1  0
 21 44  1  0
 22 45  1  0
 25 46  1  0
 25 47  1  0
 25 48  1  0
 26 49  1  0
 27 50  1  0
M  END
>  <Binding energies>  (1) 
[-7.5]

>  <Ligand effiencies>  (1) 
[-0.25]

>  <Interactions>  (1) 
["V-B:GLU:543:CD:9876, V-A:ASP:366:CG:3208, V-A:GLU:543:CD:4903, H-A:TYR:484:OH:4343, H-B:GLY:454:N:9017, V-B:ARG:545:CZ:9894, V-B:HIS:456:CE1:9037, V-B:ARG:545:CG:9890, H-B:TYR:484:OH:9315, V-B:ARG:545:CD:9891, V-A:HIS:456:CE1:4064, H-B:LYS:547:NZ:9919, H-A:LYS:547:NZ:4946, V-B:HIS:456:CD2:9035, V-A:GLU:543:C:4897, V-A:ILE:369:CD1:3234, V-B:HIS:456:CG:9033, H-B:HIS:456:ND1:9034, V-A:ARG:545:CZ:4921, H-A:GLY:454:N:4045, V-A:ARG:545:CD:4918, H-B:ILE:455:N:9022"]

$$$$
1d_Grossjean_2025
     RDKit          3D

 36 37  0  0  0  0  0  0  0  0999 V2000
  128.2710  122.6940   56.1110 C   0  0  0  0  0  0  0  0  0  0  0  0
  127.4110  123.0250   57.3150 C   0  0  0  0  0  0  0  0  0  0  0  0
  126.0920  123.4520   57.1750 C   0  0  0  0  0  0  0  0  0  0  0  0
  125.3420  123.7330   58.3220 C   0  0  0  0  0  0  0  0  0  0  0  0
  123.8940  124.1850   58.1430 C   0  0  0  0  0  0  0  0  0  0  0  0
  125.9430  123.5860   59.5930 C   0  0  0  0  0  0  0  0  0  0  0  0
  125.1630  123.8290   60.8090 C   0  0  0  0  0  0  0  0  0  0  0  0
  124.5440  124.0210   61.7680 N   0  0  0  0  0  0  0  0  0  0  0  0
  127.2950  123.1710   59.6400 C   0  0  0  0  0  0  0  0  0  0  0  0
  128.2060  122.9360   61.1500 S   0  0  0  0  0  0  0  0  0  0  0  0
  129.0800  121.3470   61.0140 C   0  0  0  0  0  0  0  0  0  0  0  0
  130.3450  121.4560   60.1610 C   0  0  0  0  0  0  0  0  0  0  0  0
  131.0980  120.4850   60.0760 O   0  0  0  0  0  0  0  0  0  0  0  0
  130.5200  122.6400   59.5360 N   0  0  0  0  0  0  0  0  0  0  0  0
  131.5680  123.0730   58.7030 C   0  0  0  0  0  0  0  0  0  0  0  0
  131.1950  123.9010   57.6400 C   0  0  0  0  0  0  0  0  0  0  0  0
  132.1540  124.3900   56.7590 C   0  0  0  0  0  0  0  0  0  0  0  0
  133.4940  124.0580   56.9430 C   0  0  0  0  0  0  0  0  0  0  0  0
  133.8810  123.2420   58.0030 C   0  0  0  0  0  0  0  0  0  0  0  0
  132.9230  122.7500   58.8860 C   0  0  0  0  0  0  0  0  0  0  0  0
  128.0070  122.8800   58.5220 N   0  0  0  0  0  0  0  0  0  0  0  0
  129.2476  122.3181   56.4502 H   0  0  0  0  0  0  0  0  0  0  0  0
  127.7721  121.9237   55.5047 H   0  0  0  0  0  0  0  0  0  0  0  0
  128.4173  123.6001   55.5047 H   0  0  0  0  0  0  0  0  0  0  0  0
  125.6464  123.5666   56.1758 H   0  0  0  0  0  0  0  0  0  0  0  0
  123.4304  124.3297   59.1300 H   0  0  0  0  0  0  0  0  0  0  0  0
  123.8720  125.1327   57.5851 H   0  0  0  0  0  0  0  0  0  0  0  0
  123.3368  123.4181   57.5851 H   0  0  0  0  0  0  0  0  0  0  0  0
  129.3606  121.0093   62.0226 H   0  0  0  0  0  0  0  0  0  0  0  0
  128.4037  120.6297   60.5260 H   0  0  0  0  0  0  0  0  0  0  0  0
  129.7890  123.3230   59.6660 H   0  0  0  0  0  0  0  0  0  0  0  0
  130.1370  124.1673   57.4995 H   0  0  0  0  0  0  0  0  0  0  0  0
  131.8552  125.0362   55.9205 H   0  0  0  0  0  0  0  0  0  0  0  0
  134.2525  124.4433   56.2457 H   0  0  0  0  0  0  0  0  0  0  0  0
  134.9417  122.9864   58.1427 H   0  0  0  0  0  0  0  0  0  0  0  0
  133.2271  122.1087   59.7264 H   0  0  0  0  0  0  0  0  0  0  0  0
  1  2  1  0
  2  3  2  0
  3  4  1  0
  4  5  1  0
  4  6  2  0
  6  7  1  0
  7  8  3  0
  6  9  1  0
  9 10  1  0
 10 11  1  0
 11 12  1  0
 12 13  2  0
 12 14  1  0
 14 15  1  0
 15 16  2  0
 16 17  1  0
 17 18  2  0
 18 19  1  0
 19 20  2  0
  9 21  2  0
 21  2  1  0
 20 15  1  0
  1 22  1  0
  1 23  1  0
  1 24  1  0
  3 25  1  0
  5 26  1  0
  5 27  1  0
  5 28  1  0
 11 29  1  0
 11 30  1  0
 14 31  1  0
 16 32  1  0
 17 33  1  0
 18 34  1  0
 19 35  1  0
 20 36  1  0
M  END
>  <Binding energies>  (1) 
[-6.69]

>  <Ligand effiencies>  (1) 
[-0.30409090909090913]

>  <Interactions>  (1) 
["V-B:TYR:539:C:9835, V-B:TYR:539:CD2:9842, V-B:PRO:540:C:9849, V-B:TYR:539:CE2:9844, V-B:PRO:540:N:9852, V-B:ALA:541:CB:9860, V-B:PRO:540:CA:9851, V-B:MET:535:CE:9803, V-B:PRO:540:CB:9853, H-B:ALA:541:N:9859, V-B:ALA:541:CA:9858, V-A:TYR:531:CZ:4789, V-A:ASP:366:CB:3207, V-B:LEU:363:CB:8154, V-B:ASP:366:CG:8180, V-B:LEU:363:CD1:8156, V-B:TYR:539:CZ:9845, V-B:ASP:366:CB:8179, V-B:LEU:363:CA:8152, V-B:TYR:539:CE1:9843, V-A:ILE:369:CD1:3234, V-A:ILE:369:CG2:3232, H-B:ARG:545:NH2:9896, V-A:ILE:369:CB:3231, V-A:TYR:531:CE1:4787, V-A:ASP:366:CA:3205, V-A:ASP:366:C:3203, V-B:TYR:539:CD1:9841, V-B:TYR:539:CG:9840"]

$$$$
1e_Grossjean_2025
     RDKit          3D

 38 39  0  0  0  0  0  0  0  0999 V2000
  135.0710  125.0010   66.6160 C   0  0  0  0  0  0  0  0  0  0  0  0
  133.9070  125.1490   65.6540 C   0  0  0  0  0  0  0  0  0  0  0  0
  132.6350  125.5240   66.0970 C   0  0  0  0  0  0  0  0  0  0  0  0
  131.6120  125.6370   65.1550 C   0  0  0  0  0  0  0  0  0  0  0  0
  131.8800  125.3750   63.8090 C   0  0  0  0  0  0  0  0  0  0  0  0
  133.1770  125.0080   63.4330 C   0  0  0  0  0  0  0  0  0  0  0  0
  133.3830  124.7460   62.0670 N   0  0  0  0  0  0  0  0  0  0  0  0
  133.5430  123.5520   61.4550 C   0  0  0  0  0  0  0  0  0  0  0  0
  133.5450  122.4600   62.0260 O   0  0  0  0  0  0  0  0  0  0  0  0
  133.7660  123.6040   59.9420 C   0  0  0  0  0  0  0  0  0  0  0  0
  133.0730  122.1480   59.1020 S   0  0  0  0  0  0  0  0  0  0  0  0
  131.5070  121.7480   59.8520 C   0  0  0  0  0  0  0  0  0  0  0  0
  131.3600  120.4260   60.1240 N   0  0  0  0  0  0  0  0  0  0  0  0
  130.2080  120.0000   60.6930 C   0  0  0  0  0  0  0  0  0  0  0  0
  130.1210  118.5130   60.9740 C   0  0  0  0  0  0  0  0  0  0  0  0
  129.1590  120.8630   61.0020 C   0  0  0  0  0  0  0  0  0  0  0  0
  129.2890  122.2240   60.7040 C   0  0  0  0  0  0  0  0  0  0  0  0
  128.1170  123.1460   61.0360 C   0  0  0  0  0  0  0  0  0  0  0  0
  130.4820  122.6910   60.1060 C   0  0  0  0  0  0  0  0  0  0  0  0
  130.6100  124.1020   59.7350 C   0  0  0  0  0  0  0  0  0  0  0  0
  130.7090  125.2170   59.4420 N   0  0  0  0  0  0  0  0  0  0  0  0
  134.1820  124.8920   64.3500 N   0  0  0  0  0  0  0  0  0  0  0  0
  134.7000  125.0482   67.6505 H   0  0  0  0  0  0  0  0  0  0  0  0
  135.5651  124.0328   66.4475 H   0  0  0  0  0  0  0  0  0  0  0  0
  135.7917  125.8147   66.4475 H   0  0  0  0  0  0  0  0  0  0  0  0
  132.4455  125.7249   67.1618 H   0  0  0  0  0  0  0  0  0  0  0  0
  130.5999  125.9308   65.4703 H   0  0  0  0  0  0  0  0  0  0  0  0
  131.0827  125.4561   63.0555 H   0  0  0  0  0  0  0  0  0  0  0  0
  133.4710  125.5680   61.4870 H   0  0  0  0  0  0  0  0  0  0  0  0
  133.2831  124.5080   59.5425 H   0  0  0  0  0  0  0  0  0  0  0  0
  134.8505  123.6186   59.7583 H   0  0  0  0  0  0  0  0  0  0  0  0
  130.1112  118.3452   62.0611 H   0  0  0  0  0  0  0  0  0  0  0  0
  129.1977  118.1098   60.5324 H   0  0  0  0  0  0  0  0  0  0  0  0
  130.9910  118.0049   60.5324 H   0  0  0  0  0  0  0  0  0  0  0  0
  128.2418  120.4801   61.4734 H   0  0  0  0  0  0  0  0  0  0  0  0
  128.0128  123.2279   62.1280 H   0  0  0  0  0  0  0  0  0  0  0  0
  128.3025  124.1429   60.6095 H   0  0  0  0  0  0  0  0  0  0  0  0
  127.1918  122.7311   60.6095 H   0  0  0  0  0  0  0  0  0  0  0  0
  1  2  1  0
  2  3  2  0
  3  4  1  0
  4  5  2  0
  5  6  1  0
  6  7  1  0
  7  8  1  0
  8  9  2  0
  8 10  1  0
 10 11  1  0
 11 12  1  0
 12 13  2  0
 13 14  1  0
 14 15  1  0
 14 16  2  0
 16 17  1  0
 17 18  1  0
 17 19  2  0
 19 20  1  0
 20 21  3  0
  6 22  2  0
 22  2  1  0
 19 12  1  0
  1 23  1  0
  1 24  1  0
  1 25  1  0
  3 26  1  0
  4 27  1  0
  5 28  1  0
  7 29  1  0
 10 30  1  0
 10 31  1  0
 15 32  1  0
 15 33  1  0
 15 34  1  0
 16 35  1  0
 18 36  1  0
 18 37  1  0
 18 38  1  0
M  END
>  <Binding energies>  (1) 
[-7.14]

>  <Ligand effiencies>  (1) 
[-0.3104347826086956]

>  <Interactions>  (1) 
["V-B:TYR:539:C:9835, V-B:TYR:539:CD2:9842, V-A:LEU:475:CD2:4254, V-A:TRP:381:CZ2:3365, V-B:PRO:540:C:9849, V-B:TYR:539:CE2:9844, V-B:ALA:541:CB:9860, V-A:TRP:381:CH2:3367, V-B:PRO:540:CA:9851, V-A:PRO:482:CB:4321, V-B:ALA:541:CA:9858, V-A:ASP:366:CB:3207, V-A:ASP:366:CG:3208, H-A:TYR:484:OH:4343, V-A:HIS:456:CE1:4064, V-A:ILE:369:CD1:3234, V-A:PRO:482:CG:4322, V-A:ASP:366:CA:3205, V-A:TRP:381:CE2:3362, V-A:ARG:545:CZ:4921, V-A:GLY:453:CA:4039, H-A:GLY:454:N:4045, V-A:ARG:545:CD:4918, V-A:ARG:545:CG:4917, H-A:ARG:545:NH1:4922, V-A:GLY:453:C:4037, V-A:HIS:456:CD2:4063, H-A:ASP:366:OD1:3209, H-A:ASP:366:OD2:3210"]

$$$$
1f_Grossjean_2025
     RDKit          3D

 35 36  0  0  0  0  0  0  0  0999 V2000
  128.2260  122.4980   61.2430 C   0  0  0  0  0  0  0  0  0  0  0  0
  129.5500  122.5130   60.5020 C   0  0  0  0  0  0  0  0  0  0  0  0
  130.4000  121.4100   60.5060 C   0  0  0  0  0  0  0  0  0  0  0  0
  131.6140  121.4860   59.8140 C   0  0  0  0  0  0  0  0  0  0  0  0
  132.5380  120.2710   59.8490 C   0  0  0  0  0  0  0  0  0  0  0  0
  131.9430  122.6750   59.1230 C   0  0  0  0  0  0  0  0  0  0  0  0
  133.2340  122.7930   58.4400 C   0  0  0  0  0  0  0  0  0  0  0  0
  134.2530  122.8850   57.9010 N   0  0  0  0  0  0  0  0  0  0  0  0
  131.0060  123.7350   59.1490 C   0  0  0  0  0  0  0  0  0  0  0  0
  131.2460  125.3030   58.3390 S   0  0  0  0  0  0  0  0  0  0  0  0
  131.1740  125.0360   56.5340 C   0  0  0  0  0  0  0  0  0  0  0  0
  129.8420  124.4720   56.0170 C   0  0  0  0  0  0  0  0  0  0  0  0
  129.6510  124.3290   54.8090 O   0  0  0  0  0  0  0  0  0  0  0  0
  128.9400  124.1900   56.9810 N   0  0  0  0  0  0  0  0  0  0  0  0
  127.6400  123.6610   56.8680 C   0  0  0  0  0  0  0  0  0  0  0  0
  126.4550  124.3070   57.2680 C   0  0  0  0  0  0  0  0  0  0  0  0
  125.2250  123.6650   57.0930 C   0  0  0  0  0  0  0  0  0  0  0  0
  125.2110  122.3930   56.5210 C   0  0  0  0  0  0  0  0  0  0  0  0
  126.3370  121.7520   56.1230 N   0  0  0  0  0  0  0  0  0  0  0  0
  127.5240  122.3880   56.2990 C   0  0  0  0  0  0  0  0  0  0  0  0
  129.8430  123.6590   59.8430 N   0  0  0  0  0  0  0  0  0  0  0  0
  128.4125  122.5001   62.3271 H   0  0  0  0  0  0  0  0  0  0  0  0
  127.6427  123.3896   60.9696 H   0  0  0  0  0  0  0  0  0  0  0  0
  127.6630  121.5934   60.9696 H   0  0  0  0  0  0  0  0  0  0  0  0
  130.1213  120.4926   61.0451 H   0  0  0  0  0  0  0  0  0  0  0  0
  132.7455  119.9981   60.8942 H   0  0  0  0  0  0  0  0  0  0  0  0
  132.0522  119.4261   59.3390 H   0  0  0  0  0  0  0  0  0  0  0  0
  133.4820  120.5134   59.3390 H   0  0  0  0  0  0  0  0  0  0  0  0
  131.3517  126.0017   56.0382 H   0  0  0  0  0  0  0  0  0  0  0  0
  131.9397  124.2808   56.3027 H   0  0  0  0  0  0  0  0  0  0  0  0
  129.2210  124.3990   57.9280 H   0  0  0  0  0  0  0  0  0  0  0  0
  126.4963  125.3110   57.7156 H   0  0  0  0  0  0  0  0  0  0  0  0
  124.2882  124.1530   57.4000 H   0  0  0  0  0  0  0  0  0  0  0  0
  124.2432  121.8876   56.3869 H   0  0  0  0  0  0  0  0  0  0  0  0
  128.4425  121.8754   55.9773 H   0  0  0  0  0  0  0  0  0  0  0  0
  1  2  1  0
  2  3  2  0
  3  4  1  0
  4  5  1  0
  4  6  2  0
  6  7  1  0
  7  8  3  0
  6  9  1  0
  9 10  1  0
 10 11  1  0
 11 12  1  0
 12 13  2  0
 12 14  1  0
 14 15  1  0
 15 16  2  0
 16 17  1  0
 17 18  2  0
 18 19  1  0
 19 20  2  0
  9 21  2  0
 21  2  1  0
 20 15  1  0
  1 22  1  0
  1 23  1  0
  1 24  1  0
  3 25  1  0
  5 26  1  0
  5 27  1  0
  5 28  1  0
 11 29  1  0
 11 30  1  0
 14 31  1  0
 16 32  1  0
 17 33  1  0
 18 34  1  0
 20 35  1  0
M  END
>  <Binding energies>  (1) 
[-6.46]

>  <Ligand effiencies>  (1) 
[-0.29363636363636364]

>  <Interactions>  (1) 
["V-B:TYR:539:C:9835, V-B:TYR:539:CD2:9842, V-A:LEU:475:CD2:4254, V-B:PRO:540:C:9849, V-B:TYR:539:CE2:9844, V-B:PRO:540:N:9852, V-B:ALA:541:CB:9860, V-A:TRP:381:CH2:3367, V-B:PRO:540:CA:9851, V-B:MET:535:CE:9803, V-B:PRO:540:CB:9853, V-B:ALA:541:CA:9858, V-A:TYR:531:CZ:4789, H-B:TYR:539:N:9838, V-B:TYR:539:CA:9837, V-B:PRO:540:CD:9855, V-B:LEU:363:CD1:8156, V-B:TYR:539:CZ:9845, V-B:TYR:539:CE1:9843, V-A:ILE:369:CD1:3234, V-A:ILE:369:CG2:3232, V-A:ILE:369:CB:3231, V-A:TYR:531:CE1:4787, H-A:TYR:531:OH:4790, H-B:TYR:539:OH:9846, H-A:LYS:534:NZ:4818, V-B:TYR:539:CD1:9841, V-B:TYR:539:CG:9840, V-B:ILE:538:CG2:9831"]

$$$$
1g_Grossjean_2025
     RDKit          3D

 39 40  0  0  0  0  0  0  0  0999 V2000
  129.9220  121.9150   60.8010 C   0  0  0  0  0  0  0  0  0  0  0  0
  128.7870  122.5080   59.9870 C   0  0  0  0  0  0  0  0  0  0  0  0
  127.7040  123.1390   60.5960 C   0  0  0  0  0  0  0  0  0  0  0  0
  126.6790  123.6530   59.7950 C   0  0  0  0  0  0  0  0  0  0  0  0
  125.4940  124.3270   60.4860 C   0  0  0  0  0  0  0  0  0  0  0  0
  126.7700  123.5280   58.3900 C   0  0  0  0  0  0  0  0  0  0  0  0
  125.6840  124.0120   57.5340 C   0  0  0  0  0  0  0  0  0  0  0  0
  124.8240  124.3940   56.8600 N   0  0  0  0  0  0  0  0  0  0  0  0
  127.9180  122.8950   57.8570 C   0  0  0  0  0  0  0  0  0  0  0  0
  128.2000  122.6620   56.1160 S   0  0  0  0  0  0  0  0  0  0  0  0
  128.7060  124.2680   55.4320 C   0  0  0  0  0  0  0  0  0  0  0  0
  130.2100  124.5030   55.5740 C   0  0  0  0  0  0  0  0  0  0  0  0
  130.8300  125.0900   54.6850 O   0  0  0  0  0  0  0  0  0  0  0  0
  130.7820  124.0340   56.6970 N   0  0  0  0  0  0  0  0  0  0  0  0
  132.1880  124.1980   57.0650 C   0  0  0  0  0  0  0  0  0  0  0  0
  132.5180  123.7700   58.4910 C   0  0  0  0  0  0  0  0  0  0  0  0
  132.9590  122.4670   58.7440 C   0  0  0  0  0  0  0  0  0  0  0  0
  133.2610  122.0760   60.0460 C   0  0  0  0  0  0  0  0  0  0  0  0
  133.1250  122.9890   61.0900 C   0  0  0  0  0  0  0  0  0  0  0  0
  132.6910  124.2900   60.8440 C   0  0  0  0  0  0  0  0  0  0  0  0
  132.3870  124.6820   59.5420 C   0  0  0  0  0  0  0  0  0  0  0  0
  128.8970  122.3790   58.6440 N   0  0  0  0  0  0  0  0  0  0  0  0
  129.7032  122.0293   61.8729 H   0  0  0  0  0  0  0  0  0  0  0  0
  130.0269  120.8468   60.5601 H   0  0  0  0  0  0  0  0  0  0  0  0
  130.8587  122.4389   60.5601 H   0  0  0  0  0  0  0  0  0  0  0  0
  127.6559  123.2315   61.6910 H   0  0  0  0  0  0  0  0  0  0  0  0
  125.6173  124.2569   61.5768 H   0  0  0  0  0  0  0  0  0  0  0  0
  125.4500  125.3853   60.1893 H   0  0  0  0  0  0  0  0  0  0  0  0
  124.5619  123.8239   60.1893 H   0  0  0  0  0  0  0  0  0  0  0  0
  128.4410  124.2988   54.3649 H   0  0  0  0  0  0  0  0  0  0  0  0
  128.1844  125.0563   55.9946 H   0  0  0  0  0  0  0  0  0  0  0  0
  130.1940  123.5830   57.3830 H   0  0  0  0  0  0  0  0  0  0  0  0
  132.7971  123.5957   56.3749 H   0  0  0  0  0  0  0  0  0  0  0  0
  132.4068  125.2741   57.0007 H   0  0  0  0  0  0  0  0  0  0  0  0
  133.0672  121.7518   57.9153 H   0  0  0  0  0  0  0  0  0  0  0  0
  133.6053  121.0513   60.2494 H   0  0  0  0  0  0  0  0  0  0  0  0
  133.3626  122.6795   62.1185 H   0  0  0  0  0  0  0  0  0  0  0  0
  132.5888  125.0045   61.6741 H   0  0  0  0  0  0  0  0  0  0  0  0
  132.0444  125.7079   59.3415 H   0  0  0  0  0  0  0  0  0  0  0  0
  1  2  1  0
  2  3  2  0
  3  4  1  0
  4  5  1  0
  4  6  2  0
  6  7  1  0
  7  8  3  0
  6  9  1  0
  9 10  1  0
 10 11  1  0
 11 12  1  0
 12 13  2  0
 12 14  1  0
 14 15  1  0
 15 16  1  0
 16 17  2  0
 17 18  1  0
 18 19  2  0
 19 20  1  0
 20 21  2  0
  9 22  2  0
 22  2  1  0
 21 16  1  0
  1 23  1  0
  1 24  1  0
  1 25  1  0
  3 26  1  0
  5 27  1  0
  5 28  1  0
  5 29  1  0
 11 30  1  0
 11 31  1  0
 14 32  1  0
 15 33  1  0
 15 34  1  0
 17 35  1  0
 18 36  1  0
 19 37  1  0
 20 38  1  0
 21 39  1  0
M  END
>  <Binding energies>  (1) 
[-6.68]

>  <Ligand effiencies>  (1) 
[-0.29043478260869565]

>  <Interactions>  (1) 
["V-B:TYR:539:C:9835, V-B:TYR:539:CE2:9844, V-B:PRO:540:N:9852, V-B:PRO:540:CA:9851, V-B:MET:535:CE:9803, V-B:PRO:540:CB:9853, V-A:TYR:531:CZ:4789, V-A:ASP:366:CB:3207, V-A:ASP:366:CG:3208, V-B:TYR:539:CZ:9845, V-A:ILE:369:CD1:3234, V-A:ILE:369:CG2:3232, V-A:ILE:369:CB:3231, V-A:TYR:531:CE1:4787, H-A:TYR:531:OH:4790, H-B:TYR:539:OH:9846, H-A:LYS:534:NZ:4818, H-B:TYR:531:OH:9763"]

$$$$
1h_Grossjean_2025
     RDKit          3D

 51 52  0  0  0  0  0  0  0  0999 V2000
  134.6030  124.0000   62.1940 C   0  0  0  0  0  0  0  0  0  0  0  0
  134.2180  124.5040   63.4680 O   0  0  0  0  0  0  0  0  0  0  0  0
  132.9110  124.3490   63.8930 C   0  0  0  0  0  0  0  0  0  0  0  0
  131.9420  123.6110   63.1950 C   0  0  0  0  0  0  0  0  0  0  0  0
  130.6370  123.5090   63.6770 C   0  0  0  0  0  0  0  0  0  0  0  0
  129.6000  122.6850   62.9200 C   0  0  0  0  0  0  0  0  0  0  0  0
  129.2580  123.2230   61.6040 N   0  0  0  0  0  0  0  0  0  0  0  0
  128.0150  123.3020   61.0950 C   0  0  0  0  0  0  0  0  0  0  0  0
  127.0050  122.9470   61.7030 O   0  0  0  0  0  0  0  0  0  0  0  0
  127.8920  123.8630   59.6780 C   0  0  0  0  0  0  0  0  0  0  0  0
  128.6130  122.7450   58.4390 S   0  0  0  0  0  0  0  0  0  0  0  0
  130.3910  122.8590   58.5570 C   0  0  0  0  0  0  0  0  0  0  0  0
  130.9570  122.1920   59.5970 N   0  0  0  0  0  0  0  0  0  0  0  0
  132.3020  122.2330   59.7430 C   0  0  0  0  0  0  0  0  0  0  0  0
  132.8590  121.4610   60.9240 C   0  0  0  0  0  0  0  0  0  0  0  0
  133.1320  122.9350   58.8720 C   0  0  0  0  0  0  0  0  0  0  0  0
  132.5620  123.6280   57.7990 C   0  0  0  0  0  0  0  0  0  0  0  0
  133.4900  124.3880   56.8550 C   0  0  0  0  0  0  0  0  0  0  0  0
  131.1590  123.5970   57.6270 C   0  0  0  0  0  0  0  0  0  0  0  0
  130.5330  124.3160   56.5140 C   0  0  0  0  0  0  0  0  0  0  0  0
  130.0390  124.8840   55.6340 N   0  0  0  0  0  0  0  0  0  0  0  0
  130.3000  124.1180   64.8870 C   0  0  0  0  0  0  0  0  0  0  0  0
  131.2500  124.8570   65.6090 C   0  0  0  0  0  0  0  0  0  0  0  0
  130.9860  125.4880   66.8110 O   0  0  0  0  0  0  0  0  0  0  0  0
  130.1030  126.6040   66.8370 C   0  0  0  0  0  0  0  0  0  0  0  0
  132.5500  124.9750   65.0950 C   0  0  0  0  0  0  0  0  0  0  0  0
  133.4920  125.6900   65.7940 O   0  0  0  0  0  0  0  0  0  0  0  0
  134.5330  124.8940   66.3420 C   0  0  0  0  0  0  0  0  0  0  0  0
  135.2658  123.1324   62.3279 H   0  0  0  0  0  0  0  0  0  0  0  0
  133.7067  123.6938   61.6347 H   0  0  0  0  0  0  0  0  0  0  0  0
  135.1341  124.7842   61.6347 H   0  0  0  0  0  0  0  0  0  0  0  0
  132.2152  123.1069   62.2563 H   0  0  0  0  0  0  0  0  0  0  0  0
  129.9974  121.6682   62.7853 H   0  0  0  0  0  0  0  0  0  0  0  0
  128.6786  122.7036   63.5206 H   0  0  0  0  0  0  0  0  0  0  0  0
  130.0330  123.5250   61.0310 H   0  0  0  0  0  0  0  0  0  0  0  0
  126.8271  124.0113   59.4458 H   0  0  0  0  0  0  0  0  0  0  0  0
  128.4434  124.8141   59.6397 H   0  0  0  0  0  0  0  0  0  0  0  0
  132.5212  121.9292   61.8603 H   0  0  0  0  0  0  0  0  0  0  0  0
  132.5015  120.4215   60.8840 H   0  0  0  0  0  0  0  0  0  0  0  0
  133.9582  121.4725   60.8840 H   0  0  0  0  0  0  0  0  0  0  0  0
  134.2211  122.9442   59.0260 H   0  0  0  0  0  0  0  0  0  0  0  0
  134.2091  124.9769   57.4432 H   0  0  0  0  0  0  0  0  0  0  0  0
  134.0339  123.6725   56.2207 H   0  0  0  0  0  0  0  0  0  0  0  0
  132.8957  125.0622   56.2207 H   0  0  0  0  0  0  0  0  0  0  0  0
  129.2773  124.0175   65.2795 H   0  0  0  0  0  0  0  0  0  0  0  0
  129.8873  126.8766   67.8806 H   0  0  0  0  0  0  0  0  0  0  0  0
  130.5740  127.4562   66.3252 H   0  0  0  0  0  0  0  0  0  0  0  0
  129.1653  126.3416   66.3252 H   0  0  0  0  0  0  0  0  0  0  0  0
  134.4839  124.9316   67.4403 H   0  0  0  0  0  0  0  0  0  0  0  0
  134.4151  123.8535   66.0051 H   0  0  0  0  0  0  0  0  0  0  0  0
  135.5062  125.2805   66.0051 H   0  0  0  0  0  0  0  0  0  0  0  0
  1  2  1  0
  2  3  1  0
  3  4  2  0
  4  5  1  0
  5  6  1  0
  6  7  1  0
  7  8  1  0
  8  9  2  0
  8 10  1  0
 10 11  1  0
 11 12  1  0
 12 13  2  0
 13 14  1  0
 14 15  1  0
 14 16  2  0
 16 17  1  0
 17 18  1  0
 17 19  2  0
 19 20  1  0
 20 21  3  0
  5 22  2  0
 22 23  1  0
 23 24  1  0
 24 25  1  0
 23 26  2  0
 26 27  1  0
 27 28  1  0
 26  3  1  0
 19 12  1  0
  1 29  1  0
  1 30  1  0
  1 31  1  0
  4 32  1  0
  6 33  1  0
  6 34  1  0
  7 35  1  0
 10 36  1  0
 10 37  1  0
 15 38  1  0
 15 39  1  0
 15 40  1  0
 16 41  1  0
 18 42  1  0
 18 43  1  0
 18 44  1  0
 22 45  1  0
 25 46  1  0
 25 47  1  0
 25 48  1  0
 28 49  1  0
 28 50  1  0
 28 51  1  0
M  END
>  <Binding energies>  (1) 
[-6.78]

>  <Ligand effiencies>  (1) 
[-0.23379310344827586]

>  <Interactions>  (1) 
["V-B:TYR:539:CD2:9842, V-A:LEU:475:CD2:4254, V-B:TYR:539:CE2:9844, V-B:ALA:541:CB:9860, H-B:ALA:541:N:9859, V-B:GLU:543:CD:9876, V-A:TYR:531:CZ:4789, V-A:ASP:366:CB:3207, V-A:ASP:366:CG:3208, H-A:TYR:484:OH:4343, V-B:GLU:543:CG:9875, V-B:TYR:539:CZ:9845, V-A:TYR:484:CZ:4342, H-A:HIS:456:NE2:4065, V-A:ILE:369:CD1:3234, V-A:ILE:369:CG2:3232, V-A:TYR:531:CE1:4787, V-A:ASP:366:CA:3205, V-A:ASP:366:C:3203, H-B:TYR:539:OH:9846, V-A:GLY:453:CA:4039, H-A:GLY:454:N:4045, V-A:GLY:454:CA:4044, H-A:LYS:534:NZ:4818, V-A:ARG:545:CD:4918, V-A:ARG:545:CG:4917, H-A:ARG:545:NE:4919, V-A:GLY:453:C:4037, V-A:HIS:456:CD2:4063, V-A:ASN:370:CB:3240"]

$$$$
1i_Grossjean_2025
     RDKit          3D

 32 33  0  0  0  0  0  0  0  0999 V2000
  128.2630  122.1470   60.5730 C   0  0  0  0  0  0  0  0  0  0  0  0
  129.6780  122.3520   60.0650 C   0  0  0  0  0  0  0  0  0  0  0  0
  130.7100  121.4830   60.4110 C   0  0  0  0  0  0  0  0  0  0  0  0
  131.9940  121.7160   59.9040 C   0  0  0  0  0  0  0  0  0  0  0  0
  133.1060  120.7400   60.2840 C   0  0  0  0  0  0  0  0  0  0  0  0
  132.2120  122.8290   59.0600 C   0  0  0  0  0  0  0  0  0  0  0  0
  133.5360  123.0630   58.4780 C   0  0  0  0  0  0  0  0  0  0  0  0
  134.5830  123.2440   58.0180 N   0  0  0  0  0  0  0  0  0  0  0  0
  131.1100  123.6720   58.7820 C   0  0  0  0  0  0  0  0  0  0  0  0
  131.2050  125.1130   57.7430 S   0  0  0  0  0  0  0  0  0  0  0  0
  131.0020  124.5650   56.0210 C   0  0  0  0  0  0  0  0  0  0  0  0
  129.5490  124.2080   55.6980 C   0  0  0  0  0  0  0  0  0  0  0  0
  129.0310  124.6570   54.6750 O   0  0  0  0  0  0  0  0  0  0  0  0
  128.9350  123.4010   56.5910 N   0  0  0  0  0  0  0  0  0  0  0  0
  127.6300  122.9330   56.5430 C   0  0  0  0  0  0  0  0  0  0  0  0
  126.5610  123.5970   57.1400 C   0  0  0  0  0  0  0  0  0  0  0  0
  125.4590  122.8200   56.8680 C   0  0  0  0  0  0  0  0  0  0  0  0
  125.8450  121.7420   56.1450 O   0  0  0  0  0  0  0  0  0  0  0  0
  127.2240  121.8240   55.9460 N   0  0  0  0  0  0  0  0  0  0  0  0
  129.8650  123.4260   59.2620 N   0  0  0  0  0  0  0  0  0  0  0  0
  128.2647  122.1472   61.6730 H   0  0  0  0  0  0  0  0  0  0  0  0
  127.6205  122.9614   60.2071 H   0  0  0  0  0  0  0  0  0  0  0  0
  127.8780  121.1837   60.2071 H   0  0  0  0  0  0  0  0  0  0  0  0
  130.5189  120.6257   61.0733 H   0  0  0  0  0  0  0  0  0  0  0  0
  133.1790  120.6759   61.3797 H   0  0  0  0  0  0  0  0  0  0  0  0
  132.8774  119.7456   59.8730 H   0  0  0  0  0  0  0  0  0  0  0  0
  134.0623  121.0957   59.8730 H   0  0  0  0  0  0  0  0  0  0  0  0
  131.3258  125.3747   55.3506 H   0  0  0  0  0  0  0  0  0  0  0  0
  131.6126  123.6611   55.8789 H   0  0  0  0  0  0  0  0  0  0  0  0
  129.4640  123.1260   57.4070 H   0  0  0  0  0  0  0  0  0  0  0  0
  126.5914  124.5393   57.7067 H   0  0  0  0  0  0  0  0  0  0  0  0
  124.4292  123.0392   57.1867 H   0  0  0  0  0  0  0  0  0  0  0  0
  1  2  1  0
  2  3  2  0
  3  4  1  0
  4  5  1  0
  4  6  2  0
  6  7  1  0
  7  8  3  0
  6  9  1  0
  9 10  1  0
 10 11  1  0
 11 12  1  0
 12 13  2  0
 12 14  1  0
 14 15  1  0
 15 16  1  0
 16 17  2  0
 17 18  1  0
 18 19  1  0
  9 20  2  0
 20  2  1  0
 19 15  2  0
  1 21  1  0
  1 22  1  0
  1 23  1  0
  3 24  1  0
  5 25  1  0
  5 26  1  0
  5 27  1  0
 11 28  1  0
 11 29  1  0
 14 30  1  0
 16 31  1  0
 17 32  1  0
M  END
>  <Binding energies>  (1) 
[-6.82]

>  <Ligand effiencies>  (1) 
[-0.32476190476190475]

>  <Interactions>  (1) 
["V-B:TYR:539:C:9835, V-B:TYR:539:CD2:9842, V-A:LEU:475:CD2:4254, V-B:PRO:540:C:9849, V-B:TYR:539:CE2:9844, V-B:PRO:540:N:9852, V-B:ALA:541:CB:9860, V-A:TRP:381:CH2:3367, V-B:PRO:540:CA:9851, V-B:MET:535:CE:9803, V-B:PRO:540:CB:9853, V-A:TYR:531:CZ:4789, H-B:TYR:539:N:9838, V-B:PRO:540:CD:9855, V-B:TYR:539:CZ:9845, V-B:TYR:539:CE1:9843, V-A:ILE:369:CD1:3234, V-A:ILE:369:CG2:3232, V-A:ILE:369:CB:3231, V-A:TYR:531:CE1:4787, H-A:TYR:531:OH:4790, H-A:LYS:534:NZ:4818"]

$$$$
1j_Grossjean_2025
     RDKit          3D

 32 33  0  0  0  0  0  0  0  0999 V2000
  129.5270  122.0250   61.0920 C   0  0  0  0  0  0  0  0  0  0  0  0
  128.3450  122.6030   60.3350 C   0  0  0  0  0  0  0  0  0  0  0  0
  127.2680  123.1860   61.0000 C   0  0  0  0  0  0  0  0  0  0  0  0
  126.2130  123.7140   60.2500 C   0  0  0  0  0  0  0  0  0  0  0  0
  125.0510  124.3640   61.0010 C   0  0  0  0  0  0  0  0  0  0  0  0
  126.2590  123.6350   58.8400 C   0  0  0  0  0  0  0  0  0  0  0  0
  125.1900  124.2280   58.0330 C   0  0  0  0  0  0  0  0  0  0  0  0
  124.3430  124.6980   57.3990 N   0  0  0  0  0  0  0  0  0  0  0  0
  127.3790  123.0010   58.2510 C   0  0  0  0  0  0  0  0  0  0  0  0
  127.6010  122.8120   56.4950 S   0  0  0  0  0  0  0  0  0  0  0  0
  128.3260  124.3530   55.8600 C   0  0  0  0  0  0  0  0  0  0  0  0
  129.8520  124.3540   55.9650 C   0  0  0  0  0  0  0  0  0  0  0  0
  130.5230  124.7390   55.0060 O   0  0  0  0  0  0  0  0  0  0  0  0
  130.3560  123.9210   57.1410 N   0  0  0  0  0  0  0  0  0  0  0  0
  131.6980  123.8210   57.4800 C   0  0  0  0  0  0  0  0  0  0  0  0
  132.7390  124.2240   56.7840 N   0  0  0  0  0  0  0  0  0  0  0  0
  133.8690  123.9690   57.4120 C   0  0  0  0  0  0  0  0  0  0  0  0
  133.7580  123.3460   58.6510 C   0  0  0  0  0  0  0  0  0  0  0  0
  132.0760  123.0830   59.0040 S   0  0  0  0  0  0  0  0  0  0  0  0
  128.4090  122.5120   58.9860 N   0  0  0  0  0  0  0  0  0  0  0  0
  129.3479  122.1126   62.1738 H   0  0  0  0  0  0  0  0  0  0  0  0
  129.6503  120.9649   60.8254 H   0  0  0  0  0  0  0  0  0  0  0  0
  130.4394  122.5786   60.8254 H   0  0  0  0  0  0  0  0  0  0  0  0
  127.2483  123.2301   62.0989 H   0  0  0  0  0  0  0  0  0  0  0  0
  125.2169  124.2712   62.0844 H   0  0  0  0  0  0  0  0  0  0  0  0
  124.9884  125.4281   60.7295 H   0  0  0  0  0  0  0  0  0  0  0  0
  124.1115  123.8604   60.7295 H   0  0  0  0  0  0  0  0  0  0  0  0
  128.0426  124.4699   54.8036 H   0  0  0  0  0  0  0  0  0  0  0  0
  127.9429  125.1850   56.4691 H   0  0  0  0  0  0  0  0  0  0  0  0
  129.7020  123.6070   57.8430 H   0  0  0  0  0  0  0  0  0  0  0  0
  134.8456  124.2339   56.9807 H   0  0  0  0  0  0  0  0  0  0  0  0
  134.5988  123.0651   59.3023 H   0  0  0  0  0  0  0  0  0  0  0  0
  1  2  1  0
  2  3  2  0
  3  4  1  0
  4  5  1  0
  4  6  2  0
  6  7  1  0
  7  8  3  0
  6  9  1  0
  9 10  1  0
 10 11  1  0
 11 12  1  0
 12 13  2  0
 12 14  1  0
 14 15  1  0
 15 16  2  0
 16 17  1  0
 17 18  2  0
 18 19  1  0
  9 20  2  0
 20  2  1  0
 19 15  1  0
  1 21  1  0
  1 22  1  0
  1 23  1  0
  3 24  1  0
  5 25  1  0
  5 26  1  0
  5 27  1  0
 11 28  1  0
 11 29  1  0
 14 30  1  0
 17 31  1  0
 18 32  1  0
M  END
>  <Binding energies>  (1) 
[-6.3]

>  <Ligand effiencies>  (1) 
[-0.3]

>  <Interactions>  (1) 
["V-B:TYR:539:C:9835, V-B:PRO:540:C:9849, V-B:TYR:539:CE2:9844, V-B:PRO:540:N:9852, V-B:ALA:541:CB:9860, V-B:PRO:540:CA:9851, V-B:MET:535:CE:9803, V-B:PRO:540:CB:9853, V-B:GLU:543:CD:9876, V-A:ASP:366:CB:3207, V-A:ASP:366:CG:3208, V-B:ASP:366:CG:8180, V-B:TYR:539:CZ:9845, V-A:ILE:369:CD1:3234, V-A:ILE:369:CG2:3232, V-A:ILE:369:CB:3231, H-A:TYR:531:OH:4790, V-A:ASP:366:CA:3205, V-A:ASP:366:C:3203, H-B:TYR:539:OH:9846, H-A:LYS:534:NZ:4818, H-B:TYR:531:OH:9763"]

$$$$
1k_Grossjean_2025
     RDKit          3D

 50 50  0  0  0  0  0  0  0  0999 V2000
  128.4430  133.3900   59.7730 C   0  0  0  0  0  0  0  0  0  0  0  0
  128.5010  133.3280   58.3570 O   0  0  0  0  0  0  0  0  0  0  0  0
  129.6990  132.7430   57.8640 C   0  0  0  0  0  0  0  0  0  0  0  0
  129.7920  132.9630   56.3480 C   0  0  0  0  0  0  0  0  0  0  0  0
  131.1090  133.3800   56.0110 O   0  0  0  0  0  0  0  0  0  0  0  0
  131.7820  132.4880   55.1320 C   0  0  0  0  0  0  0  0  0  0  0  0
  130.7980  131.4210   54.6360 C   0  0  0  0  0  0  0  0  0  0  0  0
  131.1990  130.1450   55.1190 O   0  0  0  0  0  0  0  0  0  0  0  0
  130.3460  129.6220   56.1280 C   0  0  0  0  0  0  0  0  0  0  0  0
  129.3660  128.6120   55.5030 C   0  0  0  0  0  0  0  0  0  0  0  0
  129.7800  127.2150   55.6450 N   0  0  0  0  0  0  0  0  0  0  0  0
  128.9450  126.1650   55.7360 C   0  0  0  0  0  0  0  0  0  0  0  0
  127.7180  126.2760   55.7030 O   0  0  0  0  0  0  0  0  0  0  0  0
  129.6200  124.7930   55.8920 C   0  0  0  0  0  0  0  0  0  0  0  0
  128.4890  123.3770   56.1220 S   0  0  0  0  0  0  0  0  0  0  0  0
  127.9830  123.3030   57.8350 C   0  0  0  0  0  0  0  0  0  0  0  0
  128.9120  122.8350   58.7080 N   0  0  0  0  0  0  0  0  0  0  0  0
  128.5900  122.7440   60.0190 C   0  0  0  0  0  0  0  0  0  0  0  0
  129.6760  122.2040   60.9290 C   0  0  0  0  0  0  0  0  0  0  0  0
  127.3430  123.1190   60.5140 C   0  0  0  0  0  0  0  0  0  0  0  0
  126.3800  123.6100   59.6260 C   0  0  0  0  0  0  0  0  0  0  0  0
  125.0190  124.0160   60.1890 C   0  0  0  0  0  0  0  0  0  0  0  0
  126.6940  123.7090   58.2530 C   0  0  0  0  0  0  0  0  0  0  0  0
  125.7030  124.2160   57.2990 C   0  0  0  0  0  0  0  0  0  0  0  0
  124.9200  124.6170   56.5470 N   0  0  0  0  0  0  0  0  0  0  0  0
  129.1352  132.6500   60.2011 H   0  0  0  0  0  0  0  0  0  0  0  0
  128.7303  134.3976   60.1080 H   0  0  0  0  0  0  0  0  0  0  0  0
  127.4185  133.1705   60.1080 H   0  0  0  0  0  0  0  0  0  0  0  0
  130.5645  133.2110   58.3558 H   0  0  0  0  0  0  0  0  0  0  0  0
  129.6939  131.6639   58.0774 H   0  0  0  0  0  0  0  0  0  0  0  0
  129.5598  132.0231   55.8259 H   0  0  0  0  0  0  0  0  0  0  0  0
  129.0724  133.7376   56.0444 H   0  0  0  0  0  0  0  0  0  0  0  0
  132.1785  133.0490   54.2729 H   0  0  0  0  0  0  0  0  0  0  0  0
  132.6116  132.0021   55.6665 H   0  0  0  0  0  0  0  0  0  0  0  0
  129.7885  131.6526   55.0066 H   0  0  0  0  0  0  0  0  0  0  0  0
  130.7916  131.4112   53.5361 H   0  0  0  0  0  0  0  0  0  0  0  0
  130.9523  129.1175   56.8947 H   0  0  0  0  0  0  0  0  0  0  0  0
  129.7789  130.4440   56.5893 H   0  0  0  0  0  0  0  0  0  0  0  0
  128.3868  128.7338   55.9892 H   0  0  0  0  0  0  0  0  0  0  0  0
  129.3328  128.8262   54.4246 H   0  0  0  0  0  0  0  0  0  0  0  0
  130.7740  127.0460   55.6810 H   0  0  0  0  0  0  0  0  0  0  0  0
  130.2175  124.6052   54.9877 H   0  0  0  0  0  0  0  0  0  0  0  0
  130.2158  124.8545   56.8146 H   0  0  0  0  0  0  0  0  0  0  0  0
  129.3813  122.3505   61.9786 H   0  0  0  0  0  0  0  0  0  0  0  0
  129.8174  121.1306   60.7343 H   0  0  0  0  0  0  0  0  0  0  0  0
  130.6172  122.7391   60.7343 H   0  0  0  0  0  0  0  0  0  0  0  0
  127.1189  123.0303   61.5873 H   0  0  0  0  0  0  0  0  0  0  0  0
  125.0586  124.0042   61.2882 H   0  0  0  0  0  0  0  0  0  0  0  0
  124.7660  125.0287   59.8421 H   0  0  0  0  0  0  0  0  0  0  0  0
  124.2525  123.3074   59.8421 H   0  0  0  0  0  0  0  0  0  0  0  0
  1  2  1  0
  2  3  1  0
  3  4  1  0
  4  5  1  0
  5  6  1  0
  6  7  1  0
  7  8  1  0
  8  9  1  0
  9 10  1  0
 10 11  1  0
 11 12  1  0
 12 13  2  0
 12 14  1  0
 14 15  1  0
 15 16  1  0
 16 17  2  0
 17 18  1  0
 18 19  1  0
 18 20  2  0
 20 21  1  0
 21 22  1  0
 21 23  2  0
 23 24  1  0
 24 25  3  0
 23 16  1  0
  1 26  1  0
  1 27  1  0
  1 28  1  0
  3 29  1  0
  3 30  1  0
  4 31  1  0
  4 32  1  0
  6 33  1  0
  6 34  1  0
  7 35  1  0
  7 36  1  0
  9 37  1  0
  9 38  1  0
 10 39  1  0
 10 40  1  0
 11 41  1  0
 14 42  1  0
 14 43  1  0
 19 44  1  0
 19 45  1  0
 19 46  1  0
 20 47  1  0
 22 48  1  0
 22 49  1  0
 22 50  1  0
M  END
>  <Binding energies>  (1) 
[-5.99]

>  <Ligand effiencies>  (1) 
[-0.23038461538461538]

>  <Interactions>  (1) 
["V-B:PRO:540:C:9849, V-B:PRO:540:CA:9851, V-B:MET:535:CE:9803, V-B:PRO:540:CB:9853, V-A:PRO:540:N:4879, V-A:TYR:531:CZ:4789, V-A:TYR:539:CE2:4871, V-A:PRO:540:CA:4878, V-A:TYR:539:CE1:4870, V-A:PRO:540:CB:4880, V-A:LEU:363:CD1:3184, V-A:TYR:539:C:4862, V-A:TYR:539:CD2:4869, H-A:TYR:539:N:4865, V-A:TYR:539:CD1:4868, V-A:TYR:539:CG:4867, V-A:ILE:538:CG2:4858, V-A:ILE:538:CA:4855, V-A:TYR:531:CE1:4787, H-A:TYR:531:OH:4790, V-A:ILE:538:CD1:4860, H-B:TYR:531:OH:9763"]

$$$$
1l_Grossjean_2025
     RDKit          3D

 30 30  0  0  0  0  0  0  0  0999 V2000
  123.8060  124.6240   57.9160 C   0  0  0  0  0  0  0  0  0  0  0  0
  124.3770  123.3400   57.7060 O   0  0  0  0  0  0  0  0  0  0  0  0
  125.7600  123.4510   57.5710 N   0  0  0  0  0  0  0  0  0  0  0  0
  126.4180  122.5470   56.8210 C   0  0  0  0  0  0  0  0  0  0  0  0
  125.8590  121.7540   56.0580 O   0  0  0  0  0  0  0  0  0  0  0  0
  127.9470  122.5700   56.9630 C   0  0  0  0  0  0  0  0  0  0  0  0
  128.5840  123.6830   58.2610 S   0  0  0  0  0  0  0  0  0  0  0  0
  130.3650  123.5680   58.2670 C   0  0  0  0  0  0  0  0  0  0  0  0
  130.9190  123.0420   59.3900 N   0  0  0  0  0  0  0  0  0  0  0  0
  132.2660  122.9260   59.4620 C   0  0  0  0  0  0  0  0  0  0  0  0
  132.8090  122.3300   60.7470 C   0  0  0  0  0  0  0  0  0  0  0  0
  133.1110  123.3240   58.4290 C   0  0  0  0  0  0  0  0  0  0  0  0
  132.5530  123.8660   57.2660 C   0  0  0  0  0  0  0  0  0  0  0  0
  133.4980  124.2940   56.1450 C   0  0  0  0  0  0  0  0  0  0  0  0
  131.1490  123.9960   57.1710 C   0  0  0  0  0  0  0  0  0  0  0  0
  130.5370  124.5600   55.9640 C   0  0  0  0  0  0  0  0  0  0  0  0
  130.0550  125.0060   55.0110 N   0  0  0  0  0  0  0  0  0  0  0  0
  123.7209  124.8153   58.9959 H   0  0  0  0  0  0  0  0  0  0  0  0
  124.4482  125.3903   57.4573 H   0  0  0  0  0  0  0  0  0  0  0  0
  122.8068  124.6604   57.4573 H   0  0  0  0  0  0  0  0  0  0  0  0
  126.1800  123.9560   58.3390 H   0  0  0  0  0  0  0  0  0  0  0  0
  128.2837  121.5486   57.1939 H   0  0  0  0  0  0  0  0  0  0  0  0
  128.3387  122.9538   56.0094 H   0  0  0  0  0  0  0  0  0  0  0  0
  132.3486  122.8353   61.6088 H   0  0  0  0  0  0  0  0  0  0  0  0
  132.5721  121.2564   60.7820 H   0  0  0  0  0  0  0  0  0  0  0  0
  133.9000  122.4661   60.7820 H   0  0  0  0  0  0  0  0  0  0  0  0
  134.2012  123.2139   58.5260 H   0  0  0  0  0  0  0  0  0  0  0  0
  134.4182  124.7108   56.5803 H   0  0  0  0  0  0  0  0  0  0  0  0
  133.7487  123.4216   55.5237 H   0  0  0  0  0  0  0  0  0  0  0  0
  133.0076  125.0579   55.5237 H   0  0  0  0  0  0  0  0  0  0  0  0
  1  2  1  0
  2  3  1  0
  3  4  1  0
  4  5  2  0
  4  6  1  0
  6  7  1  0
  7  8  1  0
  8  9  2  0
  9 10  1  0
 10 11  1  0
 10 12  2  0
 12 13  1  0
 13 14  1  0
 13 15  2  0
 15 16  1  0
 16 17  3  0
 15  8  1  0
  1 18  1  0
  1 19  1  0
  1 20  1  0
  3 21  1  0
  6 22  1  0
  6 23  1  0
 11 24  1  0
 11 25  1  0
 11 26  1  0
 12 27  1  0
 14 28  1  0
 14 29  1  0
 14 30  1  0
M  END
>  <Binding energies>  (1) 
[-5.82]

>  <Ligand effiencies>  (1) 
[-0.32333333333333336]

>  <Interactions>  (1) 
["V-B:TYR:539:C:9835, V-B:TYR:539:CE2:9844, V-B:PRO:540:N:9852, V-B:PRO:540:CA:9851, V-B:MET:535:CE:9803, V-B:PRO:540:CB:9853, V-A:TYR:531:CZ:4789, V-A:ASP:366:CB:3207, H-B:TYR:539:N:9838, V-B:LEU:363:CB:8154, V-B:ASP:366:CG:8180, V-B:PRO:540:CD:9855, V-B:LEU:363:CD1:8156, V-B:TYR:539:CZ:9845, V-B:ASP:366:CB:8179, V-B:LEU:363:CA:8152, V-A:ILE:369:CD1:3234, V-A:TYR:531:CE1:4787, V-A:ASP:366:C:3203, H-B:TYR:539:OH:9846, H-A:LYS:534:NZ:4818, V-B:TYR:539:CG:9840, V-A:ASN:370:CB:3240, V-A:TYR:531:CD1:4785"]

$$$$
1m_Grossjean_2025
     RDKit          3D

 35 35  0  0  0  0  0  0  0  0999 V2000
  127.5470  122.4960   56.7650 C   0  0  0  0  0  0  0  0  0  0  0  0
  127.0820  123.8190   56.9920 O   0  0  0  0  0  0  0  0  0  0  0  0
  125.7940  124.0450   57.3230 C   0  0  0  0  0  0  0  0  0  0  0  0
  124.9020  124.3900   56.5410 O   0  0  0  0  0  0  0  0  0  0  0  0
  125.5470  123.8100   58.8270 C   0  0  0  0  0  0  0  0  0  0  0  0
  126.7910  123.6020   59.5830 N   0  0  0  0  0  0  0  0  0  0  0  0
  126.8730  123.2760   60.8870 C   0  0  0  0  0  0  0  0  0  0  0  0
  125.8820  123.1300   61.6060 O   0  0  0  0  0  0  0  0  0  0  0  0
  128.2940  123.1020   61.4380 C   0  0  0  0  0  0  0  0  0  0  0  0
  129.3360  121.9320   60.5010 S   0  0  0  0  0  0  0  0  0  0  0  0
  130.9840  122.6020   60.4260 C   0  0  0  0  0  0  0  0  0  0  0  0
  131.4540  122.7440   59.1600 N   0  0  0  0  0  0  0  0  0  0  0  0
  132.6960  123.2510   58.9800 C   0  0  0  0  0  0  0  0  0  0  0  0
  133.1450  123.3990   57.5380 C   0  0  0  0  0  0  0  0  0  0  0  0
  133.5180  123.6220   60.0420 C   0  0  0  0  0  0  0  0  0  0  0  0
  133.0540  123.4550   61.3510 C   0  0  0  0  0  0  0  0  0  0  0  0
  133.9790  123.8540   62.4990 C   0  0  0  0  0  0  0  0  0  0  0  0
  131.7610  122.9270   61.5640 C   0  0  0  0  0  0  0  0  0  0  0  0
  131.2750  122.6970   62.9270 C   0  0  0  0  0  0  0  0  0  0  0  0
  130.8910  122.5160   64.0030 N   0  0  0  0  0  0  0  0  0  0  0  0
  127.7220  121.9982   57.7302 H   0  0  0  0  0  0  0  0  0  0  0  0
  126.7922  121.9349   56.1945 H   0  0  0  0  0  0  0  0  0  0  0  0
  128.4869  122.5305   56.1945 H   0  0  0  0  0  0  0  0  0  0  0  0
  125.0278  124.6877   59.2393 H   0  0  0  0  0  0  0  0  0  0  0  0
  124.9433  122.8957   58.9246 H   0  0  0  0  0  0  0  0  0  0  0  0
  127.6500  123.7300   59.0680 H   0  0  0  0  0  0  0  0  0  0  0  0
  128.7882  124.0847   61.4285 H   0  0  0  0  0  0  0  0  0  0  0  0
  128.1865  122.6822   62.4490 H   0  0  0  0  0  0  0  0  0  0  0  0
  134.1894  123.7433   57.5127 H   0  0  0  0  0  0  0  0  0  0  0  0
  133.0667  122.4275   57.0280 H   0  0  0  0  0  0  0  0  0  0  0  0
  132.5043  124.1335   57.0280 H   0  0  0  0  0  0  0  0  0  0  0  0
  134.5178  124.0403   59.8537 H   0  0  0  0  0  0  0  0  0  0  0  0
  133.4853  123.6410   63.4586 H   0  0  0  0  0  0  0  0  0  0  0  0
  134.9147  123.2795   62.4326 H   0  0  0  0  0  0  0  0  0  0  0  0
  134.2032  124.9289   62.4326 H   0  0  0  0  0  0  0  0  0  0  0  0
  1  2  1  0
  2  3  1  0
  3  4  2  0
  3  5  1  0
  5  6  1  0
  6  7  1  0
  7  8  2  0
  7  9  1  0
  9 10  1  0
 10 11  1  0
 11 12  2  0
 12 13  1  0
 13 14  1  0
 13 15  2  0
 15 16  1  0
 16 17  1  0
 16 18  2  0
 18 19  1  0
 19 20  3  0
 18 11  1  0
  1 21  1  0
  1 22  1  0
  1 23  1  0
  5 24  1  0
  5 25  1  0
  6 26  1  0
  9 27  1  0
  9 28  1  0
 14 29  1  0
 14 30  1  0
 14 31  1  0
 15 32  1  0
 17 33  1  0
 17 34  1  0
 17 35  1  0
M  END
>  <Binding energies>  (1) 
[-5.71]

>  <Ligand effiencies>  (1) 
[-0.2719047619047619]

>  <Interactions>  (1) 
["V-B:TYR:539:C:9835, V-B:PRO:540:C:9849, V-B:TYR:539:CE2:9844, V-B:PRO:540:N:9852, V-B:ALA:541:CB:9860, V-B:PRO:540:CA:9851, V-B:MET:535:CE:9803, V-B:PRO:540:CB:9853, H-B:ALA:541:N:9859, V-B:GLU:543:CD:9876, V-A:ASP:366:CB:3207, V-A:ASP:366:CG:3208, H-A:TYR:484:OH:4343, V-B:TYR:539:CZ:9845, V-A:ILE:369:CD1:3234, H-B:TYR:531:OH:9763"]

$$$$
1n_Grossjean_2025
     RDKit          3D

 48 49  0  0  0  0  0  0  0  0999 V2000
  124.1210  123.6160   61.0820 C   0  0  0  0  0  0  0  0  0  0  0  0
  125.0650  123.9870   59.9340 C   0  0  0  0  0  0  0  0  0  0  0  0
  124.4190  123.7360   58.6920 O   0  0  0  0  0  0  0  0  0  0  0  0
  124.9950  124.0970   57.5160 C   0  0  0  0  0  0  0  0  0  0  0  0
  124.3510  124.4410   56.5210 O   0  0  0  0  0  0  0  0  0  0  0  0
  126.4960  124.0490   57.5520 C   0  0  0  0  0  0  0  0  0  0  0  0
  127.2690  125.1820   57.8520 C   0  0  0  0  0  0  0  0  0  0  0  0
  128.6580  125.1030   57.8740 C   0  0  0  0  0  0  0  0  0  0  0  0
  129.3040  123.8990   57.5900 C   0  0  0  0  0  0  0  0  0  0  0  0
  130.7110  123.9340   57.6350 N   0  0  0  0  0  0  0  0  0  0  0  0
  131.5960  124.3150   56.6880 C   0  0  0  0  0  0  0  0  0  0  0  0
  131.3070  124.7260   55.5650 O   0  0  0  0  0  0  0  0  0  0  0  0
  133.0750  124.2160   57.0860 C   0  0  0  0  0  0  0  0  0  0  0  0
  133.3770  123.0100   58.0010 C   0  0  0  0  0  0  0  0  0  0  0  0
  133.0920  123.3170   59.7700 S   0  0  0  0  0  0  0  0  0  0  0  0
  131.6660  122.3710   60.2600 C   0  0  0  0  0  0  0  0  0  0  0  0
  130.5450  123.1200   60.4140 N   0  0  0  0  0  0  0  0  0  0  0  0
  129.3940  122.5020   60.7690 C   0  0  0  0  0  0  0  0  0  0  0  0
  128.1800  123.4000   60.9120 C   0  0  0  0  0  0  0  0  0  0  0  0
  129.3140  121.1290   60.9890 C   0  0  0  0  0  0  0  0  0  0  0  0
  130.4700  120.3510   60.8530 C   0  0  0  0  0  0  0  0  0  0  0  0
  130.3620  118.8500   61.1120 C   0  0  0  0  0  0  0  0  0  0  0  0
  131.6840  120.9750   60.4880 C   0  0  0  0  0  0  0  0  0  0  0  0
  132.9150  120.1890   60.3900 C   0  0  0  0  0  0  0  0  0  0  0  0
  133.8880  119.5660   60.3140 N   0  0  0  0  0  0  0  0  0  0  0  0
  128.5380  122.7610   57.2990 C   0  0  0  0  0  0  0  0  0  0  0  0
  127.1480  122.8400   57.2810 C   0  0  0  0  0  0  0  0  0  0  0  0
  124.6184  123.8115   62.0435 H   0  0  0  0  0  0  0  0  0  0  0  0
  123.2049  124.2210   61.0134 H   0  0  0  0  0  0  0  0  0  0  0  0
  123.8619  122.5492   61.0134 H   0  0  0  0  0  0  0  0  0  0  0  0
  125.3258  125.0534   60.0032 H   0  0  0  0  0  0  0  0  0  0  0  0
  125.9810  123.3816   60.0010 H   0  0  0  0  0  0  0  0  0  0  0  0
  126.7730  126.1390   58.0712 H   0  0  0  0  0  0  0  0  0  0  0  0
  129.2516  125.9966   58.1172 H   0  0  0  0  0  0  0  0  0  0  0  0
  131.1020  123.6680   58.5270 H   0  0  0  0  0  0  0  0  0  0  0  0
  133.6780  124.1207   56.1710 H   0  0  0  0  0  0  0  0  0  0  0  0
  133.3241  125.1264   57.6508 H   0  0  0  0  0  0  0  0  0  0  0  0
  132.7348  122.1730   57.6896 H   0  0  0  0  0  0  0  0  0  0  0  0
  134.4497  122.7932   57.8896 H   0  0  0  0  0  0  0  0  0  0  0  0
  127.9651  123.5589   61.9790 H   0  0  0  0  0  0  0  0  0  0  0  0
  128.3813  124.3682   60.4303 H   0  0  0  0  0  0  0  0  0  0  0  0
  127.3131  122.9241   60.4303 H   0  0  0  0  0  0  0  0  0  0  0  0
  128.3568  120.6628   61.2655 H   0  0  0  0  0  0  0  0  0  0  0  0
  130.3487  118.6650   62.1963 H   0  0  0  0  0  0  0  0  0  0  0  0
  129.4339  118.4663   60.6632 H   0  0  0  0  0  0  0  0  0  0  0  0
  131.2256  118.3374   60.6632 H   0  0  0  0  0  0  0  0  0  0  0  0
  129.0362  121.8040   57.0845 H   0  0  0  0  0  0  0  0  0  0  0  0
  126.5553  121.9423   57.0512 H   0  0  0  0  0  0  0  0  0  0  0  0
  1  2  1  0
  2  3  1  0
  3  4  1  0
  4  5  2  0
  4  6  1  0
  6  7  2  0
  7  8  1  0
  8  9  2  0
  9 10  1  0
 10 11  1  0
 11 12  2  0
 11 13  1  0
 13 14  1  0
 14 15  1  0
 15 16  1  0
 16 17  2  0
 17 18  1  0
 18 19  1  0
 18 20  2  0
 20 21  1  0
 21 22  1  0
 21 23  2  0
 23 24  1  0
 24 25  3  0
  9 26  1  0
 26 27  2  0
 27  6  1  0
 23 16  1  0
  1 28  1  0
  1 29  1  0
  1 30  1  0
  2 31  1  0
  2 32  1  0
  7 33  1  0
  8 34  1  0
 10 35  1  0
 13 36  1  0
 13 37  1  0
 14 38  1  0
 14 39  1  0
 19 40  1  0
 19 41  1  0
 19 42  1  0
 20 43  1  0
 22 44  1  0
 22 45  1  0
 22 46  1  0
 26 47  1  0
 27 48  1  0
M  END
>  <Binding energies>  (1) 
[-7.5]

>  <Ligand effiencies>  (1) 
[-0.26785714285714285]

>  <Interactions>  (1) 
["V-B:TYR:539:C:9835, V-B:TYR:539:CD2:9842, V-A:LEU:475:CD2:4254, V-A:TRP:381:CZ2:3365, V-B:PRO:540:C:9849, V-B:TYR:539:CE2:9844, V-B:PRO:540:N:9852, V-B:ALA:541:CB:9860, V-A:TRP:381:CH2:3367, V-B:PRO:540:CA:9851, V-B:MET:535:CE:9803, V-B:PRO:540:CB:9853, V-A:PRO:482:CB:4321, V-A:TYR:531:CZ:4789, V-A:ASP:366:CB:3207, V-B:LEU:363:CD1:8156, V-B:TYR:539:CZ:9845, V-A:ILE:369:CG2:3232, V-A:ILE:369:CB:3231, V-A:TYR:531:CE1:4787, H-A:TYR:531:OH:4790, V-B:ASN:362:CB:8143, V-A:ASP:366:C:3203, H-B:TYR:539:OH:9846, H-A:LYS:534:NZ:4818, H-B:TYR:531:OH:9763, V-B:ASN:362:C:8139"]

$$$$
1o_Grossjean_2025
     RDKit          3D

 45 46  0  0  0  0  0  0  0  0999 V2000
  124.2020  124.5200   57.6130 C   0  0  0  0  0  0  0  0  0  0  0  0
  125.3720  124.2750   56.8450 O   0  0  0  0  0  0  0  0  0  0  0  0
  125.9810  123.0610   56.8670 C   0  0  0  0  0  0  0  0  0  0  0  0
  125.6620  122.1270   56.1250 O   0  0  0  0  0  0  0  0  0  0  0  0
  127.0840  122.9680   57.8810 C   0  0  0  0  0  0  0  0  0  0  0  0
  126.8700  123.2450   59.2390 C   0  0  0  0  0  0  0  0  0  0  0  0
  127.9140  123.1470   60.1550 C   0  0  0  0  0  0  0  0  0  0  0  0
  129.1920  122.7760   59.7340 C   0  0  0  0  0  0  0  0  0  0  0  0
  130.1710  122.7000   60.7440 N   0  0  0  0  0  0  0  0  0  0  0  0
  130.7200  121.6160   61.3370 C   0  0  0  0  0  0  0  0  0  0  0  0
  130.4720  120.4460   61.0450 O   0  0  0  0  0  0  0  0  0  0  0  0
  131.7510  121.9150   62.4350 C   0  0  0  0  0  0  0  0  0  0  0  0
  133.1450  122.2740   61.8820 C   0  0  0  0  0  0  0  0  0  0  0  0
  133.4890  124.0580   61.8500 S   0  0  0  0  0  0  0  0  0  0  0  0
  133.1360  124.7300   63.4620 C   0  0  0  0  0  0  0  0  0  0  0  0
  134.1970  124.6920   64.3070 N   0  0  0  0  0  0  0  0  0  0  0  0
  134.0490  125.1840   65.5600 C   0  0  0  0  0  0  0  0  0  0  0  0
  135.2820  125.1200   66.4420 C   0  0  0  0  0  0  0  0  0  0  0  0
  132.8480  125.7170   66.0210 C   0  0  0  0  0  0  0  0  0  0  0  0
  131.7410  125.7380   65.1670 C   0  0  0  0  0  0  0  0  0  0  0  0
  130.4310  126.3150   65.7010 C   0  0  0  0  0  0  0  0  0  0  0  0
  131.8690  125.2260   63.8560 C   0  0  0  0  0  0  0  0  0  0  0  0
  130.7060  125.1850   62.9670 C   0  0  0  0  0  0  0  0  0  0  0  0
  129.7850  125.1550   62.2660 N   0  0  0  0  0  0  0  0  0  0  0  0
  129.4130  122.4920   58.3780 C   0  0  0  0  0  0  0  0  0  0  0  0
  128.3670  122.5900   57.4640 C   0  0  0  0  0  0  0  0  0  0  0  0
  124.4487  124.4683   58.6837 H   0  0  0  0  0  0  0  0  0  0  0  0
  123.8098  125.5198   57.3749 H   0  0  0  0  0  0  0  0  0  0  0  0
  123.4416  123.7616   57.3749 H   0  0  0  0  0  0  0  0  0  0  0  0
  125.8685  123.5423   59.5835 H   0  0  0  0  0  0  0  0  0  0  0  0
  127.7304  123.3634   61.2177 H   0  0  0  0  0  0  0  0  0  0  0  0
  130.5240  123.5960   61.0450 H   0  0  0  0  0  0  0  0  0  0  0  0
  131.3855  122.7607   63.0360 H   0  0  0  0  0  0  0  0  0  0  0  0
  131.8642  120.9990   63.0335 H   0  0  0  0  0  0  0  0  0  0  0  0
  133.9034  121.7865   62.5122 H   0  0  0  0  0  0  0  0  0  0  0  0
  133.1738  121.9251   60.8392 H   0  0  0  0  0  0  0  0  0  0  0  0
  134.9779  125.1358   67.4990 H   0  0  0  0  0  0  0  0  0  0  0  0
  135.8344  124.1920   66.2332 H   0  0  0  0  0  0  0  0  0  0  0  0
  135.9275  125.9858   66.2332 H   0  0  0  0  0  0  0  0  0  0  0  0
  132.7712  126.1161   67.0432 H   0  0  0  0  0  0  0  0  0  0  0  0
  130.4483  126.3074   66.8008 H   0  0  0  0  0  0  0  0  0  0  0  0
  130.3128  127.3485   65.3433 H   0  0  0  0  0  0  0  0  0  0  0  0
  129.5887  125.7046   65.3433 H   0  0  0  0  0  0  0  0  0  0  0  0
  130.4144  122.1914   58.0362 H   0  0  0  0  0  0  0  0  0  0  0  0
  128.5502  122.3681   56.4023 H   0  0  0  0  0  0  0  0  0  0  0  0
  1  2  1  0
  2  3  1  0
  3  4  2  0
  3  5  1  0
  5  6  2  0
  6  7  1  0
  7  8  2  0
  8  9  1  0
  9 10  1  0
 10 11  2  0
 10 12  1  0
 12 13  1  0
 13 14  1  0
 14 15  1  0
 15 16  2  0
 16 17  1  0
 17 18  1  0
 17 19  2  0
 19 20  1  0
 20 21  1  0
 20 22  2  0
 22 23  1  0
 23 24  3  0
  8 25  1  0
 25 26  2  0
 26  5  1  0
 22 15  1  0
  1 27  1  0
  1 28  1  0
  1 29  1  0
  6 30  1  0
  7 31  1  0
  9 32  1  0
 12 33  1  0
 12 34  1  0
 13 35  1  0
 13 36  1  0
 18 37  1  0
 18 38  1  0
 18 39  1  0
 19 40  1  0
 21 41  1  0
 21 42  1  0
 21 43  1  0
 25 44  1  0
 26 45  1  0
M  END
>  <Binding energies>  (1) 
[-7.54]

>  <Ligand effiencies>  (1) 
[-0.27925925925925926]

>  <Interactions>  (1) 
["V-B:TYR:539:C:9835, V-B:TYR:539:CD2:9842, V-A:LEU:475:CD2:4254, V-B:TYR:539:CE2:9844, V-B:PRO:540:N:9852, V-B:PRO:540:CA:9851, V-B:MET:535:CE:9803, V-B:PRO:540:CB:9853, V-A:GLU:543:CD:4903, H-A:TYR:484:OH:4343, H-B:TYR:539:N:9838, V-B:LEU:363:CD1:8156, V-B:TYR:539:CZ:9845, V-B:TYR:531:CE2:9761, V-B:ASP:366:CB:8179, V-B:LEU:363:CA:8152, V-A:ILE:369:CD1:3234, V-A:ARG:545:CZ:4921, V-A:GLY:453:CA:4039, H-A:GLY:454:N:4045, V-A:ARG:545:CD:4918, V-A:ARG:545:CG:4917, V-B:TYR:539:CG:9840, H-B:TYR:531:OH:9763, V-A:GLY:453:C:4037, V-A:HIS:456:CD2:4063"]

$$$$
1p_Grossjean_2025
     RDKit          3D

 35 36  0  0  0  0  0  0  0  0999 V2000
  127.6700  123.2850   60.4610 C   0  0  0  0  0  0  0  0  0  0  0  0
  128.9350  122.4500   60.4190 C   0  0  0  0  0  0  0  0  0  0  0  0
  128.9880  121.1780   60.9870 C   0  0  0  0  0  0  0  0  0  0  0  0
  130.1850  120.4570   60.9300 C   0  0  0  0  0  0  0  0  0  0  0  0
  130.2240  119.0720   61.5730 C   0  0  0  0  0  0  0  0  0  0  0  0
  131.3080  121.0310   60.2920 C   0  0  0  0  0  0  0  0  0  0  0  0
  132.5850  120.3170   60.2620 C   0  0  0  0  0  0  0  0  0  0  0  0
  133.5950  119.7520   60.2380 N   0  0  0  0  0  0  0  0  0  0  0  0
  131.1570  122.3180   59.7220 C   0  0  0  0  0  0  0  0  0  0  0  0
  132.4630  123.1790   58.8760 S   0  0  0  0  0  0  0  0  0  0  0  0
  131.6960  124.5820   58.0150 C   0  0  0  0  0  0  0  0  0  0  0  0
  131.5540  124.3770   56.4940 C   0  0  0  0  0  0  0  0  0  0  0  0
  130.1190  124.0620   56.0480 C   0  0  0  0  0  0  0  0  0  0  0  0
  129.7090  124.4950   54.9690 O   0  0  0  0  0  0  0  0  0  0  0  0
  129.3970  123.2970   56.8980 N   0  0  0  0  0  0  0  0  0  0  0  0
  128.0850  122.8700   56.7360 C   0  0  0  0  0  0  0  0  0  0  0  0
  126.9940  123.5340   57.2940 C   0  0  0  0  0  0  0  0  0  0  0  0
  125.8930  122.8050   56.9060 C   0  0  0  0  0  0  0  0  0  0  0  0
  126.3010  121.7550   56.1550 O   0  0  0  0  0  0  0  0  0  0  0  0
  127.6930  121.8060   56.0560 N   0  0  0  0  0  0  0  0  0  0  0  0
  129.9970  123.0180   59.8010 N   0  0  0  0  0  0  0  0  0  0  0  0
  127.3881  123.4711   61.5078 H   0  0  0  0  0  0  0  0  0  0  0  0
  127.8469  124.2444   59.9528 H   0  0  0  0  0  0  0  0  0  0  0  0
  126.8573  122.7453   59.9528 H   0  0  0  0  0  0  0  0  0  0  0  0
  128.1004  120.7473   61.4734 H   0  0  0  0  0  0  0  0  0  0  0  0
  130.2211  119.1759   62.6681 H   0  0  0  0  0  0  0  0  0  0  0  0
  129.3417  118.4961   61.2570 H   0  0  0  0  0  0  0  0  0  0  0  0
  131.1373  118.5466   61.2570 H   0  0  0  0  0  0  0  0  0  0  0  0
  130.6935  124.7424   58.4383 H   0  0  0  0  0  0  0  0  0  0  0  0
  132.3585  125.4480   58.1608 H   0  0  0  0  0  0  0  0  0  0  0  0
  131.8819  125.2965   55.9870 H   0  0  0  0  0  0  0  0  0  0  0  0
  132.1733  123.5082   56.2262 H   0  0  0  0  0  0  0  0  0  0  0  0
  129.8470  123.0050   57.7530 H   0  0  0  0  0  0  0  0  0  0  0  0
  127.0096  124.4443   57.9113 H   0  0  0  0  0  0  0  0  0  0  0  0
  124.8495  123.0380   57.1645 H   0  0  0  0  0  0  0  0  0  0  0  0
  1  2  1  0
  2  3  2  0
  3  4  1  0
  4  5  1  0
  4  6  2  0
  6  7  1  0
  7  8  3  0
  6  9  1  0
  9 10  1  0
 10 11  1  0
 11 12  1  0
 12 13  1  0
 13 14  2  0
 13 15  1  0
 15 16  1  0
 16 17  1  0
 17 18  2  0
 18 19  1  0
 19 20  1  0
  9 21  2  0
 21  2  1  0
 20 16  2  0
  1 22  1  0
  1 23  1  0
  1 24  1  0
  3 25  1  0
  5 26  1  0
  5 27  1  0
  5 28  1  0
 11 29  1  0
 11 30  1  0
 12 31  1  0
 12 32  1  0
 15 33  1  0
 17 34  1  0
 18 35  1  0
M  END
>  <Binding energies>  (1) 
[-7.53]

>  <Ligand effiencies>  (1) 
[-0.3422727272727273]

>  <Interactions>  (1) 
["V-B:TYR:539:C:9835, V-B:TYR:539:CD2:9842, V-A:LEU:475:CD2:4254, V-A:TRP:381:CZ2:3365, V-A:LEU:475:CD1:4253, V-B:PRO:540:C:9849, V-B:TYR:539:CE2:9844, V-B:PRO:540:N:9852, V-B:ALA:541:CB:9860, V-A:TRP:381:CH2:3367, V-B:PRO:540:CA:9851, V-B:MET:535:CE:9803, V-B:PRO:540:CB:9853, V-A:PRO:482:CB:4321, V-B:ALA:541:CA:9858, V-A:TYR:531:CZ:4789, H-B:TYR:539:N:9838, V-B:PRO:540:CD:9855, V-B:TYR:539:CZ:9845, V-B:TYR:539:CE1:9843, V-A:ILE:369:CG2:3232, V-A:TYR:531:CE1:4787, H-B:TYR:539:OH:9846, H-A:LYS:534:NZ:4818"]

$$$$
1q_Grossjean_2025
     RDKit          3D

 38 38  0  0  0  0  0  0  0  0999 V2000
  125.0780  122.9100   56.8750 C   0  0  0  0  0  0  0  0  0  0  0  0
  126.0400  122.1230   56.1880 O   0  0  0  0  0  0  0  0  0  0  0  0
  127.3650  122.3270   56.3880 C   0  0  0  0  0  0  0  0  0  0  0  0
  128.2160  121.4430   56.5060 O   0  0  0  0  0  0  0  0  0  0  0  0
  127.7640  123.8140   56.4970 C   0  0  0  0  0  0  0  0  0  0  0  0
  129.2100  124.0100   56.6800 N   0  0  0  0  0  0  0  0  0  0  0  0
  130.0530  124.5490   55.7790 C   0  0  0  0  0  0  0  0  0  0  0  0
  129.6900  124.9500   54.6720 O   0  0  0  0  0  0  0  0  0  0  0  0
  131.5220  124.6570   56.2140 C   0  0  0  0  0  0  0  0  0  0  0  0
  131.7250  124.7730   57.7380 C   0  0  0  0  0  0  0  0  0  0  0  0
  132.3910  123.2630   58.5000 S   0  0  0  0  0  0  0  0  0  0  0  0
  131.0830  122.4600   59.4050 C   0  0  0  0  0  0  0  0  0  0  0  0
  129.8920  123.1060   59.3180 N   0  0  0  0  0  0  0  0  0  0  0  0
  128.8220  122.5910   59.9670 C   0  0  0  0  0  0  0  0  0  0  0  0
  127.5310  123.3780   59.8370 C   0  0  0  0  0  0  0  0  0  0  0  0
  128.8890  121.4170   60.7140 C   0  0  0  0  0  0  0  0  0  0  0  0
  130.1030  120.7290   60.7890 C   0  0  0  0  0  0  0  0  0  0  0  0
  130.1470  119.4340   61.5990 C   0  0  0  0  0  0  0  0  0  0  0  0
  131.2350  121.2450   60.1180 C   0  0  0  0  0  0  0  0  0  0  0  0
  132.5000  120.5090   60.1390 C   0  0  0  0  0  0  0  0  0  0  0  0
  133.4980  119.9230   60.1580 N   0  0  0  0  0  0  0  0  0  0  0  0
  125.2179  122.7955   57.9600 H   0  0  0  0  0  0  0  0  0  0  0  0
  125.2042  123.9672   56.5985 H   0  0  0  0  0  0  0  0  0  0  0  0
  124.0668  122.5769   56.5985 H   0  0  0  0  0  0  0  0  0  0  0  0
  127.4546  124.3282   55.5751 H   0  0  0  0  0  0  0  0  0  0  0  0
  127.2617  124.2248   57.3852 H   0  0  0  0  0  0  0  0  0  0  0  0
  129.5930  123.6820   57.5550 H   0  0  0  0  0  0  0  0  0  0  0  0
  132.0522  123.7594   55.8631 H   0  0  0  0  0  0  0  0  0  0  0  0
  131.9142  125.5849   55.7722 H   0  0  0  0  0  0  0  0  0  0  0  0
  132.4245  125.5991   57.9338 H   0  0  0  0  0  0  0  0  0  0  0  0
  130.7346  124.9493   58.1830 H   0  0  0  0  0  0  0  0  0  0  0  0
  127.1432  123.6144   60.8389 H   0  0  0  0  0  0  0  0  0  0  0  0
  127.7245  124.3119   59.2889 H   0  0  0  0  0  0  0  0  0  0  0  0
  126.7895  122.7781   59.2889 H   0  0  0  0  0  0  0  0  0  0  0  0
  127.9991  121.0371   61.2372 H   0  0  0  0  0  0  0  0  0  0  0  0
  130.1389  119.6727   62.6728 H   0  0  0  0  0  0  0  0  0  0  0  0
  129.2693  118.8181   61.3537 H   0  0  0  0  0  0  0  0  0  0  0  0
  131.0645  118.8791   61.3537 H   0  0  0  0  0  0  0  0  0  0  0  0
  1  2  1  0
  2  3  1  0
  3  4  2  0
  3  5  1  0
  5  6  1  0
  6  7  1  0
  7  8  2  0
  7  9  1  0
  9 10  1  0
 10 11  1  0
 11 12  1  0
 12 13  2  0
 13 14  1  0
 14 15  1  0
 14 16  2  0
 16 17  1  0
 17 18  1  0
 17 19  2  0
 19 20  1  0
 20 21  3  0
 19 12  1  0
  1 22  1  0
  1 23  1  0
  1 24  1  0
  5 25  1  0
  5 26  1  0
  6 27  1  0
  9 28  1  0
  9 29  1  0
 10 30  1  0
 10 31  1  0
 15 32  1  0
 15 33  1  0
 15 34  1  0
 16 35  1  0
 18 36  1  0
 18 37  1  0
 18 38  1  0
M  END
>  <Binding energies>  (1) 
[-5.95]

>  <Ligand effiencies>  (1) 
[-0.27045454545454545]

>  <Interactions>  (1) 
["V-B:TYR:539:C:9835, V-B:TYR:539:CD2:9842, V-A:LEU:475:CD2:4254, V-A:LEU:475:CD1:4253, V-B:PRO:540:C:9849, V-B:TYR:539:CE2:9844, V-B:PRO:540:N:9852, V-B:ALA:541:CB:9860, V-A:TRP:381:CH2:3367, V-B:PRO:540:CA:9851, V-B:MET:535:CE:9803, V-B:PRO:540:CB:9853, V-A:PRO:482:CB:4321, V-A:TYR:531:CZ:4789, H-B:TYR:539:N:9838, V-B:TYR:539:CA:9837, V-B:PRO:540:CD:9855, V-B:LEU:363:CD1:8156, V-B:TYR:539:CZ:9845, V-A:ILE:369:CG2:3232, V-A:TYR:531:CE1:4787, H-A:LYS:534:NZ:4818, V-B:TYR:539:CD1:9841, V-B:TYR:539:CG:9840"]

$$$$
2a_Ghoteimi_2023
     RDKit          3D

 85 90  0  0  0  0  0  0  0  0999 V2000
  132.6770  130.7530   58.2170 C   0  0  0  0  0  0  0  0  0  0  0  0
  132.0230  131.5590   57.0910 C   0  0  0  0  0  0  0  0  0  0  0  0
  131.0860  132.4720   57.6470 O   0  0  0  0  0  0  0  0  0  0  0  0
  129.9430  132.7930   56.9880 C   0  0  0  0  0  0  0  0  0  0  0  0
  129.9270  133.3780   55.9000 O   0  0  0  0  0  0  0  0  0  0  0  0
  128.7000  132.3610   57.7110 C   0  0  0  0  0  0  0  0  0  0  0  0
  127.8690  131.3450   57.2170 C   0  0  0  0  0  0  0  0  0  0  0  0
  126.7250  130.9670   57.9130 C   0  0  0  0  0  0  0  0  0  0  0  0
  126.3880  131.5900   59.1160 C   0  0  0  0  0  0  0  0  0  0  0  0
  125.2080  131.1330   59.7330 N   0  0  0  0  0  0  0  0  0  0  0  0
  123.9270  131.5140   59.5400 C   0  0  0  0  0  0  0  0  0  0  0  0
  123.5620  132.4120   58.7790 O   0  0  0  0  0  0  0  0  0  0  0  0
  122.8890  130.7660   60.3870 C   0  0  0  0  0  0  0  0  0  0  0  0
  123.1120  130.9480   62.1860 S   0  0  0  0  0  0  0  0  0  0  0  0
  124.5020  129.9210   62.6030 C   0  0  0  0  0  0  0  0  0  0  0  0
  125.0620  129.2980   61.5390 N   0  0  0  0  0  0  0  0  0  0  0  0
  126.1260  128.4780   61.7300 C   0  0  0  0  0  0  0  0  0  0  0  0
  126.6850  127.8170   60.5120 C   0  0  0  0  0  0  0  0  0  0  0  0
  125.9830  127.8140   59.3010 C   0  0  0  0  0  0  0  0  0  0  0  0
  126.5030  127.1860   58.1730 C   0  0  0  0  0  0  0  0  0  0  0  0
  127.7490  126.5440   58.2100 C   0  0  0  0  0  0  0  0  0  0  0  0
  128.2450  125.8920   57.0770 N   0  0  0  0  0  0  0  0  0  0  0  0
  128.8640  124.5540   57.1670 C   0  0  0  0  0  0  0  0  0  0  0  0
  129.0190  123.8450   55.8050 C   0  0  0  0  0  0  0  0  0  0  0  0
  129.7330  124.6750   54.9040 O   0  0  0  0  0  0  0  0  0  0  0  0
  129.0540  125.9000   54.6790 C   0  0  0  0  0  0  0  0  0  0  0  0
  128.8990  126.6730   56.0060 C   0  0  0  0  0  0  0  0  0  0  0  0
  128.4430  126.5390   59.4310 C   0  0  0  0  0  0  0  0  0  0  0  0
  127.9240  127.1690   60.5570 C   0  0  0  0  0  0  0  0  0  0  0  0
  126.6630  128.2770   63.0050 C   0  0  0  0  0  0  0  0  0  0  0  0
  126.1010  128.9120   64.1210 C   0  0  0  0  0  0  0  0  0  0  0  0
  126.7210  128.6470   65.4540 C   0  0  0  0  0  0  0  0  0  0  0  0
  127.7960  129.4230   65.8960 C   0  0  0  0  0  0  0  0  0  0  0  0
  128.3930  129.1720   67.1270 C   0  0  0  0  0  0  0  0  0  0  0  0
  127.9310  128.1380   67.9570 C   0  0  0  0  0  0  0  0  0  0  0  0
  128.5290  127.8580   69.1890 N   0  0  0  0  0  0  0  0  0  0  0  0
  127.7950  127.0460   70.1800 C   0  0  0  0  0  0  0  0  0  0  0  0
  128.6970  126.4920   71.3030 C   0  0  0  0  0  0  0  0  0  0  0  0
  129.3920  127.5550   71.9370 O   0  0  0  0  0  0  0  0  0  0  0  0
  130.2140  128.2640   71.0230 C   0  0  0  0  0  0  0  0  0  0  0  0
  129.3530  128.8600   69.8910 C   0  0  0  0  0  0  0  0  0  0  0  0
  126.8600  127.3570   67.5010 C   0  0  0  0  0  0  0  0  0  0  0  0
  126.2630  127.6070   66.2680 C   0  0  0  0  0  0  0  0  0  0  0  0
  124.9890  129.7660   63.9200 C   0  0  0  0  0  0  0  0  0  0  0  0
  124.3930  130.5010   65.0400 C   0  0  0  0  0  0  0  0  0  0  0  0
  123.9240  131.0790   65.9260 N   0  0  0  0  0  0  0  0  0  0  0  0
  127.2100  132.6130   59.6130 C   0  0  0  0  0  0  0  0  0  0  0  0
  128.3560  132.9890   58.9160 C   0  0  0  0  0  0  0  0  0  0  0  0
  132.3531  131.1522   59.1895 H   0  0  0  0  0  0  0  0  0  0  0  0
  132.3764  129.6980   58.1351 H   0  0  0  0  0  0  0  0  0  0  0  0
  133.7713  130.8299   58.1351 H   0  0  0  0  0  0  0  0  0  0  0  0
  132.7962  132.1158   56.5413 H   0  0  0  0  0  0  0  0  0  0  0  0
  131.5055  130.8751   56.4022 H   0  0  0  0  0  0  0  0  0  0  0  0
  128.1236  130.8430   56.2719 H   0  0  0  0  0  0  0  0  0  0  0  0
  126.0808  130.1707   57.5120 H   0  0  0  0  0  0  0  0  0  0  0  0
  125.3600  130.4310   60.4420 H   0  0  0  0  0  0  0  0  0  0  0  0
  121.8913  131.1471   60.1239 H   0  0  0  0  0  0  0  0  0  0  0  0
  123.0129  129.6963   60.1623 H   0  0  0  0  0  0  0  0  0  0  0  0
  125.0058  128.3154   59.2399 H   0  0  0  0  0  0  0  0  0  0  0  0
  125.9265  127.1935   57.2362 H   0  0  0  0  0  0  0  0  0  0  0  0
  129.8621  124.6634   57.6163 H   0  0  0  0  0  0  0  0  0  0  0  0
  128.1928  123.9315   57.7770 H   0  0  0  0  0  0  0  0  0  0  0  0
  129.5687  122.9026   55.9455 H   0  0  0  0  0  0  0  0  0  0  0  0
  128.0214  123.6372   55.3908 H   0  0  0  0  0  0  0  0  0  0  0  0
  129.6304  126.5100   53.9680 H   0  0  0  0  0  0  0  0  0  0  0  0
  128.0561  125.6878   54.2677 H   0  0  0  0  0  0  0  0  0  0  0  0
  129.8996  126.9692   56.3540 H   0  0  0  0  0  0  0  0  0  0  0  0
  128.2525  127.5387   55.7995 H   0  0  0  0  0  0  0  0  0  0  0  0
  129.4146  126.0276   59.4979 H   0  0  0  0  0  0  0  0  0  0  0  0
  128.4960  127.1576   61.4965 H   0  0  0  0  0  0  0  0  0  0  0  0
  127.5327  127.6158   63.1333 H   0  0  0  0  0  0  0  0  0  0  0  0
  128.1737  130.2404   65.2641 H   0  0  0  0  0  0  0  0  0  0  0  0
  129.2397  129.7928   67.4552 H   0  0  0  0  0  0  0  0  0  0  0  0
  127.0147  127.6730   70.6361 H   0  0  0  0  0  0  0  0  0  0  0  0
  127.3726  126.1825   69.6453 H   0  0  0  0  0  0  0  0  0  0  0  0
  128.0754  125.9696   72.0450 H   0  0  0  0  0  0  0  0  0  0  0  0
  129.4263  125.7927   70.8682 H   0  0  0  0  0  0  0  0  0  0  0  0
  130.7314  129.0769   71.5535 H   0  0  0  0  0  0  0  0  0  0  0  0
  130.9513  127.5724   70.5895 H   0  0  0  0  0  0  0  0  0  0  0  0
  128.6847  129.6186   70.3244 H   0  0  0  0  0  0  0  0  0  0  0  0
  130.0440  129.2876   69.1496 H   0  0  0  0  0  0  0  0  0  0  0  0
  126.4853  126.5337   68.1269 H   0  0  0  0  0  0  0  0  0  0  0  0
  125.4237  126.9806   65.9316 H   0  0  0  0  0  0  0  0  0  0  0  0
  126.9490  133.1187   60.5543 H   0  0  0  0  0  0  0  0  0  0  0  0
  128.9982  133.7877   59.3157 H   0  0  0  0  0  0  0  0  0  0  0  0
  1  2  1  0
  2  3  1  0
  3  4  1  0
  4  5  2  0
  4  6  1  0
  6  7  2  0
  7  8  1  0
  8  9  2  0
  9 10  1  0
 10 11  1  0
 11 12  2  0
 11 13  1  0
 13 14  1  0
 14 15  1  0
 15 16  2  0
 16 17  1  0
 17 18  1  0
 18 19  2  0
 19 20  1  0
 20 21  2  0
 21 22  1  0
 22 23  1  0
 23 24  1  0
 24 25  1  0
 25 26  1  0
 26 27  1  0
 21 28  1  0
 28 29  2  0
 17 30  2  0
 30 31  1  0
 31 32  1  0
 32 33  2  0
 33 34  1  0
 34 35  2  0
 35 36  1  0
 36 37  1  0
 37 38  1  0
 38 39  1  0
 39 40  1  0
 40 41  1  0
 35 42  1  0
 42 43  2  0
 31 44  2  0
 44 45  1  0
 45 46  3  0
  9 47  1  0
 47 48  2  0
 48  6  1  0
 44 15  1  0
 29 18  1  0
 43 32  1  0
 27 22  1  0
 41 36  1  0
  1 49  1  0
  1 50  1  0
  1 51  1  0
  2 52  1  0
  2 53  1  0
  7 54  1  0
  8 55  1  0
 10 56  1  0
 13 57  1  0
 13 58  1  0
 19 59  1  0
 20 60  1  0
 23 61  1  0
 23 62  1  0
 24 63  1  0
 24 64  1  0
 26 65  1  0
 26 66  1  0
 27 67  1  0
 27 68  1  0
 28 69  1  0
 29 70  1  0
 30 71  1  0
 33 72  1  0
 34 73  1  0
 37 74  1  0
 37 75  1  0
 38 76  1  0
 38 77  1  0
 40 78  1  0
 40 79  1  0
 41 80  1  0
 41 81  1  0
 42 82  1  0
 43 83  1  0
 47 84  1  0
 48 85  1  0
M  END
>  <Binding energies>  (1) 
[-11.51]

>  <Ligand effiencies>  (1) 
[-0.23489795918367345]

>  <Interactions>  (1) 
["V-B:MET:535:CE:9803, V-B:GLU:543:CD:9876, V-A:GLU:543:CG:4902, V-A:PRO:540:N:4879, V-A:TYR:539:CE2:4871, V-A:TYR:531:CE2:4788, V-A:PRO:540:CA:4878, V-A:TYR:539:CE1:4870, V-A:TYR:539:CZ:4872, V-A:PRO:540:CB:4880, V-A:LEU:363:CD1:3184, V-A:TYR:539:C:4862, V-A:PRO:540:CD:4882, V-A:TYR:539:CD2:4869, H-B:GLY:454:N:9017, V-B:ILE:369:CD1:8206, H-A:TYR:539:N:4865, V-B:ASP:366:CG:8180, V-B:TYR:539:CZ:9845, V-B:ASP:366:CB:8179, V-A:TYR:539:CD1:4868, V-A:TYR:539:CG:4867, V-B:ARG:545:CZ:9894, H-A:TYR:539:OH:4873, V-B:ASP:366:CA:8177, V-B:ILE:369:CB:8203, V-A:GLU:543:CB:4901, V-B:HIS:456:CE1:9037, V-B:ARG:545:CG:9890, H-B:TYR:484:OH:9315, V-A:HIS:456:CE1:4064, V-B:GLU:543:CB:9874, V-B:TYR:539:CE1:9843, H-B:LYS:547:NZ:9919, V-B:HIS:456:CD2:9035, V-B:GLU:543:C:9870, H-B:ARG:545:NH2:9896, H-B:TYR:539:OH:9846, H-A:LYS:534:NZ:4818"]

$$$$
2a_Grossjean_2025
     RDKit          3D

 45 46  0  0  0  0  0  0  0  0999 V2000
  133.1180  131.1130   58.0410 C   0  0  0  0  0  0  0  0  0  0  0  0
  131.6370  131.2490   57.6740 C   0  0  0  0  0  0  0  0  0  0  0  0
  131.4300  132.4910   57.0110 O   0  0  0  0  0  0  0  0  0  0  0  0
  130.2000  132.8470   56.5590 C   0  0  0  0  0  0  0  0  0  0  0  0
  130.0050  133.3780   55.4620 O   0  0  0  0  0  0  0  0  0  0  0  0
  129.0960  132.5080   57.5200 C   0  0  0  0  0  0  0  0  0  0  0  0
  128.1730  131.4850   57.2580 C   0  0  0  0  0  0  0  0  0  0  0  0
  127.1600  131.1970   58.1690 C   0  0  0  0  0  0  0  0  0  0  0  0
  127.0440  131.9270   59.3530 C   0  0  0  0  0  0  0  0  0  0  0  0
  125.9760  131.5590   60.1920 N   0  0  0  0  0  0  0  0  0  0  0  0
  124.6770  131.3380   59.8970 C   0  0  0  0  0  0  0  0  0  0  0  0
  124.1680  131.4520   58.7810 O   0  0  0  0  0  0  0  0  0  0  0  0
  123.7950  130.9170   61.0770 C   0  0  0  0  0  0  0  0  0  0  0  0
  124.0860  131.9020   62.5840 S   0  0  0  0  0  0  0  0  0  0  0  0
  124.3950  130.8110   63.9680 C   0  0  0  0  0  0  0  0  0  0  0  0
  123.4080  130.7450   64.8970 N   0  0  0  0  0  0  0  0  0  0  0  0
  123.5790  129.9490   65.9770 C   0  0  0  0  0  0  0  0  0  0  0  0
  122.4440  129.9500   66.9850 C   0  0  0  0  0  0  0  0  0  0  0  0
  124.7250  129.1850   66.1730 C   0  0  0  0  0  0  0  0  0  0  0  0
  125.7550  129.2310   65.2200 C   0  0  0  0  0  0  0  0  0  0  0  0
  127.0170  128.3780   65.4510 C   0  0  0  0  0  0  0  0  0  0  0  0
  127.3160  127.6940   64.3460 F   0  0  0  0  0  0  0  0  0  0  0  0
  128.0470  129.1650   65.7660 F   0  0  0  0  0  0  0  0  0  0  0  0
  126.8690  127.4950   66.4420 F   0  0  0  0  0  0  0  0  0  0  0  0
  125.5900  130.0640   64.0850 C   0  0  0  0  0  0  0  0  0  0  0  0
  126.6360  130.1520   63.0600 C   0  0  0  0  0  0  0  0  0  0  0  0
  127.4610  130.2210   62.2520 N   0  0  0  0  0  0  0  0  0  0  0  0
  127.9690  132.9460   59.6250 C   0  0  0  0  0  0  0  0  0  0  0  0
  128.9830  133.2290   58.7150 C   0  0  0  0  0  0  0  0  0  0  0  0
  133.2251  131.1032   59.1357 H   0  0  0  0  0  0  0  0  0  0  0  0
  133.5141  130.1747   57.6254 H   0  0  0  0  0  0  0  0  0  0  0  0
  133.6783  131.9635   57.6254 H   0  0  0  0  0  0  0  0  0  0  0  0
  131.3460  130.4236   57.0077 H   0  0  0  0  0  0  0  0  0  0  0  0
  131.0256  131.2121   58.5877 H   0  0  0  0  0  0  0  0  0  0  0  0
  128.2499  130.9059   56.3260 H   0  0  0  0  0  0  0  0  0  0  0  0
  126.4460  130.3883   57.9540 H   0  0  0  0  0  0  0  0  0  0  0  0
  126.2440  131.3960   61.1500 H   0  0  0  0  0  0  0  0  0  0  0  0
  122.7411  131.0316   60.7833 H   0  0  0  0  0  0  0  0  0  0  0  0
  124.0480  129.8736   61.3163 H   0  0  0  0  0  0  0  0  0  0  0  0
  122.8585  129.9496   68.0039 H   0  0  0  0  0  0  0  0  0  0  0  0
  121.8263  130.8487   66.8408 H   0  0  0  0  0  0  0  0  0  0  0  0
  121.8247  129.0524   66.8408 H   0  0  0  0  0  0  0  0  0  0  0  0
  124.8232  128.5508   67.0664 H   0  0  0  0  0  0  0  0  0  0  0  0
  127.8926  133.5221   60.5589 H   0  0  0  0  0  0  0  0  0  0  0  0
  129.7046  134.0289   58.9372 H   0  0  0  0  0  0  0  0  0  0  0  0
  1  2  1  0
  2  3  1  0
  3  4  1  0
  4  5  2  0
  4  6  1  0
  6  7  2  0
  7  8  1  0
  8  9  2  0
  9 10  1  0
 10 11  1  0
 11 12  2  0
 11 13  1  0
 13 14  1  0
 14 15  1  0
 15 16  2  0
 16 17  1  0
 17 18  1  0
 17 19  2  0
 19 20  1  0
 20 21  1  0
 21 22  1  0
 21 23  1  0
 21 24  1  0
 20 25  2  0
 25 26  1  0
 26 27  3  0
  9 28  1  0
 28 29  2  0
 29  6  1  0
 25 15  1  0
  1 30  1  0
  1 31  1  0
  1 32  1  0
  2 33  1  0
  2 34  1  0
  7 35  1  0
  8 36  1  0
 10 37  1  0
 13 38  1  0
 13 39  1  0
 18 40  1  0
 18 41  1  0
 18 42  1  0
 19 43  1  0
 28 44  1  0
 29 45  1  0
M  END
>  <Binding energies>  (1) 
[-7.19]

>  <Ligand effiencies>  (1) 
[-0.23966666666666667]

>  <Interactions>  (1) 
["V-B:GLU:543:CD:9876, V-A:GLU:543:CG:4902, V-A:PRO:540:N:4879, V-A:TYR:539:CE2:4871, V-A:TYR:531:CE2:4788, V-A:PRO:540:CA:4878, V-A:TYR:539:CE1:4870, V-A:TYR:539:CZ:4872, V-A:PRO:540:CB:4880, V-A:LEU:363:CD1:3184, V-A:TYR:539:C:4862, V-A:LEU:363:CA:3180, V-A:PRO:540:CD:4882, V-B:GLU:543:CG:9875, V-A:TYR:539:CD2:4869, H-B:GLY:454:N:9017, V-B:ILE:369:CD1:8206, H-A:TYR:539:N:4865, V-B:ASP:366:CG:8180, V-A:TYR:539:CD1:4868, V-A:TYR:539:CG:4867, V-B:ARG:545:CZ:9894, H-A:TYR:539:OH:4873, V-B:HIS:456:CE1:9037, V-B:ARG:545:CG:9890, V-B:ARG:545:CD:9891, V-B:GLU:543:CB:9874, V-B:GLY:453:CA:9011, V-B:GLY:453:C:9009, V-B:ILE:455:C:9019, V-B:ARG:545:CB:9889"]

$$$$
2aa_Ghoteimi_2023
     RDKit          3D

 85 90  0  0  0  0  0  0  0  0999 V2000
  132.0190  130.7730   57.9840 C   0  0  0  0  0  0  0  0  0  0  0  0
  132.0630  131.8240   56.8690 C   0  0  0  0  0  0  0  0  0  0  0  0
  131.1420  132.8650   57.1660 O   0  0  0  0  0  0  0  0  0  0  0  0
  129.9420  132.9410   56.5350 C   0  0  0  0  0  0  0  0  0  0  0  0
  129.8080  133.3420   55.3740 O   0  0  0  0  0  0  0  0  0  0  0  0
  128.7940  132.4760   57.3840 C   0  0  0  0  0  0  0  0  0  0  0  0
  127.9310  131.4520   56.9670 C   0  0  0  0  0  0  0  0  0  0  0  0
  126.8780  131.0400   57.7780 C   0  0  0  0  0  0  0  0  0  0  0  0
  126.6610  131.6460   59.0170 C   0  0  0  0  0  0  0  0  0  0  0  0
  125.5700  131.1500   59.7570 N   0  0  0  0  0  0  0  0  0  0  0  0
  124.3590  131.7010   59.9890 C   0  0  0  0  0  0  0  0  0  0  0  0
  123.9760  132.7830   59.5400 O   0  0  0  0  0  0  0  0  0  0  0  0
  123.4290  130.8530   60.8670 C   0  0  0  0  0  0  0  0  0  0  0  0
  123.9540  130.7840   62.1970 O   0  0  0  0  0  0  0  0  0  0  0  0
  125.0120  129.9320   62.4850 C   0  0  0  0  0  0  0  0  0  0  0  0
  125.6560  129.3370   61.4430 N   0  0  0  0  0  0  0  0  0  0  0  0
  126.6970  128.5020   61.6900 C   0  0  0  0  0  0  0  0  0  0  0  0
  127.3530  127.8800   60.4980 C   0  0  0  0  0  0  0  0  0  0  0  0
  126.7770  127.9890   59.2280 C   0  0  0  0  0  0  0  0  0  0  0  0
  127.3870  127.4180   58.1130 C   0  0  0  0  0  0  0  0  0  0  0  0
  128.6040  126.7280   58.2260 C   0  0  0  0  0  0  0  0  0  0  0  0
  129.2240  126.1380   57.1190 N   0  0  0  0  0  0  0  0  0  0  0  0
  129.6560  124.7250   57.1400 C   0  0  0  0  0  0  0  0  0  0  0  0
  130.6220  124.3520   55.9960 C   0  0  0  0  0  0  0  0  0  0  0  0
  130.0440  124.6870   54.7450 O   0  0  0  0  0  0  0  0  0  0  0  0
  129.7780  126.0770   54.6510 C   0  0  0  0  0  0  0  0  0  0  0  0
  128.7860  126.5020   55.7550 C   0  0  0  0  0  0  0  0  0  0  0  0
  129.1670  126.6040   59.5050 C   0  0  0  0  0  0  0  0  0  0  0  0
  128.5550  127.1730   60.6180 C   0  0  0  0  0  0  0  0  0  0  0  0
  127.1110  128.2290   62.9970 C   0  0  0  0  0  0  0  0  0  0  0  0
  126.4580  128.8200   64.0860 C   0  0  0  0  0  0  0  0  0  0  0  0
  126.9280  128.4690   65.4610 C   0  0  0  0  0  0  0  0  0  0  0  0
  128.1150  129.0110   65.9600 C   0  0  0  0  0  0  0  0  0  0  0  0
  128.5700  128.6740   67.2320 C   0  0  0  0  0  0  0  0  0  0  0  0
  127.8560  127.7730   68.0370 C   0  0  0  0  0  0  0  0  0  0  0  0
  128.2910  127.4220   69.3190 N   0  0  0  0  0  0  0  0  0  0  0  0
  128.5330  128.4440   70.3550 C   0  0  0  0  0  0  0  0  0  0  0  0
  128.6580  127.8600   71.7780 C   0  0  0  0  0  0  0  0  0  0  0  0
  129.6680  126.8620   71.8050 O   0  0  0  0  0  0  0  0  0  0  0  0
  129.3740  125.7960   70.9160 C   0  0  0  0  0  0  0  0  0  0  0  0
  129.2690  126.3260   69.4710 C   0  0  0  0  0  0  0  0  0  0  0  0
  126.6620  127.2400   67.5310 C   0  0  0  0  0  0  0  0  0  0  0  0
  126.2080  127.5780   66.2600 C   0  0  0  0  0  0  0  0  0  0  0  0
  125.3880  129.7070   63.8210 C   0  0  0  0  0  0  0  0  0  0  0  0
  124.6810  130.4080   64.8950 C   0  0  0  0  0  0  0  0  0  0  0  0
  124.1220  130.9620   65.7440 N   0  0  0  0  0  0  0  0  0  0  0  0
  127.5230  132.6660   59.4450 C   0  0  0  0  0  0  0  0  0  0  0  0
  128.5780  133.0740   58.6320 C   0  0  0  0  0  0  0  0  0  0  0  0
  132.0400  131.2753   58.9624 H   0  0  0  0  0  0  0  0  0  0  0  0
  131.0953  130.1823   57.8949 H   0  0  0  0  0  0  0  0  0  0  0  0
  132.8901  130.1072   57.8949 H   0  0  0  0  0  0  0  0  0  0  0  0
  133.0783  132.2413   56.7977 H   0  0  0  0  0  0  0  0  0  0  0  0
  131.7923  131.3556   55.9112 H   0  0  0  0  0  0  0  0  0  0  0  0
  128.0879  130.9705   55.9905 H   0  0  0  0  0  0  0  0  0  0  0  0
  126.2123  130.2318   57.4408 H   0  0  0  0  0  0  0  0  0  0  0  0
  125.7160  130.2250   60.1340 H   0  0  0  0  0  0  0  0  0  0  0  0
  122.4297  131.3120   60.8914 H   0  0  0  0  0  0  0  0  0  0  0  0
  123.3582  129.8378   60.4494 H   0  0  0  0  0  0  0  0  0  0  0  0
  125.8287  128.5334   59.1078 H   0  0  0  0  0  0  0  0  0  0  0  0
  126.9067  127.5095   57.1276 H   0  0  0  0  0  0  0  0  0  0  0  0
  130.1612  124.5310   58.0977 H   0  0  0  0  0  0  0  0  0  0  0  0
  128.7523  124.1117   57.0089 H   0  0  0  0  0  0  0  0  0  0  0  0
  131.5652  124.9040   56.1211 H   0  0  0  0  0  0  0  0  0  0  0  0
  130.8165  123.2697   56.0259 H   0  0  0  0  0  0  0  0  0  0  0  0
  130.7176  126.6364   54.7708 H   0  0  0  0  0  0  0  0  0  0  0  0
  129.3368  126.2939   53.6670 H   0  0  0  0  0  0  0  0  0  0  0  0
  128.6628  127.5941   55.7096 H   0  0  0  0  0  0  0  0  0  0  0  0
  127.8446  125.9654   55.5655 H   0  0  0  0  0  0  0  0  0  0  0  0
  130.1077  126.0478   59.6303 H   0  0  0  0  0  0  0  0  0  0  0  0
  129.0233  127.0654   61.6075 H   0  0  0  0  0  0  0  0  0  0  0  0
  127.9551  127.5456   63.1713 H   0  0  0  0  0  0  0  0  0  0  0  0
  128.6960  129.7111   65.3417 H   0  0  0  0  0  0  0  0  0  0  0  0
  129.5014  129.1199   67.6110 H   0  0  0  0  0  0  0  0  0  0  0  0
  129.4669  128.9719   70.1119 H   0  0  0  0  0  0  0  0  0  0  0  0
  127.6622  129.1161   70.3563 H   0  0  0  0  0  0  0  0  0  0  0  0
  128.9216  128.6645   72.4804 H   0  0  0  0  0  0  0  0  0  0  0  0
  127.6975  127.4105   72.0702 H   0  0  0  0  0  0  0  0  0  0  0  0
  130.1756  125.0447   70.9708 H   0  0  0  0  0  0  0  0  0  0  0  0
  128.4148  125.3408   71.2036 H   0  0  0  0  0  0  0  0  0  0  0  0
  130.2580  126.6956   69.1622 H   0  0  0  0  0  0  0  0  0  0  0  0
  128.9228  125.4918   68.8430 H   0  0  0  0  0  0  0  0  0  0  0  0
  126.0752  126.5439   68.1483 H   0  0  0  0  0  0  0  0  0  0  0  0
  125.2732  127.1394   65.8809 H   0  0  0  0  0  0  0  0  0  0  0  0
  127.3660  133.1441   60.4231 H   0  0  0  0  0  0  0  0  0  0  0  0
  129.2494  133.8753   58.9742 H   0  0  0  0  0  0  0  0  0  0  0  0
  1  2  1  0
  2  3  1  0
  3  4  1  0
  4  5  2  0
  4  6  1  0
  6  7  2  0
  7  8  1  0
  8  9  2  0
  9 10  1  0
 10 11  1  0
 11 12  2  0
 11 13  1  0
 13 14  1  0
 14 15  1  0
 15 16  2  0
 16 17  1  0
 17 18  1  0
 18 19  2  0
 19 20  1  0
 20 21  2  0
 21 22  1  0
 22 23  1  0
 23 24  1  0
 24 25  1  0
 25 26  1  0
 26 27  1  0
 21 28  1  0
 28 29  2  0
 17 30  2  0
 30 31  1  0
 31 32  1  0
 32 33  2  0
 33 34  1  0
 34 35  2  0
 35 36  1  0
 36 37  1  0
 37 38  1  0
 38 39  1  0
 39 40  1  0
 40 41  1  0
 35 42  1  0
 42 43  2  0
 31 44  2  0
 44 45  1  0
 45 46  3  0
  9 47  1  0
 47 48  2  0
 48  6  1  0
 44 15  1  0
 29 18  1  0
 43 32  1  0
 27 22  1  0
 41 36  1  0
  1 49  1  0
  1 50  1  0
  1 51  1  0
  2 52  1  0
  2 53  1  0
  7 54  1  0
  8 55  1  0
 10 56  1  0
 13 57  1  0
 13 58  1  0
 19 59  1  0
 20 60  1  0
 23 61  1  0
 23 62  1  0
 24 63  1  0
 24 64  1  0
 26 65  1  0
 26 66  1  0
 27 67  1  0
 27 68  1  0
 28 69  1  0
 29 70  1  0
 30 71  1  0
 33 72  1  0
 34 73  1  0
 37 74  1  0
 37 75  1  0
 38 76  1  0
 38 77  1  0
 40 78  1  0
 40 79  1  0
 41 80  1  0
 41 81  1  0
 42 82  1  0
 43 83  1  0
 47 84  1  0
 48 85  1  0
M  END
>  <Binding energies>  (1) 
[-9.81]

>  <Ligand effiencies>  (1) 
[-0.20020408163265307]

>  <Interactions>  (1) 
["V-B:GLU:543:CD:9876, V-A:PRO:540:N:4879, V-A:TYR:539:CE2:4871, V-A:PRO:540:CA:4878, V-A:TYR:539:CE1:4870, V-A:TYR:539:CZ:4872, V-A:PRO:540:CB:4880, V-A:LEU:363:CD1:3184, V-A:TYR:539:C:4862, V-A:PRO:540:CD:4882, V-A:TYR:539:CD2:4869, H-B:GLY:454:N:9017, V-B:ILE:369:CD1:8206, H-A:TYR:539:N:4865, V-B:ASP:366:CG:8180, V-B:TYR:539:CZ:9845, V-A:TYR:539:CD1:4868, V-A:TYR:539:CG:4867, V-B:ARG:545:CZ:9894, H-A:TYR:539:OH:4873, V-B:ASP:366:CA:8177, V-B:HIS:456:CE1:9037, V-B:ARG:545:CG:9890, H-B:TYR:484:OH:9315, V-A:HIS:456:CE1:4064, V-B:GLU:543:CB:9874, H-B:LYS:547:NZ:9919, V-B:HIS:456:CD2:9035, V-B:GLU:543:C:9870, V-A:TYR:531:CE1:4787, H-B:TYR:539:OH:9846, H-A:LYS:534:NZ:4818"]

$$$$
2b_Ghoteimi_2023
     RDKit          3D

 72 77  0  0  0  0  0  0  0  0999 V2000
  123.4690  129.6340   66.2230 N   0  0  0  0  0  0  0  0  0  0  0  0
  124.2130  129.8530   65.3650 C   0  0  0  0  0  0  0  0  0  0  0  0
  125.1620  130.1280   64.2820 C   0  0  0  0  0  0  0  0  0  0  0  0
  126.5510  129.9230   64.4720 C   0  0  0  0  0  0  0  0  0  0  0  0
  127.1510  129.4260   65.7460 C   0  0  0  0  0  0  0  0  0  0  0  0
  128.1210  130.1800   66.4080 C   0  0  0  0  0  0  0  0  0  0  0  0
  128.6840  129.7210   67.5960 C   0  0  0  0  0  0  0  0  0  0  0  0
  128.3040  128.4860   68.1440 C   0  0  0  0  0  0  0  0  0  0  0  0
  128.8450  128.0100   69.3400 N   0  0  0  0  0  0  0  0  0  0  0  0
  129.5920  128.9390   70.2110 C   0  0  0  0  0  0  0  0  0  0  0  0
  130.4430  128.2230   71.2810 C   0  0  0  0  0  0  0  0  0  0  0  0
  129.6300  127.3470   72.0470 O   0  0  0  0  0  0  0  0  0  0  0  0
  129.0190  126.3560   71.2360 C   0  0  0  0  0  0  0  0  0  0  0  0
  128.1240  127.0260   70.1720 C   0  0  0  0  0  0  0  0  0  0  0  0
  127.3320  127.7350   67.4700 C   0  0  0  0  0  0  0  0  0  0  0  0
  126.7660  128.1950   66.2840 C   0  0  0  0  0  0  0  0  0  0  0  0
  127.4180  130.1950   63.4060 C   0  0  0  0  0  0  0  0  0  0  0  0
  126.9130  130.6270   62.1760 C   0  0  0  0  0  0  0  0  0  0  0  0
  127.7920  130.9020   60.9980 C   0  0  0  0  0  0  0  0  0  0  0  0
  127.3820  130.5560   59.7050 C   0  0  0  0  0  0  0  0  0  0  0  0
  128.1880  130.8240   58.6020 C   0  0  0  0  0  0  0  0  0  0  0  0
  129.4430  131.4370   58.7510 C   0  0  0  0  0  0  0  0  0  0  0  0
  130.2510  131.7390   57.6500 N   0  0  0  0  0  0  0  0  0  0  0  0
  129.9880  132.9580   56.8570 C   0  0  0  0  0  0  0  0  0  0  0  0
  130.6820  132.9600   55.4780 C   0  0  0  0  0  0  0  0  0  0  0  0
  132.0760  132.7460   55.6360 O   0  0  0  0  0  0  0  0  0  0  0  0
  132.3440  131.4960   56.2510 C   0  0  0  0  0  0  0  0  0  0  0  0
  131.6980  131.4480   57.6520 C   0  0  0  0  0  0  0  0  0  0  0  0
  129.8460  131.7880   60.0480 C   0  0  0  0  0  0  0  0  0  0  0  0
  129.0380  131.5220   61.1500 C   0  0  0  0  0  0  0  0  0  0  0  0
  125.5810  130.8210   61.9950 N   0  0  0  0  0  0  0  0  0  0  0  0
  124.7270  130.5960   63.0220 C   0  0  0  0  0  0  0  0  0  0  0  0
  123.0230  130.9050   62.6110 S   0  0  0  0  0  0  0  0  0  0  0  0
  122.9250  131.1310   60.8090 C   0  0  0  0  0  0  0  0  0  0  0  0
  123.7860  132.3000   60.3290 C   0  0  0  0  0  0  0  0  0  0  0  0
  123.7960  132.5910   59.1310 O   0  0  0  0  0  0  0  0  0  0  0  0
  124.4930  132.9350   61.2890 N   0  0  0  0  0  0  0  0  0  0  0  0
  125.3380  134.0250   61.1310 C   0  0  0  0  0  0  0  0  0  0  0  0
  126.6910  133.9920   61.4630 C   0  0  0  0  0  0  0  0  0  0  0  0
  127.1640  135.2480   61.1620 C   0  0  0  0  0  0  0  0  0  0  0  0
  126.1490  135.9980   60.6740 O   0  0  0  0  0  0  0  0  0  0  0  0
  124.9950  135.2110   60.6570 N   0  0  0  0  0  0  0  0  0  0  0  0
  128.4433  131.1443   65.9881 H   0  0  0  0  0  0  0  0  0  0  0  0
  129.4369  130.3348   68.1121 H   0  0  0  0  0  0  0  0  0  0  0  0
  130.2602  129.5458   69.5823 H   0  0  0  0  0  0  0  0  0  0  0  0
  128.8508  129.5538   70.7426 H   0  0  0  0  0  0  0  0  0  0  0  0
  131.2364  127.6434   70.7865 H   0  0  0  0  0  0  0  0  0  0  0  0
  130.8887  128.9753   71.9484 H   0  0  0  0  0  0  0  0  0  0  0  0
  129.7985  125.7627   70.7357 H   0  0  0  0  0  0  0  0  0  0  0  0
  128.4014  125.7011   71.8682 H   0  0  0  0  0  0  0  0  0  0  0  0
  127.7175  126.2435   69.5144 H   0  0  0  0  0  0  0  0  0  0  0  0
  127.3315  127.5695   70.7073 H   0  0  0  0  0  0  0  0  0  0  0  0
  127.0113  126.7676   67.8840 H   0  0  0  0  0  0  0  0  0  0  0  0
  126.0105  127.5852   65.7669 H   0  0  0  0  0  0  0  0  0  0  0  0
  128.5027  130.0679   63.5374 H   0  0  0  0  0  0  0  0  0  0  0  0
  126.4086  130.0651   59.5584 H   0  0  0  0  0  0  0  0  0  0  0  0
  127.8359  130.5510   57.5963 H   0  0  0  0  0  0  0  0  0  0  0  0
  128.9026  133.0434   56.7002 H   0  0  0  0  0  0  0  0  0  0  0  0
  130.3967  133.8067   57.4250 H   0  0  0  0  0  0  0  0  0  0  0  0
  130.2585  132.1578   54.8559 H   0  0  0  0  0  0  0  0  0  0  0  0
  130.5188  133.9337   54.9930 H   0  0  0  0  0  0  0  0  0  0  0  0
  131.9288  130.6882   55.6305 H   0  0  0  0  0  0  0  0  0  0  0  0
  133.4320  131.3682   56.3504 H   0  0  0  0  0  0  0  0  0  0  0  0
  131.8490  130.4415   58.0694 H   0  0  0  0  0  0  0  0  0  0  0  0
  132.1817  132.2303   58.2553 H   0  0  0  0  0  0  0  0  0  0  0  0
  130.8175  132.2821   60.1969 H   0  0  0  0  0  0  0  0  0  0  0  0
  129.3839  131.8033   62.1556 H   0  0  0  0  0  0  0  0  0  0  0  0
  123.2706  130.2101   60.3166 H   0  0  0  0  0  0  0  0  0  0  0  0
  121.8787  131.3523   60.5514 H   0  0  0  0  0  0  0  0  0  0  0  0
  124.3850  132.6060   62.2370 H   0  0  0  0  0  0  0  0  0  0  0  0
  127.2580  133.1448   61.8763 H   0  0  0  0  0  0  0  0  0  0  0  0
  128.2014  135.5883   61.2965 H   0  0  0  0  0  0  0  0  0  0  0  0
  1  2  3  0
  2  3  1  0
  3  4  2  0
  4  5  1  0
  5  6  2  0
  6  7  1  0
  7  8  2  0
  8  9  1  0
  9 10  1  0
 10 11  1  0
 11 12  1  0
 12 13  1  0
 13 14  1  0
  8 15  1  0
 15 16  2  0
  4 17  1  0
 17 18  2  0
 18 19  1  0
 19 20  2  0
 20 21  1  0
 21 22  2  0
 22 23  1  0
 23 24  1  0
 24 25  1  0
 25 26  1  0
 26 27  1  0
 27 28  1  0
 22 29  1  0
 29 30  2  0
 18 31  1  0
 31 32  2  0
 32 33  1  0
 33 34  1  0
 34 35  1  0
 35 36  2  0
 35 37  1  0
 37 38  1  0
 38 39  1  0
 39 40  2  0
 40 41  1  0
 41 42  1  0
 32  3  1  0
 42 38  2  0
 16  5  1  0
 30 19  1  0
 14  9  1  0
 28 23  1  0
  6 43  1  0
  7 44  1  0
 10 45  1  0
 10 46  1  0
 11 47  1  0
 11 48  1  0
 13 49  1  0
 13 50  1  0
 14 51  1  0
 14 52  1  0
 15 53  1  0
 16 54  1  0
 17 55  1  0
 20 56  1  0
 21 57  1  0
 24 58  1  0
 24 59  1  0
 25 60  1  0
 25 61  1  0
 27 62  1  0
 27 63  1  0
 28 64  1  0
 28 65  1  0
 29 66  1  0
 30 67  1  0
 34 68  1  0
 34 69  1  0
 37 70  1  0
 39 71  1  0
 40 72  1  0
M  END
>  <Binding energies>  (1) 
[-10.13]

>  <Ligand effiencies>  (1) 
[-0.23558139534883724]

>  <Interactions>  (1) 
["V-A:GLU:543:CG:4902, V-A:PRO:540:N:4879, V-A:TYR:539:CE2:4871, V-A:TYR:531:CE2:4788, V-A:PRO:540:CA:4878, V-A:TYR:539:CE1:4870, V-A:PRO:540:CB:4880, V-A:LEU:363:CD1:3184, V-A:TYR:539:C:4862, V-A:PRO:540:CD:4882, V-A:TYR:539:CD2:4869, H-B:GLY:454:N:9017, V-B:ILE:369:CD1:8206, V-B:LEU:475:CD2:9226, V-B:TRP:381:CH2:8339, V-B:ASP:366:CG:8180, V-A:TYR:539:CD1:4868, V-A:TYR:539:CG:4867, V-A:TYR:539:CA:4864, V-B:ARG:545:CZ:9894, H-A:TYR:539:OH:4873, V-A:ILE:538:CA:4855, V-B:ASP:366:CA:8177, V-B:ILE:369:CG2:8204, V-B:ILE:369:CB:8203, V-A:GLU:543:CB:4901, V-B:TYR:484:CE1:9312, V-B:HIS:456:CE1:9037, V-B:TYR:484:CZ:9314, V-B:ARG:545:CD:9891, V-A:HIS:456:CE1:4064, V-B:GLU:543:CB:9874, H-B:LYS:547:NZ:9919, V-B:GLU:543:C:9870, V-A:GLU:543:C:4897, V-B:ILE:369:CG1:8205, H-B:ARG:545:NE:9892"]

$$$$
2b_Grossjean_2025
     RDKit          3D

 42 43  0  0  0  0  0  0  0  0999 V2000
  130.0610  125.2790   72.2590 C   0  0  0  0  0  0  0  0  0  0  0  0
  129.3790  126.2800   73.0020 O   0  0  0  0  0  0  0  0  0  0  0  0
  129.3990  127.5780   72.6080 C   0  0  0  0  0  0  0  0  0  0  0  0
  129.6390  128.5180   73.3720 O   0  0  0  0  0  0  0  0  0  0  0  0
  129.0950  127.7600   71.1490 C   0  0  0  0  0  0  0  0  0  0  0  0
  129.9640  128.4480   70.2890 C   0  0  0  0  0  0  0  0  0  0  0  0
  129.6510  128.6000   68.9410 C   0  0  0  0  0  0  0  0  0  0  0  0
  128.4720  128.0650   68.4240 C   0  0  0  0  0  0  0  0  0  0  0  0
  128.2520  128.2810   67.0500 N   0  0  0  0  0  0  0  0  0  0  0  0
  127.1110  128.1860   66.3350 C   0  0  0  0  0  0  0  0  0  0  0  0
  126.0140  127.8500   66.7830 O   0  0  0  0  0  0  0  0  0  0  0  0
  127.2460  128.5160   64.8440 C   0  0  0  0  0  0  0  0  0  0  0  0
  128.2880  129.9770   64.5250 S   0  0  0  0  0  0  0  0  0  0  0  0
  127.3600  131.1990   63.6060 C   0  0  0  0  0  0  0  0  0  0  0  0
  126.0100  131.1250   63.7250 N   0  0  0  0  0  0  0  0  0  0  0  0
  125.2450  132.0140   63.0540 C   0  0  0  0  0  0  0  0  0  0  0  0
  123.7470  131.8570   63.2290 C   0  0  0  0  0  0  0  0  0  0  0  0
  125.7860  133.0130   62.2480 C   0  0  0  0  0  0  0  0  0  0  0  0
  127.1790  133.1130   62.1160 C   0  0  0  0  0  0  0  0  0  0  0  0
  127.7620  134.2260   61.2250 C   0  0  0  0  0  0  0  0  0  0  0  0
  128.5660  135.0110   61.9440 F   0  0  0  0  0  0  0  0  0  0  0  0
  128.4620  133.6920   60.2230 F   0  0  0  0  0  0  0  0  0  0  0  0
  126.8200  135.0030   60.6860 F   0  0  0  0  0  0  0  0  0  0  0  0
  127.9940  132.1820   62.8100 C   0  0  0  0  0  0  0  0  0  0  0  0
  129.4550  132.2350   62.7040 C   0  0  0  0  0  0  0  0  0  0  0  0
  130.6090  132.2780   62.6200 N   0  0  0  0  0  0  0  0  0  0  0  0
  127.5940  127.3820   69.2780 C   0  0  0  0  0  0  0  0  0  0  0  0
  127.9070  127.2320   70.6260 C   0  0  0  0  0  0  0  0  0  0  0  0
  130.5423  124.5726   72.9513 H   0  0  0  0  0  0  0  0  0  0  0  0
  129.3421  124.7391   71.6253 H   0  0  0  0  0  0  0  0  0  0  0  0
  130.8266  125.7505   71.6253 H   0  0  0  0  0  0  0  0  0  0  0  0
  130.9001  128.8707   70.6829 H   0  0  0  0  0  0  0  0  0  0  0  0
  130.3390  129.1462   68.2790 H   0  0  0  0  0  0  0  0  0  0  0  0
  129.0880  128.4930   66.5260 H   0  0  0  0  0  0  0  0  0  0  0  0
  127.6919  127.6500   64.3330 H   0  0  0  0  0  0  0  0  0  0  0  0
  126.2382  128.7438   64.4665 H   0  0  0  0  0  0  0  0  0  0  0  0
  123.5038  131.8315   64.3015 H   0  0  0  0  0  0  0  0  0  0  0  0
  123.2316  132.7061   62.7562 H   0  0  0  0  0  0  0  0  0  0  0  0
  123.4189  130.9195   62.7562 H   0  0  0  0  0  0  0  0  0  0  0  0
  125.1267  133.7173   61.7196 H   0  0  0  0  0  0  0  0  0  0  0  0
  126.6566  126.9642   68.8820 H   0  0  0  0  0  0  0  0  0  0  0  0
  127.2138  126.6928   71.2883 H   0  0  0  0  0  0  0  0  0  0  0  0
  1  2  1  0
  2  3  1  0
  3  4  2  0
  3  5  1  0
  5  6  2  0
  6  7  1  0
  7  8  2  0
  8  9  1  0
  9 10  1  0
 10 11  2  0
 10 12  1  0
 12 13  1  0
 13 14  1  0
 14 15  2  0
 15 16  1  0
 16 17  1  0
 16 18  2  0
 18 19  1  0
 19 20  1  0
 20 21  1  0
 20 22  1  0
 20 23  1  0
 19 24  2  0
 24 25  1  0
 25 26  3  0
  8 27  1  0
 27 28  2  0
 28  5  1  0
 24 14  1  0
  1 29  1  0
  1 30  1  0
  1 31  1  0
  6 32  1  0
  7 33  1  0
  9 34  1  0
 12 35  1  0
 12 36  1  0
 17 37  1  0
 17 38  1  0
 17 39  1  0
 18 40  1  0
 27 41  1  0
 28 42  1  0
M  END
>  <Binding energies>  (1) 
[-6.82]

>  <Ligand effiencies>  (1) 
[-0.23517241379310347]

>  <Interactions>  (1) 
["V-A:GLU:543:CG:4902, V-A:PRO:540:N:4879, V-A:TYR:539:CE2:4871, V-A:PRO:540:CA:4878, V-A:PRO:540:C:4876, V-A:ALA:541:CA:4885, H-A:ALA:541:N:4886, V-A:TYR:539:C:4862, V-B:GLY:454:CA:9016, V-A:TYR:539:CD2:4869, V-B:ILE:369:CD1:8206, V-B:LEU:475:CD2:9226, V-B:TRP:381:CH2:8339, V-A:ALA:541:CB:4887, V-A:GLU:543:CB:4901, V-B:HIS:456:CE1:9037, H-B:TYR:484:OH:9315, V-A:HIS:456:CE1:4064, H-B:LYS:547:NZ:9919, H-A:LYS:547:NZ:4946, H-A:GLU:543:OE1:4904, H-B:ARG:545:NE:9892"]

$$$$
2c_Ghoteimi_2023
     RDKit          3D

 72 77  0  0  0  0  0  0  0  0999 V2000
  130.4980  122.8720   64.4740 N   0  0  0  0  0  0  0  0  0  0  0  0
  130.5140  123.7620   63.7360 C   0  0  0  0  0  0  0  0  0  0  0  0
  130.5340  124.8940   62.8040 C   0  0  0  0  0  0  0  0  0  0  0  0
  130.3550  126.2190   63.2750 C   0  0  0  0  0  0  0  0  0  0  0  0
  130.1340  126.5690   64.7100 C   0  0  0  0  0  0  0  0  0  0  0  0
  129.0710  127.3970   65.0760 C   0  0  0  0  0  0  0  0  0  0  0  0
  128.8560  127.7240   66.4120 C   0  0  0  0  0  0  0  0  0  0  0  0
  129.7070  127.2440   67.4190 C   0  0  0  0  0  0  0  0  0  0  0  0
  129.4980  127.5430   68.7680 N   0  0  0  0  0  0  0  0  0  0  0  0
  129.0770  126.4690   69.6890 C   0  0  0  0  0  0  0  0  0  0  0  0
  128.5150  126.9980   71.0260 C   0  0  0  0  0  0  0  0  0  0  0  0
  129.4610  127.8550   71.6460 O   0  0  0  0  0  0  0  0  0  0  0  0
  129.7700  128.9730   70.8290 C   0  0  0  0  0  0  0  0  0  0  0  0
  130.3640  128.4970   69.4870 C   0  0  0  0  0  0  0  0  0  0  0  0
  130.7740  126.4160   67.0420 C   0  0  0  0  0  0  0  0  0  0  0  0
  130.9870  126.0880   65.7060 C   0  0  0  0  0  0  0  0  0  0  0  0
  130.3860  127.2660   62.3460 C   0  0  0  0  0  0  0  0  0  0  0  0
  130.6150  127.0050   60.9910 C   0  0  0  0  0  0  0  0  0  0  0  0
  130.6750  128.0890   59.9630 C   0  0  0  0  0  0  0  0  0  0  0  0
  131.4540  129.2310   60.1740 C   0  0  0  0  0  0  0  0  0  0  0  0
  131.5180  130.2420   59.2170 C   0  0  0  0  0  0  0  0  0  0  0  0
  130.7940  130.1530   58.0180 C   0  0  0  0  0  0  0  0  0  0  0  0
  130.8660  131.1470   57.0370 N   0  0  0  0  0  0  0  0  0  0  0  0
  129.7560  132.1080   56.8800 C   0  0  0  0  0  0  0  0  0  0  0  0
  129.7890  132.8800   55.5440 C   0  0  0  0  0  0  0  0  0  0  0  0
  131.0410  133.5270   55.3880 O   0  0  0  0  0  0  0  0  0  0  0  0
  132.1100  132.5940   55.3740 C   0  0  0  0  0  0  0  0  0  0  0  0
  132.1450  131.8080   56.7020 C   0  0  0  0  0  0  0  0  0  0  0  0
  130.0240  129.0000   57.8060 C   0  0  0  0  0  0  0  0  0  0  0  0
  129.9620  127.9890   58.7620 C   0  0  0  0  0  0  0  0  0  0  0  0
  130.7890  125.7360   60.5430 N   0  0  0  0  0  0  0  0  0  0  0  0
  130.7320  124.7030   61.4180 C   0  0  0  0  0  0  0  0  0  0  0  0
  130.9690  123.1130   60.6580 S   0  0  0  0  0  0  0  0  0  0  0  0
  129.5860  122.0510   61.1730 C   0  0  0  0  0  0  0  0  0  0  0  0
  128.2510  122.5290   60.6000 C   0  0  0  0  0  0  0  0  0  0  0  0
  127.3510  122.8700   61.3690 O   0  0  0  0  0  0  0  0  0  0  0  0
  128.1630  122.5340   59.2520 N   0  0  0  0  0  0  0  0  0  0  0  0
  127.0740  122.9360   58.4930 C   0  0  0  0  0  0  0  0  0  0  0  0
  126.6860  122.4690   57.3270 N   0  0  0  0  0  0  0  0  0  0  0  0
  125.6010  123.0820   56.8960 C   0  0  0  0  0  0  0  0  0  0  0  0
  125.0860  124.0750   57.7230 C   0  0  0  0  0  0  0  0  0  0  0  0
  126.0840  124.2050   59.1400 S   0  0  0  0  0  0  0  0  0  0  0  0
  128.3977  127.7943   64.3021 H   0  0  0  0  0  0  0  0  0  0  0  0
  128.0063  128.3683   66.6822 H   0  0  0  0  0  0  0  0  0  0  0  0
  128.2975  125.8706   69.1948 H   0  0  0  0  0  0  0  0  0  0  0  0
  129.9705  125.8719   69.9241 H   0  0  0  0  0  0  0  0  0  0  0  0
  127.5872  127.5573   70.8351 H   0  0  0  0  0  0  0  0  0  0  0  0
  128.3081  126.1474   71.6920 H   0  0  0  0  0  0  0  0  0  0  0  0
  128.8527  129.5490   70.6376 H   0  0  0  0  0  0  0  0  0  0  0  0
  130.5065  129.6058   71.3459 H   0  0  0  0  0  0  0  0  0  0  0  0
  130.5230  129.3758   68.8448 H   0  0  0  0  0  0  0  0  0  0  0  0
  131.3040  127.9734   69.7156 H   0  0  0  0  0  0  0  0  0  0  0  0
  131.4520  126.0202   67.8125 H   0  0  0  0  0  0  0  0  0  0  0  0
  131.8354  125.4437   65.4320 H   0  0  0  0  0  0  0  0  0  0  0  0
  130.2292  128.3010   62.6840 H   0  0  0  0  0  0  0  0  0  0  0  0
  132.0245  129.3328   61.1089 H   0  0  0  0  0  0  0  0  0  0  0  0
  132.1467  131.1249   59.4046 H   0  0  0  0  0  0  0  0  0  0  0  0
  128.8069  131.5550   56.9384 H   0  0  0  0  0  0  0  0  0  0  0  0
  129.8581  132.8517   57.6840 H   0  0  0  0  0  0  0  0  0  0  0  0
  129.6368  132.1759   54.7127 H   0  0  0  0  0  0  0  0  0  0  0  0
  128.9898  133.6358   55.5441 H   0  0  0  0  0  0  0  0  0  0  0  0
  131.9692  131.8918   54.5391 H   0  0  0  0  0  0  0  0  0  0  0  0
  133.0594  133.1358   55.2510 H   0  0  0  0  0  0  0  0  0  0  0  0
  132.9254  131.0363   56.6280 H   0  0  0  0  0  0  0  0  0  0  0  0
  132.3483  132.5366   57.5007 H   0  0  0  0  0  0  0  0  0  0  0  0
  129.4592  128.8923   56.8683 H   0  0  0  0  0  0  0  0  0  0  0  0
  129.3441  127.0993   58.5708 H   0  0  0  0  0  0  0  0  0  0  0  0
  129.7760  121.0258   60.8224 H   0  0  0  0  0  0  0  0  0  0  0  0
  129.5180  122.0907   62.2702 H   0  0  0  0  0  0  0  0  0  0  0  0
  128.9770  122.2390   58.7300 H   0  0  0  0  0  0  0  0  0  0  0  0
  125.1296  122.8228   55.9365 H   0  0  0  0  0  0  0  0  0  0  0  0
  124.1916  124.6802   57.5139 H   0  0  0  0  0  0  0  0  0  0  0  0
  1  2  3  0
  2  3  1  0
  3  4  2  0
  4  5  1  0
  5  6  2  0
  6  7  1  0
  7  8  2  0
  8  9  1  0
  9 10  1  0
 10 11  1  0
 11 12  1  0
 12 13  1  0
 13 14  1  0
  8 15  1  0
 15 16  2  0
  4 17  1  0
 17 18  2  0
 18 19  1  0
 19 20  2  0
 20 21  1  0
 21 22  2  0
 22 23  1  0
 23 24  1  0
 24 25  1  0
 25 26  1  0
 26 27  1  0
 27 28  1  0
 22 29  1  0
 29 30  2  0
 18 31  1  0
 31 32  2  0
 32 33  1  0
 33 34  1  0
 34 35  1  0
 35 36  2  0
 35 37  1  0
 37 38  1  0
 38 39  2  0
 39 40  1  0
 40 41  2  0
 41 42  1  0
 32  3  1  0
 42 38  1  0
 16  5  1  0
 30 19  1  0
 14  9  1  0
 28 23  1  0
  6 43  1  0
  7 44  1  0
 10 45  1  0
 10 46  1  0
 11 47  1  0
 11 48  1  0
 13 49  1  0
 13 50  1  0
 14 51  1  0
 14 52  1  0
 15 53  1  0
 16 54  1  0
 17 55  1  0
 20 56  1  0
 21 57  1  0
 24 58  1  0
 24 59  1  0
 25 60  1  0
 25 61  1  0
 27 62  1  0
 27 63  1  0
 28 64  1  0
 28 65  1  0
 29 66  1  0
 30 67  1  0
 34 68  1  0
 34 69  1  0
 37 70  1  0
 40 71  1  0
 41 72  1  0
M  END
>  <Binding energies>  (1) 
[-10.49]

>  <Ligand effiencies>  (1) 
[-0.24395348837209302]

>  <Interactions>  (1) 
["V-B:TYR:539:C:9835, V-B:PRO:540:C:9849, V-B:PRO:540:N:9852, V-B:ALA:541:CB:9860, H-B:TYR:539:O:9836, V-B:PRO:540:CA:9851, V-B:MET:535:CE:9803, V-B:PRO:540:CB:9853, H-B:ALA:541:N:9859, V-B:GLU:543:CD:9876, V-A:TYR:539:CE1:4870, V-A:PRO:540:CB:4880, V-A:LEU:363:CD1:3184, V-A:PRO:540:CD:4882, V-A:GLU:543:CD:4903, H-A:TYR:484:OH:4343, H-A:TYR:539:N:4865, V-A:TYR:539:CD1:4868, V-A:ILE:538:CG2:4858, V-A:ILE:538:CA:4855, V-A:GLU:543:CB:4901, V-A:HIS:456:CE1:4064, V-B:GLU:543:C:9870, V-A:GLU:543:C:4897, V-A:ILE:538:CD1:4860"]

$$$$
2c_Grossjean_2025
     RDKit          3D

 40 41  0  0  0  0  0  0  0  0999 V2000
  131.2910  132.5670   54.8480 C   0  0  0  0  0  0  0  0  0  0  0  0
  130.4660  133.3780   55.6790 O   0  0  0  0  0  0  0  0  0  0  0  0
  130.1550  132.9400   56.9520 C   0  0  0  0  0  0  0  0  0  0  0  0
  131.0400  132.0310   57.5310 C   0  0  0  0  0  0  0  0  0  0  0  0
  130.8110  131.5320   58.8110 C   0  0  0  0  0  0  0  0  0  0  0  0
  129.6740  131.9350   59.5260 C   0  0  0  0  0  0  0  0  0  0  0  0
  129.3680  131.5000   60.8280 N   0  0  0  0  0  0  0  0  0  0  0  0
  130.0680  131.6930   61.9670 C   0  0  0  0  0  0  0  0  0  0  0  0
  131.1600  132.2610   62.0310 O   0  0  0  0  0  0  0  0  0  0  0  0
  129.4210  131.1060   63.2310 C   0  0  0  0  0  0  0  0  0  0  0  0
  128.0760  132.1040   63.9610 S   0  0  0  0  0  0  0  0  0  0  0  0
  127.1170  132.8570   62.6530 C   0  0  0  0  0  0  0  0  0  0  0  0
  127.4200  134.1510   62.3720 N   0  0  0  0  0  0  0  0  0  0  0  0
  126.7300  134.7870   61.4010 C   0  0  0  0  0  0  0  0  0  0  0  0
  127.1150  136.2330   61.1590 C   0  0  0  0  0  0  0  0  0  0  0  0
  125.7210  134.1670   60.6660 C   0  0  0  0  0  0  0  0  0  0  0  0
  125.3970  132.8290   60.9340 C   0  0  0  0  0  0  0  0  0  0  0  0
  124.2800  132.1560   60.1110 C   0  0  0  0  0  0  0  0  0  0  0  0
  123.7670  133.0270   59.2410 F   0  0  0  0  0  0  0  0  0  0  0  0
  124.7700  131.1130   59.4420 F   0  0  0  0  0  0  0  0  0  0  0  0
  123.2770  131.7110   60.8720 F   0  0  0  0  0  0  0  0  0  0  0  0
  126.1100  132.1500   61.9540 C   0  0  0  0  0  0  0  0  0  0  0  0
  125.8110  130.7510   62.2780 C   0  0  0  0  0  0  0  0  0  0  0  0
  125.5750  129.6470   62.5330 N   0  0  0  0  0  0  0  0  0  0  0  0
  128.7940  132.8570   58.9570 C   0  0  0  0  0  0  0  0  0  0  0  0
  129.0270  133.3540   57.6780 C   0  0  0  0  0  0  0  0  0  0  0  0
  131.9348  131.9341   55.4764 H   0  0  0  0  0  0  0  0  0  0  0  0
  130.6580  131.9298   54.2129 H   0  0  0  0  0  0  0  0  0  0  0  0
  131.9173  133.2108   54.2129 H   0  0  0  0  0  0  0  0  0  0  0  0
  131.9286  131.7046   56.9707 H   0  0  0  0  0  0  0  0  0  0  0  0
  131.5213  130.8225   59.2606 H   0  0  0  0  0  0  0  0  0  0  0  0
  128.5470  130.9170   60.8970 H   0  0  0  0  0  0  0  0  0  0  0  0
  129.0095  130.1187   62.9740 H   0  0  0  0  0  0  0  0  0  0  0  0
  130.2169  131.0704   63.9894 H   0  0  0  0  0  0  0  0  0  0  0  0
  127.2507  136.7428   62.1243 H   0  0  0  0  0  0  0  0  0  0  0  0
  128.0547  136.2717   60.5886 H   0  0  0  0  0  0  0  0  0  0  0  0
  126.3189  136.7339   60.5886 H   0  0  0  0  0  0  0  0  0  0  0  0
  125.1837  134.7220   59.8829 H   0  0  0  0  0  0  0  0  0  0  0  0
  127.9120  133.1925   59.5222 H   0  0  0  0  0  0  0  0  0  0  0  0
  128.3242  134.0744   57.2340 H   0  0  0  0  0  0  0  0  0  0  0  0
  1  2  1  0
  2  3  1  0
  3  4  2  0
  4  5  1  0
  5  6  2  0
  6  7  1  0
  7  8  1  0
  8  9  2  0
  8 10  1  0
 10 11  1  0
 11 12  1  0
 12 13  2  0
 13 14  1  0
 14 15  1  0
 14 16  2  0
 16 17  1  0
 17 18  1  0
 18 19  1  0
 18 20  1  0
 18 21  1  0
 17 22  2  0
 22 23  1  0
 23 24  3  0
  6 25  1  0
 25 26  2  0
 26  3  1  0
 22 12  1  0
  1 27  1  0
  1 28  1  0
  1 29  1  0
  4 30  1  0
  5 31  1  0
  7 32  1  0
 10 33  1  0
 10 34  1  0
 15 35  1  0
 15 36  1  0
 15 37  1  0
 16 38  1  0
 25 39  1  0
 26 40  1  0
M  END
>  <Binding energies>  (1) 
[-6.38]

>  <Ligand effiencies>  (1) 
[-0.23629629629629628]

>  <Interactions>  (1) 
["V-A:GLU:543:CG:4902, V-A:PRO:540:N:4879, V-A:TYR:539:CE2:4871, V-A:PRO:540:CA:4878, V-A:TYR:539:CE1:4870, H-A:ALA:541:N:4886, V-A:TYR:539:CZ:4872, V-A:PRO:540:CB:4880, V-A:TYR:539:C:4862, V-A:PRO:540:CD:4882, V-A:GLU:543:CD:4903, V-A:TYR:539:CD2:4869, V-B:ILE:369:CD1:8206, V-B:LEU:475:CD2:9226, V-B:TRP:381:CH2:8339, H-A:TYR:539:N:4865, V-A:TYR:539:CD1:4868, V-A:TYR:539:CG:4867, V-A:ILE:538:CG2:4858, V-A:TYR:539:CA:4864, V-A:ILE:538:CA:4855, V-B:ILE:369:CG2:8204, V-B:ILE:369:CB:8203, H-B:TYR:484:OH:9315, V-B:ILE:369:CG1:8205, V-B:TRP:381:CZ2:8337, V-B:TRP:381:CZ3:8338, V-A:ILE:538:CD1:4860, V-A:TYR:539:CB:4866"]

$$$$
2d_Ghoteimi_2023
     RDKit          3D

 68 72  0  0  0  0  0  0  0  0999 V2000
  123.8140  130.7080   58.2650 C   0  0  0  0  0  0  0  0  0  0  0  0
  123.5410  131.9970   58.7930 O   0  0  0  0  0  0  0  0  0  0  0  0
  123.3770  132.1730   60.1200 C   0  0  0  0  0  0  0  0  0  0  0  0
  123.7890  133.1380   60.7710 O   0  0  0  0  0  0  0  0  0  0  0  0
  122.5920  131.0100   60.7450 C   0  0  0  0  0  0  0  0  0  0  0  0
  122.8060  130.9670   62.5580 S   0  0  0  0  0  0  0  0  0  0  0  0
  124.5280  130.6750   62.9110 C   0  0  0  0  0  0  0  0  0  0  0  0
  125.3460  130.9820   61.8760 N   0  0  0  0  0  0  0  0  0  0  0  0
  126.6850  130.8030   62.0030 C   0  0  0  0  0  0  0  0  0  0  0  0
  127.5220  131.1470   60.8130 C   0  0  0  0  0  0  0  0  0  0  0  0
  128.1970  132.3710   60.7470 C   0  0  0  0  0  0  0  0  0  0  0  0
  128.9790  132.6980   59.6420 C   0  0  0  0  0  0  0  0  0  0  0  0
  129.1220  131.8070   58.5670 C   0  0  0  0  0  0  0  0  0  0  0  0
  129.8890  132.1280   57.4410 N   0  0  0  0  0  0  0  0  0  0  0  0
  129.3920  133.0590   56.4080 C   0  0  0  0  0  0  0  0  0  0  0  0
  130.1900  133.0000   55.0890 C   0  0  0  0  0  0  0  0  0  0  0  0
  131.5680  133.2200   55.3460 O   0  0  0  0  0  0  0  0  0  0  0  0
  132.0990  132.2360   56.2180 C   0  0  0  0  0  0  0  0  0  0  0  0
  131.3540  132.2660   57.5690 C   0  0  0  0  0  0  0  0  0  0  0  0
  128.4330  130.5880   58.6320 C   0  0  0  0  0  0  0  0  0  0  0  0
  127.6500  130.2620   59.7350 C   0  0  0  0  0  0  0  0  0  0  0  0
  127.2370  130.3090   63.1880 C   0  0  0  0  0  0  0  0  0  0  0  0
  126.4170  130.0150   64.2840 C   0  0  0  0  0  0  0  0  0  0  0  0
  127.0790  129.5180   65.5270 C   0  0  0  0  0  0  0  0  0  0  0  0
  128.0230  130.3090   66.1840 C   0  0  0  0  0  0  0  0  0  0  0  0
  128.6370  129.8600   67.3500 C   0  0  0  0  0  0  0  0  0  0  0  0
  128.3240  128.6020   67.8920 C   0  0  0  0  0  0  0  0  0  0  0  0
  128.9180  128.1370   69.0680 N   0  0  0  0  0  0  0  0  0  0  0  0
  128.3510  127.0000   69.8190 C   0  0  0  0  0  0  0  0  0  0  0  0
  129.3200  126.4080   70.8640 C   0  0  0  0  0  0  0  0  0  0  0  0
  129.7650  127.4270   71.7460 O   0  0  0  0  0  0  0  0  0  0  0  0
  130.4440  128.4620   71.0520 C   0  0  0  0  0  0  0  0  0  0  0  0
  129.5010  129.1090   70.0140 C   0  0  0  0  0  0  0  0  0  0  0  0
  127.3620  127.8230   67.2350 C   0  0  0  0  0  0  0  0  0  0  0  0
  126.7480  128.2730   66.0700 C   0  0  0  0  0  0  0  0  0  0  0  0
  125.0190  130.2060   64.1520 C   0  0  0  0  0  0  0  0  0  0  0  0
  124.1210  129.9310   65.2770 C   0  0  0  0  0  0  0  0  0  0  0  0
  123.4150  129.7130   66.1690 N   0  0  0  0  0  0  0  0  0  0  0  0
  123.9645  129.9976   59.0913 H   0  0  0  0  0  0  0  0  0  0  0  0
  122.9659  130.3776   57.6473 H   0  0  0  0  0  0  0  0  0  0  0  0
  124.7232  130.7498   57.6473 H   0  0  0  0  0  0  0  0  0  0  0  0
  121.5238  131.1324   60.5127 H   0  0  0  0  0  0  0  0  0  0  0  0
  122.9746  130.0673   60.3268 H   0  0  0  0  0  0  0  0  0  0  0  0
  128.1087  133.0847   61.5794 H   0  0  0  0  0  0  0  0  0  0  0  0
  129.4928  133.6701   59.6112 H   0  0  0  0  0  0  0  0  0  0  0  0
  128.3427  132.8101   56.1912 H   0  0  0  0  0  0  0  0  0  0  0  0
  129.5059  134.0769   56.8090 H   0  0  0  0  0  0  0  0  0  0  0  0
  130.0589  132.0100   54.6277 H   0  0  0  0  0  0  0  0  0  0  0  0
  129.8203  133.7806   54.4078 H   0  0  0  0  0  0  0  0  0  0  0  0
  131.9817  131.2428   55.7600 H   0  0  0  0  0  0  0  0  0  0  0  0
  133.1650  132.4456   56.3903 H   0  0  0  0  0  0  0  0  0  0  0  0
  131.7280  131.4390   58.1905 H   0  0  0  0  0  0  0  0  0  0  0  0
  131.5465  133.2502   58.0211 H   0  0  0  0  0  0  0  0  0  0  0  0
  128.5127  129.8769   57.7966 H   0  0  0  0  0  0  0  0  0  0  0  0
  127.1244  129.2961   59.7607 H   0  0  0  0  0  0  0  0  0  0  0  0
  128.3231  130.1501   63.2601 H   0  0  0  0  0  0  0  0  0  0  0  0
  128.2843  131.2967   65.7765 H   0  0  0  0  0  0  0  0  0  0  0  0
  129.3773  130.4988   67.8539 H   0  0  0  0  0  0  0  0  0  0  0  0
  127.4450  127.3437   70.3396 H   0  0  0  0  0  0  0  0  0  0  0  0
  128.1367  126.2050   69.0895 H   0  0  0  0  0  0  0  0  0  0  0  0
  128.8015  125.6280   71.4408 H   0  0  0  0  0  0  0  0  0  0  0  0
  130.1882  125.9743   70.3462 H   0  0  0  0  0  0  0  0  0  0  0  0
  130.7742  129.2266   71.7706 H   0  0  0  0  0  0  0  0  0  0  0  0
  131.3155  128.0370   70.5325 H   0  0  0  0  0  0  0  0  0  0  0  0
  128.6810  129.6084   70.5509 H   0  0  0  0  0  0  0  0  0  0  0  0
  130.1024  129.8166   69.4244 H   0  0  0  0  0  0  0  0  0  0  0  0
  127.0879  126.8404   67.6466 H   0  0  0  0  0  0  0  0  0  0  0  0
  125.9957  127.6436   65.5721 H   0  0  0  0  0  0  0  0  0  0  0  0
  1  2  1  0
  2  3  1  0
  3  4  2  0
  3  5  1  0
  5  6  1  0
  6  7  1  0
  7  8  2  0
  8  9  1  0
  9 10  1  0
 10 11  2  0
 11 12  1  0
 12 13  2  0
 13 14  1  0
 14 15  1  0
 15 16  1  0
 16 17  1  0
 17 18  1  0
 18 19  1  0
 13 20  1  0
 20 21  2  0
  9 22  2  0
 22 23  1  0
 23 24  1  0
 24 25  2  0
 25 26  1  0
 26 27  2  0
 27 28  1  0
 28 29  1  0
 29 30  1  0
 30 31  1  0
 31 32  1  0
 32 33  1  0
 27 34  1  0
 34 35  2  0
 23 36  2  0
 36 37  1  0
 37 38  3  0
 36  7  1  0
 21 10  1  0
 35 24  1  0
 19 14  1  0
 33 28  1  0
  1 39  1  0
  1 40  1  0
  1 41  1  0
  5 42  1  0
  5 43  1  0
 11 44  1  0
 12 45  1  0
 15 46  1  0
 15 47  1  0
 16 48  1  0
 16 49  1  0
 18 50  1  0
 18 51  1  0
 19 52  1  0
 19 53  1  0
 20 54  1  0
 21 55  1  0
 22 56  1  0
 25 57  1  0
 26 58  1  0
 29 59  1  0
 29 60  1  0
 30 61  1  0
 30 62  1  0
 32 63  1  0
 32 64  1  0
 33 65  1  0
 33 66  1  0
 34 67  1  0
 35 68  1  0
M  END
>  <Binding energies>  (1) 
[-9.1]

>  <Ligand effiencies>  (1) 
[-0.2394736842105263]

>  <Interactions>  (1) 
["V-B:GLU:543:CD:9876, V-A:GLU:543:CG:4902, V-A:PRO:540:N:4879, V-A:PRO:540:CG:4881, V-A:PRO:540:CA:4878, V-A:TYR:539:CE1:4870, V-A:TYR:539:CZ:4872, V-A:PRO:540:CB:4880, V-A:LEU:363:CD1:3184, V-A:TYR:539:C:4862, V-A:PRO:540:CD:4882, H-B:GLY:454:N:9017, V-B:ILE:369:CD1:8206, H-A:TYR:539:N:4865, V-B:ASP:366:CG:8180, V-B:ASP:366:CB:8179, V-A:TYR:539:CD1:4868, V-A:TYR:539:CG:4867, V-A:TYR:539:CA:4864, V-B:ARG:545:CZ:9894, H-A:TYR:539:OH:4873, V-A:ILE:538:CA:4855, V-B:ASP:366:C:8175, V-B:ASP:366:CA:8177, V-B:ILE:369:CG2:8204, V-A:ILE:538:C:4853, V-B:ILE:369:CB:8203, V-A:GLU:543:CB:4901, V-B:TYR:484:CE1:9312, V-B:HIS:456:CE1:9037, V-B:TYR:484:CZ:9314, V-B:ARG:545:CD:9891, V-A:HIS:456:CE1:4064, V-B:GLU:543:CB:9874, V-B:HIS:456:CD2:9035, V-A:GLU:543:C:4897, V-A:GLY:544:C:4907, V-B:ILE:369:CG1:8205, H-B:ARG:545:NE:9892"]

$$$$
2d_Grossjean_2025
     RDKit          3D

 36 37  0  0  0  0  0  0  0  0999 V2000
  124.6570  123.6240   62.1140 C   0  0  0  0  0  0  0  0  0  0  0  0
  125.4470  123.5060   60.8240 C   0  0  0  0  0  0  0  0  0  0  0  0
  124.8560  123.7350   59.5840 C   0  0  0  0  0  0  0  0  0  0  0  0
  125.6290  123.6180   58.4200 C   0  0  0  0  0  0  0  0  0  0  0  0
  124.9610  123.8850   57.0570 C   0  0  0  0  0  0  0  0  0  0  0  0
  123.7520  124.4170   57.2380 F   0  0  0  0  0  0  0  0  0  0  0  0
  125.7030  124.7310   56.3410 F   0  0  0  0  0  0  0  0  0  0  0  0
  124.8060  122.7760   56.3310 F   0  0  0  0  0  0  0  0  0  0  0  0
  126.9960  123.2610   58.5460 C   0  0  0  0  0  0  0  0  0  0  0  0
  127.8580  123.1720   57.3650 C   0  0  0  0  0  0  0  0  0  0  0  0
  128.5380  123.1030   56.4310 N   0  0  0  0  0  0  0  0  0  0  0  0
  127.5040  123.0240   59.8460 C   0  0  0  0  0  0  0  0  0  0  0  0
  129.1850  122.5370   60.1840 S   0  0  0  0  0  0  0  0  0  0  0  0
  129.2500  121.7580   61.8310 C   0  0  0  0  0  0  0  0  0  0  0  0
  130.3300  122.3590   62.7360 C   0  0  0  0  0  0  0  0  0  0  0  0
  131.4090  121.7760   62.8470 O   0  0  0  0  0  0  0  0  0  0  0  0
  129.9880  123.4960   63.3780 N   0  0  0  0  0  0  0  0  0  0  0  0
  130.7510  124.2800   64.2630 C   0  0  0  0  0  0  0  0  0  0  0  0
  130.1160  124.6610   65.4470 C   0  0  0  0  0  0  0  0  0  0  0  0
  130.7860  125.4440   66.3830 C   0  0  0  0  0  0  0  0  0  0  0  0
  132.0940  125.8540   66.1290 C   0  0  0  0  0  0  0  0  0  0  0  0
  132.7320  125.4920   64.9460 C   0  0  0  0  0  0  0  0  0  0  0  0
  132.0650  124.7090   64.0090 C   0  0  0  0  0  0  0  0  0  0  0  0
  126.7470  123.1620   60.9620 N   0  0  0  0  0  0  0  0  0  0  0  0
  125.3382  123.5223   62.9717 H   0  0  0  0  0  0  0  0  0  0  0  0
  124.1627  124.6059   62.1528 H   0  0  0  0  0  0  0  0  0  0  0  0
  123.8974  122.8294   62.1528 H   0  0  0  0  0  0  0  0  0  0  0  0
  123.7918  124.0054   59.5182 H   0  0  0  0  0  0  0  0  0  0  0  0
  128.2725  121.8873   62.3186 H   0  0  0  0  0  0  0  0  0  0  0  0
  129.4983  120.6967   61.6831 H   0  0  0  0  0  0  0  0  0  0  0  0
  129.0350  123.8080   63.2580 H   0  0  0  0  0  0  0  0  0  0  0  0
  129.0816  124.3409   65.6409 H   0  0  0  0  0  0  0  0  0  0  0  0
  130.2861  125.7376   67.3178 H   0  0  0  0  0  0  0  0  0  0  0  0
  132.6264  126.4688   66.8697 H   0  0  0  0  0  0  0  0  0  0  0  0
  133.7624  125.8246   64.7521 H   0  0  0  0  0  0  0  0  0  0  0  0
  132.5653  124.4262   63.0710 H   0  0  0  0  0  0  0  0  0  0  0  0
  1  2  1  0
  2  3  2  0
  3  4  1  0
  4  5  1  0
  5  6  1  0
  5  7  1  0
  5  8  1  0
  4  9  2  0
  9 10  1  0
 10 11  3  0
  9 12  1  0
 12 13  1  0
 13 14  1  0
 14 15  1  0
 15 16  2  0
 15 17  1  0
 17 18  1  0
 18 19  2  0
 19 20  1  0
 20 21  2  0
 21 22  1  0
 22 23  2  0
 12 24  2  0
 24  2  1  0
 23 18  1  0
  1 25  1  0
  1 26  1  0
  1 27  1  0
  3 28  1  0
 14 29  1  0
 14 30  1  0
 17 31  1  0
 19 32  1  0
 20 33  1  0
 21 34  1  0
 22 35  1  0
 23 36  1  0
M  END
>  <Binding energies>  (1) 
[-6.8]

>  <Ligand effiencies>  (1) 
[-0.272]

>  <Interactions>  (1) 
["V-B:TYR:539:C:9835, V-B:PRO:540:C:9849, V-B:PRO:540:N:9852, V-B:ALA:541:CB:9860, V-B:PRO:540:CA:9851, V-B:MET:535:CE:9803, V-B:PRO:540:CB:9853, H-B:ALA:541:N:9859, H-B:GLU:543:OE2:9878, V-B:GLU:543:CD:9876, V-B:ALA:541:CA:9858, V-B:GLU:543:CG:9875, V-B:LEU:363:CB:8154, V-B:PRO:540:CD:9855, V-B:LEU:363:CD1:8156, V-B:TYR:531:CZ:9762, V-B:TYR:531:CE2:9761, V-B:ASP:366:CB:8179, V-B:LEU:363:CA:8152, V-A:HIS:456:CE1:4064, V-B:LEU:363:CG:8155, V-B:ASN:362:CB:8143, V-A:ARG:545:CZ:4921, V-B:ILE:538:CG2:9831"]

$$$$
2e_Grossjean_2025
     RDKit          3D

 38 39  0  0  0  0  0  0  0  0999 V2000
  135.4410  125.0960   66.6850 C   0  0  0  0  0  0  0  0  0  0  0  0
  134.2380  125.2370   65.7730 C   0  0  0  0  0  0  0  0  0  0  0  0
  133.0310  125.7710   66.2310 C   0  0  0  0  0  0  0  0  0  0  0  0
  131.9690  125.8810   65.3310 C   0  0  0  0  0  0  0  0  0  0  0  0
  132.1370  125.4580   64.0100 C   0  0  0  0  0  0  0  0  0  0  0  0
  133.3700  124.9230   63.6200 C   0  0  0  0  0  0  0  0  0  0  0  0
  133.4990  124.5540   62.2700 N   0  0  0  0  0  0  0  0  0  0  0  0
  133.2050  123.3640   61.7000 C   0  0  0  0  0  0  0  0  0  0  0  0
  132.6940  122.4070   62.2840 O   0  0  0  0  0  0  0  0  0  0  0  0
  133.5930  123.2180   60.2250 C   0  0  0  0  0  0  0  0  0  0  0  0
  132.1890  123.5480   59.1130 S   0  0  0  0  0  0  0  0  0  0  0  0
  130.8260  122.6180   59.7790 C   0  0  0  0  0  0  0  0  0  0  0  0
  129.7200  123.3540   60.0510 N   0  0  0  0  0  0  0  0  0  0  0  0
  128.6530  122.7330   60.6020 C   0  0  0  0  0  0  0  0  0  0  0  0
  127.4490  123.6130   60.8800 C   0  0  0  0  0  0  0  0  0  0  0  0
  128.6470  121.3720   60.9060 C   0  0  0  0  0  0  0  0  0  0  0  0
  129.7870  120.6000   60.6390 C   0  0  0  0  0  0  0  0  0  0  0  0
  129.7730  119.1030   61.0010 C   0  0  0  0  0  0  0  0  0  0  0  0
  130.2980  118.3870   60.0060 F   0  0  0  0  0  0  0  0  0  0  0  0
  130.4870  118.8950   62.1070 F   0  0  0  0  0  0  0  0  0  0  0  0
  128.5410  118.6380   61.2230 F   0  0  0  0  0  0  0  0  0  0  0  0
  130.9120  121.2350   60.0570 C   0  0  0  0  0  0  0  0  0  0  0  0
  132.1440  120.4890   59.7810 C   0  0  0  0  0  0  0  0  0  0  0  0
  133.1170  119.9000   59.5640 N   0  0  0  0  0  0  0  0  0  0  0  0
  134.4160  124.8200   64.4930 N   0  0  0  0  0  0  0  0  0  0  0  0
  135.1123  125.1345   67.7340 H   0  0  0  0  0  0  0  0  0  0  0  0
  135.9372  124.1336   66.4913 H   0  0  0  0  0  0  0  0  0  0  0  0
  136.1463  125.9176   66.4913 H   0  0  0  0  0  0  0  0  0  0  0  0
  132.9199  126.0970   67.2757 H   0  0  0  0  0  0  0  0  0  0  0  0
  131.0059  126.2982   65.6601 H   0  0  0  0  0  0  0  0  0  0  0  0
  131.3123  125.5442   63.2872 H   0  0  0  0  0  0  0  0  0  0  0  0
  133.8150  125.2890   61.6560 H   0  0  0  0  0  0  0  0  0  0  0  0
  134.4003  123.9299   59.9982 H   0  0  0  0  0  0  0  0  0  0  0  0
  133.9191  122.1803   60.0610 H   0  0  0  0  0  0  0  0  0  0  0  0
  127.3114  123.7136   61.9667 H   0  0  0  0  0  0  0  0  0  0  0  0
  127.6112  124.6069   60.4374 H   0  0  0  0  0  0  0  0  0  0  0  0
  126.5513  123.1567   60.4374 H   0  0  0  0  0  0  0  0  0  0  0  0
  127.7550  120.9076   61.3518 H   0  0  0  0  0  0  0  0  0  0  0  0
  1  2  1  0
  2  3  2  0
  3  4  1  0
  4  5  2  0
  5  6  1  0
  6  7  1  0
  7  8  1  0
  8  9  2  0
  8 10  1  0
 10 11  1  0
 11 12  1  0
 12 13  2  0
 13 14  1  0
 14 15  1  0
 14 16  2  0
 16 17  1  0
 17 18  1  0
 18 19  1  0
 18 20  1  0
 18 21  1  0
 17 22  2  0
 22 23  1  0
 23 24  3  0
  6 25  2  0
 25  2  1  0
 22 12  1  0
  1 26  1  0
  1 27  1  0
  1 28  1  0
  3 29  1  0
  4 30  1  0
  5 31  1  0
  7 32  1  0
 10 33  1  0
 10 34  1  0
 15 35  1  0
 15 36  1  0
 15 37  1  0
 16 38  1  0
M  END
>  <Binding energies>  (1) 
[-7.1]

>  <Ligand effiencies>  (1) 
[-0.27307692307692305]

>  <Interactions>  (1) 
["V-B:TYR:539:C:9835, V-B:TYR:539:CD2:9842, V-A:LEU:475:CD2:4254, V-A:TRP:381:CZ2:3365, V-A:LEU:475:CD1:4253, V-B:PRO:540:C:9849, V-B:TYR:539:CE2:9844, V-B:ALA:541:CB:9860, V-A:TRP:381:CH2:3367, V-B:PRO:540:CA:9851, V-A:PRO:482:CB:4321, V-B:GLU:543:CD:9876, V-B:ALA:541:CA:9858, V-A:ASP:366:CG:3208, H-A:TYR:484:OH:4343, V-A:TRP:381:CZ3:3366, V-A:HIS:456:CE1:4064, V-A:ILE:369:CD1:3234, V-A:ILE:369:CG2:3232, V-A:PRO:482:CG:4322, V-A:TRP:381:CE2:3362, V-A:ARG:545:CZ:4921, V-A:GLY:453:CA:4039, H-A:GLY:454:N:4045, V-A:LEU:475:CG:4252, V-A:ARG:545:CD:4918, V-A:ARG:545:CG:4917, H-A:ARG:545:NH1:4922, V-A:ARG:545:CB:4916, V-A:GLY:453:C:4037, V-A:ILE:455:C:4047, V-A:HIS:456:CD2:4063, H-A:ASP:366:OD1:3209, H-A:ASP:366:OD2:3210, V-B:TYR:539:CB:9839, V-A:TRP:381:CD2:3360, V-A:TRP:381:CE3:3363"]

$$$$
2f_Grossjean_2025
     RDKit          3D

 35 36  0  0  0  0  0  0  0  0999 V2000
  124.5040  123.8230   62.0700 C   0  0  0  0  0  0  0  0  0  0  0  0
  125.3320  123.6530   60.8110 C   0  0  0  0  0  0  0  0  0  0  0  0
  124.8120  123.9400   59.5510 C   0  0  0  0  0  0  0  0  0  0  0  0
  125.6160  123.7580   58.4150 C   0  0  0  0  0  0  0  0  0  0  0  0
  125.0180  124.0700   57.0290 C   0  0  0  0  0  0  0  0  0  0  0  0
  124.7930  122.9360   56.3620 F   0  0  0  0  0  0  0  0  0  0  0  0
  123.8660  124.7260   57.1680 F   0  0  0  0  0  0  0  0  0  0  0  0
  125.8230  124.8230   56.2760 F   0  0  0  0  0  0  0  0  0  0  0  0
  126.9440  123.2920   58.5910 C   0  0  0  0  0  0  0  0  0  0  0  0
  127.8030  123.0330   57.4330 C   0  0  0  0  0  0  0  0  0  0  0  0
  128.4820  122.8290   56.5180 N   0  0  0  0  0  0  0  0  0  0  0  0
  127.3960  123.0520   59.9110 C   0  0  0  0  0  0  0  0  0  0  0  0
  129.0320  122.4770   60.3180 S   0  0  0  0  0  0  0  0  0  0  0  0
  129.1060  122.2110   62.1230 C   0  0  0  0  0  0  0  0  0  0  0  0
  130.4420  122.5830   62.7810 C   0  0  0  0  0  0  0  0  0  0  0  0
  131.4210  121.8420   62.6780 O   0  0  0  0  0  0  0  0  0  0  0  0
  130.4230  123.7450   63.4690 N   0  0  0  0  0  0  0  0  0  0  0  0
  131.4600  124.3830   64.1760 C   0  0  0  0  0  0  0  0  0  0  0  0
  131.2910  125.2240   65.2920 C   0  0  0  0  0  0  0  0  0  0  0  0
  132.4090  125.7910   65.9060 C   0  0  0  0  0  0  0  0  0  0  0  0
  133.6720  125.5010   65.3910 C   0  0  0  0  0  0  0  0  0  0  0  0
  133.8640  124.6880   64.3210 N   0  0  0  0  0  0  0  0  0  0  0  0
  132.7670  124.1430   63.7360 C   0  0  0  0  0  0  0  0  0  0  0  0
  126.5970  123.2110   60.9950 N   0  0  0  0  0  0  0  0  0  0  0  0
  125.1472  123.6909   62.9525 H   0  0  0  0  0  0  0  0  0  0  0  0
  124.0627  124.8305   62.0854 H   0  0  0  0  0  0  0  0  0  0  0  0
  123.7014  123.0709   62.0854 H   0  0  0  0  0  0  0  0  0  0  0  0
  123.7800  124.3062   59.4472 H   0  0  0  0  0  0  0  0  0  0  0  0
  128.3157  122.8173   62.5896 H   0  0  0  0  0  0  0  0  0  0  0  0
  128.9778  121.1297   62.2791 H   0  0  0  0  0  0  0  0  0  0  0  0
  129.5340  124.2210   63.5180 H   0  0  0  0  0  0  0  0  0  0  0  0
  130.2826  125.4334   65.6785 H   0  0  0  0  0  0  0  0  0  0  0  0
  132.2961  126.4525   66.7776 H   0  0  0  0  0  0  0  0  0  0  0  0
  134.5521  125.9512   65.8734 H   0  0  0  0  0  0  0  0  0  0  0  0
  132.9126  123.4785   62.8716 H   0  0  0  0  0  0  0  0  0  0  0  0
  1  2  1  0
  2  3  2  0
  3  4  1  0
  4  5  1  0
  5  6  1  0
  5  7  1  0
  5  8  1  0
  4  9  2  0
  9 10  1  0
 10 11  3  0
  9 12  1  0
 12 13  1  0
 13 14  1  0
 14 15  1  0
 15 16  2  0
 15 17  1  0
 17 18  1  0
 18 19  2  0
 19 20  1  0
 20 21  2  0
 21 22  1  0
 22 23  2  0
 12 24  2  0
 24  2  1  0
 23 18  1  0
  1 25  1  0
  1 26  1  0
  1 27  1  0
  3 28  1  0
 14 29  1  0
 14 30  1  0
 17 31  1  0
 19 32  1  0
 20 33  1  0
 21 34  1  0
 23 35  1  0
M  END
>  <Binding energies>  (1) 
[-7.22]

>  <Ligand effiencies>  (1) 
[-0.2888]

>  <Interactions>  (1) 
["V-B:TYR:539:C:9835, V-B:PRO:540:C:9849, V-B:PRO:540:N:9852, V-B:ALA:541:CB:9860, V-B:PRO:540:CA:9851, V-B:MET:535:CE:9803, V-B:PRO:540:CB:9853, H-B:ALA:541:N:9859, H-B:GLU:543:OE2:9878, V-B:GLU:543:CD:9876, V-B:ALA:541:CA:9858, H-A:TYR:484:OH:4343, V-B:PRO:540:CD:9855, V-B:LEU:363:CD1:8156, V-B:TYR:531:CZ:9762, V-B:TYR:531:CE2:9761, V-B:ASP:366:CB:8179, V-B:LEU:363:CA:8152, V-B:ARG:545:CZ:9894, V-B:ASN:362:CB:8143, V-A:ARG:545:CZ:4921, H-A:GLY:454:N:4045, V-A:ARG:545:CD:4918, V-B:ASN:362:CG:8144"]

$$$$
2g_Grossjean_2025
     RDKit          3D

 39 40  0  0  0  0  0  0  0  0999 V2000
  127.4760  123.6160   60.8720 C   0  0  0  0  0  0  0  0  0  0  0  0
  128.6750  122.7300   60.5910 C   0  0  0  0  0  0  0  0  0  0  0  0
  128.6760  121.3770   60.9210 C   0  0  0  0  0  0  0  0  0  0  0  0
  129.8130  120.6010   60.6470 C   0  0  0  0  0  0  0  0  0  0  0  0
  129.7990  119.1080   61.0270 C   0  0  0  0  0  0  0  0  0  0  0  0
  130.4900  118.9110   62.1510 F   0  0  0  0  0  0  0  0  0  0  0  0
  128.5420  118.7020   61.2160 F   0  0  0  0  0  0  0  0  0  0  0  0
  130.3380  118.3300   60.0860 F   0  0  0  0  0  0  0  0  0  0  0  0
  130.9280  121.2250   60.0310 C   0  0  0  0  0  0  0  0  0  0  0  0
  132.1600  120.4740   59.7750 C   0  0  0  0  0  0  0  0  0  0  0  0
  133.1320  119.8800   59.5740 N   0  0  0  0  0  0  0  0  0  0  0  0
  130.8240  122.5990   59.7040 C   0  0  0  0  0  0  0  0  0  0  0  0
  132.1160  123.5300   58.9070 S   0  0  0  0  0  0  0  0  0  0  0  0
  131.3180  124.6970   57.7530 C   0  0  0  0  0  0  0  0  0  0  0  0
  130.3540  124.0500   56.7500 C   0  0  0  0  0  0  0  0  0  0  0  0
  130.4750  124.2270   55.5360 O   0  0  0  0  0  0  0  0  0  0  0  0
  129.3800  123.2930   57.2890 N   0  0  0  0  0  0  0  0  0  0  0  0
  128.3520  122.5710   56.5390 C   0  0  0  0  0  0  0  0  0  0  0  0
  126.9220  122.9770   56.8800 C   0  0  0  0  0  0  0  0  0  0  0  0
  125.8580  122.1450   56.5220 C   0  0  0  0  0  0  0  0  0  0  0  0
  124.5540  122.4960   56.8670 C   0  0  0  0  0  0  0  0  0  0  0  0
  124.3210  123.6720   57.5750 C   0  0  0  0  0  0  0  0  0  0  0  0
  125.3790  124.4990   57.9470 C   0  0  0  0  0  0  0  0  0  0  0  0
  126.6820  124.1490   57.6030 C   0  0  0  0  0  0  0  0  0  0  0  0
  129.7260  123.3390   59.9970 N   0  0  0  0  0  0  0  0  0  0  0  0
  127.3407  123.7160   61.9591 H   0  0  0  0  0  0  0  0  0  0  0  0
  127.6427  124.6095   60.4303 H   0  0  0  0  0  0  0  0  0  0  0  0
  126.5752  123.1649   60.4303 H   0  0  0  0  0  0  0  0  0  0  0  0
  127.7932  120.9204   61.3924 H   0  0  0  0  0  0  0  0  0  0  0  0
  130.7534  125.4321   58.3453 H   0  0  0  0  0  0  0  0  0  0  0  0
  132.1267  125.1481   57.1593 H   0  0  0  0  0  0  0  0  0  0  0  0
  129.3620  123.1770   58.2920 H   0  0  0  0  0  0  0  0  0  0  0  0
  128.5155  122.7547   55.4668 H   0  0  0  0  0  0  0  0  0  0  0  0
  128.4509  121.5100   56.8121 H   0  0  0  0  0  0  0  0  0  0  0  0
  126.0493  121.2139   55.9684 H   0  0  0  0  0  0  0  0  0  0  0  0
  123.7130  121.8471   56.5813 H   0  0  0  0  0  0  0  0  0  0  0  0
  123.2914  123.9511   57.8434 H   0  0  0  0  0  0  0  0  0  0  0  0
  125.1857  125.4241   58.5098 H   0  0  0  0  0  0  0  0  0  0  0  0
  127.5219  124.7943   57.9000 H   0  0  0  0  0  0  0  0  0  0  0  0
  1  2  1  0
  2  3  2  0
  3  4  1  0
  4  5  1  0
  5  6  1  0
  5  7  1  0
  5  8  1  0
  4  9  2  0
  9 10  1  0
 10 11  3  0
  9 12  1  0
 12 13  1  0
 13 14  1  0
 14 15  1  0
 15 16  2  0
 15 17  1  0
 17 18  1  0
 18 19  1  0
 19 20  2  0
 20 21  1  0
 21 22  2  0
 22 23  1  0
 23 24  2  0
 12 25  2  0
 25  2  1  0
 24 19  1  0
  1 26  1  0
  1 27  1  0
  1 28  1  0
  3 29  1  0
 14 30  1  0
 14 31  1  0
 17 32  1  0
 18 33  1  0
 18 34  1  0
 20 35  1  0
 21 36  1  0
 22 37  1  0
 23 38  1  0
 24 39  1  0
M  END
>  <Binding energies>  (1) 
[-6.41]

>  <Ligand effiencies>  (1) 
[-0.24653846153846154]

>  <Interactions>  (1) 
["V-B:TYR:539:C:9835, V-B:TYR:539:CD2:9842, V-A:LEU:475:CD2:4254, V-A:TRP:381:CZ2:3365, V-A:LEU:475:CD1:4253, V-B:PRO:540:C:9849, V-B:TYR:539:CE2:9844, V-B:PRO:540:N:9852, V-B:ALA:541:CB:9860, V-A:TRP:381:CH2:3367, H-B:TYR:539:O:9836, V-B:PRO:540:CA:9851, V-B:MET:535:CE:9803, V-B:PRO:540:CB:9853, V-A:PRO:482:CB:4321, V-B:GLU:543:CD:9876, V-B:ALA:541:CA:9858, V-B:TYR:539:CA:9837, V-A:TRP:381:CZ3:3366, V-B:PRO:540:CD:9855, V-B:LEU:363:CD1:8156, V-B:TYR:539:CZ:9845, V-B:TYR:539:CE1:9843, V-A:ILE:369:CG2:3232, V-A:PRO:482:CG:4322, V-B:PRO:540:CG:9854, V-A:TRP:381:CE2:3362, H-B:TYR:539:OH:9846, V-A:LEU:475:CG:4252, H-A:LYS:534:NZ:4818, V-B:TYR:539:CD1:9841, V-B:TYR:539:CG:9840, V-B:TYR:539:CB:9839, V-A:TRP:381:CD2:3360, V-A:TRP:381:CE3:3363"]

$$$$
2h_Grossjean_2025
     RDKit          3D

 51 52  0  0  0  0  0  0  0  0999 V2000
  134.0350  125.1240   65.6950 C   0  0  0  0  0  0  0  0  0  0  0  0
  133.9450  124.6150   64.3690 O   0  0  0  0  0  0  0  0  0  0  0  0
  132.9170  125.0420   63.5470 C   0  0  0  0  0  0  0  0  0  0  0  0
  132.0330  126.0820   63.8730 C   0  0  0  0  0  0  0  0  0  0  0  0
  131.0260  126.4620   62.9890 C   0  0  0  0  0  0  0  0  0  0  0  0
  130.8790  125.8130   61.7620 C   0  0  0  0  0  0  0  0  0  0  0  0
  129.7790  126.2610   60.8000 C   0  0  0  0  0  0  0  0  0  0  0  0
  128.4260  126.0410   61.3120 N   0  0  0  0  0  0  0  0  0  0  0  0
  127.2980  126.4600   60.7120 C   0  0  0  0  0  0  0  0  0  0  0  0
  127.2920  127.1540   59.6940 O   0  0  0  0  0  0  0  0  0  0  0  0
  125.9890  126.0090   61.3750 C   0  0  0  0  0  0  0  0  0  0  0  0
  125.5290  124.2710   61.0690 S   0  0  0  0  0  0  0  0  0  0  0  0
  126.8790  123.5310   60.1750 C   0  0  0  0  0  0  0  0  0  0  0  0
  127.7680  122.8830   60.9670 N   0  0  0  0  0  0  0  0  0  0  0  0
  128.8430  122.3010   60.3930 C   0  0  0  0  0  0  0  0  0  0  0  0
  129.7990  121.6010   61.3400 C   0  0  0  0  0  0  0  0  0  0  0  0
  129.0720  122.3340   59.0180 C   0  0  0  0  0  0  0  0  0  0  0  0
  128.1520  122.9820   58.1800 C   0  0  0  0  0  0  0  0  0  0  0  0
  128.4180  123.0000   56.6620 C   0  0  0  0  0  0  0  0  0  0  0  0
  129.7250  122.8820   56.4280 F   0  0  0  0  0  0  0  0  0  0  0  0
  127.8040  122.0050   56.0190 F   0  0  0  0  0  0  0  0  0  0  0  0
  127.9860  124.1470   56.1350 F   0  0  0  0  0  0  0  0  0  0  0  0
  127.0150  123.5920   58.7680 C   0  0  0  0  0  0  0  0  0  0  0  0
  125.9950  124.2300   57.9310 C   0  0  0  0  0  0  0  0  0  0  0  0
  125.1890  124.7310   57.2680 N   0  0  0  0  0  0  0  0  0  0  0  0
  131.7400  124.7560   61.4330 C   0  0  0  0  0  0  0  0  0  0  0  0
  131.6000  124.1100   60.2270 O   0  0  0  0  0  0  0  0  0  0  0  0
  132.6170  124.4090   59.2800 C   0  0  0  0  0  0  0  0  0  0  0  0
  132.7680  124.3870   62.3170 C   0  0  0  0  0  0  0  0  0  0  0  0
  133.6250  123.3640   61.9890 O   0  0  0  0  0  0  0  0  0  0  0  0
  133.2990  122.1180   62.5890 C   0  0  0  0  0  0  0  0  0  0  0  0
  133.8899  124.3036   66.4133 H   0  0  0  0  0  0  0  0  0  0  0  0
  135.0267  125.5745   65.8483 H   0  0  0  0  0  0  0  0  0  0  0  0
  133.2579  125.8873   65.8483 H   0  0  0  0  0  0  0  0  0  0  0  0
  132.1364  126.6024   64.8366 H   0  0  0  0  0  0  0  0  0  0  0  0
  130.3416  127.2795   63.2598 H   0  0  0  0  0  0  0  0  0  0  0  0
  129.9057  127.3359   60.6035 H   0  0  0  0  0  0  0  0  0  0  0  0
  129.8812  125.6535   59.8887 H   0  0  0  0  0  0  0  0  0  0  0  0
  128.3490  125.4490   62.1270 H   0  0  0  0  0  0  0  0  0  0  0  0
  126.0909  126.1488   62.4613 H   0  0  0  0  0  0  0  0  0  0  0  0
  125.1915  126.6212   60.9287 H   0  0  0  0  0  0  0  0  0  0  0  0
  129.5077  121.8143   62.3791 H   0  0  0  0  0  0  0  0  0  0  0  0
  129.7607  120.5159   61.1639 H   0  0  0  0  0  0  0  0  0  0  0  0
  130.8219  121.9652   61.1639 H   0  0  0  0  0  0  0  0  0  0  0  0
  129.9670  121.8557   58.5935 H   0  0  0  0  0  0  0  0  0  0  0  0
  133.5422  124.6810   59.8091 H   0  0  0  0  0  0  0  0  0  0  0  0
  132.8012  123.5270   58.6490 H   0  0  0  0  0  0  0  0  0  0  0  0
  132.2946  125.2504   58.6490 H   0  0  0  0  0  0  0  0  0  0  0  0
  133.3257  122.2201   63.6839 H   0  0  0  0  0  0  0  0  0  0  0  0
  132.2905  121.8119   62.2738 H   0  0  0  0  0  0  0  0  0  0  0  0
  134.0283  121.3573   62.2738 H   0  0  0  0  0  0  0  0  0  0  0  0
  1  2  1  0
  2  3  1  0
  3  4  2  0
  4  5  1  0
  5  6  2  0
  6  7  1  0
  7  8  1  0
  8  9  1  0
  9 10  2  0
  9 11  1  0
 11 12  1  0
 12 13  1  0
 13 14  2  0
 14 15  1  0
 15 16  1  0
 15 17  2  0
 17 18  1  0
 18 19  1  0
 19 20  1  0
 19 21  1  0
 19 22  1  0
 18 23  2  0
 23 24  1  0
 24 25  3  0
  6 26  1  0
 26 27  1  0
 27 28  1  0
 26 29  2  0
 29 30  1  0
 30 31  1  0
 29  3  1  0
 23 13  1  0
  1 32  1  0
  1 33  1  0
  1 34  1  0
  4 35  1  0
  5 36  1  0
  7 37  1  0
  7 38  1  0
  8 39  1  0
 11 40  1  0
 11 41  1  0
 16 42  1  0
 16 43  1  0
 16 44  1  0
 17 45  1  0
 28 46  1  0
 28 47  1  0
 28 48  1  0
 31 49  1  0
 31 50  1  0
 31 51  1  0
M  END
>  <Binding energies>  (1) 
[-6.01]

>  <Ligand effiencies>  (1) 
[-0.1878125]

>  <Interactions>  (1) 
["V-B:TYR:539:C:9835, V-B:TYR:539:CD2:9842, V-A:LEU:475:CD2:4254, V-B:TYR:539:CE2:9844, V-B:PRO:540:N:9852, V-B:ALA:541:CB:9860, V-B:PRO:540:CA:9851, V-B:MET:535:CE:9803, H-B:ALA:541:N:9859, H-B:GLU:543:OE2:9878, V-B:GLU:543:CD:9876, V-A:ASP:366:CB:3207, V-A:ASP:366:CG:3208, V-A:GLU:543:CD:4903, H-A:TYR:484:OH:4343, V-B:TYR:539:CA:9837, V-B:ASP:366:CG:8180, V-B:TYR:539:CZ:9845, V-B:TYR:539:CE1:9843, V-A:ILE:369:CD1:3234, H-B:ARG:545:NH2:9896, V-A:ARG:545:CZ:4921, H-A:GLY:454:N:4045, V-A:GLY:454:CA:4044, V-A:ARG:545:CD:4918, V-B:TYR:539:CD1:9841, V-B:TYR:539:CG:9840, H-B:TYR:531:OH:9763"]

$$$$
2i_Grossjean_2025
     RDKit          3D

 32 33  0  0  0  0  0  0  0  0999 V2000
  124.4910  123.4680   62.1150 C   0  0  0  0  0  0  0  0  0  0  0  0
  125.4900  123.4740   60.9740 C   0  0  0  0  0  0  0  0  0  0  0  0
  125.0860  123.6260   59.6500 C   0  0  0  0  0  0  0  0  0  0  0  0
  126.0490  123.6270   58.6310 C   0  0  0  0  0  0  0  0  0  0  0  0
  125.5840  123.7960   57.1720 C   0  0  0  0  0  0  0  0  0  0  0  0
  124.2890  124.1160   57.1400 F   0  0  0  0  0  0  0  0  0  0  0  0
  126.2840  124.7620   56.5770 F   0  0  0  0  0  0  0  0  0  0  0  0
  125.7400  122.6850   56.4480 F   0  0  0  0  0  0  0  0  0  0  0  0
  127.4130  123.4700   58.9870 C   0  0  0  0  0  0  0  0  0  0  0  0
  128.4610  123.4650   57.9620 C   0  0  0  0  0  0  0  0  0  0  0  0
  129.2890  123.4610   57.1530 N   0  0  0  0  0  0  0  0  0  0  0  0
  127.7340  123.3190   60.3560 C   0  0  0  0  0  0  0  0  0  0  0  0
  129.4150  123.1080   60.9220 S   0  0  0  0  0  0  0  0  0  0  0  0
  129.3790  122.0970   62.4330 C   0  0  0  0  0  0  0  0  0  0  0  0
  130.1630  122.7400   63.5790 C   0  0  0  0  0  0  0  0  0  0  0  0
  131.0480  122.0890   64.1380 O   0  0  0  0  0  0  0  0  0  0  0  0
  129.7950  123.9960   63.9120 N   0  0  0  0  0  0  0  0  0  0  0  0
  130.3380  124.7780   64.9180 C   0  0  0  0  0  0  0  0  0  0  0  0
  129.7360  125.7470   65.7330 C   0  0  0  0  0  0  0  0  0  0  0  0
  130.7480  126.1940   66.5510 C   0  0  0  0  0  0  0  0  0  0  0  0
  131.8880  125.5260   66.2510 O   0  0  0  0  0  0  0  0  0  0  0  0
  131.6100  124.6290   65.2180 N   0  0  0  0  0  0  0  0  0  0  0  0
  126.7860  123.3230   61.3280 N   0  0  0  0  0  0  0  0  0  0  0  0
  125.0297  123.4712   63.0740 H   0  0  0  0  0  0  0  0  0  0  0  0
  123.8539  124.3623   62.0493 H   0  0  0  0  0  0  0  0  0  0  0  0
  123.8647  122.5661   62.0493 H   0  0  0  0  0  0  0  0  0  0  0  0
  124.0200  123.7443   59.4056 H   0  0  0  0  0  0  0  0  0  0  0  0
  128.3330  121.9684   62.7481 H   0  0  0  0  0  0  0  0  0  0  0  0
  129.8503  121.1300   62.2030 H   0  0  0  0  0  0  0  0  0  0  0  0
  129.0270  124.4100   63.4040 H   0  0  0  0  0  0  0  0  0  0  0  0
  128.6867  126.0769   65.7211 H   0  0  0  0  0  0  0  0  0  0  0  0
  130.6476  126.9695   67.3246 H   0  0  0  0  0  0  0  0  0  0  0  0
  1  2  1  0
  2  3  2  0
  3  4  1  0
  4  5  1  0
  5  6  1  0
  5  7  1  0
  5  8  1  0
  4  9  2  0
  9 10  1  0
 10 11  3  0
  9 12  1  0
 12 13  1  0
 13 14  1  0
 14 15  1  0
 15 16  2  0
 15 17  1  0
 17 18  1  0
 18 19  1  0
 19 20  2  0
 20 21  1  0
 21 22  1  0
 12 23  2  0
 23  2  1  0
 22 18  2  0
  1 24  1  0
  1 25  1  0
  1 26  1  0
  3 27  1  0
 14 28  1  0
 14 29  1  0
 17 30  1  0
 19 31  1  0
 20 32  1  0
M  END
>  <Binding energies>  (1) 
[-6.69]

>  <Ligand effiencies>  (1) 
[-0.27875]

>  <Interactions>  (1) 
["V-B:TYR:539:C:9835, V-B:PRO:540:C:9849, V-B:PRO:540:N:9852, V-B:ALA:541:CB:9860, V-B:PRO:540:CA:9851, V-B:MET:535:CE:9803, V-B:PRO:540:CB:9853, H-B:ALA:541:N:9859, H-B:GLU:543:OE2:9878, V-B:GLU:543:CD:9876, V-B:ALA:541:CA:9858, H-A:TYR:484:OH:4343, V-B:GLU:543:CG:9875, V-B:PRO:540:CD:9855, V-B:LEU:363:CD1:8156, V-B:TYR:531:CE2:9761, V-A:HIS:456:CE1:4064, H-A:HIS:456:NE2:4065, V-B:GLU:543:CB:9874, V-B:ASN:362:CB:8143, V-B:ASN:362:CG:8144"]

$$$$
2j_Grossjean_2025
     RDKit          3D

 32 33  0  0  0  0  0  0  0  0999 V2000
  124.5030  123.5090   62.1680 C   0  0  0  0  0  0  0  0  0  0  0  0
  125.4830  123.4760   61.0100 C   0  0  0  0  0  0  0  0  0  0  0  0
  125.0630  123.6520   59.6940 C   0  0  0  0  0  0  0  0  0  0  0  0
  126.0070  123.6160   58.6570 C   0  0  0  0  0  0  0  0  0  0  0  0
  125.5250  123.8140   57.2070 C   0  0  0  0  0  0  0  0  0  0  0  0
  124.2480  124.1970   57.1990 F   0  0  0  0  0  0  0  0  0  0  0  0
  126.2610  124.7490   56.6040 F   0  0  0  0  0  0  0  0  0  0  0  0
  125.6150  122.7000   56.4770 F   0  0  0  0  0  0  0  0  0  0  0  0
  127.3680  123.3990   58.9890 C   0  0  0  0  0  0  0  0  0  0  0  0
  128.3980  123.3520   57.9460 C   0  0  0  0  0  0  0  0  0  0  0  0
  129.2100  123.3160   57.1220 N   0  0  0  0  0  0  0  0  0  0  0  0
  127.7060  123.2300   60.3530 C   0  0  0  0  0  0  0  0  0  0  0  0
  129.3890  122.9520   60.8860 S   0  0  0  0  0  0  0  0  0  0  0  0
  129.3470  122.1130   62.5070 C   0  0  0  0  0  0  0  0  0  0  0  0
  130.2740  122.7180   63.5710 C   0  0  0  0  0  0  0  0  0  0  0  0
  131.1610  122.0390   64.0940 O   0  0  0  0  0  0  0  0  0  0  0  0
  130.0220  124.0110   63.8730 N   0  0  0  0  0  0  0  0  0  0  0  0
  130.7040  124.7970   64.7920 C   0  0  0  0  0  0  0  0  0  0  0  0
  131.9920  125.0620   64.8290 N   0  0  0  0  0  0  0  0  0  0  0  0
  132.2980  125.8490   65.8420 C   0  0  0  0  0  0  0  0  0  0  0  0
  131.2400  126.2400   66.6580 C   0  0  0  0  0  0  0  0  0  0  0  0
  129.7710  125.5330   66.0550 S   0  0  0  0  0  0  0  0  0  0  0  0
  126.7780  123.2700   61.3420 N   0  0  0  0  0  0  0  0  0  0  0  0
  125.0572  123.4903   63.1180 H   0  0  0  0  0  0  0  0  0  0  0  0
  123.9009  124.4279   62.1127 H   0  0  0  0  0  0  0  0  0  0  0  0
  123.8405  122.6327   62.1127 H   0  0  0  0  0  0  0  0  0  0  0  0
  123.9991  123.8180   59.4693 H   0  0  0  0  0  0  0  0  0  0  0  0
  128.3158  122.1559   62.8876 H   0  0  0  0  0  0  0  0  0  0  0  0
  129.7040  121.0872   62.3333 H   0  0  0  0  0  0  0  0  0  0  0  0
  129.2610  124.4640   63.3880 H   0  0  0  0  0  0  0  0  0  0  0  0
  133.3305  126.1778   66.0314 H   0  0  0  0  0  0  0  0  0  0  0  0
  131.3206  126.8908   67.5411 H   0  0  0  0  0  0  0  0  0  0  0  0
  1  2  1  0
  2  3  2  0
  3  4  1  0
  4  5  1  0
  5  6  1  0
  5  7  1  0
  5  8  1  0
  4  9  2  0
  9 10  1  0
 10 11  3  0
  9 12  1  0
 12 13  1  0
 13 14  1  0
 14 15  1  0
 15 16  2  0
 15 17  1  0
 17 18  1  0
 18 19  2  0
 19 20  1  0
 20 21  2  0
 21 22  1  0
 12 23  2  0
 23  2  1  0
 22 18  1  0
  1 24  1  0
  1 25  1  0
  1 26  1  0
  3 27  1  0
 14 28  1  0
 14 29  1  0
 17 30  1  0
 20 31  1  0
 21 32  1  0
M  END
>  <Binding energies>  (1) 
[-6.46]

>  <Ligand effiencies>  (1) 
[-0.26916666666666667]

>  <Interactions>  (1) 
["V-B:TYR:539:C:9835, V-B:PRO:540:C:9849, V-B:PRO:540:N:9852, V-B:ALA:541:CB:9860, V-B:PRO:540:CA:9851, V-B:MET:535:CE:9803, V-B:PRO:540:CB:9853, H-B:ALA:541:N:9859, H-B:GLU:543:OE2:9878, V-B:GLU:543:CD:9876, V-B:ALA:541:CA:9858, H-A:TYR:484:OH:4343, V-B:GLU:543:CG:9875, V-B:PRO:540:CD:9855, V-B:LEU:363:CD1:8156, V-B:TYR:531:CE2:9761, V-A:HIS:456:CE1:4064, V-B:GLU:543:CB:9874, V-B:ASN:362:CB:8143, V-B:ASN:362:CG:8144"]

$$$$
2k_Grossjean_2025
     RDKit          3D

 50 50  0  0  0  0  0  0  0  0999 V2000
  131.3880  132.9390   54.9060 C   0  0  0  0  0  0  0  0  0  0  0  0
  130.8700  133.3780   56.1520 O   0  0  0  0  0  0  0  0  0  0  0  0
  129.6710  132.7150   56.5330 C   0  0  0  0  0  0  0  0  0  0  0  0
  130.0090  131.3680   57.1840 C   0  0  0  0  0  0  0  0  0  0  0  0
  131.2760  131.4650   57.8180 O   0  0  0  0  0  0  0  0  0  0  0  0
  132.2760  130.6230   57.2570 C   0  0  0  0  0  0  0  0  0  0  0  0
  133.5610  130.7800   58.0810 C   0  0  0  0  0  0  0  0  0  0  0  0
  133.3200  130.2370   59.3690 O   0  0  0  0  0  0  0  0  0  0  0  0
  133.8420  130.9950   60.4510 C   0  0  0  0  0  0  0  0  0  0  0  0
  132.6730  131.5030   61.3150 C   0  0  0  0  0  0  0  0  0  0  0  0
  131.4070  131.5720   60.5810 N   0  0  0  0  0  0  0  0  0  0  0  0
  130.2500  132.0700   61.0590 C   0  0  0  0  0  0  0  0  0  0  0  0
  130.1360  132.5580   62.1840 O   0  0  0  0  0  0  0  0  0  0  0  0
  129.0430  131.9750   60.1140 C   0  0  0  0  0  0  0  0  0  0  0  0
  127.7740  133.2710   60.3320 S   0  0  0  0  0  0  0  0  0  0  0  0
  126.2500  132.5220   60.8910 C   0  0  0  0  0  0  0  0  0  0  0  0
  125.3210  132.2900   59.9280 N   0  0  0  0  0  0  0  0  0  0  0  0
  124.1420  131.7290   60.2800 C   0  0  0  0  0  0  0  0  0  0  0  0
  123.1540  131.5140   59.1510 C   0  0  0  0  0  0  0  0  0  0  0  0
  123.8440  131.3670   61.5910 C   0  0  0  0  0  0  0  0  0  0  0  0
  124.7930  131.5900   62.6010 C   0  0  0  0  0  0  0  0  0  0  0  0
  124.4490  131.1790   64.0450 C   0  0  0  0  0  0  0  0  0  0  0  0
  123.3880  130.3730   64.1140 F   0  0  0  0  0  0  0  0  0  0  0  0
  125.4790  130.5340   64.5940 F   0  0  0  0  0  0  0  0  0  0  0  0
  124.1780  132.2610   64.7760 F   0  0  0  0  0  0  0  0  0  0  0  0
  126.0310  132.1850   62.2470 C   0  0  0  0  0  0  0  0  0  0  0  0
  127.0570  132.4440   63.2620 C   0  0  0  0  0  0  0  0  0  0  0  0
  127.8670  132.6480   64.0640 N   0  0  0  0  0  0  0  0  0  0  0  0
  132.2166  132.2368   55.0803 H   0  0  0  0  0  0  0  0  0  0  0  0
  130.5938  132.4348   54.3359 H   0  0  0  0  0  0  0  0  0  0  0  0
  131.7552  133.8051   54.3359 H   0  0  0  0  0  0  0  0  0  0  0  0
  129.1200  133.3400   57.2511 H   0  0  0  0  0  0  0  0  0  0  0  0
  129.0509  132.5428   55.6409 H   0  0  0  0  0  0  0  0  0  0  0  0
  129.2414  131.1165   57.9307 H   0  0  0  0  0  0  0  0  0  0  0  0
  130.0375  130.5811   56.4159 H   0  0  0  0  0  0  0  0  0  0  0  0
  131.9403  129.5760   57.2885 H   0  0  0  0  0  0  0  0  0  0  0  0
  132.4623  130.9040   56.2099 H   0  0  0  0  0  0  0  0  0  0  0  0
  134.3856  130.2381   57.5949 H   0  0  0  0  0  0  0  0  0  0  0  0
  133.8406  131.8411   58.1579 H   0  0  0  0  0  0  0  0  0  0  0  0
  134.5033  130.3615   61.0604 H   0  0  0  0  0  0  0  0  0  0  0  0
  134.4175  131.8488   60.0640 H   0  0  0  0  0  0  0  0  0  0  0  0
  132.5464  130.8216   62.1692 H   0  0  0  0  0  0  0  0  0  0  0  0
  132.9222  132.5245   61.6383 H   0  0  0  0  0  0  0  0  0  0  0  0
  131.4170  131.2050   59.6410 H   0  0  0  0  0  0  0  0  0  0  0  0
  129.4154  132.0349   59.0807 H   0  0  0  0  0  0  0  0  0  0  0  0
  128.5470  131.0220   60.3503 H   0  0  0  0  0  0  0  0  0  0  0  0
  122.1601  131.2977   59.5698 H   0  0  0  0  0  0  0  0  0  0  0  0
  123.1014  132.4217   58.5319 H   0  0  0  0  0  0  0  0  0  0  0  0
  123.4834  130.6665   58.5319 H   0  0  0  0  0  0  0  0  0  0  0  0
  122.8731  130.9101   61.8332 H   0  0  0  0  0  0  0  0  0  0  0  0
  1  2  1  0
  2  3  1  0
  3  4  1  0
  4  5  1  0
  5  6  1  0
  6  7  1  0
  7  8  1  0
  8  9  1  0
  9 10  1  0
 10 11  1  0
 11 12  1  0
 12 13  2  0
 12 14  1  0
 14 15  1  0
 15 16  1  0
 16 17  2  0
 17 18  1  0
 18 19  1  0
 18 20  2  0
 20 21  1  0
 21 22  1  0
 22 23  1  0
 22 24  1  0
 22 25  1  0
 21 26  2  0
 26 27  1  0
 27 28  3  0
 26 16  1  0
  1 29  1  0
  1 30  1  0
  1 31  1  0
  3 32  1  0
  3 33  1  0
  4 34  1  0
  4 35  1  0
  6 36  1  0
  6 37  1  0
  7 38  1  0
  7 39  1  0
  9 40  1  0
  9 41  1  0
 10 42  1  0
 10 43  1  0
 11 44  1  0
 14 45  1  0
 14 46  1  0
 19 47  1  0
 19 48  1  0
 19 49  1  0
 20 50  1  0
M  END
>  <Binding energies>  (1) 
[-5.57]

>  <Ligand effiencies>  (1) 
[-0.1920689655172414]

>  <Interactions>  (1) 
["V-A:PRO:540:N:4879, V-A:ASN:362:C:3167, V-A:TYR:531:CZ:4789, V-A:TYR:539:CE2:4871, V-A:TYR:531:CE2:4788, V-A:PRO:540:CA:4878, V-A:PRO:540:C:4876, V-A:TYR:539:CE1:4870, H-A:ALA:541:N:4886, V-A:PRO:540:CB:4880, V-A:LEU:363:CD1:3184, V-A:ASN:362:CB:3171, V-A:LEU:363:CA:3180, V-B:GLY:454:CA:9016, V-B:ILE:369:CD1:8206, V-B:LEU:475:CD2:9226, H-A:TYR:539:N:4865, V-B:ASP:366:CB:8179, V-A:LEU:363:CB:3182, V-A:TYR:539:CD1:4868, V-A:TYR:539:CG:4867, V-A:ILE:538:CG2:4858, V-B:ARG:545:CZ:9894, H-A:TYR:539:OH:4873, V-A:ILE:538:CA:4855, V-B:ASP:366:C:8175, V-B:ASP:366:CA:8177, V-B:ILE:369:CG2:8204, V-B:ILE:369:CB:8203, V-A:ILE:538:CB:4857, V-B:TYR:484:CZ:9314, H-B:TYR:484:OH:9315, V-B:GLY:453:CA:9011, V-B:GLY:453:C:9009, V-B:GLY:454:C:9014, V-A:ILE:538:CD1:4860"]

$$$$
3aa_Grossjean_2025
     RDKit          3D

 52 54  0  0  0  0  0  0  0  0999 V2000
  128.7420  123.2900   55.8290 C   0  0  0  0  0  0  0  0  0  0  0  0
  128.0490  122.4220   56.8840 C   0  0  0  0  0  0  0  0  0  0  0  0
  126.7240  122.1270   56.4600 O   0  0  0  0  0  0  0  0  0  0  0  0
  125.6530  122.7110   57.0550 C   0  0  0  0  0  0  0  0  0  0  0  0
  124.4830  122.4270   56.7810 O   0  0  0  0  0  0  0  0  0  0  0  0
  126.0320  123.7520   58.0700 C   0  0  0  0  0  0  0  0  0  0  0  0
  126.3230  123.4190   59.4020 C   0  0  0  0  0  0  0  0  0  0  0  0
  126.6760  124.4080   60.3160 C   0  0  0  0  0  0  0  0  0  0  0  0
  126.7520  125.7440   59.9190 C   0  0  0  0  0  0  0  0  0  0  0  0
  127.1210  126.6640   60.9210 N   0  0  0  0  0  0  0  0  0  0  0  0
  127.3350  127.9950   60.8310 C   0  0  0  0  0  0  0  0  0  0  0  0
  127.2620  128.6620   59.7980 O   0  0  0  0  0  0  0  0  0  0  0  0
  127.7090  128.6920   62.1390 C   0  0  0  0  0  0  0  0  0  0  0  0
  129.2750  129.6070   61.9930 S   0  0  0  0  0  0  0  0  0  0  0  0
  128.9080  131.1390   61.1670 C   0  0  0  0  0  0  0  0  0  0  0  0
  128.9850  131.0600   59.8170 N   0  0  0  0  0  0  0  0  0  0  0  0
  128.7300  132.1600   59.0630 C   0  0  0  0  0  0  0  0  0  0  0  0
  128.8210  131.9890   57.5760 C   0  0  0  0  0  0  0  0  0  0  0  0
  129.7320  132.7470   56.8240 C   0  0  0  0  0  0  0  0  0  0  0  0
  129.8240  132.5920   55.4430 C   0  0  0  0  0  0  0  0  0  0  0  0
  129.0030  131.6760   54.7950 C   0  0  0  0  0  0  0  0  0  0  0  0
  128.0930  130.9110   55.5180 C   0  0  0  0  0  0  0  0  0  0  0  0
  128.0060  131.0660   56.8990 C   0  0  0  0  0  0  0  0  0  0  0  0
  128.3800  133.3760   59.6600 C   0  0  0  0  0  0  0  0  0  0  0  0
  128.3120  133.4860   61.0570 C   0  0  0  0  0  0  0  0  0  0  0  0
  127.9350  134.8450   61.6780 C   0  0  0  0  0  0  0  0  0  0  0  0
  128.9780  135.6690   61.7920 F   0  0  0  0  0  0  0  0  0  0  0  0
  127.0240  135.4590   60.9220 F   0  0  0  0  0  0  0  0  0  0  0  0
  127.4310  134.6630   62.8990 F   0  0  0  0  0  0  0  0  0  0  0  0
  128.5940  132.3400   61.8400 C   0  0  0  0  0  0  0  0  0  0  0  0
  128.5940  132.4120   63.3040 C   0  0  0  0  0  0  0  0  0  0  0  0
  128.5950  132.4680   64.4610 N   0  0  0  0  0  0  0  0  0  0  0  0
  126.4490  126.0850   58.5920 C   0  0  0  0  0  0  0  0  0  0  0  0
  126.0950  125.0960   57.6810 C   0  0  0  0  0  0  0  0  0  0  0  0
  129.3535  124.0559   56.3284 H   0  0  0  0  0  0  0  0  0  0  0  0
  129.3869  122.6583   55.2005 H   0  0  0  0  0  0  0  0  0  0  0  0
  127.9832  123.7791   55.2005 H   0  0  0  0  0  0  0  0  0  0  0  0
  128.6098  121.4845   57.0133 H   0  0  0  0  0  0  0  0  0  0  0  0
  128.0155  122.9644   57.8404 H   0  0  0  0  0  0  0  0  0  0  0  0
  126.2718  122.3691   59.7261 H   0  0  0  0  0  0  0  0  0  0  0  0
  126.8966  124.1346   61.3584 H   0  0  0  0  0  0  0  0  0  0  0  0
  127.2930  126.2460   61.8240 H   0  0  0  0  0  0  0  0  0  0  0  0
  126.9086  129.3968   62.4085 H   0  0  0  0  0  0  0  0  0  0  0  0
  127.8342  127.9211   62.9137 H   0  0  0  0  0  0  0  0  0  0  0  0
  130.3825  133.4738   57.3326 H   0  0  0  0  0  0  0  0  0  0  0  0
  130.5437  133.1922   54.8670 H   0  0  0  0  0  0  0  0  0  0  0  0
  129.0733  131.5553   53.7039 H   0  0  0  0  0  0  0  0  0  0  0  0
  127.4455  130.1874   55.0011 H   0  0  0  0  0  0  0  0  0  0  0  0
  127.2886  130.4569   57.4685 H   0  0  0  0  0  0  0  0  0  0  0  0
  128.1570  134.2503   59.0308 H   0  0  0  0  0  0  0  0  0  0  0  0
  126.4916  127.1365   58.2719 H   0  0  0  0  0  0  0  0  0  0  0  0
  125.8616  125.3725   56.6422 H   0  0  0  0  0  0  0  0  0  0  0  0
  1  2  1  0
  2  3  1  0
  3  4  1  0
  4  5  2  0
  4  6  1  0
  6  7  2  0
  7  8  1  0
  8  9  2  0
  9 10  1  0
 10 11  1  0
 11 12  2  0
 11 13  1  0
 13 14  1  0
 14 15  1  0
 15 16  2  0
 16 17  1  0
 17 18  1  0
 18 19  2  0
 19 20  1  0
 20 21  2  0
 21 22  1  0
 22 23  2  0
 17 24  2  0
 24 25  1  0
 25 26  1  0
 26 27  1  0
 26 28  1  0
 26 29  1  0
 25 30  2  0
 30 31  1  0
 31 32  3  0
  9 33  1  0
 33 34  2  0
 34  6  1  0
 30 15  1  0
 23 18  1  0
  1 35  1  0
  1 36  1  0
  1 37  1  0
  2 38  1  0
  2 39  1  0
  7 40  1  0
  8 41  1  0
 10 42  1  0
 13 43  1  0
 13 44  1  0
 19 45  1  0
 20 46  1  0
 21 47  1  0
 22 48  1  0
 23 49  1  0
 24 50  1  0
 33 51  1  0
 34 52  1  0
M  END
>  <Binding energies>  (1) 
[-8.22]

>  <Ligand effiencies>  (1) 
[-0.23485714285714288]

>  <Interactions>  (1) 
["V-B:TYR:539:C:9835, V-B:TYR:539:CD2:9842, V-B:TYR:539:CE2:9844, V-B:PRO:540:N:9852, V-B:PRO:540:CA:9851, V-B:MET:535:CE:9803, V-B:PRO:540:CB:9853, H-B:GLU:543:OE1:9877, H-B:GLU:543:OE2:9878, V-A:GLU:543:CG:4902, V-A:PRO:540:N:4879, V-A:TYR:539:CE2:4871, V-A:PRO:540:CA:4878, V-A:PRO:540:C:4876, V-A:TYR:539:CE1:4870, V-A:ALA:541:CA:4885, V-A:TYR:539:CZ:4872, V-A:TYR:539:C:4862, V-A:TYR:539:CD2:4869, V-B:LEU:475:CD2:9226, V-B:TRP:381:CH2:8339, H-B:TYR:539:N:9838, V-B:PRO:540:CD:9855, V-B:TYR:539:CZ:9845, V-A:TYR:539:CD1:4868, V-A:ALA:541:CB:4887, V-A:TYR:539:CG:4867, V-B:LEU:475:CD1:9225, H-B:TYR:484:OH:9315, V-B:TYR:539:CE1:9843, V-B:LEU:475:CG:9224, V-B:TYR:539:CD1:9841, V-B:TYR:539:CG:9840, V-B:PRO:482:CB:9293, V-B:PRO:482:CG:9294"]

$$$$
3ab_Grossjean_2025
     RDKit          3D

 49 51  0  0  0  0  0  0  0  0999 V2000
  123.6320  124.7050   57.8960 C   0  0  0  0  0  0  0  0  0  0  0  0
  124.3010  124.3960   56.6810 O   0  0  0  0  0  0  0  0  0  0  0  0
  124.9680  123.2230   56.5290 C   0  0  0  0  0  0  0  0  0  0  0  0
  124.4220  122.1700   56.1880 O   0  0  0  0  0  0  0  0  0  0  0  0
  126.4380  123.3360   56.8140 C   0  0  0  0  0  0  0  0  0  0  0  0
  127.0600  124.5740   57.0340 C   0  0  0  0  0  0  0  0  0  0  0  0
  128.4250  124.6480   57.2970 C   0  0  0  0  0  0  0  0  0  0  0  0
  129.1960  123.4760   57.3440 C   0  0  0  0  0  0  0  0  0  0  0  0
  130.5790  123.4320   57.6060 N   0  0  0  0  0  0  0  0  0  0  0  0
  131.4520  124.4370   57.8270 C   0  0  0  0  0  0  0  0  0  0  0  0
  131.1760  125.6370   57.8240 O   0  0  0  0  0  0  0  0  0  0  0  0
  132.8950  124.0060   58.0980 C   0  0  0  0  0  0  0  0  0  0  0  0
  133.0950  123.2880   59.7560 S   0  0  0  0  0  0  0  0  0  0  0  0
  131.5960  122.4100   60.1430 C   0  0  0  0  0  0  0  0  0  0  0  0
  130.5110  123.2120   60.2530 N   0  0  0  0  0  0  0  0  0  0  0  0
  129.2980  122.6740   60.5400 C   0  0  0  0  0  0  0  0  0  0  0  0
  128.1470  123.6300   60.6420 C   0  0  0  0  0  0  0  0  0  0  0  0
  128.3690  125.0030   60.8340 C   0  0  0  0  0  0  0  0  0  0  0  0
  127.3040  125.8960   60.9280 C   0  0  0  0  0  0  0  0  0  0  0  0
  125.9980  125.4260   60.8330 C   0  0  0  0  0  0  0  0  0  0  0  0
  125.7510  124.0700   60.6460 C   0  0  0  0  0  0  0  0  0  0  0  0
  126.8180  123.1810   60.5530 C   0  0  0  0  0  0  0  0  0  0  0  0
  129.1560  121.2970   60.7460 C   0  0  0  0  0  0  0  0  0  0  0  0
  130.2680  120.4470   60.6570 C   0  0  0  0  0  0  0  0  0  0  0  0
  130.0710  118.9380   60.8960 C   0  0  0  0  0  0  0  0  0  0  0  0
  128.9020  118.6550   61.4760 F   0  0  0  0  0  0  0  0  0  0  0  0
  130.1110  118.2790   59.7370 F   0  0  0  0  0  0  0  0  0  0  0  0
  131.0360  118.4730   61.6910 F   0  0  0  0  0  0  0  0  0  0  0  0
  131.5320  121.0140   60.3550 C   0  0  0  0  0  0  0  0  0  0  0  0
  132.7350  120.1800   60.3050 C   0  0  0  0  0  0  0  0  0  0  0  0
  133.6840  119.5180   60.2670 N   0  0  0  0  0  0  0  0  0  0  0  0
  128.5800  122.2430   57.1310 C   0  0  0  0  0  0  0  0  0  0  0  0
  127.2150  122.1720   56.8670 C   0  0  0  0  0  0  0  0  0  0  0  0
  124.2644  124.4129   58.7473 H   0  0  0  0  0  0  0  0  0  0  0  0
  123.4335  125.7860   57.9406 H   0  0  0  0  0  0  0  0  0  0  0  0
  122.6803  124.1553   57.9406 H   0  0  0  0  0  0  0  0  0  0  0  0
  126.4623  125.4968   56.9983 H   0  0  0  0  0  0  0  0  0  0  0  0
  128.8997  125.6255   57.4681 H   0  0  0  0  0  0  0  0  0  0  0  0
  130.9690  122.5010   57.5900 H   0  0  0  0  0  0  0  0  0  0  0  0
  133.1875  123.2555   57.3489 H   0  0  0  0  0  0  0  0  0  0  0  0
  133.5325  124.9004   58.0373 H   0  0  0  0  0  0  0  0  0  0  0  0
  129.3997  125.3793   60.9114 H   0  0  0  0  0  0  0  0  0  0  0  0
  127.4950  126.9690   61.0768 H   0  0  0  0  0  0  0  0  0  0  0  0
  125.1563  126.1304   60.9062 H   0  0  0  0  0  0  0  0  0  0  0  0
  124.7171  123.7018   60.5719 H   0  0  0  0  0  0  0  0  0  0  0  0
  126.6178  122.1092   60.4074 H   0  0  0  0  0  0  0  0  0  0  0  0
  128.1658  120.8787   60.9792 H   0  0  0  0  0  0  0  0  0  0  0  0
  129.1770  121.3200   57.1719 H   0  0  0  0  0  0  0  0  0  0  0  0
  126.7425  121.1930   56.6985 H   0  0  0  0  0  0  0  0  0  0  0  0
  1  2  1  0
  2  3  1  0
  3  4  2  0
  3  5  1  0
  5  6  2  0
  6  7  1  0
  7  8  2  0
  8  9  1  0
  9 10  1  0
 10 11  2  0
 10 12  1  0
 12 13  1  0
 13 14  1  0
 14 15  2  0
 15 16  1  0
 16 17  1  0
 17 18  2  0
 18 19  1  0
 19 20  2  0
 20 21  1  0
 21 22  2  0
 16 23  2  0
 23 24  1  0
 24 25  1  0
 25 26  1  0
 25 27  1  0
 25 28  1  0
 24 29  2  0
 29 30  1  0
 30 31  3  0
  8 32  1  0
 32 33  2  0
 33  5  1  0
 29 14  1  0
 22 17  1  0
  1 34  1  0
  1 35  1  0
  1 36  1  0
  6 37  1  0
  7 38  1  0
  9 39  1  0
 12 40  1  0
 12 41  1  0
 18 42  1  0
 19 43  1  0
 20 44  1  0
 21 45  1  0
 22 46  1  0
 23 47  1  0
 32 48  1  0
 33 49  1  0
M  END
>  <Binding energies>  (1) 
[-7.34]

>  <Ligand effiencies>  (1) 
[-0.21588235294117647]

>  <Interactions>  (1) 
["V-B:TYR:539:C:9835, V-B:TYR:539:CD2:9842, V-A:LEU:475:CD2:4254, V-A:TRP:381:CZ2:3365, V-A:LEU:475:CD1:4253, V-B:PRO:540:C:9849, V-B:TYR:539:CE2:9844, V-B:PRO:540:N:9852, V-B:ALA:541:CB:9860, V-A:TRP:381:CH2:3367, V-B:PRO:540:CA:9851, V-B:MET:535:CE:9803, V-B:PRO:540:CB:9853, V-A:PRO:482:CB:4321, V-B:GLU:543:CD:9876, V-B:ALA:541:CA:9858, V-A:ASP:366:CB:3207, V-B:LEU:363:CB:8154, V-B:TYR:539:CA:9837, V-B:ASP:366:CG:8180, V-A:TRP:381:CZ3:3366, V-B:LEU:363:CD1:8156, V-B:TYR:539:CZ:9845, V-B:TYR:531:CE2:9761, V-B:ASP:366:CB:8179, V-B:LEU:363:CA:8152, V-B:TYR:539:CE1:9843, V-A:ILE:369:CG2:3232, V-A:PRO:482:CG:4322, H-A:TYR:531:OH:4790, V-A:TRP:381:CE2:3362, H-B:TYR:539:OH:9846, V-A:LEU:475:CG:4252, V-B:TYR:539:CD1:9841, V-B:TYR:539:CG:9840, H-B:TYR:531:OH:9763, V-B:TYR:539:CB:9839, V-A:TRP:381:CD2:3360, V-A:TRP:381:CE3:3363"]

$$$$
3ac_Grossjean_2025
     RDKit          3D

 47 49  0  0  0  0  0  0  0  0999 V2000
  136.1740  122.9820   75.6430 C   0  0  0  0  0  0  0  0  0  0  0  0
  135.4030  123.9620   76.3310 O   0  0  0  0  0  0  0  0  0  0  0  0
  134.4870  124.7180   75.6260 C   0  0  0  0  0  0  0  0  0  0  0  0
  134.9790  125.8550   74.9870 C   0  0  0  0  0  0  0  0  0  0  0  0
  134.1320  126.6760   74.2490 C   0  0  0  0  0  0  0  0  0  0  0  0
  132.7730  126.3750   74.1470 C   0  0  0  0  0  0  0  0  0  0  0  0
  132.0000  127.2520   73.3630 N   0  0  0  0  0  0  0  0  0  0  0  0
  130.6610  127.2820   73.1880 C   0  0  0  0  0  0  0  0  0  0  0  0
  129.8540  126.5390   73.7460 O   0  0  0  0  0  0  0  0  0  0  0  0
  130.1470  128.3430   72.2140 C   0  0  0  0  0  0  0  0  0  0  0  0
  128.7370  127.7490   71.2310 S   0  0  0  0  0  0  0  0  0  0  0  0
  129.2480  126.3110   70.3090 C   0  0  0  0  0  0  0  0  0  0  0  0
  129.5490  125.2520   71.0980 N   0  0  0  0  0  0  0  0  0  0  0  0
  129.9480  124.0810   70.5370 C   0  0  0  0  0  0  0  0  0  0  0  0
  130.2680  122.9600   71.4800 C   0  0  0  0  0  0  0  0  0  0  0  0
  129.3180  121.9640   71.7610 C   0  0  0  0  0  0  0  0  0  0  0  0
  129.6110  120.9180   72.6320 C   0  0  0  0  0  0  0  0  0  0  0  0
  130.8620  120.8550   73.2370 C   0  0  0  0  0  0  0  0  0  0  0  0
  131.8190  121.8300   72.9810 C   0  0  0  0  0  0  0  0  0  0  0  0
  131.5220  122.8750   72.1090 C   0  0  0  0  0  0  0  0  0  0  0  0
  130.0710  123.9580   69.1500 C   0  0  0  0  0  0  0  0  0  0  0  0
  129.7880  125.0460   68.3110 C   0  0  0  0  0  0  0  0  0  0  0  0
  129.9430  124.8680   66.7880 C   0  0  0  0  0  0  0  0  0  0  0  0
  129.0540  125.5790   66.0910 F   0  0  0  0  0  0  0  0  0  0  0  0
  131.1570  125.2600   66.3990 F   0  0  0  0  0  0  0  0  0  0  0  0
  129.7780  123.5860   66.4630 F   0  0  0  0  0  0  0  0  0  0  0  0
  129.3770  126.2680   68.9020 C   0  0  0  0  0  0  0  0  0  0  0  0
  129.1450  127.4530   68.0740 C   0  0  0  0  0  0  0  0  0  0  0  0
  128.9630  128.3890   67.4190 N   0  0  0  0  0  0  0  0  0  0  0  0
  132.2700  125.2280   74.7810 C   0  0  0  0  0  0  0  0  0  0  0  0
  133.1220  124.4090   75.5180 C   0  0  0  0  0  0  0  0  0  0  0  0
  136.6823  122.3359   76.3739 H   0  0  0  0  0  0  0  0  0  0  0  0
  135.5117  122.3712   75.0118 H   0  0  0  0  0  0  0  0  0  0  0  0
  136.9235  123.4819   75.0118 H   0  0  0  0  0  0  0  0  0  0  0  0
  136.0471  126.1056   75.0670 H   0  0  0  0  0  0  0  0  0  0  0  0
  134.5352  127.5661   73.7438 H   0  0  0  0  0  0  0  0  0  0  0  0
  132.5280  127.9850   72.9120 H   0  0  0  0  0  0  0  0  0  0  0  0
  129.8314  129.2270   72.7875 H   0  0  0  0  0  0  0  0  0  0  0  0
  130.9639  128.5869   71.5189 H   0  0  0  0  0  0  0  0  0  0  0  0
  128.3272  122.0112   71.2855 H   0  0  0  0  0  0  0  0  0  0  0  0
  128.8567  120.1450   72.8407 H   0  0  0  0  0  0  0  0  0  0  0  0
  131.0956  120.0275   73.9231 H   0  0  0  0  0  0  0  0  0  0  0  0
  132.8057  121.7767   73.4644 H   0  0  0  0  0  0  0  0  0  0  0  0
  132.2810  123.6459   71.9096 H   0  0  0  0  0  0  0  0  0  0  0  0
  130.3921  123.0009   68.7132 H   0  0  0  0  0  0  0  0  0  0  0  0
  131.2027  124.9760   74.6957 H   0  0  0  0  0  0  0  0  0  0  0  0
  132.7228  123.5145   76.0185 H   0  0  0  0  0  0  0  0  0  0  0  0
  1  2  1  0
  2  3  1  0
  3  4  2  0
  4  5  1  0
  5  6  2  0
  6  7  1  0
  7  8  1  0
  8  9  2  0
  8 10  1  0
 10 11  1  0
 11 12  1  0
 12 13  2  0
 13 14  1  0
 14 15  1  0
 15 16  2  0
 16 17  1  0
 17 18  2  0
 18 19  1  0
 19 20  2  0
 14 21  2  0
 21 22  1  0
 22 23  1  0
 23 24  1  0
 23 25  1  0
 23 26  1  0
 22 27  2  0
 27 28  1  0
 28 29  3  0
  6 30  1  0
 30 31  2  0
 31  3  1  0
 27 12  1  0
 20 15  1  0
  1 32  1  0
  1 33  1  0
  1 34  1  0
  4 35  1  0
  5 36  1  0
  7 37  1  0
 10 38  1  0
 10 39  1  0
 16 40  1  0
 17 41  1  0
 18 42  1  0
 19 43  1  0
 20 44  1  0
 21 45  1  0
 30 46  1  0
 31 47  1  0
M  END
>  <Binding energies>  (1) 
[-7.42]

>  <Ligand effiencies>  (1) 
[-0.231875]

>  <Interactions>  (1) 
["V-B:GLU:543:CD:9876, V-B:GLU:543:CG:9875, V-A:TYR:484:CE1:4340, V-A:TYR:484:CZ:4342, V-B:GLU:543:CA:9872, V-A:HIS:456:CE1:4064, V-B:GLU:543:CB:9874, V-A:LYS:471:CG:4213, V-A:LYS:547:CE:4945, V-A:LYS:471:CB:4212, V-A:HIS:456:C:4056, H-B:LYS:547:NZ:9919, V-A:HIS:456:CG:4061, H-A:LYS:547:NZ:4946, V-A:HIS:456:CB:4060, V-A:VAL:458:CG2:4082, V-A:ASP:473:CG:4235, V-A:LYS:547:CD:4944, V-B:GLU:543:C:9870, H-A:GLY:544:O:4908, V-A:TYR:484:CB:4336, V-A:TYR:484:CG:4337, V-A:ASP:473:CB:4234, V-A:TYR:484:CD2:4339, V-A:HIS:456:CD2:4063, V-A:LYS:547:CG:4943, H-A:HIS:456:ND1:4062, V-A:TYR:484:CD1:4338, V-A:VAL:457:C:4068, V-A:VAL:457:CA:4070, V-A:LYS:471:C:4208, V-A:LEU:472:CA:4223, V-A:LEU:472:C:4221"]

$$$$
3ad_Grossjean_2025
     RDKit          3D

 43 45  0  0  0  0  0  0  0  0999 V2000
  124.3320  131.3590   60.4750 N   0  0  0  0  0  0  0  0  0  0  0  0
  125.2360  131.4330   59.7560 C   0  0  0  0  0  0  0  0  0  0  0  0
  126.3790  131.5250   58.8420 C   0  0  0  0  0  0  0  0  0  0  0  0
  126.4200  130.7550   57.6550 C   0  0  0  0  0  0  0  0  0  0  0  0
  125.2710  129.8220   57.2270 C   0  0  0  0  0  0  0  0  0  0  0  0
  125.3240  128.6280   57.8200 F   0  0  0  0  0  0  0  0  0  0  0  0
  124.0970  130.3740   57.5410 F   0  0  0  0  0  0  0  0  0  0  0  0
  125.3130  129.6160   55.9100 F   0  0  0  0  0  0  0  0  0  0  0  0
  127.5580  130.8430   56.8380 C   0  0  0  0  0  0  0  0  0  0  0  0
  128.6240  131.6740   57.1980 C   0  0  0  0  0  0  0  0  0  0  0  0
  129.8690  131.7940   56.3700 C   0  0  0  0  0  0  0  0  0  0  0  0
  130.7250  132.8980   56.5180 C   0  0  0  0  0  0  0  0  0  0  0  0
  131.8820  133.0150   55.7540 C   0  0  0  0  0  0  0  0  0  0  0  0
  132.2010  132.0270   54.8270 C   0  0  0  0  0  0  0  0  0  0  0  0
  131.3720  130.9230   54.6640 C   0  0  0  0  0  0  0  0  0  0  0  0
  130.2150  130.8080   55.4310 C   0  0  0  0  0  0  0  0  0  0  0  0
  128.5830  132.4050   58.3410 N   0  0  0  0  0  0  0  0  0  0  0  0
  127.4870  132.3520   59.1340 C   0  0  0  0  0  0  0  0  0  0  0  0
  127.6020  133.3830   60.5790 S   0  0  0  0  0  0  0  0  0  0  0  0
  128.2730  132.3580   61.9220 C   0  0  0  0  0  0  0  0  0  0  0  0
  129.7780  132.1210   61.7710 C   0  0  0  0  0  0  0  0  0  0  0  0
  130.5370  132.5110   62.6590 O   0  0  0  0  0  0  0  0  0  0  0  0
  130.1540  131.4860   60.6400 N   0  0  0  0  0  0  0  0  0  0  0  0
  131.4370  131.1080   60.2040 C   0  0  0  0  0  0  0  0  0  0  0  0
  131.5030  130.5650   58.9170 C   0  0  0  0  0  0  0  0  0  0  0  0
  132.7240  130.1540   58.3890 C   0  0  0  0  0  0  0  0  0  0  0  0
  133.8820  130.2800   59.1510 C   0  0  0  0  0  0  0  0  0  0  0  0
  133.8300  130.8110   60.4360 C   0  0  0  0  0  0  0  0  0  0  0  0
  132.6110  131.2240   60.9680 C   0  0  0  0  0  0  0  0  0  0  0  0
  127.6118  130.2553   55.9097 H   0  0  0  0  0  0  0  0  0  0  0  0
  130.4769  133.6818   57.2489 H   0  0  0  0  0  0  0  0  0  0  0  0
  132.5423  133.8854   55.8822 H   0  0  0  0  0  0  0  0  0  0  0  0
  133.1138  132.1202   54.2202 H   0  0  0  0  0  0  0  0  0  0  0  0
  131.6288  130.1431   53.9320 H   0  0  0  0  0  0  0  0  0  0  0  0
  129.5626  129.9322   55.2995 H   0  0  0  0  0  0  0  0  0  0  0  0
  128.0885  132.8648   62.8807 H   0  0  0  0  0  0  0  0  0  0  0  0
  127.7713  131.3798   61.8836 H   0  0  0  0  0  0  0  0  0  0  0  0
  129.4170  131.2780   59.9820 H   0  0  0  0  0  0  0  0  0  0  0  0
  130.5856  130.4621   58.3188 H   0  0  0  0  0  0  0  0  0  0  0  0
  132.7733  129.7317   57.3745 H   0  0  0  0  0  0  0  0  0  0  0  0
  134.8470  129.9568   58.7335 H   0  0  0  0  0  0  0  0  0  0  0  0
  134.7505  130.9045   61.0309 H   0  0  0  0  0  0  0  0  0  0  0  0
  132.5670  131.6406   61.9851 H   0  0  0  0  0  0  0  0  0  0  0  0
  1  2  3  0
  2  3  1  0
  3  4  2  0
  4  5  1  0
  5  6  1  0
  5  7  1  0
  5  8  1  0
  4  9  1  0
  9 10  2  0
 10 11  1  0
 11 12  2  0
 12 13  1  0
 13 14  2  0
 14 15  1  0
 15 16  2  0
 10 17  1  0
 17 18  2  0
 18 19  1  0
 19 20  1  0
 20 21  1  0
 21 22  2  0
 21 23  1  0
 23 24  1  0
 24 25  2  0
 25 26  1  0
 26 27  2  0
 27 28  1  0
 28 29  2  0
 18  3  1  0
 29 24  1  0
 16 11  1  0
  9 30  1  0
 12 31  1  0
 13 32  1  0
 14 33  1  0
 15 34  1  0
 16 35  1  0
 20 36  1  0
 20 37  1  0
 23 38  1  0
 25 39  1  0
 26 40  1  0
 27 41  1  0
 28 42  1  0
 29 43  1  0
M  END
>  <Binding energies>  (1) 
[-7.85]

>  <Ligand effiencies>  (1) 
[-0.26166666666666666]

>  <Interactions>  (1) 
["V-A:PRO:540:N:4879, V-A:ASN:362:C:3167, V-A:TYR:531:CZ:4789, V-A:TYR:539:CE2:4871, V-A:PRO:540:CG:4881, V-A:TYR:531:CE2:4788, V-A:PRO:540:CA:4878, V-A:TYR:539:CE1:4870, V-A:ASP:366:CB:3207, H-A:ALA:541:N:4886, V-A:TYR:539:CZ:4872, V-A:PRO:540:CB:4880, V-A:LEU:363:CD1:3184, V-A:TYR:539:C:4862, V-A:ASN:362:CB:3171, V-A:LEU:363:CA:3180, V-A:PRO:540:CD:4882, V-A:ASP:366:CG:3208, V-A:TYR:539:CD2:4869, V-B:ASP:366:CG:8180, V-B:TYR:531:CZ:9762, V-B:ASP:366:CB:8179, V-A:ILE:538:CG2:4858, V-B:TYR:531:CE1:9760, V-A:ILE:538:CA:4855, V-B:ASP:366:C:8175, V-B:ASP:366:CA:8177, V-A:ILE:538:CD1:4860"]

$$$$
3af_Grossjean_2025
     RDKit          3D

 42 44  0  0  0  0  0  0  0  0999 V2000
  124.3550  131.4480   61.0010 N   0  0  0  0  0  0  0  0  0  0  0  0
  125.2440  131.5910   60.2740 C   0  0  0  0  0  0  0  0  0  0  0  0
  126.3690  131.7720   59.3520 C   0  0  0  0  0  0  0  0  0  0  0  0
  126.5030  130.9510   58.2060 C   0  0  0  0  0  0  0  0  0  0  0  0
  125.4700  129.8700   57.8320 C   0  0  0  0  0  0  0  0  0  0  0  0
  125.7130  129.3100   56.6450 F   0  0  0  0  0  0  0  0  0  0  0  0
  125.4780  128.8970   58.7440 F   0  0  0  0  0  0  0  0  0  0  0  0
  124.2480  130.4020   57.7770 F   0  0  0  0  0  0  0  0  0  0  0  0
  127.6260  131.1260   57.3830 C   0  0  0  0  0  0  0  0  0  0  0  0
  128.5890  132.0910   57.6970 C   0  0  0  0  0  0  0  0  0  0  0  0
  129.8160  132.3060   56.8630 C   0  0  0  0  0  0  0  0  0  0  0  0
  131.0940  132.0480   57.3870 C   0  0  0  0  0  0  0  0  0  0  0  0
  132.2370  132.2440   56.6170 C   0  0  0  0  0  0  0  0  0  0  0  0
  132.1180  132.7020   55.3090 C   0  0  0  0  0  0  0  0  0  0  0  0
  130.8650  132.9620   54.7650 C   0  0  0  0  0  0  0  0  0  0  0  0
  129.7240  132.7640   55.5380 C   0  0  0  0  0  0  0  0  0  0  0  0
  128.4590  132.8730   58.7980 N   0  0  0  0  0  0  0  0  0  0  0  0
  127.3710  132.7390   59.5960 C   0  0  0  0  0  0  0  0  0  0  0  0
  127.3690  133.8590   60.9810 S   0  0  0  0  0  0  0  0  0  0  0  0
  128.6250  133.2910   62.1660 C   0  0  0  0  0  0  0  0  0  0  0  0
  128.0030  132.5030   63.3190 C   0  0  0  0  0  0  0  0  0  0  0  0
  128.5980  132.4450   64.3950 O   0  0  0  0  0  0  0  0  0  0  0  0
  126.8190  131.9140   63.0450 N   0  0  0  0  0  0  0  0  0  0  0  0
  125.9980  131.1210   63.8700 C   0  0  0  0  0  0  0  0  0  0  0  0
  126.4090  129.9820   64.5870 C   0  0  0  0  0  0  0  0  0  0  0  0
  125.4840  129.2870   65.3690 C   0  0  0  0  0  0  0  0  0  0  0  0
  124.1670  129.7470   65.4140 C   0  0  0  0  0  0  0  0  0  0  0  0
  123.7460  130.8410   64.7330 N   0  0  0  0  0  0  0  0  0  0  0  0
  124.6570  131.5060   63.9780 C   0  0  0  0  0  0  0  0  0  0  0  0
  127.7498  130.5011   56.4862 H   0  0  0  0  0  0  0  0  0  0  0  0
  131.1927  131.6858   58.4210 H   0  0  0  0  0  0  0  0  0  0  0  0
  133.2306  132.0375   57.0413 H   0  0  0  0  0  0  0  0  0  0  0  0
  133.0210  132.8595   54.7010 H   0  0  0  0  0  0  0  0  0  0  0  0
  130.7757  133.3222   53.7295 H   0  0  0  0  0  0  0  0  0  0  0  0
  128.7343  132.9695   55.1042 H   0  0  0  0  0  0  0  0  0  0  0  0
  129.3440  132.6453   61.6405 H   0  0  0  0  0  0  0  0  0  0  0  0
  129.1231  134.1768   62.5870 H   0  0  0  0  0  0  0  0  0  0  0  0
  126.4540  132.0610   62.1160 H   0  0  0  0  0  0  0  0  0  0  0  0
  127.4533  129.6409   64.5318 H   0  0  0  0  0  0  0  0  0  0  0  0
  125.7870  128.3955   65.9377 H   0  0  0  0  0  0  0  0  0  0  0  0
  123.4388  129.1978   66.0289 H   0  0  0  0  0  0  0  0  0  0  0  0
  124.3236  132.3944   63.4217 H   0  0  0  0  0  0  0  0  0  0  0  0
  1  2  3  0
  2  3  1  0
  3  4  2  0
  4  5  1  0
  5  6  1  0
  5  7  1  0
  5  8  1  0
  4  9  1  0
  9 10  2  0
 10 11  1  0
 11 12  2  0
 12 13  1  0
 13 14  2  0
 14 15  1  0
 15 16  2  0
 10 17  1  0
 17 18  2  0
 18 19  1  0
 19 20  1  0
 20 21  1  0
 21 22  2  0
 21 23  1  0
 23 24  1  0
 24 25  2  0
 25 26  1  0
 26 27  2  0
 27 28  1  0
 28 29  2  0
 18  3  1  0
 29 24  1  0
 16 11  1  0
  9 30  1  0
 12 31  1  0
 13 32  1  0
 14 33  1  0
 15 34  1  0
 16 35  1  0
 20 36  1  0
 20 37  1  0
 23 38  1  0
 25 39  1  0
 26 40  1  0
 27 41  1  0
 29 42  1  0
M  END
>  <Binding energies>  (1) 
[-7.72]

>  <Ligand effiencies>  (1) 
[-0.2573333333333333]

>  <Interactions>  (1) 
["V-A:PRO:540:N:4879, V-A:TYR:539:CE2:4871, V-A:PRO:540:CG:4881, V-A:PRO:540:CA:4878, V-A:TYR:539:CE1:4870, V-A:TYR:539:CZ:4872, V-A:PRO:540:CB:4880, V-A:LEU:363:CD1:3184, V-A:PRO:540:CD:4882, V-A:TYR:539:CD2:4869, H-B:GLY:454:N:9017, V-B:ASP:366:CG:8180, V-B:TYR:531:CZ:9762, V-B:ASP:366:CB:8179, V-A:TYR:539:CD1:4868, V-A:ALA:541:CB:4887, V-A:ILE:538:CG2:4858, V-B:TYR:531:CE1:9760, V-B:ARG:545:CZ:9894, V-A:ILE:538:CA:4855, V-B:ASP:366:C:8175, V-B:ASP:366:CA:8177, V-A:ILE:538:C:4853, V-A:ILE:538:CB:4857, V-B:HIS:456:CE1:9037, H-B:TYR:484:OH:9315, V-B:ARG:545:CD:9891, V-A:ILE:538:CD1:4860"]

$$$$
3ag_Grossjean_2025
     RDKit          3D

 46 48  0  0  0  0  0  0  0  0999 V2000
  123.7850  130.8650   60.5790 N   0  0  0  0  0  0  0  0  0  0  0  0
  124.7090  131.0980   59.9220 C   0  0  0  0  0  0  0  0  0  0  0  0
  125.8790  131.3920   59.0890 C   0  0  0  0  0  0  0  0  0  0  0  0
  126.0550  130.7520   57.8380 C   0  0  0  0  0  0  0  0  0  0  0  0
  125.0220  129.7680   57.2540 C   0  0  0  0  0  0  0  0  0  0  0  0
  125.1000  128.5520   57.7980 F   0  0  0  0  0  0  0  0  0  0  0  0
  123.7890  130.2270   57.4670 F   0  0  0  0  0  0  0  0  0  0  0  0
  125.2120  129.6300   55.9410 F   0  0  0  0  0  0  0  0  0  0  0  0
  127.2180  131.0260   57.1020 C   0  0  0  0  0  0  0  0  0  0  0  0
  128.1830  131.9050   57.6060 C   0  0  0  0  0  0  0  0  0  0  0  0
  129.4430  132.2320   56.8640 C   0  0  0  0  0  0  0  0  0  0  0  0
  130.6790  132.2590   57.5290 C   0  0  0  0  0  0  0  0  0  0  0  0
  131.8540  132.5620   56.8460 C   0  0  0  0  0  0  0  0  0  0  0  0
  131.8080  132.8440   55.4840 C   0  0  0  0  0  0  0  0  0  0  0  0
  130.5950  132.8270   54.8030 C   0  0  0  0  0  0  0  0  0  0  0  0
  129.4230  132.5250   55.4890 C   0  0  0  0  0  0  0  0  0  0  0  0
  128.0040  132.5270   58.8000 N   0  0  0  0  0  0  0  0  0  0  0  0
  126.8790  132.2920   59.5190 C   0  0  0  0  0  0  0  0  0  0  0  0
  126.8140  133.1930   61.0510 S   0  0  0  0  0  0  0  0  0  0  0  0
  128.5050  133.7410   61.4300 C   0  0  0  0  0  0  0  0  0  0  0  0
  129.4180  132.5750   61.8130 C   0  0  0  0  0  0  0  0  0  0  0  0
  130.0690  132.6220   62.8580 O   0  0  0  0  0  0  0  0  0  0  0  0
  129.4500  131.5370   60.9600 N   0  0  0  0  0  0  0  0  0  0  0  0
  130.2230  130.3090   61.1450 C   0  0  0  0  0  0  0  0  0  0  0  0
  131.5710  130.3080   60.4330 C   0  0  0  0  0  0  0  0  0  0  0  0
  131.7090  129.6500   59.2090 C   0  0  0  0  0  0  0  0  0  0  0  0
  132.9310  129.6720   58.5410 C   0  0  0  0  0  0  0  0  0  0  0  0
  134.0070  130.3610   59.0950 C   0  0  0  0  0  0  0  0  0  0  0  0
  133.8730  131.0320   60.3080 C   0  0  0  0  0  0  0  0  0  0  0  0
  132.6510  131.0110   60.9760 C   0  0  0  0  0  0  0  0  0  0  0  0
  127.3718  130.5472   56.1237 H   0  0  0  0  0  0  0  0  0  0  0  0
  130.7199  132.0375   58.6057 H   0  0  0  0  0  0  0  0  0  0  0  0
  132.8150  132.5784   57.3810 H   0  0  0  0  0  0  0  0  0  0  0  0
  132.7358  133.0816   54.9430 H   0  0  0  0  0  0  0  0  0  0  0  0
  130.5627  133.0514   53.7266 H   0  0  0  0  0  0  0  0  0  0  0  0
  128.4657  132.5153   54.9472 H   0  0  0  0  0  0  0  0  0  0  0  0
  128.9223  134.2413   60.5437 H   0  0  0  0  0  0  0  0  0  0  0  0
  128.4535  134.4259   62.2892 H   0  0  0  0  0  0  0  0  0  0  0  0
  128.8770  131.5790   60.1290 H   0  0  0  0  0  0  0  0  0  0  0  0
  130.4011  130.1720   62.2218 H   0  0  0  0  0  0  0  0  0  0  0  0
  129.6314  129.4928   60.7046 H   0  0  0  0  0  0  0  0  0  0  0  0
  130.8529  129.1145   58.7726 H   0  0  0  0  0  0  0  0  0  0  0  0
  133.0456  129.1478   57.5807 H   0  0  0  0  0  0  0  0  0  0  0  0
  134.9730  130.3754   58.5690 H   0  0  0  0  0  0  0  0  0  0  0  0
  134.7279  131.5758   60.7363 H   0  0  0  0  0  0  0  0  0  0  0  0
  132.5356  131.5469   61.9297 H   0  0  0  0  0  0  0  0  0  0  0  0
  1  2  3  0
  2  3  1  0
  3  4  2  0
  4  5  1  0
  5  6  1  0
  5  7  1  0
  5  8  1  0
  4  9  1  0
  9 10  2  0
 10 11  1  0
 11 12  2  0
 12 13  1  0
 13 14  2  0
 14 15  1  0
 15 16  2  0
 10 17  1  0
 17 18  2  0
 18 19  1  0
 19 20  1  0
 20 21  1  0
 21 22  2  0
 21 23  1  0
 23 24  1  0
 24 25  1  0
 25 26  2  0
 26 27  1  0
 27 28  2  0
 28 29  1  0
 29 30  2  0
 18  3  1  0
 30 25  1  0
 16 11  1  0
  9 31  1  0
 12 32  1  0
 13 33  1  0
 14 34  1  0
 15 35  1  0
 16 36  1  0
 20 37  1  0
 20 38  1  0
 23 39  1  0
 24 40  1  0
 24 41  1  0
 26 42  1  0
 27 43  1  0
 28 44  1  0
 29 45  1  0
 30 46  1  0
M  END
>  <Binding energies>  (1) 
[-7.69]

>  <Ligand effiencies>  (1) 
[-0.24806451612903227]

>  <Interactions>  (1) 
["V-A:PRO:540:N:4879, V-A:ASN:362:C:3167, V-A:TYR:531:CZ:4789, V-A:TYR:539:CE2:4871, V-A:PRO:540:CG:4881, V-A:TYR:531:CE2:4788, V-A:PRO:540:CA:4878, V-A:PRO:540:C:4876, V-A:TYR:539:CE1:4870, V-A:ASP:366:CB:3207, H-A:ALA:541:N:4886, V-A:TYR:539:CZ:4872, V-A:PRO:540:CB:4880, V-A:LEU:363:CD1:3184, V-A:ASN:362:CB:3171, V-A:LEU:363:CA:3180, V-A:PRO:540:CD:4882, V-A:ASP:366:CG:3208, V-A:TYR:539:CD2:4869, V-B:ASP:366:CG:8180, V-B:TYR:531:CZ:9762, V-B:ASP:366:CB:8179, V-A:LEU:363:CB:3182, V-A:TYR:539:CD1:4868, V-A:ALA:541:CB:4887, V-A:ILE:538:CG2:4858, V-B:TYR:531:CE1:9760, V-A:ILE:538:CA:4855, V-B:ASP:366:C:8175, V-B:ASP:366:CA:8177, V-A:ILE:538:CD1:4860"]

$$$$
3ai_Grossjean_2025
     RDKit          3D

 39 41  0  0  0  0  0  0  0  0999 V2000
  124.2610  132.8720   61.9010 N   0  0  0  0  0  0  0  0  0  0  0  0
  125.2060  132.7990   61.2370 C   0  0  0  0  0  0  0  0  0  0  0  0
  126.4040  132.7070   60.3970 C   0  0  0  0  0  0  0  0  0  0  0  0
  127.4740  133.6210   60.5590 C   0  0  0  0  0  0  0  0  0  0  0  0
  127.4710  134.7220   61.6380 C   0  0  0  0  0  0  0  0  0  0  0  0
  128.6430  135.3530   61.7370 F   0  0  0  0  0  0  0  0  0  0  0  0
  126.5450  135.6380   61.3500 F   0  0  0  0  0  0  0  0  0  0  0  0
  127.2010  134.1940   62.8320 F   0  0  0  0  0  0  0  0  0  0  0  0
  128.5780  133.5210   59.6990 C   0  0  0  0  0  0  0  0  0  0  0  0
  128.6120  132.5400   58.7030 C   0  0  0  0  0  0  0  0  0  0  0  0
  129.7600  132.3940   57.7500 C   0  0  0  0  0  0  0  0  0  0  0  0
  129.7260  133.0100   56.4890 C   0  0  0  0  0  0  0  0  0  0  0  0
  130.7900  132.8830   55.6000 C   0  0  0  0  0  0  0  0  0  0  0  0
  131.9070  132.1370   55.9630 C   0  0  0  0  0  0  0  0  0  0  0  0
  131.9670  131.5190   57.2080 C   0  0  0  0  0  0  0  0  0  0  0  0
  130.9010  131.6490   58.0940 C   0  0  0  0  0  0  0  0  0  0  0  0
  127.5810  131.6710   58.5460 N   0  0  0  0  0  0  0  0  0  0  0  0
  126.5150  131.7320   59.3800 C   0  0  0  0  0  0  0  0  0  0  0  0
  125.2740  130.5020   59.0360 S   0  0  0  0  0  0  0  0  0  0  0  0
  125.6330  129.0410   60.0690 C   0  0  0  0  0  0  0  0  0  0  0  0
  125.6990  129.3140   61.5790 C   0  0  0  0  0  0  0  0  0  0  0  0
  126.7800  129.3190   62.1730 O   0  0  0  0  0  0  0  0  0  0  0  0
  124.5010  129.5370   62.1640 N   0  0  0  0  0  0  0  0  0  0  0  0
  124.2570  129.8150   63.5030 C   0  0  0  0  0  0  0  0  0  0  0  0
  125.1250  129.4430   64.5290 C   0  0  0  0  0  0  0  0  0  0  0  0
  124.5290  129.8930   65.6840 C   0  0  0  0  0  0  0  0  0  0  0  0
  123.3620  130.5050   65.3710 O   0  0  0  0  0  0  0  0  0  0  0  0
  123.2010  130.4490   63.9860 N   0  0  0  0  0  0  0  0  0  0  0  0
  129.4217  134.2183   59.8088 H   0  0  0  0  0  0  0  0  0  0  0  0
  128.8454  133.6020   56.1989 H   0  0  0  0  0  0  0  0  0  0  0  0
  130.7477  133.3704   54.6148 H   0  0  0  0  0  0  0  0  0  0  0  0
  132.7479  132.0352   55.2612 H   0  0  0  0  0  0  0  0  0  0  0  0
  132.8523  130.9306   57.4909 H   0  0  0  0  0  0  0  0  0  0  0  0
  130.9526  131.1611   59.0785 H   0  0  0  0  0  0  0  0  0  0  0  0
  124.8442  128.2952   59.8912 H   0  0  0  0  0  0  0  0  0  0  0  0
  126.6351  128.6954   59.7750 H   0  0  0  0  0  0  0  0  0  0  0  0
  123.6830  129.5060   61.5730 H   0  0  0  0  0  0  0  0  0  0  0  0
  126.0802  128.9056   64.4349 H   0  0  0  0  0  0  0  0  0  0  0  0
  124.9351  129.7748   66.6994 H   0  0  0  0  0  0  0  0  0  0  0  0
  1  2  3  0
  2  3  1  0
  3  4  2  0
  4  5  1  0
  5  6  1  0
  5  7  1  0
  5  8  1  0
  4  9  1  0
  9 10  2  0
 10 11  1  0
 11 12  2  0
 12 13  1  0
 13 14  2  0
 14 15  1  0
 15 16  2  0
 10 17  1  0
 17 18  2  0
 18 19  1  0
 19 20  1  0
 20 21  1  0
 21 22  2  0
 21 23  1  0
 23 24  1  0
 24 25  1  0
 25 26  2  0
 26 27  1  0
 27 28  1  0
 18  3  1  0
 28 24  2  0
 16 11  1  0
  9 29  1  0
 12 30  1  0
 13 31  1  0
 14 32  1  0
 15 33  1  0
 16 34  1  0
 20 35  1  0
 20 36  1  0
 23 37  1  0
 25 38  1  0
 26 39  1  0
M  END
>  <Binding energies>  (1) 
[-7.87]

>  <Ligand effiencies>  (1) 
[-0.2713793103448276]

>  <Interactions>  (1) 
["H-B:ASP:366:OD1:8181, H-B:ASP:366:OD2:8182, V-A:PRO:540:N:4879, V-A:TYR:539:CE2:4871, V-A:PRO:540:CA:4878, V-A:PRO:540:C:4876, V-A:TYR:539:CE1:4870, V-A:ALA:541:CA:4885, V-A:TYR:539:CZ:4872, V-A:PRO:540:CB:4880, V-A:LEU:363:CD1:3184, V-A:TYR:539:C:4862, V-A:PRO:540:CD:4882, H-B:ARG:545:NH1:9895, V-A:TYR:539:CD2:4869, H-B:GLY:454:N:9017, V-B:LEU:475:CD2:9226, V-B:TRP:381:CH2:8339, V-B:ASP:366:CG:8180, V-B:ASP:366:CB:8179, V-A:TYR:539:CD1:4868, V-A:ALA:541:CB:4887, V-A:TYR:539:CG:4867, V-A:TYR:539:CA:4864, V-B:ARG:545:CZ:9894, H-A:TYR:539:OH:4873, V-A:ILE:538:CA:4855, V-B:LEU:475:CD1:9225, V-B:HIS:456:CE1:9037, V-B:ARG:545:CD:9891, V-B:LEU:475:CG:9224, V-B:TRP:381:CZ2:8337, V-B:PRO:482:CB:9293"]

$$$$
3aj_Grossjean_2025
     RDKit          3D

 39 41  0  0  0  0  0  0  0  0999 V2000
  124.1490  133.2180   61.8560 N   0  0  0  0  0  0  0  0  0  0  0  0
  125.1100  133.0850   61.2260 C   0  0  0  0  0  0  0  0  0  0  0  0
  126.3290  132.9180   60.4300 C   0  0  0  0  0  0  0  0  0  0  0  0
  127.4380  133.7790   60.6150 C   0  0  0  0  0  0  0  0  0  0  0  0
  127.4540  134.8990   61.6730 C   0  0  0  0  0  0  0  0  0  0  0  0
  126.5980  135.8860   61.3960 F   0  0  0  0  0  0  0  0  0  0  0  0
  127.1250  134.4040   62.8670 F   0  0  0  0  0  0  0  0  0  0  0  0
  128.6710  135.4380   61.7490 F   0  0  0  0  0  0  0  0  0  0  0  0
  128.5640  133.6080   59.7940 C   0  0  0  0  0  0  0  0  0  0  0  0
  128.5810  132.6090   58.8160 C   0  0  0  0  0  0  0  0  0  0  0  0
  129.7520  132.3890   57.9070 C   0  0  0  0  0  0  0  0  0  0  0  0
  130.8500  131.6240   58.3280 C   0  0  0  0  0  0  0  0  0  0  0  0
  131.9410  131.4120   57.4870 C   0  0  0  0  0  0  0  0  0  0  0  0
  131.9460  131.9660   56.2110 C   0  0  0  0  0  0  0  0  0  0  0  0
  130.8680  132.7270   55.7700 C   0  0  0  0  0  0  0  0  0  0  0  0
  129.7800  132.9350   56.6130 C   0  0  0  0  0  0  0  0  0  0  0  0
  127.5120  131.7900   58.6370 N   0  0  0  0  0  0  0  0  0  0  0  0
  126.4230  131.9200   59.4320 C   0  0  0  0  0  0  0  0  0  0  0  0
  125.1340  130.7490   59.0680 S   0  0  0  0  0  0  0  0  0  0  0  0
  125.3170  129.3410   60.2150 C   0  0  0  0  0  0  0  0  0  0  0  0
  125.5200  129.7260   61.6880 C   0  0  0  0  0  0  0  0  0  0  0  0
  126.5540  130.2870   62.0570 O   0  0  0  0  0  0  0  0  0  0  0  0
  124.4920  129.4000   62.5030 N   0  0  0  0  0  0  0  0  0  0  0  0
  124.4100  129.6370   63.8690 C   0  0  0  0  0  0  0  0  0  0  0  0
  123.5450  130.3960   64.5060 N   0  0  0  0  0  0  0  0  0  0  0  0
  123.7580  130.3880   65.8070 C   0  0  0  0  0  0  0  0  0  0  0  0
  124.8210  129.6060   66.2520 C   0  0  0  0  0  0  0  0  0  0  0  0
  125.5750  128.8470   64.8830 S   0  0  0  0  0  0  0  0  0  0  0  0
  129.4379  134.2638   59.9210 H   0  0  0  0  0  0  0  0  0  0  0  0
  130.8499  131.1851   59.3366 H   0  0  0  0  0  0  0  0  0  0  0  0
  132.7945  130.8092   57.8308 H   0  0  0  0  0  0  0  0  0  0  0  0
  132.8073  131.8014   55.5468 H   0  0  0  0  0  0  0  0  0  0  0  0
  130.8754  133.1623   54.7598 H   0  0  0  0  0  0  0  0  0  0  0  0
  128.9290  133.5362   56.2604 H   0  0  0  0  0  0  0  0  0  0  0  0
  124.4090  128.7240   60.1456 H   0  0  0  0  0  0  0  0  0  0  0  0
  126.2301  128.8104   59.9072 H   0  0  0  0  0  0  0  0  0  0  0  0
  123.6930  128.9470   62.0860 H   0  0  0  0  0  0  0  0  0  0  0  0
  123.1314  130.9664   66.5019 H   0  0  0  0  0  0  0  0  0  0  0  0
  125.1327  129.4880   67.3003 H   0  0  0  0  0  0  0  0  0  0  0  0
  1  2  3  0
  2  3  1  0
  3  4  2  0
  4  5  1  0
  5  6  1  0
  5  7  1  0
  5  8  1  0
  4  9  1  0
  9 10  2  0
 10 11  1  0
 11 12  2  0
 12 13  1  0
 13 14  2  0
 14 15  1  0
 15 16  2  0
 10 17  1  0
 17 18  2  0
 18 19  1  0
 19 20  1  0
 20 21  1  0
 21 22  2  0
 21 23  1  0
 23 24  1  0
 24 25  2  0
 25 26  1  0
 26 27  2  0
 27 28  1  0
 18  3  1  0
 28 24  1  0
 16 11  1  0
  9 29  1  0
 12 30  1  0
 13 31  1  0
 14 32  1  0
 15 33  1  0
 16 34  1  0
 20 35  1  0
 20 36  1  0
 23 37  1  0
 26 38  1  0
 27 39  1  0
M  END
>  <Binding energies>  (1) 
[-7.63]

>  <Ligand effiencies>  (1) 
[-0.2631034482758621]

>  <Interactions>  (1) 
["H-B:ASP:366:OD1:8181, H-B:ASP:366:OD2:8182, V-A:PRO:540:N:4879, V-A:TYR:539:CE2:4871, V-A:PRO:540:CA:4878, V-A:PRO:540:C:4876, V-A:TYR:539:CE1:4870, V-A:ALA:541:CA:4885, V-A:TYR:539:CZ:4872, V-A:PRO:540:CB:4880, V-A:LEU:363:CD1:3184, V-A:TYR:539:C:4862, V-A:PRO:540:CD:4882, V-B:GLY:454:CA:9016, V-A:TYR:539:CD2:4869, H-B:GLY:454:N:9017, V-B:LEU:475:CD2:9226, V-B:TRP:381:CH2:8339, V-B:ASP:366:CG:8180, V-B:ASP:366:CB:8179, V-A:TYR:539:CD1:4868, V-A:ALA:541:CB:4887, V-A:TYR:539:CG:4867, V-A:TYR:539:CA:4864, V-B:ARG:545:CZ:9894, H-A:TYR:539:OH:4873, V-B:LEU:475:CD1:9225, V-B:HIS:456:CE1:9037, V-B:ARG:545:CG:9890, V-B:ARG:545:CD:9891, V-B:LEU:475:CG:9224, V-B:TRP:381:CZ2:8337, V-B:PRO:482:CB:9293"]

$$$$
3ak_Grossjean_2025
     RDKit          3D

 57 58  0  0  0  0  0  0  0  0999 V2000
  124.0640  130.0170   64.4750 C   0  0  0  0  0  0  0  0  0  0  0  0
  123.5870  131.1080   63.7020 O   0  0  0  0  0  0  0  0  0  0  0  0
  124.6150  131.8040   63.0130 C   0  0  0  0  0  0  0  0  0  0  0  0
  124.0680  132.2980   61.6680 C   0  0  0  0  0  0  0  0  0  0  0  0
  124.6460  131.5250   60.6210 O   0  0  0  0  0  0  0  0  0  0  0  0
  123.7310  130.7420   59.8590 C   0  0  0  0  0  0  0  0  0  0  0  0
  124.1180  130.6070   58.3750 C   0  0  0  0  0  0  0  0  0  0  0  0
  124.6870  129.3230   58.1550 O   0  0  0  0  0  0  0  0  0  0  0  0
  126.0340  129.3600   57.7040 C   0  0  0  0  0  0  0  0  0  0  0  0
  126.7050  130.6750   58.1390 C   0  0  0  0  0  0  0  0  0  0  0  0
  127.3420  131.4000   57.0370 N   0  0  0  0  0  0  0  0  0  0  0  0
  127.7030  130.8760   55.8500 C   0  0  0  0  0  0  0  0  0  0  0  0
  127.5110  129.6950   55.5570 O   0  0  0  0  0  0  0  0  0  0  0  0
  128.3850  131.7860   54.8150 C   0  0  0  0  0  0  0  0  0  0  0  0
  129.6610  132.9350   55.4510 S   0  0  0  0  0  0  0  0  0  0  0  0
  130.1950  132.3660   57.0570 C   0  0  0  0  0  0  0  0  0  0  0  0
  129.4430  132.7800   58.1060 N   0  0  0  0  0  0  0  0  0  0  0  0
  129.7730  132.4060   59.3680 C   0  0  0  0  0  0  0  0  0  0  0  0
  128.8850  132.9080   60.4680 C   0  0  0  0  0  0  0  0  0  0  0  0
  127.8450  133.8090   60.1940 C   0  0  0  0  0  0  0  0  0  0  0  0
  127.0150  134.2770   61.2110 C   0  0  0  0  0  0  0  0  0  0  0  0
  127.2150  133.8460   62.5180 C   0  0  0  0  0  0  0  0  0  0  0  0
  128.2370  132.9520   62.8150 C   0  0  0  0  0  0  0  0  0  0  0  0
  129.0640  132.4860   61.7970 C   0  0  0  0  0  0  0  0  0  0  0  0
  130.8760  131.5780   59.6050 C   0  0  0  0  0  0  0  0  0  0  0  0
  131.6700  131.1340   58.5380 C   0  0  0  0  0  0  0  0  0  0  0  0
  132.8790  130.2260   58.8380 C   0  0  0  0  0  0  0  0  0  0  0  0
  132.5290  128.9460   58.7160 F   0  0  0  0  0  0  0  0  0  0  0  0
  133.8700  130.4870   57.9850 F   0  0  0  0  0  0  0  0  0  0  0  0
  133.3600  130.3950   60.0720 F   0  0  0  0  0  0  0  0  0  0  0  0
  131.3260  131.5370   57.2250 C   0  0  0  0  0  0  0  0  0  0  0  0
  132.1200  131.1040   56.0710 C   0  0  0  0  0  0  0  0  0  0  0  0
  132.7480  130.7630   55.1600 N   0  0  0  0  0  0  0  0  0  0  0  0
  123.9610  130.2526   65.5445 H   0  0  0  0  0  0  0  0  0  0  0  0
  123.4774  129.1167   64.2397 H   0  0  0  0  0  0  0  0  0  0  0  0
  125.1232  129.8363   64.2397 H   0  0  0  0  0  0  0  0  0  0  0  0
  124.9460  132.6633   63.6147 H   0  0  0  0  0  0  0  0  0  0  0  0
  125.4693  131.1323   62.8429 H   0  0  0  0  0  0  0  0  0  0  0  0
  122.9741  132.1837   61.6502 H   0  0  0  0  0  0  0  0  0  0  0  0
  124.3221  133.3594   61.5304 H   0  0  0  0  0  0  0  0  0  0  0  0
  123.6856  129.7349   60.2990 H   0  0  0  0  0  0  0  0  0  0  0  0
  122.7605  131.2588   59.8923 H   0  0  0  0  0  0  0  0  0  0  0  0
  123.2212  130.7241   57.7488 H   0  0  0  0  0  0  0  0  0  0  0  0
  124.8494  131.3853   58.1117 H   0  0  0  0  0  0  0  0  0  0  0  0
  126.5849  128.5111   58.1353 H   0  0  0  0  0  0  0  0  0  0  0  0
  126.0464  129.2972   56.6059 H   0  0  0  0  0  0  0  0  0  0  0  0
  125.9387  131.3252   58.5863 H   0  0  0  0  0  0  0  0  0  0  0  0
  127.4986  130.4116   58.8537 H   0  0  0  0  0  0  0  0  0  0  0  0
  127.5150  132.3820   57.1950 H   0  0  0  0  0  0  0  0  0  0  0  0
  128.8624  131.1390   54.0644 H   0  0  0  0  0  0  0  0  0  0  0  0
  127.5845  132.4295   54.4213 H   0  0  0  0  0  0  0  0  0  0  0  0
  127.6823  134.1510   59.1613 H   0  0  0  0  0  0  0  0  0  0  0  0
  126.2048  134.9846   60.9808 H   0  0  0  0  0  0  0  0  0  0  0  0
  126.5605  134.2148   63.3215 H   0  0  0  0  0  0  0  0  0  0  0  0
  128.3916  132.6141   63.8503 H   0  0  0  0  0  0  0  0  0  0  0  0
  129.8700  131.7766   62.0360 H   0  0  0  0  0  0  0  0  0  0  0  0
  131.1213  131.2740   60.6333 H   0  0  0  0  0  0  0  0  0  0  0  0
  1  2  1  0
  2  3  1  0
  3  4  1  0
  4  5  1  0
  5  6  1  0
  6  7  1  0
  7  8  1  0
  8  9  1  0
  9 10  1  0
 10 11  1  0
 11 12  1  0
 12 13  2  0
 12 14  1  0
 14 15  1  0
 15 16  1  0
 16 17  2  0
 17 18  1  0
 18 19  1  0
 19 20  2  0
 20 21  1  0
 21 22  2  0
 22 23  1  0
 23 24  2  0
 18 25  2  0
 25 26  1  0
 26 27  1  0
 27 28  1  0
 27 29  1  0
 27 30  1  0
 26 31  2  0
 31 32  1  0
 32 33  3  0
 31 16  1  0
 24 19  1  0
  1 34  1  0
  1 35  1  0
  1 36  1  0
  3 37  1  0
  3 38  1  0
  4 39  1  0
  4 40  1  0
  6 41  1  0
  6 42  1  0
  7 43  1  0
  7 44  1  0
  9 45  1  0
  9 46  1  0
 10 47  1  0
 10 48  1  0
 11 49  1  0
 14 50  1  0
 14 51  1  0
 20 52  1  0
 21 53  1  0
 22 54  1  0
 23 55  1  0
 24 56  1  0
 25 57  1  0
M  END
>  <Binding energies>  (1) 
[-5.62]

>  <Ligand effiencies>  (1) 
[-0.1652941176470588]

>  <Interactions>  (1) 
["V-A:PRO:540:N:4879, V-A:ASN:362:C:3167, V-A:TYR:531:CZ:4789, V-A:TYR:539:CE2:4871, V-A:TYR:531:CE2:4788, V-A:PRO:540:CA:4878, V-A:TYR:539:CE1:4870, V-A:ASP:366:CB:3207, V-A:TYR:539:CZ:4872, V-A:PRO:540:CB:4880, V-A:LEU:363:CD1:3184, V-A:TYR:539:C:4862, V-A:LEU:363:CA:3180, V-A:ASP:366:CG:3208, V-A:TYR:539:CD2:4869, H-B:GLY:454:N:9017, V-B:ILE:369:CD1:8206, V-B:LEU:475:CD2:9226, H-A:TYR:539:N:4865, V-B:ASP:366:CG:8180, V-B:ASP:366:CB:8179, V-A:LEU:363:CB:3182, V-A:TYR:539:CD1:4868, V-A:ALA:541:CB:4887, V-B:ARG:545:CZ:9894, H-A:TYR:539:OH:4873, V-B:LEU:475:CD1:9225, V-B:ASP:366:C:8175, V-B:ASP:366:CA:8177, H-A:TYR:531:OH:4790, H-B:TYR:531:OH:9763"]

$$$$
3bc_Grossjean_2025
     RDKit          3D

 47 49  0  0  0  0  0  0  0  0999 V2000
  136.3240  123.2170   76.0040 C   0  0  0  0  0  0  0  0  0  0  0  0
  135.1160  123.7930   76.4900 O   0  0  0  0  0  0  0  0  0  0  0  0
  134.4400  124.7050   75.7010 C   0  0  0  0  0  0  0  0  0  0  0  0
  133.1140  124.3980   75.3940 C   0  0  0  0  0  0  0  0  0  0  0  0
  132.3520  125.2560   74.6050 C   0  0  0  0  0  0  0  0  0  0  0  0
  132.9120  126.4340   74.1050 C   0  0  0  0  0  0  0  0  0  0  0  0
  132.0620  127.2430   73.3290 N   0  0  0  0  0  0  0  0  0  0  0  0
  130.7170  127.3570   73.3750 C   0  0  0  0  0  0  0  0  0  0  0  0
  129.9900  126.7640   74.1750 O   0  0  0  0  0  0  0  0  0  0  0  0
  130.1210  128.3410   72.3580 C   0  0  0  0  0  0  0  0  0  0  0  0
  128.6950  127.7090   71.4120 S   0  0  0  0  0  0  0  0  0  0  0  0
  129.2410  126.2920   70.4850 C   0  0  0  0  0  0  0  0  0  0  0  0
  129.5410  125.2180   71.2570 N   0  0  0  0  0  0  0  0  0  0  0  0
  129.9690  124.0670   70.6770 C   0  0  0  0  0  0  0  0  0  0  0  0
  130.3000  122.9330   71.6020 C   0  0  0  0  0  0  0  0  0  0  0  0
  129.3490  121.9420   71.8890 C   0  0  0  0  0  0  0  0  0  0  0  0
  129.6490  120.8860   72.7460 C   0  0  0  0  0  0  0  0  0  0  0  0
  130.9080  120.8100   73.3320 C   0  0  0  0  0  0  0  0  0  0  0  0
  131.8680  121.7810   73.0660 C   0  0  0  0  0  0  0  0  0  0  0  0
  131.5630  122.8350   72.2090 C   0  0  0  0  0  0  0  0  0  0  0  0
  130.1080  123.9700   69.2890 C   0  0  0  0  0  0  0  0  0  0  0  0
  129.7810  125.0610   68.4770 C   0  0  0  0  0  0  0  0  0  0  0  0
  129.9310  124.9040   66.9640 C   0  0  0  0  0  0  0  0  0  0  0  0
  129.3250  126.2560   69.0750 C   0  0  0  0  0  0  0  0  0  0  0  0
  128.9310  127.3940   68.2420 C   0  0  0  0  0  0  0  0  0  0  0  0
  128.6200  128.2920   67.5820 N   0  0  0  0  0  0  0  0  0  0  0  0
  134.2400  126.7560   74.4200 C   0  0  0  0  0  0  0  0  0  0  0  0
  134.9990  125.8950   75.2100 C   0  0  0  0  0  0  0  0  0  0  0  0
  136.9546  122.9163   76.8536 H   0  0  0  0  0  0  0  0  0  0  0  0
  136.0888  122.3341   75.3914 H   0  0  0  0  0  0  0  0  0  0  0  0
  136.8619  123.9555   75.3914 H   0  0  0  0  0  0  0  0  0  0  0  0
  132.6664  123.4697   75.7787 H   0  0  0  0  0  0  0  0  0  0  0  0
  131.3060  125.0053   74.3748 H   0  0  0  0  0  0  0  0  0  0  0  0
  132.5420  127.8620   72.6920 H   0  0  0  0  0  0  0  0  0  0  0  0
  129.7967  129.2396   72.9033 H   0  0  0  0  0  0  0  0  0  0  0  0
  130.9140  128.5373   71.6214 H   0  0  0  0  0  0  0  0  0  0  0  0
  128.3510  122.0001   71.4300 H   0  0  0  0  0  0  0  0  0  0  0  0
  128.8934  120.1153   72.9585 H   0  0  0  0  0  0  0  0  0  0  0  0
  131.1461  119.9771   74.0099 H   0  0  0  0  0  0  0  0  0  0  0  0
  132.8631  121.7164   73.5304 H   0  0  0  0  0  0  0  0  0  0  0  0
  132.3231  123.6032   72.0040 H   0  0  0  0  0  0  0  0  0  0  0  0
  130.4741  123.0368   68.8362 H   0  0  0  0  0  0  0  0  0  0  0  0
  130.6761  124.1241   66.7484 H   0  0  0  0  0  0  0  0  0  0  0  0
  128.9630  124.6170   66.5274 H   0  0  0  0  0  0  0  0  0  0  0  0
  130.2618  125.8579   66.5274 H   0  0  0  0  0  0  0  0  0  0  0  0
  134.6831  127.6895   74.0429 H   0  0  0  0  0  0  0  0  0  0  0  0
  136.0419  126.1493   75.4501 H   0  0  0  0  0  0  0  0  0  0  0  0
  1  2  1  0
  2  3  1  0
  3  4  2  0
  4  5  1  0
  5  6  2  0
  6  7  1  0
  7  8  1  0
  8  9  2  0
  8 10  1  0
 10 11  1  0
 11 12  1  0
 12 13  2  0
 13 14  1  0
 14 15  1  0
 15 16  2  0
 16 17  1  0
 17 18  2  0
 18 19  1  0
 19 20  2  0
 14 21  2  0
 21 22  1  0
 22 23  1  0
 22 24  2  0
 24 25  1  0
 25 26  3  0
  6 27  1  0
 27 28  2  0
 28  3  1  0
 24 12  1  0
 20 15  1  0
  1 29  1  0
  1 30  1  0
  1 31  1  0
  4 32  1  0
  5 33  1  0
  7 34  1  0
 10 35  1  0
 10 36  1  0
 16 37  1  0
 17 38  1  0
 18 39  1  0
 19 40  1  0
 20 41  1  0
 21 42  1  0
 23 43  1  0
 23 44  1  0
 23 45  1  0
 27 46  1  0
 28 47  1  0
M  END
>  <Binding energies>  (1) 
[-7.65]

>  <Ligand effiencies>  (1) 
[-0.2637931034482759]

>  <Interactions>  (1) 
["V-B:GLU:543:CG:9875, V-A:TYR:484:CE1:4340, V-A:TYR:484:CZ:4342, V-B:GLU:543:CA:9872, V-A:HIS:456:CE1:4064, V-B:GLU:543:CB:9874, V-A:LYS:471:CG:4213, V-A:LYS:547:CE:4945, V-A:LYS:471:CB:4212, V-A:HIS:456:C:4056, H-B:LYS:547:NZ:9919, V-A:HIS:456:CG:4061, H-A:LYS:547:NZ:4946, V-A:HIS:456:CB:4060, V-A:VAL:458:CG2:4082, V-A:ASP:473:CG:4235, V-A:LYS:547:CD:4944, V-B:GLU:543:C:9870, H-A:GLY:544:O:4908, V-A:TYR:484:CB:4336, V-A:TYR:484:CG:4337, V-A:ASP:473:CB:4234, V-A:TYR:484:CD2:4339, V-A:HIS:456:CD2:4063, V-A:LYS:547:CG:4943, H-A:HIS:456:ND1:4062, V-A:TYR:484:CD1:4338, V-A:VAL:457:C:4068, V-A:VAL:457:CA:4070, V-A:LYS:471:C:4208, V-A:LEU:472:CA:4223, V-A:LEU:472:C:4221"]

$$$$
3bd_Grossjean_2025
     RDKit          3D

 43 45  0  0  0  0  0  0  0  0999 V2000
  125.2740  129.7620   57.1990 C   0  0  0  0  0  0  0  0  0  0  0  0
  126.4100  130.7030   57.5970 C   0  0  0  0  0  0  0  0  0  0  0  0
  127.5280  130.7810   56.7590 C   0  0  0  0  0  0  0  0  0  0  0  0
  128.5920  131.6280   57.0900 C   0  0  0  0  0  0  0  0  0  0  0  0
  129.8170  131.7620   56.2350 C   0  0  0  0  0  0  0  0  0  0  0  0
  130.5190  132.9770   56.1730 C   0  0  0  0  0  0  0  0  0  0  0  0
  131.6560  133.1090   55.3800 C   0  0  0  0  0  0  0  0  0  0  0  0
  132.1080  132.0250   54.6350 C   0  0  0  0  0  0  0  0  0  0  0  0
  131.4290  130.8120   54.6760 C   0  0  0  0  0  0  0  0  0  0  0  0
  130.2930  130.6840   55.4690 C   0  0  0  0  0  0  0  0  0  0  0  0
  128.5500  132.3910   58.2130 N   0  0  0  0  0  0  0  0  0  0  0  0
  127.4740  132.3270   59.0380 C   0  0  0  0  0  0  0  0  0  0  0  0
  127.5460  133.3690   60.4860 S   0  0  0  0  0  0  0  0  0  0  0  0
  128.2500  132.3930   61.8480 C   0  0  0  0  0  0  0  0  0  0  0  0
  129.7530  132.1740   61.6790 C   0  0  0  0  0  0  0  0  0  0  0  0
  130.5210  132.5960   62.5450 O   0  0  0  0  0  0  0  0  0  0  0  0
  130.1280  131.5280   60.5530 N   0  0  0  0  0  0  0  0  0  0  0  0
  131.4200  131.1590   60.1320 C   0  0  0  0  0  0  0  0  0  0  0  0
  131.5420  130.7680   58.7970 C   0  0  0  0  0  0  0  0  0  0  0  0
  132.7800  130.3770   58.2910 C   0  0  0  0  0  0  0  0  0  0  0  0
  133.8940  130.3680   59.1250 C   0  0  0  0  0  0  0  0  0  0  0  0
  133.7820  130.7430   60.4620 C   0  0  0  0  0  0  0  0  0  0  0  0
  132.5460  131.1350   60.9700 C   0  0  0  0  0  0  0  0  0  0  0  0
  126.3710  131.4880   58.7680 C   0  0  0  0  0  0  0  0  0  0  0  0
  125.2130  131.4300   59.6660 C   0  0  0  0  0  0  0  0  0  0  0  0
  124.2980  131.3840   60.3730 N   0  0  0  0  0  0  0  0  0  0  0  0
  124.7933  129.3638   58.1048 H   0  0  0  0  0  0  0  0  0  0  0  0
  124.5325  130.3140   56.6028 H   0  0  0  0  0  0  0  0  0  0  0  0
  125.6783  128.9307   56.6028 H   0  0  0  0  0  0  0  0  0  0  0  0
  127.5706  130.1770   55.8407 H   0  0  0  0  0  0  0  0  0  0  0  0
  130.1652  133.8375   56.7599 H   0  0  0  0  0  0  0  0  0  0  0  0
  132.1948  134.0673   55.3429 H   0  0  0  0  0  0  0  0  0  0  0  0
  133.0074  132.1276   54.0100 H   0  0  0  0  0  0  0  0  0  0  0  0
  131.7885  129.9574   54.0840 H   0  0  0  0  0  0  0  0  0  0  0  0
  129.7584  129.7230   55.4969 H   0  0  0  0  0  0  0  0  0  0  0  0
  128.0729  132.9249   62.7944 H   0  0  0  0  0  0  0  0  0  0  0  0
  127.7612  131.4076   61.8475 H   0  0  0  0  0  0  0  0  0  0  0  0
  129.3960  131.3230   59.8890 H   0  0  0  0  0  0  0  0  0  0  0  0
  130.6578  130.7687   58.1426 H   0  0  0  0  0  0  0  0  0  0  0  0
  132.8763  130.0768   57.2371 H   0  0  0  0  0  0  0  0  0  0  0  0
  134.8719  130.0620   58.7249 H   0  0  0  0  0  0  0  0  0  0  0  0
  134.6674  130.7295   61.1146 H   0  0  0  0  0  0  0  0  0  0  0  0
  132.4521  131.4255   62.0268 H   0  0  0  0  0  0  0  0  0  0  0  0
  1  2  1  0
  2  3  2  0
  3  4  1  0
  4  5  1  0
  5  6  2  0
  6  7  1  0
  7  8  2  0
  8  9  1  0
  9 10  2  0
  4 11  2  0
 11 12  1  0
 12 13  1  0
 13 14  1  0
 14 15  1  0
 15 16  2  0
 15 17  1  0
 17 18  1  0
 18 19  2  0
 19 20  1  0
 20 21  2  0
 21 22  1  0
 22 23  2  0
 12 24  2  0
 24 25  1  0
 25 26  3  0
 24  2  1  0
 10  5  1  0
 23 18  1  0
  1 27  1  0
  1 28  1  0
  1 29  1  0
  3 30  1  0
  6 31  1  0
  7 32  1  0
  8 33  1  0
  9 34  1  0
 10 35  1  0
 14 36  1  0
 14 37  1  0
 17 38  1  0
 19 39  1  0
 20 40  1  0
 21 41  1  0
 22 42  1  0
 23 43  1  0
M  END
>  <Binding energies>  (1) 
[-8.13]

>  <Ligand effiencies>  (1) 
[-0.30111111111111116]

>  <Interactions>  (1) 
["V-A:PRO:540:N:4879, V-A:ASN:362:C:3167, V-A:TYR:531:CZ:4789, V-A:TYR:539:CE2:4871, V-A:TYR:531:CE2:4788, V-A:PRO:540:CA:4878, V-A:TYR:539:CE1:4870, H-A:ALA:541:N:4886, V-A:TYR:539:CZ:4872, V-A:PRO:540:CB:4880, V-A:LEU:363:CD1:3184, V-A:TYR:539:C:4862, V-A:ASN:362:CB:3171, V-A:LEU:363:CA:3180, V-A:PRO:540:CD:4882, V-A:ASP:366:CG:3208, V-A:TYR:539:CD2:4869, V-B:ASP:366:CB:8179, V-A:LEU:363:CB:3182, V-A:TYR:539:CD1:4868, V-A:ILE:538:CG2:4858, V-A:ILE:538:CA:4855, V-A:ILE:538:C:4853, V-A:ILE:538:CB:4857, V-A:ILE:538:CD1:4860"]

$$$$
3be_Grossjean_2025
     RDKit          3D

 45 47  0  0  0  0  0  0  0  0999 V2000
  135.2900  124.8760   66.5480 C   0  0  0  0  0  0  0  0  0  0  0  0
  134.0750  125.1430   65.6830 C   0  0  0  0  0  0  0  0  0  0  0  0
  132.8580  125.5490   66.2350 C   0  0  0  0  0  0  0  0  0  0  0  0
  131.7800  125.7740   65.3780 C   0  0  0  0  0  0  0  0  0  0  0  0
  131.9430  125.5890   64.0030 C   0  0  0  0  0  0  0  0  0  0  0  0
  133.1910  125.1840   63.5140 C   0  0  0  0  0  0  0  0  0  0  0  0
  133.2880  125.0060   62.1220 N   0  0  0  0  0  0  0  0  0  0  0  0
  132.3040  124.7560   61.2310 C   0  0  0  0  0  0  0  0  0  0  0  0
  131.1120  124.6340   61.5200 O   0  0  0  0  0  0  0  0  0  0  0  0
  132.7740  124.6280   59.7730 C   0  0  0  0  0  0  0  0  0  0  0  0
  132.8440  122.9220   59.1270 S   0  0  0  0  0  0  0  0  0  0  0  0
  131.4910  122.0070   59.8330 C   0  0  0  0  0  0  0  0  0  0  0  0
  130.2890  122.6160   59.6870 N   0  0  0  0  0  0  0  0  0  0  0  0
  129.1660  122.0260   60.1760 C   0  0  0  0  0  0  0  0  0  0  0  0
  127.8790  122.7720   59.9850 C   0  0  0  0  0  0  0  0  0  0  0  0
  127.1580  123.2550   61.0890 C   0  0  0  0  0  0  0  0  0  0  0  0
  125.9620  123.9460   60.9190 C   0  0  0  0  0  0  0  0  0  0  0  0
  125.4670  124.1630   59.6380 C   0  0  0  0  0  0  0  0  0  0  0  0
  126.1590  123.6940   58.5270 C   0  0  0  0  0  0  0  0  0  0  0  0
  127.3550  123.0030   58.7020 C   0  0  0  0  0  0  0  0  0  0  0  0
  129.2330  120.7940   60.8360 C   0  0  0  0  0  0  0  0  0  0  0  0
  130.4620  120.1410   60.9740 C   0  0  0  0  0  0  0  0  0  0  0  0
  130.4830  118.7900   61.6860 C   0  0  0  0  0  0  0  0  0  0  0  0
  131.6270  120.7450   60.4540 C   0  0  0  0  0  0  0  0  0  0  0  0
  132.9150  120.0530   60.5400 C   0  0  0  0  0  0  0  0  0  0  0  0
  133.9320  119.5050   60.6080 N   0  0  0  0  0  0  0  0  0  0  0  0
  134.2480  124.9600   64.3490 N   0  0  0  0  0  0  0  0  0  0  0  0
  135.0058  124.9385   67.6088 H   0  0  0  0  0  0  0  0  0  0  0  0
  135.6804  123.8706   66.3316 H   0  0  0  0  0  0  0  0  0  0  0  0
  136.0659  125.6251   66.3316 H   0  0  0  0  0  0  0  0  0  0  0  0
  132.7517  125.6883   67.3210 H   0  0  0  0  0  0  0  0  0  0  0  0
  130.8086  126.0948   65.7823 H   0  0  0  0  0  0  0  0  0  0  0  0
  131.1026  125.7591   63.3140 H   0  0  0  0  0  0  0  0  0  0  0  0
  134.2280  125.0470   61.7570 H   0  0  0  0  0  0  0  0  0  0  0  0
  132.0821  125.2035   59.1405 H   0  0  0  0  0  0  0  0  0  0  0  0
  133.8068  125.0060   59.7505 H   0  0  0  0  0  0  0  0  0  0  0  0
  127.5448  123.0844   62.1045 H   0  0  0  0  0  0  0  0  0  0  0  0
  125.4105  124.3190   61.7946 H   0  0  0  0  0  0  0  0  0  0  0  0
  124.5219  124.7092   59.5026 H   0  0  0  0  0  0  0  0  0  0  0  0
  125.7637  123.8679   57.5153 H   0  0  0  0  0  0  0  0  0  0  0  0
  127.8988  122.6317   57.8209 H   0  0  0  0  0  0  0  0  0  0  0  0
  128.3193  120.3392   61.2462 H   0  0  0  0  0  0  0  0  0  0  0  0
  130.4805  118.9491   62.7744 H   0  0  0  0  0  0  0  0  0  0  0  0
  129.5938  118.2100   61.3982 H   0  0  0  0  0  0  0  0  0  0  0  0
  131.3898  118.2379   61.3982 H   0  0  0  0  0  0  0  0  0  0  0  0
  1  2  1  0
  2  3  2  0
  3  4  1  0
  4  5  2  0
  5  6  1  0
  6  7  1  0
  7  8  1  0
  8  9  2  0
  8 10  1  0
 10 11  1  0
 11 12  1  0
 12 13  2  0
 13 14  1  0
 14 15  1  0
 15 16  2  0
 16 17  1  0
 17 18  2  0
 18 19  1  0
 19 20  2  0
 14 21  2  0
 21 22  1  0
 22 23  1  0
 22 24  2  0
 24 25  1  0
 25 26  3  0
  6 27  2  0
 27  2  1  0
 24 12  1  0
 20 15  1  0
  1 28  1  0
  1 29  1  0
  1 30  1  0
  3 31  1  0
  4 32  1  0
  5 33  1  0
  7 34  1  0
 10 35  1  0
 10 36  1  0
 16 37  1  0
 17 38  1  0
 18 39  1  0
 19 40  1  0
 20 41  1  0
 21 42  1  0
 23 43  1  0
 23 44  1  0
 23 45  1  0
M  END
>  <Binding energies>  (1) 
[-8.49]

>  <Ligand effiencies>  (1) 
[-0.3032142857142857]

>  <Interactions>  (1) 
["V-B:TYR:539:C:9835, V-B:TYR:539:CD2:9842, V-A:LEU:475:CD2:4254, V-A:TRP:381:CZ2:3365, V-A:LEU:475:CD1:4253, V-B:PRO:540:C:9849, V-B:TYR:539:CE2:9844, V-B:PRO:540:N:9852, V-B:ALA:541:CB:9860, V-A:TRP:381:CH2:3367, V-B:PRO:540:CA:9851, V-B:PRO:540:CB:9853, V-A:PRO:482:CB:4321, V-B:GLU:543:CD:9876, V-B:ALA:541:CA:9858, V-A:ASP:366:CB:3207, V-A:ASP:366:CG:3208, H-A:TYR:484:OH:4343, H-A:ARG:545:NH2:4923, V-A:HIS:456:CE1:4064, V-A:ILE:369:CG2:3232, V-A:ARG:545:CZ:4921, V-A:GLY:453:CA:4039, H-A:GLY:454:N:4045, V-A:GLY:454:CA:4044, V-A:LEU:475:CG:4252, V-A:ARG:545:CD:4918, V-A:ARG:545:CG:4917, H-A:ARG:545:NH1:4922, H-A:ARG:545:NE:4919, V-A:GLY:453:C:4037, V-A:ILE:455:C:4047, V-A:HIS:456:CD2:4063, H-A:ASP:366:OD1:3209, H-A:ASP:366:OD2:3210"]

$$$$
3bf_Grossjean_2025
     RDKit          3D

 42 44  0  0  0  0  0  0  0  0999 V2000
  125.3300  129.7540   57.3280 C   0  0  0  0  0  0  0  0  0  0  0  0
  126.4650  130.7060   57.6970 C   0  0  0  0  0  0  0  0  0  0  0  0
  127.5860  130.7510   56.8620 C   0  0  0  0  0  0  0  0  0  0  0  0
  128.6430  131.6200   57.1550 C   0  0  0  0  0  0  0  0  0  0  0  0
  129.8610  131.7320   56.2880 C   0  0  0  0  0  0  0  0  0  0  0  0
  130.2920  130.6420   55.5150 C   0  0  0  0  0  0  0  0  0  0  0  0
  131.4220  130.7380   54.7080 C   0  0  0  0  0  0  0  0  0  0  0  0
  132.1400  131.9290   54.6640 C   0  0  0  0  0  0  0  0  0  0  0  0
  131.7340  133.0230   55.4210 C   0  0  0  0  0  0  0  0  0  0  0  0
  130.6040  132.9230   56.2280 C   0  0  0  0  0  0  0  0  0  0  0  0
  128.5980  132.4280   58.2470 N   0  0  0  0  0  0  0  0  0  0  0  0
  127.5300  132.3780   59.0810 C   0  0  0  0  0  0  0  0  0  0  0  0
  127.6470  133.4990   60.4580 S   0  0  0  0  0  0  0  0  0  0  0  0
  128.3370  132.5820   61.8770 C   0  0  0  0  0  0  0  0  0  0  0  0
  129.8330  132.2500   61.7750 C   0  0  0  0  0  0  0  0  0  0  0  0
  130.5960  132.4920   62.7120 O   0  0  0  0  0  0  0  0  0  0  0  0
  130.2020  131.6640   60.6150 N   0  0  0  0  0  0  0  0  0  0  0  0
  131.4820  131.2490   60.2040 C   0  0  0  0  0  0  0  0  0  0  0  0
  131.6020  130.7410   58.9060 C   0  0  0  0  0  0  0  0  0  0  0  0
  132.8490  130.3250   58.4340 C   0  0  0  0  0  0  0  0  0  0  0  0
  133.9520  130.4350   59.2800 C   0  0  0  0  0  0  0  0  0  0  0  0
  133.8670  130.9340   60.5390 N   0  0  0  0  0  0  0  0  0  0  0  0
  132.6480  131.3350   60.9840 C   0  0  0  0  0  0  0  0  0  0  0  0
  126.4200  131.5390   58.8360 C   0  0  0  0  0  0  0  0  0  0  0  0
  125.2340  131.5450   59.6970 C   0  0  0  0  0  0  0  0  0  0  0  0
  124.2970  131.5470   60.3770 N   0  0  0  0  0  0  0  0  0  0  0  0
  124.8653  129.3643   58.2457 H   0  0  0  0  0  0  0  0  0  0  0  0
  124.5762  130.2940   56.7362 H   0  0  0  0  0  0  0  0  0  0  0  0
  125.7306  128.9178   56.7362 H   0  0  0  0  0  0  0  0  0  0  0  0
  127.6369  130.1030   55.9746 H   0  0  0  0  0  0  0  0  0  0  0  0
  129.7282  129.6980   55.5477 H   0  0  0  0  0  0  0  0  0  0  0  0
  131.7462  129.8755   54.1072 H   0  0  0  0  0  0  0  0  0  0  0  0
  133.0336  132.0058   54.0271 H   0  0  0  0  0  0  0  0  0  0  0  0
  132.3034  133.9633   55.3822 H   0  0  0  0  0  0  0  0  0  0  0  0
  130.2881  133.7894   56.8276 H   0  0  0  0  0  0  0  0  0  0  0  0
  128.1839  133.1889   62.7815 H   0  0  0  0  0  0  0  0  0  0  0  0
  127.8107  131.6164   61.9020 H   0  0  0  0  0  0  0  0  0  0  0  0
  129.4610  131.4470   59.9640 H   0  0  0  0  0  0  0  0  0  0  0  0
  130.7158  130.6693   58.2583 H   0  0  0  0  0  0  0  0  0  0  0  0
  132.9586  129.9195   57.4173 H   0  0  0  0  0  0  0  0  0  0  0  0
  134.9335  130.1029   58.9108 H   0  0  0  0  0  0  0  0  0  0  0  0
  132.5698  131.7459   62.0014 H   0  0  0  0  0  0  0  0  0  0  0  0
  1  2  1  0
  2  3  2  0
  3  4  1  0
  4  5  1  0
  5  6  2  0
  6  7  1  0
  7  8  2  0
  8  9  1  0
  9 10  2  0
  4 11  2  0
 11 12  1  0
 12 13  1  0
 13 14  1  0
 14 15  1  0
 15 16  2  0
 15 17  1  0
 17 18  1  0
 18 19  2  0
 19 20  1  0
 20 21  2  0
 21 22  1  0
 22 23  2  0
 12 24  2  0
 24 25  1  0
 25 26  3  0
 24  2  1  0
 10  5  1  0
 23 18  1  0
  1 27  1  0
  1 28  1  0
  1 29  1  0
  3 30  1  0
  6 31  1  0
  7 32  1  0
  8 33  1  0
  9 34  1  0
 10 35  1  0
 14 36  1  0
 14 37  1  0
 17 38  1  0
 19 39  1  0
 20 40  1  0
 21 41  1  0
 23 42  1  0
M  END
>  <Binding energies>  (1) 
[-7.69]

>  <Ligand effiencies>  (1) 
[-0.28481481481481485]

>  <Interactions>  (1) 
["V-A:PRO:540:N:4879, V-A:ASN:362:C:3167, V-A:TYR:531:CZ:4789, V-A:TYR:539:CE2:4871, V-A:TYR:531:CE2:4788, V-A:PRO:540:CA:4878, V-A:TYR:539:CE1:4870, H-A:ALA:541:N:4886, V-A:TYR:539:CZ:4872, V-A:PRO:540:CB:4880, V-A:LEU:363:CD1:3184, V-A:TYR:539:C:4862, V-A:LEU:363:CA:3180, V-A:PRO:540:CD:4882, V-A:ASP:366:CG:3208, V-A:TYR:539:CD2:4869, V-B:ASP:366:CB:8179, V-A:LEU:363:CB:3182, H-A:ARG:545:NH2:4923, V-A:ALA:541:CB:4887, V-A:ILE:538:CG2:4858, V-A:ILE:538:CA:4855, V-A:ILE:538:CB:4857, V-A:ILE:538:CD1:4860, H-A:LEU:363:N:3181"]

$$$$
3bg_Grossjean_2025
     RDKit          3D

 46 48  0  0  0  0  0  0  0  0999 V2000
  125.0360  124.2590   61.4290 C   0  0  0  0  0  0  0  0  0  0  0  0
  126.0680  123.6910   60.4570 C   0  0  0  0  0  0  0  0  0  0  0  0
  127.2960  123.2630   60.9710 C   0  0  0  0  0  0  0  0  0  0  0  0
  128.2680  122.7280   60.1140 C   0  0  0  0  0  0  0  0  0  0  0  0
  129.6030  122.2390   60.6040 C   0  0  0  0  0  0  0  0  0  0  0  0
  130.3700  121.3420   59.8410 C   0  0  0  0  0  0  0  0  0  0  0  0
  131.6140  120.9020   60.2820 C   0  0  0  0  0  0  0  0  0  0  0  0
  132.1140  121.3500   61.5000 C   0  0  0  0  0  0  0  0  0  0  0  0
  131.3720  122.2280   62.2820 C   0  0  0  0  0  0  0  0  0  0  0  0
  130.1270  122.6650   61.8370 C   0  0  0  0  0  0  0  0  0  0  0  0
  128.0210  122.6030   58.7830 N   0  0  0  0  0  0  0  0  0  0  0  0
  126.8330  123.0110   58.2680 C   0  0  0  0  0  0  0  0  0  0  0  0
  126.6240  122.7600   56.5120 S   0  0  0  0  0  0  0  0  0  0  0  0
  128.2590  122.4120   55.7860 C   0  0  0  0  0  0  0  0  0  0  0  0
  129.1790  123.6350   55.8420 C   0  0  0  0  0  0  0  0  0  0  0  0
  129.6580  124.0910   54.8040 O   0  0  0  0  0  0  0  0  0  0  0  0
  129.4340  124.1360   57.0640 N   0  0  0  0  0  0  0  0  0  0  0  0
  130.4190  125.1750   57.3670 C   0  0  0  0  0  0  0  0  0  0  0  0
  131.7430  124.5820   57.8330 C   0  0  0  0  0  0  0  0  0  0  0  0
  132.6690  124.1130   56.8950 C   0  0  0  0  0  0  0  0  0  0  0  0
  133.8740  123.5620   57.3200 C   0  0  0  0  0  0  0  0  0  0  0  0
  134.1570  123.4910   58.6830 C   0  0  0  0  0  0  0  0  0  0  0  0
  133.2490  123.9750   59.6230 C   0  0  0  0  0  0  0  0  0  0  0  0
  132.0430  124.5260   59.1960 C   0  0  0  0  0  0  0  0  0  0  0  0
  125.8210  123.5730   59.0730 C   0  0  0  0  0  0  0  0  0  0  0  0
  124.5410  124.0060   58.5060 C   0  0  0  0  0  0  0  0  0  0  0  0
  123.5300  124.3480   58.0590 N   0  0  0  0  0  0  0  0  0  0  0  0
  125.3665  124.0771   62.4623 H   0  0  0  0  0  0  0  0  0  0  0  0
  124.9322  125.3413   61.2624 H   0  0  0  0  0  0  0  0  0  0  0  0
  124.0660  123.7677   61.2624 H   0  0  0  0  0  0  0  0  0  0  0  0
  127.4995  123.3462   62.0488 H   0  0  0  0  0  0  0  0  0  0  0  0
  129.9798  120.9813   58.8779 H   0  0  0  0  0  0  0  0  0  0  0  0
  132.2005  120.2017   59.6690 H   0  0  0  0  0  0  0  0  0  0  0  0
  133.1006  121.0083   61.8461 H   0  0  0  0  0  0  0  0  0  0  0  0
  131.7667  122.5759   63.2480 H   0  0  0  0  0  0  0  0  0  0  0  0
  129.5426  123.3564   62.4619 H   0  0  0  0  0  0  0  0  0  0  0  0
  128.7280  121.5880   56.3437 H   0  0  0  0  0  0  0  0  0  0  0  0
  128.1132  122.1423   54.7296 H   0  0  0  0  0  0  0  0  0  0  0  0
  129.0010  123.6930   57.8600 H   0  0  0  0  0  0  0  0  0  0  0  0
  130.5961  125.7727   56.4607 H   0  0  0  0  0  0  0  0  0  0  0  0
  130.0188  125.7983   58.1802 H   0  0  0  0  0  0  0  0  0  0  0  0
  132.4442  124.1799   55.8203 H   0  0  0  0  0  0  0  0  0  0  0  0
  134.5994  123.1845   56.5843 H   0  0  0  0  0  0  0  0  0  0  0  0
  135.1061  123.0487   59.0199 H   0  0  0  0  0  0  0  0  0  0  0  0
  133.4834  123.9222   60.6964 H   0  0  0  0  0  0  0  0  0  0  0  0
  131.3262  124.9174   59.9329 H   0  0  0  0  0  0  0  0  0  0  0  0
  1  2  1  0
  2  3  2  0
  3  4  1  0
  4  5  1  0
  5  6  2  0
  6  7  1  0
  7  8  2  0
  8  9  1  0
  9 10  2  0
  4 11  2  0
 11 12  1  0
 12 13  1  0
 13 14  1  0
 14 15  1  0
 15 16  2  0
 15 17  1  0
 17 18  1  0
 18 19  1  0
 19 20  2  0
 20 21  1  0
 21 22  2  0
 22 23  1  0
 23 24  2  0
 12 25  2  0
 25 26  1  0
 26 27  3  0
 25  2  1  0
 10  5  1  0
 24 19  1  0
  1 28  1  0
  1 29  1  0
  1 30  1  0
  3 31  1  0
  6 32  1  0
  7 33  1  0
  8 34  1  0
  9 35  1  0
 10 36  1  0
 14 37  1  0
 14 38  1  0
 17 39  1  0
 18 40  1  0
 18 41  1  0
 20 42  1  0
 21 43  1  0
 22 44  1  0
 23 45  1  0
 24 46  1  0
M  END
>  <Binding energies>  (1) 
[-7.84]

>  <Ligand effiencies>  (1) 
[-0.27999999999999997]

>  <Interactions>  (1) 
["V-B:TYR:539:C:9835, V-B:TYR:539:CD2:9842, V-A:LEU:475:CD2:4254, V-B:TYR:539:CE2:9844, V-B:PRO:540:N:9852, V-B:PRO:540:CA:9851, V-B:MET:535:CE:9803, V-B:PRO:540:CB:9853, V-B:GLU:543:CD:9876, V-A:TYR:531:CZ:4789, V-A:ASP:366:CB:3207, V-A:ASP:366:CG:3208, V-B:TYR:539:CZ:9845, V-B:TYR:539:CE1:9843, V-A:ILE:369:CD1:3234, V-A:ILE:369:CG2:3232, V-A:ILE:369:CB:3231, V-A:TYR:531:CE1:4787, V-A:ASP:366:CA:3205, V-B:ASN:362:CB:8143, V-A:ASP:366:C:3203, H-B:TYR:539:OH:9846, H-A:LYS:534:NZ:4818, V-B:TYR:539:CD1:9841, V-B:TYR:539:CG:9840, V-A:ILE:369:CG1:3233"]

$$$$
3bk_Grossjean_2025
     RDKit          3D

 57 58  0  0  0  0  0  0  0  0999 V2000
  130.0810  124.3790   67.7490 C   0  0  0  0  0  0  0  0  0  0  0  0
  131.0080  125.1360   66.9850 O   0  0  0  0  0  0  0  0  0  0  0  0
  130.3920  125.9790   66.0210 C   0  0  0  0  0  0  0  0  0  0  0  0
  130.4410  125.3070   64.6410 C   0  0  0  0  0  0  0  0  0  0  0  0
  130.9990  126.2100   63.6970 O   0  0  0  0  0  0  0  0  0  0  0  0
  132.3460  125.9170   63.3490 C   0  0  0  0  0  0  0  0  0  0  0  0
  132.9970  125.1080   64.4780 C   0  0  0  0  0  0  0  0  0  0  0  0
  134.2270  124.5620   64.0200 O   0  0  0  0  0  0  0  0  0  0  0  0
  134.1460  123.9650   62.7320 C   0  0  0  0  0  0  0  0  0  0  0  0
  133.7070  122.5010   62.8740 C   0  0  0  0  0  0  0  0  0  0  0  0
  132.3430  122.2780   62.3900 N   0  0  0  0  0  0  0  0  0  0  0  0
  131.2370  122.2620   63.1540 C   0  0  0  0  0  0  0  0  0  0  0  0
  131.2440  122.4550   64.3700 O   0  0  0  0  0  0  0  0  0  0  0  0
  129.9120  122.0140   62.4290 C   0  0  0  0  0  0  0  0  0  0  0  0
  130.1460  121.0820   60.8820 S   0  0  0  0  0  0  0  0  0  0  0  0
  129.9150  122.1860   59.4990 C   0  0  0  0  0  0  0  0  0  0  0  0
  128.6300  122.4040   59.1220 N   0  0  0  0  0  0  0  0  0  0  0  0
  128.3580  123.2280   58.0750 C   0  0  0  0  0  0  0  0  0  0  0  0
  126.9120  123.4310   57.7390 C   0  0  0  0  0  0  0  0  0  0  0  0
  126.2210  122.4970   56.9500 C   0  0  0  0  0  0  0  0  0  0  0  0
  124.8780  122.6830   56.6290 C   0  0  0  0  0  0  0  0  0  0  0  0
  124.2060  123.8080   57.0960 C   0  0  0  0  0  0  0  0  0  0  0  0
  124.8660  124.7460   57.8830 C   0  0  0  0  0  0  0  0  0  0  0  0
  126.2080  124.5560   58.2030 C   0  0  0  0  0  0  0  0  0  0  0  0
  129.3910  123.8660   57.3780 C   0  0  0  0  0  0  0  0  0  0  0  0
  130.7220  123.6520   57.7520 C   0  0  0  0  0  0  0  0  0  0  0  0
  131.8180  124.3670   56.9640 C   0  0  0  0  0  0  0  0  0  0  0  0
  131.0040  122.7940   58.8360 C   0  0  0  0  0  0  0  0  0  0  0  0
  132.3880  122.5520   59.2530 C   0  0  0  0  0  0  0  0  0  0  0  0
  133.4820  122.3610   59.5810 N   0  0  0  0  0  0  0  0  0  0  0  0
  130.2738  124.5365   68.8205 H   0  0  0  0  0  0  0  0  0  0  0  0
  129.0574  124.7027   67.5092 H   0  0  0  0  0  0  0  0  0  0  0  0
  130.1936  123.3114   67.5092 H   0  0  0  0  0  0  0  0  0  0  0  0
  129.3440  126.1550   66.3052 H   0  0  0  0  0  0  0  0  0  0  0  0
  130.9288  126.9382   65.9790 H   0  0  0  0  0  0  0  0  0  0  0  0
  131.0634  124.4016   64.6954 H   0  0  0  0  0  0  0  0  0  0  0  0
  129.4225  125.0320   64.3294 H   0  0  0  0  0  0  0  0  0  0  0  0
  132.3659  125.3309   62.4184 H   0  0  0  0  0  0  0  0  0  0  0  0
  132.9007  126.8553   63.2010 H   0  0  0  0  0  0  0  0  0  0  0  0
  133.1857  125.7660   65.3391 H   0  0  0  0  0  0  0  0  0  0  0  0
  132.3236  124.2927   64.7808 H   0  0  0  0  0  0  0  0  0  0  0  0
  133.4121  124.5103   62.1205 H   0  0  0  0  0  0  0  0  0  0  0  0
  135.1317  124.0070   62.2455 H   0  0  0  0  0  0  0  0  0  0  0  0
  134.3953  121.8680   62.2948 H   0  0  0  0  0  0  0  0  0  0  0  0
  133.7292  122.2464   63.9439 H   0  0  0  0  0  0  0  0  0  0  0  0
  132.2420  122.1710   61.3910 H   0  0  0  0  0  0  0  0  0  0  0  0
  129.2462  121.4414   63.0915 H   0  0  0  0  0  0  0  0  0  0  0  0
  129.4753  122.9911   62.1747 H   0  0  0  0  0  0  0  0  0  0  0  0
  126.7480  121.6052   56.5799 H   0  0  0  0  0  0  0  0  0  0  0  0
  124.3511  121.9431   56.0086 H   0  0  0  0  0  0  0  0  0  0  0  0
  123.1463  123.9567   56.8413 H   0  0  0  0  0  0  0  0  0  0  0  0
  124.3305  125.6336   58.2509 H   0  0  0  0  0  0  0  0  0  0  0  0
  126.7255  125.2980   58.8288 H   0  0  0  0  0  0  0  0  0  0  0  0
  129.1563  124.5350   56.5370 H   0  0  0  0  0  0  0  0  0  0  0  0
  132.5292  124.8309   57.6633 H   0  0  0  0  0  0  0  0  0  0  0  0
  132.3478  123.6402   56.3306 H   0  0  0  0  0  0  0  0  0  0  0  0
  131.3663  125.1447   56.3306 H   0  0  0  0  0  0  0  0  0  0  0  0
  1  2  1  0
  2  3  1  0
  3  4  1  0
  4  5  1  0
  5  6  1  0
  6  7  1  0
  7  8  1  0
  8  9  1  0
  9 10  1  0
 10 11  1  0
 11 12  1  0
 12 13  2  0
 12 14  1  0
 14 15  1  0
 15 16  1  0
 16 17  2  0
 17 18  1  0
 18 19  1  0
 19 20  2  0
 20 21  1  0
 21 22  2  0
 22 23  1  0
 23 24  2  0
 18 25  2  0
 25 26  1  0
 26 27  1  0
 26 28  2  0
 28 29  1  0
 29 30  3  0
 28 16  1  0
 24 19  1  0
  1 31  1  0
  1 32  1  0
  1 33  1  0
  3 34  1  0
  3 35  1  0
  4 36  1  0
  4 37  1  0
  6 38  1  0
  6 39  1  0
  7 40  1  0
  7 41  1  0
  9 42  1  0
  9 43  1  0
 10 44  1  0
 10 45  1  0
 11 46  1  0
 14 47  1  0
 14 48  1  0
 20 49  1  0
 21 50  1  0
 22 51  1  0
 23 52  1  0
 24 53  1  0
 25 54  1  0
 27 55  1  0
 27 56  1  0
 27 57  1  0
M  END
>  <Binding energies>  (1) 
[-6.82]

>  <Ligand effiencies>  (1) 
[-0.22]

>  <Interactions>  (1) 
["V-B:TYR:539:C:9835, V-B:TYR:539:CD2:9842, V-A:LEU:475:CD2:4254, V-B:TYR:539:CE2:9844, V-B:PRO:540:N:9852, V-B:ALA:541:CB:9860, V-B:PRO:540:CA:9851, V-B:MET:535:CE:9803, V-B:PRO:540:CB:9853, V-A:TYR:531:CZ:4789, V-A:ASP:366:CG:3208, H-A:TYR:484:OH:4343, V-B:GLU:543:CG:9875, V-A:TYR:484:CE1:4340, V-B:PRO:540:CD:9855, V-B:LEU:363:CD1:8156, V-B:TYR:539:CZ:9845, V-B:TYR:531:CE2:9761, V-A:TYR:484:CZ:4342, V-B:GLU:543:CA:9872, V-A:HIS:456:CE1:4064, H-A:HIS:456:NE2:4065, V-B:GLU:543:CB:9874, V-A:ILE:369:CD1:3234, V-A:TYR:531:CE1:4787, V-A:ARG:545:CZ:4921, V-A:GLY:453:CA:4039, H-A:GLY:454:N:4045, V-A:GLY:454:CA:4044, V-A:GLY:453:C:4037"]

$$$$
3ca_Grossjean_2025
     RDKit          3D

 52 54  0  0  0  0  0  0  0  0999 V2000
  132.9350  130.8300   58.0610 C   0  0  0  0  0  0  0  0  0  0  0  0
  131.9830  131.5240   57.0840 C   0  0  0  0  0  0  0  0  0  0  0  0
  131.0350  132.2940   57.8120 O   0  0  0  0  0  0  0  0  0  0  0  0
  129.8930  132.7380   57.2280 C   0  0  0  0  0  0  0  0  0  0  0  0
  129.8730  133.3750   56.1700 O   0  0  0  0  0  0  0  0  0  0  0  0
  128.6530  132.3700   57.9910 C   0  0  0  0  0  0  0  0  0  0  0  0
  127.8300  131.3450   57.5080 C   0  0  0  0  0  0  0  0  0  0  0  0
  126.6740  130.9820   58.1930 C   0  0  0  0  0  0  0  0  0  0  0  0
  126.3130  131.6400   59.3700 C   0  0  0  0  0  0  0  0  0  0  0  0
  125.1270  131.1930   59.9830 N   0  0  0  0  0  0  0  0  0  0  0  0
  123.8430  131.5080   59.7070 C   0  0  0  0  0  0  0  0  0  0  0  0
  123.4720  132.2650   58.8110 O   0  0  0  0  0  0  0  0  0  0  0  0
  122.7960  130.8250   60.5940 C   0  0  0  0  0  0  0  0  0  0  0  0
  123.1850  130.9290   62.3730 S   0  0  0  0  0  0  0  0  0  0  0  0
  124.5200  129.8070   62.7690 C   0  0  0  0  0  0  0  0  0  0  0  0
  125.0950  129.1810   61.7110 N   0  0  0  0  0  0  0  0  0  0  0  0
  126.1240  128.3350   61.9340 C   0  0  0  0  0  0  0  0  0  0  0  0
  126.7250  127.6900   60.7010 C   0  0  0  0  0  0  0  0  0  0  0  0
  126.6090  128.0650   63.2120 C   0  0  0  0  0  0  0  0  0  0  0  0
  126.0200  128.6840   64.3220 C   0  0  0  0  0  0  0  0  0  0  0  0
  126.5640  128.3540   65.6730 C   0  0  0  0  0  0  0  0  0  0  0  0
  127.7590  128.9380   66.1120 C   0  0  0  0  0  0  0  0  0  0  0  0
  128.2790  128.6300   67.3660 C   0  0  0  0  0  0  0  0  0  0  0  0
  127.6060  127.7290   68.1870 C   0  0  0  0  0  0  0  0  0  0  0  0
  126.4200  127.1340   67.7640 C   0  0  0  0  0  0  0  0  0  0  0  0
  125.9040  127.4450   66.5090 C   0  0  0  0  0  0  0  0  0  0  0  0
  124.9500  129.5890   64.1000 C   0  0  0  0  0  0  0  0  0  0  0  0
  124.3280  130.3060   65.2180 C   0  0  0  0  0  0  0  0  0  0  0  0
  123.8370  130.8710   66.1010 N   0  0  0  0  0  0  0  0  0  0  0  0
  127.1350  132.6630   59.8660 C   0  0  0  0  0  0  0  0  0  0  0  0
  128.2920  133.0230   59.1790 C   0  0  0  0  0  0  0  0  0  0  0  0
  132.6281  131.0537   59.0934 H   0  0  0  0  0  0  0  0  0  0  0  0
  132.9015  129.7430   57.8959 H   0  0  0  0  0  0  0  0  0  0  0  0
  133.9596  131.1945   57.8959 H   0  0  0  0  0  0  0  0  0  0  0  0
  132.5581  132.1844   56.4184 H   0  0  0  0  0  0  0  0  0  0  0  0
  131.4571  130.7666   56.4842 H   0  0  0  0  0  0  0  0  0  0  0  0
  128.0996  130.8219   56.5787 H   0  0  0  0  0  0  0  0  0  0  0  0
  126.0406  130.1711   57.8042 H   0  0  0  0  0  0  0  0  0  0  0  0
  125.2690  130.5000   60.7020 H   0  0  0  0  0  0  0  0  0  0  0  0
  121.8224  131.3066   60.4201 H   0  0  0  0  0  0  0  0  0  0  0  0
  122.7832  129.7588   60.3235 H   0  0  0  0  0  0  0  0  0  0  0  0
  127.4455  126.9168   61.0059 H   0  0  0  0  0  0  0  0  0  0  0  0
  125.9257  127.2303   60.1011 H   0  0  0  0  0  0  0  0  0  0  0  0
  127.2399  128.4549   60.1011 H   0  0  0  0  0  0  0  0  0  0  0  0
  127.4501  127.3693   63.3486 H   0  0  0  0  0  0  0  0  0  0  0  0
  128.2913  129.6463   65.4601 H   0  0  0  0  0  0  0  0  0  0  0  0
  129.2158  129.0955   67.7062 H   0  0  0  0  0  0  0  0  0  0  0  0
  128.0148  127.4850   69.1786 H   0  0  0  0  0  0  0  0  0  0  0  0
  125.8941  126.4225   68.4177 H   0  0  0  0  0  0  0  0  0  0  0  0
  124.9698  126.9726   66.1712 H   0  0  0  0  0  0  0  0  0  0  0  0
  126.8656  133.1812   60.7981 H   0  0  0  0  0  0  0  0  0  0  0  0
  128.9298  133.8283   59.5724 H   0  0  0  0  0  0  0  0  0  0  0  0
  1  2  1  0
  2  3  1  0
  3  4  1  0
  4  5  2  0
  4  6  1  0
  6  7  2  0
  7  8  1  0
  8  9  2  0
  9 10  1  0
 10 11  1  0
 11 12  2  0
 11 13  1  0
 13 14  1  0
 14 15  1  0
 15 16  2  0
 16 17  1  0
 17 18  1  0
 17 19  2  0
 19 20  1  0
 20 21  1  0
 21 22  2  0
 22 23  1  0
 23 24  2  0
 24 25  1  0
 25 26  2  0
 20 27  2  0
 27 28  1  0
 28 29  3  0
  9 30  1  0
 30 31  2  0
 31  6  1  0
 27 15  1  0
 26 21  1  0
  1 32  1  0
  1 33  1  0
  1 34  1  0
  2 35  1  0
  2 36  1  0
  7 37  1  0
  8 38  1  0
 10 39  1  0
 13 40  1  0
 13 41  1  0
 18 42  1  0
 18 43  1  0
 18 44  1  0
 19 45  1  0
 22 46  1  0
 23 47  1  0
 24 48  1  0
 25 49  1  0
 26 50  1  0
 30 51  1  0
 31 52  1  0
M  END
>  <Binding energies>  (1) 
[-8.59]

>  <Ligand effiencies>  (1) 
[-0.2684375]

>  <Interactions>  (1) 
["V-B:GLU:543:CD:9876, V-A:PRO:540:N:4879, V-A:TYR:539:CE2:4871, V-A:TYR:531:CE2:4788, V-A:PRO:540:CA:4878, V-A:TYR:539:CE1:4870, V-A:TYR:539:CZ:4872, V-A:PRO:540:CB:4880, V-A:LEU:363:CD1:3184, V-A:TYR:539:C:4862, V-A:PRO:540:CD:4882, V-A:TYR:539:CD2:4869, H-B:GLY:454:N:9017, V-B:ILE:369:CD1:8206, H-A:TYR:539:N:4865, V-B:ASP:366:CG:8180, V-B:ASP:366:CB:8179, V-A:TYR:539:CD1:4868, V-A:TYR:539:CG:4867, V-B:ARG:545:CZ:9894, H-A:TYR:539:OH:4873, V-B:ASP:366:CA:8177, V-B:ILE:369:CB:8203, V-B:HIS:456:CE1:9037, V-B:ARG:545:CG:9890, H-B:TYR:484:OH:9315, V-B:ARG:545:CD:9891, V-B:GLU:543:CB:9874, H-B:ARG:545:NH2:9896"]

$$$$
3cb_Grossjean_2025
     RDKit          3D

 49 51  0  0  0  0  0  0  0  0999 V2000
  132.0220  131.7760   56.9710 C   0  0  0  0  0  0  0  0  0  0  0  0
  131.3510  133.0080   56.7510 O   0  0  0  0  0  0  0  0  0  0  0  0
  130.0880  133.0370   56.2510 C   0  0  0  0  0  0  0  0  0  0  0  0
  129.8220  133.3760   55.0940 O   0  0  0  0  0  0  0  0  0  0  0  0
  129.0450  132.6190   57.2480 C   0  0  0  0  0  0  0  0  0  0  0  0
  128.1530  131.5660   56.9940 C   0  0  0  0  0  0  0  0  0  0  0  0
  127.2010  131.2020   57.9410 C   0  0  0  0  0  0  0  0  0  0  0  0
  127.1140  131.8810   59.1560 C   0  0  0  0  0  0  0  0  0  0  0  0
  126.1160  131.4270   60.0420 N   0  0  0  0  0  0  0  0  0  0  0  0
  124.7930  131.2440   59.8380 C   0  0  0  0  0  0  0  0  0  0  0  0
  124.2100  131.4400   58.7700 O   0  0  0  0  0  0  0  0  0  0  0  0
  124.0240  130.7360   61.0670 C   0  0  0  0  0  0  0  0  0  0  0  0
  124.0500  131.8560   62.5090 S   0  0  0  0  0  0  0  0  0  0  0  0
  124.4200  130.8790   63.9500 C   0  0  0  0  0  0  0  0  0  0  0  0
  123.3730  130.7550   64.8020 N   0  0  0  0  0  0  0  0  0  0  0  0
  123.5390  130.0330   65.9330 C   0  0  0  0  0  0  0  0  0  0  0  0
  122.3220  129.9280   66.8320 C   0  0  0  0  0  0  0  0  0  0  0  0
  124.7430  129.4170   66.2590 C   0  0  0  0  0  0  0  0  0  0  0  0
  125.8440  129.5440   65.4020 C   0  0  0  0  0  0  0  0  0  0  0  0
  127.1160  128.8680   65.8000 C   0  0  0  0  0  0  0  0  0  0  0  0
  127.8530  129.3420   66.8920 C   0  0  0  0  0  0  0  0  0  0  0  0
  129.0340  128.7130   67.2780 C   0  0  0  0  0  0  0  0  0  0  0  0
  129.4830  127.6000   66.5710 C   0  0  0  0  0  0  0  0  0  0  0  0
  128.7600  127.1110   65.4880 C   0  0  0  0  0  0  0  0  0  0  0  0
  127.5780  127.7410   65.1060 C   0  0  0  0  0  0  0  0  0  0  0  0
  125.6900  130.3100   64.2170 C   0  0  0  0  0  0  0  0  0  0  0  0
  126.8330  130.5540   63.3320 C   0  0  0  0  0  0  0  0  0  0  0  0
  127.7340  130.7460   62.6320 N   0  0  0  0  0  0  0  0  0  0  0  0
  128.0050  132.9320   59.4210 C   0  0  0  0  0  0  0  0  0  0  0  0
  128.9590  133.2950   58.4730 C   0  0  0  0  0  0  0  0  0  0  0  0
  132.1184  131.5990   58.0524 H   0  0  0  0  0  0  0  0  0  0  0  0
  131.4449  130.9577   56.5155 H   0  0  0  0  0  0  0  0  0  0  0  0
  133.0224  131.8169   56.5155 H   0  0  0  0  0  0  0  0  0  0  0  0
  128.2069  131.0239   56.0384 H   0  0  0  0  0  0  0  0  0  0  0  0
  126.5112  130.3717   57.7296 H   0  0  0  0  0  0  0  0  0  0  0  0
  126.4610  131.1800   60.9590 H   0  0  0  0  0  0  0  0  0  0  0  0
  122.9752  130.5813   60.7736 H   0  0  0  0  0  0  0  0  0  0  0  0
  124.5285  129.8119   61.3857 H   0  0  0  0  0  0  0  0  0  0  0  0
  122.6402  129.9555   67.8846 H   0  0  0  0  0  0  0  0  0  0  0  0
  121.6444  130.7710   66.6317 H   0  0  0  0  0  0  0  0  0  0  0  0
  121.7988  128.9814   66.6317 H   0  0  0  0  0  0  0  0  0  0  0  0
  124.8303  128.8322   67.1866 H   0  0  0  0  0  0  0  0  0  0  0  0
  127.4957  130.2198   67.4505 H   0  0  0  0  0  0  0  0  0  0  0  0
  129.6086  129.0927   68.1357 H   0  0  0  0  0  0  0  0  0  0  0  0
  130.4174  127.1035   66.8717 H   0  0  0  0  0  0  0  0  0  0  0  0
  129.1202  126.2306   64.9356 H   0  0  0  0  0  0  0  0  0  0  0  0
  127.0027  127.3513   64.2533 H   0  0  0  0  0  0  0  0  0  0  0  0
  127.9501  133.4701   60.3788 H   0  0  0  0  0  0  0  0  0  0  0  0
  129.6525  134.1213   58.6881 H   0  0  0  0  0  0  0  0  0  0  0  0
  1  2  1  0
  2  3  1  0
  3  4  2  0
  3  5  1  0
  5  6  2  0
  6  7  1  0
  7  8  2  0
  8  9  1  0
  9 10  1  0
 10 11  2  0
 10 12  1  0
 12 13  1  0
 13 14  1  0
 14 15  2  0
 15 16  1  0
 16 17  1  0
 16 18  2  0
 18 19  1  0
 19 20  1  0
 20 21  2  0
 21 22  1  0
 22 23  2  0
 23 24  1  0
 24 25  2  0
 19 26  2  0
 26 27  1  0
 27 28  3  0
  8 29  1  0
 29 30  2  0
 30  5  1  0
 26 14  1  0
 25 20  1  0
  1 31  1  0
  1 32  1  0
  1 33  1  0
  6 34  1  0
  7 35  1  0
  9 36  1  0
 12 37  1  0
 12 38  1  0
 17 39  1  0
 17 40  1  0
 17 41  1  0
 18 42  1  0
 21 43  1  0
 22 44  1  0
 23 45  1  0
 24 46  1  0
 25 47  1  0
 29 48  1  0
 30 49  1  0
M  END
>  <Binding energies>  (1) 
[-8.39]

>  <Ligand effiencies>  (1) 
[-0.2706451612903226]

>  <Interactions>  (1) 
["V-B:GLU:543:CD:9876, V-A:GLU:543:CG:4902, V-A:PRO:540:N:4879, V-A:TYR:539:CE2:4871, V-A:PRO:540:CA:4878, V-A:TYR:539:CE1:4870, V-A:TYR:539:CZ:4872, V-A:PRO:540:CB:4880, V-A:LEU:363:CD1:3184, V-A:TYR:539:C:4862, V-A:PRO:540:CD:4882, V-A:GLU:543:CD:4903, V-B:GLU:543:CG:9875, V-A:TYR:539:CD2:4869, H-B:GLY:454:N:9017, H-A:TYR:539:N:4865, V-B:ASP:366:CG:8180, V-A:TYR:539:CD1:4868, V-A:TYR:539:CG:4867, V-A:TYR:539:CA:4864, V-B:ARG:545:CZ:9894, H-A:TYR:539:OH:4873, V-A:GLU:543:CB:4901, V-B:HIS:456:CE1:9037, V-B:ARG:545:CG:9890, V-B:ARG:545:CD:9891, V-B:GLY:453:CA:9011, V-B:GLY:453:C:9009, V-B:ILE:455:C:9019, V-B:ARG:545:CB:9889"]

$$$$
3ce_Grossjean_2025
     RDKit          3D

 45 47  0  0  0  0  0  0  0  0999 V2000
  122.6680  130.3620   66.9780 C   0  0  0  0  0  0  0  0  0  0  0  0
  123.6630  129.9760   65.9020 C   0  0  0  0  0  0  0  0  0  0  0  0
  124.8130  129.2400   66.1990 C   0  0  0  0  0  0  0  0  0  0  0  0
  125.6790  128.9110   65.1560 C   0  0  0  0  0  0  0  0  0  0  0  0
  125.3800  129.3210   63.8550 C   0  0  0  0  0  0  0  0  0  0  0  0
  124.2160  130.0650   63.6280 C   0  0  0  0  0  0  0  0  0  0  0  0
  123.9560  130.4330   62.2970 N   0  0  0  0  0  0  0  0  0  0  0  0
  124.0880  131.6510   61.7260 C   0  0  0  0  0  0  0  0  0  0  0  0
  124.4780  132.6650   62.3070 O   0  0  0  0  0  0  0  0  0  0  0  0
  123.7230  131.7310   60.2440 C   0  0  0  0  0  0  0  0  0  0  0  0
  124.9080  130.8280   59.2030 S   0  0  0  0  0  0  0  0  0  0  0  0
  126.4040  131.7880   59.2300 C   0  0  0  0  0  0  0  0  0  0  0  0
  126.4610  132.6920   60.2390 N   0  0  0  0  0  0  0  0  0  0  0  0
  127.5670  133.4610   60.3560 C   0  0  0  0  0  0  0  0  0  0  0  0
  127.5700  134.4420   61.5130 C   0  0  0  0  0  0  0  0  0  0  0  0
  128.6420  133.3690   59.4750 C   0  0  0  0  0  0  0  0  0  0  0  0
  128.5910  132.4590   58.4110 C   0  0  0  0  0  0  0  0  0  0  0  0
  129.7560  132.4140   57.4770 C   0  0  0  0  0  0  0  0  0  0  0  0
  130.9580  131.8210   57.8810 C   0  0  0  0  0  0  0  0  0  0  0  0
  132.0500  131.7810   57.0180 C   0  0  0  0  0  0  0  0  0  0  0  0
  131.9480  132.3420   55.7490 C   0  0  0  0  0  0  0  0  0  0  0  0
  130.7620  132.9450   55.3360 C   0  0  0  0  0  0  0  0  0  0  0  0
  129.6720  132.9830   56.2000 C   0  0  0  0  0  0  0  0  0  0  0  0
  127.4430  131.6370   58.2810 C   0  0  0  0  0  0  0  0  0  0  0  0
  127.3390  130.6550   57.1960 C   0  0  0  0  0  0  0  0  0  0  0  0
  127.2590  129.8810   56.3400 N   0  0  0  0  0  0  0  0  0  0  0  0
  123.3600  130.3830   64.6430 N   0  0  0  0  0  0  0  0  0  0  0  0
  123.1137  130.1891   67.9687 H   0  0  0  0  0  0  0  0  0  0  0  0
  122.4089  131.4259   66.8732 H   0  0  0  0  0  0  0  0  0  0  0  0
  121.7592  129.7512   66.8732 H   0  0  0  0  0  0  0  0  0  0  0  0
  125.0304  128.9274   67.2310 H   0  0  0  0  0  0  0  0  0  0  0  0
  126.5923  128.3319   65.3572 H   0  0  0  0  0  0  0  0  0  0  0  0
  126.0492  129.0632   63.0209 H   0  0  0  0  0  0  0  0  0  0  0  0
  123.7260  129.6670   61.6810 H   0  0  0  0  0  0  0  0  0  0  0  0
  122.7220  131.2980   60.1006 H   0  0  0  0  0  0  0  0  0  0  0  0
  123.7445  132.7893   59.9448 H   0  0  0  0  0  0  0  0  0  0  0  0
  127.5683  133.8881   62.4634 H   0  0  0  0  0  0  0  0  0  0  0  0
  128.4701  135.0719   61.4573 H   0  0  0  0  0  0  0  0  0  0  0  0
  126.6738  135.0774   61.4573 H   0  0  0  0  0  0  0  0  0  0  0  0
  129.5267  134.0077   59.6140 H   0  0  0  0  0  0  0  0  0  0  0  0
  131.0404  131.3837   58.8870 H   0  0  0  0  0  0  0  0  0  0  0  0
  132.9898  131.3076   57.3384 H   0  0  0  0  0  0  0  0  0  0  0  0
  132.8102  132.3092   55.0667 H   0  0  0  0  0  0  0  0  0  0  0  0
  130.6876  133.3887   54.3322 H   0  0  0  0  0  0  0  0  0  0  0  0
  128.7367  133.4638   55.8775 H   0  0  0  0  0  0  0  0  0  0  0  0
  1  2  1  0
  2  3  2  0
  3  4  1  0
  4  5  2  0
  5  6  1  0
  6  7  1  0
  7  8  1  0
  8  9  2  0
  8 10  1  0
 10 11  1  0
 11 12  1  0
 12 13  2  0
 13 14  1  0
 14 15  1  0
 14 16  2  0
 16 17  1  0
 17 18  1  0
 18 19  2  0
 19 20  1  0
 20 21  2  0
 21 22  1  0
 22 23  2  0
 17 24  2  0
 24 25  1  0
 25 26  3  0
  6 27  2  0
 27  2  1  0
 24 12  1  0
 23 18  1  0
  1 28  1  0
  1 29  1  0
  1 30  1  0
  3 31  1  0
  4 32  1  0
  5 33  1  0
  7 34  1  0
 10 35  1  0
 10 36  1  0
 15 37  1  0
 15 38  1  0
 15 39  1  0
 16 40  1  0
 19 41  1  0
 20 42  1  0
 21 43  1  0
 22 44  1  0
 23 45  1  0
M  END
>  <Binding energies>  (1) 
[-9.14]

>  <Ligand effiencies>  (1) 
[-0.32642857142857146]

>  <Interactions>  (1) 
["H-B:ASP:366:OD1:8181, H-B:ASP:366:OD2:8182, V-A:PRO:540:N:4879, V-A:TYR:539:CE2:4871, V-A:PRO:540:CA:4878, V-A:TYR:539:CE1:4870, V-A:TYR:539:CZ:4872, V-A:PRO:540:CB:4880, V-A:LEU:363:CD1:3184, V-A:TYR:539:C:4862, V-A:PRO:540:CD:4882, V-B:GLY:454:CA:9016, H-B:ARG:545:NH1:9895, V-A:TYR:539:CD2:4869, H-B:GLY:454:N:9017, V-B:ILE:369:CD1:8206, V-B:LEU:475:CD2:9226, V-A:TYR:539:CD1:4868, V-A:ALA:541:CB:4887, V-A:TYR:539:CG:4867, V-A:ILE:538:CG2:4858, V-B:ARG:545:CZ:9894, H-A:TYR:539:OH:4873, V-A:ILE:538:CA:4855, V-B:ILE:369:CG2:8204, V-B:ILE:369:CB:8203, V-B:HIS:456:CE1:9037, V-B:ARG:545:CG:9890, V-B:ARG:545:CD:9891, V-B:GLY:453:CA:9011, V-B:GLY:453:C:9009, V-B:GLY:454:C:9014, V-B:ILE:455:C:9019, V-B:ILE:455:CA:9021"]

$$$$
3ch_Grossjean_2025
     RDKit          3D

 55 57  0  0  0  0  0  0  0  0999 V2000
  125.4220  124.1100   61.3690 C   0  0  0  0  0  0  0  0  0  0  0  0
  126.0030  122.8790   60.9500 O   0  0  0  0  0  0  0  0  0  0  0  0
  127.2730  122.8770   60.4000 C   0  0  0  0  0  0  0  0  0  0  0  0
  128.4560  122.8860   61.1560 C   0  0  0  0  0  0  0  0  0  0  0  0
  129.7100  122.8730   60.5290 C   0  0  0  0  0  0  0  0  0  0  0  0
  130.9480  122.8750   61.2000 N   0  0  0  0  0  0  0  0  0  0  0  0
  131.8540  121.8830   61.3430 C   0  0  0  0  0  0  0  0  0  0  0  0
  131.7520  120.7500   60.8740 O   0  0  0  0  0  0  0  0  0  0  0  0
  133.1160  122.2500   62.1230 C   0  0  0  0  0  0  0  0  0  0  0  0
  133.4870  124.0270   62.0310 S   0  0  0  0  0  0  0  0  0  0  0  0
  133.1710  124.6820   63.6560 C   0  0  0  0  0  0  0  0  0  0  0  0
  134.2510  124.6630   64.4760 N   0  0  0  0  0  0  0  0  0  0  0  0
  134.1140  125.1320   65.7360 C   0  0  0  0  0  0  0  0  0  0  0  0
  135.3580  125.0760   66.6010 C   0  0  0  0  0  0  0  0  0  0  0  0
  132.9090  125.6320   66.2240 C   0  0  0  0  0  0  0  0  0  0  0  0
  131.7830  125.6670   65.3890 C   0  0  0  0  0  0  0  0  0  0  0  0
  130.5090  126.2030   65.9580 C   0  0  0  0  0  0  0  0  0  0  0  0
  130.0680  125.7780   67.2170 C   0  0  0  0  0  0  0  0  0  0  0  0
  128.8770  126.2660   67.7510 C   0  0  0  0  0  0  0  0  0  0  0  0
  128.1200  127.1810   67.0230 C   0  0  0  0  0  0  0  0  0  0  0  0
  128.5410  127.6080   65.7670 C   0  0  0  0  0  0  0  0  0  0  0  0
  129.7320  127.1170   65.2360 C   0  0  0  0  0  0  0  0  0  0  0  0
  131.9160  125.1960   64.0580 C   0  0  0  0  0  0  0  0  0  0  0  0
  130.7990  125.2970   63.1130 C   0  0  0  0  0  0  0  0  0  0  0  0
  129.9180  125.3740   62.3680 N   0  0  0  0  0  0  0  0  0  0  0  0
  129.7720  122.8700   59.1340 C   0  0  0  0  0  0  0  0  0  0  0  0
  128.6040  122.8630   58.3570 C   0  0  0  0  0  0  0  0  0  0  0  0
  128.5960  122.8530   56.9720 O   0  0  0  0  0  0  0  0  0  0  0  0
  129.3890  123.7980   56.2610 C   0  0  0  0  0  0  0  0  0  0  0  0
  127.3610  122.8690   59.0020 C   0  0  0  0  0  0  0  0  0  0  0  0
  126.2090  122.8440   58.2520 O   0  0  0  0  0  0  0  0  0  0  0  0
  125.6920  124.1310   57.9410 C   0  0  0  0  0  0  0  0  0  0  0  0
  125.4027  124.1510   62.4681 H   0  0  0  0  0  0  0  0  0  0  0  0
  126.0195  124.9482   60.9813 H   0  0  0  0  0  0  0  0  0  0  0  0
  124.3951  124.1815   60.9813 H   0  0  0  0  0  0  0  0  0  0  0  0
  128.3983  122.9035   62.2543 H   0  0  0  0  0  0  0  0  0  0  0  0
  131.2020  123.7690   61.5950 H   0  0  0  0  0  0  0  0  0  0  0  0
  132.9741  121.9718   63.1777 H   0  0  0  0  0  0  0  0  0  0  0  0
  133.9602  121.7050   61.6755 H   0  0  0  0  0  0  0  0  0  0  0  0
  135.0678  125.0891   67.6619 H   0  0  0  0  0  0  0  0  0  0  0  0
  135.9140  124.1519   66.3843 H   0  0  0  0  0  0  0  0  0  0  0  0
  135.9948  125.9464   66.3843 H   0  0  0  0  0  0  0  0  0  0  0  0
  132.8410  125.9976   67.2592 H   0  0  0  0  0  0  0  0  0  0  0  0
  130.6662  125.0534   67.7889 H   0  0  0  0  0  0  0  0  0  0  0  0
  128.5366  125.9306   68.7418 H   0  0  0  0  0  0  0  0  0  0  0  0
  127.1812  127.5695   67.4445 H   0  0  0  0  0  0  0  0  0  0  0  0
  127.9369  128.3290   65.1967 H   0  0  0  0  0  0  0  0  0  0  0  0
  130.0644  127.4501   64.2417 H   0  0  0  0  0  0  0  0  0  0  0  0
  130.7529  122.8732   58.6361 H   0  0  0  0  0  0  0  0  0  0  0  0
  129.9261  124.4380   56.9764 H   0  0  0  0  0  0  0  0  0  0  0  0
  130.1148  123.2657   55.6286 H   0  0  0  0  0  0  0  0  0  0  0  0
  128.7388  124.4203   55.6286 H   0  0  0  0  0  0  0  0  0  0  0  0
  125.4741  124.6736   58.8727 H   0  0  0  0  0  0  0  0  0  0  0  0
  126.4343  124.6925   57.3548 H   0  0  0  0  0  0  0  0  0  0  0  0
  124.7675  124.0229   57.3548 H   0  0  0  0  0  0  0  0  0  0  0  0
  1  2  1  0
  2  3  1  0
  3  4  2  0
  4  5  1  0
  5  6  1  0
  6  7  1  0
  7  8  2  0
  7  9  1  0
  9 10  1  0
 10 11  1  0
 11 12  2  0
 12 13  1  0
 13 14  1  0
 13 15  2  0
 15 16  1  0
 16 17  1  0
 17 18  2  0
 18 19  1  0
 19 20  2  0
 20 21  1  0
 21 22  2  0
 16 23  2  0
 23 24  1  0
 24 25  3  0
  5 26  2  0
 26 27  1  0
 27 28  1  0
 28 29  1  0
 27 30  2  0
 30 31  1  0
 31 32  1  0
 30  3  1  0
 23 11  1  0
 22 17  1  0
  1 33  1  0
  1 34  1  0
  1 35  1  0
  4 36  1  0
  6 37  1  0
  9 38  1  0
  9 39  1  0
 14 40  1  0
 14 41  1  0
 14 42  1  0
 15 43  1  0
 18 44  1  0
 19 45  1  0
 20 46  1  0
 21 47  1  0
 22 48  1  0
 26 49  1  0
 29 50  1  0
 29 51  1  0
 29 52  1  0
 32 53  1  0
 32 54  1  0
 32 55  1  0
M  END
>  <Binding energies>  (1) 
[-7.58]

>  <Ligand effiencies>  (1) 
[-0.2296969696969697]

>  <Interactions>  (1) 
["V-B:TYR:539:C:9835, V-A:LEU:475:CD2:4254, V-B:PRO:540:C:9849, V-B:TYR:539:CE2:9844, V-B:PRO:540:N:9852, V-B:ALA:541:CB:9860, V-B:PRO:540:CA:9851, V-B:PRO:540:CB:9853, H-B:ALA:541:N:9859, V-B:GLU:543:CD:9876, V-A:GLU:543:CD:4903, H-A:TYR:484:OH:4343, V-B:GLU:543:CG:9875, V-B:TYR:539:CZ:9845, V-A:HIS:456:CE1:4064, V-B:GLU:543:CB:9874, V-B:TYR:539:CE1:9843, V-A:ILE:369:CD1:3234, V-A:ARG:545:CZ:4921, V-A:GLY:453:CA:4039, H-A:GLY:454:N:4045, V-A:ARG:545:CD:4918, V-A:ARG:545:CG:4917, V-A:GLY:453:C:4037, V-A:ILE:455:C:4047, V-A:HIS:456:CD2:4063"]

$$$$
3ci_Grossjean_2025
     RDKit          3D

 39 41  0  0  0  0  0  0  0  0999 V2000
  127.9280  133.8030   61.2250 C   0  0  0  0  0  0  0  0  0  0  0  0
  127.8540  133.0080   59.9350 C   0  0  0  0  0  0  0  0  0  0  0  0
  128.8800  133.0410   58.9960 C   0  0  0  0  0  0  0  0  0  0  0  0
  128.7740  132.2760   57.8260 C   0  0  0  0  0  0  0  0  0  0  0  0
  129.9060  132.3310   56.8540 C   0  0  0  0  0  0  0  0  0  0  0  0
  131.1590  131.7970   57.1820 C   0  0  0  0  0  0  0  0  0  0  0  0
  132.2140  131.8580   56.2750 C   0  0  0  0  0  0  0  0  0  0  0  0
  132.0210  132.4610   55.0350 C   0  0  0  0  0  0  0  0  0  0  0  0
  130.7850  133.0040   54.6970 C   0  0  0  0  0  0  0  0  0  0  0  0
  129.7320  132.9410   55.6060 C   0  0  0  0  0  0  0  0  0  0  0  0
  127.6050  131.4950   57.6360 C   0  0  0  0  0  0  0  0  0  0  0  0
  127.4180  130.7080   56.4120 C   0  0  0  0  0  0  0  0  0  0  0  0
  127.2720  130.0870   55.4460 N   0  0  0  0  0  0  0  0  0  0  0  0
  126.6110  131.5150   58.6450 C   0  0  0  0  0  0  0  0  0  0  0  0
  125.1090  130.5540   58.5180 S   0  0  0  0  0  0  0  0  0  0  0  0
  123.7130  131.5150   59.1890 C   0  0  0  0  0  0  0  0  0  0  0  0
  123.7990  131.7380   60.7030 C   0  0  0  0  0  0  0  0  0  0  0  0
  123.9560  132.8810   61.1350 O   0  0  0  0  0  0  0  0  0  0  0  0
  123.7080  130.6260   61.4650 N   0  0  0  0  0  0  0  0  0  0  0  0
  123.7280  130.5530   62.8520 C   0  0  0  0  0  0  0  0  0  0  0  0
  124.8990  130.6590   63.6020 C   0  0  0  0  0  0  0  0  0  0  0  0
  124.4960  130.5340   64.9120 C   0  0  0  0  0  0  0  0  0  0  0  0
  123.1530  130.3620   64.9480 O   0  0  0  0  0  0  0  0  0  0  0  0
  122.6780  130.3740   63.6360 N   0  0  0  0  0  0  0  0  0  0  0  0
  126.7370  132.2660   59.7680 N   0  0  0  0  0  0  0  0  0  0  0  0
  127.8642  133.1171   62.0826 H   0  0  0  0  0  0  0  0  0  0  0  0
  128.8810  134.3509   61.2639 H   0  0  0  0  0  0  0  0  0  0  0  0
  127.0925  134.5174   61.2639 H   0  0  0  0  0  0  0  0  0  0  0  0
  129.7696  133.6640   59.1706 H   0  0  0  0  0  0  0  0  0  0  0  0
  131.3108  131.3256   58.1642 H   0  0  0  0  0  0  0  0  0  0  0  0
  133.1940  131.4323   56.5367 H   0  0  0  0  0  0  0  0  0  0  0  0
  132.8525  132.5086   54.3164 H   0  0  0  0  0  0  0  0  0  0  0  0
  130.6405  133.4808   53.7163 H   0  0  0  0  0  0  0  0  0  0  0  0
  128.7560  133.3739   55.3414 H   0  0  0  0  0  0  0  0  0  0  0  0
  123.6948  132.4964   58.6925 H   0  0  0  0  0  0  0  0  0  0  0  0
  122.7981  130.9351   58.9978 H   0  0  0  0  0  0  0  0  0  0  0  0
  123.5870  129.7460   60.9860 H   0  0  0  0  0  0  0  0  0  0  0  0
  125.9224  130.8098   63.2278 H   0  0  0  0  0  0  0  0  0  0  0  0
  125.1586  130.5683   65.7894 H   0  0  0  0  0  0  0  0  0  0  0  0
  1  2  1  0
  2  3  2  0
  3  4  1  0
  4  5  1  0
  5  6  2  0
  6  7  1  0
  7  8  2  0
  8  9  1  0
  9 10  2  0
  4 11  2  0
 11 12  1  0
 12 13  3  0
 11 14  1  0
 14 15  1  0
 15 16  1  0
 16 17  1  0
 17 18  2  0
 17 19  1  0
 19 20  1  0
 20 21  1  0
 21 22  2  0
 22 23  1  0
 23 24  1  0
 14 25  2  0
 25  2  1  0
 10  5  1  0
 24 20  2  0
  1 26  1  0
  1 27  1  0
  1 28  1  0
  3 29  1  0
  6 30  1  0
  7 31  1  0
  8 32  1  0
  9 33  1  0
 10 34  1  0
 16 35  1  0
 16 36  1  0
 19 37  1  0
 21 38  1  0
 22 39  1  0
M  END
>  <Binding energies>  (1) 
[-8.41]

>  <Ligand effiencies>  (1) 
[-0.32346153846153847]

>  <Interactions>  (1) 
["H-B:ASP:366:OD1:8181, H-B:ASP:366:OD2:8182, V-A:PRO:540:N:4879, V-A:TYR:539:CE2:4871, V-A:PRO:540:CA:4878, V-A:TYR:539:CE1:4870, V-A:TYR:539:CZ:4872, V-A:PRO:540:CB:4880, V-A:LEU:363:CD1:3184, V-A:TYR:539:C:4862, H-B:ARG:545:NH1:9895, V-A:TYR:539:CD2:4869, H-B:GLY:454:N:9017, V-B:ILE:369:CD1:8206, V-B:ASP:366:CG:8180, V-A:TYR:539:CD1:4868, V-A:TYR:539:CG:4867, V-A:ILE:538:CG2:4858, H-A:TYR:539:OH:4873, V-A:ILE:538:CA:4855, V-B:ASP:366:CA:8177, V-B:ILE:369:CG2:8204, V-A:ILE:538:C:4853, V-B:ILE:369:CB:8203, V-A:ILE:538:CB:4857, V-A:ILE:538:CD1:4860"]

$$$$
3cj_Grossjean_2025
     RDKit          3D

 39 41  0  0  0  0  0  0  0  0999 V2000
  130.5050  118.9990   61.7080 C   0  0  0  0  0  0  0  0  0  0  0  0
  130.4310  120.2760   60.8950 C   0  0  0  0  0  0  0  0  0  0  0  0
  129.2250  120.9470   60.7000 C   0  0  0  0  0  0  0  0  0  0  0  0
  129.2070  122.1380   59.9610 C   0  0  0  0  0  0  0  0  0  0  0  0
  127.9050  122.8560   59.8320 C   0  0  0  0  0  0  0  0  0  0  0  0
  127.2480  123.3440   60.9680 C   0  0  0  0  0  0  0  0  0  0  0  0
  126.0260  124.0020   60.8480 C   0  0  0  0  0  0  0  0  0  0  0  0
  125.4550  124.1700   59.5900 C   0  0  0  0  0  0  0  0  0  0  0  0
  126.0920  123.6820   58.4530 C   0  0  0  0  0  0  0  0  0  0  0  0
  127.3140  123.0240   58.5750 C   0  0  0  0  0  0  0  0  0  0  0  0
  130.4230  122.6040   59.4030 C   0  0  0  0  0  0  0  0  0  0  0  0
  130.4630  123.8270   58.5950 C   0  0  0  0  0  0  0  0  0  0  0  0
  130.4940  124.7940   57.9590 N   0  0  0  0  0  0  0  0  0  0  0  0
  131.5990  121.8620   59.6550 C   0  0  0  0  0  0  0  0  0  0  0  0
  133.2100  122.4070   59.1280 S   0  0  0  0  0  0  0  0  0  0  0  0
  133.4800  123.9810   60.0030 C   0  0  0  0  0  0  0  0  0  0  0  0
  133.3980  123.8100   61.5230 C   0  0  0  0  0  0  0  0  0  0  0  0
  133.5260  122.6880   62.0170 O   0  0  0  0  0  0  0  0  0  0  0  0
  133.2220  124.9510   62.2250 N   0  0  0  0  0  0  0  0  0  0  0  0
  133.2480  125.0870   63.6030 C   0  0  0  0  0  0  0  0  0  0  0  0
  134.2670  124.9010   64.4140 N   0  0  0  0  0  0  0  0  0  0  0  0
  133.9390  125.1510   65.6660 C   0  0  0  0  0  0  0  0  0  0  0  0
  132.6250  125.5500   65.8920 C   0  0  0  0  0  0  0  0  0  0  0  0
  131.7790  125.5960   64.3740 S   0  0  0  0  0  0  0  0  0  0  0  0
  131.6040  120.7260   60.3960 N   0  0  0  0  0  0  0  0  0  0  0  0
  130.4907  119.2454   62.7799 H   0  0  0  0  0  0  0  0  0  0  0  0
  129.6424  118.3604   61.4671 H   0  0  0  0  0  0  0  0  0  0  0  0
  131.4356  118.4643   61.4671 H   0  0  0  0  0  0  0  0  0  0  0  0
  128.2930  120.5444   61.1234 H   0  0  0  0  0  0  0  0  0  0  0  0
  127.6996  123.2070   61.9616 H   0  0  0  0  0  0  0  0  0  0  0  0
  125.5151  124.3868   61.7429 H   0  0  0  0  0  0  0  0  0  0  0  0
  124.4921  124.6929   59.4936 H   0  0  0  0  0  0  0  0  0  0  0  0
  125.6328  123.8152   57.4624 H   0  0  0  0  0  0  0  0  0  0  0  0
  127.8171  122.6343   57.6778 H   0  0  0  0  0  0  0  0  0  0  0  0
  134.4764  124.3670   59.7416 H   0  0  0  0  0  0  0  0  0  0  0  0
  132.6903  124.6822   59.6954 H   0  0  0  0  0  0  0  0  0  0  0  0
  133.1480  125.8110   61.7000 H   0  0  0  0  0  0  0  0  0  0  0  0
  134.6640  125.0498   66.4870 H   0  0  0  0  0  0  0  0  0  0  0  0
  132.1918  125.7964   66.8726 H   0  0  0  0  0  0  0  0  0  0  0  0
  1  2  1  0
  2  3  2  0
  3  4  1  0
  4  5  1  0
  5  6  2  0
  6  7  1  0
  7  8  2  0
  8  9  1  0
  9 10  2  0
  4 11  2  0
 11 12  1  0
 12 13  3  0
 11 14  1  0
 14 15  1  0
 15 16  1  0
 16 17  1  0
 17 18  2  0
 17 19  1  0
 19 20  1  0
 20 21  2  0
 21 22  1  0
 22 23  2  0
 23 24  1  0
 14 25  2  0
 25  2  1  0
 10  5  1  0
 24 20  1  0
  1 26  1  0
  1 27  1  0
  1 28  1  0
  3 29  1  0
  6 30  1  0
  7 31  1  0
  8 32  1  0
  9 33  1  0
 10 34  1  0
 16 35  1  0
 16 36  1  0
 19 37  1  0
 22 38  1  0
 23 39  1  0
M  END
>  <Binding energies>  (1) 
[-7.64]

>  <Ligand effiencies>  (1) 
[-0.2938461538461538]

>  <Interactions>  (1) 
["V-B:TYR:539:C:9835, V-B:TYR:539:CD2:9842, V-A:LEU:475:CD2:4254, V-A:TRP:381:CZ2:3365, V-A:LEU:475:CD1:4253, V-B:PRO:540:C:9849, V-B:TYR:539:CE2:9844, V-B:PRO:540:N:9852, V-B:ALA:541:CB:9860, V-A:TRP:381:CH2:3367, V-B:PRO:540:CA:9851, V-B:PRO:540:CB:9853, V-A:PRO:482:CB:4321, V-B:GLU:543:CD:9876, V-A:ASP:366:CB:3207, V-A:ASP:366:CG:3208, H-A:TYR:484:OH:4343, V-A:ILE:369:CD1:3234, H-A:TYR:531:OH:4790, V-A:ASP:366:CA:3205, V-A:ARG:545:CZ:4921, H-A:GLY:454:N:4045, V-A:LEU:475:CG:4252, V-A:ARG:545:CD:4918, H-A:ARG:545:NH1:4922, H-A:ARG:545:NE:4919, H-A:ASP:366:OD1:3209, H-A:ASP:366:OD2:3210"]

$$$$
3ck_Grossjean_2025
     RDKit          3D

 57 58  0  0  0  0  0  0  0  0999 V2000
  133.0690  130.7950   58.0880 C   0  0  0  0  0  0  0  0  0  0  0  0
  132.7700  131.9000   57.2490 O   0  0  0  0  0  0  0  0  0  0  0  0
  131.7720  131.6190   56.2780 C   0  0  0  0  0  0  0  0  0  0  0  0
  131.2250  132.9350   55.7090 C   0  0  0  0  0  0  0  0  0  0  0  0
  130.1600  133.3960   56.5290 O   0  0  0  0  0  0  0  0  0  0  0  0
  129.9340  132.5970   57.6840 C   0  0  0  0  0  0  0  0  0  0  0  0
  128.6050  133.0120   58.3280 C   0  0  0  0  0  0  0  0  0  0  0  0
  128.1750  131.9630   59.1820 O   0  0  0  0  0  0  0  0  0  0  0  0
  127.5490  130.8740   58.5200 C   0  0  0  0  0  0  0  0  0  0  0  0
  126.0190  131.0410   58.5870 C   0  0  0  0  0  0  0  0  0  0  0  0
  125.5760  132.0270   59.5770 N   0  0  0  0  0  0  0  0  0  0  0  0
  124.3380  132.5450   59.6680 C   0  0  0  0  0  0  0  0  0  0  0  0
  123.4120  132.2180   58.9230 O   0  0  0  0  0  0  0  0  0  0  0  0
  124.1370  133.5870   60.7800 C   0  0  0  0  0  0  0  0  0  0  0  0
  123.9420  132.9080   62.4630 S   0  0  0  0  0  0  0  0  0  0  0  0
  125.4910  132.1880   62.9860 C   0  0  0  0  0  0  0  0  0  0  0  0
  126.5970  132.6510   62.3510 N   0  0  0  0  0  0  0  0  0  0  0  0
  127.8030  132.1470   62.6930 C   0  0  0  0  0  0  0  0  0  0  0  0
  128.9920  132.7110   61.9390 C   0  0  0  0  0  0  0  0  0  0  0  0
  127.9570  131.1690   63.6730 C   0  0  0  0  0  0  0  0  0  0  0  0
  126.8290  130.6710   64.3380 C   0  0  0  0  0  0  0  0  0  0  0  0
  127.0400  129.6070   65.3640 C   0  0  0  0  0  0  0  0  0  0  0  0
  126.2240  128.4690   65.3740 C   0  0  0  0  0  0  0  0  0  0  0  0
  126.4090  127.4760   66.3350 C   0  0  0  0  0  0  0  0  0  0  0  0
  127.4070  127.6220   67.2930 C   0  0  0  0  0  0  0  0  0  0  0  0
  128.2210  128.7530   67.3020 C   0  0  0  0  0  0  0  0  0  0  0  0
  128.0340  129.7420   66.3410 C   0  0  0  0  0  0  0  0  0  0  0  0
  125.5580  131.2010   63.9970 C   0  0  0  0  0  0  0  0  0  0  0  0
  124.3460  130.7470   64.6890 C   0  0  0  0  0  0  0  0  0  0  0  0
  123.3910  130.3900   65.2360 N   0  0  0  0  0  0  0  0  0  0  0  0
  132.9861  131.1013   59.1412 H   0  0  0  0  0  0  0  0  0  0  0  0
  132.3593  129.9790   57.8865 H   0  0  0  0  0  0  0  0  0  0  0  0
  134.0933  130.4482   57.8865 H   0  0  0  0  0  0  0  0  0  0  0  0
  132.2100  131.0221   55.4645 H   0  0  0  0  0  0  0  0  0  0  0  0
  130.9529  131.0547   56.7477 H   0  0  0  0  0  0  0  0  0  0  0  0
  132.0265  133.6882   55.6902 H   0  0  0  0  0  0  0  0  0  0  0  0
  130.8562  132.7685   54.6861 H   0  0  0  0  0  0  0  0  0  0  0  0
  129.8884  131.5365   57.3953 H   0  0  0  0  0  0  0  0  0  0  0  0
  130.7551  132.7415   58.4016 H   0  0  0  0  0  0  0  0  0  0  0  0
  128.7469  133.9328   58.9128 H   0  0  0  0  0  0  0  0  0  0  0  0
  127.8502  133.2001   57.5502 H   0  0  0  0  0  0  0  0  0  0  0  0
  127.8694  130.8517   57.4679 H   0  0  0  0  0  0  0  0  0  0  0  0
  127.8363  129.9329   59.0116 H   0  0  0  0  0  0  0  0  0  0  0  0
  125.6607  131.3584   57.5966 H   0  0  0  0  0  0  0  0  0  0  0  0
  125.6030  130.0697   58.8928 H   0  0  0  0  0  0  0  0  0  0  0  0
  126.2740  132.3370   60.2370 H   0  0  0  0  0  0  0  0  0  0  0  0
  125.0118  134.2539   60.7823 H   0  0  0  0  0  0  0  0  0  0  0  0
  123.1914  134.0991   60.5483 H   0  0  0  0  0  0  0  0  0  0  0  0
  129.7453  133.0683   62.6566 H   0  0  0  0  0  0  0  0  0  0  0  0
  129.4315  131.9254   61.3068 H   0  0  0  0  0  0  0  0  0  0  0  0
  128.6616  133.5483   61.3068 H   0  0  0  0  0  0  0  0  0  0  0  0
  128.9588  130.7898   63.9233 H   0  0  0  0  0  0  0  0  0  0  0  0
  125.4320  128.3578   64.6188 H   0  0  0  0  0  0  0  0  0  0  0  0
  125.7689  126.5814   66.3357 H   0  0  0  0  0  0  0  0  0  0  0  0
  127.5549  126.8378   68.0501 H   0  0  0  0  0  0  0  0  0  0  0  0
  129.0066  128.8634   68.0641 H   0  0  0  0  0  0  0  0  0  0  0  0
  128.6726  130.6376   66.3489 H   0  0  0  0  0  0  0  0  0  0  0  0
  1  2  1  0
  2  3  1  0
  3  4  1  0
  4  5  1  0
  5  6  1  0
  6  7  1  0
  7  8  1  0
  8  9  1  0
  9 10  1  0
 10 11  1  0
 11 12  1  0
 12 13  2  0
 12 14  1  0
 14 15  1  0
 15 16  1  0
 16 17  2  0
 17 18  1  0
 18 19  1  0
 18 20  2  0
 20 21  1  0
 21 22  1  0
 22 23  2  0
 23 24  1  0
 24 25  2  0
 25 26  1  0
 26 27  2  0
 21 28  2  0
 28 29  1  0
 29 30  3  0
 28 16  1  0
 27 22  1  0
  1 31  1  0
  1 32  1  0
  1 33  1  0
  3 34  1  0
  3 35  1  0
  4 36  1  0
  4 37  1  0
  6 38  1  0
  6 39  1  0
  7 40  1  0
  7 41  1  0
  9 42  1  0
  9 43  1  0
 10 44  1  0
 10 45  1  0
 11 46  1  0
 14 47  1  0
 14 48  1  0
 19 49  1  0
 19 50  1  0
 19 51  1  0
 20 52  1  0
 23 53  1  0
 24 54  1  0
 25 55  1  0
 26 56  1  0
 27 57  1  0
M  END
>  <Binding energies>  (1) 
[-6.65]

>  <Ligand effiencies>  (1) 
[-0.21451612903225808]

>  <Interactions>  (1) 
["V-B:GLU:543:CD:9876, V-A:GLU:543:CG:4902, V-A:PRO:540:N:4879, V-A:TYR:539:CE2:4871, V-A:TYR:531:CE2:4788, V-A:PRO:540:CA:4878, V-A:TYR:539:CE1:4870, V-A:TYR:539:CZ:4872, V-A:PRO:540:CB:4880, V-A:LEU:363:CD1:3184, V-A:TYR:539:C:4862, V-A:LEU:363:CA:3180, V-A:PRO:540:CD:4882, V-B:GLU:543:CG:9875, V-A:TYR:539:CD2:4869, H-B:GLY:454:N:9017, V-B:ILE:369:CD1:8206, V-B:LEU:475:CD2:9226, H-A:TYR:539:N:4865, V-A:TYR:539:CD1:4868, V-A:ALA:541:CB:4887, V-A:TYR:539:CG:4867, V-A:ILE:538:CG2:4858, H-A:TYR:539:OH:4873, V-A:ILE:538:CA:4855, V-B:ILE:369:CG2:8204, V-B:HIS:456:CE1:9037, V-B:ARG:545:CG:9890, V-B:GLU:543:CB:9874"]

$$$$
4aa_Grossjean_2025
     RDKit          3D

 45 47  0  0  0  0  0  0  0  0999 V2000
  123.7580  123.7670   58.4910 C   0  0  0  0  0  0  0  0  0  0  0  0
  123.8640  124.7500   57.3210 C   0  0  0  0  0  0  0  0  0  0  0  0
  124.9360  124.3600   56.4730 O   0  0  0  0  0  0  0  0  0  0  0  0
  125.7170  123.2910   56.7750 C   0  0  0  0  0  0  0  0  0  0  0  0
  125.5440  122.1650   56.2980 O   0  0  0  0  0  0  0  0  0  0  0  0
  126.8100  123.6120   57.7530 C   0  0  0  0  0  0  0  0  0  0  0  0
  126.8660  122.9180   58.9690 C   0  0  0  0  0  0  0  0  0  0  0  0
  127.8640  123.1960   59.8990 C   0  0  0  0  0  0  0  0  0  0  0  0
  128.8310  124.1660   59.6290 C   0  0  0  0  0  0  0  0  0  0  0  0
  129.7880  124.3720   60.6410 N   0  0  0  0  0  0  0  0  0  0  0  0
  131.1280  124.5550   60.5520 C   0  0  0  0  0  0  0  0  0  0  0  0
  131.7620  124.5240   59.4970 O   0  0  0  0  0  0  0  0  0  0  0  0
  131.8140  124.7760   61.8260 C   0  0  0  0  0  0  0  0  0  0  0  0
  133.5220  124.3630   62.0010 S   0  0  0  0  0  0  0  0  0  0  0  0
  133.5170  124.8540   63.6800 C   0  0  0  0  0  0  0  0  0  0  0  0
  134.6110  124.7790   64.4400 N   0  0  0  0  0  0  0  0  0  0  0  0
  134.4700  125.1870   65.7250 C   0  0  0  0  0  0  0  0  0  0  0  0
  135.7250  125.0900   66.5740 C   0  0  0  0  0  0  0  0  0  0  0  0
  133.2770  125.6660   66.2600 C   0  0  0  0  0  0  0  0  0  0  0  0
  132.1320  125.7440   65.4600 C   0  0  0  0  0  0  0  0  0  0  0  0
  130.8520  126.2730   66.0900 C   0  0  0  0  0  0  0  0  0  0  0  0
  132.2380  125.3210   64.1070 C   0  0  0  0  0  0  0  0  0  0  0  0
  131.2840  125.2610   63.0320 C   0  0  0  0  0  0  0  0  0  0  0  0
  129.9790  125.6530   63.1900 N   0  0  0  0  0  0  0  0  0  0  0  0
  128.7800  124.8700   58.4170 C   0  0  0  0  0  0  0  0  0  0  0  0
  127.7790  124.5920   57.4900 C   0  0  0  0  0  0  0  0  0  0  0  0
  123.8176  124.3193   59.4404 H   0  0  0  0  0  0  0  0  0  0  0  0
  122.7972  123.2342   58.4364 H   0  0  0  0  0  0  0  0  0  0  0  0
  124.5831  123.0416   58.4364 H   0  0  0  0  0  0  0  0  0  0  0  0
  122.9237  124.7441   56.7503 H   0  0  0  0  0  0  0  0  0  0  0  0
  124.0507  125.7628   57.7075 H   0  0  0  0  0  0  0  0  0  0  0  0
  126.1143  122.1462   59.1909 H   0  0  0  0  0  0  0  0  0  0  0  0
  127.8908  122.6480   60.8524 H   0  0  0  0  0  0  0  0  0  0  0  0
  129.4070  124.3680   61.5770 H   0  0  0  0  0  0  0  0  0  0  0  0
  135.4499  125.1113   67.6388 H   0  0  0  0  0  0  0  0  0  0  0  0
  136.2480  124.1488   66.3491 H   0  0  0  0  0  0  0  0  0  0  0  0
  136.3864  125.9397   66.3491 H   0  0  0  0  0  0  0  0  0  0  0  0
  133.2348  125.9833   67.3124 H   0  0  0  0  0  0  0  0  0  0  0  0
  130.9404  126.2365   67.1858 H   0  0  0  0  0  0  0  0  0  0  0  0
  130.6882  127.3125   65.7698 H   0  0  0  0  0  0  0  0  0  0  0  0
  130.0021  125.6524   65.7698 H   0  0  0  0  0  0  0  0  0  0  0  0
  129.6960  126.6170   63.0900 H   0  0  0  0  0  0  0  0  0  0  0  0
  129.2540  124.9870   63.4160 H   0  0  0  0  0  0  0  0  0  0  0  0
  129.5318  125.6427   58.1985 H   0  0  0  0  0  0  0  0  0  0  0  0
  127.7475  125.1469   56.5408 H   0  0  0  0  0  0  0  0  0  0  0  0
  1  2  1  0
  2  3  1  0
  3  4  1  0
  4  5  2  0
  4  6  1  0
  6  7  2  0
  7  8  1  0
  8  9  2  0
  9 10  1  0
 10 11  1  0
 11 12  2  0
 11 13  1  0
 13 14  1  0
 14 15  1  0
 15 16  2  0
 16 17  1  0
 17 18  1  0
 17 19  2  0
 19 20  1  0
 20 21  1  0
 20 22  2  0
 22 23  1  0
 23 24  1  0
  9 25  1  0
 25 26  2  0
 26  6  1  0
 23 13  2  0
 22 15  1  0
  1 27  1  0
  1 28  1  0
  1 29  1  0
  2 30  1  0
  2 31  1  0
  7 32  1  0
  8 33  1  0
 10 34  1  0
 18 35  1  0
 18 36  1  0
 18 37  1  0
 19 38  1  0
 21 39  1  0
 21 40  1  0
 21 41  1  0
 24 42  1  0
 24 43  1  0
 25 44  1  0
 26 45  1  0
M  END
>  <Binding energies>  (1) 
[-7.42]

>  <Ligand effiencies>  (1) 
[-0.2558620689655172]

>  <Interactions>  (1) 
["V-B:TYR:539:C:9835, V-B:PRO:540:N:9852, V-B:PRO:540:CA:9851, V-B:MET:535:CE:9803, V-B:PRO:540:CB:9853, H-B:GLU:543:OE2:9878, V-B:GLU:543:CD:9876, V-A:ASP:366:CG:3208, V-A:GLU:543:CD:4903, H-A:TYR:484:OH:4343, H-B:TYR:539:N:9838, V-B:LEU:363:CB:8154, V-B:ASP:366:CG:8180, V-B:LEU:363:CD1:8156, V-B:TYR:531:CZ:9762, V-B:TYR:531:CE2:9761, V-B:ASP:366:CB:8179, V-B:LEU:363:CA:8152, V-A:HIS:456:CE1:4064, V-A:ARG:545:CZ:4921, V-A:GLY:453:CA:4039, H-A:GLY:454:N:4045, V-A:GLY:454:CA:4044, V-A:ARG:545:CD:4918, V-A:ARG:545:CG:4917, H-A:ARG:545:NH1:4922, H-B:TYR:531:OH:9763, V-A:ARG:545:CB:4916, V-A:GLY:453:C:4037, V-A:ILE:455:C:4047, V-A:HIS:456:CD2:4063"]

$$$$
4ab_Grossjean_2025
     RDKit          3D

 42 44  0  0  0  0  0  0  0  0999 V2000
  123.7890  124.0260   57.8900 C   0  0  0  0  0  0  0  0  0  0  0  0
  124.6890  123.8110   56.8130 O   0  0  0  0  0  0  0  0  0  0  0  0
  125.5970  122.8020   56.8520 C   0  0  0  0  0  0  0  0  0  0  0  0
  125.5150  121.7850   56.1540 O   0  0  0  0  0  0  0  0  0  0  0  0
  126.7070  123.0410   57.8330 C   0  0  0  0  0  0  0  0  0  0  0  0
  126.4470  123.7860   58.9910 C   0  0  0  0  0  0  0  0  0  0  0  0
  127.4570  124.0270   59.9200 C   0  0  0  0  0  0  0  0  0  0  0  0
  128.7410  123.5220   59.7150 C   0  0  0  0  0  0  0  0  0  0  0  0
  129.6840  123.8320   60.7130 N   0  0  0  0  0  0  0  0  0  0  0  0
  131.0180  124.0510   60.6170 C   0  0  0  0  0  0  0  0  0  0  0  0
  131.6600  123.9660   59.5690 O   0  0  0  0  0  0  0  0  0  0  0  0
  131.6890  124.3820   61.8750 C   0  0  0  0  0  0  0  0  0  0  0  0
  133.4330  124.1630   62.0390 S   0  0  0  0  0  0  0  0  0  0  0  0
  133.3920  124.7010   63.7030 C   0  0  0  0  0  0  0  0  0  0  0  0
  134.4940  124.7680   64.4510 N   0  0  0  0  0  0  0  0  0  0  0  0
  134.3250  125.1990   65.7240 C   0  0  0  0  0  0  0  0  0  0  0  0
  135.5900  125.2620   66.5600 C   0  0  0  0  0  0  0  0  0  0  0  0
  133.0920  125.5650   66.2610 C   0  0  0  0  0  0  0  0  0  0  0  0
  131.9370  125.4940   65.4730 C   0  0  0  0  0  0  0  0  0  0  0  0
  130.6150  125.9020   66.1050 C   0  0  0  0  0  0  0  0  0  0  0  0
  132.0750  125.0420   64.1330 C   0  0  0  0  0  0  0  0  0  0  0  0
  131.1230  124.8450   63.0730 C   0  0  0  0  0  0  0  0  0  0  0  0
  129.7830  125.0960   63.2370 N   0  0  0  0  0  0  0  0  0  0  0  0
  129.0120  122.7800   58.5560 C   0  0  0  0  0  0  0  0  0  0  0  0
  128.0020  122.5420   57.6270 C   0  0  0  0  0  0  0  0  0  0  0  0
  124.3217  123.8987   58.8440 H   0  0  0  0  0  0  0  0  0  0  0  0
  123.3827  125.0465   57.8302 H   0  0  0  0  0  0  0  0  0  0  0  0
  122.9654  123.2993   57.8302 H   0  0  0  0  0  0  0  0  0  0  0  0
  125.4369  124.1839   59.1681 H   0  0  0  0  0  0  0  0  0  0  0  0
  127.2404  124.6195   60.8211 H   0  0  0  0  0  0  0  0  0  0  0  0
  129.2970  123.8850   61.6430 H   0  0  0  0  0  0  0  0  0  0  0  0
  135.3250  125.2488   67.6275 H   0  0  0  0  0  0  0  0  0  0  0  0
  136.2256  124.3944   66.3292 H   0  0  0  0  0  0  0  0  0  0  0  0
  136.1363  126.1885   66.3292 H   0  0  0  0  0  0  0  0  0  0  0  0
  133.0264  125.9095   67.3036 H   0  0  0  0  0  0  0  0  0  0  0  0
  130.7081  125.8733   67.2007 H   0  0  0  0  0  0  0  0  0  0  0  0
  130.3553  126.9221   65.7857 H   0  0  0  0  0  0  0  0  0  0  0  0
  129.8256  125.2057   65.7857 H   0  0  0  0  0  0  0  0  0  0  0  0
  129.2510  124.6820   63.9880 H   0  0  0  0  0  0  0  0  0  0  0  0
  129.2820  125.7030   62.6030 H   0  0  0  0  0  0  0  0  0  0  0  0
  130.0237  122.3855   58.3805 H   0  0  0  0  0  0  0  0  0  0  0  0
  128.2220  121.9565   56.7221 H   0  0  0  0  0  0  0  0  0  0  0  0
  1  2  1  0
  2  3  1  0
  3  4  2  0
  3  5  1  0
  5  6  2  0
  6  7  1  0
  7  8  2  0
  8  9  1  0
  9 10  1  0
 10 11  2  0
 10 12  1  0
 12 13  1  0
 13 14  1  0
 14 15  2  0
 15 16  1  0
 16 17  1  0
 16 18  2  0
 18 19  1  0
 19 20  1  0
 19 21  2  0
 21 22  1  0
 22 23  1  0
  8 24  1  0
 24 25  2  0
 25  5  1  0
 22 12  2  0
 21 14  1  0
  1 26  1  0
  1 27  1  0
  1 28  1  0
  6 29  1  0
  7 30  1  0
  9 31  1  0
 17 32  1  0
 17 33  1  0
 17 34  1  0
 18 35  1  0
 20 36  1  0
 20 37  1  0
 20 38  1  0
 23 39  1  0
 23 40  1  0
 24 41  1  0
 25 42  1  0
M  END
>  <Binding energies>  (1) 
[-7.74]

>  <Ligand effiencies>  (1) 
[-0.2764285714285714]

>  <Interactions>  (1) 
["V-B:TYR:539:C:9835, V-B:TYR:539:CD2:9842, V-B:TYR:539:CE2:9844, V-B:PRO:540:N:9852, V-B:PRO:540:CA:9851, V-B:MET:535:CE:9803, V-B:PRO:540:CB:9853, H-B:GLU:543:OE2:9878, V-B:GLU:543:CD:9876, V-A:ASP:366:CG:3208, H-A:TYR:484:OH:4343, H-B:TYR:539:N:9838, V-B:LEU:363:CB:8154, V-B:PRO:540:CD:9855, V-B:LEU:363:CD1:8156, V-B:LEU:363:CA:8152, V-A:HIS:456:CE1:4064, V-A:ILE:369:CD1:3234, V-B:LEU:363:CG:8155, V-A:ARG:545:CZ:4921, V-A:GLY:453:CA:4039, H-A:GLY:454:N:4045, V-A:ARG:545:CD:4918, V-A:ARG:545:CG:4917, H-A:ARG:545:NH1:4922, V-A:ARG:545:CB:4916, V-A:GLY:453:C:4037, V-A:ILE:455:C:4047, V-A:HIS:456:CD2:4063"]

$$$$
4ac_Grossjean_2025
     RDKit          3D

 40 42  0  0  0  0  0  0  0  0999 V2000
  124.8870  122.3830   56.4720 C   0  0  0  0  0  0  0  0  0  0  0  0
  126.2580  122.1400   56.1710 O   0  0  0  0  0  0  0  0  0  0  0  0
  127.2200  122.4550   57.1100 C   0  0  0  0  0  0  0  0  0  0  0  0
  126.7590  122.8660   58.3600 C   0  0  0  0  0  0  0  0  0  0  0  0
  127.6550  123.2040   59.3710 C   0  0  0  0  0  0  0  0  0  0  0  0
  129.0300  123.1250   59.1450 C   0  0  0  0  0  0  0  0  0  0  0  0
  129.8590  123.4990   60.2200 N   0  0  0  0  0  0  0  0  0  0  0  0
  131.1290  123.9690   60.1990 C   0  0  0  0  0  0  0  0  0  0  0  0
  131.7930  124.1150   59.1710 O   0  0  0  0  0  0  0  0  0  0  0  0
  131.6970  124.3000   61.5090 C   0  0  0  0  0  0  0  0  0  0  0  0
  133.3720  123.8920   61.8830 S   0  0  0  0  0  0  0  0  0  0  0  0
  133.2290  124.5720   63.4890 C   0  0  0  0  0  0  0  0  0  0  0  0
  134.2480  124.5730   64.3480 N   0  0  0  0  0  0  0  0  0  0  0  0
  134.0040  125.1300   65.5590 C   0  0  0  0  0  0  0  0  0  0  0  0
  135.1770  125.1220   66.5230 C   0  0  0  0  0  0  0  0  0  0  0  0
  132.7760  125.6770   65.9280 C   0  0  0  0  0  0  0  0  0  0  0  0
  131.7090  125.6740   65.0230 C   0  0  0  0  0  0  0  0  0  0  0  0
  130.3890  126.2830   65.4720 C   0  0  0  0  0  0  0  0  0  0  0  0
  131.9280  125.1000   63.7420 C   0  0  0  0  0  0  0  0  0  0  0  0
  131.0750  124.9340   62.5960 C   0  0  0  0  0  0  0  0  0  0  0  0
  129.7710  125.3630   62.5860 N   0  0  0  0  0  0  0  0  0  0  0  0
  129.5030  122.7250   57.8870 C   0  0  0  0  0  0  0  0  0  0  0  0
  128.6030  122.3880   56.8780 C   0  0  0  0  0  0  0  0  0  0  0  0
  124.7499  122.4073   57.5632 H   0  0  0  0  0  0  0  0  0  0  0  0
  124.5830  123.3490   56.0426 H   0  0  0  0  0  0  0  0  0  0  0  0
  124.2695  121.5803   56.0426 H   0  0  0  0  0  0  0  0  0  0  0  0
  125.6770  122.9238   58.5494 H   0  0  0  0  0  0  0  0  0  0  0  0
  127.2781  123.5341   60.3503 H   0  0  0  0  0  0  0  0  0  0  0  0
  129.4490  123.3620   61.1330 H   0  0  0  0  0  0  0  0  0  0  0  0
  134.8018  125.1246   67.5570 H   0  0  0  0  0  0  0  0  0  0  0  0
  135.7834  124.2197   66.3552 H   0  0  0  0  0  0  0  0  0  0  0  0
  135.7956  126.0159   66.3552 H   0  0  0  0  0  0  0  0  0  0  0  0
  132.6459  126.1109   66.9304 H   0  0  0  0  0  0  0  0  0  0  0  0
  130.3488  126.3015   66.5711 H   0  0  0  0  0  0  0  0  0  0  0  0
  130.3082  127.3094   65.0848 H   0  0  0  0  0  0  0  0  0  0  0  0
  129.5557  125.6783   65.0848 H   0  0  0  0  0  0  0  0  0  0  0  0
  129.0540  124.9000   63.1230 H   0  0  0  0  0  0  0  0  0  0  0  0
  129.4870  126.1630   62.0370 H   0  0  0  0  0  0  0  0  0  0  0  0
  130.5853  122.6772   57.6965 H   0  0  0  0  0  0  0  0  0  0  0  0
  128.9780  122.0678   55.8947 H   0  0  0  0  0  0  0  0  0  0  0  0
  1  2  1  0
  2  3  1  0
  3  4  2  0
  4  5  1  0
  5  6  2  0
  6  7  1  0
  7  8  1  0
  8  9  2  0
  8 10  1  0
 10 11  1  0
 11 12  1  0
 12 13  2  0
 13 14  1  0
 14 15  1  0
 14 16  2  0
 16 17  1  0
 17 18  1  0
 17 19  2  0
 19 20  1  0
 20 21  1  0
  6 22  1  0
 22 23  2  0
 23  3  1  0
 20 10  2  0
 19 12  1  0
  1 24  1  0
  1 25  1  0
  1 26  1  0
  4 27  1  0
  5 28  1  0
  7 29  1  0
 15 30  1  0
 15 31  1  0
 15 32  1  0
 16 33  1  0
 18 34  1  0
 18 35  1  0
 18 36  1  0
 21 37  1  0
 21 38  1  0
 22 39  1  0
 23 40  1  0
M  END
>  <Binding energies>  (1) 
[-7.24]

>  <Ligand effiencies>  (1) 
[-0.2784615384615385]

>  <Interactions>  (1) 
["V-B:TYR:539:C:9835, V-B:TYR:539:CD2:9842, V-B:TYR:539:CE2:9844, V-B:PRO:540:N:9852, V-B:PRO:540:CA:9851, V-B:MET:535:CE:9803, V-B:PRO:540:CB:9853, H-B:GLU:543:OE2:9878, V-B:GLU:543:CD:9876, V-A:ASP:366:CG:3208, V-A:GLU:543:CD:4903, H-A:TYR:484:OH:4343, H-B:TYR:539:N:9838, V-B:PRO:540:CD:9855, V-B:LEU:363:CD1:8156, V-B:TYR:539:CZ:9845, V-B:TYR:539:CE1:9843, V-A:ILE:369:CD1:3234, V-B:PRO:540:CG:9854, V-A:ARG:545:CZ:4921, V-A:GLY:453:CA:4039, H-A:GLY:454:N:4045, V-A:ARG:545:CD:4918, V-B:TYR:539:CD1:9841, V-A:ARG:545:CG:4917, V-B:TYR:539:CG:9840, V-A:GLY:453:C:4037, V-A:HIS:456:CD2:4063, V-B:ILE:538:CG2:9831"]

$$$$
4ad_Grossjean_2025
     RDKit          3D

 36 38  0  0  0  0  0  0  0  0999 V2000
  131.1070  132.9130   54.6650 C   0  0  0  0  0  0  0  0  0  0  0  0
  131.2190  132.4050   56.0910 C   0  0  0  0  0  0  0  0  0  0  0  0
  132.2700  131.5760   56.4770 C   0  0  0  0  0  0  0  0  0  0  0  0
  132.3510  131.1170   57.7970 C   0  0  0  0  0  0  0  0  0  0  0  0
  133.5150  130.2120   58.1710 C   0  0  0  0  0  0  0  0  0  0  0  0
  131.3370  131.5260   58.7050 C   0  0  0  0  0  0  0  0  0  0  0  0
  131.1140  131.2510   60.0980 C   0  0  0  0  0  0  0  0  0  0  0  0
  131.9630  130.4610   60.8320 N   0  0  0  0  0  0  0  0  0  0  0  0
  129.9640  131.8610   60.6250 C   0  0  0  0  0  0  0  0  0  0  0  0
  129.4330  131.7830   61.9860 C   0  0  0  0  0  0  0  0  0  0  0  0
  129.7550  132.6160   62.8350 O   0  0  0  0  0  0  0  0  0  0  0  0
  128.5770  130.7560   62.2180 N   0  0  0  0  0  0  0  0  0  0  0  0
  127.9330  130.3790   63.4120 C   0  0  0  0  0  0  0  0  0  0  0  0
  126.5390  130.2930   63.3540 C   0  0  0  0  0  0  0  0  0  0  0  0
  125.8120  129.9180   64.4800 C   0  0  0  0  0  0  0  0  0  0  0  0
  126.4790  129.6210   65.6650 C   0  0  0  0  0  0  0  0  0  0  0  0
  127.8690  129.6900   65.7330 C   0  0  0  0  0  0  0  0  0  0  0  0
  128.5990  130.0650   64.6080 C   0  0  0  0  0  0  0  0  0  0  0  0
  129.1250  132.8040   59.3920 S   0  0  0  0  0  0  0  0  0  0  0  0
  130.3140  132.3750   58.1840 C   0  0  0  0  0  0  0  0  0  0  0  0
  130.2350  132.8140   56.9270 N   0  0  0  0  0  0  0  0  0  0  0  0
  130.8702  133.9871   54.6760 H   0  0  0  0  0  0  0  0  0  0  0  0
  132.0619  132.7534   54.1428 H   0  0  0  0  0  0  0  0  0  0  0  0
  130.3077  132.3666   54.1428 H   0  0  0  0  0  0  0  0  0  0  0  0
  133.0362  131.2821   55.7445 H   0  0  0  0  0  0  0  0  0  0  0  0
  133.5943  130.1504   59.2664 H   0  0  0  0  0  0  0  0  0  0  0  0
  133.3450  129.2065   57.7585 H   0  0  0  0  0  0  0  0  0  0  0  0
  134.4475  130.6246   57.7585 H   0  0  0  0  0  0  0  0  0  0  0  0
  132.3200  129.5860   60.4770 H   0  0  0  0  0  0  0  0  0  0  0  0
  132.2650  130.7340   61.7580 H   0  0  0  0  0  0  0  0  0  0  0  0
  128.3480  130.1810   61.4210 H   0  0  0  0  0  0  0  0  0  0  0  0
  126.0146  130.5226   62.4147 H   0  0  0  0  0  0  0  0  0  0  0  0
  124.7147  129.8566   64.4336 H   0  0  0  0  0  0  0  0  0  0  0  0
  125.9036  129.3292   66.5559 H   0  0  0  0  0  0  0  0  0  0  0  0
  128.3881  129.4490   66.6724 H   0  0  0  0  0  0  0  0  0  0  0  0
  129.6968  130.1153   64.6560 H   0  0  0  0  0  0  0  0  0  0  0  0
  1  2  1  0
  2  3  2  0
  3  4  1  0
  4  5  1  0
  4  6  2  0
  6  7  1  0
  7  8  1  0
  7  9  2  0
  9 10  1  0
 10 11  2  0
 10 12  1  0
 12 13  1  0
 13 14  2  0
 14 15  1  0
 15 16  2  0
 16 17  1  0
 17 18  2  0
  9 19  1  0
 19 20  1  0
 20 21  2  0
 21  2  1  0
 20  6  1  0
 18 13  1  0
  1 22  1  0
  1 23  1  0
  1 24  1  0
  3 25  1  0
  5 26  1  0
  5 27  1  0
  5 28  1  0
  8 29  1  0
  8 30  1  0
 12 31  1  0
 14 32  1  0
 15 33  1  0
 16 34  1  0
 17 35  1  0
 18 36  1  0
M  END
>  <Binding energies>  (1) 
[-6.72]

>  <Ligand effiencies>  (1) 
[-0.27999999999999997]

>  <Interactions>  (1) 
["V-A:GLU:543:CG:4902, V-A:PRO:540:N:4879, V-A:TYR:531:CZ:4789, V-A:TYR:531:CE2:4788, V-A:PRO:540:CA:4878, H-A:ALA:541:N:4886, V-A:PRO:540:CB:4880, V-A:LEU:363:CD1:3184, V-A:TYR:539:C:4862, V-A:LEU:363:CA:3180, V-A:PRO:540:CD:4882, H-A:GLU:543:OE2:4905, V-A:GLU:543:CD:4903, H-A:TYR:539:N:4865, V-A:ILE:538:CG2:4858, V-A:ILE:538:CA:4855, V-A:ILE:538:CB:4857, V-B:HIS:456:CE1:9037, V-A:ILE:538:CD1:4860, H-A:ASP:366:OD2:3210"]

$$$$
4ae_Grossjean_2025
     RDKit          3D

 38 40  0  0  0  0  0  0  0  0999 V2000
  128.6290  130.3800   67.1080 C   0  0  0  0  0  0  0  0  0  0  0  0
  127.9890  130.0280   65.7790 C   0  0  0  0  0  0  0  0  0  0  0  0
  126.7910  129.3130   65.7100 C   0  0  0  0  0  0  0  0  0  0  0  0
  126.2660  129.0180   64.4520 C   0  0  0  0  0  0  0  0  0  0  0  0
  126.9430  129.4390   63.3050 C   0  0  0  0  0  0  0  0  0  0  0  0
  128.1340  130.1590   63.4450 C   0  0  0  0  0  0  0  0  0  0  0  0
  128.7800  130.5370   62.2560 N   0  0  0  0  0  0  0  0  0  0  0  0
  129.6980  131.5180   62.0640 C   0  0  0  0  0  0  0  0  0  0  0  0
  130.1080  132.2580   62.9590 O   0  0  0  0  0  0  0  0  0  0  0  0
  130.1870  131.6590   60.6910 C   0  0  0  0  0  0  0  0  0  0  0  0
  129.2880  132.6230   59.5190 S   0  0  0  0  0  0  0  0  0  0  0  0
  130.4400  132.2520   58.2570 C   0  0  0  0  0  0  0  0  0  0  0  0
  130.3040  132.7240   57.0170 N   0  0  0  0  0  0  0  0  0  0  0  0
  131.2630  132.3570   56.1330 C   0  0  0  0  0  0  0  0  0  0  0  0
  131.0860  132.8990   54.7260 C   0  0  0  0  0  0  0  0  0  0  0  0
  132.3450  131.5390   56.4570 C   0  0  0  0  0  0  0  0  0  0  0  0
  132.4840  131.0470   57.7590 C   0  0  0  0  0  0  0  0  0  0  0  0
  133.6790  130.1560   58.0630 C   0  0  0  0  0  0  0  0  0  0  0  0
  131.4960  131.4090   58.7150 C   0  0  0  0  0  0  0  0  0  0  0  0
  131.3300  131.0870   60.1070 C   0  0  0  0  0  0  0  0  0  0  0  0
  132.2160  130.2900   60.7870 N   0  0  0  0  0  0  0  0  0  0  0  0
  128.6580  130.4450   64.6740 N   0  0  0  0  0  0  0  0  0  0  0  0
  127.9874  130.0271   67.9288 H   0  0  0  0  0  0  0  0  0  0  0  0
  129.6148  129.8971   67.1796 H   0  0  0  0  0  0  0  0  0  0  0  0
  128.7491  131.4711   67.1796 H   0  0  0  0  0  0  0  0  0  0  0  0
  126.2741  128.9904   66.6258 H   0  0  0  0  0  0  0  0  0  0  0  0
  125.3240  128.4569   64.3636 H   0  0  0  0  0  0  0  0  0  0  0  0
  126.5452  129.2076   62.3059 H   0  0  0  0  0  0  0  0  0  0  0  0
  128.4760  130.0390   61.4330 H   0  0  0  0  0  0  0  0  0  0  0  0
  130.7449  133.9436   54.7757 H   0  0  0  0  0  0  0  0  0  0  0  0
  132.0462  132.8519   54.1914 H   0  0  0  0  0  0  0  0  0  0  0  0
  130.3387  132.2943   54.1914 H   0  0  0  0  0  0  0  0  0  0  0  0
  133.0889  131.2808   55.6889 H   0  0  0  0  0  0  0  0  0  0  0  0
  133.8009  130.0651   59.1524 H   0  0  0  0  0  0  0  0  0  0  0  0
  133.5132  129.1593   57.6282 H   0  0  0  0  0  0  0  0  0  0  0  0
  134.5870  130.5993   57.6282 H   0  0  0  0  0  0  0  0  0  0  0  0
  132.6590  129.4930   60.3520 H   0  0  0  0  0  0  0  0  0  0  0  0
  132.4560  130.4760   61.7500 H   0  0  0  0  0  0  0  0  0  0  0  0
  1  2  1  0
  2  3  2  0
  3  4  1  0
  4  5  2  0
  5  6  1  0
  6  7  1  0
  7  8  1  0
  8  9  2  0
  8 10  1  0
 10 11  1  0
 11 12  1  0
 12 13  2  0
 13 14  1  0
 14 15  1  0
 14 16  2  0
 16 17  1  0
 17 18  1  0
 17 19  2  0
 19 20  1  0
 20 21  1  0
  6 22  2  0
 22  2  1  0
 20 10  2  0
 19 12  1  0
  1 23  1  0
  1 24  1  0
  1 25  1  0
  3 26  1  0
  4 27  1  0
  5 28  1  0
  7 29  1  0
 15 30  1  0
 15 31  1  0
 15 32  1  0
 16 33  1  0
 18 34  1  0
 18 35  1  0
 18 36  1  0
 21 37  1  0
 21 38  1  0
M  END
>  <Binding energies>  (1) 
[-6.95]

>  <Ligand effiencies>  (1) 
[-0.278]

>  <Interactions>  (1) 
["V-A:GLU:543:CG:4902, V-A:PRO:540:N:4879, V-A:TYR:531:CZ:4789, V-A:TYR:531:CE2:4788, V-A:PRO:540:CA:4878, V-A:ASP:366:CB:3207, H-A:ALA:541:N:4886, V-A:PRO:540:CB:4880, V-A:LEU:363:CD1:3184, V-A:TYR:539:C:4862, V-A:LEU:363:CA:3180, V-A:PRO:540:CD:4882, H-A:GLU:543:OE2:4905, V-A:GLU:543:CD:4903, V-A:ILE:538:CG2:4858, V-A:ILE:538:CA:4855, V-A:ILE:538:CB:4857, V-A:GLU:543:CB:4901, V-B:TYR:484:CE1:9312, V-B:HIS:456:CE1:9037, V-B:TYR:484:CZ:9314, H-B:TYR:484:OH:9315, V-A:ILE:538:CD1:4860, H-A:ASP:366:OD2:3210, V-A:GLU:543:CA:4899"]

$$$$
4af_Grossjean_2025
     RDKit          3D

 35 37  0  0  0  0  0  0  0  0999 V2000
  130.6180  132.9440   55.3630 C   0  0  0  0  0  0  0  0  0  0  0  0
  130.5830  132.5330   56.8230 C   0  0  0  0  0  0  0  0  0  0  0  0
  131.6570  131.8630   57.4060 C   0  0  0  0  0  0  0  0  0  0  0  0
  131.6020  131.4910   58.7550 C   0  0  0  0  0  0  0  0  0  0  0  0
  132.7970  130.7610   59.3450 C   0  0  0  0  0  0  0  0  0  0  0  0
  130.4280  131.8200   59.4850 C   0  0  0  0  0  0  0  0  0  0  0  0
  130.0420  131.5930   60.8530 C   0  0  0  0  0  0  0  0  0  0  0  0
  130.8600  130.9500   61.7470 N   0  0  0  0  0  0  0  0  0  0  0  0
  128.7680  132.0870   61.1750 C   0  0  0  0  0  0  0  0  0  0  0  0
  128.0550  132.0050   62.4510 C   0  0  0  0  0  0  0  0  0  0  0  0
  128.4180  132.6770   63.4170 O   0  0  0  0  0  0  0  0  0  0  0  0
  126.9900  131.1660   62.4670 N   0  0  0  0  0  0  0  0  0  0  0  0
  126.1330  130.8270   63.5310 C   0  0  0  0  0  0  0  0  0  0  0  0
  126.4540  129.9620   64.5930 C   0  0  0  0  0  0  0  0  0  0  0  0
  125.5020  129.6950   65.5780 C   0  0  0  0  0  0  0  0  0  0  0  0
  124.2470  130.2970   65.4770 C   0  0  0  0  0  0  0  0  0  0  0  0
  123.9100  131.1280   64.4590 N   0  0  0  0  0  0  0  0  0  0  0  0
  124.8460  131.3770   63.5080 C   0  0  0  0  0  0  0  0  0  0  0  0
  128.0080  132.8500   59.7760 S   0  0  0  0  0  0  0  0  0  0  0  0
  129.4000  132.5070   58.7730 C   0  0  0  0  0  0  0  0  0  0  0  0
  129.4490  132.8630   57.4890 N   0  0  0  0  0  0  0  0  0  0  0  0
  130.7111  134.0378   55.2921 H   0  0  0  0  0  0  0  0  0  0  0  0
  131.4790  132.4699   54.8692 H   0  0  0  0  0  0  0  0  0  0  0  0
  129.6892  132.6223   54.8692 H   0  0  0  0  0  0  0  0  0  0  0  0
  132.5483  131.6263   56.8063 H   0  0  0  0  0  0  0  0  0  0  0  0
  132.7417  130.7948   60.4431 H   0  0  0  0  0  0  0  0  0  0  0  0
  132.7890  129.7134   59.0095 H   0  0  0  0  0  0  0  0  0  0  0  0
  133.7254  131.2463   59.0095 H   0  0  0  0  0  0  0  0  0  0  0  0
  131.0930  129.9720   61.6500 H   0  0  0  0  0  0  0  0  0  0  0  0
  131.2620  131.4390   62.5350 H   0  0  0  0  0  0  0  0  0  0  0  0
  126.7640  130.7180   61.5910 H   0  0  0  0  0  0  0  0  0  0  0  0
  127.4501  129.4985   64.6468 H   0  0  0  0  0  0  0  0  0  0  0  0
  125.7362  129.0235   66.4172 H   0  0  0  0  0  0  0  0  0  0  0  0
  123.4990  130.0888   66.2562 H   0  0  0  0  0  0  0  0  0  0  0  0
  124.5793  132.0456   62.6762 H   0  0  0  0  0  0  0  0  0  0  0  0
  1  2  1  0
  2  3  2  0
  3  4  1  0
  4  5  1  0
  4  6  2  0
  6  7  1  0
  7  8  1  0
  7  9  2  0
  9 10  1  0
 10 11  2  0
 10 12  1  0
 12 13  1  0
 13 14  2  0
 14 15  1  0
 15 16  2  0
 16 17  1  0
 17 18  2  0
  9 19  1  0
 19 20  1  0
 20 21  2  0
 21  2  1  0
 20  6  1  0
 18 13  1  0
  1 22  1  0
  1 23  1  0
  1 24  1  0
  3 25  1  0
  5 26  1  0
  5 27  1  0
  5 28  1  0
  8 29  1  0
  8 30  1  0
 12 31  1  0
 14 32  1  0
 15 33  1  0
 16 34  1  0
 18 35  1  0
M  END
>  <Binding energies>  (1) 
[-6.64]

>  <Ligand effiencies>  (1) 
[-0.27666666666666667]

>  <Interactions>  (1) 
["V-A:PRO:540:N:4879, V-A:TYR:539:CE2:4871, V-A:PRO:540:CA:4878, V-A:PRO:540:CB:4880, V-A:TYR:539:C:4862, V-A:PRO:540:CD:4882, H-A:GLU:543:OE2:4905, V-A:GLU:543:CD:4903, V-A:TYR:539:CD2:4869, H-B:GLY:454:N:9017, V-A:TYR:539:CD1:4868, V-A:ILE:538:CA:4855, V-B:HIS:456:CE1:9037, H-B:TYR:484:OH:9315"]

$$$$
4ag_Grossjean_2025
     RDKit          3D

 39 41  0  0  0  0  0  0  0  0999 V2000
  130.6520  132.8590   54.7100 C   0  0  0  0  0  0  0  0  0  0  0  0
  130.8990  132.3690   56.1250 C   0  0  0  0  0  0  0  0  0  0  0  0
  132.0200  131.5980   56.4310 C   0  0  0  0  0  0  0  0  0  0  0  0
  132.2300  131.1580   57.7430 C   0  0  0  0  0  0  0  0  0  0  0  0
  133.4670  130.3200   58.0280 C   0  0  0  0  0  0  0  0  0  0  0  0
  131.2710  131.5220   58.7260 C   0  0  0  0  0  0  0  0  0  0  0  0
  131.1750  131.2490   60.1340 C   0  0  0  0  0  0  0  0  0  0  0  0
  132.1160  130.5070   60.8030 N   0  0  0  0  0  0  0  0  0  0  0  0
  130.0420  131.8050   60.7460 C   0  0  0  0  0  0  0  0  0  0  0  0
  129.6410  131.7340   62.1510 C   0  0  0  0  0  0  0  0  0  0  0  0
  129.9420  132.6230   62.9500 O   0  0  0  0  0  0  0  0  0  0  0  0
  128.9450  130.6370   62.5150 N   0  0  0  0  0  0  0  0  0  0  0  0
  128.4220  130.3710   63.8550 C   0  0  0  0  0  0  0  0  0  0  0  0
  126.9110  130.5330   63.9730 C   0  0  0  0  0  0  0  0  0  0  0  0
  126.2640  131.5530   63.2700 C   0  0  0  0  0  0  0  0  0  0  0  0
  124.8800  131.6880   63.3570 C   0  0  0  0  0  0  0  0  0  0  0  0
  124.1480  130.7960   64.1380 C   0  0  0  0  0  0  0  0  0  0  0  0
  124.7850  129.7680   64.8290 C   0  0  0  0  0  0  0  0  0  0  0  0
  126.1680  129.6320   64.7420 C   0  0  0  0  0  0  0  0  0  0  0  0
  129.0610  132.6990   59.5840 S   0  0  0  0  0  0  0  0  0  0  0  0
  130.1680  132.3150   58.2850 C   0  0  0  0  0  0  0  0  0  0  0  0
  129.9660  132.7370   57.0360 N   0  0  0  0  0  0  0  0  0  0  0  0
  130.1571  133.8408   54.7431 H   0  0  0  0  0  0  0  0  0  0  0  0
  131.6120  132.9499   54.1807 H   0  0  0  0  0  0  0  0  0  0  0  0
  130.0079  132.1414   54.1807 H   0  0  0  0  0  0  0  0  0  0  0  0
  132.7393  131.3356   55.6412 H   0  0  0  0  0  0  0  0  0  0  0  0
  133.6043  130.2270   59.1154 H   0  0  0  0  0  0  0  0  0  0  0  0
  133.3419  129.3199   57.5873 H   0  0  0  0  0  0  0  0  0  0  0  0
  134.3494  130.8071   57.5873 H   0  0  0  0  0  0  0  0  0  0  0  0
  132.5890  129.7290   60.3670 H   0  0  0  0  0  0  0  0  0  0  0  0
  132.3700  130.7190   61.7580 H   0  0  0  0  0  0  0  0  0  0  0  0
  128.6840  129.9770   61.7970 H   0  0  0  0  0  0  0  0  0  0  0  0
  128.6818  129.3379   64.1291 H   0  0  0  0  0  0  0  0  0  0  0  0
  128.8757  131.1139   64.5275 H   0  0  0  0  0  0  0  0  0  0  0  0
  126.8469  132.2487   62.6485 H   0  0  0  0  0  0  0  0  0  0  0  0
  124.3679  132.4946   62.8119 H   0  0  0  0  0  0  0  0  0  0  0  0
  123.0557  130.9048   64.2096 H   0  0  0  0  0  0  0  0  0  0  0  0
  124.1982  129.0668   65.4406 H   0  0  0  0  0  0  0  0  0  0  0  0
  126.6757  128.8164   65.2778 H   0  0  0  0  0  0  0  0  0  0  0  0
  1  2  1  0
  2  3  2  0
  3  4  1  0
  4  5  1  0
  4  6  2  0
  6  7  1  0
  7  8  1  0
  7  9  2  0
  9 10  1  0
 10 11  2  0
 10 12  1  0
 12 13  1  0
 13 14  1  0
 14 15  2  0
 15 16  1  0
 16 17  2  0
 17 18  1  0
 18 19  2  0
  9 20  1  0
 20 21  1  0
 21 22  2  0
 22  2  1  0
 21  6  1  0
 19 14  1  0
  1 23  1  0
  1 24  1  0
  1 25  1  0
  3 26  1  0
  5 27  1  0
  5 28  1  0
  5 29  1  0
  8 30  1  0
  8 31  1  0
 12 32  1  0
 13 33  1  0
 13 34  1  0
 15 35  1  0
 16 36  1  0
 17 37  1  0
 18 38  1  0
 19 39  1  0
M  END
>  <Binding energies>  (1) 
[-6.98]

>  <Ligand effiencies>  (1) 
[-0.2792]

>  <Interactions>  (1) 
["V-A:GLU:543:CG:4902, V-A:PRO:540:N:4879, V-A:TYR:531:CZ:4789, V-A:TYR:531:CE2:4788, V-A:PRO:540:CA:4878, H-A:ALA:541:N:4886, V-A:PRO:540:CB:4880, V-A:LEU:363:CD1:3184, V-A:TYR:539:C:4862, V-A:LEU:363:CA:3180, V-A:PRO:540:CD:4882, H-A:GLU:543:OE2:4905, V-A:GLU:543:CD:4903, V-A:ILE:538:CG2:4858, V-B:ARG:545:CZ:9894, V-A:ILE:538:CA:4855, V-A:ILE:538:CD1:4860, H-A:ASP:366:OD2:3210"]

$$$$
4ah_Grossjean_2025
     RDKit          3D

 51 53  0  0  0  0  0  0  0  0999 V2000
  125.7040  130.0310   57.7730 C   0  0  0  0  0  0  0  0  0  0  0  0
  126.8790  130.7900   58.0320 O   0  0  0  0  0  0  0  0  0  0  0  0
  127.9660  130.6690   57.1840 C   0  0  0  0  0  0  0  0  0  0  0  0
  128.3250  129.4770   56.5350 C   0  0  0  0  0  0  0  0  0  0  0  0
  129.4370  129.4270   55.6940 C   0  0  0  0  0  0  0  0  0  0  0  0
  129.7840  128.1360   54.9610 C   0  0  0  0  0  0  0  0  0  0  0  0
  129.9870  126.9940   55.8520 N   0  0  0  0  0  0  0  0  0  0  0  0
  129.5550  125.7360   55.6220 C   0  0  0  0  0  0  0  0  0  0  0  0
  128.8970  125.4320   54.6260 O   0  0  0  0  0  0  0  0  0  0  0  0
  129.8780  124.7490   56.6520 C   0  0  0  0  0  0  0  0  0  0  0  0
  128.6070  124.1110   57.6970 S   0  0  0  0  0  0  0  0  0  0  0  0
  129.7610  123.1310   58.5740 C   0  0  0  0  0  0  0  0  0  0  0  0
  129.3920  122.3380   59.5810 N   0  0  0  0  0  0  0  0  0  0  0  0
  130.3820  121.6300   60.1750 C   0  0  0  0  0  0  0  0  0  0  0  0
  129.9410  120.7370   61.3200 C   0  0  0  0  0  0  0  0  0  0  0  0
  131.7190  121.6950   59.7900 C   0  0  0  0  0  0  0  0  0  0  0  0
  132.1050  122.5300   58.7350 C   0  0  0  0  0  0  0  0  0  0  0  0
  133.5760  122.5670   58.3520 C   0  0  0  0  0  0  0  0  0  0  0  0
  131.0930  123.2900   58.0870 C   0  0  0  0  0  0  0  0  0  0  0  0
  131.1330  124.2280   56.9980 C   0  0  0  0  0  0  0  0  0  0  0  0
  132.3000  124.5650   56.3610 N   0  0  0  0  0  0  0  0  0  0  0  0
  130.1850  130.5840   55.4740 C   0  0  0  0  0  0  0  0  0  0  0  0
  129.8540  131.7890   56.1130 C   0  0  0  0  0  0  0  0  0  0  0  0
  130.5590  132.9680   55.9530 O   0  0  0  0  0  0  0  0  0  0  0  0
  131.8390  132.9360   55.3300 C   0  0  0  0  0  0  0  0  0  0  0  0
  128.7450  131.8160   56.9710 C   0  0  0  0  0  0  0  0  0  0  0  0
  128.3980  132.9930   57.5900 O   0  0  0  0  0  0  0  0  0  0  0  0
  128.6650  133.0140   58.9850 C   0  0  0  0  0  0  0  0  0  0  0  0
  125.2426  129.7329   58.7260 H   0  0  0  0  0  0  0  0  0  0  0  0
  124.9931  130.6410   57.1964 H   0  0  0  0  0  0  0  0  0  0  0  0
  125.9678  129.1322   57.1964 H   0  0  0  0  0  0  0  0  0  0  0  0
  127.7217  128.5707   56.6916 H   0  0  0  0  0  0  0  0  0  0  0  0
  128.9622  127.8965   54.2702 H   0  0  0  0  0  0  0  0  0  0  0  0
  130.7348  128.3086   54.4355 H   0  0  0  0  0  0  0  0  0  0  0  0
  130.5890  127.1530   56.6460 H   0  0  0  0  0  0  0  0  0  0  0  0
  130.1809  121.2228   62.2773 H   0  0  0  0  0  0  0  0  0  0  0  0
  128.8559  120.5681   61.2563 H   0  0  0  0  0  0  0  0  0  0  0  0
  130.4665  119.7727   61.2563 H   0  0  0  0  0  0  0  0  0  0  0  0
  132.4722  121.0896   60.3155 H   0  0  0  0  0  0  0  0  0  0  0  0
  134.1919  122.5825   59.2633 H   0  0  0  0  0  0  0  0  0  0  0  0
  133.8227  121.6748   57.7578 H   0  0  0  0  0  0  0  0  0  0  0  0
  133.7776  123.4705   57.7578 H   0  0  0  0  0  0  0  0  0  0  0  0
  132.7210  125.4760   56.4640 H   0  0  0  0  0  0  0  0  0  0  0  0
  132.7770  123.9070   55.7600 H   0  0  0  0  0  0  0  0  0  0  0  0
  131.0461  130.5514   54.7903 H   0  0  0  0  0  0  0  0  0  0  0  0
  132.6222  132.9164   56.1021 H   0  0  0  0  0  0  0  0  0  0  0  0
  131.9194  132.0356   54.7033 H   0  0  0  0  0  0  0  0  0  0  0  0
  131.9642  133.8313   54.7033 H   0  0  0  0  0  0  0  0  0  0  0  0
  127.7186  132.9396   59.5406 H   0  0  0  0  0  0  0  0  0  0  0  0
  129.3120  132.1640   59.2473 H   0  0  0  0  0  0  0  0  0  0  0  0
  129.1712  133.9547   59.2473 H   0  0  0  0  0  0  0  0  0  0  0  0
  1  2  1  0
  2  3  1  0
  3  4  2  0
  4  5  1  0
  5  6  1  0
  6  7  1  0
  7  8  1  0
  8  9  2  0
  8 10  1  0
 10 11  1  0
 11 12  1  0
 12 13  2  0
 13 14  1  0
 14 15  1  0
 14 16  2  0
 16 17  1  0
 17 18  1  0
 17 19  2  0
 19 20  1  0
 20 21  1  0
  5 22  2  0
 22 23  1  0
 23 24  1  0
 24 25  1  0
 23 26  2  0
 26 27  1  0
 27 28  1  0
 26  3  1  0
 20 10  2  0
 19 12  1  0
  1 29  1  0
  1 30  1  0
  1 31  1  0
  4 32  1  0
  6 33  1  0
  6 34  1  0
  7 35  1  0
 15 36  1  0
 15 37  1  0
 15 38  1  0
 16 39  1  0
 18 40  1  0
 18 41  1  0
 18 42  1  0
 21 43  1  0
 21 44  1  0
 22 45  1  0
 25 46  1  0
 25 47  1  0
 25 48  1  0
 28 49  1  0
 28 50  1  0
 28 51  1  0
M  END
>  <Binding energies>  (1) 
[-7.23]

>  <Ligand effiencies>  (1) 
[-0.23322580645161292]

>  <Interactions>  (1) 
["V-B:TYR:539:CD2:9842, V-B:TYR:539:CE2:9844, V-B:ALA:541:CB:9860, V-A:PRO:540:N:4879, V-A:TYR:531:CZ:4789, V-A:TYR:539:CE2:4871, V-A:PRO:540:CA:4878, V-A:TYR:539:CE1:4870, V-A:TYR:539:CZ:4872, V-A:LEU:363:CD1:3184, V-A:TYR:539:C:4862, V-A:PRO:540:CD:4882, V-A:TYR:539:CD2:4869, H-A:TYR:539:N:4865, V-B:TYR:539:CZ:9845, V-A:TYR:539:CD1:4868, V-A:TYR:539:CG:4867, V-A:ILE:538:CG2:4858, H-A:TYR:539:OH:4873, V-A:ILE:538:CA:4855, V-A:ILE:538:CB:4857, V-A:ILE:369:CD1:3234, V-A:ILE:369:CG2:3232, V-A:ILE:369:CB:3231, V-A:TYR:531:CE1:4787, H-A:TYR:531:OH:4790, H-B:TYR:539:OH:9846, H-A:LYS:534:NZ:4818, V-A:ILE:538:CD1:4860, H-A:ASP:366:O:3204"]

$$$$
4ai_Grossjean_2025
     RDKit          3D

 32 34  0  0  0  0  0  0  0  0999 V2000
  130.8510  132.6220   54.6460 C   0  0  0  0  0  0  0  0  0  0  0  0
  131.1340  132.1820   56.0710 C   0  0  0  0  0  0  0  0  0  0  0  0
  132.2670  131.4300   56.3770 C   0  0  0  0  0  0  0  0  0  0  0  0
  132.5110  131.0390   57.6990 C   0  0  0  0  0  0  0  0  0  0  0  0
  133.7620  130.2210   57.9830 C   0  0  0  0  0  0  0  0  0  0  0  0
  131.5740  131.4360   58.6920 C   0  0  0  0  0  0  0  0  0  0  0  0
  131.5150  131.2160   60.1110 C   0  0  0  0  0  0  0  0  0  0  0  0
  132.4740  130.4970   60.7820 N   0  0  0  0  0  0  0  0  0  0  0  0
  130.4030  131.8030   60.7340 C   0  0  0  0  0  0  0  0  0  0  0  0
  130.0280  131.7700   62.1500 C   0  0  0  0  0  0  0  0  0  0  0  0
  130.4710  132.6080   62.9370 O   0  0  0  0  0  0  0  0  0  0  0  0
  129.1680  130.7810   62.5000 N   0  0  0  0  0  0  0  0  0  0  0  0
  128.6440  130.5250   63.7600 C   0  0  0  0  0  0  0  0  0  0  0  0
  128.1150  129.2880   64.1280 C   0  0  0  0  0  0  0  0  0  0  0  0
  127.7060  129.4470   65.4320 C   0  0  0  0  0  0  0  0  0  0  0  0
  127.9760  130.7120   65.8300 O   0  0  0  0  0  0  0  0  0  0  0  0
  128.5720  131.3860   64.7620 N   0  0  0  0  0  0  0  0  0  0  0  0
  129.3790  132.6310   59.5590 S   0  0  0  0  0  0  0  0  0  0  0  0
  130.4560  132.2040   58.2480 C   0  0  0  0  0  0  0  0  0  0  0  0
  130.2190  132.5760   56.9900 N   0  0  0  0  0  0  0  0  0  0  0  0
  130.2560  133.5471   54.6592 H   0  0  0  0  0  0  0  0  0  0  0  0
  131.8014  132.8047   54.1231 H   0  0  0  0  0  0  0  0  0  0  0  0
  130.2906  131.8330   54.1231 H   0  0  0  0  0  0  0  0  0  0  0  0
  132.9692  131.1438   55.5801 H   0  0  0  0  0  0  0  0  0  0  0  0
  133.9015  130.1298   59.0703 H   0  0  0  0  0  0  0  0  0  0  0  0
  133.6530  129.2192   57.5420 H   0  0  0  0  0  0  0  0  0  0  0  0
  134.6360  130.7226   57.5420 H   0  0  0  0  0  0  0  0  0  0  0  0
  132.9730  129.7370   60.3430 H   0  0  0  0  0  0  0  0  0  0  0  0
  132.7080  130.7030   61.7430 H   0  0  0  0  0  0  0  0  0  0  0  0
  128.8610  130.1590   61.7680 H   0  0  0  0  0  0  0  0  0  0  0  0
  128.0408  128.3814   63.5095 H   0  0  0  0  0  0  0  0  0  0  0  0
  127.2348  128.6701   66.0520 H   0  0  0  0  0  0  0  0  0  0  0  0
  1  2  1  0
  2  3  2  0
  3  4  1  0
  4  5  1  0
  4  6  2  0
  6  7  1  0
  7  8  1  0
  7  9  2  0
  9 10  1  0
 10 11  2  0
 10 12  1  0
 12 13  1  0
 13 14  1  0
 14 15  2  0
 15 16  1  0
 16 17  1  0
  9 18  1  0
 18 19  1  0
 19 20  2  0
 20  2  1  0
 19  6  1  0
 17 13  2  0
  1 21  1  0
  1 22  1  0
  1 23  1  0
  3 24  1  0
  5 25  1  0
  5 26  1  0
  5 27  1  0
  8 28  1  0
  8 29  1  0
 12 30  1  0
 14 31  1  0
 15 32  1  0
M  END
>  <Binding energies>  (1) 
[-6.59]

>  <Ligand effiencies>  (1) 
[-0.28652173913043477]

>  <Interactions>  (1) 
["V-A:GLU:543:CG:4902, V-A:PRO:540:N:4879, V-A:TYR:531:CZ:4789, V-A:TYR:531:CE2:4788, V-A:PRO:540:CA:4878, H-A:ALA:541:N:4886, V-A:PRO:540:CB:4880, V-A:LEU:363:CD1:3184, V-A:TYR:539:C:4862, V-A:LEU:363:CA:3180, H-A:GLU:543:OE2:4905, V-A:GLU:543:CD:4903, V-A:LEU:363:CB:3182, V-A:ILE:538:CG2:4858, V-A:ILE:538:CA:4855, H-B:TYR:484:OH:9315, V-A:ILE:538:CD1:4860, H-A:ASP:366:OD2:3210"]

$$$$
4aj_Grossjean_2025
     RDKit          3D

 32 34  0  0  0  0  0  0  0  0999 V2000
  131.0520  132.7330   54.6970 C   0  0  0  0  0  0  0  0  0  0  0  0
  131.2580  132.2370   56.1160 C   0  0  0  0  0  0  0  0  0  0  0  0
  132.3370  131.4180   56.4400 C   0  0  0  0  0  0  0  0  0  0  0  0
  132.5040  130.9670   57.7550 C   0  0  0  0  0  0  0  0  0  0  0  0
  133.6980  130.0740   58.0570 C   0  0  0  0  0  0  0  0  0  0  0  0
  131.5480  131.3750   58.7220 C   0  0  0  0  0  0  0  0  0  0  0  0
  131.4160  131.1050   60.1290 C   0  0  0  0  0  0  0  0  0  0  0  0
  132.3070  130.3150   60.8090 N   0  0  0  0  0  0  0  0  0  0  0  0
  130.3080  131.7240   60.7270 C   0  0  0  0  0  0  0  0  0  0  0  0
  129.8690  131.6570   62.1230 C   0  0  0  0  0  0  0  0  0  0  0  0
  130.0230  132.6190   62.8780 O   0  0  0  0  0  0  0  0  0  0  0  0
  129.2880  130.4900   62.4940 N   0  0  0  0  0  0  0  0  0  0  0  0
  128.7790  130.1740   63.7470 C   0  0  0  0  0  0  0  0  0  0  0  0
  128.5940  130.9800   64.7700 N   0  0  0  0  0  0  0  0  0  0  0  0
  128.0860  130.3410   65.8050 C   0  0  0  0  0  0  0  0  0  0  0  0
  127.8470  128.9800   65.6320 C   0  0  0  0  0  0  0  0  0  0  0  0
  128.3170  128.5250   64.0210 S   0  0  0  0  0  0  0  0  0  0  0  0
  129.3820  132.6530   59.5460 S   0  0  0  0  0  0  0  0  0  0  0  0
  130.4910  132.2180   58.2640 C   0  0  0  0  0  0  0  0  0  0  0  0
  130.3280  132.6480   57.0130 N   0  0  0  0  0  0  0  0  0  0  0  0
  130.6302  133.7486   54.7212 H   0  0  0  0  0  0  0  0  0  0  0  0
  132.0177  132.7495   54.1705 H   0  0  0  0  0  0  0  0  0  0  0  0
  130.3588  132.0605   54.1705 H   0  0  0  0  0  0  0  0  0  0  0  0
  133.0581  131.1254   55.6626 H   0  0  0  0  0  0  0  0  0  0  0  0
  133.8209  129.9821   59.1462 H   0  0  0  0  0  0  0  0  0  0  0  0
  133.5303  129.0779   57.6216 H   0  0  0  0  0  0  0  0  0  0  0  0
  134.6061  130.5163   57.6216 H   0  0  0  0  0  0  0  0  0  0  0  0
  132.7220  129.4950   60.3900 H   0  0  0  0  0  0  0  0  0  0  0  0
  132.5790  130.5270   61.7600 H   0  0  0  0  0  0  0  0  0  0  0  0
  129.2070  129.7680   61.7930 H   0  0  0  0  0  0  0  0  0  0  0  0
  127.8634  130.8540   66.7522 H   0  0  0  0  0  0  0  0  0  0  0  0
  127.4288  128.3028   66.3913 H   0  0  0  0  0  0  0  0  0  0  0  0
  1  2  1  0
  2  3  2  0
  3  4  1  0
  4  5  1  0
  4  6  2  0
  6  7  1  0
  7  8  1  0
  7  9  2  0
  9 10  1  0
 10 11  2  0
 10 12  1  0
 12 13  1  0
 13 14  2  0
 14 15  1  0
 15 16  2  0
 16 17  1  0
  9 18  1  0
 18 19  1  0
 19 20  2  0
 20  2  1  0
 19  6  1  0
 17 13  1  0
  1 21  1  0
  1 22  1  0
  1 23  1  0
  3 24  1  0
  5 25  1  0
  5 26  1  0
  5 27  1  0
  8 28  1  0
  8 29  1  0
 12 30  1  0
 15 31  1  0
 16 32  1  0
M  END
>  <Binding energies>  (1) 
[-6.48]

>  <Ligand effiencies>  (1) 
[-0.2817391304347826]

>  <Interactions>  (1) 
["V-A:GLU:543:CG:4902, V-A:PRO:540:N:4879, V-A:TYR:531:CZ:4789, V-A:TYR:531:CE2:4788, V-A:PRO:540:CA:4878, V-A:ASP:366:CB:3207, H-A:ALA:541:N:4886, V-A:PRO:540:CB:4880, V-A:LEU:363:CD1:3184, V-A:TYR:539:C:4862, V-A:LEU:363:CA:3180, V-A:PRO:540:CD:4882, H-A:GLU:543:OE2:4905, V-A:GLU:543:CD:4903, V-A:ILE:538:CG2:4858, V-A:ILE:538:CA:4855, V-B:TYR:484:CE1:9312, V-B:TYR:484:CZ:9314, H-B:TYR:484:OH:9315, V-A:ILE:538:CD1:4860, H-A:ASP:366:OD2:3210"]

$$$$
4ak_Grossjean_2025
     RDKit          3D

 50 51  0  0  0  0  0  0  0  0999 V2000
  132.1830  132.5690   55.0180 C   0  0  0  0  0  0  0  0  0  0  0  0
  131.1330  133.4800   55.3020 O   0  0  0  0  0  0  0  0  0  0  0  0
  129.8650  132.8530   55.4530 C   0  0  0  0  0  0  0  0  0  0  0  0
  129.7830  132.1920   56.8350 C   0  0  0  0  0  0  0  0  0  0  0  0
  128.4380  132.2230   57.2930 O   0  0  0  0  0  0  0  0  0  0  0  0
  127.6580  131.1170   56.8580 C   0  0  0  0  0  0  0  0  0  0  0  0
  128.2750  129.8190   57.3930 C   0  0  0  0  0  0  0  0  0  0  0  0
  128.3610  128.8700   56.3380 O   0  0  0  0  0  0  0  0  0  0  0  0
  129.4420  129.1020   55.4440 C   0  0  0  0  0  0  0  0  0  0  0  0
  129.8000  127.7880   54.7270 C   0  0  0  0  0  0  0  0  0  0  0  0
  130.0910  126.6830   55.6400 N   0  0  0  0  0  0  0  0  0  0  0  0
  129.5660  125.4430   55.5560 C   0  0  0  0  0  0  0  0  0  0  0  0
  128.7850  125.1150   54.6610 O   0  0  0  0  0  0  0  0  0  0  0  0
  129.9840  124.4970   56.5890 C   0  0  0  0  0  0  0  0  0  0  0  0
  128.7810  123.5980   57.5130 S   0  0  0  0  0  0  0  0  0  0  0  0
  130.0270  122.7750   58.4240 C   0  0  0  0  0  0  0  0  0  0  0  0
  129.7350  121.8840   59.3720 N   0  0  0  0  0  0  0  0  0  0  0  0
  130.7940  121.3210   60.0040 C   0  0  0  0  0  0  0  0  0  0  0  0
  130.4420  120.3090   61.0800 C   0  0  0  0  0  0  0  0  0  0  0  0
  132.1220  121.6230   59.7120 C   0  0  0  0  0  0  0  0  0  0  0  0
  132.4250  122.5580   58.7150 C   0  0  0  0  0  0  0  0  0  0  0  0
  133.8890  122.8580   58.4350 C   0  0  0  0  0  0  0  0  0  0  0  0
  131.3410  123.1710   58.0310 C   0  0  0  0  0  0  0  0  0  0  0  0
  131.2880  124.1500   56.9790 C   0  0  0  0  0  0  0  0  0  0  0  0
  132.4190  124.6890   56.4200 N   0  0  0  0  0  0  0  0  0  0  0  0
  132.6111  132.1975   55.9607 H   0  0  0  0  0  0  0  0  0  0  0  0
  131.7874  131.7232   54.4366 H   0  0  0  0  0  0  0  0  0  0  0  0
  132.9645  133.0800   54.4366 H   0  0  0  0  0  0  0  0  0  0  0  0
  129.0696  133.6070   55.3594 H   0  0  0  0  0  0  0  0  0  0  0  0
  129.7388  132.0882   54.6725 H   0  0  0  0  0  0  0  0  0  0  0  0
  130.1226  131.1482   56.7635 H   0  0  0  0  0  0  0  0  0  0  0  0
  130.4251  132.7374   57.5423 H   0  0  0  0  0  0  0  0  0  0  0  0
  126.6310  131.2196   57.2384 H   0  0  0  0  0  0  0  0  0  0  0  0
  127.6389  131.0897   55.7585 H   0  0  0  0  0  0  0  0  0  0  0  0
  129.2820  130.0250   57.7849 H   0  0  0  0  0  0  0  0  0  0  0  0
  127.6450  129.4168   58.2000 H   0  0  0  0  0  0  0  0  0  0  0  0
  129.1484  129.8580   54.7008 H   0  0  0  0  0  0  0  0  0  0  0  0
  130.3148  129.4641   56.0072 H   0  0  0  0  0  0  0  0  0  0  0  0
  128.9522  127.4979   54.0890 H   0  0  0  0  0  0  0  0  0  0  0  0
  130.7152  127.9763   54.1466 H   0  0  0  0  0  0  0  0  0  0  0  0
  130.7310  126.8850   56.3950 H   0  0  0  0  0  0  0  0  0  0  0  0
  130.5984  120.7587   62.0716 H   0  0  0  0  0  0  0  0  0  0  0  0
  129.3880  120.0126   60.9739 H   0  0  0  0  0  0  0  0  0  0  0  0
  131.0846  119.4225   60.9739 H   0  0  0  0  0  0  0  0  0  0  0  0
  132.9331  121.1266   60.2650 H   0  0  0  0  0  0  0  0  0  0  0  0
  134.4292  122.9687   59.3868 H   0  0  0  0  0  0  0  0  0  0  0  0
  134.3288  122.0313   57.8578 H   0  0  0  0  0  0  0  0  0  0  0  0
  133.9682  123.7910   57.8578 H   0  0  0  0  0  0  0  0  0  0  0  0
  133.0640  124.1310   55.8780 H   0  0  0  0  0  0  0  0  0  0  0  0
  132.6430  125.6670   56.5300 H   0  0  0  0  0  0  0  0  0  0  0  0
  1  2  1  0
  2  3  1  0
  3  4  1  0
  4  5  1  0
  5  6  1  0
  6  7  1  0
  7  8  1  0
  8  9  1  0
  9 10  1  0
 10 11  1  0
 11 12  1  0
 12 13  2  0
 12 14  1  0
 14 15  1  0
 15 16  1  0
 16 17  2  0
 17 18  1  0
 18 19  1  0
 18 20  2  0
 20 21  1  0
 21 22  1  0
 21 23  2  0
 23 24  1  0
 24 25  1  0
 24 14  2  0
 23 16  1  0
  1 26  1  0
  1 27  1  0
  1 28  1  0
  3 29  1  0
  3 30  1  0
  4 31  1  0
  4 32  1  0
  6 33  1  0
  6 34  1  0
  7 35  1  0
  7 36  1  0
  9 37  1  0
  9 38  1  0
 10 39  1  0
 10 40  1  0
 11 41  1  0
 19 42  1  0
 19 43  1  0
 19 44  1  0
 20 45  1  0
 22 46  1  0
 22 47  1  0
 22 48  1  0
 25 49  1  0
 25 50  1  0
M  END
>  <Binding energies>  (1) 
[-5.71]

>  <Ligand effiencies>  (1) 
[-0.20392857142857143]

>  <Interactions>  (1) 
["V-B:TYR:539:CD2:9842, V-A:LEU:475:CD2:4254, V-B:TYR:539:CE2:9844, V-B:ALA:541:CB:9860, V-A:TYR:531:CZ:4789, V-A:TYR:539:CE1:4870, V-A:TYR:539:CZ:4872, V-A:LEU:363:CD1:3184, H-A:TYR:539:N:4865, V-B:TYR:539:CZ:9845, V-A:TYR:539:CD1:4868, V-A:ILE:538:CG2:4858, V-A:ILE:538:CA:4855, V-A:ILE:369:CD1:3234, V-A:ILE:369:CG2:3232, V-A:ILE:369:CB:3231, V-A:TYR:531:CE1:4787, H-A:TYR:531:OH:4790, H-B:TYR:539:OH:9846, H-A:LYS:534:NZ:4818, V-A:ILE:538:CD1:4860, V-A:ILE:369:CG1:3233, H-A:ASP:366:O:3204"]

$$$$
4al_Grossjean_2025
     RDKit          3D

 28 29  0  0  0  0  0  0  0  0999 V2000
  127.6120  134.7310   61.4810 C   0  0  0  0  0  0  0  0  0  0  0  0
  127.8040  133.3240   61.4570 O   0  0  0  0  0  0  0  0  0  0  0  0
  129.0270  132.7830   61.6940 C   0  0  0  0  0  0  0  0  0  0  0  0
  129.4990  132.6120   62.8210 O   0  0  0  0  0  0  0  0  0  0  0  0
  129.7450  132.4160   60.4540 C   0  0  0  0  0  0  0  0  0  0  0  0
  129.1300  132.9500   58.8880 S   0  0  0  0  0  0  0  0  0  0  0  0
  130.4450  132.1560   58.0540 C   0  0  0  0  0  0  0  0  0  0  0  0
  130.5610  132.1910   56.7260 N   0  0  0  0  0  0  0  0  0  0  0  0
  131.6270  131.5340   56.2040 C   0  0  0  0  0  0  0  0  0  0  0  0
  131.7390  131.5870   54.6910 C   0  0  0  0  0  0  0  0  0  0  0  0
  132.5680  130.8520   56.9710 C   0  0  0  0  0  0  0  0  0  0  0  0
  132.4440  130.8170   58.3640 C   0  0  0  0  0  0  0  0  0  0  0  0
  133.4960  130.0600   59.1580 C   0  0  0  0  0  0  0  0  0  0  0  0
  131.3390  131.4940   58.9470 C   0  0  0  0  0  0  0  0  0  0  0  0
  130.9140  131.6590   60.3100 C   0  0  0  0  0  0  0  0  0  0  0  0
  131.6000  131.1210   61.3680 N   0  0  0  0  0  0  0  0  0  0  0  0
  127.5648  135.0769   62.5241 H   0  0  0  0  0  0  0  0  0  0  0  0
  128.4511  135.2244   60.9687 H   0  0  0  0  0  0  0  0  0  0  0  0
  126.6713  134.9815   60.9687 H   0  0  0  0  0  0  0  0  0  0  0  0
  132.7004  132.0419   54.4102 H   0  0  0  0  0  0  0  0  0  0  0  0
  131.6831  130.5669   54.2832 H   0  0  0  0  0  0  0  0  0  0  0  0
  130.9147  132.1906   54.2832 H   0  0  0  0  0  0  0  0  0  0  0  0
  133.4096  130.3403   56.4812 H   0  0  0  0  0  0  0  0  0  0  0  0
  133.3100  130.1938   60.2339 H   0  0  0  0  0  0  0  0  0  0  0  0
  133.4451  128.9901   58.9074 H   0  0  0  0  0  0  0  0  0  0  0  0
  134.4942  130.4482   58.9074 H   0  0  0  0  0  0  0  0  0  0  0  0
  132.3520  130.4590   61.2370 H   0  0  0  0  0  0  0  0  0  0  0  0
  131.3740  131.3690   62.3220 H   0  0  0  0  0  0  0  0  0  0  0  0
  1  2  1  0
  2  3  1  0
  3  4  2  0
  3  5  1  0
  5  6  1  0
  6  7  1  0
  7  8  2  0
  8  9  1  0
  9 10  1  0
  9 11  2  0
 11 12  1  0
 12 13  1  0
 12 14  2  0
 14 15  1  0
 15 16  1  0
 15  5  2  0
 14  7  1  0
  1 17  1  0
  1 18  1  0
  1 19  1  0
 10 20  1  0
 10 21  1  0
 10 22  1  0
 11 23  1  0
 13 24  1  0
 13 25  1  0
 13 26  1  0
 16 27  1  0
 16 28  1  0
M  END
>  <Binding energies>  (1) 
[-5.29]

>  <Ligand effiencies>  (1) 
[-0.29388888888888887]

>  <Interactions>  (1) 
["V-A:PRO:540:N:4879, V-A:TYR:531:CZ:4789, V-A:TYR:531:CE2:4788, V-A:PRO:540:CA:4878, V-A:PRO:540:C:4876, V-A:ASP:366:CB:3207, H-A:ALA:541:N:4886, V-A:PRO:540:CB:4880, V-A:LEU:363:CD1:3184, V-A:TYR:539:C:4862, V-A:LEU:363:CA:3180, H-A:GLU:543:OE2:4905, V-A:ASP:366:CG:3208, V-A:GLU:543:CD:4903, V-A:TYR:539:CD2:4869, V-B:LEU:475:CD2:9226, V-A:ALA:541:CB:4887, V-A:ILE:538:CD1:4860, H-A:ASP:366:OD2:3210"]

$$$$
4ba_Grossjean_2025
     RDKit          3D

 44 46  0  0  0  0  0  0  0  0999 V2000
  132.2040  130.8270   54.7230 C   0  0  0  0  0  0  0  0  0  0  0  0
  132.3680  131.8050   55.9010 C   0  0  0  0  0  0  0  0  0  0  0  0
  131.1870  132.7730   56.1180 C   0  0  0  0  0  0  0  0  0  0  0  0
  131.0080  133.7000   55.3260 O   0  0  0  0  0  0  0  0  0  0  0  0
  130.2950  132.5300   57.3010 C   0  0  0  0  0  0  0  0  0  0  0  0
  130.6500  131.5550   58.2420 C   0  0  0  0  0  0  0  0  0  0  0  0
  129.8400  131.3080   59.3470 C   0  0  0  0  0  0  0  0  0  0  0  0
  128.6620  132.0320   59.5360 C   0  0  0  0  0  0  0  0  0  0  0  0
  127.9150  131.6950   60.6820 N   0  0  0  0  0  0  0  0  0  0  0  0
  127.5970  132.4440   61.7660 C   0  0  0  0  0  0  0  0  0  0  0  0
  127.9770  133.6030   61.9430 O   0  0  0  0  0  0  0  0  0  0  0  0
  126.7670  131.7710   62.7680 C   0  0  0  0  0  0  0  0  0  0  0  0
  125.1420  132.3600   63.1130 S   0  0  0  0  0  0  0  0  0  0  0  0
  124.9110  131.1400   64.3430 C   0  0  0  0  0  0  0  0  0  0  0  0
  123.7750  131.0580   65.0340 N   0  0  0  0  0  0  0  0  0  0  0  0
  123.7130  130.0740   65.9600 C   0  0  0  0  0  0  0  0  0  0  0  0
  122.4140  130.0040   66.7430 C   0  0  0  0  0  0  0  0  0  0  0  0
  124.7480  129.1750   66.2050 C   0  0  0  0  0  0  0  0  0  0  0  0
  125.9480  129.2560   65.4800 C   0  0  0  0  0  0  0  0  0  0  0  0
  127.0570  128.2440   65.7830 C   0  0  0  0  0  0  0  0  0  0  0  0
  126.6830  127.3050   66.6550 F   0  0  0  0  0  0  0  0  0  0  0  0
  127.4230  127.6240   64.6610 F   0  0  0  0  0  0  0  0  0  0  0  0
  128.1120  128.8740   66.3020 F   0  0  0  0  0  0  0  0  0  0  0  0
  126.0470  130.2880   64.4990 C   0  0  0  0  0  0  0  0  0  0  0  0
  127.0970  130.6810   63.5900 C   0  0  0  0  0  0  0  0  0  0  0  0
  128.3080  130.0390   63.5370 N   0  0  0  0  0  0  0  0  0  0  0  0
  128.2960  133.0060   58.5950 C   0  0  0  0  0  0  0  0  0  0  0  0
  129.1070  133.2510   57.4900 C   0  0  0  0  0  0  0  0  0  0  0  0
  132.0337  129.8116   55.1104 H   0  0  0  0  0  0  0  0  0  0  0  0
  131.3448  131.1339   54.1085 H   0  0  0  0  0  0  0  0  0  0  0  0
  133.1163  130.8368   54.1085 H   0  0  0  0  0  0  0  0  0  0  0  0
  132.4967  131.2135   56.8194 H   0  0  0  0  0  0  0  0  0  0  0  0
  133.2379  132.4331   55.6584 H   0  0  0  0  0  0  0  0  0  0  0  0
  131.5774  130.9792   58.1066 H   0  0  0  0  0  0  0  0  0  0  0  0
  130.1304  130.5371   60.0759 H   0  0  0  0  0  0  0  0  0  0  0  0
  127.5830  130.7430   60.6910 H   0  0  0  0  0  0  0  0  0  0  0  0
  122.6344  130.0159   67.8206 H   0  0  0  0  0  0  0  0  0  0  0  0
  121.7850  130.8696   66.4878 H   0  0  0  0  0  0  0  0  0  0  0  0
  121.8816  129.0759   66.4878 H   0  0  0  0  0  0  0  0  0  0  0  0
  124.6247  128.3960   66.9718 H   0  0  0  0  0  0  0  0  0  0  0  0
  128.3790  129.0410   63.4030 H   0  0  0  0  0  0  0  0  0  0  0  0
  129.1770  130.5460   63.6390 H   0  0  0  0  0  0  0  0  0  0  0  0
  127.3660  133.5776   58.7305 H   0  0  0  0  0  0  0  0  0  0  0  0
  128.8130  134.0177   56.7580 H   0  0  0  0  0  0  0  0  0  0  0  0
  1  2  1  0
  2  3  1  0
  3  4  2  0
  3  5  1  0
  5  6  2  0
  6  7  1  0
  7  8  2  0
  8  9  1  0
  9 10  1  0
 10 11  2  0
 10 12  1  0
 12 13  1  0
 13 14  1  0
 14 15  2  0
 15 16  1  0
 16 17  1  0
 16 18  2  0
 18 19  1  0
 19 20  1  0
 20 21  1  0
 20 22  1  0
 20 23  1  0
 19 24  2  0
 24 25  1  0
 25 26  1  0
  8 27  1  0
 27 28  2  0
 28  5  1  0
 25 12  2  0
 24 14  1  0
  1 29  1  0
  1 30  1  0
  1 31  1  0
  2 32  1  0
  2 33  1  0
  6 34  1  0
  7 35  1  0
  9 36  1  0
 17 37  1  0
 17 38  1  0
 17 39  1  0
 18 40  1  0
 26 41  1  0
 26 42  1  0
 27 43  1  0
 28 44  1  0
M  END
>  <Binding energies>  (1) 
[-7.07]

>  <Ligand effiencies>  (1) 
[-0.22806451612903228]

>  <Interactions>  (1) 
["V-B:GLU:543:CD:9876, V-A:PRO:540:N:4879, V-A:TYR:531:CZ:4789, V-A:TYR:539:CE2:4871, V-A:TYR:531:CE2:4788, V-A:PRO:540:CA:4878, V-A:TYR:539:CE1:4870, V-A:TYR:539:CZ:4872, V-A:PRO:540:CB:4880, V-A:LEU:363:CD1:3184, V-A:TYR:539:C:4862, V-A:PRO:540:CD:4882, H-A:GLU:543:OE2:4905, V-A:GLU:543:CD:4903, V-B:GLU:543:CG:9875, V-A:TYR:539:CD2:4869, H-B:GLY:454:N:9017, V-B:LEU:475:CD2:9226, H-A:TYR:539:N:4865, V-A:TYR:539:CD1:4868, V-A:TYR:539:CG:4867, V-A:TYR:531:CD2:4786, V-A:TYR:539:CA:4864, V-B:ARG:545:CZ:9894, V-B:HIS:456:CE1:9037, V-B:ARG:545:CG:9890, H-B:TYR:484:OH:9315, V-B:ARG:545:CD:9891, V-B:GLU:543:CB:9874, V-B:GLY:453:CA:9011, V-B:GLY:453:C:9009, V-B:ILE:455:C:9019, V-B:ARG:545:CB:9889"]

$$$$
4bb_Grossjean_2025
     RDKit          3D

 41 43  0  0  0  0  0  0  0  0999 V2000
  124.4970  123.7080   56.6790 C   0  0  0  0  0  0  0  0  0  0  0  0
  125.6610  122.7180   56.7650 C   0  0  0  0  0  0  0  0  0  0  0  0
  125.6400  121.7320   56.0250 O   0  0  0  0  0  0  0  0  0  0  0  0
  126.7570  122.9940   57.7500 C   0  0  0  0  0  0  0  0  0  0  0  0
  126.4540  123.6490   58.9500 C   0  0  0  0  0  0  0  0  0  0  0  0
  127.4530  123.9180   59.8810 C   0  0  0  0  0  0  0  0  0  0  0  0
  128.7720  123.5300   59.6350 C   0  0  0  0  0  0  0  0  0  0  0  0
  129.7020  123.8540   60.6420 N   0  0  0  0  0  0  0  0  0  0  0  0
  130.9910  124.2610   60.5390 C   0  0  0  0  0  0  0  0  0  0  0  0
  131.5920  124.3910   59.4730 O   0  0  0  0  0  0  0  0  0  0  0  0
  131.6680  124.5190   61.8130 C   0  0  0  0  0  0  0  0  0  0  0  0
  133.4080  124.2840   61.9560 S   0  0  0  0  0  0  0  0  0  0  0  0
  133.3770  124.7280   63.6470 C   0  0  0  0  0  0  0  0  0  0  0  0
  134.4880  124.7500   64.3810 N   0  0  0  0  0  0  0  0  0  0  0  0
  134.3370  125.1090   65.6770 C   0  0  0  0  0  0  0  0  0  0  0  0
  135.6150  125.1290   66.4950 C   0  0  0  0  0  0  0  0  0  0  0  0
  133.1130  125.4420   66.2500 C   0  0  0  0  0  0  0  0  0  0  0  0
  131.9390  125.4210   65.4820 C   0  0  0  0  0  0  0  0  0  0  0  0
  130.6150  125.7960   66.1570 C   0  0  0  0  0  0  0  0  0  0  0  0
  129.8980  126.6720   65.4500 F   0  0  0  0  0  0  0  0  0  0  0  0
  129.8670  124.7050   66.3180 F   0  0  0  0  0  0  0  0  0  0  0  0
  130.8550  126.3450   67.3480 F   0  0  0  0  0  0  0  0  0  0  0  0
  132.0630  125.0470   64.1100 C   0  0  0  0  0  0  0  0  0  0  0  0
  131.1070  124.9130   63.0390 C   0  0  0  0  0  0  0  0  0  0  0  0
  129.7680  125.1580   63.2070 N   0  0  0  0  0  0  0  0  0  0  0  0
  129.0840  122.8800   58.4320 C   0  0  0  0  0  0  0  0  0  0  0  0
  128.0830  122.6140   57.5010 C   0  0  0  0  0  0  0  0  0  0  0  0
  124.1737  123.9829   57.6938 H   0  0  0  0  0  0  0  0  0  0  0  0
  124.8222  124.6105   56.1407 H   0  0  0  0  0  0  0  0  0  0  0  0
  123.6584  123.2421   56.1407 H   0  0  0  0  0  0  0  0  0  0  0  0
  125.4178  123.9535   59.1586 H   0  0  0  0  0  0  0  0  0  0  0  0
  127.2022  124.4395   60.8165 H   0  0  0  0  0  0  0  0  0  0  0  0
  129.3490  123.7410   61.5810 H   0  0  0  0  0  0  0  0  0  0  0  0
  135.3648  125.1251   67.5662 H   0  0  0  0  0  0  0  0  0  0  0  0
  136.2173  124.2402   66.2559 H   0  0  0  0  0  0  0  0  0  0  0  0
  136.1892  126.0362   66.2559 H   0  0  0  0  0  0  0  0  0  0  0  0
  133.0658  125.7236   67.3123 H   0  0  0  0  0  0  0  0  0  0  0  0
  129.1840  125.4830   62.4490 H   0  0  0  0  0  0  0  0  0  0  0  0
  129.3160  125.0210   64.1010 H   0  0  0  0  0  0  0  0  0  0  0  0
  130.1215  122.5797   58.2234 H   0  0  0  0  0  0  0  0  0  0  0  0
  128.3354  122.1008   56.5613 H   0  0  0  0  0  0  0  0  0  0  0  0
  1  2  1  0
  2  3  2  0
  2  4  1  0
  4  5  2  0
  5  6  1  0
  6  7  2  0
  7  8  1  0
  8  9  1  0
  9 10  2  0
  9 11  1  0
 11 12  1  0
 12 13  1  0
 13 14  2  0
 14 15  1  0
 15 16  1  0
 15 17  2  0
 17 18  1  0
 18 19  1  0
 19 20  1  0
 19 21  1  0
 19 22  1  0
 18 23  2  0
 23 24  1  0
 24 25  1  0
  7 26  1  0
 26 27  2  0
 27  4  1  0
 24 11  2  0
 23 13  1  0
  1 28  1  0
  1 29  1  0
  1 30  1  0
  5 31  1  0
  6 32  1  0
  8 33  1  0
 16 34  1  0
 16 35  1  0
 16 36  1  0
 17 37  1  0
 25 38  1  0
 25 39  1  0
 26 40  1  0
 27 41  1  0
M  END
>  <Binding energies>  (1) 
[-7.8]

>  <Ligand effiencies>  (1) 
[-0.26]

>  <Interactions>  (1) 
["V-B:TYR:539:C:9835, V-B:TYR:539:CD2:9842, V-B:TYR:539:CE2:9844, V-B:PRO:540:N:9852, V-B:PRO:540:CA:9851, V-B:MET:535:CE:9803, V-B:PRO:540:CB:9853, H-B:GLU:543:OE2:9878, V-B:GLU:543:CD:9876, V-A:ASP:366:CG:3208, V-A:GLU:543:CD:4903, H-A:TYR:484:OH:4343, V-B:GLU:543:CG:9875, V-A:TYR:484:CE1:4340, H-B:TYR:539:N:9838, V-B:PRO:540:CD:9855, V-B:LEU:363:CD1:8156, V-B:TYR:531:CE2:9761, V-A:HIS:456:CE1:4064, V-B:GLU:543:CB:9874, V-A:ARG:545:CZ:4921, V-A:GLY:453:CA:4039, H-A:GLY:454:N:4045, V-A:ARG:545:CD:4918, V-A:ARG:545:CG:4917, H-A:ARG:545:NH1:4922, V-A:GLY:453:C:4037, V-A:ILE:455:C:4047, V-A:HIS:456:CD2:4063"]

$$$$
4bc_Grossjean_2025
     RDKit          3D

 40 42  0  0  0  0  0  0  0  0999 V2000
  125.0710  122.5010   56.5730 C   0  0  0  0  0  0  0  0  0  0  0  0
  126.4350  122.1870   56.3130 O   0  0  0  0  0  0  0  0  0  0  0  0
  127.3920  122.5110   57.2550 C   0  0  0  0  0  0  0  0  0  0  0  0
  126.9250  122.8800   58.5160 C   0  0  0  0  0  0  0  0  0  0  0  0
  127.8140  123.2250   59.5300 C   0  0  0  0  0  0  0  0  0  0  0  0
  129.1900  123.1970   59.2970 C   0  0  0  0  0  0  0  0  0  0  0  0
  130.0110  123.5760   60.3750 N   0  0  0  0  0  0  0  0  0  0  0  0
  131.0790  124.4110   60.3870 C   0  0  0  0  0  0  0  0  0  0  0  0
  131.5310  124.9640   59.3840 O   0  0  0  0  0  0  0  0  0  0  0  0
  131.6960  124.6240   61.7000 C   0  0  0  0  0  0  0  0  0  0  0  0
  133.4200  124.3370   61.9270 S   0  0  0  0  0  0  0  0  0  0  0  0
  133.3200  124.7860   63.6130 C   0  0  0  0  0  0  0  0  0  0  0  0
  134.3940  124.7750   64.4010 N   0  0  0  0  0  0  0  0  0  0  0  0
  134.1920  125.1400   65.6870 C   0  0  0  0  0  0  0  0  0  0  0  0
  135.4290  125.1250   66.5660 C   0  0  0  0  0  0  0  0  0  0  0  0
  132.9520  125.5130   66.2010 C   0  0  0  0  0  0  0  0  0  0  0  0
  131.8160  125.5260   65.3760 C   0  0  0  0  0  0  0  0  0  0  0  0
  130.4730  125.9410   65.9870 C   0  0  0  0  0  0  0  0  0  0  0  0
  129.8180  126.8380   65.2470 F   0  0  0  0  0  0  0  0  0  0  0  0
  129.6860  124.8730   66.1100 F   0  0  0  0  0  0  0  0  0  0  0  0
  130.6720  126.4820   67.1890 F   0  0  0  0  0  0  0  0  0  0  0  0
  131.9960  125.1480   64.0120 C   0  0  0  0  0  0  0  0  0  0  0  0
  131.0900  125.0470   62.8930 C   0  0  0  0  0  0  0  0  0  0  0  0
  129.7540  125.3410   62.9940 N   0  0  0  0  0  0  0  0  0  0  0  0
  129.6690  122.8400   58.0270 C   0  0  0  0  0  0  0  0  0  0  0  0
  128.7760  122.4960   57.0160 C   0  0  0  0  0  0  0  0  0  0  0  0
  124.9043  122.5394   57.6596 H   0  0  0  0  0  0  0  0  0  0  0  0
  124.8289  123.4784   56.1301 H   0  0  0  0  0  0  0  0  0  0  0  0
  124.4259  121.7279   56.1301 H   0  0  0  0  0  0  0  0  0  0  0  0
  125.8427  122.8986   58.7115 H   0  0  0  0  0  0  0  0  0  0  0  0
  127.4310  123.5206   60.5179 H   0  0  0  0  0  0  0  0  0  0  0  0
  129.7800  123.1330   61.2520 H   0  0  0  0  0  0  0  0  0  0  0  0
  135.1272  125.1287   67.6238 H   0  0  0  0  0  0  0  0  0  0  0  0
  136.0173  124.2197   66.3557 H   0  0  0  0  0  0  0  0  0  0  0  0
  136.0391  126.0158   66.3557 H   0  0  0  0  0  0  0  0  0  0  0  0
  132.8624  125.7990   67.2594 H   0  0  0  0  0  0  0  0  0  0  0  0
  129.0700  124.6440   63.2480 H   0  0  0  0  0  0  0  0  0  0  0  0
  129.4090  126.2750   62.8190 H   0  0  0  0  0  0  0  0  0  0  0  0
  130.7512  122.8320   57.8303 H   0  0  0  0  0  0  0  0  0  0  0  0
  129.1565  122.2108   56.0241 H   0  0  0  0  0  0  0  0  0  0  0  0
  1  2  1  0
  2  3  1  0
  3  4  2  0
  4  5  1  0
  5  6  2  0
  6  7  1  0
  7  8  1  0
  8  9  2  0
  8 10  1  0
 10 11  1  0
 11 12  1  0
 12 13  2  0
 13 14  1  0
 14 15  1  0
 14 16  2  0
 16 17  1  0
 17 18  1  0
 18 19  1  0
 18 20  1  0
 18 21  1  0
 17 22  2  0
 22 23  1  0
 23 24  1  0
  6 25  1  0
 25 26  2  0
 26  3  1  0
 23 10  2  0
 22 12  1  0
  1 27  1  0
  1 28  1  0
  1 29  1  0
  4 30  1  0
  5 31  1  0
  7 32  1  0
 15 33  1  0
 15 34  1  0
 15 35  1  0
 16 36  1  0
 24 37  1  0
 24 38  1  0
 25 39  1  0
 26 40  1  0
M  END
>  <Binding energies>  (1) 
[-6.85]

>  <Ligand effiencies>  (1) 
[-0.23620689655172414]

>  <Interactions>  (1) 
["V-B:TYR:539:C:9835, V-B:TYR:539:CD2:9842, V-B:TYR:539:CE2:9844, V-B:PRO:540:N:9852, V-B:PRO:540:CA:9851, V-B:MET:535:CE:9803, V-B:PRO:540:CB:9853, H-B:GLU:543:OE2:9878, V-B:GLU:543:CD:9876, V-A:ASP:366:CG:3208, V-A:GLU:543:CD:4903, H-A:TYR:484:OH:4343, V-B:GLU:543:CG:9875, H-B:TYR:539:N:9838, V-B:PRO:540:CD:9855, V-B:LEU:363:CD1:8156, V-B:TYR:539:CZ:9845, V-A:HIS:456:CE1:4064, V-B:GLU:543:CB:9874, V-B:TYR:539:CE1:9843, V-A:ARG:545:CZ:4921, V-A:GLY:453:CA:4039, H-A:GLY:454:N:4045, V-A:ARG:545:CD:4918, V-B:TYR:539:CD1:9841, V-A:ARG:545:CG:4917, V-B:TYR:539:CG:9840, H-A:ARG:545:NH1:4922, V-A:ARG:545:CB:4916, V-A:GLY:453:C:4037, V-A:ILE:455:C:4047, V-A:HIS:456:CD2:4063"]

$$$$
4bd_Grossjean_2025
     RDKit          3D

 36 38  0  0  0  0  0  0  0  0999 V2000
  131.2940  133.0100   54.7000 C   0  0  0  0  0  0  0  0  0  0  0  0
  131.2080  132.5750   56.1520 C   0  0  0  0  0  0  0  0  0  0  0  0
  132.2040  131.7920   56.7280 C   0  0  0  0  0  0  0  0  0  0  0  0
  132.1100  131.3950   58.0710 C   0  0  0  0  0  0  0  0  0  0  0  0
  133.2290  130.5310   58.6600 C   0  0  0  0  0  0  0  0  0  0  0  0
  134.2340  130.3230   57.8050 F   0  0  0  0  0  0  0  0  0  0  0  0
  133.7400  131.1250   59.7380 F   0  0  0  0  0  0  0  0  0  0  0  0
  132.7450  129.3370   59.0030 F   0  0  0  0  0  0  0  0  0  0  0  0
  130.9630  131.8280   58.8000 C   0  0  0  0  0  0  0  0  0  0  0  0
  130.5310  131.6260   60.1620 C   0  0  0  0  0  0  0  0  0  0  0  0
  131.2590  130.8990   61.0680 N   0  0  0  0  0  0  0  0  0  0  0  0
  129.3050  132.2380   60.4720 C   0  0  0  0  0  0  0  0  0  0  0  0
  128.5710  132.2220   61.7420 C   0  0  0  0  0  0  0  0  0  0  0  0
  129.0560  132.7300   62.7530 O   0  0  0  0  0  0  0  0  0  0  0  0
  127.3510  131.6310   61.7010 N   0  0  0  0  0  0  0  0  0  0  0  0
  126.4260  131.4160   62.7390 C   0  0  0  0  0  0  0  0  0  0  0  0
  125.5230  132.4550   62.9790 C   0  0  0  0  0  0  0  0  0  0  0  0
  124.5620  132.3340   63.9790 C   0  0  0  0  0  0  0  0  0  0  0  0
  124.4970  131.1670   64.7360 C   0  0  0  0  0  0  0  0  0  0  0  0
  125.3820  130.1190   64.4970 C   0  0  0  0  0  0  0  0  0  0  0  0
  126.3450  130.2360   63.4990 C   0  0  0  0  0  0  0  0  0  0  0  0
  128.6490  133.0940   59.0790 S   0  0  0  0  0  0  0  0  0  0  0  0
  130.0130  132.6270   58.0910 C   0  0  0  0  0  0  0  0  0  0  0  0
  130.1090  133.0010   56.8160 N   0  0  0  0  0  0  0  0  0  0  0  0
  131.5071  134.0881   54.6522 H   0  0  0  0  0  0  0  0  0  0  0  0
  132.0997  132.4543   54.1979 H   0  0  0  0  0  0  0  0  0  0  0  0
  130.3375  132.8027   54.1979 H   0  0  0  0  0  0  0  0  0  0  0  0
  133.0712  131.4820   56.1264 H   0  0  0  0  0  0  0  0  0  0  0  0
  131.8270  130.1110   60.7890 H   0  0  0  0  0  0  0  0  0  0  0  0
  131.2570  131.1310   62.0520 H   0  0  0  0  0  0  0  0  0  0  0  0
  127.0430  131.3090   60.7950 H   0  0  0  0  0  0  0  0  0  0  0  0
  125.5717  133.3730   62.3749 H   0  0  0  0  0  0  0  0  0  0  0  0
  123.8572  133.1566   64.1703 H   0  0  0  0  0  0  0  0  0  0  0  0
  123.7406  131.0724   65.5290 H   0  0  0  0  0  0  0  0  0  0  0  0
  125.3201  129.1989   65.0967 H   0  0  0  0  0  0  0  0  0  0  0  0
  127.0414  129.4068   63.3052 H   0  0  0  0  0  0  0  0  0  0  0  0
  1  2  1  0
  2  3  2  0
  3  4  1  0
  4  5  1  0
  5  6  1  0
  5  7  1  0
  5  8  1  0
  4  9  2  0
  9 10  1  0
 10 11  1  0
 10 12  2  0
 12 13  1  0
 13 14  2  0
 13 15  1  0
 15 16  1  0
 16 17  2  0
 17 18  1  0
 18 19  2  0
 19 20  1  0
 20 21  2  0
 12 22  1  0
 22 23  1  0
 23 24  2  0
 24  2  1  0
 23  9  1  0
 21 16  1  0
  1 25  1  0
  1 26  1  0
  1 27  1  0
  3 28  1  0
 11 29  1  0
 11 30  1  0
 15 31  1  0
 17 32  1  0
 18 33  1  0
 19 34  1  0
 20 35  1  0
 21 36  1  0
M  END
>  <Binding energies>  (1) 
[-6.3]

>  <Ligand effiencies>  (1) 
[-0.23333333333333334]

>  <Interactions>  (1) 
["V-A:PRO:540:N:4879, V-A:ASN:362:C:3167, V-A:TYR:531:CZ:4789, V-A:TYR:539:CE2:4871, V-A:TYR:531:CE2:4788, V-A:PRO:540:CA:4878, V-A:ASP:366:CB:3207, H-A:ALA:541:N:4886, V-A:PRO:540:CB:4880, V-A:LEU:363:CD1:3184, V-A:TYR:539:C:4862, V-A:LEU:363:CA:3180, V-A:PRO:540:CD:4882, H-A:GLU:543:OE2:4905, V-A:ASP:366:CG:3208, V-B:GLY:454:CA:9016, V-A:TYR:539:CD2:4869, V-B:LEU:475:CD2:9226, H-A:TYR:539:N:4865, V-A:LEU:363:CB:3182, V-A:TYR:539:CG:4867, V-A:TYR:531:CD2:4786, V-A:ILE:538:CG2:4858, V-A:ILE:538:CA:4855, V-A:ILE:538:C:4853, V-A:ILE:538:CB:4857, V-A:ILE:538:CD1:4860, H-A:ASP:366:OD2:3210, V-A:LEU:363:CG:3183, V-A:LEU:363:C:3178"]

$$$$
4be_Grossjean_2025
     RDKit          3D

 38 40  0  0  0  0  0  0  0  0999 V2000
  125.5190  128.8920   65.4010 C   0  0  0  0  0  0  0  0  0  0  0  0
  125.4600  130.1460   64.5490 C   0  0  0  0  0  0  0  0  0  0  0  0
  124.4830  131.1230   64.7540 C   0  0  0  0  0  0  0  0  0  0  0  0
  124.4870  132.2500   63.9300 C   0  0  0  0  0  0  0  0  0  0  0  0
  125.4570  132.3700   62.9320 C   0  0  0  0  0  0  0  0  0  0  0  0
  126.4110  131.3570   62.7850 C   0  0  0  0  0  0  0  0  0  0  0  0
  127.3550  131.5350   61.7580 N   0  0  0  0  0  0  0  0  0  0  0  0
  128.5180  132.2320   61.7820 C   0  0  0  0  0  0  0  0  0  0  0  0
  128.9350  132.8380   62.7710 O   0  0  0  0  0  0  0  0  0  0  0  0
  129.2680  132.2480   60.5230 C   0  0  0  0  0  0  0  0  0  0  0  0
  128.6260  133.1000   59.1200 S   0  0  0  0  0  0  0  0  0  0  0  0
  129.9970  132.6240   58.1460 C   0  0  0  0  0  0  0  0  0  0  0  0
  130.1060  132.9960   56.8710 N   0  0  0  0  0  0  0  0  0  0  0  0
  131.2120  132.5670   56.2210 C   0  0  0  0  0  0  0  0  0  0  0  0
  131.3170  132.9980   54.7690 C   0  0  0  0  0  0  0  0  0  0  0  0
  132.2030  131.7870   56.8100 C   0  0  0  0  0  0  0  0  0  0  0  0
  132.0940  131.3930   58.1530 C   0  0  0  0  0  0  0  0  0  0  0  0
  133.2120  130.5370   58.7580 C   0  0  0  0  0  0  0  0  0  0  0  0
  134.2330  130.3420   57.9200 F   0  0  0  0  0  0  0  0  0  0  0  0
  133.6990  131.1340   59.8450 F   0  0  0  0  0  0  0  0  0  0  0  0
  132.7330  129.3380   59.0910 F   0  0  0  0  0  0  0  0  0  0  0  0
  130.9370  131.8240   58.8670 C   0  0  0  0  0  0  0  0  0  0  0  0
  130.4860  131.6180   60.2210 C   0  0  0  0  0  0  0  0  0  0  0  0
  131.1920  130.8750   61.1320 N   0  0  0  0  0  0  0  0  0  0  0  0
  126.4090  130.2490   63.5840 N   0  0  0  0  0  0  0  0  0  0  0  0
  125.5059  129.1707   66.4650 H   0  0  0  0  0  0  0  0  0  0  0  0
  124.6498  128.2559   65.1778 H   0  0  0  0  0  0  0  0  0  0  0  0
  126.4441  128.3403   65.1778 H   0  0  0  0  0  0  0  0  0  0  0  0
  123.7284  131.0072   65.5459 H   0  0  0  0  0  0  0  0  0  0  0  0
  123.7316  133.0380   64.0657 H   0  0  0  0  0  0  0  0  0  0  0  0
  125.4707  133.2489   62.2707 H   0  0  0  0  0  0  0  0  0  0  0  0
  127.1010  131.1150   60.8760 H   0  0  0  0  0  0  0  0  0  0  0  0
  131.5771  134.0657   54.7214 H   0  0  0  0  0  0  0  0  0  0  0  0
  132.0976  132.4077   54.2668 H   0  0  0  0  0  0  0  0  0  0  0  0
  130.3524  132.8329   54.2668 H   0  0  0  0  0  0  0  0  0  0  0  0
  133.0776  131.4772   56.2191 H   0  0  0  0  0  0  0  0  0  0  0  0
  131.2410  131.1300   62.1080 H   0  0  0  0  0  0  0  0  0  0  0  0
  131.6980  130.0460   60.8540 H   0  0  0  0  0  0  0  0  0  0  0  0
  1  2  1  0
  2  3  2  0
  3  4  1  0
  4  5  2  0
  5  6  1  0
  6  7  1  0
  7  8  1  0
  8  9  2  0
  8 10  1  0
 10 11  1  0
 11 12  1  0
 12 13  2  0
 13 14  1  0
 14 15  1  0
 14 16  2  0
 16 17  1  0
 17 18  1  0
 18 19  1  0
 18 20  1  0
 18 21  1  0
 17 22  2  0
 22 23  1  0
 23 24  1  0
  6 25  2  0
 25  2  1  0
 23 10  2  0
 22 12  1  0
  1 26  1  0
  1 27  1  0
  1 28  1  0
  3 29  1  0
  4 30  1  0
  5 31  1  0
  7 32  1  0
 15 33  1  0
 15 34  1  0
 15 35  1  0
 16 36  1  0
 24 37  1  0
 24 38  1  0
M  END
>  <Binding energies>  (1) 
[-6.46]

>  <Ligand effiencies>  (1) 
[-0.2307142857142857]

>  <Interactions>  (1) 
["V-A:PRO:540:N:4879, V-A:ASN:362:C:3167, V-A:TYR:531:CZ:4789, V-A:TYR:539:CE2:4871, V-A:TYR:531:CE2:4788, V-A:PRO:540:CA:4878, V-A:ASP:366:CB:3207, H-A:ALA:541:N:4886, V-A:PRO:540:CB:4880, V-A:LEU:363:CD1:3184, V-A:TYR:539:C:4862, V-A:LEU:363:CA:3180, V-A:PRO:540:CD:4882, H-A:GLU:543:OE2:4905, V-A:ASP:366:CG:3208, V-A:GLU:543:CD:4903, V-B:GLY:454:CA:9016, V-A:TYR:539:CD2:4869, V-B:LEU:475:CD2:9226, H-A:TYR:539:N:4865, V-A:LEU:363:CB:3182, V-A:TYR:539:CG:4867, V-A:ILE:538:CG2:4858, V-B:ARG:545:CZ:9894, V-A:ILE:538:CA:4855, V-A:ILE:538:C:4853, V-A:ILE:538:CB:4857, V-B:HIS:456:CE1:9037, H-B:TYR:484:OH:9315, V-A:ILE:538:CD1:4860, H-A:ASP:366:OD2:3210, V-A:LEU:363:CG:3183, V-A:LEU:363:C:3178"]

$$$$
4bf_Grossjean_2025
     RDKit          3D

 35 37  0  0  0  0  0  0  0  0999 V2000
  130.6990  132.9690   55.3460 C   0  0  0  0  0  0  0  0  0  0  0  0
  130.6570  132.5590   56.8080 C   0  0  0  0  0  0  0  0  0  0  0  0
  131.7190  131.8720   57.3910 C   0  0  0  0  0  0  0  0  0  0  0  0
  131.6650  131.4970   58.7420 C   0  0  0  0  0  0  0  0  0  0  0  0
  132.8560  130.7400   59.3400 C   0  0  0  0  0  0  0  0  0  0  0  0
  133.4610  131.4110   60.3240 F   0  0  0  0  0  0  0  0  0  0  0  0
  132.4450  129.5760   59.8450 F   0  0  0  0  0  0  0  0  0  0  0  0
  133.7680  130.5130   58.3940 F   0  0  0  0  0  0  0  0  0  0  0  0
  130.4900  131.8490   59.4720 C   0  0  0  0  0  0  0  0  0  0  0  0
  130.0840  131.6370   60.8390 C   0  0  0  0  0  0  0  0  0  0  0  0
  130.8740  130.9870   61.7530 N   0  0  0  0  0  0  0  0  0  0  0  0
  128.8170  132.1580   61.1490 C   0  0  0  0  0  0  0  0  0  0  0  0
  128.0890  132.0940   62.4210 C   0  0  0  0  0  0  0  0  0  0  0  0
  128.3700  132.8600   63.3430 O   0  0  0  0  0  0  0  0  0  0  0  0
  127.1060  131.1630   62.4810 N   0  0  0  0  0  0  0  0  0  0  0  0
  126.2650  130.8150   63.5550 C   0  0  0  0  0  0  0  0  0  0  0  0
  126.5840  129.9060   64.5790 C   0  0  0  0  0  0  0  0  0  0  0  0
  125.6490  129.6380   65.5810 C   0  0  0  0  0  0  0  0  0  0  0  0
  124.4130  130.2840   65.5320 C   0  0  0  0  0  0  0  0  0  0  0  0
  124.0790  131.1600   64.5520 N   0  0  0  0  0  0  0  0  0  0  0  0
  124.9980  131.4100   63.5840 C   0  0  0  0  0  0  0  0  0  0  0  0
  128.0830  132.9270   59.7440 S   0  0  0  0  0  0  0  0  0  0  0  0
  129.4750  132.5540   58.7540 C   0  0  0  0  0  0  0  0  0  0  0  0
  129.5310  132.9090   57.4720 N   0  0  0  0  0  0  0  0  0  0  0  0
  130.8109  134.0610   55.2745 H   0  0  0  0  0  0  0  0  0  0  0  0
  131.5517  132.4799   54.8524 H   0  0  0  0  0  0  0  0  0  0  0  0
  129.7648  132.6630   54.8524 H   0  0  0  0  0  0  0  0  0  0  0  0
  132.6050  131.6220   56.7890 H   0  0  0  0  0  0  0  0  0  0  0  0
  131.2710  131.4630   62.5500 H   0  0  0  0  0  0  0  0  0  0  0  0
  131.0850  130.0030   61.6590 H   0  0  0  0  0  0  0  0  0  0  0  0
  126.9380  130.6390   61.6340 H   0  0  0  0  0  0  0  0  0  0  0  0
  127.5650  129.4085   64.5908 H   0  0  0  0  0  0  0  0  0  0  0  0
  125.8819  128.9324   66.3921 H   0  0  0  0  0  0  0  0  0  0  0  0
  123.6777  130.0736   66.3226 H   0  0  0  0  0  0  0  0  0  0  0  0
  124.7337  132.1154   62.7824 H   0  0  0  0  0  0  0  0  0  0  0  0
  1  2  1  0
  2  3  2  0
  3  4  1  0
  4  5  1  0
  5  6  1  0
  5  7  1  0
  5  8  1  0
  4  9  2  0
  9 10  1  0
 10 11  1  0
 10 12  2  0
 12 13  1  0
 13 14  2  0
 13 15  1  0
 15 16  1  0
 16 17  2  0
 17 18  1  0
 18 19  2  0
 19 20  1  0
 20 21  2  0
 12 22  1  0
 22 23  1  0
 23 24  2  0
 24  2  1  0
 23  9  1  0
 21 16  1  0
  1 25  1  0
  1 26  1  0
  1 27  1  0
  3 28  1  0
 11 29  1  0
 11 30  1  0
 15 31  1  0
 17 32  1  0
 18 33  1  0
 19 34  1  0
 21 35  1  0
M  END
>  <Binding energies>  (1) 
[-6.43]

>  <Ligand effiencies>  (1) 
[-0.23814814814814814]

>  <Interactions>  (1) 
["V-A:PRO:540:N:4879, V-A:ASN:362:C:3167, V-A:TYR:539:CE2:4871, V-A:PRO:540:CG:4881, V-A:TYR:531:CE2:4788, V-A:PRO:540:CA:4878, V-A:PRO:540:CB:4880, V-A:LEU:363:CD1:3184, V-A:TYR:539:C:4862, V-A:ASN:362:CB:3171, V-A:LEU:363:CA:3180, V-A:PRO:540:CD:4882, H-A:GLU:543:OE2:4905, V-A:ASP:366:CG:3208, V-A:GLU:543:CD:4903, V-A:TYR:539:CD2:4869, H-B:GLY:454:N:9017, V-A:LEU:363:CB:3182, V-A:ILE:538:CG2:4858, V-A:ILE:538:CA:4855, V-A:ILE:538:C:4853, V-B:HIS:456:CE1:9037, H-B:TYR:484:OH:9315"]

$$$$
4bg_Grossjean_2025
     RDKit          3D

 39 41  0  0  0  0  0  0  0  0999 V2000
  130.8430  132.7670   54.6500 C   0  0  0  0  0  0  0  0  0  0  0  0
  130.8980  132.4380   56.1310 C   0  0  0  0  0  0  0  0  0  0  0  0
  131.9470  131.6910   56.6610 C   0  0  0  0  0  0  0  0  0  0  0  0
  131.9830  131.3890   58.0320 C   0  0  0  0  0  0  0  0  0  0  0  0
  133.1560  130.5630   58.5700 C   0  0  0  0  0  0  0  0  0  0  0  0
  132.8130  129.3130   58.8860 F   0  0  0  0  0  0  0  0  0  0  0  0
  134.1170  130.4930   57.6480 F   0  0  0  0  0  0  0  0  0  0  0  0
  133.6430  131.1340   59.6720 F   0  0  0  0  0  0  0  0  0  0  0  0
  130.9110  131.8790   58.8350 C   0  0  0  0  0  0  0  0  0  0  0  0
  130.6080  131.7690   60.2420 C   0  0  0  0  0  0  0  0  0  0  0  0
  131.4030  131.0790   61.1210 N   0  0  0  0  0  0  0  0  0  0  0  0
  129.4360  132.4370   60.6280 C   0  0  0  0  0  0  0  0  0  0  0  0
  128.8210  132.5080   61.9540 C   0  0  0  0  0  0  0  0  0  0  0  0
  129.4960  132.4180   62.9810 O   0  0  0  0  0  0  0  0  0  0  0  0
  127.4880  132.7140   61.9760 N   0  0  0  0  0  0  0  0  0  0  0  0
  126.6630  132.8030   63.1800 C   0  0  0  0  0  0  0  0  0  0  0  0
  125.4190  131.9260   63.1340 C   0  0  0  0  0  0  0  0  0  0  0  0
  125.1360  131.0530   64.1880 C   0  0  0  0  0  0  0  0  0  0  0  0
  123.9780  130.2810   64.1600 C   0  0  0  0  0  0  0  0  0  0  0  0
  123.0980  130.3940   63.0860 C   0  0  0  0  0  0  0  0  0  0  0  0
  123.3640  131.2750   62.0400 C   0  0  0  0  0  0  0  0  0  0  0  0
  124.5240  132.0460   62.0670 C   0  0  0  0  0  0  0  0  0  0  0  0
  128.6450  133.1960   59.2490 S   0  0  0  0  0  0  0  0  0  0  0  0
  129.9010  132.6400   58.1690 C   0  0  0  0  0  0  0  0  0  0  0  0
  129.8710  132.9210   56.8660 N   0  0  0  0  0  0  0  0  0  0  0  0
  130.6629  133.8444   54.5202 H   0  0  0  0  0  0  0  0  0  0  0  0
  131.7990  132.4956   54.1784 H   0  0  0  0  0  0  0  0  0  0  0  0
  130.0273  132.1994   54.1784 H   0  0  0  0  0  0  0  0  0  0  0  0
  132.7524  131.3353   56.0016 H   0  0  0  0  0  0  0  0  0  0  0  0
  131.2360  131.0920   62.1160 H   0  0  0  0  0  0  0  0  0  0  0  0
  132.1950  130.5380   60.8000 H   0  0  0  0  0  0  0  0  0  0  0  0
  126.9890  132.6970   61.0980 H   0  0  0  0  0  0  0  0  0  0  0  0
  127.2728  132.4963   64.0426 H   0  0  0  0  0  0  0  0  0  0  0  0
  126.3197  133.8451   63.2590 H   0  0  0  0  0  0  0  0  0  0  0  0
  125.8281  130.9759   65.0395 H   0  0  0  0  0  0  0  0  0  0  0  0
  123.7587  129.5845   64.9827 H   0  0  0  0  0  0  0  0  0  0  0  0
  122.1844  129.7818   63.0636 H   0  0  0  0  0  0  0  0  0  0  0  0
  122.6620  131.3613   61.1975 H   0  0  0  0  0  0  0  0  0  0  0  0
  124.7357  132.7495   61.2483 H   0  0  0  0  0  0  0  0  0  0  0  0
  1  2  1  0
  2  3  2  0
  3  4  1  0
  4  5  1  0
  5  6  1  0
  5  7  1  0
  5  8  1  0
  4  9  2  0
  9 10  1  0
 10 11  1  0
 10 12  2  0
 12 13  1  0
 13 14  2  0
 13 15  1  0
 15 16  1  0
 16 17  1  0
 17 18  2  0
 18 19  1  0
 19 20  2  0
 20 21  1  0
 21 22  2  0
 12 23  1  0
 23 24  1  0
 24 25  2  0
 25  2  1  0
 24  9  1  0
 22 17  1  0
  1 26  1  0
  1 27  1  0
  1 28  1  0
  3 29  1  0
 11 30  1  0
 11 31  1  0
 15 32  1  0
 16 33  1  0
 16 34  1  0
 18 35  1  0
 19 36  1  0
 20 37  1  0
 21 38  1  0
 22 39  1  0
M  END
>  <Binding energies>  (1) 
[-6.73]

>  <Ligand effiencies>  (1) 
[-0.24035714285714288]

>  <Interactions>  (1) 
["V-A:PRO:540:N:4879, V-A:ASN:362:C:3167, V-A:TYR:531:CZ:4789, V-A:TYR:539:CE2:4871, V-A:TYR:531:CE2:4788, V-A:PRO:540:CA:4878, V-A:ASP:366:CB:3207, H-A:ALA:541:N:4886, V-A:PRO:540:CB:4880, V-A:LEU:363:CD1:3184, V-A:TYR:539:C:4862, V-A:LEU:363:CA:3180, V-A:PRO:540:CD:4882, H-A:GLU:543:OE2:4905, V-A:ASP:366:CG:3208, V-A:TYR:539:CD2:4869, V-B:ILE:369:CD1:8206, V-B:LEU:475:CD2:9226, H-A:TYR:539:N:4865, V-A:LEU:363:CB:3182, V-A:ALA:541:CB:4887, V-A:TYR:539:CG:4867, V-A:TYR:531:CD2:4786, V-A:ILE:538:CG2:4858, V-B:ARG:545:CZ:9894, V-A:ILE:538:CA:4855, V-B:GLY:453:CA:9011, V-B:GLY:453:C:9009, V-A:ILE:538:CD1:4860, H-A:ASP:366:OD2:3210, V-A:LEU:363:CG:3183, V-A:LEU:363:C:3178"]

$$$$
4bh_Grossjean_2025
     RDKit          3D

 51 53  0  0  0  0  0  0  0  0999 V2000
  123.0810  131.0860   62.2670 C   0  0  0  0  0  0  0  0  0  0  0  0
  123.7720  131.7130   63.3420 O   0  0  0  0  0  0  0  0  0  0  0  0
  124.8200  131.0510   63.9540 C   0  0  0  0  0  0  0  0  0  0  0  0
  126.1690  131.4080   63.8030 C   0  0  0  0  0  0  0  0  0  0  0  0
  127.1760  130.6920   64.4510 C   0  0  0  0  0  0  0  0  0  0  0  0
  128.6310  131.1230   64.3110 C   0  0  0  0  0  0  0  0  0  0  0  0
  129.0570  131.3000   62.9220 N   0  0  0  0  0  0  0  0  0  0  0  0
  128.8340  132.3980   62.1710 C   0  0  0  0  0  0  0  0  0  0  0  0
  128.1970  133.3680   62.5860 O   0  0  0  0  0  0  0  0  0  0  0  0
  129.3570  132.3590   60.8040 C   0  0  0  0  0  0  0  0  0  0  0  0
  128.4920  133.1750   59.5060 S   0  0  0  0  0  0  0  0  0  0  0  0
  129.6640  132.6330   58.3270 C   0  0  0  0  0  0  0  0  0  0  0  0
  129.5550  132.9570   57.0390 N   0  0  0  0  0  0  0  0  0  0  0  0
  130.5240  132.4810   56.2240 C   0  0  0  0  0  0  0  0  0  0  0  0
  130.3800  132.8600   54.7600 C   0  0  0  0  0  0  0  0  0  0  0  0
  131.5890  131.6980   56.6600 C   0  0  0  0  0  0  0  0  0  0  0  0
  131.7080  131.3520   58.0150 C   0  0  0  0  0  0  0  0  0  0  0  0
  132.8990  130.4910   58.4490 C   0  0  0  0  0  0  0  0  0  0  0  0
  133.8240  130.3570   57.4960 F   0  0  0  0  0  0  0  0  0  0  0  0
  133.4940  131.0430   59.5060 F   0  0  0  0  0  0  0  0  0  0  0  0
  132.4770  129.2680   58.7710 F   0  0  0  0  0  0  0  0  0  0  0  0
  130.7020  131.8350   58.9020 C   0  0  0  0  0  0  0  0  0  0  0  0
  130.4900  131.6860   60.3210 C   0  0  0  0  0  0  0  0  0  0  0  0
  131.3280  130.9560   61.1250 N   0  0  0  0  0  0  0  0  0  0  0  0
  126.8350  129.6240   65.2820 C   0  0  0  0  0  0  0  0  0  0  0  0
  125.4950  129.2390   65.4460 C   0  0  0  0  0  0  0  0  0  0  0  0
  125.0860  128.1840   66.2420 O   0  0  0  0  0  0  0  0  0  0  0  0
  126.0650  127.3910   66.9050 C   0  0  0  0  0  0  0  0  0  0  0  0
  124.4970  129.9580   64.7720 C   0  0  0  0  0  0  0  0  0  0  0  0
  123.1790  129.6030   64.9380 O   0  0  0  0  0  0  0  0  0  0  0  0
  122.6240  130.0090   66.1810 C   0  0  0  0  0  0  0  0  0  0  0  0
  122.3230  130.3982   62.6699 H   0  0  0  0  0  0  0  0  0  0  0  0
  122.5895  131.8528   61.6502 H   0  0  0  0  0  0  0  0  0  0  0  0
  123.7966  130.5225   61.6502 H   0  0  0  0  0  0  0  0  0  0  0  0
  126.4358  132.2637   63.1653 H   0  0  0  0  0  0  0  0  0  0  0  0
  128.7635  132.0782   64.8401 H   0  0  0  0  0  0  0  0  0  0  0  0
  129.2487  130.3196   64.7387 H   0  0  0  0  0  0  0  0  0  0  0  0
  129.6580  130.5800   62.5470 H   0  0  0  0  0  0  0  0  0  0  0  0
  129.9903  133.8858   54.6834 H   0  0  0  0  0  0  0  0  0  0  0  0
  131.3623  132.8033   54.2682 H   0  0  0  0  0  0  0  0  0  0  0  0
  129.6832  132.1653   54.2682 H   0  0  0  0  0  0  0  0  0  0  0  0
  132.3419  131.3483   55.9383 H   0  0  0  0  0  0  0  0  0  0  0  0
  131.7570  130.0970   60.8090 H   0  0  0  0  0  0  0  0  0  0  0  0
  131.5400  131.2500   62.0680 H   0  0  0  0  0  0  0  0  0  0  0  0
  127.6263  129.0768   65.8153 H   0  0  0  0  0  0  0  0  0  0  0  0
  125.9418  127.4908   67.9935 H   0  0  0  0  0  0  0  0  0  0  0  0
  125.9395  126.3369   66.6169 H   0  0  0  0  0  0  0  0  0  0  0  0
  127.0701  127.7327   66.6169 H   0  0  0  0  0  0  0  0  0  0  0  0
  123.2132  129.5780   67.0039 H   0  0  0  0  0  0  0  0  0  0  0  0
  122.6448  131.1066   66.2508 H   0  0  0  0  0  0  0  0  0  0  0  0
  121.5842  129.6568   66.2508 H   0  0  0  0  0  0  0  0  0  0  0  0
  1  2  1  0
  2  3  1  0
  3  4  2  0
  4  5  1  0
  5  6  1  0
  6  7  1  0
  7  8  1  0
  8  9  2  0
  8 10  1  0
 10 11  1  0
 11 12  1  0
 12 13  2  0
 13 14  1  0
 14 15  1  0
 14 16  2  0
 16 17  1  0
 17 18  1  0
 18 19  1  0
 18 20  1  0
 18 21  1  0
 17 22  2  0
 22 23  1  0
 23 24  1  0
  5 25  2  0
 25 26  1  0
 26 27  1  0
 27 28  1  0
 26 29  2  0
 29 30  1  0
 30 31  1  0
 29  3  1  0
 23 10  2  0
 22 12  1  0
  1 32  1  0
  1 33  1  0
  1 34  1  0
  4 35  1  0
  6 36  1  0
  6 37  1  0
  7 38  1  0
 15 39  1  0
 15 40  1  0
 15 41  1  0
 16 42  1  0
 24 43  1  0
 24 44  1  0
 25 45  1  0
 28 46  1  0
 28 47  1  0
 28 48  1  0
 31 49  1  0
 31 50  1  0
 31 51  1  0
M  END
>  <Binding energies>  (1) 
[-6.72]

>  <Ligand effiencies>  (1) 
[-0.1976470588235294]

>  <Interactions>  (1) 
["V-B:GLU:543:CD:9876, V-A:GLU:543:CG:4902, V-A:PRO:540:N:4879, V-A:ASN:362:C:3167, V-A:TYR:531:CZ:4789, V-A:TYR:539:CE2:4871, V-A:TYR:531:CE2:4788, V-A:PRO:540:CA:4878, V-A:ASP:366:CB:3207, V-A:PRO:540:CB:4880, V-A:LEU:363:CD1:3184, V-A:TYR:539:C:4862, V-A:LEU:363:CA:3180, H-A:GLU:543:OE2:4905, V-A:ASP:366:CG:3208, V-A:GLU:543:CD:4903, V-B:GLY:454:CA:9016, H-B:ARG:545:NH1:9895, V-A:TYR:539:CD2:4869, H-B:GLY:454:N:9017, V-B:ILE:369:CD1:8206, H-A:TYR:539:N:4865, V-A:LEU:363:CB:3182, V-A:TYR:539:CD1:4868, V-A:ALA:541:CB:4887, V-A:TYR:531:CD2:4786, V-B:ARG:545:CZ:9894, V-A:ILE:538:CA:4855, V-B:HIS:456:CE1:9037, V-B:ARG:545:CG:9890, V-B:ARG:545:CD:9891, V-B:GLU:543:CB:9874, H-B:ARG:545:NH2:9896, V-B:GLY:453:CA:9011, V-B:GLY:453:C:9009, H-B:ARG:545:NE:9892, V-A:ILE:538:CD1:4860, H-A:ASP:366:OD2:3210, V-A:LEU:363:CG:3183"]

$$$$
4bi_Grossjean_2025
     RDKit          3D

 32 34  0  0  0  0  0  0  0  0999 V2000
  133.5080  122.0880   62.8780 C   0  0  0  0  0  0  0  0  0  0  0  0
  132.7910  122.4100   61.5800 C   0  0  0  0  0  0  0  0  0  0  0  0
  133.4960  122.8370   60.4580 C   0  0  0  0  0  0  0  0  0  0  0  0
  132.8200  123.1280   59.2610 C   0  0  0  0  0  0  0  0  0  0  0  0
  133.6390  123.5860   58.0500 C   0  0  0  0  0  0  0  0  0  0  0  0
  133.5300  122.7640   57.0040 F   0  0  0  0  0  0  0  0  0  0  0  0
  133.2270  124.7900   57.6550 F   0  0  0  0  0  0  0  0  0  0  0  0
  134.9310  123.6480   58.3760 F   0  0  0  0  0  0  0  0  0  0  0  0
  131.4020  122.9700   59.2590 C   0  0  0  0  0  0  0  0  0  0  0  0
  130.3950  123.1700   58.2460 C   0  0  0  0  0  0  0  0  0  0  0  0
  130.6920  123.6050   56.9800 N   0  0  0  0  0  0  0  0  0  0  0  0
  129.0880  122.8750   58.6700 C   0  0  0  0  0  0  0  0  0  0  0  0
  127.8370  122.9790   57.9130 C   0  0  0  0  0  0  0  0  0  0  0  0
  127.6200  122.2400   56.9510 O   0  0  0  0  0  0  0  0  0  0  0  0
  126.9620  123.9140   58.3610 N   0  0  0  0  0  0  0  0  0  0  0  0
  125.7080  124.2140   57.8440 C   0  0  0  0  0  0  0  0  0  0  0  0
  124.5490  124.2290   58.6190 C   0  0  0  0  0  0  0  0  0  0  0  0
  123.5390  124.5660   57.7470 C   0  0  0  0  0  0  0  0  0  0  0  0
  124.0630  124.7450   56.5110 O   0  0  0  0  0  0  0  0  0  0  0  0
  125.4390  124.5190   56.5860 N   0  0  0  0  0  0  0  0  0  0  0  0
  129.0660  122.3610   60.3550 S   0  0  0  0  0  0  0  0  0  0  0  0
  130.8010  122.5250   60.4760 C   0  0  0  0  0  0  0  0  0  0  0  0
  131.4480  122.2490   61.6080 N   0  0  0  0  0  0  0  0  0  0  0  0
  132.8720  122.3736   63.7288 H   0  0  0  0  0  0  0  0  0  0  0  0
  133.7179  121.0092   62.9231 H   0  0  0  0  0  0  0  0  0  0  0  0
  134.4538  122.6478   62.9231 H   0  0  0  0  0  0  0  0  0  0  0  0
  134.5893  122.9473   60.5089 H   0  0  0  0  0  0  0  0  0  0  0  0
  131.5040  123.2730   56.4780 H   0  0  0  0  0  0  0  0  0  0  0  0
  130.1090  124.2800   56.5040 H   0  0  0  0  0  0  0  0  0  0  0  0
  127.2390  124.4540   59.1670 H   0  0  0  0  0  0  0  0  0  0  0  0
  124.4609  124.0172   59.6948 H   0  0  0  0  0  0  0  0  0  0  0  0
  122.4766  124.6728   58.0115 H   0  0  0  0  0  0  0  0  0  0  0  0
  1  2  1  0
  2  3  2  0
  3  4  1  0
  4  5  1  0
  5  6  1  0
  5  7  1  0
  5  8  1  0
  4  9  2  0
  9 10  1  0
 10 11  1  0
 10 12  2  0
 12 13  1  0
 13 14  2  0
 13 15  1  0
 15 16  1  0
 16 17  1  0
 17 18  2  0
 18 19  1  0
 19 20  1  0
 12 21  1  0
 21 22  1  0
 22 23  2  0
 23  2  1  0
 22  9  1  0
 20 16  2  0
  1 24  1  0
  1 25  1  0
  1 26  1  0
  3 27  1  0
 11 28  1  0
 11 29  1  0
 15 30  1  0
 17 31  1  0
 18 32  1  0
M  END
>  <Binding energies>  (1) 
[-6.12]

>  <Ligand effiencies>  (1) 
[-0.2353846153846154]

>  <Interactions>  (1) 
["V-B:TYR:539:C:9835, V-B:TYR:539:CD2:9842, V-A:LEU:475:CD2:4254, V-B:TYR:539:CE2:9844, V-B:PRO:540:N:9852, V-B:PRO:540:CA:9851, V-B:PRO:540:CB:9853, V-A:TYR:531:CZ:4789, V-A:ASP:366:CB:3207, V-A:ASP:366:CG:3208, H-B:TYR:539:N:9838, V-B:LEU:363:CB:8154, V-B:ASP:366:CG:8180, V-B:LEU:363:CD1:8156, V-B:TYR:539:CZ:9845, V-B:TYR:531:CE2:9761, V-B:ASP:366:CB:8179, V-B:LEU:363:CA:8152, V-A:ILE:369:CD1:3234, V-A:ILE:369:CG2:3232, V-B:LEU:363:CG:8155, V-A:ILE:369:CB:3231, V-A:TYR:531:CE1:4787, V-A:ASP:366:CA:3205, V-A:ASP:366:C:3203, H-B:TYR:539:OH:9846, V-A:GLY:454:CA:4044, H-B:TYR:531:OH:9763, V-A:ILE:369:CG1:3233"]

$$$$
4bj_Grossjean_2025
     RDKit          3D

 32 34  0  0  0  0  0  0  0  0999 V2000
  135.4380  125.1230   66.6170 C   0  0  0  0  0  0  0  0  0  0  0  0
  134.2010  125.1250   65.7360 C   0  0  0  0  0  0  0  0  0  0  0  0
  132.9550  125.4760   66.2490 C   0  0  0  0  0  0  0  0  0  0  0  0
  131.8190  125.4670   65.4250 C   0  0  0  0  0  0  0  0  0  0  0  0
  130.4680  125.8580   66.0360 C   0  0  0  0  0  0  0  0  0  0  0  0
  130.5730  126.3100   67.2870 F   0  0  0  0  0  0  0  0  0  0  0  0
  129.9060  126.8220   65.3070 F   0  0  0  0  0  0  0  0  0  0  0  0
  129.6620  124.7960   66.0610 F   0  0  0  0  0  0  0  0  0  0  0  0
  132.0050  125.0900   64.0620 C   0  0  0  0  0  0  0  0  0  0  0  0
  131.0990  124.9620   62.9460 C   0  0  0  0  0  0  0  0  0  0  0  0
  129.7550  125.2140   63.0510 N   0  0  0  0  0  0  0  0  0  0  0  0
  131.7160  124.5670   61.7490 C   0  0  0  0  0  0  0  0  0  0  0  0
  131.1020  124.3330   60.4390 C   0  0  0  0  0  0  0  0  0  0  0  0
  130.1970  123.5060   60.3050 O   0  0  0  0  0  0  0  0  0  0  0  0
  131.5880  125.0890   59.4250 N   0  0  0  0  0  0  0  0  0  0  0  0
  131.1750  125.0720   58.1000 C   0  0  0  0  0  0  0  0  0  0  0  0
  130.0560  125.5460   57.5950 N   0  0  0  0  0  0  0  0  0  0  0  0
  129.9960  125.3620   56.2910 C   0  0  0  0  0  0  0  0  0  0  0  0
  131.0860  124.7230   55.7090 C   0  0  0  0  0  0  0  0  0  0  0  0
  132.2470  124.3440   56.9460 S   0  0  0  0  0  0  0  0  0  0  0  0
  133.4460  124.3160   61.9740 S   0  0  0  0  0  0  0  0  0  0  0  0
  133.3360  124.7570   63.6620 C   0  0  0  0  0  0  0  0  0  0  0  0
  134.4110  124.7650   64.4490 N   0  0  0  0  0  0  0  0  0  0  0  0
  135.1350  125.1235   67.6745 H   0  0  0  0  0  0  0  0  0  0  0  0
  136.0360  124.2239   66.4073 H   0  0  0  0  0  0  0  0  0  0  0  0
  136.0389  126.0202   66.4073 H   0  0  0  0  0  0  0  0  0  0  0  0
  132.8605  125.7622   67.3069 H   0  0  0  0  0  0  0  0  0  0  0  0
  129.3860  125.8890   63.7040 H   0  0  0  0  0  0  0  0  0  0  0  0
  129.0830  124.7230   62.4760 H   0  0  0  0  0  0  0  0  0  0  0  0
  132.3240  125.7440   59.6450 H   0  0  0  0  0  0  0  0  0  0  0  0
  129.1325  125.6951   55.6965 H   0  0  0  0  0  0  0  0  0  0  0  0
  131.1956  124.4944   54.6386 H   0  0  0  0  0  0  0  0  0  0  0  0
  1  2  1  0
  2  3  2  0
  3  4  1  0
  4  5  1  0
  5  6  1  0
  5  7  1  0
  5  8  1  0
  4  9  2  0
  9 10  1  0
 10 11  1  0
 10 12  2  0
 12 13  1  0
 13 14  2  0
 13 15  1  0
 15 16  1  0
 16 17  2  0
 17 18  1  0
 18 19  2  0
 19 20  1  0
 12 21  1  0
 21 22  1  0
 22 23  2  0
 23  2  1  0
 22  9  1  0
 20 16  1  0
  1 24  1  0
  1 25  1  0
  1 26  1  0
  3 27  1  0
 11 28  1  0
 11 29  1  0
 15 30  1  0
 18 31  1  0
 19 32  1  0
M  END
>  <Binding energies>  (1) 
[-5.6]

>  <Ligand effiencies>  (1) 
[-0.21538461538461537]

>  <Interactions>  (1) 
["V-B:TYR:539:CE2:9844, H-B:GLU:543:OE2:9878, V-B:GLU:543:CD:9876, V-A:TYR:531:CZ:4789, V-A:ASP:366:CG:3208, V-A:GLU:543:CD:4903, H-A:TYR:484:OH:4343, V-B:GLU:543:CG:9875, V-B:TYR:539:CZ:9845, V-A:HIS:456:CE1:4064, V-B:GLU:543:CB:9874, V-A:TYR:531:CE1:4787, H-A:TYR:531:OH:4790, V-A:ARG:545:CZ:4921, V-A:GLY:453:CA:4039, H-A:GLY:454:N:4045, V-A:ARG:545:CD:4918, V-A:ARG:545:CG:4917, H-A:ARG:545:NH1:4922, V-A:ARG:545:CB:4916, V-A:GLY:453:C:4037, V-A:ILE:455:C:4047, V-A:HIS:456:CD2:4063, H-A:ASP:366:OD1:3209, H-A:ASP:366:OD2:3210"]

$$$$
4bk_Grossjean_2025
     RDKit          3D

 50 51  0  0  0  0  0  0  0  0999 V2000
  129.1700  125.3540   55.0720 C   0  0  0  0  0  0  0  0  0  0  0  0
  129.1200  123.9490   54.8720 O   0  0  0  0  0  0  0  0  0  0  0  0
  129.0410  123.2080   56.0830 C   0  0  0  0  0  0  0  0  0  0  0  0
  127.8760  122.2140   56.0000 C   0  0  0  0  0  0  0  0  0  0  0  0
  126.7970  122.6830   56.7980 O   0  0  0  0  0  0  0  0  0  0  0  0
  125.5430  122.1020   56.4670 C   0  0  0  0  0  0  0  0  0  0  0  0
  124.5200  123.2130   56.2000 C   0  0  0  0  0  0  0  0  0  0  0  0
  124.9550  124.4120   56.8260 O   0  0  0  0  0  0  0  0  0  0  0  0
  124.1850  124.7790   57.9650 C   0  0  0  0  0  0  0  0  0  0  0  0
  124.7480  124.0710   59.2100 C   0  0  0  0  0  0  0  0  0  0  0  0
  126.1840  123.7960   59.1310 N   0  0  0  0  0  0  0  0  0  0  0  0
  126.9580  123.3920   60.1590 C   0  0  0  0  0  0  0  0  0  0  0  0
  126.5050  123.1940   61.2880 O   0  0  0  0  0  0  0  0  0  0  0  0
  128.3760  123.1910   59.8580 C   0  0  0  0  0  0  0  0  0  0  0  0
  129.2700  124.4140   58.9580 S   0  0  0  0  0  0  0  0  0  0  0  0
  130.7420  123.4770   59.0620 C   0  0  0  0  0  0  0  0  0  0  0  0
  131.8800  123.9070   58.5190 N   0  0  0  0  0  0  0  0  0  0  0  0
  132.9530  123.0960   58.6670 C   0  0  0  0  0  0  0  0  0  0  0  0
  134.2390  123.6070   58.0430 C   0  0  0  0  0  0  0  0  0  0  0  0
  132.9150  121.8760   59.3370 C   0  0  0  0  0  0  0  0  0  0  0  0
  131.7190  121.4160   59.9100 C   0  0  0  0  0  0  0  0  0  0  0  0
  131.7250  120.0660   60.6350 C   0  0  0  0  0  0  0  0  0  0  0  0
  131.2110  120.1310   61.8650 F   0  0  0  0  0  0  0  0  0  0  0  0
  131.0040  119.1820   59.9460 F   0  0  0  0  0  0  0  0  0  0  0  0
  132.9760  119.6210   60.7480 F   0  0  0  0  0  0  0  0  0  0  0  0
  130.5680  122.2490   59.7740 C   0  0  0  0  0  0  0  0  0  0  0  0
  129.2030  122.1180   60.2200 C   0  0  0  0  0  0  0  0  0  0  0  0
  128.7570  121.0350   60.9330 N   0  0  0  0  0  0  0  0  0  0  0  0
  129.1777  125.5708   56.1504 H   0  0  0  0  0  0  0  0  0  0  0  0
  130.0831  125.7578   54.6103 H   0  0  0  0  0  0  0  0  0  0  0  0
  128.2879  125.8217   54.6103 H   0  0  0  0  0  0  0  0  0  0  0  0
  129.9812  122.6586   56.2385 H   0  0  0  0  0  0  0  0  0  0  0  0
  128.8752  123.8973   56.9241 H   0  0  0  0  0  0  0  0  0  0  0  0
  127.5462  122.1216   54.9547 H   0  0  0  0  0  0  0  0  0  0  0  0
  128.2049  121.2310   56.3682 H   0  0  0  0  0  0  0  0  0  0  0  0
  125.6531  121.4805   55.5661 H   0  0  0  0  0  0  0  0  0  0  0  0
  125.1961  121.4770   57.3031 H   0  0  0  0  0  0  0  0  0  0  0  0
  124.4294  123.3764   55.1160 H   0  0  0  0  0  0  0  0  0  0  0  0
  123.5415  122.9186   56.6073 H   0  0  0  0  0  0  0  0  0  0  0  0
  124.2361  125.8685   58.1074 H   0  0  0  0  0  0  0  0  0  0  0  0
  123.1375  124.4796   57.8133 H   0  0  0  0  0  0  0  0  0  0  0  0
  124.5644  124.7104   60.0860 H   0  0  0  0  0  0  0  0  0  0  0  0
  124.2380  123.0993   59.2858 H   0  0  0  0  0  0  0  0  0  0  0  0
  126.6160  123.9410   58.2300 H   0  0  0  0  0  0  0  0  0  0  0  0
  134.9458  123.8879   58.8377 H   0  0  0  0  0  0  0  0  0  0  0  0
  134.6832  122.8171   57.4196 H   0  0  0  0  0  0  0  0  0  0  0  0
  134.0199  124.4864   57.4196 H   0  0  0  0  0  0  0  0  0  0  0  0
  133.8285  121.2685   59.4178 H   0  0  0  0  0  0  0  0  0  0  0  0
  128.1940  120.3100   60.5090 H   0  0  0  0  0  0  0  0  0  0  0  0
  128.9810  120.9210   61.9120 H   0  0  0  0  0  0  0  0  0  0  0  0
  1  2  1  0
  2  3  1  0
  3  4  1  0
  4  5  1  0
  5  6  1  0
  6  7  1  0
  7  8  1  0
  8  9  1  0
  9 10  1  0
 10 11  1  0
 11 12  1  0
 12 13  2  0
 12 14  1  0
 14 15  1  0
 15 16  1  0
 16 17  2  0
 17 18  1  0
 18 19  1  0
 18 20  2  0
 20 21  1  0
 21 22  1  0
 22 23  1  0
 22 24  1  0
 22 25  1  0
 21 26  2  0
 26 27  1  0
 27 28  1  0
 27 14  2  0
 26 16  1  0
  1 29  1  0
  1 30  1  0
  1 31  1  0
  3 32  1  0
  3 33  1  0
  4 34  1  0
  4 35  1  0
  6 36  1  0
  6 37  1  0
  7 38  1  0
  7 39  1  0
  9 40  1  0
  9 41  1  0
 10 42  1  0
 10 43  1  0
 11 44  1  0
 19 45  1  0
 19 46  1  0
 19 47  1  0
 20 48  1  0
 28 49  1  0
 28 50  1  0
M  END
>  <Binding energies>  (1) 
[-5.32]

>  <Ligand effiencies>  (1) 
[-0.17161290322580647]

>  <Interactions>  (1) 
["V-B:TYR:539:C:9835, V-B:TYR:539:CD2:9842, V-A:LEU:475:CD2:4254, V-A:TRP:381:CZ2:3365, V-A:LEU:475:CD1:4253, V-B:PRO:540:C:9849, V-B:TYR:539:CE2:9844, V-B:PRO:540:N:9852, V-B:ALA:541:CB:9860, V-A:TRP:381:CH2:3367, H-B:TYR:539:O:9836, V-B:PRO:540:CA:9851, V-B:MET:535:CE:9803, V-B:PRO:540:CB:9853, H-B:ALA:541:N:9859, V-B:ALA:541:CA:9858, V-A:ASP:366:CB:3207, V-A:ASP:366:CG:3208, V-B:TYR:539:CA:9837, V-B:ASP:366:CG:8180, V-A:TRP:381:CZ3:3366, V-B:PRO:540:CD:9855, V-B:LEU:363:CD1:8156, V-B:TYR:539:CZ:9845, V-B:TYR:531:CE2:9761, V-B:ASP:366:CB:8179, V-B:LEU:363:CA:8152, V-B:TYR:539:CE1:9843, V-A:ILE:369:CD1:3234, V-A:ILE:369:CG2:3232, V-A:ILE:369:CB:3231, H-B:PRO:540:O:9850, V-A:ASP:366:CA:3205, V-A:ASP:366:C:3203, H-B:TYR:539:OH:9846, V-A:LEU:475:CG:4252, H-A:LYS:534:NZ:4818, V-B:TYR:539:CD1:9841, V-B:TYR:539:CG:9840, H-B:TYR:531:OH:9763, V-A:ILE:369:CG1:3233, V-B:ILE:538:CG2:9831"]

$$$$
4ca_Grossjean_2025
     RDKit          3D

 52 55  0  0  0  0  0  0  0  0999 V2000
  132.0490  131.1160   54.6760 C   0  0  0  0  0  0  0  0  0  0  0  0
  132.2800  132.5760   55.0770 C   0  0  0  0  0  0  0  0  0  0  0  0
  131.9150  132.7560   56.4390 O   0  0  0  0  0  0  0  0  0  0  0  0
  130.6110  132.8370   56.8110 C   0  0  0  0  0  0  0  0  0  0  0  0
  129.7440  133.3970   56.1330 O   0  0  0  0  0  0  0  0  0  0  0  0
  130.3290  132.1740   58.1280 C   0  0  0  0  0  0  0  0  0  0  0  0
  131.3360  131.4200   58.7440 C   0  0  0  0  0  0  0  0  0  0  0  0
  131.1060  130.7970   59.9680 C   0  0  0  0  0  0  0  0  0  0  0  0
  129.8650  130.9090   60.5960 C   0  0  0  0  0  0  0  0  0  0  0  0
  129.7450  130.2460   61.8340 N   0  0  0  0  0  0  0  0  0  0  0  0
  128.7890  129.3930   62.2770 C   0  0  0  0  0  0  0  0  0  0  0  0
  127.8390  129.0050   61.5970 O   0  0  0  0  0  0  0  0  0  0  0  0
  128.9620  128.9230   63.6540 C   0  0  0  0  0  0  0  0  0  0  0  0
  128.6190  129.9990   65.0070 S   0  0  0  0  0  0  0  0  0  0  0  0
  129.0010  128.7430   66.1600 C   0  0  0  0  0  0  0  0  0  0  0  0
  128.9220  128.9570   67.4710 N   0  0  0  0  0  0  0  0  0  0  0  0
  129.2240  127.9170   68.2910 C   0  0  0  0  0  0  0  0  0  0  0  0
  129.1150  128.1880   69.7630 C   0  0  0  0  0  0  0  0  0  0  0  0
  127.9600  127.8320   70.4770 C   0  0  0  0  0  0  0  0  0  0  0  0
  127.8510  128.0850   71.8420 C   0  0  0  0  0  0  0  0  0  0  0  0
  128.9000  128.7020   72.5150 C   0  0  0  0  0  0  0  0  0  0  0  0
  130.0550  129.0680   71.8330 C   0  0  0  0  0  0  0  0  0  0  0  0
  130.1600  128.8130   70.4680 C   0  0  0  0  0  0  0  0  0  0  0  0
  129.6260  126.6750   67.7900 C   0  0  0  0  0  0  0  0  0  0  0  0
  129.7180  126.4390   66.4090 C   0  0  0  0  0  0  0  0  0  0  0  0
  130.1620  125.0530   65.9290 C   0  0  0  0  0  0  0  0  0  0  0  0
  131.4250  125.0280   65.4980 F   0  0  0  0  0  0  0  0  0  0  0  0
  130.0650  124.1760   66.9290 F   0  0  0  0  0  0  0  0  0  0  0  0
  129.3890  124.6560   64.9190 F   0  0  0  0  0  0  0  0  0  0  0  0
  129.3860  127.5180   65.5410 C   0  0  0  0  0  0  0  0  0  0  0  0
  129.3520  127.6500   64.1040 C   0  0  0  0  0  0  0  0  0  0  0  0
  129.6760  126.6210   63.2580 N   0  0  0  0  0  0  0  0  0  0  0  0
  128.8520  131.6660   59.9900 C   0  0  0  0  0  0  0  0  0  0  0  0
  129.0850  132.2900   58.7670 C   0  0  0  0  0  0  0  0  0  0  0  0
  131.9513  130.4983   55.5809 H   0  0  0  0  0  0  0  0  0  0  0  0
  131.1278  131.0409   54.0795 H   0  0  0  0  0  0  0  0  0  0  0  0
  132.9020  130.7602   54.0795 H   0  0  0  0  0  0  0  0  0  0  0  0
  133.3424  132.8288   54.9455 H   0  0  0  0  0  0  0  0  0  0  0  0
  131.6661  133.2323   54.4427 H   0  0  0  0  0  0  0  0  0  0  0  0
  132.3170  131.3191   58.2567 H   0  0  0  0  0  0  0  0  0  0  0  0
  131.9079  130.2127   60.4429 H   0  0  0  0  0  0  0  0  0  0  0  0
  130.4980  130.4360   62.4770 H   0  0  0  0  0  0  0  0  0  0  0  0
  127.1268  127.3449   69.9492 H   0  0  0  0  0  0  0  0  0  0  0  0
  126.9389  127.7980   72.3857 H   0  0  0  0  0  0  0  0  0  0  0  0
  128.8154  128.9017   73.5934 H   0  0  0  0  0  0  0  0  0  0  0  0
  130.8819  129.5567   72.3691 H   0  0  0  0  0  0  0  0  0  0  0  0
  131.0751  129.1051   69.9320 H   0  0  0  0  0  0  0  0  0  0  0  0
  129.8753  125.8660   68.4924 H   0  0  0  0  0  0  0  0  0  0  0  0
  129.0160  125.8910   63.0280 H   0  0  0  0  0  0  0  0  0  0  0  0
  130.5900  126.5570   62.8310 H   0  0  0  0  0  0  0  0  0  0  0  0
  127.8728  131.7670   60.4809 H   0  0  0  0  0  0  0  0  0  0  0  0
  128.2849  132.8804   58.2966 H   0  0  0  0  0  0  0  0  0  0  0  0
  1  2  1  0
  2  3  1  0
  3  4  1  0
  4  5  2  0
  4  6  1  0
  6  7  2  0
  7  8  1  0
  8  9  2  0
  9 10  1  0
 10 11  1  0
 11 12  2  0
 11 13  1  0
 13 14  1  0
 14 15  1  0
 15 16  2  0
 16 17  1  0
 17 18  1  0
 18 19  2  0
 19 20  1  0
 20 21  2  0
 21 22  1  0
 22 23  2  0
 17 24  2  0
 24 25  1  0
 25 26  1  0
 26 27  1  0
 26 28  1  0
 26 29  1  0
 25 30  2  0
 30 31  1  0
 31 32  1  0
  9 33  1  0
 33 34  2  0
 34  6  1  0
 31 13  2  0
 30 15  1  0
 23 18  1  0
  1 35  1  0
  1 36  1  0
  1 37  1  0
  2 38  1  0
  2 39  1  0
  7 40  1  0
  8 41  1  0
 10 42  1  0
 19 43  1  0
 20 44  1  0
 21 45  1  0
 22 46  1  0
 23 47  1  0
 24 48  1  0
 32 49  1  0
 32 50  1  0
 33 51  1  0
 34 52  1  0
M  END
>  <Binding energies>  (1) 
[-7.42]

>  <Ligand effiencies>  (1) 
[-0.20054054054054055]

>  <Interactions>  (1) 
["H-B:GLU:543:OE2:9878, V-B:GLU:543:CD:9876, V-A:GLU:543:CG:4902, V-A:PRO:540:N:4879, V-A:TYR:531:CZ:4789, V-A:TYR:531:CE2:4788, V-A:PRO:540:CA:4878, V-A:PRO:540:CB:4880, V-A:LEU:363:CD1:3184, V-A:TYR:539:C:4862, V-A:PRO:540:CD:4882, H-A:GLU:543:OE2:4905, V-A:GLU:543:CD:4903, V-B:GLU:543:CG:9875, V-A:TYR:484:CE1:4340, H-A:TYR:539:N:4865, V-A:ILE:538:CG2:4858, V-A:GLU:543:CB:4901, V-B:HIS:456:CE1:9037, V-A:TYR:484:CZ:4342, V-B:GLU:543:CA:9872, V-A:HIS:456:CE1:4064, V-B:GLU:543:CB:9874, V-B:HIS:456:CD2:9035, V-A:GLU:543:C:4897, V-A:ILE:538:CD1:4860"]

$$$$
4cb_Grossjean_2025
     RDKit          3D

 49 52  0  0  0  0  0  0  0  0999 V2000
  132.1590  132.2400   55.0690 C   0  0  0  0  0  0  0  0  0  0  0  0
  131.8490  132.6610   56.3900 O   0  0  0  0  0  0  0  0  0  0  0  0
  130.5600  132.7980   56.7940 C   0  0  0  0  0  0  0  0  0  0  0  0
  129.6940  133.3750   56.1290 O   0  0  0  0  0  0  0  0  0  0  0  0
  130.2900  132.1770   58.1360 C   0  0  0  0  0  0  0  0  0  0  0  0
  131.0980  131.1190   58.5740 C   0  0  0  0  0  0  0  0  0  0  0  0
  130.8780  130.5280   59.8150 C   0  0  0  0  0  0  0  0  0  0  0  0
  129.8450  130.9760   60.6390 C   0  0  0  0  0  0  0  0  0  0  0  0
  129.7220  130.3170   61.8780 N   0  0  0  0  0  0  0  0  0  0  0  0
  128.7200  129.5410   62.3580 C   0  0  0  0  0  0  0  0  0  0  0  0
  127.7140  129.2360   61.7170 O   0  0  0  0  0  0  0  0  0  0  0  0
  128.9120  129.0470   63.7240 C   0  0  0  0  0  0  0  0  0  0  0  0
  128.5620  130.0910   65.1010 S   0  0  0  0  0  0  0  0  0  0  0  0
  128.9750  128.8200   66.2280 C   0  0  0  0  0  0  0  0  0  0  0  0
  128.9050  129.0070   67.5430 N   0  0  0  0  0  0  0  0  0  0  0  0
  129.2350  127.9570   68.3390 C   0  0  0  0  0  0  0  0  0  0  0  0
  129.1410  128.1970   69.8180 C   0  0  0  0  0  0  0  0  0  0  0  0
  130.2330  128.7150   70.5320 C   0  0  0  0  0  0  0  0  0  0  0  0
  130.1540  128.9370   71.9050 C   0  0  0  0  0  0  0  0  0  0  0  0
  128.9760  128.6430   72.5850 C   0  0  0  0  0  0  0  0  0  0  0  0
  127.8800  128.1260   71.9020 C   0  0  0  0  0  0  0  0  0  0  0  0
  127.9650  127.9040   70.5300 C   0  0  0  0  0  0  0  0  0  0  0  0
  129.6560  126.7320   67.8100 C   0  0  0  0  0  0  0  0  0  0  0  0
  129.7370  126.5260   66.4240 C   0  0  0  0  0  0  0  0  0  0  0  0
  130.2030  125.1570   65.9120 C   0  0  0  0  0  0  0  0  0  0  0  0
  131.4630  125.1660   65.4690 F   0  0  0  0  0  0  0  0  0  0  0  0
  130.1320  124.2600   66.8950 F   0  0  0  0  0  0  0  0  0  0  0  0
  129.4280  124.7650   64.9010 F   0  0  0  0  0  0  0  0  0  0  0  0
  129.3760  127.6150   65.5800 C   0  0  0  0  0  0  0  0  0  0  0  0
  129.3250  127.7730   64.1470 C   0  0  0  0  0  0  0  0  0  0  0  0
  129.6540  126.7640   63.2780 N   0  0  0  0  0  0  0  0  0  0  0  0
  129.0340  132.0370   60.2090 C   0  0  0  0  0  0  0  0  0  0  0  0
  129.2560  132.6280   58.9690 C   0  0  0  0  0  0  0  0  0  0  0  0
  132.8108  131.3548   55.1097 H   0  0  0  0  0  0  0  0  0  0  0  0
  131.2299  131.9871   54.5372 H   0  0  0  0  0  0  0  0  0  0  0  0
  132.6763  133.0521   54.5372 H   0  0  0  0  0  0  0  0  0  0  0  0
  131.9126  130.7526   57.9320 H   0  0  0  0  0  0  0  0  0  0  0  0
  131.5232  129.7018   60.1484 H   0  0  0  0  0  0  0  0  0  0  0  0
  130.5140  130.4430   62.4910 H   0  0  0  0  0  0  0  0  0  0  0  0
  131.1661  128.9494   69.9987 H   0  0  0  0  0  0  0  0  0  0  0  0
  131.0193  129.3430   72.4494 H   0  0  0  0  0  0  0  0  0  0  0  0
  128.9112  128.8204   73.6687 H   0  0  0  0  0  0  0  0  0  0  0  0
  126.9508  127.8937   72.4430 H   0  0  0  0  0  0  0  0  0  0  0  0
  127.0970  127.4923   69.9942 H   0  0  0  0  0  0  0  0  0  0  0  0
  129.9288  125.9145   68.4936 H   0  0  0  0  0  0  0  0  0  0  0  0
  130.5290  126.7580   62.7730 H   0  0  0  0  0  0  0  0  0  0  0  0
  129.0310  125.9850   63.1160 H   0  0  0  0  0  0  0  0  0  0  0  0
  128.2209  132.4024   60.8535 H   0  0  0  0  0  0  0  0  0  0  0  0
  128.6137  133.4577   58.6387 H   0  0  0  0  0  0  0  0  0  0  0  0
  1  2  1  0
  2  3  1  0
  3  4  2  0
  3  5  1  0
  5  6  2  0
  6  7  1  0
  7  8  2  0
  8  9  1  0
  9 10  1  0
 10 11  2  0
 10 12  1  0
 12 13  1  0
 13 14  1  0
 14 15  2  0
 15 16  1  0
 16 17  1  0
 17 18  2  0
 18 19  1  0
 19 20  2  0
 20 21  1  0
 21 22  2  0
 16 23  2  0
 23 24  1  0
 24 25  1  0
 25 26  1  0
 25 27  1  0
 25 28  1  0
 24 29  2  0
 29 30  1  0
 30 31  1  0
  8 32  1  0
 32 33  2  0
 33  5  1  0
 30 12  2  0
 29 14  1  0
 22 17  1  0
  1 34  1  0
  1 35  1  0
  1 36  1  0
  6 37  1  0
  7 38  1  0
  9 39  1  0
 18 40  1  0
 19 41  1  0
 20 42  1  0
 21 43  1  0
 22 44  1  0
 23 45  1  0
 31 46  1  0
 31 47  1  0
 32 48  1  0
 33 49  1  0
M  END
>  <Binding energies>  (1) 
[-7.2]

>  <Ligand effiencies>  (1) 
[-0.2]

>  <Interactions>  (1) 
["H-B:GLU:543:OE2:9878, V-B:GLU:543:CD:9876, V-A:GLU:543:CG:4902, V-A:PRO:540:N:4879, V-A:PRO:540:CA:4878, V-A:PRO:540:CB:4880, V-A:LEU:363:CD1:3184, V-A:TYR:539:C:4862, V-A:PRO:540:CD:4882, H-A:GLU:543:OE2:4905, V-A:GLU:543:CD:4903, V-B:GLU:543:CG:9875, V-A:TYR:484:CE1:4340, H-A:TYR:539:N:4865, V-A:ILE:538:CG2:4858, V-A:GLU:543:CB:4901, V-B:HIS:456:CE1:9037, V-A:TYR:484:CZ:4342, V-B:GLU:543:CA:9872, V-A:HIS:456:CE1:4064, V-B:GLU:543:CB:9874, V-B:HIS:456:CD2:9035, V-A:GLU:543:C:4897, V-A:ILE:538:CD1:4860"]

$$$$
4cc_Grossjean_2025
     RDKit          3D

 47 50  0  0  0  0  0  0  0  0999 V2000
  129.7530  118.0200   60.2590 C   0  0  0  0  0  0  0  0  0  0  0  0
  130.3090  119.2730   59.8770 O   0  0  0  0  0  0  0  0  0  0  0  0
  130.1190  120.3720   60.6930 C   0  0  0  0  0  0  0  0  0  0  0  0
  130.6910  120.3100   61.9630 C   0  0  0  0  0  0  0  0  0  0  0  0
  130.5550  121.3700   62.8550 C   0  0  0  0  0  0  0  0  0  0  0  0
  129.8310  122.5070   62.4900 C   0  0  0  0  0  0  0  0  0  0  0  0
  129.7610  123.5330   63.4510 N   0  0  0  0  0  0  0  0  0  0  0  0
  130.7270  124.3870   63.8660 C   0  0  0  0  0  0  0  0  0  0  0  0
  131.8690  124.4120   63.4020 O   0  0  0  0  0  0  0  0  0  0  0  0
  130.3340  125.3150   64.9300 C   0  0  0  0  0  0  0  0  0  0  0  0
  130.7800  124.9880   66.6030 S   0  0  0  0  0  0  0  0  0  0  0  0
  129.9970  126.4540   67.1450 C   0  0  0  0  0  0  0  0  0  0  0  0
  129.9890  126.8020   68.4300 N   0  0  0  0  0  0  0  0  0  0  0  0
  129.3640  127.9640   68.7540 C   0  0  0  0  0  0  0  0  0  0  0  0
  129.3670  128.3290   70.2100 C   0  0  0  0  0  0  0  0  0  0  0  0
  130.5190  128.8600   70.8150 C   0  0  0  0  0  0  0  0  0  0  0  0
  130.5300  129.2000   72.1650 C   0  0  0  0  0  0  0  0  0  0  0  0
  129.3860  129.0120   72.9330 C   0  0  0  0  0  0  0  0  0  0  0  0
  128.2330  128.4840   72.3610 C   0  0  0  0  0  0  0  0  0  0  0  0
  128.2270  128.1450   71.0100 C   0  0  0  0  0  0  0  0  0  0  0  0
  128.7380  128.7600   67.7910 C   0  0  0  0  0  0  0  0  0  0  0  0
  128.7390  128.4010   66.4330 C   0  0  0  0  0  0  0  0  0  0  0  0
  128.0390  129.3240   65.4300 C   0  0  0  0  0  0  0  0  0  0  0  0
  128.8670  129.8250   64.5100 F   0  0  0  0  0  0  0  0  0  0  0  0
  127.0880  128.6490   64.7840 F   0  0  0  0  0  0  0  0  0  0  0  0
  127.4870  130.3530   66.0730 F   0  0  0  0  0  0  0  0  0  0  0  0
  129.4000  127.1890   66.0800 C   0  0  0  0  0  0  0  0  0  0  0  0
  129.6050  126.5100   64.8240 C   0  0  0  0  0  0  0  0  0  0  0  0
  129.1290  126.9970   63.6330 N   0  0  0  0  0  0  0  0  0  0  0  0
  129.2630  122.5820   61.2100 C   0  0  0  0  0  0  0  0  0  0  0  0
  129.4030  121.5200   60.3210 C   0  0  0  0  0  0  0  0  0  0  0  0
  129.7227  117.9516   61.3565 H   0  0  0  0  0  0  0  0  0  0  0  0
  128.7323  117.9342   59.8579 H   0  0  0  0  0  0  0  0  0  0  0  0
  130.3742  117.2056   59.8579 H   0  0  0  0  0  0  0  0  0  0  0  0
  131.2553  119.4147   62.2630 H   0  0  0  0  0  0  0  0  0  0  0  0
  131.0193  121.3118   63.8505 H   0  0  0  0  0  0  0  0  0  0  0  0
  128.8480  123.6590   63.8620 H   0  0  0  0  0  0  0  0  0  0  0  0
  131.4268  129.0094   70.2120 H   0  0  0  0  0  0  0  0  0  0  0  0
  131.4400  129.6157   72.6223 H   0  0  0  0  0  0  0  0  0  0  0  0
  129.3928  129.2824   73.9992 H   0  0  0  0  0  0  0  0  0  0  0  0
  127.3308  128.3350   72.9724 H   0  0  0  0  0  0  0  0  0  0  0  0
  127.3140  127.7260   70.5618 H   0  0  0  0  0  0  0  0  0  0  0  0
  128.2341  129.6867   68.1028 H   0  0  0  0  0  0  0  0  0  0  0  0
  128.4060  126.5210   63.1120 H   0  0  0  0  0  0  0  0  0  0  0  0
  129.4900  127.8510   63.2330 H   0  0  0  0  0  0  0  0  0  0  0  0
  128.7061  123.4813   60.9081 H   0  0  0  0  0  0  0  0  0  0  0  0
  128.9495  121.5811   59.3207 H   0  0  0  0  0  0  0  0  0  0  0  0
  1  2  1  0
  2  3  1  0
  3  4  2  0
  4  5  1  0
  5  6  2  0
  6  7  1  0
  7  8  1  0
  8  9  2  0
  8 10  1  0
 10 11  1  0
 11 12  1  0
 12 13  2  0
 13 14  1  0
 14 15  1  0
 15 16  2  0
 16 17  1  0
 17 18  2  0
 18 19  1  0
 19 20  2  0
 14 21  2  0
 21 22  1  0
 22 23  1  0
 23 24  1  0
 23 25  1  0
 23 26  1  0
 22 27  2  0
 27 28  1  0
 28 29  1  0
  6 30  1  0
 30 31  2  0
 31  3  1  0
 28 10  2  0
 27 12  1  0
 20 15  1  0
  1 32  1  0
  1 33  1  0
  1 34  1  0
  4 35  1  0
  5 36  1  0
  7 37  1  0
 16 38  1  0
 17 39  1  0
 18 40  1  0
 19 41  1  0
 20 42  1  0
 21 43  1  0
 29 44  1  0
 29 45  1  0
 30 46  1  0
 31 47  1  0
M  END
>  <Binding energies>  (1) 
[-7.0]

>  <Ligand effiencies>  (1) 
[-0.20588235294117646]

>  <Interactions>  (1) 
["V-B:TYR:539:C:9835, V-B:TYR:539:CD2:9842, V-A:LEU:475:CD2:4254, V-A:TRP:381:CZ2:3365, V-A:LEU:475:CD1:4253, V-B:ALA:541:CB:9860, V-A:TRP:381:CH2:3367, V-A:PRO:482:CB:4321, H-B:GLU:543:OE2:9878, V-B:GLU:543:CD:9876, V-A:GLU:543:CG:4902, H-A:GLU:543:OE2:4905, V-A:GLU:543:CD:4903, V-B:GLU:543:CG:9875, V-A:TYR:484:CE1:4340, V-A:TRP:381:CZ3:3366, V-A:GLU:543:CB:4901, V-B:TYR:484:CE1:9312, V-B:HIS:456:CE1:9037, V-B:TYR:484:CZ:9314, V-A:TYR:484:CZ:4342, V-A:HIS:456:CE1:4064, H-A:HIS:456:NE2:4065, V-A:LYS:547:CE:4945, V-B:HIS:456:CD2:9035, V-A:GLU:543:C:4897, V-A:GLY:544:C:4907, H-A:GLU:543:OE1:4904, V-A:PRO:482:CG:4322, V-A:TRP:381:CE2:3362, V-A:GLY:544:CA:4909, V-B:TYR:539:CB:9839, V-A:TRP:381:CD2:3360, V-A:TRP:381:CE3:3363"]

$$$$
4cd_Grossjean_2025
     RDKit          3D

 43 46  0  0  0  0  0  0  0  0999 V2000
  129.3760  126.6380   63.6610 N   0  0  0  0  0  0  0  0  0  0  0  0
  129.6710  126.1390   64.9050 C   0  0  0  0  0  0  0  0  0  0  0  0
  130.1660  124.8420   65.1150 C   0  0  0  0  0  0  0  0  0  0  0  0
  130.4390  123.7960   64.1250 C   0  0  0  0  0  0  0  0  0  0  0  0
  131.2400  122.8940   64.3690 O   0  0  0  0  0  0  0  0  0  0  0  0
  129.7500  123.9030   62.9620 N   0  0  0  0  0  0  0  0  0  0  0  0
  129.8170  123.1070   61.8040 C   0  0  0  0  0  0  0  0  0  0  0  0
  129.6350  123.7750   60.5900 C   0  0  0  0  0  0  0  0  0  0  0  0
  129.6970  123.0770   59.3880 C   0  0  0  0  0  0  0  0  0  0  0  0
  129.9470  121.7070   59.3980 C   0  0  0  0  0  0  0  0  0  0  0  0
  130.1430  121.0310   60.5990 C   0  0  0  0  0  0  0  0  0  0  0  0
  130.0820  121.7270   61.8040 C   0  0  0  0  0  0  0  0  0  0  0  0
  130.4440  124.5390   66.8290 S   0  0  0  0  0  0  0  0  0  0  0  0
  129.8900  126.1410   67.2490 C   0  0  0  0  0  0  0  0  0  0  0  0
  129.8550  126.5550   68.5140 N   0  0  0  0  0  0  0  0  0  0  0  0
  129.3960  127.8130   68.7440 C   0  0  0  0  0  0  0  0  0  0  0  0
  129.3650  128.2500   70.1790 C   0  0  0  0  0  0  0  0  0  0  0  0
  130.4910  128.8420   70.7740 C   0  0  0  0  0  0  0  0  0  0  0  0
  130.4690  129.2510   72.1050 C   0  0  0  0  0  0  0  0  0  0  0  0
  129.3160  129.0720   72.8630 C   0  0  0  0  0  0  0  0  0  0  0  0
  128.1860  128.4910   72.2970 C   0  0  0  0  0  0  0  0  0  0  0  0
  128.2120  128.0860   70.9660 C   0  0  0  0  0  0  0  0  0  0  0  0
  128.9940  128.6550   67.7030 C   0  0  0  0  0  0  0  0  0  0  0  0
  129.0310  128.2300   66.3640 C   0  0  0  0  0  0  0  0  0  0  0  0
  128.5720  129.2030   65.2720 C   0  0  0  0  0  0  0  0  0  0  0  0
  129.3520  129.1810   64.1890 F   0  0  0  0  0  0  0  0  0  0  0  0
  127.3360  128.8920   64.8810 F   0  0  0  0  0  0  0  0  0  0  0  0
  128.5830  130.4490   65.7460 F   0  0  0  0  0  0  0  0  0  0  0  0
  129.4990  126.9080   66.1130 C   0  0  0  0  0  0  0  0  0  0  0  0
  128.6300  126.2560   63.0970 H   0  0  0  0  0  0  0  0  0  0  0  0
  129.8950  127.4110   63.2670 H   0  0  0  0  0  0  0  0  0  0  0  0
  129.0760  124.6530   62.9130 H   0  0  0  0  0  0  0  0  0  0  0  0
  129.4418  124.8579   60.5847 H   0  0  0  0  0  0  0  0  0  0  0  0
  129.5492  123.6048   58.4343 H   0  0  0  0  0  0  0  0  0  0  0  0
  129.9900  121.1540   58.4481 H   0  0  0  0  0  0  0  0  0  0  0  0
  130.3456  119.9498   60.5964 H   0  0  0  0  0  0  0  0  0  0  0  0
  130.2411  121.1969   62.7546 H   0  0  0  0  0  0  0  0  0  0  0  0
  131.4051  128.9849   70.1791 H   0  0  0  0  0  0  0  0  0  0  0  0
  131.3596  129.7137   72.5553 H   0  0  0  0  0  0  0  0  0  0  0  0
  129.2980  129.3916   73.9154 H   0  0  0  0  0  0  0  0  0  0  0  0
  127.2758  128.3523   72.8989 H   0  0  0  0  0  0  0  0  0  0  0  0
  127.3149  127.6297   70.5221 H   0  0  0  0  0  0  0  0  0  0  0  0
  128.6417  129.6705   67.9366 H   0  0  0  0  0  0  0  0  0  0  0  0
  1  2  1  0
  2  3  2  0
  3  4  1  0
  4  5  2  0
  4  6  1  0
  6  7  1  0
  7  8  2  0
  8  9  1  0
  9 10  2  0
 10 11  1  0
 11 12  2  0
  3 13  1  0
 13 14  1  0
 14 15  2  0
 15 16  1  0
 16 17  1  0
 17 18  2  0
 18 19  1  0
 19 20  2  0
 20 21  1  0
 21 22  2  0
 16 23  2  0
 23 24  1  0
 24 25  1  0
 25 26  1  0
 25 27  1  0
 25 28  1  0
 24 29  2  0
 29  2  1  0
 12  7  1  0
 29 14  1  0
 22 17  1  0
  1 30  1  0
  1 31  1  0
  6 32  1  0
  8 33  1  0
  9 34  1  0
 10 35  1  0
 11 36  1  0
 12 37  1  0
 18 38  1  0
 19 39  1  0
 20 40  1  0
 21 41  1  0
 22 42  1  0
 23 43  1  0
M  END
>  <Binding energies>  (1) 
[-7.16]

>  <Ligand effiencies>  (1) 
[-0.22375]

>  <Interactions>  (1) 
["V-B:TYR:539:CD2:9842, V-B:TYR:539:CE2:9844, V-B:ALA:541:CB:9860, H-B:GLU:543:OE2:9878, V-B:GLU:543:CD:9876, V-A:GLU:543:CG:4902, H-A:GLU:543:OE2:4905, V-A:GLU:543:CD:4903, H-A:TYR:484:OH:4343, V-B:GLU:543:CG:9875, V-A:TYR:484:CE1:4340, V-A:GLU:543:CB:4901, V-B:TYR:484:CE1:9312, V-B:HIS:456:CE1:9037, V-B:TYR:484:CZ:9314, V-A:TYR:484:CZ:4342, V-A:HIS:456:CE1:4064, H-A:HIS:456:NE2:4065, V-B:GLU:543:CB:9874, V-A:LYS:547:CE:4945, V-B:HIS:456:CD2:9035, V-A:GLU:543:C:4897, V-A:GLY:544:C:4907, H-A:GLU:543:OE1:4904, V-A:GLY:544:CA:4909"]

$$$$
4ce_Grossjean_2025
     RDKit          3D

 45 48  0  0  0  0  0  0  0  0999 V2000
  130.1420  119.4560   60.9960 C   0  0  0  0  0  0  0  0  0  0  0  0
  130.0070  120.9540   60.7940 C   0  0  0  0  0  0  0  0  0  0  0  0
  129.9210  121.5130   59.5160 C   0  0  0  0  0  0  0  0  0  0  0  0
  129.7900  122.8980   59.4050 C   0  0  0  0  0  0  0  0  0  0  0  0
  129.7470  123.6810   60.5600 C   0  0  0  0  0  0  0  0  0  0  0  0
  129.8430  123.0570   61.8090 C   0  0  0  0  0  0  0  0  0  0  0  0
  129.7690  123.8960   62.9350 N   0  0  0  0  0  0  0  0  0  0  0  0
  130.4300  123.7940   64.1160 C   0  0  0  0  0  0  0  0  0  0  0  0
  131.2470  122.9060   64.3680 O   0  0  0  0  0  0  0  0  0  0  0  0
  130.1150  124.8260   65.1050 C   0  0  0  0  0  0  0  0  0  0  0  0
  130.3710  124.5170   66.8210 S   0  0  0  0  0  0  0  0  0  0  0  0
  129.8360  126.1280   67.2370 C   0  0  0  0  0  0  0  0  0  0  0  0
  129.8030  126.5430   68.5000 N   0  0  0  0  0  0  0  0  0  0  0  0
  129.3870  127.8180   68.7240 C   0  0  0  0  0  0  0  0  0  0  0  0
  129.3660  128.2570   70.1580 C   0  0  0  0  0  0  0  0  0  0  0  0
  130.5050  128.8250   70.7510 C   0  0  0  0  0  0  0  0  0  0  0  0
  130.4950  129.2290   72.0830 C   0  0  0  0  0  0  0  0  0  0  0  0
  129.3410  129.0700   72.8430 C   0  0  0  0  0  0  0  0  0  0  0  0
  128.2000  128.5090   72.2820 C   0  0  0  0  0  0  0  0  0  0  0  0
  128.2140  128.1050   70.9490 C   0  0  0  0  0  0  0  0  0  0  0  0
  128.9870  128.6600   67.6810 C   0  0  0  0  0  0  0  0  0  0  0  0
  129.0140  128.2290   66.3450 C   0  0  0  0  0  0  0  0  0  0  0  0
  128.5640  129.2030   65.2520 C   0  0  0  0  0  0  0  0  0  0  0  0
  129.3470  129.1770   64.1720 F   0  0  0  0  0  0  0  0  0  0  0  0
  127.3280  128.8970   64.8550 F   0  0  0  0  0  0  0  0  0  0  0  0
  128.5770  130.4490   65.7240 F   0  0  0  0  0  0  0  0  0  0  0  0
  129.4630  126.9000   66.0970 C   0  0  0  0  0  0  0  0  0  0  0  0
  129.6310  126.1280   64.8910 C   0  0  0  0  0  0  0  0  0  0  0  0
  129.3450  126.6250   63.6460 N   0  0  0  0  0  0  0  0  0  0  0  0
  129.9670  121.7020   61.9260 N   0  0  0  0  0  0  0  0  0  0  0  0
  130.1622  119.2316   62.0727 H   0  0  0  0  0  0  0  0  0  0  0  0
  129.2863  118.9447   60.5309 H   0  0  0  0  0  0  0  0  0  0  0  0
  131.0753  119.1059   60.5309 H   0  0  0  0  0  0  0  0  0  0  0  0
  129.9557  120.8768   58.6193 H   0  0  0  0  0  0  0  0  0  0  0  0
  129.7211  123.3697   58.4137 H   0  0  0  0  0  0  0  0  0  0  0  0
  129.6391  124.7734   60.4893 H   0  0  0  0  0  0  0  0  0  0  0  0
  129.1700  124.7000   62.8240 H   0  0  0  0  0  0  0  0  0  0  0  0
  131.4197  128.9527   70.1535 H   0  0  0  0  0  0  0  0  0  0  0  0
  131.3958  129.6721   72.5326 H   0  0  0  0  0  0  0  0  0  0  0  0
  129.3314  129.3905   73.8952 H   0  0  0  0  0  0  0  0  0  0  0  0
  127.2902  128.3846   72.8877 H   0  0  0  0  0  0  0  0  0  0  0  0
  127.3095  127.6601   70.5085 H   0  0  0  0  0  0  0  0  0  0  0  0
  128.6447  129.6795   67.9120 H   0  0  0  0  0  0  0  0  0  0  0  0
  129.8660  127.3920   63.2430 H   0  0  0  0  0  0  0  0  0  0  0  0
  128.5960  126.2410   63.0860 H   0  0  0  0  0  0  0  0  0  0  0  0
  1  2  1  0
  2  3  2  0
  3  4  1  0
  4  5  2  0
  5  6  1  0
  6  7  1  0
  7  8  1  0
  8  9  2  0
  8 10  1  0
 10 11  1  0
 11 12  1  0
 12 13  2  0
 13 14  1  0
 14 15  1  0
 15 16  2  0
 16 17  1  0
 17 18  2  0
 18 19  1  0
 19 20  2  0
 14 21  2  0
 21 22  1  0
 22 23  1  0
 23 24  1  0
 23 25  1  0
 23 26  1  0
 22 27  2  0
 27 28  1  0
 28 29  1  0
  6 30  2  0
 30  2  1  0
 28 10  2  0
 27 12  1  0
 20 15  1  0
  1 31  1  0
  1 32  1  0
  1 33  1  0
  3 34  1  0
  4 35  1  0
  5 36  1  0
  7 37  1  0
 16 38  1  0
 17 39  1  0
 18 40  1  0
 19 41  1  0
 20 42  1  0
 21 43  1  0
 29 44  1  0
 29 45  1  0
M  END
>  <Binding energies>  (1) 
[-7.54]

>  <Ligand effiencies>  (1) 
[-0.22848484848484849]

>  <Interactions>  (1) 
["V-B:TYR:539:C:9835, V-B:TYR:539:CD2:9842, V-A:LEU:475:CD2:4254, V-B:TYR:539:CE2:9844, V-B:ALA:541:CB:9860, H-B:GLU:543:OE2:9878, V-B:GLU:543:CD:9876, V-A:GLU:543:CG:4902, H-A:GLU:543:OE2:4905, V-A:GLU:543:CD:4903, H-A:TYR:484:OH:4343, V-B:GLU:543:CG:9875, V-A:TYR:484:CE1:4340, V-A:GLU:543:CB:4901, V-B:TYR:484:CE1:9312, V-B:HIS:456:CE1:9037, V-B:TYR:484:CZ:9314, V-A:TYR:484:CZ:4342, V-A:HIS:456:CE1:4064, H-A:HIS:456:NE2:4065, V-B:GLU:543:CB:9874, V-A:LYS:547:CE:4945, V-B:HIS:456:CD2:9035, V-A:GLU:543:C:4897, V-A:GLY:544:C:4907, H-A:GLU:543:OE1:4904, V-A:GLY:544:CA:4909"]

$$$$
4cf_Grossjean_2025
     RDKit          3D

 42 45  0  0  0  0  0  0  0  0999 V2000
  129.3590  126.6190   63.6610 N   0  0  0  0  0  0  0  0  0  0  0  0
  129.6720  126.1260   64.9020 C   0  0  0  0  0  0  0  0  0  0  0  0
  130.1800  124.8340   65.1100 C   0  0  0  0  0  0  0  0  0  0  0  0
  130.4350  123.7820   64.1220 C   0  0  0  0  0  0  0  0  0  0  0  0
  131.2330  122.8750   64.3650 O   0  0  0  0  0  0  0  0  0  0  0  0
  129.7330  123.8860   62.9680 N   0  0  0  0  0  0  0  0  0  0  0  0
  129.7790  123.0830   61.8130 C   0  0  0  0  0  0  0  0  0  0  0  0
  130.1070  121.7140   61.7830 C   0  0  0  0  0  0  0  0  0  0  0  0
  130.1300  121.0360   60.5620 C   0  0  0  0  0  0  0  0  0  0  0  0
  129.8270  121.7440   59.3980 C   0  0  0  0  0  0  0  0  0  0  0  0
  129.5150  123.0650   59.3990 N   0  0  0  0  0  0  0  0  0  0  0  0
  129.4980  123.7100   60.5940 C   0  0  0  0  0  0  0  0  0  0  0  0
  130.4750  124.5350   66.8220 S   0  0  0  0  0  0  0  0  0  0  0  0
  129.9100  126.1350   67.2440 C   0  0  0  0  0  0  0  0  0  0  0  0
  129.8780  126.5480   68.5100 N   0  0  0  0  0  0  0  0  0  0  0  0
  129.4070  127.8020   68.7400 C   0  0  0  0  0  0  0  0  0  0  0  0
  129.3760  128.2380   70.1760 C   0  0  0  0  0  0  0  0  0  0  0  0
  128.2090  128.0990   70.9430 C   0  0  0  0  0  0  0  0  0  0  0  0
  128.1710  128.5000   72.2760 C   0  0  0  0  0  0  0  0  0  0  0  0
  129.3070  129.0470   72.8630 C   0  0  0  0  0  0  0  0  0  0  0  0
  130.4780  129.1940   72.1280 C   0  0  0  0  0  0  0  0  0  0  0  0
  130.5110  128.7910   70.7960 C   0  0  0  0  0  0  0  0  0  0  0  0
  128.9960  128.6410   67.7000 C   0  0  0  0  0  0  0  0  0  0  0  0
  129.0300  128.2160   66.3630 C   0  0  0  0  0  0  0  0  0  0  0  0
  128.5590  129.1850   65.2730 C   0  0  0  0  0  0  0  0  0  0  0  0
  129.3430  129.1790   64.1920 F   0  0  0  0  0  0  0  0  0  0  0  0
  127.3310  128.8540   64.8760 F   0  0  0  0  0  0  0  0  0  0  0  0
  128.5470  130.4300   65.7490 F   0  0  0  0  0  0  0  0  0  0  0  0
  129.5050  126.8960   66.1100 C   0  0  0  0  0  0  0  0  0  0  0  0
  129.8780  127.3770   63.2400 H   0  0  0  0  0  0  0  0  0  0  0  0
  128.5930  126.2380   63.1210 H   0  0  0  0  0  0  0  0  0  0  0  0
  129.0720  124.6480   62.9180 H   0  0  0  0  0  0  0  0  0  0  0  0
  130.3438  121.1814   62.7159 H   0  0  0  0  0  0  0  0  0  0  0  0
  130.3817  119.9661   60.5187 H   0  0  0  0  0  0  0  0  0  0  0  0
  129.8417  121.2079   58.4376 H   0  0  0  0  0  0  0  0  0  0  0  0
  129.2503  124.7817   60.6042 H   0  0  0  0  0  0  0  0  0  0  0  0
  127.3085  127.6657   70.4832 H   0  0  0  0  0  0  0  0  0  0  0  0
  127.2471  128.3847   72.8618 H   0  0  0  0  0  0  0  0  0  0  0  0
  129.2788  129.3654   73.9155 H   0  0  0  0  0  0  0  0  0  0  0  0
  131.3741  129.6267   72.5968 H   0  0  0  0  0  0  0  0  0  0  0  0
  131.4401  128.9069   70.2187 H   0  0  0  0  0  0  0  0  0  0  0  0
  128.6388  129.6546   67.9344 H   0  0  0  0  0  0  0  0  0  0  0  0
  1  2  1  0
  2  3  2  0
  3  4  1  0
  4  5  2  0
  4  6  1  0
  6  7  1  0
  7  8  2  0
  8  9  1  0
  9 10  2  0
 10 11  1  0
 11 12  2  0
  3 13  1  0
 13 14  1  0
 14 15  2  0
 15 16  1  0
 16 17  1  0
 17 18  2  0
 18 19  1  0
 19 20  2  0
 20 21  1  0
 21 22  2  0
 16 23  2  0
 23 24  1  0
 24 25  1  0
 25 26  1  0
 25 27  1  0
 25 28  1  0
 24 29  2  0
 29  2  1  0
 12  7  1  0
 29 14  1  0
 22 17  1  0
  1 30  1  0
  1 31  1  0
  6 32  1  0
  8 33  1  0
  9 34  1  0
 10 35  1  0
 12 36  1  0
 18 37  1  0
 19 38  1  0
 20 39  1  0
 21 40  1  0
 22 41  1  0
 23 42  1  0
M  END
>  <Binding energies>  (1) 
[-6.93]

>  <Ligand effiencies>  (1) 
[-0.2165625]

>  <Interactions>  (1) 
["V-B:TYR:539:C:9835, V-B:TYR:539:CD2:9842, V-B:TYR:539:CE2:9844, V-B:ALA:541:CB:9860, H-B:GLU:543:OE2:9878, V-B:GLU:543:CD:9876, V-A:GLU:543:CG:4902, H-A:GLU:543:OE2:4905, V-A:GLU:543:CD:4903, H-A:TYR:484:OH:4343, V-B:GLU:543:CG:9875, V-A:TYR:484:CE1:4340, V-A:GLU:543:CB:4901, V-B:TYR:484:CE1:9312, V-B:HIS:456:CE1:9037, V-B:TYR:484:CZ:9314, V-A:TYR:484:CZ:4342, V-A:HIS:456:CE1:4064, H-A:HIS:456:NE2:4065, V-B:GLU:543:CB:9874, V-A:LYS:547:CE:4945, V-B:HIS:456:CD2:9035, V-A:GLU:543:C:4897, V-A:GLY:544:C:4907, H-A:GLU:543:OE1:4904, V-A:GLY:544:CA:4909"]

$$$$
4cg_Grossjean_2025
     RDKit          3D

 46 49  0  0  0  0  0  0  0  0999 V2000
  129.3740  126.5310   63.6030 N   0  0  0  0  0  0  0  0  0  0  0  0
  129.6410  126.0410   64.8560 C   0  0  0  0  0  0  0  0  0  0  0  0
  130.0880  124.7330   65.0890 C   0  0  0  0  0  0  0  0  0  0  0  0
  130.3970  123.6870   64.1150 C   0  0  0  0  0  0  0  0  0  0  0  0
  131.2490  122.8260   64.3450 O   0  0  0  0  0  0  0  0  0  0  0  0
  129.7250  123.7500   62.9460 N   0  0  0  0  0  0  0  0  0  0  0  0
  129.8560  122.8010   61.8410 C   0  0  0  0  0  0  0  0  0  0  0  0
  128.8060  122.9900   60.7520 C   0  0  0  0  0  0  0  0  0  0  0  0
  129.1320  122.7190   59.4200 C   0  0  0  0  0  0  0  0  0  0  0  0
  128.1660  122.8600   58.4260 C   0  0  0  0  0  0  0  0  0  0  0  0
  126.8770  123.2620   58.7690 C   0  0  0  0  0  0  0  0  0  0  0  0
  126.5430  123.5170   60.0970 C   0  0  0  0  0  0  0  0  0  0  0  0
  127.5070  123.3750   61.0910 C   0  0  0  0  0  0  0  0  0  0  0  0
  130.3510  124.4400   66.8070 S   0  0  0  0  0  0  0  0  0  0  0  0
  129.8390  126.0640   67.2030 C   0  0  0  0  0  0  0  0  0  0  0  0
  129.8100  126.4950   68.4610 N   0  0  0  0  0  0  0  0  0  0  0  0
  129.4030  127.7740   68.6720 C   0  0  0  0  0  0  0  0  0  0  0  0
  129.3800  128.2300   70.1030 C   0  0  0  0  0  0  0  0  0  0  0  0
  130.5060  128.8370   70.6850 C   0  0  0  0  0  0  0  0  0  0  0  0
  130.4900  129.2600   72.0100 C   0  0  0  0  0  0  0  0  0  0  0  0
  129.3450  129.0800   72.7790 C   0  0  0  0  0  0  0  0  0  0  0  0
  128.2170  128.4790   72.2300 C   0  0  0  0  0  0  0  0  0  0  0  0
  128.2370  128.0570   70.9040 C   0  0  0  0  0  0  0  0  0  0  0  0
  129.0080  128.6070   67.6190 C   0  0  0  0  0  0  0  0  0  0  0  0
  129.0330  128.1620   66.2880 C   0  0  0  0  0  0  0  0  0  0  0  0
  128.5870  129.1260   65.1820 C   0  0  0  0  0  0  0  0  0  0  0  0
  129.3640  129.0750   64.0980 F   0  0  0  0  0  0  0  0  0  0  0  0
  127.3450  128.8270   64.7990 F   0  0  0  0  0  0  0  0  0  0  0  0
  128.6180  130.3780   65.6360 F   0  0  0  0  0  0  0  0  0  0  0  0
  129.4740  126.8270   66.0540 C   0  0  0  0  0  0  0  0  0  0  0  0
  128.6090  126.1810   63.0430 H   0  0  0  0  0  0  0  0  0  0  0  0
  129.9330  127.2690   63.1980 H   0  0  0  0  0  0  0  0  0  0  0  0
  128.9910  124.4360   62.8560 H   0  0  0  0  0  0  0  0  0  0  0  0
  130.8517  122.9258   61.3905 H   0  0  0  0  0  0  0  0  0  0  0  0
  129.7118  121.7940   62.2594 H   0  0  0  0  0  0  0  0  0  0  0  0
  130.1497  122.3949   59.1570 H   0  0  0  0  0  0  0  0  0  0  0  0
  128.4199  122.6549   57.3755 H   0  0  0  0  0  0  0  0  0  0  0  0
  126.1158  123.3791   57.9836 H   0  0  0  0  0  0  0  0  0  0  0  0
  125.5214  123.8294   60.3592 H   0  0  0  0  0  0  0  0  0  0  0  0
  127.2460  123.5658   62.1424 H   0  0  0  0  0  0  0  0  0  0  0  0
  131.4152  128.9800   70.0826 H   0  0  0  0  0  0  0  0  0  0  0  0
  131.3799  129.7353   72.4483 H   0  0  0  0  0  0  0  0  0  0  0  0
  129.3314  129.4147   73.8268 H   0  0  0  0  0  0  0  0  0  0  0  0
  127.3133  128.3379   72.8411 H   0  0  0  0  0  0  0  0  0  0  0  0
  127.3435  127.5799   70.4750 H   0  0  0  0  0  0  0  0  0  0  0  0
  128.6712  129.6309   67.8388 H   0  0  0  0  0  0  0  0  0  0  0  0
  1  2  1  0
  2  3  2  0
  3  4  1  0
  4  5  2  0
  4  6  1  0
  6  7  1  0
  7  8  1  0
  8  9  2  0
  9 10  1  0
 10 11  2  0
 11 12  1  0
 12 13  2  0
  3 14  1  0
 14 15  1  0
 15 16  2  0
 16 17  1  0
 17 18  1  0
 18 19  2  0
 19 20  1  0
 20 21  2  0
 21 22  1  0
 22 23  2  0
 17 24  2  0
 24 25  1  0
 25 26  1  0
 26 27  1  0
 26 28  1  0
 26 29  1  0
 25 30  2  0
 30  2  1  0
 13  8  1  0
 30 15  1  0
 23 18  1  0
  1 31  1  0
  1 32  1  0
  6 33  1  0
  7 34  1  0
  7 35  1  0
  9 36  1  0
 10 37  1  0
 11 38  1  0
 12 39  1  0
 13 40  1  0
 19 41  1  0
 20 42  1  0
 21 43  1  0
 22 44  1  0
 23 45  1  0
 24 46  1  0
M  END
>  <Binding energies>  (1) 
[-7.38]

>  <Ligand effiencies>  (1) 
[-0.22363636363636363]

>  <Interactions>  (1) 
["V-B:TYR:539:C:9835, V-B:PRO:540:N:9852, V-B:PRO:540:CA:9851, V-B:PRO:540:CB:9853, H-B:GLU:543:OE2:9878, V-B:GLU:543:CD:9876, V-A:GLU:543:CG:4902, H-A:GLU:543:OE2:4905, V-A:GLU:543:CD:4903, H-A:TYR:484:OH:4343, V-B:GLU:543:CG:9875, V-A:TYR:484:CE1:4340, V-A:GLU:543:CB:4901, V-B:HIS:456:CE1:9037, V-A:TYR:484:CZ:4342, V-A:HIS:456:CE1:4064, H-A:HIS:456:NE2:4065, V-B:GLU:543:CB:9874, V-A:LYS:547:CE:4945, V-B:HIS:456:CD2:9035, V-A:GLU:543:C:4897, V-A:GLY:544:C:4907, H-A:GLU:543:OE1:4904, V-A:GLY:544:CA:4909"]

$$$$
4ch_Grossjean_2025
     RDKit          3D

 58 61  0  0  0  0  0  0  0  0999 V2000
  127.8400  122.1120   56.1990 C   0  0  0  0  0  0  0  0  0  0  0  0
  128.4280  123.1360   56.9950 O   0  0  0  0  0  0  0  0  0  0  0  0
  128.1610  123.1780   58.3510 C   0  0  0  0  0  0  0  0  0  0  0  0
  129.1430  123.0550   59.3480 C   0  0  0  0  0  0  0  0  0  0  0  0
  128.8000  123.1090   60.7000 C   0  0  0  0  0  0  0  0  0  0  0  0
  129.8750  122.9460   61.7680 C   0  0  0  0  0  0  0  0  0  0  0  0
  129.7470  123.8700   62.8950 N   0  0  0  0  0  0  0  0  0  0  0  0
  130.4100  123.7740   64.0670 C   0  0  0  0  0  0  0  0  0  0  0  0
  131.2330  122.8840   64.2920 O   0  0  0  0  0  0  0  0  0  0  0  0
  130.1240  124.8170   65.0520 C   0  0  0  0  0  0  0  0  0  0  0  0
  130.4120  124.5170   66.7630 S   0  0  0  0  0  0  0  0  0  0  0  0
  129.8860  126.1300   67.1790 C   0  0  0  0  0  0  0  0  0  0  0  0
  129.8640  126.5500   68.4410 N   0  0  0  0  0  0  0  0  0  0  0  0
  129.4440  127.8230   68.6670 C   0  0  0  0  0  0  0  0  0  0  0  0
  129.4250  128.2630   70.1030 C   0  0  0  0  0  0  0  0  0  0  0  0
  130.5640  128.8320   70.6960 C   0  0  0  0  0  0  0  0  0  0  0  0
  130.5540  129.2420   72.0270 C   0  0  0  0  0  0  0  0  0  0  0  0
  129.4000  129.0870   72.7870 C   0  0  0  0  0  0  0  0  0  0  0  0
  128.2590  128.5230   72.2260 C   0  0  0  0  0  0  0  0  0  0  0  0
  128.2750  128.1130   70.8960 C   0  0  0  0  0  0  0  0  0  0  0  0
  129.0330  128.6600   67.6260 C   0  0  0  0  0  0  0  0  0  0  0  0
  129.0510  128.2280   66.2900 C   0  0  0  0  0  0  0  0  0  0  0  0
  128.5870  129.1980   65.1980 C   0  0  0  0  0  0  0  0  0  0  0  0
  129.3600  129.1700   64.1090 F   0  0  0  0  0  0  0  0  0  0  0  0
  127.3490  128.8880   64.8150 F   0  0  0  0  0  0  0  0  0  0  0  0
  128.6030  130.4460   65.6660 F   0  0  0  0  0  0  0  0  0  0  0  0
  129.5010  126.9000   66.0410 C   0  0  0  0  0  0  0  0  0  0  0  0
  129.6600  126.1240   64.8350 C   0  0  0  0  0  0  0  0  0  0  0  0
  129.3710  126.6200   63.5890 N   0  0  0  0  0  0  0  0  0  0  0  0
  127.4630  123.2700   61.0650 C   0  0  0  0  0  0  0  0  0  0  0  0
  126.4610  123.3940   60.0900 C   0  0  0  0  0  0  0  0  0  0  0  0
  125.1180  123.5570   60.3800 O   0  0  0  0  0  0  0  0  0  0  0  0
  124.6960  123.5990   61.7390 C   0  0  0  0  0  0  0  0  0  0  0  0
  126.8240  123.3530   58.7360 C   0  0  0  0  0  0  0  0  0  0  0  0
  125.8520  123.4580   57.7710 O   0  0  0  0  0  0  0  0  0  0  0  0
  125.2280  124.7340   57.7140 C   0  0  0  0  0  0  0  0  0  0  0  0
  127.3999  121.3456   56.8540 H   0  0  0  0  0  0  0  0  0  0  0  0
  127.0541  122.5469   55.5641 H   0  0  0  0  0  0  0  0  0  0  0  0
  128.6118  121.6525   55.5641 H   0  0  0  0  0  0  0  0  0  0  0  0
  130.1952  122.9144   59.0597 H   0  0  0  0  0  0  0  0  0  0  0  0
  129.8217  121.9184   62.1569 H   0  0  0  0  0  0  0  0  0  0  0  0
  130.8372  123.1697   61.2841 H   0  0  0  0  0  0  0  0  0  0  0  0
  129.0490  124.5930   62.7990 H   0  0  0  0  0  0  0  0  0  0  0  0
  131.4796  128.9559   70.0990 H   0  0  0  0  0  0  0  0  0  0  0  0
  131.4550  129.6864   72.4750 H   0  0  0  0  0  0  0  0  0  0  0  0
  129.3893  129.4122   73.8378 H   0  0  0  0  0  0  0  0  0  0  0  0
  127.3482  128.4016   72.8307 H   0  0  0  0  0  0  0  0  0  0  0  0
  127.3715  127.6637   70.4581 H   0  0  0  0  0  0  0  0  0  0  0  0
  128.6882  129.6785   67.8580 H   0  0  0  0  0  0  0  0  0  0  0  0
  128.6480  126.2190   63.0080 H   0  0  0  0  0  0  0  0  0  0  0  0
  129.8730  127.4100   63.2090 H   0  0  0  0  0  0  0  0  0  0  0  0
  127.1908  123.3001   62.1304 H   0  0  0  0  0  0  0  0  0  0  0  0
  125.5725  123.5118   62.3980 H   0  0  0  0  0  0  0  0  0  0  0  0
  124.1837  124.5526   61.9346 H   0  0  0  0  0  0  0  0  0  0  0  0
  124.0058  122.7651   61.9346 H   0  0  0  0  0  0  0  0  0  0  0  0
  125.0488  125.1005   58.7356 H   0  0  0  0  0  0  0  0  0  0  0  0
  125.8830  125.4390   57.1812 H   0  0  0  0  0  0  0  0  0  0  0  0
  124.2693  124.6499   57.1812 H   0  0  0  0  0  0  0  0  0  0  0  0
  1  2  1  0
  2  3  1  0
  3  4  2  0
  4  5  1  0
  5  6  1  0
  6  7  1  0
  7  8  1  0
  8  9  2  0
  8 10  1  0
 10 11  1  0
 11 12  1  0
 12 13  2  0
 13 14  1  0
 14 15  1  0
 15 16  2  0
 16 17  1  0
 17 18  2  0
 18 19  1  0
 19 20  2  0
 14 21  2  0
 21 22  1  0
 22 23  1  0
 23 24  1  0
 23 25  1  0
 23 26  1  0
 22 27  2  0
 27 28  1  0
 28 29  1  0
  5 30  2  0
 30 31  1  0
 31 32  1  0
 32 33  1  0
 31 34  2  0
 34 35  1  0
 35 36  1  0
 34  3  1  0
 28 10  2  0
 27 12  1  0
 20 15  1  0
  1 37  1  0
  1 38  1  0
  1 39  1  0
  4 40  1  0
  6 41  1  0
  6 42  1  0
  7 43  1  0
 16 44  1  0
 17 45  1  0
 18 46  1  0
 19 47  1  0
 20 48  1  0
 21 49  1  0
 29 50  1  0
 29 51  1  0
 30 52  1  0
 33 53  1  0
 33 54  1  0
 33 55  1  0
 36 56  1  0
 36 57  1  0
 36 58  1  0
M  END
>  <Binding energies>  (1) 
[-7.63]

>  <Ligand effiencies>  (1) 
[-0.19564102564102565]

>  <Interactions>  (1) 
["V-B:TYR:539:C:9835, V-B:TYR:539:CD2:9842, V-B:PRO:540:C:9849, V-B:TYR:539:CE2:9844, V-B:PRO:540:N:9852, V-B:PRO:540:CA:9851, V-B:MET:535:CE:9803, V-B:PRO:540:CB:9853, H-B:GLU:543:OE2:9878, V-B:GLU:543:CD:9876, V-A:GLU:543:CG:4902, H-A:GLU:543:OE2:4905, V-A:GLU:543:CD:4903, H-A:TYR:484:OH:4343, V-B:GLU:543:CG:9875, V-A:TYR:484:CE1:4340, V-B:TYR:539:CA:9837, V-B:TYR:539:CZ:9845, V-A:GLU:543:CB:4901, V-B:TYR:484:CE1:9312, V-B:HIS:456:CE1:9037, V-B:TYR:484:CZ:9314, V-A:TYR:484:CZ:4342, V-A:HIS:456:CE1:4064, H-A:HIS:456:NE2:4065, V-B:GLU:543:CB:9874, V-B:TYR:539:CE1:9843, V-A:LYS:547:CE:4945, V-B:HIS:456:CD2:9035, V-A:GLU:543:C:4897, V-A:GLY:544:C:4907, H-A:GLU:543:OE1:4904, V-B:ASN:362:CB:8143, V-B:TYR:539:CD1:9841, V-B:TYR:539:CG:9840, V-A:GLY:544:CA:4909"]

$$$$
4ci_Grossjean_2025
     RDKit          3D

 39 42  0  0  0  0  0  0  0  0999 V2000
  123.9270  130.3290   59.9000 N   0  0  0  0  0  0  0  0  0  0  0  0
  125.0690  131.0650   60.0820 C   0  0  0  0  0  0  0  0  0  0  0  0
  125.3680  131.7400   61.2770 C   0  0  0  0  0  0  0  0  0  0  0  0
  124.5870  131.7930   62.5150 C   0  0  0  0  0  0  0  0  0  0  0  0
  124.0260  132.8350   62.8610 O   0  0  0  0  0  0  0  0  0  0  0  0
  124.5460  130.6400   63.2300 N   0  0  0  0  0  0  0  0  0  0  0  0
  123.8890  130.4130   64.4320 C   0  0  0  0  0  0  0  0  0  0  0  0
  124.4890  130.6000   65.6770 C   0  0  0  0  0  0  0  0  0  0  0  0
  123.5190  130.2710   66.5950 C   0  0  0  0  0  0  0  0  0  0  0  0
  122.3920  129.9060   65.9380 O   0  0  0  0  0  0  0  0  0  0  0  0
  122.6400  130.0000   64.5670 N   0  0  0  0  0  0  0  0  0  0  0  0
  126.9150  132.5750   61.1660 S   0  0  0  0  0  0  0  0  0  0  0  0
  127.1460  132.0250   59.5230 C   0  0  0  0  0  0  0  0  0  0  0  0
  128.2310  132.3540   58.8260 N   0  0  0  0  0  0  0  0  0  0  0  0
  128.3250  131.8770   57.5570 C   0  0  0  0  0  0  0  0  0  0  0  0
  129.5570  132.2690   56.7940 C   0  0  0  0  0  0  0  0  0  0  0  0
  130.8190  132.2650   57.4120 C   0  0  0  0  0  0  0  0  0  0  0  0
  131.9660  132.6260   56.7100 C   0  0  0  0  0  0  0  0  0  0  0  0
  131.8660  133.0010   55.3740 C   0  0  0  0  0  0  0  0  0  0  0  0
  130.6300  133.0190   54.7380 C   0  0  0  0  0  0  0  0  0  0  0  0
  129.4860  132.6570   55.4450 C   0  0  0  0  0  0  0  0  0  0  0  0
  127.3190  131.0860   56.9910 C   0  0  0  0  0  0  0  0  0  0  0  0
  126.1700  130.7330   57.7180 C   0  0  0  0  0  0  0  0  0  0  0  0
  125.1090  129.8630   57.0350 C   0  0  0  0  0  0  0  0  0  0  0  0
  124.9790  128.6580   57.5930 F   0  0  0  0  0  0  0  0  0  0  0  0
  123.9220  130.4650   57.1060 F   0  0  0  0  0  0  0  0  0  0  0  0
  125.4320  129.6780   55.7550 F   0  0  0  0  0  0  0  0  0  0  0  0
  126.0700  131.2180   59.0530 C   0  0  0  0  0  0  0  0  0  0  0  0
  123.5790  130.0990   58.9800 H   0  0  0  0  0  0  0  0  0  0  0  0
  123.3940  129.9830   60.6870 H   0  0  0  0  0  0  0  0  0  0  0  0
  125.0510  129.8500   62.8570 H   0  0  0  0  0  0  0  0  0  0  0  0
  125.5159  130.9376   65.8808 H   0  0  0  0  0  0  0  0  0  0  0  0
  123.6392  130.2997   67.6880 H   0  0  0  0  0  0  0  0  0  0  0  0
  130.9022  131.9715   58.4689 H   0  0  0  0  0  0  0  0  0  0  0  0
  132.9462  132.6148   57.2092 H   0  0  0  0  0  0  0  0  0  0  0  0
  132.7711  133.2852   54.8172 H   0  0  0  0  0  0  0  0  0  0  0  0
  130.5559  133.3176   53.6819 H   0  0  0  0  0  0  0  0  0  0  0  0
  128.5096  132.6751   54.9387 H   0  0  0  0  0  0  0  0  0  0  0  0
  127.4302  130.7332   55.9551 H   0  0  0  0  0  0  0  0  0  0  0  0
  1  2  1  0
  2  3  2  0
  3  4  1  0
  4  5  2  0
  4  6  1  0
  6  7  1  0
  7  8  1  0
  8  9  2  0
  9 10  1  0
 10 11  1  0
  3 12  1  0
 12 13  1  0
 13 14  2  0
 14 15  1  0
 15 16  1  0
 16 17  2  0
 17 18  1  0
 18 19  2  0
 19 20  1  0
 20 21  2  0
 15 22  2  0
 22 23  1  0
 23 24  1  0
 24 25  1  0
 24 26  1  0
 24 27  1  0
 23 28  2  0
 28  2  1  0
 11  7  2  0
 28 13  1  0
 21 16  1  0
  1 29  1  0
  1 30  1  0
  6 31  1  0
  8 32  1  0
  9 33  1  0
 17 34  1  0
 18 35  1  0
 19 36  1  0
 20 37  1  0
 21 38  1  0
 22 39  1  0
M  END
>  <Binding energies>  (1) 
[-7.24]

>  <Ligand effiencies>  (1) 
[-0.2335483870967742]

>  <Interactions>  (1) 
["H-B:ASP:366:OD1:8181, V-A:PRO:540:N:4879, V-A:TYR:539:CE2:4871, V-A:PRO:540:CG:4881, V-A:PRO:540:CA:4878, V-A:TYR:539:CE1:4870, V-A:TYR:539:CZ:4872, V-A:PRO:540:CB:4880, V-A:LEU:363:CD1:3184, V-A:PRO:540:CD:4882, H-B:ARG:545:NH1:9895, H-B:GLY:454:N:9017, V-B:ASP:366:CG:8180, V-B:TYR:531:CZ:9762, V-B:ASP:366:CB:8179, V-A:TYR:539:CD1:4868, V-A:ILE:538:CG2:4858, V-B:TYR:531:CE1:9760, V-B:ARG:545:CZ:9894, V-A:ILE:538:CA:4855, V-B:ASP:366:C:8175, V-B:ASP:366:CA:8177, V-A:ILE:538:C:4853, V-A:ILE:538:CB:4857, V-B:HIS:456:CE1:9037, V-B:TYR:484:CZ:9314, V-B:ARG:545:CG:9890, V-B:ARG:545:CD:9891, H-B:ARG:545:NE:9892, H-B:ASP:366:O:8176, V-A:ILE:538:CD1:4860"]

$$$$
4cj_Grossjean_2025
     RDKit          3D

 39 42  0  0  0  0  0  0  0  0999 V2000
  129.3690  126.5480   63.5930 N   0  0  0  0  0  0  0  0  0  0  0  0
  129.6300  126.0500   64.8440 C   0  0  0  0  0  0  0  0  0  0  0  0
  130.0930  124.7440   65.0710 C   0  0  0  0  0  0  0  0  0  0  0  0
  130.3890  123.6960   64.0910 C   0  0  0  0  0  0  0  0  0  0  0  0
  131.2800  122.8700   64.3000 O   0  0  0  0  0  0  0  0  0  0  0  0
  129.6310  123.7200   62.9670 N   0  0  0  0  0  0  0  0  0  0  0  0
  129.7080  122.8450   61.8910 C   0  0  0  0  0  0  0  0  0  0  0  0
  129.3270  123.0580   60.6490 N   0  0  0  0  0  0  0  0  0  0  0  0
  129.5520  122.0070   59.8870 C   0  0  0  0  0  0  0  0  0  0  0  0
  130.1300  120.9050   60.5120 C   0  0  0  0  0  0  0  0  0  0  0  0
  130.3900  121.2790   62.1900 S   0  0  0  0  0  0  0  0  0  0  0  0
  130.3340  124.4430   66.7910 S   0  0  0  0  0  0  0  0  0  0  0  0
  129.8120  126.0630   67.1920 C   0  0  0  0  0  0  0  0  0  0  0  0
  129.7730  126.4870   68.4520 N   0  0  0  0  0  0  0  0  0  0  0  0
  129.3620  127.7630   68.6670 C   0  0  0  0  0  0  0  0  0  0  0  0
  129.3430  128.2150   70.0990 C   0  0  0  0  0  0  0  0  0  0  0  0
  128.1990  128.0360   70.8930 C   0  0  0  0  0  0  0  0  0  0  0  0
  128.1720  128.4570   72.2200 C   0  0  0  0  0  0  0  0  0  0  0  0
  129.2930  129.0680   72.7730 C   0  0  0  0  0  0  0  0  0  0  0  0
  130.4380  129.2600   72.0080 C   0  0  0  0  0  0  0  0  0  0  0  0
  130.4600  128.8360   70.6820 C   0  0  0  0  0  0  0  0  0  0  0  0
  128.9680  128.5980   67.6160 C   0  0  0  0  0  0  0  0  0  0  0  0
  129.0020  128.1600   66.2830 C   0  0  0  0  0  0  0  0  0  0  0  0
  128.5600  129.1290   65.1800 C   0  0  0  0  0  0  0  0  0  0  0  0
  129.3490  129.0950   64.1040 F   0  0  0  0  0  0  0  0  0  0  0  0
  127.3260  128.8210   64.7800 F   0  0  0  0  0  0  0  0  0  0  0  0
  128.5720  130.3780   65.6440 F   0  0  0  0  0  0  0  0  0  0  0  0
  129.4510  126.8290   66.0450 C   0  0  0  0  0  0  0  0  0  0  0  0
  129.8910  127.3230   63.2060 H   0  0  0  0  0  0  0  0  0  0  0  0
  128.6460  126.1500   63.0100 H   0  0  0  0  0  0  0  0  0  0  0  0
  128.9390  124.4510   62.8890 H   0  0  0  0  0  0  0  0  0  0  0  0
  129.2975  122.0004   58.8169 H   0  0  0  0  0  0  0  0  0  0  0  0
  130.3814  119.9521   60.0233 H   0  0  0  0  0  0  0  0  0  0  0  0
  127.3095  127.5553   70.4597 H   0  0  0  0  0  0  0  0  0  0  0  0
  127.2681  128.3071   72.8286 H   0  0  0  0  0  0  0  0  0  0  0  0
  129.2733  129.4010   73.8212 H   0  0  0  0  0  0  0  0  0  0  0  0
  131.3221  129.7445   72.4482 H   0  0  0  0  0  0  0  0  0  0  0  0
  131.3679  128.9900   70.0804 H   0  0  0  0  0  0  0  0  0  0  0  0
  128.6245  129.6189   67.8389 H   0  0  0  0  0  0  0  0  0  0  0  0
  1  2  1  0
  2  3  2  0
  3  4  1  0
  4  5  2  0
  4  6  1  0
  6  7  1  0
  7  8  2  0
  8  9  1  0
  9 10  2  0
 10 11  1  0
  3 12  1  0
 12 13  1  0
 13 14  2  0
 14 15  1  0
 15 16  1  0
 16 17  2  0
 17 18  1  0
 18 19  2  0
 19 20  1  0
 20 21  2  0
 15 22  2  0
 22 23  1  0
 23 24  1  0
 24 25  1  0
 24 26  1  0
 24 27  1  0
 23 28  2  0
 28  2  1  0
 11  7  1  0
 28 13  1  0
 21 16  1  0
  1 29  1  0
  1 30  1  0
  6 31  1  0
  9 32  1  0
 10 33  1  0
 17 34  1  0
 18 35  1  0
 19 36  1  0
 20 37  1  0
 21 38  1  0
 22 39  1  0
M  END
>  <Binding energies>  (1) 
[-6.85]

>  <Ligand effiencies>  (1) 
[-0.22096774193548385]

>  <Interactions>  (1) 
["V-B:TYR:539:CD2:9842, V-A:LEU:475:CD2:4254, V-B:ALA:541:CB:9860, H-B:GLU:543:OE2:9878, V-B:GLU:543:CD:9876, V-A:GLU:543:CG:4902, H-A:GLU:543:OE2:4905, V-A:GLU:543:CD:4903, H-A:TYR:484:OH:4343, V-B:GLU:543:CG:9875, V-A:TYR:484:CE1:4340, V-A:GLU:543:CB:4901, V-B:HIS:456:CE1:9037, V-A:TYR:484:CZ:4342, V-A:HIS:456:CE1:4064, H-A:HIS:456:NE2:4065, V-B:GLU:543:CB:9874, V-A:LYS:547:CE:4945, V-B:HIS:456:CD2:9035, V-A:GLU:543:C:4897, V-A:GLY:544:C:4907, H-A:GLU:543:OE1:4904, V-A:GLY:544:CA:4909"]

$$$$
4ck_Grossjean_2025
     RDKit          3D

 57 59  0  0  0  0  0  0  0  0999 V2000
  124.8270  128.9880   75.0840 C   0  0  0  0  0  0  0  0  0  0  0  0
  126.1490  128.8720   74.5810 O   0  0  0  0  0  0  0  0  0  0  0  0
  126.7330  130.1210   74.2360 C   0  0  0  0  0  0  0  0  0  0  0  0
  128.1420  129.8780   73.6820 C   0  0  0  0  0  0  0  0  0  0  0  0
  128.6910  128.7220   74.3000 O   0  0  0  0  0  0  0  0  0  0  0  0
  129.4160  127.8900   73.4040 C   0  0  0  0  0  0  0  0  0  0  0  0
  129.9430  128.7410   72.2420 C   0  0  0  0  0  0  0  0  0  0  0  0
  130.2210  127.8880   71.1400 O   0  0  0  0  0  0  0  0  0  0  0  0
  130.9210  128.5280   70.0800 C   0  0  0  0  0  0  0  0  0  0  0  0
  129.9360  128.8920   68.9590 C   0  0  0  0  0  0  0  0  0  0  0  0
  130.0910  128.0270   67.7890 N   0  0  0  0  0  0  0  0  0  0  0  0
  129.6530  126.7550   67.6830 C   0  0  0  0  0  0  0  0  0  0  0  0
  129.0340  126.1880   68.5850 O   0  0  0  0  0  0  0  0  0  0  0  0
  129.9470  126.0810   66.4180 C   0  0  0  0  0  0  0  0  0  0  0  0
  130.4500  124.3920   66.4130 S   0  0  0  0  0  0  0  0  0  0  0  0
  130.5220  124.3750   64.6670 C   0  0  0  0  0  0  0  0  0  0  0  0
  130.8730  123.2800   63.9970 N   0  0  0  0  0  0  0  0  0  0  0  0
  130.9020  123.3630   62.6410 C   0  0  0  0  0  0  0  0  0  0  0  0
  131.2840  122.1050   61.9140 C   0  0  0  0  0  0  0  0  0  0  0  0
  132.5730  121.9460   61.3800 C   0  0  0  0  0  0  0  0  0  0  0  0
  132.9320  120.7830   60.7030 C   0  0  0  0  0  0  0  0  0  0  0  0
  132.0040  119.7590   60.5500 C   0  0  0  0  0  0  0  0  0  0  0  0
  130.7220  119.8880   61.0730 C   0  0  0  0  0  0  0  0  0  0  0  0
  130.3670  121.0520   61.7510 C   0  0  0  0  0  0  0  0  0  0  0  0
  130.5700  124.5410   61.9650 C   0  0  0  0  0  0  0  0  0  0  0  0
  130.2000  125.7020   62.6620 C   0  0  0  0  0  0  0  0  0  0  0  0
  129.8520  126.9610   61.8580 C   0  0  0  0  0  0  0  0  0  0  0  0
  129.8860  126.7660   60.5390 F   0  0  0  0  0  0  0  0  0  0  0  0
  128.6230  127.3700   62.1700 F   0  0  0  0  0  0  0  0  0  0  0  0
  130.7230  127.9300   62.1410 F   0  0  0  0  0  0  0  0  0  0  0  0
  130.1680  125.6280   64.0840 C   0  0  0  0  0  0  0  0  0  0  0  0
  129.8360  126.5840   65.1130 C   0  0  0  0  0  0  0  0  0  0  0  0
  129.4510  127.8700   64.8350 N   0  0  0  0  0  0  0  0  0  0  0  0
  124.8516  128.9858   76.1837 H   0  0  0  0  0  0  0  0  0  0  0  0
  124.3809  129.9287   74.7291 H   0  0  0  0  0  0  0  0  0  0  0  0
  124.2239  128.1393   74.7291 H   0  0  0  0  0  0  0  0  0  0  0  0
  126.1169  130.6175   73.4718 H   0  0  0  0  0  0  0  0  0  0  0  0
  126.7901  130.7631   75.1273 H   0  0  0  0  0  0  0  0  0  0  0  0
  128.0887  129.7241   72.5941 H   0  0  0  0  0  0  0  0  0  0  0  0
  128.7790  130.7495   73.8934 H   0  0  0  0  0  0  0  0  0  0  0  0
  130.2613  127.4268   73.9340 H   0  0  0  0  0  0  0  0  0  0  0  0
  128.7555  127.1011   73.0151 H   0  0  0  0  0  0  0  0  0  0  0  0
  129.1841  129.4830   71.9531 H   0  0  0  0  0  0  0  0  0  0  0  0
  130.8593  129.2666   72.5487 H   0  0  0  0  0  0  0  0  0  0  0  0
  131.4004  129.4431   70.4577 H   0  0  0  0  0  0  0  0  0  0  0  0
  131.6889  127.8466   69.6850 H   0  0  0  0  0  0  0  0  0  0  0  0
  128.9097  128.7908   69.3417 H   0  0  0  0  0  0  0  0  0  0  0  0
  130.1448  129.9258   68.6465 H   0  0  0  0  0  0  0  0  0  0  0  0
  130.5110  128.4540   66.9760 H   0  0  0  0  0  0  0  0  0  0  0  0
  133.3111  122.7530   61.4983 H   0  0  0  0  0  0  0  0  0  0  0  0
  133.9461  120.6750   60.2908 H   0  0  0  0  0  0  0  0  0  0  0  0
  132.2855  118.8417   60.0122 H   0  0  0  0  0  0  0  0  0  0  0  0
  129.9915  119.0746   60.9519 H   0  0  0  0  0  0  0  0  0  0  0  0
  129.3527  121.1488   62.1655 H   0  0  0  0  0  0  0  0  0  0  0  0
  130.5993  124.5584   60.8655 H   0  0  0  0  0  0  0  0  0  0  0  0
  128.6960  128.0780   64.1960 H   0  0  0  0  0  0  0  0  0  0  0  0
  129.9090  128.6610   65.2680 H   0  0  0  0  0  0  0  0  0  0  0  0
  1  2  1  0
  2  3  1  0
  3  4  1  0
  4  5  1  0
  5  6  1  0
  6  7  1  0
  7  8  1  0
  8  9  1  0
  9 10  1  0
 10 11  1  0
 11 12  1  0
 12 13  2  0
 12 14  1  0
 14 15  1  0
 15 16  1  0
 16 17  2  0
 17 18  1  0
 18 19  1  0
 19 20  2  0
 20 21  1  0
 21 22  2  0
 22 23  1  0
 23 24  2  0
 18 25  2  0
 25 26  1  0
 26 27  1  0
 27 28  1  0
 27 29  1  0
 27 30  1  0
 26 31  2  0
 31 32  1  0
 32 33  1  0
 32 14  2  0
 31 16  1  0
 24 19  1  0
  1 34  1  0
  1 35  1  0
  1 36  1  0
  3 37  1  0
  3 38  1  0
  4 39  1  0
  4 40  1  0
  6 41  1  0
  6 42  1  0
  7 43  1  0
  7 44  1  0
  9 45  1  0
  9 46  1  0
 10 47  1  0
 10 48  1  0
 11 49  1  0
 20 50  1  0
 21 51  1  0
 22 52  1  0
 23 53  1  0
 24 54  1  0
 25 55  1  0
 33 56  1  0
 33 57  1  0
M  END
>  <Binding energies>  (1) 
[-6.07]

>  <Ligand effiencies>  (1) 
[-0.16861111111111113]

>  <Interactions>  (1) 
["V-B:TYR:539:CD2:9842, V-A:LEU:475:CD2:4254, V-A:TRP:381:CZ2:3365, V-B:ALA:541:CB:9860, V-A:TRP:381:CH2:3367, H-B:GLU:543:OE2:9878, V-B:GLU:543:CD:9876, V-A:GLU:543:CG:4902, H-A:GLU:543:OE2:4905, V-A:GLU:543:CD:4903, H-A:TYR:484:OH:4343, V-B:GLU:543:CG:9875, V-A:TYR:484:CE1:4340, V-A:GLU:543:CB:4901, V-A:TYR:484:CZ:4342, V-A:HIS:456:CE1:4064, V-A:LYS:547:CE:4945, H-B:LYS:547:NZ:9919, H-A:LYS:547:NZ:4946, V-B:LYS:547:CE:9918, V-B:HIS:456:CD2:9035, V-B:HIS:456:CB:9032, V-A:GLU:543:C:4897, V-B:LYS:547:CD:9917, V-A:ILE:369:CD1:3234, V-A:GLY:544:C:4907, V-A:ILE:369:CG2:3232, H-A:GLU:543:OE1:4904, V-B:HIS:456:CG:9033, V-B:LYS:547:CG:9916, V-B:HIS:456:C:9028"]

$$$$
4dd_Grossjean_2025
     RDKit          3D

 43 46  0  0  0  0  0  0  0  0999 V2000
  128.7890  129.1070   65.4010 C   0  0  0  0  0  0  0  0  0  0  0  0
  129.1350  128.1390   66.5220 C   0  0  0  0  0  0  0  0  0  0  0  0
  129.0850  128.6100   67.8400 C   0  0  0  0  0  0  0  0  0  0  0  0
  129.3920  127.7690   68.9170 C   0  0  0  0  0  0  0  0  0  0  0  0
  129.3520  128.2470   70.3380 C   0  0  0  0  0  0  0  0  0  0  0  0
  128.1870  128.1150   71.1100 C   0  0  0  0  0  0  0  0  0  0  0  0
  128.1440  128.5540   72.4300 C   0  0  0  0  0  0  0  0  0  0  0  0
  129.2700  129.1370   73.0000 C   0  0  0  0  0  0  0  0  0  0  0  0
  130.4390  129.2800   72.2600 C   0  0  0  0  0  0  0  0  0  0  0  0
  130.4780  128.8370   70.9400 C   0  0  0  0  0  0  0  0  0  0  0  0
  129.7610  126.4720   68.7330 N   0  0  0  0  0  0  0  0  0  0  0  0
  129.8030  126.0210   67.4800 C   0  0  0  0  0  0  0  0  0  0  0  0
  130.2430  124.3710   67.1020 S   0  0  0  0  0  0  0  0  0  0  0  0
  130.0370  124.6620   65.3730 C   0  0  0  0  0  0  0  0  0  0  0  0
  130.2560  123.5830   64.4080 C   0  0  0  0  0  0  0  0  0  0  0  0
  130.8640  122.5620   64.7350 O   0  0  0  0  0  0  0  0  0  0  0  0
  129.7430  123.7960   63.1720 N   0  0  0  0  0  0  0  0  0  0  0  0
  129.8230  122.9960   62.0180 C   0  0  0  0  0  0  0  0  0  0  0  0
  130.9350  122.1530   61.9340 C   0  0  0  0  0  0  0  0  0  0  0  0
  131.0980  121.3120   60.8370 C   0  0  0  0  0  0  0  0  0  0  0  0
  130.1420  121.3060   59.8250 C   0  0  0  0  0  0  0  0  0  0  0  0
  129.0240  122.1310   59.9010 C   0  0  0  0  0  0  0  0  0  0  0  0
  128.8580  122.9750   60.9960 C   0  0  0  0  0  0  0  0  0  0  0  0
  129.6490  125.9890   65.1270 C   0  0  0  0  0  0  0  0  0  0  0  0
  129.4210  126.4980   63.8730 N   0  0  0  0  0  0  0  0  0  0  0  0
  129.5060  126.7850   66.3170 C   0  0  0  0  0  0  0  0  0  0  0  0
  128.4483  130.0601   65.8317 H   0  0  0  0  0  0  0  0  0  0  0  0
  129.6800  129.2828   64.7803 H   0  0  0  0  0  0  0  0  0  0  0  0
  127.9885  128.6782   64.7803 H   0  0  0  0  0  0  0  0  0  0  0  0
  128.8006  129.6551   68.0320 H   0  0  0  0  0  0  0  0  0  0  0  0
  127.2922  127.6565   70.6637 H   0  0  0  0  0  0  0  0  0  0  0  0
  127.2226  128.4401   73.0200 H   0  0  0  0  0  0  0  0  0  0  0  0
  129.2362  129.4872   74.0422 H   0  0  0  0  0  0  0  0  0  0  0  0
  131.3283  129.7406   72.7149 H   0  0  0  0  0  0  0  0  0  0  0  0
  131.4049  128.9505   70.3586 H   0  0  0  0  0  0  0  0  0  0  0  0
  129.2120  124.6460   63.0530 H   0  0  0  0  0  0  0  0  0  0  0  0
  131.6848  122.1543   62.7388 H   0  0  0  0  0  0  0  0  0  0  0  0
  131.9779  120.6553   60.7700 H   0  0  0  0  0  0  0  0  0  0  0  0
  130.2716  120.6428   58.9570 H   0  0  0  0  0  0  0  0  0  0  0  0
  128.2728  122.1165   59.0976 H   0  0  0  0  0  0  0  0  0  0  0  0
  127.9727  123.6246   61.0612 H   0  0  0  0  0  0  0  0  0  0  0  0
  129.9710  127.2570   63.4970 H   0  0  0  0  0  0  0  0  0  0  0  0
  128.6940  126.1230   63.2800 H   0  0  0  0  0  0  0  0  0  0  0  0
  1  2  1  0
  2  3  2  0
  3  4  1  0
  4  5  1  0
  5  6  2  0
  6  7  1  0
  7  8  2  0
  8  9  1  0
  9 10  2  0
  4 11  2  0
 11 12  1  0
 12 13  1  0
 13 14  1  0
 14 15  1  0
 15 16  2  0
 15 17  1  0
 17 18  1  0
 18 19  2  0
 19 20  1  0
 20 21  2  0
 21 22  1  0
 22 23  2  0
 14 24  2  0
 24 25  1  0
 24 26  1  0
 26  2  1  0
 10  5  1  0
 26 12  2  0
 23 18  1  0
  1 27  1  0
  1 28  1  0
  1 29  1  0
  3 30  1  0
  6 31  1  0
  7 32  1  0
  8 33  1  0
  9 34  1  0
 10 35  1  0
 17 36  1  0
 19 37  1  0
 20 38  1  0
 21 39  1  0
 22 40  1  0
 23 41  1  0
 25 42  1  0
 25 43  1  0
M  END
>  <Binding energies>  (1) 
[-7.65]

>  <Ligand effiencies>  (1) 
[-0.2637931034482759]

>  <Interactions>  (1) 
["V-B:TYR:539:C:9835, V-B:TYR:539:CD2:9842, V-A:LEU:475:CD2:4254, V-B:TYR:539:CE2:9844, V-B:PRO:540:CA:9851, H-B:GLU:543:OE2:9878, V-B:GLU:543:CD:9876, V-A:GLU:543:CG:4902, H-A:GLU:543:OE2:4905, V-A:GLU:543:CD:4903, H-A:TYR:484:OH:4343, V-B:GLU:543:CG:9875, V-A:TYR:484:CE1:4340, V-A:GLU:543:CB:4901, V-B:HIS:456:CE1:9037, V-A:TYR:484:CZ:4342, V-A:HIS:456:CE1:4064, H-A:HIS:456:NE2:4065, V-B:GLU:543:CB:9874, V-A:LYS:547:CE:4945, V-B:HIS:456:CD2:9035, V-A:GLU:543:C:4897, V-A:GLY:544:C:4907, H-A:GLU:543:OE1:4904, V-A:GLY:544:CA:4909"]

$$$$
4dg_Grossjean_2025
     RDKit          3D

 46 49  0  0  0  0  0  0  0  0999 V2000
  128.9370  128.9780   65.0430 C   0  0  0  0  0  0  0  0  0  0  0  0
  129.2490  128.0150   66.1800 C   0  0  0  0  0  0  0  0  0  0  0  0
  129.1910  128.5020   67.4910 C   0  0  0  0  0  0  0  0  0  0  0  0
  129.4670  127.6670   68.5810 C   0  0  0  0  0  0  0  0  0  0  0  0
  129.4110  128.1600   70.0000 C   0  0  0  0  0  0  0  0  0  0  0  0
  130.5190  128.7930   70.5870 C   0  0  0  0  0  0  0  0  0  0  0  0
  130.4740  129.2480   71.9020 C   0  0  0  0  0  0  0  0  0  0  0  0
  129.3170  129.0770   72.6530 C   0  0  0  0  0  0  0  0  0  0  0  0
  128.2050  128.4500   72.0980 C   0  0  0  0  0  0  0  0  0  0  0  0
  128.2550  127.9960   70.7830 C   0  0  0  0  0  0  0  0  0  0  0  0
  129.7820  126.3540   68.4180 N   0  0  0  0  0  0  0  0  0  0  0  0
  129.8390  125.8890   67.1700 C   0  0  0  0  0  0  0  0  0  0  0  0
  130.2390  124.2240   66.8190 S   0  0  0  0  0  0  0  0  0  0  0  0
  130.0790  124.5060   65.0860 C   0  0  0  0  0  0  0  0  0  0  0  0
  130.3480  123.4250   64.1380 C   0  0  0  0  0  0  0  0  0  0  0  0
  131.1980  122.5640   64.3700 O   0  0  0  0  0  0  0  0  0  0  0  0
  129.6380  123.4580   62.9910 N   0  0  0  0  0  0  0  0  0  0  0  0
  129.7240  122.4720   61.9140 C   0  0  0  0  0  0  0  0  0  0  0  0
  128.7770  122.7580   60.7540 C   0  0  0  0  0  0  0  0  0  0  0  0
  127.5030  123.2750   61.0090 C   0  0  0  0  0  0  0  0  0  0  0  0
  126.6470  123.5670   59.9500 C   0  0  0  0  0  0  0  0  0  0  0  0
  127.0720  123.3530   58.6410 C   0  0  0  0  0  0  0  0  0  0  0  0
  128.3460  122.8550   58.3790 C   0  0  0  0  0  0  0  0  0  0  0  0
  129.2030  122.5630   59.4370 C   0  0  0  0  0  0  0  0  0  0  0  0
  129.7460  125.8410   64.8140 C   0  0  0  0  0  0  0  0  0  0  0  0
  129.5730  126.3430   63.5500 N   0  0  0  0  0  0  0  0  0  0  0  0
  129.5910  126.6510   65.9930 C   0  0  0  0  0  0  0  0  0  0  0  0
  128.6231  129.9468   65.4588 H   0  0  0  0  0  0  0  0  0  0  0  0
  129.8356  129.1183   64.4243 H   0  0  0  0  0  0  0  0  0  0  0  0
  128.1268  128.5647   64.4243 H   0  0  0  0  0  0  0  0  0  0  0  0
  128.9251  129.5547   67.6675 H   0  0  0  0  0  0  0  0  0  0  0  0
  131.4376  128.9315   69.9979 H   0  0  0  0  0  0  0  0  0  0  0  0
  131.3515  129.7414   72.3453 H   0  0  0  0  0  0  0  0  0  0  0  0
  129.2799  129.4389   73.6911 H   0  0  0  0  0  0  0  0  0  0  0  0
  127.2915  128.3140   72.6955 H   0  0  0  0  0  0  0  0  0  0  0  0
  127.3743  127.5001   70.3488 H   0  0  0  0  0  0  0  0  0  0  0  0
  128.9040  124.1460   62.9040 H   0  0  0  0  0  0  0  0  0  0  0  0
  130.7545  122.4650   61.5292 H   0  0  0  0  0  0  0  0  0  0  0  0
  129.4322  121.5004   62.3393 H   0  0  0  0  0  0  0  0  0  0  0  0
  127.1773  123.4509   62.0449 H   0  0  0  0  0  0  0  0  0  0  0  0
  125.6404  123.9646   60.1464 H   0  0  0  0  0  0  0  0  0  0  0  0
  126.3940  123.5798   57.8050 H   0  0  0  0  0  0  0  0  0  0  0  0
  128.6736  122.6931   57.3415 H   0  0  0  0  0  0  0  0  0  0  0  0
  130.2142  122.1793   59.2366 H   0  0  0  0  0  0  0  0  0  0  0  0
  130.0300  127.1890   63.2430 H   0  0  0  0  0  0  0  0  0  0  0  0
  128.9820  125.8740   62.8760 H   0  0  0  0  0  0  0  0  0  0  0  0
  1  2  1  0
  2  3  2  0
  3  4  1  0
  4  5  1  0
  5  6  2  0
  6  7  1  0
  7  8  2  0
  8  9  1  0
  9 10  2  0
  4 11  2  0
 11 12  1  0
 12 13  1  0
 13 14  1  0
 14 15  1  0
 15 16  2  0
 15 17  1  0
 17 18  1  0
 18 19  1  0
 19 20  2  0
 20 21  1  0
 21 22  2  0
 22 23  1  0
 23 24  2  0
 14 25  2  0
 25 26  1  0
 25 27  1  0
 27  2  1  0
 10  5  1  0
 27 12  2  0
 24 19  1  0
  1 28  1  0
  1 29  1  0
  1 30  1  0
  3 31  1  0
  6 32  1  0
  7 33  1  0
  8 34  1  0
  9 35  1  0
 10 36  1  0
 17 37  1  0
 18 38  1  0
 18 39  1  0
 20 40  1  0
 21 41  1  0
 22 42  1  0
 23 43  1  0
 24 44  1  0
 26 45  1  0
 26 46  1  0
M  END
>  <Binding energies>  (1) 
[-7.74]

>  <Ligand effiencies>  (1) 
[-0.258]

>  <Interactions>  (1) 
["V-B:TYR:539:C:9835, V-B:PRO:540:N:9852, V-B:ALA:541:CB:9860, V-B:PRO:540:CA:9851, V-B:PRO:540:CB:9853, H-B:GLU:543:OE2:9878, V-B:GLU:543:CD:9876, V-A:GLU:543:CG:4902, H-A:GLU:543:OE2:4905, V-A:GLU:543:CD:4903, H-A:TYR:484:OH:4343, V-B:GLU:543:CG:9875, V-A:TYR:484:CE1:4340, V-A:GLU:543:CB:4901, V-B:HIS:456:CE1:9037, V-A:TYR:484:CZ:4342, V-A:HIS:456:CE1:4064, H-A:HIS:456:NE2:4065, V-B:GLU:543:CB:9874, V-A:LYS:547:CE:4945, V-B:HIS:456:CD2:9035, V-A:GLU:543:C:4897, V-A:GLY:544:C:4907, H-A:GLU:543:OE1:4904, V-A:GLY:544:CA:4909"]

$$$$
4dj_Grossjean_2025
     RDKit          3D

 39 42  0  0  0  0  0  0  0  0999 V2000
  128.6430  129.0530   65.1750 C   0  0  0  0  0  0  0  0  0  0  0  0
  129.0550  128.1030   66.2890 C   0  0  0  0  0  0  0  0  0  0  0  0
  129.0010  128.5700   67.6070 C   0  0  0  0  0  0  0  0  0  0  0  0
  129.3680  127.7460   68.6780 C   0  0  0  0  0  0  0  0  0  0  0  0
  129.3150  128.2180   70.1040 C   0  0  0  0  0  0  0  0  0  0  0  0
  130.4300  128.8280   70.7020 C   0  0  0  0  0  0  0  0  0  0  0  0
  130.3880  129.2680   72.0230 C   0  0  0  0  0  0  0  0  0  0  0  0
  129.2260  129.0990   72.7690 C   0  0  0  0  0  0  0  0  0  0  0  0
  128.1080  128.4950   72.2030 C   0  0  0  0  0  0  0  0  0  0  0  0
  128.1540  128.0580   70.8830 C   0  0  0  0  0  0  0  0  0  0  0  0
  129.7730  126.4610   68.4900 N   0  0  0  0  0  0  0  0  0  0  0  0
  129.8250  126.0150   67.2350 C   0  0  0  0  0  0  0  0  0  0  0  0
  130.3360  124.3870   66.8490 S   0  0  0  0  0  0  0  0  0  0  0  0
  130.1060  124.6740   65.1230 C   0  0  0  0  0  0  0  0  0  0  0  0
  130.3920  123.6160   64.1530 C   0  0  0  0  0  0  0  0  0  0  0  0
  131.2720  122.7800   64.3730 O   0  0  0  0  0  0  0  0  0  0  0  0
  129.6390  123.6390   63.0250 N   0  0  0  0  0  0  0  0  0  0  0  0
  129.7110  122.7580   61.9560 C   0  0  0  0  0  0  0  0  0  0  0  0
  129.2770  122.9420   60.7270 N   0  0  0  0  0  0  0  0  0  0  0  0
  129.5130  121.8900   59.9670 C   0  0  0  0  0  0  0  0  0  0  0  0
  130.1550  120.8190   60.5800 C   0  0  0  0  0  0  0  0  0  0  0  0
  130.4620  121.2210   62.2440 S   0  0  0  0  0  0  0  0  0  0  0  0
  129.6570  125.9820   64.8840 C   0  0  0  0  0  0  0  0  0  0  0  0
  129.3980  126.4830   63.6320 N   0  0  0  0  0  0  0  0  0  0  0  0
  129.4860  126.7680   66.0750 C   0  0  0  0  0  0  0  0  0  0  0  0
  128.2414  129.9789   65.6125 H   0  0  0  0  0  0  0  0  0  0  0  0
  129.5188  129.2909   64.5534 H   0  0  0  0  0  0  0  0  0  0  0  0
  127.8708  128.5762   64.5534 H   0  0  0  0  0  0  0  0  0  0  0  0
  128.6655  129.5988   67.8045 H   0  0  0  0  0  0  0  0  0  0  0  0
  131.3522  128.9605   70.1171 H   0  0  0  0  0  0  0  0  0  0  0  0
  131.2695  129.7469   72.4742 H   0  0  0  0  0  0  0  0  0  0  0  0
  129.1911  129.4450   73.8126 H   0  0  0  0  0  0  0  0  0  0  0  0
  127.1913  128.3635   72.7967 H   0  0  0  0  0  0  0  0  0  0  0  0
  127.2679  127.5793   70.4407 H   0  0  0  0  0  0  0  0  0  0  0  0
  128.9520  124.3740   62.9420 H   0  0  0  0  0  0  0  0  0  0  0  0
  129.2185  121.8613   58.9075 H   0  0  0  0  0  0  0  0  0  0  0  0
  130.4249  119.8712   60.0914 H   0  0  0  0  0  0  0  0  0  0  0  0
  129.9560  127.2180   63.2250 H   0  0  0  0  0  0  0  0  0  0  0  0
  128.6330  126.1280   63.0740 H   0  0  0  0  0  0  0  0  0  0  0  0
  1  2  1  0
  2  3  2  0
  3  4  1  0
  4  5  1  0
  5  6  2  0
  6  7  1  0
  7  8  2  0
  8  9  1  0
  9 10  2  0
  4 11  2  0
 11 12  1  0
 12 13  1  0
 13 14  1  0
 14 15  1  0
 15 16  2  0
 15 17  1  0
 17 18  1  0
 18 19  2  0
 19 20  1  0
 20 21  2  0
 21 22  1  0
 14 23  2  0
 23 24  1  0
 23 25  1  0
 25  2  1  0
 10  5  1  0
 25 12  2  0
 22 18  1  0
  1 26  1  0
  1 27  1  0
  1 28  1  0
  3 29  1  0
  6 30  1  0
  7 31  1  0
  8 32  1  0
  9 33  1  0
 10 34  1  0
 17 35  1  0
 20 36  1  0
 21 37  1  0
 24 38  1  0
 24 39  1  0
M  END
>  <Binding energies>  (1) 
[-7.23]

>  <Ligand effiencies>  (1) 
[-0.25821428571428573]

>  <Interactions>  (1) 
["V-B:TYR:539:CD2:9842, V-A:LEU:475:CD2:4254, V-B:ALA:541:CB:9860, H-B:GLU:543:OE2:9878, V-B:GLU:543:CD:9876, V-A:GLU:543:CG:4902, H-A:GLU:543:OE2:4905, V-A:GLU:543:CD:4903, H-A:TYR:484:OH:4343, V-B:GLU:543:CG:9875, V-A:TYR:484:CE1:4340, V-A:GLU:543:CB:4901, V-B:HIS:456:CE1:9037, V-A:TYR:484:CZ:4342, V-A:HIS:456:CE1:4064, H-A:HIS:456:NE2:4065, V-B:GLU:543:CB:9874, V-A:LYS:547:CE:4945, V-B:HIS:456:CD2:9035, V-A:GLU:543:C:4897, V-A:GLY:544:C:4907, H-A:GLU:543:OE1:4904, V-A:GLY:544:CA:4909"]

$$$$
4ea_Grossjean_2025
     RDKit          3D

 52 55  0  0  0  0  0  0  0  0999 V2000
  123.6430  123.7090   58.4720 C   0  0  0  0  0  0  0  0  0  0  0  0
  124.1260  124.8330   57.5520 C   0  0  0  0  0  0  0  0  0  0  0  0
  124.9130  124.2820   56.5040 O   0  0  0  0  0  0  0  0  0  0  0  0
  125.7260  123.2170   56.7240 C   0  0  0  0  0  0  0  0  0  0  0  0
  125.5690  122.1190   56.1810 O   0  0  0  0  0  0  0  0  0  0  0  0
  126.8360  123.5080   57.6920 C   0  0  0  0  0  0  0  0  0  0  0  0
  126.6340  123.2640   59.0560 C   0  0  0  0  0  0  0  0  0  0  0  0
  127.6430  123.5230   59.9800 C   0  0  0  0  0  0  0  0  0  0  0  0
  128.8730  124.0310   59.5600 C   0  0  0  0  0  0  0  0  0  0  0  0
  129.8170  124.2540   60.5810 N   0  0  0  0  0  0  0  0  0  0  0  0
  131.1620  124.4090   60.5150 C   0  0  0  0  0  0  0  0  0  0  0  0
  131.8140  124.3740   59.4700 O   0  0  0  0  0  0  0  0  0  0  0  0
  131.8290  124.6270   61.8010 C   0  0  0  0  0  0  0  0  0  0  0  0
  133.5600  124.3260   61.9720 S   0  0  0  0  0  0  0  0  0  0  0  0
  133.5250  124.7950   63.6560 C   0  0  0  0  0  0  0  0  0  0  0  0
  134.6220  124.7830   64.4150 N   0  0  0  0  0  0  0  0  0  0  0  0
  134.4600  125.1690   65.7040 C   0  0  0  0  0  0  0  0  0  0  0  0
  135.7200  125.1470   66.5490 C   0  0  0  0  0  0  0  0  0  0  0  0
  133.2390  125.5630   66.2470 C   0  0  0  0  0  0  0  0  0  0  0  0
  132.0910  125.5740   65.4480 C   0  0  0  0  0  0  0  0  0  0  0  0
  130.8010  125.9960   66.0390 C   0  0  0  0  0  0  0  0  0  0  0  0
  130.0420  127.0000   65.4300 C   0  0  0  0  0  0  0  0  0  0  0  0
  128.8280  127.3950   65.9840 C   0  0  0  0  0  0  0  0  0  0  0  0
  128.3730  126.7880   67.1520 C   0  0  0  0  0  0  0  0  0  0  0  0
  129.1220  125.7900   67.7700 C   0  0  0  0  0  0  0  0  0  0  0  0
  130.3360  125.3960   67.2140 C   0  0  0  0  0  0  0  0  0  0  0  0
  132.2190  125.1760   64.0890 C   0  0  0  0  0  0  0  0  0  0  0  0
  131.2700  125.0710   63.0100 C   0  0  0  0  0  0  0  0  0  0  0  0
  129.9440  125.3810   63.1690 N   0  0  0  0  0  0  0  0  0  0  0  0
  129.0840  124.2790   58.1950 C   0  0  0  0  0  0  0  0  0  0  0  0
  128.0740  124.0190   57.2730 C   0  0  0  0  0  0  0  0  0  0  0  0
  123.7734  124.0124   59.5212 H   0  0  0  0  0  0  0  0  0  0  0  0
  122.5791  123.5080   58.2779 H   0  0  0  0  0  0  0  0  0  0  0  0
  124.2294  122.7988   58.2779 H   0  0  0  0  0  0  0  0  0  0  0  0
  123.2576  125.3546   57.1232 H   0  0  0  0  0  0  0  0  0  0  0  0
  124.7325  125.5454   58.1305 H   0  0  0  0  0  0  0  0  0  0  0  0
  125.6691  122.8639   59.4008 H   0  0  0  0  0  0  0  0  0  0  0  0
  127.4694  123.3258   61.0482 H   0  0  0  0  0  0  0  0  0  0  0  0
  129.4150  124.3060   61.5050 H   0  0  0  0  0  0  0  0  0  0  0  0
  135.4470  125.1518   67.6146 H   0  0  0  0  0  0  0  0  0  0  0  0
  136.2976  124.2386   66.3225 H   0  0  0  0  0  0  0  0  0  0  0  0
  136.3289  126.0346   66.3225 H   0  0  0  0  0  0  0  0  0  0  0  0
  133.1778  125.8651   67.3029 H   0  0  0  0  0  0  0  0  0  0  0  0
  130.4059  127.4796   64.5093 H   0  0  0  0  0  0  0  0  0  0  0  0
  128.2307  128.1828   65.5017 H   0  0  0  0  0  0  0  0  0  0  0  0
  127.4134  127.0997   67.5902 H   0  0  0  0  0  0  0  0  0  0  0  0
  128.7564  125.3155   68.6926 H   0  0  0  0  0  0  0  0  0  0  0  0
  130.9319  124.6098   67.7006 H   0  0  0  0  0  0  0  0  0  0  0  0
  129.5700  126.2790   62.8960 H   0  0  0  0  0  0  0  0  0  0  0  0
  129.2930  124.7180   63.5680 H   0  0  0  0  0  0  0  0  0  0  0  0
  130.0496  124.6797   57.8529 H   0  0  0  0  0  0  0  0  0  0  0  0
  128.2481  124.2161   56.2049 H   0  0  0  0  0  0  0  0  0  0  0  0
  1  2  1  0
  2  3  1  0
  3  4  1  0
  4  5  2  0
  4  6  1  0
  6  7  2  0
  7  8  1  0
  8  9  2  0
  9 10  1  0
 10 11  1  0
 11 12  2  0
 11 13  1  0
 13 14  1  0
 14 15  1  0
 15 16  2  0
 16 17  1  0
 17 18  1  0
 17 19  2  0
 19 20  1  0
 20 21  1  0
 21 22  2  0
 22 23  1  0
 23 24  2  0
 24 25  1  0
 25 26  2  0
 20 27  2  0
 27 28  1  0
 28 29  1  0
  9 30  1  0
 30 31  2  0
 31  6  1  0
 28 13  2  0
 27 15  1  0
 26 21  1  0
  1 32  1  0
  1 33  1  0
  1 34  1  0
  2 35  1  0
  2 36  1  0
  7 37  1  0
  8 38  1  0
 10 39  1  0
 18 40  1  0
 18 41  1  0
 18 42  1  0
 19 43  1  0
 22 44  1  0
 23 45  1  0
 24 46  1  0
 25 47  1  0
 26 48  1  0
 29 49  1  0
 29 50  1  0
 30 51  1  0
 31 52  1  0
M  END
>  <Binding energies>  (1) 
[-8.69]

>  <Ligand effiencies>  (1) 
[-0.2555882352941176]

>  <Interactions>  (1) 
["V-B:PRO:540:N:9852, V-B:PRO:540:CA:9851, V-B:MET:535:CE:9803, V-B:PRO:540:CB:9853, H-B:GLU:543:OE2:9878, V-B:GLU:543:CD:9876, V-A:ASP:366:CG:3208, V-A:GLU:543:CD:4903, H-A:TYR:484:OH:4343, V-B:GLU:543:CG:9875, H-B:TYR:539:N:9838, V-B:LEU:363:CB:8154, V-B:ASP:366:CG:8180, V-B:LEU:363:CD1:8156, V-B:TYR:531:CZ:9762, V-B:TYR:531:CE2:9761, V-B:ASP:366:CB:8179, V-B:LEU:363:CA:8152, V-B:GLU:543:CA:9872, V-A:HIS:456:CE1:4064, V-B:GLU:543:CB:9874, V-B:GLU:543:C:9870, V-A:ILE:369:CD1:3234, V-B:LEU:363:CG:8155, V-A:ARG:545:CZ:4921, V-A:GLY:453:CA:4039, H-A:GLY:454:N:4045, V-A:ARG:545:CD:4918, V-A:ARG:545:CG:4917, H-A:ARG:545:NH1:4922, H-B:TYR:531:OH:9763, V-A:ARG:545:CB:4916, V-A:GLY:453:C:4037, V-A:ILE:455:C:4047, V-A:HIS:456:CD2:4063"]

$$$$
4eb_Grossjean_2025
     RDKit          3D

 49 52  0  0  0  0  0  0  0  0999 V2000
  123.8270  124.7120   57.5620 C   0  0  0  0  0  0  0  0  0  0  0  0
  124.7010  124.1590   56.5890 O   0  0  0  0  0  0  0  0  0  0  0  0
  125.4420  123.0530   56.8640 C   0  0  0  0  0  0  0  0  0  0  0  0
  125.2070  121.9410   56.3830 O   0  0  0  0  0  0  0  0  0  0  0  0
  126.5760  123.3200   57.8120 C   0  0  0  0  0  0  0  0  0  0  0  0
  126.2910  123.6130   59.1520 C   0  0  0  0  0  0  0  0  0  0  0  0
  127.3200  123.8650   60.0550 C   0  0  0  0  0  0  0  0  0  0  0  0
  128.6510  123.8290   59.6400 C   0  0  0  0  0  0  0  0  0  0  0  0
  129.6070  124.0990   60.6390 N   0  0  0  0  0  0  0  0  0  0  0  0
  130.9070  124.4680   60.5340 C   0  0  0  0  0  0  0  0  0  0  0  0
  131.4960  124.6350   59.4660 O   0  0  0  0  0  0  0  0  0  0  0  0
  131.6060  124.6650   61.8060 C   0  0  0  0  0  0  0  0  0  0  0  0
  133.3430  124.3780   61.9240 S   0  0  0  0  0  0  0  0  0  0  0  0
  133.3490  124.8100   63.6190 C   0  0  0  0  0  0  0  0  0  0  0  0
  134.4660  124.7920   64.3480 N   0  0  0  0  0  0  0  0  0  0  0  0
  134.3350  125.1490   65.6480 C   0  0  0  0  0  0  0  0  0  0  0  0
  135.6190  125.1210   66.4580 C   0  0  0  0  0  0  0  0  0  0  0  0
  133.1260  125.5180   66.2330 C   0  0  0  0  0  0  0  0  0  0  0  0
  131.9560  125.5360   65.4650 C   0  0  0  0  0  0  0  0  0  0  0  0
  130.6780  125.9310   66.1000 C   0  0  0  0  0  0  0  0  0  0  0  0
  129.9150  126.9680   65.5550 C   0  0  0  0  0  0  0  0  0  0  0  0
  128.7120  127.3400   66.1510 C   0  0  0  0  0  0  0  0  0  0  0  0
  128.2740  126.6750   67.2950 C   0  0  0  0  0  0  0  0  0  0  0  0
  129.0300  125.6420   67.8460 C   0  0  0  0  0  0  0  0  0  0  0  0
  130.2320  125.2720   67.2490 C   0  0  0  0  0  0  0  0  0  0  0  0
  132.0520  125.1680   64.0950 C   0  0  0  0  0  0  0  0  0  0  0  0
  131.0770  125.0770   63.0400 C   0  0  0  0  0  0  0  0  0  0  0  0
  129.7510  125.3700   63.2400 N   0  0  0  0  0  0  0  0  0  0  0  0
  128.9460  123.5360   58.3000 C   0  0  0  0  0  0  0  0  0  0  0  0
  127.9160  123.2850   57.3980 C   0  0  0  0  0  0  0  0  0  0  0  0
  124.2018  124.4748   58.5686 H   0  0  0  0  0  0  0  0  0  0  0  0
  123.7813  125.8038   57.4356 H   0  0  0  0  0  0  0  0  0  0  0  0
  122.8208  124.2858   57.4356 H   0  0  0  0  0  0  0  0  0  0  0  0
  125.2458  123.6442   59.4933 H   0  0  0  0  0  0  0  0  0  0  0  0
  127.0815  124.0943   61.1041 H   0  0  0  0  0  0  0  0  0  0  0  0
  129.2550  124.0000   61.5790 H   0  0  0  0  0  0  0  0  0  0  0  0
  135.3759  125.1263   67.5308 H   0  0  0  0  0  0  0  0  0  0  0  0
  136.1860  124.2103   66.2150 H   0  0  0  0  0  0  0  0  0  0  0  0
  136.2252  126.0061   66.2150 H   0  0  0  0  0  0  0  0  0  0  0  0
  133.0908  125.7949   67.2970 H   0  0  0  0  0  0  0  0  0  0  0  0
  130.2654  127.4915   64.6533 H   0  0  0  0  0  0  0  0  0  0  0  0
  128.1107  128.1545   65.7209 H   0  0  0  0  0  0  0  0  0  0  0  0
  127.3243  126.9678   67.7666 H   0  0  0  0  0  0  0  0  0  0  0  0
  128.6784  125.1212   68.7489 H   0  0  0  0  0  0  0  0  0  0  0  0
  130.8324  124.4588   67.6828 H   0  0  0  0  0  0  0  0  0  0  0  0
  129.2660  125.0860   64.0800 H   0  0  0  0  0  0  0  0  0  0  0  0
  129.2140  125.8820   62.5530 H   0  0  0  0  0  0  0  0  0  0  0  0
  129.9923  123.5046   57.9619 H   0  0  0  0  0  0  0  0  0  0  0  0
  128.1553  123.0567   56.3489 H   0  0  0  0  0  0  0  0  0  0  0  0
  1  2  1  0
  2  3  1  0
  3  4  2  0
  3  5  1  0
  5  6  2  0
  6  7  1  0
  7  8  2  0
  8  9  1  0
  9 10  1  0
 10 11  2  0
 10 12  1  0
 12 13  1  0
 13 14  1  0
 14 15  2  0
 15 16  1  0
 16 17  1  0
 16 18  2  0
 18 19  1  0
 19 20  1  0
 20 21  2  0
 21 22  1  0
 22 23  2  0
 23 24  1  0
 24 25  2  0
 19 26  2  0
 26 27  1  0
 27 28  1  0
  8 29  1  0
 29 30  2  0
 30  5  1  0
 27 12  2  0
 26 14  1  0
 25 20  1  0
  1 31  1  0
  1 32  1  0
  1 33  1  0
  6 34  1  0
  7 35  1  0
  9 36  1  0
 17 37  1  0
 17 38  1  0
 17 39  1  0
 18 40  1  0
 21 41  1  0
 22 42  1  0
 23 43  1  0
 24 44  1  0
 25 45  1  0
 28 46  1  0
 28 47  1  0
 29 48  1  0
 30 49  1  0
M  END
>  <Binding energies>  (1) 
[-8.8]

>  <Ligand effiencies>  (1) 
[-0.26666666666666666]

>  <Interactions>  (1) 
["V-B:TYR:539:C:9835, V-B:PRO:540:N:9852, V-B:PRO:540:CA:9851, V-B:MET:535:CE:9803, V-B:PRO:540:CB:9853, H-B:GLU:543:OE2:9878, V-B:GLU:543:CD:9876, V-A:ASP:366:CG:3208, V-A:GLU:543:CD:4903, H-A:TYR:484:OH:4343, V-B:GLU:543:CG:9875, H-B:TYR:539:N:9838, V-B:ASP:366:CG:8180, V-B:PRO:540:CD:9855, V-B:LEU:363:CD1:8156, V-B:TYR:531:CZ:9762, V-B:TYR:531:CE2:9761, V-B:ASP:366:CB:8179, V-B:LEU:363:CA:8152, V-B:GLU:543:CA:9872, V-A:HIS:456:CE1:4064, V-B:GLU:543:CB:9874, V-B:GLU:543:C:9870, V-A:ARG:545:CZ:4921, V-A:GLY:453:CA:4039, H-A:GLY:454:N:4045, V-A:GLY:454:CA:4044, V-A:ARG:545:CD:4918, V-A:ARG:545:CG:4917, H-A:ARG:545:NH1:4922, H-B:TYR:531:OH:9763, V-A:GLY:453:C:4037, V-A:ILE:455:C:4047, V-A:HIS:456:CD2:4063"]

$$$$
8a_Ghoteimi_2023
     RDKit          3D

 67 71  0  0  0  0  0  0  0  0999 V2000
  129.2430  125.7950   55.0120 C   0  0  0  0  0  0  0  0  0  0  0  0
  129.9610  124.5540   55.5480 C   0  0  0  0  0  0  0  0  0  0  0  0
  129.1820  123.3990   55.2690 O   0  0  0  0  0  0  0  0  0  0  0  0
  128.5170  122.7450   56.2580 C   0  0  0  0  0  0  0  0  0  0  0  0
  127.8120  121.7510   56.0610 O   0  0  0  0  0  0  0  0  0  0  0  0
  128.7210  123.3560   57.6140 C   0  0  0  0  0  0  0  0  0  0  0  0
  127.6580  124.0290   58.2280 C   0  0  0  0  0  0  0  0  0  0  0  0
  127.8160  124.6070   59.4840 C   0  0  0  0  0  0  0  0  0  0  0  0
  129.0380  124.5260   60.1530 C   0  0  0  0  0  0  0  0  0  0  0  0
  129.0830  125.1520   61.4150 N   0  0  0  0  0  0  0  0  0  0  0  0
  130.0720  125.8680   62.0040 C   0  0  0  0  0  0  0  0  0  0  0  0
  131.1660  126.0960   61.4870 O   0  0  0  0  0  0  0  0  0  0  0  0
  129.7590  126.3850   63.3390 C   0  0  0  0  0  0  0  0  0  0  0  0
  130.7710  125.9610   64.7190 S   0  0  0  0  0  0  0  0  0  0  0  0
  129.7680  126.8970   65.8030 C   0  0  0  0  0  0  0  0  0  0  0  0
  130.0220  126.9630   67.1100 N   0  0  0  0  0  0  0  0  0  0  0  0
  129.1770  127.7140   67.8640 C   0  0  0  0  0  0  0  0  0  0  0  0
  129.4680  127.7580   69.3300 C   0  0  0  0  0  0  0  0  0  0  0  0
  129.0010  126.7550   70.1910 C   0  0  0  0  0  0  0  0  0  0  0  0
  129.2650  126.8070   71.5560 C   0  0  0  0  0  0  0  0  0  0  0  0
  130.0030  127.8590   72.0950 C   0  0  0  0  0  0  0  0  0  0  0  0
  130.2150  127.8300   73.4610 O   0  0  0  0  0  0  0  0  0  0  0  0
  130.7280  126.6430   74.0570 C   0  0  0  0  0  0  0  0  0  0  0  0
  130.4800  128.8650   71.2420 C   0  0  0  0  0  0  0  0  0  0  0  0
  130.2110  128.8110   69.8770 C   0  0  0  0  0  0  0  0  0  0  0  0
  128.0920  128.3990   67.3120 C   0  0  0  0  0  0  0  0  0  0  0  0
  127.8320  128.3460   65.9380 C   0  0  0  0  0  0  0  0  0  0  0  0
  126.6840  129.1180   65.3990 C   0  0  0  0  0  0  0  0  0  0  0  0
  125.3920  128.8780   65.8690 C   0  0  0  0  0  0  0  0  0  0  0  0
  124.3160  129.6140   65.3810 C   0  0  0  0  0  0  0  0  0  0  0  0
  124.5130  130.6060   64.4200 C   0  0  0  0  0  0  0  0  0  0  0  0
  123.3880  131.2850   63.9940 O   0  0  0  0  0  0  0  0  0  0  0  0
  122.9170  131.0860   62.6670 C   0  0  0  0  0  0  0  0  0  0  0  0
  125.8130  130.8550   63.9510 C   0  0  0  0  0  0  0  0  0  0  0  0
  126.8870  130.1180   64.4430 C   0  0  0  0  0  0  0  0  0  0  0  0
  128.6910  127.5470   65.1320 C   0  0  0  0  0  0  0  0  0  0  0  0
  128.6990  127.2210   63.7270 C   0  0  0  0  0  0  0  0  0  0  0  0
  127.7410  127.6800   62.8580 N   0  0  0  0  0  0  0  0  0  0  0  0
  130.1080  123.8490   59.5480 C   0  0  0  0  0  0  0  0  0  0  0  0
  129.9480  123.2710   58.2910 C   0  0  0  0  0  0  0  0  0  0  0  0
  128.8891  126.4066   55.8550 H   0  0  0  0  0  0  0  0  0  0  0  0
  129.9393  126.3849   54.3979 H   0  0  0  0  0  0  0  0  0  0  0  0
  128.3845  125.4853   54.3979 H   0  0  0  0  0  0  0  0  0  0  0  0
  130.9433  124.4600   55.0619 H   0  0  0  0  0  0  0  0  0  0  0  0
  130.0978  124.6503   56.6352 H   0  0  0  0  0  0  0  0  0  0  0  0
  126.6888  124.1016   57.7128 H   0  0  0  0  0  0  0  0  0  0  0  0
  126.9709  125.1319   59.9532 H   0  0  0  0  0  0  0  0  0  0  0  0
  128.2350  125.0530   61.9520 H   0  0  0  0  0  0  0  0  0  0  0  0
  128.4185  125.9163   69.7821 H   0  0  0  0  0  0  0  0  0  0  0  0
  128.8881  126.0111   72.2152 H   0  0  0  0  0  0  0  0  0  0  0  0
  130.6879  126.7358   75.1523 H   0  0  0  0  0  0  0  0  0  0  0  0
  130.1218  125.7818   73.7395 H   0  0  0  0  0  0  0  0  0  0  0  0
  131.7707  126.4944   73.7395 H   0  0  0  0  0  0  0  0  0  0  0  0
  131.0682  129.6989   71.6526 H   0  0  0  0  0  0  0  0  0  0  0  0
  130.5879  129.6075   69.2186 H   0  0  0  0  0  0  0  0  0  0  0  0
  127.4328  128.9883   67.9664 H   0  0  0  0  0  0  0  0  0  0  0  0
  125.2228  128.1021   66.6301 H   0  0  0  0  0  0  0  0  0  0  0  0
  123.3019  129.4118   65.7562 H   0  0  0  0  0  0  0  0  0  0  0  0
  121.9041  130.6581   62.6977 H   0  0  0  0  0  0  0  0  0  0  0  0
  122.8917  132.0503   62.1384 H   0  0  0  0  0  0  0  0  0  0  0  0
  123.5908  130.3957   62.1384 H   0  0  0  0  0  0  0  0  0  0  0  0
  125.9832  131.6340   63.1933 H   0  0  0  0  0  0  0  0  0  0  0  0
  127.9035  130.3241   64.0766 H   0  0  0  0  0  0  0  0  0  0  0  0
  126.9570  127.1020   62.5860 H   0  0  0  0  0  0  0  0  0  0  0  0
  127.7810  128.6090   62.4650 H   0  0  0  0  0  0  0  0  0  0  0  0
  131.0748  123.7747   60.0674 H   0  0  0  0  0  0  0  0  0  0  0  0
  130.7919  122.7423   57.8237 H   0  0  0  0  0  0  0  0  0  0  0  0
  1  2  1  0
  2  3  1  0
  3  4  1  0
  4  5  2  0
  4  6  1  0
  6  7  2  0
  7  8  1  0
  8  9  2  0
  9 10  1  0
 10 11  1  0
 11 12  2  0
 11 13  1  0
 13 14  1  0
 14 15  1  0
 15 16  2  0
 16 17  1  0
 17 18  1  0
 18 19  2  0
 19 20  1  0
 20 21  2  0
 21 22  1  0
 22 23  1  0
 21 24  1  0
 24 25  2  0
 17 26  2  0
 26 27  1  0
 27 28  1  0
 28 29  2  0
 29 30  1  0
 30 31  2  0
 31 32  1  0
 32 33  1  0
 31 34  1  0
 34 35  2  0
 27 36  2  0
 36 37  1  0
 37 38  1  0
  9 39  1  0
 39 40  2  0
 40  6  1  0
 37 13  2  0
 36 15  1  0
 25 18  1  0
 35 28  1  0
  1 41  1  0
  1 42  1  0
  1 43  1  0
  2 44  1  0
  2 45  1  0
  7 46  1  0
  8 47  1  0
 10 48  1  0
 19 49  1  0
 20 50  1  0
 23 51  1  0
 23 52  1  0
 23 53  1  0
 24 54  1  0
 25 55  1  0
 26 56  1  0
 29 57  1  0
 30 58  1  0
 33 59  1  0
 33 60  1  0
 33 61  1  0
 34 62  1  0
 35 63  1  0
 38 64  1  0
 38 65  1  0
 39 66  1  0
 40 67  1  0
M  END
>  <Binding energies>  (1) 
[-8.77]

>  <Ligand effiencies>  (1) 
[-0.203953488372093]

>  <Interactions>  (1) 
["V-B:TYR:539:CD2:9842, V-B:TYR:539:CE2:9844, V-B:MET:535:CE:9803, H-B:GLU:543:OE1:9877, H-B:GLU:543:OE2:9878, V-B:GLU:543:CD:9876, V-A:GLU:543:CD:4903, H-B:GLY:454:N:9017, V-B:ILE:369:CD1:8206, H-B:TYR:539:N:9838, V-B:TYR:539:CZ:9845, V-B:ARG:545:CZ:9894, V-A:GLU:543:CB:4901, V-B:HIS:456:CE1:9037, V-B:ARG:545:CG:9890, V-B:ARG:545:CD:9891, V-A:HIS:456:CE1:4064, V-B:TYR:539:CE1:9843, V-A:LYS:547:CE:4945, H-A:LYS:547:NZ:4946, V-A:GLU:543:C:4897, V-A:GLY:544:C:4907, V-B:GLY:453:CA:9011, V-B:GLY:453:C:9009, H-B:TYR:539:OH:9846, H-A:LYS:534:NZ:4818, V-B:TYR:539:CD1:9841, V-B:TYR:539:CG:9840"]

$$$$
8b_Ghoteimi_2023
     RDKit          3D

 54 58  0  0  0  0  0  0  0  0999 V2000
  128.0920  130.5180   74.6450 C   0  0  0  0  0  0  0  0  0  0  0  0
  128.9540  129.4400   74.2940 O   0  0  0  0  0  0  0  0  0  0  0  0
  129.0640  129.0700   72.9670 C   0  0  0  0  0  0  0  0  0  0  0  0
  127.9330  128.5040   72.3820 C   0  0  0  0  0  0  0  0  0  0  0  0
  127.9510  128.1010   71.0510 C   0  0  0  0  0  0  0  0  0  0  0  0
  129.1050  128.2530   70.2680 C   0  0  0  0  0  0  0  0  0  0  0  0
  129.1310  127.8190   68.8370 C   0  0  0  0  0  0  0  0  0  0  0  0
  128.5570  128.5920   67.8220 C   0  0  0  0  0  0  0  0  0  0  0  0
  128.5950  128.1640   66.4920 C   0  0  0  0  0  0  0  0  0  0  0  0
  127.9690  129.0010   65.4420 C   0  0  0  0  0  0  0  0  0  0  0  0
  126.7350  128.6400   64.8980 C   0  0  0  0  0  0  0  0  0  0  0  0
  126.1430  129.4340   63.9190 C   0  0  0  0  0  0  0  0  0  0  0  0
  126.7740  130.5940   63.4690 C   0  0  0  0  0  0  0  0  0  0  0  0
  126.1130  131.3200   62.4960 O   0  0  0  0  0  0  0  0  0  0  0  0
  124.8470  130.8640   62.0310 C   0  0  0  0  0  0  0  0  0  0  0  0
  128.0170  130.9520   64.0150 C   0  0  0  0  0  0  0  0  0  0  0  0
  128.6070  130.1590   64.9940 C   0  0  0  0  0  0  0  0  0  0  0  0
  129.2400  126.9310   66.2040 C   0  0  0  0  0  0  0  0  0  0  0  0
  129.4640  126.2090   64.9790 C   0  0  0  0  0  0  0  0  0  0  0  0
  129.0320  126.6740   63.7630 N   0  0  0  0  0  0  0  0  0  0  0  0
  130.1610  125.0030   65.1490 C   0  0  0  0  0  0  0  0  0  0  0  0
  130.5610  124.0300   64.1310 C   0  0  0  0  0  0  0  0  0  0  0  0
  131.7400  123.6820   64.0210 O   0  0  0  0  0  0  0  0  0  0  0  0
  129.5580  123.5630   63.3460 N   0  0  0  0  0  0  0  0  0  0  0  0
  129.6520  122.6390   62.3140 C   0  0  0  0  0  0  0  0  0  0  0  0
  130.8650  122.1170   61.8670 C   0  0  0  0  0  0  0  0  0  0  0  0
  130.5300  121.2550   60.8480 C   0  0  0  0  0  0  0  0  0  0  0  0
  129.1860  121.2550   60.6910 O   0  0  0  0  0  0  0  0  0  0  0  0
  128.6390  122.1350   61.6270 N   0  0  0  0  0  0  0  0  0  0  0  0
  130.5600  124.7320   66.8470 S   0  0  0  0  0  0  0  0  0  0  0  0
  129.7930  126.2320   67.3150 C   0  0  0  0  0  0  0  0  0  0  0  0
  129.7540  126.6370   68.5840 N   0  0  0  0  0  0  0  0  0  0  0  0
  130.2380  128.8250   70.8620 C   0  0  0  0  0  0  0  0  0  0  0  0
  130.2230  129.2290   72.1940 C   0  0  0  0  0  0  0  0  0  0  0  0
  128.0297  130.5959   75.7405 H   0  0  0  0  0  0  0  0  0  0  0  0
  128.4917  131.4563   74.2328 H   0  0  0  0  0  0  0  0  0  0  0  0
  127.0888  130.3344   74.2328 H   0  0  0  0  0  0  0  0  0  0  0  0
  127.0177  128.3748   72.9783 H   0  0  0  0  0  0  0  0  0  0  0  0
  127.0482  127.6571   70.6063 H   0  0  0  0  0  0  0  0  0  0  0  0
  128.0709  129.5462   68.0732 H   0  0  0  0  0  0  0  0  0  0  0  0
  126.2292  127.7263   65.2434 H   0  0  0  0  0  0  0  0  0  0  0  0
  125.1695  129.1440   63.4969 H   0  0  0  0  0  0  0  0  0  0  0  0
  124.2023  130.6318   62.8915 H   0  0  0  0  0  0  0  0  0  0  0  0
  124.3759  131.6490   61.4211 H   0  0  0  0  0  0  0  0  0  0  0  0
  124.9847  129.9590   61.4211 H   0  0  0  0  0  0  0  0  0  0  0  0
  128.5262  131.8629   63.6674 H   0  0  0  0  0  0  0  0  0  0  0  0
  129.5810  130.4459   65.4171 H   0  0  0  0  0  0  0  0  0  0  0  0
  129.4780  127.4610   63.3120 H   0  0  0  0  0  0  0  0  0  0  0  0
  128.2530  126.2500   63.2790 H   0  0  0  0  0  0  0  0  0  0  0  0
  128.6310  123.9200   63.5270 H   0  0  0  0  0  0  0  0  0  0  0  0
  131.8719  122.3449   62.2467 H   0  0  0  0  0  0  0  0  0  0  0  0
  131.2413  120.6608   60.2556 H   0  0  0  0  0  0  0  0  0  0  0  0
  131.1534  128.9568   70.2665 H   0  0  0  0  0  0  0  0  0  0  0  0
  131.1236  129.6746   72.6417 H   0  0  0  0  0  0  0  0  0  0  0  0
  1  2  1  0
  2  3  1  0
  3  4  2  0
  4  5  1  0
  5  6  2  0
  6  7  1  0
  7  8  2  0
  8  9  1  0
  9 10  1  0
 10 11  2  0
 11 12  1  0
 12 13  2  0
 13 14  1  0
 14 15  1  0
 13 16  1  0
 16 17  2  0
  9 18  2  0
 18 19  1  0
 19 20  1  0
 19 21  2  0
 21 22  1  0
 22 23  2  0
 22 24  1  0
 24 25  1  0
 25 26  1  0
 26 27  2  0
 27 28  1  0
 28 29  1  0
 21 30  1  0
 30 31  1  0
 31 32  2  0
  6 33  1  0
 33 34  2  0
 34  3  1  0
 32  7  1  0
 17 10  1  0
 31 18  1  0
 29 25  2  0
  1 35  1  0
  1 36  1  0
  1 37  1  0
  4 38  1  0
  5 39  1  0
  8 40  1  0
 11 41  1  0
 12 42  1  0
 15 43  1  0
 15 44  1  0
 15 45  1  0
 16 46  1  0
 17 47  1  0
 20 48  1  0
 20 49  1  0
 24 50  1  0
 26 51  1  0
 27 52  1  0
 33 53  1  0
 34 54  1  0
M  END
>  <Binding energies>  (1) 
[-7.89]

>  <Ligand effiencies>  (1) 
[-0.21324324324324323]

>  <Interactions>  (1) 
["V-B:ALA:541:CB:9860, H-B:ALA:541:N:9859, H-B:GLU:543:OE1:9877, H-B:GLU:543:OE2:9878, V-B:GLU:543:CD:9876, V-A:GLU:543:CG:4902, V-A:GLU:543:CD:4903, H-A:TYR:484:OH:4343, V-B:GLU:543:CG:9875, V-A:TYR:484:CE1:4340, V-B:HIS:456:CE1:9037, V-A:TYR:484:CZ:4342, V-A:HIS:456:CE1:4064, H-A:HIS:456:NE2:4065, V-B:GLU:543:CB:9874, V-A:LYS:547:CE:4945, H-A:LYS:547:NZ:4946, V-B:HIS:456:CD2:9035, V-A:GLU:543:C:4897, V-A:GLY:544:C:4907, H-A:GLU:543:OE1:4904, V-B:HIS:456:CG:9033"]

$$$$
8c_Ghoteimi_2023
     RDKit          3D

 54 58  0  0  0  0  0  0  0  0999 V2000
  128.0760  130.5140   74.5800 C   0  0  0  0  0  0  0  0  0  0  0  0
  128.9260  129.4300   74.2270 O   0  0  0  0  0  0  0  0  0  0  0  0
  129.0380  129.0650   72.8980 C   0  0  0  0  0  0  0  0  0  0  0  0
  127.9060  128.5040   72.3090 C   0  0  0  0  0  0  0  0  0  0  0  0
  127.9280  128.1050   70.9760 C   0  0  0  0  0  0  0  0  0  0  0  0
  129.0830  128.2580   70.1960 C   0  0  0  0  0  0  0  0  0  0  0  0
  129.1130  127.8270   68.7640 C   0  0  0  0  0  0  0  0  0  0  0  0
  128.5390  128.6000   67.7500 C   0  0  0  0  0  0  0  0  0  0  0  0
  128.5840  128.1750   66.4170 C   0  0  0  0  0  0  0  0  0  0  0  0
  127.9590  129.0130   65.3680 C   0  0  0  0  0  0  0  0  0  0  0  0
  126.7120  128.6660   64.8410 C   0  0  0  0  0  0  0  0  0  0  0  0
  126.1220  129.4600   63.8630 C   0  0  0  0  0  0  0  0  0  0  0  0
  126.7660  130.6050   63.3930 C   0  0  0  0  0  0  0  0  0  0  0  0
  126.1040  131.3330   62.4230 O   0  0  0  0  0  0  0  0  0  0  0  0
  124.7590  130.9990   62.1020 C   0  0  0  0  0  0  0  0  0  0  0  0
  128.0210  130.9490   63.9210 C   0  0  0  0  0  0  0  0  0  0  0  0
  128.6100  130.1560   64.9010 C   0  0  0  0  0  0  0  0  0  0  0  0
  129.2320  126.9450   66.1290 C   0  0  0  0  0  0  0  0  0  0  0  0
  129.4610  126.2260   64.9040 C   0  0  0  0  0  0  0  0  0  0  0  0
  129.0280  126.6910   63.6870 N   0  0  0  0  0  0  0  0  0  0  0  0
  130.1600  125.0200   65.0740 C   0  0  0  0  0  0  0  0  0  0  0  0
  130.5640  124.0490   64.0550 C   0  0  0  0  0  0  0  0  0  0  0  0
  131.7330  123.6660   63.9770 O   0  0  0  0  0  0  0  0  0  0  0  0
  129.5730  123.6240   63.2310 N   0  0  0  0  0  0  0  0  0  0  0  0
  129.6860  122.7120   62.1920 C   0  0  0  0  0  0  0  0  0  0  0  0
  129.2270  122.8250   60.9640 N   0  0  0  0  0  0  0  0  0  0  0  0
  129.5200  121.7650   60.2380 C   0  0  0  0  0  0  0  0  0  0  0  0
  130.2330  120.7570   60.8780 C   0  0  0  0  0  0  0  0  0  0  0  0
  130.5310  121.2340   62.5240 S   0  0  0  0  0  0  0  0  0  0  0  0
  130.5580  124.7480   66.7710 S   0  0  0  0  0  0  0  0  0  0  0  0
  129.7850  126.2440   67.2400 C   0  0  0  0  0  0  0  0  0  0  0  0
  129.7420  126.6470   68.5100 N   0  0  0  0  0  0  0  0  0  0  0  0
  130.2160  128.8250   70.7950 C   0  0  0  0  0  0  0  0  0  0  0  0
  130.1980  129.2250   72.1280 C   0  0  0  0  0  0  0  0  0  0  0  0
  128.0157  130.5909   75.6756 H   0  0  0  0  0  0  0  0  0  0  0  0
  128.4842  131.4490   74.1687 H   0  0  0  0  0  0  0  0  0  0  0  0
  127.0706  130.3406   74.1687 H   0  0  0  0  0  0  0  0  0  0  0  0
  126.9886  128.3757   72.9022 H   0  0  0  0  0  0  0  0  0  0  0  0
  127.0260  127.6631   70.5277 H   0  0  0  0  0  0  0  0  0  0  0  0
  128.0474  129.5512   68.0022 H   0  0  0  0  0  0  0  0  0  0  0  0
  126.1961  127.7633   65.2002 H   0  0  0  0  0  0  0  0  0  0  0  0
  125.1383  129.1825   63.4563 H   0  0  0  0  0  0  0  0  0  0  0  0
  124.1852  130.8565   63.0296 H   0  0  0  0  0  0  0  0  0  0  0  0
  124.3094  131.8128   61.5141 H   0  0  0  0  0  0  0  0  0  0  0  0
  124.7423  130.0694   61.5141 H   0  0  0  0  0  0  0  0  0  0  0  0
  128.5402  131.8485   63.5586 H   0  0  0  0  0  0  0  0  0  0  0  0
  129.5935  130.4312   65.3097 H   0  0  0  0  0  0  0  0  0  0  0  0
  129.0680  127.6730   63.4540 H   0  0  0  0  0  0  0  0  0  0  0  0
  128.6540  126.0700   62.9840 H   0  0  0  0  0  0  0  0  0  0  0  0
  128.6500  124.0020   63.3850 H   0  0  0  0  0  0  0  0  0  0  0  0
  129.2173  121.6820   59.1837 H   0  0  0  0  0  0  0  0  0  0  0  0
  130.5561  119.8115   60.4180 H   0  0  0  0  0  0  0  0  0  0  0  0
  131.1336  128.9559   70.2026 H   0  0  0  0  0  0  0  0  0  0  0  0
  131.0979  129.6685   72.5790 H   0  0  0  0  0  0  0  0  0  0  0  0
  1  2  1  0
  2  3  1  0
  3  4  2  0
  4  5  1  0
  5  6  2  0
  6  7  1  0
  7  8  2  0
  8  9  1  0
  9 10  1  0
 10 11  2  0
 11 12  1  0
 12 13  2  0
 13 14  1  0
 14 15  1  0
 13 16  1  0
 16 17  2  0
  9 18  2  0
 18 19  1  0
 19 20  1  0
 19 21  2  0
 21 22  1  0
 22 23  2  0
 22 24  1  0
 24 25  1  0
 25 26  2  0
 26 27  1  0
 27 28  2  0
 28 29  1  0
 21 30  1  0
 30 31  1  0
 31 32  2  0
  6 33  1  0
 33 34  2  0
 34  3  1  0
 32  7  1  0
 17 10  1  0
 31 18  1  0
 29 25  1  0
  1 35  1  0
  1 36  1  0
  1 37  1  0
  4 38  1  0
  5 39  1  0
  8 40  1  0
 11 41  1  0
 12 42  1  0
 15 43  1  0
 15 44  1  0
 15 45  1  0
 16 46  1  0
 17 47  1  0
 20 48  1  0
 20 49  1  0
 24 50  1  0
 27 51  1  0
 28 52  1  0
 33 53  1  0
 34 54  1  0
M  END
>  <Binding energies>  (1) 
[-8.01]

>  <Ligand effiencies>  (1) 
[-0.21648648648648647]

>  <Interactions>  (1) 
["V-A:LEU:475:CD2:4254, V-B:ALA:541:CB:9860, H-B:GLU:543:OE1:9877, H-B:GLU:543:OE2:9878, V-B:GLU:543:CD:9876, V-A:GLU:543:CG:4902, V-A:GLU:543:CD:4903, H-A:TYR:484:OH:4343, V-B:GLU:543:CG:9875, V-A:TYR:484:CE1:4340, V-B:HIS:456:CE1:9037, V-A:TYR:484:CZ:4342, V-A:HIS:456:CE1:4064, H-A:HIS:456:NE2:4065, V-B:GLU:543:CB:9874, V-A:LYS:547:CE:4945, H-A:LYS:547:NZ:4946, V-B:HIS:456:CD2:9035, V-A:GLU:543:C:4897, V-A:GLY:544:C:4907, V-B:HIS:456:CG:9033"]

$$$$
8d_Ghoteimi_2023
     RDKit          3D

 50 53  0  0  0  0  0  0  0  0999 V2000
  126.3710  126.4370   61.0400 C   0  0  0  0  0  0  0  0  0  0  0  0
  127.0850  127.5650   61.5270 O   0  0  0  0  0  0  0  0  0  0  0  0
  126.5640  128.3480   62.5070 C   0  0  0  0  0  0  0  0  0  0  0  0
  125.6390  129.1460   62.3340 O   0  0  0  0  0  0  0  0  0  0  0  0
  127.2220  128.1480   63.8160 C   0  0  0  0  0  0  0  0  0  0  0  0
  126.5510  128.9020   65.2640 S   0  0  0  0  0  0  0  0  0  0  0  0
  127.8170  128.2170   66.2550 C   0  0  0  0  0  0  0  0  0  0  0  0
  127.8780  128.4360   67.5690 N   0  0  0  0  0  0  0  0  0  0  0  0
  128.9040  127.8540   68.2470 C   0  0  0  0  0  0  0  0  0  0  0  0
  128.9520  128.1190   69.7180 C   0  0  0  0  0  0  0  0  0  0  0  0
  127.8400  127.8710   70.5360 C   0  0  0  0  0  0  0  0  0  0  0  0
  127.8890  128.1200   71.9040 C   0  0  0  0  0  0  0  0  0  0  0  0
  129.0490  128.6240   72.4920 C   0  0  0  0  0  0  0  0  0  0  0  0
  129.0070  128.8400   73.8550 O   0  0  0  0  0  0  0  0  0  0  0  0
  128.2080  129.9010   74.3660 C   0  0  0  0  0  0  0  0  0  0  0  0
  130.1670  128.8740   71.6840 C   0  0  0  0  0  0  0  0  0  0  0  0
  130.1140  128.6230   70.3150 C   0  0  0  0  0  0  0  0  0  0  0  0
  129.8660  127.0650   67.6100 C   0  0  0  0  0  0  0  0  0  0  0  0
  129.8010  126.8330   66.2330 C   0  0  0  0  0  0  0  0  0  0  0  0
  130.8300  125.9840   65.5880 C   0  0  0  0  0  0  0  0  0  0  0  0
  132.1860  126.2420   65.8020 C   0  0  0  0  0  0  0  0  0  0  0  0
  133.1540  125.4500   65.1900 C   0  0  0  0  0  0  0  0  0  0  0  0
  132.7830  124.3900   64.3610 C   0  0  0  0  0  0  0  0  0  0  0  0
  133.8100  123.6600   63.7960 O   0  0  0  0  0  0  0  0  0  0  0  0
  134.2430  123.9760   62.4780 C   0  0  0  0  0  0  0  0  0  0  0  0
  131.4180  124.1310   64.1510 C   0  0  0  0  0  0  0  0  0  0  0  0
  130.4510  124.9250   64.7640 C   0  0  0  0  0  0  0  0  0  0  0  0
  128.7360  127.4280   65.5060 C   0  0  0  0  0  0  0  0  0  0  0  0
  128.3710  127.4070   64.1160 C   0  0  0  0  0  0  0  0  0  0  0  0
  129.0950  126.7220   63.1720 N   0  0  0  0  0  0  0  0  0  0  0  0
  125.9967  125.8456   61.8886 H   0  0  0  0  0  0  0  0  0  0  0  0
  125.5229  126.7765   60.4272 H   0  0  0  0  0  0  0  0  0  0  0  0
  127.0407  125.8157   60.4272 H   0  0  0  0  0  0  0  0  0  0  0  0
  126.9162  127.4741   70.0898 H   0  0  0  0  0  0  0  0  0  0  0  0
  127.0054  127.9177   72.5271 H   0  0  0  0  0  0  0  0  0  0  0  0
  128.2262  129.8769   75.4656 H   0  0  0  0  0  0  0  0  0  0  0  0
  128.6076  130.8634   74.0137 H   0  0  0  0  0  0  0  0  0  0  0  0
  127.1727  129.7828   74.0137 H   0  0  0  0  0  0  0  0  0  0  0  0
  131.0898  129.2700   72.1330 H   0  0  0  0  0  0  0  0  0  0  0  0
  130.9988  128.8238   69.6931 H   0  0  0  0  0  0  0  0  0  0  0  0
  130.6829  126.6219   68.1985 H   0  0  0  0  0  0  0  0  0  0  0  0
  132.4899  127.0729   66.4556 H   0  0  0  0  0  0  0  0  0  0  0  0
  134.2198  125.6614   65.3612 H   0  0  0  0  0  0  0  0  0  0  0  0
  135.1306  124.6238   62.5291 H   0  0  0  0  0  0  0  0  0  0  0  0
  134.4960  123.0488   61.9430 H   0  0  0  0  0  0  0  0  0  0  0  0
  133.4371  124.4998   61.9430 H   0  0  0  0  0  0  0  0  0  0  0  0
  131.1118  123.2985   63.5004 H   0  0  0  0  0  0  0  0  0  0  0  0
  129.3841  124.7155   64.5972 H   0  0  0  0  0  0  0  0  0  0  0  0
  128.6420  126.2300   62.4150 H   0  0  0  0  0  0  0  0  0  0  0  0
  130.1040  126.6910   63.1980 H   0  0  0  0  0  0  0  0  0  0  0  0
  1  2  1  0
  2  3  1  0
  3  4  2  0
  3  5  1  0
  5  6  1  0
  6  7  1  0
  7  8  2  0
  8  9  1  0
  9 10  1  0
 10 11  2  0
 11 12  1  0
 12 13  2  0
 13 14  1  0
 14 15  1  0
 13 16  1  0
 16 17  2  0
  9 18  2  0
 18 19  1  0
 19 20  1  0
 20 21  2  0
 21 22  1  0
 22 23  2  0
 23 24  1  0
 24 25  1  0
 23 26  1  0
 26 27  2  0
 19 28  2  0
 28 29  1  0
 29 30  1  0
 29  5  2  0
 28  7  1  0
 17 10  1  0
 27 20  1  0
  1 31  1  0
  1 32  1  0
  1 33  1  0
 11 34  1  0
 12 35  1  0
 15 36  1  0
 15 37  1  0
 15 38  1  0
 16 39  1  0
 17 40  1  0
 18 41  1  0
 21 42  1  0
 22 43  1  0
 25 44  1  0
 25 45  1  0
 25 46  1  0
 26 47  1  0
 27 48  1  0
 30 49  1  0
 30 50  1  0
M  END
>  <Binding energies>  (1) 
[-6.58]

>  <Ligand effiencies>  (1) 
[-0.205625]

>  <Interactions>  (1) 
["H-B:GLU:543:OE2:9878, V-B:GLU:543:CD:9876, V-A:ASP:366:CG:3208, V-A:GLU:543:CD:4903, H-A:TYR:484:OH:4343, V-B:GLU:543:CG:9875, V-B:ASP:366:CG:8180, V-B:HIS:456:CE1:9037, V-A:HIS:456:CE1:4064, H-B:LYS:547:NZ:9919, H-A:LYS:547:NZ:4946, V-B:HIS:456:CD2:9035, V-A:GLU:543:C:4897, V-A:ILE:369:CD1:3234, V-A:GLY:544:C:4907, H-A:GLU:543:OE1:4904, H-B:ARG:545:NH2:9896, V-A:ARG:545:CZ:4921, H-A:GLY:454:N:4045, V-A:GLY:453:C:4037"]

$$$$
9a_Ghoteimi_2023
     RDKit          3D

 85 91  0  0  0  0  0  0  0  0999 V2000
  127.4920  136.8350   61.4970 C   0  0  0  0  0  0  0  0  0  0  0  0
  127.9100  135.4060   61.8580 C   0  0  0  0  0  0  0  0  0  0  0  0
  127.1910  134.4840   61.0490 O   0  0  0  0  0  0  0  0  0  0  0  0
  126.1240  133.8030   61.5410 C   0  0  0  0  0  0  0  0  0  0  0  0
  124.9530  134.0800   61.2630 O   0  0  0  0  0  0  0  0  0  0  0  0
  126.5090  132.6830   62.4640 C   0  0  0  0  0  0  0  0  0  0  0  0
  127.8650  132.4400   62.7190 C   0  0  0  0  0  0  0  0  0  0  0  0
  128.2540  131.4080   63.5680 C   0  0  0  0  0  0  0  0  0  0  0  0
  127.2980  130.5980   64.1810 C   0  0  0  0  0  0  0  0  0  0  0  0
  127.8060  129.5870   65.0180 N   0  0  0  0  0  0  0  0  0  0  0  0
  128.4120  129.6700   66.2290 C   0  0  0  0  0  0  0  0  0  0  0  0
  128.6240  130.7260   66.8250 O   0  0  0  0  0  0  0  0  0  0  0  0
  128.8110  128.3880   66.8190 C   0  0  0  0  0  0  0  0  0  0  0  0
  128.6150  128.1050   68.5490 S   0  0  0  0  0  0  0  0  0  0  0  0
  129.2620  126.4870   68.4030 C   0  0  0  0  0  0  0  0  0  0  0  0
  129.3630  125.6780   69.4560 N   0  0  0  0  0  0  0  0  0  0  0  0
  129.8680  124.4350   69.2330 C   0  0  0  0  0  0  0  0  0  0  0  0
  129.9620  123.5410   70.4270 C   0  0  0  0  0  0  0  0  0  0  0  0
  129.4420  122.2420   70.3850 C   0  0  0  0  0  0  0  0  0  0  0  0
  129.5260  121.4020   71.4920 C   0  0  0  0  0  0  0  0  0  0  0  0
  130.1470  121.8250   72.6780 C   0  0  0  0  0  0  0  0  0  0  0  0
  130.2230  120.9990   73.8050 N   0  0  0  0  0  0  0  0  0  0  0  0
  130.8900  119.6820   73.7530 C   0  0  0  0  0  0  0  0  0  0  0  0
  130.5650  118.7720   74.9560 C   0  0  0  0  0  0  0  0  0  0  0  0
  130.8600  119.4440   76.1690 O   0  0  0  0  0  0  0  0  0  0  0  0
  130.0960  120.6330   76.3030 C   0  0  0  0  0  0  0  0  0  0  0  0
  130.4140  121.5970   75.1420 C   0  0  0  0  0  0  0  0  0  0  0  0
  130.6540  123.1320   72.7190 C   0  0  0  0  0  0  0  0  0  0  0  0
  130.5660  123.9720   71.6130 C   0  0  0  0  0  0  0  0  0  0  0  0
  130.2930  124.0190   67.9700 C   0  0  0  0  0  0  0  0  0  0  0  0
  130.2070  124.8730   66.8650 C   0  0  0  0  0  0  0  0  0  0  0  0
  130.7070  124.3930   65.5510 C   0  0  0  0  0  0  0  0  0  0  0  0
  131.7950  125.0150   64.9340 C   0  0  0  0  0  0  0  0  0  0  0  0
  132.2710  124.5550   63.7100 C   0  0  0  0  0  0  0  0  0  0  0  0
  131.6820  123.4480   63.0770 C   0  0  0  0  0  0  0  0  0  0  0  0
  132.1360  122.9750   61.8430 N   0  0  0  0  0  0  0  0  0  0  0  0
  132.4860  123.9440   60.7860 C   0  0  0  0  0  0  0  0  0  0  0  0
  133.3150  123.3260   59.6410 C   0  0  0  0  0  0  0  0  0  0  0  0
  132.6340  122.2070   59.0960 O   0  0  0  0  0  0  0  0  0  0  0  0
  132.4170  121.1990   60.0710 C   0  0  0  0  0  0  0  0  0  0  0  0
  131.5630  121.7610   61.2280 C   0  0  0  0  0  0  0  0  0  0  0  0
  130.5930  122.8300   63.7080 C   0  0  0  0  0  0  0  0  0  0  0  0
  130.1140  123.2930   64.9290 C   0  0  0  0  0  0  0  0  0  0  0  0
  129.6470  126.1670   67.0680 C   0  0  0  0  0  0  0  0  0  0  0  0
  129.3560  127.2640   66.1790 C   0  0  0  0  0  0  0  0  0  0  0  0
  129.5820  127.1990   64.8280 N   0  0  0  0  0  0  0  0  0  0  0  0
  125.9360  130.8360   63.9350 C   0  0  0  0  0  0  0  0  0  0  0  0
  125.5490  131.8680   63.0840 C   0  0  0  0  0  0  0  0  0  0  0  0
  127.3234  137.4116   62.4185 H   0  0  0  0  0  0  0  0  0  0  0  0
  128.2883  137.3119   60.9067 H   0  0  0  0  0  0  0  0  0  0  0  0
  126.5642  136.8076   60.9067 H   0  0  0  0  0  0  0  0  0  0  0  0
  128.9891  135.2841   61.6826 H   0  0  0  0  0  0  0  0  0  0  0  0
  127.6874  135.2153   62.9182 H   0  0  0  0  0  0  0  0  0  0  0  0
  128.6300  133.0713   62.2434 H   0  0  0  0  0  0  0  0  0  0  0  0
  129.3229  131.2299   63.7569 H   0  0  0  0  0  0  0  0  0  0  0  0
  127.6930  128.6540   64.6500 H   0  0  0  0  0  0  0  0  0  0  0  0
  128.9604  121.8800   69.4647 H   0  0  0  0  0  0  0  0  0  0  0  0
  129.0987  120.3899   71.4365 H   0  0  0  0  0  0  0  0  0  0  0  0
  130.5723  119.1683   72.8336 H   0  0  0  0  0  0  0  0  0  0  0  0
  131.9735  119.8702   73.7769 H   0  0  0  0  0  0  0  0  0  0  0  0
  129.4969  118.5098   74.9358 H   0  0  0  0  0  0  0  0  0  0  0  0
  131.1757  117.8593   74.8923 H   0  0  0  0  0  0  0  0  0  0  0  0
  129.0252  120.3820   76.2854 H   0  0  0  0  0  0  0  0  0  0  0  0
  130.3491  121.1197   77.2565 H   0  0  0  0  0  0  0  0  0  0  0  0
  129.7549  122.4735   75.2279 H   0  0  0  0  0  0  0  0  0  0  0  0
  131.4781  121.8624   75.2266 H   0  0  0  0  0  0  0  0  0  0  0  0
  131.1291  123.4992   73.6407 H   0  0  0  0  0  0  0  0  0  0  0  0
  130.9776  124.9904   71.6722 H   0  0  0  0  0  0  0  0  0  0  0  0
  130.7012  123.0056   67.8417 H   0  0  0  0  0  0  0  0  0  0  0  0
  132.2792  125.8751   65.4195 H   0  0  0  0  0  0  0  0  0  0  0  0
  133.1200  125.0652   63.2316 H   0  0  0  0  0  0  0  0  0  0  0  0
  131.5554  124.3505   60.3631 H   0  0  0  0  0  0  0  0  0  0  0  0
  133.1055  124.7244   61.2520 H   0  0  0  0  0  0  0  0  0  0  0  0
  133.4661  124.0790   58.8535 H   0  0  0  0  0  0  0  0  0  0  0  0
  134.2877  122.9983   60.0366 H   0  0  0  0  0  0  0  0  0  0  0  0
  131.8909  120.3511   59.6080 H   0  0  0  0  0  0  0  0  0  0  0  0
  133.3870  120.8638   60.4670 H   0  0  0  0  0  0  0  0  0  0  0  0
  130.5643  122.0060   60.8373 H   0  0  0  0  0  0  0  0  0  0  0  0
  131.5252  120.9877   62.0094 H   0  0  0  0  0  0  0  0  0  0  0  0
  130.1098  121.9652   63.2298 H   0  0  0  0  0  0  0  0  0  0  0  0
  129.2618  122.7887   65.4079 H   0  0  0  0  0  0  0  0  0  0  0  0
  128.9750  126.6770   64.2110 H   0  0  0  0  0  0  0  0  0  0  0  0
  130.3660  127.6730   64.4020 H   0  0  0  0  0  0  0  0  0  0  0  0
  125.1732  130.2058   64.4156 H   0  0  0  0  0  0  0  0  0  0  0  0
  124.4800  132.0464   62.8957 H   0  0  0  0  0  0  0  0  0  0  0  0
  1  2  1  0
  2  3  1  0
  3  4  1  0
  4  5  2  0
  4  6  1  0
  6  7  2  0
  7  8  1  0
  8  9  2  0
  9 10  1  0
 10 11  1  0
 11 12  2  0
 11 13  1  0
 13 14  1  0
 14 15  1  0
 15 16  2  0
 16 17  1  0
 17 18  1  0
 18 19  2  0
 19 20  1  0
 20 21  2  0
 21 22  1  0
 22 23  1  0
 23 24  1  0
 24 25  1  0
 25 26  1  0
 26 27  1  0
 21 28  1  0
 28 29  2  0
 17 30  2  0
 30 31  1  0
 31 32  1  0
 32 33  2  0
 33 34  1  0
 34 35  2  0
 35 36  1  0
 36 37  1  0
 37 38  1  0
 38 39  1  0
 39 40  1  0
 40 41  1  0
 35 42  1  0
 42 43  2  0
 31 44  2  0
 44 45  1  0
 45 46  1  0
  9 47  1  0
 47 48  2  0
 48  6  1  0
 45 13  2  0
 44 15  1  0
 29 18  1  0
 43 32  1  0
 27 22  1  0
 41 36  1  0
  1 49  1  0
  1 50  1  0
  1 51  1  0
  2 52  1  0
  2 53  1  0
  7 54  1  0
  8 55  1  0
 10 56  1  0
 19 57  1  0
 20 58  1  0
 23 59  1  0
 23 60  1  0
 24 61  1  0
 24 62  1  0
 26 63  1  0
 26 64  1  0
 27 65  1  0
 27 66  1  0
 28 67  1  0
 29 68  1  0
 30 69  1  0
 33 70  1  0
 34 71  1  0
 37 72  1  0
 37 73  1  0
 38 74  1  0
 38 75  1  0
 40 76  1  0
 40 77  1  0
 41 78  1  0
 41 79  1  0
 42 80  1  0
 43 81  1  0
 46 82  1  0
 46 83  1  0
 47 84  1  0
 48 85  1  0
M  END
>  <Binding energies>  (1) 
[-9.47]

>  <Ligand effiencies>  (1) 
[-0.18568627450980393]

>  <Interactions>  (1) 
["V-B:TYR:539:CD2:9842, V-A:LEU:475:CD2:4254, V-B:TYR:539:CE2:9844, H-B:GLU:543:OE2:9878, V-B:GLU:543:CD:9876, V-A:GLU:543:CG:4902, V-A:TYR:539:CE2:4871, H-A:GLU:543:OE2:4905, V-A:ASP:366:CG:3208, V-A:GLU:543:CD:4903, V-B:GLU:543:CG:9875, V-A:TYR:484:CE1:4340, V-B:LEU:475:CD2:9226, V-B:TRP:381:CH2:8339, V-A:ALA:541:CB:4887, V-B:LEU:475:CD1:9225, V-A:GLU:543:CB:4901, V-B:HIS:456:CE1:9037, H-B:TYR:484:OH:9315, V-A:TYR:484:CZ:4342, V-B:GLU:543:CA:9872, V-A:HIS:456:CE1:4064, H-A:HIS:456:NE2:4065, V-B:GLU:543:CB:9874, V-A:HIS:456:CG:4061, V-A:ASP:473:CG:4235, V-B:GLU:543:C:9870, V-A:ILE:369:CD1:3234, V-A:ILE:369:CG2:3232, H-A:GLU:543:OE1:4904, V-A:TYR:484:CB:4336, V-A:TYR:484:CG:4337, V-A:ASP:473:CB:4234, V-B:TRP:381:CZ2:8337, V-B:PRO:482:CB:9293, V-B:TRP:381:CZ3:8338, V-A:HIS:456:CD2:4063, V-B:TRP:381:CE2:8334, V-B:PRO:482:CG:9294, V-A:TYR:484:CD1:4338, H-A:LYS:471:NZ:4216"]

$$$$
9b_Ghoteimi_2023
     RDKit          3D

 72 78  0  0  0  0  0  0  0  0999 V2000
  128.7720  129.2600   58.8070 N   0  0  0  0  0  0  0  0  0  0  0  0
  128.9710  129.9400   59.9820 C   0  0  0  0  0  0  0  0  0  0  0  0
  129.3620  131.2860   60.0400 C   0  0  0  0  0  0  0  0  0  0  0  0
  129.6060  132.2150   58.9340 C   0  0  0  0  0  0  0  0  0  0  0  0
  129.1010  133.3400   58.9340 O   0  0  0  0  0  0  0  0  0  0  0  0
  130.4020  131.7440   57.9420 N   0  0  0  0  0  0  0  0  0  0  0  0
  130.7860  132.4010   56.7790 C   0  0  0  0  0  0  0  0  0  0  0  0
  131.9530  132.0930   56.0810 C   0  0  0  0  0  0  0  0  0  0  0  0
  131.9640  132.9530   55.0070 C   0  0  0  0  0  0  0  0  0  0  0  0
  130.8600  133.7370   55.0560 O   0  0  0  0  0  0  0  0  0  0  0  0
  130.1220  133.3780   56.1840 N   0  0  0  0  0  0  0  0  0  0  0  0
  129.5540  131.8240   61.7090 S   0  0  0  0  0  0  0  0  0  0  0  0
  129.1280  130.2410   62.3150 C   0  0  0  0  0  0  0  0  0  0  0  0
  129.1150  129.9740   63.6200 N   0  0  0  0  0  0  0  0  0  0  0  0
  128.7870  128.7070   63.9860 C   0  0  0  0  0  0  0  0  0  0  0  0
  128.8010  128.4280   65.4540 C   0  0  0  0  0  0  0  0  0  0  0  0
  128.8890  127.1180   65.9410 C   0  0  0  0  0  0  0  0  0  0  0  0
  128.8870  126.8630   67.3090 C   0  0  0  0  0  0  0  0  0  0  0  0
  128.7820  127.9080   68.2410 C   0  0  0  0  0  0  0  0  0  0  0  0
  128.7810  127.6670   69.6200 N   0  0  0  0  0  0  0  0  0  0  0  0
  128.9860  128.7600   70.5910 C   0  0  0  0  0  0  0  0  0  0  0  0
  128.6130  128.3840   72.0400 C   0  0  0  0  0  0  0  0  0  0  0  0
  129.3150  127.2170   72.4340 O   0  0  0  0  0  0  0  0  0  0  0  0
  128.9930  126.1120   71.6060 C   0  0  0  0  0  0  0  0  0  0  0  0
  129.3730  126.4170   70.1410 C   0  0  0  0  0  0  0  0  0  0  0  0
  128.7140  129.2180   67.7480 C   0  0  0  0  0  0  0  0  0  0  0  0
  128.7200  129.4740   66.3800 C   0  0  0  0  0  0  0  0  0  0  0  0
  128.4480  127.7240   63.0530 C   0  0  0  0  0  0  0  0  0  0  0  0
  128.4400  128.0070   61.6820 C   0  0  0  0  0  0  0  0  0  0  0  0
  128.0420  126.9360   60.7330 C   0  0  0  0  0  0  0  0  0  0  0  0
  128.9790  126.3900   59.8550 C   0  0  0  0  0  0  0  0  0  0  0  0
  128.6150  125.3730   58.9780 C   0  0  0  0  0  0  0  0  0  0  0  0
  127.3030  124.8740   58.9550 C   0  0  0  0  0  0  0  0  0  0  0  0
  126.9200  123.8430   58.0930 N   0  0  0  0  0  0  0  0  0  0  0  0
  125.5490  123.8310   57.5470 C   0  0  0  0  0  0  0  0  0  0  0  0
  125.1430  122.4640   56.9550 C   0  0  0  0  0  0  0  0  0  0  0  0
  126.0810  122.0640   55.9670 O   0  0  0  0  0  0  0  0  0  0  0  0
  127.3890  121.9400   56.5050 C   0  0  0  0  0  0  0  0  0  0  0  0
  127.8510  123.2910   57.0900 C   0  0  0  0  0  0  0  0  0  0  0  0
  126.3750  125.4180   59.8550 C   0  0  0  0  0  0  0  0  0  0  0  0
  126.7400  126.4360   60.7320 C   0  0  0  0  0  0  0  0  0  0  0  0
  128.8140  129.3180   61.2740 C   0  0  0  0  0  0  0  0  0  0  0  0
  129.5120  128.7340   58.3640 H   0  0  0  0  0  0  0  0  0  0  0  0
  127.8740  129.2620   58.3430 H   0  0  0  0  0  0  0  0  0  0  0  0
  130.7680  130.8100   58.0520 H   0  0  0  0  0  0  0  0  0  0  0  0
  132.7023  131.3284   56.3340 H   0  0  0  0  0  0  0  0  0  0  0  0
  132.7441  132.9970   54.2327 H   0  0  0  0  0  0  0  0  0  0  0  0
  128.9607  126.2794   65.2328 H   0  0  0  0  0  0  0  0  0  0  0  0
  128.9690  125.8258   67.6661 H   0  0  0  0  0  0  0  0  0  0  0  0
  130.0474  129.0482   70.5698 H   0  0  0  0  0  0  0  0  0  0  0  0
  128.3201  129.5830   70.2921 H   0  0  0  0  0  0  0  0  0  0  0  0
  128.8792  129.2135   72.7116 H   0  0  0  0  0  0  0  0  0  0  0  0
  127.5315  128.1911   72.0960 H   0  0  0  0  0  0  0  0  0  0  0  0
  129.5484  125.2266   71.9489 H   0  0  0  0  0  0  0  0  0  0  0  0
  127.9112  125.9218   71.6648 H   0  0  0  0  0  0  0  0  0  0  0  0
  130.4681  126.4984   70.0763 H   0  0  0  0  0  0  0  0  0  0  0  0
  128.9756  125.5942   69.5286 H   0  0  0  0  0  0  0  0  0  0  0  0
  128.6548  130.0588   68.4547 H   0  0  0  0  0  0  0  0  0  0  0  0
  128.6603  130.5124   66.0219 H   0  0  0  0  0  0  0  0  0  0  0  0
  128.1839  126.7142   63.4003 H   0  0  0  0  0  0  0  0  0  0  0  0
  130.0127  126.7662   59.8562 H   0  0  0  0  0  0  0  0  0  0  0  0
  129.3663  124.9538   58.2926 H   0  0  0  0  0  0  0  0  0  0  0  0
  124.8480  124.0838   58.3561 H   0  0  0  0  0  0  0  0  0  0  0  0
  125.5163  124.5649   56.7283 H   0  0  0  0  0  0  0  0  0  0  0  0
  125.1172  121.7126   57.7580 H   0  0  0  0  0  0  0  0  0  0  0  0
  124.1483  122.5518   56.4936 H   0  0  0  0  0  0  0  0  0  0  0  0
  127.3846  121.1810   57.3012 H   0  0  0  0  0  0  0  0  0  0  0  0
  128.0808  121.6383   55.7047 H   0  0  0  0  0  0  0  0  0  0  0  0
  128.8322  123.1478   57.5662 H   0  0  0  0  0  0  0  0  0  0  0  0
  127.8946  124.0083   56.2571 H   0  0  0  0  0  0  0  0  0  0  0  0
  125.3440  125.0349   59.8682 H   0  0  0  0  0  0  0  0  0  0  0  0
  125.9960  126.8489   61.4292 H   0  0  0  0  0  0  0  0  0  0  0  0
  1  2  1  0
  2  3  2  0
  3  4  1  0
  4  5  2  0
  4  6  1  0
  6  7  1  0
  7  8  1  0
  8  9  2  0
  9 10  1  0
 10 11  1  0
  3 12  1  0
 12 13  1  0
 13 14  2  0
 14 15  1  0
 15 16  1  0
 16 17  2  0
 17 18  1  0
 18 19  2  0
 19 20  1  0
 20 21  1  0
 21 22  1  0
 22 23  1  0
 23 24  1  0
 24 25  1  0
 19 26  1  0
 26 27  2  0
 15 28  2  0
 28 29  1  0
 29 30  1  0
 30 31  2  0
 31 32  1  0
 32 33  2  0
 33 34  1  0
 34 35  1  0
 35 36  1  0
 36 37  1  0
 37 38  1  0
 38 39  1  0
 33 40  1  0
 40 41  2  0
 29 42  2  0
 42  2  1  0
 11  7  2  0
 42 13  1  0
 27 16  1  0
 41 30  1  0
 25 20  1  0
 39 34  1  0
  1 43  1  0
  1 44  1  0
  6 45  1  0
  8 46  1  0
  9 47  1  0
 17 48  1  0
 18 49  1  0
 21 50  1  0
 21 51  1  0
 22 52  1  0
 22 53  1  0
 24 54  1  0
 24 55  1  0
 25 56  1  0
 25 57  1  0
 26 58  1  0
 27 59  1  0
 28 60  1  0
 31 61  1  0
 32 62  1  0
 35 63  1  0
 35 64  1  0
 36 65  1  0
 36 66  1  0
 38 67  1  0
 38 68  1  0
 39 69  1  0
 39 70  1  0
 40 71  1  0
 41 72  1  0
M  END
>  <Binding energies>  (1) 
[-9.21]

>  <Ligand effiencies>  (1) 
[-0.2046666666666667]

>  <Interactions>  (1) 
["V-B:TYR:539:C:9835, V-B:PRO:540:N:9852, V-B:PRO:540:CA:9851, V-B:MET:535:CE:9803, V-B:PRO:540:CB:9853, V-B:GLU:543:CD:9876, V-A:GLU:543:CG:4902, V-A:PRO:540:N:4879, V-A:PRO:540:CA:4878, V-A:PRO:540:CB:4880, V-A:LEU:363:CD1:3184, V-A:PRO:540:CD:4882, V-A:GLU:543:CD:4903, V-B:GLU:543:CG:9875, H-A:TYR:539:N:4865, H-B:TYR:539:N:9838, V-B:TYR:539:CA:9837, V-B:PRO:540:CD:9855, V-B:LEU:363:CD1:8156, V-A:ILE:538:CG2:4858, V-A:ILE:538:CA:4855, V-A:ILE:538:CB:4857, V-A:GLU:543:CB:4901, V-B:HIS:456:CE1:9037, V-A:HIS:456:CE1:4064, V-B:GLU:543:CB:9874, V-B:TYR:539:CE1:9843, H-B:LYS:547:NZ:9919, V-B:HIS:456:CD2:9035, V-B:PRO:540:CG:9854, V-B:TYR:539:CD1:9841, V-B:TYR:539:CG:9840, V-A:ILE:538:CD1:4860"]

$$$$
9c_Ghoteimi_2023
     RDKit          3D

 72 78  0  0  0  0  0  0  0  0999 V2000
  129.7540  127.3010   65.0260 N   0  0  0  0  0  0  0  0  0  0  0  0
  129.4460  127.3190   66.3630 C   0  0  0  0  0  0  0  0  0  0  0  0
  128.9380  128.4480   67.0240 C   0  0  0  0  0  0  0  0  0  0  0  0
  128.6240  129.7680   66.4680 C   0  0  0  0  0  0  0  0  0  0  0  0
  128.4270  130.7340   67.2090 O   0  0  0  0  0  0  0  0  0  0  0  0
  128.5650  129.8300   65.1150 N   0  0  0  0  0  0  0  0  0  0  0  0
  128.2750  130.9460   64.3430 C   0  0  0  0  0  0  0  0  0  0  0  0
  128.5920  132.2000   64.5830 N   0  0  0  0  0  0  0  0  0  0  0  0
  128.1480  133.0030   63.6340 C   0  0  0  0  0  0  0  0  0  0  0  0
  127.4500  132.3970   62.5930 C   0  0  0  0  0  0  0  0  0  0  0  0
  127.3780  130.6850   62.8810 S   0  0  0  0  0  0  0  0  0  0  0  0
  128.6860  128.1230   68.7390 S   0  0  0  0  0  0  0  0  0  0  0  0
  129.2780  126.4890   68.5630 C   0  0  0  0  0  0  0  0  0  0  0  0
  129.3670  125.6630   69.6040 N   0  0  0  0  0  0  0  0  0  0  0  0
  129.8570  124.4180   69.3630 C   0  0  0  0  0  0  0  0  0  0  0  0
  129.9660  123.5200   70.5520 C   0  0  0  0  0  0  0  0  0  0  0  0
  129.3930  122.2430   70.5510 C   0  0  0  0  0  0  0  0  0  0  0  0
  129.4900  121.4130   71.6630 C   0  0  0  0  0  0  0  0  0  0  0  0
  130.1540  121.8360   72.8260 C   0  0  0  0  0  0  0  0  0  0  0  0
  130.2660  121.0110   73.9510 N   0  0  0  0  0  0  0  0  0  0  0  0
  130.4590  121.5760   75.3030 C   0  0  0  0  0  0  0  0  0  0  0  0
  130.2120  120.5650   76.4420 C   0  0  0  0  0  0  0  0  0  0  0  0
  131.0200  119.4150   76.2530 O   0  0  0  0  0  0  0  0  0  0  0  0
  130.7200  118.7660   75.0280 C   0  0  0  0  0  0  0  0  0  0  0  0
  130.9790  119.7220   73.8430 C   0  0  0  0  0  0  0  0  0  0  0  0
  130.7420  123.1090   72.8150 C   0  0  0  0  0  0  0  0  0  0  0  0
  130.6480  123.9360   71.7000 C   0  0  0  0  0  0  0  0  0  0  0  0
  130.2270  123.9960   68.0840 C   0  0  0  0  0  0  0  0  0  0  0  0
  130.1140  124.8540   66.9840 C   0  0  0  0  0  0  0  0  0  0  0  0
  130.4910  124.3480   65.6400 C   0  0  0  0  0  0  0  0  0  0  0  0
  131.5420  124.9370   64.9350 C   0  0  0  0  0  0  0  0  0  0  0  0
  131.9090  124.4550   63.6820 C   0  0  0  0  0  0  0  0  0  0  0  0
  131.2330  123.3710   63.1000 C   0  0  0  0  0  0  0  0  0  0  0  0
  131.5930  122.8630   61.8470 N   0  0  0  0  0  0  0  0  0  0  0  0
  132.8830  123.2630   61.2510 C   0  0  0  0  0  0  0  0  0  0  0  0
  132.9760  122.9580   59.7400 C   0  0  0  0  0  0  0  0  0  0  0  0
  132.7190  121.5820   59.5060 O   0  0  0  0  0  0  0  0  0  0  0  0
  131.4260  121.2060   59.9510 C   0  0  0  0  0  0  0  0  0  0  0  0
  131.2890  121.4700   61.4670 C   0  0  0  0  0  0  0  0  0  0  0  0
  130.1930  122.7740   63.8260 C   0  0  0  0  0  0  0  0  0  0  0  0
  129.8250  123.2560   65.0800 C   0  0  0  0  0  0  0  0  0  0  0  0
  129.6370  126.1750   67.2180 C   0  0  0  0  0  0  0  0  0  0  0  0
  130.6130  127.6990   64.6710 H   0  0  0  0  0  0  0  0  0  0  0  0
  129.1290  126.8900   64.3480 H   0  0  0  0  0  0  0  0  0  0  0  0
  128.7530  128.9810   64.6030 H   0  0  0  0  0  0  0  0  0  0  0  0
  128.3197  134.0891   63.6640 H   0  0  0  0  0  0  0  0  0  0  0  0
  127.0143  132.9180   61.7277 H   0  0  0  0  0  0  0  0  0  0  0  0
  128.8577  121.8903   69.6571 H   0  0  0  0  0  0  0  0  0  0  0  0
  129.0397  120.4099   71.6310 H   0  0  0  0  0  0  0  0  0  0  0  0
  131.4937  121.9411   75.3818 H   0  0  0  0  0  0  0  0  0  0  0  0
  129.7182  122.3803   75.4226 H   0  0  0  0  0  0  0  0  0  0  0  0
  130.4636  121.0328   77.4053 H   0  0  0  0  0  0  0  0  0  0  0  0
  129.1531  120.2672   76.4374 H   0  0  0  0  0  0  0  0  0  0  0  0
  131.3569  117.8753   74.9227 H   0  0  0  0  0  0  0  0  0  0  0  0
  129.6603  118.4709   75.0272 H   0  0  0  0  0  0  0  0  0  0  0  0
  132.0587  119.9260   73.7914 H   0  0  0  0  0  0  0  0  0  0  0  0
  130.6018  119.2216   72.9389 H   0  0  0  0  0  0  0  0  0  0  0  0
  131.2872  123.4600   73.7036 H   0  0  0  0  0  0  0  0  0  0  0  0
  131.1166  124.9309   71.7217 H   0  0  0  0  0  0  0  0  0  0  0  0
  130.6123  122.9759   67.9393 H   0  0  0  0  0  0  0  0  0  0  0  0
  132.0840  125.7882   65.3729 H   0  0  0  0  0  0  0  0  0  0  0  0
  132.7402  124.9300   63.1402 H   0  0  0  0  0  0  0  0  0  0  0  0
  133.0154  124.3451   61.3980 H   0  0  0  0  0  0  0  0  0  0  0  0
  133.6693  122.6786   61.7513 H   0  0  0  0  0  0  0  0  0  0  0  0
  132.2340  123.5642   59.1996 H   0  0  0  0  0  0  0  0  0  0  0  0
  133.9877  123.2021   59.3839 H   0  0  0  0  0  0  0  0  0  0  0  0
  130.6698  121.7933   59.4096 H   0  0  0  0  0  0  0  0  0  0  0  0
  131.2761  120.1336   59.7572 H   0  0  0  0  0  0  0  0  0  0  0  0
  130.2558  121.2434   61.7688 H   0  0  0  0  0  0  0  0  0  0  0  0
  132.0207  120.8262   61.9771 H   0  0  0  0  0  0  0  0  0  0  0  0
  129.6595  121.9120   63.3990 H   0  0  0  0  0  0  0  0  0  0  0  0
  129.0051  122.7736   65.6323 H   0  0  0  0  0  0  0  0  0  0  0  0
  1  2  1  0
  2  3  2  0
  3  4  1  0
  4  5  2  0
  4  6  1  0
  6  7  1  0
  7  8  2  0
  8  9  1  0
  9 10  2  0
 10 11  1  0
  3 12  1  0
 12 13  1  0
 13 14  2  0
 14 15  1  0
 15 16  1  0
 16 17  2  0
 17 18  1  0
 18 19  2  0
 19 20  1  0
 20 21  1  0
 21 22  1  0
 22 23  1  0
 23 24  1  0
 24 25  1  0
 19 26  1  0
 26 27  2  0
 15 28  2  0
 28 29  1  0
 29 30  1  0
 30 31  2  0
 31 32  1  0
 32 33  2  0
 33 34  1  0
 34 35  1  0
 35 36  1  0
 36 37  1  0
 37 38  1  0
 38 39  1  0
 33 40  1  0
 40 41  2  0
 29 42  2  0
 42  2  1  0
 11  7  1  0
 42 13  1  0
 27 16  1  0
 41 30  1  0
 25 20  1  0
 39 34  1  0
  1 43  1  0
  1 44  1  0
  6 45  1  0
  9 46  1  0
 10 47  1  0
 17 48  1  0
 18 49  1  0
 21 50  1  0
 21 51  1  0
 22 52  1  0
 22 53  1  0
 24 54  1  0
 24 55  1  0
 25 56  1  0
 25 57  1  0
 26 58  1  0
 27 59  1  0
 28 60  1  0
 31 61  1  0
 32 62  1  0
 35 63  1  0
 35 64  1  0
 36 65  1  0
 36 66  1  0
 38 67  1  0
 38 68  1  0
 39 69  1  0
 39 70  1  0
 40 71  1  0
 41 72  1  0
M  END
>  <Binding energies>  (1) 
[-8.81]

>  <Ligand effiencies>  (1) 
[-0.1957777777777778]

>  <Interactions>  (1) 
["V-B:TYR:539:CD2:9842, V-A:LEU:475:CD2:4254, V-B:TYR:539:CE2:9844, V-B:ALA:541:CB:9860, H-B:GLU:543:OE2:9878, V-B:GLU:543:CD:9876, V-A:GLU:543:CG:4902, H-A:GLU:543:OE2:4905, V-A:GLU:543:CD:4903, V-B:GLU:543:CG:9875, V-A:TYR:484:CE1:4340, V-A:ALA:541:CB:4887, V-A:GLU:543:CB:4901, V-B:HIS:456:CE1:9037, H-B:TYR:484:OH:9315, V-A:TYR:484:CZ:4342, V-B:GLU:543:CA:9872, V-A:HIS:456:CE1:4064, H-A:HIS:456:NE2:4065, V-B:GLU:543:CB:9874, V-A:HIS:456:CG:4061, V-A:ASP:473:CG:4235, V-B:GLU:543:C:9870, V-A:ILE:369:CD1:3234, H-A:GLU:543:OE1:4904, V-A:TYR:484:CB:4336, V-A:TYR:484:CG:4337, V-A:ASP:473:CB:4234, V-A:HIS:456:CD2:4063, V-A:TYR:484:CD1:4338, H-A:LYS:471:NZ:4216"]

$$$$
9d_Ghoteimi_2023
     RDKit          3D

 68 73  0  0  0  0  0  0  0  0999 V2000
  122.9420  130.0900   66.5020 C   0  0  0  0  0  0  0  0  0  0  0  0
  123.6200  130.9020   65.5540 O   0  0  0  0  0  0  0  0  0  0  0  0
  123.7420  130.5060   64.2600 C   0  0  0  0  0  0  0  0  0  0  0  0
  122.9130  130.7550   63.3810 O   0  0  0  0  0  0  0  0  0  0  0  0
  124.9790  129.7340   64.0080 C   0  0  0  0  0  0  0  0  0  0  0  0
  125.3350  129.1510   62.3830 S   0  0  0  0  0  0  0  0  0  0  0  0
  126.8400  128.4450   62.9220 C   0  0  0  0  0  0  0  0  0  0  0  0
  127.6630  127.8270   62.0770 N   0  0  0  0  0  0  0  0  0  0  0  0
  128.8170  127.3280   62.5930 C   0  0  0  0  0  0  0  0  0  0  0  0
  129.7370  126.6610   61.6210 C   0  0  0  0  0  0  0  0  0  0  0  0
  130.7800  125.8470   62.0740 C   0  0  0  0  0  0  0  0  0  0  0  0
  131.6440  125.2240   61.1780 C   0  0  0  0  0  0  0  0  0  0  0  0
  131.4880  125.3830   59.7910 C   0  0  0  0  0  0  0  0  0  0  0  0
  132.3590  124.7780   58.8790 N   0  0  0  0  0  0  0  0  0  0  0  0
  133.1180  123.5610   59.2320 C   0  0  0  0  0  0  0  0  0  0  0  0
  134.2680  123.2380   58.2560 C   0  0  0  0  0  0  0  0  0  0  0  0
  133.7730  123.1610   56.9300 O   0  0  0  0  0  0  0  0  0  0  0  0
  133.1920  124.3880   56.5210 C   0  0  0  0  0  0  0  0  0  0  0  0
  132.0080  124.7500   57.4430 C   0  0  0  0  0  0  0  0  0  0  0  0
  130.4500  126.2130   59.3430 C   0  0  0  0  0  0  0  0  0  0  0  0
  129.5890  126.8380   60.2400 C   0  0  0  0  0  0  0  0  0  0  0  0
  129.1260  127.4170   63.9520 C   0  0  0  0  0  0  0  0  0  0  0  0
  128.2550  128.0480   64.8480 C   0  0  0  0  0  0  0  0  0  0  0  0
  128.6200  128.0910   66.2880 C   0  0  0  0  0  0  0  0  0  0  0  0
  128.9250  129.3040   66.9110 C   0  0  0  0  0  0  0  0  0  0  0  0
  129.2470  129.3410   68.2650 C   0  0  0  0  0  0  0  0  0  0  0  0
  129.2570  128.1680   69.0360 C   0  0  0  0  0  0  0  0  0  0  0  0
  129.5870  128.1780   70.3930 N   0  0  0  0  0  0  0  0  0  0  0  0
  129.3240  126.9730   71.2040 C   0  0  0  0  0  0  0  0  0  0  0  0
  130.0750  126.9710   72.5530 C   0  0  0  0  0  0  0  0  0  0  0  0
  129.7680  128.1500   73.2820 O   0  0  0  0  0  0  0  0  0  0  0  0
  130.1440  129.3200   72.5700 C   0  0  0  0  0  0  0  0  0  0  0  0
  129.3910  129.3810   71.2240 C   0  0  0  0  0  0  0  0  0  0  0  0
  128.9500  126.9560   68.4000 C   0  0  0  0  0  0  0  0  0  0  0  0
  128.6300  126.9190   67.0460 C   0  0  0  0  0  0  0  0  0  0  0  0
  127.0610  128.6150   64.3210 C   0  0  0  0  0  0  0  0  0  0  0  0
  125.9880  129.3740   64.9100 C   0  0  0  0  0  0  0  0  0  0  0  0
  125.9680  129.7310   66.2340 N   0  0  0  0  0  0  0  0  0  0  0  0
  123.2106  130.4117   67.5190 H   0  0  0  0  0  0  0  0  0  0  0  0
  121.8558  130.1904   66.3605 H   0  0  0  0  0  0  0  0  0  0  0  0
  123.2346  129.0391   66.3605 H   0  0  0  0  0  0  0  0  0  0  0  0
  130.9197  125.6968   63.1547 H   0  0  0  0  0  0  0  0  0  0  0  0
  132.4621  124.5971   61.5622 H   0  0  0  0  0  0  0  0  0  0  0  0
  133.5443  123.6977   60.2368 H   0  0  0  0  0  0  0  0  0  0  0  0
  132.4121  122.7188   59.1844 H   0  0  0  0  0  0  0  0  0  0  0  0
  135.0289  124.0302   58.3151 H   0  0  0  0  0  0  0  0  0  0  0  0
  134.7134  122.2706   58.5313 H   0  0  0  0  0  0  0  0  0  0  0  0
  133.9495  125.1839   56.5727 H   0  0  0  0  0  0  0  0  0  0  0  0
  132.8253  124.2854   55.4890 H   0  0  0  0  0  0  0  0  0  0  0  0
  131.6369  125.7452   57.1569 H   0  0  0  0  0  0  0  0  0  0  0  0
  131.2483  123.9651   57.3133 H   0  0  0  0  0  0  0  0  0  0  0  0
  130.3140  126.3728   58.2632 H   0  0  0  0  0  0  0  0  0  0  0  0
  128.7811  127.4799   59.8589 H   0  0  0  0  0  0  0  0  0  0  0  0
  130.0670  126.9852   64.3236 H   0  0  0  0  0  0  0  0  0  0  0  0
  128.9106  130.2364   66.3275 H   0  0  0  0  0  0  0  0  0  0  0  0
  129.4970  130.3026   68.7371 H   0  0  0  0  0  0  0  0  0  0  0  0
  128.2441  126.9160   71.4052 H   0  0  0  0  0  0  0  0  0  0  0  0
  129.6838  126.1072   70.6287 H   0  0  0  0  0  0  0  0  0  0  0  0
  129.7699  126.0911   73.1384 H   0  0  0  0  0  0  0  0  0  0  0  0
  131.1579  126.9359   72.3631 H   0  0  0  0  0  0  0  0  0  0  0  0
  129.8929  130.2078   73.1689 H   0  0  0  0  0  0  0  0  0  0  0  0
  131.2269  129.2947   72.3782 H   0  0  0  0  0  0  0  0  0  0  0  0
  128.3161  129.4925   71.4295 H   0  0  0  0  0  0  0  0  0  0  0  0
  129.7953  130.2358   70.6619 H   0  0  0  0  0  0  0  0  0  0  0  0
  128.9623  126.0213   68.9798 H   0  0  0  0  0  0  0  0  0  0  0  0
  128.3831  125.9588   66.5696 H   0  0  0  0  0  0  0  0  0  0  0  0
  126.3740  129.1460   66.9490 H   0  0  0  0  0  0  0  0  0  0  0  0
  125.5480  130.5980   66.5400 H   0  0  0  0  0  0  0  0  0  0  0  0
  1  2  1  0
  2  3  1  0
  3  4  2  0
  3  5  1  0
  5  6  1  0
  6  7  1  0
  7  8  2  0
  8  9  1  0
  9 10  1  0
 10 11  2  0
 11 12  1  0
 12 13  2  0
 13 14  1  0
 14 15  1  0
 15 16  1  0
 16 17  1  0
 17 18  1  0
 18 19  1  0
 13 20  1  0
 20 21  2  0
  9 22  2  0
 22 23  1  0
 23 24  1  0
 24 25  2  0
 25 26  1  0
 26 27  2  0
 27 28  1  0
 28 29  1  0
 29 30  1  0
 30 31  1  0
 31 32  1  0
 32 33  1  0
 27 34  1  0
 34 35  2  0
 23 36  2  0
 36 37  1  0
 37 38  1  0
 37  5  2  0
 36  7  1  0
 21 10  1  0
 35 24  1  0
 19 14  1  0
 33 28  1  0
  1 39  1  0
  1 40  1  0
  1 41  1  0
 11 42  1  0
 12 43  1  0
 15 44  1  0
 15 45  1  0
 16 46  1  0
 16 47  1  0
 18 48  1  0
 18 49  1  0
 19 50  1  0
 19 51  1  0
 20 52  1  0
 21 53  1  0
 22 54  1  0
 25 55  1  0
 26 56  1  0
 29 57  1  0
 29 58  1  0
 30 59  1  0
 30 60  1  0
 32 61  1  0
 32 62  1  0
 33 63  1  0
 33 64  1  0
 34 65  1  0
 35 66  1  0
 38 67  1  0
 38 68  1  0
M  END
>  <Binding energies>  (1) 
[-8.52]

>  <Ligand effiencies>  (1) 
[-0.213]

>  <Interactions>  (1) 
["V-B:GLU:543:CD:9876, V-A:GLU:543:CG:4902, V-A:TYR:531:CZ:4789, V-A:ASP:366:CB:3207, V-A:ASP:366:CG:3208, V-A:GLU:543:CD:4903, V-B:GLU:543:CG:9875, V-B:GLY:454:CA:9016, H-B:ARG:545:NH1:9895, H-B:GLY:454:N:9017, V-B:ARG:545:CZ:9894, V-A:GLU:543:CB:4901, V-B:HIS:456:CE1:9037, V-B:TYR:484:CZ:9314, V-B:ARG:545:CG:9890, H-B:TYR:484:OH:9315, V-B:ARG:545:CD:9891, V-A:HIS:456:CE1:4064, V-B:GLU:543:CB:9874, V-A:LYS:547:CE:4945, H-B:LYS:547:NZ:9919, H-A:LYS:547:NZ:4946, V-B:HIS:456:CD2:9035, H-B:HIS:456:NE2:9038, V-A:ILE:369:CD1:3234, V-A:ILE:369:CG2:3232, V-B:GLY:453:CA:9011, V-B:GLY:453:C:9009, V-A:ILE:369:CB:3231, V-A:TYR:531:CE1:4787, V-A:ASP:366:CA:3205, V-A:ASP:366:C:3203, H-B:TYR:539:OH:9846, V-A:ASN:370:CB:3240, V-A:ILE:369:CG1:3233, H-A:ASN:370:N:3239, V-A:GLU:543:CA:4899"]

$$$$
RR10_Rahimova_2017
     RDKit          3D

 66 70  0  0  0  0  0  0  0  0999 V2000
  126.7390  135.7310   61.0280 C   0  0  0  0  0  0  0  0  0  0  0  0
  126.8510  134.3250   61.6420 C   0  0  1  0  0  0  0  0  0  0  0  0
  126.7110  133.2160   60.5740 C   0  0  0  0  0  0  0  0  0  0  0  0
  126.7920  131.8130   61.2180 C   0  0  0  0  0  0  0  0  0  0  0  0
  128.1160  131.6030   61.9970 C   0  0  1  0  0  0  0  0  0  0  0  0
  129.2600  131.5520   61.0760 N   0  0  0  0  0  0  0  0  0  0  0  0
  130.5270  131.8820   61.3860 C   0  0  0  0  0  0  0  0  0  0  0  0
  130.8680  132.2510   62.5130 O   0  0  0  0  0  0  0  0  0  0  0  0
  131.5650  131.7960   60.2480 C   0  0  1  0  0  0  0  0  0  0  0  0
  132.4700  130.5560   60.4710 C   0  0  0  0  0  0  0  0  0  0  0  0
  133.4530  130.4130   59.2840 C   0  0  0  0  0  0  0  0  0  0  0  0
  132.7340  130.4290   57.9150 C   0  0  0  0  0  0  0  0  0  0  0  0
  131.8380  131.6120   57.8060 N   0  0  0  0  0  0  0  0  0  0  0  0
  131.1950  131.8980   56.1800 S   0  0  0  0  0  0  0  0  0  0  0  0
  132.2610  131.6120   55.2110 O   0  0  0  0  0  0  0  0  0  0  0  0
  130.5290  133.2060   56.1820 O   0  0  0  0  0  0  0  0  0  0  0  0
  129.9390  130.6400   55.9490 C   0  0  0  0  0  0  0  0  0  0  0  0
  128.8040  130.9380   55.1860 C   0  0  0  0  0  0  0  0  0  0  0  0
  127.7880  130.0030   54.9700 C   0  0  0  0  0  0  0  0  0  0  0  0
  127.9610  128.7460   55.5550 C   0  0  0  0  0  0  0  0  0  0  0  0
  127.2100  127.5950   55.5800 N   0  0  0  0  0  0  0  0  0  0  0  0
  127.8920  126.6580   56.3290 C   0  0  0  0  0  0  0  0  0  0  0  0
  127.3790  125.2720   56.5910 C   0  0  0  0  0  0  0  0  0  0  0  0
  126.0540  125.0700   57.0000 C   0  0  0  0  0  0  0  0  0  0  0  0
  125.5760  123.7850   57.2400 C   0  0  0  0  0  0  0  0  0  0  0  0
  126.4230  122.6920   57.0740 C   0  0  0  0  0  0  0  0  0  0  0  0
  127.7420  122.8740   56.6670 C   0  0  0  0  0  0  0  0  0  0  0  0
  128.2180  124.1610   56.4270 C   0  0  0  0  0  0  0  0  0  0  0  0
  129.0330  127.1270   56.7820 N   0  0  0  0  0  0  0  0  0  0  0  0
  129.1030  128.4160   56.3230 C   0  0  0  0  0  0  0  0  0  0  0  0
  130.1080  129.3740   56.5200 C   0  0  0  0  0  0  0  0  0  0  0  0
  130.8280  131.6920   58.8910 C   0  0  0  0  0  0  0  0  0  0  0  0
  128.2520  132.7330   63.0530 C   0  0  0  0  0  0  0  0  0  0  0  0
  128.1790  134.1370   62.4130 C   0  0  0  0  0  0  0  0  0  0  0  0
  126.6794  136.4788   61.8325 H   0  0  0  0  0  0  0  0  0  0  0  0
  127.6240  135.9311   60.4062 H   0  0  0  0  0  0  0  0  0  0  0  0
  125.8334  135.7885   60.4062 H   0  0  0  0  0  0  0  0  0  0  0  0
  126.0162  134.2348   62.3526 H   0  0  0  0  0  0  0  0  0  0  0  0
  125.7401  133.3241   60.0683 H   0  0  0  0  0  0  0  0  0  0  0  0
  127.5350  133.3184   59.8525 H   0  0  0  0  0  0  0  0  0  0  0  0
  125.9485  131.6931   61.9138 H   0  0  0  0  0  0  0  0  0  0  0  0
  126.7529  131.0673   60.4102 H   0  0  0  0  0  0  0  0  0  0  0  0
  128.1019  130.6360   62.5210 H   0  0  0  0  0  0  0  0  0  0  0  0
  129.0390  131.3620   60.1090 H   0  0  0  0  0  0  0  0  0  0  0  0
  132.1944  132.6982   60.2428 H   0  0  0  0  0  0  0  0  0  0  0  0
  133.0384  130.6803   61.4046 H   0  0  0  0  0  0  0  0  0  0  0  0
  131.8445  129.6537   60.5392 H   0  0  0  0  0  0  0  0  0  0  0  0
  134.1690  131.2475   59.3163 H   0  0  0  0  0  0  0  0  0  0  0  0
  133.9595  129.4417   59.3844 H   0  0  0  0  0  0  0  0  0  0  0  0
  133.4855  130.4699   57.1128 H   0  0  0  0  0  0  0  0  0  0  0  0
  132.1275  129.5160   57.8231 H   0  0  0  0  0  0  0  0  0  0  0  0
  128.7087  131.9400   54.7423 H   0  0  0  0  0  0  0  0  0  0  0  0
  126.8980  130.2443   54.3703 H   0  0  0  0  0  0  0  0  0  0  0  0
  126.3130  127.4170   55.1500 H   0  0  0  0  0  0  0  0  0  0  0  0
  125.3862  125.9340   57.1325 H   0  0  0  0  0  0  0  0  0  0  0  0
  124.5343  123.6335   57.5592 H   0  0  0  0  0  0  0  0  0  0  0  0
  126.0467  121.6764   57.2661 H   0  0  0  0  0  0  0  0  0  0  0  0
  128.4048  122.0060   56.5356 H   0  0  0  0  0  0  0  0  0  0  0  0
  129.2601  124.3066   56.1064 H   0  0  0  0  0  0  0  0  0  0  0  0
  131.0064  129.1361   57.1085 H   0  0  0  0  0  0  0  0  0  0  0  0
  130.1962  132.5803   58.7438 H   0  0  0  0  0  0  0  0  0  0  0  0
  130.1917  130.7948   58.8778 H   0  0  0  0  0  0  0  0  0  0  0  0
  127.4373  132.6341   63.7855 H   0  0  0  0  0  0  0  0  0  0  0  0
  129.2357  132.6305   63.5346 H   0  0  0  0  0  0  0  0  0  0  0  0
  128.2462  134.8975   63.2049 H   0  0  0  0  0  0  0  0  0  0  0  0
  129.0141  134.2439   61.7050 H   0  0  0  0  0  0  0  0  0  0  0  0
  1  2  1  0
  2  3  1  0
  3  4  1  0
  4  5  1  0
  5  6  1  0
  6  7  1  0
  7  8  2  0
  7  9  1  0
  9 10  1  0
 10 11  1  0
 11 12  1  0
 12 13  1  0
 13 14  1  0
 14 15  2  0
 14 16  2  0
 14 17  1  0
 17 18  2  0
 18 19  1  0
 19 20  2  0
 20 21  1  0
 21 22  1  0
 22 23  1  0
 23 24  2  0
 24 25  1  0
 25 26  2  0
 26 27  1  0
 27 28  2  0
 22 29  2  0
 29 30  1  0
 30 31  2  0
 13 32  1  0
  5 33  1  0
 33 34  1  0
 34  2  1  0
 32  9  1  0
 31 17  1  0
 30 20  1  0
 28 23  1  0
  1 35  1  0
  1 36  1  0
  1 37  1  0
  2 38  1  1
  3 39  1  0
  3 40  1  0
  4 41  1  0
  4 42  1  0
  5 43  1  1
  6 44  1  0
  9 45  1  6
 10 46  1  0
 10 47  1  0
 11 48  1  0
 11 49  1  0
 12 50  1  0
 12 51  1  0
 18 52  1  0
 19 53  1  0
 21 54  1  0
 24 55  1  0
 25 56  1  0
 26 57  1  0
 27 58  1  0
 28 59  1  0
 31 60  1  0
 32 61  1  0
 32 62  1  0
 33 63  1  0
 33 64  1  0
 34 65  1  0
 34 66  1  0
M  END
>  <Binding energies>  (1) 
[-10.6]

>  <Ligand effiencies>  (1) 
[-0.29444444444444445]

>  <Interactions>  (1) 
["V-B:TYR:539:C:9835, V-B:PRO:540:N:9852, V-B:PRO:540:CA:9851, V-B:MET:535:CE:9803, V-A:PRO:540:N:4879, V-A:TYR:531:CZ:4789, V-A:TYR:539:CE2:4871, V-A:TYR:531:CE2:4788, V-A:PRO:540:CA:4878, V-A:TYR:539:CE1:4870, V-A:ALA:541:CA:4885, H-A:ALA:541:N:4886, V-A:PRO:540:CB:4880, V-A:LEU:363:CD1:3184, V-A:LEU:363:CA:3180, V-A:TYR:539:CD2:4869, V-B:LEU:475:CD2:9226, V-B:TRP:381:CH2:8339, H-A:TYR:539:N:4865, V-B:PRO:540:CD:9855, V-A:ALA:541:CB:4887, H-A:TYR:531:OH:4790, V-A:MET:535:CG:4828, V-B:TRP:381:CZ2:8337, V-B:TRP:381:CZ3:8338, H-B:TYR:531:OH:9763, H-B:MET:535:SD:9802"]

$$$$
RR11_Rahimova_2017
     RDKit          3D

 55 60  0  0  0  0  0  0  0  0999 V2000
  126.7300  135.8050   60.6280 N   0  0  0  0  0  0  0  0  0  0  0  0
  126.8800  134.6700   61.4220 C   0  0  0  0  0  0  0  0  0  0  0  0
  128.0930  134.4270   62.0630 C   0  0  0  0  0  0  0  0  0  0  0  0
  128.2410  133.2940   62.8580 C   0  0  0  0  0  0  0  0  0  0  0  0
  127.1790  132.3940   63.0200 C   0  0  0  0  0  0  0  0  0  0  0  0
  127.3380  131.1770   63.8820 C   0  0  0  0  0  0  0  0  0  0  0  0
  128.4480  130.4780   63.9830 N   0  0  0  0  0  0  0  0  0  0  0  0
  128.1630  129.4740   64.8720 C   0  0  0  0  0  0  0  0  0  0  0  0
  128.9930  128.4490   65.3450 C   0  0  0  0  0  0  0  0  0  0  0  0
  128.4690  127.5440   66.2760 C   0  0  0  0  0  0  0  0  0  0  0  0
  129.3450  126.4160   66.8040 C   0  0  0  0  0  0  0  0  0  0  0  0
  130.3960  125.9610   65.8000 C   0  0  0  0  0  0  0  0  0  0  0  0
  131.7220  125.8000   66.2170 C   0  0  0  0  0  0  0  0  0  0  0  0
  132.7190  125.3760   65.3360 C   0  0  0  0  0  0  0  0  0  0  0  0
  132.3570  125.1050   64.0100 C   0  0  0  0  0  0  0  0  0  0  0  0
  133.1400  124.6890   62.9640 N   0  0  0  0  0  0  0  0  0  0  0  0
  132.3220  124.5870   61.9380 C   0  0  0  0  0  0  0  0  0  0  0  0
  132.7410  124.1730   60.5570 C   0  0  0  0  0  0  0  0  0  0  0  0
  132.4020  124.9570   59.4460 C   0  0  0  0  0  0  0  0  0  0  0  0
  132.7810  124.5680   58.1640 C   0  0  0  0  0  0  0  0  0  0  0  0
  133.5040  123.3910   57.9840 C   0  0  0  0  0  0  0  0  0  0  0  0
  133.8800  122.9970   56.7000 N   0  0  0  0  0  0  0  0  0  0  0  0
  133.8520  122.6040   59.0790 C   0  0  0  0  0  0  0  0  0  0  0  0
  133.4720  122.9940   60.3600 C   0  0  0  0  0  0  0  0  0  0  0  0
  131.0270  124.9160   62.2760 N   0  0  0  0  0  0  0  0  0  0  0  0
  131.0100  125.2600   63.6060 C   0  0  0  0  0  0  0  0  0  0  0  0
  130.0060  125.6790   64.4840 C   0  0  0  0  0  0  0  0  0  0  0  0
  127.1390  127.6480   66.7000 C   0  0  0  0  0  0  0  0  0  0  0  0
  126.2860  128.6540   66.2430 C   0  0  0  0  0  0  0  0  0  0  0  0
  126.8270  129.5610   65.3280 C   0  0  0  0  0  0  0  0  0  0  0  0
  126.3300  130.6610   64.6700 N   0  0  0  0  0  0  0  0  0  0  0  0
  125.9650  132.6510   62.3690 C   0  0  0  0  0  0  0  0  0  0  0  0
  125.8140  133.7830   61.5730 C   0  0  0  0  0  0  0  0  0  0  0  0
  127.5490  136.2500   60.2370 H   0  0  0  0  0  0  0  0  0  0  0  0
  125.8030  136.1460   60.4200 H   0  0  0  0  0  0  0  0  0  0  0  0
  128.9314  135.1286   61.9412 H   0  0  0  0  0  0  0  0  0  0  0  0
  129.1994  133.1035   63.3632 H   0  0  0  0  0  0  0  0  0  0  0  0
  130.0313  128.3575   64.9934 H   0  0  0  0  0  0  0  0  0  0  0  0
  129.8563  126.7651   67.7132 H   0  0  0  0  0  0  0  0  0  0  0  0
  128.6891  125.5566   67.0070 H   0  0  0  0  0  0  0  0  0  0  0  0
  131.9853  126.0125   67.2637 H   0  0  0  0  0  0  0  0  0  0  0  0
  133.7593  125.2581   65.6736 H   0  0  0  0  0  0  0  0  0  0  0  0
  131.8320  125.8870   59.5879 H   0  0  0  0  0  0  0  0  0  0  0  0
  132.5105  125.1878   57.2965 H   0  0  0  0  0  0  0  0  0  0  0  0
  133.2330  122.4710   56.1310 H   0  0  0  0  0  0  0  0  0  0  0  0
  134.7830  123.2740   56.3400 H   0  0  0  0  0  0  0  0  0  0  0  0
  134.4255  121.6769   58.9320 H   0  0  0  0  0  0  0  0  0  0  0  0
  133.7477  122.3719   61.2243 H   0  0  0  0  0  0  0  0  0  0  0  0
  130.2600  124.8980   61.6180 H   0  0  0  0  0  0  0  0  0  0  0  0
  128.9606  125.7823   64.1576 H   0  0  0  0  0  0  0  0  0  0  0  0
  126.7523  126.9107   67.4189 H   0  0  0  0  0  0  0  0  0  0  0  0
  125.2432  128.7288   66.5850 H   0  0  0  0  0  0  0  0  0  0  0  0
  125.4050  131.0630   64.7220 H   0  0  0  0  0  0  0  0  0  0  0  0
  125.1239  131.9521   62.4880 H   0  0  0  0  0  0  0  0  0  0  0  0
  124.8578  133.9773   61.0651 H   0  0  0  0  0  0  0  0  0  0  0  0
  1  2  1  0
  2  3  2  0
  3  4  1  0
  4  5  2  0
  5  6  1  0
  6  7  2  0
  7  8  1  0
  8  9  2  0
  9 10  1  0
 10 11  1  0
 11 12  1  0
 12 13  2  0
 13 14  1  0
 14 15  2  0
 15 16  1  0
 16 17  2  0
 17 18  1  0
 18 19  2  0
 19 20  1  0
 20 21  2  0
 21 22  1  0
 21 23  1  0
 23 24  2  0
 17 25  1  0
 25 26  1  0
 26 27  2  0
 10 28  2  0
 28 29  1  0
 29 30  2  0
 30 31  1  0
  5 32  1  0
 32 33  2  0
 33  2  1  0
 31  6  1  0
 30  8  1  0
 27 12  1  0
 26 15  1  0
 24 18  1  0
  1 34  1  0
  1 35  1  0
  3 36  1  0
  4 37  1  0
  9 38  1  0
 11 39  1  0
 11 40  1  0
 13 41  1  0
 14 42  1  0
 19 43  1  0
 20 44  1  0
 22 45  1  0
 22 46  1  0
 23 47  1  0
 24 48  1  0
 25 49  1  0
 27 50  1  0
 28 51  1  0
 29 52  1  0
 31 53  1  0
 32 54  1  0
 33 55  1  0
M  END
>  <Binding energies>  (1) 
[-8.41]

>  <Ligand effiencies>  (1) 
[-0.21564102564102564]

>  <Interactions>  (1) 
["V-B:TYR:539:CE2:9844, H-B:GLU:543:OE2:9878, V-B:GLU:543:CD:9876, V-A:GLU:543:CG:4902, V-A:TYR:539:CE2:4871, V-A:ASP:366:CB:3207, V-A:ALA:541:CA:4885, V-A:ASP:366:CG:3208, V-A:GLU:543:CD:4903, V-B:GLU:543:CG:9875, V-A:TYR:539:CD2:4869, V-B:LEU:475:CD2:9226, V-B:TRP:381:CH2:8339, V-B:TYR:539:CZ:9845, V-A:ALA:541:CB:4887, V-A:TYR:539:CG:4867, V-B:HIS:456:CE1:9037, V-B:TYR:484:CZ:9314, H-B:TYR:484:OH:9315, V-A:HIS:456:CE1:4064, V-B:GLU:543:CB:9874, V-A:ILE:369:CD1:3234, V-A:ILE:369:CG2:3232, V-A:ILE:369:CB:3231, V-A:ASP:366:C:3203, H-B:TYR:539:OH:9846, V-A:ARG:545:CZ:4921, V-B:TRP:381:CZ2:8337, V-B:TRP:381:CZ3:8338, H-A:TYR:539:O:4863, V-A:ASN:370:CB:3240, V-A:ILE:369:CG1:3233, H-A:ASP:366:O:3204, V-A:ASN:370:CA:3238, V-A:ILE:369:C:3227"]

$$$$
RR11_Rahimova_2017-again1
     RDKit          3D

 56 61  0  0  0  0  0  0  0  0999 V2000
  134.1590  122.8640   56.5800 N   0  0  0  0  0  0  0  0  0  0  0  0
  133.5940  123.0490   57.8410 C   0  0  0  0  0  0  0  0  0  0  0  0
  133.4900  121.9740   58.7210 C   0  0  0  0  0  0  0  0  0  0  0  0
  132.9220  122.1610   59.9790 C   0  0  0  0  0  0  0  0  0  0  0  0
  132.4520  123.4230   60.3660 C   0  0  0  0  0  0  0  0  0  0  0  0
  131.8330  123.6210   61.7190 C   0  0  0  0  0  0  0  0  0  0  0  0
  131.2650  122.6670   62.4220 N   0  0  0  0  0  0  0  0  0  0  0  0
  130.8190  123.2760   63.5660 C   0  0  0  0  0  0  0  0  0  0  0  0
  130.1360  122.7240   64.6580 C   0  0  0  0  0  0  0  0  0  0  0  0
  129.7760  123.5720   65.7060 C   0  0  0  0  0  0  0  0  0  0  0  0
  130.0770  124.9380   65.6810 C   0  0  0  0  0  0  0  0  0  0  0  0
  129.6570  125.8180   66.8500 C   0  0  0  0  0  0  0  0  0  0  0  0
  128.8420  127.0270   66.4100 C   0  0  0  0  0  0  0  0  0  0  0  0
  127.5880  127.2620   66.9860 C   0  0  0  0  0  0  0  0  0  0  0  0
  126.7950  128.3520   66.6210 C   0  0  0  0  0  0  0  0  0  0  0  0
  127.3170  129.2090   65.6480 C   0  0  0  0  0  0  0  0  0  0  0  0
  126.8060  130.3560   65.0530 N   0  0  0  0  0  0  0  0  0  0  0  0
  127.7020  130.8500   64.1340 C   0  0  0  0  0  0  0  0  0  0  0  0
  127.5280  132.0560   63.2680 C   0  0  0  0  0  0  0  0  0  0  0  0
  128.6500  132.7460   62.7930 C   0  0  0  0  0  0  0  0  0  0  0  0
  128.4940  133.8650   61.9790 C   0  0  0  0  0  0  0  0  0  0  0  0
  127.2140  134.3000   61.6380 C   0  0  0  0  0  0  0  0  0  0  0  0
  127.0600  135.4180   60.8200 N   0  0  0  0  0  0  0  0  0  0  0  0
  126.0910  133.6210   62.1080 C   0  0  0  0  0  0  0  0  0  0  0  0
  126.2480  132.5020   62.9210 C   0  0  0  0  0  0  0  0  0  0  0  0
  128.7890  130.0070   64.1590 N   0  0  0  0  0  0  0  0  0  0  0  0
  128.5810  128.9870   65.0760 C   0  0  0  0  0  0  0  0  0  0  0  0
  129.3730  127.8980   65.4500 C   0  0  0  0  0  0  0  0  0  0  0  0
  130.7800  125.5090   64.6120 C   0  0  0  0  0  0  0  0  0  0  0  0
  131.1310  124.6570   63.5620 C   0  0  0  0  0  0  0  0  0  0  0  0
  131.7860  124.8380   62.3660 N   0  0  0  0  0  0  0  0  0  0  0  0
  132.5640  124.4950   59.4710 C   0  0  0  0  0  0  0  0  0  0  0  0
  133.1320  124.3100   58.2130 C   0  0  0  0  0  0  0  0  0  0  0  0
  133.5900  122.5000   55.8300 H   0  0  0  0  0  0  0  0  0  0  0  0
  135.1410  123.0570   56.4430 H   0  0  0  0  0  0  0  0  0  0  0  0
  133.8555  120.9802   58.4232 H   0  0  0  0  0  0  0  0  0  0  0  0
  132.8418  121.3119   60.6736 H   0  0  0  0  0  0  0  0  0  0  0  0
  129.8905  121.6522   64.6882 H   0  0  0  0  0  0  0  0  0  0  0  0
  129.2423  123.1561   66.5733 H   0  0  0  0  0  0  0  0  0  0  0  0
  129.0497  125.2171   67.5429 H   0  0  0  0  0  0  0  0  0  0  0  0
  130.5727  126.1911   67.3319 H   0  0  0  0  0  0  0  0  0  0  0  0
  127.2150  126.5653   67.7512 H   0  0  0  0  0  0  0  0  0  0  0  0
  125.8091  128.5273   67.0763 H   0  0  0  0  0  0  0  0  0  0  0  0
  125.9150  130.7950   65.2310 H   0  0  0  0  0  0  0  0  0  0  0  0
  129.6592  132.4026   63.0641 H   0  0  0  0  0  0  0  0  0  0  0  0
  129.3776  134.4039   61.6063 H   0  0  0  0  0  0  0  0  0  0  0  0
  127.8770  135.8750   60.4400 H   0  0  0  0  0  0  0  0  0  0  0  0
  126.1340  135.7780   60.6380 H   0  0  0  0  0  0  0  0  0  0  0  0
  125.0831  133.9686   61.8371 H   0  0  0  0  0  0  0  0  0  0  0  0
  125.3620  131.9661   63.2922 H   0  0  0  0  0  0  0  0  0  0  0  0
  129.5960  130.1490   63.5700 H   0  0  0  0  0  0  0  0  0  0  0  0
  130.3678  127.7324   65.0107 H   0  0  0  0  0  0  0  0  0  0  0  0
  131.0430  126.5770   64.6001 H   0  0  0  0  0  0  0  0  0  0  0  0
  132.1710  125.6870   61.9800 H   0  0  0  0  0  0  0  0  0  0  0  0
  132.2004  125.4909   59.7643 H   0  0  0  0  0  0  0  0  0  0  0  0
  133.2157  125.1564   57.5154 H   0  0  0  0  0  0  0  0  0  0  0  0
  1  2  1  0
  2  3  2  0
  3  4  1  0
  4  5  2  0
  5  6  1  0
  6  7  2  0
  7  8  1  0
  8  9  2  0
  9 10  1  0
 10 11  2  0
 11 12  1  0
 12 13  1  0
 13 14  2  0
 14 15  1  0
 15 16  2  0
 16 17  1  0
 17 18  1  0
 18 19  1  0
 19 20  2  0
 20 21  1  0
 21 22  2  0
 22 23  1  0
 22 24  1  0
 24 25  2  0
 18 26  2  0
 26 27  1  0
 27 28  2  0
 11 29  1  0
 29 30  2  0
 30 31  1  0
  5 32  1  0
 32 33  2  0
 33  2  1  0
 31  6  1  0
 30  8  1  0
 28 13  1  0
 27 16  1  0
 25 19  1  0
  1 34  1  0
  1 35  1  0
  3 36  1  0
  4 37  1  0
  9 38  1  0
 10 39  1  0
 12 40  1  0
 12 41  1  0
 14 42  1  0
 15 43  1  0
 17 44  1  0
 20 45  1  0
 21 46  1  0
 23 47  1  0
 23 48  1  0
 24 49  1  0
 25 50  1  0
 26 51  1  0
 28 52  1  0
 29 53  1  0
 31 54  1  0
 32 55  1  0
 33 56  1  0
M  CHG  1  26   1
M  END
>  <Binding energies>  (1) 
[-8.68]

>  <Ligand effiencies>  (1) 
[-0.217]

>  <Interactions>  (1) 
["V-B:TYR:539:CE2:9844, V-B:ALA:541:CB:9860, V-B:GLU:543:CD:9876, V-A:GLU:543:CG:4902, V-A:TYR:539:CE2:4871, V-A:PRO:540:C:4876, V-A:ASP:366:CB:3207, V-A:ALA:541:CA:4885, H-A:GLU:543:OE2:4905, V-A:ASP:366:CG:3208, V-A:GLU:543:CD:4903, V-B:GLU:543:CG:9875, V-A:TYR:484:CE1:4340, V-A:TYR:539:CD2:4869, V-B:LEU:475:CD2:9226, V-B:TRP:381:CH2:8339, V-B:TYR:539:CZ:9845, V-A:ALA:541:CB:4887, V-B:HIS:456:CE1:9037, V-B:TYR:484:CZ:9314, H-B:TYR:484:OH:9315, V-A:TYR:484:CZ:4342, V-B:GLU:543:CB:9874, V-A:ILE:369:CD1:3234, V-A:ILE:369:CG2:3232, H-A:GLU:543:OE1:4904, V-A:ILE:369:CB:3231, V-A:ASP:366:CA:3205, V-A:ASP:366:C:3203, H-B:TYR:539:OH:9846, H-A:TYR:539:O:4863, H-A:ASP:366:OD1:3209, H-A:ASP:366:OD2:3210, V-A:ASN:370:CB:3240, V-A:ILE:369:CG1:3233, H-A:ASP:366:O:3204, V-A:ASN:370:CA:3238, V-A:ILE:369:C:3227, V-A:ILE:369:CA:3229"]

$$$$
RR11_Rahimova_2017-again2
     RDKit          3D

 57 62  0  0  0  0  0  0  0  0999 V2000
  126.7030  135.8460   60.6420 N   0  0  0  0  0  0  0  0  0  0  0  0
  126.8770  134.6930   61.4060 C   0  0  0  0  0  0  0  0  0  0  0  0
  125.8370  133.7740   61.5220 C   0  0  0  0  0  0  0  0  0  0  0  0
  126.0090  132.6250   62.2900 C   0  0  0  0  0  0  0  0  0  0  0  0
  127.2230  132.3900   62.9470 C   0  0  0  0  0  0  0  0  0  0  0  0
  127.4050  131.1630   63.7790 C   0  0  0  0  0  0  0  0  0  0  0  0
  128.5080  130.3400   63.8040 N   0  0  0  0  0  0  0  0  0  0  0  0
  128.3160  129.3130   64.7170 C   0  0  0  0  0  0  0  0  0  0  0  0
  129.1350  128.2480   65.1040 C   0  0  0  0  0  0  0  0  0  0  0  0
  128.6320  127.3860   66.0870 C   0  0  0  0  0  0  0  0  0  0  0  0
  129.4800  126.2110   66.5540 C   0  0  0  0  0  0  0  0  0  0  0  0
  130.5250  125.7930   65.5280 C   0  0  0  0  0  0  0  0  0  0  0  0
  131.8350  125.5300   65.9450 C   0  0  0  0  0  0  0  0  0  0  0  0
  132.8360  125.1430   65.0500 C   0  0  0  0  0  0  0  0  0  0  0  0
  132.4660  125.0250   63.7080 C   0  0  0  0  0  0  0  0  0  0  0  0
  133.1910  124.6800   62.5760 N   0  0  0  0  0  0  0  0  0  0  0  0
  132.3780  124.7070   61.4670 C   0  0  0  0  0  0  0  0  0  0  0  0
  132.7760  124.4170   60.0560 C   0  0  0  0  0  0  0  0  0  0  0  0
  133.8230  123.5280   59.7860 C   0  0  0  0  0  0  0  0  0  0  0  0
  134.1870  123.2490   58.4710 C   0  0  0  0  0  0  0  0  0  0  0  0
  133.5050  123.8570   57.4200 C   0  0  0  0  0  0  0  0  0  0  0  0
  133.8650  123.5740   56.1030 N   0  0  0  0  0  0  0  0  0  0  0  0
  132.4630  124.7470   57.6760 C   0  0  0  0  0  0  0  0  0  0  0  0
  132.0990  125.0250   58.9910 C   0  0  0  0  0  0  0  0  0  0  0  0
  131.1270  125.0660   61.9120 N   0  0  0  0  0  0  0  0  0  0  0  0
  131.1500  125.2730   63.2850 C   0  0  0  0  0  0  0  0  0  0  0  0
  130.1500  125.6530   64.1850 C   0  0  0  0  0  0  0  0  0  0  0  0
  127.3540  127.5710   66.6290 C   0  0  0  0  0  0  0  0  0  0  0  0
  126.5290  128.6300   66.2410 C   0  0  0  0  0  0  0  0  0  0  0  0
  127.0410  129.5000   65.2750 C   0  0  0  0  0  0  0  0  0  0  0  0
  126.5090  130.6370   64.6810 N   0  0  0  0  0  0  0  0  0  0  0  0
  128.2630  133.3190   62.8200 C   0  0  0  0  0  0  0  0  0  0  0  0
  128.0910  134.4670   62.0520 C   0  0  0  0  0  0  0  0  0  0  0  0
  125.7690  136.1620   60.4240 H   0  0  0  0  0  0  0  0  0  0  0  0
  127.5110  136.3170   60.2600 H   0  0  0  0  0  0  0  0  0  0  0  0
  124.8815  133.9553   61.0080 H   0  0  0  0  0  0  0  0  0  0  0  0
  125.1876  131.8990   62.3809 H   0  0  0  0  0  0  0  0  0  0  0  0
  129.3190  130.5070   63.2270 H   0  0  0  0  0  0  0  0  0  0  0  0
  130.1283  128.0941   64.6573 H   0  0  0  0  0  0  0  0  0  0  0  0
  129.9944  126.4963   67.4835 H   0  0  0  0  0  0  0  0  0  0  0  0
  128.8054  125.3557   66.7071 H   0  0  0  0  0  0  0  0  0  0  0  0
  132.0846  125.6312   67.0115 H   0  0  0  0  0  0  0  0  0  0  0  0
  133.8640  124.9413   65.3854 H   0  0  0  0  0  0  0  0  0  0  0  0
  134.1710  124.4420   62.5220 H   0  0  0  0  0  0  0  0  0  0  0  0
  134.3609  123.0474   60.6165 H   0  0  0  0  0  0  0  0  0  0  0  0
  135.0108  122.5504   58.2631 H   0  0  0  0  0  0  0  0  0  0  0  0
  134.8160  123.7250   55.8030 H   0  0  0  0  0  0  0  0  0  0  0  0
  133.1550  123.2830   55.4460 H   0  0  0  0  0  0  0  0  0  0  0  0
  131.9303  125.2279   56.8423 H   0  0  0  0  0  0  0  0  0  0  0  0
  131.2757  125.7256   59.1945 H   0  0  0  0  0  0  0  0  0  0  0  0
  130.3380  125.1590   61.2890 H   0  0  0  0  0  0  0  0  0  0  0  0
  129.1166  125.8338   63.8543 H   0  0  0  0  0  0  0  0  0  0  0  0
  126.9879  126.8600   67.3843 H   0  0  0  0  0  0  0  0  0  0  0  0
  125.5277  128.7715   66.6739 H   0  0  0  0  0  0  0  0  0  0  0  0
  125.6080  131.0580   64.8540 H   0  0  0  0  0  0  0  0  0  0  0  0
  129.2212  133.1405   63.3300 H   0  0  0  0  0  0  0  0  0  0  0  0
  128.9110  135.1938   61.9552 H   0  0  0  0  0  0  0  0  0  0  0  0
  1  2  1  0
  2  3  2  0
  3  4  1  0
  4  5  2  0
  5  6  1  0
  6  7  1  0
  7  8  1  0
  8  9  2  0
  9 10  1  0
 10 11  1  0
 11 12  1  0
 12 13  2  0
 13 14  1  0
 14 15  2  0
 15 16  1  0
 16 17  1  0
 17 18  1  0
 18 19  2  0
 19 20  1  0
 20 21  2  0
 21 22  1  0
 21 23  1  0
 23 24  2  0
 17 25  2  0
 25 26  1  0
 26 27  2  0
 10 28  2  0
 28 29  1  0
 29 30  2  0
 30 31  1  0
  5 32  1  0
 32 33  2  0
 33  2  1  0
 31  6  2  0
 30  8  1  0
 27 12  1  0
 26 15  1  0
 24 18  1  0
  1 34  1  0
  1 35  1  0
  3 36  1  0
  4 37  1  0
  7 38  1  0
  9 39  1  0
 11 40  1  0
 11 41  1  0
 13 42  1  0
 14 43  1  0
 16 44  1  0
 19 45  1  0
 20 46  1  0
 22 47  1  0
 22 48  1  0
 23 49  1  0
 24 50  1  0
 25 51  1  0
 27 52  1  0
 28 53  1  0
 29 54  1  0
 31 55  1  0
 32 56  1  0
 33 57  1  0
M  CHG  2  25   1  31   1
M  END
>  <Binding energies>  (1) 
[-9.35]

>  <Ligand effiencies>  (1) 
[-0.22804878048780486]

>  <Interactions>  (1) 
["V-B:TYR:539:CE2:9844, V-B:GLU:543:CD:9876, V-A:GLU:543:CG:4902, V-A:TYR:531:CZ:4789, V-A:TYR:539:CE2:4871, V-A:ASP:366:CB:3207, V-A:ALA:541:CA:4885, H-A:GLU:543:OE2:4905, V-A:ASP:366:CG:3208, V-A:GLU:543:CD:4903, V-B:GLU:543:CG:9875, V-A:TYR:539:CD2:4869, V-B:LEU:475:CD2:9226, V-B:TRP:381:CH2:8339, V-B:TYR:539:CZ:9845, V-A:ALA:541:CB:4887, V-A:TYR:539:CG:4867, V-B:HIS:456:CE1:9037, V-B:TYR:484:CZ:9314, H-B:TYR:484:OH:9315, V-B:GLU:543:CB:9874, V-A:ILE:369:CD1:3234, V-A:ILE:369:CG2:3232, V-A:ILE:369:CB:3231, V-A:TYR:531:CE1:4787, V-A:ASP:366:CA:3205, V-A:ASP:366:C:3203, H-B:TYR:539:OH:9846, V-A:ARG:545:CZ:4921, V-B:TRP:381:CZ2:8337, V-B:TRP:381:CZ3:8338, H-A:TYR:539:O:4863, H-A:ASP:366:OD1:3209, H-A:ASP:366:OD2:3210, V-A:ASN:370:CB:3240, V-A:ILE:369:CG1:3233, H-A:ASP:366:O:3204, V-A:ASN:370:CA:3238, H-A:ASN:370:OD1:3242"]

$$$$
RR12_Rahimova_2017
     RDKit          3D

 51 53  0  0  0  0  0  0  0  0999 V2000
  132.0460  123.6350   58.3550 C   0  0  0  0  0  0  0  0  0  0  0  0
  130.5190  123.7380   58.2550 C   0  0  0  0  0  0  0  0  0  0  0  0
  129.8110  122.4240   58.6310 C   0  0  0  0  0  0  0  0  0  0  0  0
  128.6730  122.6830   59.5100 N   0  0  0  0  0  0  0  0  0  0  0  0
  128.6350  122.5870   60.8930 C   0  0  0  0  0  0  0  0  0  0  0  0
  129.8100  122.1360   61.7430 C   0  0  0  0  0  0  0  0  0  0  0  0
  130.8860  123.2280   61.8850 C   0  0  0  0  0  0  0  0  0  0  0  0
  131.9730  122.8630   62.9140 C   0  0  0  0  0  0  0  0  0  0  0  0
  132.0980  123.8260   64.0080 N   0  0  0  0  0  0  0  0  0  0  0  0
  133.1940  124.5610   64.2680 C   0  0  0  0  0  0  0  0  0  0  0  0
  134.2270  124.4940   63.5980 O   0  0  0  0  0  0  0  0  0  0  0  0
  133.0850  125.5130   65.4660 C   0  0  0  0  0  0  0  0  0  0  0  0
  131.9820  125.1240   66.2860 O   0  0  0  0  0  0  0  0  0  0  0  0
  130.7950  125.8260   66.2000 C   0  0  0  0  0  0  0  0  0  0  0  0
  130.1060  126.0290   67.3980 C   0  0  0  0  0  0  0  0  0  0  0  0
  128.9020  126.7280   67.4120 C   0  0  0  0  0  0  0  0  0  0  0  0
  128.3830  127.2290   66.2220 C   0  0  0  0  0  0  0  0  0  0  0  0
  129.0550  127.0340   65.0180 C   0  0  0  0  0  0  0  0  0  0  0  0
  130.2590  126.3340   65.0050 C   0  0  0  0  0  0  0  0  0  0  0  0
  127.4730  122.9100   61.4050 N   0  0  0  0  0  0  0  0  0  0  0  0
  126.7020  123.2610   60.3320 C   0  0  0  0  0  0  0  0  0  0  0  0
  125.3710  123.7030   60.3090 C   0  0  0  0  0  0  0  0  0  0  0  0
  124.8020  124.0100   59.0720 C   0  0  0  0  0  0  0  0  0  0  0  0
  125.5300  123.8840   57.8880 C   0  0  0  0  0  0  0  0  0  0  0  0
  126.8550  123.4460   57.8780 C   0  0  0  0  0  0  0  0  0  0  0  0
  127.4260  123.1370   59.1200 C   0  0  0  0  0  0  0  0  0  0  0  0
  132.3436  123.6149   59.4138 H   0  0  0  0  0  0  0  0  0  0  0  0
  132.3843  122.7120   57.8615 H   0  0  0  0  0  0  0  0  0  0  0  0
  132.5052  124.5042   57.8615 H   0  0  0  0  0  0  0  0  0  0  0  0
  130.1742  124.5310   58.9349 H   0  0  0  0  0  0  0  0  0  0  0  0
  130.2683  123.9637   57.2080 H   0  0  0  0  0  0  0  0  0  0  0  0
  129.4544  121.9311   57.7146 H   0  0  0  0  0  0  0  0  0  0  0  0
  130.5257  121.7763   59.1598 H   0  0  0  0  0  0  0  0  0  0  0  0
  129.4404  121.8721   62.7449 H   0  0  0  0  0  0  0  0  0  0  0  0
  130.2730  121.2723   61.2433 H   0  0  0  0  0  0  0  0  0  0  0  0
  131.3648  123.3793   60.9063 H   0  0  0  0  0  0  0  0  0  0  0  0
  130.3867  124.1416   62.2399 H   0  0  0  0  0  0  0  0  0  0  0  0
  131.7280  121.8803   63.3434 H   0  0  0  0  0  0  0  0  0  0  0  0
  132.9336  122.8608   62.3780 H   0  0  0  0  0  0  0  0  0  0  0  0
  131.2870  123.9370   64.6000 H   0  0  0  0  0  0  0  0  0  0  0  0
  134.0130  125.4686   66.0549 H   0  0  0  0  0  0  0  0  0  0  0  0
  132.9282  126.5400   65.1045 H   0  0  0  0  0  0  0  0  0  0  0  0
  130.5180  125.6334   68.3381 H   0  0  0  0  0  0  0  0  0  0  0  0
  128.3639  126.8834   68.3587 H   0  0  0  0  0  0  0  0  0  0  0  0
  127.4334  127.7841   66.2325 H   0  0  0  0  0  0  0  0  0  0  0  0
  128.6367  127.4311   64.0813 H   0  0  0  0  0  0  0  0  0  0  0  0
  130.7922  126.1784   64.0555 H   0  0  0  0  0  0  0  0  0  0  0  0
  124.7924  123.8047   61.2390 H   0  0  0  0  0  0  0  0  0  0  0  0
  123.7594  124.3581   59.0295 H   0  0  0  0  0  0  0  0  0  0  0  0
  125.0448  124.1376   56.9339 H   0  0  0  0  0  0  0  0  0  0  0  0
  127.4233  123.3481   56.9413 H   0  0  0  0  0  0  0  0  0  0  0  0
  1  2  1  0
  2  3  1  0
  3  4  1  0
  4  5  1  0
  5  6  1  0
  6  7  1  0
  7  8  1  0
  8  9  1  0
  9 10  1  0
 10 11  2  0
 10 12  1  0
 12 13  1  0
 13 14  1  0
 14 15  2  0
 15 16  1  0
 16 17  2  0
 17 18  1  0
 18 19  2  0
  5 20  2  0
 20 21  1  0
 21 22  2  0
 22 23  1  0
 23 24  2  0
 24 25  1  0
 25 26  2  0
 26  4  1  0
 19 14  1  0
 26 21  1  0
  1 27  1  0
  1 28  1  0
  1 29  1  0
  2 30  1  0
  2 31  1  0
  3 32  1  0
  3 33  1  0
  6 34  1  0
  6 35  1  0
  7 36  1  0
  7 37  1  0
  8 38  1  0
  8 39  1  0
  9 40  1  0
 12 41  1  0
 12 42  1  0
 15 43  1  0
 16 44  1  0
 17 45  1  0
 18 46  1  0
 19 47  1  0
 22 48  1  0
 23 49  1  0
 24 50  1  0
 25 51  1  0
M  END
>  <Binding energies>  (1) 
[-6.5]

>  <Ligand effiencies>  (1) 
[-0.24074074074074073]

>  <Interactions>  (1) 
["V-B:TYR:539:C:9835, V-B:TYR:539:CD2:9842, V-B:PRO:540:C:9849, V-B:TYR:539:CE2:9844, V-B:PRO:540:N:9852, V-B:ALA:541:CB:9860, V-B:PRO:540:CA:9851, V-B:PRO:540:CB:9853, H-B:ALA:541:N:9859, V-B:GLU:543:CD:9876, V-A:GLU:543:CD:4903, H-A:TYR:484:OH:4343, V-B:GLU:543:CG:9875, V-B:TYR:539:CZ:9845, V-A:HIS:456:CE1:4064, H-A:HIS:456:NE2:4065, V-B:GLU:543:CB:9874, V-A:ARG:545:CZ:4921, H-A:GLY:454:N:4045, V-A:ARG:545:CD:4918"]

$$$$
RR13_Rahimova_2017
     RDKit          3D

 84 90  0  0  0  0  0  0  0  0999 V2000
  129.8680  132.0720   61.5950 Cl  0  0  0  0  0  0  0  0  0  0  0  0
  131.4450  131.6930   60.9880 C   0  0  0  0  0  0  0  0  0  0  0  0
  132.5410  131.9660   61.8090 C   0  0  0  0  0  0  0  0  0  0  0  0
  133.8360  131.7040   61.3700 C   0  0  0  0  0  0  0  0  0  0  0  0
  134.0440  131.1680   60.1020 C   0  0  0  0  0  0  0  0  0  0  0  0
  132.9550  130.8920   59.2770 C   0  0  0  0  0  0  0  0  0  0  0  0
  131.6410  131.1380   59.7060 C   0  0  0  0  0  0  0  0  0  0  0  0
  130.4530  130.8470   58.7630 C   0  0  1  0  0  0  0  0  0  0  0  0
  130.5170  131.7280   57.5070 C   0  0  0  0  0  0  0  0  0  0  0  0
  131.3370  131.5870   56.4890 N   0  0  0  0  0  0  0  0  0  0  0  0
  131.0420  132.6260   55.6130 N   0  0  0  0  0  0  0  0  0  0  0  0
  130.0340  133.4130   56.1340 N   0  0  0  0  0  0  0  0  0  0  0  0
  129.7440  132.8530   57.3140 N   0  0  0  0  0  0  0  0  0  0  0  0
  128.6800  133.3990   58.1480 C   0  0  0  0  0  0  0  0  0  0  0  0
  127.7030  132.2840   58.5650 C   0  0  0  0  0  0  0  0  0  0  0  0
  127.0620  132.5570   59.9170 C   0  0  0  0  0  0  0  0  0  0  0  0
  127.2720  133.7830   60.5540 C   0  0  0  0  0  0  0  0  0  0  0  0
  126.6910  134.0300   61.7950 C   0  0  0  0  0  0  0  0  0  0  0  0
  125.9030  133.0500   62.3950 C   0  0  0  0  0  0  0  0  0  0  0  0
  125.6900  131.8250   61.7660 C   0  0  0  0  0  0  0  0  0  0  0  0
  126.2710  131.5780   60.5240 C   0  0  0  0  0  0  0  0  0  0  0  0
  130.2960  129.4090   58.4370 N   0  0  0  0  0  0  0  0  0  0  0  0
  129.1170  129.1990   57.5780 C   0  0  0  0  0  0  0  0  0  0  0  0
  129.0230  127.7230   57.1250 C   0  0  0  0  0  0  0  0  0  0  0  0
  128.8830  126.8310   58.2880 N   0  0  0  0  0  0  0  0  0  0  0  0
  128.7070  125.4130   57.8960 C   0  0  1  0  0  0  0  0  0  0  0  0
  127.2450  124.9470   57.7200 C   0  0  0  0  0  0  0  0  0  0  0  0
  126.2370  125.8570   58.0660 C   0  0  0  0  0  0  0  0  0  0  0  0
  124.8890  125.5290   57.9230 C   0  0  0  0  0  0  0  0  0  0  0  0
  124.5280  124.2770   57.4350 C   0  0  0  0  0  0  0  0  0  0  0  0
  125.5140  123.3520   57.1000 C   0  0  0  0  0  0  0  0  0  0  0  0
  126.8670  123.6700   57.2430 C   0  0  0  0  0  0  0  0  0  0  0  0
  128.0140  122.4290   56.8650 Cl  0  0  0  0  0  0  0  0  0  0  0  0
  129.5360  125.0210   56.6710 C   0  0  0  0  0  0  0  0  0  0  0  0
  129.0900  124.9600   55.4380 N   0  0  0  0  0  0  0  0  0  0  0  0
  130.1770  124.5820   54.6570 N   0  0  0  0  0  0  0  0  0  0  0  0
  131.2980  124.4300   55.4470 N   0  0  0  0  0  0  0  0  0  0  0  0
  130.8830  124.7270   56.6840 N   0  0  0  0  0  0  0  0  0  0  0  0
  131.8140  124.6510   57.8050 C   0  0  0  0  0  0  0  0  0  0  0  0
  132.7170  123.4110   57.6690 C   0  0  0  0  0  0  0  0  0  0  0  0
  133.0110  122.7650   59.0140 C   0  0  0  0  0  0  0  0  0  0  0  0
  133.2680  123.5640   60.1310 C   0  0  0  0  0  0  0  0  0  0  0  0
  133.5300  122.9730   61.3640 C   0  0  0  0  0  0  0  0  0  0  0  0
  133.5340  121.5830   61.4760 C   0  0  0  0  0  0  0  0  0  0  0  0
  133.2780  120.7810   60.3650 C   0  0  0  0  0  0  0  0  0  0  0  0
  133.0150  121.3720   59.1330 C   0  0  0  0  0  0  0  0  0  0  0  0
  130.0660  127.0410   59.1410 C   0  0  0  0  0  0  0  0  0  0  0  0
  130.1480  128.5150   59.5990 C   0  0  0  0  0  0  0  0  0  0  0  0
  132.3800  132.3914   62.8105 H   0  0  0  0  0  0  0  0  0  0  0  0
  134.6936  131.9202   62.0241 H   0  0  0  0  0  0  0  0  0  0  0  0
  135.0663  130.9626   59.7518 H   0  0  0  0  0  0  0  0  0  0  0  0
  133.1278  130.4748   58.2739 H   0  0  0  0  0  0  0  0  0  0  0  0
  129.5407  131.1156   59.3158 H   0  0  0  0  0  0  0  0  0  0  0  0
  129.1207  133.8511   59.0488 H   0  0  0  0  0  0  0  0  0  0  0  0
  128.1308  134.1604   57.5747 H   0  0  0  0  0  0  0  0  0  0  0  0
  126.9102  132.2059   57.8065 H   0  0  0  0  0  0  0  0  0  0  0  0
  128.2743  131.3474   58.6453 H   0  0  0  0  0  0  0  0  0  0  0  0
  127.8958  134.5523   60.0754 H   0  0  0  0  0  0  0  0  0  0  0  0
  126.8533  134.9941   62.2992 H   0  0  0  0  0  0  0  0  0  0  0  0
  125.4442  133.2454   63.3755 H   0  0  0  0  0  0  0  0  0  0  0  0
  125.0666  131.0572   62.2474 H   0  0  0  0  0  0  0  0  0  0  0  0
  126.1072  130.6132   60.0217 H   0  0  0  0  0  0  0  0  0  0  0  0
  128.2093  129.4619   58.1410 H   0  0  0  0  0  0  0  0  0  0  0  0
  129.2126  129.8360   56.6863 H   0  0  0  0  0  0  0  0  0  0  0  0
  128.1485  127.6014   56.4690 H   0  0  0  0  0  0  0  0  0  0  0  0
  129.9441  127.4589   56.5848 H   0  0  0  0  0  0  0  0  0  0  0  0
  129.0932  124.8740   58.7737 H   0  0  0  0  0  0  0  0  0  0  0  0
  126.5138  126.8472   58.4572 H   0  0  0  0  0  0  0  0  0  0  0  0
  124.1125  126.2589   58.1956 H   0  0  0  0  0  0  0  0  0  0  0  0
  123.4658  124.0182   57.3140 H   0  0  0  0  0  0  0  0  0  0  0  0
  125.2247  122.3614   56.7191 H   0  0  0  0  0  0  0  0  0  0  0  0
  132.4398  125.5555   57.8185 H   0  0  0  0  0  0  0  0  0  0  0  0
  131.2407  124.5743   58.7407 H   0  0  0  0  0  0  0  0  0  0  0  0
  132.2137  122.6750   57.0248 H   0  0  0  0  0  0  0  0  0  0  0  0
  133.6736  123.7356   57.2337 H   0  0  0  0  0  0  0  0  0  0  0  0
  133.2633  124.6599   60.0362 H   0  0  0  0  0  0  0  0  0  0  0  0
  133.7328  123.5992   62.2453 H   0  0  0  0  0  0  0  0  0  0  0  0
  133.7410  121.1152   62.4498 H   0  0  0  0  0  0  0  0  0  0  0  0
  133.2839  119.6853   60.4618 H   0  0  0  0  0  0  0  0  0  0  0  0
  132.8104  120.7438   58.2535 H   0  0  0  0  0  0  0  0  0  0  0  0
  129.9948  126.3906   60.0252 H   0  0  0  0  0  0  0  0  0  0  0  0
  130.9695  126.7972   58.5628 H   0  0  0  0  0  0  0  0  0  0  0  0
  129.2282  128.7769   60.1424 H   0  0  0  0  0  0  0  0  0  0  0  0
  131.0231  128.6357   60.2545 H   0  0  0  0  0  0  0  0  0  0  0  0
  1  2  1  0
  2  3  2  0
  3  4  1  0
  4  5  2  0
  5  6  1  0
  6  7  2  0
  7  8  1  0
  8  9  1  0
  9 10  2  0
 10 11  1  0
 11 12  2  0
 12 13  1  0
 13 14  1  0
 14 15  1  0
 15 16  1  0
 16 17  2  0
 17 18  1  0
 18 19  2  0
 19 20  1  0
 20 21  2  0
  8 22  1  0
 22 23  1  0
 23 24  1  0
 24 25  1  0
 25 26  1  0
 26 27  1  0
 27 28  2  0
 28 29  1  0
 29 30  2  0
 30 31  1  0
 31 32  2  0
 32 33  1  0
 26 34  1  0
 34 35  2  0
 35 36  1  0
 36 37  2  0
 37 38  1  0
 38 39  1  0
 39 40  1  0
 40 41  1  0
 41 42  2  0
 42 43  1  0
 43 44  2  0
 44 45  1  0
 45 46  2  0
 25 47  1  0
 47 48  1  0
  7  2  1  0
 13  9  1  0
 21 16  1  0
 48 22  1  0
 32 27  1  0
 38 34  1  0
 46 41  1  0
  3 49  1  0
  4 50  1  0
  5 51  1  0
  6 52  1  0
  8 53  1  1
 14 54  1  0
 14 55  1  0
 15 56  1  0
 15 57  1  0
 17 58  1  0
 18 59  1  0
 19 60  1  0
 20 61  1  0
 21 62  1  0
 23 63  1  0
 23 64  1  0
 24 65  1  0
 24 66  1  0
 26 67  1  1
 28 68  1  0
 29 69  1  0
 30 70  1  0
 31 71  1  0
 39 72  1  0
 39 73  1  0
 40 74  1  0
 40 75  1  0
 42 76  1  0
 43 77  1  0
 44 78  1  0
 45 79  1  0
 46 80  1  0
 47 81  1  0
 47 82  1  0
 48 83  1  0
 48 84  1  0
M  END
>  <Binding energies>  (1) 
[-12.49]

>  <Ligand effiencies>  (1) 
[-0.2602083333333333]

>  <Interactions>  (1) 
["V-B:TYR:539:C:9835, V-B:TYR:539:CD2:9842, V-A:LEU:475:CD2:4254, V-B:TYR:539:CE2:9844, V-B:PRO:540:N:9852, V-A:TRP:381:CH2:3367, V-B:PRO:540:CA:9851, V-B:MET:535:CE:9803, V-B:PRO:540:CB:9853, V-A:PRO:540:N:4879, V-A:ASN:362:C:3167, V-A:TYR:531:CZ:4789, V-A:TYR:539:CE2:4871, V-A:PRO:540:CA:4878, V-A:PRO:540:C:4876, V-A:TYR:539:CE1:4870, V-A:TYR:539:CZ:4872, V-A:PRO:540:CB:4880, V-A:TYR:539:C:4862, V-A:ASN:362:CB:3171, V-A:LEU:363:CA:3180, V-A:PRO:540:CD:4882, V-A:ASP:366:CG:3208, V-A:GLU:543:CD:4903, V-A:TYR:539:CD2:4869, V-B:LEU:475:CD2:9226, H-A:TYR:539:N:4865, V-B:ASP:366:CG:8180, V-B:LEU:363:CD1:8156, V-B:TYR:539:CZ:9845, V-B:ASP:366:CB:8179, V-A:LEU:363:CB:3182, V-A:TYR:539:CD1:4868, V-A:TYR:539:CG:4867, V-A:TYR:539:CA:4864, V-B:TYR:539:CE1:9843, V-A:ILE:369:CD1:3234, V-A:ILE:369:CG2:3232, V-A:ILE:369:CB:3231, V-A:TYR:531:CE1:4787, H-A:TYR:531:OH:4790, H-B:TYR:539:OH:9846, H-A:LYS:534:NZ:4818, V-B:TYR:539:CD1:9841, V-B:TYR:539:CG:9840, V-A:ASN:362:CG:3172, V-A:ASN:362:CA:3169"]

$$$$
RR14_Rahimova_2017
     RDKit          3D

 76 80  0  0  0  0  0  0  0  0999 V2000
  131.0520  121.7470   62.6760 C   0  0  0  0  0  0  0  0  0  0  0  0
  129.9100  122.5320   62.3480 O   0  0  0  0  0  0  0  0  0  0  0  0
  129.4480  122.5370   61.0460 C   0  0  0  0  0  0  0  0  0  0  0  0
  128.1320  122.9600   60.8540 C   0  0  0  0  0  0  0  0  0  0  0  0
  127.5720  122.9740   59.5810 C   0  0  0  0  0  0  0  0  0  0  0  0
  128.3250  122.5580   58.4810 C   0  0  0  0  0  0  0  0  0  0  0  0
  127.6940  122.5110   57.0950 C   0  0  0  0  0  0  0  0  0  0  0  0
  126.5040  123.3520   56.9720 N   0  0  0  0  0  0  0  0  0  0  0  0
  125.3250  122.8110   56.6450 N   0  0  0  0  0  0  0  0  0  0  0  0
  124.4510  123.8790   56.5910 N   0  0  0  0  0  0  0  0  0  0  0  0
  125.1240  125.0620   56.8810 N   0  0  0  0  0  0  0  0  0  0  0  0
  126.3710  124.7170   57.1030 C   0  0  0  0  0  0  0  0  0  0  0  0
  127.5000  125.6810   57.4380 C   0  0  0  0  0  0  0  0  0  0  0  0
  127.6010  126.7870   56.4720 N   0  0  0  0  0  0  0  0  0  0  0  0
  126.8420  127.9670   56.9060 C   0  0  0  0  0  0  0  0  0  0  0  0
  126.8780  129.1280   55.8890 C   0  0  0  0  0  0  0  0  0  0  0  0
  127.0820  130.5140   56.5380 C   0  0  0  0  0  0  0  0  0  0  0  0
  128.4200  131.0700   56.3110 N   0  0  0  0  0  0  0  0  0  0  0  0
  128.7140  132.1130   57.3020 C   0  0  0  0  0  0  0  0  0  0  0  0
  130.0960  132.7560   57.0590 C   0  0  0  0  0  0  0  0  0  0  0  0
  130.1810  133.2420   55.7240 O   0  0  0  0  0  0  0  0  0  0  0  0
  130.0080  132.2080   54.7620 C   0  0  0  0  0  0  0  0  0  0  0  0
  128.6230  131.5490   54.9350 C   0  0  0  0  0  0  0  0  0  0  0  0
  129.0120  127.1370   56.2490 C   0  0  0  0  0  0  0  0  0  0  0  0
  130.0420  126.1590   56.8100 C   0  0  0  0  0  0  0  0  0  0  0  0
  130.3950  126.1900   58.1180 C   0  0  0  0  0  0  0  0  0  0  0  0
  131.4180  125.2820   58.6780 C   0  0  0  0  0  0  0  0  0  0  0  0
  131.7930  125.2720   60.0320 C   0  0  0  0  0  0  0  0  0  0  0  0
  131.1590  126.2180   61.0430 C   0  0  0  0  0  0  0  0  0  0  0  0
  132.7710  124.3700   60.4600 C   0  0  0  0  0  0  0  0  0  0  0  0
  133.3690  123.4890   59.5600 C   0  0  0  0  0  0  0  0  0  0  0  0
  133.0010  123.4890   58.2120 C   0  0  0  0  0  0  0  0  0  0  0  0
  133.6710  122.5130   57.2540 C   0  0  0  0  0  0  0  0  0  0  0  0
  132.0200  124.3910   57.7710 C   0  0  0  0  0  0  0  0  0  0  0  0
  131.6180  124.4290   56.4190 N   0  0  0  0  0  0  0  0  0  0  0  0
  130.6860  125.2440   55.8630 C   0  0  0  0  0  0  0  0  0  0  0  0
  130.4430  125.1810   54.6580 O   0  0  0  0  0  0  0  0  0  0  0  0
  129.6520  122.1620   58.6590 C   0  0  0  0  0  0  0  0  0  0  0  0
  130.2110  122.1460   59.9330 C   0  0  0  0  0  0  0  0  0  0  0  0
  131.1492  121.6802   63.7697 H   0  0  0  0  0  0  0  0  0  0  0  0
  130.9357  120.7371   62.2558 H   0  0  0  0  0  0  0  0  0  0  0  0
  131.9532  122.2174   62.2558 H   0  0  0  0  0  0  0  0  0  0  0  0
  127.5324  123.2852   61.7170 H   0  0  0  0  0  0  0  0  0  0  0  0
  126.5350  123.3131   59.4405 H   0  0  0  0  0  0  0  0  0  0  0  0
  128.4390  122.8508   56.3606 H   0  0  0  0  0  0  0  0  0  0  0  0
  127.3788  121.4725   56.9158 H   0  0  0  0  0  0  0  0  0  0  0  0
  127.3199  126.1015   58.4384 H   0  0  0  0  0  0  0  0  0  0  0  0
  128.4437  125.1170   57.4008 H   0  0  0  0  0  0  0  0  0  0  0  0
  125.7939  127.6703   57.0593 H   0  0  0  0  0  0  0  0  0  0  0  0
  127.3108  128.3319   57.8318 H   0  0  0  0  0  0  0  0  0  0  0  0
  127.7046  128.9485   55.1858 H   0  0  0  0  0  0  0  0  0  0  0  0
  125.8987  129.1479   55.3883 H   0  0  0  0  0  0  0  0  0  0  0  0
  126.3395  131.2087   56.1183 H   0  0  0  0  0  0  0  0  0  0  0  0
  126.9626  130.3858   57.6240 H   0  0  0  0  0  0  0  0  0  0  0  0
  127.9413  132.8934   57.2386 H   0  0  0  0  0  0  0  0  0  0  0  0
  128.7221  131.6475   58.2986 H   0  0  0  0  0  0  0  0  0  0  0  0
  130.2368  133.5918   57.7602 H   0  0  0  0  0  0  0  0  0  0  0  0
  130.8783  131.9990   57.2172 H   0  0  0  0  0  0  0  0  0  0  0  0
  130.0840  132.6351   53.7511 H   0  0  0  0  0  0  0  0  0  0  0  0
  130.7893  131.4473   54.9066 H   0  0  0  0  0  0  0  0  0  0  0  0
  127.8437  132.2874   54.6953 H   0  0  0  0  0  0  0  0  0  0  0  0
  128.5661  130.6843   54.2575 H   0  0  0  0  0  0  0  0  0  0  0  0
  129.1731  127.2091   55.1633 H   0  0  0  0  0  0  0  0  0  0  0  0
  129.1726  128.0800   56.7920 H   0  0  0  0  0  0  0  0  0  0  0  0
  129.9043  126.9144   58.7846 H   0  0  0  0  0  0  0  0  0  0  0  0
  131.3897  125.8738   62.0620 H   0  0  0  0  0  0  0  0  0  0  0  0
  131.5608  127.2318   60.8987 H   0  0  0  0  0  0  0  0  0  0  0  0
  130.0686  126.2317   60.8987 H   0  0  0  0  0  0  0  0  0  0  0  0
  133.0720  124.3550   61.5179 H   0  0  0  0  0  0  0  0  0  0  0  0
  134.1381  122.7870   59.9146 H   0  0  0  0  0  0  0  0  0  0  0  0
  134.2015  121.7402   57.8295 H   0  0  0  0  0  0  0  0  0  0  0  0
  132.9072  122.0386   56.6202 H   0  0  0  0  0  0  0  0  0  0  0  0
  134.3882  123.0552   56.6202 H   0  0  0  0  0  0  0  0  0  0  0  0
  132.0610  123.7960   55.7720 H   0  0  0  0  0  0  0  0  0  0  0  0
  130.2566  121.8621   57.7904 H   0  0  0  0  0  0  0  0  0  0  0  0
  131.2545  121.8259   60.0693 H   0  0  0  0  0  0  0  0  0  0  0  0
  1  2  1  0
  2  3  1  0
  3  4  2  0
  4  5  1  0
  5  6  2  0
  6  7  1  0
  7  8  1  0
  8  9  1  0
  9 10  2  0
 10 11  1  0
 11 12  2  0
 12 13  1  0
 13 14  1  0
 14 15  1  0
 15 16  1  0
 16 17  1  0
 17 18  1  0
 18 19  1  0
 19 20  1  0
 20 21  1  0
 21 22  1  0
 22 23  1  0
 14 24  1  0
 24 25  1  0
 25 26  2  0
 26 27  1  0
 27 28  2  0
 28 29  1  0
 28 30  1  0
 30 31  2  0
 31 32  1  0
 32 33  1  0
 32 34  2  0
 34 35  1  0
 35 36  1  0
 36 37  2  0
  6 38  1  0
 38 39  2  0
 39  3  1  0
 12  8  1  0
 23 18  1  0
 36 25  1  0
 34 27  1  0
  1 40  1  0
  1 41  1  0
  1 42  1  0
  4 43  1  0
  5 44  1  0
  7 45  1  0
  7 46  1  0
 13 47  1  0
 13 48  1  0
 15 49  1  0
 15 50  1  0
 16 51  1  0
 16 52  1  0
 17 53  1  0
 17 54  1  0
 19 55  1  0
 19 56  1  0
 20 57  1  0
 20 58  1  0
 22 59  1  0
 22 60  1  0
 23 61  1  0
 23 62  1  0
 24 63  1  0
 24 64  1  0
 26 65  1  0
 29 66  1  0
 29 67  1  0
 29 68  1  0
 30 69  1  0
 31 70  1  0
 33 71  1  0
 33 72  1  0
 33 73  1  0
 35 74  1  0
 38 75  1  0
 39 76  1  0
M  END
>  <Binding energies>  (1) 
[-9.9]

>  <Ligand effiencies>  (1) 
[-0.2475]

>  <Interactions>  (1) 
["V-B:TYR:539:C:9835, V-B:TYR:539:CD2:9842, V-A:LEU:475:CD2:4254, V-B:TYR:539:CE2:9844, V-B:PRO:540:N:9852, V-B:ALA:541:CB:9860, V-B:PRO:540:CA:9851, V-B:MET:535:CE:9803, V-A:PRO:540:N:4879, V-A:TYR:531:CZ:4789, V-A:PRO:540:CA:4878, V-A:TYR:539:CE1:4870, V-A:ASP:366:CB:3207, V-A:TYR:539:CZ:4872, V-A:TYR:539:C:4862, V-A:PRO:540:CD:4882, V-A:ASP:366:CG:3208, H-A:TYR:539:N:4865, V-B:TYR:539:CZ:9845, V-A:TYR:539:CD1:4868, V-A:ILE:369:CD1:3234, V-A:ILE:369:CG2:3232, V-A:ILE:369:CB:3231, V-A:TYR:531:CE1:4787, H-A:TYR:531:OH:4790, H-B:TYR:539:OH:9846, H-A:LYS:534:NZ:4818, H-B:TYR:531:OH:9763"]

$$$$
RR15_Rahimova_2017
     RDKit          3D

 85 89  0  0  0  0  0  0  0  0999 V2000
  133.9380  123.7440   61.8160 C   0  0  0  0  0  0  0  0  0  0  0  0
  134.1070  123.8340   63.2270 O   0  0  0  0  0  0  0  0  0  0  0  0
  133.1230  124.4320   63.9950 C   0  0  0  0  0  0  0  0  0  0  0  0
  131.7550  124.3840   63.6800 C   0  0  0  0  0  0  0  0  0  0  0  0
  130.8150  125.0110   64.4950 C   0  0  0  0  0  0  0  0  0  0  0  0
  131.2120  125.7040   65.6430 C   0  0  0  0  0  0  0  0  0  0  0  0
  130.1980  126.3860   66.5190 C   0  0  0  0  0  0  0  0  0  0  0  0
  129.6870  125.8210   67.6040 N   0  0  0  0  0  0  0  0  0  0  0  0
  128.7980  126.7370   68.1290 N   0  0  0  0  0  0  0  0  0  0  0  0
  128.9060  127.7840   67.3100 N   0  0  0  0  0  0  0  0  0  0  0  0
  128.0110  128.9360   67.4040 C   0  0  0  0  0  0  0  0  0  0  0  0
  128.0230  129.8700   66.1680 C   0  0  0  0  0  0  0  0  0  0  0  0
  128.6050  130.9530   66.2620 O   0  0  0  0  0  0  0  0  0  0  0  0
  127.4230  129.4650   65.0070 N   0  0  0  0  0  0  0  0  0  0  0  0
  126.0680  128.8780   65.0070 C   0  0  0  0  0  0  0  0  0  0  0  0
  125.0480  129.6780   65.8450 C   0  0  0  0  0  0  0  0  0  0  0  0
  123.6220  129.7380   65.2470 C   0  0  0  0  0  0  0  0  0  0  0  0
  123.4620  130.7540   64.2030 N   0  0  0  0  0  0  0  0  0  0  0  0
  124.4350  131.8530   64.2970 C   0  0  0  0  0  0  0  0  0  0  0  0
  124.2800  132.8480   63.1270 C   0  0  0  0  0  0  0  0  0  0  0  0
  124.3620  132.1600   61.8830 O   0  0  0  0  0  0  0  0  0  0  0  0
  123.3540  131.1650   61.7460 C   0  0  0  0  0  0  0  0  0  0  0  0
  123.4870  130.1210   62.8770 C   0  0  0  0  0  0  0  0  0  0  0  0
  127.9810  129.7510   63.6500 C   0  0  2  0  0  0  0  0  0  0  0  0
  127.5120  131.1100   63.0410 C   0  0  0  0  0  0  0  0  0  0  0  0
  126.7220  131.1440   62.0980 O   0  0  0  0  0  0  0  0  0  0  0  0
  127.9940  132.2130   63.6410 N   0  0  0  0  0  0  0  0  0  0  0  0
  127.6170  133.5830   63.3140 C   0  0  0  0  0  0  0  0  0  0  0  0
  128.3420  134.0730   62.0460 C   0  0  2  0  0  0  0  0  0  0  0  0
  127.4790  134.1300   60.7730 C   0  0  0  0  0  0  0  0  0  0  0  0
  127.8630  132.8910   60.0000 C   0  0  0  0  0  0  0  0  0  0  0  0
  129.3310  132.7540   60.3640 C   0  0  0  0  0  0  0  0  0  0  0  0
  129.3370  133.0840   61.7490 O   0  0  0  0  0  0  0  0  0  0  0  0
  127.8930  128.5160   62.7600 C   0  0  0  0  0  0  0  0  0  0  0  0
  126.6920  128.2760   62.0820 C   0  0  0  0  0  0  0  0  0  0  0  0
  126.5540  127.1640   61.2570 C   0  0  0  0  0  0  0  0  0  0  0  0
  127.6200  126.2820   61.1020 C   0  0  0  0  0  0  0  0  0  0  0  0
  127.4860  125.2020   60.3000 F   0  0  0  0  0  0  0  0  0  0  0  0
  128.8220  126.5050   61.7670 C   0  0  0  0  0  0  0  0  0  0  0  0
  128.9590  127.6170   62.5930 C   0  0  0  0  0  0  0  0  0  0  0  0
  129.7320  127.5970   66.2740 N   0  0  0  0  0  0  0  0  0  0  0  0
  132.5770  125.7480   65.9560 C   0  0  0  0  0  0  0  0  0  0  0  0
  133.5370  125.1180   65.1460 C   0  0  0  0  0  0  0  0  0  0  0  0
  134.8950  125.1300   65.4140 O   0  0  0  0  0  0  0  0  0  0  0  0
  135.3470  125.0040   66.7580 C   0  0  0  0  0  0  0  0  0  0  0  0
  132.9874  123.2378   61.5921 H   0  0  0  0  0  0  0  0  0  0  0  0
  133.9258  124.7551   61.3829 H   0  0  0  0  0  0  0  0  0  0  0  0
  134.7702  123.1696   61.3829 H   0  0  0  0  0  0  0  0  0  0  0  0
  131.4223  123.8456   62.7803 H   0  0  0  0  0  0  0  0  0  0  0  0
  129.7480  124.9604   64.2324 H   0  0  0  0  0  0  0  0  0  0  0  0
  126.9855  128.5624   67.5408 H   0  0  0  0  0  0  0  0  0  0  0  0
  128.3697  129.5388   68.2514 H   0  0  0  0  0  0  0  0  0  0  0  0
  125.7076  128.8352   63.9686 H   0  0  0  0  0  0  0  0  0  0  0  0
  126.1486  127.8804   65.4633 H   0  0  0  0  0  0  0  0  0  0  0  0
  124.9827  129.2130   66.8398 H   0  0  0  0  0  0  0  0  0  0  0  0
  125.4157  130.7143   65.8737 H   0  0  0  0  0  0  0  0  0  0  0  0
  123.3857  128.7549   64.8137 H   0  0  0  0  0  0  0  0  0  0  0  0
  122.9413  130.0105   66.0670 H   0  0  0  0  0  0  0  0  0  0  0  0
  124.2785  132.3888   65.2449 H   0  0  0  0  0  0  0  0  0  0  0  0
  125.4465  131.4230   64.2524 H   0  0  0  0  0  0  0  0  0  0  0  0
  123.3031  133.3480   63.2021 H   0  0  0  0  0  0  0  0  0  0  0  0
  125.0878  133.5928   63.1795 H   0  0  0  0  0  0  0  0  0  0  0  0
  122.3633  131.6396   61.8026 H   0  0  0  0  0  0  0  0  0  0  0  0
  123.4713  130.6627   60.7744 H   0  0  0  0  0  0  0  0  0  0  0  0
  122.6517  129.4089   62.8055 H   0  0  0  0  0  0  0  0  0  0  0  0
  124.4524  129.6071   62.7592 H   0  0  0  0  0  0  0  0  0  0  0  0
  129.0596  129.9439   63.7473 H   0  0  0  0  0  0  0  0  0  0  0  0
  128.6160  132.1000   64.4280 H   0  0  0  0  0  0  0  0  0  0  0  0
  126.5308  133.6257   63.1454 H   0  0  0  0  0  0  0  0  0  0  0  0
  127.9052  134.2332   64.1531 H   0  0  0  0  0  0  0  0  0  0  0  0
  128.6958  135.0907   62.2675 H   0  0  0  0  0  0  0  0  0  0  0  0
  126.4090  134.1134   61.0276 H   0  0  0  0  0  0  0  0  0  0  0  0
  127.6455  135.0515   60.1958 H   0  0  0  0  0  0  0  0  0  0  0  0
  127.2835  132.0158   60.3289 H   0  0  0  0  0  0  0  0  0  0  0  0
  127.6721  132.9582   58.9188 H   0  0  0  0  0  0  0  0  0  0  0  0
  129.6874  131.7266   60.1986 H   0  0  0  0  0  0  0  0  0  0  0  0
  129.9941  133.3897   59.7588 H   0  0  0  0  0  0  0  0  0  0  0  0
  125.8495  128.9730   62.2025 H   0  0  0  0  0  0  0  0  0  0  0  0
  125.6061  126.9825   60.7292 H   0  0  0  0  0  0  0  0  0  0  0  0
  129.6609  125.8049   61.6403 H   0  0  0  0  0  0  0  0  0  0  0  0
  129.9091  127.7929   63.1188 H   0  0  0  0  0  0  0  0  0  0  0  0
  132.9047  126.2881   66.8565 H   0  0  0  0  0  0  0  0  0  0  0  0
  134.5202  125.2345   67.4460 H   0  0  0  0  0  0  0  0  0  0  0  0
  135.6938  123.9749   66.9333 H   0  0  0  0  0  0  0  0  0  0  0  0
  136.1762  125.7052   66.9333 H   0  0  0  0  0  0  0  0  0  0  0  0
  1  2  1  0
  2  3  1  0
  3  4  2  0
  4  5  1  0
  5  6  2  0
  6  7  1  0
  7  8  1  0
  8  9  2  0
  9 10  1  0
 10 11  1  0
 11 12  1  0
 12 13  2  0
 12 14  1  0
 14 15  1  0
 15 16  1  0
 16 17  1  0
 17 18  1  0
 18 19  1  0
 19 20  1  0
 20 21  1  0
 21 22  1  0
 22 23  1  0
 14 24  1  0
 24 25  1  0
 25 26  2  0
 25 27  1  0
 27 28  1  0
 28 29  1  0
 29 30  1  0
 30 31  1  0
 31 32  1  0
 32 33  1  0
 24 34  1  0
 34 35  2  0
 35 36  1  0
 36 37  2  0
 37 38  1  0
 37 39  1  0
 39 40  2  0
 10 41  1  0
  6 42  1  0
 42 43  2  0
 43 44  1  0
 44 45  1  0
 43  3  1  0
 41  7  2  0
 23 18  1  0
 33 29  1  0
 40 34  1  0
  1 46  1  0
  1 47  1  0
  1 48  1  0
  4 49  1  0
  5 50  1  0
 11 51  1  0
 11 52  1  0
 15 53  1  0
 15 54  1  0
 16 55  1  0
 16 56  1  0
 17 57  1  0
 17 58  1  0
 19 59  1  0
 19 60  1  0
 20 61  1  0
 20 62  1  0
 22 63  1  0
 22 64  1  0
 23 65  1  0
 23 66  1  0
 24 67  1  1
 27 68  1  0
 28 69  1  0
 28 70  1  0
 29 71  1  1
 30 72  1  0
 30 73  1  0
 31 74  1  0
 31 75  1  0
 32 76  1  0
 32 77  1  0
 35 78  1  0
 36 79  1  0
 39 80  1  0
 40 81  1  0
 42 82  1  0
 45 83  1  0
 45 84  1  0
 45 85  1  0
M  END
>  <Binding energies>  (1) 
[-8.61]

>  <Ligand effiencies>  (1) 
[-0.18717391304347825]

>  <Interactions>  (1) 
["V-A:GLU:543:CG:4902, V-A:PRO:540:N:4879, V-A:TYR:539:CE2:4871, V-A:PRO:540:CA:4878, V-A:PRO:540:C:4876, V-A:ALA:541:CA:4885, H-A:ALA:541:N:4886, V-A:ASP:366:CG:3208, H-A:TYR:484:OH:4343, V-B:GLY:454:CA:9016, V-A:TYR:539:CD2:4869, H-B:GLY:454:N:9017, V-B:ILE:369:CD1:8206, V-B:LEU:475:CD2:9226, V-A:ALA:541:CB:4887, V-B:ARG:545:CZ:9894, V-B:LEU:475:CD1:9225, V-B:HIS:456:CE1:9037, V-B:TYR:484:CZ:9314, H-B:TYR:484:OH:9315, V-B:ARG:545:CD:9891, H-A:HIS:456:NE2:4065, V-A:ILE:369:CD1:3234, V-B:GLY:453:CA:9011, V-A:ARG:545:CZ:4921, V-A:GLY:453:CA:4039, H-A:GLY:454:N:4045, V-A:ARG:545:CD:4918, V-A:ARG:545:CG:4917, H-A:ARG:545:NH1:4922, H-A:ARG:545:NE:4919, V-A:ARG:545:CB:4916, V-A:GLY:453:C:4037, V-A:ILE:455:C:4047, V-A:HIS:456:CD2:4063"]

$$$$
RR16_Rahimova_2017
     RDKit          3D

 80 85  0  0  0  0  0  0  0  0999 V2000
  128.6580  128.9490   73.8330 O   0  0  0  0  0  0  0  0  0  0  0  0
  129.8370  128.7620   72.9800 S   0  0  0  0  0  0  0  0  0  0  0  0
  130.8770  127.7900   73.3360 O   0  0  0  0  0  0  0  0  0  0  0  0
  130.6050  130.3380   72.7800 N   0  0  0  0  0  0  0  0  0  0  0  0
  129.9980  131.5590   73.3590 C   0  0  0  0  0  0  0  0  0  0  0  0
  131.0570  132.6920   73.3840 C   0  0  0  0  0  0  0  0  0  0  0  0
  130.8420  133.8830   72.4310 C   0  0  0  0  0  0  0  0  0  0  0  0
  129.7190  134.8390   72.8700 C   0  0  0  0  0  0  0  0  0  0  0  0
  128.6190  134.2210   73.7530 C   0  0  0  0  0  0  0  0  0  0  0  0
  127.8490  133.0140   73.1820 C   0  0  0  0  0  0  0  0  0  0  0  0
  128.6980  131.8750   72.5830 C   0  0  0  0  0  0  0  0  0  0  0  0
  129.2350  128.3490   71.3470 C   0  0  0  0  0  0  0  0  0  0  0  0
  129.7400  129.0060   70.2220 C   0  0  0  0  0  0  0  0  0  0  0  0
  129.1780  128.7640   68.9720 C   0  0  0  0  0  0  0  0  0  0  0  0
  128.1140  127.8670   68.8520 C   0  0  0  0  0  0  0  0  0  0  0  0
  127.2970  127.6600   67.2710 S   0  0  0  0  0  0  0  0  0  0  0  0
  127.0960  128.9990   66.7020 O   0  0  0  0  0  0  0  0  0  0  0  0
  126.1530  126.7640   67.4810 O   0  0  0  0  0  0  0  0  0  0  0  0
  128.4910  126.8060   66.2740 N   0  0  0  0  0  0  0  0  0  0  0  0
  129.1940  127.6640   65.2850 C   0  0  0  0  0  0  0  0  0  0  0  0
  129.9660  126.7970   64.2700 C   0  0  0  0  0  0  0  0  0  0  0  0
  130.9080  125.7890   64.9740 C   0  0  0  0  0  0  0  0  0  0  0  0
  131.6490  124.8860   63.9840 C   0  0  0  0  0  0  0  0  0  0  0  0
  133.0320  125.0350   63.8080 C   0  0  0  0  0  0  0  0  0  0  0  0
  133.7490  124.2280   62.9230 C   0  0  0  0  0  0  0  0  0  0  0  0
  135.1020  124.3850   62.7670 O   0  0  0  0  0  0  0  0  0  0  0  0
  133.0470  123.2500   62.2020 C   0  0  0  0  0  0  0  0  0  0  0  0
  133.4770  122.3230   61.2970 N   0  0  0  0  0  0  0  0  0  0  0  0
  132.3820  121.5820   60.9100 N   0  0  0  0  0  0  0  0  0  0  0  0
  131.2930  122.0750   61.5330 N   0  0  0  0  0  0  0  0  0  0  0  0
  130.0000  121.4240   61.3730 C   0  0  0  0  0  0  0  0  0  0  0  0
  129.0390  122.2300   60.5100 C   0  0  0  0  0  0  0  0  0  0  0  0
  129.3320  122.4610   59.1620 C   0  0  0  0  0  0  0  0  0  0  0  0
  128.4430  123.1800   58.3630 C   0  0  0  0  0  0  0  0  0  0  0  0
  127.2550  123.6710   58.9070 C   0  0  0  0  0  0  0  0  0  0  0  0
  126.9560  123.4420   60.2500 C   0  0  0  0  0  0  0  0  0  0  0  0
  125.4830  124.0380   60.9230 Cl  0  0  0  0  0  0  0  0  0  0  0  0
  127.8480  122.7250   61.0510 C   0  0  0  0  0  0  0  0  0  0  0  0
  131.6500  123.1110   62.3790 C   0  0  0  0  0  0  0  0  0  0  0  0
  130.9300  123.9210   63.2640 C   0  0  0  0  0  0  0  0  0  0  0  0
  130.1860  124.9900   66.0910 C   0  0  0  0  0  0  0  0  0  0  0  0
  129.3980  125.9140   67.0420 C   0  0  0  0  0  0  0  0  0  0  0  0
  127.6380  127.1800   69.9710 C   0  0  0  0  0  0  0  0  0  0  0  0
  128.1970  127.4240   71.2200 C   0  0  0  0  0  0  0  0  0  0  0  0
  131.6200  130.3480   72.6540 H   0  0  0  0  0  0  0  0  0  0  0  0
  129.6963  131.4266   74.4085 H   0  0  0  0  0  0  0  0  0  0  0  0
  131.0897  133.0908   74.4086 H   0  0  0  0  0  0  0  0  0  0  0  0
  131.9862  132.2170   73.0362 H   0  0  0  0  0  0  0  0  0  0  0  0
  131.7803  134.4543   72.3737 H   0  0  0  0  0  0  0  0  0  0  0  0
  130.5423  133.4638   71.4592 H   0  0  0  0  0  0  0  0  0  0  0  0
  130.1794  135.6644   73.4328 H   0  0  0  0  0  0  0  0  0  0  0  0
  129.2163  135.1543   71.9438 H   0  0  0  0  0  0  0  0  0  0  0  0
  129.0920  133.8971   74.6918 H   0  0  0  0  0  0  0  0  0  0  0  0
  127.8635  135.0135   73.8589 H   0  0  0  0  0  0  0  0  0  0  0  0
  127.2453  132.5875   73.9966 H   0  0  0  0  0  0  0  0  0  0  0  0
  127.2648  133.4142   72.3402 H   0  0  0  0  0  0  0  0  0  0  0  0
  128.0821  130.9639   72.5615 H   0  0  0  0  0  0  0  0  0  0  0  0
  129.0081  132.2125   71.5830 H   0  0  0  0  0  0  0  0  0  0  0  0
  130.5780  129.7113   70.3238 H   0  0  0  0  0  0  0  0  0  0  0  0
  129.5703  129.2773   68.0817 H   0  0  0  0  0  0  0  0  0  0  0  0
  128.4554  128.2780   64.7488 H   0  0  0  0  0  0  0  0  0  0  0  0
  129.9082  128.3090   65.8177 H   0  0  0  0  0  0  0  0  0  0  0  0
  129.2436  126.2398   63.6554 H   0  0  0  0  0  0  0  0  0  0  0  0
  130.5817  127.4641   63.6488 H   0  0  0  0  0  0  0  0  0  0  0  0
  131.6838  126.3862   65.4755 H   0  0  0  0  0  0  0  0  0  0  0  0
  133.5654  125.8072   64.3817 H   0  0  0  0  0  0  0  0  0  0  0  0
  135.3340  125.1240   62.1990 H   0  0  0  0  0  0  0  0  0  0  0  0
  130.1563  120.4420   60.9026 H   0  0  0  0  0  0  0  0  0  0  0  0
  129.5497  121.3295   62.3722 H   0  0  0  0  0  0  0  0  0  0  0  0
  130.2669  122.0742   58.7304 H   0  0  0  0  0  0  0  0  0  0  0  0
  128.6783  123.3602   57.3037 H   0  0  0  0  0  0  0  0  0  0  0  0
  126.5546  124.2385   58.2766 H   0  0  0  0  0  0  0  0  0  0  0  0
  127.6129  122.5491   62.1111 H   0  0  0  0  0  0  0  0  0  0  0  0
  129.8434  123.8055   63.3900 H   0  0  0  0  0  0  0  0  0  0  0  0
  129.4870  124.2799   65.6251 H   0  0  0  0  0  0  0  0  0  0  0  0
  130.9502  124.4643   66.6823 H   0  0  0  0  0  0  0  0  0  0  0  0
  128.8011  125.2987   67.7313 H   0  0  0  0  0  0  0  0  0  0  0  0
  130.1112  126.5340   67.6049 H   0  0  0  0  0  0  0  0  0  0  0  0
  126.8236  126.4484   69.8642 H   0  0  0  0  0  0  0  0  0  0  0  0
  127.8227  126.8899   72.1058 H   0  0  0  0  0  0  0  0  0  0  0  0
  1  2  2  0
  2  3  2  0
  2  4  1  0
  4  5  1  0
  5  6  1  0
  6  7  1  0
  7  8  1  0
  8  9  1  0
  9 10  1  0
 10 11  1  0
  2 12  1  0
 12 13  2  0
 13 14  1  0
 14 15  2  0
 15 16  1  0
 16 17  2  0
 16 18  2  0
 16 19  1  0
 19 20  1  0
 20 21  1  0
 21 22  1  0
 22 23  1  0
 23 24  2  0
 24 25  1  0
 25 26  1  0
 25 27  2  0
 27 28  1  0
 28 29  2  0
 29 30  1  0
 30 31  1  0
 31 32  1  0
 32 33  2  0
 33 34  1  0
 34 35  2  0
 35 36  1  0
 36 37  1  0
 36 38  2  0
 30 39  1  0
 39 40  2  0
 22 41  1  0
 41 42  1  0
 15 43  1  0
 43 44  2  0
 11  5  1  0
 44 12  1  0
 42 19  1  0
 40 23  1  0
 39 27  1  0
 38 32  1  0
  4 45  1  0
  5 46  1  0
  6 47  1  0
  6 48  1  0
  7 49  1  0
  7 50  1  0
  8 51  1  0
  8 52  1  0
  9 53  1  0
  9 54  1  0
 10 55  1  0
 10 56  1  0
 11 57  1  0
 11 58  1  0
 13 59  1  0
 14 60  1  0
 20 61  1  0
 20 62  1  0
 21 63  1  0
 21 64  1  0
 22 65  1  0
 24 66  1  0
 26 67  1  0
 31 68  1  0
 31 69  1  0
 33 70  1  0
 34 71  1  0
 35 72  1  0
 38 73  1  0
 40 74  1  0
 41 75  1  0
 41 76  1  0
 42 77  1  0
 42 78  1  0
 43 79  1  0
 44 80  1  0
M  END
>  <Binding energies>  (1) 
[-10.93]

>  <Ligand effiencies>  (1) 
[-0.22770833333333332]

>  <Interactions>  (1) 
["V-B:TYR:539:CD2:9842, V-B:PRO:540:C:9849, V-B:TYR:539:CE2:9844, V-B:ALA:541:CB:9860, V-B:PRO:540:CA:9851, V-B:PRO:540:CB:9853, V-B:GLU:543:CD:9876, V-A:ASP:366:CG:3208, V-A:GLU:543:CD:4903, V-B:GLU:543:CG:9875, V-A:GLU:543:CB:4901, V-B:HIS:456:CE1:9037, H-B:TYR:484:OH:9315, V-B:GLU:543:CB:9874, V-B:TYR:484:CG:9309, V-A:LYS:547:CE:4945, H-B:LYS:547:NZ:9919, H-A:LYS:547:NZ:4946, V-B:HIS:456:CD2:9035, V-B:ASP:473:CB:9206, V-B:TYR:484:CB:9308, V-B:GLU:543:C:9870, H-A:GLU:543:O:4898, V-A:GLU:543:C:4897, H-A:GLY:544:O:4908, V-A:ARG:545:CZ:4921, H-A:GLY:454:N:4045, H-A:ARG:545:NH1:4922, H-A:ASP:366:OD1:3209, H-A:ASP:366:OD2:3210, V-A:GLY:544:CA:4909"]

$$$$
RR17_Rahimova_2017
     RDKit          3D

 63 66  0  0  0  0  0  0  0  0999 V2000
  124.8900  122.2370   56.4920 C   0  0  0  0  0  0  0  0  0  0  0  0
  126.1270  122.8080   57.1920 C   0  0  0  0  0  0  0  0  0  0  0  0
  127.2920  122.2600   56.5810 O   0  0  0  0  0  0  0  0  0  0  0  0
  128.5270  122.8150   56.8590 C   0  0  0  0  0  0  0  0  0  0  0  0
  129.0780  122.5170   58.1040 C   0  0  0  0  0  0  0  0  0  0  0  0
  130.3160  123.0310   58.4740 C   0  0  0  0  0  0  0  0  0  0  0  0
  131.0340  123.8600   57.6000 C   0  0  0  0  0  0  0  0  0  0  0  0
  132.3690  124.4000   58.0250 C   0  0  0  0  0  0  0  0  0  0  0  0
  133.2850  124.6050   57.2240 O   0  0  0  0  0  0  0  0  0  0  0  0
  132.5650  124.6780   59.5320 C   0  0  0  0  0  0  0  0  0  0  0  0
  133.5210  123.3570   60.3590 S   0  0  0  0  0  0  0  0  0  0  0  0
  133.3870  123.8910   62.0420 C   0  0  0  0  0  0  0  0  0  0  0  0
  134.3900  124.2480   62.8080 N   0  0  0  0  0  0  0  0  0  0  0  0
  133.8740  124.6060   64.0480 N   0  0  0  0  0  0  0  0  0  0  0  0
  132.5750  124.4550   63.9820 C   0  0  0  0  0  0  0  0  0  0  0  0
  131.6130  124.7480   65.1230 C   0  0  0  0  0  0  0  0  0  0  0  0
  131.3470  126.1720   65.3200 N   0  0  0  0  0  0  0  0  0  0  0  0
  130.0580  126.7100   65.4840 C   0  0  0  0  0  0  0  0  0  0  0  0
  129.4500  127.2750   64.3630 C   0  0  0  0  0  0  0  0  0  0  0  0
  128.1770  127.8310   64.4570 C   0  0  0  0  0  0  0  0  0  0  0  0
  127.4940  127.8230   65.6760 C   0  0  0  0  0  0  0  0  0  0  0  0
  126.0990  128.4420   65.7640 C   0  0  0  0  0  0  0  0  0  0  0  0
  126.1430  129.7560   65.9960 F   0  0  0  0  0  0  0  0  0  0  0  0
  125.4310  128.2480   64.6260 F   0  0  0  0  0  0  0  0  0  0  0  0
  125.4260  127.8640   66.7590 F   0  0  0  0  0  0  0  0  0  0  0  0
  128.0980  127.2490   66.8000 C   0  0  0  0  0  0  0  0  0  0  0  0
  129.3700  126.6930   66.7050 C   0  0  0  0  0  0  0  0  0  0  0  0
  132.1990  123.9910   62.7380 N   0  0  0  0  0  0  0  0  0  0  0  0
  130.9020  123.7170   62.2780 C   0  0  0  0  0  0  0  0  0  0  0  0
  130.1110  124.7580   61.7910 C   0  0  0  0  0  0  0  0  0  0  0  0
  128.8230  124.4860   61.3380 C   0  0  0  0  0  0  0  0  0  0  0  0
  128.3230  123.1740   61.3710 C   0  0  0  0  0  0  0  0  0  0  0  0
  127.0600  122.8120   60.9440 O   0  0  0  0  0  0  0  0  0  0  0  0
  125.9940  123.7490   61.0540 C   0  0  0  0  0  0  0  0  0  0  0  0
  129.1290  122.1450   61.8650 C   0  0  0  0  0  0  0  0  0  0  0  0
  130.4180  122.4100   62.3180 C   0  0  0  0  0  0  0  0  0  0  0  0
  130.4800  124.1590   56.3470 C   0  0  0  0  0  0  0  0  0  0  0  0
  129.2400  123.6430   55.9790 C   0  0  0  0  0  0  0  0  0  0  0  0
  124.1636  121.9017   57.2469 H   0  0  0  0  0  0  0  0  0  0  0  0
  124.4326  123.0151   55.8632 H   0  0  0  0  0  0  0  0  0  0  0  0
  125.1855  121.3842   55.8632 H   0  0  0  0  0  0  0  0  0  0  0  0
  126.1367  123.9033   57.0912 H   0  0  0  0  0  0  0  0  0  0  0  0
  126.1065  122.5473   58.2605 H   0  0  0  0  0  0  0  0  0  0  0  0
  128.5277  121.8683   58.8014 H   0  0  0  0  0  0  0  0  0  0  0  0
  130.7357  122.7852   59.4606 H   0  0  0  0  0  0  0  0  0  0  0  0
  133.1021  125.6307   59.6496 H   0  0  0  0  0  0  0  0  0  0  0  0
  131.5704  124.7189   60.0001 H   0  0  0  0  0  0  0  0  0  0  0  0
  130.6590  124.2432   64.9105 H   0  0  0  0  0  0  0  0  0  0  0  0
  132.0879  124.3805   66.0446 H   0  0  0  0  0  0  0  0  0  0  0  0
  132.0990  126.8150   65.1240 H   0  0  0  0  0  0  0  0  0  0  0  0
  129.9795  127.2813   63.3988 H   0  0  0  0  0  0  0  0  0  0  0  0
  127.7073  128.2781   63.5685 H   0  0  0  0  0  0  0  0  0  0  0  0
  127.5653  127.2372   67.7623 H   0  0  0  0  0  0  0  0  0  0  0  0
  129.8372  126.2386   67.5911 H   0  0  0  0  0  0  0  0  0  0  0  0
  130.5021  125.7858   61.7652 H   0  0  0  0  0  0  0  0  0  0  0  0
  128.1942  125.3022   60.9526 H   0  0  0  0  0  0  0  0  0  0  0  0
  125.7796  123.9374   62.1163 H   0  0  0  0  0  0  0  0  0  0  0  0
  126.2823  124.6914   60.5653 H   0  0  0  0  0  0  0  0  0  0  0  0
  125.0964  123.3422   60.5653 H   0  0  0  0  0  0  0  0  0  0  0  0
  128.7412  121.1161   61.8961 H   0  0  0  0  0  0  0  0  0  0  0  0
  131.0491  121.5959   62.7040 H   0  0  0  0  0  0  0  0  0  0  0  0
  131.0298  124.8069   55.6485 H   0  0  0  0  0  0  0  0  0  0  0  0
  128.8172  123.8859   54.9930 H   0  0  0  0  0  0  0  0  0  0  0  0
  1  2  1  0
  2  3  1  0
  3  4  1  0
  4  5  2  0
  5  6  1  0
  6  7  2  0
  7  8  1  0
  8  9  2  0
  8 10  1  0
 10 11  1  0
 11 12  1  0
 12 13  2  0
 13 14  1  0
 14 15  2  0
 15 16  1  0
 16 17  1  0
 17 18  1  0
 18 19  2  0
 19 20  1  0
 20 21  2  0
 21 22  1  0
 22 23  1  0
 22 24  1  0
 22 25  1  0
 21 26  1  0
 26 27  2  0
 15 28  1  0
 28 29  1  0
 29 30  2  0
 30 31  1  0
 31 32  2  0
 32 33  1  0
 33 34  1  0
 32 35  1  0
 35 36  2  0
  7 37  1  0
 37 38  2  0
 38  4  1  0
 28 12  1  0
 36 29  1  0
 27 18  1  0
  1 39  1  0
  1 40  1  0
  1 41  1  0
  2 42  1  0
  2 43  1  0
  5 44  1  0
  6 45  1  0
 10 46  1  0
 10 47  1  0
 16 48  1  0
 16 49  1  0
 17 50  1  0
 19 51  1  0
 20 52  1  0
 26 53  1  0
 27 54  1  0
 30 55  1  0
 31 56  1  0
 34 57  1  0
 34 58  1  0
 34 59  1  0
 35 60  1  0
 36 61  1  0
 37 62  1  0
 38 63  1  0
M  END
>  <Binding energies>  (1) 
[-8.64]

>  <Ligand effiencies>  (1) 
[-0.22153846153846155]

>  <Interactions>  (1) 
["V-B:TYR:539:C:9835, V-B:TYR:539:CD2:9842, V-B:TYR:539:CE2:9844, V-B:PRO:540:N:9852, V-B:ALA:541:CB:9860, V-B:PRO:540:CA:9851, V-B:MET:535:CE:9803, V-B:PRO:540:CB:9853, H-B:ALA:541:N:9859, V-B:GLU:543:CD:9876, V-B:ALA:541:CA:9858, V-A:ASP:366:CB:3207, H-A:GLU:543:OE2:4905, V-A:ASP:366:CG:3208, V-A:GLU:543:CD:4903, H-A:TYR:484:OH:4343, V-B:GLU:543:CG:9875, H-B:TYR:539:N:9838, V-B:PRO:540:CD:9855, V-B:LEU:363:CD1:8156, V-B:TYR:539:CZ:9845, V-B:ARG:545:CZ:9894, V-B:HIS:456:CE1:9037, V-B:TYR:484:CZ:9314, V-B:ARG:545:CG:9890, V-B:ARG:545:CD:9891, V-A:TYR:484:CZ:4342, V-B:GLU:543:CB:9874, V-B:TYR:539:CE1:9843, V-A:ILE:369:CD1:3234, H-A:GLU:543:OE1:4904, V-B:PRO:540:CG:9854, H-A:TYR:531:OH:4790, H-B:TYR:539:OH:9846, H-A:GLY:454:N:4045, V-B:TYR:539:CD1:9841, V-B:TYR:539:CG:9840, V-B:ILE:538:CG2:9831"]

$$$$
RR18_Rahimova_2017
     RDKit          3D

 56 61  0  0  0  0  0  0  0  0999 V2000
  124.8750  122.9810   56.9110 C   0  0  0  0  0  0  0  0  0  0  0  0
  125.7560  123.8250   57.7980 C   0  0  0  0  0  0  0  0  0  0  0  0
  126.1780  123.7260   59.1140 C   0  0  0  0  0  0  0  0  0  0  0  0
  126.9930  124.8310   59.3590 C   0  0  0  0  0  0  0  0  0  0  0  0
  127.0390  125.5650   58.1850 C   0  0  0  0  0  0  0  0  0  0  0  0
  127.7410  126.8560   57.7710 C   0  0  1  0  0  0  0  0  0  0  0  0
  128.3700  126.7340   56.3510 C   0  0  0  0  0  0  0  0  0  0  0  0
  129.4620  125.7970   56.1040 C   0  0  0  0  0  0  0  0  0  0  0  0
  129.6610  125.3100   54.9900 O   0  0  0  0  0  0  0  0  0  0  0  0
  130.2250  125.5360   57.1910 N   0  0  0  0  0  0  0  0  0  0  0  0
  131.3380  124.6810   57.3410 C   0  0  0  0  0  0  0  0  0  0  0  0
  132.4460  124.6920   56.4750 C   0  0  0  0  0  0  0  0  0  0  0  0
  133.5110  123.8150   56.6760 C   0  0  0  0  0  0  0  0  0  0  0  0
  133.4840  122.9130   57.7350 C   0  0  0  0  0  0  0  0  0  0  0  0
  132.3870  122.8830   58.5930 C   0  0  0  0  0  0  0  0  0  0  0  0
  131.3120  123.7570   58.4060 C   0  0  0  0  0  0  0  0  0  0  0  0
  130.1330  123.6800   59.3710 C   0  0  0  0  0  0  0  0  0  0  0  0
  127.8120  127.4400   55.3330 C   0  0  0  0  0  0  0  0  0  0  0  0
  126.8080  128.3490   55.4770 N   0  0  0  0  0  0  0  0  0  0  0  0
  126.3860  128.6420   56.6520 C   0  0  0  0  0  0  0  0  0  0  0  0
  125.2150  129.8910   57.0030 S   0  0  0  0  0  0  0  0  0  0  0  0
  125.3220  129.5700   58.7620 C   0  0  0  0  0  0  0  0  0  0  0  0
  124.6360  130.2140   59.7690 C   0  0  0  0  0  0  0  0  0  0  0  0
  123.7570  131.3510   59.4590 C   0  0  0  0  0  0  0  0  0  0  0  0
  123.4760  131.8620   58.3760 O   0  0  0  0  0  0  0  0  0  0  0  0
  123.2720  131.8080   60.6180 N   0  0  0  0  0  0  0  0  0  0  0  0
  123.6960  131.0860   61.6930 C   0  0  0  0  0  0  0  0  0  0  0  0
  123.3720  131.2810   63.0350 C   0  0  0  0  0  0  0  0  0  0  0  0
  123.8900  130.4060   63.9850 C   0  0  0  0  0  0  0  0  0  0  0  0
  124.7090  129.3540   63.5800 C   0  0  0  0  0  0  0  0  0  0  0  0
  125.0200  129.1800   62.2290 C   0  0  0  0  0  0  0  0  0  0  0  0
  124.5250  130.0680   61.2550 C   0  0  0  0  0  0  0  0  0  0  0  0
  126.2930  128.4940   58.9670 C   0  0  0  0  0  0  0  0  0  0  0  0
  126.6650  128.0430   60.0460 O   0  0  0  0  0  0  0  0  0  0  0  0
  126.7930  128.0260   57.7910 N   0  0  0  0  0  0  0  0  0  0  0  0
  126.2830  124.9460   57.2400 O   0  0  0  0  0  0  0  0  0  0  0  0
  124.2205  122.3540   57.5342 H   0  0  0  0  0  0  0  0  0  0  0  0
  124.2597  123.6353   56.2760 H   0  0  0  0  0  0  0  0  0  0  0  0
  125.5024  122.3382   56.2760 H   0  0  0  0  0  0  0  0  0  0  0  0
  125.9201  122.9297   59.8277 H   0  0  0  0  0  0  0  0  0  0  0  0
  127.5019  125.0733   60.3036 H   0  0  0  0  0  0  0  0  0  0  0  0
  128.5427  127.0279   58.5043 H   0  0  0  0  0  0  0  0  0  0  0  0
  130.0040  126.0670   58.0200 H   0  0  0  0  0  0  0  0  0  0  0  0
  132.4726  125.3983   55.6321 H   0  0  0  0  0  0  0  0  0  0  0  0
  134.3750  123.8362   55.9955 H   0  0  0  0  0  0  0  0  0  0  0  0
  134.3273  122.2249   57.8944 H   0  0  0  0  0  0  0  0  0  0  0  0
  132.3664  122.1646   59.4258 H   0  0  0  0  0  0  0  0  0  0  0  0
  130.5043  123.7042   60.4062 H   0  0  0  0  0  0  0  0  0  0  0  0
  129.4638  124.5364   59.2013 H   0  0  0  0  0  0  0  0  0  0  0  0
  129.5808  122.7439   59.2013 H   0  0  0  0  0  0  0  0  0  0  0  0
  128.1994  127.2646   54.3185 H   0  0  0  0  0  0  0  0  0  0  0  0
  122.6400  132.5930   60.6800 H   0  0  0  0  0  0  0  0  0  0  0  0
  122.7182  132.1122   63.3376 H   0  0  0  0  0  0  0  0  0  0  0  0
  123.6541  130.5442   65.0505 H   0  0  0  0  0  0  0  0  0  0  0  0
  125.1131  128.6564   64.3283 H   0  0  0  0  0  0  0  0  0  0  0  0
  125.6594  128.3390   61.9226 H   0  0  0  0  0  0  0  0  0  0  0  0
  1  2  1  0
  2  3  2  0
  3  4  1  0
  4  5  2  0
  5  6  1  0
  6  7  1  0
  7  8  1  0
  8  9  2  0
  8 10  1  0
 10 11  1  0
 11 12  2  0
 12 13  1  0
 13 14  2  0
 14 15  1  0
 15 16  2  0
 16 17  1  0
  7 18  2  0
 18 19  1  0
 19 20  2  0
 20 21  1  0
 21 22  1  0
 22 23  2  0
 23 24  1  0
 24 25  2  0
 24 26  1  0
 26 27  1  0
 27 28  2  0
 28 29  1  0
 29 30  2  0
 30 31  1  0
 31 32  2  0
 22 33  1  0
 33 34  2  0
 33 35  1  0
  5 36  1  0
 36  2  1  0
 35  6  1  0
 16 11  1  0
 35 20  1  0
 32 23  1  0
 32 27  1  0
  1 37  1  0
  1 38  1  0
  1 39  1  0
  3 40  1  0
  4 41  1  0
  6 42  1  1
 10 43  1  0
 12 44  1  0
 13 45  1  0
 14 46  1  0
 15 47  1  0
 17 48  1  0
 17 49  1  0
 17 50  1  0
 18 51  1  0
 26 52  1  0
 28 53  1  0
 29 54  1  0
 30 55  1  0
 31 56  1  0
M  END
>  <Binding energies>  (1) 
[-8.85]

>  <Ligand effiencies>  (1) 
[-0.23289473684210527]

>  <Interactions>  (1) 
["V-B:TYR:539:CE2:9844, V-B:PRO:540:N:9852, V-B:PRO:540:CA:9851, V-B:MET:535:CE:9803, V-B:PRO:540:CB:9853, V-A:TYR:531:CZ:4789, V-A:ASP:366:CB:3207, V-A:TYR:539:CZ:4872, V-B:GLY:454:CA:9016, V-B:ILE:369:CD1:8206, V-B:ASP:366:CG:8180, V-B:PRO:540:CD:9855, V-B:LEU:363:CD1:8156, V-B:TYR:531:CZ:9762, V-B:TYR:539:CZ:9845, V-B:ASP:366:CB:8179, V-B:ARG:545:CZ:9894, H-A:TYR:539:OH:4873, V-B:ASP:366:CA:8177, V-B:ILE:369:CG2:8204, V-B:ILE:369:CB:8203, V-A:ILE:369:CG2:3232, V-B:GLY:453:CA:9011, V-B:GLY:453:C:9009, V-B:ILE:369:CG1:8205, V-A:ILE:369:CB:3231, V-A:TYR:531:CE1:4787, H-A:TYR:531:OH:4790, V-A:ASP:366:C:3203, H-A:LYS:534:NZ:4818, H-B:TYR:531:OH:9763, V-A:ASN:370:CB:3240"]

$$$$
RR19_Rahimova_2017
     RDKit          3D

 72 77  0  0  0  0  0  0  0  0999 V2000
  126.0670  129.4300   60.8920 O   0  0  0  0  0  0  0  0  0  0  0  0
  127.3000  129.4920   60.8660 C   0  0  0  0  0  0  0  0  0  0  0  0
  128.1530  128.4420   60.9720 N   0  0  0  0  0  0  0  0  0  0  0  0
  127.9740  127.0820   60.9170 C   0  0  0  0  0  0  0  0  0  0  0  0
  126.5560  126.2930   60.4340 S   0  0  0  0  0  0  0  0  0  0  0  0
  129.1350  126.4690   61.3190 N   0  0  0  0  0  0  0  0  0  0  0  0
  129.5460  125.1760   61.3190 C   0  0  0  0  0  0  0  0  0  0  0  0
  128.9860  124.2310   60.7580 O   0  0  0  0  0  0  0  0  0  0  0  0
  130.8360  124.9260   62.1380 C   0  0  2  0  0  0  0  0  0  0  0  0
  131.5490  123.5750   61.8390 C   0  0  0  0  0  0  0  0  0  0  0  0
  132.2630  123.5030   60.4990 C   0  0  0  0  0  0  0  0  0  0  0  0
  132.8460  122.2970   60.0530 C   0  0  0  0  0  0  0  0  0  0  0  0
  133.4250  122.2290   58.7930 C   0  0  0  0  0  0  0  0  0  0  0  0
  133.4180  123.3400   57.9580 C   0  0  0  0  0  0  0  0  0  0  0  0
  132.8210  124.5240   58.3710 C   0  0  0  0  0  0  0  0  0  0  0  0
  132.2350  124.6120   59.6270 C   0  0  0  0  0  0  0  0  0  0  0  0
  130.5940  125.1050   63.5960 N   0  0  0  0  0  0  0  0  0  0  0  0
  130.3640  126.3380   64.1300 C   0  0  0  0  0  0  0  0  0  0  0  0
  130.3520  127.4190   63.5370 O   0  0  0  0  0  0  0  0  0  0  0  0
  130.1260  126.1060   65.5760 C   0  0  0  0  0  0  0  0  0  0  0  0
  129.8470  126.9980   66.6120 C   0  0  0  0  0  0  0  0  0  0  0  0
  129.6580  126.4890   67.9020 C   0  0  0  0  0  0  0  0  0  0  0  0
  129.7470  125.1100   68.1370 C   0  0  0  0  0  0  0  0  0  0  0  0
  130.0270  124.2320   67.0840 C   0  0  0  0  0  0  0  0  0  0  0  0
  130.2140  124.7600   65.8060 C   0  0  0  0  0  0  0  0  0  0  0  0
  130.5090  124.0950   64.5130 C   0  0  0  0  0  0  0  0  0  0  0  0
  130.6390  122.8860   64.3110 O   0  0  0  0  0  0  0  0  0  0  0  0
  127.9940  130.8720   60.7130 C   0  0  2  0  0  0  0  0  0  0  0  0
  127.3050  131.8140   59.6830 C   0  0  0  0  0  0  0  0  0  0  0  0
  128.0980  132.0140   58.4050 C   0  0  0  0  0  0  0  0  0  0  0  0
  129.1880  132.9120   58.3810 C   0  0  0  0  0  0  0  0  0  0  0  0
  129.9740  133.0180   57.2410 C   0  0  0  0  0  0  0  0  0  0  0  0
  129.7120  132.2240   56.1320 C   0  0  0  0  0  0  0  0  0  0  0  0
  128.6670  131.3080   56.1550 C   0  0  0  0  0  0  0  0  0  0  0  0
  127.8680  131.1880   57.2850 C   0  0  0  0  0  0  0  0  0  0  0  0
  129.4610  130.7710   60.4650 N   0  0  0  0  0  0  0  0  0  0  0  0
  130.3620  131.4840   61.1970 C   0  0  0  0  0  0  0  0  0  0  0  0
  130.1220  132.2830   62.1030 O   0  0  0  0  0  0  0  0  0  0  0  0
  131.6930  131.0940   60.6700 C   0  0  0  0  0  0  0  0  0  0  0  0
  132.9770  131.5070   61.0320 C   0  0  0  0  0  0  0  0  0  0  0  0
  134.0720  130.9590   60.3540 C   0  0  0  0  0  0  0  0  0  0  0  0
  133.8740  130.0160   59.3380 C   0  0  0  0  0  0  0  0  0  0  0  0
  132.5790  129.6130   58.9910 C   0  0  0  0  0  0  0  0  0  0  0  0
  131.5000  130.1730   59.6780 C   0  0  0  0  0  0  0  0  0  0  0  0
  130.0400  129.9480   59.5420 C   0  0  0  0  0  0  0  0  0  0  0  0
  129.4730  129.1820   58.7620 O   0  0  0  0  0  0  0  0  0  0  0  0
  129.1230  128.7190   61.0040 H   0  0  0  0  0  0  0  0  0  0  0  0
  129.7750  127.0890   61.7930 H   0  0  0  0  0  0  0  0  0  0  0  0
  131.5432  125.6970   61.7983 H   0  0  0  0  0  0  0  0  0  0  0  0
  132.2924  123.4000   62.6306 H   0  0  0  0  0  0  0  0  0  0  0  0
  130.7567  122.8127   61.8042 H   0  0  0  0  0  0  0  0  0  0  0  0
  132.8415  121.4106   60.7043 H   0  0  0  0  0  0  0  0  0  0  0  0
  133.8912  121.2920   58.4542 H   0  0  0  0  0  0  0  0  0  0  0  0
  133.8877  123.2813   56.9650 H   0  0  0  0  0  0  0  0  0  0  0  0
  132.8123  125.3959   57.7004 H   0  0  0  0  0  0  0  0  0  0  0  0
  131.7487  125.5469   59.9423 H   0  0  0  0  0  0  0  0  0  0  0  0
  129.7770  128.0787   66.4189 H   0  0  0  0  0  0  0  0  0  0  0  0
  129.4388  127.1737   68.7345 H   0  0  0  0  0  0  0  0  0  0  0  0
  129.5962  124.7165   69.1531 H   0  0  0  0  0  0  0  0  0  0  0  0
  130.0982  123.1485   67.2600 H   0  0  0  0  0  0  0  0  0  0  0  0
  127.8671  131.3464   61.6973 H   0  0  0  0  0  0  0  0  0  0  0  0
  126.3275  131.3835   59.4201 H   0  0  0  0  0  0  0  0  0  0  0  0
  127.2176  132.8005   60.1617 H   0  0  0  0  0  0  0  0  0  0  0  0
  129.4141  133.5269   59.2646 H   0  0  0  0  0  0  0  0  0  0  0  0
  130.8083  133.7345   57.2162 H   0  0  0  0  0  0  0  0  0  0  0  0
  130.3350  132.3207   55.2306 H   0  0  0  0  0  0  0  0  0  0  0  0
  128.4721  130.6762   55.2759 H   0  0  0  0  0  0  0  0  0  0  0  0
  127.0547  130.4477   57.3064 H   0  0  0  0  0  0  0  0  0  0  0  0
  133.1246  132.2469   61.8325 H   0  0  0  0  0  0  0  0  0  0  0  0
  135.0927  131.2705   60.6205 H   0  0  0  0  0  0  0  0  0  0  0  0
  134.7399  129.5899   58.8101 H   0  0  0  0  0  0  0  0  0  0  0  0
  132.4151  128.8718   58.1949 H   0  0  0  0  0  0  0  0  0  0  0  0
  1  2  2  0
  2  3  1  0
  3  4  1  0
  4  5  2  0
  4  6  1  0
  6  7  1  0
  7  8  2  0
  7  9  1  0
  9 10  1  0
 10 11  1  0
 11 12  2  0
 12 13  1  0
 13 14  2  0
 14 15  1  0
 15 16  2  0
  9 17  1  0
 17 18  1  0
 18 19  2  0
 18 20  1  0
 20 21  2  0
 21 22  1  0
 22 23  2  0
 23 24  1  0
 24 25  2  0
 25 26  1  0
 26 27  2  0
  2 28  1  0
 28 29  1  0
 29 30  1  0
 30 31  2  0
 31 32  1  0
 32 33  2  0
 33 34  1  0
 34 35  2  0
 28 36  1  0
 36 37  1  0
 37 38  2  0
 37 39  1  0
 39 40  2  0
 40 41  1  0
 41 42  2  0
 42 43  1  0
 43 44  2  0
 44 45  1  0
 45 46  2  0
 16 11  1  0
 26 17  1  0
 35 30  1  0
 45 36  1  0
 25 20  1  0
 44 39  1  0
  3 47  1  0
  6 48  1  0
  9 49  1  6
 10 50  1  0
 10 51  1  0
 12 52  1  0
 13 53  1  0
 14 54  1  0
 15 55  1  0
 16 56  1  0
 21 57  1  0
 22 58  1  0
 23 59  1  0
 24 60  1  0
 28 61  1  1
 29 62  1  0
 29 63  1  0
 31 64  1  0
 32 65  1  0
 33 66  1  0
 34 67  1  0
 35 68  1  0
 40 69  1  0
 41 70  1  0
 42 71  1  0
 43 72  1  0
M  END
>  <Binding energies>  (1) 
[-10.33]

>  <Ligand effiencies>  (1) 
[-0.21520833333333333]

>  <Interactions>  (1) 
["V-B:TYR:539:CE2:9844, V-B:GLU:543:CD:9876, V-A:PRO:540:N:4879, V-A:ASN:362:C:3167, V-A:TYR:539:CE2:4871, V-A:PRO:540:CA:4878, V-A:TYR:539:CE1:4870, V-A:ASP:366:CB:3207, H-A:ALA:541:N:4886, V-A:TYR:539:CZ:4872, V-A:PRO:540:CB:4880, V-A:TYR:539:C:4862, V-A:ASN:362:CB:3171, V-A:LEU:363:CA:3180, V-A:PRO:540:CD:4882, V-A:ASP:366:CG:3208, V-A:GLU:543:CD:4903, H-A:TYR:484:OH:4343, V-B:GLU:543:CG:9875, V-A:TYR:484:CE1:4340, V-A:TYR:539:CD2:4869, V-A:TYR:539:CD1:4868, V-A:TYR:539:CG:4867, V-A:TYR:539:CA:4864, V-A:TYR:484:CZ:4342, V-B:GLU:543:CA:9872, V-A:HIS:456:CE1:4064, V-B:GLU:543:CB:9874, V-B:GLU:543:C:9870, V-A:ILE:369:CD1:3234, V-A:ILE:369:CG2:3232, V-A:ILE:369:CB:3231, V-A:ASN:362:CA:3169"]

$$$$
RR19_Rahimova_2017-again1
     RDKit          3D

 71 76  0  0  0  0  0  0  0  0999 V2000
  128.9060  125.6180   78.9090 O   0  0  0  0  0  0  0  0  0  0  0  0
  129.5360  126.0060   77.9220 C   0  0  0  0  0  0  0  0  0  0  0  0
  129.1900  127.0400   77.1180 N   0  0  0  0  0  0  0  0  0  0  0  0
  128.2180  127.9970   77.2020 C   0  0  0  0  0  0  0  0  0  0  0  0
  126.9760  128.1860   78.3180 S   0  0  0  0  0  0  0  0  0  0  0  0
  128.4720  128.9090   76.1930 N   0  0  0  0  0  0  0  0  0  0  0  0
  127.7400  129.2270   75.1760 C   0  0  0  0  0  0  0  0  0  0  0  0
  126.5850  128.8700   74.8680 O   0  0  0  0  0  0  0  0  0  0  0  0
  128.4060  130.2040   74.1490 C   0  0  2  0  0  0  0  0  0  0  0  0
  127.6070  131.5450   74.0370 C   0  0  0  0  0  0  0  0  0  0  0  0
  128.4420  132.7460   73.6000 C   0  0  0  0  0  0  0  0  0  0  0  0
  128.6620  133.8020   74.4880 C   0  0  0  0  0  0  0  0  0  0  0  0
  129.4360  134.8910   74.0960 C   0  0  0  0  0  0  0  0  0  0  0  0
  129.9860  134.9220   72.8160 C   0  0  0  0  0  0  0  0  0  0  0  0
  129.7670  133.8730   71.9240 C   0  0  0  0  0  0  0  0  0  0  0  0
  128.9920  132.7860   72.3160 C   0  0  0  0  0  0  0  0  0  0  0  0
  128.7330  129.5610   72.8340 N   0  0  0  0  0  0  0  0  0  0  0  0
  129.9480  129.7320   72.2380 C   0  0  0  0  0  0  0  0  0  0  0  0
  130.8940  130.4040   72.6490 O   0  0  0  0  0  0  0  0  0  0  0  0
  129.8870  128.9370   70.9840 C   0  0  0  0  0  0  0  0  0  0  0  0
  130.8340  128.7440   69.9780 C   0  0  0  0  0  0  0  0  0  0  0  0
  130.4990  127.9290   68.8910 C   0  0  0  0  0  0  0  0  0  0  0  0
  129.2380  127.3220   68.8250 C   0  0  0  0  0  0  0  0  0  0  0  0
  128.3030  127.5280   69.8450 C   0  0  0  0  0  0  0  0  0  0  0  0
  128.6560  128.3460   70.9190 C   0  0  0  0  0  0  0  0  0  0  0  0
  127.8940  128.7430   72.1280 C   0  0  0  0  0  0  0  0  0  0  0  0
  126.7500  128.4060   72.4270 O   0  0  0  0  0  0  0  0  0  0  0  0
  130.8530  125.2810   77.5140 C   0  0  2  0  0  0  0  0  0  0  0  0
  132.1240  126.1670   77.6510 C   0  0  0  0  0  0  0  0  0  0  0  0
  133.3160  125.6630   76.8580 C   0  0  0  0  0  0  0  0  0  0  0  0
  133.9280  124.4390   77.2010 C   0  0  0  0  0  0  0  0  0  0  0  0
  134.9540  123.9300   76.4150 C   0  0  0  0  0  0  0  0  0  0  0  0
  135.3640  124.6080   75.2740 C   0  0  0  0  0  0  0  0  0  0  0  0
  134.7460  125.7960   74.9030 C   0  0  0  0  0  0  0  0  0  0  0  0
  133.7180  126.3210   75.6750 C   0  0  0  0  0  0  0  0  0  0  0  0
  130.7850  124.5980   76.1870 N   0  0  0  0  0  0  0  0  0  0  0  0
  130.5920  125.2960   75.0330 C   0  0  0  0  0  0  0  0  0  0  0  0
  130.3750  126.5030   74.9170 O   0  0  0  0  0  0  0  0  0  0  0  0
  130.7090  124.2980   73.9420 C   0  0  0  0  0  0  0  0  0  0  0  0
  130.6150  124.4410   72.5570 C   0  0  0  0  0  0  0  0  0  0  0  0
  130.7910  123.3100   71.7530 C   0  0  0  0  0  0  0  0  0  0  0  0
  131.0540  122.0630   72.3360 C   0  0  0  0  0  0  0  0  0  0  0  0
  131.1420  121.9380   73.7270 C   0  0  0  0  0  0  0  0  0  0  0  0
  130.9650  123.0800   74.5110 C   0  0  0  0  0  0  0  0  0  0  0  0
  131.0270  123.2690   75.9810 C   0  0  0  0  0  0  0  0  0  0  0  0
  131.2600  122.4100   76.8330 O   0  0  0  0  0  0  0  0  0  0  0  0
  129.8250  127.1860   76.3470 H   0  0  0  0  0  0  0  0  0  0  0  0
  129.3937  130.4732   74.5516 H   0  0  0  0  0  0  0  0  0  0  0  0
  126.7993  131.4033   73.3038 H   0  0  0  0  0  0  0  0  0  0  0  0
  127.2364  131.7732   75.0473 H   0  0  0  0  0  0  0  0  0  0  0  0
  128.2238  133.7731   75.4966 H   0  0  0  0  0  0  0  0  0  0  0  0
  129.6125  135.7231   74.7935 H   0  0  0  0  0  0  0  0  0  0  0  0
  130.5984  135.7818   72.5066 H   0  0  0  0  0  0  0  0  0  0  0  0
  130.2048  133.9046   70.9154 H   0  0  0  0  0  0  0  0  0  0  0  0
  128.8121  131.9577   71.6149 H   0  0  0  0  0  0  0  0  0  0  0  0
  131.8228  129.2222   70.0380 H   0  0  0  0  0  0  0  0  0  0  0  0
  131.2289  127.7642   68.0848 H   0  0  0  0  0  0  0  0  0  0  0  0
  128.9823  126.6813   67.9682 H   0  0  0  0  0  0  0  0  0  0  0  0
  127.3107  127.0553   69.8013 H   0  0  0  0  0  0  0  0  0  0  0  0
  130.9554  124.4795   78.2604 H   0  0  0  0  0  0  0  0  0  0  0  0
  131.8787  127.1804   77.3004 H   0  0  0  0  0  0  0  0  0  0  0  0
  132.4148  126.1447   78.7116 H   0  0  0  0  0  0  0  0  0  0  0  0
  133.5924  123.8873   78.0915 H   0  0  0  0  0  0  0  0  0  0  0  0
  135.4437  122.9863   76.6972 H   0  0  0  0  0  0  0  0  0  0  0  0
  136.1822  124.2023   74.6609 H   0  0  0  0  0  0  0  0  0  0  0  0
  135.0724  126.3227   73.9941 H   0  0  0  0  0  0  0  0  0  0  0  0
  133.2167  127.2497   75.3649 H   0  0  0  0  0  0  0  0  0  0  0  0
  130.4068  125.4229   72.1069 H   0  0  0  0  0  0  0  0  0  0  0  0
  130.7227  123.3997   70.6588 H   0  0  0  0  0  0  0  0  0  0  0  0
  131.1919  121.1782   71.6971 H   0  0  0  0  0  0  0  0  0  0  0  0
  131.3460  120.9623   74.1923 H   0  0  0  0  0  0  0  0  0  0  0  0
  1  2  2  0
  2  3  1  0
  3  4  1  0
  4  5  2  0
  4  6  1  0
  6  7  2  0
  7  8  1  0
  7  9  1  0
  9 10  1  0
 10 11  1  0
 11 12  2  0
 12 13  1  0
 13 14  2  0
 14 15  1  0
 15 16  2  0
  9 17  1  0
 17 18  1  0
 18 19  2  0
 18 20  1  0
 20 21  2  0
 21 22  1  0
 22 23  2  0
 23 24  1  0
 24 25  2  0
 25 26  1  0
 26 27  2  0
  2 28  1  0
 28 29  1  0
 29 30  1  0
 30 31  2  0
 31 32  1  0
 32 33  2  0
 33 34  1  0
 34 35  2  0
 28 36  1  0
 36 37  1  0
 37 38  2  0
 37 39  1  0
 39 40  2  0
 40 41  1  0
 41 42  2  0
 42 43  1  0
 43 44  2  0
 44 45  1  0
 45 46  2  0
 16 11  1  0
 26 17  1  0
 35 30  1  0
 45 36  1  0
 25 20  1  0
 44 39  1  0
  3 47  1  0
  9 48  1  1
 10 49  1  0
 10 50  1  0
 12 51  1  0
 13 52  1  0
 14 53  1  0
 15 54  1  0
 16 55  1  0
 21 56  1  0
 22 57  1  0
 23 58  1  0
 24 59  1  0
 28 60  1  1
 29 61  1  0
 29 62  1  0
 31 63  1  0
 32 64  1  0
 33 65  1  0
 34 66  1  0
 35 67  1  0
 40 68  1  0
 41 69  1  0
 42 70  1  0
 43 71  1  0
M  CHG  1   8  -1
M  END
>  <Binding energies>  (1) 
[-11.0]

>  <Ligand effiencies>  (1) 
[-0.23404255319148937]

>  <Interactions>  (1) 
["V-A:GLU:543:CB:4901, V-B:HIS:456:CE1:9037, V-A:HIS:456:CE1:4064, V-A:LYS:471:CG:4213, V-B:TYR:484:CG:9309, V-A:LYS:547:CE:4945, V-A:LYS:471:CB:4212, V-A:HIS:456:C:4056, V-A:HIS:456:CA:4058, H-B:LYS:547:NZ:9919, V-A:HIS:456:CG:4061, H-A:LYS:547:NZ:4946, V-B:LYS:547:CE:9918, V-B:HIS:456:CD2:9035, V-A:LYS:471:CD:4214, V-A:HIS:456:CB:4060, V-A:VAL:458:CG2:4082, V-A:ASP:473:CG:4235, V-B:TYR:484:CB:9308, V-A:LYS:547:CD:4944, V-A:GLU:543:C:4897, V-B:LYS:547:CD:9917, V-A:GLY:544:C:4907, V-B:HIS:456:CG:9033, V-B:VAL:458:CG2:9054, V-A:TYR:484:CB:4336, V-A:TYR:484:CG:4337, V-A:ASP:473:CB:4234, V-A:TYR:484:CD2:4339, V-A:HIS:456:CD2:4063, V-A:LYS:547:CG:4943, V-B:TYR:484:CD1:9310, H-A:LYS:471:NZ:4216, V-A:VAL:457:C:4068, V-A:VAL:457:CA:4070"]

$$$$
RR1_Rahimova_2017
     RDKit          3D

 68 71  0  0  0  0  0  0  0  0999 V2000
  123.7470  124.7810   57.5610 C   0  0  0  0  0  0  0  0  0  0  0  0
  125.0660  124.7680   57.0250 O   0  0  0  0  0  0  0  0  0  0  0  0
  126.0620  124.0930   57.7030 C   0  0  0  0  0  0  0  0  0  0  0  0
  127.0440  123.3020   57.0850 C   0  0  0  0  0  0  0  0  0  0  0  0
  128.0060  122.6520   57.8520 C   0  0  0  0  0  0  0  0  0  0  0  0
  128.0100  122.7840   59.2420 C   0  0  0  0  0  0  0  0  0  0  0  0
  128.9940  122.0520   59.9320 N   0  0  0  0  0  0  0  0  0  0  0  0
  129.5400  122.2840   61.1450 C   0  0  0  0  0  0  0  0  0  0  0  0
  129.2960  123.2650   61.8480 O   0  0  0  0  0  0  0  0  0  0  0  0
  130.5310  121.2080   61.6180 C   0  0  0  0  0  0  0  0  0  0  0  0
  131.9800  120.9490   60.5360 S   0  0  0  0  0  0  0  0  0  0  0  0
  131.9280  122.4930   59.6910 C   0  0  0  0  0  0  0  0  0  0  0  0
  131.1090  122.7670   58.7070 N   0  0  0  0  0  0  0  0  0  0  0  0
  131.4040  124.0220   58.3870 C   0  0  0  0  0  0  0  0  0  0  0  0
  130.6850  124.7640   57.2960 C   0  0  0  0  0  0  0  0  0  0  0  0
  129.8420  125.8500   57.5780 C   0  0  0  0  0  0  0  0  0  0  0  0
  129.1850  126.5180   56.5440 C   0  0  0  0  0  0  0  0  0  0  0  0
  129.3880  126.0810   55.2360 C   0  0  0  0  0  0  0  0  0  0  0  0
  130.1950  125.0350   54.9270 N   0  0  0  0  0  0  0  0  0  0  0  0
  130.8260  124.4000   55.9470 C   0  0  0  0  0  0  0  0  0  0  0  0
  132.3700  124.5750   59.0960 N   0  0  0  0  0  0  0  0  0  0  0  0
  132.7100  123.5930   59.9360 N   0  0  0  0  0  0  0  0  0  0  0  0
  133.7560  123.8000   60.9370 C   0  0  0  0  0  0  0  0  0  0  0  0
  133.2460  124.0900   62.3590 C   0  0  0  0  0  0  0  0  0  0  0  0
  134.0370  124.2530   63.2950 O   0  0  0  0  0  0  0  0  0  0  0  0
  131.9060  124.1450   62.4820 N   0  0  0  0  0  0  0  0  0  0  0  0
  131.3760  124.5470   63.7000 N   0  0  0  0  0  0  0  0  0  0  0  0
  130.3660  125.4440   63.6830 C   0  0  0  0  0  0  0  0  0  0  0  0
  129.8160  125.8490   62.6530 O   0  0  0  0  0  0  0  0  0  0  0  0
  129.8980  125.9310   65.0400 C   0  0  0  0  0  0  0  0  0  0  0  0
  130.1820  125.1810   66.1870 C   0  0  0  0  0  0  0  0  0  0  0  0
  129.7520  125.6030   67.4400 C   0  0  0  0  0  0  0  0  0  0  0  0
  129.0160  126.7900   67.5850 C   0  0  0  0  0  0  0  0  0  0  0  0
  128.5470  127.2580   68.8000 O   0  0  0  0  0  0  0  0  0  0  0  0
  127.1970  127.0090   69.1740 C   0  0  0  0  0  0  0  0  0  0  0  0
  128.7150  127.5510   66.4480 C   0  0  0  0  0  0  0  0  0  0  0  0
  127.9690  128.7020   66.6420 O   0  0  0  0  0  0  0  0  0  0  0  0
  128.6040  129.8780   67.1310 C   0  0  0  0  0  0  0  0  0  0  0  0
  129.1610  127.1170   65.1870 C   0  0  0  0  0  0  0  0  0  0  0  0
  127.0310  123.5750   59.8630 C   0  0  0  0  0  0  0  0  0  0  0  0
  126.0710  124.2240   59.0920 C   0  0  0  0  0  0  0  0  0  0  0  0
  123.7977  124.7805   58.6598 H   0  0  0  0  0  0  0  0  0  0  0  0
  123.2210  125.6844   57.2186 H   0  0  0  0  0  0  0  0  0  0  0  0
  123.2033  123.8882   57.2186 H   0  0  0  0  0  0  0  0  0  0  0  0
  127.0528  123.1958   55.9902 H   0  0  0  0  0  0  0  0  0  0  0  0
  128.7683  122.0301   57.3600 H   0  0  0  0  0  0  0  0  0  0  0  0
  129.3600  121.2610   59.4210 H   0  0  0  0  0  0  0  0  0  0  0  0
  130.8981  121.4985   62.6134 H   0  0  0  0  0  0  0  0  0  0  0  0
  129.9744  120.2592   61.6123 H   0  0  0  0  0  0  0  0  0  0  0  0
  129.6986  126.1760   58.6187 H   0  0  0  0  0  0  0  0  0  0  0  0
  128.5221  127.3698   56.7562 H   0  0  0  0  0  0  0  0  0  0  0  0
  128.8718  126.6068   54.4193 H   0  0  0  0  0  0  0  0  0  0  0  0
  131.4845  123.5531   55.7036 H   0  0  0  0  0  0  0  0  0  0  0  0
  134.3762  122.8923   60.9753 H   0  0  0  0  0  0  0  0  0  0  0  0
  134.3115  124.6952   60.6209 H   0  0  0  0  0  0  0  0  0  0  0  0
  131.2570  124.2240   61.7100 H   0  0  0  0  0  0  0  0  0  0  0  0
  132.0830  124.5670   64.4210 H   0  0  0  0  0  0  0  0  0  0  0  0
  130.7530  124.2452   66.0959 H   0  0  0  0  0  0  0  0  0  0  0  0
  129.9912  124.9999   68.3283 H   0  0  0  0  0  0  0  0  0  0  0  0
  127.1172  126.9943   70.2710 H   0  0  0  0  0  0  0  0  0  0  0  0
  126.5521  127.8034   68.7701 H   0  0  0  0  0  0  0  0  0  0  0  0
  126.8780  126.0369   68.7701 H   0  0  0  0  0  0  0  0  0  0  0  0
  128.5983  129.8674   68.2309 H   0  0  0  0  0  0  0  0  0  0  0  0
  129.6426  129.9110   66.7700 H   0  0  0  0  0  0  0  0  0  0  0  0
  128.0620  130.7645   66.7700 H   0  0  0  0  0  0  0  0  0  0  0  0
  128.9275  127.7195   64.2968 H   0  0  0  0  0  0  0  0  0  0  0  0
  127.0224  123.6819   60.9578 H   0  0  0  0  0  0  0  0  0  0  0  0
  125.3101  124.8478   59.5838 H   0  0  0  0  0  0  0  0  0  0  0  0
  1  2  1  0
  2  3  1  0
  3  4  2  0
  4  5  1  0
  5  6  2  0
  6  7  1  0
  7  8  1  0
  8  9  2  0
  8 10  1  0
 10 11  1  0
 11 12  1  0
 12 13  2  0
 13 14  1  0
 14 15  1  0
 15 16  2  0
 16 17  1  0
 17 18  2  0
 18 19  1  0
 19 20  2  0
 14 21  2  0
 21 22  1  0
 22 23  1  0
 23 24  1  0
 24 25  2  0
 24 26  1  0
 26 27  1  0
 27 28  1  0
 28 29  2  0
 28 30  1  0
 30 31  2  0
 31 32  1  0
 32 33  2  0
 33 34  1  0
 34 35  1  0
 33 36  1  0
 36 37  1  0
 37 38  1  0
 36 39  2  0
  6 40  1  0
 40 41  2  0
 41  3  1  0
 22 12  1  0
 39 30  1  0
 20 15  1  0
  1 42  1  0
  1 43  1  0
  1 44  1  0
  4 45  1  0
  5 46  1  0
  7 47  1  0
 10 48  1  0
 10 49  1  0
 16 50  1  0
 17 51  1  0
 18 52  1  0
 20 53  1  0
 23 54  1  0
 23 55  1  0
 26 56  1  0
 27 57  1  0
 31 58  1  0
 32 59  1  0
 35 60  1  0
 35 61  1  0
 35 62  1  0
 38 63  1  0
 38 64  1  0
 38 65  1  0
 39 66  1  0
 40 67  1  0
 41 68  1  0
M  END
>  <Binding energies>  (1) 
[-7.92]

>  <Ligand effiencies>  (1) 
[-0.18]

>  <Interactions>  (1) 
["V-B:TYR:539:C:9835, V-A:LEU:475:CD2:4254, V-B:TYR:539:CE2:9844, V-B:PRO:540:N:9852, V-B:ALA:541:CB:9860, H-B:TYR:539:O:9836, V-B:PRO:540:CA:9851, V-B:MET:535:CE:9803, V-B:GLU:543:CD:9876, V-A:GLU:543:CG:4902, V-A:ASP:366:CB:3207, V-A:ASP:366:CG:3208, V-A:GLU:543:CD:4903, H-A:TYR:484:OH:4343, V-B:GLU:543:CG:9875, V-B:ASP:366:CG:8180, V-B:LEU:363:CD1:8156, V-B:TYR:531:CZ:9762, V-B:TYR:539:CZ:9845, V-B:TYR:531:CE2:9761, V-B:ASP:366:CB:8179, V-B:LEU:363:CA:8152, V-A:GLU:543:CB:4901, V-B:TYR:484:CE1:9312, V-B:HIS:456:CE1:9037, V-A:HIS:456:CE1:4064, V-B:GLU:543:CB:9874, V-B:GLU:543:C:9870, V-A:ILE:369:CD1:3234, V-A:TYR:531:CE1:4787, H-B:TYR:539:OH:9846, H-A:GLY:454:N:4045, H-A:LYS:534:NZ:4818, H-B:TYR:531:OH:9763"]

$$$$
RR20_Rahimova_2017
     RDKit          3D

 68 73  0  0  0  0  0  0  0  0999 V2000
  124.6890  123.3470   57.5640 C   0  0  0  0  0  0  0  0  0  0  0  0
  126.0920  123.6830   57.0910 C   0  0  0  0  0  0  0  0  0  0  0  0
  126.4610  125.0150   56.9040 C   0  0  0  0  0  0  0  0  0  0  0  0
  127.7500  125.3260   56.4790 C   0  0  0  0  0  0  0  0  0  0  0  0
  128.6760  124.3070   56.2260 C   0  0  0  0  0  0  0  0  0  0  0  0
  130.0770  124.6680   55.7860 C   0  0  0  0  0  0  0  0  0  0  0  0
  130.2110  125.1860   54.6750 O   0  0  0  0  0  0  0  0  0  0  0  0
  131.1260  124.4230   56.6250 N   0  0  0  0  0  0  0  0  0  0  0  0
  132.5130  124.3720   56.1330 C   0  0  0  0  0  0  0  0  0  0  0  0
  133.3980  124.2360   57.3600 C   0  0  0  0  0  0  0  0  0  0  0  0
  132.4720  124.5980   58.4810 C   0  0  0  0  0  0  0  0  0  0  0  0
  132.7500  124.7330   59.8420 C   0  0  0  0  0  0  0  0  0  0  0  0
  131.7150  124.9190   60.7660 C   0  0  0  0  0  0  0  0  0  0  0  0
  132.0140  125.0740   62.2310 C   0  0  0  0  0  0  0  0  0  0  0  0
  131.1070  125.6550   63.0000 N   0  0  0  0  0  0  0  0  0  0  0  0
  131.4640  125.7180   64.2580 C   0  0  0  0  0  0  0  0  0  0  0  0
  130.7530  126.2530   65.3220 N   0  0  0  0  0  0  0  0  0  0  0  0
  130.5840  125.7020   66.5480 C   0  0  0  0  0  0  0  0  0  0  0  0
  131.0760  124.6260   66.8940 O   0  0  0  0  0  0  0  0  0  0  0  0
  129.7450  126.4830   67.5870 C   0  0  0  0  0  0  0  0  0  0  0  0
  128.4750  126.9920   67.0350 N   0  0  0  0  0  0  0  0  0  0  0  0
  127.4280  127.1190   68.0610 C   0  0  0  0  0  0  0  0  0  0  0  0
  126.0610  127.3940   67.3940 C   0  0  0  0  0  0  0  0  0  0  0  0
  126.1310  128.4700   66.3110 C   0  0  0  0  0  0  0  0  0  0  0  0
  124.9660  129.0430   65.7880 C   0  0  0  0  0  0  0  0  0  0  0  0
  125.0280  129.9950   64.7730 C   0  0  0  0  0  0  0  0  0  0  0  0
  126.2640  130.3890   64.2690 C   0  0  0  0  0  0  0  0  0  0  0  0
  127.4320  129.8330   64.7870 C   0  0  0  0  0  0  0  0  0  0  0  0
  127.3830  128.8750   65.8050 C   0  0  0  0  0  0  0  0  0  0  0  0
  128.6670  128.3080   66.4130 C   0  0  0  0  0  0  0  0  0  0  0  0
  133.0130  125.0480   64.5930 S   0  0  0  0  0  0  0  0  0  0  0  0
  133.1890  124.6630   62.8970 C   0  0  0  0  0  0  0  0  0  0  0  0
  134.4610  124.0240   62.3850 C   0  0  0  0  0  0  0  0  0  0  0  0
  130.3910  124.9090   60.3000 C   0  0  0  0  0  0  0  0  0  0  0  0
  130.1090  124.7550   58.9430 C   0  0  0  0  0  0  0  0  0  0  0  0
  131.1580  124.6560   58.0180 C   0  0  0  0  0  0  0  0  0  0  0  0
  128.3070  122.9740   56.4450 C   0  0  0  0  0  0  0  0  0  0  0  0
  127.0180  122.6620   56.8700 C   0  0  0  0  0  0  0  0  0  0  0  0
  124.6644  123.3411   58.6637 H   0  0  0  0  0  0  0  0  0  0  0  0
  123.9839  124.1017   57.1855 H   0  0  0  0  0  0  0  0  0  0  0  0
  124.4022  122.3548   57.1855 H   0  0  0  0  0  0  0  0  0  0  0  0
  125.7344  125.8191   57.0921 H   0  0  0  0  0  0  0  0  0  0  0  0
  128.0421  126.3775   56.3414 H   0  0  0  0  0  0  0  0  0  0  0  0
  132.6492  123.5066   55.4678 H   0  0  0  0  0  0  0  0  0  0  0  0
  132.7655  125.2745   55.5570 H   0  0  0  0  0  0  0  0  0  0  0  0
  133.7680  123.2059   57.4691 H   0  0  0  0  0  0  0  0  0  0  0  0
  134.2983  124.8666   57.3188 H   0  0  0  0  0  0  0  0  0  0  0  0
  133.7921  124.6929   60.1919 H   0  0  0  0  0  0  0  0  0  0  0  0
  130.3110  127.1460   65.1540 H   0  0  0  0  0  0  0  0  0  0  0  0
  129.5179  125.8132   68.4295 H   0  0  0  0  0  0  0  0  0  0  0  0
  130.3390  127.3530   67.9037 H   0  0  0  0  0  0  0  0  0  0  0  0
  127.3695  126.1847   68.6387 H   0  0  0  0  0  0  0  0  0  0  0  0
  127.6779  127.9569   68.7285 H   0  0  0  0  0  0  0  0  0  0  0  0
  125.6993  126.4606   66.9380 H   0  0  0  0  0  0  0  0  0  0  0  0
  125.3801  127.7590   68.1771 H   0  0  0  0  0  0  0  0  0  0  0  0
  123.9867  128.7369   66.1845 H   0  0  0  0  0  0  0  0  0  0  0  0
  124.1029  130.4340   64.3711 H   0  0  0  0  0  0  0  0  0  0  0  0
  126.3187  131.1370   63.4643 H   0  0  0  0  0  0  0  0  0  0  0  0
  128.4068  130.1521   64.3895 H   0  0  0  0  0  0  0  0  0  0  0  0
  129.4196  128.2127   65.6165 H   0  0  0  0  0  0  0  0  0  0  0  0
  128.9908  129.0013   67.2033 H   0  0  0  0  0  0  0  0  0  0  0  0
  135.0830  123.7116   63.2368 H   0  0  0  0  0  0  0  0  0  0  0  0
  134.2093  123.1453   61.7730 H   0  0  0  0  0  0  0  0  0  0  0  0
  135.0157  124.7505   61.7730 H   0  0  0  0  0  0  0  0  0  0  0  0
  129.5637  125.0243   61.0157 H   0  0  0  0  0  0  0  0  0  0  0  0
  129.0651  124.7113   58.5988 H   0  0  0  0  0  0  0  0  0  0  0  0
  129.0388  122.1694   56.2805 H   0  0  0  0  0  0  0  0  0  0  0  0
  126.7300  121.6127   57.0313 H   0  0  0  0  0  0  0  0  0  0  0  0
  1  2  1  0
  2  3  2  0
  3  4  1  0
  4  5  2  0
  5  6  1  0
  6  7  2  0
  6  8  1  0
  8  9  1  0
  9 10  1  0
 10 11  1  0
 11 12  2  0
 12 13  1  0
 13 14  1  0
 14 15  1  0
 15 16  2  0
 16 17  1  0
 17 18  1  0
 18 19  2  0
 18 20  1  0
 20 21  1  0
 21 22  1  0
 22 23  1  0
 23 24  1  0
 24 25  2  0
 25 26  1  0
 26 27  2  0
 27 28  1  0
 28 29  2  0
 29 30  1  0
 16 31  1  0
 31 32  1  0
 32 33  1  0
 13 34  2  0
 34 35  1  0
 35 36  2  0
  5 37  1  0
 37 38  2  0
 38  2  1  0
 36  8  1  0
 36 11  1  0
 32 14  2  0
 30 21  1  0
 29 24  1  0
  1 39  1  0
  1 40  1  0
  1 41  1  0
  3 42  1  0
  4 43  1  0
  9 44  1  0
  9 45  1  0
 10 46  1  0
 10 47  1  0
 12 48  1  0
 17 49  1  0
 20 50  1  0
 20 51  1  0
 22 52  1  0
 22 53  1  0
 23 54  1  0
 23 55  1  0
 25 56  1  0
 26 57  1  0
 27 58  1  0
 28 59  1  0
 30 60  1  0
 30 61  1  0
 33 62  1  0
 33 63  1  0
 33 64  1  0
 34 65  1  0
 35 66  1  0
 37 67  1  0
 38 68  1  0
M  END
>  <Binding energies>  (1) 
[-10.65]

>  <Ligand effiencies>  (1) 
[-0.2730769230769231]

>  <Interactions>  (1) 
["V-B:TYR:539:C:9835, V-B:TYR:539:CE2:9844, V-B:PRO:540:N:9852, V-B:PRO:540:CA:9851, V-B:MET:535:CE:9803, V-B:PRO:540:CB:9853, V-B:GLU:543:CD:9876, V-A:TYR:531:CZ:4789, V-A:ASP:366:CB:3207, H-A:GLU:543:OE2:4905, V-A:ASP:366:CG:3208, V-A:GLU:543:CD:4903, H-A:TYR:484:OH:4343, V-B:LEU:363:CD1:8156, V-B:TYR:539:CZ:9845, V-B:ARG:545:CZ:9894, V-B:HIS:456:CE1:9037, V-B:ARG:545:CG:9890, V-B:ARG:545:CD:9891, V-A:HIS:456:CE1:4064, H-A:HIS:456:NE2:4065, V-B:GLU:543:CB:9874, V-B:TYR:539:CE1:9843, V-A:ILE:369:CD1:3234, H-A:GLU:543:OE1:4904, V-A:TYR:531:CE1:4787, V-A:ASP:366:CA:3205, V-A:ASP:366:C:3203, H-B:TYR:539:OH:9846, V-A:ARG:545:CZ:4921, V-A:GLY:453:CA:4039, H-A:LYS:534:NZ:4818, V-B:TYR:539:CD1:9841, V-A:GLY:453:C:4037, V-A:ASN:370:CB:3240"]

$$$$
RR20_Rahimova_2017-again1
     RDKit          3D

 68 73  0  0  0  0  0  0  0  0999 V2000
  120.5360  121.0110   73.0000 C   0  0  0  0  0  0  0  0  0  0  0  0
  121.9700  120.5140   72.9770 C   0  0  0  0  0  0  0  0  0  0  0  0
  122.3940  119.5670   73.9100 C   0  0  0  0  0  0  0  0  0  0  0  0
  123.7060  119.1050   73.8850 C   0  0  0  0  0  0  0  0  0  0  0  0
  124.6100  119.5930   72.9340 C   0  0  0  0  0  0  0  0  0  0  0  0
  126.0280  119.0660   72.9110 C   0  0  0  0  0  0  0  0  0  0  0  0
  126.2520  118.0000   73.4880 O   0  0  0  0  0  0  0  0  0  0  0  0
  126.9880  119.7660   72.2380 N   0  0  0  0  0  0  0  0  0  0  0  0
  127.1430  119.6470   70.7790 C   0  0  0  0  0  0  0  0  0  0  0  0
  128.1920  120.6700   70.3750 C   0  0  0  0  0  0  0  0  0  0  0  0
  128.2810  121.5510   71.5850 C   0  0  0  0  0  0  0  0  0  0  0  0
  129.0260  122.7160   71.7710 C   0  0  0  0  0  0  0  0  0  0  0  0
  129.1120  123.3150   73.0370 C   0  0  0  0  0  0  0  0  0  0  0  0
  129.9190  124.5650   73.2390 C   0  0  0  0  0  0  0  0  0  0  0  0
  129.4050  125.7150   72.8310 N   0  0  0  0  0  0  0  0  0  0  0  0
  130.1800  126.7510   73.0380 C   0  0  0  0  0  0  0  0  0  0  0  0
  129.9740  128.0630   72.7020 N   0  0  0  0  0  0  0  0  0  0  0  0
  129.2500  128.8940   73.3740 C   0  0  0  0  0  0  0  0  0  0  0  0
  128.6520  128.7790   74.4610 O   0  0  0  0  0  0  0  0  0  0  0  0
  129.1150  130.2820   72.7140 C   0  0  0  0  0  0  0  0  0  0  0  0
  128.8820  131.3680   73.8040 N   0  0  2  0  0  0  0  0  0  0  0  0
  127.9460  132.4970   73.3240 C   0  0  0  0  0  0  0  0  0  0  0  0
  128.6150  133.2850   72.1830 C   0  0  0  0  0  0  0  0  0  0  0  0
  130.0460  133.7050   72.5000 C   0  0  0  0  0  0  0  0  0  0  0  0
  130.6380  134.7510   71.7820 C   0  0  0  0  0  0  0  0  0  0  0  0
  131.9590  135.1290   72.0110 C   0  0  0  0  0  0  0  0  0  0  0  0
  132.7080  134.4620   72.9720 C   0  0  0  0  0  0  0  0  0  0  0  0
  132.1300  133.4280   73.7040 C   0  0  0  0  0  0  0  0  0  0  0  0
  130.8020  133.0380   73.4930 C   0  0  0  0  0  0  0  0  0  0  0  0
  130.2090  131.9280   74.3700 C   0  0  0  0  0  0  0  0  0  0  0  0
  131.6870  126.3390   73.7680 S   0  0  0  0  0  0  0  0  0  0  0  0
  131.1960  124.6630   73.8270 C   0  0  0  0  0  0  0  0  0  0  0  0
  132.0950  123.6210   74.4580 C   0  0  0  0  0  0  0  0  0  0  0  0
  128.4730  122.6900   74.1150 C   0  0  0  0  0  0  0  0  0  0  0  0
  127.7420  121.5150   73.9360 C   0  0  0  0  0  0  0  0  0  0  0  0
  127.5980  120.9700   72.6540 C   0  0  0  0  0  0  0  0  0  0  0  0
  124.1690  120.5210   71.9810 C   0  0  0  0  0  0  0  0  0  0  0  0
  122.8560  120.9830   72.0060 C   0  0  0  0  0  0  0  0  0  0  0  0
  120.2044  121.1259   74.0425 H   0  0  0  0  0  0  0  0  0  0  0  0
  120.4763  121.9823   72.4871 H   0  0  0  0  0  0  0  0  0  0  0  0
  119.8880  120.2850   72.4871 H   0  0  0  0  0  0  0  0  0  0  0  0
  121.6909  119.1858   74.6652 H   0  0  0  0  0  0  0  0  0  0  0  0
  124.0348  118.3521   74.6165 H   0  0  0  0  0  0  0  0  0  0  0  0
  127.4777  118.6334   70.5132 H   0  0  0  0  0  0  0  0  0  0  0  0
  126.1897  119.8266   70.2604 H   0  0  0  0  0  0  0  0  0  0  0  0
  129.1573  120.1860   70.1656 H   0  0  0  0  0  0  0  0  0  0  0  0
  127.9350  121.2173   69.4561 H   0  0  0  0  0  0  0  0  0  0  0  0
  129.5509  123.1692   70.9171 H   0  0  0  0  0  0  0  0  0  0  0  0
  130.0368  130.5134   72.1601 H   0  0  0  0  0  0  0  0  0  0  0  0
  128.2583  130.2725   72.0241 H   0  0  0  0  0  0  0  0  0  0  0  0
  128.4020  130.9020   74.5630 H   0  0  0  0  0  0  0  0  0  0  0  0
  127.0039  132.0599   72.9615 H   0  0  0  0  0  0  0  0  0  0  0  0
  127.7421  133.1786   74.1629 H   0  0  0  0  0  0  0  0  0  0  0  0
  128.6276  132.6532   71.2826 H   0  0  0  0  0  0  0  0  0  0  0  0
  128.0301  134.2048   72.0349 H   0  0  0  0  0  0  0  0  0  0  0  0
  130.0484  135.2848   71.0221 H   0  0  0  0  0  0  0  0  0  0  0  0
  132.4067  135.9514   71.4338 H   0  0  0  0  0  0  0  0  0  0  0  0
  133.7540  134.7496   73.1541 H   0  0  0  0  0  0  0  0  0  0  0  0
  132.7297  132.9064   74.4644 H   0  0  0  0  0  0  0  0  0  0  0  0
  130.9372  131.1065   74.4390 H   0  0  0  0  0  0  0  0  0  0  0  0
  129.9933  132.3626   75.3572 H   0  0  0  0  0  0  0  0  0  0  0  0
  132.0304  123.6959   75.5535 H   0  0  0  0  0  0  0  0  0  0  0  0
  131.7739  122.6183   74.1395 H   0  0  0  0  0  0  0  0  0  0  0  0
  133.1339  123.7917   74.1395 H   0  0  0  0  0  0  0  0  0  0  0  0
  128.5486  123.1325   75.1192 H   0  0  0  0  0  0  0  0  0  0  0  0
  127.2793  121.0173   74.8010 H   0  0  0  0  0  0  0  0  0  0  0  0
  124.8633  120.8860   71.2098 H   0  0  0  0  0  0  0  0  0  0  0  0
  122.5169  121.7175   71.2606 H   0  0  0  0  0  0  0  0  0  0  0  0
  1  2  1  0
  2  3  2  0
  3  4  1  0
  4  5  2  0
  5  6  1  0
  6  7  2  0
  6  8  1  0
  8  9  1  0
  9 10  1  0
 10 11  1  0
 11 12  2  0
 12 13  1  0
 13 14  1  0
 14 15  1  0
 15 16  2  0
 16 17  1  0
 17 18  2  0
 18 19  1  0
 18 20  1  0
 20 21  1  0
 21 22  1  0
 22 23  1  0
 23 24  1  0
 24 25  2  0
 25 26  1  0
 26 27  2  0
 27 28  1  0
 28 29  2  0
 29 30  1  0
 16 31  1  0
 31 32  1  0
 32 33  1  0
 13 34  2  0
 34 35  1  0
 35 36  2  0
  5 37  1  0
 37 38  2  0
 38  2  1  0
 36  8  1  0
 36 11  1  0
 32 14  2  0
 30 21  1  0
 29 24  1  0
  1 39  1  0
  1 40  1  0
  1 41  1  0
  3 42  1  0
  4 43  1  0
  9 44  1  0
  9 45  1  0
 10 46  1  0
 10 47  1  0
 12 48  1  0
 20 49  1  0
 20 50  1  0
 21 51  1  1
 22 52  1  0
 22 53  1  0
 23 54  1  0
 23 55  1  0
 25 56  1  0
 26 57  1  0
 27 58  1  0
 28 59  1  0
 30 60  1  0
 30 61  1  0
 33 62  1  0
 33 63  1  0
 33 64  1  0
 34 65  1  0
 35 66  1  0
 37 67  1  0
 38 68  1  0
M  CHG  2  19  -1  21   1
M  END
>  <Binding energies>  (1) 
[-10.65]

>  <Ligand effiencies>  (1) 
[-0.2730769230769231]

>  <Interactions>  (1) 
["V-B:GLU:543:CA:9872, V-A:HIS:456:CE1:4064, V-B:TYR:484:CG:9309, V-A:LYS:547:CE:4945, H-B:LYS:547:NZ:9919, V-A:HIS:456:CG:4061, H-A:LYS:547:NZ:4946, V-B:LYS:547:CE:9918, V-B:HIS:456:CD2:9035, V-A:HIS:456:CB:4060, V-A:ASP:473:CG:4235, V-B:TYR:484:CB:9308, V-B:GLU:543:C:9870, V-A:GLU:543:C:4897, V-A:TYR:484:CB:4336, V-A:TYR:484:CG:4337, V-A:GLY:544:CA:4909, V-B:TYR:484:CD1:9310, V-B:PHE:548:CD1:9930, V-B:PHE:548:CE1:9932, V-B:GLY:544:CA:9882, V-B:VAL:542:C:9862, V-B:VAL:542:CG1:9867, V-A:TYR:484:CD1:4338, V-B:ARG:356:CZ:8089, V-B:GLU:357:CB:8101, V-B:ILE:546:C:9902, V-B:GLU:357:CD:8103, V-B:ILE:546:CB:9906, V-B:ILE:546:CG2:9907"]

$$$$
RR21_Rahimova_2017
     RDKit          3D

 62 67  0  0  0  0  0  0  0  0999 V2000
  133.7240  122.4880   62.4110 C   0  0  0  0  0  0  0  0  0  0  0  0
  134.0490  123.5880   63.2570 O   0  0  0  0  0  0  0  0  0  0  0  0
  133.0290  124.3210   63.8340 C   0  0  0  0  0  0  0  0  0  0  0  0
  131.6980  124.3130   63.3830 C   0  0  0  0  0  0  0  0  0  0  0  0
  130.7270  125.0810   64.0240 C   0  0  0  0  0  0  0  0  0  0  0  0
  131.0570  125.8720   65.1310 C   0  0  0  0  0  0  0  0  0  0  0  0
  130.0110  126.6920   65.8210 C   0  0  0  0  0  0  0  0  0  0  0  0
  129.8260  126.5600   67.1200 N   0  0  0  0  0  0  0  0  0  0  0  0
  128.8410  127.4070   67.4560 N   0  0  0  0  0  0  0  0  0  0  0  0
  128.4000  127.5340   68.7990 C   0  0  0  0  0  0  0  0  0  0  0  0
  129.1890  128.1940   69.7540 C   0  0  0  0  0  0  0  0  0  0  0  0
  128.7430  128.3170   71.0680 C   0  0  0  0  0  0  0  0  0  0  0  0
  127.5090  127.7810   71.4310 C   0  0  0  0  0  0  0  0  0  0  0  0
  126.7190  127.1210   70.4930 C   0  0  0  0  0  0  0  0  0  0  0  0
  127.1620  126.9970   69.1800 C   0  0  0  0  0  0  0  0  0  0  0  0
  128.4100  128.0960   66.3510 C   0  0  0  0  0  0  0  0  0  0  0  0
  129.1370  127.6500   65.2570 C   0  0  0  0  0  0  0  0  0  0  0  0
  129.0680  128.1170   63.8810 C   0  0  0  0  0  0  0  0  0  0  0  0
  128.8620  129.3770   63.4340 C   0  0  0  0  0  0  0  0  0  0  0  0
  128.6030  130.8490   64.3960 S   0  0  0  0  0  0  0  0  0  0  0  0
  128.4970  131.7840   62.9110 C   0  0  0  0  0  0  0  0  0  0  0  0
  128.3170  133.0620   62.7880 N   0  0  0  0  0  0  0  0  0  0  0  0
  128.2620  133.7010   61.5180 C   0  0  0  0  0  0  0  0  0  0  0  0
  128.1160  134.9060   61.3170 O   0  0  0  0  0  0  0  0  0  0  0  0
  128.4110  132.7570   60.3560 C   0  0  0  0  0  0  0  0  0  0  0  0
  128.3480  133.3300   58.9350 C   0  0  0  0  0  0  0  0  0  0  0  0
  129.4120  132.7790   57.9870 C   0  0  0  0  0  0  0  0  0  0  0  0
  130.4780  132.0300   58.4910 C   0  0  0  0  0  0  0  0  0  0  0  0
  131.4380  131.5140   57.6240 C   0  0  0  0  0  0  0  0  0  0  0  0
  131.3340  131.7440   56.2510 C   0  0  0  0  0  0  0  0  0  0  0  0
  132.3760  131.1700   55.3090 C   0  0  0  0  0  0  0  0  0  0  0  0
  130.2620  132.4840   55.7440 C   0  0  0  0  0  0  0  0  0  0  0  0
  129.3030  133.0000   56.6100 C   0  0  0  0  0  0  0  0  0  0  0  0
  128.5840  131.4830   60.4950 N   0  0  0  0  0  0  0  0  0  0  0  0
  128.6310  130.9880   61.8040 N   0  0  0  0  0  0  0  0  0  0  0  0
  128.8280  129.6620   62.0060 C   0  0  0  0  0  0  0  0  0  0  0  0
  128.9640  128.8250   61.1060 O   0  0  0  0  0  0  0  0  0  0  0  0
  132.3830  125.8840   65.5760 C   0  0  0  0  0  0  0  0  0  0  0  0
  133.3570  125.1170   64.9360 C   0  0  0  0  0  0  0  0  0  0  0  0
  134.6300  125.1510   65.3930 F   0  0  0  0  0  0  0  0  0  0  0  0
  133.4660  121.6146   63.0280 H   0  0  0  0  0  0  0  0  0  0  0  0
  132.8663  122.7547   61.7760 H   0  0  0  0  0  0  0  0  0  0  0  0
  134.5889  122.2457   61.7760 H   0  0  0  0  0  0  0  0  0  0  0  0
  131.4198  123.6952   62.5164 H   0  0  0  0  0  0  0  0  0  0  0  0
  129.6905  125.0653   63.6561 H   0  0  0  0  0  0  0  0  0  0  0  0
  130.1627  128.6155   69.4639 H   0  0  0  0  0  0  0  0  0  0  0  0
  129.3620  128.8348   71.8155 H   0  0  0  0  0  0  0  0  0  0  0  0
  127.1556  127.8801   72.4680 H   0  0  0  0  0  0  0  0  0  0  0  0
  125.7474  126.6989   70.7894 H   0  0  0  0  0  0  0  0  0  0  0  0
  126.5389  126.4759   68.4382 H   0  0  0  0  0  0  0  0  0  0  0  0
  127.6255  128.8669   66.3352 H   0  0  0  0  0  0  0  0  0  0  0  0
  129.2001  127.3480   63.1057 H   0  0  0  0  0  0  0  0  0  0  0  0
  127.3584  133.0988   58.5139 H   0  0  0  0  0  0  0  0  0  0  0  0
  128.5335  134.4107   59.0227 H   0  0  0  0  0  0  0  0  0  0  0  0
  130.5592  131.8477   59.5728 H   0  0  0  0  0  0  0  0  0  0  0  0
  132.2781  130.9253   58.0210 H   0  0  0  0  0  0  0  0  0  0  0  0
  133.1917  130.7207   55.8944 H   0  0  0  0  0  0  0  0  0  0  0  0
  131.9125  130.3999   54.6748 H   0  0  0  0  0  0  0  0  0  0  0  0
  132.7792  131.9733   54.6748 H   0  0  0  0  0  0  0  0  0  0  0  0
  130.1766  132.6583   54.6613 H   0  0  0  0  0  0  0  0  0  0  0  0
  128.4588  133.5819   56.2117 H   0  0  0  0  0  0  0  0  0  0  0  0
  132.6610  126.5051   66.4402 H   0  0  0  0  0  0  0  0  0  0  0  0
  1  2  1  0
  2  3  1  0
  3  4  2  0
  4  5  1  0
  5  6  2  0
  6  7  1  0
  7  8  2  0
  8  9  1  0
  9 10  1  0
 10 11  2  0
 11 12  1  0
 12 13  2  0
 13 14  1  0
 14 15  2  0
  9 16  1  0
 16 17  2  0
 17 18  1  0
 18 19  2  0
 19 20  1  0
 20 21  1  0
 21 22  2  0
 22 23  1  0
 23 24  2  0
 23 25  1  0
 25 26  1  0
 26 27  1  0
 27 28  2  0
 28 29  1  0
 29 30  2  0
 30 31  1  0
 30 32  1  0
 32 33  2  0
 25 34  2  0
 34 35  1  0
 35 36  1  0
 36 37  2  0
  6 38  1  0
 38 39  2  0
 39 40  1  0
 39  3  1  0
 17  7  1  0
 36 19  1  0
 15 10  1  0
 35 21  1  0
 33 27  1  0
  1 41  1  0
  1 42  1  0
  1 43  1  0
  4 44  1  0
  5 45  1  0
 11 46  1  0
 12 47  1  0
 13 48  1  0
 14 49  1  0
 15 50  1  0
 16 51  1  0
 18 52  1  0
 26 53  1  0
 26 54  1  0
 28 55  1  0
 29 56  1  0
 31 57  1  0
 31 58  1  0
 31 59  1  0
 32 60  1  0
 33 61  1  0
 38 62  1  0
M  END
>  <Binding energies>  (1) 
[-9.88]

>  <Ligand effiencies>  (1) 
[-0.24700000000000003]

>  <Interactions>  (1) 
["V-A:LEU:475:CD2:4254, V-A:GLU:543:CG:4902, V-A:PRO:540:N:4879, V-A:TYR:531:CZ:4789, V-A:TYR:539:CE2:4871, V-A:TYR:531:CE2:4788, V-A:PRO:540:CA:4878, V-A:TYR:539:CE1:4870, H-A:ALA:541:N:4886, V-A:TYR:539:CZ:4872, V-A:PRO:540:CB:4880, V-A:LEU:363:CD1:3184, V-A:TYR:539:C:4862, V-A:GLU:543:CD:4903, H-A:TYR:484:OH:4343, V-A:TYR:539:CD2:4869, V-A:TYR:539:CD1:4868, V-A:ALA:541:CB:4887, V-A:TYR:539:CG:4867, V-A:TYR:539:CA:4864, V-B:HIS:456:CE1:9037, V-A:HIS:456:CE1:4064, V-B:GLU:543:CB:9874, V-B:HIS:456:CD2:9035, V-B:GLU:543:C:9870, V-A:ILE:369:CD1:3234, V-B:HIS:456:CG:9033, V-A:ARG:545:CZ:4921, V-A:GLY:453:CA:4039, H-A:GLY:454:N:4045, V-A:GLY:454:CA:4044, V-A:ARG:545:CD:4918, V-B:GLY:544:C:9880, V-A:GLY:453:C:4037, V-B:ARG:545:CA:9887, V-B:GLY:544:CA:9882"]

$$$$
RR22_Rahimova_2017
     RDKit          3D

 49 54  0  0  0  0  0  0  0  0999 V2000
  130.4540  118.5460   61.5710 O   0  0  0  0  0  0  0  0  0  0  0  0
  130.6270  119.7530   61.4190 C   0  0  0  0  0  0  0  0  0  0  0  0
  130.9390  120.4200   60.2470 N   0  0  0  0  0  0  0  0  0  0  0  0
  131.0470  121.8470   60.2270 C   0  0  1  0  0  0  0  0  0  0  0  0
  132.3530  122.1160   59.7080 O   0  0  0  0  0  0  0  0  0  0  0  0
  132.4590  122.8660   58.5370 C   0  0  0  0  0  0  0  0  0  0  0  0
  133.6790  122.8010   57.8640 C   0  0  0  0  0  0  0  0  0  0  0  0
  133.8740  123.5550   56.7070 C   0  0  0  0  0  0  0  0  0  0  0  0
  132.8540  124.3780   56.2290 C   0  0  0  0  0  0  0  0  0  0  0  0
  131.6330  124.4450   56.9030 C   0  0  0  0  0  0  0  0  0  0  0  0
  131.4140  123.6760   58.0500 C   0  0  0  0  0  0  0  0  0  0  0  0
  130.1470  123.7090   58.8740 C   0  0  1  0  0  0  0  0  0  0  0  0
  128.7840  123.9590   58.2610 C   0  0  0  0  0  0  0  0  0  0  0  0
  127.9100  123.1570   59.2300 C   0  0  0  0  0  0  0  0  0  0  0  0
  126.4510  123.3570   59.3420 C   0  0  0  0  0  0  0  0  0  0  0  0
  125.8380  123.4420   60.6010 C   0  0  0  0  0  0  0  0  0  0  0  0
  124.4620  123.6320   60.7010 C   0  0  0  0  0  0  0  0  0  0  0  0
  123.6930  123.7370   59.5450 C   0  0  0  0  0  0  0  0  0  0  0  0
  124.2870  123.6550   58.2890 C   0  0  0  0  0  0  0  0  0  0  0  0
  125.6620  123.4670   58.1870 C   0  0  0  0  0  0  0  0  0  0  0  0
  128.6070  122.3040   59.8820 N   0  0  0  0  0  0  0  0  0  0  0  0
  129.9380  122.4120   59.4450 N   0  0  0  0  0  0  0  0  0  0  0  0
  131.0410  122.3040   61.6780 C   0  0  0  0  0  0  0  0  0  0  0  0
  131.4620  123.5300   62.0670 C   0  0  0  0  0  0  0  0  0  0  0  0
  131.4910  124.1040   63.4260 C   0  0  0  0  0  0  0  0  0  0  0  0
  132.4640  125.0200   63.8520 C   0  0  0  0  0  0  0  0  0  0  0  0
  132.4280  125.5220   65.1540 C   0  0  0  0  0  0  0  0  0  0  0  0
  131.4140  125.0850   66.0070 C   0  0  0  0  0  0  0  0  0  0  0  0
  130.4650  124.1940   65.6250 N   0  0  0  0  0  0  0  0  0  0  0  0
  130.5160  123.7190   64.3540 C   0  0  0  0  0  0  0  0  0  0  0  0
  130.5130  120.9930   62.7440 S   0  0  0  0  0  0  0  0  0  0  0  0
  131.1370  119.9100   59.3990 H   0  0  0  0  0  0  0  0  0  0  0  0
  134.4852  122.1568   58.2448 H   0  0  0  0  0  0  0  0  0  0  0  0
  134.8330  123.5007   56.1709 H   0  0  0  0  0  0  0  0  0  0  0  0
  133.0120  124.9755   55.3190 H   0  0  0  0  0  0  0  0  0  0  0  0
  130.8381  125.1071   56.5291 H   0  0  0  0  0  0  0  0  0  0  0  0
  130.3838  124.5796   59.5033 H   0  0  0  0  0  0  0  0  0  0  0  0
  128.5238  125.0278   58.2646 H   0  0  0  0  0  0  0  0  0  0  0  0
  128.6901  123.6713   57.2034 H   0  0  0  0  0  0  0  0  0  0  0  0
  126.4469  123.3582   61.5133 H   0  0  0  0  0  0  0  0  0  0  0  0
  123.9844  123.6989   61.6897 H   0  0  0  0  0  0  0  0  0  0  0  0
  122.6061  123.8861   59.6251 H   0  0  0  0  0  0  0  0  0  0  0  0
  123.6721  123.7385   57.3807 H   0  0  0  0  0  0  0  0  0  0  0  0
  126.1332  123.4043   57.1950 H   0  0  0  0  0  0  0  0  0  0  0  0
  131.8313  124.1850   61.2641 H   0  0  0  0  0  0  0  0  0  0  0  0
  133.2557  125.3429   63.1599 H   0  0  0  0  0  0  0  0  0  0  0  0
  133.1814  126.2452   65.4994 H   0  0  0  0  0  0  0  0  0  0  0  0
  131.3827  125.4799   67.0332 H   0  0  0  0  0  0  0  0  0  0  0  0
  129.7517  122.9942   64.0371 H   0  0  0  0  0  0  0  0  0  0  0  0
  1  2  2  0
  2  3  1  0
  3  4  1  0
  4  5  1  6
  5  6  1  0
  6  7  2  0
  7  8  1  0
  8  9  2  0
  9 10  1  0
 10 11  2  0
 11 12  1  0
 12 13  1  0
 13 14  1  0
 14 15  1  0
 15 16  2  0
 16 17  1  0
 17 18  2  0
 18 19  1  0
 19 20  2  0
 14 21  2  0
 21 22  1  0
  4 23  1  0
 23 24  2  0
 24 25  1  0
 25 26  2  0
 26 27  1  0
 27 28  2  0
 28 29  1  0
 29 30  2  0
 23 31  1  0
 31  2  1  0
 22  4  1  0
 30 25  1  0
 11  6  1  0
 22 12  1  0
 20 15  1  0
  3 32  1  0
  7 33  1  0
  8 34  1  0
  9 35  1  0
 10 36  1  0
 12 37  1  1
 13 38  1  0
 13 39  1  0
 16 40  1  0
 17 41  1  0
 18 42  1  0
 19 43  1  0
 20 44  1  0
 24 45  1  0
 26 46  1  0
 27 47  1  0
 28 48  1  0
 30 49  1  0
M  END
>  <Binding energies>  (1) 
[-8.7]

>  <Ligand effiencies>  (1) 
[-0.271875]

>  <Interactions>  (1) 
["V-B:TYR:539:CD2:9842, V-A:LEU:475:CD2:4254, V-B:PRO:540:C:9849, V-B:TYR:539:CE2:9844, V-B:PRO:540:N:9852, V-B:ALA:541:CB:9860, H-B:TYR:539:O:9836, V-B:PRO:540:CA:9851, V-B:PRO:540:CB:9853, V-A:TYR:531:CZ:4789, H-A:TYR:484:OH:4343, V-B:GLU:543:CG:9875, V-B:LEU:363:CB:8154, V-B:ASP:366:CG:8180, V-B:LEU:363:CD1:8156, V-B:TYR:539:CZ:9845, V-B:LEU:363:CA:8152, V-A:TYR:484:CZ:4342, V-A:ILE:369:CD1:3234, V-A:ILE:369:CG2:3232, V-A:ILE:369:CB:3231, V-A:TYR:531:CE1:4787, V-B:ASN:362:CB:8143, V-A:ASP:366:C:3203, V-A:ASN:370:CB:3240, V-B:ASN:362:C:8139, V-A:ASN:370:CA:3238"]

$$$$
RR23_Rahimova_2017
     RDKit          3D

 65 70  0  0  0  0  0  0  0  0999 V2000
  130.6190  134.8060   72.2430 C   0  0  0  0  0  0  0  0  0  0  0  0
  130.2390  133.3530   72.4620 C   0  0  0  0  0  0  0  0  0  0  0  0
  131.1330  132.4850   73.0900 C   0  0  0  0  0  0  0  0  0  0  0  0
  130.7800  131.1540   73.2990 C   0  0  0  0  0  0  0  0  0  0  0  0
  129.5350  130.6780   72.8700 C   0  0  0  0  0  0  0  0  0  0  0  0
  129.1620  129.2350   73.1250 C   0  0  0  0  0  0  0  0  0  0  0  0
  128.6470  128.9610   74.2110 O   0  0  0  0  0  0  0  0  0  0  0  0
  129.3920  128.3020   72.1530 N   0  0  0  0  0  0  0  0  0  0  0  0
  129.3850  126.8610   72.4530 C   0  0  0  0  0  0  0  0  0  0  0  0
  129.5270  126.1470   71.1190 C   0  0  0  0  0  0  0  0  0  0  0  0
  129.2240  127.2290   70.1270 C   0  0  0  0  0  0  0  0  0  0  0  0
  129.1150  127.1430   68.7390 C   0  0  0  0  0  0  0  0  0  0  0  0
  128.9840  128.3060   67.9650 C   0  0  0  0  0  0  0  0  0  0  0  0
  128.8610  128.2570   66.4340 C   0  0  2  0  0  0  0  0  0  0  0  0
  128.9040  129.5760   65.8400 N   0  0  0  0  0  0  0  0  0  0  0  0
  128.1960  129.6440   64.7850 C   0  0  0  0  0  0  0  0  0  0  0  0
  127.9830  130.7240   63.9860 N   0  0  0  0  0  0  0  0  0  0  0  0
  128.3530  132.0110   64.1940 C   0  0  0  0  0  0  0  0  0  0  0  0
  129.0030  132.4230   65.1580 O   0  0  0  0  0  0  0  0  0  0  0  0
  127.9010  133.0120   63.1180 C   0  0  0  0  0  0  0  0  0  0  0  0
  128.6160  132.7220   61.8550 N   0  0  0  0  0  0  0  0  0  0  0  0
  129.9580  132.3900   61.9930 N   0  0  0  0  0  0  0  0  0  0  0  0
  130.6960  132.1160   60.9650 N   0  0  0  0  0  0  0  0  0  0  0  0
  130.1410  132.1500   59.6830 C   0  0  0  0  0  0  0  0  0  0  0  0
  130.9640  131.8500   58.5950 C   0  0  0  0  0  0  0  0  0  0  0  0
  130.4380  131.8760   57.3020 C   0  0  0  0  0  0  0  0  0  0  0  0
  129.0960  132.2000   57.0960 C   0  0  0  0  0  0  0  0  0  0  0  0
  128.2710  132.5000   58.1820 C   0  0  0  0  0  0  0  0  0  0  0  0
  128.7980  132.4720   59.4790 C   0  0  0  0  0  0  0  0  0  0  0  0
  127.9240  132.7980   60.6670 C   0  0  0  0  0  0  0  0  0  0  0  0
  126.7310  133.1060   60.5780 O   0  0  0  0  0  0  0  0  0  0  0  0
  127.3560  128.1510   64.2750 S   0  0  0  0  0  0  0  0  0  0  0  0
  127.6340  127.4680   65.9190 C   0  0  2  0  0  0  0  0  0  0  0  0
  126.3350  127.5920   66.7420 C   0  0  0  0  0  0  0  0  0  0  0  0
  129.0130  129.5500   68.6050 C   0  0  0  0  0  0  0  0  0  0  0  0
  129.1430  129.6380   69.9910 C   0  0  0  0  0  0  0  0  0  0  0  0
  129.1930  128.4700   70.7640 C   0  0  0  0  0  0  0  0  0  0  0  0
  128.6320  131.5620   72.2650 C   0  0  0  0  0  0  0  0  0  0  0  0
  128.9850  132.8930   72.0580 C   0  0  0  0  0  0  0  0  0  0  0  0
  130.7487  135.3018   73.2163 H   0  0  0  0  0  0  0  0  0  0  0  0
  131.5608  134.8574   71.6770 H   0  0  0  0  0  0  0  0  0  0  0  0
  129.8230  135.3119   71.6770 H   0  0  0  0  0  0  0  0  0  0  0  0
  132.1162  132.8518   73.4199 H   0  0  0  0  0  0  0  0  0  0  0  0
  131.4822  130.4738   73.8032 H   0  0  0  0  0  0  0  0  0  0  0  0
  130.2268  126.6053   73.1134 H   0  0  0  0  0  0  0  0  0  0  0  0
  128.4598  126.5644   72.9687 H   0  0  0  0  0  0  0  0  0  0  0  0
  130.5479  125.7604   70.9836 H   0  0  0  0  0  0  0  0  0  0  0  0
  128.8680  125.2716   71.0222 H   0  0  0  0  0  0  0  0  0  0  0  0
  129.1318  126.1584   68.2487 H   0  0  0  0  0  0  0  0  0  0  0  0
  129.7477  127.6948   66.1058 H   0  0  0  0  0  0  0  0  0  0  0  0
  127.4390  130.5570   63.1530 H   0  0  0  0  0  0  0  0  0  0  0  0
  126.8170  132.9160   62.9579 H   0  0  0  0  0  0  0  0  0  0  0  0
  128.1296  134.0367   63.4461 H   0  0  0  0  0  0  0  0  0  0  0  0
  132.0217  131.5944   58.7562 H   0  0  0  0  0  0  0  0  0  0  0  0
  131.0832  131.6404   56.4428 H   0  0  0  0  0  0  0  0  0  0  0  0
  128.6870  132.2191   56.0750 H   0  0  0  0  0  0  0  0  0  0  0  0
  127.2138  132.7567   58.0196 H   0  0  0  0  0  0  0  0  0  0  0  0
  127.8594  126.3925   65.9701 H   0  0  0  0  0  0  0  0  0  0  0  0
  126.5770  127.5689   67.8148 H   0  0  0  0  0  0  0  0  0  0  0  0
  125.8362  128.5418   66.4990 H   0  0  0  0  0  0  0  0  0  0  0  0
  125.6655  126.7537   66.4990 H   0  0  0  0  0  0  0  0  0  0  0  0
  128.9323  130.4701   68.0076 H   0  0  0  0  0  0  0  0  0  0  0  0
  129.2062  130.6229   70.4767 H   0  0  0  0  0  0  0  0  0  0  0  0
  127.6403  131.2032   71.9523 H   0  0  0  0  0  0  0  0  0  0  0  0
  128.2755  133.5817   71.5761 H   0  0  0  0  0  0  0  0  0  0  0  0
  1  2  1  0
  2  3  2  0
  3  4  1  0
  4  5  2  0
  5  6  1  0
  6  7  2  0
  6  8  1  0
  8  9  1  0
  9 10  1  0
 10 11  1  0
 11 12  2  0
 12 13  1  0
 13 14  1  0
 14 15  1  0
 15 16  2  0
 16 17  1  0
 17 18  1  0
 18 19  2  0
 18 20  1  0
 20 21  1  0
 21 22  1  0
 22 23  2  0
 23 24  1  0
 24 25  2  0
 25 26  1  0
 26 27  2  0
 27 28  1  0
 28 29  2  0
 29 30  1  0
 30 31  2  0
 16 32  1  0
 32 33  1  0
 33 34  1  0
 13 35  2  0
 35 36  1  0
 36 37  2  0
  5 38  1  0
 38 39  2  0
 39  2  1  0
 37  8  1  0
 37 11  1  0
 33 14  1  0
 30 21  1  0
 29 24  1  0
  1 40  1  0
  1 41  1  0
  1 42  1  0
  3 43  1  0
  4 44  1  0
  9 45  1  0
  9 46  1  0
 10 47  1  0
 10 48  1  0
 12 49  1  0
 14 50  1  6
 17 51  1  0
 20 52  1  0
 20 53  1  0
 25 54  1  0
 26 55  1  0
 27 56  1  0
 28 57  1  0
 33 58  1  6
 34 59  1  0
 34 60  1  0
 34 61  1  0
 35 62  1  0
 36 63  1  0
 38 64  1  0
 39 65  1  0
M  END
>  <Binding energies>  (1) 
[-10.23]

>  <Ligand effiencies>  (1) 
[-0.25575000000000003]

>  <Interactions>  (1) 
["V-B:GLU:543:CD:9876, V-A:GLU:543:CG:4902, V-A:PRO:540:N:4879, V-A:TYR:539:CE2:4871, V-A:PRO:540:CA:4878, V-A:TYR:539:CE1:4870, H-A:ALA:541:N:4886, V-A:TYR:539:CZ:4872, V-A:PRO:540:CB:4880, V-A:GLU:543:CD:4903, V-B:GLU:543:CG:9875, V-A:TYR:539:CD2:4869, V-A:TYR:539:CD1:4868, V-A:ALA:541:CB:4887, V-A:TYR:539:CG:4867, V-A:GLU:543:CB:4901, V-B:HIS:456:CE1:9037, V-B:TYR:484:CZ:9314, V-B:ARG:545:CG:9890, H-B:TYR:484:OH:9315, V-A:HIS:456:CE1:4064, V-B:GLU:543:CB:9874, V-B:TYR:484:CG:9309, V-A:LYS:547:CE:4945, H-B:LYS:547:NZ:9919, H-A:LYS:547:NZ:4946, V-B:LYS:547:CE:9918, V-B:HIS:456:CD2:9035, V-B:TYR:484:CB:9308, V-A:GLU:543:C:4897, V-A:GLY:544:C:4907, V-A:GLY:544:CA:4909, V-B:TYR:484:CD1:9310"]

$$$$
RR24_Rahimova_2017
     RDKit          3D

 65 71  0  0  0  0  0  0  0  0999 V2000
  128.0730  134.8970   61.8010 C   0  0  0  0  0  0  0  0  0  0  0  0
  127.9200  133.3690   61.8090 C   0  0  2  0  0  0  0  0  0  0  0  0
  127.6800  132.7830   63.2310 C   0  0  0  0  0  0  0  0  0  0  0  0
  128.2300  133.2490   64.2340 O   0  0  0  0  0  0  0  0  0  0  0  0
  126.8340  131.7110   63.2190 O   0  0  0  0  0  0  0  0  0  0  0  0
  127.2320  130.5260   63.7950 C   0  0  0  0  0  0  0  0  0  0  0  0
  127.9150  130.5520   65.0130 C   0  0  0  0  0  0  0  0  0  0  0  0
  128.3130  129.3600   65.6100 C   0  0  0  0  0  0  0  0  0  0  0  0
  128.0230  128.1370   64.9990 C   0  0  0  0  0  0  0  0  0  0  0  0
  128.4810  126.8280   65.6520 C   0  0  1  0  0  0  0  0  0  0  0  0
  129.9010  126.4190   65.1930 C   0  0  0  0  0  0  0  0  0  0  0  0
  130.8820  126.1020   66.0570 C   0  0  0  0  0  0  0  0  0  0  0  0
  130.6940  126.1190   67.4180 N   0  0  0  0  0  0  0  0  0  0  0  0
  129.4820  126.4670   67.9670 C   0  0  0  0  0  0  0  0  0  0  0  0
  129.4590  126.4260   69.3240 N   0  0  0  0  0  0  0  0  0  0  0  0
  128.3720  126.8120   70.0450 C   0  0  0  0  0  0  0  0  0  0  0  0
  128.5020  127.0590   71.2460 O   0  0  0  0  0  0  0  0  0  0  0  0
  127.2400  127.0460   69.2800 N   0  0  0  0  0  0  0  0  0  0  0  0
  126.0060  127.3810   70.0220 C   0  0  0  0  0  0  0  0  0  0  0  0
  127.1520  127.1150   67.9000 C   0  0  0  0  0  0  0  0  0  0  0  0
  126.1160  127.3810   67.2840 O   0  0  0  0  0  0  0  0  0  0  0  0
  128.4110  126.8150   67.2080 C   0  0  0  0  0  0  0  0  0  0  0  0
  132.1050  125.7600   65.3500 C   0  0  0  0  0  0  0  0  0  0  0  0
  133.3760  125.3740   65.7770 C   0  0  0  0  0  0  0  0  0  0  0  0
  134.3640  125.1080   64.8260 C   0  0  0  0  0  0  0  0  0  0  0  0
  134.0780  125.2260   63.4620 C   0  0  0  0  0  0  0  0  0  0  0  0
  132.8030  125.6120   63.0400 C   0  0  0  0  0  0  0  0  0  0  0  0
  131.8200  125.8780   63.9950 C   0  0  0  0  0  0  0  0  0  0  0  0
  130.4110  126.2940   63.8320 C   0  0  0  0  0  0  0  0  0  0  0  0
  129.7670  126.5030   62.8060 O   0  0  0  0  0  0  0  0  0  0  0  0
  127.3220  128.1130   63.7880 C   0  0  0  0  0  0  0  0  0  0  0  0
  126.9220  129.3050   63.1910 C   0  0  0  0  0  0  0  0  0  0  0  0
  129.0430  132.6890   61.0970 N   0  0  0  0  0  0  0  0  0  0  0  0
  129.0170  132.4940   59.7480 C   0  0  0  0  0  0  0  0  0  0  0  0
  128.1240  132.8150   58.9630 O   0  0  0  0  0  0  0  0  0  0  0  0
  130.2940  131.8090   59.4240 C   0  0  0  0  0  0  0  0  0  0  0  0
  130.8070  131.3630   58.2060 C   0  0  0  0  0  0  0  0  0  0  0  0
  132.0620  130.7430   58.1950 C   0  0  0  0  0  0  0  0  0  0  0  0
  132.7780  130.5790   59.3870 C   0  0  0  0  0  0  0  0  0  0  0  0
  132.2470  131.0340   60.5990 C   0  0  0  0  0  0  0  0  0  0  0  0
  130.9940  131.6490   60.5890 C   0  0  0  0  0  0  0  0  0  0  0  0
  130.1850  132.2260   61.6910 C   0  0  0  0  0  0  0  0  0  0  0  0
  130.4820  132.2800   62.8850 O   0  0  0  0  0  0  0  0  0  0  0  0
  128.1101  135.2672   62.8362 H   0  0  0  0  0  0  0  0  0  0  0  0
  129.0029  135.1697   61.2806 H   0  0  0  0  0  0  0  0  0  0  0  0
  127.2156  135.3486   61.2806 H   0  0  0  0  0  0  0  0  0  0  0  0
  127.0026  133.1543   61.2413 H   0  0  0  0  0  0  0  0  0  0  0  0
  128.1378  131.5131   65.4994 H   0  0  0  0  0  0  0  0  0  0  0  0
  128.8575  129.3802   66.5656 H   0  0  0  0  0  0  0  0  0  0  0  0
  127.7489  126.0865   65.2995 H   0  0  0  0  0  0  0  0  0  0  0  0
  131.4580  125.8710   68.0300 H   0  0  0  0  0  0  0  0  0  0  0  0
  130.2700  126.1290   69.8470 H   0  0  0  0  0  0  0  0  0  0  0  0
  126.2023  127.3277   71.1030 H   0  0  0  0  0  0  0  0  0  0  0  0
  125.6841  128.3990   69.7575 H   0  0  0  0  0  0  0  0  0  0  0  0
  125.2135  126.6655   69.7575 H   0  0  0  0  0  0  0  0  0  0  0  0
  133.5975  125.2802   66.8504 H   0  0  0  0  0  0  0  0  0  0  0  0
  135.3702  124.8047   65.1509 H   0  0  0  0  0  0  0  0  0  0  0  0
  134.8602  125.0140   62.7182 H   0  0  0  0  0  0  0  0  0  0  0  0
  132.5765  125.7052   61.9676 H   0  0  0  0  0  0  0  0  0  0  0  0
  127.0870  127.1517   63.3077 H   0  0  0  0  0  0  0  0  0  0  0  0
  126.3622  129.2857   62.2443 H   0  0  0  0  0  0  0  0  0  0  0  0
  130.2376  131.4956   57.2742 H   0  0  0  0  0  0  0  0  0  0  0  0
  132.4872  130.3833   57.2464 H   0  0  0  0  0  0  0  0  0  0  0  0
  133.7631  130.0899   59.3706 H   0  0  0  0  0  0  0  0  0  0  0  0
  132.8047  130.9098   61.5390 H   0  0  0  0  0  0  0  0  0  0  0  0
  1  2  1  0
  2  3  1  0
  3  4  2  0
  3  5  1  0
  5  6  1  0
  6  7  2  0
  7  8  1  0
  8  9  2  0
  9 10  1  0
 10 11  1  0
 11 12  2  0
 12 13  1  0
 13 14  1  0
 14 15  1  0
 15 16  1  0
 16 17  2  0
 16 18  1  0
 18 19  1  0
 18 20  1  0
 20 21  2  0
 20 22  1  0
 12 23  1  0
 23 24  2  0
 24 25  1  0
 25 26  2  0
 26 27  1  0
 27 28  2  0
 28 29  1  0
 29 30  2  0
  9 31  1  0
 31 32  2  0
  2 33  1  0
 33 34  1  0
 34 35  2  0
 34 36  1  0
 36 37  2  0
 37 38  1  0
 38 39  2  0
 39 40  1  0
 40 41  2  0
 41 42  1  0
 42 43  2  0
 32  6  1  0
 42 33  1  0
 22 10  1  0
 28 23  1  0
 41 36  1  0
 29 11  1  0
 22 14  2  0
  1 44  1  0
  1 45  1  0
  1 46  1  0
  2 47  1  6
  7 48  1  0
  8 49  1  0
 10 50  1  6
 13 51  1  0
 15 52  1  0
 19 53  1  0
 19 54  1  0
 19 55  1  0
 24 56  1  0
 25 57  1  0
 26 58  1  0
 27 59  1  0
 31 60  1  0
 32 61  1  0
 37 62  1  0
 38 63  1  0
 39 64  1  0
 40 65  1  0
M  END
>  <Binding energies>  (1) 
[-10.1]

>  <Ligand effiencies>  (1) 
[-0.22444444444444445]

>  <Interactions>  (1) 
["V-B:GLU:543:CD:9876, V-A:GLU:543:CG:4902, V-A:PRO:540:CA:4878, V-A:PRO:540:C:4876, V-A:ALA:541:CA:4885, H-A:ALA:541:N:4886, V-A:PRO:540:CB:4880, V-A:ASP:366:CG:3208, V-A:GLU:543:CD:4903, V-B:GLU:543:CG:9875, V-B:LEU:475:CD2:9226, V-A:ALA:541:CB:4887, V-B:HIS:456:CE1:9037, V-B:TYR:484:CZ:9314, V-B:ARG:545:CG:9890, H-B:TYR:484:OH:9315, H-B:GLU:543:O:9871, V-A:HIS:456:CE1:4064, V-B:GLU:543:CB:9874, H-B:LYS:547:NZ:9919, V-B:HIS:456:CD2:9035, V-B:GLU:543:C:9870, V-B:HIS:456:CG:9033, V-A:ARG:545:CZ:4921, V-A:GLY:453:CA:4039, V-A:ARG:545:CD:4918, V-B:GLY:544:C:9880, V-A:GLY:453:C:4037, V-B:ARG:545:CA:9887, H-A:HIS:456:ND1:4062"]

$$$$
RR24_Rahimova_2017-again1
     RDKit          3D

 63 69  0  0  0  0  0  0  0  0999 V2000
  129.7880  133.0060   54.9860 C   0  0  0  0  0  0  0  0  0  0  0  0
  129.6080  131.6000   55.5720 C   0  0  2  0  0  0  0  0  0  0  0  0
  128.1300  131.2620   55.9240 C   0  0  0  0  0  0  0  0  0  0  0  0
  127.5400  131.8030   56.8660 O   0  0  0  0  0  0  0  0  0  0  0  0
  127.6000  130.3060   55.1050 O   0  0  0  0  0  0  0  0  0  0  0  0
  127.7480  128.9760   55.4260 C   0  0  0  0  0  0  0  0  0  0  0  0
  127.0240  128.4410   56.4920 C   0  0  0  0  0  0  0  0  0  0  0  0
  127.1540  127.0920   56.8110 C   0  0  0  0  0  0  0  0  0  0  0  0
  128.0010  126.2700   56.0610 C   0  0  0  0  0  0  0  0  0  0  0  0
  128.1470  124.7820   56.4090 C   0  0  1  0  0  0  0  0  0  0  0  0
  129.6110  124.4280   56.7590 C   0  0  0  0  0  0  0  0  0  0  0  0
  130.7510  124.4500   56.0320 C   0  0  0  0  0  0  0  0  0  0  0  0
  130.8250  124.7690   54.7850 O   0  0  0  0  0  0  0  0  0  0  0  0
  131.8940  124.0890   56.8700 C   0  0  0  0  0  0  0  0  0  0  0  0
  133.2650  123.9800   56.6020 C   0  0  0  0  0  0  0  0  0  0  0  0
  134.1400  123.6130   57.6260 C   0  0  0  0  0  0  0  0  0  0  0  0
  133.6490  123.3560   58.9080 C   0  0  0  0  0  0  0  0  0  0  0  0
  132.2820  123.4650   59.1690 C   0  0  0  0  0  0  0  0  0  0  0  0
  131.4080  123.8350   58.1440 C   0  0  0  0  0  0  0  0  0  0  0  0
  129.9670  124.0110   58.1050 C   0  0  0  0  0  0  0  0  0  0  0  0
  129.0930  123.8440   59.0260 N   0  0  0  0  0  0  0  0  0  0  0  0
  127.7570  123.9400   58.7700 C   0  0  0  0  0  0  0  0  0  0  0  0
  126.9820  123.5700   59.8300 N   0  0  0  0  0  0  0  0  0  0  0  0
  125.7010  123.6310   59.7250 C   0  0  0  0  0  0  0  0  0  0  0  0
  125.0980  123.2760   60.7520 O   0  0  0  0  0  0  0  0  0  0  0  0
  125.0670  124.0550   58.5590 N   0  0  0  0  0  0  0  0  0  0  0  0
  123.5950  124.1370   58.4080 C   0  0  0  0  0  0  0  0  0  0  0  0
  125.7710  124.4300   57.4310 C   0  0  0  0  0  0  0  0  0  0  0  0
  125.2490  124.7890   56.3700 O   0  0  0  0  0  0  0  0  0  0  0  0
  127.2280  124.3650   57.5800 C   0  0  0  0  0  0  0  0  0  0  0  0
  128.7150  126.8080   54.9860 C   0  0  0  0  0  0  0  0  0  0  0  0
  128.5850  128.1560   54.6650 C   0  0  0  0  0  0  0  0  0  0  0  0
  130.5350  131.3470   56.7150 N   0  0  0  0  0  0  0  0  0  0  0  0
  131.7520  130.7640   56.5310 C   0  0  0  0  0  0  0  0  0  0  0  0
  132.2450  130.3770   55.4690 O   0  0  0  0  0  0  0  0  0  0  0  0
  132.3640  130.6910   57.8820 C   0  0  0  0  0  0  0  0  0  0  0  0
  133.5960  130.1880   58.3020 C   0  0  0  0  0  0  0  0  0  0  0  0
  133.9160  130.2500   59.6620 C   0  0  0  0  0  0  0  0  0  0  0  0
  133.0120  130.8090   60.5760 C   0  0  0  0  0  0  0  0  0  0  0  0
  131.7830  131.3090   60.1350 C   0  0  0  0  0  0  0  0  0  0  0  0
  131.4810  131.2360   58.7740 C   0  0  0  0  0  0  0  0  0  0  0  0
  130.2810  131.6760   58.0190 C   0  0  0  0  0  0  0  0  0  0  0  0
  129.2740  132.2220   58.4710 O   0  0  0  0  0  0  0  0  0  0  0  0
  129.8813  133.7351   55.8043 H   0  0  0  0  0  0  0  0  0  0  0  0
  130.6967  133.0316   54.3667 H   0  0  0  0  0  0  0  0  0  0  0  0
  128.9150  133.2597   54.3667 H   0  0  0  0  0  0  0  0  0  0  0  0
  129.8865  130.9017   54.7690 H   0  0  0  0  0  0  0  0  0  0  0  0
  126.3518  129.0838   57.0793 H   0  0  0  0  0  0  0  0  0  0  0  0
  126.5886  126.6714   57.6557 H   0  0  0  0  0  0  0  0  0  0  0  0
  127.8421  124.2241   55.5114 H   0  0  0  0  0  0  0  0  0  0  0  0
  133.6493  124.1823   55.5914 H   0  0  0  0  0  0  0  0  0  0  0  0
  135.2176  123.5261   57.4229 H   0  0  0  0  0  0  0  0  0  0  0  0
  134.3405  123.0673   59.7132 H   0  0  0  0  0  0  0  0  0  0  0  0
  131.8945  123.2603   60.1779 H   0  0  0  0  0  0  0  0  0  0  0  0
  123.1253  124.1632   59.4023 H   0  0  0  0  0  0  0  0  0  0  0  0
  123.3335  125.0511   57.8548 H   0  0  0  0  0  0  0  0  0  0  0  0
  123.2336  123.2576   57.8548 H   0  0  0  0  0  0  0  0  0  0  0  0
  129.3810  126.1644   54.3926 H   0  0  0  0  0  0  0  0  0  0  0  0
  129.1405  128.5753   53.8132 H   0  0  0  0  0  0  0  0  0  0  0  0
  134.3006  129.7519   57.5786 H   0  0  0  0  0  0  0  0  0  0  0  0
  134.8811  129.8585   60.0160 H   0  0  0  0  0  0  0  0  0  0  0  0
  133.2705  130.8545   61.6442 H   0  0  0  0  0  0  0  0  0  0  0  0
  131.0689  131.7507   60.8457 H   0  0  0  0  0  0  0  0  0  0  0  0
  1  2  1  0
  2  3  1  0
  3  4  2  0
  3  5  1  0
  5  6  1  0
  6  7  2  0
  7  8  1  0
  8  9  2  0
  9 10  1  0
 10 11  1  0
 11 12  2  0
 12 13  1  0
 12 14  1  0
 14 15  2  0
 15 16  1  0
 16 17  2  0
 17 18  1  0
 18 19  2  0
 19 20  1  0
 20 21  2  0
 21 22  1  0
 22 23  1  0
 23 24  2  0
 24 25  1  0
 24 26  1  0
 26 27  1  0
 26 28  1  0
 28 29  2  0
 28 30  1  0
  9 31  1  0
 31 32  2  0
  2 33  1  0
 33 34  1  0
 34 35  2  0
 34 36  1  0
 36 37  2  0
 37 38  1  0
 38 39  2  0
 39 40  1  0
 40 41  2  0
 41 42  1  0
 42 43  2  0
 32  6  1  0
 42 33  1  0
 30 10  1  0
 41 36  1  0
 20 11  1  0
 30 22  2  0
 19 14  1  0
  1 44  1  0
  1 45  1  0
  1 46  1  0
  2 47  1  6
  7 48  1  0
  8 49  1  0
 10 50  1  6
 15 51  1  0
 16 52  1  0
 17 53  1  0
 18 54  1  0
 27 55  1  0
 27 56  1  0
 27 57  1  0
 31 58  1  0
 32 59  1  0
 37 60  1  0
 38 61  1  0
 39 62  1  0
 40 63  1  0
M  CHG  2  13  -1  25  -1
M  END
>  <Binding energies>  (1) 
[-10.59]

>  <Ligand effiencies>  (1) 
[-0.24627906976744185]

>  <Interactions>  (1) 
["V-B:TYR:539:CE2:9844, V-B:PRO:540:CA:9851, V-B:MET:535:CE:9803, V-B:PRO:540:CB:9853, H-B:ALA:541:N:9859, V-A:ASN:362:C:3167, V-A:TYR:531:CZ:4789, V-A:TYR:531:CE2:4788, V-A:PRO:540:CA:4878, V-A:TYR:539:CE1:4870, V-A:ASP:366:CB:3207, V-A:TYR:539:CZ:4872, V-A:PRO:540:CB:4880, V-A:LEU:363:CD1:3184, V-A:LEU:363:CA:3180, V-A:ASP:366:CG:3208, V-B:LEU:363:CB:8154, V-B:ASP:366:CG:8180, V-B:LEU:363:CD1:8156, V-B:TYR:539:CZ:9845, V-B:ASP:366:CB:8179, V-B:LEU:363:CA:8152, V-A:TYR:539:CD1:4868, H-A:TYR:539:OH:4873, V-A:ILE:538:CA:4855, V-A:ILE:369:CD1:3234, V-A:ILE:369:CG2:3232, V-A:ILE:369:CB:3231, V-A:TYR:531:CE1:4787, H-A:TYR:531:OH:4790, V-A:ASP:366:CA:3205, V-A:ASP:366:C:3203, H-B:TYR:539:OH:9846, H-A:LYS:534:NZ:4818, V-A:MET:535:CG:4828, H-B:TYR:531:OH:9763, V-A:ASN:370:CB:3240"]

$$$$
RR25_Rahimova_2017
     RDKit          3D

 63 68  0  0  0  0  0  0  0  0999 V2000
  133.7160  125.1630   66.3940 O   0  0  0  0  0  0  0  0  0  0  0  0
  132.6360  125.5190   65.9210 C   0  0  0  0  0  0  0  0  0  0  0  0
  131.6090  125.6920   66.8160 O   0  0  0  0  0  0  0  0  0  0  0  0
  130.4330  126.3220   66.4530 C   0  0  0  0  0  0  0  0  0  0  0  0
  129.7110  126.9390   67.4730 C   0  0  0  0  0  0  0  0  0  0  0  0
  128.5120  127.5850   67.1780 C   0  0  0  0  0  0  0  0  0  0  0  0
  128.0180  127.6210   65.8660 C   0  0  0  0  0  0  0  0  0  0  0  0
  126.7450  128.3170   65.5540 N   0  0  0  0  0  0  0  0  0  0  0  0
  125.6880  127.7830   65.8810 O   0  0  0  0  0  0  0  0  0  0  0  0
  126.7940  129.4010   64.9810 O   0  0  0  0  0  0  0  0  0  0  0  0
  128.7550  126.9830   64.8550 C   0  0  0  0  0  0  0  0  0  0  0  0
  129.9540  126.3230   65.1350 C   0  0  0  0  0  0  0  0  0  0  0  0
  130.7920  125.6280   64.0760 C   0  0  0  0  0  0  0  0  0  0  0  0
  132.3010  125.7750   64.4230 C   0  0  2  0  0  0  0  0  0  0  0  0
  133.1870  124.9910   63.4130 C   0  0  0  0  0  0  0  0  0  0  0  0
  134.1430  124.3750   63.8940 O   0  0  0  0  0  0  0  0  0  0  0  0
  132.8600  124.8810   62.0900 N   0  0  0  0  0  0  0  0  0  0  0  0
  131.9410  125.8200   61.4120 C   0  0  0  0  0  0  0  0  0  0  0  0
  131.0930  125.0390   60.3860 C   0  0  0  0  0  0  0  0  0  0  0  0
  131.9390  124.2950   59.4480 N   0  0  0  0  0  0  0  0  0  0  0  0
  131.1410  123.6590   58.3910 C   0  0  0  0  0  0  0  0  0  0  0  0
  130.2610  122.4940   58.9190 C   0  0  0  0  0  0  0  0  0  0  0  0
  128.7990  122.7740   59.0280 N   0  0  0  0  0  0  0  0  0  0  0  0
  128.3010  122.8110   60.3130 C   0  0  0  0  0  0  0  0  0  0  0  0
  128.9930  122.5940   61.3140 O   0  0  0  0  0  0  0  0  0  0  0  0
  126.8280  123.1610   60.4090 C   0  0  0  0  0  0  0  0  0  0  0  0
  126.2240  123.2520   61.6700 C   0  0  0  0  0  0  0  0  0  0  0  0
  124.8750  123.5790   61.7960 C   0  0  0  0  0  0  0  0  0  0  0  0
  124.0900  123.8280   60.6710 C   0  0  0  0  0  0  0  0  0  0  0  0
  124.6570  123.7480   59.3770 C   0  0  0  0  0  0  0  0  0  0  0  0
  123.9190  123.9900   58.1940 C   0  0  0  0  0  0  0  0  0  0  0  0
  124.5410  123.8970   56.9500 C   0  0  0  0  0  0  0  0  0  0  0  0
  125.8900  123.5650   56.8470 C   0  0  0  0  0  0  0  0  0  0  0  0
  126.6600  123.3170   57.9910 C   0  0  0  0  0  0  0  0  0  0  0  0
  126.0350  123.4110   59.2610 C   0  0  0  0  0  0  0  0  0  0  0  0
  128.1280  122.9680   57.8380 C   0  0  0  0  0  0  0  0  0  0  0  0
  128.6700  122.8840   56.7310 O   0  0  0  0  0  0  0  0  0  0  0  0
  132.7480  123.3160   60.1780 C   0  0  0  0  0  0  0  0  0  0  0  0
  133.6680  123.9980   61.2180 C   0  0  0  0  0  0  0  0  0  0  0  0
  130.0861  126.9161   68.5068 H   0  0  0  0  0  0  0  0  0  0  0  0
  127.9456  128.0731   67.9848 H   0  0  0  0  0  0  0  0  0  0  0  0
  128.3803  127.0034   63.8210 H   0  0  0  0  0  0  0  0  0  0  0  0
  130.5268  124.5610   64.0418 H   0  0  0  0  0  0  0  0  0  0  0  0
  130.5966  126.0884   63.0963 H   0  0  0  0  0  0  0  0  0  0  0  0
  132.5590  126.8369   64.2974 H   0  0  0  0  0  0  0  0  0  0  0  0
  131.2802  126.2906   62.1549 H   0  0  0  0  0  0  0  0  0  0  0  0
  132.5201  126.6014   60.8981 H   0  0  0  0  0  0  0  0  0  0  0  0
  130.4450  124.3305   60.9227 H   0  0  0  0  0  0  0  0  0  0  0  0
  130.4923  125.7605   59.8128 H   0  0  0  0  0  0  0  0  0  0  0  0
  130.4850  124.4186   57.9408 H   0  0  0  0  0  0  0  0  0  0  0  0
  131.8420  123.2371   57.6557 H   0  0  0  0  0  0  0  0  0  0  0  0
  130.3899  121.6398   58.2380 H   0  0  0  0  0  0  0  0  0  0  0  0
  130.6039  122.3067   59.9473 H   0  0  0  0  0  0  0  0  0  0  0  0
  126.8228  123.0627   62.5731 H   0  0  0  0  0  0  0  0  0  0  0  0
  124.4234  123.6415   62.7971 H   0  0  0  0  0  0  0  0  0  0  0  0
  123.0276  124.0872   60.7896 H   0  0  0  0  0  0  0  0  0  0  0  0
  122.8525  124.2520   58.2563 H   0  0  0  0  0  0  0  0  0  0  0  0
  123.9584  124.0885   56.0368 H   0  0  0  0  0  0  0  0  0  0  0  0
  126.3573  123.4966   55.8535 H   0  0  0  0  0  0  0  0  0  0  0  0
  132.0776  122.6166   60.6990 H   0  0  0  0  0  0  0  0  0  0  0  0
  133.3830  122.7859   59.4529 H   0  0  0  0  0  0  0  0  0  0  0  0
  134.1610  123.2292   61.8311 H   0  0  0  0  0  0  0  0  0  0  0  0
  134.4297  124.5961   60.6965 H   0  0  0  0  0  0  0  0  0  0  0  0
  1  2  2  0
  2  3  1  0
  3  4  1  0
  4  5  2  0
  5  6  1  0
  6  7  2  0
  7  8  1  0
  8  9  2  0
  8 10  1  0
  7 11  1  0
 11 12  2  0
 12 13  1  0
 13 14  1  0
 14 15  1  0
 15 16  2  0
 15 17  1  0
 17 18  1  0
 18 19  1  0
 19 20  1  0
 20 21  1  0
 21 22  1  0
 22 23  1  0
 23 24  1  0
 24 25  2  0
 24 26  1  0
 26 27  2  0
 27 28  1  0
 28 29  2  0
 29 30  1  0
 30 31  2  0
 31 32  1  0
 32 33  2  0
 33 34  1  0
 34 35  2  0
 34 36  1  0
 36 37  2  0
 20 38  1  0
 38 39  1  0
 14  2  1  0
 39 17  1  0
 12  4  1  0
 36 23  1  0
 35 26  1  0
 35 30  1  0
  5 40  1  0
  6 41  1  0
 11 42  1  0
 13 43  1  0
 13 44  1  0
 14 45  1  6
 18 46  1  0
 18 47  1  0
 19 48  1  0
 19 49  1  0
 21 50  1  0
 21 51  1  0
 22 52  1  0
 22 53  1  0
 27 54  1  0
 28 55  1  0
 29 56  1  0
 31 57  1  0
 32 58  1  0
 33 59  1  0
 38 60  1  0
 38 61  1  0
 39 62  1  0
 39 63  1  0
M  CHG  2   8   1  10  -1
M  END
>  <Binding energies>  (1) 
[-10.73]

>  <Ligand effiencies>  (1) 
[-0.2751282051282051]

>  <Interactions>  (1) 
["V-B:TYR:539:C:9835, V-B:TYR:539:CD2:9842, V-B:PRO:540:C:9849, V-B:TYR:539:CE2:9844, V-B:PRO:540:N:9852, V-B:PRO:540:CA:9851, V-B:MET:535:CE:9803, V-B:PRO:540:CB:9853, V-B:GLU:543:CD:9876, V-B:ALA:541:CA:9858, V-A:ASP:366:CG:3208, H-A:TYR:484:OH:4343, V-B:GLU:543:CG:9875, V-B:LEU:363:CB:8154, V-B:ASP:366:CG:8180, V-B:LEU:363:CD1:8156, V-B:TYR:531:CE2:9761, V-B:LEU:363:CA:8152, H-B:TYR:484:OH:9315, V-A:HIS:456:CE1:4064, H-A:HIS:456:NE2:4065, V-A:ILE:369:CD1:3234, H-B:ARG:545:NE:9892, V-B:ASN:362:CB:8143, V-A:ARG:545:CZ:4921, H-A:GLY:454:N:4045, V-B:ASN:362:C:8139"]

$$$$
RR26_Rahimova_2017
     RDKit          3D

 59 65  0  0  0  0  0  0  0  0999 V2000
  133.0660  130.7580   58.2920 C   0  0  0  0  0  0  0  0  0  0  0  0
  131.9360  131.5580   57.6560 C   0  0  0  0  0  0  0  0  0  0  0  0
  132.1990  132.2420   56.4630 C   0  0  0  0  0  0  0  0  0  0  0  0
  131.1940  132.9570   55.8170 C   0  0  0  0  0  0  0  0  0  0  0  0
  129.9110  132.9890   56.3540 C   0  0  0  0  0  0  0  0  0  0  0  0
  129.6360  132.3120   57.5410 C   0  0  0  0  0  0  0  0  0  0  0  0
  130.6380  131.5940   58.2110 C   0  0  0  0  0  0  0  0  0  0  0  0
  130.2620  130.9060   59.4920 C   0  0  0  0  0  0  0  0  0  0  0  0
  130.0850  131.5710   60.6310 N   0  0  0  0  0  0  0  0  0  0  0  0
  129.7660  130.6110   61.4570 C   0  0  0  0  0  0  0  0  0  0  0  0
  129.3690  130.5010   63.1320 S   0  0  0  0  0  0  0  0  0  0  0  0
  129.1630  128.7190   62.9420 C   0  0  0  0  0  0  0  0  0  0  0  0
  128.8270  127.8200   63.8930 C   0  0  0  0  0  0  0  0  0  0  0  0
  128.5440  128.0640   65.2980 C   0  0  0  0  0  0  0  0  0  0  0  0
  129.3470  127.7910   66.3950 C   0  0  0  0  0  0  0  0  0  0  0  0
  128.6920  128.2280   67.5180 N   0  0  0  0  0  0  0  0  0  0  0  0
  129.1270  128.1670   68.8670 C   0  0  0  0  0  0  0  0  0  0  0  0
  130.2680  128.8660   69.2860 C   0  0  0  0  0  0  0  0  0  0  0  0
  130.6860  128.7950   70.6120 C   0  0  0  0  0  0  0  0  0  0  0  0
  129.9640  128.0300   71.5240 C   0  0  0  0  0  0  0  0  0  0  0  0
  128.8260  127.3330   71.1210 C   0  0  0  0  0  0  0  0  0  0  0  0
  128.4080  127.3990   69.7960 C   0  0  0  0  0  0  0  0  0  0  0  0
  127.5210  128.7920   67.1840 N   0  0  0  0  0  0  0  0  0  0  0  0
  127.4180  128.6970   65.8730 C   0  0  0  0  0  0  0  0  0  0  0  0
  126.2030  129.2320   65.1800 C   0  0  0  0  0  0  0  0  0  0  0  0
  124.9930  129.3740   65.8760 C   0  0  0  0  0  0  0  0  0  0  0  0
  123.8540  129.8680   65.2380 C   0  0  0  0  0  0  0  0  0  0  0  0
  123.9170  130.2250   63.8930 C   0  0  0  0  0  0  0  0  0  0  0  0
  125.1250  130.1060   63.1910 C   0  0  0  0  0  0  0  0  0  0  0  0
  126.2600  129.6060   63.8290 C   0  0  0  0  0  0  0  0  0  0  0  0
  125.2240  130.4050   61.8460 O   0  0  0  0  0  0  0  0  0  0  0  0
  124.1690  131.2380   61.3530 C   0  0  0  0  0  0  0  0  0  0  0  0
  122.7980  130.7480   61.8820 C   0  0  0  0  0  0  0  0  0  0  0  0
  122.7810  130.7550   63.3140 O   0  0  0  0  0  0  0  0  0  0  0  0
  129.4180  128.2730   61.5760 C   0  0  0  0  0  0  0  0  0  0  0  0
  129.3710  127.1340   61.1080 O   0  0  0  0  0  0  0  0  0  0  0  0
  129.7450  129.4190   60.8340 N   0  0  0  0  0  0  0  0  0  0  0  0
  130.0630  129.5980   59.5490 N   0  0  0  0  0  0  0  0  0  0  0  0
  132.9846  130.8156   59.3875 H   0  0  0  0  0  0  0  0  0  0  0  0
  132.9956  129.7074   57.9739 H   0  0  0  0  0  0  0  0  0  0  0  0
  134.0336  131.1734   57.9739 H   0  0  0  0  0  0  0  0  0  0  0  0
  133.2104  132.2142   56.0315 H   0  0  0  0  0  0  0  0  0  0  0  0
  131.4141  133.4957   54.8835 H   0  0  0  0  0  0  0  0  0  0  0  0
  129.1140  133.5483   55.8421 H   0  0  0  0  0  0  0  0  0  0  0  0
  128.6187  132.3411   57.9585 H   0  0  0  0  0  0  0  0  0  0  0  0
  128.7591  126.7729   63.5630 H   0  0  0  0  0  0  0  0  0  0  0  0
  130.3354  127.3088   66.3691 H   0  0  0  0  0  0  0  0  0  0  0  0
  130.8348  129.4726   68.5644 H   0  0  0  0  0  0  0  0  0  0  0  0
  131.5834  129.3413   70.9379 H   0  0  0  0  0  0  0  0  0  0  0  0
  130.2944  127.9751   72.5718 H   0  0  0  0  0  0  0  0  0  0  0  0
  128.2603  126.7326   71.8487 H   0  0  0  0  0  0  0  0  0  0  0  0
  127.5116  126.8479   69.4754 H   0  0  0  0  0  0  0  0  0  0  0  0
  124.9413  129.0924   66.9381 H   0  0  0  0  0  0  0  0  0  0  0  0
  122.9113  129.9749   65.7946 H   0  0  0  0  0  0  0  0  0  0  0  0
  127.2027  129.5046   63.2713 H   0  0  0  0  0  0  0  0  0  0  0  0
  124.3377  132.2720   61.6882 H   0  0  0  0  0  0  0  0  0  0  0  0
  124.1633  131.1915   60.2540 H   0  0  0  0  0  0  0  0  0  0  0  0
  122.0066  131.4138   61.5074 H   0  0  0  0  0  0  0  0  0  0  0  0
  122.6275  129.7201   61.5293 H   0  0  0  0  0  0  0  0  0  0  0  0
  1  2  1  0
  2  3  2  0
  3  4  1  0
  4  5  2  0
  5  6  1  0
  6  7  2  0
  7  8  1  0
  8  9  1  0
  9 10  2  0
 10 11  1  0
 11 12  1  0
 12 13  2  0
 13 14  1  0
 14 15  2  0
 15 16  1  0
 16 17  1  0
 17 18  2  0
 18 19  1  0
 19 20  2  0
 20 21  1  0
 21 22  2  0
 16 23  1  0
 23 24  2  0
 24 25  1  0
 25 26  2  0
 26 27  1  0
 27 28  2  0
 28 29  1  0
 29 30  2  0
 29 31  1  0
 31 32  1  0
 32 33  1  0
 33 34  1  0
 12 35  1  0
 35 36  2  0
 35 37  1  0
 37 38  1  0
  7  2  1  0
 38  8  2  0
 37 10  1  0
 24 14  1  0
 30 25  1  0
 22 17  1  0
 34 28  1  0
  1 39  1  0
  1 40  1  0
  1 41  1  0
  3 42  1  0
  4 43  1  0
  5 44  1  0
  6 45  1  0
 13 46  1  0
 15 47  1  0
 18 48  1  0
 19 49  1  0
 20 50  1  0
 21 51  1  0
 22 52  1  0
 26 53  1  0
 27 54  1  0
 30 55  1  0
 32 56  1  0
 32 57  1  0
 33 58  1  0
 33 59  1  0
M  END
>  <Binding energies>  (1) 
[-9.44]

>  <Ligand effiencies>  (1) 
[-0.24842105263157893]

>  <Interactions>  (1) 
["V-A:GLU:543:CG:4902, V-A:PRO:540:N:4879, V-A:PRO:540:CG:4881, V-A:TYR:531:CE2:4788, V-A:PRO:540:CA:4878, V-A:TYR:539:CE1:4870, V-A:PRO:540:CB:4880, V-A:LEU:363:CD1:3184, V-A:TYR:539:C:4862, V-A:LEU:363:CA:3180, V-A:PRO:540:CD:4882, V-A:GLU:543:CD:4903, H-B:ARG:545:NH1:9895, H-B:GLY:454:N:9017, V-B:ILE:369:CD1:8206, V-B:ASP:366:CG:8180, V-A:TYR:539:CD1:4868, V-A:TYR:539:CG:4867, V-A:ILE:538:CG2:4858, V-A:TYR:539:CA:4864, V-B:ARG:545:CZ:9894, V-A:ILE:538:CA:4855, V-A:GLU:543:CB:4901, V-B:HIS:456:CE1:9037, V-B:ARG:545:CG:9890, V-B:ARG:545:CD:9891, V-A:HIS:456:CE1:4064, V-A:GLU:543:C:4897, V-A:GLY:544:C:4907"]

$$$$
RR27_Rahimova_2017
     RDKit          3D

 66 71  0  0  0  0  0  0  0  0999 V2000
  130.3340  123.0760   57.6110 O   0  0  0  0  0  0  0  0  0  0  0  0
  129.4020  123.2250   58.4070 C   0  0  0  0  0  0  0  0  0  0  0  0
  128.3380  124.3190   58.1010 C   0  0  0  0  0  0  0  0  0  0  0  0
  126.9590  123.7370   57.7390 C   0  0  0  0  0  0  0  0  0  0  0  0
  125.7710  124.2570   58.2760 C   0  0  0  0  0  0  0  0  0  0  0  0
  124.5410  123.7080   57.9260 C   0  0  0  0  0  0  0  0  0  0  0  0
  124.4920  122.6370   57.0380 C   0  0  0  0  0  0  0  0  0  0  0  0
  125.6610  122.1090   56.4990 C   0  0  0  0  0  0  0  0  0  0  0  0
  126.8910  122.6580   56.8490 C   0  0  0  0  0  0  0  0  0  0  0  0
  128.8730  125.3780   57.1180 C   0  0  0  0  0  0  0  0  0  0  0  0
  129.0690  126.7110   57.5060 C   0  0  0  0  0  0  0  0  0  0  0  0
  129.5440  127.6450   56.5880 C   0  0  0  0  0  0  0  0  0  0  0  0
  129.8190  127.2530   55.2810 C   0  0  0  0  0  0  0  0  0  0  0  0
  129.6180  125.9350   54.8800 C   0  0  0  0  0  0  0  0  0  0  0  0
  129.1430  125.0020   55.7970 C   0  0  0  0  0  0  0  0  0  0  0  0
  129.2060  122.3660   59.4480 N   0  0  0  0  0  0  0  0  0  0  0  0
  128.2810  122.6360   60.5590 C   0  0  0  0  0  0  0  0  0  0  0  0
  129.0720  123.4380   61.6160 C   0  0  0  0  0  0  0  0  0  0  0  0
  130.3810  122.7140   62.0670 C   0  0  0  0  0  0  0  0  0  0  0  0
  131.2640  123.5220   63.0360 C   0  0  0  0  0  0  0  0  0  0  0  0
  132.5580  123.7260   62.6510 N   0  0  0  0  0  0  0  0  0  0  0  0
  133.3740  124.4580   63.4590 C   0  0  0  0  0  0  0  0  0  0  0  0
  134.6870  124.7340   63.1800 O   0  0  0  0  0  0  0  0  0  0  0  0
  132.8510  124.9710   64.6610 C   0  0  0  0  0  0  0  0  0  0  0  0
  133.3750  125.7260   65.6700 N   0  0  0  0  0  0  0  0  0  0  0  0
  132.3740  125.9160   66.6040 N   0  0  0  0  0  0  0  0  0  0  0  0
  131.2530  125.2970   66.1740 N   0  0  0  0  0  0  0  0  0  0  0  0
  130.0390  125.3160   66.9850 C   0  0  0  0  0  0  0  0  0  0  0  0
  129.4210  126.7000   67.1310 C   0  0  0  0  0  0  0  0  0  0  0  0
  130.0150  127.6520   67.9660 C   0  0  0  0  0  0  0  0  0  0  0  0
  129.4550  128.9240   68.0900 C   0  0  0  0  0  0  0  0  0  0  0  0
  128.3020  129.2530   67.3780 C   0  0  0  0  0  0  0  0  0  0  0  0
  127.7100  128.3110   66.5350 C   0  0  0  0  0  0  0  0  0  0  0  0
  126.2980  128.7240   65.6310 Cl  0  0  0  0  0  0  0  0  0  0  0  0
  128.2650  127.0360   66.4160 C   0  0  0  0  0  0  0  0  0  0  0  0
  131.5010  124.6820   64.9580 C   0  0  0  0  0  0  0  0  0  0  0  0
  130.6820  123.9620   64.1870 N   0  0  0  0  0  0  0  0  0  0  0  0
  131.1690  122.1270   60.8550 C   0  0  0  0  0  0  0  0  0  0  0  0
  130.2590  121.4100   59.8260 C   0  0  0  0  0  0  0  0  0  0  0  0
  128.1506  124.8640   59.0379 H   0  0  0  0  0  0  0  0  0  0  0  0
  125.8124  125.1033   58.9775 H   0  0  0  0  0  0  0  0  0  0  0  0
  123.6121  124.1183   58.3489 H   0  0  0  0  0  0  0  0  0  0  0  0
  123.5198  122.2040   56.7598 H   0  0  0  0  0  0  0  0  0  0  0  0
  125.6132  121.2615   55.7994 H   0  0  0  0  0  0  0  0  0  0  0  0
  127.8160  122.2415   56.4237 H   0  0  0  0  0  0  0  0  0  0  0  0
  128.8471  127.0201   58.5381 H   0  0  0  0  0  0  0  0  0  0  0  0
  129.7013  128.6895   56.8952 H   0  0  0  0  0  0  0  0  0  0  0  0
  130.1984  127.9909   54.5588 H   0  0  0  0  0  0  0  0  0  0  0  0
  129.8334  125.6328   53.8445 H   0  0  0  0  0  0  0  0  0  0  0  0
  128.9785  123.9612   55.4813 H   0  0  0  0  0  0  0  0  0  0  0  0
  127.4226  123.2241   60.2022 H   0  0  0  0  0  0  0  0  0  0  0  0
  127.8927  121.6991   60.9848 H   0  0  0  0  0  0  0  0  0  0  0  0
  129.3399  124.4153   61.1882 H   0  0  0  0  0  0  0  0  0  0  0  0
  128.4289  123.5443   62.5021 H   0  0  0  0  0  0  0  0  0  0  0  0
  130.0456  121.8610   62.6751 H   0  0  0  0  0  0  0  0  0  0  0  0
  134.7910  125.4950   62.6050 H   0  0  0  0  0  0  0  0  0  0  0  0
  129.2976  124.6526   66.5157 H   0  0  0  0  0  0  0  0  0  0  0  0
  130.3219  124.9826   67.9944 H   0  0  0  0  0  0  0  0  0  0  0  0
  130.9264  127.3971   68.5267 H   0  0  0  0  0  0  0  0  0  0  0  0
  129.9238  129.6684   68.7504 H   0  0  0  0  0  0  0  0  0  0  0  0
  127.8591  130.2546   67.4807 H   0  0  0  0  0  0  0  0  0  0  0  0
  127.7924  126.2921   65.7578 H   0  0  0  0  0  0  0  0  0  0  0  0
  131.6917  122.9501   60.3459 H   0  0  0  0  0  0  0  0  0  0  0  0
  131.8686  121.3767   61.2519 H   0  0  0  0  0  0  0  0  0  0  0  0
  130.8438  121.1215   58.9401 H   0  0  0  0  0  0  0  0  0  0  0  0
  129.8247  120.4948   60.2546 H   0  0  0  0  0  0  0  0  0  0  0  0
  1  2  2  0
  2  3  1  0
  3  4  1  0
  4  5  2  0
  5  6  1  0
  6  7  2  0
  7  8  1  0
  8  9  2  0
  3 10  1  0
 10 11  2  0
 11 12  1  0
 12 13  2  0
 13 14  1  0
 14 15  2  0
  2 16  1  0
 16 17  1  0
 17 18  1  0
 18 19  1  0
 19 20  1  0
 20 21  2  0
 21 22  1  0
 22 23  1  0
 22 24  2  0
 24 25  1  0
 25 26  2  0
 26 27  1  0
 27 28  1  0
 28 29  1  0
 29 30  2  0
 30 31  1  0
 31 32  2  0
 32 33  1  0
 33 34  1  0
 33 35  2  0
 27 36  1  0
 36 37  2  0
 19 38  1  0
 38 39  1  0
  9  4  1  0
 15 10  1  0
 39 16  1  0
 37 20  1  0
 36 24  1  0
 35 29  1  0
  3 40  1  0
  5 41  1  0
  6 42  1  0
  7 43  1  0
  8 44  1  0
  9 45  1  0
 11 46  1  0
 12 47  1  0
 13 48  1  0
 14 49  1  0
 15 50  1  0
 17 51  1  0
 17 52  1  0
 18 53  1  0
 18 54  1  0
 19 55  1  0
 23 56  1  0
 28 57  1  0
 28 58  1  0
 30 59  1  0
 31 60  1  0
 32 61  1  0
 35 62  1  0
 38 63  1  0
 38 64  1  0
 39 65  1  0
 39 66  1  0
M  END
>  <Binding energies>  (1) 
[-10.93]

>  <Ligand effiencies>  (1) 
[-0.27325]

>  <Interactions>  (1) 
["V-B:TYR:539:C:9835, V-B:TYR:539:CD2:9842, V-B:TYR:539:CE2:9844, V-B:PRO:540:N:9852, V-B:PRO:540:CA:9851, V-B:MET:535:CE:9803, V-B:PRO:540:CB:9853, V-B:GLU:543:CD:9876, V-A:GLU:543:CG:4902, V-A:TYR:531:CZ:4789, H-A:TYR:484:OH:4343, V-B:GLU:543:CG:9875, V-B:TYR:539:CA:9837, V-B:PRO:540:CD:9855, V-B:LEU:363:CD1:8156, H-A:ARG:545:NH2:4923, V-A:GLU:543:CB:4901, V-B:HIS:456:CE1:9037, V-A:HIS:456:CE1:4064, H-A:HIS:456:NE2:4065, V-B:GLU:543:CB:9874, V-A:TYR:531:CE1:4787, V-B:PRO:540:CG:9854, H-B:TYR:539:OH:9846, H-A:GLY:454:N:4045, H-A:ARG:545:NH1:4922, H-A:ARG:545:NE:4919, H-A:ASP:366:OD1:3209, H-A:ASP:366:OD2:3210"]

$$$$
RR27_Rahimova_2017-again1
     RDKit          3D

 66 71  0  0  0  0  0  0  0  0999 V2000
  127.0280  125.7760   60.2390 O   0  0  0  0  0  0  0  0  0  0  0  0
  128.0830  125.6080   59.6190 C   0  0  0  0  0  0  0  0  0  0  0  0
  128.3360  124.2200   58.9590 C   0  0  0  0  0  0  0  0  0  0  0  0
  127.0900  123.6750   58.2340 C   0  0  0  0  0  0  0  0  0  0  0  0
  125.7950  124.1180   58.5430 C   0  0  0  0  0  0  0  0  0  0  0  0
  124.6940  123.6030   57.8640 C   0  0  0  0  0  0  0  0  0  0  0  0
  124.8810  122.6430   56.8740 C   0  0  0  0  0  0  0  0  0  0  0  0
  126.1590  122.1950   56.5550 C   0  0  0  0  0  0  0  0  0  0  0  0
  127.2600  122.7100   57.2330 C   0  0  0  0  0  0  0  0  0  0  0  0
  128.9660  123.2170   59.9440 C   0  0  0  0  0  0  0  0  0  0  0  0
  129.7110  122.1170   59.4930 C   0  0  0  0  0  0  0  0  0  0  0  0
  130.2540  121.2130   60.4030 C   0  0  0  0  0  0  0  0  0  0  0  0
  130.0570  121.4050   61.7670 C   0  0  0  0  0  0  0  0  0  0  0  0
  129.3190  122.4900   62.2300 C   0  0  0  0  0  0  0  0  0  0  0  0
  128.7690  123.3900   61.3210 C   0  0  0  0  0  0  0  0  0  0  0  0
  128.9310  126.6490   59.3730 N   0  0  0  0  0  0  0  0  0  0  0  0
  130.3110  126.4810   58.8960 C   0  0  0  0  0  0  0  0  0  0  0  0
  131.2100  126.2460   60.1320 C   0  0  0  0  0  0  0  0  0  0  0  0
  130.9370  127.1810   61.3570 C   0  0  0  0  0  0  0  0  0  0  0  0
  131.3570  126.5680   62.6970 C   0  0  0  0  0  0  0  0  0  0  0  0
  130.5230  126.5150   63.6870 N   0  0  0  0  0  0  0  0  0  0  0  0
  131.0060  125.9560   64.8320 C   0  0  0  0  0  0  0  0  0  0  0  0
  132.2840  125.4540   65.0250 C   0  0  0  0  0  0  0  0  0  0  0  0
  132.4170  124.9960   66.2580 N   0  0  0  0  0  0  0  0  0  0  0  0
  131.2020  125.1900   66.9080 N   0  0  0  0  0  0  0  0  0  0  0  0
  130.3610  125.7550   66.0240 N   0  0  0  0  0  0  0  0  0  0  0  0
  129.0000  126.1090   66.4070 C   0  0  0  0  0  0  0  0  0  0  0  0
  128.7640  127.6100   66.4770 C   0  0  0  0  0  0  0  0  0  0  0  0
  128.9220  128.2900   67.6900 C   0  0  0  0  0  0  0  0  0  0  0  0
  128.6960  129.6650   67.7590 C   0  0  0  0  0  0  0  0  0  0  0  0
  128.3160  130.3680   66.6160 C   0  0  0  0  0  0  0  0  0  0  0  0
  128.1620  129.6980   65.4030 C   0  0  0  0  0  0  0  0  0  0  0  0
  127.6870  130.5680   63.9910 Cl  0  0  0  0  0  0  0  0  0  0  0  0
  128.3880  128.3230   65.3320 C   0  0  0  0  0  0  0  0  0  0  0  0
  133.2430  125.4970   63.9210 C   0  0  0  0  0  0  0  0  0  0  0  0
  134.4060  125.1010   63.9010 O   0  0  0  0  0  0  0  0  0  0  0  0
  132.6530  126.0740   62.8170 N   0  0  0  0  0  0  0  0  0  0  0  0
  129.5180  127.8290   61.4220 C   0  0  0  0  0  0  0  0  0  0  0  0
  128.7510  127.9250   60.0800 C   0  0  0  0  0  0  0  0  0  0  0  0
  129.0856  124.3716   58.1684 H   0  0  0  0  0  0  0  0  0  0  0  0
  125.6488  124.8765   59.3261 H   0  0  0  0  0  0  0  0  0  0  0  0
  123.6805  123.9535   58.1091 H   0  0  0  0  0  0  0  0  0  0  0  0
  124.0108  122.2348   56.3390 H   0  0  0  0  0  0  0  0  0  0  0  0
  126.2987  121.4370   55.7702 H   0  0  0  0  0  0  0  0  0  0  0  0
  128.2708  122.3567   56.9810 H   0  0  0  0  0  0  0  0  0  0  0  0
  129.8672  121.9676   58.4144 H   0  0  0  0  0  0  0  0  0  0  0  0
  130.8360  120.3510   60.0449 H   0  0  0  0  0  0  0  0  0  0  0  0
  130.4885  120.6927   62.4857 H   0  0  0  0  0  0  0  0  0  0  0  0
  129.1706  122.6362   63.3101 H   0  0  0  0  0  0  0  0  0  0  0  0
  128.1763  124.2419   61.6857 H   0  0  0  0  0  0  0  0  0  0  0  0
  130.3708  125.6159   58.2192 H   0  0  0  0  0  0  0  0  0  0  0  0
  130.6396  127.3743   58.3447 H   0  0  0  0  0  0  0  0  0  0  0  0
  131.0665  125.2064   60.4616 H   0  0  0  0  0  0  0  0  0  0  0  0
  132.2354  126.4724   59.8045 H   0  0  0  0  0  0  0  0  0  0  0  0
  131.6083  128.0304   61.1624 H   0  0  0  0  0  0  0  0  0  0  0  0
  128.3071  125.6811   65.6676 H   0  0  0  0  0  0  0  0  0  0  0  0
  128.8311  125.7060   67.4165 H   0  0  0  0  0  0  0  0  0  0  0  0
  129.2254  127.7385   68.5921 H   0  0  0  0  0  0  0  0  0  0  0  0
  128.8176  130.1948   68.7153 H   0  0  0  0  0  0  0  0  0  0  0  0
  128.1376  131.4520   66.6715 H   0  0  0  0  0  0  0  0  0  0  0  0
  128.2704  127.7971   64.3730 H   0  0  0  0  0  0  0  0  0  0  0  0
  133.2510  126.1440   62.0070 H   0  0  0  0  0  0  0  0  0  0  0  0
  128.9076  127.2326   62.1161 H   0  0  0  0  0  0  0  0  0  0  0  0
  129.6820  128.8680   61.7437 H   0  0  0  0  0  0  0  0  0  0  0  0
  127.6820  128.1006   60.2707 H   0  0  0  0  0  0  0  0  0  0  0  0
  129.1346  128.7595   59.4747 H   0  0  0  0  0  0  0  0  0  0  0  0
  1  2  2  0
  2  3  1  0
  3  4  1  0
  4  5  2  0
  5  6  1  0
  6  7  2  0
  7  8  1  0
  8  9  2  0
  3 10  1  0
 10 11  2  0
 11 12  1  0
 12 13  2  0
 13 14  1  0
 14 15  2  0
  2 16  1  0
 16 17  1  0
 17 18  1  0
 18 19  1  0
 19 20  1  0
 20 21  2  0
 21 22  1  0
 22 23  2  0
 23 24  1  0
 24 25  2  0
 25 26  1  0
 26 27  1  0
 27 28  1  0
 28 29  2  0
 29 30  1  0
 30 31  2  0
 31 32  1  0
 32 33  1  0
 32 34  2  0
 23 35  1  0
 35 36  2  0
 35 37  1  0
 19 38  1  0
 38 39  1  0
  9  4  1  0
 15 10  1  0
 39 16  1  0
 37 20  1  0
 26 22  1  0
 34 28  1  0
  3 40  1  0
  5 41  1  0
  6 42  1  0
  7 43  1  0
  8 44  1  0
  9 45  1  0
 11 46  1  0
 12 47  1  0
 13 48  1  0
 14 49  1  0
 15 50  1  0
 17 51  1  0
 17 52  1  0
 18 53  1  0
 18 54  1  0
 19 55  1  0
 27 56  1  0
 27 57  1  0
 29 58  1  0
 30 59  1  0
 31 60  1  0
 34 61  1  0
 37 62  1  0
 38 63  1  0
 38 64  1  0
 39 65  1  0
 39 66  1  0
M  END
>  <Binding energies>  (1) 
[-10.26]

>  <Ligand effiencies>  (1) 
[-0.2565]

>  <Interactions>  (1) 
["V-B:TYR:539:C:9835, V-B:TYR:539:CD2:9842, V-B:TYR:539:CE2:9844, V-B:PRO:540:N:9852, V-B:ALA:541:CB:9860, V-B:PRO:540:CA:9851, V-B:MET:535:CE:9803, V-B:PRO:540:CB:9853, V-B:GLU:543:CD:9876, V-A:GLU:543:CG:4902, V-A:ASP:366:CG:3208, V-A:GLU:543:CD:4903, H-A:TYR:484:OH:4343, V-B:GLU:543:CG:9875, V-B:TYR:539:CA:9837, V-B:PRO:540:CD:9855, V-B:LEU:363:CD1:8156, H-A:ARG:545:NH2:4923, V-A:GLU:543:CB:4901, V-B:TYR:484:CE1:9312, V-B:HIS:456:CE1:9037, V-B:TYR:484:CZ:9314, H-A:HIS:456:NE2:4065, V-B:GLU:543:CB:9874, V-B:PRO:540:CG:9854, V-A:ARG:545:CZ:4921, H-A:GLY:454:N:4045, H-A:ARG:545:NH1:4922, H-A:ARG:545:NE:4919, H-A:ASP:366:OD1:3209, H-A:ASP:366:OD2:3210"]

$$$$
RR28_Rahimova_2017
     RDKit          3D

 82 85  0  0  0  0  0  0  0  0999 V2000
  127.4740  136.9390   61.4170 C   0  0  0  0  0  0  0  0  0  0  0  0
  127.6760  135.4300   61.4880 C   0  0  0  0  0  0  0  0  0  0  0  0
  128.6240  134.9740   62.1250 O   0  0  0  0  0  0  0  0  0  0  0  0
  126.7750  134.6740   60.8280 N   0  0  0  0  0  0  0  0  0  0  0  0
  126.7230  133.1990   60.7160 C   0  0  0  0  0  0  0  0  0  0  0  0
  128.0320  132.7190   60.0250 C   0  0  0  0  0  0  0  0  0  0  0  0
  128.2230  132.9760   58.6580 C   0  0  0  0  0  0  0  0  0  0  0  0
  129.3780  132.5570   58.0060 C   0  0  0  0  0  0  0  0  0  0  0  0
  130.3710  131.8690   58.7060 C   0  0  0  0  0  0  0  0  0  0  0  0
  131.6310  131.4130   57.9720 C   0  0  0  0  0  0  0  0  0  0  0  0
  132.6250  131.1110   58.8110 F   0  0  0  0  0  0  0  0  0  0  0  0
  131.3720  130.3330   57.2340 F   0  0  0  0  0  0  0  0  0  0  0  0
  132.0480  132.3920   57.1680 F   0  0  0  0  0  0  0  0  0  0  0  0
  130.1920  131.6050   60.0670 C   0  0  0  0  0  0  0  0  0  0  0  0
  129.0360  132.0250   60.7180 C   0  0  0  0  0  0  0  0  0  0  0  0
  125.4140  132.7490   59.9740 C   0  0  0  0  0  0  0  0  0  0  0  0
  124.1210  133.0670   60.7650 C   0  0  0  0  0  0  0  0  0  0  0  0
  124.2400  132.3710   62.0560 N   0  0  0  0  0  0  0  0  0  0  0  0
  123.7150  131.1260   62.2180 C   0  0  0  0  0  0  0  0  0  0  0  0
  122.9860  130.6090   61.3690 O   0  0  0  0  0  0  0  0  0  0  0  0
  123.9020  130.4060   63.5750 C   0  0  0  0  0  0  0  0  0  0  0  0
  124.9250  129.2370   63.5880 C   0  0  0  0  0  0  0  0  0  0  0  0
  126.3920  129.6520   63.8490 C   0  0  0  0  0  0  0  0  0  0  0  0
  127.0640  130.0370   62.8880 O   0  0  0  0  0  0  0  0  0  0  0  0
  126.8590  129.7140   65.1280 N   0  0  0  0  0  0  0  0  0  0  0  0
  126.2450  128.9920   66.2480 C   0  0  0  0  0  0  0  0  0  0  0  0
  126.8530  127.5730   66.2450 C   0  0  0  0  0  0  0  0  0  0  0  0
  128.4190  127.5300   66.3360 C   0  0  0  0  0  0  0  0  0  0  0  0
  128.8920  126.1910   65.9250 N   0  0  0  0  0  0  0  0  0  0  0  0
  130.0050  125.5440   66.3250 C   0  0  0  0  0  0  0  0  0  0  0  0
  130.2440  124.1680   65.7110 C   0  0  0  0  0  0  0  0  0  0  0  0
  130.8130  125.9970   67.1340 O   0  0  0  0  0  0  0  0  0  0  0  0
  128.8060  127.7270   67.8370 C   0  0  0  0  0  0  0  0  0  0  0  0
  129.8860  128.5280   68.2460 C   0  0  0  0  0  0  0  0  0  0  0  0
  130.1970  128.6780   69.5950 C   0  0  0  0  0  0  0  0  0  0  0  0
  129.4390  128.0280   70.5700 C   0  0  0  0  0  0  0  0  0  0  0  0
  129.7650  128.1860   72.0550 C   0  0  0  0  0  0  0  0  0  0  0  0
  130.7790  127.3900   72.4010 F   0  0  0  0  0  0  0  0  0  0  0  0
  130.1160  129.4500   72.2930 F   0  0  0  0  0  0  0  0  0  0  0  0
  128.7240  127.8870   72.8340 F   0  0  0  0  0  0  0  0  0  0  0  0
  128.3680  127.2220   70.1800 C   0  0  0  0  0  0  0  0  0  0  0  0
  128.0590  127.0750   68.8310 C   0  0  0  0  0  0  0  0  0  0  0  0
  129.0190  128.6400   65.3880 C   0  0  0  0  0  0  0  0  0  0  0  0
  128.2770  130.0040   65.3810 C   0  0  0  0  0  0  0  0  0  0  0  0
  125.3300  132.8870   62.8970 C   0  0  0  0  0  0  0  0  0  0  0  0
  126.6580  132.5870   62.1530 C   0  0  0  0  0  0  0  0  0  0  0  0
  127.4190  137.3499   62.4359 H   0  0  0  0  0  0  0  0  0  0  0  0
  128.3188  137.3973   60.8819 H   0  0  0  0  0  0  0  0  0  0  0  0
  126.5384  137.1589   60.8819 H   0  0  0  0  0  0  0  0  0  0  0  0
  126.0500  135.1620   60.3220 H   0  0  0  0  0  0  0  0  0  0  0  0
  127.4481  133.5165   58.0945 H   0  0  0  0  0  0  0  0  0  0  0  0
  129.5096  132.7685   56.9346 H   0  0  0  0  0  0  0  0  0  0  0  0
  130.9687  131.0626   60.6261 H   0  0  0  0  0  0  0  0  0  0  0  0
  128.9075  131.8104   61.7892 H   0  0  0  0  0  0  0  0  0  0  0  0
  125.3666  133.2669   59.0047 H   0  0  0  0  0  0  0  0  0  0  0  0
  125.4645  131.6563   59.8582 H   0  0  0  0  0  0  0  0  0  0  0  0
  124.0302  134.1515   60.9248 H   0  0  0  0  0  0  0  0  0  0  0  0
  123.2270  132.7369   60.2157 H   0  0  0  0  0  0  0  0  0  0  0  0
  124.2352  131.1535   64.3100 H   0  0  0  0  0  0  0  0  0  0  0  0
  122.9277  129.9513   63.8072 H   0  0  0  0  0  0  0  0  0  0  0  0
  124.6253  128.5306   64.3761 H   0  0  0  0  0  0  0  0  0  0  0  0
  124.9049  128.8010   62.5783 H   0  0  0  0  0  0  0  0  0  0  0  0
  126.4718  129.5000   67.1969 H   0  0  0  0  0  0  0  0  0  0  0  0
  125.1506  128.9547   66.1434 H   0  0  0  0  0  0  0  0  0  0  0  0
  126.4446  127.0235   67.1060 H   0  0  0  0  0  0  0  0  0  0  0  0
  126.5857  127.1227   65.2776 H   0  0  0  0  0  0  0  0  0  0  0  0
  128.3190  125.7330   65.2320 H   0  0  0  0  0  0  0  0  0  0  0  0
  130.3729  123.4261   66.5128 H   0  0  0  0  0  0  0  0  0  0  0  0
  129.3808  123.8892   65.0887 H   0  0  0  0  0  0  0  0  0  0  0  0
  131.1506  124.1966   65.0887 H   0  0  0  0  0  0  0  0  0  0  0  0
  130.4948  129.0442   67.4891 H   0  0  0  0  0  0  0  0  0  0  0  0
  131.0447  129.3122   69.8938 H   0  0  0  0  0  0  0  0  0  0  0  0
  127.7670  126.7020   70.9405 H   0  0  0  0  0  0  0  0  0  0  0  0
  127.2132  126.4357   68.5379 H   0  0  0  0  0  0  0  0  0  0  0  0
  130.0576  128.8236   65.7003 H   0  0  0  0  0  0  0  0  0  0  0  0
  128.9190  128.2432   64.3670 H   0  0  0  0  0  0  0  0  0  0  0  0
  128.3937  130.5037   66.3540 H   0  0  0  0  0  0  0  0  0  0  0  0
  128.6870  130.6727   64.6098 H   0  0  0  0  0  0  0  0  0  0  0  0
  125.2146  133.9713   63.0416 H   0  0  0  0  0  0  0  0  0  0  0  0
  125.3195  132.4112   63.8887 H   0  0  0  0  0  0  0  0  0  0  0  0
  127.4887  132.9995   62.7444 H   0  0  0  0  0  0  0  0  0  0  0  0
  126.7254  131.4947   62.0415 H   0  0  0  0  0  0  0  0  0  0  0  0
  1  2  1  0
  2  3  2  0
  2  4  1  0
  4  5  1  0
  5  6  1  0
  6  7  2  0
  7  8  1  0
  8  9  2  0
  9 10  1  0
 10 11  1  0
 10 12  1  0
 10 13  1  0
  9 14  1  0
 14 15  2  0
  5 16  1  0
 16 17  1  0
 17 18  1  0
 18 19  1  0
 19 20  2  0
 19 21  1  0
 21 22  1  0
 22 23  1  0
 23 24  2  0
 23 25  1  0
 25 26  1  0
 26 27  1  0
 27 28  1  0
 28 29  1  0
 29 30  1  0
 30 31  1  0
 30 32  2  0
 28 33  1  0
 33 34  2  0
 34 35  1  0
 35 36  2  0
 36 37  1  0
 37 38  1  0
 37 39  1  0
 37 40  1  0
 36 41  1  0
 41 42  2  0
 28 43  1  0
 43 44  1  0
 18 45  1  0
 45 46  1  0
 46  5  1  0
 15  6  1  0
 44 25  1  0
 42 33  1  0
  1 47  1  0
  1 48  1  0
  1 49  1  0
  4 50  1  0
  7 51  1  0
  8 52  1  0
 14 53  1  0
 15 54  1  0
 16 55  1  0
 16 56  1  0
 17 57  1  0
 17 58  1  0
 21 59  1  0
 21 60  1  0
 22 61  1  0
 22 62  1  0
 26 63  1  0
 26 64  1  0
 27 65  1  0
 27 66  1  0
 29 67  1  0
 31 68  1  0
 31 69  1  0
 31 70  1  0
 34 71  1  0
 35 72  1  0
 41 73  1  0
 42 74  1  0
 43 75  1  0
 43 76  1  0
 44 77  1  0
 44 78  1  0
 45 79  1  0
 45 80  1  0
 46 81  1  0
 46 82  1  0
M  END
>  <Binding energies>  (1) 
[-9.32]

>  <Ligand effiencies>  (1) 
[-0.19416666666666668]

>  <Interactions>  (1) 
["H-B:GLU:543:OE1:9877, H-B:GLU:543:OE2:9878, V-B:GLU:543:CD:9876, V-A:GLU:543:CG:4902, V-A:PRO:540:N:4879, V-A:TYR:531:CZ:4789, V-A:TYR:539:CE2:4871, V-A:PRO:540:CG:4881, V-A:PRO:540:CA:4878, V-A:TYR:539:CE1:4870, H-A:ALA:541:N:4886, V-A:TYR:539:CZ:4872, V-A:PRO:540:CB:4880, V-A:LEU:363:CD1:3184, V-A:TYR:539:C:4862, V-A:PRO:540:CD:4882, V-A:GLU:543:CD:4903, V-B:GLU:543:CG:9875, V-A:TYR:484:CE1:4340, V-A:TYR:539:CD2:4869, V-B:ILE:369:CD1:8206, V-B:LEU:475:CD2:9226, V-B:TRP:381:CH2:8339, V-A:TYR:539:CD1:4868, V-A:ALA:541:CB:4887, V-A:TYR:539:CG:4867, V-B:ARG:545:CZ:9894, V-B:LEU:475:CD1:9225, V-B:ILE:369:CG2:8204, V-A:GLU:543:CB:4901, V-B:HIS:456:CE1:9037, V-A:TYR:484:CZ:4342, V-A:HIS:456:CE1:4064, H-A:HIS:456:NE2:4065, V-B:GLU:543:CB:9874, V-A:LYS:547:CE:4945, V-B:LYS:547:CE:9918, V-A:GLU:543:C:4897, V-A:GLY:544:C:4907, V-B:TRP:381:CZ2:8337, V-B:PRO:482:CB:9293, V-B:TRP:381:CZ3:8338, H-A:TYR:539:O:4863, V-B:TRP:381:CE2:8334, V-B:PRO:482:CG:9294"]

$$$$
RR29_Rahimova_2017
     RDKit          3D

 35 36  0  0  0  0  0  0  0  0999 V2000
  129.7970  124.1950   68.4350 C   0  0  0  0  0  0  0  0  0  0  0  0
  130.1050  125.3410   67.4830 C   0  0  0  0  0  0  0  0  0  0  0  0
  129.3050  126.6240   67.8040 C   0  0  0  0  0  0  0  0  0  0  0  0
  130.0710  127.5470   68.7740 C   0  0  0  0  0  0  0  0  0  0  0  0
  129.2560  127.8850   70.0130 C   0  0  0  0  0  0  0  0  0  0  0  0
  127.9030  127.5000   70.0920 C   0  0  0  0  0  0  0  0  0  0  0  0
  127.1350  127.8010   71.2250 C   0  0  0  0  0  0  0  0  0  0  0  0
  127.7540  128.5000   72.2550 C   0  0  0  0  0  0  0  0  0  0  0  0
  129.0660  128.8770   72.1830 C   0  0  0  0  0  0  0  0  0  0  0  0
  129.8550  128.5830   71.0760 C   0  0  0  0  0  0  0  0  0  0  0  0
  129.4150  129.5090   73.3340 O   0  0  0  0  0  0  0  0  0  0  0  0
  128.2180  129.7030   74.0390 C   0  0  0  0  0  0  0  0  0  0  0  0
  127.2410  128.8830   73.4540 O   0  0  0  0  0  0  0  0  0  0  0  0
  130.9510  125.1460   66.5410 N   0  0  0  0  0  0  0  0  0  0  0  0
  131.1680  126.1540   65.6260 N   0  0  0  0  0  0  0  0  0  0  0  0
  130.6010  126.1990   64.4100 C   0  0  0  0  0  0  0  0  0  0  0  0
  129.7440  125.2950   63.9340 N   0  0  0  0  0  0  0  0  0  0  0  0
  130.9120  127.2180   63.6230 N   0  0  0  0  0  0  0  0  0  0  0  0
  129.8912  124.5455   69.4734 H   0  0  0  0  0  0  0  0  0  0  0  0
  128.7712  123.8385   68.2600 H   0  0  0  0  0  0  0  0  0  0  0  0
  130.5059  123.3723   68.2600 H   0  0  0  0  0  0  0  0  0  0  0  0
  129.1156  127.1695   66.8677 H   0  0  0  0  0  0  0  0  0  0  0  0
  128.3615  126.3280   68.2858 H   0  0  0  0  0  0  0  0  0  0  0  0
  130.9968  127.0417   69.0864 H   0  0  0  0  0  0  0  0  0  0  0  0
  130.2857  128.4874   68.2452 H   0  0  0  0  0  0  0  0  0  0  0  0
  127.4435  126.9561   69.2535 H   0  0  0  0  0  0  0  0  0  0  0  0
  126.0808  127.4953   71.2967 H   0  0  0  0  0  0  0  0  0  0  0  0
  130.9115  128.8863   71.0338 H   0  0  0  0  0  0  0  0  0  0  0  0
  128.3559  129.4267   75.0948 H   0  0  0  0  0  0  0  0  0  0  0  0
  127.9117  130.7586   73.9953 H   0  0  0  0  0  0  0  0  0  0  0  0
  131.8180  126.8780   65.8960 H   0  0  0  0  0  0  0  0  0  0  0  0
  129.1250  125.5330   63.1730 H   0  0  0  0  0  0  0  0  0  0  0  0
  129.7120  124.3740   64.3480 H   0  0  0  0  0  0  0  0  0  0  0  0
  131.7630  127.7380   63.7820 H   0  0  0  0  0  0  0  0  0  0  0  0
  130.3010  127.4690   62.8590 H   0  0  0  0  0  0  0  0  0  0  0  0
  1  2  1  0
  2  3  1  0
  3  4  1  0
  4  5  1  0
  5  6  2  0
  6  7  1  0
  7  8  2  0
  8  9  1  0
  9 10  2  0
  9 11  1  0
 11 12  1  0
 12 13  1  0
  2 14  2  0
 14 15  1  0
 15 16  1  0
 16 17  1  0
 16 18  2  0
 10  5  1  0
 13  8  1  0
  1 19  1  0
  1 20  1  0
  1 21  1  0
  3 22  1  0
  3 23  1  0
  4 24  1  0
  4 25  1  0
  6 26  1  0
  7 27  1  0
 10 28  1  0
 12 29  1  0
 12 30  1  0
 15 31  1  0
 17 32  1  0
 17 33  1  0
 18 34  1  0
 18 35  1  0
M  CHG  1  18   1
M  END
>  <Binding energies>  (1) 
[-7.35]

>  <Ligand effiencies>  (1) 
[-0.31956521739130433]

>  <Interactions>  (1) 
["H-B:GLU:543:OE2:9878, V-B:GLU:543:CD:9876, H-A:GLU:543:OE2:4905, V-A:GLU:543:CD:4903, H-A:TYR:484:OH:4343, V-B:GLU:543:CG:9875, V-A:TYR:484:CE1:4340, V-B:HIS:456:CE1:9037, V-A:TYR:484:CZ:4342, V-B:GLU:543:CA:9872, V-A:HIS:456:CE1:4064, H-A:HIS:456:NE2:4065, V-B:GLU:543:CB:9874, H-B:LYS:547:NZ:9919, H-A:LYS:547:NZ:4946, V-B:HIS:456:CD2:9035, V-B:GLU:543:C:9870, H-A:GLU:543:OE1:4904, V-B:HIS:456:CG:9033, V-B:GLY:544:C:9880"]

$$$$
RR29_Rahimova_2017-again1
     RDKit          3D

 34 35  0  0  0  0  0  0  0  0999 V2000
  129.7130  121.8420   60.0620 C   0  0  0  0  0  0  0  0  0  0  0  0
  128.6760  122.4640   60.9860 C   0  0  0  0  0  0  0  0  0  0  0  0
  129.2570  122.9280   62.3360 C   0  0  0  0  0  0  0  0  0  0  0  0
  129.7580  124.3850   62.2650 C   0  0  0  0  0  0  0  0  0  0  0  0
  131.1090  124.5640   62.9420 C   0  0  0  0  0  0  0  0  0  0  0  0
  132.2940  124.4220   62.1930 C   0  0  0  0  0  0  0  0  0  0  0  0
  133.5490  124.5830   62.7950 C   0  0  0  0  0  0  0  0  0  0  0  0
  133.5780  124.8780   64.1540 C   0  0  0  0  0  0  0  0  0  0  0  0
  132.4310  125.0150   64.8850 C   0  0  0  0  0  0  0  0  0  0  0  0
  131.1730  124.8700   64.3120 C   0  0  0  0  0  0  0  0  0  0  0  0
  132.7520  125.3330   66.1670 O   0  0  0  0  0  0  0  0  0  0  0  0
  134.1430  125.1770   66.2590 C   0  0  0  0  0  0  0  0  0  0  0  0
  134.6520  125.1070   64.9540 O   0  0  0  0  0  0  0  0  0  0  0  0
  127.4520  122.5350   60.5990 N   0  0  0  0  0  0  0  0  0  0  0  0
  126.5970  123.0440   61.4260 N   0  0  0  0  0  0  0  0  0  0  0  0
  125.6720  123.7860   60.9360 C   0  0  0  0  0  0  0  0  0  0  0  0
  125.4570  124.1340   59.5730 N   0  0  0  0  0  0  0  0  0  0  0  0
  124.6930  124.3780   61.7620 N   0  0  0  0  0  0  0  0  0  0  0  0
  130.5028  121.3683   60.6634 H   0  0  0  0  0  0  0  0  0  0  0  0
  129.2309  121.0839   59.4273 H   0  0  0  0  0  0  0  0  0  0  0  0
  130.1548  122.6243   59.4273 H   0  0  0  0  0  0  0  0  0  0  0  0
  128.4743  122.8563   63.1056 H   0  0  0  0  0  0  0  0  0  0  0  0
  130.1112  122.2811   62.5847 H   0  0  0  0  0  0  0  0  0  0  0  0
  129.8503  124.6764   61.2083 H   0  0  0  0  0  0  0  0  0  0  0  0
  129.0299  125.0177   62.7937 H   0  0  0  0  0  0  0  0  0  0  0  0
  132.2331  124.1815   61.1213 H   0  0  0  0  0  0  0  0  0  0  0  0
  134.4774  124.4799   62.2141 H   0  0  0  0  0  0  0  0  0  0  0  0
  130.2582  124.9907   64.9108 H   0  0  0  0  0  0  0  0  0  0  0  0
  134.5822  126.0364   66.7867 H   0  0  0  0  0  0  0  0  0  0  0  0
  134.3918  124.2634   66.8188 H   0  0  0  0  0  0  0  0  0  0  0  0
  126.0640  123.8070   58.8340 H   0  0  0  0  0  0  0  0  0  0  0  0
  124.7000  124.7320   59.2780 H   0  0  0  0  0  0  0  0  0  0  0  0
  124.6860  124.2470   62.7630 H   0  0  0  0  0  0  0  0  0  0  0  0
  123.9600  124.9680   61.3980 H   0  0  0  0  0  0  0  0  0  0  0  0
  1  2  1  0
  2  3  1  0
  3  4  1  0
  4  5  1  0
  5  6  2  0
  6  7  1  0
  7  8  2  0
  8  9  1  0
  9 10  2  0
  9 11  1  0
 11 12  1  0
 12 13  1  0
  2 14  2  0
 14 15  1  0
 15 16  2  0
 16 17  1  0
 16 18  1  0
 10  5  1  0
 13  8  1  0
  1 19  1  0
  1 20  1  0
  1 21  1  0
  3 22  1  0
  3 23  1  0
  4 24  1  0
  4 25  1  0
  6 26  1  0
  7 27  1  0
 10 28  1  0
 12 29  1  0
 12 30  1  0
 17 31  1  0
 17 32  1  0
 18 33  1  0
 18 34  1  0
M  END
>  <Binding energies>  (1) 
[-6.57]

>  <Ligand effiencies>  (1) 
[-0.29863636363636364]

>  <Interactions>  (1) 
["V-B:TYR:539:CD2:9842, V-B:ALA:541:CB:9860, V-B:PRO:540:CA:9851, V-B:PRO:540:CB:9853, H-B:ALA:541:N:9859, H-B:GLU:543:OE1:9877, H-B:ASP:366:OD1:8181, H-B:GLU:543:OE2:9878, V-B:GLU:543:CD:9876, H-B:ASP:366:OD2:8182, H-B:ALA:541:O:9857, V-A:ASP:366:CG:3208, H-A:TYR:484:OH:4343, V-B:ARG:545:CZ:9894, H-A:HIS:456:NE2:4065, V-B:ASN:362:CB:8143, V-A:ARG:545:CZ:4921, H-A:GLY:454:N:4045, V-A:ARG:545:CD:4918, V-A:ARG:545:CG:4917, H-A:ARG:545:NH1:4922, H-A:ARG:545:NE:4919, V-A:HIS:456:CD2:4063"]

$$$$
RR2_Rahimova_2017
     RDKit          3D

 76 80  0  0  0  0  0  0  0  0999 V2000
  129.5840  132.2580   57.1730 C   0  0  0  0  0  0  0  0  0  0  0  0
  130.0360  132.9150   58.3520 O   0  0  0  0  0  0  0  0  0  0  0  0
  129.4130  132.6430   59.5560 C   0  0  0  0  0  0  0  0  0  0  0  0
  129.8880  131.7260   60.5040 C   0  0  0  0  0  0  0  0  0  0  0  0
  129.1900  131.5160   61.6900 C   0  0  0  0  0  0  0  0  0  0  0  0
  128.0020  132.2120   61.9550 C   0  0  0  0  0  0  0  0  0  0  0  0
  127.2570  131.9590   63.2510 C   0  0  0  0  0  0  0  0  0  0  0  0
  127.8770  131.8500   64.3150 O   0  0  0  0  0  0  0  0  0  0  0  0
  125.9120  131.8520   63.1470 N   0  0  0  0  0  0  0  0  0  0  0  0
  125.1890  131.5280   64.2910 N   0  0  0  0  0  0  0  0  0  0  0  0
  123.9920  130.9260   64.1390 C   0  0  0  0  0  0  0  0  0  0  0  0
  123.3990  130.7960   63.0640 O   0  0  0  0  0  0  0  0  0  0  0  0
  123.3720  130.3560   65.4220 C   0  0  0  0  0  0  0  0  0  0  0  0
  124.4730  129.2680   66.3980 S   0  0  0  0  0  0  0  0  0  0  0  0
  125.6340  128.7810   65.1570 C   0  0  0  0  0  0  0  0  0  0  0  0
  125.3300  128.7100   63.8860 N   0  0  0  0  0  0  0  0  0  0  0  0
  126.4470  128.2290   63.2170 N   0  0  0  0  0  0  0  0  0  0  0  0
  127.3960  128.0560   64.1070 C   0  0  0  0  0  0  0  0  0  0  0  0
  128.7640  127.5620   63.7640 C   0  0  0  0  0  0  0  0  0  0  0  0
  129.3820  127.9890   62.5870 C   0  0  0  0  0  0  0  0  0  0  0  0
  130.6520  127.5290   62.2550 C   0  0  0  0  0  0  0  0  0  0  0  0
  131.3250  126.6480   63.1090 C   0  0  0  0  0  0  0  0  0  0  0  0
  132.6030  126.1430   62.8210 N   0  0  0  0  0  0  0  0  0  0  0  0
  133.3130  124.6980   63.5750 S   0  0  0  0  0  0  0  0  0  0  0  0
  132.9850  124.7840   65.0020 O   0  0  0  0  0  0  0  0  0  0  0  0
  134.7080  124.5920   63.1290 O   0  0  0  0  0  0  0  0  0  0  0  0
  132.3830  123.3190   62.9130 C   0  0  0  0  0  0  0  0  0  0  0  0
  131.1780  122.9250   63.5010 C   0  0  0  0  0  0  0  0  0  0  0  0
  130.4780  121.8400   62.9800 C   0  0  0  0  0  0  0  0  0  0  0  0
  130.9780  121.1540   61.8710 C   0  0  0  0  0  0  0  0  0  0  0  0
  130.2200  119.9620   61.3140 C   0  0  0  0  0  0  0  0  0  0  0  0
  132.1840  121.5470   61.2880 C   0  0  0  0  0  0  0  0  0  0  0  0
  132.8860  122.6310   61.8080 C   0  0  0  0  0  0  0  0  0  0  0  0
  130.7090  126.2240   64.2870 C   0  0  0  0  0  0  0  0  0  0  0  0
  129.4350  126.6790   64.6160 C   0  0  0  0  0  0  0  0  0  0  0  0
  126.9410  128.3870   65.3730 N   0  0  0  0  0  0  0  0  0  0  0  0
  127.6290  128.3000   66.6010 C   0  0  0  0  0  0  0  0  0  0  0  0
  127.3140  127.2860   67.5060 C   0  0  0  0  0  0  0  0  0  0  0  0
  127.9990  127.2030   68.7150 C   0  0  0  0  0  0  0  0  0  0  0  0
  128.9970  128.1270   69.0300 C   0  0  0  0  0  0  0  0  0  0  0  0
  129.6200  127.9650   70.2530 O   0  0  0  0  0  0  0  0  0  0  0  0
  130.6480  128.8730   70.6350 C   0  0  0  0  0  0  0  0  0  0  0  0
  129.3070  129.1450   68.1140 C   0  0  0  0  0  0  0  0  0  0  0  0
  128.6260  129.2310   66.9030 C   0  0  0  0  0  0  0  0  0  0  0  0
  127.5360  133.1330   61.0040 C   0  0  0  0  0  0  0  0  0  0  0  0
  128.2370  133.3430   59.8200 C   0  0  0  0  0  0  0  0  0  0  0  0
  128.9807  131.3810   57.4503 H   0  0  0  0  0  0  0  0  0  0  0  0
  128.9711  132.9517   56.5788 H   0  0  0  0  0  0  0  0  0  0  0  0
  130.4510  131.9336   56.5788 H   0  0  0  0  0  0  0  0  0  0  0  0
  130.8168  131.1697   60.3098 H   0  0  0  0  0  0  0  0  0  0  0  0
  129.5747  130.7961   62.4274 H   0  0  0  0  0  0  0  0  0  0  0  0
  125.4740  131.4890   62.3130 H   0  0  0  0  0  0  0  0  0  0  0  0
  125.7680  131.4170   65.1120 H   0  0  0  0  0  0  0  0  0  0  0  0
  123.0736  131.2004   66.0607 H   0  0  0  0  0  0  0  0  0  0  0  0
  122.5266  129.7292   65.1019 H   0  0  0  0  0  0  0  0  0  0  0  0
  128.8623  128.6921   61.9195 H   0  0  0  0  0  0  0  0  0  0  0  0
  131.1281  127.8583   61.3196 H   0  0  0  0  0  0  0  0  0  0  0  0
  133.1480  126.6200   62.1180 H   0  0  0  0  0  0  0  0  0  0  0  0
  130.7842  123.4697   64.3717 H   0  0  0  0  0  0  0  0  0  0  0  0
  129.5313  121.5232   63.4418 H   0  0  0  0  0  0  0  0  0  0  0  0
  129.8328  119.3531   62.1443 H   0  0  0  0  0  0  0  0  0  0  0  0
  129.3811  120.3166   60.6971 H   0  0  0  0  0  0  0  0  0  0  0  0
  130.8969  119.3527   60.6971 H   0  0  0  0  0  0  0  0  0  0  0  0
  132.5792  121.0008   60.4188 H   0  0  0  0  0  0  0  0  0  0  0  0
  133.8351  122.9445   61.3488 H   0  0  0  0  0  0  0  0  0  0  0  0
  131.2321  125.5273   64.9585 H   0  0  0  0  0  0  0  0  0  0  0  0
  128.9555  126.3435   65.5474 H   0  0  0  0  0  0  0  0  0  0  0  0
  126.5278  126.5553   67.2652 H   0  0  0  0  0  0  0  0  0  0  0  0
  127.7519  126.4027   69.4281 H   0  0  0  0  0  0  0  0  0  0  0  0
  130.7042  128.9226   71.7324 H   0  0  0  0  0  0  0  0  0  0  0  0
  131.6116  128.5258   70.2338 H   0  0  0  0  0  0  0  0  0  0  0  0
  130.4224  129.8721   70.2338 H   0  0  0  0  0  0  0  0  0  0  0  0
  130.0914  129.8777   68.3544 H   0  0  0  0  0  0  0  0  0  0  0  0
  128.8718  130.0288   66.1867 H   0  0  0  0  0  0  0  0  0  0  0  0
  126.6092  133.6935   61.1959 H   0  0  0  0  0  0  0  0  0  0  0  0
  127.8590  134.0689   59.0850 H   0  0  0  0  0  0  0  0  0  0  0  0
  1  2  1  0
  2  3  1  0
  3  4  2  0
  4  5  1  0
  5  6  2  0
  6  7  1  0
  7  8  2  0
  7  9  1  0
  9 10  1  0
 10 11  1  0
 11 12  2  0
 11 13  1  0
 13 14  1  0
 14 15  1  0
 15 16  2  0
 16 17  1  0
 17 18  2  0
 18 19  1  0
 19 20  2  0
 20 21  1  0
 21 22  2  0
 22 23  1  0
 23 24  1  0
 24 25  2  0
 24 26  2  0
 24 27  1  0
 27 28  2  0
 28 29  1  0
 29 30  2  0
 30 31  1  0
 30 32  1  0
 32 33  2  0
 22 34  1  0
 34 35  2  0
 18 36  1  0
 36 37  1  0
 37 38  2  0
 38 39  1  0
 39 40  2  0
 40 41  1  0
 41 42  1  0
 40 43  1  0
 43 44  2  0
  6 45  1  0
 45 46  2  0
 46  3  1  0
 36 15  1  0
 44 37  1  0
 35 19  1  0
 33 27  1  0
  1 47  1  0
  1 48  1  0
  1 49  1  0
  4 50  1  0
  5 51  1  0
  9 52  1  0
 10 53  1  0
 13 54  1  0
 13 55  1  0
 20 56  1  0
 21 57  1  0
 23 58  1  0
 28 59  1  0
 29 60  1  0
 31 61  1  0
 31 62  1  0
 31 63  1  0
 32 64  1  0
 33 65  1  0
 34 66  1  0
 35 67  1  0
 38 68  1  0
 39 69  1  0
 42 70  1  0
 42 71  1  0
 42 72  1  0
 43 73  1  0
 44 74  1  0
 45 75  1  0
 46 76  1  0
M  END
>  <Binding energies>  (1) 
[-10.11]

>  <Ligand effiencies>  (1) 
[-0.20632653061224487]

>  <Interactions>  (1) 
["V-A:LEU:475:CD2:4254, V-B:ALA:541:CB:9860, V-B:GLU:543:CD:9876, V-A:GLU:543:CG:4902, V-A:PRO:540:N:4879, V-A:TYR:539:CE2:4871, V-A:PRO:540:CA:4878, V-A:PRO:540:CB:4880, V-A:TYR:539:C:4862, V-A:ASP:366:CG:3208, V-A:GLU:543:CD:4903, H-A:TYR:484:OH:4343, V-B:GLY:454:CA:9016, V-A:TYR:539:CD2:4869, H-B:GLY:454:N:9017, V-B:ARG:545:CZ:9894, V-A:GLU:543:CB:4901, V-B:HIS:456:CE1:9037, V-B:TYR:484:CZ:9314, H-B:TYR:484:OH:9315, V-B:ARG:545:CD:9891, V-A:HIS:456:CE1:4064, V-B:GLU:543:CB:9874, V-A:GLU:543:C:4897, V-A:ILE:369:CD1:3234, V-A:GLY:544:C:4907, H-B:HIS:456:ND1:9034, H-B:ARG:545:NH2:9896, V-B:GLY:453:CA:9011, V-B:GLY:453:C:9009, H-B:ARG:545:NE:9892, V-A:ARG:545:CZ:4921, H-A:GLY:454:N:4045, H-A:ARG:545:NH1:4922, H-A:ASP:366:OD1:3209, H-A:ASP:366:OD2:3210"]

$$$$
RR30_Rahimova_2017
     RDKit          3D

 29 30  0  0  0  0  0  0  0  0999 V2000
  131.9510  130.2390   60.1210 C   0  0  0  0  0  0  0  0  0  0  0  0
  132.2700  131.4550   61.0030 C   0  0  0  0  0  0  0  0  0  0  0  0
  131.0210  132.1060   61.5550 C   0  0  0  0  0  0  0  0  0  0  0  0
  130.6640  132.2410   62.8080 N   0  0  0  0  0  0  0  0  0  0  0  0
  129.4350  132.8970   62.7870 N   0  0  0  0  0  0  0  0  0  0  0  0
  129.1520  133.0940   61.5250 C   0  0  0  0  0  0  0  0  0  0  0  0
  127.7300  133.8930   60.8530 S   0  0  0  0  0  0  0  0  0  0  0  0
  126.9970  132.5040   59.9320 C   0  0  0  0  0  0  0  0  0  0  0  0
  127.7440  132.2160   58.6270 C   0  0  0  0  0  0  0  0  0  0  0  0
  127.3410  131.3150   57.8890 O   0  0  0  0  0  0  0  0  0  0  0  0
  128.8400  132.9720   58.3950 N   0  0  0  0  0  0  0  0  0  0  0  0
  129.6760  132.8940   57.2910 C   0  0  0  0  0  0  0  0  0  0  0  0
  129.7800  133.7380   56.2880 N   0  0  0  0  0  0  0  0  0  0  0  0
  130.7260  133.3340   55.3550 N   0  0  0  0  0  0  0  0  0  0  0  0
  131.3160  132.2030   55.6670 C   0  0  0  0  0  0  0  0  0  0  0  0
  132.3780  131.5590   54.8060 C   0  0  0  0  0  0  0  0  0  0  0  0
  130.7430  131.5300   57.1680 S   0  0  0  0  0  0  0  0  0  0  0  0
  130.1130  132.6230   60.6890 O   0  0  0  0  0  0  0  0  0  0  0  0
  131.7237  129.3725   60.7594 H   0  0  0  0  0  0  0  0  0  0  0  0
  131.0817  130.4646   59.4859 H   0  0  0  0  0  0  0  0  0  0  0  0
  132.8192  130.0088   59.4859 H   0  0  0  0  0  0  0  0  0  0  0  0
  132.8993  131.1272   61.8435 H   0  0  0  0  0  0  0  0  0  0  0  0
  132.7891  132.1972   60.3787 H   0  0  0  0  0  0  0  0  0  0  0  0
  127.0284  131.6042   60.5640 H   0  0  0  0  0  0  0  0  0  0  0  0
  125.9629  132.7776   59.6755 H   0  0  0  0  0  0  0  0  0  0  0  0
  129.0900  133.6610   59.0900 H   0  0  0  0  0  0  0  0  0  0  0  0
  133.1409  131.0964   55.4494 H   0  0  0  0  0  0  0  0  0  0  0  0
  131.9174  130.7880   54.1709 H   0  0  0  0  0  0  0  0  0  0  0  0
  132.8488  132.3239   54.1709 H   0  0  0  0  0  0  0  0  0  0  0  0
  1  2  1  0
  2  3  1  0
  3  4  2  0
  4  5  1  0
  5  6  2  0
  6  7  1  0
  7  8  1  0
  8  9  1  0
  9 10  2  0
  9 11  1  0
 11 12  1  0
 12 13  2  0
 13 14  1  0
 14 15  2  0
 15 16  1  0
 15 17  1  0
  6 18  1  0
 18  3  1  0
 17 12  1  0
  1 19  1  0
  1 20  1  0
  1 21  1  0
  2 22  1  0
  2 23  1  0
  8 24  1  0
  8 25  1  0
 11 26  1  0
 16 27  1  0
 16 28  1  0
 16 29  1  0
M  END
>  <Binding energies>  (1) 
[-6.58]

>  <Ligand effiencies>  (1) 
[-0.3463157894736842]

>  <Interactions>  (1) 
["V-A:PRO:540:N:4879, V-A:TYR:539:CE2:4871, V-A:TYR:531:CE2:4788, V-A:PRO:540:CA:4878, V-A:PRO:540:C:4876, V-A:TYR:539:CE1:4870, H-A:ALA:541:N:4886, V-A:TYR:539:CZ:4872, V-A:PRO:540:CB:4880, V-A:LEU:363:CD1:3184, V-A:TYR:539:C:4862, V-A:PRO:540:CD:4882, V-A:TYR:539:CD2:4869, H-A:TYR:539:N:4865, V-A:TYR:539:CD1:4868, V-A:ALA:541:CB:4887, V-A:TYR:539:CG:4867, H-A:TYR:539:OH:4873, V-A:ILE:538:CD1:4860, H-A:TYR:539:O:4863"]

$$$$
RR31_Rahimova_2017
     RDKit          3D

 44 45  0  0  0  0  0  0  0  0999 V2000
  122.8300  131.4370   59.4620 C   0  0  0  0  0  0  0  0  0  0  0  0
  124.3360  131.3500   59.2530 C   0  0  0  0  0  0  0  0  0  0  0  0
  124.8480  130.3850   58.3850 C   0  0  0  0  0  0  0  0  0  0  0  0
  126.2210  130.2820   58.1700 C   0  0  0  0  0  0  0  0  0  0  0  0
  127.1230  131.1470   58.8110 C   0  0  0  0  0  0  0  0  0  0  0  0
  128.5020  131.0500   58.6140 N   0  0  0  0  0  0  0  0  0  0  0  0
  129.3980  132.2110   58.7720 C   0  0  0  0  0  0  0  0  0  0  0  0
  130.7920  132.0260   58.1270 C   0  0  0  0  0  0  0  0  0  0  0  0
  131.4520  130.8240   58.6430 N   0  0  0  0  0  0  0  0  0  0  0  0
  132.7910  130.6400   58.0760 C   0  0  0  0  0  0  0  0  0  0  0  0
  133.8770  130.4280   59.1500 C   0  0  0  0  0  0  0  0  0  0  0  0
  133.3570  130.7150   60.5680 C   0  0  0  0  0  0  0  0  0  0  0  0
  132.3740  129.6200   60.9970 N   0  0  0  0  0  0  0  0  0  0  0  0
  130.6090  129.6790   58.2980 C   0  0  0  0  0  0  0  0  0  0  0  0
  129.2170  129.8040   58.9580 C   0  0  0  0  0  0  0  0  0  0  0  0
  126.5950  132.1060   59.6880 C   0  0  0  0  0  0  0  0  0  0  0  0
  125.2180  132.2190   59.9130 C   0  0  0  0  0  0  0  0  0  0  0  0
  124.7080  133.2800   60.8800 C   0  0  0  0  0  0  0  0  0  0  0  0
  122.6095  131.4497   60.5396 H   0  0  0  0  0  0  0  0  0  0  0  0
  122.4482  132.3587   58.9987 H   0  0  0  0  0  0  0  0  0  0  0  0
  122.3446  130.5654   58.9987 H   0  0  0  0  0  0  0  0  0  0  0  0
  124.1619  129.6996   57.8659 H   0  0  0  0  0  0  0  0  0  0  0  0
  126.6049  129.5102   57.4867 H   0  0  0  0  0  0  0  0  0  0  0  0
  128.9163  133.0846   58.3086 H   0  0  0  0  0  0  0  0  0  0  0  0
  129.5629  132.3395   59.8519 H   0  0  0  0  0  0  0  0  0  0  0  0
  130.6750  131.9328   57.0372 H   0  0  0  0  0  0  0  0  0  0  0  0
  131.4120  132.9005   58.3737 H   0  0  0  0  0  0  0  0  0  0  0  0
  132.7742  129.7600   57.4162 H   0  0  0  0  0  0  0  0  0  0  0  0
  133.0453  131.5595   57.5284 H   0  0  0  0  0  0  0  0  0  0  0  0
  134.2217  129.3844   59.1038 H   0  0  0  0  0  0  0  0  0  0  0  0
  134.6975  131.1308   58.9431 H   0  0  0  0  0  0  0  0  0  0  0  0
  134.2044  130.7389   61.2689 H   0  0  0  0  0  0  0  0  0  0  0  0
  132.8408  131.6864   60.5738 H   0  0  0  0  0  0  0  0  0  0  0  0
  131.4850  129.7500   60.5330 H   0  0  0  0  0  0  0  0  0  0  0  0
  132.2270  129.6560   61.9960 H   0  0  0  0  0  0  0  0  0  0  0  0
  132.7370  128.7100   60.7540 H   0  0  0  0  0  0  0  0  0  0  0  0
  130.4877  129.6366   57.2055 H   0  0  0  0  0  0  0  0  0  0  0  0
  131.0924  128.7617   58.6653 H   0  0  0  0  0  0  0  0  0  0  0  0
  128.6023  128.9511   58.6344 H   0  0  0  0  0  0  0  0  0  0  0  0
  129.3792  129.8185   60.0459 H   0  0  0  0  0  0  0  0  0  0  0  0
  127.2811  132.7872   60.2127 H   0  0  0  0  0  0  0  0  0  0  0  0
  124.8704  132.9421   61.9141 H   0  0  0  0  0  0  0  0  0  0  0  0
  125.2521  134.2211   60.7120 H   0  0  0  0  0  0  0  0  0  0  0  0
  123.6332  133.4429   60.7120 H   0  0  0  0  0  0  0  0  0  0  0  0
  1  2  1  0
  2  3  2  0
  3  4  1  0
  4  5  2  0
  5  6  1  0
  6  7  1  0
  7  8  1  0
  8  9  1  0
  9 10  1  0
 10 11  1  0
 11 12  1  0
 12 13  1  0
  9 14  1  0
 14 15  1  0
  5 16  1  0
 16 17  2  0
 17 18  1  0
 17  2  1  0
 15  6  1  0
  1 19  1  0
  1 20  1  0
  1 21  1  0
  3 22  1  0
  4 23  1  0
  7 24  1  0
  7 25  1  0
  8 26  1  0
  8 27  1  0
 10 28  1  0
 10 29  1  0
 11 30  1  0
 11 31  1  0
 12 32  1  0
 12 33  1  0
 13 34  1  0
 13 35  1  0
 13 36  1  0
 14 37  1  0
 14 38  1  0
 15 39  1  0
 15 40  1  0
 16 41  1  0
 18 42  1  0
 18 43  1  0
 18 44  1  0
M  CHG  1  13   1
M  END
>  <Binding energies>  (1) 
[-5.83]

>  <Ligand effiencies>  (1) 
[-0.2776190476190476]

>  <Interactions>  (1) 
["V-A:PRO:540:N:4879, V-A:ASN:362:C:3167, V-A:TYR:539:CE2:4871, V-A:TYR:531:CE2:4788, V-A:PRO:540:CA:4878, V-A:TYR:539:CZ:4872, V-A:PRO:540:CB:4880, V-A:LEU:363:CD1:3184, V-A:ASN:362:CB:3171, V-A:LEU:363:CA:3180, H-A:GLU:543:OE2:4905, V-A:ASP:366:CG:3208, V-A:GLU:543:CD:4903, V-B:ILE:369:CD1:8206, V-B:LEU:475:CD2:9226, V-B:ASP:366:CB:8179, V-A:LEU:363:CB:3182, V-B:ASP:366:C:8175, V-B:ASP:366:CA:8177, V-B:ILE:369:CG2:8204, V-B:ILE:369:CB:8203, H-A:GLU:543:OE1:4904, V-B:ILE:369:CG1:8205, H-A:ASP:366:OD2:3210"]

$$$$
RR32_Rahimova_2017
     RDKit          3D

 37 39  0  0  0  0  0  0  0  0999 V2000
  130.8210  132.9700   55.4680 C   0  0  0  0  0  0  0  0  0  0  0  0
  130.5400  132.5670   56.9120 C   0  0  0  0  0  0  0  0  0  0  0  0
  129.3240  132.9500   57.4800 C   0  0  0  0  0  0  0  0  0  0  0  0
  129.0330  132.5970   58.7940 C   0  0  0  0  0  0  0  0  0  0  0  0
  127.8250  132.9790   59.3540 N   0  0  0  0  0  0  0  0  0  0  0  0
  126.8160  131.9250   59.5650 C   0  0  0  0  0  0  0  0  0  0  0  0
  125.4440  132.4770   60.0220 C   0  0  0  0  0  0  0  0  0  0  0  0
  125.5930  133.2370   61.2630 N   0  0  0  0  0  0  0  0  0  0  0  0
  124.2950  133.7300   61.7110 C   0  0  0  0  0  0  0  0  0  0  0  0
  126.4970  134.3550   61.0010 C   0  0  0  0  0  0  0  0  0  0  0  0
  127.8830  133.8320   60.5560 C   0  0  0  0  0  0  0  0  0  0  0  0
  129.8920  131.8860   59.5690 N   0  0  0  0  0  0  0  0  0  0  0  0
  131.0870  131.5010   59.0450 C   0  0  0  0  0  0  0  0  0  0  0  0
  131.9640  130.7620   59.8770 C   0  0  0  0  0  0  0  0  0  0  0  0
  133.1980  130.3420   59.3950 C   0  0  0  0  0  0  0  0  0  0  0  0
  133.5850  130.6400   58.0940 C   0  0  0  0  0  0  0  0  0  0  0  0
  132.7470  131.3640   57.2500 C   0  0  0  0  0  0  0  0  0  0  0  0
  131.4730  131.8160   57.7020 C   0  0  0  0  0  0  0  0  0  0  0  0
  131.4501  133.8722   55.4549 H   0  0  0  0  0  0  0  0  0  0  0  0
  131.3445  132.1505   54.9538 H   0  0  0  0  0  0  0  0  0  0  0  0
  129.8710  133.1779   54.9538 H   0  0  0  0  0  0  0  0  0  0  0  0
  128.5979  133.5292   56.8906 H   0  0  0  0  0  0  0  0  0  0  0  0
  126.6764  131.3804   58.6195 H   0  0  0  0  0  0  0  0  0  0  0  0
  127.1890  131.2713   60.3672 H   0  0  0  0  0  0  0  0  0  0  0  0
  125.0382  133.1350   59.2395 H   0  0  0  0  0  0  0  0  0  0  0  0
  124.7586  131.6347   60.1972 H   0  0  0  0  0  0  0  0  0  0  0  0
  124.2665  133.7408   62.8106 H   0  0  0  0  0  0  0  0  0  0  0  0
  124.1388  134.7501   61.3301 H   0  0  0  0  0  0  0  0  0  0  0  0
  123.5010  133.0708   61.3301 H   0  0  0  0  0  0  0  0  0  0  0  0
  126.0739  134.9847   60.2045 H   0  0  0  0  0  0  0  0  0  0  0  0
  126.6157  134.9428   61.9232 H   0  0  0  0  0  0  0  0  0  0  0  0
  128.5296  134.6955   60.3408 H   0  0  0  0  0  0  0  0  0  0  0  0
  128.2773  133.2139   61.3761 H   0  0  0  0  0  0  0  0  0  0  0  0
  131.6671  130.5198   60.9081 H   0  0  0  0  0  0  0  0  0  0  0  0
  133.8732  129.7696   60.0480 H   0  0  0  0  0  0  0  0  0  0  0  0
  134.5646  130.3000   57.7267 H   0  0  0  0  0  0  0  0  0  0  0  0
  133.0716  131.5895   56.2235 H   0  0  0  0  0  0  0  0  0  0  0  0
  1  2  1  0
  2  3  2  0
  3  4  1  0
  4  5  1  0
  5  6  1  0
  6  7  1  0
  7  8  1  0
  8  9  1  0
  8 10  1  0
 10 11  1  0
  4 12  2  0
 12 13  1  0
 13 14  2  0
 14 15  1  0
 15 16  2  0
 16 17  1  0
 17 18  2  0
 18  2  1  0
 11  5  1  0
 18 13  1  0
  1 19  1  0
  1 20  1  0
  1 21  1  0
  3 22  1  0
  6 23  1  0
  6 24  1  0
  7 25  1  0
  7 26  1  0
  9 27  1  0
  9 28  1  0
  9 29  1  0
 10 30  1  0
 10 31  1  0
 11 32  1  0
 11 33  1  0
 14 34  1  0
 15 35  1  0
 16 36  1  0
 17 37  1  0
M  END
>  <Binding energies>  (1) 
[-6.19]

>  <Ligand effiencies>  (1) 
[-0.3438888888888889]

>  <Interactions>  (1) 
["V-A:PRO:540:N:4879, V-A:TYR:531:CZ:4789, V-A:TYR:539:CE2:4871, V-A:TYR:531:CE2:4788, V-A:PRO:540:CA:4878, V-A:TYR:539:CE1:4870, V-A:TYR:539:CZ:4872, V-A:PRO:540:CB:4880, V-A:LEU:363:CD1:3184, V-A:TYR:539:C:4862, V-A:LEU:363:CA:3180, V-A:PRO:540:CD:4882, V-A:TYR:539:CD2:4869, V-B:ILE:369:CD1:8206, V-B:LEU:475:CD2:9226, V-A:LEU:363:CB:3182, V-A:TYR:539:CD1:4868, V-A:TYR:539:CG:4867, V-A:ILE:538:CG2:4858, V-A:ILE:538:CA:4855"]

$$$$
RR32_Rahimova_2017-again1
     RDKit          3D

 38 40  0  0  0  0  0  0  0  0999 V2000
  133.4950  122.5160   58.5880 C   0  0  0  0  0  0  0  0  0  0  0  0
  132.8240  122.7490   59.9330 C   0  0  0  0  0  0  0  0  0  0  0  0
  133.0440  123.9350   60.6330 C   0  0  0  0  0  0  0  0  0  0  0  0
  132.4220  124.1490   61.8680 C   0  0  0  0  0  0  0  0  0  0  0  0
  132.6360  125.3270   62.5920 N   0  0  0  0  0  0  0  0  0  0  0  0
  131.6480  126.4230   62.5440 C   0  0  0  0  0  0  0  0  0  0  0  0
  130.5170  126.2500   63.5850 C   0  0  0  0  0  0  0  0  0  0  0  0
  131.1430  126.2480   64.9930 N   0  0  0  0  0  0  0  0  0  0  0  0
  130.0600  126.0610   66.0730 C   0  0  0  0  0  0  0  0  0  0  0  0
  132.1890  125.1170   65.0680 C   0  0  0  0  0  0  0  0  0  0  0  0
  133.2310  125.3340   63.9460 C   0  0  0  0  0  0  0  0  0  0  0  0
  131.6160  123.2060   62.4280 N   0  0  0  0  0  0  0  0  0  0  0  0
  131.3800  122.0400   61.7680 C   0  0  0  0  0  0  0  0  0  0  0  0
  130.5240  121.0880   62.3720 C   0  0  0  0  0  0  0  0  0  0  0  0
  130.2530  119.8830   61.7310 C   0  0  0  0  0  0  0  0  0  0  0  0
  130.8190  119.5990   60.4920 C   0  0  0  0  0  0  0  0  0  0  0  0
  131.6660  120.5140   59.8730 C   0  0  0  0  0  0  0  0  0  0  0  0
  131.9660  121.7570   60.4960 C   0  0  0  0  0  0  0  0  0  0  0  0
  134.5231  122.1590   58.7481 H   0  0  0  0  0  0  0  0  0  0  0  0
  132.9290  121.7618   58.0216 H   0  0  0  0  0  0  0  0  0  0  0  0
  133.5182  123.4587   58.0216 H   0  0  0  0  0  0  0  0  0  0  0  0
  133.7085  124.7045   60.2130 H   0  0  0  0  0  0  0  0  0  0  0  0
  132.1660  127.3732   62.7411 H   0  0  0  0  0  0  0  0  0  0  0  0
  131.1865  126.4122   61.5456 H   0  0  0  0  0  0  0  0  0  0  0  0
  129.8025  127.0818   63.4980 H   0  0  0  0  0  0  0  0  0  0  0  0
  129.9844  125.3038   63.4085 H   0  0  0  0  0  0  0  0  0  0  0  0
  131.6140  127.1300   65.1360 H   0  0  0  0  0  0  0  0  0  0  0  0
  130.5186  126.1402   67.0697 H   0  0  0  0  0  0  0  0  0  0  0  0
  129.2913  126.8397   65.9601 H   0  0  0  0  0  0  0  0  0  0  0  0
  129.5970  125.0696   65.9601 H   0  0  0  0  0  0  0  0  0  0  0  0
  132.6890  125.1390   66.0475 H   0  0  0  0  0  0  0  0  0  0  0  0
  131.6974  124.1412   64.9409 H   0  0  0  0  0  0  0  0  0  0  0  0
  133.7222  126.3049   64.1075 H   0  0  0  0  0  0  0  0  0  0  0  0
  133.9444  124.4981   63.9950 H   0  0  0  0  0  0  0  0  0  0  0  0
  130.0714  121.3015   63.3516 H   0  0  0  0  0  0  0  0  0  0  0  0
  129.5862  119.1493   62.2075 H   0  0  0  0  0  0  0  0  0  0  0  0
  130.5951  118.6425   59.9970 H   0  0  0  0  0  0  0  0  0  0  0  0
  132.1068  120.2738   58.8942 H   0  0  0  0  0  0  0  0  0  0  0  0
  1  2  1  0
  2  3  2  0
  3  4  1  0
  4  5  1  0
  5  6  1  0
  6  7  1  0
  7  8  1  0
  8  9  1  0
  8 10  1  0
 10 11  1  0
  4 12  2  0
 12 13  1  0
 13 14  2  0
 14 15  1  0
 15 16  2  0
 16 17  1  0
 17 18  2  0
 18  2  1  0
 11  5  1  0
 18 13  1  0
  1 19  1  0
  1 20  1  0
  1 21  1  0
  3 22  1  0
  6 23  1  0
  6 24  1  0
  7 25  1  0
  7 26  1  0
  8 27  1  0
  9 28  1  0
  9 29  1  0
  9 30  1  0
 10 31  1  0
 10 32  1  0
 11 33  1  0
 11 34  1  0
 14 35  1  0
 15 36  1  0
 16 37  1  0
 17 38  1  0
M  CHG  1   8   1
M  END
>  <Binding energies>  (1) 
[-6.35]

>  <Ligand effiencies>  (1) 
[-0.33421052631578946]

>  <Interactions>  (1) 
["V-B:TYR:539:CD2:9842, V-A:LEU:475:CD2:4254, V-A:TRP:381:CZ2:3365, V-A:LEU:475:CD1:4253, V-B:TYR:539:CE2:9844, V-B:ALA:541:CB:9860, V-A:TRP:381:CH2:3367, H-A:GLU:543:OE2:4905, V-A:ASP:366:CG:3208, V-A:GLU:543:CD:4903, V-B:GLU:543:CG:9875, V-A:ILE:369:CD1:3234, V-A:ILE:369:CG2:3232, H-A:GLU:543:OE1:4904, V-A:ILE:369:CB:3231, V-A:ARG:545:CZ:4921"]

$$$$
RR32_Rahimova_2017-again2
     RDKit          3D

 39 41  0  0  0  0  0  0  0  0999 V2000
  133.4860  122.5440   58.5710 C   0  0  0  0  0  0  0  0  0  0  0  0
  132.8180  122.7890   59.9180 C   0  0  0  0  0  0  0  0  0  0  0  0
  133.0400  123.9880   60.6030 C   0  0  0  0  0  0  0  0  0  0  0  0
  132.4390  124.2300   61.8460 C   0  0  0  0  0  0  0  0  0  0  0  0
  132.6240  125.4530   62.5860 N   0  0  0  0  0  0  0  0  0  0  0  0
  131.6210  126.5480   62.5090 C   0  0  0  0  0  0  0  0  0  0  0  0
  130.4740  126.3150   63.5280 C   0  0  0  0  0  0  0  0  0  0  0  0
  131.0590  126.2550   64.9590 N   0  0  0  0  0  0  0  0  0  0  0  0
  129.9550  125.9670   65.9950 C   0  0  0  0  0  0  0  0  0  0  0  0
  132.1790  125.1900   65.0330 C   0  0  0  0  0  0  0  0  0  0  0  0
  133.2380  125.4850   63.9380 C   0  0  0  0  0  0  0  0  0  0  0  0
  131.6350  123.2740   62.3540 N   0  0  0  0  0  0  0  0  0  0  0  0
  131.3570  122.0680   61.7530 C   0  0  0  0  0  0  0  0  0  0  0  0
  130.4980  121.1340   62.3750 C   0  0  0  0  0  0  0  0  0  0  0  0
  130.2360  119.9250   61.7360 C   0  0  0  0  0  0  0  0  0  0  0  0
  130.8120  119.6360   60.5010 C   0  0  0  0  0  0  0  0  0  0  0  0
  131.6620  120.5490   59.8760 C   0  0  0  0  0  0  0  0  0  0  0  0
  131.9600  121.7980   60.4890 C   0  0  0  0  0  0  0  0  0  0  0  0
  134.5077  122.1693   58.7312 H   0  0  0  0  0  0  0  0  0  0  0  0
  132.9070  121.7997   58.0046 H   0  0  0  0  0  0  0  0  0  0  0  0
  133.5256  123.4861   58.0046 H   0  0  0  0  0  0  0  0  0  0  0  0
  133.6957  124.7521   60.1599 H   0  0  0  0  0  0  0  0  0  0  0  0
  132.1140  127.5055   62.7332 H   0  0  0  0  0  0  0  0  0  0  0  0
  131.1947  126.5659   61.4951 H   0  0  0  0  0  0  0  0  0  0  0  0
  129.7513  127.1416   63.4618 H   0  0  0  0  0  0  0  0  0  0  0  0
  129.9676  125.3657   63.2990 H   0  0  0  0  0  0  0  0  0  0  0  0
  131.4750  127.1540   65.1600 H   0  0  0  0  0  0  0  0  0  0  0  0
  130.3669  126.0745   67.0093 H   0  0  0  0  0  0  0  0  0  0  0  0
  129.1283  126.6795   65.8576 H   0  0  0  0  0  0  0  0  0  0  0  0
  129.5817  124.9414   65.8576 H   0  0  0  0  0  0  0  0  0  0  0  0
  132.6551  125.2252   66.0240 H   0  0  0  0  0  0  0  0  0  0  0  0
  131.7492  124.1904   64.8712 H   0  0  0  0  0  0  0  0  0  0  0  0
  133.6704  126.4810   64.1139 H   0  0  0  0  0  0  0  0  0  0  0  0
  134.0200  124.7130   63.9877 H   0  0  0  0  0  0  0  0  0  0  0  0
  131.1970  123.4630   63.2440 H   0  0  0  0  0  0  0  0  0  0  0  0
  130.0426  121.3591   63.3507 H   0  0  0  0  0  0  0  0  0  0  0  0
  129.5680  119.1913   62.2108 H   0  0  0  0  0  0  0  0  0  0  0  0
  130.5938  118.6751   60.0120 H   0  0  0  0  0  0  0  0  0  0  0  0
  132.1058  120.3010   58.9005 H   0  0  0  0  0  0  0  0  0  0  0  0
  1  2  1  0
  2  3  2  0
  3  4  1  0
  4  5  1  0
  5  6  1  0
  6  7  1  0
  7  8  1  0
  8  9  1  0
  8 10  1  0
 10 11  1  0
  4 12  2  0
 12 13  1  0
 13 14  2  0
 14 15  1  0
 15 16  2  0
 16 17  1  0
 17 18  2  0
 18  2  1  0
 11  5  1  0
 18 13  1  0
  1 19  1  0
  1 20  1  0
  1 21  1  0
  3 22  1  0
  6 23  1  0
  6 24  1  0
  7 25  1  0
  7 26  1  0
  8 27  1  0
  9 28  1  0
  9 29  1  0
  9 30  1  0
 10 31  1  0
 10 32  1  0
 11 33  1  0
 11 34  1  0
 12 35  1  0
 14 36  1  0
 15 37  1  0
 16 38  1  0
 17 39  1  0
M  CHG  2   8   1  12   1
M  END
>  <Binding energies>  (1) 
[-6.69]

>  <Ligand effiencies>  (1) 
[-0.3345]

>  <Interactions>  (1) 
["V-B:TYR:539:CD2:9842, V-A:LEU:475:CD2:4254, V-A:TRP:381:CZ2:3365, V-A:LEU:475:CD1:4253, V-B:TYR:539:CE2:9844, V-B:ALA:541:CB:9860, V-A:TRP:381:CH2:3367, H-A:GLU:543:OE2:4905, V-A:ASP:366:CG:3208, V-A:GLU:543:CD:4903, V-B:GLU:543:CG:9875, V-A:ILE:369:CD1:3234, V-A:ILE:369:CG2:3232, H-A:GLU:543:OE1:4904, V-A:ILE:369:CB:3231, V-A:ARG:545:CZ:4921"]

$$$$
RR33_Rahimova_2017
     RDKit          3D

 36 37  0  0  0  0  0  0  0  0999 V2000
  128.6560  131.4730   73.3810 C   0  0  0  0  0  0  0  0  0  0  0  0
  128.1290  130.2400   74.1210 C   0  0  0  0  0  0  0  0  0  0  0  0
  128.9770  129.1330   73.8270 O   0  0  0  0  0  0  0  0  0  0  0  0
  129.1640  128.7520   72.5120 C   0  0  0  0  0  0  0  0  0  0  0  0
  128.0710  128.1670   71.8730 C   0  0  0  0  0  0  0  0  0  0  0  0
  128.1660  127.7480   70.5490 C   0  0  0  0  0  0  0  0  0  0  0  0
  129.3600  127.9100   69.8410 C   0  0  0  0  0  0  0  0  0  0  0  0
  129.4610  127.4600   68.4190 C   0  0  0  0  0  0  0  0  0  0  0  0
  130.3000  126.5840   67.9120 N   0  0  0  0  0  0  0  0  0  0  0  0
  130.0020  126.5190   66.6240 C   0  0  0  0  0  0  0  0  0  0  0  0
  130.7590  125.5930   65.6960 C   0  0  0  0  0  0  0  0  0  0  0  0
  132.0260  125.1940   66.2900 N   0  0  0  0  0  0  0  0  0  0  0  0
  133.1230  125.4370   65.3680 C   0  0  0  0  0  0  0  0  0  0  0  0
  128.9520  127.3840   66.3440 C   0  0  0  0  0  0  0  0  0  0  0  0
  128.1700  127.7590   65.1080 C   0  0  0  0  0  0  0  0  0  0  0  0
  128.6070  127.9880   67.5040 O   0  0  0  0  0  0  0  0  0  0  0  0
  130.4570  128.5010   70.4760 C   0  0  0  0  0  0  0  0  0  0  0  0
  130.3630  128.9190   71.8020 C   0  0  0  0  0  0  0  0  0  0  0  0
  128.9791  132.2290   74.1118 H   0  0  0  0  0  0  0  0  0  0  0  0
  129.5096  131.1848   72.7498 H   0  0  0  0  0  0  0  0  0  0  0  0
  127.8578  131.8908   72.7498 H   0  0  0  0  0  0  0  0  0  0  0  0
  128.1306  130.4299   75.2045 H   0  0  0  0  0  0  0  0  0  0  0  0
  127.1007  130.0203   73.7979 H   0  0  0  0  0  0  0  0  0  0  0  0
  127.1257  128.0356   72.4200 H   0  0  0  0  0  0  0  0  0  0  0  0
  127.2967  127.2869   70.0574 H   0  0  0  0  0  0  0  0  0  0  0  0
  130.1510  124.6963   65.5055 H   0  0  0  0  0  0  0  0  0  0  0  0
  130.9612  126.1237   64.7539 H   0  0  0  0  0  0  0  0  0  0  0  0
  131.9950  124.2080   66.5090 H   0  0  0  0  0  0  0  0  0  0  0  0
  134.0420  125.6406   65.9371 H   0  0  0  0  0  0  0  0  0  0  0  0
  133.2728  124.5503   64.7345 H   0  0  0  0  0  0  0  0  0  0  0  0
  132.8843  126.3041   64.7345 H   0  0  0  0  0  0  0  0  0  0  0  0
  127.2146  128.2171   65.4035 H   0  0  0  0  0  0  0  0  0  0  0  0
  128.7512  128.4764   64.5100 H   0  0  0  0  0  0  0  0  0  0  0  0
  127.9745  126.8567   64.5100 H   0  0  0  0  0  0  0  0  0  0  0  0
  131.3996  128.6367   69.9255 H   0  0  0  0  0  0  0  0  0  0  0  0
  131.2315  129.3814   72.2939 H   0  0  0  0  0  0  0  0  0  0  0  0
  1  2  1  0
  2  3  1  0
  3  4  1  0
  4  5  2  0
  5  6  1  0
  6  7  2  0
  7  8  1  0
  8  9  2  0
  9 10  1  0
 10 11  1  0
 11 12  1  0
 12 13  1  0
 10 14  2  0
 14 15  1  0
 14 16  1  0
  7 17  1  0
 17 18  2  0
 18  4  1  0
 16  8  1  0
  1 19  1  0
  1 20  1  0
  1 21  1  0
  2 22  1  0
  2 23  1  0
  5 24  1  0
  6 25  1  0
 11 26  1  0
 11 27  1  0
 12 28  1  0
 13 29  1  0
 13 30  1  0
 13 31  1  0
 15 32  1  0
 15 33  1  0
 15 34  1  0
 17 35  1  0
 18 36  1  0
M  END
>  <Binding energies>  (1) 
[-5.29]

>  <Ligand effiencies>  (1) 
[-0.27842105263157896]

>  <Interactions>  (1) 
["V-B:GLU:543:CD:9876, H-A:TYR:484:OH:4343, V-B:HIS:456:CE1:9037, V-A:HIS:456:CE1:4064, H-A:HIS:456:NE2:4065, H-B:LYS:547:NZ:9919, H-A:LYS:547:NZ:4946, V-B:HIS:456:CD2:9035, V-A:GLU:543:C:4897, V-A:GLY:544:C:4907, V-A:ARG:545:CZ:4921, V-A:ARG:545:CD:4918"]

$$$$
RR33_Rahimova_2017-again1
     RDKit          3D

 37 38  0  0  0  0  0  0  0  0999 V2000
  134.9990  124.7500   66.5870 C   0  0  0  0  0  0  0  0  0  0  0  0
  133.8630  125.1490   65.6410 C   0  0  0  0  0  0  0  0  0  0  0  0
  133.9650  124.3760   64.4500 O   0  0  0  0  0  0  0  0  0  0  0  0
  132.8780  124.2920   63.6000 C   0  0  0  0  0  0  0  0  0  0  0  0
  132.4810  123.0090   63.2230 C   0  0  0  0  0  0  0  0  0  0  0  0
  131.3950  122.8240   62.3710 C   0  0  0  0  0  0  0  0  0  0  0  0
  130.6890  123.9270   61.8800 C   0  0  0  0  0  0  0  0  0  0  0  0
  129.5230  123.7320   60.9650 C   0  0  0  0  0  0  0  0  0  0  0  0
  128.2690  124.0630   61.1830 N   0  0  0  0  0  0  0  0  0  0  0  0
  127.6130  123.6960   60.0910 C   0  0  0  0  0  0  0  0  0  0  0  0
  126.1160  123.9060   59.9670 C   0  0  0  0  0  0  0  0  0  0  0  0
  125.5610  124.3780   61.3210 N   0  0  0  0  0  0  0  0  0  0  0  0
  124.8580  123.2700   62.1180 C   0  0  0  0  0  0  0  0  0  0  0  0
  128.5000  123.1190   59.1900 C   0  0  0  0  0  0  0  0  0  0  0  0
  128.3900  122.5130   57.8130 C   0  0  0  0  0  0  0  0  0  0  0  0
  129.7290  123.1480   59.7580 O   0  0  0  0  0  0  0  0  0  0  0  0
  131.0850  125.2150   62.2550 C   0  0  0  0  0  0  0  0  0  0  0  0
  132.1700  125.3990   63.1080 C   0  0  0  0  0  0  0  0  0  0  0  0
  134.6665  124.8668   67.6290 H   0  0  0  0  0  0  0  0  0  0  0  0
  135.2757  123.7009   66.4058 H   0  0  0  0  0  0  0  0  0  0  0  0
  135.8709  125.3957   66.4058 H   0  0  0  0  0  0  0  0  0  0  0  0
  132.8941  124.9564   66.1249 H   0  0  0  0  0  0  0  0  0  0  0  0
  133.9366  126.2196   65.3992 H   0  0  0  0  0  0  0  0  0  0  0  0
  133.0309  122.1351   63.6023 H   0  0  0  0  0  0  0  0  0  0  0  0
  131.0914  121.8067   62.0832 H   0  0  0  0  0  0  0  0  0  0  0  0
  125.9131  124.6678   59.1998 H   0  0  0  0  0  0  0  0  0  0  0  0
  125.6319  122.9619   59.6765 H   0  0  0  0  0  0  0  0  0  0  0  0
  126.3200  124.7490   61.8740 H   0  0  0  0  0  0  0  0  0  0  0  0
  124.9030  125.1280   61.1550 H   0  0  0  0  0  0  0  0  0  0  0  0
  124.9785  123.4600   63.1947 H   0  0  0  0  0  0  0  0  0  0  0  0
  123.7875  123.2593   61.8651 H   0  0  0  0  0  0  0  0  0  0  0  0
  125.3043  122.2969   61.8651 H   0  0  0  0  0  0  0  0  0  0  0  0
  128.1942  121.4342   57.9017 H   0  0  0  0  0  0  0  0  0  0  0  0
  127.5641  122.9918   57.2666 H   0  0  0  0  0  0  0  0  0  0  0  0
  129.3315  122.6710   57.2666 H   0  0  0  0  0  0  0  0  0  0  0  0
  130.5356  126.0883   61.8735 H   0  0  0  0  0  0  0  0  0  0  0  0
  132.4733  126.4160   63.3973 H   0  0  0  0  0  0  0  0  0  0  0  0
  1  2  1  0
  2  3  1  0
  3  4  1  0
  4  5  2  0
  5  6  1  0
  6  7  2  0
  7  8  1  0
  8  9  2  0
  9 10  1  0
 10 11  1  0
 11 12  1  0
 12 13  1  0
 10 14  2  0
 14 15  1  0
 14 16  1  0
  7 17  1  0
 17 18  2  0
 18  4  1  0
 16  8  1  0
  1 19  1  0
  1 20  1  0
  1 21  1  0
  2 22  1  0
  2 23  1  0
  5 24  1  0
  6 25  1  0
 11 26  1  0
 11 27  1  0
 12 28  1  0
 12 29  1  0
 13 30  1  0
 13 31  1  0
 13 32  1  0
 15 33  1  0
 15 34  1  0
 15 35  1  0
 17 36  1  0
 18 37  1  0
M  CHG  1  12   1
M  END
>  <Binding energies>  (1) 
[-5.69]

>  <Ligand effiencies>  (1) 
[-0.28450000000000003]

>  <Interactions>  (1) 
["V-B:TYR:539:C:9835, V-B:TYR:539:CD2:9842, V-B:PRO:540:C:9849, V-B:TYR:539:CE2:9844, V-B:PRO:540:N:9852, V-B:PRO:540:CA:9851, V-B:PRO:540:CB:9853, H-B:GLU:543:OE1:9877, H-B:GLU:543:OE2:9878, V-B:GLU:543:CD:9876, H-B:ASP:366:OD2:8182, H-A:TYR:484:OH:4343, V-B:ASN:362:CB:8143, V-A:ARG:545:CZ:4921, V-A:GLY:453:CA:4039, H-A:GLY:454:N:4045, V-A:GLY:454:CA:4044, V-A:ARG:545:CD:4918, V-A:ARG:545:CG:4917, V-A:GLY:453:C:4037, V-A:ILE:455:C:4047, V-A:HIS:456:CD2:4063, V-B:ALA:541:C:9856"]

$$$$
RR3_Rahimova_2017
     RDKit          3D

 63 69  0  0  0  0  0  0  0  0999 V2000
  128.8980  135.5420   74.5140 C   0  0  0  0  0  0  0  0  0  0  0  0
  128.2680  134.5430   75.2500 C   0  0  0  0  0  0  0  0  0  0  0  0
  128.3680  133.2170   74.8390 C   0  0  0  0  0  0  0  0  0  0  0  0
  129.0980  132.8720   73.6920 C   0  0  0  0  0  0  0  0  0  0  0  0
  129.2060  131.4450   73.2530 C   0  0  0  0  0  0  0  0  0  0  0  0
  130.3750  130.9640   72.6470 C   0  0  0  0  0  0  0  0  0  0  0  0
  130.4740  129.6380   72.2350 C   0  0  0  0  0  0  0  0  0  0  0  0
  129.4000  128.7620   72.4130 C   0  0  0  0  0  0  0  0  0  0  0  0
  129.4970  127.3370   71.9680 C   0  0  0  0  0  0  0  0  0  0  0  0
  129.9820  126.4150   72.7920 N   0  0  0  0  0  0  0  0  0  0  0  0
  129.9060  125.2690   72.1590 C   0  0  0  0  0  0  0  0  0  0  0  0
  130.3330  123.9800   72.6970 C   0  0  0  0  0  0  0  0  0  0  0  0
  131.4520  123.7600   73.4820 C   0  0  0  0  0  0  0  0  0  0  0  0
  131.5420  122.4340   73.8160 N   0  0  0  0  0  0  0  0  0  0  0  0
  130.4900  121.7380   73.2620 C   0  0  0  0  0  0  0  0  0  0  0  0
  130.1600  120.3800   73.3230 C   0  0  0  0  0  0  0  0  0  0  0  0
  129.0120  119.9760   72.6430 C   0  0  0  0  0  0  0  0  0  0  0  0
  128.2250  120.8770   71.9330 C   0  0  0  0  0  0  0  0  0  0  0  0
  128.5530  122.2300   71.8730 C   0  0  0  0  0  0  0  0  0  0  0  0
  129.7020  122.6900   72.5410 C   0  0  0  0  0  0  0  0  0  0  0  0
  129.3770  125.4350   70.9090 N   0  0  0  0  0  0  0  0  0  0  0  0
  129.1190  126.7710   70.7380 C   0  0  0  0  0  0  0  0  0  0  0  0
  128.5880  127.3370   69.4620 C   0  0  0  0  0  0  0  0  0  0  0  0
  129.2730  128.3660   68.8140 C   0  0  0  0  0  0  0  0  0  0  0  0
  128.7750  128.9050   67.6330 C   0  0  0  0  0  0  0  0  0  0  0  0
  127.5830  128.4270   67.0680 C   0  0  0  0  0  0  0  0  0  0  0  0
  127.0400  129.0230   65.8080 C   0  0  0  0  0  0  0  0  0  0  0  0
  127.8190  129.8910   65.0280 C   0  0  0  0  0  0  0  0  0  0  0  0
  127.3140  130.4420   63.8520 C   0  0  0  0  0  0  0  0  0  0  0  0
  126.0220  130.1280   63.4430 C   0  0  0  0  0  0  0  0  0  0  0  0
  125.2330  129.2690   64.2000 C   0  0  0  0  0  0  0  0  0  0  0  0
  125.7390  128.7220   65.3750 C   0  0  0  0  0  0  0  0  0  0  0  0
  126.9140  127.3820   67.7200 C   0  0  0  0  0  0  0  0  0  0  0  0
  127.4090  126.8400   68.9030 C   0  0  0  0  0  0  0  0  0  0  0  0
  128.2360  129.2280   73.0270 C   0  0  0  0  0  0  0  0  0  0  0  0
  128.1400  130.5550   73.4380 C   0  0  0  0  0  0  0  0  0  0  0  0
  129.7240  133.8960   72.9660 C   0  0  0  0  0  0  0  0  0  0  0  0
  129.6270  135.2230   73.3740 C   0  0  0  0  0  0  0  0  0  0  0  0
  128.8187  136.5907   74.8363 H   0  0  0  0  0  0  0  0  0  0  0  0
  127.6937  134.8001   76.1523 H   0  0  0  0  0  0  0  0  0  0  0  0
  127.8679  132.4291   75.4214 H   0  0  0  0  0  0  0  0  0  0  0  0
  131.2261  131.6440   72.4949 H   0  0  0  0  0  0  0  0  0  0  0  0
  131.4022  129.2781   71.7671 H   0  0  0  0  0  0  0  0  0  0  0  0
  132.1657  124.5373   73.7927 H   0  0  0  0  0  0  0  0  0  0  0  0
  132.2890  122.0690   74.3880 H   0  0  0  0  0  0  0  0  0  0  0  0
  130.7787  119.6629   73.8825 H   0  0  0  0  0  0  0  0  0  0  0  0
  128.7205  118.9156   72.6686 H   0  0  0  0  0  0  0  0  0  0  0  0
  127.3278  120.5149   71.4096 H   0  0  0  0  0  0  0  0  0  0  0  0
  127.9199  122.9309   71.3091 H   0  0  0  0  0  0  0  0  0  0  0  0
  129.2300  124.7080   70.2230 H   0  0  0  0  0  0  0  0  0  0  0  0
  130.2110  128.7523   69.2395 H   0  0  0  0  0  0  0  0  0  0  0  0
  129.3234  129.7178   67.1345 H   0  0  0  0  0  0  0  0  0  0  0  0
  128.8413  130.1397   65.3489 H   0  0  0  0  0  0  0  0  0  0  0  0
  127.9342  131.1222   63.2498 H   0  0  0  0  0  0  0  0  0  0  0  0
  125.6220  130.5620   62.5148 H   0  0  0  0  0  0  0  0  0  0  0  0
  124.2126  129.0228   63.8711 H   0  0  0  0  0  0  0  0  0  0  0  0
  125.1112  128.0447   65.9726 H   0  0  0  0  0  0  0  0  0  0  0  0
  125.9831  126.9838   67.2901 H   0  0  0  0  0  0  0  0  0  0  0  0
  126.8703  126.0187   69.3982 H   0  0  0  0  0  0  0  0  0  0  0  0
  127.3901  128.5432   73.1870 H   0  0  0  0  0  0  0  0  0  0  0  0
  127.2141  130.9094   73.9146 H   0  0  0  0  0  0  0  0  0  0  0  0
  130.2993  133.6468   72.0621 H   0  0  0  0  0  0  0  0  0  0  0  0
  130.1250  136.0161   72.7969 H   0  0  0  0  0  0  0  0  0  0  0  0
  1  2  2  0
  2  3  1  0
  3  4  2  0
  4  5  1  0
  5  6  2  0
  6  7  1  0
  7  8  2  0
  8  9  1  0
  9 10  1  0
 10 11  2  0
 11 12  1  0
 12 13  2  0
 13 14  1  0
 14 15  1  0
 15 16  2  0
 16 17  1  0
 17 18  2  0
 18 19  1  0
 19 20  2  0
 11 21  1  0
 21 22  1  0
 22 23  1  0
 23 24  2  0
 24 25  1  0
 25 26  2  0
 26 27  1  0
 27 28  2  0
 28 29  1  0
 29 30  2  0
 30 31  1  0
 31 32  2  0
 26 33  1  0
 33 34  2  0
  8 35  1  0
 35 36  2  0
  4 37  1  0
 37 38  2  0
 38  1  1  0
 36  5  1  0
 22  9  2  0
 34 23  1  0
 20 12  1  0
 32 27  1  0
 20 15  1  0
  1 39  1  0
  2 40  1  0
  3 41  1  0
  6 42  1  0
  7 43  1  0
 13 44  1  0
 14 45  1  0
 16 46  1  0
 17 47  1  0
 18 48  1  0
 19 49  1  0
 21 50  1  0
 24 51  1  0
 25 52  1  0
 28 53  1  0
 29 54  1  0
 30 55  1  0
 31 56  1  0
 32 57  1  0
 33 58  1  0
 34 59  1  0
 35 60  1  0
 36 61  1  0
 37 62  1  0
 38 63  1  0
M  END
>  <Binding energies>  (1) 
[-10.06]

>  <Ligand effiencies>  (1) 
[-0.2515]

>  <Interactions>  (1) 
["V-A:GLU:543:CG:4902, V-B:ARG:545:CZ:9894, V-A:GLU:543:CB:4901, V-B:HIS:456:CE1:9037, V-B:ARG:545:CG:9890, H-B:GLU:543:O:9871, V-A:HIS:456:CE1:4064, V-B:GLU:543:CB:9874, V-A:LYS:547:CE:4945, H-B:LYS:547:NZ:9919, V-A:HIS:456:CG:4061, V-B:HIS:456:CD2:9035, V-A:HIS:456:CB:4060, V-B:ASP:473:CB:9206, V-B:ASP:473:CG:9207, V-A:ASP:473:CG:4235, V-B:TYR:484:CB:9308, V-B:GLU:543:C:9870, V-A:GLU:543:C:4897, V-A:GLY:544:C:4907, V-A:TYR:484:CB:4336, V-A:ASP:473:CB:4234, V-A:GLY:544:CA:4909, V-B:TYR:484:C:9304, V-B:GLY:544:CA:9882, H-A:ASP:473:OD1:4236, H-A:ASP:473:OD2:4237"]

$$$$
RR4_Rahimova_2017
     RDKit          3D

 66 70  0  0  0  0  0  0  0  0999 V2000
  122.2060  130.7000   62.1420 C   0  0  0  0  0  0  0  0  0  0  0  0
  122.6680  130.7830   63.4850 O   0  0  0  0  0  0  0  0  0  0  0  0
  123.8440  130.1460   63.8340 C   0  0  0  0  0  0  0  0  0  0  0  0
  124.1010  130.0090   65.1960 C   0  0  0  0  0  0  0  0  0  0  0  0
  125.2600  129.3800   65.6400 C   0  0  0  0  0  0  0  0  0  0  0  0
  126.2000  128.8700   64.7320 C   0  0  0  0  0  0  0  0  0  0  0  0
  127.4510  128.1930   65.2150 C   0  0  0  0  0  0  0  0  0  0  0  0
  127.8710  128.2380   66.5480 C   0  0  0  0  0  0  0  0  0  0  0  0
  129.0440  127.5860   66.9500 C   0  0  0  0  0  0  0  0  0  0  0  0
  129.4140  127.6540   68.3960 C   0  0  0  0  0  0  0  0  0  0  0  0
  128.9780  126.6610   69.2790 C   0  0  0  0  0  0  0  0  0  0  0  0
  129.3280  126.7110   70.6260 C   0  0  0  0  0  0  0  0  0  0  0  0
  130.1240  127.7470   71.1140 C   0  0  0  0  0  0  0  0  0  0  0  0
  130.4210  127.7130   72.4630 O   0  0  0  0  0  0  0  0  0  0  0  0
  130.6100  126.4550   73.1010 C   0  0  0  0  0  0  0  0  0  0  0  0
  130.5670  128.7420   70.2300 C   0  0  0  0  0  0  0  0  0  0  0  0
  130.2160  128.6910   68.8840 C   0  0  0  0  0  0  0  0  0  0  0  0
  129.8070  126.9060   65.9700 C   0  0  0  0  0  0  0  0  0  0  0  0
  131.0420  126.2060   66.3360 C   0  0  0  0  0  0  0  0  0  0  0  0
  132.0170  125.6540   66.6250 N   0  0  0  0  0  0  0  0  0  0  0  0
  129.3400  126.9260   64.6360 C   0  0  0  0  0  0  0  0  0  0  0  0
  130.1750  126.1370   63.2760 S   0  0  0  0  0  0  0  0  0  0  0  0
  131.2860  127.3680   62.5160 C   0  0  0  0  0  0  0  0  0  0  0  0
  130.6310  128.2360   61.4330 C   0  0  0  0  0  0  0  0  0  0  0  0
  129.4100  128.2060   61.2600 O   0  0  0  0  0  0  0  0  0  0  0  0
  131.4940  128.9880   60.7110 N   0  0  0  0  0  0  0  0  0  0  0  0
  131.2120  129.8740   59.6680 C   0  0  0  0  0  0  0  0  0  0  0  0
  129.6790  130.6880   59.5040 S   0  0  0  0  0  0  0  0  0  0  0  0
  130.1980  131.4940   58.0560 C   0  0  0  0  0  0  0  0  0  0  0  0
  131.5120  131.1390   57.7110 C   0  0  0  0  0  0  0  0  0  0  0  0
  132.0890  130.2340   58.6340 C   0  0  0  0  0  0  0  0  0  0  0  0
  133.4520  129.7240   58.5150 C   0  0  0  0  0  0  0  0  0  0  0  0
  134.5320  129.3200   58.4200 N   0  0  0  0  0  0  0  0  0  0  0  0
  132.2130  131.7480   56.4910 C   0  0  0  0  0  0  0  0  0  0  0  0
  131.4660  133.0100   56.0050 C   0  0  0  0  0  0  0  0  0  0  0  0
  129.9450  132.7920   55.9310 C   0  0  0  0  0  0  0  0  0  0  0  0
  129.3320  132.5080   57.3190 C   0  0  0  0  0  0  0  0  0  0  0  0
  128.1860  127.5370   64.2800 N   0  0  0  0  0  0  0  0  0  0  0  0
  125.9300  129.0090   63.3610 C   0  0  0  0  0  0  0  0  0  0  0  0
  124.7720  129.6380   62.9140 C   0  0  0  0  0  0  0  0  0  0  0  0
  121.1233  130.5055   62.1380 H   0  0  0  0  0  0  0  0  0  0  0  0
  122.4099  131.6492   61.6248 H   0  0  0  0  0  0  0  0  0  0  0  0
  122.7275  129.8812   61.6248 H   0  0  0  0  0  0  0  0  0  0  0  0
  123.3803  130.4021   65.9282 H   0  0  0  0  0  0  0  0  0  0  0  0
  125.4421  129.2810   66.7203 H   0  0  0  0  0  0  0  0  0  0  0  0
  127.2743  128.7909   67.2885 H   0  0  0  0  0  0  0  0  0  0  0  0
  128.3543  125.8348   68.9070 H   0  0  0  0  0  0  0  0  0  0  0  0
  128.9736  125.9266   71.3109 H   0  0  0  0  0  0  0  0  0  0  0  0
  130.5896  126.5907   74.1924 H   0  0  0  0  0  0  0  0  0  0  0  0
  129.8051  125.7676   72.8019 H   0  0  0  0  0  0  0  0  0  0  0  0
  131.5814  126.0344   72.8019 H   0  0  0  0  0  0  0  0  0  0  0  0
  131.1941  129.5657   70.6019 H   0  0  0  0  0  0  0  0  0  0  0  0
  130.5725  129.4733   68.1978 H   0  0  0  0  0  0  0  0  0  0  0  0
  131.6570  128.0323   63.3104 H   0  0  0  0  0  0  0  0  0  0  0  0
  132.0870  126.8009   62.0193 H   0  0  0  0  0  0  0  0  0  0  0  0
  132.4700  128.9180   60.9570 H   0  0  0  0  0  0  0  0  0  0  0  0
  133.2427  132.0211   56.7653 H   0  0  0  0  0  0  0  0  0  0  0  0
  132.2182  131.0057   55.6792 H   0  0  0  0  0  0  0  0  0  0  0  0
  131.6722  133.8347   56.7031 H   0  0  0  0  0  0  0  0  0  0  0  0
  131.8234  133.2449   54.9915 H   0  0  0  0  0  0  0  0  0  0  0  0
  129.4768  133.6960   55.5145 H   0  0  0  0  0  0  0  0  0  0  0  0
  129.7585  131.9161   55.2922 H   0  0  0  0  0  0  0  0  0  0  0  0
  129.2866  133.4420   57.8984 H   0  0  0  0  0  0  0  0  0  0  0  0
  128.3162  132.1041   57.1967 H   0  0  0  0  0  0  0  0  0  0  0  0
  126.6472  128.6133   62.6268 H   0  0  0  0  0  0  0  0  0  0  0  0
  124.5840  129.7370   61.8347 H   0  0  0  0  0  0  0  0  0  0  0  0
  1  2  1  0
  2  3  1  0
  3  4  2  0
  4  5  1  0
  5  6  2  0
  6  7  1  0
  7  8  2  0
  8  9  1  0
  9 10  1  0
 10 11  2  0
 11 12  1  0
 12 13  2  0
 13 14  1  0
 14 15  1  0
 13 16  1  0
 16 17  2  0
  9 18  2  0
 18 19  1  0
 19 20  3  0
 18 21  1  0
 21 22  1  0
 22 23  1  0
 23 24  1  0
 24 25  2  0
 24 26  1  0
 26 27  1  0
 27 28  1  0
 28 29  1  0
 29 30  2  0
 30 31  1  0
 31 32  1  0
 32 33  3  0
 30 34  1  0
 34 35  1  0
 35 36  1  0
 36 37  1  0
 21 38  2  0
  6 39  1  0
 39 40  2  0
 40  3  1  0
 38  7  1  0
 17 10  1  0
 31 27  2  0
 37 29  1  0
  1 41  1  0
  1 42  1  0
  1 43  1  0
  4 44  1  0
  5 45  1  0
  8 46  1  0
 11 47  1  0
 12 48  1  0
 15 49  1  0
 15 50  1  0
 15 51  1  0
 16 52  1  0
 17 53  1  0
 23 54  1  0
 23 55  1  0
 26 56  1  0
 34 57  1  0
 34 58  1  0
 35 59  1  0
 35 60  1  0
 36 61  1  0
 36 62  1  0
 37 63  1  0
 37 64  1  0
 39 65  1  0
 40 66  1  0
M  END
>  <Binding energies>  (1) 
[-10.48]

>  <Ligand effiencies>  (1) 
[-0.255609756097561]

>  <Interactions>  (1) 
["V-B:GLU:543:CD:9876, V-A:PRO:540:N:4879, V-A:TYR:531:CZ:4789, V-A:PRO:540:CG:4881, V-A:TYR:531:CE2:4788, V-A:TYR:539:CE1:4870, V-A:ASP:366:CB:3207, V-A:PRO:540:CB:4880, V-A:LEU:363:CD1:3184, V-A:TYR:539:C:4862, V-A:LEU:363:CA:3180, V-A:PRO:540:CD:4882, H-A:GLU:543:OE2:4905, V-A:ASP:366:CG:3208, V-A:GLU:543:CD:4903, H-A:TYR:484:OH:4343, H-B:ARG:545:NH1:9895, H-B:GLY:454:N:9017, V-B:ILE:369:CD1:8206, V-A:TYR:539:CD1:4868, V-A:ILE:538:CG2:4858, V-B:ARG:545:CZ:9894, V-A:ILE:538:CA:4855, V-A:GLU:543:CB:4901, V-B:HIS:456:CE1:9037, V-B:ARG:545:CD:9891, V-A:HIS:456:CE1:4064, H-A:HIS:456:NE2:4065, V-A:GLU:543:C:4897, V-A:GLY:544:C:4907, V-B:GLY:453:CA:9011, V-B:GLY:453:C:9009, H-A:TYR:531:OH:4790, H-A:ASP:366:OD2:3210, H-A:LEU:363:N:3181"]

$$$$
RR5_Rahimova_2017
     RDKit          3D

 77 82  0  0  0  0  0  0  0  0999 V2000
  132.0840  122.7430   62.3460 O   0  0  0  0  0  0  0  0  0  0  0  0
  131.8650  123.8830   61.9390 C   0  0  0  0  0  0  0  0  0  0  0  0
  132.4470  125.0900   62.6990 C   0  0  0  0  0  0  0  0  0  0  0  0
  131.7730  125.3520   64.0930 C   0  0  2  0  0  0  0  0  0  0  0  0
  131.0100  126.6120   64.1890 N   0  0  0  0  0  0  0  0  0  0  0  0
  130.3510  127.1490   63.0920 C   0  0  0  0  0  0  0  0  0  0  0  0
  130.2750  126.6550   61.9640 O   0  0  0  0  0  0  0  0  0  0  0  0
  129.8100  128.3250   63.4560 O   0  0  0  0  0  0  0  0  0  0  0  0
  128.3980  128.5160   63.4860 C   0  0  0  0  0  0  0  0  0  0  0  0
  127.9640  129.1990   64.8010 C   0  0  0  0  0  0  0  0  0  0  0  0
  126.5000  129.5990   64.8260 C   0  0  0  0  0  0  0  0  0  0  0  0
  125.7930  130.4390   63.9610 C   0  0  0  0  0  0  0  0  0  0  0  0
  124.4280  130.6520   64.1600 C   0  0  0  0  0  0  0  0  0  0  0  0
  123.7690  130.0290   65.2210 C   0  0  0  0  0  0  0  0  0  0  0  0
  124.4730  129.1920   66.0880 C   0  0  0  0  0  0  0  0  0  0  0  0
  125.8380  128.9810   65.8870 C   0  0  0  0  0  0  0  0  0  0  0  0
  126.8130  128.1720   66.6360 C   0  0  0  0  0  0  0  0  0  0  0  0
  126.6670  127.3780   67.7760 C   0  0  0  0  0  0  0  0  0  0  0  0
  127.7780  126.7210   68.3060 C   0  0  0  0  0  0  0  0  0  0  0  0
  129.0280  126.8550   67.6980 C   0  0  0  0  0  0  0  0  0  0  0  0
  129.1690  127.6450   66.5570 C   0  0  0  0  0  0  0  0  0  0  0  0
  128.0590  128.3020   66.0210 C   0  0  0  0  0  0  0  0  0  0  0  0
  132.8220  125.2900   65.2310 C   0  0  0  0  0  0  0  0  0  0  0  0
  133.8930  124.7220   65.1550 O   0  0  0  0  0  0  0  0  0  0  0  0
  132.3650  125.9830   66.3150 O   0  0  0  0  0  0  0  0  0  0  0  0
  131.1590  124.1820   60.8250 N   0  0  0  0  0  0  0  0  0  0  0  0
  130.4410  123.3540   59.8110 C   0  0  0  0  0  0  0  0  0  0  0  0
  131.1970  123.7250   58.4910 C   0  0  0  0  0  0  0  0  0  0  0  0
  130.5020  124.0800   57.3230 C   0  0  0  0  0  0  0  0  0  0  0  0
  131.1850  124.4100   56.1550 C   0  0  0  0  0  0  0  0  0  0  0  0
  132.5750  124.3780   56.1320 C   0  0  0  0  0  0  0  0  0  0  0  0
  133.2880  124.0310   57.2740 C   0  0  0  0  0  0  0  0  0  0  0  0
  132.6050  123.7120   58.4430 C   0  0  0  0  0  0  0  0  0  0  0  0
  130.6320  121.8530   60.2130 C   0  0  0  0  0  0  0  0  0  0  0  0
  131.8070  121.1500   59.9030 C   0  0  0  0  0  0  0  0  0  0  0  0
  131.9480  119.8090   60.2530 C   0  0  0  0  0  0  0  0  0  0  0  0
  130.9150  119.1540   60.9160 C   0  0  0  0  0  0  0  0  0  0  0  0
  129.7430  119.8300   61.2370 C   0  0  0  0  0  0  0  0  0  0  0  0
  129.6080  121.1720   60.8940 C   0  0  0  0  0  0  0  0  0  0  0  0
  128.9550  123.8480   59.8200 C   0  0  0  0  0  0  0  0  0  0  0  0
  128.5720  124.9780   60.5650 C   0  0  0  0  0  0  0  0  0  0  0  0
  127.2510  125.4170   60.5840 C   0  0  0  0  0  0  0  0  0  0  0  0
  126.2870  124.7350   59.8500 C   0  0  0  0  0  0  0  0  0  0  0  0
  126.6370  123.6240   59.0930 C   0  0  0  0  0  0  0  0  0  0  0  0
  127.9590  123.1880   59.0770 C   0  0  0  0  0  0  0  0  0  0  0  0
  133.5202  124.9117   62.8617 H   0  0  0  0  0  0  0  0  0  0  0  0
  132.2545  125.9788   62.0802 H   0  0  0  0  0  0  0  0  0  0  0  0
  131.0357  124.5431   64.2030 H   0  0  0  0  0  0  0  0  0  0  0  0
  131.1150  127.1730   65.0220 H   0  0  0  0  0  0  0  0  0  0  0  0
  128.1017  129.1487   62.6363 H   0  0  0  0  0  0  0  0  0  0  0  0
  127.9082  127.5332   63.4213 H   0  0  0  0  0  0  0  0  0  0  0  0
  128.6541  130.0549   64.8356 H   0  0  0  0  0  0  0  0  0  0  0  0
  126.3114  130.9313   63.1250 H   0  0  0  0  0  0  0  0  0  0  0  0
  123.8705  131.3122   63.4793 H   0  0  0  0  0  0  0  0  0  0  0  0
  122.6929  130.1980   65.3741 H   0  0  0  0  0  0  0  0  0  0  0  0
  123.9549  128.7013   66.9252 H   0  0  0  0  0  0  0  0  0  0  0  0
  125.6817  127.2713   68.2532 H   0  0  0  0  0  0  0  0  0  0  0  0
  127.6690  126.0961   69.2047 H   0  0  0  0  0  0  0  0  0  0  0  0
  129.9023  126.3371   68.1192 H   0  0  0  0  0  0  0  0  0  0  0  0
  130.1543  127.7506   66.0794 H   0  0  0  0  0  0  0  0  0  0  0  0
  132.3320  126.9280   66.1550 H   0  0  0  0  0  0  0  0  0  0  0  0
  130.9950  125.1700   60.6950 H   0  0  0  0  0  0  0  0  0  0  0  0
  129.4022  124.0976   57.3310 H   0  0  0  0  0  0  0  0  0  0  0  0
  130.6257  124.6956   55.2519 H   0  0  0  0  0  0  0  0  0  0  0  0
  133.1130  124.6284   55.2058 H   0  0  0  0  0  0  0  0  0  0  0  0
  134.3876  124.0088   57.2532 H   0  0  0  0  0  0  0  0  0  0  0  0
  133.1741  123.4449   59.3457 H   0  0  0  0  0  0  0  0  0  0  0  0
  132.6256  121.6639   59.3778 H   0  0  0  0  0  0  0  0  0  0  0  0
  132.8740  119.2692   60.0057 H   0  0  0  0  0  0  0  0  0  0  0  0
  131.0262  118.0940   61.1882 H   0  0  0  0  0  0  0  0  0  0  0  0
  128.9277  119.3074   61.7587 H   0  0  0  0  0  0  0  0  0  0  0  0
  128.6852  121.7084   61.1600 H   0  0  0  0  0  0  0  0  0  0  0  0
  129.3307  125.5253   61.1436 H   0  0  0  0  0  0  0  0  0  0  0  0
  126.9710  126.2999   61.1774 H   0  0  0  0  0  0  0  0  0  0  0  0
  125.2417  125.0770   59.8688 H   0  0  0  0  0  0  0  0  0  0  0  0
  125.8726  123.0909   58.5086 H   0  0  0  0  0  0  0  0  0  0  0  0
  128.2302  122.3105   58.4717 H   0  0  0  0  0  0  0  0  0  0  0  0
  1  2  2  0
  2  3  1  0
  3  4  1  0
  4  5  1  0
  5  6  1  0
  6  7  2  0
  6  8  1  0
  8  9  1  0
  9 10  1  0
 10 11  1  0
 11 12  2  0
 12 13  1  0
 13 14  2  0
 14 15  1  0
 15 16  2  0
 16 17  1  0
 17 18  2  0
 18 19  1  0
 19 20  2  0
 20 21  1  0
 21 22  2  0
  4 23  1  0
 23 24  2  0
 23 25  1  0
  2 26  1  0
 26 27  1  0
 27 28  1  0
 28 29  2  0
 29 30  1  0
 30 31  2  0
 31 32  1  0
 32 33  2  0
 27 34  1  0
 34 35  2  0
 35 36  1  0
 36 37  2  0
 37 38  1  0
 38 39  2  0
 27 40  1  0
 40 41  2  0
 41 42  1  0
 42 43  2  0
 43 44  1  0
 44 45  2  0
 22 10  1  0
 33 28  1  0
 39 34  1  0
 45 40  1  0
 16 11  1  0
 22 17  1  0
  3 46  1  0
  3 47  1  0
  4 48  1  1
  5 49  1  0
  9 50  1  0
  9 51  1  0
 10 52  1  0
 12 53  1  0
 13 54  1  0
 14 55  1  0
 15 56  1  0
 18 57  1  0
 19 58  1  0
 20 59  1  0
 21 60  1  0
 25 61  1  0
 26 62  1  0
 29 63  1  0
 30 64  1  0
 31 65  1  0
 32 66  1  0
 33 67  1  0
 35 68  1  0
 36 69  1  0
 37 70  1  0
 38 71  1  0
 39 72  1  0
 41 73  1  0
 42 74  1  0
 43 75  1  0
 44 76  1  0
 45 77  1  0
M  END
>  <Binding energies>  (1) 
[-10.84]

>  <Ligand effiencies>  (1) 
[-0.22583333333333333]

>  <Interactions>  (1) 
["V-B:TYR:539:CD2:9842, V-A:LEU:475:CD2:4254, V-A:TRP:381:CZ2:3365, V-B:TYR:539:CE2:9844, V-B:ALA:541:CB:9860, V-A:TRP:381:CH2:3367, V-B:PRO:540:CA:9851, V-B:PRO:540:CB:9853, V-B:ALA:541:CA:9858, V-A:TYR:531:CZ:4789, V-A:ASP:366:CB:3207, H-A:GLU:543:OE2:4905, V-A:ASP:366:CG:3208, V-A:GLU:543:CD:4903, H-A:TYR:484:OH:4343, V-A:TRP:381:CZ3:3366, V-B:TYR:539:CZ:9845, V-B:ARG:545:CZ:9894, V-B:HIS:456:CE1:9037, V-B:ARG:545:CG:9890, V-B:ARG:545:CD:9891, V-B:GLU:543:CA:9872, H-A:HIS:456:NE2:4065, V-B:GLU:543:CB:9874, V-B:GLU:543:C:9870, H-A:GLU:543:OE1:4904, V-A:TYR:531:CE1:4787, V-A:ASP:366:C:3203, V-A:ARG:545:CZ:4921, H-A:GLY:454:N:4045, H-A:ASP:366:OD2:3210, V-A:ASN:370:CB:3240"]

$$$$
RR5_Rahimova_2017-again1
     RDKit          3D

 76 81  0  0  0  0  0  0  0  0999 V2000
  128.6070  122.1280   58.1160 O   0  0  0  0  0  0  0  0  0  0  0  0
  128.1980  122.9510   58.9350 C   0  0  0  0  0  0  0  0  0  0  0  0
  126.6930  123.2920   58.9560 C   0  0  0  0  0  0  0  0  0  0  0  0
  126.2160  124.4200   57.9830 C   0  0  2  0  0  0  0  0  0  0  0  0
  125.8260  125.6070   58.7720 N   0  0  0  0  0  0  0  0  0  0  0  0
  126.7550  126.3280   59.5150 C   0  0  0  0  0  0  0  0  0  0  0  0
  127.9580  126.0760   59.6290 O   0  0  0  0  0  0  0  0  0  0  0  0
  126.1280  127.3640   60.1030 O   0  0  0  0  0  0  0  0  0  0  0  0
  126.0390  127.4560   61.5200 C   0  0  0  0  0  0  0  0  0  0  0  0
  125.9980  128.9350   61.9530 C   0  0  0  0  0  0  0  0  0  0  0  0
  125.0150  129.7730   61.1540 C   0  0  0  0  0  0  0  0  0  0  0  0
  124.9700  130.0260   59.7810 C   0  0  0  0  0  0  0  0  0  0  0  0
  123.9540  130.8250   59.2530 C   0  0  0  0  0  0  0  0  0  0  0  0
  122.9870  131.3770   60.0950 C   0  0  0  0  0  0  0  0  0  0  0  0
  123.0320  131.1310   61.4680 C   0  0  0  0  0  0  0  0  0  0  0  0
  124.0480  130.3300   61.9940 C   0  0  0  0  0  0  0  0  0  0  0  0
  124.3410  129.9220   63.3760 C   0  0  0  0  0  0  0  0  0  0  0  0
  123.6920  130.2140   64.5780 C   0  0  0  0  0  0  0  0  0  0  0  0
  124.1930  129.7020   65.7760 C   0  0  0  0  0  0  0  0  0  0  0  0
  125.3360  128.9010   65.7710 C   0  0  0  0  0  0  0  0  0  0  0  0
  125.9820  128.6080   64.5680 C   0  0  0  0  0  0  0  0  0  0  0  0
  125.4810  129.1170   63.3670 C   0  0  0  0  0  0  0  0  0  0  0  0
  125.0460  123.9320   57.0370 C   0  0  0  0  0  0  0  0  0  0  0  0
  124.1220  124.7660   56.8850 O   0  0  0  0  0  0  0  0  0  0  0  0
  125.1750  122.7990   56.5150 O   0  0  0  0  0  0  0  0  0  0  0  0
  128.9810  123.4780   59.8990 N   0  0  0  0  0  0  0  0  0  0  0  0
  130.4390  123.3110   60.1300 C   0  0  0  0  0  0  0  0  0  0  0  0
  131.2350  123.7090   58.8470 C   0  0  0  0  0  0  0  0  0  0  0  0
  132.6380  123.6260   58.8130 C   0  0  0  0  0  0  0  0  0  0  0  0
  133.3490  123.9690   57.6660 C   0  0  0  0  0  0  0  0  0  0  0  0
  132.6650  124.3970   56.5330 C   0  0  0  0  0  0  0  0  0  0  0  0
  131.2760  124.4840   56.5390 C   0  0  0  0  0  0  0  0  0  0  0  0
  130.5670  124.1410   57.6870 C   0  0  0  0  0  0  0  0  0  0  0  0
  131.0470  124.2280   61.2400 C   0  0  0  0  0  0  0  0  0  0  0  0
  130.6550  125.5730   61.3590 C   0  0  0  0  0  0  0  0  0  0  0  0
  131.1950  126.3930   62.3450 C   0  0  0  0  0  0  0  0  0  0  0  0
  132.1340  125.8770   63.2320 C   0  0  0  0  0  0  0  0  0  0  0  0
  132.5320  124.5460   63.1420 C   0  0  0  0  0  0  0  0  0  0  0  0
  131.9890  123.7290   62.1550 C   0  0  0  0  0  0  0  0  0  0  0  0
  130.6070  121.7810   60.4310 C   0  0  0  0  0  0  0  0  0  0  0  0
  129.5740  121.0240   61.0110 C   0  0  0  0  0  0  0  0  0  0  0  0
  129.7320  119.6630   61.2550 C   0  0  0  0  0  0  0  0  0  0  0  0
  130.9230  119.0340   60.9090 C   0  0  0  0  0  0  0  0  0  0  0  0
  131.9530  119.7540   60.3120 C   0  0  0  0  0  0  0  0  0  0  0  0
  131.7920  121.1150   60.0710 C   0  0  0  0  0  0  0  0  0  0  0  0
  126.1398  122.3759   58.7014 H   0  0  0  0  0  0  0  0  0  0  0  0
  126.4979  123.6797   59.9668 H   0  0  0  0  0  0  0  0  0  0  0  0
  127.0493  124.6900   57.3176 H   0  0  0  0  0  0  0  0  0  0  0  0
  124.8720  125.9360   58.7140 H   0  0  0  0  0  0  0  0  0  0  0  0
  125.1227  126.9516   61.8606 H   0  0  0  0  0  0  0  0  0  0  0  0
  126.9202  126.9738   61.9683 H   0  0  0  0  0  0  0  0  0  0  0  0
  127.0437  129.2478   61.8165 H   0  0  0  0  0  0  0  0  0  0  0  0
  125.7341  129.5963   59.1165 H   0  0  0  0  0  0  0  0  0  0  0  0
  123.9154  131.0200   58.1711 H   0  0  0  0  0  0  0  0  0  0  0  0
  122.1885  132.0067   59.6757 H   0  0  0  0  0  0  0  0  0  0  0  0
  122.2710  131.5659   62.1326 H   0  0  0  0  0  0  0  0  0  0  0  0
  122.7905  130.8443   64.5804 H   0  0  0  0  0  0  0  0  0  0  0  0
  123.6863  129.9301   66.7253 H   0  0  0  0  0  0  0  0  0  0  0  0
  125.7289  128.4996   66.7168 H   0  0  0  0  0  0  0  0  0  0  0  0
  126.8835  127.9777   64.5659 H   0  0  0  0  0  0  0  0  0  0  0  0
  128.5550  124.1890   60.4750 H   0  0  0  0  0  0  0  0  0  0  0  0
  133.1823  123.2849   59.7060 H   0  0  0  0  0  0  0  0  0  0  0  0
  134.4469  123.9018   57.6559 H   0  0  0  0  0  0  0  0  0  0  0  0
  133.2256  124.6685   55.6263 H   0  0  0  0  0  0  0  0  0  0  0  0
  130.7403  124.8226   55.6399 H   0  0  0  0  0  0  0  0  0  0  0  0
  129.4691  124.2088   57.6869 H   0  0  0  0  0  0  0  0  0  0  0  0
  129.9098  125.9835   60.6617 H   0  0  0  0  0  0  0  0  0  0  0  0
  130.8808  127.4443   62.4226 H   0  0  0  0  0  0  0  0  0  0  0  0
  132.5649  126.5248   64.0096 H   0  0  0  0  0  0  0  0  0  0  0  0
  133.2725  124.1419   63.8480 H   0  0  0  0  0  0  0  0  0  0  0  0
  132.3021  122.6765   62.0903 H   0  0  0  0  0  0  0  0  0  0  0  0
  128.6261  121.5151   61.2761 H   0  0  0  0  0  0  0  0  0  0  0  0
  128.9181  119.0871   61.7197 H   0  0  0  0  0  0  0  0  0  0  0  0
  131.0516  117.9599   61.1087 H   0  0  0  0  0  0  0  0  0  0  0  0
  132.8898  119.2500   60.0320 H   0  0  0  0  0  0  0  0  0  0  0  0
  132.6051  121.6792   59.5909 H   0  0  0  0  0  0  0  0  0  0  0  0
  1  2  2  0
  2  3  1  0
  3  4  1  0
  4  5  1  0
  5  6  1  0
  6  7  2  0
  6  8  1  0
  8  9  1  0
  9 10  1  0
 10 11  1  0
 11 12  2  0
 12 13  1  0
 13 14  2  0
 14 15  1  0
 15 16  2  0
 16 17  1  0
 17 18  2  0
 18 19  1  0
 19 20  2  0
 20 21  1  0
 21 22  2  0
  4 23  1  0
 23 24  2  0
 23 25  1  0
  2 26  1  0
 26 27  1  0
 27 28  1  0
 28 29  2  0
 29 30  1  0
 30 31  2  0
 31 32  1  0
 32 33  2  0
 27 34  1  0
 34 35  2  0
 35 36  1  0
 36 37  2  0
 37 38  1  0
 38 39  2  0
 27 40  1  0
 40 41  2  0
 41 42  1  0
 42 43  2  0
 43 44  1  0
 44 45  2  0
 22 10  1  0
 33 28  1  0
 39 34  1  0
 45 40  1  0
 16 11  1  0
 22 17  1  0
  3 46  1  0
  3 47  1  0
  4 48  1  6
  5 49  1  0
  9 50  1  0
  9 51  1  0
 10 52  1  0
 12 53  1  0
 13 54  1  0
 14 55  1  0
 15 56  1  0
 18 57  1  0
 19 58  1  0
 20 59  1  0
 21 60  1  0
 26 61  1  0
 29 62  1  0
 30 63  1  0
 31 64  1  0
 32 65  1  0
 33 66  1  0
 35 67  1  0
 36 68  1  0
 37 69  1  0
 38 70  1  0
 39 71  1  0
 41 72  1  0
 42 73  1  0
 43 74  1  0
 44 75  1  0
 45 76  1  0
M  CHG  1  25  -1
M  END
>  <Binding energies>  (1) 
[-10.42]

>  <Ligand effiencies>  (1) 
[-0.22170212765957448]

>  <Interactions>  (1) 
["V-B:TYR:539:C:9835, V-B:TYR:539:CD2:9842, V-A:LEU:475:CD2:4254, V-A:TRP:381:CZ2:3365, V-B:TYR:539:CE2:9844, V-B:PRO:540:N:9852, V-B:ALA:541:CB:9860, V-A:TRP:381:CH2:3367, V-B:PRO:540:CA:9851, V-B:MET:535:CE:9803, V-B:PRO:540:CB:9853, H-B:GLU:543:OE2:9878, V-B:ALA:541:CA:9858, H-B:ASP:366:OD2:8182, V-A:TYR:531:CZ:4789, V-A:ASP:366:CB:3207, V-B:ILE:369:CD1:8206, V-B:ASP:366:CG:8180, V-A:TRP:381:CZ3:3366, V-B:LEU:363:CD1:8156, V-B:TYR:539:CZ:9845, V-B:ASP:366:CB:8179, V-B:ARG:545:CZ:9894, V-B:ASP:366:CA:8177, V-B:ILE:369:CG2:8204, V-B:ILE:369:CB:8203, V-B:HIS:456:CE1:9037, V-B:ARG:545:CG:9890, V-B:ARG:545:CD:9891, V-B:GLY:453:CA:9011, V-B:ILE:369:CG1:8205, V-A:TYR:531:CE1:4787, V-A:ASP:366:CA:3205, V-A:ASP:366:C:3203, V-A:ARG:545:CZ:4921, H-B:TYR:531:OH:9763"]

$$$$
RR6_Rahimova_2017
     RDKit          3D

 63 66  0  0  0  0  0  0  0  0999 V2000
  132.1390  132.6400   54.9790 C   0  0  0  0  0  0  0  0  0  0  0  0
  131.6500  133.3250   56.1230 O   0  0  0  0  0  0  0  0  0  0  0  0
  130.4700  132.9750   56.6960 C   0  0  0  0  0  0  0  0  0  0  0  0
  129.3730  133.3780   56.2950 O   0  0  0  0  0  0  0  0  0  0  0  0
  130.6300  132.0460   57.8660 C   0  0  0  0  0  0  0  0  0  0  0  0
  129.8620  132.1810   59.0320 C   0  0  0  0  0  0  0  0  0  0  0  0
  130.0400  131.3080   60.1030 C   0  0  0  0  0  0  0  0  0  0  0  0
  130.9960  130.2840   60.0260 C   0  0  0  0  0  0  0  0  0  0  0  0
  131.2760  129.3680   61.0570 N   0  0  0  0  0  0  0  0  0  0  0  0
  130.8050  128.1150   61.2400 C   0  0  0  0  0  0  0  0  0  0  0  0
  130.0210  127.5310   60.4920 O   0  0  0  0  0  0  0  0  0  0  0  0
  131.2600  127.4190   62.5270 C   0  0  0  0  0  0  0  0  0  0  0  0
  130.0630  126.2000   63.1630 S   0  0  0  0  0  0  0  0  0  0  0  0
  129.1090  127.0250   64.4200 C   0  0  0  0  0  0  0  0  0  0  0  0
  128.0210  127.6840   63.9520 N   0  0  0  0  0  0  0  0  0  0  0  0
  127.2000  128.3280   64.8190 C   0  0  0  0  0  0  0  0  0  0  0  0
  125.9850  128.9800   64.2280 C   0  0  0  0  0  0  0  0  0  0  0  0
  124.9390  129.4370   65.0450 C   0  0  0  0  0  0  0  0  0  0  0  0
  123.8060  130.0300   64.4950 C   0  0  0  0  0  0  0  0  0  0  0  0
  123.7000  130.1830   63.1130 C   0  0  0  0  0  0  0  0  0  0  0  0
  122.4590  130.8220   62.5180 C   0  0  0  0  0  0  0  0  0  0  0  0
  124.7270  129.7390   62.2850 C   0  0  0  0  0  0  0  0  0  0  0  0
  125.8580  129.1470   62.8400 C   0  0  0  0  0  0  0  0  0  0  0  0
  127.4690  128.3300   66.1920 C   0  0  0  0  0  0  0  0  0  0  0  0
  128.5900  127.6600   66.7000 C   0  0  0  0  0  0  0  0  0  0  0  0
  128.8080  127.6870   68.1770 C   0  0  0  0  0  0  0  0  0  0  0  0
  127.9150  127.0330   69.0310 C   0  0  0  0  0  0  0  0  0  0  0  0
  128.1190  127.0400   70.4090 C   0  0  0  0  0  0  0  0  0  0  0  0
  129.2200  127.6960   70.9580 C   0  0  0  0  0  0  0  0  0  0  0  0
  129.3420  127.6490   72.3330 O   0  0  0  0  0  0  0  0  0  0  0  0
  130.6100  127.3460   72.9060 C   0  0  0  0  0  0  0  0  0  0  0  0
  130.1210  128.3500   70.1050 C   0  0  0  0  0  0  0  0  0  0  0  0
  129.9150  128.3400   68.7280 C   0  0  0  0  0  0  0  0  0  0  0  0
  129.4440  126.9890   65.7890 C   0  0  0  0  0  0  0  0  0  0  0  0
  130.6490  126.2930   66.2500 C   0  0  0  0  0  0  0  0  0  0  0  0
  131.5990  125.7420   66.6140 N   0  0  0  0  0  0  0  0  0  0  0  0
  131.7490  130.1370   58.8610 C   0  0  0  0  0  0  0  0  0  0  0  0
  131.5720  131.0120   57.7920 C   0  0  0  0  0  0  0  0  0  0  0  0
  132.7506  131.7832   55.2982 H   0  0  0  0  0  0  0  0  0  0  0  0
  131.2916  132.2813   54.3764 H   0  0  0  0  0  0  0  0  0  0  0  0
  132.7536  133.3249   54.3764 H   0  0  0  0  0  0  0  0  0  0  0  0
  129.1126  132.9832   59.1013 H   0  0  0  0  0  0  0  0  0  0  0  0
  129.4297  131.4218   61.0110 H   0  0  0  0  0  0  0  0  0  0  0  0
  131.8460  129.7420   61.8010 H   0  0  0  0  0  0  0  0  0  0  0  0
  132.2091  126.9010   62.3248 H   0  0  0  0  0  0  0  0  0  0  0  0
  131.3633  128.1994   63.2954 H   0  0  0  0  0  0  0  0  0  0  0  0
  125.0158  129.3248   66.1366 H   0  0  0  0  0  0  0  0  0  0  0  0
  122.9942  130.3780   65.1507 H   0  0  0  0  0  0  0  0  0  0  0  0
  121.7976  131.1626   63.3283 H   0  0  0  0  0  0  0  0  0  0  0  0
  122.7511  131.6818   61.8972 H   0  0  0  0  0  0  0  0  0  0  0  0
  121.9287  130.0848   61.8972 H   0  0  0  0  0  0  0  0  0  0  0  0
  124.6450  129.8557   61.1943 H   0  0  0  0  0  0  0  0  0  0  0  0
  126.6672  128.8037   62.1787 H   0  0  0  0  0  0  0  0  0  0  0  0
  126.7945  128.8623   66.8788 H   0  0  0  0  0  0  0  0  0  0  0  0
  127.0440  126.5085   68.6113 H   0  0  0  0  0  0  0  0  0  0  0  0
  127.4061  126.5241   71.0690 H   0  0  0  0  0  0  0  0  0  0  0  0
  130.5306  127.3650   74.0030 H   0  0  0  0  0  0  0  0  0  0  0  0
  130.9307  126.3459   72.5788 H   0  0  0  0  0  0  0  0  0  0  0  0
  131.3482  128.0930   72.5788 H   0  0  0  0  0  0  0  0  0  0  0  0
  130.9931  128.8724   70.5252 H   0  0  0  0  0  0  0  0  0  0  0  0
  130.6304  128.8510   68.0668 H   0  0  0  0  0  0  0  0  0  0  0  0
  132.4872  129.3249   58.7862 H   0  0  0  0  0  0  0  0  0  0  0  0
  132.1773  130.8900   56.8816 H   0  0  0  0  0  0  0  0  0  0  0  0
  1  2  1  0
  2  3  1  0
  3  4  2  0
  3  5  1  0
  5  6  2  0
  6  7  1  0
  7  8  2  0
  8  9  1  0
  9 10  1  0
 10 11  2  0
 10 12  1  0
 12 13  1  0
 13 14  1  0
 14 15  2  0
 15 16  1  0
 16 17  1  0
 17 18  2  0
 18 19  1  0
 19 20  2  0
 20 21  1  0
 20 22  1  0
 22 23  2  0
 16 24  2  0
 24 25  1  0
 25 26  1  0
 26 27  2  0
 27 28  1  0
 28 29  2  0
 29 30  1  0
 30 31  1  0
 29 32  1  0
 32 33  2  0
 25 34  2  0
 34 35  1  0
 35 36  3  0
  8 37  1  0
 37 38  2  0
 38  5  1  0
 34 14  1  0
 23 17  1  0
 33 26  1  0
  1 39  1  0
  1 40  1  0
  1 41  1  0
  6 42  1  0
  7 43  1  0
  9 44  1  0
 12 45  1  0
 12 46  1  0
 18 47  1  0
 19 48  1  0
 21 49  1  0
 21 50  1  0
 21 51  1  0
 22 52  1  0
 23 53  1  0
 24 54  1  0
 27 55  1  0
 28 56  1  0
 31 57  1  0
 31 58  1  0
 31 59  1  0
 32 60  1  0
 33 61  1  0
 37 62  1  0
 38 63  1  0
M  END
>  <Binding energies>  (1) 
[-9.85]

>  <Ligand effiencies>  (1) 
[-0.25256410256410255]

>  <Interactions>  (1) 
["V-B:GLU:543:CD:9876, V-A:PRO:540:N:4879, V-A:PRO:540:CA:4878, V-A:PRO:540:CB:4880, V-A:LEU:363:CD1:3184, V-A:TYR:539:C:4862, V-A:PRO:540:CD:4882, H-A:GLU:543:OE2:4905, V-A:GLU:543:CD:4903, H-A:TYR:484:OH:4343, V-B:ILE:369:CD1:8206, H-A:TYR:539:N:4865, V-B:ASP:366:CG:8180, V-A:TYR:539:CD1:4868, V-A:ILE:538:CG2:4858, V-B:ARG:545:CZ:9894, V-A:ILE:538:CA:4855, V-A:ILE:538:CB:4857, V-A:GLU:543:CB:4901, V-B:HIS:456:CE1:9037, V-A:HIS:456:CE1:4064, H-A:HIS:456:NE2:4065, V-B:GLU:543:CB:9874, V-A:LYS:547:CE:4945, H-B:LYS:547:NZ:9919, V-B:GLU:543:C:9870, V-B:GLY:453:CA:9011, V-B:GLY:453:C:9009, V-A:ILE:538:CD1:4860, H-A:ASP:366:OD2:3210"]

$$$$
RR7_Rahimova_2017
     RDKit          3D

 80 86  0  0  0  0  0  0  0  0999 V2000
  123.9940  124.4590   57.8530 C   0  0  0  0  0  0  0  0  0  0  0  0
  125.2180  124.7570   57.1870 O   0  0  0  0  0  0  0  0  0  0  0  0
  126.4130  124.4410   57.8030 C   0  0  0  0  0  0  0  0  0  0  0  0
  127.4480  125.3640   57.6670 C   0  0  0  0  0  0  0  0  0  0  0  0
  128.6870  125.1350   58.2570 C   0  0  0  0  0  0  0  0  0  0  0  0
  128.9250  123.9640   58.9910 C   0  0  0  0  0  0  0  0  0  0  0  0
  130.2940  123.6950   59.6910 C   0  0  0  0  0  0  0  0  0  0  0  0
  130.4560  124.7360   60.6810 O   0  0  0  0  0  0  0  0  0  0  0  0
  129.3210  125.2150   61.4100 C   0  0  0  0  0  0  0  0  0  0  0  0
  129.6350  126.6140   61.9630 C   0  0  1  0  0  0  0  0  0  0  0  0
  129.3720  126.5730   63.3630 O   0  0  0  0  0  0  0  0  0  0  0  0
  130.5050  126.8920   64.1180 C   0  0  1  0  0  0  0  0  0  0  0  0
  130.5000  126.1490   65.3640 N   0  0  0  0  0  0  0  0  0  0  0  0
  131.0480  124.9030   65.6160 C   0  0  0  0  0  0  0  0  0  0  0  0
  130.8580  124.4410   66.8260 N   0  0  0  0  0  0  0  0  0  0  0  0
  130.0960  125.4050   67.4290 C   0  0  0  0  0  0  0  0  0  0  0  0
  129.5470  125.5020   68.7220 C   0  0  0  0  0  0  0  0  0  0  0  0
  129.7880  124.4600   69.6380 N   0  0  0  0  0  0  0  0  0  0  0  0
  129.7520  124.4900   70.9910 C   0  0  0  0  0  0  0  0  0  0  0  0
  129.5070  125.4980   71.6570 O   0  0  0  0  0  0  0  0  0  0  0  0
  130.0730  123.1820   71.6830 C   0  0  0  0  0  0  0  0  0  0  0  0
  131.3620  122.9640   72.1930 C   0  0  0  0  0  0  0  0  0  0  0  0
  131.6760  121.7720   72.8380 C   0  0  0  0  0  0  0  0  0  0  0  0
  130.7030  120.7880   72.9830 C   0  0  0  0  0  0  0  0  0  0  0  0
  129.4170  120.9860   72.4890 C   0  0  0  0  0  0  0  0  0  0  0  0
  129.1020  122.1790   71.8420 C   0  0  0  0  0  0  0  0  0  0  0  0
  128.7970  126.5970   69.0490 N   0  0  0  0  0  0  0  0  0  0  0  0
  128.6160  127.5480   68.0960 C   0  0  0  0  0  0  0  0  0  0  0  0
  129.1000  127.5580   66.8250 N   0  0  0  0  0  0  0  0  0  0  0  0
  129.8360  126.4760   66.5360 C   0  0  0  0  0  0  0  0  0  0  0  0
  131.6900  126.6060   63.2040 C   0  0  0  0  0  0  0  0  0  0  0  0
  131.1090  127.0340   61.8670 C   0  0  2  0  0  0  0  0  0  0  0  0
  131.2610  128.4250   61.6410 O   0  0  0  0  0  0  0  0  0  0  0  0
  130.3130  122.3410   60.4500 C   0  0  0  0  0  0  0  0  0  0  0  0
  130.4630  122.3140   61.8460 C   0  0  0  0  0  0  0  0  0  0  0  0
  130.4960  121.1060   62.5340 C   0  0  0  0  0  0  0  0  0  0  0  0
  130.3800  119.9100   61.8340 C   0  0  0  0  0  0  0  0  0  0  0  0
  130.2310  119.9130   60.4500 C   0  0  0  0  0  0  0  0  0  0  0  0
  130.2000  121.1220   59.7610 C   0  0  0  0  0  0  0  0  0  0  0  0
  131.5370  123.6690   58.7580 C   0  0  0  0  0  0  0  0  0  0  0  0
  132.6940  122.9690   59.1350 C   0  0  0  0  0  0  0  0  0  0  0  0
  133.8150  122.9470   58.3120 C   0  0  0  0  0  0  0  0  0  0  0  0
  133.7950  123.6350   57.1020 C   0  0  0  0  0  0  0  0  0  0  0  0
  132.6640  124.3470   56.7140 C   0  0  0  0  0  0  0  0  0  0  0  0
  131.5440  124.3670   57.5390 C   0  0  0  0  0  0  0  0  0  0  0  0
  127.8760  123.0440   59.1370 C   0  0  0  0  0  0  0  0  0  0  0  0
  126.6360  123.2740   58.5470 C   0  0  0  0  0  0  0  0  0  0  0  0
  124.1500  124.4970   58.9412 H   0  0  0  0  0  0  0  0  0  0  0  0
  123.2311  125.1976   57.5659 H   0  0  0  0  0  0  0  0  0  0  0  0
  123.6560  123.4523   57.5659 H   0  0  0  0  0  0  0  0  0  0  0  0
  127.2836  126.2839   57.0867 H   0  0  0  0  0  0  0  0  0  0  0  0
  129.4884  125.8804   58.1466 H   0  0  0  0  0  0  0  0  0  0  0  0
  128.4495  125.2700   60.7410 H   0  0  0  0  0  0  0  0  0  0  0  0
  129.0964  124.5292   62.2402 H   0  0  0  0  0  0  0  0  0  0  0  0
  129.0314  127.3177   61.3710 H   0  0  0  0  0  0  0  0  0  0  0  0
  130.5457  127.9441   64.4365 H   0  0  0  0  0  0  0  0  0  0  0  0
  131.6046  124.3400   64.8523 H   0  0  0  0  0  0  0  0  0  0  0  0
  130.0220  123.5750   69.2120 H   0  0  0  0  0  0  0  0  0  0  0  0
  132.1311  123.7426   72.0818 H   0  0  0  0  0  0  0  0  0  0  0  0
  132.6899  121.6080   73.2319 H   0  0  0  0  0  0  0  0  0  0  0  0
  130.9523  119.8455   73.4924 H   0  0  0  0  0  0  0  0  0  0  0  0
  128.6527  120.2040   72.6089 H   0  0  0  0  0  0  0  0  0  0  0  0
  128.0854  122.3369   71.4527 H   0  0  0  0  0  0  0  0  0  0  0  0
  128.0042  128.4145   68.3874 H   0  0  0  0  0  0  0  0  0  0  0  0
  132.5695  127.2076   63.4772 H   0  0  0  0  0  0  0  0  0  0  0  0
  132.0577  125.5698   63.2364 H   0  0  0  0  0  0  0  0  0  0  0  0
  131.6221  126.5689   61.0124 H   0  0  0  0  0  0  0  0  0  0  0  0
  131.6390  128.8230   62.4300 H   0  0  0  0  0  0  0  0  0  0  0  0
  130.5554  123.2590   62.4015 H   0  0  0  0  0  0  0  0  0  0  0  0
  130.6134  121.0965   63.6277 H   0  0  0  0  0  0  0  0  0  0  0  0
  130.4062  118.9543   62.3781 H   0  0  0  0  0  0  0  0  0  0  0  0
  130.1381  118.9633   59.9028 H   0  0  0  0  0  0  0  0  0  0  0  0
  130.0860  121.1230   58.6669 H   0  0  0  0  0  0  0  0  0  0  0  0
  132.7143  122.4307   60.0941 H   0  0  0  0  0  0  0  0  0  0  0  0
  134.7129  122.3888   58.6157 H   0  0  0  0  0  0  0  0  0  0  0  0
  134.6793  123.6157   56.4480 H   0  0  0  0  0  0  0  0  0  0  0  0
  132.6556  124.8920   55.7585 H   0  0  0  0  0  0  0  0  0  0  0  0
  130.6536  124.9360   57.2332 H   0  0  0  0  0  0  0  0  0  0  0  0
  128.0353  122.1285   59.7256 H   0  0  0  0  0  0  0  0  0  0  0  0
  125.8280  122.5370   58.6652 H   0  0  0  0  0  0  0  0  0  0  0  0
  1  2  1  0
  2  3  1  0
  3  4  2  0
  4  5  1  0
  5  6  2  0
  6  7  1  0
  7  8  1  0
  8  9  1  0
  9 10  1  0
 10 11  1  0
 11 12  1  0
 12 13  1  0
 13 14  1  0
 14 15  2  0
 15 16  1  0
 16 17  2  0
 17 18  1  0
 18 19  1  0
 19 20  2  0
 19 21  1  0
 21 22  2  0
 22 23  1  0
 23 24  2  0
 24 25  1  0
 25 26  2  0
 17 27  1  0
 27 28  2  0
 28 29  1  0
 29 30  2  0
 12 31  1  0
 31 32  1  0
 32 33  1  0
  7 34  1  0
 34 35  2  0
 35 36  1  0
 36 37  2  0
 37 38  1  0
 38 39  2  0
  7 40  1  0
 40 41  2  0
 41 42  1  0
 42 43  2  0
 43 44  1  0
 44 45  2  0
  6 46  1  0
 46 47  2  0
 47  3  1  0
 32 10  1  0
 39 34  1  0
 45 40  1  0
 30 13  1  0
 30 16  1  0
 26 21  1  0
  1 48  1  0
  1 49  1  0
  1 50  1  0
  4 51  1  0
  5 52  1  0
  9 53  1  0
  9 54  1  0
 10 55  1  6
 12 56  1  1
 14 57  1  0
 18 58  1  0
 22 59  1  0
 23 60  1  0
 24 61  1  0
 25 62  1  0
 26 63  1  0
 28 64  1  0
 31 65  1  0
 31 66  1  0
 32 67  1  6
 33 68  1  0
 35 69  1  0
 36 70  1  0
 37 71  1  0
 38 72  1  0
 39 73  1  0
 41 74  1  0
 42 75  1  0
 43 76  1  0
 44 77  1  0
 45 78  1  0
 46 79  1  0
 47 80  1  0
M  END
>  <Binding energies>  (1) 
[-9.93]

>  <Ligand effiencies>  (1) 
[-0.20265306122448978]

>  <Interactions>  (1) 
["V-B:TYR:539:C:9835, V-B:TYR:539:CD2:9842, V-A:LEU:475:CD2:4254, V-A:LEU:475:CD1:4253, V-B:TYR:539:CE2:9844, V-B:PRO:540:N:9852, V-B:ALA:541:CB:9860, V-B:PRO:540:CA:9851, V-B:PRO:540:CB:9853, V-A:TYR:531:CZ:4789, V-A:ASP:366:CB:3207, H-A:GLU:543:OE2:4905, V-A:GLU:543:CD:4903, H-A:TYR:484:OH:4343, V-B:LEU:363:CB:8154, V-B:ASP:366:CG:8180, V-B:LEU:363:CD1:8156, V-B:TYR:539:CZ:9845, V-B:ASP:366:CB:8179, V-B:LEU:363:CA:8152, H-A:ARG:545:NH2:4923, H-B:GLU:543:O:9871, V-A:TYR:484:CZ:4342, V-B:GLU:543:CA:9872, V-A:HIS:456:CE1:4064, H-A:HIS:456:NE2:4065, V-B:GLU:543:CB:9874, H-B:LYS:547:NZ:9919, V-A:HIS:456:CG:4061, V-A:HIS:456:CB:4060, V-A:ASP:473:CG:4235, V-B:GLU:543:C:9870, V-A:ILE:369:CD1:3234, V-A:ILE:369:CG2:3232, H-A:GLU:543:OE1:4904, V-A:ILE:369:CB:3231, V-A:TYR:531:CE1:4787, V-A:ASP:366:CA:3205, V-A:ASP:366:C:3203, V-A:ARG:545:CZ:4921, V-A:TYR:484:CB:4336, V-A:TYR:484:CG:4337, V-A:ASP:473:CB:4234, V-A:TYR:484:CD2:4339, H-B:TYR:531:OH:9763, V-A:HIS:456:CD2:4063, H-A:ASP:366:OD2:3210, V-A:ASN:370:CB:3240, V-A:ILE:369:CG1:3233"]

$$$$
RR8_A_Rahimova_2017
     RDKit          3D

 73 77  0  0  0  0  0  0  0  0999 V2000
  128.2730  127.8640   65.0330 O   0  0  0  0  0  0  0  0  0  0  0  0
  128.5380  128.6490   65.9490 C   0  0  0  0  0  0  0  0  0  0  0  0
  128.8930  129.9590   65.7660 O   0  0  0  0  0  0  0  0  0  0  0  0
  128.2710  130.6590   64.7250 C   0  0  1  0  0  0  0  0  0  0  0  0
  128.5740  132.0240   64.7670 O   0  0  0  0  0  0  0  0  0  0  0  0
  128.7540  132.5670   63.4620 C   0  0  2  0  0  0  0  0  0  0  0  0
  127.7920  133.7560   63.2890 C   0  0  0  0  0  0  0  0  0  0  0  0
  128.2610  134.5740   62.2260 O   0  0  0  0  0  0  0  0  0  0  0  0
  127.3110  134.7700   61.1870 C   0  0  0  0  0  0  0  0  0  0  0  0
  127.2830  133.5510   60.2760 C   0  0  0  0  0  0  0  0  0  0  0  0
  126.2150  132.6540   60.3470 C   0  0  0  0  0  0  0  0  0  0  0  0
  126.1840  131.5400   59.5100 C   0  0  0  0  0  0  0  0  0  0  0  0
  127.2200  131.3290   58.6030 C   0  0  0  0  0  0  0  0  0  0  0  0
  128.2860  132.2220   58.5220 C   0  0  0  0  0  0  0  0  0  0  0  0
  128.3170  133.3360   59.3570 C   0  0  0  0  0  0  0  0  0  0  0  0
  128.5020  131.3730   62.5310 C   0  0  1  0  0  0  0  0  0  0  0  0
  129.3780  131.3450   61.4060 O   0  0  0  0  0  0  0  0  0  0  0  0
  130.6770  131.8850   61.6220 C   0  0  0  0  0  0  0  0  0  0  0  0
  131.6580  131.2940   60.6190 C   0  0  0  0  0  0  0  0  0  0  0  0
  132.9850  131.0710   60.9970 C   0  0  0  0  0  0  0  0  0  0  0  0
  133.8900  130.5390   60.0830 C   0  0  0  0  0  0  0  0  0  0  0  0
  133.4670  130.2340   58.7900 C   0  0  0  0  0  0  0  0  0  0  0  0
  132.1480  130.4600   58.4030 C   0  0  0  0  0  0  0  0  0  0  0  0
  131.2430  130.9930   59.3170 C   0  0  0  0  0  0  0  0  0  0  0  0
  128.8430  130.1760   63.3990 C   0  0  2  0  0  0  0  0  0  0  0  0
  128.2130  128.9990   62.8990 O   0  0  0  0  0  0  0  0  0  0  0  0
  126.9870  129.2020   62.2050 C   0  0  0  0  0  0  0  0  0  0  0  0
  125.8990  129.6100   63.1860 C   0  0  0  0  0  0  0  0  0  0  0  0
  125.6470  128.8330   64.3220 C   0  0  0  0  0  0  0  0  0  0  0  0
  124.6560  129.2160   65.2220 C   0  0  0  0  0  0  0  0  0  0  0  0
  123.9220  130.3760   64.9870 C   0  0  0  0  0  0  0  0  0  0  0  0
  124.1700  131.1590   63.8620 C   0  0  0  0  0  0  0  0  0  0  0  0
  125.1610  130.7760   62.9610 C   0  0  0  0  0  0  0  0  0  0  0  0
  128.4920  128.2590   67.3980 C   0  0  0  0  0  0  0  0  0  0  0  0
  127.5000  127.4050   67.9050 C   0  0  0  0  0  0  0  0  0  0  0  0
  127.4840  127.0630   69.2550 C   0  0  0  0  0  0  0  0  0  0  0  0
  128.4550  127.5640   70.1310 C   0  0  0  0  0  0  0  0  0  0  0  0
  128.4380  127.1970   71.5680 N   0  0  0  0  0  0  0  0  0  0  0  0
  128.6300  126.0250   71.8780 O   0  0  0  0  0  0  0  0  0  0  0  0
  128.2310  128.0780   72.3970 O   0  0  0  0  0  0  0  0  0  0  0  0
  129.4430  128.4180   69.6240 C   0  0  0  0  0  0  0  0  0  0  0  0
  129.4610  128.7610   68.2760 C   0  0  0  0  0  0  0  0  0  0  0  0
  127.1883  130.4932   64.8266 H   0  0  0  0  0  0  0  0  0  0  0  0
  129.7481  132.9867   63.2482 H   0  0  0  0  0  0  0  0  0  0  0  0
  126.7840  133.3845   63.0525 H   0  0  0  0  0  0  0  0  0  0  0  0
  127.7497  134.3408   64.2197 H   0  0  0  0  0  0  0  0  0  0  0  0
  126.3141  134.9196   61.6273 H   0  0  0  0  0  0  0  0  0  0  0  0
  127.5938  135.6558   60.5992 H   0  0  0  0  0  0  0  0  0  0  0  0
  125.3983  132.8266   61.0634 H   0  0  0  0  0  0  0  0  0  0  0  0
  125.3452  130.8306   59.5654 H   0  0  0  0  0  0  0  0  0  0  0  0
  127.1961  130.4484   57.9442 H   0  0  0  0  0  0  0  0  0  0  0  0
  129.0993  132.0481   57.8020 H   0  0  0  0  0  0  0  0  0  0  0  0
  129.1540  134.0471   59.2945 H   0  0  0  0  0  0  0  0  0  0  0  0
  127.4771  131.4042   62.1328 H   0  0  0  0  0  0  0  0  0  0  0  0
  130.6429  132.9775   61.4983 H   0  0  0  0  0  0  0  0  0  0  0  0
  131.0075  131.6360   62.6412 H   0  0  0  0  0  0  0  0  0  0  0  0
  133.3144  131.3161   62.0175 H   0  0  0  0  0  0  0  0  0  0  0  0
  134.9341  130.3600   60.3795 H   0  0  0  0  0  0  0  0  0  0  0  0
  134.1815  129.8109   58.0686 H   0  0  0  0  0  0  0  0  0  0  0  0
  131.8230  130.2185   57.3802 H   0  0  0  0  0  0  0  0  0  0  0  0
  130.2014  131.1776   59.0155 H   0  0  0  0  0  0  0  0  0  0  0  0
  129.9040  129.8906   63.4519 H   0  0  0  0  0  0  0  0  0  0  0  0
  127.1192  129.9964   61.4556 H   0  0  0  0  0  0  0  0  0  0  0  0
  126.6934  128.2663   61.7068 H   0  0  0  0  0  0  0  0  0  0  0  0
  126.2319  127.9194   64.5041 H   0  0  0  0  0  0  0  0  0  0  0  0
  124.4538  128.6053   66.1143 H   0  0  0  0  0  0  0  0  0  0  0  0
  123.1380  130.6771   65.6974 H   0  0  0  0  0  0  0  0  0  0  0  0
  123.5865  132.0747   63.6860 H   0  0  0  0  0  0  0  0  0  0  0  0
  125.3630  131.3914   62.0719 H   0  0  0  0  0  0  0  0  0  0  0  0
  126.7294  127.0028   67.2309 H   0  0  0  0  0  0  0  0  0  0  0  0
  126.7004  126.3923   69.6372 H   0  0  0  0  0  0  0  0  0  0  0  0
  130.2124  128.8215   70.2987 H   0  0  0  0  0  0  0  0  0  0  0  0
  130.2442  129.4333   67.8957 H   0  0  0  0  0  0  0  0  0  0  0  0
  1  2  2  0
  2  3  1  0
  3  4  1  0
  4  5  1  0
  5  6  1  0
  6  7  1  0
  7  8  1  0
  8  9  1  0
  9 10  1  0
 10 11  2  0
 11 12  1  0
 12 13  2  0
 13 14  1  0
 14 15  2  0
  6 16  1  0
 16 17  1  0
 17 18  1  0
 18 19  1  0
 19 20  2  0
 20 21  1  0
 21 22  2  0
 22 23  1  0
 23 24  2  0
 16 25  1  0
 25 26  1  0
 26 27  1  0
 27 28  1  0
 28 29  2  0
 29 30  1  0
 30 31  2  0
 31 32  1  0
 32 33  2  0
  2 34  1  0
 34 35  2  0
 35 36  1  0
 36 37  2  0
 37 38  1  0
 38 39  2  0
 38 40  1  0
 37 41  1  0
 41 42  2  0
 25  4  1  0
 33 28  1  0
 42 34  1  0
 15 10  1  0
 24 19  1  0
  4 43  1  6
  6 44  1  1
  7 45  1  0
  7 46  1  0
  9 47  1  0
  9 48  1  0
 11 49  1  0
 12 50  1  0
 13 51  1  0
 14 52  1  0
 15 53  1  0
 16 54  1  6
 18 55  1  0
 18 56  1  0
 20 57  1  0
 21 58  1  0
 22 59  1  0
 23 60  1  0
 24 61  1  0
 25 62  1  1
 27 63  1  0
 27 64  1  0
 29 65  1  0
 30 66  1  0
 31 67  1  0
 32 68  1  0
 33 69  1  0
 35 70  1  0
 36 71  1  0
 41 72  1  0
 42 73  1  0
M  CHG  2  38   1  40  -1
M  END
>  <Binding energies>  (1) 
[-9.33]

>  <Ligand effiencies>  (1) 
[-0.22214285714285714]

>  <Interactions>  (1) 
["V-A:GLU:543:CG:4902, V-A:PRO:540:N:4879, V-A:ASN:362:C:3167, V-A:TYR:539:CE2:4871, V-A:TYR:531:CE2:4788, V-A:PRO:540:CA:4878, H-A:ALA:541:N:4886, V-A:TYR:539:CZ:4872, V-A:PRO:540:CB:4880, V-A:TYR:539:C:4862, V-A:ASN:362:CB:3171, V-A:LEU:363:CA:3180, V-A:ASP:366:CG:3208, V-A:GLU:543:CD:4903, V-B:GLY:454:CA:9016, V-A:TYR:539:CD2:4869, V-B:LEU:475:CD2:9226, V-A:ALA:541:CB:4887, V-A:TYR:539:CG:4867, V-B:ARG:545:CZ:9894, V-B:LEU:475:CD1:9225, V-A:GLU:543:CB:4901, V-B:HIS:456:CE1:9037, V-B:ARG:545:CG:9890, H-B:TYR:484:OH:9315, V-B:ARG:545:CD:9891, V-A:HIS:456:CE1:4064, V-B:GLU:543:CB:9874, H-B:LYS:547:NZ:9919, V-B:GLU:543:C:9870"]

$$$$
RR8_B_Rahimova_2017
     RDKit          3D

 73 77  0  0  0  0  0  0  0  0999 V2000
  126.1330  127.4020   61.5780 O   0  0  0  0  0  0  0  0  0  0  0  0
  126.3050  128.5240   62.0640 C   0  0  0  0  0  0  0  0  0  0  0  0
  127.2720  129.4020   61.6590 O   0  0  0  0  0  0  0  0  0  0  0  0
  128.4400  129.5070   62.4360 C   0  0  2  0  0  0  0  0  0  0  0  0
  128.2980  130.4390   63.4700 O   0  0  0  0  0  0  0  0  0  0  0  0
  128.7250  131.7390   63.0640 C   0  0  2  0  0  0  0  0  0  0  0  0
  127.5630  132.7350   63.2240 C   0  0  0  0  0  0  0  0  0  0  0  0
  127.9820  134.0180   62.7740 O   0  0  0  0  0  0  0  0  0  0  0  0
  127.7150  134.2880   61.4060 C   0  0  0  0  0  0  0  0  0  0  0  0
  126.4330  133.5790   60.9960 C   0  0  0  0  0  0  0  0  0  0  0  0
  125.1950  134.1110   61.3700 C   0  0  0  0  0  0  0  0  0  0  0  0
  124.0190  133.4540   61.0190 C   0  0  0  0  0  0  0  0  0  0  0  0
  124.0840  132.2670   60.2930 C   0  0  0  0  0  0  0  0  0  0  0  0
  125.3130  131.7340   59.9110 C   0  0  0  0  0  0  0  0  0  0  0  0
  126.4900  132.3890   60.2650 C   0  0  0  0  0  0  0  0  0  0  0  0
  129.2320  131.5410   61.6300 C   0  0  1  0  0  0  0  0  0  0  0  0
  130.3540  132.3940   61.3890 O   0  0  0  0  0  0  0  0  0  0  0  0
  131.6430  131.8910   61.7530 C   0  0  0  0  0  0  0  0  0  0  0  0
  132.3680  131.2530   60.5720 C   0  0  0  0  0  0  0  0  0  0  0  0
  131.8440  131.3710   59.2810 C   0  0  0  0  0  0  0  0  0  0  0  0
  132.5260  130.8150   58.2010 C   0  0  0  0  0  0  0  0  0  0  0  0
  133.7250  130.1400   58.4160 C   0  0  0  0  0  0  0  0  0  0  0  0
  134.2510  130.0150   59.7000 C   0  0  0  0  0  0  0  0  0  0  0  0
  133.5710  130.5740   60.7810 C   0  0  0  0  0  0  0  0  0  0  0  0
  129.5770  130.0570   61.5750 C   0  0  2  0  0  0  0  0  0  0  0  0
  129.5550  129.5910   60.2280 O   0  0  0  0  0  0  0  0  0  0  0  0
  128.4480  130.0180   59.4490 C   0  0  0  0  0  0  0  0  0  0  0  0
  128.9730  130.8490   58.2910 C   0  0  0  0  0  0  0  0  0  0  0  0
  128.9960  132.2430   58.3760 C   0  0  0  0  0  0  0  0  0  0  0  0
  129.4610  132.9960   57.3010 C   0  0  0  0  0  0  0  0  0  0  0  0
  129.9010  132.3530   56.1460 C   0  0  0  0  0  0  0  0  0  0  0  0
  129.8830  130.9620   56.0560 C   0  0  0  0  0  0  0  0  0  0  0  0
  129.4180  130.2090   57.1300 C   0  0  0  0  0  0  0  0  0  0  0  0
  125.4850  129.0600   63.2020 C   0  0  0  0  0  0  0  0  0  0  0  0
  124.4010  129.9250   62.9890 C   0  0  0  0  0  0  0  0  0  0  0  0
  123.6640  130.4130   64.0630 C   0  0  0  0  0  0  0  0  0  0  0  0
  123.9970  130.0590   65.3760 C   0  0  0  0  0  0  0  0  0  0  0  0
  123.2270  130.6020   66.5220 N   0  0  0  0  0  0  0  0  0  0  0  0
  122.1150  130.1370   66.7560 O   0  0  0  0  0  0  0  0  0  0  0  0
  123.7300  131.4950   67.1990 O   0  0  0  0  0  0  0  0  0  0  0  0
  125.0760  129.1900   65.5880 C   0  0  0  0  0  0  0  0  0  0  0  0
  125.8090  128.6960   64.5140 C   0  0  0  0  0  0  0  0  0  0  0  0
  128.6387  128.5011   62.8343 H   0  0  0  0  0  0  0  0  0  0  0  0
  129.5306  132.1760   63.6723 H   0  0  0  0  0  0  0  0  0  0  0  0
  126.7040  132.3975   62.6255 H   0  0  0  0  0  0  0  0  0  0  0  0
  127.2681  132.7924   64.2822 H   0  0  0  0  0  0  0  0  0  0  0  0
  127.5981  135.3721   61.2612 H   0  0  0  0  0  0  0  0  0  0  0  0
  128.5504  133.9264   60.7885 H   0  0  0  0  0  0  0  0  0  0  0  0
  125.1504  135.0495   61.9421 H   0  0  0  0  0  0  0  0  0  0  0  0
  123.0441  133.8698   61.3133 H   0  0  0  0  0  0  0  0  0  0  0  0
  123.1554  131.7452   60.0185 H   0  0  0  0  0  0  0  0  0  0  0  0
  125.3537  130.7995   59.3321 H   0  0  0  0  0  0  0  0  0  0  0  0
  127.4634  131.9703   59.9696 H   0  0  0  0  0  0  0  0  0  0  0  0
  128.5042  131.8060   60.8489 H   0  0  0  0  0  0  0  0  0  0  0  0
  132.2527  132.7229   62.1353 H   0  0  0  0  0  0  0  0  0  0  0  0
  131.4983  131.1151   62.5192 H   0  0  0  0  0  0  0  0  0  0  0  0
  130.8945  131.9021   59.1184 H   0  0  0  0  0  0  0  0  0  0  0  0
  132.1194  130.9087   57.1832 H   0  0  0  0  0  0  0  0  0  0  0  0
  134.2626  129.7008   57.5627 H   0  0  0  0  0  0  0  0  0  0  0  0
  135.1977  129.4782   59.8600 H   0  0  0  0  0  0  0  0  0  0  0  0
  133.9812  130.4806   61.7974 H   0  0  0  0  0  0  0  0  0  0  0  0
  130.5780  129.7658   61.9260 H   0  0  0  0  0  0  0  0  0  0  0  0
  127.9050  129.1427   59.0628 H   0  0  0  0  0  0  0  0  0  0  0  0
  127.7597  130.6164   60.0639 H   0  0  0  0  0  0  0  0  0  0  0  0
  128.6474  132.7451   59.2906 H   0  0  0  0  0  0  0  0  0  0  0  0
  129.4809  134.0940   57.3634 H   0  0  0  0  0  0  0  0  0  0  0  0
  130.2663  132.9489   55.2966 H   0  0  0  0  0  0  0  0  0  0  0  0
  130.2344  130.4624   55.1412 H   0  0  0  0  0  0  0  0  0  0  0  0
  129.4005  129.1110   57.0657 H   0  0  0  0  0  0  0  0  0  0  0  0
  124.1317  130.2197   61.9640 H   0  0  0  0  0  0  0  0  0  0  0  0
  122.8115  131.0834   63.8790 H   0  0  0  0  0  0  0  0  0  0  0  0
  125.3456  128.8959   66.6131 H   0  0  0  0  0  0  0  0  0  0  0  0
  126.6513  128.0128   64.6976 H   0  0  0  0  0  0  0  0  0  0  0  0
  1  2  2  0
  2  3  1  0
  3  4  1  0
  4  5  1  0
  5  6  1  0
  6  7  1  0
  7  8  1  0
  8  9  1  0
  9 10  1  0
 10 11  2  0
 11 12  1  0
 12 13  2  0
 13 14  1  0
 14 15  2  0
  6 16  1  0
 16 17  1  0
 17 18  1  0
 18 19  1  0
 19 20  2  0
 20 21  1  0
 21 22  2  0
 22 23  1  0
 23 24  2  0
 16 25  1  0
 25 26  1  0
 26 27  1  0
 27 28  1  0
 28 29  2  0
 29 30  1  0
 30 31  2  0
 31 32  1  0
 32 33  2  0
  2 34  1  0
 34 35  2  0
 35 36  1  0
 36 37  2  0
 37 38  1  0
 38 39  2  0
 38 40  1  0
 37 41  1  0
 41 42  2  0
 25  4  1  0
 33 28  1  0
 42 34  1  0
 15 10  1  0
 24 19  1  0
  4 43  1  1
  6 44  1  1
  7 45  1  0
  7 46  1  0
  9 47  1  0
  9 48  1  0
 11 49  1  0
 12 50  1  0
 13 51  1  0
 14 52  1  0
 15 53  1  0
 16 54  1  6
 18 55  1  0
 18 56  1  0
 20 57  1  0
 21 58  1  0
 22 59  1  0
 23 60  1  0
 24 61  1  0
 25 62  1  1
 27 63  1  0
 27 64  1  0
 29 65  1  0
 30 66  1  0
 31 67  1  0
 32 68  1  0
 33 69  1  0
 35 70  1  0
 36 71  1  0
 41 72  1  0
 42 73  1  0
M  CHG  2  38   1  40  -1
M  END
>  <Binding energies>  (1) 
[-9.06]

>  <Ligand effiencies>  (1) 
[-0.21571428571428572]

>  <Interactions>  (1) 
["V-A:GLU:543:CG:4902, V-A:PRO:540:N:4879, V-A:ASN:362:C:3167, V-A:TYR:531:CZ:4789, V-A:TYR:539:CE2:4871, V-A:TYR:531:CE2:4788, V-A:PRO:540:CA:4878, V-A:PRO:540:C:4876, V-A:TYR:539:CE1:4870, V-A:ASP:366:CB:3207, H-A:ALA:541:N:4886, V-A:TYR:539:CZ:4872, V-A:PRO:540:CB:4880, V-A:LEU:363:CD1:3184, V-A:TYR:539:C:4862, V-A:ASN:362:CB:3171, V-A:LEU:363:CA:3180, V-A:ASP:366:CG:3208, V-A:GLU:543:CD:4903, V-B:GLY:454:CA:9016, V-A:TYR:539:CD2:4869, H-B:GLY:454:N:9017, V-B:ILE:369:CD1:8206, V-B:LEU:475:CD2:9226, V-A:TYR:539:CD1:4868, V-A:ALA:541:CB:4887, V-A:TYR:539:CG:4867, V-A:TYR:539:CA:4864, V-B:ARG:545:CZ:9894, V-B:ILE:369:CG2:8204, V-B:HIS:456:CE1:9037, V-B:ARG:545:CG:9890, H-B:TYR:484:OH:9315, V-B:ARG:545:CD:9891, H-B:HIS:456:ND1:9034, H-B:ARG:545:NH2:9896, V-B:GLY:453:CA:9011, V-B:GLY:453:C:9009, H-B:ILE:455:N:9022, V-B:GLY:454:C:9014"]

$$$$
RR9_Rahimova_2017
     RDKit          3D

 64 68  0  0  0  0  0  0  0  0999 V2000
  129.9750  128.4990   72.5590 C   0  0  0  0  0  0  0  0  0  0  0  0
  129.0990  129.3140   71.6020 C   0  0  0  0  0  0  0  0  0  0  0  0
  128.2980  128.4170   70.8390 O   0  0  0  0  0  0  0  0  0  0  0  0
  128.8190  127.8490   69.6930 C   0  0  0  0  0  0  0  0  0  0  0  0
  130.0320  128.3630   69.2380 C   0  0  0  0  0  0  0  0  0  0  0  0
  130.6310  127.8550   68.0900 C   0  0  0  0  0  0  0  0  0  0  0  0
  130.0330  126.8160   67.3620 C   0  0  0  0  0  0  0  0  0  0  0  0
  130.6720  126.2670   66.1210 C   0  0  0  0  0  0  0  0  0  0  0  0
  130.0900  126.4400   64.8560 C   0  0  0  0  0  0  0  0  0  0  0  0
  130.7000  125.9350   63.6930 C   0  0  0  0  0  0  0  0  0  0  0  0
  130.0790  126.2390   62.3570 C   0  0  0  0  0  0  0  0  0  0  0  0
  130.4190  127.2410   61.7270 O   0  0  0  0  0  0  0  0  0  0  0  0
  129.1380  125.3710   61.9370 N   0  0  0  0  0  0  0  0  0  0  0  0
  128.3030  125.5210   60.7400 C   0  0  0  0  0  0  0  0  0  0  0  0
  128.5130  124.3870   59.7100 C   0  0  0  0  0  0  0  0  0  0  0  0
  127.2540  123.9680   58.9590 C   0  0  0  0  0  0  0  0  0  0  0  0
  125.9950  124.3670   59.4210 C   0  0  0  0  0  0  0  0  0  0  0  0
  124.8500  124.0120   58.7130 C   0  0  0  0  0  0  0  0  0  0  0  0
  124.9650  123.2560   57.5490 C   0  0  0  0  0  0  0  0  0  0  0  0
  126.2150  122.8510   57.0850 C   0  0  0  0  0  0  0  0  0  0  0  0
  127.3620  123.2070   57.7920 C   0  0  0  0  0  0  0  0  0  0  0  0
  131.9080  125.2190   63.8800 C   0  0  0  0  0  0  0  0  0  0  0  0
  132.8770  124.4970   63.0890 C   0  0  0  0  0  0  0  0  0  0  0  0
  132.8630  124.1790   61.6300 C   0  0  0  0  0  0  0  0  0  0  0  0
  133.4170  122.9830   61.1650 C   0  0  0  0  0  0  0  0  0  0  0  0
  133.4170  122.6950   59.8030 C   0  0  0  0  0  0  0  0  0  0  0  0
  132.8590  123.6010   58.9000 C   0  0  0  0  0  0  0  0  0  0  0  0
  132.8750  123.2960   57.4130 C   0  0  0  0  0  0  0  0  0  0  0  0
  132.3060  124.7970   59.3590 C   0  0  0  0  0  0  0  0  0  0  0  0
  132.3040  125.0820   60.7220 C   0  0  0  0  0  0  0  0  0  0  0  0
  133.8680  124.0770   63.8430 N   0  0  0  0  0  0  0  0  0  0  0  0
  133.5970  124.4240   65.1110 N   0  0  0  0  0  0  0  0  0  0  0  0
  132.4100  125.1120   65.1990 C   0  0  0  0  0  0  0  0  0  0  0  0
  131.8440  125.5960   66.3040 N   0  0  0  0  0  0  0  0  0  0  0  0
  128.8120  126.3050   67.8250 C   0  0  0  0  0  0  0  0  0  0  0  0
  128.2100  126.8110   68.9750 C   0  0  0  0  0  0  0  0  0  0  0  0
  129.7104  128.7452   73.5979 H   0  0  0  0  0  0  0  0  0  0  0  0
  129.8100  127.4258   72.3831 H   0  0  0  0  0  0  0  0  0  0  0  0
  131.0336  128.7409   72.3831 H   0  0  0  0  0  0  0  0  0  0  0  0
  128.4506  129.9899   72.1788 H   0  0  0  0  0  0  0  0  0  0  0  0
  129.7333  129.9124   70.9315 H   0  0  0  0  0  0  0  0  0  0  0  0
  130.5203  129.1782   69.7921 H   0  0  0  0  0  0  0  0  0  0  0  0
  131.5885  128.2746   67.7478 H   0  0  0  0  0  0  0  0  0  0  0  0
  129.1365  126.9820   64.7717 H   0  0  0  0  0  0  0  0  0  0  0  0
  128.9880  124.5330   62.4790 H   0  0  0  0  0  0  0  0  0  0  0  0
  127.2469  125.5238   61.0476 H   0  0  0  0  0  0  0  0  0  0  0  0
  128.5920  126.4644   60.2537 H   0  0  0  0  0  0  0  0  0  0  0  0
  129.2549  124.7270   58.9724 H   0  0  0  0  0  0  0  0  0  0  0  0
  128.8425  123.5060   60.2804 H   0  0  0  0  0  0  0  0  0  0  0  0
  125.9099  124.9608   60.3430 H   0  0  0  0  0  0  0  0  0  0  0  0
  123.8589  124.3272   59.0714 H   0  0  0  0  0  0  0  0  0  0  0  0
  124.0599  122.9757   56.9902 H   0  0  0  0  0  0  0  0  0  0  0  0
  126.2960  122.2532   56.1652 H   0  0  0  0  0  0  0  0  0  0  0  0
  128.3515  122.8892   57.4317 H   0  0  0  0  0  0  0  0  0  0  0  0
  133.8541  122.2675   61.8770 H   0  0  0  0  0  0  0  0  0  0  0  0
  133.8563  121.7545   59.4390 H   0  0  0  0  0  0  0  0  0  0  0  0
  132.9321  122.2078   57.2625 H   0  0  0  0  0  0  0  0  0  0  0  0
  131.9553  123.6825   56.9495 H   0  0  0  0  0  0  0  0  0  0  0  0
  133.7492  123.7766   56.9495 H   0  0  0  0  0  0  0  0  0  0  0  0
  131.8725  125.5133   58.6456 H   0  0  0  0  0  0  0  0  0  0  0  0
  131.8609  126.0211   61.0851 H   0  0  0  0  0  0  0  0  0  0  0  0
  134.2320  124.1810   65.8580 H   0  0  0  0  0  0  0  0  0  0  0  0
  128.3214  125.4911   67.2710 H   0  0  0  0  0  0  0  0  0  0  0  0
  127.2527  126.3940   69.3209 H   0  0  0  0  0  0  0  0  0  0  0  0
  1  2  1  0
  2  3  1  0
  3  4  1  0
  4  5  2  0
  5  6  1  0
  6  7  2  0
  7  8  1  0
  8  9  2  0
  9 10  1  0
 10 11  1  0
 11 12  2  0
 11 13  1  0
 13 14  1  0
 14 15  1  0
 15 16  1  0
 16 17  2  0
 17 18  1  0
 18 19  2  0
 19 20  1  0
 20 21  2  0
 10 22  2  0
 22 23  1  0
 23 24  1  0
 24 25  2  0
 25 26  1  0
 26 27  2  0
 27 28  1  0
 27 29  1  0
 29 30  2  0
 23 31  2  0
 31 32  1  0
 32 33  1  0
 33 34  2  0
  7 35  1  0
 35 36  2  0
 36  4  1  0
 34  8  1  0
 21 16  1  0
 33 22  1  0
 30 24  1  0
  1 37  1  0
  1 38  1  0
  1 39  1  0
  2 40  1  0
  2 41  1  0
  5 42  1  0
  6 43  1  0
  9 44  1  0
 13 45  1  0
 14 46  1  0
 14 47  1  0
 15 48  1  0
 15 49  1  0
 17 50  1  0
 18 51  1  0
 19 52  1  0
 20 53  1  0
 21 54  1  0
 25 55  1  0
 26 56  1  0
 28 57  1  0
 28 58  1  0
 28 59  1  0
 29 60  1  0
 30 61  1  0
 32 62  1  0
 35 63  1  0
 36 64  1  0
M  END
>  <Binding energies>  (1) 
[-9.12]

>  <Ligand effiencies>  (1) 
[-0.24]

>  <Interactions>  (1) 
["V-B:TYR:539:C:9835, V-B:TYR:539:CE2:9844, V-B:PRO:540:N:9852, V-B:PRO:540:CA:9851, V-B:MET:535:CE:9803, V-B:PRO:540:CB:9853, H-B:GLU:543:OE2:9878, V-B:GLU:543:CD:9876, V-A:ASP:366:CB:3207, V-A:ASP:366:CG:3208, V-A:GLU:543:CD:4903, H-A:TYR:484:OH:4343, V-B:GLU:543:CG:9875, V-B:PRO:540:CD:9855, V-B:LEU:363:CD1:8156, V-B:TYR:539:CZ:9845, V-A:GLU:543:CB:4901, V-B:HIS:456:CE1:9037, V-A:TYR:484:CZ:4342, V-A:HIS:456:CE1:4064, H-A:HIS:456:NE2:4065, V-B:GLU:543:CB:9874, V-A:LYS:547:CE:4945, V-B:HIS:456:CD2:9035, V-B:GLU:543:C:9870, V-A:ILE:369:CD1:3234, V-A:ILE:369:CG2:3232, V-A:ILE:369:CB:3231, H-A:GLY:454:N:4045, V-A:GLY:454:CA:4044"]

$$$$
