1a_Ghoteimi_2023
     RDKit          3D

 40 43  0  0  0  0  0  0  0  0999 V2000
  124.8900  122.5360   56.6470 C   0  0  0  0  0  0  0  0  0  0  0  0
  126.0150  123.1930   57.4530 C   0  0  0  0  0  0  0  0  0  0  0  0
  127.1030  122.2850   57.5700 O   0  0  0  0  0  0  0  0  0  0  0  0
  128.3780  122.7320   57.7120 C   0  0  0  0  0  0  0  0  0  0  0  0
  129.1540  122.8870   56.7650 O   0  0  0  0  0  0  0  0  0  0  0  0
  128.7470  123.0230   59.1380 C   0  0  0  0  0  0  0  0  0  0  0  0
  129.3960  122.0770   59.9450 C   0  0  0  0  0  0  0  0  0  0  0  0
  129.7240  122.3750   61.2650 C   0  0  0  0  0  0  0  0  0  0  0  0
  129.4100  123.6330   61.8030 C   0  0  0  0  0  0  0  0  0  0  0  0
  129.6890  124.0380   63.1220 N   0  0  0  0  0  0  0  0  0  0  0  0
  130.3610  123.3950   64.1010 C   0  0  0  0  0  0  0  0  0  0  0  0
  130.8880  122.2870   64.0000 O   0  0  0  0  0  0  0  0  0  0  0  0
  130.4590  124.1420   65.4310 C   0  0  0  0  0  0  0  0  0  0  0  0
  130.9910  125.8640   65.1980 S   0  0  0  0  0  0  0  0  0  0  0  0
  129.7840  126.8710   66.0290 C   0  0  0  0  0  0  0  0  0  0  0  0
  129.9580  126.9430   67.3700 N   0  0  0  0  0  0  0  0  0  0  0  0
  129.1050  127.6870   68.1220 C   0  0  0  0  0  0  0  0  0  0  0  0
  129.3760  127.7330   69.5980 C   0  0  0  0  0  0  0  0  0  0  0  0
  129.0160  126.6670   70.4400 C   0  0  0  0  0  0  0  0  0  0  0  0
  129.2700  126.7120   71.8080 C   0  0  0  0  0  0  0  0  0  0  0  0
  129.8880  127.8220   72.3780 C   0  0  0  0  0  0  0  0  0  0  0  0
  130.1030  127.7800   73.7430 O   0  0  0  0  0  0  0  0  0  0  0  0
  130.6980  126.6210   74.3150 C   0  0  0  0  0  0  0  0  0  0  0  0
  130.2490  128.8960   71.5520 C   0  0  0  0  0  0  0  0  0  0  0  0
  129.9940  128.8470   70.1850 C   0  0  0  0  0  0  0  0  0  0  0  0
  128.0450  128.3790   67.5230 C   0  0  0  0  0  0  0  0  0  0  0  0
  127.8310  128.3000   66.1410 C   0  0  0  0  0  0  0  0  0  0  0  0
  126.6620  129.0390   65.5760 C   0  0  0  0  0  0  0  0  0  0  0  0
  126.8310  129.9680   64.5440 C   0  0  0  0  0  0  0  0  0  0  0  0
  125.7350  130.6420   64.0130 C   0  0  0  0  0  0  0  0  0  0  0  0
  124.4500  130.3960   64.4950 C   0  0  0  0  0  0  0  0  0  0  0  0
  123.4240  131.1100   63.9070 O   0  0  0  0  0  0  0  0  0  0  0  0
  123.0060  130.7680   62.5900 C   0  0  0  0  0  0  0  0  0  0  0  0
  124.2750  129.4580   65.5240 C   0  0  0  0  0  0  0  0  0  0  0  0
  125.3730  128.7860   66.0550 C   0  0  0  0  0  0  0  0  0  0  0  0
  128.7260  127.5270   65.3630 C   0  0  0  0  0  0  0  0  0  0  0  0
  128.5620  127.4190   63.9100 C   0  0  0  0  0  0  0  0  0  0  0  0
  128.4320  127.3350   62.7630 N   0  0  0  0  0  0  0  0  0  0  0  0
  128.7610  124.5740   61.0040 C   0  0  0  0  0  0  0  0  0  0  0  0
  128.4340  124.2750   59.6840 C   0  0  0  0  0  0  0  0  0  0  0  0
  1  2  1  0
  2  3  1  0
  3  4  1  0
  4  5  2  0
  4  6  1  0
  6  7  2  0
  7  8  1  0
  8  9  2  0
  9 10  1  0
 10 11  1  0
 11 12  2  0
 11 13  1  0
 13 14  1  0
 14 15  1  0
 15 16  2  0
 16 17  1  0
 17 18  1  0
 18 19  2  0
 19 20  1  0
 20 21  2  0
 21 22  1  0
 22 23  1  0
 21 24  1  0
 24 25  2  0
 17 26  2  0
 26 27  1  0
 27 28  1  0
 28 29  2  0
 29 30  1  0
 30 31  2  0
 31 32  1  0
 32 33  1  0
 31 34  1  0
 34 35  2  0
 27 36  2  0
 36 37  1  0
 37 38  3  0
  9 39  1  0
 39 40  2  0
 40  6  1  0
 36 15  1  0
 25 18  1  0
 35 28  1  0
M  END
>  <Binding energies>  (1) 
[-9.32]

>  <Ligand effiencies>  (1) 
[-0.22731707317073171]

>  <Interactions>  (1) 
["V-B:TYR:539:C:9835, V-B:TYR:539:CD2:9842, V-B:TYR:539:CE2:9844, V-B:PRO:540:N:9852, V-B:ALA:541:CB:9860, V-B:PRO:540:CA:9851, V-B:MET:535:CE:9803, V-B:PRO:540:CB:9853, H-B:GLU:543:OE2:9878, V-B:GLU:543:CD:9876, V-A:GLU:543:CD:4903, H-A:TYR:484:OH:4343, V-B:GLU:543:CG:9875, V-A:TYR:484:CE1:4340, H-B:GLY:454:N:9017, V-B:ILE:369:CD1:8206, V-B:PRO:540:CD:9855, V-B:LEU:363:CD1:8156, V-B:ARG:545:CZ:9894, V-B:HIS:456:CE1:9037, V-B:ARG:545:CG:9890, V-B:ARG:545:CD:9891, V-A:TYR:484:CZ:4342, V-A:HIS:456:CE1:4064, V-A:LYS:547:CE:4945, H-B:LYS:547:NZ:9919, H-A:LYS:547:NZ:4946, V-B:LYS:547:CE:9918, V-A:GLU:543:C:4897, V-A:GLY:544:C:4907, V-B:GLY:453:CA:9011, V-B:PRO:540:CG:9854, H-B:TYR:539:OH:9846"]

$$$$
1b_Ghoteimi_2023
     RDKit          3D

 34 37  0  0  0  0  0  0  0  0999 V2000
  130.5170  126.5830   74.2540 C   0  0  0  0  0  0  0  0  0  0  0  0
  129.9710  127.7630   73.6770 O   0  0  0  0  0  0  0  0  0  0  0  0
  129.7640  127.8110   72.3120 C   0  0  0  0  0  0  0  0  0  0  0  0
  129.2390  126.6650   71.7190 C   0  0  0  0  0  0  0  0  0  0  0  0
  128.9980  126.6210   70.3490 C   0  0  0  0  0  0  0  0  0  0  0  0
  129.2720  127.7260   69.5290 C   0  0  0  0  0  0  0  0  0  0  0  0
  129.0120  127.6750   68.0490 C   0  0  0  0  0  0  0  0  0  0  0  0
  127.9710  128.3770   67.4340 C   0  0  0  0  0  0  0  0  0  0  0  0
  127.7740  128.2980   66.0500 C   0  0  0  0  0  0  0  0  0  0  0  0
  126.6390  129.0710   65.4620 C   0  0  0  0  0  0  0  0  0  0  0  0
  125.3300  128.8400   65.8930 C   0  0  0  0  0  0  0  0  0  0  0  0
  124.2680  129.5520   65.3420 C   0  0  0  0  0  0  0  0  0  0  0  0
  124.4930  130.5050   64.3480 C   0  0  0  0  0  0  0  0  0  0  0  0
  123.3790  131.1620   63.8600 O   0  0  0  0  0  0  0  0  0  0  0  0
  122.8310  130.7620   62.6090 C   0  0  0  0  0  0  0  0  0  0  0  0
  125.8040  130.7350   63.9080 C   0  0  0  0  0  0  0  0  0  0  0  0
  126.8640  130.0210   64.4600 C   0  0  0  0  0  0  0  0  0  0  0  0
  128.6610  127.5000   65.2870 C   0  0  0  0  0  0  0  0  0  0  0  0
  128.5570  127.4600   63.8250 C   0  0  0  0  0  0  0  0  0  0  0  0
  128.4740  127.4290   62.6710 N   0  0  0  0  0  0  0  0  0  0  0  0
  129.6790  126.8000   65.9730 C   0  0  0  0  0  0  0  0  0  0  0  0
  130.8760  125.7460   65.1810 S   0  0  0  0  0  0  0  0  0  0  0  0
  130.4770  124.0190   65.6140 C   0  0  0  0  0  0  0  0  0  0  0  0
  130.2530  123.0840   64.4160 C   0  0  0  0  0  0  0  0  0  0  0  0
  130.8160  121.9890   64.3570 O   0  0  0  0  0  0  0  0  0  0  0  0
  129.4120  123.5680   63.4740 N   0  0  0  0  0  0  0  0  0  0  0  0
  129.0260  122.9460   62.2930 C   0  0  0  0  0  0  0  0  0  0  0  0
  129.9320  122.3730   61.4020 C   0  0  0  0  0  0  0  0  0  0  0  0
  129.1610  121.8710   60.3790 C   0  0  0  0  0  0  0  0  0  0  0  0
  127.8560  122.1270   60.6420 O   0  0  0  0  0  0  0  0  0  0  0  0
  127.7840  122.8080   61.8570 N   0  0  0  0  0  0  0  0  0  0  0  0
  129.8550  126.9060   67.3120 N   0  0  0  0  0  0  0  0  0  0  0  0
  129.8020  128.8750   70.1370 C   0  0  0  0  0  0  0  0  0  0  0  0
  130.0450  128.9230   71.5060 C   0  0  0  0  0  0  0  0  0  0  0  0
  1  2  1  0
  2  3  1  0
  3  4  2  0
  4  5  1  0
  5  6  2  0
  6  7  1  0
  7  8  2  0
  8  9  1  0
  9 10  1  0
 10 11  2  0
 11 12  1  0
 12 13  2  0
 13 14  1  0
 14 15  1  0
 13 16  1  0
 16 17  2  0
  9 18  2  0
 18 19  1  0
 19 20  3  0
 18 21  1  0
 21 22  1  0
 22 23  1  0
 23 24  1  0
 24 25  2  0
 24 26  1  0
 26 27  1  0
 27 28  1  0
 28 29  2  0
 29 30  1  0
 30 31  1  0
 21 32  2  0
  6 33  1  0
 33 34  2  0
 34  3  1  0
 32  7  1  0
 17 10  1  0
 31 27  2  0
M  END
>  <Binding energies>  (2) 
[-9.0]

>  <Ligand effiencies>  (2) 
[-0.2571428571428571]

>  <Interactions>  (2) 
["V-B:ALA:541:CB:9860, H-B:ALA:541:N:9859, H-B:GLU:543:OE2:9878, V-B:GLU:543:CD:9876, V-A:GLU:543:CD:4903, H-A:TYR:484:OH:4343, V-B:GLU:543:CG:9875, V-A:TYR:484:CE1:4340, H-B:GLY:454:N:9017, V-B:ILE:369:CD1:8206, V-B:ARG:545:CZ:9894, V-B:HIS:456:CE1:9037, V-B:ARG:545:CG:9890, V-B:ARG:545:CD:9891, V-A:TYR:484:CZ:4342, V-A:HIS:456:CE1:4064, V-A:LYS:547:CE:4945, H-B:LYS:547:NZ:9919, H-A:LYS:547:NZ:4946, V-B:LYS:547:CE:9918, V-A:GLU:543:C:4897, V-B:GLY:453:CA:9011, V-B:GLY:453:C:9009"]

$$$$
1c_Ghoteimi_2023
     RDKit          3D

 34 37  0  0  0  0  0  0  0  0999 V2000
  124.1190  132.2270   61.8780 C   0  0  0  0  0  0  0  0  0  0  0  0
  124.9840  132.5960   62.9460 O   0  0  0  0  0  0  0  0  0  0  0  0
  125.7110  131.6170   63.5960 C   0  0  0  0  0  0  0  0  0  0  0  0
  124.9830  130.6630   64.3030 C   0  0  0  0  0  0  0  0  0  0  0  0
  125.6330  129.6420   64.9900 C   0  0  0  0  0  0  0  0  0  0  0  0
  127.0330  129.5440   64.9910 C   0  0  0  0  0  0  0  0  0  0  0  0
  127.7390  128.4470   65.7350 C   0  0  0  0  0  0  0  0  0  0  0  0
  128.8440  127.7680   65.2110 C   0  0  0  0  0  0  0  0  0  0  0  0
  129.4870  126.7700   65.9530 C   0  0  0  0  0  0  0  0  0  0  0  0
  130.7000  126.1340   65.3600 C   0  0  0  0  0  0  0  0  0  0  0  0
  131.8760  126.0130   66.1050 C   0  0  0  0  0  0  0  0  0  0  0  0
  133.0130  125.4400   65.5440 C   0  0  0  0  0  0  0  0  0  0  0  0
  132.9980  124.9810   64.2270 C   0  0  0  0  0  0  0  0  0  0  0  0
  134.1710  124.4260   63.7530 O   0  0  0  0  0  0  0  0  0  0  0  0
  134.2390  123.9980   62.3970 C   0  0  0  0  0  0  0  0  0  0  0  0
  131.8210  125.1070   63.4730 C   0  0  0  0  0  0  0  0  0  0  0  0
  130.6850  125.6810   64.0370 C   0  0  0  0  0  0  0  0  0  0  0  0
  128.9730  126.4450   67.2310 C   0  0  0  0  0  0  0  0  0  0  0  0
  129.5800  125.3860   68.0440 C   0  0  0  0  0  0  0  0  0  0  0  0
  130.0610  124.5500   68.6840 N   0  0  0  0  0  0  0  0  0  0  0  0
  127.8670  127.1810   67.7050 C   0  0  0  0  0  0  0  0  0  0  0  0
  127.2260  126.9970   69.3540 S   0  0  0  0  0  0  0  0  0  0  0  0
  128.3690  127.9480   70.4080 C   0  0  0  0  0  0  0  0  0  0  0  0
  128.9620  127.0950   71.5340 C   0  0  0  0  0  0  0  0  0  0  0  0
  129.1740  127.6040   72.6360 O   0  0  0  0  0  0  0  0  0  0  0  0
  129.1710  125.7970   71.2240 N   0  0  0  0  0  0  0  0  0  0  0  0
  129.5500  124.7870   72.0950 C   0  0  0  0  0  0  0  0  0  0  0  0
  129.3810  124.7410   73.3990 N   0  0  0  0  0  0  0  0  0  0  0  0
  129.8290  123.6070   73.9040 C   0  0  0  0  0  0  0  0  0  0  0  0
  130.3730  122.7030   72.9980 C   0  0  0  0  0  0  0  0  0  0  0  0
  130.2940  123.3840   71.4010 S   0  0  0  0  0  0  0  0  0  0  0  0
  127.2750  128.1590   66.9790 N   0  0  0  0  0  0  0  0  0  0  0  0
  127.7560  130.5060   64.2700 C   0  0  0  0  0  0  0  0  0  0  0  0
  127.1100  131.5300   63.5830 C   0  0  0  0  0  0  0  0  0  0  0  0
  1  2  1  0
  2  3  1  0
  3  4  2  0
  4  5  1  0
  5  6  2  0
  6  7  1  0
  7  8  2  0
  8  9  1  0
  9 10  1  0
 10 11  2  0
 11 12  1  0
 12 13  2  0
 13 14  1  0
 14 15  1  0
 13 16  1  0
 16 17  2  0
  9 18  2  0
 18 19  1  0
 19 20  3  0
 18 21  1  0
 21 22  1  0
 22 23  1  0
 23 24  1  0
 24 25  2  0
 24 26  1  0
 26 27  1  0
 27 28  2  0
 28 29  1  0
 29 30  2  0
 30 31  1  0
 21 32  2  0
  6 33  1  0
 33 34  2  0
 34  3  1  0
 32  7  1  0
 17 10  1  0
 31 27  1  0
M  END
>  <Binding energies>  (3) 
[-8.43]

>  <Ligand effiencies>  (3) 
[-0.24085714285714285]

>  <Interactions>  (3) 
["V-B:GLU:543:CD:9876, V-A:ASP:366:CG:3208, V-A:GLU:543:CD:4903, H-A:TYR:484:OH:4343, V-B:GLU:543:CG:9875, V-B:ILE:369:CD1:8206, V-B:HIS:456:CE1:9037, H-B:TYR:484:OH:9315, H-B:GLU:543:O:9871, V-B:GLU:543:CA:9872, V-A:HIS:456:CE1:4064, H-A:HIS:456:NE2:4065, V-B:GLU:543:CB:9874, H-B:LYS:547:NZ:9919, V-A:HIS:456:CG:4061, V-B:LYS:547:CE:9918, V-B:HIS:456:CD2:9035, V-B:GLU:543:C:9870, V-A:ILE:369:CD1:3234, V-A:ARG:545:CZ:4921, H-A:GLY:454:N:4045, V-A:GLY:453:C:4037, V-A:HIS:456:CD2:4063"]

$$$$
1d_Ghoteimi_2023
     RDKit          3D

 30 32  0  0  0  0  0  0  0  0999 V2000
  123.6340  130.0410   63.5720 C   0  0  0  0  0  0  0  0  0  0  0  0
  124.0510  130.7040   64.7550 O   0  0  0  0  0  0  0  0  0  0  0  0
  124.0070  130.0720   65.9470 C   0  0  0  0  0  0  0  0  0  0  0  0
  123.2900  130.3680   66.9030 O   0  0  0  0  0  0  0  0  0  0  0  0
  124.9790  128.8960   66.0150 C   0  0  0  0  0  0  0  0  0  0  0  0
  126.5390  129.4310   65.2520 S   0  0  0  0  0  0  0  0  0  0  0  0
  127.8460  128.5180   66.0440 C   0  0  0  0  0  0  0  0  0  0  0  0
  127.8660  128.6530   67.3910 N   0  0  0  0  0  0  0  0  0  0  0  0
  128.8150  128.0130   68.1220 C   0  0  0  0  0  0  0  0  0  0  0  0
  128.7640  128.2100   69.6090 C   0  0  0  0  0  0  0  0  0  0  0  0
  129.7970  128.8720   70.2920 C   0  0  0  0  0  0  0  0  0  0  0  0
  129.7510  129.0480   71.6710 C   0  0  0  0  0  0  0  0  0  0  0  0
  128.6740  128.5680   72.4120 C   0  0  0  0  0  0  0  0  0  0  0  0
  128.7140  128.7850   73.7760 O   0  0  0  0  0  0  0  0  0  0  0  0
  127.9600  129.8570   74.3310 C   0  0  0  0  0  0  0  0  0  0  0  0
  127.6350  127.9050   71.7450 C   0  0  0  0  0  0  0  0  0  0  0  0
  127.6830  127.7320   70.3650 C   0  0  0  0  0  0  0  0  0  0  0  0
  129.7700  127.2030   67.4960 C   0  0  0  0  0  0  0  0  0  0  0  0
  129.7810  127.0580   66.1030 C   0  0  0  0  0  0  0  0  0  0  0  0
  130.8330  126.1840   65.5010 C   0  0  0  0  0  0  0  0  0  0  0  0
  130.5150  125.3250   64.4440 C   0  0  0  0  0  0  0  0  0  0  0  0
  131.4900  124.5080   63.8780 C   0  0  0  0  0  0  0  0  0  0  0  0
  132.8010  124.5360   64.3510 C   0  0  0  0  0  0  0  0  0  0  0  0
  133.6990  123.6870   63.7340 O   0  0  0  0  0  0  0  0  0  0  0  0
  134.1640  123.9990   62.4260 C   0  0  0  0  0  0  0  0  0  0  0  0
  133.1280  125.4060   65.4030 C   0  0  0  0  0  0  0  0  0  0  0  0
  132.1520  126.2220   65.9670 C   0  0  0  0  0  0  0  0  0  0  0  0
  128.8050  127.7500   65.3450 C   0  0  0  0  0  0  0  0  0  0  0  0
  128.8340  127.7180   63.8800 C   0  0  0  0  0  0  0  0  0  0  0  0
  128.8570  127.6910   62.7230 N   0  0  0  0  0  0  0  0  0  0  0  0
  1  2  1  0
  2  3  1  0
  3  4  2  0
  3  5  1  0
  5  6  1  0
  6  7  1  0
  7  8  2  0
  8  9  1  0
  9 10  1  0
 10 11  2  0
 11 12  1  0
 12 13  2  0
 13 14  1  0
 14 15  1  0
 13 16  1  0
 16 17  2  0
  9 18  2  0
 18 19  1  0
 19 20  1  0
 20 21  2  0
 21 22  1  0
 22 23  2  0
 23 24  1  0
 24 25  1  0
 23 26  1  0
 26 27  2  0
 19 28  2  0
 28 29  1  0
 29 30  3  0
 28  7  1  0
 17 10  1  0
 27 20  1  0
M  END
>  <Binding energies>  (4) 
[-7.5]

>  <Ligand effiencies>  (4) 
[-0.25]

>  <Interactions>  (4) 
["V-B:GLU:543:CD:9876, V-A:ASP:366:CG:3208, V-A:GLU:543:CD:4903, H-A:TYR:484:OH:4343, H-B:GLY:454:N:9017, V-B:ARG:545:CZ:9894, V-B:HIS:456:CE1:9037, V-B:ARG:545:CG:9890, H-B:TYR:484:OH:9315, V-B:ARG:545:CD:9891, V-A:HIS:456:CE1:4064, H-B:LYS:547:NZ:9919, H-A:LYS:547:NZ:4946, V-B:HIS:456:CD2:9035, V-A:GLU:543:C:4897, V-A:ILE:369:CD1:3234, V-B:HIS:456:CG:9033, H-B:HIS:456:ND1:9034, V-A:ARG:545:CZ:4921, H-A:GLY:454:N:4045, V-A:ARG:545:CD:4918, H-B:ILE:455:N:9022"]

$$$$
1j_Grossjean_2025
     RDKit          3D

 20 21  0  0  0  0  0  0  0  0999 V2000
  129.5270  122.0250   61.0920 C   0  0  0  0  0  0  0  0  0  0  0  0
  128.3450  122.6030   60.3350 C   0  0  0  0  0  0  0  0  0  0  0  0
  127.2680  123.1860   61.0000 C   0  0  0  0  0  0  0  0  0  0  0  0
  126.2130  123.7140   60.2500 C   0  0  0  0  0  0  0  0  0  0  0  0
  125.0510  124.3640   61.0010 C   0  0  0  0  0  0  0  0  0  0  0  0
  126.2590  123.6350   58.8400 C   0  0  0  0  0  0  0  0  0  0  0  0
  125.1900  124.2280   58.0330 C   0  0  0  0  0  0  0  0  0  0  0  0
  124.3430  124.6980   57.3990 N   0  0  0  0  0  0  0  0  0  0  0  0
  127.3790  123.0010   58.2510 C   0  0  0  0  0  0  0  0  0  0  0  0
  127.6010  122.8120   56.4950 S   0  0  0  0  0  0  0  0  0  0  0  0
  128.3260  124.3530   55.8600 C   0  0  0  0  0  0  0  0  0  0  0  0
  129.8520  124.3540   55.9650 C   0  0  0  0  0  0  0  0  0  0  0  0
  130.5230  124.7390   55.0060 O   0  0  0  0  0  0  0  0  0  0  0  0
  130.3560  123.9210   57.1410 N   0  0  0  0  0  0  0  0  0  0  0  0
  131.6980  123.8210   57.4800 C   0  0  0  0  0  0  0  0  0  0  0  0
  132.7390  124.2240   56.7840 N   0  0  0  0  0  0  0  0  0  0  0  0
  133.8690  123.9690   57.4120 C   0  0  0  0  0  0  0  0  0  0  0  0
  133.7580  123.3460   58.6510 C   0  0  0  0  0  0  0  0  0  0  0  0
  132.0760  123.0830   59.0040 S   0  0  0  0  0  0  0  0  0  0  0  0
  128.4090  122.5120   58.9860 N   0  0  0  0  0  0  0  0  0  0  0  0
  1  2  1  0
  2  3  2  0
  3  4  1  0
  4  5  1  0
  4  6  2  0
  6  7  1  0
  7  8  3  0
  6  9  1  0
  9 10  1  0
 10 11  1  0
 11 12  1  0
 12 13  2  0
 12 14  1  0
 14 15  1  0
 15 16  2  0
 16 17  1  0
 17 18  2  0
 18 19  1  0
  9 20  2  0
 20  2  1  0
 19 15  1  0
M  END
>  <Binding energies>  (5) 
[-6.3]

>  <Ligand effiencies>  (5) 
[-0.3]

>  <Interactions>  (5) 
["V-B:TYR:539:C:9835, V-B:PRO:540:C:9849, V-B:TYR:539:CE2:9844, V-B:PRO:540:N:9852, V-B:ALA:541:CB:9860, V-B:PRO:540:CA:9851, V-B:MET:535:CE:9803, V-B:PRO:540:CB:9853, V-B:GLU:543:CD:9876, V-A:ASP:366:CB:3207, V-A:ASP:366:CG:3208, V-B:ASP:366:CG:8180, V-B:TYR:539:CZ:9845, V-A:ILE:369:CD1:3234, V-A:ILE:369:CG2:3232, V-A:ILE:369:CB:3231, H-A:TYR:531:OH:4790, V-A:ASP:366:CA:3205, V-A:ASP:366:C:3203, H-B:TYR:539:OH:9846, H-A:LYS:534:NZ:4818, H-B:TYR:531:OH:9763"]

$$$$
1o_Grossjean_2025
     RDKit          3D

 26 27  0  0  0  0  0  0  0  0999 V2000
  124.2020  124.5200   57.6130 C   0  0  0  0  0  0  0  0  0  0  0  0
  125.3720  124.2750   56.8450 O   0  0  0  0  0  0  0  0  0  0  0  0
  125.9810  123.0610   56.8670 C   0  0  0  0  0  0  0  0  0  0  0  0
  125.6620  122.1270   56.1250 O   0  0  0  0  0  0  0  0  0  0  0  0
  127.0840  122.9680   57.8810 C   0  0  0  0  0  0  0  0  0  0  0  0
  126.8700  123.2450   59.2390 C   0  0  0  0  0  0  0  0  0  0  0  0
  127.9140  123.1470   60.1550 C   0  0  0  0  0  0  0  0  0  0  0  0
  129.1920  122.7760   59.7340 C   0  0  0  0  0  0  0  0  0  0  0  0
  130.1710  122.7000   60.7440 N   0  0  0  0  0  0  0  0  0  0  0  0
  130.7200  121.6160   61.3370 C   0  0  0  0  0  0  0  0  0  0  0  0
  130.4720  120.4460   61.0450 O   0  0  0  0  0  0  0  0  0  0  0  0
  131.7510  121.9150   62.4350 C   0  0  0  0  0  0  0  0  0  0  0  0
  133.1450  122.2740   61.8820 C   0  0  0  0  0  0  0  0  0  0  0  0
  133.4890  124.0580   61.8500 S   0  0  0  0  0  0  0  0  0  0  0  0
  133.1360  124.7300   63.4620 C   0  0  0  0  0  0  0  0  0  0  0  0
  134.1970  124.6920   64.3070 N   0  0  0  0  0  0  0  0  0  0  0  0
  134.0490  125.1840   65.5600 C   0  0  0  0  0  0  0  0  0  0  0  0
  135.2820  125.1200   66.4420 C   0  0  0  0  0  0  0  0  0  0  0  0
  132.8480  125.7170   66.0210 C   0  0  0  0  0  0  0  0  0  0  0  0
  131.7410  125.7380   65.1670 C   0  0  0  0  0  0  0  0  0  0  0  0
  130.4310  126.3150   65.7010 C   0  0  0  0  0  0  0  0  0  0  0  0
  131.8690  125.2260   63.8560 C   0  0  0  0  0  0  0  0  0  0  0  0
  130.7060  125.1850   62.9670 C   0  0  0  0  0  0  0  0  0  0  0  0
  129.7850  125.1550   62.2660 N   0  0  0  0  0  0  0  0  0  0  0  0
  129.4130  122.4920   58.3780 C   0  0  0  0  0  0  0  0  0  0  0  0
  128.3670  122.5900   57.4640 C   0  0  0  0  0  0  0  0  0  0  0  0
  1  2  1  0
  2  3  1  0
  3  4  2  0
  3  5  1  0
  5  6  2  0
  6  7  1  0
  7  8  2  0
  8  9  1  0
  9 10  1  0
 10 11  2  0
 10 12  1  0
 12 13  1  0
 13 14  1  0
 14 15  1  0
 15 16  2  0
 16 17  1  0
 17 18  1  0
 17 19  2  0
 19 20  1  0
 20 21  1  0
 20 22  2  0
 22 23  1  0
 23 24  3  0
  8 25  1  0
 25 26  2  0
 26  5  1  0
 22 15  1  0
M  END
>  <Binding energies>  (6) 
[-7.54]

>  <Ligand effiencies>  (6) 
[-0.27925925925925926]

>  <Interactions>  (6) 
["V-B:TYR:539:C:9835, V-B:TYR:539:CD2:9842, V-A:LEU:475:CD2:4254, V-B:TYR:539:CE2:9844, V-B:PRO:540:N:9852, V-B:PRO:540:CA:9851, V-B:MET:535:CE:9803, V-B:PRO:540:CB:9853, V-A:GLU:543:CD:4903, H-A:TYR:484:OH:4343, H-B:TYR:539:N:9838, V-B:LEU:363:CD1:8156, V-B:TYR:539:CZ:9845, V-B:TYR:531:CE2:9761, V-B:ASP:366:CB:8179, V-B:LEU:363:CA:8152, V-A:ILE:369:CD1:3234, V-A:ARG:545:CZ:4921, V-A:GLY:453:CA:4039, H-A:GLY:454:N:4045, V-A:ARG:545:CD:4918, V-A:ARG:545:CG:4917, V-B:TYR:539:CG:9840, H-B:TYR:531:OH:9763, V-A:GLY:453:C:4037, V-A:HIS:456:CD2:4063"]

$$$$
1p_Grossjean_2025
     RDKit          3D

 21 22  0  0  0  0  0  0  0  0999 V2000
  127.6700  123.2850   60.4610 C   0  0  0  0  0  0  0  0  0  0  0  0
  128.9350  122.4500   60.4190 C   0  0  0  0  0  0  0  0  0  0  0  0
  128.9880  121.1780   60.9870 C   0  0  0  0  0  0  0  0  0  0  0  0
  130.1850  120.4570   60.9300 C   0  0  0  0  0  0  0  0  0  0  0  0
  130.2240  119.0720   61.5730 C   0  0  0  0  0  0  0  0  0  0  0  0
  131.3080  121.0310   60.2920 C   0  0  0  0  0  0  0  0  0  0  0  0
  132.5850  120.3170   60.2620 C   0  0  0  0  0  0  0  0  0  0  0  0
  133.5950  119.7520   60.2380 N   0  0  0  0  0  0  0  0  0  0  0  0
  131.1570  122.3180   59.7220 C   0  0  0  0  0  0  0  0  0  0  0  0
  132.4630  123.1790   58.8760 S   0  0  0  0  0  0  0  0  0  0  0  0
  131.6960  124.5820   58.0150 C   0  0  0  0  0  0  0  0  0  0  0  0
  131.5540  124.3770   56.4940 C   0  0  0  0  0  0  0  0  0  0  0  0
  130.1190  124.0620   56.0480 C   0  0  0  0  0  0  0  0  0  0  0  0
  129.7090  124.4950   54.9690 O   0  0  0  0  0  0  0  0  0  0  0  0
  129.3970  123.2970   56.8980 N   0  0  0  0  0  0  0  0  0  0  0  0
  128.0850  122.8700   56.7360 C   0  0  0  0  0  0  0  0  0  0  0  0
  126.9940  123.5340   57.2940 C   0  0  0  0  0  0  0  0  0  0  0  0
  125.8930  122.8050   56.9060 C   0  0  0  0  0  0  0  0  0  0  0  0
  126.3010  121.7550   56.1550 O   0  0  0  0  0  0  0  0  0  0  0  0
  127.6930  121.8060   56.0560 N   0  0  0  0  0  0  0  0  0  0  0  0
  129.9970  123.0180   59.8010 N   0  0  0  0  0  0  0  0  0  0  0  0
  1  2  1  0
  2  3  2  0
  3  4  1  0
  4  5  1  0
  4  6  2  0
  6  7  1  0
  7  8  3  0
  6  9  1  0
  9 10  1  0
 10 11  1  0
 11 12  1  0
 12 13  1  0
 13 14  2  0
 13 15  1  0
 15 16  1  0
 16 17  1  0
 17 18  2  0
 18 19  1  0
 19 20  1  0
  9 21  2  0
 21  2  1  0
 20 16  2  0
M  END
>  <Binding energies>  (7) 
[-7.53]

>  <Ligand effiencies>  (7) 
[-0.3422727272727273]

>  <Interactions>  (7) 
["V-B:TYR:539:C:9835, V-B:TYR:539:CD2:9842, V-A:LEU:475:CD2:4254, V-A:TRP:381:CZ2:3365, V-A:LEU:475:CD1:4253, V-B:PRO:540:C:9849, V-B:TYR:539:CE2:9844, V-B:PRO:540:N:9852, V-B:ALA:541:CB:9860, V-A:TRP:381:CH2:3367, V-B:PRO:540:CA:9851, V-B:MET:535:CE:9803, V-B:PRO:540:CB:9853, V-A:PRO:482:CB:4321, V-B:ALA:541:CA:9858, V-A:TYR:531:CZ:4789, H-B:TYR:539:N:9838, V-B:PRO:540:CD:9855, V-B:TYR:539:CZ:9845, V-B:TYR:539:CE1:9843, V-A:ILE:369:CG2:3232, V-A:TYR:531:CE1:4787, H-B:TYR:539:OH:9846, H-A:LYS:534:NZ:4818"]

$$$$
2a_Ghoteimi_2023
     RDKit          3D

 48 53  0  0  0  0  0  0  0  0999 V2000
  132.6770  130.7530   58.2170 C   0  0  0  0  0  0  0  0  0  0  0  0
  132.0230  131.5590   57.0910 C   0  0  0  0  0  0  0  0  0  0  0  0
  131.0860  132.4720   57.6470 O   0  0  0  0  0  0  0  0  0  0  0  0
  129.9430  132.7930   56.9880 C   0  0  0  0  0  0  0  0  0  0  0  0
  129.9270  133.3780   55.9000 O   0  0  0  0  0  0  0  0  0  0  0  0
  128.7000  132.3610   57.7110 C   0  0  0  0  0  0  0  0  0  0  0  0
  127.8690  131.3450   57.2170 C   0  0  0  0  0  0  0  0  0  0  0  0
  126.7250  130.9670   57.9130 C   0  0  0  0  0  0  0  0  0  0  0  0
  126.3880  131.5900   59.1160 C   0  0  0  0  0  0  0  0  0  0  0  0
  125.2080  131.1330   59.7330 N   0  0  0  0  0  0  0  0  0  0  0  0
  123.9270  131.5140   59.5400 C   0  0  0  0  0  0  0  0  0  0  0  0
  123.5620  132.4120   58.7790 O   0  0  0  0  0  0  0  0  0  0  0  0
  122.8890  130.7660   60.3870 C   0  0  0  0  0  0  0  0  0  0  0  0
  123.1120  130.9480   62.1860 S   0  0  0  0  0  0  0  0  0  0  0  0
  124.5020  129.9210   62.6030 C   0  0  0  0  0  0  0  0  0  0  0  0
  125.0620  129.2980   61.5390 N   0  0  0  0  0  0  0  0  0  0  0  0
  126.1260  128.4780   61.7300 C   0  0  0  0  0  0  0  0  0  0  0  0
  126.6850  127.8170   60.5120 C   0  0  0  0  0  0  0  0  0  0  0  0
  125.9830  127.8140   59.3010 C   0  0  0  0  0  0  0  0  0  0  0  0
  126.5030  127.1860   58.1730 C   0  0  0  0  0  0  0  0  0  0  0  0
  127.7490  126.5440   58.2100 C   0  0  0  0  0  0  0  0  0  0  0  0
  128.2450  125.8920   57.0770 N   0  0  0  0  0  0  0  0  0  0  0  0
  128.8640  124.5540   57.1670 C   0  0  0  0  0  0  0  0  0  0  0  0
  129.0190  123.8450   55.8050 C   0  0  0  0  0  0  0  0  0  0  0  0
  129.7330  124.6750   54.9040 O   0  0  0  0  0  0  0  0  0  0  0  0
  129.0540  125.9000   54.6790 C   0  0  0  0  0  0  0  0  0  0  0  0
  128.8990  126.6730   56.0060 C   0  0  0  0  0  0  0  0  0  0  0  0
  128.4430  126.5390   59.4310 C   0  0  0  0  0  0  0  0  0  0  0  0
  127.9240  127.1690   60.5570 C   0  0  0  0  0  0  0  0  0  0  0  0
  126.6630  128.2770   63.0050 C   0  0  0  0  0  0  0  0  0  0  0  0
  126.1010  128.9120   64.1210 C   0  0  0  0  0  0  0  0  0  0  0  0
  126.7210  128.6470   65.4540 C   0  0  0  0  0  0  0  0  0  0  0  0
  127.7960  129.4230   65.8960 C   0  0  0  0  0  0  0  0  0  0  0  0
  128.3930  129.1720   67.1270 C   0  0  0  0  0  0  0  0  0  0  0  0
  127.9310  128.1380   67.9570 C   0  0  0  0  0  0  0  0  0  0  0  0
  128.5290  127.8580   69.1890 N   0  0  0  0  0  0  0  0  0  0  0  0
  127.7950  127.0460   70.1800 C   0  0  0  0  0  0  0  0  0  0  0  0
  128.6970  126.4920   71.3030 C   0  0  0  0  0  0  0  0  0  0  0  0
  129.3920  127.5550   71.9370 O   0  0  0  0  0  0  0  0  0  0  0  0
  130.2140  128.2640   71.0230 C   0  0  0  0  0  0  0  0  0  0  0  0
  129.3530  128.8600   69.8910 C   0  0  0  0  0  0  0  0  0  0  0  0
  126.8600  127.3570   67.5010 C   0  0  0  0  0  0  0  0  0  0  0  0
  126.2630  127.6070   66.2680 C   0  0  0  0  0  0  0  0  0  0  0  0
  124.9890  129.7660   63.9200 C   0  0  0  0  0  0  0  0  0  0  0  0
  124.3930  130.5010   65.0400 C   0  0  0  0  0  0  0  0  0  0  0  0
  123.9240  131.0790   65.9260 N   0  0  0  0  0  0  0  0  0  0  0  0
  127.2100  132.6130   59.6130 C   0  0  0  0  0  0  0  0  0  0  0  0
  128.3560  132.9890   58.9160 C   0  0  0  0  0  0  0  0  0  0  0  0
  1  2  1  0
  2  3  1  0
  3  4  1  0
  4  5  2  0
  4  6  1  0
  6  7  2  0
  7  8  1  0
  8  9  2  0
  9 10  1  0
 10 11  1  0
 11 12  2  0
 11 13  1  0
 13 14  1  0
 14 15  1  0
 15 16  2  0
 16 17  1  0
 17 18  1  0
 18 19  2  0
 19 20  1  0
 20 21  2  0
 21 22  1  0
 22 23  1  0
 23 24  1  0
 24 25  1  0
 25 26  1  0
 26 27  1  0
 21 28  1  0
 28 29  2  0
 17 30  2  0
 30 31  1  0
 31 32  1  0
 32 33  2  0
 33 34  1  0
 34 35  2  0
 35 36  1  0
 36 37  1  0
 37 38  1  0
 38 39  1  0
 39 40  1  0
 40 41  1  0
 35 42  1  0
 42 43  2  0
 31 44  2  0
 44 45  1  0
 45 46  3  0
  9 47  1  0
 47 48  2  0
 48  6  1  0
 44 15  1  0
 29 18  1  0
 43 32  1  0
 27 22  1  0
 41 36  1  0
M  END
>  <Binding energies>  (8) 
[-11.51]

>  <Ligand effiencies>  (8) 
[-0.23489795918367345]

>  <Interactions>  (8) 
["V-B:MET:535:CE:9803, V-B:GLU:543:CD:9876, V-A:GLU:543:CG:4902, V-A:PRO:540:N:4879, V-A:TYR:539:CE2:4871, V-A:TYR:531:CE2:4788, V-A:PRO:540:CA:4878, V-A:TYR:539:CE1:4870, V-A:TYR:539:CZ:4872, V-A:PRO:540:CB:4880, V-A:LEU:363:CD1:3184, V-A:TYR:539:C:4862, V-A:PRO:540:CD:4882, V-A:TYR:539:CD2:4869, H-B:GLY:454:N:9017, V-B:ILE:369:CD1:8206, H-A:TYR:539:N:4865, V-B:ASP:366:CG:8180, V-B:TYR:539:CZ:9845, V-B:ASP:366:CB:8179, V-A:TYR:539:CD1:4868, V-A:TYR:539:CG:4867, V-B:ARG:545:CZ:9894, H-A:TYR:539:OH:4873, V-B:ASP:366:CA:8177, V-B:ILE:369:CB:8203, V-A:GLU:543:CB:4901, V-B:HIS:456:CE1:9037, V-B:ARG:545:CG:9890, H-B:TYR:484:OH:9315, V-A:HIS:456:CE1:4064, V-B:GLU:543:CB:9874, V-B:TYR:539:CE1:9843, H-B:LYS:547:NZ:9919, V-B:HIS:456:CD2:9035, V-B:GLU:543:C:9870, H-B:ARG:545:NH2:9896, H-B:TYR:539:OH:9846, H-A:LYS:534:NZ:4818"]

$$$$
2aa_Ghoteimi_2023
     RDKit          3D

 48 53  0  0  0  0  0  0  0  0999 V2000
  132.0190  130.7730   57.9840 C   0  0  0  0  0  0  0  0  0  0  0  0
  132.0630  131.8240   56.8690 C   0  0  0  0  0  0  0  0  0  0  0  0
  131.1420  132.8650   57.1660 O   0  0  0  0  0  0  0  0  0  0  0  0
  129.9420  132.9410   56.5350 C   0  0  0  0  0  0  0  0  0  0  0  0
  129.8080  133.3420   55.3740 O   0  0  0  0  0  0  0  0  0  0  0  0
  128.7940  132.4760   57.3840 C   0  0  0  0  0  0  0  0  0  0  0  0
  127.9310  131.4520   56.9670 C   0  0  0  0  0  0  0  0  0  0  0  0
  126.8780  131.0400   57.7780 C   0  0  0  0  0  0  0  0  0  0  0  0
  126.6610  131.6460   59.0170 C   0  0  0  0  0  0  0  0  0  0  0  0
  125.5700  131.1500   59.7570 N   0  0  0  0  0  0  0  0  0  0  0  0
  124.3590  131.7010   59.9890 C   0  0  0  0  0  0  0  0  0  0  0  0
  123.9760  132.7830   59.5400 O   0  0  0  0  0  0  0  0  0  0  0  0
  123.4290  130.8530   60.8670 C   0  0  0  0  0  0  0  0  0  0  0  0
  123.9540  130.7840   62.1970 O   0  0  0  0  0  0  0  0  0  0  0  0
  125.0120  129.9320   62.4850 C   0  0  0  0  0  0  0  0  0  0  0  0
  125.6560  129.3370   61.4430 N   0  0  0  0  0  0  0  0  0  0  0  0
  126.6970  128.5020   61.6900 C   0  0  0  0  0  0  0  0  0  0  0  0
  127.3530  127.8800   60.4980 C   0  0  0  0  0  0  0  0  0  0  0  0
  126.7770  127.9890   59.2280 C   0  0  0  0  0  0  0  0  0  0  0  0
  127.3870  127.4180   58.1130 C   0  0  0  0  0  0  0  0  0  0  0  0
  128.6040  126.7280   58.2260 C   0  0  0  0  0  0  0  0  0  0  0  0
  129.2240  126.1380   57.1190 N   0  0  0  0  0  0  0  0  0  0  0  0
  129.6560  124.7250   57.1400 C   0  0  0  0  0  0  0  0  0  0  0  0
  130.6220  124.3520   55.9960 C   0  0  0  0  0  0  0  0  0  0  0  0
  130.0440  124.6870   54.7450 O   0  0  0  0  0  0  0  0  0  0  0  0
  129.7780  126.0770   54.6510 C   0  0  0  0  0  0  0  0  0  0  0  0
  128.7860  126.5020   55.7550 C   0  0  0  0  0  0  0  0  0  0  0  0
  129.1670  126.6040   59.5050 C   0  0  0  0  0  0  0  0  0  0  0  0
  128.5550  127.1730   60.6180 C   0  0  0  0  0  0  0  0  0  0  0  0
  127.1110  128.2290   62.9970 C   0  0  0  0  0  0  0  0  0  0  0  0
  126.4580  128.8200   64.0860 C   0  0  0  0  0  0  0  0  0  0  0  0
  126.9280  128.4690   65.4610 C   0  0  0  0  0  0  0  0  0  0  0  0
  128.1150  129.0110   65.9600 C   0  0  0  0  0  0  0  0  0  0  0  0
  128.5700  128.6740   67.2320 C   0  0  0  0  0  0  0  0  0  0  0  0
  127.8560  127.7730   68.0370 C   0  0  0  0  0  0  0  0  0  0  0  0
  128.2910  127.4220   69.3190 N   0  0  0  0  0  0  0  0  0  0  0  0
  128.5330  128.4440   70.3550 C   0  0  0  0  0  0  0  0  0  0  0  0
  128.6580  127.8600   71.7780 C   0  0  0  0  0  0  0  0  0  0  0  0
  129.6680  126.8620   71.8050 O   0  0  0  0  0  0  0  0  0  0  0  0
  129.3740  125.7960   70.9160 C   0  0  0  0  0  0  0  0  0  0  0  0
  129.2690  126.3260   69.4710 C   0  0  0  0  0  0  0  0  0  0  0  0
  126.6620  127.2400   67.5310 C   0  0  0  0  0  0  0  0  0  0  0  0
  126.2080  127.5780   66.2600 C   0  0  0  0  0  0  0  0  0  0  0  0
  125.3880  129.7070   63.8210 C   0  0  0  0  0  0  0  0  0  0  0  0
  124.6810  130.4080   64.8950 C   0  0  0  0  0  0  0  0  0  0  0  0
  124.1220  130.9620   65.7440 N   0  0  0  0  0  0  0  0  0  0  0  0
  127.5230  132.6660   59.4450 C   0  0  0  0  0  0  0  0  0  0  0  0
  128.5780  133.0740   58.6320 C   0  0  0  0  0  0  0  0  0  0  0  0
  1  2  1  0
  2  3  1  0
  3  4  1  0
  4  5  2  0
  4  6  1  0
  6  7  2  0
  7  8  1  0
  8  9  2  0
  9 10  1  0
 10 11  1  0
 11 12  2  0
 11 13  1  0
 13 14  1  0
 14 15  1  0
 15 16  2  0
 16 17  1  0
 17 18  1  0
 18 19  2  0
 19 20  1  0
 20 21  2  0
 21 22  1  0
 22 23  1  0
 23 24  1  0
 24 25  1  0
 25 26  1  0
 26 27  1  0
 21 28  1  0
 28 29  2  0
 17 30  2  0
 30 31  1  0
 31 32  1  0
 32 33  2  0
 33 34  1  0
 34 35  2  0
 35 36  1  0
 36 37  1  0
 37 38  1  0
 38 39  1  0
 39 40  1  0
 40 41  1  0
 35 42  1  0
 42 43  2  0
 31 44  2  0
 44 45  1  0
 45 46  3  0
  9 47  1  0
 47 48  2  0
 48  6  1  0
 44 15  1  0
 29 18  1  0
 43 32  1  0
 27 22  1  0
 41 36  1  0
M  END
>  <Binding energies>  (9) 
[-9.81]

>  <Ligand effiencies>  (9) 
[-0.20020408163265307]

>  <Interactions>  (9) 
["V-B:GLU:543:CD:9876, V-A:PRO:540:N:4879, V-A:TYR:539:CE2:4871, V-A:PRO:540:CA:4878, V-A:TYR:539:CE1:4870, V-A:TYR:539:CZ:4872, V-A:PRO:540:CB:4880, V-A:LEU:363:CD1:3184, V-A:TYR:539:C:4862, V-A:PRO:540:CD:4882, V-A:TYR:539:CD2:4869, H-B:GLY:454:N:9017, V-B:ILE:369:CD1:8206, H-A:TYR:539:N:4865, V-B:ASP:366:CG:8180, V-B:TYR:539:CZ:9845, V-A:TYR:539:CD1:4868, V-A:TYR:539:CG:4867, V-B:ARG:545:CZ:9894, H-A:TYR:539:OH:4873, V-B:ASP:366:CA:8177, V-B:HIS:456:CE1:9037, V-B:ARG:545:CG:9890, H-B:TYR:484:OH:9315, V-A:HIS:456:CE1:4064, V-B:GLU:543:CB:9874, H-B:LYS:547:NZ:9919, V-B:HIS:456:CD2:9035, V-B:GLU:543:C:9870, V-A:TYR:531:CE1:4787, H-B:TYR:539:OH:9846, H-A:LYS:534:NZ:4818"]

$$$$
2b_Ghoteimi_2023
     RDKit          3D

 42 47  0  0  0  0  0  0  0  0999 V2000
  123.4690  129.6340   66.2230 N   0  0  0  0  0  0  0  0  0  0  0  0
  124.2130  129.8530   65.3650 C   0  0  0  0  0  0  0  0  0  0  0  0
  125.1620  130.1280   64.2820 C   0  0  0  0  0  0  0  0  0  0  0  0
  126.5510  129.9230   64.4720 C   0  0  0  0  0  0  0  0  0  0  0  0
  127.1510  129.4260   65.7460 C   0  0  0  0  0  0  0  0  0  0  0  0
  128.1210  130.1800   66.4080 C   0  0  0  0  0  0  0  0  0  0  0  0
  128.6840  129.7210   67.5960 C   0  0  0  0  0  0  0  0  0  0  0  0
  128.3040  128.4860   68.1440 C   0  0  0  0  0  0  0  0  0  0  0  0
  128.8450  128.0100   69.3400 N   0  0  0  0  0  0  0  0  0  0  0  0
  129.5920  128.9390   70.2110 C   0  0  0  0  0  0  0  0  0  0  0  0
  130.4430  128.2230   71.2810 C   0  0  0  0  0  0  0  0  0  0  0  0
  129.6300  127.3470   72.0470 O   0  0  0  0  0  0  0  0  0  0  0  0
  129.0190  126.3560   71.2360 C   0  0  0  0  0  0  0  0  0  0  0  0
  128.1240  127.0260   70.1720 C   0  0  0  0  0  0  0  0  0  0  0  0
  127.3320  127.7350   67.4700 C   0  0  0  0  0  0  0  0  0  0  0  0
  126.7660  128.1950   66.2840 C   0  0  0  0  0  0  0  0  0  0  0  0
  127.4180  130.1950   63.4060 C   0  0  0  0  0  0  0  0  0  0  0  0
  126.9130  130.6270   62.1760 C   0  0  0  0  0  0  0  0  0  0  0  0
  127.7920  130.9020   60.9980 C   0  0  0  0  0  0  0  0  0  0  0  0
  127.3820  130.5560   59.7050 C   0  0  0  0  0  0  0  0  0  0  0  0
  128.1880  130.8240   58.6020 C   0  0  0  0  0  0  0  0  0  0  0  0
  129.4430  131.4370   58.7510 C   0  0  0  0  0  0  0  0  0  0  0  0
  130.2510  131.7390   57.6500 N   0  0  0  0  0  0  0  0  0  0  0  0
  129.9880  132.9580   56.8570 C   0  0  0  0  0  0  0  0  0  0  0  0
  130.6820  132.9600   55.4780 C   0  0  0  0  0  0  0  0  0  0  0  0
  132.0760  132.7460   55.6360 O   0  0  0  0  0  0  0  0  0  0  0  0
  132.3440  131.4960   56.2510 C   0  0  0  0  0  0  0  0  0  0  0  0
  131.6980  131.4480   57.6520 C   0  0  0  0  0  0  0  0  0  0  0  0
  129.8460  131.7880   60.0480 C   0  0  0  0  0  0  0  0  0  0  0  0
  129.0380  131.5220   61.1500 C   0  0  0  0  0  0  0  0  0  0  0  0
  125.5810  130.8210   61.9950 N   0  0  0  0  0  0  0  0  0  0  0  0
  124.7270  130.5960   63.0220 C   0  0  0  0  0  0  0  0  0  0  0  0
  123.0230  130.9050   62.6110 S   0  0  0  0  0  0  0  0  0  0  0  0
  122.9250  131.1310   60.8090 C   0  0  0  0  0  0  0  0  0  0  0  0
  123.7860  132.3000   60.3290 C   0  0  0  0  0  0  0  0  0  0  0  0
  123.7960  132.5910   59.1310 O   0  0  0  0  0  0  0  0  0  0  0  0
  124.4930  132.9350   61.2890 N   0  0  0  0  0  0  0  0  0  0  0  0
  125.3380  134.0250   61.1310 C   0  0  0  0  0  0  0  0  0  0  0  0
  126.6910  133.9920   61.4630 C   0  0  0  0  0  0  0  0  0  0  0  0
  127.1640  135.2480   61.1620 C   0  0  0  0  0  0  0  0  0  0  0  0
  126.1490  135.9980   60.6740 O   0  0  0  0  0  0  0  0  0  0  0  0
  124.9950  135.2110   60.6570 N   0  0  0  0  0  0  0  0  0  0  0  0
  1  2  3  0
  2  3  1  0
  3  4  2  0
  4  5  1  0
  5  6  2  0
  6  7  1  0
  7  8  2  0
  8  9  1  0
  9 10  1  0
 10 11  1  0
 11 12  1  0
 12 13  1  0
 13 14  1  0
  8 15  1  0
 15 16  2  0
  4 17  1  0
 17 18  2  0
 18 19  1  0
 19 20  2  0
 20 21  1  0
 21 22  2  0
 22 23  1  0
 23 24  1  0
 24 25  1  0
 25 26  1  0
 26 27  1  0
 27 28  1  0
 22 29  1  0
 29 30  2  0
 18 31  1  0
 31 32  2  0
 32 33  1  0
 33 34  1  0
 34 35  1  0
 35 36  2  0
 35 37  1  0
 37 38  1  0
 38 39  1  0
 39 40  2  0
 40 41  1  0
 41 42  1  0
 32  3  1  0
 42 38  2  0
 16  5  1  0
 30 19  1  0
 14  9  1  0
 28 23  1  0
M  END
>  <Binding energies>  (10) 
[-10.13]

>  <Ligand effiencies>  (10) 
[-0.23558139534883724]

>  <Interactions>  (10) 
["V-A:GLU:543:CG:4902, V-A:PRO:540:N:4879, V-A:TYR:539:CE2:4871, V-A:TYR:531:CE2:4788, V-A:PRO:540:CA:4878, V-A:TYR:539:CE1:4870, V-A:PRO:540:CB:4880, V-A:LEU:363:CD1:3184, V-A:TYR:539:C:4862, V-A:PRO:540:CD:4882, V-A:TYR:539:CD2:4869, H-B:GLY:454:N:9017, V-B:ILE:369:CD1:8206, V-B:LEU:475:CD2:9226, V-B:TRP:381:CH2:8339, V-B:ASP:366:CG:8180, V-A:TYR:539:CD1:4868, V-A:TYR:539:CG:4867, V-A:TYR:539:CA:4864, V-B:ARG:545:CZ:9894, H-A:TYR:539:OH:4873, V-A:ILE:538:CA:4855, V-B:ASP:366:CA:8177, V-B:ILE:369:CG2:8204, V-B:ILE:369:CB:8203, V-A:GLU:543:CB:4901, V-B:TYR:484:CE1:9312, V-B:HIS:456:CE1:9037, V-B:TYR:484:CZ:9314, V-B:ARG:545:CD:9891, V-A:HIS:456:CE1:4064, V-B:GLU:543:CB:9874, H-B:LYS:547:NZ:9919, V-B:GLU:543:C:9870, V-A:GLU:543:C:4897, V-B:ILE:369:CG1:8205, H-B:ARG:545:NE:9892"]

$$$$
2c_Ghoteimi_2023
     RDKit          3D

 42 47  0  0  0  0  0  0  0  0999 V2000
  130.4980  122.8720   64.4740 N   0  0  0  0  0  0  0  0  0  0  0  0
  130.5140  123.7620   63.7360 C   0  0  0  0  0  0  0  0  0  0  0  0
  130.5340  124.8940   62.8040 C   0  0  0  0  0  0  0  0  0  0  0  0
  130.3550  126.2190   63.2750 C   0  0  0  0  0  0  0  0  0  0  0  0
  130.1340  126.5690   64.7100 C   0  0  0  0  0  0  0  0  0  0  0  0
  129.0710  127.3970   65.0760 C   0  0  0  0  0  0  0  0  0  0  0  0
  128.8560  127.7240   66.4120 C   0  0  0  0  0  0  0  0  0  0  0  0
  129.7070  127.2440   67.4190 C   0  0  0  0  0  0  0  0  0  0  0  0
  129.4980  127.5430   68.7680 N   0  0  0  0  0  0  0  0  0  0  0  0
  129.0770  126.4690   69.6890 C   0  0  0  0  0  0  0  0  0  0  0  0
  128.5150  126.9980   71.0260 C   0  0  0  0  0  0  0  0  0  0  0  0
  129.4610  127.8550   71.6460 O   0  0  0  0  0  0  0  0  0  0  0  0
  129.7700  128.9730   70.8290 C   0  0  0  0  0  0  0  0  0  0  0  0
  130.3640  128.4970   69.4870 C   0  0  0  0  0  0  0  0  0  0  0  0
  130.7740  126.4160   67.0420 C   0  0  0  0  0  0  0  0  0  0  0  0
  130.9870  126.0880   65.7060 C   0  0  0  0  0  0  0  0  0  0  0  0
  130.3860  127.2660   62.3460 C   0  0  0  0  0  0  0  0  0  0  0  0
  130.6150  127.0050   60.9910 C   0  0  0  0  0  0  0  0  0  0  0  0
  130.6750  128.0890   59.9630 C   0  0  0  0  0  0  0  0  0  0  0  0
  131.4540  129.2310   60.1740 C   0  0  0  0  0  0  0  0  0  0  0  0
  131.5180  130.2420   59.2170 C   0  0  0  0  0  0  0  0  0  0  0  0
  130.7940  130.1530   58.0180 C   0  0  0  0  0  0  0  0  0  0  0  0
  130.8660  131.1470   57.0370 N   0  0  0  0  0  0  0  0  0  0  0  0
  129.7560  132.1080   56.8800 C   0  0  0  0  0  0  0  0  0  0  0  0
  129.7890  132.8800   55.5440 C   0  0  0  0  0  0  0  0  0  0  0  0
  131.0410  133.5270   55.3880 O   0  0  0  0  0  0  0  0  0  0  0  0
  132.1100  132.5940   55.3740 C   0  0  0  0  0  0  0  0  0  0  0  0
  132.1450  131.8080   56.7020 C   0  0  0  0  0  0  0  0  0  0  0  0
  130.0240  129.0000   57.8060 C   0  0  0  0  0  0  0  0  0  0  0  0
  129.9620  127.9890   58.7620 C   0  0  0  0  0  0  0  0  0  0  0  0
  130.7890  125.7360   60.5430 N   0  0  0  0  0  0  0  0  0  0  0  0
  130.7320  124.7030   61.4180 C   0  0  0  0  0  0  0  0  0  0  0  0
  130.9690  123.1130   60.6580 S   0  0  0  0  0  0  0  0  0  0  0  0
  129.5860  122.0510   61.1730 C   0  0  0  0  0  0  0  0  0  0  0  0
  128.2510  122.5290   60.6000 C   0  0  0  0  0  0  0  0  0  0  0  0
  127.3510  122.8700   61.3690 O   0  0  0  0  0  0  0  0  0  0  0  0
  128.1630  122.5340   59.2520 N   0  0  0  0  0  0  0  0  0  0  0  0
  127.0740  122.9360   58.4930 C   0  0  0  0  0  0  0  0  0  0  0  0
  126.6860  122.4690   57.3270 N   0  0  0  0  0  0  0  0  0  0  0  0
  125.6010  123.0820   56.8960 C   0  0  0  0  0  0  0  0  0  0  0  0
  125.0860  124.0750   57.7230 C   0  0  0  0  0  0  0  0  0  0  0  0
  126.0840  124.2050   59.1400 S   0  0  0  0  0  0  0  0  0  0  0  0
  1  2  3  0
  2  3  1  0
  3  4  2  0
  4  5  1  0
  5  6  2  0
  6  7  1  0
  7  8  2  0
  8  9  1  0
  9 10  1  0
 10 11  1  0
 11 12  1  0
 12 13  1  0
 13 14  1  0
  8 15  1  0
 15 16  2  0
  4 17  1  0
 17 18  2  0
 18 19  1  0
 19 20  2  0
 20 21  1  0
 21 22  2  0
 22 23  1  0
 23 24  1  0
 24 25  1  0
 25 26  1  0
 26 27  1  0
 27 28  1  0
 22 29  1  0
 29 30  2  0
 18 31  1  0
 31 32  2  0
 32 33  1  0
 33 34  1  0
 34 35  1  0
 35 36  2  0
 35 37  1  0
 37 38  1  0
 38 39  2  0
 39 40  1  0
 40 41  2  0
 41 42  1  0
 32  3  1  0
 42 38  1  0
 16  5  1  0
 30 19  1  0
 14  9  1  0
 28 23  1  0
M  END
>  <Binding energies>  (11) 
[-10.49]

>  <Ligand effiencies>  (11) 
[-0.24395348837209302]

>  <Interactions>  (11) 
["V-B:TYR:539:C:9835, V-B:PRO:540:C:9849, V-B:PRO:540:N:9852, V-B:ALA:541:CB:9860, H-B:TYR:539:O:9836, V-B:PRO:540:CA:9851, V-B:MET:535:CE:9803, V-B:PRO:540:CB:9853, H-B:ALA:541:N:9859, V-B:GLU:543:CD:9876, V-A:TYR:539:CE1:4870, V-A:PRO:540:CB:4880, V-A:LEU:363:CD1:3184, V-A:PRO:540:CD:4882, V-A:GLU:543:CD:4903, H-A:TYR:484:OH:4343, H-A:TYR:539:N:4865, V-A:TYR:539:CD1:4868, V-A:ILE:538:CG2:4858, V-A:ILE:538:CA:4855, V-A:GLU:543:CB:4901, V-A:HIS:456:CE1:4064, V-B:GLU:543:C:9870, V-A:GLU:543:C:4897, V-A:ILE:538:CD1:4860"]

$$$$
2j_Grossjean_2025
     RDKit          3D

 23 24  0  0  0  0  0  0  0  0999 V2000
  124.5030  123.5090   62.1680 C   0  0  0  0  0  0  0  0  0  0  0  0
  125.4830  123.4760   61.0100 C   0  0  0  0  0  0  0  0  0  0  0  0
  125.0630  123.6520   59.6940 C   0  0  0  0  0  0  0  0  0  0  0  0
  126.0070  123.6160   58.6570 C   0  0  0  0  0  0  0  0  0  0  0  0
  125.5250  123.8140   57.2070 C   0  0  0  0  0  0  0  0  0  0  0  0
  124.2480  124.1970   57.1990 F   0  0  0  0  0  0  0  0  0  0  0  0
  126.2610  124.7490   56.6040 F   0  0  0  0  0  0  0  0  0  0  0  0
  125.6150  122.7000   56.4770 F   0  0  0  0  0  0  0  0  0  0  0  0
  127.3680  123.3990   58.9890 C   0  0  0  0  0  0  0  0  0  0  0  0
  128.3980  123.3520   57.9460 C   0  0  0  0  0  0  0  0  0  0  0  0
  129.2100  123.3160   57.1220 N   0  0  0  0  0  0  0  0  0  0  0  0
  127.7060  123.2300   60.3530 C   0  0  0  0  0  0  0  0  0  0  0  0
  129.3890  122.9520   60.8860 S   0  0  0  0  0  0  0  0  0  0  0  0
  129.3470  122.1130   62.5070 C   0  0  0  0  0  0  0  0  0  0  0  0
  130.2740  122.7180   63.5710 C   0  0  0  0  0  0  0  0  0  0  0  0
  131.1610  122.0390   64.0940 O   0  0  0  0  0  0  0  0  0  0  0  0
  130.0220  124.0110   63.8730 N   0  0  0  0  0  0  0  0  0  0  0  0
  130.7040  124.7970   64.7920 C   0  0  0  0  0  0  0  0  0  0  0  0
  131.9920  125.0620   64.8290 N   0  0  0  0  0  0  0  0  0  0  0  0
  132.2980  125.8490   65.8420 C   0  0  0  0  0  0  0  0  0  0  0  0
  131.2400  126.2400   66.6580 C   0  0  0  0  0  0  0  0  0  0  0  0
  129.7710  125.5330   66.0550 S   0  0  0  0  0  0  0  0  0  0  0  0
  126.7780  123.2700   61.3420 N   0  0  0  0  0  0  0  0  0  0  0  0
  1  2  1  0
  2  3  2  0
  3  4  1  0
  4  5  1  0
  5  6  1  0
  5  7  1  0
  5  8  1  0
  4  9  2  0
  9 10  1  0
 10 11  3  0
  9 12  1  0
 12 13  1  0
 13 14  1  0
 14 15  1  0
 15 16  2  0
 15 17  1  0
 17 18  1  0
 18 19  2  0
 19 20  1  0
 20 21  2  0
 21 22  1  0
 12 23  2  0
 23  2  1  0
 22 18  1  0
M  END
>  <Binding energies>  (12) 
[-6.46]

>  <Ligand effiencies>  (12) 
[-0.26916666666666667]

>  <Interactions>  (12) 
["V-B:TYR:539:C:9835, V-B:PRO:540:C:9849, V-B:PRO:540:N:9852, V-B:ALA:541:CB:9860, V-B:PRO:540:CA:9851, V-B:MET:535:CE:9803, V-B:PRO:540:CB:9853, H-B:ALA:541:N:9859, H-B:GLU:543:OE2:9878, V-B:GLU:543:CD:9876, V-B:ALA:541:CA:9858, H-A:TYR:484:OH:4343, V-B:GLU:543:CG:9875, V-B:PRO:540:CD:9855, V-B:LEU:363:CD1:8156, V-B:TYR:531:CE2:9761, V-A:HIS:456:CE1:4064, V-B:GLU:543:CB:9874, V-B:ASN:362:CB:8143, V-B:ASN:362:CG:8144"]

$$$$
3ab_Grossjean_2025
     RDKit          3D

 33 35  0  0  0  0  0  0  0  0999 V2000
  123.6320  124.7050   57.8960 C   0  0  0  0  0  0  0  0  0  0  0  0
  124.3010  124.3960   56.6810 O   0  0  0  0  0  0  0  0  0  0  0  0
  124.9680  123.2230   56.5290 C   0  0  0  0  0  0  0  0  0  0  0  0
  124.4220  122.1700   56.1880 O   0  0  0  0  0  0  0  0  0  0  0  0
  126.4380  123.3360   56.8140 C   0  0  0  0  0  0  0  0  0  0  0  0
  127.0600  124.5740   57.0340 C   0  0  0  0  0  0  0  0  0  0  0  0
  128.4250  124.6480   57.2970 C   0  0  0  0  0  0  0  0  0  0  0  0
  129.1960  123.4760   57.3440 C   0  0  0  0  0  0  0  0  0  0  0  0
  130.5790  123.4320   57.6060 N   0  0  0  0  0  0  0  0  0  0  0  0
  131.4520  124.4370   57.8270 C   0  0  0  0  0  0  0  0  0  0  0  0
  131.1760  125.6370   57.8240 O   0  0  0  0  0  0  0  0  0  0  0  0
  132.8950  124.0060   58.0980 C   0  0  0  0  0  0  0  0  0  0  0  0
  133.0950  123.2880   59.7560 S   0  0  0  0  0  0  0  0  0  0  0  0
  131.5960  122.4100   60.1430 C   0  0  0  0  0  0  0  0  0  0  0  0
  130.5110  123.2120   60.2530 N   0  0  0  0  0  0  0  0  0  0  0  0
  129.2980  122.6740   60.5400 C   0  0  0  0  0  0  0  0  0  0  0  0
  128.1470  123.6300   60.6420 C   0  0  0  0  0  0  0  0  0  0  0  0
  128.3690  125.0030   60.8340 C   0  0  0  0  0  0  0  0  0  0  0  0
  127.3040  125.8960   60.9280 C   0  0  0  0  0  0  0  0  0  0  0  0
  125.9980  125.4260   60.8330 C   0  0  0  0  0  0  0  0  0  0  0  0
  125.7510  124.0700   60.6460 C   0  0  0  0  0  0  0  0  0  0  0  0
  126.8180  123.1810   60.5530 C   0  0  0  0  0  0  0  0  0  0  0  0
  129.1560  121.2970   60.7460 C   0  0  0  0  0  0  0  0  0  0  0  0
  130.2680  120.4470   60.6570 C   0  0  0  0  0  0  0  0  0  0  0  0
  130.0710  118.9380   60.8960 C   0  0  0  0  0  0  0  0  0  0  0  0
  128.9020  118.6550   61.4760 F   0  0  0  0  0  0  0  0  0  0  0  0
  130.1110  118.2790   59.7370 F   0  0  0  0  0  0  0  0  0  0  0  0
  131.0360  118.4730   61.6910 F   0  0  0  0  0  0  0  0  0  0  0  0
  131.5320  121.0140   60.3550 C   0  0  0  0  0  0  0  0  0  0  0  0
  132.7350  120.1800   60.3050 C   0  0  0  0  0  0  0  0  0  0  0  0
  133.6840  119.5180   60.2670 N   0  0  0  0  0  0  0  0  0  0  0  0
  128.5800  122.2430   57.1310 C   0  0  0  0  0  0  0  0  0  0  0  0
  127.2150  122.1720   56.8670 C   0  0  0  0  0  0  0  0  0  0  0  0
  1  2  1  0
  2  3  1  0
  3  4  2  0
  3  5  1  0
  5  6  2  0
  6  7  1  0
  7  8  2  0
  8  9  1  0
  9 10  1  0
 10 11  2  0
 10 12  1  0
 12 13  1  0
 13 14  1  0
 14 15  2  0
 15 16  1  0
 16 17  1  0
 17 18  2  0
 18 19  1  0
 19 20  2  0
 20 21  1  0
 21 22  2  0
 16 23  2  0
 23 24  1  0
 24 25  1  0
 25 26  1  0
 25 27  1  0
 25 28  1  0
 24 29  2  0
 29 30  1  0
 30 31  3  0
  8 32  1  0
 32 33  2  0
 33  5  1  0
 29 14  1  0
 22 17  1  0
M  END
>  <Binding energies>  (13) 
[-7.34]

>  <Ligand effiencies>  (13) 
[-0.21588235294117647]

>  <Interactions>  (13) 
["V-B:TYR:539:C:9835, V-B:TYR:539:CD2:9842, V-A:LEU:475:CD2:4254, V-A:TRP:381:CZ2:3365, V-A:LEU:475:CD1:4253, V-B:PRO:540:C:9849, V-B:TYR:539:CE2:9844, V-B:PRO:540:N:9852, V-B:ALA:541:CB:9860, V-A:TRP:381:CH2:3367, V-B:PRO:540:CA:9851, V-B:MET:535:CE:9803, V-B:PRO:540:CB:9853, V-A:PRO:482:CB:4321, V-B:GLU:543:CD:9876, V-B:ALA:541:CA:9858, V-A:ASP:366:CB:3207, V-B:LEU:363:CB:8154, V-B:TYR:539:CA:9837, V-B:ASP:366:CG:8180, V-A:TRP:381:CZ3:3366, V-B:LEU:363:CD1:8156, V-B:TYR:539:CZ:9845, V-B:TYR:531:CE2:9761, V-B:ASP:366:CB:8179, V-B:LEU:363:CA:8152, V-B:TYR:539:CE1:9843, V-A:ILE:369:CG2:3232, V-A:PRO:482:CG:4322, H-A:TYR:531:OH:4790, V-A:TRP:381:CE2:3362, H-B:TYR:539:OH:9846, V-A:LEU:475:CG:4252, V-B:TYR:539:CD1:9841, V-B:TYR:539:CG:9840, H-B:TYR:531:OH:9763, V-B:TYR:539:CB:9839, V-A:TRP:381:CD2:3360, V-A:TRP:381:CE3:3363"]

$$$$
3ac_Grossjean_2025
     RDKit          3D

 31 33  0  0  0  0  0  0  0  0999 V2000
  136.1740  122.9820   75.6430 C   0  0  0  0  0  0  0  0  0  0  0  0
  135.4030  123.9620   76.3310 O   0  0  0  0  0  0  0  0  0  0  0  0
  134.4870  124.7180   75.6260 C   0  0  0  0  0  0  0  0  0  0  0  0
  134.9790  125.8550   74.9870 C   0  0  0  0  0  0  0  0  0  0  0  0
  134.1320  126.6760   74.2490 C   0  0  0  0  0  0  0  0  0  0  0  0
  132.7730  126.3750   74.1470 C   0  0  0  0  0  0  0  0  0  0  0  0
  132.0000  127.2520   73.3630 N   0  0  0  0  0  0  0  0  0  0  0  0
  130.6610  127.2820   73.1880 C   0  0  0  0  0  0  0  0  0  0  0  0
  129.8540  126.5390   73.7460 O   0  0  0  0  0  0  0  0  0  0  0  0
  130.1470  128.3430   72.2140 C   0  0  0  0  0  0  0  0  0  0  0  0
  128.7370  127.7490   71.2310 S   0  0  0  0  0  0  0  0  0  0  0  0
  129.2480  126.3110   70.3090 C   0  0  0  0  0  0  0  0  0  0  0  0
  129.5490  125.2520   71.0980 N   0  0  0  0  0  0  0  0  0  0  0  0
  129.9480  124.0810   70.5370 C   0  0  0  0  0  0  0  0  0  0  0  0
  130.2680  122.9600   71.4800 C   0  0  0  0  0  0  0  0  0  0  0  0
  129.3180  121.9640   71.7610 C   0  0  0  0  0  0  0  0  0  0  0  0
  129.6110  120.9180   72.6320 C   0  0  0  0  0  0  0  0  0  0  0  0
  130.8620  120.8550   73.2370 C   0  0  0  0  0  0  0  0  0  0  0  0
  131.8190  121.8300   72.9810 C   0  0  0  0  0  0  0  0  0  0  0  0
  131.5220  122.8750   72.1090 C   0  0  0  0  0  0  0  0  0  0  0  0
  130.0710  123.9580   69.1500 C   0  0  0  0  0  0  0  0  0  0  0  0
  129.7880  125.0460   68.3110 C   0  0  0  0  0  0  0  0  0  0  0  0
  129.9430  124.8680   66.7880 C   0  0  0  0  0  0  0  0  0  0  0  0
  129.0540  125.5790   66.0910 F   0  0  0  0  0  0  0  0  0  0  0  0
  131.1570  125.2600   66.3990 F   0  0  0  0  0  0  0  0  0  0  0  0
  129.7780  123.5860   66.4630 F   0  0  0  0  0  0  0  0  0  0  0  0
  129.3770  126.2680   68.9020 C   0  0  0  0  0  0  0  0  0  0  0  0
  129.1450  127.4530   68.0740 C   0  0  0  0  0  0  0  0  0  0  0  0
  128.9630  128.3890   67.4190 N   0  0  0  0  0  0  0  0  0  0  0  0
  132.2700  125.2280   74.7810 C   0  0  0  0  0  0  0  0  0  0  0  0
  133.1220  124.4090   75.5180 C   0  0  0  0  0  0  0  0  0  0  0  0
  1  2  1  0
  2  3  1  0
  3  4  2  0
  4  5  1  0
  5  6  2  0
  6  7  1  0
  7  8  1  0
  8  9  2  0
  8 10  1  0
 10 11  1  0
 11 12  1  0
 12 13  2  0
 13 14  1  0
 14 15  1  0
 15 16  2  0
 16 17  1  0
 17 18  2  0
 18 19  1  0
 19 20  2  0
 14 21  2  0
 21 22  1  0
 22 23  1  0
 23 24  1  0
 23 25  1  0
 23 26  1  0
 22 27  2  0
 27 28  1  0
 28 29  3  0
  6 30  1  0
 30 31  2  0
 31  3  1  0
 27 12  1  0
 20 15  1  0
M  END
>  <Binding energies>  (14) 
[-7.42]

>  <Ligand effiencies>  (14) 
[-0.231875]

>  <Interactions>  (14) 
["V-B:GLU:543:CD:9876, V-B:GLU:543:CG:9875, V-A:TYR:484:CE1:4340, V-A:TYR:484:CZ:4342, V-B:GLU:543:CA:9872, V-A:HIS:456:CE1:4064, V-B:GLU:543:CB:9874, V-A:LYS:471:CG:4213, V-A:LYS:547:CE:4945, V-A:LYS:471:CB:4212, V-A:HIS:456:C:4056, H-B:LYS:547:NZ:9919, V-A:HIS:456:CG:4061, H-A:LYS:547:NZ:4946, V-A:HIS:456:CB:4060, V-A:VAL:458:CG2:4082, V-A:ASP:473:CG:4235, V-A:LYS:547:CD:4944, V-B:GLU:543:C:9870, H-A:GLY:544:O:4908, V-A:TYR:484:CB:4336, V-A:TYR:484:CG:4337, V-A:ASP:473:CB:4234, V-A:TYR:484:CD2:4339, V-A:HIS:456:CD2:4063, V-A:LYS:547:CG:4943, H-A:HIS:456:ND1:4062, V-A:TYR:484:CD1:4338, V-A:VAL:457:C:4068, V-A:VAL:457:CA:4070, V-A:LYS:471:C:4208, V-A:LEU:472:CA:4223, V-A:LEU:472:C:4221"]

$$$$
3af_Grossjean_2025
     RDKit          3D

 29 31  0  0  0  0  0  0  0  0999 V2000
  124.3550  131.4480   61.0010 N   0  0  0  0  0  0  0  0  0  0  0  0
  125.2440  131.5910   60.2740 C   0  0  0  0  0  0  0  0  0  0  0  0
  126.3690  131.7720   59.3520 C   0  0  0  0  0  0  0  0  0  0  0  0
  126.5030  130.9510   58.2060 C   0  0  0  0  0  0  0  0  0  0  0  0
  125.4700  129.8700   57.8320 C   0  0  0  0  0  0  0  0  0  0  0  0
  125.7130  129.3100   56.6450 F   0  0  0  0  0  0  0  0  0  0  0  0
  125.4780  128.8970   58.7440 F   0  0  0  0  0  0  0  0  0  0  0  0
  124.2480  130.4020   57.7770 F   0  0  0  0  0  0  0  0  0  0  0  0
  127.6260  131.1260   57.3830 C   0  0  0  0  0  0  0  0  0  0  0  0
  128.5890  132.0910   57.6970 C   0  0  0  0  0  0  0  0  0  0  0  0
  129.8160  132.3060   56.8630 C   0  0  0  0  0  0  0  0  0  0  0  0
  131.0940  132.0480   57.3870 C   0  0  0  0  0  0  0  0  0  0  0  0
  132.2370  132.2440   56.6170 C   0  0  0  0  0  0  0  0  0  0  0  0
  132.1180  132.7020   55.3090 C   0  0  0  0  0  0  0  0  0  0  0  0
  130.8650  132.9620   54.7650 C   0  0  0  0  0  0  0  0  0  0  0  0
  129.7240  132.7640   55.5380 C   0  0  0  0  0  0  0  0  0  0  0  0
  128.4590  132.8730   58.7980 N   0  0  0  0  0  0  0  0  0  0  0  0
  127.3710  132.7390   59.5960 C   0  0  0  0  0  0  0  0  0  0  0  0
  127.3690  133.8590   60.9810 S   0  0  0  0  0  0  0  0  0  0  0  0
  128.6250  133.2910   62.1660 C   0  0  0  0  0  0  0  0  0  0  0  0
  128.0030  132.5030   63.3190 C   0  0  0  0  0  0  0  0  0  0  0  0
  128.5980  132.4450   64.3950 O   0  0  0  0  0  0  0  0  0  0  0  0
  126.8190  131.9140   63.0450 N   0  0  0  0  0  0  0  0  0  0  0  0
  125.9980  131.1210   63.8700 C   0  0  0  0  0  0  0  0  0  0  0  0
  126.4090  129.9820   64.5870 C   0  0  0  0  0  0  0  0  0  0  0  0
  125.4840  129.2870   65.3690 C   0  0  0  0  0  0  0  0  0  0  0  0
  124.1670  129.7470   65.4140 C   0  0  0  0  0  0  0  0  0  0  0  0
  123.7460  130.8410   64.7330 N   0  0  0  0  0  0  0  0  0  0  0  0
  124.6570  131.5060   63.9780 C   0  0  0  0  0  0  0  0  0  0  0  0
  1  2  3  0
  2  3  1  0
  3  4  2  0
  4  5  1  0
  5  6  1  0
  5  7  1  0
  5  8  1  0
  4  9  1  0
  9 10  2  0
 10 11  1  0
 11 12  2  0
 12 13  1  0
 13 14  2  0
 14 15  1  0
 15 16  2  0
 10 17  1  0
 17 18  2  0
 18 19  1  0
 19 20  1  0
 20 21  1  0
 21 22  2  0
 21 23  1  0
 23 24  1  0
 24 25  2  0
 25 26  1  0
 26 27  2  0
 27 28  1  0
 28 29  2  0
 18  3  1  0
 29 24  1  0
 16 11  1  0
M  END
>  <Binding energies>  (15) 
[-7.72]

>  <Ligand effiencies>  (15) 
[-0.2573333333333333]

>  <Interactions>  (15) 
["V-A:PRO:540:N:4879, V-A:TYR:539:CE2:4871, V-A:PRO:540:CG:4881, V-A:PRO:540:CA:4878, V-A:TYR:539:CE1:4870, V-A:TYR:539:CZ:4872, V-A:PRO:540:CB:4880, V-A:LEU:363:CD1:3184, V-A:PRO:540:CD:4882, V-A:TYR:539:CD2:4869, H-B:GLY:454:N:9017, V-B:ASP:366:CG:8180, V-B:TYR:531:CZ:9762, V-B:ASP:366:CB:8179, V-A:TYR:539:CD1:4868, V-A:ALA:541:CB:4887, V-A:ILE:538:CG2:4858, V-B:TYR:531:CE1:9760, V-B:ARG:545:CZ:9894, V-A:ILE:538:CA:4855, V-B:ASP:366:C:8175, V-B:ASP:366:CA:8177, V-A:ILE:538:C:4853, V-A:ILE:538:CB:4857, V-B:HIS:456:CE1:9037, H-B:TYR:484:OH:9315, V-B:ARG:545:CD:9891, V-A:ILE:538:CD1:4860"]

$$$$
3ag_Grossjean_2025
     RDKit          3D

 30 32  0  0  0  0  0  0  0  0999 V2000
  123.7850  130.8650   60.5790 N   0  0  0  0  0  0  0  0  0  0  0  0
  124.7090  131.0980   59.9220 C   0  0  0  0  0  0  0  0  0  0  0  0
  125.8790  131.3920   59.0890 C   0  0  0  0  0  0  0  0  0  0  0  0
  126.0550  130.7520   57.8380 C   0  0  0  0  0  0  0  0  0  0  0  0
  125.0220  129.7680   57.2540 C   0  0  0  0  0  0  0  0  0  0  0  0
  125.1000  128.5520   57.7980 F   0  0  0  0  0  0  0  0  0  0  0  0
  123.7890  130.2270   57.4670 F   0  0  0  0  0  0  0  0  0  0  0  0
  125.2120  129.6300   55.9410 F   0  0  0  0  0  0  0  0  0  0  0  0
  127.2180  131.0260   57.1020 C   0  0  0  0  0  0  0  0  0  0  0  0
  128.1830  131.9050   57.6060 C   0  0  0  0  0  0  0  0  0  0  0  0
  129.4430  132.2320   56.8640 C   0  0  0  0  0  0  0  0  0  0  0  0
  130.6790  132.2590   57.5290 C   0  0  0  0  0  0  0  0  0  0  0  0
  131.8540  132.5620   56.8460 C   0  0  0  0  0  0  0  0  0  0  0  0
  131.8080  132.8440   55.4840 C   0  0  0  0  0  0  0  0  0  0  0  0
  130.5950  132.8270   54.8030 C   0  0  0  0  0  0  0  0  0  0  0  0
  129.4230  132.5250   55.4890 C   0  0  0  0  0  0  0  0  0  0  0  0
  128.0040  132.5270   58.8000 N   0  0  0  0  0  0  0  0  0  0  0  0
  126.8790  132.2920   59.5190 C   0  0  0  0  0  0  0  0  0  0  0  0
  126.8140  133.1930   61.0510 S   0  0  0  0  0  0  0  0  0  0  0  0
  128.5050  133.7410   61.4300 C   0  0  0  0  0  0  0  0  0  0  0  0
  129.4180  132.5750   61.8130 C   0  0  0  0  0  0  0  0  0  0  0  0
  130.0690  132.6220   62.8580 O   0  0  0  0  0  0  0  0  0  0  0  0
  129.4500  131.5370   60.9600 N   0  0  0  0  0  0  0  0  0  0  0  0
  130.2230  130.3090   61.1450 C   0  0  0  0  0  0  0  0  0  0  0  0
  131.5710  130.3080   60.4330 C   0  0  0  0  0  0  0  0  0  0  0  0
  131.7090  129.6500   59.2090 C   0  0  0  0  0  0  0  0  0  0  0  0
  132.9310  129.6720   58.5410 C   0  0  0  0  0  0  0  0  0  0  0  0
  134.0070  130.3610   59.0950 C   0  0  0  0  0  0  0  0  0  0  0  0
  133.8730  131.0320   60.3080 C   0  0  0  0  0  0  0  0  0  0  0  0
  132.6510  131.0110   60.9760 C   0  0  0  0  0  0  0  0  0  0  0  0
  1  2  3  0
  2  3  1  0
  3  4  2  0
  4  5  1  0
  5  6  1  0
  5  7  1  0
  5  8  1  0
  4  9  1  0
  9 10  2  0
 10 11  1  0
 11 12  2  0
 12 13  1  0
 13 14  2  0
 14 15  1  0
 15 16  2  0
 10 17  1  0
 17 18  2  0
 18 19  1  0
 19 20  1  0
 20 21  1  0
 21 22  2  0
 21 23  1  0
 23 24  1  0
 24 25  1  0
 25 26  2  0
 26 27  1  0
 27 28  2  0
 28 29  1  0
 29 30  2  0
 18  3  1  0
 30 25  1  0
 16 11  1  0
M  END
>  <Binding energies>  (16) 
[-7.69]

>  <Ligand effiencies>  (16) 
[-0.24806451612903227]

>  <Interactions>  (16) 
["V-A:PRO:540:N:4879, V-A:ASN:362:C:3167, V-A:TYR:531:CZ:4789, V-A:TYR:539:CE2:4871, V-A:PRO:540:CG:4881, V-A:TYR:531:CE2:4788, V-A:PRO:540:CA:4878, V-A:PRO:540:C:4876, V-A:TYR:539:CE1:4870, V-A:ASP:366:CB:3207, H-A:ALA:541:N:4886, V-A:TYR:539:CZ:4872, V-A:PRO:540:CB:4880, V-A:LEU:363:CD1:3184, V-A:ASN:362:CB:3171, V-A:LEU:363:CA:3180, V-A:PRO:540:CD:4882, V-A:ASP:366:CG:3208, V-A:TYR:539:CD2:4869, V-B:ASP:366:CG:8180, V-B:TYR:531:CZ:9762, V-B:ASP:366:CB:8179, V-A:LEU:363:CB:3182, V-A:TYR:539:CD1:4868, V-A:ALA:541:CB:4887, V-A:ILE:538:CG2:4858, V-B:TYR:531:CE1:9760, V-A:ILE:538:CA:4855, V-B:ASP:366:C:8175, V-B:ASP:366:CA:8177, V-A:ILE:538:CD1:4860"]

$$$$
3bc_Grossjean_2025
     RDKit          3D

 28 30  0  0  0  0  0  0  0  0999 V2000
  136.3240  123.2170   76.0040 C   0  0  0  0  0  0  0  0  0  0  0  0
  135.1160  123.7930   76.4900 O   0  0  0  0  0  0  0  0  0  0  0  0
  134.4400  124.7050   75.7010 C   0  0  0  0  0  0  0  0  0  0  0  0
  133.1140  124.3980   75.3940 C   0  0  0  0  0  0  0  0  0  0  0  0
  132.3520  125.2560   74.6050 C   0  0  0  0  0  0  0  0  0  0  0  0
  132.9120  126.4340   74.1050 C   0  0  0  0  0  0  0  0  0  0  0  0
  132.0620  127.2430   73.3290 N   0  0  0  0  0  0  0  0  0  0  0  0
  130.7170  127.3570   73.3750 C   0  0  0  0  0  0  0  0  0  0  0  0
  129.9900  126.7640   74.1750 O   0  0  0  0  0  0  0  0  0  0  0  0
  130.1210  128.3410   72.3580 C   0  0  0  0  0  0  0  0  0  0  0  0
  128.6950  127.7090   71.4120 S   0  0  0  0  0  0  0  0  0  0  0  0
  129.2410  126.2920   70.4850 C   0  0  0  0  0  0  0  0  0  0  0  0
  129.5410  125.2180   71.2570 N   0  0  0  0  0  0  0  0  0  0  0  0
  129.9690  124.0670   70.6770 C   0  0  0  0  0  0  0  0  0  0  0  0
  130.3000  122.9330   71.6020 C   0  0  0  0  0  0  0  0  0  0  0  0
  129.3490  121.9420   71.8890 C   0  0  0  0  0  0  0  0  0  0  0  0
  129.6490  120.8860   72.7460 C   0  0  0  0  0  0  0  0  0  0  0  0
  130.9080  120.8100   73.3320 C   0  0  0  0  0  0  0  0  0  0  0  0
  131.8680  121.7810   73.0660 C   0  0  0  0  0  0  0  0  0  0  0  0
  131.5630  122.8350   72.2090 C   0  0  0  0  0  0  0  0  0  0  0  0
  130.1080  123.9700   69.2890 C   0  0  0  0  0  0  0  0  0  0  0  0
  129.7810  125.0610   68.4770 C   0  0  0  0  0  0  0  0  0  0  0  0
  129.9310  124.9040   66.9640 C   0  0  0  0  0  0  0  0  0  0  0  0
  129.3250  126.2560   69.0750 C   0  0  0  0  0  0  0  0  0  0  0  0
  128.9310  127.3940   68.2420 C   0  0  0  0  0  0  0  0  0  0  0  0
  128.6200  128.2920   67.5820 N   0  0  0  0  0  0  0  0  0  0  0  0
  134.2400  126.7560   74.4200 C   0  0  0  0  0  0  0  0  0  0  0  0
  134.9990  125.8950   75.2100 C   0  0  0  0  0  0  0  0  0  0  0  0
  1  2  1  0
  2  3  1  0
  3  4  2  0
  4  5  1  0
  5  6  2  0
  6  7  1  0
  7  8  1  0
  8  9  2  0
  8 10  1  0
 10 11  1  0
 11 12  1  0
 12 13  2  0
 13 14  1  0
 14 15  1  0
 15 16  2  0
 16 17  1  0
 17 18  2  0
 18 19  1  0
 19 20  2  0
 14 21  2  0
 21 22  1  0
 22 23  1  0
 22 24  2  0
 24 25  1  0
 25 26  3  0
  6 27  1  0
 27 28  2  0
 28  3  1  0
 24 12  1  0
 20 15  1  0
M  END
>  <Binding energies>  (17) 
[-7.65]

>  <Ligand effiencies>  (17) 
[-0.2637931034482759]

>  <Interactions>  (17) 
["V-B:GLU:543:CG:9875, V-A:TYR:484:CE1:4340, V-A:TYR:484:CZ:4342, V-B:GLU:543:CA:9872, V-A:HIS:456:CE1:4064, V-B:GLU:543:CB:9874, V-A:LYS:471:CG:4213, V-A:LYS:547:CE:4945, V-A:LYS:471:CB:4212, V-A:HIS:456:C:4056, H-B:LYS:547:NZ:9919, V-A:HIS:456:CG:4061, H-A:LYS:547:NZ:4946, V-A:HIS:456:CB:4060, V-A:VAL:458:CG2:4082, V-A:ASP:473:CG:4235, V-A:LYS:547:CD:4944, V-B:GLU:543:C:9870, H-A:GLY:544:O:4908, V-A:TYR:484:CB:4336, V-A:TYR:484:CG:4337, V-A:ASP:473:CB:4234, V-A:TYR:484:CD2:4339, V-A:HIS:456:CD2:4063, V-A:LYS:547:CG:4943, H-A:HIS:456:ND1:4062, V-A:TYR:484:CD1:4338, V-A:VAL:457:C:4068, V-A:VAL:457:CA:4070, V-A:LYS:471:C:4208, V-A:LEU:472:CA:4223, V-A:LEU:472:C:4221"]

$$$$
3bd_Grossjean_2025
     RDKit          3D

 26 28  0  0  0  0  0  0  0  0999 V2000
  125.2740  129.7620   57.1990 C   0  0  0  0  0  0  0  0  0  0  0  0
  126.4100  130.7030   57.5970 C   0  0  0  0  0  0  0  0  0  0  0  0
  127.5280  130.7810   56.7590 C   0  0  0  0  0  0  0  0  0  0  0  0
  128.5920  131.6280   57.0900 C   0  0  0  0  0  0  0  0  0  0  0  0
  129.8170  131.7620   56.2350 C   0  0  0  0  0  0  0  0  0  0  0  0
  130.5190  132.9770   56.1730 C   0  0  0  0  0  0  0  0  0  0  0  0
  131.6560  133.1090   55.3800 C   0  0  0  0  0  0  0  0  0  0  0  0
  132.1080  132.0250   54.6350 C   0  0  0  0  0  0  0  0  0  0  0  0
  131.4290  130.8120   54.6760 C   0  0  0  0  0  0  0  0  0  0  0  0
  130.2930  130.6840   55.4690 C   0  0  0  0  0  0  0  0  0  0  0  0
  128.5500  132.3910   58.2130 N   0  0  0  0  0  0  0  0  0  0  0  0
  127.4740  132.3270   59.0380 C   0  0  0  0  0  0  0  0  0  0  0  0
  127.5460  133.3690   60.4860 S   0  0  0  0  0  0  0  0  0  0  0  0
  128.2500  132.3930   61.8480 C   0  0  0  0  0  0  0  0  0  0  0  0
  129.7530  132.1740   61.6790 C   0  0  0  0  0  0  0  0  0  0  0  0
  130.5210  132.5960   62.5450 O   0  0  0  0  0  0  0  0  0  0  0  0
  130.1280  131.5280   60.5530 N   0  0  0  0  0  0  0  0  0  0  0  0
  131.4200  131.1590   60.1320 C   0  0  0  0  0  0  0  0  0  0  0  0
  131.5420  130.7680   58.7970 C   0  0  0  0  0  0  0  0  0  0  0  0
  132.7800  130.3770   58.2910 C   0  0  0  0  0  0  0  0  0  0  0  0
  133.8940  130.3680   59.1250 C   0  0  0  0  0  0  0  0  0  0  0  0
  133.7820  130.7430   60.4620 C   0  0  0  0  0  0  0  0  0  0  0  0
  132.5460  131.1350   60.9700 C   0  0  0  0  0  0  0  0  0  0  0  0
  126.3710  131.4880   58.7680 C   0  0  0  0  0  0  0  0  0  0  0  0
  125.2130  131.4300   59.6660 C   0  0  0  0  0  0  0  0  0  0  0  0
  124.2980  131.3840   60.3730 N   0  0  0  0  0  0  0  0  0  0  0  0
  1  2  1  0
  2  3  2  0
  3  4  1  0
  4  5  1  0
  5  6  2  0
  6  7  1  0
  7  8  2  0
  8  9  1  0
  9 10  2  0
  4 11  2  0
 11 12  1  0
 12 13  1  0
 13 14  1  0
 14 15  1  0
 15 16  2  0
 15 17  1  0
 17 18  1  0
 18 19  2  0
 19 20  1  0
 20 21  2  0
 21 22  1  0
 22 23  2  0
 12 24  2  0
 24 25  1  0
 25 26  3  0
 24  2  1  0
 10  5  1  0
 23 18  1  0
M  END
>  <Binding energies>  (18) 
[-8.13]

>  <Ligand effiencies>  (18) 
[-0.30111111111111116]

>  <Interactions>  (18) 
["V-A:PRO:540:N:4879, V-A:ASN:362:C:3167, V-A:TYR:531:CZ:4789, V-A:TYR:539:CE2:4871, V-A:TYR:531:CE2:4788, V-A:PRO:540:CA:4878, V-A:TYR:539:CE1:4870, H-A:ALA:541:N:4886, V-A:TYR:539:CZ:4872, V-A:PRO:540:CB:4880, V-A:LEU:363:CD1:3184, V-A:TYR:539:C:4862, V-A:ASN:362:CB:3171, V-A:LEU:363:CA:3180, V-A:PRO:540:CD:4882, V-A:ASP:366:CG:3208, V-A:TYR:539:CD2:4869, V-B:ASP:366:CB:8179, V-A:LEU:363:CB:3182, V-A:TYR:539:CD1:4868, V-A:ILE:538:CG2:4858, V-A:ILE:538:CA:4855, V-A:ILE:538:C:4853, V-A:ILE:538:CB:4857, V-A:ILE:538:CD1:4860"]

$$$$
3be_Grossjean_2025
     RDKit          3D

 27 29  0  0  0  0  0  0  0  0999 V2000
  135.2900  124.8760   66.5480 C   0  0  0  0  0  0  0  0  0  0  0  0
  134.0750  125.1430   65.6830 C   0  0  0  0  0  0  0  0  0  0  0  0
  132.8580  125.5490   66.2350 C   0  0  0  0  0  0  0  0  0  0  0  0
  131.7800  125.7740   65.3780 C   0  0  0  0  0  0  0  0  0  0  0  0
  131.9430  125.5890   64.0030 C   0  0  0  0  0  0  0  0  0  0  0  0
  133.1910  125.1840   63.5140 C   0  0  0  0  0  0  0  0  0  0  0  0
  133.2880  125.0060   62.1220 N   0  0  0  0  0  0  0  0  0  0  0  0
  132.3040  124.7560   61.2310 C   0  0  0  0  0  0  0  0  0  0  0  0
  131.1120  124.6340   61.5200 O   0  0  0  0  0  0  0  0  0  0  0  0
  132.7740  124.6280   59.7730 C   0  0  0  0  0  0  0  0  0  0  0  0
  132.8440  122.9220   59.1270 S   0  0  0  0  0  0  0  0  0  0  0  0
  131.4910  122.0070   59.8330 C   0  0  0  0  0  0  0  0  0  0  0  0
  130.2890  122.6160   59.6870 N   0  0  0  0  0  0  0  0  0  0  0  0
  129.1660  122.0260   60.1760 C   0  0  0  0  0  0  0  0  0  0  0  0
  127.8790  122.7720   59.9850 C   0  0  0  0  0  0  0  0  0  0  0  0
  127.1580  123.2550   61.0890 C   0  0  0  0  0  0  0  0  0  0  0  0
  125.9620  123.9460   60.9190 C   0  0  0  0  0  0  0  0  0  0  0  0
  125.4670  124.1630   59.6380 C   0  0  0  0  0  0  0  0  0  0  0  0
  126.1590  123.6940   58.5270 C   0  0  0  0  0  0  0  0  0  0  0  0
  127.3550  123.0030   58.7020 C   0  0  0  0  0  0  0  0  0  0  0  0
  129.2330  120.7940   60.8360 C   0  0  0  0  0  0  0  0  0  0  0  0
  130.4620  120.1410   60.9740 C   0  0  0  0  0  0  0  0  0  0  0  0
  130.4830  118.7900   61.6860 C   0  0  0  0  0  0  0  0  0  0  0  0
  131.6270  120.7450   60.4540 C   0  0  0  0  0  0  0  0  0  0  0  0
  132.9150  120.0530   60.5400 C   0  0  0  0  0  0  0  0  0  0  0  0
  133.9320  119.5050   60.6080 N   0  0  0  0  0  0  0  0  0  0  0  0
  134.2480  124.9600   64.3490 N   0  0  0  0  0  0  0  0  0  0  0  0
  1  2  1  0
  2  3  2  0
  3  4  1  0
  4  5  2  0
  5  6  1  0
  6  7  1  0
  7  8  1  0
  8  9  2  0
  8 10  1  0
 10 11  1  0
 11 12  1  0
 12 13  2  0
 13 14  1  0
 14 15  1  0
 15 16  2  0
 16 17  1  0
 17 18  2  0
 18 19  1  0
 19 20  2  0
 14 21  2  0
 21 22  1  0
 22 23  1  0
 22 24  2  0
 24 25  1  0
 25 26  3  0
  6 27  2  0
 27  2  1  0
 24 12  1  0
 20 15  1  0
M  END
>  <Binding energies>  (19) 
[-8.49]

>  <Ligand effiencies>  (19) 
[-0.3032142857142857]

>  <Interactions>  (19) 
["V-B:TYR:539:C:9835, V-B:TYR:539:CD2:9842, V-A:LEU:475:CD2:4254, V-A:TRP:381:CZ2:3365, V-A:LEU:475:CD1:4253, V-B:PRO:540:C:9849, V-B:TYR:539:CE2:9844, V-B:PRO:540:N:9852, V-B:ALA:541:CB:9860, V-A:TRP:381:CH2:3367, V-B:PRO:540:CA:9851, V-B:PRO:540:CB:9853, V-A:PRO:482:CB:4321, V-B:GLU:543:CD:9876, V-B:ALA:541:CA:9858, V-A:ASP:366:CB:3207, V-A:ASP:366:CG:3208, H-A:TYR:484:OH:4343, H-A:ARG:545:NH2:4923, V-A:HIS:456:CE1:4064, V-A:ILE:369:CG2:3232, V-A:ARG:545:CZ:4921, V-A:GLY:453:CA:4039, H-A:GLY:454:N:4045, V-A:GLY:454:CA:4044, V-A:LEU:475:CG:4252, V-A:ARG:545:CD:4918, V-A:ARG:545:CG:4917, H-A:ARG:545:NH1:4922, H-A:ARG:545:NE:4919, V-A:GLY:453:C:4037, V-A:ILE:455:C:4047, V-A:HIS:456:CD2:4063, H-A:ASP:366:OD1:3209, H-A:ASP:366:OD2:3210"]

$$$$
3bf_Grossjean_2025
     RDKit          3D

 26 28  0  0  0  0  0  0  0  0999 V2000
  125.3300  129.7540   57.3280 C   0  0  0  0  0  0  0  0  0  0  0  0
  126.4650  130.7060   57.6970 C   0  0  0  0  0  0  0  0  0  0  0  0
  127.5860  130.7510   56.8620 C   0  0  0  0  0  0  0  0  0  0  0  0
  128.6430  131.6200   57.1550 C   0  0  0  0  0  0  0  0  0  0  0  0
  129.8610  131.7320   56.2880 C   0  0  0  0  0  0  0  0  0  0  0  0
  130.2920  130.6420   55.5150 C   0  0  0  0  0  0  0  0  0  0  0  0
  131.4220  130.7380   54.7080 C   0  0  0  0  0  0  0  0  0  0  0  0
  132.1400  131.9290   54.6640 C   0  0  0  0  0  0  0  0  0  0  0  0
  131.7340  133.0230   55.4210 C   0  0  0  0  0  0  0  0  0  0  0  0
  130.6040  132.9230   56.2280 C   0  0  0  0  0  0  0  0  0  0  0  0
  128.5980  132.4280   58.2470 N   0  0  0  0  0  0  0  0  0  0  0  0
  127.5300  132.3780   59.0810 C   0  0  0  0  0  0  0  0  0  0  0  0
  127.6470  133.4990   60.4580 S   0  0  0  0  0  0  0  0  0  0  0  0
  128.3370  132.5820   61.8770 C   0  0  0  0  0  0  0  0  0  0  0  0
  129.8330  132.2500   61.7750 C   0  0  0  0  0  0  0  0  0  0  0  0
  130.5960  132.4920   62.7120 O   0  0  0  0  0  0  0  0  0  0  0  0
  130.2020  131.6640   60.6150 N   0  0  0  0  0  0  0  0  0  0  0  0
  131.4820  131.2490   60.2040 C   0  0  0  0  0  0  0  0  0  0  0  0
  131.6020  130.7410   58.9060 C   0  0  0  0  0  0  0  0  0  0  0  0
  132.8490  130.3250   58.4340 C   0  0  0  0  0  0  0  0  0  0  0  0
  133.9520  130.4350   59.2800 C   0  0  0  0  0  0  0  0  0  0  0  0
  133.8670  130.9340   60.5390 N   0  0  0  0  0  0  0  0  0  0  0  0
  132.6480  131.3350   60.9840 C   0  0  0  0  0  0  0  0  0  0  0  0
  126.4200  131.5390   58.8360 C   0  0  0  0  0  0  0  0  0  0  0  0
  125.2340  131.5450   59.6970 C   0  0  0  0  0  0  0  0  0  0  0  0
  124.2970  131.5470   60.3770 N   0  0  0  0  0  0  0  0  0  0  0  0
  1  2  1  0
  2  3  2  0
  3  4  1  0
  4  5  1  0
  5  6  2  0
  6  7  1  0
  7  8  2  0
  8  9  1  0
  9 10  2  0
  4 11  2  0
 11 12  1  0
 12 13  1  0
 13 14  1  0
 14 15  1  0
 15 16  2  0
 15 17  1  0
 17 18  1  0
 18 19  2  0
 19 20  1  0
 20 21  2  0
 21 22  1  0
 22 23  2  0
 12 24  2  0
 24 25  1  0
 25 26  3  0
 24  2  1  0
 10  5  1  0
 23 18  1  0
M  END
>  <Binding energies>  (20) 
[-7.69]

>  <Ligand effiencies>  (20) 
[-0.28481481481481485]

>  <Interactions>  (20) 
["V-A:PRO:540:N:4879, V-A:ASN:362:C:3167, V-A:TYR:531:CZ:4789, V-A:TYR:539:CE2:4871, V-A:TYR:531:CE2:4788, V-A:PRO:540:CA:4878, V-A:TYR:539:CE1:4870, H-A:ALA:541:N:4886, V-A:TYR:539:CZ:4872, V-A:PRO:540:CB:4880, V-A:LEU:363:CD1:3184, V-A:TYR:539:C:4862, V-A:LEU:363:CA:3180, V-A:PRO:540:CD:4882, V-A:ASP:366:CG:3208, V-A:TYR:539:CD2:4869, V-B:ASP:366:CB:8179, V-A:LEU:363:CB:3182, H-A:ARG:545:NH2:4923, V-A:ALA:541:CB:4887, V-A:ILE:538:CG2:4858, V-A:ILE:538:CA:4855, V-A:ILE:538:CB:4857, V-A:ILE:538:CD1:4860, H-A:LEU:363:N:3181"]

$$$$
3bg_Grossjean_2025
     RDKit          3D

 27 29  0  0  0  0  0  0  0  0999 V2000
  125.0360  124.2590   61.4290 C   0  0  0  0  0  0  0  0  0  0  0  0
  126.0680  123.6910   60.4570 C   0  0  0  0  0  0  0  0  0  0  0  0
  127.2960  123.2630   60.9710 C   0  0  0  0  0  0  0  0  0  0  0  0
  128.2680  122.7280   60.1140 C   0  0  0  0  0  0  0  0  0  0  0  0
  129.6030  122.2390   60.6040 C   0  0  0  0  0  0  0  0  0  0  0  0
  130.3700  121.3420   59.8410 C   0  0  0  0  0  0  0  0  0  0  0  0
  131.6140  120.9020   60.2820 C   0  0  0  0  0  0  0  0  0  0  0  0
  132.1140  121.3500   61.5000 C   0  0  0  0  0  0  0  0  0  0  0  0
  131.3720  122.2280   62.2820 C   0  0  0  0  0  0  0  0  0  0  0  0
  130.1270  122.6650   61.8370 C   0  0  0  0  0  0  0  0  0  0  0  0
  128.0210  122.6030   58.7830 N   0  0  0  0  0  0  0  0  0  0  0  0
  126.8330  123.0110   58.2680 C   0  0  0  0  0  0  0  0  0  0  0  0
  126.6240  122.7600   56.5120 S   0  0  0  0  0  0  0  0  0  0  0  0
  128.2590  122.4120   55.7860 C   0  0  0  0  0  0  0  0  0  0  0  0
  129.1790  123.6350   55.8420 C   0  0  0  0  0  0  0  0  0  0  0  0
  129.6580  124.0910   54.8040 O   0  0  0  0  0  0  0  0  0  0  0  0
  129.4340  124.1360   57.0640 N   0  0  0  0  0  0  0  0  0  0  0  0
  130.4190  125.1750   57.3670 C   0  0  0  0  0  0  0  0  0  0  0  0
  131.7430  124.5820   57.8330 C   0  0  0  0  0  0  0  0  0  0  0  0
  132.6690  124.1130   56.8950 C   0  0  0  0  0  0  0  0  0  0  0  0
  133.8740  123.5620   57.3200 C   0  0  0  0  0  0  0  0  0  0  0  0
  134.1570  123.4910   58.6830 C   0  0  0  0  0  0  0  0  0  0  0  0
  133.2490  123.9750   59.6230 C   0  0  0  0  0  0  0  0  0  0  0  0
  132.0430  124.5260   59.1960 C   0  0  0  0  0  0  0  0  0  0  0  0
  125.8210  123.5730   59.0730 C   0  0  0  0  0  0  0  0  0  0  0  0
  124.5410  124.0060   58.5060 C   0  0  0  0  0  0  0  0  0  0  0  0
  123.5300  124.3480   58.0590 N   0  0  0  0  0  0  0  0  0  0  0  0
  1  2  1  0
  2  3  2  0
  3  4  1  0
  4  5  1  0
  5  6  2  0
  6  7  1  0
  7  8  2  0
  8  9  1  0
  9 10  2  0
  4 11  2  0
 11 12  1  0
 12 13  1  0
 13 14  1  0
 14 15  1  0
 15 16  2  0
 15 17  1  0
 17 18  1  0
 18 19  1  0
 19 20  2  0
 20 21  1  0
 21 22  2  0
 22 23  1  0
 23 24  2  0
 12 25  2  0
 25 26  1  0
 26 27  3  0
 25  2  1  0
 10  5  1  0
 24 19  1  0
M  END
>  <Binding energies>  (21) 
[-7.84]

>  <Ligand effiencies>  (21) 
[-0.27999999999999997]

>  <Interactions>  (21) 
["V-B:TYR:539:C:9835, V-B:TYR:539:CD2:9842, V-A:LEU:475:CD2:4254, V-B:TYR:539:CE2:9844, V-B:PRO:540:N:9852, V-B:PRO:540:CA:9851, V-B:MET:535:CE:9803, V-B:PRO:540:CB:9853, V-B:GLU:543:CD:9876, V-A:TYR:531:CZ:4789, V-A:ASP:366:CB:3207, V-A:ASP:366:CG:3208, V-B:TYR:539:CZ:9845, V-B:TYR:539:CE1:9843, V-A:ILE:369:CD1:3234, V-A:ILE:369:CG2:3232, V-A:ILE:369:CB:3231, V-A:TYR:531:CE1:4787, V-A:ASP:366:CA:3205, V-B:ASN:362:CB:8143, V-A:ASP:366:C:3203, H-B:TYR:539:OH:9846, H-A:LYS:534:NZ:4818, V-B:TYR:539:CD1:9841, V-B:TYR:539:CG:9840, V-A:ILE:369:CG1:3233"]

$$$$
3ca_Grossjean_2025
     RDKit          3D

 31 33  0  0  0  0  0  0  0  0999 V2000
  132.9350  130.8300   58.0610 C   0  0  0  0  0  0  0  0  0  0  0  0
  131.9830  131.5240   57.0840 C   0  0  0  0  0  0  0  0  0  0  0  0
  131.0350  132.2940   57.8120 O   0  0  0  0  0  0  0  0  0  0  0  0
  129.8930  132.7380   57.2280 C   0  0  0  0  0  0  0  0  0  0  0  0
  129.8730  133.3750   56.1700 O   0  0  0  0  0  0  0  0  0  0  0  0
  128.6530  132.3700   57.9910 C   0  0  0  0  0  0  0  0  0  0  0  0
  127.8300  131.3450   57.5080 C   0  0  0  0  0  0  0  0  0  0  0  0
  126.6740  130.9820   58.1930 C   0  0  0  0  0  0  0  0  0  0  0  0
  126.3130  131.6400   59.3700 C   0  0  0  0  0  0  0  0  0  0  0  0
  125.1270  131.1930   59.9830 N   0  0  0  0  0  0  0  0  0  0  0  0
  123.8430  131.5080   59.7070 C   0  0  0  0  0  0  0  0  0  0  0  0
  123.4720  132.2650   58.8110 O   0  0  0  0  0  0  0  0  0  0  0  0
  122.7960  130.8250   60.5940 C   0  0  0  0  0  0  0  0  0  0  0  0
  123.1850  130.9290   62.3730 S   0  0  0  0  0  0  0  0  0  0  0  0
  124.5200  129.8070   62.7690 C   0  0  0  0  0  0  0  0  0  0  0  0
  125.0950  129.1810   61.7110 N   0  0  0  0  0  0  0  0  0  0  0  0
  126.1240  128.3350   61.9340 C   0  0  0  0  0  0  0  0  0  0  0  0
  126.7250  127.6900   60.7010 C   0  0  0  0  0  0  0  0  0  0  0  0
  126.6090  128.0650   63.2120 C   0  0  0  0  0  0  0  0  0  0  0  0
  126.0200  128.6840   64.3220 C   0  0  0  0  0  0  0  0  0  0  0  0
  126.5640  128.3540   65.6730 C   0  0  0  0  0  0  0  0  0  0  0  0
  127.7590  128.9380   66.1120 C   0  0  0  0  0  0  0  0  0  0  0  0
  128.2790  128.6300   67.3660 C   0  0  0  0  0  0  0  0  0  0  0  0
  127.6060  127.7290   68.1870 C   0  0  0  0  0  0  0  0  0  0  0  0
  126.4200  127.1340   67.7640 C   0  0  0  0  0  0  0  0  0  0  0  0
  125.9040  127.4450   66.5090 C   0  0  0  0  0  0  0  0  0  0  0  0
  124.9500  129.5890   64.1000 C   0  0  0  0  0  0  0  0  0  0  0  0
  124.3280  130.3060   65.2180 C   0  0  0  0  0  0  0  0  0  0  0  0
  123.8370  130.8710   66.1010 N   0  0  0  0  0  0  0  0  0  0  0  0
  127.1350  132.6630   59.8660 C   0  0  0  0  0  0  0  0  0  0  0  0
  128.2920  133.0230   59.1790 C   0  0  0  0  0  0  0  0  0  0  0  0
  1  2  1  0
  2  3  1  0
  3  4  1  0
  4  5  2  0
  4  6  1  0
  6  7  2  0
  7  8  1  0
  8  9  2  0
  9 10  1  0
 10 11  1  0
 11 12  2  0
 11 13  1  0
 13 14  1  0
 14 15  1  0
 15 16  2  0
 16 17  1  0
 17 18  1  0
 17 19  2  0
 19 20  1  0
 20 21  1  0
 21 22  2  0
 22 23  1  0
 23 24  2  0
 24 25  1  0
 25 26  2  0
 20 27  2  0
 27 28  1  0
 28 29  3  0
  9 30  1  0
 30 31  2  0
 31  6  1  0
 27 15  1  0
 26 21  1  0
M  END
>  <Binding energies>  (22) 
[-8.59]

>  <Ligand effiencies>  (22) 
[-0.2684375]

>  <Interactions>  (22) 
["V-B:GLU:543:CD:9876, V-A:PRO:540:N:4879, V-A:TYR:539:CE2:4871, V-A:TYR:531:CE2:4788, V-A:PRO:540:CA:4878, V-A:TYR:539:CE1:4870, V-A:TYR:539:CZ:4872, V-A:PRO:540:CB:4880, V-A:LEU:363:CD1:3184, V-A:TYR:539:C:4862, V-A:PRO:540:CD:4882, V-A:TYR:539:CD2:4869, H-B:GLY:454:N:9017, V-B:ILE:369:CD1:8206, H-A:TYR:539:N:4865, V-B:ASP:366:CG:8180, V-B:ASP:366:CB:8179, V-A:TYR:539:CD1:4868, V-A:TYR:539:CG:4867, V-B:ARG:545:CZ:9894, H-A:TYR:539:OH:4873, V-B:ASP:366:CA:8177, V-B:ILE:369:CB:8203, V-B:HIS:456:CE1:9037, V-B:ARG:545:CG:9890, H-B:TYR:484:OH:9315, V-B:ARG:545:CD:9891, V-B:GLU:543:CB:9874, H-B:ARG:545:NH2:9896"]

$$$$
3ce_Grossjean_2025
     RDKit          3D

 27 29  0  0  0  0  0  0  0  0999 V2000
  122.6680  130.3620   66.9780 C   0  0  0  0  0  0  0  0  0  0  0  0
  123.6630  129.9760   65.9020 C   0  0  0  0  0  0  0  0  0  0  0  0
  124.8130  129.2400   66.1990 C   0  0  0  0  0  0  0  0  0  0  0  0
  125.6790  128.9110   65.1560 C   0  0  0  0  0  0  0  0  0  0  0  0
  125.3800  129.3210   63.8550 C   0  0  0  0  0  0  0  0  0  0  0  0
  124.2160  130.0650   63.6280 C   0  0  0  0  0  0  0  0  0  0  0  0
  123.9560  130.4330   62.2970 N   0  0  0  0  0  0  0  0  0  0  0  0
  124.0880  131.6510   61.7260 C   0  0  0  0  0  0  0  0  0  0  0  0
  124.4780  132.6650   62.3070 O   0  0  0  0  0  0  0  0  0  0  0  0
  123.7230  131.7310   60.2440 C   0  0  0  0  0  0  0  0  0  0  0  0
  124.9080  130.8280   59.2030 S   0  0  0  0  0  0  0  0  0  0  0  0
  126.4040  131.7880   59.2300 C   0  0  0  0  0  0  0  0  0  0  0  0
  126.4610  132.6920   60.2390 N   0  0  0  0  0  0  0  0  0  0  0  0
  127.5670  133.4610   60.3560 C   0  0  0  0  0  0  0  0  0  0  0  0
  127.5700  134.4420   61.5130 C   0  0  0  0  0  0  0  0  0  0  0  0
  128.6420  133.3690   59.4750 C   0  0  0  0  0  0  0  0  0  0  0  0
  128.5910  132.4590   58.4110 C   0  0  0  0  0  0  0  0  0  0  0  0
  129.7560  132.4140   57.4770 C   0  0  0  0  0  0  0  0  0  0  0  0
  130.9580  131.8210   57.8810 C   0  0  0  0  0  0  0  0  0  0  0  0
  132.0500  131.7810   57.0180 C   0  0  0  0  0  0  0  0  0  0  0  0
  131.9480  132.3420   55.7490 C   0  0  0  0  0  0  0  0  0  0  0  0
  130.7620  132.9450   55.3360 C   0  0  0  0  0  0  0  0  0  0  0  0
  129.6720  132.9830   56.2000 C   0  0  0  0  0  0  0  0  0  0  0  0
  127.4430  131.6370   58.2810 C   0  0  0  0  0  0  0  0  0  0  0  0
  127.3390  130.6550   57.1960 C   0  0  0  0  0  0  0  0  0  0  0  0
  127.2590  129.8810   56.3400 N   0  0  0  0  0  0  0  0  0  0  0  0
  123.3600  130.3830   64.6430 N   0  0  0  0  0  0  0  0  0  0  0  0
  1  2  1  0
  2  3  2  0
  3  4  1  0
  4  5  2  0
  5  6  1  0
  6  7  1  0
  7  8  1  0
  8  9  2  0
  8 10  1  0
 10 11  1  0
 11 12  1  0
 12 13  2  0
 13 14  1  0
 14 15  1  0
 14 16  2  0
 16 17  1  0
 17 18  1  0
 18 19  2  0
 19 20  1  0
 20 21  2  0
 21 22  1  0
 22 23  2  0
 17 24  2  0
 24 25  1  0
 25 26  3  0
  6 27  2  0
 27  2  1  0
 24 12  1  0
 23 18  1  0
M  END
>  <Binding energies>  (23) 
[-9.14]

>  <Ligand effiencies>  (23) 
[-0.32642857142857146]

>  <Interactions>  (23) 
["H-B:ASP:366:OD1:8181, H-B:ASP:366:OD2:8182, V-A:PRO:540:N:4879, V-A:TYR:539:CE2:4871, V-A:PRO:540:CA:4878, V-A:TYR:539:CE1:4870, V-A:TYR:539:CZ:4872, V-A:PRO:540:CB:4880, V-A:LEU:363:CD1:3184, V-A:TYR:539:C:4862, V-A:PRO:540:CD:4882, V-B:GLY:454:CA:9016, H-B:ARG:545:NH1:9895, V-A:TYR:539:CD2:4869, H-B:GLY:454:N:9017, V-B:ILE:369:CD1:8206, V-B:LEU:475:CD2:9226, V-A:TYR:539:CD1:4868, V-A:ALA:541:CB:4887, V-A:TYR:539:CG:4867, V-A:ILE:538:CG2:4858, V-B:ARG:545:CZ:9894, H-A:TYR:539:OH:4873, V-A:ILE:538:CA:4855, V-B:ILE:369:CG2:8204, V-B:ILE:369:CB:8203, V-B:HIS:456:CE1:9037, V-B:ARG:545:CG:9890, V-B:ARG:545:CD:9891, V-B:GLY:453:CA:9011, V-B:GLY:453:C:9009, V-B:GLY:454:C:9014, V-B:ILE:455:C:9019, V-B:ILE:455:CA:9021"]

$$$$
3cj_Grossjean_2025
     RDKit          3D

 25 27  0  0  0  0  0  0  0  0999 V2000
  130.5050  118.9990   61.7080 C   0  0  0  0  0  0  0  0  0  0  0  0
  130.4310  120.2760   60.8950 C   0  0  0  0  0  0  0  0  0  0  0  0
  129.2250  120.9470   60.7000 C   0  0  0  0  0  0  0  0  0  0  0  0
  129.2070  122.1380   59.9610 C   0  0  0  0  0  0  0  0  0  0  0  0
  127.9050  122.8560   59.8320 C   0  0  0  0  0  0  0  0  0  0  0  0
  127.2480  123.3440   60.9680 C   0  0  0  0  0  0  0  0  0  0  0  0
  126.0260  124.0020   60.8480 C   0  0  0  0  0  0  0  0  0  0  0  0
  125.4550  124.1700   59.5900 C   0  0  0  0  0  0  0  0  0  0  0  0
  126.0920  123.6820   58.4530 C   0  0  0  0  0  0  0  0  0  0  0  0
  127.3140  123.0240   58.5750 C   0  0  0  0  0  0  0  0  0  0  0  0
  130.4230  122.6040   59.4030 C   0  0  0  0  0  0  0  0  0  0  0  0
  130.4630  123.8270   58.5950 C   0  0  0  0  0  0  0  0  0  0  0  0
  130.4940  124.7940   57.9590 N   0  0  0  0  0  0  0  0  0  0  0  0
  131.5990  121.8620   59.6550 C   0  0  0  0  0  0  0  0  0  0  0  0
  133.2100  122.4070   59.1280 S   0  0  0  0  0  0  0  0  0  0  0  0
  133.4800  123.9810   60.0030 C   0  0  0  0  0  0  0  0  0  0  0  0
  133.3980  123.8100   61.5230 C   0  0  0  0  0  0  0  0  0  0  0  0
  133.5260  122.6880   62.0170 O   0  0  0  0  0  0  0  0  0  0  0  0
  133.2220  124.9510   62.2250 N   0  0  0  0  0  0  0  0  0  0  0  0
  133.2480  125.0870   63.6030 C   0  0  0  0  0  0  0  0  0  0  0  0
  134.2670  124.9010   64.4140 N   0  0  0  0  0  0  0  0  0  0  0  0
  133.9390  125.1510   65.6660 C   0  0  0  0  0  0  0  0  0  0  0  0
  132.6250  125.5500   65.8920 C   0  0  0  0  0  0  0  0  0  0  0  0
  131.7790  125.5960   64.3740 S   0  0  0  0  0  0  0  0  0  0  0  0
  131.6040  120.7260   60.3960 N   0  0  0  0  0  0  0  0  0  0  0  0
  1  2  1  0
  2  3  2  0
  3  4  1  0
  4  5  1  0
  5  6  2  0
  6  7  1  0
  7  8  2  0
  8  9  1  0
  9 10  2  0
  4 11  2  0
 11 12  1  0
 12 13  3  0
 11 14  1  0
 14 15  1  0
 15 16  1  0
 16 17  1  0
 17 18  2  0
 17 19  1  0
 19 20  1  0
 20 21  2  0
 21 22  1  0
 22 23  2  0
 23 24  1  0
 14 25  2  0
 25  2  1  0
 10  5  1  0
 24 20  1  0
M  END
>  <Binding energies>  (24) 
[-7.64]

>  <Ligand effiencies>  (24) 
[-0.2938461538461538]

>  <Interactions>  (24) 
["V-B:TYR:539:C:9835, V-B:TYR:539:CD2:9842, V-A:LEU:475:CD2:4254, V-A:TRP:381:CZ2:3365, V-A:LEU:475:CD1:4253, V-B:PRO:540:C:9849, V-B:TYR:539:CE2:9844, V-B:PRO:540:N:9852, V-B:ALA:541:CB:9860, V-A:TRP:381:CH2:3367, V-B:PRO:540:CA:9851, V-B:PRO:540:CB:9853, V-A:PRO:482:CB:4321, V-B:GLU:543:CD:9876, V-A:ASP:366:CB:3207, V-A:ASP:366:CG:3208, H-A:TYR:484:OH:4343, V-A:ILE:369:CD1:3234, H-A:TYR:531:OH:4790, V-A:ASP:366:CA:3205, V-A:ARG:545:CZ:4921, H-A:GLY:454:N:4045, V-A:LEU:475:CG:4252, V-A:ARG:545:CD:4918, H-A:ARG:545:NH1:4922, H-A:ARG:545:NE:4919, H-A:ASP:366:OD1:3209, H-A:ASP:366:OD2:3210"]

$$$$
4ba_Grossjean_2025
     RDKit          3D

 28 30  0  0  0  0  0  0  0  0999 V2000
  132.2040  130.8270   54.7230 C   0  0  0  0  0  0  0  0  0  0  0  0
  132.3680  131.8050   55.9010 C   0  0  0  0  0  0  0  0  0  0  0  0
  131.1870  132.7730   56.1180 C   0  0  0  0  0  0  0  0  0  0  0  0
  131.0080  133.7000   55.3260 O   0  0  0  0  0  0  0  0  0  0  0  0
  130.2950  132.5300   57.3010 C   0  0  0  0  0  0  0  0  0  0  0  0
  130.6500  131.5550   58.2420 C   0  0  0  0  0  0  0  0  0  0  0  0
  129.8400  131.3080   59.3470 C   0  0  0  0  0  0  0  0  0  0  0  0
  128.6620  132.0320   59.5360 C   0  0  0  0  0  0  0  0  0  0  0  0
  127.9150  131.6950   60.6820 N   0  0  0  0  0  0  0  0  0  0  0  0
  127.5970  132.4440   61.7660 C   0  0  0  0  0  0  0  0  0  0  0  0
  127.9770  133.6030   61.9430 O   0  0  0  0  0  0  0  0  0  0  0  0
  126.7670  131.7710   62.7680 C   0  0  0  0  0  0  0  0  0  0  0  0
  125.1420  132.3600   63.1130 S   0  0  0  0  0  0  0  0  0  0  0  0
  124.9110  131.1400   64.3430 C   0  0  0  0  0  0  0  0  0  0  0  0
  123.7750  131.0580   65.0340 N   0  0  0  0  0  0  0  0  0  0  0  0
  123.7130  130.0740   65.9600 C   0  0  0  0  0  0  0  0  0  0  0  0
  122.4140  130.0040   66.7430 C   0  0  0  0  0  0  0  0  0  0  0  0
  124.7480  129.1750   66.2050 C   0  0  0  0  0  0  0  0  0  0  0  0
  125.9480  129.2560   65.4800 C   0  0  0  0  0  0  0  0  0  0  0  0
  127.0570  128.2440   65.7830 C   0  0  0  0  0  0  0  0  0  0  0  0
  126.6830  127.3050   66.6550 F   0  0  0  0  0  0  0  0  0  0  0  0
  127.4230  127.6240   64.6610 F   0  0  0  0  0  0  0  0  0  0  0  0
  128.1120  128.8740   66.3020 F   0  0  0  0  0  0  0  0  0  0  0  0
  126.0470  130.2880   64.4990 C   0  0  0  0  0  0  0  0  0  0  0  0
  127.0970  130.6810   63.5900 C   0  0  0  0  0  0  0  0  0  0  0  0
  128.3080  130.0390   63.5370 N   0  0  0  0  0  0  0  0  0  0  0  0
  128.2960  133.0060   58.5950 C   0  0  0  0  0  0  0  0  0  0  0  0
  129.1070  133.2510   57.4900 C   0  0  0  0  0  0  0  0  0  0  0  0
  1  2  1  0
  2  3  1  0
  3  4  2  0
  3  5  1  0
  5  6  2  0
  6  7  1  0
  7  8  2  0
  8  9  1  0
  9 10  1  0
 10 11  2  0
 10 12  1  0
 12 13  1  0
 13 14  1  0
 14 15  2  0
 15 16  1  0
 16 17  1  0
 16 18  2  0
 18 19  1  0
 19 20  1  0
 20 21  1  0
 20 22  1  0
 20 23  1  0
 19 24  2  0
 24 25  1  0
 25 26  1  0
  8 27  1  0
 27 28  2  0
 28  5  1  0
 25 12  2  0
 24 14  1  0
M  END
>  <Binding energies>  (25) 
[-7.07]

>  <Ligand effiencies>  (25) 
[-0.22806451612903228]

>  <Interactions>  (25) 
["V-B:GLU:543:CD:9876, V-A:PRO:540:N:4879, V-A:TYR:531:CZ:4789, V-A:TYR:539:CE2:4871, V-A:TYR:531:CE2:4788, V-A:PRO:540:CA:4878, V-A:TYR:539:CE1:4870, V-A:TYR:539:CZ:4872, V-A:PRO:540:CB:4880, V-A:LEU:363:CD1:3184, V-A:TYR:539:C:4862, V-A:PRO:540:CD:4882, H-A:GLU:543:OE2:4905, V-A:GLU:543:CD:4903, V-B:GLU:543:CG:9875, V-A:TYR:539:CD2:4869, H-B:GLY:454:N:9017, V-B:LEU:475:CD2:9226, H-A:TYR:539:N:4865, V-A:TYR:539:CD1:4868, V-A:TYR:539:CG:4867, V-A:TYR:531:CD2:4786, V-A:TYR:539:CA:4864, V-B:ARG:545:CZ:9894, V-B:HIS:456:CE1:9037, V-B:ARG:545:CG:9890, H-B:TYR:484:OH:9315, V-B:ARG:545:CD:9891, V-B:GLU:543:CB:9874, V-B:GLY:453:CA:9011, V-B:GLY:453:C:9009, V-B:ILE:455:C:9019, V-B:ARG:545:CB:9889"]

$$$$
4bb_Grossjean_2025
     RDKit          3D

 27 29  0  0  0  0  0  0  0  0999 V2000
  124.4970  123.7080   56.6790 C   0  0  0  0  0  0  0  0  0  0  0  0
  125.6610  122.7180   56.7650 C   0  0  0  0  0  0  0  0  0  0  0  0
  125.6400  121.7320   56.0250 O   0  0  0  0  0  0  0  0  0  0  0  0
  126.7570  122.9940   57.7500 C   0  0  0  0  0  0  0  0  0  0  0  0
  126.4540  123.6490   58.9500 C   0  0  0  0  0  0  0  0  0  0  0  0
  127.4530  123.9180   59.8810 C   0  0  0  0  0  0  0  0  0  0  0  0
  128.7720  123.5300   59.6350 C   0  0  0  0  0  0  0  0  0  0  0  0
  129.7020  123.8540   60.6420 N   0  0  0  0  0  0  0  0  0  0  0  0
  130.9910  124.2610   60.5390 C   0  0  0  0  0  0  0  0  0  0  0  0
  131.5920  124.3910   59.4730 O   0  0  0  0  0  0  0  0  0  0  0  0
  131.6680  124.5190   61.8130 C   0  0  0  0  0  0  0  0  0  0  0  0
  133.4080  124.2840   61.9560 S   0  0  0  0  0  0  0  0  0  0  0  0
  133.3770  124.7280   63.6470 C   0  0  0  0  0  0  0  0  0  0  0  0
  134.4880  124.7500   64.3810 N   0  0  0  0  0  0  0  0  0  0  0  0
  134.3370  125.1090   65.6770 C   0  0  0  0  0  0  0  0  0  0  0  0
  135.6150  125.1290   66.4950 C   0  0  0  0  0  0  0  0  0  0  0  0
  133.1130  125.4420   66.2500 C   0  0  0  0  0  0  0  0  0  0  0  0
  131.9390  125.4210   65.4820 C   0  0  0  0  0  0  0  0  0  0  0  0
  130.6150  125.7960   66.1570 C   0  0  0  0  0  0  0  0  0  0  0  0
  129.8980  126.6720   65.4500 F   0  0  0  0  0  0  0  0  0  0  0  0
  129.8670  124.7050   66.3180 F   0  0  0  0  0  0  0  0  0  0  0  0
  130.8550  126.3450   67.3480 F   0  0  0  0  0  0  0  0  0  0  0  0
  132.0630  125.0470   64.1100 C   0  0  0  0  0  0  0  0  0  0  0  0
  131.1070  124.9130   63.0390 C   0  0  0  0  0  0  0  0  0  0  0  0
  129.7680  125.1580   63.2070 N   0  0  0  0  0  0  0  0  0  0  0  0
  129.0840  122.8800   58.4320 C   0  0  0  0  0  0  0  0  0  0  0  0
  128.0830  122.6140   57.5010 C   0  0  0  0  0  0  0  0  0  0  0  0
  1  2  1  0
  2  3  2  0
  2  4  1  0
  4  5  2  0
  5  6  1  0
  6  7  2  0
  7  8  1  0
  8  9  1  0
  9 10  2  0
  9 11  1  0
 11 12  1  0
 12 13  1  0
 13 14  2  0
 14 15  1  0
 15 16  1  0
 15 17  2  0
 17 18  1  0
 18 19  1  0
 19 20  1  0
 19 21  1  0
 19 22  1  0
 18 23  2  0
 23 24  1  0
 24 25  1  0
  7 26  1  0
 26 27  2  0
 27  4  1  0
 24 11  2  0
 23 13  1  0
M  END
>  <Binding energies>  (26) 
[-7.8]

>  <Ligand effiencies>  (26) 
[-0.26]

>  <Interactions>  (26) 
["V-B:TYR:539:C:9835, V-B:TYR:539:CD2:9842, V-B:TYR:539:CE2:9844, V-B:PRO:540:N:9852, V-B:PRO:540:CA:9851, V-B:MET:535:CE:9803, V-B:PRO:540:CB:9853, H-B:GLU:543:OE2:9878, V-B:GLU:543:CD:9876, V-A:ASP:366:CG:3208, V-A:GLU:543:CD:4903, H-A:TYR:484:OH:4343, V-B:GLU:543:CG:9875, V-A:TYR:484:CE1:4340, H-B:TYR:539:N:9838, V-B:PRO:540:CD:9855, V-B:LEU:363:CD1:8156, V-B:TYR:531:CE2:9761, V-A:HIS:456:CE1:4064, V-B:GLU:543:CB:9874, V-A:ARG:545:CZ:4921, V-A:GLY:453:CA:4039, H-A:GLY:454:N:4045, V-A:ARG:545:CD:4918, V-A:ARG:545:CG:4917, H-A:ARG:545:NH1:4922, V-A:GLY:453:C:4037, V-A:ILE:455:C:4047, V-A:HIS:456:CD2:4063"]

$$$$
4bd_Grossjean_2025
     RDKit          3D

 24 26  0  0  0  0  0  0  0  0999 V2000
  131.2940  133.0100   54.7000 C   0  0  0  0  0  0  0  0  0  0  0  0
  131.2080  132.5750   56.1520 C   0  0  0  0  0  0  0  0  0  0  0  0
  132.2040  131.7920   56.7280 C   0  0  0  0  0  0  0  0  0  0  0  0
  132.1100  131.3950   58.0710 C   0  0  0  0  0  0  0  0  0  0  0  0
  133.2290  130.5310   58.6600 C   0  0  0  0  0  0  0  0  0  0  0  0
  134.2340  130.3230   57.8050 F   0  0  0  0  0  0  0  0  0  0  0  0
  133.7400  131.1250   59.7380 F   0  0  0  0  0  0  0  0  0  0  0  0
  132.7450  129.3370   59.0030 F   0  0  0  0  0  0  0  0  0  0  0  0
  130.9630  131.8280   58.8000 C   0  0  0  0  0  0  0  0  0  0  0  0
  130.5310  131.6260   60.1620 C   0  0  0  0  0  0  0  0  0  0  0  0
  131.2590  130.8990   61.0680 N   0  0  0  0  0  0  0  0  0  0  0  0
  129.3050  132.2380   60.4720 C   0  0  0  0  0  0  0  0  0  0  0  0
  128.5710  132.2220   61.7420 C   0  0  0  0  0  0  0  0  0  0  0  0
  129.0560  132.7300   62.7530 O   0  0  0  0  0  0  0  0  0  0  0  0
  127.3510  131.6310   61.7010 N   0  0  0  0  0  0  0  0  0  0  0  0
  126.4260  131.4160   62.7390 C   0  0  0  0  0  0  0  0  0  0  0  0
  125.5230  132.4550   62.9790 C   0  0  0  0  0  0  0  0  0  0  0  0
  124.5620  132.3340   63.9790 C   0  0  0  0  0  0  0  0  0  0  0  0
  124.4970  131.1670   64.7360 C   0  0  0  0  0  0  0  0  0  0  0  0
  125.3820  130.1190   64.4970 C   0  0  0  0  0  0  0  0  0  0  0  0
  126.3450  130.2360   63.4990 C   0  0  0  0  0  0  0  0  0  0  0  0
  128.6490  133.0940   59.0790 S   0  0  0  0  0  0  0  0  0  0  0  0
  130.0130  132.6270   58.0910 C   0  0  0  0  0  0  0  0  0  0  0  0
  130.1090  133.0010   56.8160 N   0  0  0  0  0  0  0  0  0  0  0  0
  1  2  1  0
  2  3  2  0
  3  4  1  0
  4  5  1  0
  5  6  1  0
  5  7  1  0
  5  8  1  0
  4  9  2  0
  9 10  1  0
 10 11  1  0
 10 12  2  0
 12 13  1  0
 13 14  2  0
 13 15  1  0
 15 16  1  0
 16 17  2  0
 17 18  1  0
 18 19  2  0
 19 20  1  0
 20 21  2  0
 12 22  1  0
 22 23  1  0
 23 24  2  0
 24  2  1  0
 23  9  1  0
 21 16  1  0
M  END
>  <Binding energies>  (27) 
[-6.3]

>  <Ligand effiencies>  (27) 
[-0.23333333333333334]

>  <Interactions>  (27) 
["V-A:PRO:540:N:4879, V-A:ASN:362:C:3167, V-A:TYR:531:CZ:4789, V-A:TYR:539:CE2:4871, V-A:TYR:531:CE2:4788, V-A:PRO:540:CA:4878, V-A:ASP:366:CB:3207, H-A:ALA:541:N:4886, V-A:PRO:540:CB:4880, V-A:LEU:363:CD1:3184, V-A:TYR:539:C:4862, V-A:LEU:363:CA:3180, V-A:PRO:540:CD:4882, H-A:GLU:543:OE2:4905, V-A:ASP:366:CG:3208, V-B:GLY:454:CA:9016, V-A:TYR:539:CD2:4869, V-B:LEU:475:CD2:9226, H-A:TYR:539:N:4865, V-A:LEU:363:CB:3182, V-A:TYR:539:CG:4867, V-A:TYR:531:CD2:4786, V-A:ILE:538:CG2:4858, V-A:ILE:538:CA:4855, V-A:ILE:538:C:4853, V-A:ILE:538:CB:4857, V-A:ILE:538:CD1:4860, H-A:ASP:366:OD2:3210, V-A:LEU:363:CG:3183, V-A:LEU:363:C:3178"]

$$$$
4be_Grossjean_2025
     RDKit          3D

 25 27  0  0  0  0  0  0  0  0999 V2000
  125.5190  128.8920   65.4010 C   0  0  0  0  0  0  0  0  0  0  0  0
  125.4600  130.1460   64.5490 C   0  0  0  0  0  0  0  0  0  0  0  0
  124.4830  131.1230   64.7540 C   0  0  0  0  0  0  0  0  0  0  0  0
  124.4870  132.2500   63.9300 C   0  0  0  0  0  0  0  0  0  0  0  0
  125.4570  132.3700   62.9320 C   0  0  0  0  0  0  0  0  0  0  0  0
  126.4110  131.3570   62.7850 C   0  0  0  0  0  0  0  0  0  0  0  0
  127.3550  131.5350   61.7580 N   0  0  0  0  0  0  0  0  0  0  0  0
  128.5180  132.2320   61.7820 C   0  0  0  0  0  0  0  0  0  0  0  0
  128.9350  132.8380   62.7710 O   0  0  0  0  0  0  0  0  0  0  0  0
  129.2680  132.2480   60.5230 C   0  0  0  0  0  0  0  0  0  0  0  0
  128.6260  133.1000   59.1200 S   0  0  0  0  0  0  0  0  0  0  0  0
  129.9970  132.6240   58.1460 C   0  0  0  0  0  0  0  0  0  0  0  0
  130.1060  132.9960   56.8710 N   0  0  0  0  0  0  0  0  0  0  0  0
  131.2120  132.5670   56.2210 C   0  0  0  0  0  0  0  0  0  0  0  0
  131.3170  132.9980   54.7690 C   0  0  0  0  0  0  0  0  0  0  0  0
  132.2030  131.7870   56.8100 C   0  0  0  0  0  0  0  0  0  0  0  0
  132.0940  131.3930   58.1530 C   0  0  0  0  0  0  0  0  0  0  0  0
  133.2120  130.5370   58.7580 C   0  0  0  0  0  0  0  0  0  0  0  0
  134.2330  130.3420   57.9200 F   0  0  0  0  0  0  0  0  0  0  0  0
  133.6990  131.1340   59.8450 F   0  0  0  0  0  0  0  0  0  0  0  0
  132.7330  129.3380   59.0910 F   0  0  0  0  0  0  0  0  0  0  0  0
  130.9370  131.8240   58.8670 C   0  0  0  0  0  0  0  0  0  0  0  0
  130.4860  131.6180   60.2210 C   0  0  0  0  0  0  0  0  0  0  0  0
  131.1920  130.8750   61.1320 N   0  0  0  0  0  0  0  0  0  0  0  0
  126.4090  130.2490   63.5840 N   0  0  0  0  0  0  0  0  0  0  0  0
  1  2  1  0
  2  3  2  0
  3  4  1  0
  4  5  2  0
  5  6  1  0
  6  7  1  0
  7  8  1  0
  8  9  2  0
  8 10  1  0
 10 11  1  0
 11 12  1  0
 12 13  2  0
 13 14  1  0
 14 15  1  0
 14 16  2  0
 16 17  1  0
 17 18  1  0
 18 19  1  0
 18 20  1  0
 18 21  1  0
 17 22  2  0
 22 23  1  0
 23 24  1  0
  6 25  2  0
 25  2  1  0
 23 10  2  0
 22 12  1  0
M  END
>  <Binding energies>  (28) 
[-6.46]

>  <Ligand effiencies>  (28) 
[-0.2307142857142857]

>  <Interactions>  (28) 
["V-A:PRO:540:N:4879, V-A:ASN:362:C:3167, V-A:TYR:531:CZ:4789, V-A:TYR:539:CE2:4871, V-A:TYR:531:CE2:4788, V-A:PRO:540:CA:4878, V-A:ASP:366:CB:3207, H-A:ALA:541:N:4886, V-A:PRO:540:CB:4880, V-A:LEU:363:CD1:3184, V-A:TYR:539:C:4862, V-A:LEU:363:CA:3180, V-A:PRO:540:CD:4882, H-A:GLU:543:OE2:4905, V-A:ASP:366:CG:3208, V-A:GLU:543:CD:4903, V-B:GLY:454:CA:9016, V-A:TYR:539:CD2:4869, V-B:LEU:475:CD2:9226, H-A:TYR:539:N:4865, V-A:LEU:363:CB:3182, V-A:TYR:539:CG:4867, V-A:ILE:538:CG2:4858, V-B:ARG:545:CZ:9894, V-A:ILE:538:CA:4855, V-A:ILE:538:C:4853, V-A:ILE:538:CB:4857, V-B:HIS:456:CE1:9037, H-B:TYR:484:OH:9315, V-A:ILE:538:CD1:4860, H-A:ASP:366:OD2:3210, V-A:LEU:363:CG:3183, V-A:LEU:363:C:3178"]

$$$$
4bg_Grossjean_2025
     RDKit          3D

 25 27  0  0  0  0  0  0  0  0999 V2000
  130.8430  132.7670   54.6500 C   0  0  0  0  0  0  0  0  0  0  0  0
  130.8980  132.4380   56.1310 C   0  0  0  0  0  0  0  0  0  0  0  0
  131.9470  131.6910   56.6610 C   0  0  0  0  0  0  0  0  0  0  0  0
  131.9830  131.3890   58.0320 C   0  0  0  0  0  0  0  0  0  0  0  0
  133.1560  130.5630   58.5700 C   0  0  0  0  0  0  0  0  0  0  0  0
  132.8130  129.3130   58.8860 F   0  0  0  0  0  0  0  0  0  0  0  0
  134.1170  130.4930   57.6480 F   0  0  0  0  0  0  0  0  0  0  0  0
  133.6430  131.1340   59.6720 F   0  0  0  0  0  0  0  0  0  0  0  0
  130.9110  131.8790   58.8350 C   0  0  0  0  0  0  0  0  0  0  0  0
  130.6080  131.7690   60.2420 C   0  0  0  0  0  0  0  0  0  0  0  0
  131.4030  131.0790   61.1210 N   0  0  0  0  0  0  0  0  0  0  0  0
  129.4360  132.4370   60.6280 C   0  0  0  0  0  0  0  0  0  0  0  0
  128.8210  132.5080   61.9540 C   0  0  0  0  0  0  0  0  0  0  0  0
  129.4960  132.4180   62.9810 O   0  0  0  0  0  0  0  0  0  0  0  0
  127.4880  132.7140   61.9760 N   0  0  0  0  0  0  0  0  0  0  0  0
  126.6630  132.8030   63.1800 C   0  0  0  0  0  0  0  0  0  0  0  0
  125.4190  131.9260   63.1340 C   0  0  0  0  0  0  0  0  0  0  0  0
  125.1360  131.0530   64.1880 C   0  0  0  0  0  0  0  0  0  0  0  0
  123.9780  130.2810   64.1600 C   0  0  0  0  0  0  0  0  0  0  0  0
  123.0980  130.3940   63.0860 C   0  0  0  0  0  0  0  0  0  0  0  0
  123.3640  131.2750   62.0400 C   0  0  0  0  0  0  0  0  0  0  0  0
  124.5240  132.0460   62.0670 C   0  0  0  0  0  0  0  0  0  0  0  0
  128.6450  133.1960   59.2490 S   0  0  0  0  0  0  0  0  0  0  0  0
  129.9010  132.6400   58.1690 C   0  0  0  0  0  0  0  0  0  0  0  0
  129.8710  132.9210   56.8660 N   0  0  0  0  0  0  0  0  0  0  0  0
  1  2  1  0
  2  3  2  0
  3  4  1  0
  4  5  1  0
  5  6  1  0
  5  7  1  0
  5  8  1  0
  4  9  2  0
  9 10  1  0
 10 11  1  0
 10 12  2  0
 12 13  1  0
 13 14  2  0
 13 15  1  0
 15 16  1  0
 16 17  1  0
 17 18  2  0
 18 19  1  0
 19 20  2  0
 20 21  1  0
 21 22  2  0
 12 23  1  0
 23 24  1  0
 24 25  2  0
 25  2  1  0
 24  9  1  0
 22 17  1  0
M  END
>  <Binding energies>  (29) 
[-6.73]

>  <Ligand effiencies>  (29) 
[-0.24035714285714288]

>  <Interactions>  (29) 
["V-A:PRO:540:N:4879, V-A:ASN:362:C:3167, V-A:TYR:531:CZ:4789, V-A:TYR:539:CE2:4871, V-A:TYR:531:CE2:4788, V-A:PRO:540:CA:4878, V-A:ASP:366:CB:3207, H-A:ALA:541:N:4886, V-A:PRO:540:CB:4880, V-A:LEU:363:CD1:3184, V-A:TYR:539:C:4862, V-A:LEU:363:CA:3180, V-A:PRO:540:CD:4882, H-A:GLU:543:OE2:4905, V-A:ASP:366:CG:3208, V-A:TYR:539:CD2:4869, V-B:ILE:369:CD1:8206, V-B:LEU:475:CD2:9226, H-A:TYR:539:N:4865, V-A:LEU:363:CB:3182, V-A:ALA:541:CB:4887, V-A:TYR:539:CG:4867, V-A:TYR:531:CD2:4786, V-A:ILE:538:CG2:4858, V-B:ARG:545:CZ:9894, V-A:ILE:538:CA:4855, V-B:GLY:453:CA:9011, V-B:GLY:453:C:9009, V-A:ILE:538:CD1:4860, H-A:ASP:366:OD2:3210, V-A:LEU:363:CG:3183, V-A:LEU:363:C:3178"]

$$$$
4ca_Grossjean_2025
     RDKit          3D

 34 37  0  0  0  0  0  0  0  0999 V2000
  132.0490  131.1160   54.6760 C   0  0  0  0  0  0  0  0  0  0  0  0
  132.2800  132.5760   55.0770 C   0  0  0  0  0  0  0  0  0  0  0  0
  131.9150  132.7560   56.4390 O   0  0  0  0  0  0  0  0  0  0  0  0
  130.6110  132.8370   56.8110 C   0  0  0  0  0  0  0  0  0  0  0  0
  129.7440  133.3970   56.1330 O   0  0  0  0  0  0  0  0  0  0  0  0
  130.3290  132.1740   58.1280 C   0  0  0  0  0  0  0  0  0  0  0  0
  131.3360  131.4200   58.7440 C   0  0  0  0  0  0  0  0  0  0  0  0
  131.1060  130.7970   59.9680 C   0  0  0  0  0  0  0  0  0  0  0  0
  129.8650  130.9090   60.5960 C   0  0  0  0  0  0  0  0  0  0  0  0
  129.7450  130.2460   61.8340 N   0  0  0  0  0  0  0  0  0  0  0  0
  128.7890  129.3930   62.2770 C   0  0  0  0  0  0  0  0  0  0  0  0
  127.8390  129.0050   61.5970 O   0  0  0  0  0  0  0  0  0  0  0  0
  128.9620  128.9230   63.6540 C   0  0  0  0  0  0  0  0  0  0  0  0
  128.6190  129.9990   65.0070 S   0  0  0  0  0  0  0  0  0  0  0  0
  129.0010  128.7430   66.1600 C   0  0  0  0  0  0  0  0  0  0  0  0
  128.9220  128.9570   67.4710 N   0  0  0  0  0  0  0  0  0  0  0  0
  129.2240  127.9170   68.2910 C   0  0  0  0  0  0  0  0  0  0  0  0
  129.1150  128.1880   69.7630 C   0  0  0  0  0  0  0  0  0  0  0  0
  127.9600  127.8320   70.4770 C   0  0  0  0  0  0  0  0  0  0  0  0
  127.8510  128.0850   71.8420 C   0  0  0  0  0  0  0  0  0  0  0  0
  128.9000  128.7020   72.5150 C   0  0  0  0  0  0  0  0  0  0  0  0
  130.0550  129.0680   71.8330 C   0  0  0  0  0  0  0  0  0  0  0  0
  130.1600  128.8130   70.4680 C   0  0  0  0  0  0  0  0  0  0  0  0
  129.6260  126.6750   67.7900 C   0  0  0  0  0  0  0  0  0  0  0  0
  129.7180  126.4390   66.4090 C   0  0  0  0  0  0  0  0  0  0  0  0
  130.1620  125.0530   65.9290 C   0  0  0  0  0  0  0  0  0  0  0  0
  131.4250  125.0280   65.4980 F   0  0  0  0  0  0  0  0  0  0  0  0
  130.0650  124.1760   66.9290 F   0  0  0  0  0  0  0  0  0  0  0  0
  129.3890  124.6560   64.9190 F   0  0  0  0  0  0  0  0  0  0  0  0
  129.3860  127.5180   65.5410 C   0  0  0  0  0  0  0  0  0  0  0  0
  129.3520  127.6500   64.1040 C   0  0  0  0  0  0  0  0  0  0  0  0
  129.6760  126.6210   63.2580 N   0  0  0  0  0  0  0  0  0  0  0  0
  128.8520  131.6660   59.9900 C   0  0  0  0  0  0  0  0  0  0  0  0
  129.0850  132.2900   58.7670 C   0  0  0  0  0  0  0  0  0  0  0  0
  1  2  1  0
  2  3  1  0
  3  4  1  0
  4  5  2  0
  4  6  1  0
  6  7  2  0
  7  8  1  0
  8  9  2  0
  9 10  1  0
 10 11  1  0
 11 12  2  0
 11 13  1  0
 13 14  1  0
 14 15  1  0
 15 16  2  0
 16 17  1  0
 17 18  1  0
 18 19  2  0
 19 20  1  0
 20 21  2  0
 21 22  1  0
 22 23  2  0
 17 24  2  0
 24 25  1  0
 25 26  1  0
 26 27  1  0
 26 28  1  0
 26 29  1  0
 25 30  2  0
 30 31  1  0
 31 32  1  0
  9 33  1  0
 33 34  2  0
 34  6  1  0
 31 13  2  0
 30 15  1  0
 23 18  1  0
M  END
>  <Binding energies>  (30) 
[-7.42]

>  <Ligand effiencies>  (30) 
[-0.20054054054054055]

>  <Interactions>  (30) 
["H-B:GLU:543:OE2:9878, V-B:GLU:543:CD:9876, V-A:GLU:543:CG:4902, V-A:PRO:540:N:4879, V-A:TYR:531:CZ:4789, V-A:TYR:531:CE2:4788, V-A:PRO:540:CA:4878, V-A:PRO:540:CB:4880, V-A:LEU:363:CD1:3184, V-A:TYR:539:C:4862, V-A:PRO:540:CD:4882, H-A:GLU:543:OE2:4905, V-A:GLU:543:CD:4903, V-B:GLU:543:CG:9875, V-A:TYR:484:CE1:4340, H-A:TYR:539:N:4865, V-A:ILE:538:CG2:4858, V-A:GLU:543:CB:4901, V-B:HIS:456:CE1:9037, V-A:TYR:484:CZ:4342, V-B:GLU:543:CA:9872, V-A:HIS:456:CE1:4064, V-B:GLU:543:CB:9874, V-B:HIS:456:CD2:9035, V-A:GLU:543:C:4897, V-A:ILE:538:CD1:4860"]

$$$$
4cb_Grossjean_2025
     RDKit          3D

 33 36  0  0  0  0  0  0  0  0999 V2000
  132.1590  132.2400   55.0690 C   0  0  0  0  0  0  0  0  0  0  0  0
  131.8490  132.6610   56.3900 O   0  0  0  0  0  0  0  0  0  0  0  0
  130.5600  132.7980   56.7940 C   0  0  0  0  0  0  0  0  0  0  0  0
  129.6940  133.3750   56.1290 O   0  0  0  0  0  0  0  0  0  0  0  0
  130.2900  132.1770   58.1360 C   0  0  0  0  0  0  0  0  0  0  0  0
  131.0980  131.1190   58.5740 C   0  0  0  0  0  0  0  0  0  0  0  0
  130.8780  130.5280   59.8150 C   0  0  0  0  0  0  0  0  0  0  0  0
  129.8450  130.9760   60.6390 C   0  0  0  0  0  0  0  0  0  0  0  0
  129.7220  130.3170   61.8780 N   0  0  0  0  0  0  0  0  0  0  0  0
  128.7200  129.5410   62.3580 C   0  0  0  0  0  0  0  0  0  0  0  0
  127.7140  129.2360   61.7170 O   0  0  0  0  0  0  0  0  0  0  0  0
  128.9120  129.0470   63.7240 C   0  0  0  0  0  0  0  0  0  0  0  0
  128.5620  130.0910   65.1010 S   0  0  0  0  0  0  0  0  0  0  0  0
  128.9750  128.8200   66.2280 C   0  0  0  0  0  0  0  0  0  0  0  0
  128.9050  129.0070   67.5430 N   0  0  0  0  0  0  0  0  0  0  0  0
  129.2350  127.9570   68.3390 C   0  0  0  0  0  0  0  0  0  0  0  0
  129.1410  128.1970   69.8180 C   0  0  0  0  0  0  0  0  0  0  0  0
  130.2330  128.7150   70.5320 C   0  0  0  0  0  0  0  0  0  0  0  0
  130.1540  128.9370   71.9050 C   0  0  0  0  0  0  0  0  0  0  0  0
  128.9760  128.6430   72.5850 C   0  0  0  0  0  0  0  0  0  0  0  0
  127.8800  128.1260   71.9020 C   0  0  0  0  0  0  0  0  0  0  0  0
  127.9650  127.9040   70.5300 C   0  0  0  0  0  0  0  0  0  0  0  0
  129.6560  126.7320   67.8100 C   0  0  0  0  0  0  0  0  0  0  0  0
  129.7370  126.5260   66.4240 C   0  0  0  0  0  0  0  0  0  0  0  0
  130.2030  125.1570   65.9120 C   0  0  0  0  0  0  0  0  0  0  0  0
  131.4630  125.1660   65.4690 F   0  0  0  0  0  0  0  0  0  0  0  0
  130.1320  124.2600   66.8950 F   0  0  0  0  0  0  0  0  0  0  0  0
  129.4280  124.7650   64.9010 F   0  0  0  0  0  0  0  0  0  0  0  0
  129.3760  127.6150   65.5800 C   0  0  0  0  0  0  0  0  0  0  0  0
  129.3250  127.7730   64.1470 C   0  0  0  0  0  0  0  0  0  0  0  0
  129.6540  126.7640   63.2780 N   0  0  0  0  0  0  0  0  0  0  0  0
  129.0340  132.0370   60.2090 C   0  0  0  0  0  0  0  0  0  0  0  0
  129.2560  132.6280   58.9690 C   0  0  0  0  0  0  0  0  0  0  0  0
  1  2  1  0
  2  3  1  0
  3  4  2  0
  3  5  1  0
  5  6  2  0
  6  7  1  0
  7  8  2  0
  8  9  1  0
  9 10  1  0
 10 11  2  0
 10 12  1  0
 12 13  1  0
 13 14  1  0
 14 15  2  0
 15 16  1  0
 16 17  1  0
 17 18  2  0
 18 19  1  0
 19 20  2  0
 20 21  1  0
 21 22  2  0
 16 23  2  0
 23 24  1  0
 24 25  1  0
 25 26  1  0
 25 27  1  0
 25 28  1  0
 24 29  2  0
 29 30  1  0
 30 31  1  0
  8 32  1  0
 32 33  2  0
 33  5  1  0
 30 12  2  0
 29 14  1  0
 22 17  1  0
M  END
>  <Binding energies>  (31) 
[-7.2]

>  <Ligand effiencies>  (31) 
[-0.2]

>  <Interactions>  (31) 
["H-B:GLU:543:OE2:9878, V-B:GLU:543:CD:9876, V-A:GLU:543:CG:4902, V-A:PRO:540:N:4879, V-A:PRO:540:CA:4878, V-A:PRO:540:CB:4880, V-A:LEU:363:CD1:3184, V-A:TYR:539:C:4862, V-A:PRO:540:CD:4882, H-A:GLU:543:OE2:4905, V-A:GLU:543:CD:4903, V-B:GLU:543:CG:9875, V-A:TYR:484:CE1:4340, H-A:TYR:539:N:4865, V-A:ILE:538:CG2:4858, V-A:GLU:543:CB:4901, V-B:HIS:456:CE1:9037, V-A:TYR:484:CZ:4342, V-B:GLU:543:CA:9872, V-A:HIS:456:CE1:4064, V-B:GLU:543:CB:9874, V-B:HIS:456:CD2:9035, V-A:GLU:543:C:4897, V-A:ILE:538:CD1:4860"]

$$$$
4cc_Grossjean_2025
     RDKit          3D

 31 34  0  0  0  0  0  0  0  0999 V2000
  129.7530  118.0200   60.2590 C   0  0  0  0  0  0  0  0  0  0  0  0
  130.3090  119.2730   59.8770 O   0  0  0  0  0  0  0  0  0  0  0  0
  130.1190  120.3720   60.6930 C   0  0  0  0  0  0  0  0  0  0  0  0
  130.6910  120.3100   61.9630 C   0  0  0  0  0  0  0  0  0  0  0  0
  130.5550  121.3700   62.8550 C   0  0  0  0  0  0  0  0  0  0  0  0
  129.8310  122.5070   62.4900 C   0  0  0  0  0  0  0  0  0  0  0  0
  129.7610  123.5330   63.4510 N   0  0  0  0  0  0  0  0  0  0  0  0
  130.7270  124.3870   63.8660 C   0  0  0  0  0  0  0  0  0  0  0  0
  131.8690  124.4120   63.4020 O   0  0  0  0  0  0  0  0  0  0  0  0
  130.3340  125.3150   64.9300 C   0  0  0  0  0  0  0  0  0  0  0  0
  130.7800  124.9880   66.6030 S   0  0  0  0  0  0  0  0  0  0  0  0
  129.9970  126.4540   67.1450 C   0  0  0  0  0  0  0  0  0  0  0  0
  129.9890  126.8020   68.4300 N   0  0  0  0  0  0  0  0  0  0  0  0
  129.3640  127.9640   68.7540 C   0  0  0  0  0  0  0  0  0  0  0  0
  129.3670  128.3290   70.2100 C   0  0  0  0  0  0  0  0  0  0  0  0
  130.5190  128.8600   70.8150 C   0  0  0  0  0  0  0  0  0  0  0  0
  130.5300  129.2000   72.1650 C   0  0  0  0  0  0  0  0  0  0  0  0
  129.3860  129.0120   72.9330 C   0  0  0  0  0  0  0  0  0  0  0  0
  128.2330  128.4840   72.3610 C   0  0  0  0  0  0  0  0  0  0  0  0
  128.2270  128.1450   71.0100 C   0  0  0  0  0  0  0  0  0  0  0  0
  128.7380  128.7600   67.7910 C   0  0  0  0  0  0  0  0  0  0  0  0
  128.7390  128.4010   66.4330 C   0  0  0  0  0  0  0  0  0  0  0  0
  128.0390  129.3240   65.4300 C   0  0  0  0  0  0  0  0  0  0  0  0
  128.8670  129.8250   64.5100 F   0  0  0  0  0  0  0  0  0  0  0  0
  127.0880  128.6490   64.7840 F   0  0  0  0  0  0  0  0  0  0  0  0
  127.4870  130.3530   66.0730 F   0  0  0  0  0  0  0  0  0  0  0  0
  129.4000  127.1890   66.0800 C   0  0  0  0  0  0  0  0  0  0  0  0
  129.6050  126.5100   64.8240 C   0  0  0  0  0  0  0  0  0  0  0  0
  129.1290  126.9970   63.6330 N   0  0  0  0  0  0  0  0  0  0  0  0
  129.2630  122.5820   61.2100 C   0  0  0  0  0  0  0  0  0  0  0  0
  129.4030  121.5200   60.3210 C   0  0  0  0  0  0  0  0  0  0  0  0
  1  2  1  0
  2  3  1  0
  3  4  2  0
  4  5  1  0
  5  6  2  0
  6  7  1  0
  7  8  1  0
  8  9  2  0
  8 10  1  0
 10 11  1  0
 11 12  1  0
 12 13  2  0
 13 14  1  0
 14 15  1  0
 15 16  2  0
 16 17  1  0
 17 18  2  0
 18 19  1  0
 19 20  2  0
 14 21  2  0
 21 22  1  0
 22 23  1  0
 23 24  1  0
 23 25  1  0
 23 26  1  0
 22 27  2  0
 27 28  1  0
 28 29  1  0
  6 30  1  0
 30 31  2  0
 31  3  1  0
 28 10  2  0
 27 12  1  0
 20 15  1  0
M  END
>  <Binding energies>  (32) 
[-7.0]

>  <Ligand effiencies>  (32) 
[-0.20588235294117646]

>  <Interactions>  (32) 
["V-B:TYR:539:C:9835, V-B:TYR:539:CD2:9842, V-A:LEU:475:CD2:4254, V-A:TRP:381:CZ2:3365, V-A:LEU:475:CD1:4253, V-B:ALA:541:CB:9860, V-A:TRP:381:CH2:3367, V-A:PRO:482:CB:4321, H-B:GLU:543:OE2:9878, V-B:GLU:543:CD:9876, V-A:GLU:543:CG:4902, H-A:GLU:543:OE2:4905, V-A:GLU:543:CD:4903, V-B:GLU:543:CG:9875, V-A:TYR:484:CE1:4340, V-A:TRP:381:CZ3:3366, V-A:GLU:543:CB:4901, V-B:TYR:484:CE1:9312, V-B:HIS:456:CE1:9037, V-B:TYR:484:CZ:9314, V-A:TYR:484:CZ:4342, V-A:HIS:456:CE1:4064, H-A:HIS:456:NE2:4065, V-A:LYS:547:CE:4945, V-B:HIS:456:CD2:9035, V-A:GLU:543:C:4897, V-A:GLY:544:C:4907, H-A:GLU:543:OE1:4904, V-A:PRO:482:CG:4322, V-A:TRP:381:CE2:3362, V-A:GLY:544:CA:4909, V-B:TYR:539:CB:9839, V-A:TRP:381:CD2:3360, V-A:TRP:381:CE3:3363"]

$$$$
4ce_Grossjean_2025
     RDKit          3D

 30 33  0  0  0  0  0  0  0  0999 V2000
  130.1420  119.4560   60.9960 C   0  0  0  0  0  0  0  0  0  0  0  0
  130.0070  120.9540   60.7940 C   0  0  0  0  0  0  0  0  0  0  0  0
  129.9210  121.5130   59.5160 C   0  0  0  0  0  0  0  0  0  0  0  0
  129.7900  122.8980   59.4050 C   0  0  0  0  0  0  0  0  0  0  0  0
  129.7470  123.6810   60.5600 C   0  0  0  0  0  0  0  0  0  0  0  0
  129.8430  123.0570   61.8090 C   0  0  0  0  0  0  0  0  0  0  0  0
  129.7690  123.8960   62.9350 N   0  0  0  0  0  0  0  0  0  0  0  0
  130.4300  123.7940   64.1160 C   0  0  0  0  0  0  0  0  0  0  0  0
  131.2470  122.9060   64.3680 O   0  0  0  0  0  0  0  0  0  0  0  0
  130.1150  124.8260   65.1050 C   0  0  0  0  0  0  0  0  0  0  0  0
  130.3710  124.5170   66.8210 S   0  0  0  0  0  0  0  0  0  0  0  0
  129.8360  126.1280   67.2370 C   0  0  0  0  0  0  0  0  0  0  0  0
  129.8030  126.5430   68.5000 N   0  0  0  0  0  0  0  0  0  0  0  0
  129.3870  127.8180   68.7240 C   0  0  0  0  0  0  0  0  0  0  0  0
  129.3660  128.2570   70.1580 C   0  0  0  0  0  0  0  0  0  0  0  0
  130.5050  128.8250   70.7510 C   0  0  0  0  0  0  0  0  0  0  0  0
  130.4950  129.2290   72.0830 C   0  0  0  0  0  0  0  0  0  0  0  0
  129.3410  129.0700   72.8430 C   0  0  0  0  0  0  0  0  0  0  0  0
  128.2000  128.5090   72.2820 C   0  0  0  0  0  0  0  0  0  0  0  0
  128.2140  128.1050   70.9490 C   0  0  0  0  0  0  0  0  0  0  0  0
  128.9870  128.6600   67.6810 C   0  0  0  0  0  0  0  0  0  0  0  0
  129.0140  128.2290   66.3450 C   0  0  0  0  0  0  0  0  0  0  0  0
  128.5640  129.2030   65.2520 C   0  0  0  0  0  0  0  0  0  0  0  0
  129.3470  129.1770   64.1720 F   0  0  0  0  0  0  0  0  0  0  0  0
  127.3280  128.8970   64.8550 F   0  0  0  0  0  0  0  0  0  0  0  0
  128.5770  130.4490   65.7240 F   0  0  0  0  0  0  0  0  0  0  0  0
  129.4630  126.9000   66.0970 C   0  0  0  0  0  0  0  0  0  0  0  0
  129.6310  126.1280   64.8910 C   0  0  0  0  0  0  0  0  0  0  0  0
  129.3450  126.6250   63.6460 N   0  0  0  0  0  0  0  0  0  0  0  0
  129.9670  121.7020   61.9260 N   0  0  0  0  0  0  0  0  0  0  0  0
  1  2  1  0
  2  3  2  0
  3  4  1  0
  4  5  2  0
  5  6  1  0
  6  7  1  0
  7  8  1  0
  8  9  2  0
  8 10  1  0
 10 11  1  0
 11 12  1  0
 12 13  2  0
 13 14  1  0
 14 15  1  0
 15 16  2  0
 16 17  1  0
 17 18  2  0
 18 19  1  0
 19 20  2  0
 14 21  2  0
 21 22  1  0
 22 23  1  0
 23 24  1  0
 23 25  1  0
 23 26  1  0
 22 27  2  0
 27 28  1  0
 28 29  1  0
  6 30  2  0
 30  2  1  0
 28 10  2  0
 27 12  1  0
 20 15  1  0
M  END
>  <Binding energies>  (33) 
[-7.54]

>  <Ligand effiencies>  (33) 
[-0.22848484848484849]

>  <Interactions>  (33) 
["V-B:TYR:539:C:9835, V-B:TYR:539:CD2:9842, V-A:LEU:475:CD2:4254, V-B:TYR:539:CE2:9844, V-B:ALA:541:CB:9860, H-B:GLU:543:OE2:9878, V-B:GLU:543:CD:9876, V-A:GLU:543:CG:4902, H-A:GLU:543:OE2:4905, V-A:GLU:543:CD:4903, H-A:TYR:484:OH:4343, V-B:GLU:543:CG:9875, V-A:TYR:484:CE1:4340, V-A:GLU:543:CB:4901, V-B:TYR:484:CE1:9312, V-B:HIS:456:CE1:9037, V-B:TYR:484:CZ:9314, V-A:TYR:484:CZ:4342, V-A:HIS:456:CE1:4064, H-A:HIS:456:NE2:4065, V-B:GLU:543:CB:9874, V-A:LYS:547:CE:4945, V-B:HIS:456:CD2:9035, V-A:GLU:543:C:4897, V-A:GLY:544:C:4907, H-A:GLU:543:OE1:4904, V-A:GLY:544:CA:4909"]

$$$$
4cf_Grossjean_2025
     RDKit          3D

 29 32  0  0  0  0  0  0  0  0999 V2000
  129.3590  126.6190   63.6610 N   0  0  0  0  0  0  0  0  0  0  0  0
  129.6720  126.1260   64.9020 C   0  0  0  0  0  0  0  0  0  0  0  0
  130.1800  124.8340   65.1100 C   0  0  0  0  0  0  0  0  0  0  0  0
  130.4350  123.7820   64.1220 C   0  0  0  0  0  0  0  0  0  0  0  0
  131.2330  122.8750   64.3650 O   0  0  0  0  0  0  0  0  0  0  0  0
  129.7330  123.8860   62.9680 N   0  0  0  0  0  0  0  0  0  0  0  0
  129.7790  123.0830   61.8130 C   0  0  0  0  0  0  0  0  0  0  0  0
  130.1070  121.7140   61.7830 C   0  0  0  0  0  0  0  0  0  0  0  0
  130.1300  121.0360   60.5620 C   0  0  0  0  0  0  0  0  0  0  0  0
  129.8270  121.7440   59.3980 C   0  0  0  0  0  0  0  0  0  0  0  0
  129.5150  123.0650   59.3990 N   0  0  0  0  0  0  0  0  0  0  0  0
  129.4980  123.7100   60.5940 C   0  0  0  0  0  0  0  0  0  0  0  0
  130.4750  124.5350   66.8220 S   0  0  0  0  0  0  0  0  0  0  0  0
  129.9100  126.1350   67.2440 C   0  0  0  0  0  0  0  0  0  0  0  0
  129.8780  126.5480   68.5100 N   0  0  0  0  0  0  0  0  0  0  0  0
  129.4070  127.8020   68.7400 C   0  0  0  0  0  0  0  0  0  0  0  0
  129.3760  128.2380   70.1760 C   0  0  0  0  0  0  0  0  0  0  0  0
  128.2090  128.0990   70.9430 C   0  0  0  0  0  0  0  0  0  0  0  0
  128.1710  128.5000   72.2760 C   0  0  0  0  0  0  0  0  0  0  0  0
  129.3070  129.0470   72.8630 C   0  0  0  0  0  0  0  0  0  0  0  0
  130.4780  129.1940   72.1280 C   0  0  0  0  0  0  0  0  0  0  0  0
  130.5110  128.7910   70.7960 C   0  0  0  0  0  0  0  0  0  0  0  0
  128.9960  128.6410   67.7000 C   0  0  0  0  0  0  0  0  0  0  0  0
  129.0300  128.2160   66.3630 C   0  0  0  0  0  0  0  0  0  0  0  0
  128.5590  129.1850   65.2730 C   0  0  0  0  0  0  0  0  0  0  0  0
  129.3430  129.1790   64.1920 F   0  0  0  0  0  0  0  0  0  0  0  0
  127.3310  128.8540   64.8760 F   0  0  0  0  0  0  0  0  0  0  0  0
  128.5470  130.4300   65.7490 F   0  0  0  0  0  0  0  0  0  0  0  0
  129.5050  126.8960   66.1100 C   0  0  0  0  0  0  0  0  0  0  0  0
  1  2  1  0
  2  3  2  0
  3  4  1  0
  4  5  2  0
  4  6  1  0
  6  7  1  0
  7  8  2  0
  8  9  1  0
  9 10  2  0
 10 11  1  0
 11 12  2  0
  3 13  1  0
 13 14  1  0
 14 15  2  0
 15 16  1  0
 16 17  1  0
 17 18  2  0
 18 19  1  0
 19 20  2  0
 20 21  1  0
 21 22  2  0
 16 23  2  0
 23 24  1  0
 24 25  1  0
 25 26  1  0
 25 27  1  0
 25 28  1  0
 24 29  2  0
 29  2  1  0
 12  7  1  0
 29 14  1  0
 22 17  1  0
M  END
>  <Binding energies>  (34) 
[-6.93]

>  <Ligand effiencies>  (34) 
[-0.2165625]

>  <Interactions>  (34) 
["V-B:TYR:539:C:9835, V-B:TYR:539:CD2:9842, V-B:TYR:539:CE2:9844, V-B:ALA:541:CB:9860, H-B:GLU:543:OE2:9878, V-B:GLU:543:CD:9876, V-A:GLU:543:CG:4902, H-A:GLU:543:OE2:4905, V-A:GLU:543:CD:4903, H-A:TYR:484:OH:4343, V-B:GLU:543:CG:9875, V-A:TYR:484:CE1:4340, V-A:GLU:543:CB:4901, V-B:TYR:484:CE1:9312, V-B:HIS:456:CE1:9037, V-B:TYR:484:CZ:9314, V-A:TYR:484:CZ:4342, V-A:HIS:456:CE1:4064, H-A:HIS:456:NE2:4065, V-B:GLU:543:CB:9874, V-A:LYS:547:CE:4945, V-B:HIS:456:CD2:9035, V-A:GLU:543:C:4897, V-A:GLY:544:C:4907, H-A:GLU:543:OE1:4904, V-A:GLY:544:CA:4909"]

$$$$
4ci_Grossjean_2025
     RDKit          3D

 28 31  0  0  0  0  0  0  0  0999 V2000
  123.9270  130.3290   59.9000 N   0  0  0  0  0  0  0  0  0  0  0  0
  125.0690  131.0650   60.0820 C   0  0  0  0  0  0  0  0  0  0  0  0
  125.3680  131.7400   61.2770 C   0  0  0  0  0  0  0  0  0  0  0  0
  124.5870  131.7930   62.5150 C   0  0  0  0  0  0  0  0  0  0  0  0
  124.0260  132.8350   62.8610 O   0  0  0  0  0  0  0  0  0  0  0  0
  124.5460  130.6400   63.2300 N   0  0  0  0  0  0  0  0  0  0  0  0
  123.8890  130.4130   64.4320 C   0  0  0  0  0  0  0  0  0  0  0  0
  124.4890  130.6000   65.6770 C   0  0  0  0  0  0  0  0  0  0  0  0
  123.5190  130.2710   66.5950 C   0  0  0  0  0  0  0  0  0  0  0  0
  122.3920  129.9060   65.9380 O   0  0  0  0  0  0  0  0  0  0  0  0
  122.6400  130.0000   64.5670 N   0  0  0  0  0  0  0  0  0  0  0  0
  126.9150  132.5750   61.1660 S   0  0  0  0  0  0  0  0  0  0  0  0
  127.1460  132.0250   59.5230 C   0  0  0  0  0  0  0  0  0  0  0  0
  128.2310  132.3540   58.8260 N   0  0  0  0  0  0  0  0  0  0  0  0
  128.3250  131.8770   57.5570 C   0  0  0  0  0  0  0  0  0  0  0  0
  129.5570  132.2690   56.7940 C   0  0  0  0  0  0  0  0  0  0  0  0
  130.8190  132.2650   57.4120 C   0  0  0  0  0  0  0  0  0  0  0  0
  131.9660  132.6260   56.7100 C   0  0  0  0  0  0  0  0  0  0  0  0
  131.8660  133.0010   55.3740 C   0  0  0  0  0  0  0  0  0  0  0  0
  130.6300  133.0190   54.7380 C   0  0  0  0  0  0  0  0  0  0  0  0
  129.4860  132.6570   55.4450 C   0  0  0  0  0  0  0  0  0  0  0  0
  127.3190  131.0860   56.9910 C   0  0  0  0  0  0  0  0  0  0  0  0
  126.1700  130.7330   57.7180 C   0  0  0  0  0  0  0  0  0  0  0  0
  125.1090  129.8630   57.0350 C   0  0  0  0  0  0  0  0  0  0  0  0
  124.9790  128.6580   57.5930 F   0  0  0  0  0  0  0  0  0  0  0  0
  123.9220  130.4650   57.1060 F   0  0  0  0  0  0  0  0  0  0  0  0
  125.4320  129.6780   55.7550 F   0  0  0  0  0  0  0  0  0  0  0  0
  126.0700  131.2180   59.0530 C   0  0  0  0  0  0  0  0  0  0  0  0
  1  2  1  0
  2  3  2  0
  3  4  1  0
  4  5  2  0
  4  6  1  0
  6  7  1  0
  7  8  1  0
  8  9  2  0
  9 10  1  0
 10 11  1  0
  3 12  1  0
 12 13  1  0
 13 14  2  0
 14 15  1  0
 15 16  1  0
 16 17  2  0
 17 18  1  0
 18 19  2  0
 19 20  1  0
 20 21  2  0
 15 22  2  0
 22 23  1  0
 23 24  1  0
 24 25  1  0
 24 26  1  0
 24 27  1  0
 23 28  2  0
 28  2  1  0
 11  7  2  0
 28 13  1  0
 21 16  1  0
M  END
>  <Binding energies>  (35) 
[-7.24]

>  <Ligand effiencies>  (35) 
[-0.2335483870967742]

>  <Interactions>  (35) 
["H-B:ASP:366:OD1:8181, V-A:PRO:540:N:4879, V-A:TYR:539:CE2:4871, V-A:PRO:540:CG:4881, V-A:PRO:540:CA:4878, V-A:TYR:539:CE1:4870, V-A:TYR:539:CZ:4872, V-A:PRO:540:CB:4880, V-A:LEU:363:CD1:3184, V-A:PRO:540:CD:4882, H-B:ARG:545:NH1:9895, H-B:GLY:454:N:9017, V-B:ASP:366:CG:8180, V-B:TYR:531:CZ:9762, V-B:ASP:366:CB:8179, V-A:TYR:539:CD1:4868, V-A:ILE:538:CG2:4858, V-B:TYR:531:CE1:9760, V-B:ARG:545:CZ:9894, V-A:ILE:538:CA:4855, V-B:ASP:366:C:8175, V-B:ASP:366:CA:8177, V-A:ILE:538:C:4853, V-A:ILE:538:CB:4857, V-B:HIS:456:CE1:9037, V-B:TYR:484:CZ:9314, V-B:ARG:545:CG:9890, V-B:ARG:545:CD:9891, H-B:ARG:545:NE:9892, H-B:ASP:366:O:8176, V-A:ILE:538:CD1:4860"]

$$$$
8a_Ghoteimi_2023
     RDKit          3D

 40 44  0  0  0  0  0  0  0  0999 V2000
  129.2430  125.7950   55.0120 C   0  0  0  0  0  0  0  0  0  0  0  0
  129.9610  124.5540   55.5480 C   0  0  0  0  0  0  0  0  0  0  0  0
  129.1820  123.3990   55.2690 O   0  0  0  0  0  0  0  0  0  0  0  0
  128.5170  122.7450   56.2580 C   0  0  0  0  0  0  0  0  0  0  0  0
  127.8120  121.7510   56.0610 O   0  0  0  0  0  0  0  0  0  0  0  0
  128.7210  123.3560   57.6140 C   0  0  0  0  0  0  0  0  0  0  0  0
  127.6580  124.0290   58.2280 C   0  0  0  0  0  0  0  0  0  0  0  0
  127.8160  124.6070   59.4840 C   0  0  0  0  0  0  0  0  0  0  0  0
  129.0380  124.5260   60.1530 C   0  0  0  0  0  0  0  0  0  0  0  0
  129.0830  125.1520   61.4150 N   0  0  0  0  0  0  0  0  0  0  0  0
  130.0720  125.8680   62.0040 C   0  0  0  0  0  0  0  0  0  0  0  0
  131.1660  126.0960   61.4870 O   0  0  0  0  0  0  0  0  0  0  0  0
  129.7590  126.3850   63.3390 C   0  0  0  0  0  0  0  0  0  0  0  0
  130.7710  125.9610   64.7190 S   0  0  0  0  0  0  0  0  0  0  0  0
  129.7680  126.8970   65.8030 C   0  0  0  0  0  0  0  0  0  0  0  0
  130.0220  126.9630   67.1100 N   0  0  0  0  0  0  0  0  0  0  0  0
  129.1770  127.7140   67.8640 C   0  0  0  0  0  0  0  0  0  0  0  0
  129.4680  127.7580   69.3300 C   0  0  0  0  0  0  0  0  0  0  0  0
  129.0010  126.7550   70.1910 C   0  0  0  0  0  0  0  0  0  0  0  0
  129.2650  126.8070   71.5560 C   0  0  0  0  0  0  0  0  0  0  0  0
  130.0030  127.8590   72.0950 C   0  0  0  0  0  0  0  0  0  0  0  0
  130.2150  127.8300   73.4610 O   0  0  0  0  0  0  0  0  0  0  0  0
  130.7280  126.6430   74.0570 C   0  0  0  0  0  0  0  0  0  0  0  0
  130.4800  128.8650   71.2420 C   0  0  0  0  0  0  0  0  0  0  0  0
  130.2110  128.8110   69.8770 C   0  0  0  0  0  0  0  0  0  0  0  0
  128.0920  128.3990   67.3120 C   0  0  0  0  0  0  0  0  0  0  0  0
  127.8320  128.3460   65.9380 C   0  0  0  0  0  0  0  0  0  0  0  0
  126.6840  129.1180   65.3990 C   0  0  0  0  0  0  0  0  0  0  0  0
  125.3920  128.8780   65.8690 C   0  0  0  0  0  0  0  0  0  0  0  0
  124.3160  129.6140   65.3810 C   0  0  0  0  0  0  0  0  0  0  0  0
  124.5130  130.6060   64.4200 C   0  0  0  0  0  0  0  0  0  0  0  0
  123.3880  131.2850   63.9940 O   0  0  0  0  0  0  0  0  0  0  0  0
  122.9170  131.0860   62.6670 C   0  0  0  0  0  0  0  0  0  0  0  0
  125.8130  130.8550   63.9510 C   0  0  0  0  0  0  0  0  0  0  0  0
  126.8870  130.1180   64.4430 C   0  0  0  0  0  0  0  0  0  0  0  0
  128.6910  127.5470   65.1320 C   0  0  0  0  0  0  0  0  0  0  0  0
  128.6990  127.2210   63.7270 C   0  0  0  0  0  0  0  0  0  0  0  0
  127.7410  127.6800   62.8580 N   0  0  0  0  0  0  0  0  0  0  0  0
  130.1080  123.8490   59.5480 C   0  0  0  0  0  0  0  0  0  0  0  0
  129.9480  123.2710   58.2910 C   0  0  0  0  0  0  0  0  0  0  0  0
  1  2  1  0
  2  3  1  0
  3  4  1  0
  4  5  2  0
  4  6  1  0
  6  7  2  0
  7  8  1  0
  8  9  2  0
  9 10  1  0
 10 11  1  0
 11 12  2  0
 11 13  1  0
 13 14  1  0
 14 15  1  0
 15 16  2  0
 16 17  1  0
 17 18  1  0
 18 19  2  0
 19 20  1  0
 20 21  2  0
 21 22  1  0
 22 23  1  0
 21 24  1  0
 24 25  2  0
 17 26  2  0
 26 27  1  0
 27 28  1  0
 28 29  2  0
 29 30  1  0
 30 31  2  0
 31 32  1  0
 32 33  1  0
 31 34  1  0
 34 35  2  0
 27 36  2  0
 36 37  1  0
 37 38  1  0
  9 39  1  0
 39 40  2  0
 40  6  1  0
 37 13  2  0
 36 15  1  0
 25 18  1  0
 35 28  1  0
M  END
>  <Binding energies>  (36) 
[-8.77]

>  <Ligand effiencies>  (36) 
[-0.203953488372093]

>  <Interactions>  (36) 
["V-B:TYR:539:CD2:9842, V-B:TYR:539:CE2:9844, V-B:MET:535:CE:9803, H-B:GLU:543:OE1:9877, H-B:GLU:543:OE2:9878, V-B:GLU:543:CD:9876, V-A:GLU:543:CD:4903, H-B:GLY:454:N:9017, V-B:ILE:369:CD1:8206, H-B:TYR:539:N:9838, V-B:TYR:539:CZ:9845, V-B:ARG:545:CZ:9894, V-A:GLU:543:CB:4901, V-B:HIS:456:CE1:9037, V-B:ARG:545:CG:9890, V-B:ARG:545:CD:9891, V-A:HIS:456:CE1:4064, V-B:TYR:539:CE1:9843, V-A:LYS:547:CE:4945, H-A:LYS:547:NZ:4946, V-A:GLU:543:C:4897, V-A:GLY:544:C:4907, V-B:GLY:453:CA:9011, V-B:GLY:453:C:9009, H-B:TYR:539:OH:9846, H-A:LYS:534:NZ:4818, V-B:TYR:539:CD1:9841, V-B:TYR:539:CG:9840"]

$$$$
8c_Ghoteimi_2023
     RDKit          3D

 34 38  0  0  0  0  0  0  0  0999 V2000
  128.0760  130.5140   74.5800 C   0  0  0  0  0  0  0  0  0  0  0  0
  128.9260  129.4300   74.2270 O   0  0  0  0  0  0  0  0  0  0  0  0
  129.0380  129.0650   72.8980 C   0  0  0  0  0  0  0  0  0  0  0  0
  127.9060  128.5040   72.3090 C   0  0  0  0  0  0  0  0  0  0  0  0
  127.9280  128.1050   70.9760 C   0  0  0  0  0  0  0  0  0  0  0  0
  129.0830  128.2580   70.1960 C   0  0  0  0  0  0  0  0  0  0  0  0
  129.1130  127.8270   68.7640 C   0  0  0  0  0  0  0  0  0  0  0  0
  128.5390  128.6000   67.7500 C   0  0  0  0  0  0  0  0  0  0  0  0
  128.5840  128.1750   66.4170 C   0  0  0  0  0  0  0  0  0  0  0  0
  127.9590  129.0130   65.3680 C   0  0  0  0  0  0  0  0  0  0  0  0
  126.7120  128.6660   64.8410 C   0  0  0  0  0  0  0  0  0  0  0  0
  126.1220  129.4600   63.8630 C   0  0  0  0  0  0  0  0  0  0  0  0
  126.7660  130.6050   63.3930 C   0  0  0  0  0  0  0  0  0  0  0  0
  126.1040  131.3330   62.4230 O   0  0  0  0  0  0  0  0  0  0  0  0
  124.7590  130.9990   62.1020 C   0  0  0  0  0  0  0  0  0  0  0  0
  128.0210  130.9490   63.9210 C   0  0  0  0  0  0  0  0  0  0  0  0
  128.6100  130.1560   64.9010 C   0  0  0  0  0  0  0  0  0  0  0  0
  129.2320  126.9450   66.1290 C   0  0  0  0  0  0  0  0  0  0  0  0
  129.4610  126.2260   64.9040 C   0  0  0  0  0  0  0  0  0  0  0  0
  129.0280  126.6910   63.6870 N   0  0  0  0  0  0  0  0  0  0  0  0
  130.1600  125.0200   65.0740 C   0  0  0  0  0  0  0  0  0  0  0  0
  130.5640  124.0490   64.0550 C   0  0  0  0  0  0  0  0  0  0  0  0
  131.7330  123.6660   63.9770 O   0  0  0  0  0  0  0  0  0  0  0  0
  129.5730  123.6240   63.2310 N   0  0  0  0  0  0  0  0  0  0  0  0
  129.6860  122.7120   62.1920 C   0  0  0  0  0  0  0  0  0  0  0  0
  129.2270  122.8250   60.9640 N   0  0  0  0  0  0  0  0  0  0  0  0
  129.5200  121.7650   60.2380 C   0  0  0  0  0  0  0  0  0  0  0  0
  130.2330  120.7570   60.8780 C   0  0  0  0  0  0  0  0  0  0  0  0
  130.5310  121.2340   62.5240 S   0  0  0  0  0  0  0  0  0  0  0  0
  130.5580  124.7480   66.7710 S   0  0  0  0  0  0  0  0  0  0  0  0
  129.7850  126.2440   67.2400 C   0  0  0  0  0  0  0  0  0  0  0  0
  129.7420  126.6470   68.5100 N   0  0  0  0  0  0  0  0  0  0  0  0
  130.2160  128.8250   70.7950 C   0  0  0  0  0  0  0  0  0  0  0  0
  130.1980  129.2250   72.1280 C   0  0  0  0  0  0  0  0  0  0  0  0
  1  2  1  0
  2  3  1  0
  3  4  2  0
  4  5  1  0
  5  6  2  0
  6  7  1  0
  7  8  2  0
  8  9  1  0
  9 10  1  0
 10 11  2  0
 11 12  1  0
 12 13  2  0
 13 14  1  0
 14 15  1  0
 13 16  1  0
 16 17  2  0
  9 18  2  0
 18 19  1  0
 19 20  1  0
 19 21  2  0
 21 22  1  0
 22 23  2  0
 22 24  1  0
 24 25  1  0
 25 26  2  0
 26 27  1  0
 27 28  2  0
 28 29  1  0
 21 30  1  0
 30 31  1  0
 31 32  2  0
  6 33  1  0
 33 34  2  0
 34  3  1  0
 32  7  1  0
 17 10  1  0
 31 18  1  0
 29 25  1  0
M  END
>  <Binding energies>  (37) 
[-8.01]

>  <Ligand effiencies>  (37) 
[-0.21648648648648647]

>  <Interactions>  (37) 
["V-A:LEU:475:CD2:4254, V-B:ALA:541:CB:9860, H-B:GLU:543:OE1:9877, H-B:GLU:543:OE2:9878, V-B:GLU:543:CD:9876, V-A:GLU:543:CG:4902, V-A:GLU:543:CD:4903, H-A:TYR:484:OH:4343, V-B:GLU:543:CG:9875, V-A:TYR:484:CE1:4340, V-B:HIS:456:CE1:9037, V-A:TYR:484:CZ:4342, V-A:HIS:456:CE1:4064, H-A:HIS:456:NE2:4065, V-B:GLU:543:CB:9874, V-A:LYS:547:CE:4945, H-A:LYS:547:NZ:4946, V-B:HIS:456:CD2:9035, V-A:GLU:543:C:4897, V-A:GLY:544:C:4907, V-B:HIS:456:CG:9033"]

$$$$
8d_Ghoteimi_2023
     RDKit          3D

 30 33  0  0  0  0  0  0  0  0999 V2000
  126.3710  126.4370   61.0400 C   0  0  0  0  0  0  0  0  0  0  0  0
  127.0850  127.5650   61.5270 O   0  0  0  0  0  0  0  0  0  0  0  0
  126.5640  128.3480   62.5070 C   0  0  0  0  0  0  0  0  0  0  0  0
  125.6390  129.1460   62.3340 O   0  0  0  0  0  0  0  0  0  0  0  0
  127.2220  128.1480   63.8160 C   0  0  0  0  0  0  0  0  0  0  0  0
  126.5510  128.9020   65.2640 S   0  0  0  0  0  0  0  0  0  0  0  0
  127.8170  128.2170   66.2550 C   0  0  0  0  0  0  0  0  0  0  0  0
  127.8780  128.4360   67.5690 N   0  0  0  0  0  0  0  0  0  0  0  0
  128.9040  127.8540   68.2470 C   0  0  0  0  0  0  0  0  0  0  0  0
  128.9520  128.1190   69.7180 C   0  0  0  0  0  0  0  0  0  0  0  0
  127.8400  127.8710   70.5360 C   0  0  0  0  0  0  0  0  0  0  0  0
  127.8890  128.1200   71.9040 C   0  0  0  0  0  0  0  0  0  0  0  0
  129.0490  128.6240   72.4920 C   0  0  0  0  0  0  0  0  0  0  0  0
  129.0070  128.8400   73.8550 O   0  0  0  0  0  0  0  0  0  0  0  0
  128.2080  129.9010   74.3660 C   0  0  0  0  0  0  0  0  0  0  0  0
  130.1670  128.8740   71.6840 C   0  0  0  0  0  0  0  0  0  0  0  0
  130.1140  128.6230   70.3150 C   0  0  0  0  0  0  0  0  0  0  0  0
  129.8660  127.0650   67.6100 C   0  0  0  0  0  0  0  0  0  0  0  0
  129.8010  126.8330   66.2330 C   0  0  0  0  0  0  0  0  0  0  0  0
  130.8300  125.9840   65.5880 C   0  0  0  0  0  0  0  0  0  0  0  0
  132.1860  126.2420   65.8020 C   0  0  0  0  0  0  0  0  0  0  0  0
  133.1540  125.4500   65.1900 C   0  0  0  0  0  0  0  0  0  0  0  0
  132.7830  124.3900   64.3610 C   0  0  0  0  0  0  0  0  0  0  0  0
  133.8100  123.6600   63.7960 O   0  0  0  0  0  0  0  0  0  0  0  0
  134.2430  123.9760   62.4780 C   0  0  0  0  0  0  0  0  0  0  0  0
  131.4180  124.1310   64.1510 C   0  0  0  0  0  0  0  0  0  0  0  0
  130.4510  124.9250   64.7640 C   0  0  0  0  0  0  0  0  0  0  0  0
  128.7360  127.4280   65.5060 C   0  0  0  0  0  0  0  0  0  0  0  0
  128.3710  127.4070   64.1160 C   0  0  0  0  0  0  0  0  0  0  0  0
  129.0950  126.7220   63.1720 N   0  0  0  0  0  0  0  0  0  0  0  0
  1  2  1  0
  2  3  1  0
  3  4  2  0
  3  5  1  0
  5  6  1  0
  6  7  1  0
  7  8  2  0
  8  9  1  0
  9 10  1  0
 10 11  2  0
 11 12  1  0
 12 13  2  0
 13 14  1  0
 14 15  1  0
 13 16  1  0
 16 17  2  0
  9 18  2  0
 18 19  1  0
 19 20  1  0
 20 21  2  0
 21 22  1  0
 22 23  2  0
 23 24  1  0
 24 25  1  0
 23 26  1  0
 26 27  2  0
 19 28  2  0
 28 29  1  0
 29 30  1  0
 29  5  2  0
 28  7  1  0
 17 10  1  0
 27 20  1  0
M  END
>  <Binding energies>  (38) 
[-6.58]

>  <Ligand effiencies>  (38) 
[-0.205625]

>  <Interactions>  (38) 
["H-B:GLU:543:OE2:9878, V-B:GLU:543:CD:9876, V-A:ASP:366:CG:3208, V-A:GLU:543:CD:4903, H-A:TYR:484:OH:4343, V-B:GLU:543:CG:9875, V-B:ASP:366:CG:8180, V-B:HIS:456:CE1:9037, V-A:HIS:456:CE1:4064, H-B:LYS:547:NZ:9919, H-A:LYS:547:NZ:4946, V-B:HIS:456:CD2:9035, V-A:GLU:543:C:4897, V-A:ILE:369:CD1:3234, V-A:GLY:544:C:4907, H-A:GLU:543:OE1:4904, H-B:ARG:545:NH2:9896, V-A:ARG:545:CZ:4921, H-A:GLY:454:N:4045, V-A:GLY:453:C:4037"]

$$$$
9a_Ghoteimi_2023
     RDKit          3D

 48 54  0  0  0  0  0  0  0  0999 V2000
  127.4920  136.8350   61.4970 C   0  0  0  0  0  0  0  0  0  0  0  0
  127.9100  135.4060   61.8580 C   0  0  0  0  0  0  0  0  0  0  0  0
  127.1910  134.4840   61.0490 O   0  0  0  0  0  0  0  0  0  0  0  0
  126.1240  133.8030   61.5410 C   0  0  0  0  0  0  0  0  0  0  0  0
  124.9530  134.0800   61.2630 O   0  0  0  0  0  0  0  0  0  0  0  0
  126.5090  132.6830   62.4640 C   0  0  0  0  0  0  0  0  0  0  0  0
  127.8650  132.4400   62.7190 C   0  0  0  0  0  0  0  0  0  0  0  0
  128.2540  131.4080   63.5680 C   0  0  0  0  0  0  0  0  0  0  0  0
  127.2980  130.5980   64.1810 C   0  0  0  0  0  0  0  0  0  0  0  0
  127.8060  129.5870   65.0180 N   0  0  0  0  0  0  0  0  0  0  0  0
  128.4120  129.6700   66.2290 C   0  0  0  0  0  0  0  0  0  0  0  0
  128.6240  130.7260   66.8250 O   0  0  0  0  0  0  0  0  0  0  0  0
  128.8110  128.3880   66.8190 C   0  0  0  0  0  0  0  0  0  0  0  0
  128.6150  128.1050   68.5490 S   0  0  0  0  0  0  0  0  0  0  0  0
  129.2620  126.4870   68.4030 C   0  0  0  0  0  0  0  0  0  0  0  0
  129.3630  125.6780   69.4560 N   0  0  0  0  0  0  0  0  0  0  0  0
  129.8680  124.4350   69.2330 C   0  0  0  0  0  0  0  0  0  0  0  0
  129.9620  123.5410   70.4270 C   0  0  0  0  0  0  0  0  0  0  0  0
  129.4420  122.2420   70.3850 C   0  0  0  0  0  0  0  0  0  0  0  0
  129.5260  121.4020   71.4920 C   0  0  0  0  0  0  0  0  0  0  0  0
  130.1470  121.8250   72.6780 C   0  0  0  0  0  0  0  0  0  0  0  0
  130.2230  120.9990   73.8050 N   0  0  0  0  0  0  0  0  0  0  0  0
  130.8900  119.6820   73.7530 C   0  0  0  0  0  0  0  0  0  0  0  0
  130.5650  118.7720   74.9560 C   0  0  0  0  0  0  0  0  0  0  0  0
  130.8600  119.4440   76.1690 O   0  0  0  0  0  0  0  0  0  0  0  0
  130.0960  120.6330   76.3030 C   0  0  0  0  0  0  0  0  0  0  0  0
  130.4140  121.5970   75.1420 C   0  0  0  0  0  0  0  0  0  0  0  0
  130.6540  123.1320   72.7190 C   0  0  0  0  0  0  0  0  0  0  0  0
  130.5660  123.9720   71.6130 C   0  0  0  0  0  0  0  0  0  0  0  0
  130.2930  124.0190   67.9700 C   0  0  0  0  0  0  0  0  0  0  0  0
  130.2070  124.8730   66.8650 C   0  0  0  0  0  0  0  0  0  0  0  0
  130.7070  124.3930   65.5510 C   0  0  0  0  0  0  0  0  0  0  0  0
  131.7950  125.0150   64.9340 C   0  0  0  0  0  0  0  0  0  0  0  0
  132.2710  124.5550   63.7100 C   0  0  0  0  0  0  0  0  0  0  0  0
  131.6820  123.4480   63.0770 C   0  0  0  0  0  0  0  0  0  0  0  0
  132.1360  122.9750   61.8430 N   0  0  0  0  0  0  0  0  0  0  0  0
  132.4860  123.9440   60.7860 C   0  0  0  0  0  0  0  0  0  0  0  0
  133.3150  123.3260   59.6410 C   0  0  0  0  0  0  0  0  0  0  0  0
  132.6340  122.2070   59.0960 O   0  0  0  0  0  0  0  0  0  0  0  0
  132.4170  121.1990   60.0710 C   0  0  0  0  0  0  0  0  0  0  0  0
  131.5630  121.7610   61.2280 C   0  0  0  0  0  0  0  0  0  0  0  0
  130.5930  122.8300   63.7080 C   0  0  0  0  0  0  0  0  0  0  0  0
  130.1140  123.2930   64.9290 C   0  0  0  0  0  0  0  0  0  0  0  0
  129.6470  126.1670   67.0680 C   0  0  0  0  0  0  0  0  0  0  0  0
  129.3560  127.2640   66.1790 C   0  0  0  0  0  0  0  0  0  0  0  0
  129.5820  127.1990   64.8280 N   0  0  0  0  0  0  0  0  0  0  0  0
  125.9360  130.8360   63.9350 C   0  0  0  0  0  0  0  0  0  0  0  0
  125.5490  131.8680   63.0840 C   0  0  0  0  0  0  0  0  0  0  0  0
  1  2  1  0
  2  3  1  0
  3  4  1  0
  4  5  2  0
  4  6  1  0
  6  7  2  0
  7  8  1  0
  8  9  2  0
  9 10  1  0
 10 11  1  0
 11 12  2  0
 11 13  1  0
 13 14  1  0
 14 15  1  0
 15 16  2  0
 16 17  1  0
 17 18  1  0
 18 19  2  0
 19 20  1  0
 20 21  2  0
 21 22  1  0
 22 23  1  0
 23 24  1  0
 24 25  1  0
 25 26  1  0
 26 27  1  0
 21 28  1  0
 28 29  2  0
 17 30  2  0
 30 31  1  0
 31 32  1  0
 32 33  2  0
 33 34  1  0
 34 35  2  0
 35 36  1  0
 36 37  1  0
 37 38  1  0
 38 39  1  0
 39 40  1  0
 40 41  1  0
 35 42  1  0
 42 43  2  0
 31 44  2  0
 44 45  1  0
 45 46  1  0
  9 47  1  0
 47 48  2  0
 48  6  1  0
 45 13  2  0
 44 15  1  0
 29 18  1  0
 43 32  1  0
 27 22  1  0
 41 36  1  0
M  END
>  <Binding energies>  (39) 
[-9.47]

>  <Ligand effiencies>  (39) 
[-0.18568627450980393]

>  <Interactions>  (39) 
["V-B:TYR:539:CD2:9842, V-A:LEU:475:CD2:4254, V-B:TYR:539:CE2:9844, H-B:GLU:543:OE2:9878, V-B:GLU:543:CD:9876, V-A:GLU:543:CG:4902, V-A:TYR:539:CE2:4871, H-A:GLU:543:OE2:4905, V-A:ASP:366:CG:3208, V-A:GLU:543:CD:4903, V-B:GLU:543:CG:9875, V-A:TYR:484:CE1:4340, V-B:LEU:475:CD2:9226, V-B:TRP:381:CH2:8339, V-A:ALA:541:CB:4887, V-B:LEU:475:CD1:9225, V-A:GLU:543:CB:4901, V-B:HIS:456:CE1:9037, H-B:TYR:484:OH:9315, V-A:TYR:484:CZ:4342, V-B:GLU:543:CA:9872, V-A:HIS:456:CE1:4064, H-A:HIS:456:NE2:4065, V-B:GLU:543:CB:9874, V-A:HIS:456:CG:4061, V-A:ASP:473:CG:4235, V-B:GLU:543:C:9870, V-A:ILE:369:CD1:3234, V-A:ILE:369:CG2:3232, H-A:GLU:543:OE1:4904, V-A:TYR:484:CB:4336, V-A:TYR:484:CG:4337, V-A:ASP:473:CB:4234, V-B:TRP:381:CZ2:8337, V-B:PRO:482:CB:9293, V-B:TRP:381:CZ3:8338, V-A:HIS:456:CD2:4063, V-B:TRP:381:CE2:8334, V-B:PRO:482:CG:9294, V-A:TYR:484:CD1:4338, H-A:LYS:471:NZ:4216"]

$$$$
9b_Ghoteimi_2023
     RDKit          3D

 42 48  0  0  0  0  0  0  0  0999 V2000
  128.7720  129.2600   58.8070 N   0  0  0  0  0  0  0  0  0  0  0  0
  128.9710  129.9400   59.9820 C   0  0  0  0  0  0  0  0  0  0  0  0
  129.3620  131.2860   60.0400 C   0  0  0  0  0  0  0  0  0  0  0  0
  129.6060  132.2150   58.9340 C   0  0  0  0  0  0  0  0  0  0  0  0
  129.1010  133.3400   58.9340 O   0  0  0  0  0  0  0  0  0  0  0  0
  130.4020  131.7440   57.9420 N   0  0  0  0  0  0  0  0  0  0  0  0
  130.7860  132.4010   56.7790 C   0  0  0  0  0  0  0  0  0  0  0  0
  131.9530  132.0930   56.0810 C   0  0  0  0  0  0  0  0  0  0  0  0
  131.9640  132.9530   55.0070 C   0  0  0  0  0  0  0  0  0  0  0  0
  130.8600  133.7370   55.0560 O   0  0  0  0  0  0  0  0  0  0  0  0
  130.1220  133.3780   56.1840 N   0  0  0  0  0  0  0  0  0  0  0  0
  129.5540  131.8240   61.7090 S   0  0  0  0  0  0  0  0  0  0  0  0
  129.1280  130.2410   62.3150 C   0  0  0  0  0  0  0  0  0  0  0  0
  129.1150  129.9740   63.6200 N   0  0  0  0  0  0  0  0  0  0  0  0
  128.7870  128.7070   63.9860 C   0  0  0  0  0  0  0  0  0  0  0  0
  128.8010  128.4280   65.4540 C   0  0  0  0  0  0  0  0  0  0  0  0
  128.8890  127.1180   65.9410 C   0  0  0  0  0  0  0  0  0  0  0  0
  128.8870  126.8630   67.3090 C   0  0  0  0  0  0  0  0  0  0  0  0
  128.7820  127.9080   68.2410 C   0  0  0  0  0  0  0  0  0  0  0  0
  128.7810  127.6670   69.6200 N   0  0  0  0  0  0  0  0  0  0  0  0
  128.9860  128.7600   70.5910 C   0  0  0  0  0  0  0  0  0  0  0  0
  128.6130  128.3840   72.0400 C   0  0  0  0  0  0  0  0  0  0  0  0
  129.3150  127.2170   72.4340 O   0  0  0  0  0  0  0  0  0  0  0  0
  128.9930  126.1120   71.6060 C   0  0  0  0  0  0  0  0  0  0  0  0
  129.3730  126.4170   70.1410 C   0  0  0  0  0  0  0  0  0  0  0  0
  128.7140  129.2180   67.7480 C   0  0  0  0  0  0  0  0  0  0  0  0
  128.7200  129.4740   66.3800 C   0  0  0  0  0  0  0  0  0  0  0  0
  128.4480  127.7240   63.0530 C   0  0  0  0  0  0  0  0  0  0  0  0
  128.4400  128.0070   61.6820 C   0  0  0  0  0  0  0  0  0  0  0  0
  128.0420  126.9360   60.7330 C   0  0  0  0  0  0  0  0  0  0  0  0
  128.9790  126.3900   59.8550 C   0  0  0  0  0  0  0  0  0  0  0  0
  128.6150  125.3730   58.9780 C   0  0  0  0  0  0  0  0  0  0  0  0
  127.3030  124.8740   58.9550 C   0  0  0  0  0  0  0  0  0  0  0  0
  126.9200  123.8430   58.0930 N   0  0  0  0  0  0  0  0  0  0  0  0
  125.5490  123.8310   57.5470 C   0  0  0  0  0  0  0  0  0  0  0  0
  125.1430  122.4640   56.9550 C   0  0  0  0  0  0  0  0  0  0  0  0
  126.0810  122.0640   55.9670 O   0  0  0  0  0  0  0  0  0  0  0  0
  127.3890  121.9400   56.5050 C   0  0  0  0  0  0  0  0  0  0  0  0
  127.8510  123.2910   57.0900 C   0  0  0  0  0  0  0  0  0  0  0  0
  126.3750  125.4180   59.8550 C   0  0  0  0  0  0  0  0  0  0  0  0
  126.7400  126.4360   60.7320 C   0  0  0  0  0  0  0  0  0  0  0  0
  128.8140  129.3180   61.2740 C   0  0  0  0  0  0  0  0  0  0  0  0
  1  2  1  0
  2  3  2  0
  3  4  1  0
  4  5  2  0
  4  6  1  0
  6  7  1  0
  7  8  1  0
  8  9  2  0
  9 10  1  0
 10 11  1  0
  3 12  1  0
 12 13  1  0
 13 14  2  0
 14 15  1  0
 15 16  1  0
 16 17  2  0
 17 18  1  0
 18 19  2  0
 19 20  1  0
 20 21  1  0
 21 22  1  0
 22 23  1  0
 23 24  1  0
 24 25  1  0
 19 26  1  0
 26 27  2  0
 15 28  2  0
 28 29  1  0
 29 30  1  0
 30 31  2  0
 31 32  1  0
 32 33  2  0
 33 34  1  0
 34 35  1  0
 35 36  1  0
 36 37  1  0
 37 38  1  0
 38 39  1  0
 33 40  1  0
 40 41  2  0
 29 42  2  0
 42  2  1  0
 11  7  2  0
 42 13  1  0
 27 16  1  0
 41 30  1  0
 25 20  1  0
 39 34  1  0
M  END
>  <Binding energies>  (40) 
[-9.21]

>  <Ligand effiencies>  (40) 
[-0.2046666666666667]

>  <Interactions>  (40) 
["V-B:TYR:539:C:9835, V-B:PRO:540:N:9852, V-B:PRO:540:CA:9851, V-B:MET:535:CE:9803, V-B:PRO:540:CB:9853, V-B:GLU:543:CD:9876, V-A:GLU:543:CG:4902, V-A:PRO:540:N:4879, V-A:PRO:540:CA:4878, V-A:PRO:540:CB:4880, V-A:LEU:363:CD1:3184, V-A:PRO:540:CD:4882, V-A:GLU:543:CD:4903, V-B:GLU:543:CG:9875, H-A:TYR:539:N:4865, H-B:TYR:539:N:9838, V-B:TYR:539:CA:9837, V-B:PRO:540:CD:9855, V-B:LEU:363:CD1:8156, V-A:ILE:538:CG2:4858, V-A:ILE:538:CA:4855, V-A:ILE:538:CB:4857, V-A:GLU:543:CB:4901, V-B:HIS:456:CE1:9037, V-A:HIS:456:CE1:4064, V-B:GLU:543:CB:9874, V-B:TYR:539:CE1:9843, H-B:LYS:547:NZ:9919, V-B:HIS:456:CD2:9035, V-B:PRO:540:CG:9854, V-B:TYR:539:CD1:9841, V-B:TYR:539:CG:9840, V-A:ILE:538:CD1:4860"]

$$$$
9c_Ghoteimi_2023
     RDKit          3D

 42 48  0  0  0  0  0  0  0  0999 V2000
  129.7540  127.3010   65.0260 N   0  0  0  0  0  0  0  0  0  0  0  0
  129.4460  127.3190   66.3630 C   0  0  0  0  0  0  0  0  0  0  0  0
  128.9380  128.4480   67.0240 C   0  0  0  0  0  0  0  0  0  0  0  0
  128.6240  129.7680   66.4680 C   0  0  0  0  0  0  0  0  0  0  0  0
  128.4270  130.7340   67.2090 O   0  0  0  0  0  0  0  0  0  0  0  0
  128.5650  129.8300   65.1150 N   0  0  0  0  0  0  0  0  0  0  0  0
  128.2750  130.9460   64.3430 C   0  0  0  0  0  0  0  0  0  0  0  0
  128.5920  132.2000   64.5830 N   0  0  0  0  0  0  0  0  0  0  0  0
  128.1480  133.0030   63.6340 C   0  0  0  0  0  0  0  0  0  0  0  0
  127.4500  132.3970   62.5930 C   0  0  0  0  0  0  0  0  0  0  0  0
  127.3780  130.6850   62.8810 S   0  0  0  0  0  0  0  0  0  0  0  0
  128.6860  128.1230   68.7390 S   0  0  0  0  0  0  0  0  0  0  0  0
  129.2780  126.4890   68.5630 C   0  0  0  0  0  0  0  0  0  0  0  0
  129.3670  125.6630   69.6040 N   0  0  0  0  0  0  0  0  0  0  0  0
  129.8570  124.4180   69.3630 C   0  0  0  0  0  0  0  0  0  0  0  0
  129.9660  123.5200   70.5520 C   0  0  0  0  0  0  0  0  0  0  0  0
  129.3930  122.2430   70.5510 C   0  0  0  0  0  0  0  0  0  0  0  0
  129.4900  121.4130   71.6630 C   0  0  0  0  0  0  0  0  0  0  0  0
  130.1540  121.8360   72.8260 C   0  0  0  0  0  0  0  0  0  0  0  0
  130.2660  121.0110   73.9510 N   0  0  0  0  0  0  0  0  0  0  0  0
  130.4590  121.5760   75.3030 C   0  0  0  0  0  0  0  0  0  0  0  0
  130.2120  120.5650   76.4420 C   0  0  0  0  0  0  0  0  0  0  0  0
  131.0200  119.4150   76.2530 O   0  0  0  0  0  0  0  0  0  0  0  0
  130.7200  118.7660   75.0280 C   0  0  0  0  0  0  0  0  0  0  0  0
  130.9790  119.7220   73.8430 C   0  0  0  0  0  0  0  0  0  0  0  0
  130.7420  123.1090   72.8150 C   0  0  0  0  0  0  0  0  0  0  0  0
  130.6480  123.9360   71.7000 C   0  0  0  0  0  0  0  0  0  0  0  0
  130.2270  123.9960   68.0840 C   0  0  0  0  0  0  0  0  0  0  0  0
  130.1140  124.8540   66.9840 C   0  0  0  0  0  0  0  0  0  0  0  0
  130.4910  124.3480   65.6400 C   0  0  0  0  0  0  0  0  0  0  0  0
  131.5420  124.9370   64.9350 C   0  0  0  0  0  0  0  0  0  0  0  0
  131.9090  124.4550   63.6820 C   0  0  0  0  0  0  0  0  0  0  0  0
  131.2330  123.3710   63.1000 C   0  0  0  0  0  0  0  0  0  0  0  0
  131.5930  122.8630   61.8470 N   0  0  0  0  0  0  0  0  0  0  0  0
  132.8830  123.2630   61.2510 C   0  0  0  0  0  0  0  0  0  0  0  0
  132.9760  122.9580   59.7400 C   0  0  0  0  0  0  0  0  0  0  0  0
  132.7190  121.5820   59.5060 O   0  0  0  0  0  0  0  0  0  0  0  0
  131.4260  121.2060   59.9510 C   0  0  0  0  0  0  0  0  0  0  0  0
  131.2890  121.4700   61.4670 C   0  0  0  0  0  0  0  0  0  0  0  0
  130.1930  122.7740   63.8260 C   0  0  0  0  0  0  0  0  0  0  0  0
  129.8250  123.2560   65.0800 C   0  0  0  0  0  0  0  0  0  0  0  0
  129.6370  126.1750   67.2180 C   0  0  0  0  0  0  0  0  0  0  0  0
  1  2  1  0
  2  3  2  0
  3  4  1  0
  4  5  2  0
  4  6  1  0
  6  7  1  0
  7  8  2  0
  8  9  1  0
  9 10  2  0
 10 11  1  0
  3 12  1  0
 12 13  1  0
 13 14  2  0
 14 15  1  0
 15 16  1  0
 16 17  2  0
 17 18  1  0
 18 19  2  0
 19 20  1  0
 20 21  1  0
 21 22  1  0
 22 23  1  0
 23 24  1  0
 24 25  1  0
 19 26  1  0
 26 27  2  0
 15 28  2  0
 28 29  1  0
 29 30  1  0
 30 31  2  0
 31 32  1  0
 32 33  2  0
 33 34  1  0
 34 35  1  0
 35 36  1  0
 36 37  1  0
 37 38  1  0
 38 39  1  0
 33 40  1  0
 40 41  2  0
 29 42  2  0
 42  2  1  0
 11  7  1  0
 42 13  1  0
 27 16  1  0
 41 30  1  0
 25 20  1  0
 39 34  1  0
M  END
>  <Binding energies>  (41) 
[-8.81]

>  <Ligand effiencies>  (41) 
[-0.1957777777777778]

>  <Interactions>  (41) 
["V-B:TYR:539:CD2:9842, V-A:LEU:475:CD2:4254, V-B:TYR:539:CE2:9844, V-B:ALA:541:CB:9860, H-B:GLU:543:OE2:9878, V-B:GLU:543:CD:9876, V-A:GLU:543:CG:4902, H-A:GLU:543:OE2:4905, V-A:GLU:543:CD:4903, V-B:GLU:543:CG:9875, V-A:TYR:484:CE1:4340, V-A:ALA:541:CB:4887, V-A:GLU:543:CB:4901, V-B:HIS:456:CE1:9037, H-B:TYR:484:OH:9315, V-A:TYR:484:CZ:4342, V-B:GLU:543:CA:9872, V-A:HIS:456:CE1:4064, H-A:HIS:456:NE2:4065, V-B:GLU:543:CB:9874, V-A:HIS:456:CG:4061, V-A:ASP:473:CG:4235, V-B:GLU:543:C:9870, V-A:ILE:369:CD1:3234, H-A:GLU:543:OE1:4904, V-A:TYR:484:CB:4336, V-A:TYR:484:CG:4337, V-A:ASP:473:CB:4234, V-A:HIS:456:CD2:4063, V-A:TYR:484:CD1:4338, H-A:LYS:471:NZ:4216"]

$$$$
RR11_Rahimova_2017
     RDKit          3D

 33 38  0  0  0  0  0  0  0  0999 V2000
  126.7300  135.8050   60.6280 N   0  0  0  0  0  0  0  0  0  0  0  0
  126.8800  134.6700   61.4220 C   0  0  0  0  0  0  0  0  0  0  0  0
  128.0930  134.4270   62.0630 C   0  0  0  0  0  0  0  0  0  0  0  0
  128.2410  133.2940   62.8580 C   0  0  0  0  0  0  0  0  0  0  0  0
  127.1790  132.3940   63.0200 C   0  0  0  0  0  0  0  0  0  0  0  0
  127.3380  131.1770   63.8820 C   0  0  0  0  0  0  0  0  0  0  0  0
  128.4480  130.4780   63.9830 N   0  0  0  0  0  0  0  0  0  0  0  0
  128.1630  129.4740   64.8720 C   0  0  0  0  0  0  0  0  0  0  0  0
  128.9930  128.4490   65.3450 C   0  0  0  0  0  0  0  0  0  0  0  0
  128.4690  127.5440   66.2760 C   0  0  0  0  0  0  0  0  0  0  0  0
  129.3450  126.4160   66.8040 C   0  0  0  0  0  0  0  0  0  0  0  0
  130.3960  125.9610   65.8000 C   0  0  0  0  0  0  0  0  0  0  0  0
  131.7220  125.8000   66.2170 C   0  0  0  0  0  0  0  0  0  0  0  0
  132.7190  125.3760   65.3360 C   0  0  0  0  0  0  0  0  0  0  0  0
  132.3570  125.1050   64.0100 C   0  0  0  0  0  0  0  0  0  0  0  0
  133.1400  124.6890   62.9640 N   0  0  0  0  0  0  0  0  0  0  0  0
  132.3220  124.5870   61.9380 C   0  0  0  0  0  0  0  0  0  0  0  0
  132.7410  124.1730   60.5570 C   0  0  0  0  0  0  0  0  0  0  0  0
  132.4020  124.9570   59.4460 C   0  0  0  0  0  0  0  0  0  0  0  0
  132.7810  124.5680   58.1640 C   0  0  0  0  0  0  0  0  0  0  0  0
  133.5040  123.3910   57.9840 C   0  0  0  0  0  0  0  0  0  0  0  0
  133.8800  122.9970   56.7000 N   0  0  0  0  0  0  0  0  0  0  0  0
  133.8520  122.6040   59.0790 C   0  0  0  0  0  0  0  0  0  0  0  0
  133.4720  122.9940   60.3600 C   0  0  0  0  0  0  0  0  0  0  0  0
  131.0270  124.9160   62.2760 N   0  0  0  0  0  0  0  0  0  0  0  0
  131.0100  125.2600   63.6060 C   0  0  0  0  0  0  0  0  0  0  0  0
  130.0060  125.6790   64.4840 C   0  0  0  0  0  0  0  0  0  0  0  0
  127.1390  127.6480   66.7000 C   0  0  0  0  0  0  0  0  0  0  0  0
  126.2860  128.6540   66.2430 C   0  0  0  0  0  0  0  0  0  0  0  0
  126.8270  129.5610   65.3280 C   0  0  0  0  0  0  0  0  0  0  0  0
  126.3300  130.6610   64.6700 N   0  0  0  0  0  0  0  0  0  0  0  0
  125.9650  132.6510   62.3690 C   0  0  0  0  0  0  0  0  0  0  0  0
  125.8140  133.7830   61.5730 C   0  0  0  0  0  0  0  0  0  0  0  0
  1  2  1  0
  2  3  2  0
  3  4  1  0
  4  5  2  0
  5  6  1  0
  6  7  2  0
  7  8  1  0
  8  9  2  0
  9 10  1  0
 10 11  1  0
 11 12  1  0
 12 13  2  0
 13 14  1  0
 14 15  2  0
 15 16  1  0
 16 17  2  0
 17 18  1  0
 18 19  2  0
 19 20  1  0
 20 21  2  0
 21 22  1  0
 21 23  1  0
 23 24  2  0
 17 25  1  0
 25 26  1  0
 26 27  2  0
 10 28  2  0
 28 29  1  0
 29 30  2  0
 30 31  1  0
  5 32  1  0
 32 33  2  0
 33  2  1  0
 31  6  1  0
 30  8  1  0
 27 12  1  0
 26 15  1  0
 24 18  1  0
M  END
>  <Binding energies>  (42) 
[-8.41]

>  <Ligand effiencies>  (42) 
[-0.21564102564102564]

>  <Interactions>  (42) 
["V-B:TYR:539:CE2:9844, H-B:GLU:543:OE2:9878, V-B:GLU:543:CD:9876, V-A:GLU:543:CG:4902, V-A:TYR:539:CE2:4871, V-A:ASP:366:CB:3207, V-A:ALA:541:CA:4885, V-A:ASP:366:CG:3208, V-A:GLU:543:CD:4903, V-B:GLU:543:CG:9875, V-A:TYR:539:CD2:4869, V-B:LEU:475:CD2:9226, V-B:TRP:381:CH2:8339, V-B:TYR:539:CZ:9845, V-A:ALA:541:CB:4887, V-A:TYR:539:CG:4867, V-B:HIS:456:CE1:9037, V-B:TYR:484:CZ:9314, H-B:TYR:484:OH:9315, V-A:HIS:456:CE1:4064, V-B:GLU:543:CB:9874, V-A:ILE:369:CD1:3234, V-A:ILE:369:CG2:3232, V-A:ILE:369:CB:3231, V-A:ASP:366:C:3203, H-B:TYR:539:OH:9846, V-A:ARG:545:CZ:4921, V-B:TRP:381:CZ2:8337, V-B:TRP:381:CZ3:8338, H-A:TYR:539:O:4863, V-A:ASN:370:CB:3240, V-A:ILE:369:CG1:3233, H-A:ASP:366:O:3204, V-A:ASN:370:CA:3238, V-A:ILE:369:C:3227"]

$$$$
RR16_Rahimova_2017
     RDKit          3D

 44 49  0  0  0  0  0  0  0  0999 V2000
  128.6580  128.9490   73.8330 O   0  0  0  0  0  0  0  0  0  0  0  0
  129.8370  128.7620   72.9800 S   0  0  0  0  0  0  0  0  0  0  0  0
  130.8770  127.7900   73.3360 O   0  0  0  0  0  0  0  0  0  0  0  0
  130.6050  130.3380   72.7800 N   0  0  0  0  0  0  0  0  0  0  0  0
  129.9980  131.5590   73.3590 C   0  0  0  0  0  0  0  0  0  0  0  0
  131.0570  132.6920   73.3840 C   0  0  0  0  0  0  0  0  0  0  0  0
  130.8420  133.8830   72.4310 C   0  0  0  0  0  0  0  0  0  0  0  0
  129.7190  134.8390   72.8700 C   0  0  0  0  0  0  0  0  0  0  0  0
  128.6190  134.2210   73.7530 C   0  0  0  0  0  0  0  0  0  0  0  0
  127.8490  133.0140   73.1820 C   0  0  0  0  0  0  0  0  0  0  0  0
  128.6980  131.8750   72.5830 C   0  0  0  0  0  0  0  0  0  0  0  0
  129.2350  128.3490   71.3470 C   0  0  0  0  0  0  0  0  0  0  0  0
  129.7400  129.0060   70.2220 C   0  0  0  0  0  0  0  0  0  0  0  0
  129.1780  128.7640   68.9720 C   0  0  0  0  0  0  0  0  0  0  0  0
  128.1140  127.8670   68.8520 C   0  0  0  0  0  0  0  0  0  0  0  0
  127.2970  127.6600   67.2710 S   0  0  0  0  0  0  0  0  0  0  0  0
  127.0960  128.9990   66.7020 O   0  0  0  0  0  0  0  0  0  0  0  0
  126.1530  126.7640   67.4810 O   0  0  0  0  0  0  0  0  0  0  0  0
  128.4910  126.8060   66.2740 N   0  0  0  0  0  0  0  0  0  0  0  0
  129.1940  127.6640   65.2850 C   0  0  0  0  0  0  0  0  0  0  0  0
  129.9660  126.7970   64.2700 C   0  0  0  0  0  0  0  0  0  0  0  0
  130.9080  125.7890   64.9740 C   0  0  0  0  0  0  0  0  0  0  0  0
  131.6490  124.8860   63.9840 C   0  0  0  0  0  0  0  0  0  0  0  0
  133.0320  125.0350   63.8080 C   0  0  0  0  0  0  0  0  0  0  0  0
  133.7490  124.2280   62.9230 C   0  0  0  0  0  0  0  0  0  0  0  0
  135.1020  124.3850   62.7670 O   0  0  0  0  0  0  0  0  0  0  0  0
  133.0470  123.2500   62.2020 C   0  0  0  0  0  0  0  0  0  0  0  0
  133.4770  122.3230   61.2970 N   0  0  0  0  0  0  0  0  0  0  0  0
  132.3820  121.5820   60.9100 N   0  0  0  0  0  0  0  0  0  0  0  0
  131.2930  122.0750   61.5330 N   0  0  0  0  0  0  0  0  0  0  0  0
  130.0000  121.4240   61.3730 C   0  0  0  0  0  0  0  0  0  0  0  0
  129.0390  122.2300   60.5100 C   0  0  0  0  0  0  0  0  0  0  0  0
  129.3320  122.4610   59.1620 C   0  0  0  0  0  0  0  0  0  0  0  0
  128.4430  123.1800   58.3630 C   0  0  0  0  0  0  0  0  0  0  0  0
  127.2550  123.6710   58.9070 C   0  0  0  0  0  0  0  0  0  0  0  0
  126.9560  123.4420   60.2500 C   0  0  0  0  0  0  0  0  0  0  0  0
  125.4830  124.0380   60.9230 Cl  0  0  0  0  0  0  0  0  0  0  0  0
  127.8480  122.7250   61.0510 C   0  0  0  0  0  0  0  0  0  0  0  0
  131.6500  123.1110   62.3790 C   0  0  0  0  0  0  0  0  0  0  0  0
  130.9300  123.9210   63.2640 C   0  0  0  0  0  0  0  0  0  0  0  0
  130.1860  124.9900   66.0910 C   0  0  0  0  0  0  0  0  0  0  0  0
  129.3980  125.9140   67.0420 C   0  0  0  0  0  0  0  0  0  0  0  0
  127.6380  127.1800   69.9710 C   0  0  0  0  0  0  0  0  0  0  0  0
  128.1970  127.4240   71.2200 C   0  0  0  0  0  0  0  0  0  0  0  0
  1  2  2  0
  2  3  2  0
  2  4  1  0
  4  5  1  0
  5  6  1  0
  6  7  1  0
  7  8  1  0
  8  9  1  0
  9 10  1  0
 10 11  1  0
  2 12  1  0
 12 13  2  0
 13 14  1  0
 14 15  2  0
 15 16  1  0
 16 17  2  0
 16 18  2  0
 16 19  1  0
 19 20  1  0
 20 21  1  0
 21 22  1  0
 22 23  1  0
 23 24  2  0
 24 25  1  0
 25 26  1  0
 25 27  2  0
 27 28  1  0
 28 29  2  0
 29 30  1  0
 30 31  1  0
 31 32  1  0
 32 33  2  0
 33 34  1  0
 34 35  2  0
 35 36  1  0
 36 37  1  0
 36 38  2  0
 30 39  1  0
 39 40  2  0
 22 41  1  0
 41 42  1  0
 15 43  1  0
 43 44  2  0
 11  5  1  0
 44 12  1  0
 42 19  1  0
 40 23  1  0
 39 27  1  0
 38 32  1  0
M  END
>  <Binding energies>  (43) 
[-10.93]

>  <Ligand effiencies>  (43) 
[-0.22770833333333332]

>  <Interactions>  (43) 
["V-B:TYR:539:CD2:9842, V-B:PRO:540:C:9849, V-B:TYR:539:CE2:9844, V-B:ALA:541:CB:9860, V-B:PRO:540:CA:9851, V-B:PRO:540:CB:9853, V-B:GLU:543:CD:9876, V-A:ASP:366:CG:3208, V-A:GLU:543:CD:4903, V-B:GLU:543:CG:9875, V-A:GLU:543:CB:4901, V-B:HIS:456:CE1:9037, H-B:TYR:484:OH:9315, V-B:GLU:543:CB:9874, V-B:TYR:484:CG:9309, V-A:LYS:547:CE:4945, H-B:LYS:547:NZ:9919, H-A:LYS:547:NZ:4946, V-B:HIS:456:CD2:9035, V-B:ASP:473:CB:9206, V-B:TYR:484:CB:9308, V-B:GLU:543:C:9870, H-A:GLU:543:O:4898, V-A:GLU:543:C:4897, H-A:GLY:544:O:4908, V-A:ARG:545:CZ:4921, H-A:GLY:454:N:4045, H-A:ARG:545:NH1:4922, H-A:ASP:366:OD1:3209, H-A:ASP:366:OD2:3210, V-A:GLY:544:CA:4909"]

$$$$
RR18_Rahimova_2017
     RDKit          3D

 36 41  0  0  0  0  0  0  0  0999 V2000
  124.8750  122.9810   56.9110 C   0  0  0  0  0  0  0  0  0  0  0  0
  125.7560  123.8250   57.7980 C   0  0  0  0  0  0  0  0  0  0  0  0
  126.1780  123.7260   59.1140 C   0  0  0  0  0  0  0  0  0  0  0  0
  126.9930  124.8310   59.3590 C   0  0  0  0  0  0  0  0  0  0  0  0
  127.0390  125.5650   58.1850 C   0  0  0  0  0  0  0  0  0  0  0  0
  127.7410  126.8560   57.7710 C   0  0  1  0  0  0  0  0  0  0  0  0
  128.3700  126.7340   56.3510 C   0  0  0  0  0  0  0  0  0  0  0  0
  129.4620  125.7970   56.1040 C   0  0  0  0  0  0  0  0  0  0  0  0
  129.6610  125.3100   54.9900 O   0  0  0  0  0  0  0  0  0  0  0  0
  130.2250  125.5360   57.1910 N   0  0  0  0  0  0  0  0  0  0  0  0
  131.3380  124.6810   57.3410 C   0  0  0  0  0  0  0  0  0  0  0  0
  132.4460  124.6920   56.4750 C   0  0  0  0  0  0  0  0  0  0  0  0
  133.5110  123.8150   56.6760 C   0  0  0  0  0  0  0  0  0  0  0  0
  133.4840  122.9130   57.7350 C   0  0  0  0  0  0  0  0  0  0  0  0
  132.3870  122.8830   58.5930 C   0  0  0  0  0  0  0  0  0  0  0  0
  131.3120  123.7570   58.4060 C   0  0  0  0  0  0  0  0  0  0  0  0
  130.1330  123.6800   59.3710 C   0  0  0  0  0  0  0  0  0  0  0  0
  127.8120  127.4400   55.3330 C   0  0  0  0  0  0  0  0  0  0  0  0
  126.8080  128.3490   55.4770 N   0  0  0  0  0  0  0  0  0  0  0  0
  126.3860  128.6420   56.6520 C   0  0  0  0  0  0  0  0  0  0  0  0
  125.2150  129.8910   57.0030 S   0  0  0  0  0  0  0  0  0  0  0  0
  125.3220  129.5700   58.7620 C   0  0  0  0  0  0  0  0  0  0  0  0
  124.6360  130.2140   59.7690 C   0  0  0  0  0  0  0  0  0  0  0  0
  123.7570  131.3510   59.4590 C   0  0  0  0  0  0  0  0  0  0  0  0
  123.4760  131.8620   58.3760 O   0  0  0  0  0  0  0  0  0  0  0  0
  123.2720  131.8080   60.6180 N   0  0  0  0  0  0  0  0  0  0  0  0
  123.6960  131.0860   61.6930 C   0  0  0  0  0  0  0  0  0  0  0  0
  123.3720  131.2810   63.0350 C   0  0  0  0  0  0  0  0  0  0  0  0
  123.8900  130.4060   63.9850 C   0  0  0  0  0  0  0  0  0  0  0  0
  124.7090  129.3540   63.5800 C   0  0  0  0  0  0  0  0  0  0  0  0
  125.0200  129.1800   62.2290 C   0  0  0  0  0  0  0  0  0  0  0  0
  124.5250  130.0680   61.2550 C   0  0  0  0  0  0  0  0  0  0  0  0
  126.2930  128.4940   58.9670 C   0  0  0  0  0  0  0  0  0  0  0  0
  126.6650  128.0430   60.0460 O   0  0  0  0  0  0  0  0  0  0  0  0
  126.7930  128.0260   57.7910 N   0  0  0  0  0  0  0  0  0  0  0  0
  126.2830  124.9460   57.2400 O   0  0  0  0  0  0  0  0  0  0  0  0
  1  2  1  0
  2  3  2  0
  3  4  1  0
  4  5  2  0
  6  5  1  6
  6  7  1  0
  7  8  1  0
  8  9  2  0
  8 10  1  0
 10 11  1  0
 11 12  2  0
 12 13  1  0
 13 14  2  0
 14 15  1  0
 15 16  2  0
 16 17  1  0
  7 18  2  0
 18 19  1  0
 19 20  2  0
 20 21  1  0
 21 22  1  0
 22 23  2  0
 23 24  1  0
 24 25  2  0
 24 26  1  0
 26 27  1  0
 27 28  2  0
 28 29  1  0
 29 30  2  0
 30 31  1  0
 31 32  2  0
 22 33  1  0
 33 34  2  0
 33 35  1  0
  5 36  1  0
 36  2  1  0
 35  6  1  0
 16 11  1  0
 35 20  1  0
 32 23  1  0
 32 27  1  0
M  END
>  <Binding energies>  (44) 
[-8.85]

>  <Ligand effiencies>  (44) 
[-0.23289473684210527]

>  <Interactions>  (44) 
["V-B:TYR:539:CE2:9844, V-B:PRO:540:N:9852, V-B:PRO:540:CA:9851, V-B:MET:535:CE:9803, V-B:PRO:540:CB:9853, V-A:TYR:531:CZ:4789, V-A:ASP:366:CB:3207, V-A:TYR:539:CZ:4872, V-B:GLY:454:CA:9016, V-B:ILE:369:CD1:8206, V-B:ASP:366:CG:8180, V-B:PRO:540:CD:9855, V-B:LEU:363:CD1:8156, V-B:TYR:531:CZ:9762, V-B:TYR:539:CZ:9845, V-B:ASP:366:CB:8179, V-B:ARG:545:CZ:9894, H-A:TYR:539:OH:4873, V-B:ASP:366:CA:8177, V-B:ILE:369:CG2:8204, V-B:ILE:369:CB:8203, V-A:ILE:369:CG2:3232, V-B:GLY:453:CA:9011, V-B:GLY:453:C:9009, V-B:ILE:369:CG1:8205, V-A:ILE:369:CB:3231, V-A:TYR:531:CE1:4787, H-A:TYR:531:OH:4790, V-A:ASP:366:C:3203, H-A:LYS:534:NZ:4818, H-B:TYR:531:OH:9763, V-A:ASN:370:CB:3240"]

$$$$
RR20_Rahimova_2017
     RDKit          3D

 38 43  0  0  0  0  0  0  0  0999 V2000
  124.6890  123.3470   57.5640 C   0  0  0  0  0  0  0  0  0  0  0  0
  126.0920  123.6830   57.0910 C   0  0  0  0  0  0  0  0  0  0  0  0
  126.4610  125.0150   56.9040 C   0  0  0  0  0  0  0  0  0  0  0  0
  127.7500  125.3260   56.4790 C   0  0  0  0  0  0  0  0  0  0  0  0
  128.6760  124.3070   56.2260 C   0  0  0  0  0  0  0  0  0  0  0  0
  130.0770  124.6680   55.7860 C   0  0  0  0  0  0  0  0  0  0  0  0
  130.2110  125.1860   54.6750 O   0  0  0  0  0  0  0  0  0  0  0  0
  131.1260  124.4230   56.6250 N   0  0  0  0  0  0  0  0  0  0  0  0
  132.5130  124.3720   56.1330 C   0  0  0  0  0  0  0  0  0  0  0  0
  133.3980  124.2360   57.3600 C   0  0  0  0  0  0  0  0  0  0  0  0
  132.4720  124.5980   58.4810 C   0  0  0  0  0  0  0  0  0  0  0  0
  132.7500  124.7330   59.8420 C   0  0  0  0  0  0  0  0  0  0  0  0
  131.7150  124.9190   60.7660 C   0  0  0  0  0  0  0  0  0  0  0  0
  132.0140  125.0740   62.2310 C   0  0  0  0  0  0  0  0  0  0  0  0
  131.1070  125.6550   63.0000 N   0  0  0  0  0  0  0  0  0  0  0  0
  131.4640  125.7180   64.2580 C   0  0  0  0  0  0  0  0  0  0  0  0
  130.7530  126.2530   65.3220 N   0  0  0  0  0  0  0  0  0  0  0  0
  130.5840  125.7020   66.5480 C   0  0  0  0  0  0  0  0  0  0  0  0
  131.0760  124.6260   66.8940 O   0  0  0  0  0  0  0  0  0  0  0  0
  129.7450  126.4830   67.5870 C   0  0  0  0  0  0  0  0  0  0  0  0
  128.4750  126.9920   67.0350 N   0  0  0  0  0  0  0  0  0  0  0  0
  127.4280  127.1190   68.0610 C   0  0  0  0  0  0  0  0  0  0  0  0
  126.0610  127.3940   67.3940 C   0  0  0  0  0  0  0  0  0  0  0  0
  126.1310  128.4700   66.3110 C   0  0  0  0  0  0  0  0  0  0  0  0
  124.9660  129.0430   65.7880 C   0  0  0  0  0  0  0  0  0  0  0  0
  125.0280  129.9950   64.7730 C   0  0  0  0  0  0  0  0  0  0  0  0
  126.2640  130.3890   64.2690 C   0  0  0  0  0  0  0  0  0  0  0  0
  127.4320  129.8330   64.7870 C   0  0  0  0  0  0  0  0  0  0  0  0
  127.3830  128.8750   65.8050 C   0  0  0  0  0  0  0  0  0  0  0  0
  128.6670  128.3080   66.4130 C   0  0  0  0  0  0  0  0  0  0  0  0
  133.0130  125.0480   64.5930 S   0  0  0  0  0  0  0  0  0  0  0  0
  133.1890  124.6630   62.8970 C   0  0  0  0  0  0  0  0  0  0  0  0
  134.4610  124.0240   62.3850 C   0  0  0  0  0  0  0  0  0  0  0  0
  130.3910  124.9090   60.3000 C   0  0  0  0  0  0  0  0  0  0  0  0
  130.1090  124.7550   58.9430 C   0  0  0  0  0  0  0  0  0  0  0  0
  131.1580  124.6560   58.0180 C   0  0  0  0  0  0  0  0  0  0  0  0
  128.3070  122.9740   56.4450 C   0  0  0  0  0  0  0  0  0  0  0  0
  127.0180  122.6620   56.8700 C   0  0  0  0  0  0  0  0  0  0  0  0
  1  2  1  0
  2  3  2  0
  3  4  1  0
  4  5  2  0
  5  6  1  0
  6  7  2  0
  6  8  1  0
  8  9  1  0
  9 10  1  0
 10 11  1  0
 11 12  2  0
 12 13  1  0
 13 14  1  0
 14 15  1  0
 15 16  2  0
 16 17  1  0
 17 18  1  0
 18 19  2  0
 18 20  1  0
 20 21  1  0
 21 22  1  0
 22 23  1  0
 23 24  1  0
 24 25  2  0
 25 26  1  0
 26 27  2  0
 27 28  1  0
 28 29  2  0
 29 30  1  0
 16 31  1  0
 31 32  1  0
 32 33  1  0
 13 34  2  0
 34 35  1  0
 35 36  2  0
  5 37  1  0
 37 38  2  0
 38  2  1  0
 36  8  1  0
 36 11  1  0
 32 14  2  0
 30 21  1  0
 29 24  1  0
M  END
>  <Binding energies>  (45) 
[-10.65]

>  <Ligand effiencies>  (45) 
[-0.2730769230769231]

>  <Interactions>  (45) 
["V-B:TYR:539:C:9835, V-B:TYR:539:CE2:9844, V-B:PRO:540:N:9852, V-B:PRO:540:CA:9851, V-B:MET:535:CE:9803, V-B:PRO:540:CB:9853, V-B:GLU:543:CD:9876, V-A:TYR:531:CZ:4789, V-A:ASP:366:CB:3207, H-A:GLU:543:OE2:4905, V-A:ASP:366:CG:3208, V-A:GLU:543:CD:4903, H-A:TYR:484:OH:4343, V-B:LEU:363:CD1:8156, V-B:TYR:539:CZ:9845, V-B:ARG:545:CZ:9894, V-B:HIS:456:CE1:9037, V-B:ARG:545:CG:9890, V-B:ARG:545:CD:9891, V-A:HIS:456:CE1:4064, H-A:HIS:456:NE2:4065, V-B:GLU:543:CB:9874, V-B:TYR:539:CE1:9843, V-A:ILE:369:CD1:3234, H-A:GLU:543:OE1:4904, V-A:TYR:531:CE1:4787, V-A:ASP:366:CA:3205, V-A:ASP:366:C:3203, H-B:TYR:539:OH:9846, V-A:ARG:545:CZ:4921, V-A:GLY:453:CA:4039, H-A:LYS:534:NZ:4818, V-B:TYR:539:CD1:9841, V-A:GLY:453:C:4037, V-A:ASN:370:CB:3240"]

$$$$
RR21_Rahimova_2017
     RDKit          3D

 40 45  0  0  0  0  0  0  0  0999 V2000
  133.7240  122.4880   62.4110 C   0  0  0  0  0  0  0  0  0  0  0  0
  134.0490  123.5880   63.2570 O   0  0  0  0  0  0  0  0  0  0  0  0
  133.0290  124.3210   63.8340 C   0  0  0  0  0  0  0  0  0  0  0  0
  131.6980  124.3130   63.3830 C   0  0  0  0  0  0  0  0  0  0  0  0
  130.7270  125.0810   64.0240 C   0  0  0  0  0  0  0  0  0  0  0  0
  131.0570  125.8720   65.1310 C   0  0  0  0  0  0  0  0  0  0  0  0
  130.0110  126.6920   65.8210 C   0  0  0  0  0  0  0  0  0  0  0  0
  129.8260  126.5600   67.1200 N   0  0  0  0  0  0  0  0  0  0  0  0
  128.8410  127.4070   67.4560 N   0  0  0  0  0  0  0  0  0  0  0  0
  128.4000  127.5340   68.7990 C   0  0  0  0  0  0  0  0  0  0  0  0
  129.1890  128.1940   69.7540 C   0  0  0  0  0  0  0  0  0  0  0  0
  128.7430  128.3170   71.0680 C   0  0  0  0  0  0  0  0  0  0  0  0
  127.5090  127.7810   71.4310 C   0  0  0  0  0  0  0  0  0  0  0  0
  126.7190  127.1210   70.4930 C   0  0  0  0  0  0  0  0  0  0  0  0
  127.1620  126.9970   69.1800 C   0  0  0  0  0  0  0  0  0  0  0  0
  128.4100  128.0960   66.3510 C   0  0  0  0  0  0  0  0  0  0  0  0
  129.1370  127.6500   65.2570 C   0  0  0  0  0  0  0  0  0  0  0  0
  129.0680  128.1170   63.8810 C   0  0  0  0  0  0  0  0  0  0  0  0
  128.8620  129.3770   63.4340 C   0  0  0  0  0  0  0  0  0  0  0  0
  128.6030  130.8490   64.3960 S   0  0  0  0  0  0  0  0  0  0  0  0
  128.4970  131.7840   62.9110 C   0  0  0  0  0  0  0  0  0  0  0  0
  128.3170  133.0620   62.7880 N   0  0  0  0  0  0  0  0  0  0  0  0
  128.2620  133.7010   61.5180 C   0  0  0  0  0  0  0  0  0  0  0  0
  128.1160  134.9060   61.3170 O   0  0  0  0  0  0  0  0  0  0  0  0
  128.4110  132.7570   60.3560 C   0  0  0  0  0  0  0  0  0  0  0  0
  128.3480  133.3300   58.9350 C   0  0  0  0  0  0  0  0  0  0  0  0
  129.4120  132.7790   57.9870 C   0  0  0  0  0  0  0  0  0  0  0  0
  130.4780  132.0300   58.4910 C   0  0  0  0  0  0  0  0  0  0  0  0
  131.4380  131.5140   57.6240 C   0  0  0  0  0  0  0  0  0  0  0  0
  131.3340  131.7440   56.2510 C   0  0  0  0  0  0  0  0  0  0  0  0
  132.3760  131.1700   55.3090 C   0  0  0  0  0  0  0  0  0  0  0  0
  130.2620  132.4840   55.7440 C   0  0  0  0  0  0  0  0  0  0  0  0
  129.3030  133.0000   56.6100 C   0  0  0  0  0  0  0  0  0  0  0  0
  128.5840  131.4830   60.4950 N   0  0  0  0  0  0  0  0  0  0  0  0
  128.6310  130.9880   61.8040 N   0  0  0  0  0  0  0  0  0  0  0  0
  128.8280  129.6620   62.0060 C   0  0  0  0  0  0  0  0  0  0  0  0
  128.9640  128.8250   61.1060 O   0  0  0  0  0  0  0  0  0  0  0  0
  132.3830  125.8840   65.5760 C   0  0  0  0  0  0  0  0  0  0  0  0
  133.3570  125.1170   64.9360 C   0  0  0  0  0  0  0  0  0  0  0  0
  134.6300  125.1510   65.3930 F   0  0  0  0  0  0  0  0  0  0  0  0
  1  2  1  0
  2  3  1  0
  3  4  2  0
  4  5  1  0
  5  6  2  0
  6  7  1  0
  7  8  2  0
  8  9  1  0
  9 10  1  0
 10 11  2  0
 11 12  1  0
 12 13  2  0
 13 14  1  0
 14 15  2  0
  9 16  1  0
 16 17  2  0
 17 18  1  0
 18 19  2  0
 19 20  1  0
 20 21  1  0
 21 22  2  0
 22 23  1  0
 23 24  2  0
 23 25  1  0
 25 26  1  0
 26 27  1  0
 27 28  2  0
 28 29  1  0
 29 30  2  0
 30 31  1  0
 30 32  1  0
 32 33  2  0
 25 34  2  0
 34 35  1  0
 35 36  1  0
 36 37  2  0
  6 38  1  0
 38 39  2  0
 39 40  1  0
 39  3  1  0
 17  7  1  0
 36 19  1  0
 15 10  1  0
 35 21  1  0
 33 27  1  0
M  END
>  <Binding energies>  (46) 
[-9.88]

>  <Ligand effiencies>  (46) 
[-0.24700000000000003]

>  <Interactions>  (46) 
["V-A:LEU:475:CD2:4254, V-A:GLU:543:CG:4902, V-A:PRO:540:N:4879, V-A:TYR:531:CZ:4789, V-A:TYR:539:CE2:4871, V-A:TYR:531:CE2:4788, V-A:PRO:540:CA:4878, V-A:TYR:539:CE1:4870, H-A:ALA:541:N:4886, V-A:TYR:539:CZ:4872, V-A:PRO:540:CB:4880, V-A:LEU:363:CD1:3184, V-A:TYR:539:C:4862, V-A:GLU:543:CD:4903, H-A:TYR:484:OH:4343, V-A:TYR:539:CD2:4869, V-A:TYR:539:CD1:4868, V-A:ALA:541:CB:4887, V-A:TYR:539:CG:4867, V-A:TYR:539:CA:4864, V-B:HIS:456:CE1:9037, V-A:HIS:456:CE1:4064, V-B:GLU:543:CB:9874, V-B:HIS:456:CD2:9035, V-B:GLU:543:C:9870, V-A:ILE:369:CD1:3234, V-B:HIS:456:CG:9033, V-A:ARG:545:CZ:4921, V-A:GLY:453:CA:4039, H-A:GLY:454:N:4045, V-A:GLY:454:CA:4044, V-A:ARG:545:CD:4918, V-B:GLY:544:C:9880, V-A:GLY:453:C:4037, V-B:ARG:545:CA:9887, V-B:GLY:544:CA:9882"]

$$$$
RR23_Rahimova_2017
     RDKit          3D

 39 44  0  0  0  0  0  0  0  0999 V2000
  130.6190  134.8060   72.2430 C   0  0  0  0  0  0  0  0  0  0  0  0
  130.2390  133.3530   72.4620 C   0  0  0  0  0  0  0  0  0  0  0  0
  131.1330  132.4850   73.0900 C   0  0  0  0  0  0  0  0  0  0  0  0
  130.7800  131.1540   73.2990 C   0  0  0  0  0  0  0  0  0  0  0  0
  129.5350  130.6780   72.8700 C   0  0  0  0  0  0  0  0  0  0  0  0
  129.1620  129.2350   73.1250 C   0  0  0  0  0  0  0  0  0  0  0  0
  128.6470  128.9610   74.2110 O   0  0  0  0  0  0  0  0  0  0  0  0
  129.3920  128.3020   72.1530 N   0  0  0  0  0  0  0  0  0  0  0  0
  129.3850  126.8610   72.4530 C   0  0  0  0  0  0  0  0  0  0  0  0
  129.5270  126.1470   71.1190 C   0  0  0  0  0  0  0  0  0  0  0  0
  129.2240  127.2290   70.1270 C   0  0  0  0  0  0  0  0  0  0  0  0
  129.1150  127.1430   68.7390 C   0  0  0  0  0  0  0  0  0  0  0  0
  128.9840  128.3060   67.9650 C   0  0  0  0  0  0  0  0  0  0  0  0
  128.8610  128.2570   66.4340 C   0  0  2  0  0  0  0  0  0  0  0  0
  128.9040  129.5760   65.8400 N   0  0  0  0  0  0  0  0  0  0  0  0
  128.1960  129.6440   64.7850 C   0  0  0  0  0  0  0  0  0  0  0  0
  127.9830  130.7240   63.9860 N   0  0  0  0  0  0  0  0  0  0  0  0
  128.3530  132.0110   64.1940 C   0  0  0  0  0  0  0  0  0  0  0  0
  129.0030  132.4230   65.1580 O   0  0  0  0  0  0  0  0  0  0  0  0
  127.9010  133.0120   63.1180 C   0  0  0  0  0  0  0  0  0  0  0  0
  128.6160  132.7220   61.8550 N   0  0  0  0  0  0  0  0  0  0  0  0
  129.9580  132.3900   61.9930 N   0  0  0  0  0  0  0  0  0  0  0  0
  130.6960  132.1160   60.9650 N   0  0  0  0  0  0  0  0  0  0  0  0
  130.1410  132.1500   59.6830 C   0  0  0  0  0  0  0  0  0  0  0  0
  130.9640  131.8500   58.5950 C   0  0  0  0  0  0  0  0  0  0  0  0
  130.4380  131.8760   57.3020 C   0  0  0  0  0  0  0  0  0  0  0  0
  129.0960  132.2000   57.0960 C   0  0  0  0  0  0  0  0  0  0  0  0
  128.2710  132.5000   58.1820 C   0  0  0  0  0  0  0  0  0  0  0  0
  128.7980  132.4720   59.4790 C   0  0  0  0  0  0  0  0  0  0  0  0
  127.9240  132.7980   60.6670 C   0  0  0  0  0  0  0  0  0  0  0  0
  126.7310  133.1060   60.5780 O   0  0  0  0  0  0  0  0  0  0  0  0
  127.3560  128.1510   64.2750 S   0  0  0  0  0  0  0  0  0  0  0  0
  127.6340  127.4680   65.9190 C   0  0  2  0  0  0  0  0  0  0  0  0
  126.3350  127.5920   66.7420 C   0  0  0  0  0  0  0  0  0  0  0  0
  129.0130  129.5500   68.6050 C   0  0  0  0  0  0  0  0  0  0  0  0
  129.1430  129.6380   69.9910 C   0  0  0  0  0  0  0  0  0  0  0  0
  129.1930  128.4700   70.7640 C   0  0  0  0  0  0  0  0  0  0  0  0
  128.6320  131.5620   72.2650 C   0  0  0  0  0  0  0  0  0  0  0  0
  128.9850  132.8930   72.0580 C   0  0  0  0  0  0  0  0  0  0  0  0
  1  2  1  0
  2  3  2  0
  3  4  1  0
  4  5  2  0
  5  6  1  0
  6  7  2  0
  6  8  1  0
  8  9  1  0
  9 10  1  0
 10 11  1  0
 11 12  2  0
 12 13  1  0
 14 13  1  1
 14 15  1  0
 15 16  2  0
 16 17  1  0
 17 18  1  0
 18 19  2  0
 18 20  1  0
 20 21  1  0
 21 22  1  0
 22 23  2  0
 23 24  1  0
 24 25  2  0
 25 26  1  0
 26 27  2  0
 27 28  1  0
 28 29  2  0
 29 30  1  0
 30 31  2  0
 16 32  1  0
 32 33  1  0
 33 34  1  1
 13 35  2  0
 35 36  1  0
 36 37  2  0
  5 38  1  0
 38 39  2  0
 39  2  1  0
 37  8  1  0
 37 11  1  0
 33 14  1  0
 30 21  1  0
 29 24  1  0
M  END
>  <Binding energies>  (47) 
[-10.23]

>  <Ligand effiencies>  (47) 
[-0.25575000000000003]

>  <Interactions>  (47) 
["V-B:GLU:543:CD:9876, V-A:GLU:543:CG:4902, V-A:PRO:540:N:4879, V-A:TYR:539:CE2:4871, V-A:PRO:540:CA:4878, V-A:TYR:539:CE1:4870, H-A:ALA:541:N:4886, V-A:TYR:539:CZ:4872, V-A:PRO:540:CB:4880, V-A:GLU:543:CD:4903, V-B:GLU:543:CG:9875, V-A:TYR:539:CD2:4869, V-A:TYR:539:CD1:4868, V-A:ALA:541:CB:4887, V-A:TYR:539:CG:4867, V-A:GLU:543:CB:4901, V-B:HIS:456:CE1:9037, V-B:TYR:484:CZ:9314, V-B:ARG:545:CG:9890, H-B:TYR:484:OH:9315, V-A:HIS:456:CE1:4064, V-B:GLU:543:CB:9874, V-B:TYR:484:CG:9309, V-A:LYS:547:CE:4945, H-B:LYS:547:NZ:9919, H-A:LYS:547:NZ:4946, V-B:LYS:547:CE:9918, V-B:HIS:456:CD2:9035, V-B:TYR:484:CB:9308, V-A:GLU:543:C:4897, V-A:GLY:544:C:4907, V-A:GLY:544:CA:4909, V-B:TYR:484:CD1:9310"]

$$$$
RR26_Rahimova_2017
     RDKit          3D

 38 44  0  0  0  0  0  0  0  0999 V2000
  133.0660  130.7580   58.2920 C   0  0  0  0  0  0  0  0  0  0  0  0
  131.9360  131.5580   57.6560 C   0  0  0  0  0  0  0  0  0  0  0  0
  132.1990  132.2420   56.4630 C   0  0  0  0  0  0  0  0  0  0  0  0
  131.1940  132.9570   55.8170 C   0  0  0  0  0  0  0  0  0  0  0  0
  129.9110  132.9890   56.3540 C   0  0  0  0  0  0  0  0  0  0  0  0
  129.6360  132.3120   57.5410 C   0  0  0  0  0  0  0  0  0  0  0  0
  130.6380  131.5940   58.2110 C   0  0  0  0  0  0  0  0  0  0  0  0
  130.2620  130.9060   59.4920 C   0  0  0  0  0  0  0  0  0  0  0  0
  130.0850  131.5710   60.6310 N   0  0  0  0  0  0  0  0  0  0  0  0
  129.7660  130.6110   61.4570 C   0  0  0  0  0  0  0  0  0  0  0  0
  129.3690  130.5010   63.1320 S   0  0  0  0  0  0  0  0  0  0  0  0
  129.1630  128.7190   62.9420 C   0  0  0  0  0  0  0  0  0  0  0  0
  128.8270  127.8200   63.8930 C   0  0  0  0  0  0  0  0  0  0  0  0
  128.5440  128.0640   65.2980 C   0  0  0  0  0  0  0  0  0  0  0  0
  129.3470  127.7910   66.3950 C   0  0  0  0  0  0  0  0  0  0  0  0
  128.6920  128.2280   67.5180 N   0  0  0  0  0  0  0  0  0  0  0  0
  129.1270  128.1670   68.8670 C   0  0  0  0  0  0  0  0  0  0  0  0
  130.2680  128.8660   69.2860 C   0  0  0  0  0  0  0  0  0  0  0  0
  130.6860  128.7950   70.6120 C   0  0  0  0  0  0  0  0  0  0  0  0
  129.9640  128.0300   71.5240 C   0  0  0  0  0  0  0  0  0  0  0  0
  128.8260  127.3330   71.1210 C   0  0  0  0  0  0  0  0  0  0  0  0
  128.4080  127.3990   69.7960 C   0  0  0  0  0  0  0  0  0  0  0  0
  127.5210  128.7920   67.1840 N   0  0  0  0  0  0  0  0  0  0  0  0
  127.4180  128.6970   65.8730 C   0  0  0  0  0  0  0  0  0  0  0  0
  126.2030  129.2320   65.1800 C   0  0  0  0  0  0  0  0  0  0  0  0
  124.9930  129.3740   65.8760 C   0  0  0  0  0  0  0  0  0  0  0  0
  123.8540  129.8680   65.2380 C   0  0  0  0  0  0  0  0  0  0  0  0
  123.9170  130.2250   63.8930 C   0  0  0  0  0  0  0  0  0  0  0  0
  125.1250  130.1060   63.1910 C   0  0  0  0  0  0  0  0  0  0  0  0
  126.2600  129.6060   63.8290 C   0  0  0  0  0  0  0  0  0  0  0  0
  125.2240  130.4050   61.8460 O   0  0  0  0  0  0  0  0  0  0  0  0
  124.1690  131.2380   61.3530 C   0  0  0  0  0  0  0  0  0  0  0  0
  122.7980  130.7480   61.8820 C   0  0  0  0  0  0  0  0  0  0  0  0
  122.7810  130.7550   63.3140 O   0  0  0  0  0  0  0  0  0  0  0  0
  129.4180  128.2730   61.5760 C   0  0  0  0  0  0  0  0  0  0  0  0
  129.3710  127.1340   61.1080 O   0  0  0  0  0  0  0  0  0  0  0  0
  129.7450  129.4190   60.8340 N   0  0  0  0  0  0  0  0  0  0  0  0
  130.0630  129.5980   59.5490 N   0  0  0  0  0  0  0  0  0  0  0  0
  1  2  1  0
  2  3  2  0
  3  4  1  0
  4  5  2  0
  5  6  1  0
  6  7  2  0
  7  8  1  0
  8  9  1  0
  9 10  2  0
 10 11  1  0
 11 12  1  0
 12 13  2  0
 13 14  1  0
 14 15  2  0
 15 16  1  0
 16 17  1  0
 17 18  2  0
 18 19  1  0
 19 20  2  0
 20 21  1  0
 21 22  2  0
 16 23  1  0
 23 24  2  0
 24 25  1  0
 25 26  2  0
 26 27  1  0
 27 28  2  0
 28 29  1  0
 29 30  2  0
 29 31  1  0
 31 32  1  0
 32 33  1  0
 33 34  1  0
 12 35  1  0
 35 36  2  0
 35 37  1  0
 37 38  1  0
  7  2  1  0
 38  8  2  0
 37 10  1  0
 24 14  1  0
 30 25  1  0
 22 17  1  0
 34 28  1  0
M  END
>  <Binding energies>  (48) 
[-9.44]

>  <Ligand effiencies>  (48) 
[-0.24842105263157893]

>  <Interactions>  (48) 
["V-A:GLU:543:CG:4902, V-A:PRO:540:N:4879, V-A:PRO:540:CG:4881, V-A:TYR:531:CE2:4788, V-A:PRO:540:CA:4878, V-A:TYR:539:CE1:4870, V-A:PRO:540:CB:4880, V-A:LEU:363:CD1:3184, V-A:TYR:539:C:4862, V-A:LEU:363:CA:3180, V-A:PRO:540:CD:4882, V-A:GLU:543:CD:4903, H-B:ARG:545:NH1:9895, H-B:GLY:454:N:9017, V-B:ILE:369:CD1:8206, V-B:ASP:366:CG:8180, V-A:TYR:539:CD1:4868, V-A:TYR:539:CG:4867, V-A:ILE:538:CG2:4858, V-A:TYR:539:CA:4864, V-B:ARG:545:CZ:9894, V-A:ILE:538:CA:4855, V-A:GLU:543:CB:4901, V-B:HIS:456:CE1:9037, V-B:ARG:545:CG:9890, V-B:ARG:545:CD:9891, V-A:HIS:456:CE1:4064, V-A:GLU:543:C:4897, V-A:GLY:544:C:4907"]

$$$$
RR2_Rahimova_2017
     RDKit          3D

 46 50  0  0  0  0  0  0  0  0999 V2000
  129.5840  132.2580   57.1730 C   0  0  0  0  0  0  0  0  0  0  0  0
  130.0360  132.9150   58.3520 O   0  0  0  0  0  0  0  0  0  0  0  0
  129.4130  132.6430   59.5560 C   0  0  0  0  0  0  0  0  0  0  0  0
  129.8880  131.7260   60.5040 C   0  0  0  0  0  0  0  0  0  0  0  0
  129.1900  131.5160   61.6900 C   0  0  0  0  0  0  0  0  0  0  0  0
  128.0020  132.2120   61.9550 C   0  0  0  0  0  0  0  0  0  0  0  0
  127.2570  131.9590   63.2510 C   0  0  0  0  0  0  0  0  0  0  0  0
  127.8770  131.8500   64.3150 O   0  0  0  0  0  0  0  0  0  0  0  0
  125.9120  131.8520   63.1470 N   0  0  0  0  0  0  0  0  0  0  0  0
  125.1890  131.5280   64.2910 N   0  0  0  0  0  0  0  0  0  0  0  0
  123.9920  130.9260   64.1390 C   0  0  0  0  0  0  0  0  0  0  0  0
  123.3990  130.7960   63.0640 O   0  0  0  0  0  0  0  0  0  0  0  0
  123.3720  130.3560   65.4220 C   0  0  0  0  0  0  0  0  0  0  0  0
  124.4730  129.2680   66.3980 S   0  0  0  0  0  0  0  0  0  0  0  0
  125.6340  128.7810   65.1570 C   0  0  0  0  0  0  0  0  0  0  0  0
  125.3300  128.7100   63.8860 N   0  0  0  0  0  0  0  0  0  0  0  0
  126.4470  128.2290   63.2170 N   0  0  0  0  0  0  0  0  0  0  0  0
  127.3960  128.0560   64.1070 C   0  0  0  0  0  0  0  0  0  0  0  0
  128.7640  127.5620   63.7640 C   0  0  0  0  0  0  0  0  0  0  0  0
  129.3820  127.9890   62.5870 C   0  0  0  0  0  0  0  0  0  0  0  0
  130.6520  127.5290   62.2550 C   0  0  0  0  0  0  0  0  0  0  0  0
  131.3250  126.6480   63.1090 C   0  0  0  0  0  0  0  0  0  0  0  0
  132.6030  126.1430   62.8210 N   0  0  0  0  0  0  0  0  0  0  0  0
  133.3130  124.6980   63.5750 S   0  0  0  0  0  0  0  0  0  0  0  0
  132.9850  124.7840   65.0020 O   0  0  0  0  0  0  0  0  0  0  0  0
  134.7080  124.5920   63.1290 O   0  0  0  0  0  0  0  0  0  0  0  0
  132.3830  123.3190   62.9130 C   0  0  0  0  0  0  0  0  0  0  0  0
  131.1780  122.9250   63.5010 C   0  0  0  0  0  0  0  0  0  0  0  0
  130.4780  121.8400   62.9800 C   0  0  0  0  0  0  0  0  0  0  0  0
  130.9780  121.1540   61.8710 C   0  0  0  0  0  0  0  0  0  0  0  0
  130.2200  119.9620   61.3140 C   0  0  0  0  0  0  0  0  0  0  0  0
  132.1840  121.5470   61.2880 C   0  0  0  0  0  0  0  0  0  0  0  0
  132.8860  122.6310   61.8080 C   0  0  0  0  0  0  0  0  0  0  0  0
  130.7090  126.2240   64.2870 C   0  0  0  0  0  0  0  0  0  0  0  0
  129.4350  126.6790   64.6160 C   0  0  0  0  0  0  0  0  0  0  0  0
  126.9410  128.3870   65.3730 N   0  0  0  0  0  0  0  0  0  0  0  0
  127.6290  128.3000   66.6010 C   0  0  0  0  0  0  0  0  0  0  0  0
  127.3140  127.2860   67.5060 C   0  0  0  0  0  0  0  0  0  0  0  0
  127.9990  127.2030   68.7150 C   0  0  0  0  0  0  0  0  0  0  0  0
  128.9970  128.1270   69.0300 C   0  0  0  0  0  0  0  0  0  0  0  0
  129.6200  127.9650   70.2530 O   0  0  0  0  0  0  0  0  0  0  0  0
  130.6480  128.8730   70.6350 C   0  0  0  0  0  0  0  0  0  0  0  0
  129.3070  129.1450   68.1140 C   0  0  0  0  0  0  0  0  0  0  0  0
  128.6260  129.2310   66.9030 C   0  0  0  0  0  0  0  0  0  0  0  0
  127.5360  133.1330   61.0040 C   0  0  0  0  0  0  0  0  0  0  0  0
  128.2370  133.3430   59.8200 C   0  0  0  0  0  0  0  0  0  0  0  0
  1  2  1  0
  2  3  1  0
  3  4  2  0
  4  5  1  0
  5  6  2  0
  6  7  1  0
  7  8  2  0
  7  9  1  0
  9 10  1  0
 10 11  1  0
 11 12  2  0
 11 13  1  0
 13 14  1  0
 14 15  1  0
 15 16  2  0
 16 17  1  0
 17 18  2  0
 18 19  1  0
 19 20  2  0
 20 21  1  0
 21 22  2  0
 22 23  1  0
 23 24  1  0
 24 25  2  0
 24 26  2  0
 24 27  1  0
 27 28  2  0
 28 29  1  0
 29 30  2  0
 30 31  1  0
 30 32  1  0
 32 33  2  0
 22 34  1  0
 34 35  2  0
 18 36  1  0
 36 37  1  0
 37 38  2  0
 38 39  1  0
 39 40  2  0
 40 41  1  0
 41 42  1  0
 40 43  1  0
 43 44  2  0
  6 45  1  0
 45 46  2  0
 46  3  1  0
 36 15  1  0
 44 37  1  0
 35 19  1  0
 33 27  1  0
M  END
>  <Binding energies>  (49) 
[-10.11]

>  <Ligand effiencies>  (49) 
[-0.20632653061224487]

>  <Interactions>  (49) 
["V-A:LEU:475:CD2:4254, V-B:ALA:541:CB:9860, V-B:GLU:543:CD:9876, V-A:GLU:543:CG:4902, V-A:PRO:540:N:4879, V-A:TYR:539:CE2:4871, V-A:PRO:540:CA:4878, V-A:PRO:540:CB:4880, V-A:TYR:539:C:4862, V-A:ASP:366:CG:3208, V-A:GLU:543:CD:4903, H-A:TYR:484:OH:4343, V-B:GLY:454:CA:9016, V-A:TYR:539:CD2:4869, H-B:GLY:454:N:9017, V-B:ARG:545:CZ:9894, V-A:GLU:543:CB:4901, V-B:HIS:456:CE1:9037, V-B:TYR:484:CZ:9314, H-B:TYR:484:OH:9315, V-B:ARG:545:CD:9891, V-A:HIS:456:CE1:4064, V-B:GLU:543:CB:9874, V-A:GLU:543:C:4897, V-A:ILE:369:CD1:3234, V-A:GLY:544:C:4907, H-B:HIS:456:ND1:9034, H-B:ARG:545:NH2:9896, V-B:GLY:453:CA:9011, V-B:GLY:453:C:9009, H-B:ARG:545:NE:9892, V-A:ARG:545:CZ:4921, H-A:GLY:454:N:4045, H-A:ARG:545:NH1:4922, H-A:ASP:366:OD1:3209, H-A:ASP:366:OD2:3210"]

$$$$
RR33_Rahimova_2017
     RDKit          3D

 18 19  0  0  0  0  0  0  0  0999 V2000
  128.6560  131.4730   73.3810 C   0  0  0  0  0  0  0  0  0  0  0  0
  128.1290  130.2400   74.1210 C   0  0  0  0  0  0  0  0  0  0  0  0
  128.9770  129.1330   73.8270 O   0  0  0  0  0  0  0  0  0  0  0  0
  129.1640  128.7520   72.5120 C   0  0  0  0  0  0  0  0  0  0  0  0
  128.0710  128.1670   71.8730 C   0  0  0  0  0  0  0  0  0  0  0  0
  128.1660  127.7480   70.5490 C   0  0  0  0  0  0  0  0  0  0  0  0
  129.3600  127.9100   69.8410 C   0  0  0  0  0  0  0  0  0  0  0  0
  129.4610  127.4600   68.4190 C   0  0  0  0  0  0  0  0  0  0  0  0
  130.3000  126.5840   67.9120 N   0  0  0  0  0  0  0  0  0  0  0  0
  130.0020  126.5190   66.6240 C   0  0  0  0  0  0  0  0  0  0  0  0
  130.7590  125.5930   65.6960 C   0  0  0  0  0  0  0  0  0  0  0  0
  132.0260  125.1940   66.2900 N   0  0  0  0  0  0  0  0  0  0  0  0
  133.1230  125.4370   65.3680 C   0  0  0  0  0  0  0  0  0  0  0  0
  128.9520  127.3840   66.3440 C   0  0  0  0  0  0  0  0  0  0  0  0
  128.1700  127.7590   65.1080 C   0  0  0  0  0  0  0  0  0  0  0  0
  128.6070  127.9880   67.5040 O   0  0  0  0  0  0  0  0  0  0  0  0
  130.4570  128.5010   70.4760 C   0  0  0  0  0  0  0  0  0  0  0  0
  130.3630  128.9190   71.8020 C   0  0  0  0  0  0  0  0  0  0  0  0
  1  2  1  0
  2  3  1  0
  3  4  1  0
  4  5  2  0
  5  6  1  0
  6  7  2  0
  7  8  1  0
  8  9  2  0
  9 10  1  0
 10 11  1  0
 11 12  1  0
 12 13  1  0
 10 14  2  0
 14 15  1  0
 14 16  1  0
  7 17  1  0
 17 18  2  0
 18  4  1  0
 16  8  1  0
M  END
>  <Binding energies>  (50) 
[-5.29]

>  <Ligand effiencies>  (50) 
[-0.27842105263157896]

>  <Interactions>  (50) 
["V-B:GLU:543:CD:9876, H-A:TYR:484:OH:4343, V-B:HIS:456:CE1:9037, V-A:HIS:456:CE1:4064, H-A:HIS:456:NE2:4065, H-B:LYS:547:NZ:9919, H-A:LYS:547:NZ:4946, V-B:HIS:456:CD2:9035, V-A:GLU:543:C:4897, V-A:GLY:544:C:4907, V-A:ARG:545:CZ:4921, V-A:ARG:545:CD:4918"]

$$$$
RR3_Rahimova_2017
     RDKit          3D

 38 44  0  0  0  0  0  0  0  0999 V2000
  128.8980  135.5420   74.5140 C   0  0  0  0  0  0  0  0  0  0  0  0
  128.2680  134.5430   75.2500 C   0  0  0  0  0  0  0  0  0  0  0  0
  128.3680  133.2170   74.8390 C   0  0  0  0  0  0  0  0  0  0  0  0
  129.0980  132.8720   73.6920 C   0  0  0  0  0  0  0  0  0  0  0  0
  129.2060  131.4450   73.2530 C   0  0  0  0  0  0  0  0  0  0  0  0
  130.3750  130.9640   72.6470 C   0  0  0  0  0  0  0  0  0  0  0  0
  130.4740  129.6380   72.2350 C   0  0  0  0  0  0  0  0  0  0  0  0
  129.4000  128.7620   72.4130 C   0  0  0  0  0  0  0  0  0  0  0  0
  129.4970  127.3370   71.9680 C   0  0  0  0  0  0  0  0  0  0  0  0
  129.9820  126.4150   72.7920 N   0  0  0  0  0  0  0  0  0  0  0  0
  129.9060  125.2690   72.1590 C   0  0  0  0  0  0  0  0  0  0  0  0
  130.3330  123.9800   72.6970 C   0  0  0  0  0  0  0  0  0  0  0  0
  131.4520  123.7600   73.4820 C   0  0  0  0  0  0  0  0  0  0  0  0
  131.5420  122.4340   73.8160 N   0  0  0  0  0  0  0  0  0  0  0  0
  130.4900  121.7380   73.2620 C   0  0  0  0  0  0  0  0  0  0  0  0
  130.1600  120.3800   73.3230 C   0  0  0  0  0  0  0  0  0  0  0  0
  129.0120  119.9760   72.6430 C   0  0  0  0  0  0  0  0  0  0  0  0
  128.2250  120.8770   71.9330 C   0  0  0  0  0  0  0  0  0  0  0  0
  128.5530  122.2300   71.8730 C   0  0  0  0  0  0  0  0  0  0  0  0
  129.7020  122.6900   72.5410 C   0  0  0  0  0  0  0  0  0  0  0  0
  129.3770  125.4350   70.9090 N   0  0  0  0  0  0  0  0  0  0  0  0
  129.1190  126.7710   70.7380 C   0  0  0  0  0  0  0  0  0  0  0  0
  128.5880  127.3370   69.4620 C   0  0  0  0  0  0  0  0  0  0  0  0
  129.2730  128.3660   68.8140 C   0  0  0  0  0  0  0  0  0  0  0  0
  128.7750  128.9050   67.6330 C   0  0  0  0  0  0  0  0  0  0  0  0
  127.5830  128.4270   67.0680 C   0  0  0  0  0  0  0  0  0  0  0  0
  127.0400  129.0230   65.8080 C   0  0  0  0  0  0  0  0  0  0  0  0
  127.8190  129.8910   65.0280 C   0  0  0  0  0  0  0  0  0  0  0  0
  127.3140  130.4420   63.8520 C   0  0  0  0  0  0  0  0  0  0  0  0
  126.0220  130.1280   63.4430 C   0  0  0  0  0  0  0  0  0  0  0  0
  125.2330  129.2690   64.2000 C   0  0  0  0  0  0  0  0  0  0  0  0
  125.7390  128.7220   65.3750 C   0  0  0  0  0  0  0  0  0  0  0  0
  126.9140  127.3820   67.7200 C   0  0  0  0  0  0  0  0  0  0  0  0
  127.4090  126.8400   68.9030 C   0  0  0  0  0  0  0  0  0  0  0  0
  128.2360  129.2280   73.0270 C   0  0  0  0  0  0  0  0  0  0  0  0
  128.1400  130.5550   73.4380 C   0  0  0  0  0  0  0  0  0  0  0  0
  129.7240  133.8960   72.9660 C   0  0  0  0  0  0  0  0  0  0  0  0
  129.6270  135.2230   73.3740 C   0  0  0  0  0  0  0  0  0  0  0  0
  1  2  2  0
  2  3  1  0
  3  4  2  0
  4  5  1  0
  5  6  2  0
  6  7  1  0
  7  8  2  0
  8  9  1  0
  9 10  1  0
 10 11  2  0
 11 12  1  0
 12 13  2  0
 13 14  1  0
 14 15  1  0
 15 16  2  0
 16 17  1  0
 17 18  2  0
 18 19  1  0
 19 20  2  0
 11 21  1  0
 21 22  1  0
 22 23  1  0
 23 24  2  0
 24 25  1  0
 25 26  2  0
 26 27  1  0
 27 28  2  0
 28 29  1  0
 29 30  2  0
 30 31  1  0
 31 32  2  0
 26 33  1  0
 33 34  2  0
  8 35  1  0
 35 36  2  0
  4 37  1  0
 37 38  2  0
 38  1  1  0
 36  5  1  0
 22  9  2  0
 34 23  1  0
 20 12  1  0
 32 27  1  0
 20 15  1  0
M  END
>  <Binding energies>  (51) 
[-10.06]

>  <Ligand effiencies>  (51) 
[-0.2515]

>  <Interactions>  (51) 
["V-A:GLU:543:CG:4902, V-B:ARG:545:CZ:9894, V-A:GLU:543:CB:4901, V-B:HIS:456:CE1:9037, V-B:ARG:545:CG:9890, H-B:GLU:543:O:9871, V-A:HIS:456:CE1:4064, V-B:GLU:543:CB:9874, V-A:LYS:547:CE:4945, H-B:LYS:547:NZ:9919, V-A:HIS:456:CG:4061, V-B:HIS:456:CD2:9035, V-A:HIS:456:CB:4060, V-B:ASP:473:CB:9206, V-B:ASP:473:CG:9207, V-A:ASP:473:CG:4235, V-B:TYR:484:CB:9308, V-B:GLU:543:C:9870, V-A:GLU:543:C:4897, V-A:GLY:544:C:4907, V-A:TYR:484:CB:4336, V-A:ASP:473:CB:4234, V-A:GLY:544:CA:4909, V-B:TYR:484:C:9304, V-B:GLY:544:CA:9882, H-A:ASP:473:OD1:4236, H-A:ASP:473:OD2:4237"]

$$$$
RR4_Rahimova_2017
     RDKit          3D

 40 44  0  0  0  0  0  0  0  0999 V2000
  122.2060  130.7000   62.1420 C   0  0  0  0  0  0  0  0  0  0  0  0
  122.6680  130.7830   63.4850 O   0  0  0  0  0  0  0  0  0  0  0  0
  123.8440  130.1460   63.8340 C   0  0  0  0  0  0  0  0  0  0  0  0
  124.1010  130.0090   65.1960 C   0  0  0  0  0  0  0  0  0  0  0  0
  125.2600  129.3800   65.6400 C   0  0  0  0  0  0  0  0  0  0  0  0
  126.2000  128.8700   64.7320 C   0  0  0  0  0  0  0  0  0  0  0  0
  127.4510  128.1930   65.2150 C   0  0  0  0  0  0  0  0  0  0  0  0
  127.8710  128.2380   66.5480 C   0  0  0  0  0  0  0  0  0  0  0  0
  129.0440  127.5860   66.9500 C   0  0  0  0  0  0  0  0  0  0  0  0
  129.4140  127.6540   68.3960 C   0  0  0  0  0  0  0  0  0  0  0  0
  128.9780  126.6610   69.2790 C   0  0  0  0  0  0  0  0  0  0  0  0
  129.3280  126.7110   70.6260 C   0  0  0  0  0  0  0  0  0  0  0  0
  130.1240  127.7470   71.1140 C   0  0  0  0  0  0  0  0  0  0  0  0
  130.4210  127.7130   72.4630 O   0  0  0  0  0  0  0  0  0  0  0  0
  130.6100  126.4550   73.1010 C   0  0  0  0  0  0  0  0  0  0  0  0
  130.5670  128.7420   70.2300 C   0  0  0  0  0  0  0  0  0  0  0  0
  130.2160  128.6910   68.8840 C   0  0  0  0  0  0  0  0  0  0  0  0
  129.8070  126.9060   65.9700 C   0  0  0  0  0  0  0  0  0  0  0  0
  131.0420  126.2060   66.3360 C   0  0  0  0  0  0  0  0  0  0  0  0
  132.0170  125.6540   66.6250 N   0  0  0  0  0  0  0  0  0  0  0  0
  129.3400  126.9260   64.6360 C   0  0  0  0  0  0  0  0  0  0  0  0
  130.1750  126.1370   63.2760 S   0  0  0  0  0  0  0  0  0  0  0  0
  131.2860  127.3680   62.5160 C   0  0  0  0  0  0  0  0  0  0  0  0
  130.6310  128.2360   61.4330 C   0  0  0  0  0  0  0  0  0  0  0  0
  129.4100  128.2060   61.2600 O   0  0  0  0  0  0  0  0  0  0  0  0
  131.4940  128.9880   60.7110 N   0  0  0  0  0  0  0  0  0  0  0  0
  131.2120  129.8740   59.6680 C   0  0  0  0  0  0  0  0  0  0  0  0
  129.6790  130.6880   59.5040 S   0  0  0  0  0  0  0  0  0  0  0  0
  130.1980  131.4940   58.0560 C   0  0  0  0  0  0  0  0  0  0  0  0
  131.5120  131.1390   57.7110 C   0  0  0  0  0  0  0  0  0  0  0  0
  132.0890  130.2340   58.6340 C   0  0  0  0  0  0  0  0  0  0  0  0
  133.4520  129.7240   58.5150 C   0  0  0  0  0  0  0  0  0  0  0  0
  134.5320  129.3200   58.4200 N   0  0  0  0  0  0  0  0  0  0  0  0
  132.2130  131.7480   56.4910 C   0  0  0  0  0  0  0  0  0  0  0  0
  131.4660  133.0100   56.0050 C   0  0  0  0  0  0  0  0  0  0  0  0
  129.9450  132.7920   55.9310 C   0  0  0  0  0  0  0  0  0  0  0  0
  129.3320  132.5080   57.3190 C   0  0  0  0  0  0  0  0  0  0  0  0
  128.1860  127.5370   64.2800 N   0  0  0  0  0  0  0  0  0  0  0  0
  125.9300  129.0090   63.3610 C   0  0  0  0  0  0  0  0  0  0  0  0
  124.7720  129.6380   62.9140 C   0  0  0  0  0  0  0  0  0  0  0  0
  1  2  1  0
  2  3  1  0
  3  4  2  0
  4  5  1  0
  5  6  2  0
  6  7  1  0
  7  8  2  0
  8  9  1  0
  9 10  1  0
 10 11  2  0
 11 12  1  0
 12 13  2  0
 13 14  1  0
 14 15  1  0
 13 16  1  0
 16 17  2  0
  9 18  2  0
 18 19  1  0
 19 20  3  0
 18 21  1  0
 21 22  1  0
 22 23  1  0
 23 24  1  0
 24 25  2  0
 24 26  1  0
 26 27  1  0
 27 28  1  0
 28 29  1  0
 29 30  2  0
 30 31  1  0
 31 32  1  0
 32 33  3  0
 30 34  1  0
 34 35  1  0
 35 36  1  0
 36 37  1  0
 21 38  2  0
  6 39  1  0
 39 40  2  0
 40  3  1  0
 38  7  1  0
 17 10  1  0
 31 27  2  0
 37 29  1  0
M  END
>  <Binding energies>  (52) 
[-10.48]

>  <Ligand effiencies>  (52) 
[-0.255609756097561]

>  <Interactions>  (52) 
["V-B:GLU:543:CD:9876, V-A:PRO:540:N:4879, V-A:TYR:531:CZ:4789, V-A:PRO:540:CG:4881, V-A:TYR:531:CE2:4788, V-A:TYR:539:CE1:4870, V-A:ASP:366:CB:3207, V-A:PRO:540:CB:4880, V-A:LEU:363:CD1:3184, V-A:TYR:539:C:4862, V-A:LEU:363:CA:3180, V-A:PRO:540:CD:4882, H-A:GLU:543:OE2:4905, V-A:ASP:366:CG:3208, V-A:GLU:543:CD:4903, H-A:TYR:484:OH:4343, H-B:ARG:545:NH1:9895, H-B:GLY:454:N:9017, V-B:ILE:369:CD1:8206, V-A:TYR:539:CD1:4868, V-A:ILE:538:CG2:4858, V-B:ARG:545:CZ:9894, V-A:ILE:538:CA:4855, V-A:GLU:543:CB:4901, V-B:HIS:456:CE1:9037, V-B:ARG:545:CD:9891, V-A:HIS:456:CE1:4064, H-A:HIS:456:NE2:4065, V-A:GLU:543:C:4897, V-A:GLY:544:C:4907, V-B:GLY:453:CA:9011, V-B:GLY:453:C:9009, H-A:TYR:531:OH:4790, H-A:ASP:366:OD2:3210, H-A:LEU:363:N:3181"]

$$$$
RR6_Rahimova_2017
     RDKit          3D

 38 41  0  0  0  0  0  0  0  0999 V2000
  132.1390  132.6400   54.9790 C   0  0  0  0  0  0  0  0  0  0  0  0
  131.6500  133.3250   56.1230 O   0  0  0  0  0  0  0  0  0  0  0  0
  130.4700  132.9750   56.6960 C   0  0  0  0  0  0  0  0  0  0  0  0
  129.3730  133.3780   56.2950 O   0  0  0  0  0  0  0  0  0  0  0  0
  130.6300  132.0460   57.8660 C   0  0  0  0  0  0  0  0  0  0  0  0
  129.8620  132.1810   59.0320 C   0  0  0  0  0  0  0  0  0  0  0  0
  130.0400  131.3080   60.1030 C   0  0  0  0  0  0  0  0  0  0  0  0
  130.9960  130.2840   60.0260 C   0  0  0  0  0  0  0  0  0  0  0  0
  131.2760  129.3680   61.0570 N   0  0  0  0  0  0  0  0  0  0  0  0
  130.8050  128.1150   61.2400 C   0  0  0  0  0  0  0  0  0  0  0  0
  130.0210  127.5310   60.4920 O   0  0  0  0  0  0  0  0  0  0  0  0
  131.2600  127.4190   62.5270 C   0  0  0  0  0  0  0  0  0  0  0  0
  130.0630  126.2000   63.1630 S   0  0  0  0  0  0  0  0  0  0  0  0
  129.1090  127.0250   64.4200 C   0  0  0  0  0  0  0  0  0  0  0  0
  128.0210  127.6840   63.9520 N   0  0  0  0  0  0  0  0  0  0  0  0
  127.2000  128.3280   64.8190 C   0  0  0  0  0  0  0  0  0  0  0  0
  125.9850  128.9800   64.2280 C   0  0  0  0  0  0  0  0  0  0  0  0
  124.9390  129.4370   65.0450 C   0  0  0  0  0  0  0  0  0  0  0  0
  123.8060  130.0300   64.4950 C   0  0  0  0  0  0  0  0  0  0  0  0
  123.7000  130.1830   63.1130 C   0  0  0  0  0  0  0  0  0  0  0  0
  122.4590  130.8220   62.5180 C   0  0  0  0  0  0  0  0  0  0  0  0
  124.7270  129.7390   62.2850 C   0  0  0  0  0  0  0  0  0  0  0  0
  125.8580  129.1470   62.8400 C   0  0  0  0  0  0  0  0  0  0  0  0
  127.4690  128.3300   66.1920 C   0  0  0  0  0  0  0  0  0  0  0  0
  128.5900  127.6600   66.7000 C   0  0  0  0  0  0  0  0  0  0  0  0
  128.8080  127.6870   68.1770 C   0  0  0  0  0  0  0  0  0  0  0  0
  127.9150  127.0330   69.0310 C   0  0  0  0  0  0  0  0  0  0  0  0
  128.1190  127.0400   70.4090 C   0  0  0  0  0  0  0  0  0  0  0  0
  129.2200  127.6960   70.9580 C   0  0  0  0  0  0  0  0  0  0  0  0
  129.3420  127.6490   72.3330 O   0  0  0  0  0  0  0  0  0  0  0  0
  130.6100  127.3460   72.9060 C   0  0  0  0  0  0  0  0  0  0  0  0
  130.1210  128.3500   70.1050 C   0  0  0  0  0  0  0  0  0  0  0  0
  129.9150  128.3400   68.7280 C   0  0  0  0  0  0  0  0  0  0  0  0
  129.4440  126.9890   65.7890 C   0  0  0  0  0  0  0  0  0  0  0  0
  130.6490  126.2930   66.2500 C   0  0  0  0  0  0  0  0  0  0  0  0
  131.5990  125.7420   66.6140 N   0  0  0  0  0  0  0  0  0  0  0  0
  131.7490  130.1370   58.8610 C   0  0  0  0  0  0  0  0  0  0  0  0
  131.5720  131.0120   57.7920 C   0  0  0  0  0  0  0  0  0  0  0  0
  1  2  1  0
  2  3  1  0
  3  4  2  0
  3  5  1  0
  5  6  2  0
  6  7  1  0
  7  8  2  0
  8  9  1  0
  9 10  1  0
 10 11  2  0
 10 12  1  0
 12 13  1  0
 13 14  1  0
 14 15  2  0
 15 16  1  0
 16 17  1  0
 17 18  2  0
 18 19  1  0
 19 20  2  0
 20 21  1  0
 20 22  1  0
 22 23  2  0
 16 24  2  0
 24 25  1  0
 25 26  1  0
 26 27  2  0
 27 28  1  0
 28 29  2  0
 29 30  1  0
 30 31  1  0
 29 32  1  0
 32 33  2  0
 25 34  2  0
 34 35  1  0
 35 36  3  0
  8 37  1  0
 37 38  2  0
 38  5  1  0
 34 14  1  0
 23 17  1  0
 33 26  1  0
M  END
>  <Binding energies>  (53) 
[-9.85]

>  <Ligand effiencies>  (53) 
[-0.25256410256410255]

>  <Interactions>  (53) 
["V-B:GLU:543:CD:9876, V-A:PRO:540:N:4879, V-A:PRO:540:CA:4878, V-A:PRO:540:CB:4880, V-A:LEU:363:CD1:3184, V-A:TYR:539:C:4862, V-A:PRO:540:CD:4882, H-A:GLU:543:OE2:4905, V-A:GLU:543:CD:4903, H-A:TYR:484:OH:4343, V-B:ILE:369:CD1:8206, H-A:TYR:539:N:4865, V-B:ASP:366:CG:8180, V-A:TYR:539:CD1:4868, V-A:ILE:538:CG2:4858, V-B:ARG:545:CZ:9894, V-A:ILE:538:CA:4855, V-A:ILE:538:CB:4857, V-A:GLU:543:CB:4901, V-B:HIS:456:CE1:9037, V-A:HIS:456:CE1:4064, H-A:HIS:456:NE2:4065, V-B:GLU:543:CB:9874, V-A:LYS:547:CE:4945, H-B:LYS:547:NZ:9919, V-B:GLU:543:C:9870, V-B:GLY:453:CA:9011, V-B:GLY:453:C:9009, V-A:ILE:538:CD1:4860, H-A:ASP:366:OD2:3210"]

$$$$
RR7_Rahimova_2017
     RDKit          3D

 47 53  0  0  0  0  0  0  0  0999 V2000
  123.9940  124.4590   57.8530 C   0  0  0  0  0  0  0  0  0  0  0  0
  125.2180  124.7570   57.1870 O   0  0  0  0  0  0  0  0  0  0  0  0
  126.4130  124.4410   57.8030 C   0  0  0  0  0  0  0  0  0  0  0  0
  127.4480  125.3640   57.6670 C   0  0  0  0  0  0  0  0  0  0  0  0
  128.6870  125.1350   58.2570 C   0  0  0  0  0  0  0  0  0  0  0  0
  128.9250  123.9640   58.9910 C   0  0  0  0  0  0  0  0  0  0  0  0
  130.2940  123.6950   59.6910 C   0  0  0  0  0  0  0  0  0  0  0  0
  130.4560  124.7360   60.6810 O   0  0  0  0  0  0  0  0  0  0  0  0
  129.3210  125.2150   61.4100 C   0  0  0  0  0  0  0  0  0  0  0  0
  129.6350  126.6140   61.9630 C   0  0  1  0  0  0  0  0  0  0  0  0
  129.3720  126.5730   63.3630 O   0  0  0  0  0  0  0  0  0  0  0  0
  130.5050  126.8920   64.1180 C   0  0  1  0  0  0  0  0  0  0  0  0
  130.5000  126.1490   65.3640 N   0  0  0  0  0  0  0  0  0  0  0  0
  131.0480  124.9030   65.6160 C   0  0  0  0  0  0  0  0  0  0  0  0
  130.8580  124.4410   66.8260 N   0  0  0  0  0  0  0  0  0  0  0  0
  130.0960  125.4050   67.4290 C   0  0  0  0  0  0  0  0  0  0  0  0
  129.5470  125.5020   68.7220 C   0  0  0  0  0  0  0  0  0  0  0  0
  129.7880  124.4600   69.6380 N   0  0  0  0  0  0  0  0  0  0  0  0
  129.7520  124.4900   70.9910 C   0  0  0  0  0  0  0  0  0  0  0  0
  129.5070  125.4980   71.6570 O   0  0  0  0  0  0  0  0  0  0  0  0
  130.0730  123.1820   71.6830 C   0  0  0  0  0  0  0  0  0  0  0  0
  131.3620  122.9640   72.1930 C   0  0  0  0  0  0  0  0  0  0  0  0
  131.6760  121.7720   72.8380 C   0  0  0  0  0  0  0  0  0  0  0  0
  130.7030  120.7880   72.9830 C   0  0  0  0  0  0  0  0  0  0  0  0
  129.4170  120.9860   72.4890 C   0  0  0  0  0  0  0  0  0  0  0  0
  129.1020  122.1790   71.8420 C   0  0  0  0  0  0  0  0  0  0  0  0
  128.7970  126.5970   69.0490 N   0  0  0  0  0  0  0  0  0  0  0  0
  128.6160  127.5480   68.0960 C   0  0  0  0  0  0  0  0  0  0  0  0
  129.1000  127.5580   66.8250 N   0  0  0  0  0  0  0  0  0  0  0  0
  129.8360  126.4760   66.5360 C   0  0  0  0  0  0  0  0  0  0  0  0
  131.6900  126.6060   63.2040 C   0  0  0  0  0  0  0  0  0  0  0  0
  131.1090  127.0340   61.8670 C   0  0  2  0  0  0  0  0  0  0  0  0
  131.2610  128.4250   61.6410 O   0  0  0  0  0  0  0  0  0  0  0  0
  130.3130  122.3410   60.4500 C   0  0  0  0  0  0  0  0  0  0  0  0
  130.4630  122.3140   61.8460 C   0  0  0  0  0  0  0  0  0  0  0  0
  130.4960  121.1060   62.5340 C   0  0  0  0  0  0  0  0  0  0  0  0
  130.3800  119.9100   61.8340 C   0  0  0  0  0  0  0  0  0  0  0  0
  130.2310  119.9130   60.4500 C   0  0  0  0  0  0  0  0  0  0  0  0
  130.2000  121.1220   59.7610 C   0  0  0  0  0  0  0  0  0  0  0  0
  131.5370  123.6690   58.7580 C   0  0  0  0  0  0  0  0  0  0  0  0
  132.6940  122.9690   59.1350 C   0  0  0  0  0  0  0  0  0  0  0  0
  133.8150  122.9470   58.3120 C   0  0  0  0  0  0  0  0  0  0  0  0
  133.7950  123.6350   57.1020 C   0  0  0  0  0  0  0  0  0  0  0  0
  132.6640  124.3470   56.7140 C   0  0  0  0  0  0  0  0  0  0  0  0
  131.5440  124.3670   57.5390 C   0  0  0  0  0  0  0  0  0  0  0  0
  127.8760  123.0440   59.1370 C   0  0  0  0  0  0  0  0  0  0  0  0
  126.6360  123.2740   58.5470 C   0  0  0  0  0  0  0  0  0  0  0  0
  1  2  1  0
  2  3  1  0
  3  4  2  0
  4  5  1  0
  5  6  2  0
  6  7  1  0
  7  8  1  0
  8  9  1  0
 10  9  1  1
 10 11  1  0
 11 12  1  0
 12 13  1  1
 13 14  1  0
 14 15  2  0
 15 16  1  0
 16 17  2  0
 17 18  1  0
 18 19  1  0
 19 20  2  0
 19 21  1  0
 21 22  2  0
 22 23  1  0
 23 24  2  0
 24 25  1  0
 25 26  2  0
 17 27  1  0
 27 28  2  0
 28 29  1  0
 29 30  2  0
 12 31  1  0
 31 32  1  0
 32 33  1  1
  7 34  1  0
 34 35  2  0
 35 36  1  0
 36 37  2  0
 37 38  1  0
 38 39  2  0
  7 40  1  0
 40 41  2  0
 41 42  1  0
 42 43  2  0
 43 44  1  0
 44 45  2  0
  6 46  1  0
 46 47  2  0
 47  3  1  0
 32 10  1  0
 39 34  1  0
 45 40  1  0
 30 13  1  0
 30 16  1  0
 26 21  1  0
M  END
>  <Binding energies>  (54) 
[-9.93]

>  <Ligand effiencies>  (54) 
[-0.20265306122448978]

>  <Interactions>  (54) 
["V-B:TYR:539:C:9835, V-B:TYR:539:CD2:9842, V-A:LEU:475:CD2:4254, V-A:LEU:475:CD1:4253, V-B:TYR:539:CE2:9844, V-B:PRO:540:N:9852, V-B:ALA:541:CB:9860, V-B:PRO:540:CA:9851, V-B:PRO:540:CB:9853, V-A:TYR:531:CZ:4789, V-A:ASP:366:CB:3207, H-A:GLU:543:OE2:4905, V-A:GLU:543:CD:4903, H-A:TYR:484:OH:4343, V-B:LEU:363:CB:8154, V-B:ASP:366:CG:8180, V-B:LEU:363:CD1:8156, V-B:TYR:539:CZ:9845, V-B:ASP:366:CB:8179, V-B:LEU:363:CA:8152, H-A:ARG:545:NH2:4923, H-B:GLU:543:O:9871, V-A:TYR:484:CZ:4342, V-B:GLU:543:CA:9872, V-A:HIS:456:CE1:4064, H-A:HIS:456:NE2:4065, V-B:GLU:543:CB:9874, H-B:LYS:547:NZ:9919, V-A:HIS:456:CG:4061, V-A:HIS:456:CB:4060, V-A:ASP:473:CG:4235, V-B:GLU:543:C:9870, V-A:ILE:369:CD1:3234, V-A:ILE:369:CG2:3232, H-A:GLU:543:OE1:4904, V-A:ILE:369:CB:3231, V-A:TYR:531:CE1:4787, V-A:ASP:366:CA:3205, V-A:ASP:366:C:3203, V-A:ARG:545:CZ:4921, V-A:TYR:484:CB:4336, V-A:TYR:484:CG:4337, V-A:ASP:473:CB:4234, V-A:TYR:484:CD2:4339, H-B:TYR:531:OH:9763, V-A:HIS:456:CD2:4063, H-A:ASP:366:OD2:3210, V-A:ASN:370:CB:3240, V-A:ILE:369:CG1:3233"]

$$$$
RR8_A_Rahimova_2017
     RDKit          3D

 42 46  0  0  0  0  0  0  0  0999 V2000
  128.2730  127.8640   65.0330 O   0  0  0  0  0  0  0  0  0  0  0  0
  128.5380  128.6490   65.9490 C   0  0  0  0  0  0  0  0  0  0  0  0
  128.8930  129.9590   65.7660 O   0  0  0  0  0  0  0  0  0  0  0  0
  128.2710  130.6590   64.7250 C   0  0  1  0  0  0  0  0  0  0  0  0
  128.5740  132.0240   64.7670 O   0  0  0  0  0  0  0  0  0  0  0  0
  128.7540  132.5670   63.4620 C   0  0  2  0  0  0  0  0  0  0  0  0
  127.7920  133.7560   63.2890 C   0  0  0  0  0  0  0  0  0  0  0  0
  128.2610  134.5740   62.2260 O   0  0  0  0  0  0  0  0  0  0  0  0
  127.3110  134.7700   61.1870 C   0  0  0  0  0  0  0  0  0  0  0  0
  127.2830  133.5510   60.2760 C   0  0  0  0  0  0  0  0  0  0  0  0
  126.2150  132.6540   60.3470 C   0  0  0  0  0  0  0  0  0  0  0  0
  126.1840  131.5400   59.5100 C   0  0  0  0  0  0  0  0  0  0  0  0
  127.2200  131.3290   58.6030 C   0  0  0  0  0  0  0  0  0  0  0  0
  128.2860  132.2220   58.5220 C   0  0  0  0  0  0  0  0  0  0  0  0
  128.3170  133.3360   59.3570 C   0  0  0  0  0  0  0  0  0  0  0  0
  128.5020  131.3730   62.5310 C   0  0  1  0  0  0  0  0  0  0  0  0
  129.3780  131.3450   61.4060 O   0  0  0  0  0  0  0  0  0  0  0  0
  130.6770  131.8850   61.6220 C   0  0  0  0  0  0  0  0  0  0  0  0
  131.6580  131.2940   60.6190 C   0  0  0  0  0  0  0  0  0  0  0  0
  132.9850  131.0710   60.9970 C   0  0  0  0  0  0  0  0  0  0  0  0
  133.8900  130.5390   60.0830 C   0  0  0  0  0  0  0  0  0  0  0  0
  133.4670  130.2340   58.7900 C   0  0  0  0  0  0  0  0  0  0  0  0
  132.1480  130.4600   58.4030 C   0  0  0  0  0  0  0  0  0  0  0  0
  131.2430  130.9930   59.3170 C   0  0  0  0  0  0  0  0  0  0  0  0
  128.8430  130.1760   63.3990 C   0  0  2  0  0  0  0  0  0  0  0  0
  128.2130  128.9990   62.8990 O   0  0  0  0  0  0  0  0  0  0  0  0
  126.9870  129.2020   62.2050 C   0  0  0  0  0  0  0  0  0  0  0  0
  125.8990  129.6100   63.1860 C   0  0  0  0  0  0  0  0  0  0  0  0
  125.6470  128.8330   64.3220 C   0  0  0  0  0  0  0  0  0  0  0  0
  124.6560  129.2160   65.2220 C   0  0  0  0  0  0  0  0  0  0  0  0
  123.9220  130.3760   64.9870 C   0  0  0  0  0  0  0  0  0  0  0  0
  124.1700  131.1590   63.8620 C   0  0  0  0  0  0  0  0  0  0  0  0
  125.1610  130.7760   62.9610 C   0  0  0  0  0  0  0  0  0  0  0  0
  128.4920  128.2590   67.3980 C   0  0  0  0  0  0  0  0  0  0  0  0
  127.5000  127.4050   67.9050 C   0  0  0  0  0  0  0  0  0  0  0  0
  127.4840  127.0630   69.2550 C   0  0  0  0  0  0  0  0  0  0  0  0
  128.4550  127.5640   70.1310 C   0  0  0  0  0  0  0  0  0  0  0  0
  128.4380  127.1970   71.5680 N   0  0  0  0  0  0  0  0  0  0  0  0
  128.6300  126.0250   71.8780 O   0  0  0  0  0  0  0  0  0  0  0  0
  128.2310  128.0780   72.3970 O   0  0  0  0  0  0  0  0  0  0  0  0
  129.4430  128.4180   69.6240 C   0  0  0  0  0  0  0  0  0  0  0  0
  129.4610  128.7610   68.2760 C   0  0  0  0  0  0  0  0  0  0  0  0
  1  2  2  0
  2  3  1  0
  4  3  1  1
  4  5  1  0
  5  6  1  0
  6  7  1  6
  7  8  1  0
  8  9  1  0
  9 10  1  0
 10 11  2  0
 11 12  1  0
 12 13  2  0
 13 14  1  0
 14 15  2  0
  6 16  1  0
 16 17  1  6
 17 18  1  0
 18 19  1  0
 19 20  2  0
 20 21  1  0
 21 22  2  0
 22 23  1  0
 23 24  2  0
 16 25  1  0
 25 26  1  6
 26 27  1  0
 27 28  1  0
 28 29  2  0
 29 30  1  0
 30 31  2  0
 31 32  1  0
 32 33  2  0
  2 34  1  0
 34 35  2  0
 35 36  1  0
 36 37  2  0
 37 38  1  0
 38 39  2  0
 38 40  1  0
 37 41  1  0
 41 42  2  0
 25  4  1  0
 33 28  1  0
 42 34  1  0
 15 10  1  0
 24 19  1  0
M  CHG  2  38   1  40  -1
M  END
>  <Binding energies>  (55) 
[-9.33]

>  <Ligand effiencies>  (55) 
[-0.22214285714285714]

>  <Interactions>  (55) 
["V-A:GLU:543:CG:4902, V-A:PRO:540:N:4879, V-A:ASN:362:C:3167, V-A:TYR:539:CE2:4871, V-A:TYR:531:CE2:4788, V-A:PRO:540:CA:4878, H-A:ALA:541:N:4886, V-A:TYR:539:CZ:4872, V-A:PRO:540:CB:4880, V-A:TYR:539:C:4862, V-A:ASN:362:CB:3171, V-A:LEU:363:CA:3180, V-A:ASP:366:CG:3208, V-A:GLU:543:CD:4903, V-B:GLY:454:CA:9016, V-A:TYR:539:CD2:4869, V-B:LEU:475:CD2:9226, V-A:ALA:541:CB:4887, V-A:TYR:539:CG:4867, V-B:ARG:545:CZ:9894, V-B:LEU:475:CD1:9225, V-A:GLU:543:CB:4901, V-B:HIS:456:CE1:9037, V-B:ARG:545:CG:9890, H-B:TYR:484:OH:9315, V-B:ARG:545:CD:9891, V-A:HIS:456:CE1:4064, V-B:GLU:543:CB:9874, H-B:LYS:547:NZ:9919, V-B:GLU:543:C:9870"]

$$$$
RR8_B_Rahimova_2017
     RDKit          3D

 42 46  0  0  0  0  0  0  0  0999 V2000
  126.1330  127.4020   61.5780 O   0  0  0  0  0  0  0  0  0  0  0  0
  126.3050  128.5240   62.0640 C   0  0  0  0  0  0  0  0  0  0  0  0
  127.2720  129.4020   61.6590 O   0  0  0  0  0  0  0  0  0  0  0  0
  128.4400  129.5070   62.4360 C   0  0  2  0  0  0  0  0  0  0  0  0
  128.2980  130.4390   63.4700 O   0  0  0  0  0  0  0  0  0  0  0  0
  128.7250  131.7390   63.0640 C   0  0  2  0  0  0  0  0  0  0  0  0
  127.5630  132.7350   63.2240 C   0  0  0  0  0  0  0  0  0  0  0  0
  127.9820  134.0180   62.7740 O   0  0  0  0  0  0  0  0  0  0  0  0
  127.7150  134.2880   61.4060 C   0  0  0  0  0  0  0  0  0  0  0  0
  126.4330  133.5790   60.9960 C   0  0  0  0  0  0  0  0  0  0  0  0
  125.1950  134.1110   61.3700 C   0  0  0  0  0  0  0  0  0  0  0  0
  124.0190  133.4540   61.0190 C   0  0  0  0  0  0  0  0  0  0  0  0
  124.0840  132.2670   60.2930 C   0  0  0  0  0  0  0  0  0  0  0  0
  125.3130  131.7340   59.9110 C   0  0  0  0  0  0  0  0  0  0  0  0
  126.4900  132.3890   60.2650 C   0  0  0  0  0  0  0  0  0  0  0  0
  129.2320  131.5410   61.6300 C   0  0  1  0  0  0  0  0  0  0  0  0
  130.3540  132.3940   61.3890 O   0  0  0  0  0  0  0  0  0  0  0  0
  131.6430  131.8910   61.7530 C   0  0  0  0  0  0  0  0  0  0  0  0
  132.3680  131.2530   60.5720 C   0  0  0  0  0  0  0  0  0  0  0  0
  131.8440  131.3710   59.2810 C   0  0  0  0  0  0  0  0  0  0  0  0
  132.5260  130.8150   58.2010 C   0  0  0  0  0  0  0  0  0  0  0  0
  133.7250  130.1400   58.4160 C   0  0  0  0  0  0  0  0  0  0  0  0
  134.2510  130.0150   59.7000 C   0  0  0  0  0  0  0  0  0  0  0  0
  133.5710  130.5740   60.7810 C   0  0  0  0  0  0  0  0  0  0  0  0
  129.5770  130.0570   61.5750 C   0  0  2  0  0  0  0  0  0  0  0  0
  129.5550  129.5910   60.2280 O   0  0  0  0  0  0  0  0  0  0  0  0
  128.4480  130.0180   59.4490 C   0  0  0  0  0  0  0  0  0  0  0  0
  128.9730  130.8490   58.2910 C   0  0  0  0  0  0  0  0  0  0  0  0
  128.9960  132.2430   58.3760 C   0  0  0  0  0  0  0  0  0  0  0  0
  129.4610  132.9960   57.3010 C   0  0  0  0  0  0  0  0  0  0  0  0
  129.9010  132.3530   56.1460 C   0  0  0  0  0  0  0  0  0  0  0  0
  129.8830  130.9620   56.0560 C   0  0  0  0  0  0  0  0  0  0  0  0
  129.4180  130.2090   57.1300 C   0  0  0  0  0  0  0  0  0  0  0  0
  125.4850  129.0600   63.2020 C   0  0  0  0  0  0  0  0  0  0  0  0
  124.4010  129.9250   62.9890 C   0  0  0  0  0  0  0  0  0  0  0  0
  123.6640  130.4130   64.0630 C   0  0  0  0  0  0  0  0  0  0  0  0
  123.9970  130.0590   65.3760 C   0  0  0  0  0  0  0  0  0  0  0  0
  123.2270  130.6020   66.5220 N   0  0  0  0  0  0  0  0  0  0  0  0
  122.1150  130.1370   66.7560 O   0  0  0  0  0  0  0  0  0  0  0  0
  123.7300  131.4950   67.1990 O   0  0  0  0  0  0  0  0  0  0  0  0
  125.0760  129.1900   65.5880 C   0  0  0  0  0  0  0  0  0  0  0  0
  125.8090  128.6960   64.5140 C   0  0  0  0  0  0  0  0  0  0  0  0
  1  2  2  0
  2  3  1  0
  4  3  1  6
  4  5  1  0
  5  6  1  0
  6  7  1  6
  7  8  1  0
  8  9  1  0
  9 10  1  0
 10 11  2  0
 11 12  1  0
 12 13  2  0
 13 14  1  0
 14 15  2  0
  6 16  1  0
 16 17  1  1
 17 18  1  0
 18 19  1  0
 19 20  2  0
 20 21  1  0
 21 22  2  0
 22 23  1  0
 23 24  2  0
 16 25  1  0
 25 26  1  6
 26 27  1  0
 27 28  1  0
 28 29  2  0
 29 30  1  0
 30 31  2  0
 31 32  1  0
 32 33  2  0
  2 34  1  0
 34 35  2  0
 35 36  1  0
 36 37  2  0
 37 38  1  0
 38 39  2  0
 38 40  1  0
 37 41  1  0
 41 42  2  0
 25  4  1  0
 33 28  1  0
 42 34  1  0
 15 10  1  0
 24 19  1  0
M  CHG  2  38   1  40  -1
M  END
>  <Binding energies>  (56) 
[-9.06]

>  <Ligand effiencies>  (56) 
[-0.21571428571428572]

>  <Interactions>  (56) 
["V-A:GLU:543:CG:4902, V-A:PRO:540:N:4879, V-A:ASN:362:C:3167, V-A:TYR:531:CZ:4789, V-A:TYR:539:CE2:4871, V-A:TYR:531:CE2:4788, V-A:PRO:540:CA:4878, V-A:PRO:540:C:4876, V-A:TYR:539:CE1:4870, V-A:ASP:366:CB:3207, H-A:ALA:541:N:4886, V-A:TYR:539:CZ:4872, V-A:PRO:540:CB:4880, V-A:LEU:363:CD1:3184, V-A:TYR:539:C:4862, V-A:ASN:362:CB:3171, V-A:LEU:363:CA:3180, V-A:ASP:366:CG:3208, V-A:GLU:543:CD:4903, V-B:GLY:454:CA:9016, V-A:TYR:539:CD2:4869, H-B:GLY:454:N:9017, V-B:ILE:369:CD1:8206, V-B:LEU:475:CD2:9226, V-A:TYR:539:CD1:4868, V-A:ALA:541:CB:4887, V-A:TYR:539:CG:4867, V-A:TYR:539:CA:4864, V-B:ARG:545:CZ:9894, V-B:ILE:369:CG2:8204, V-B:HIS:456:CE1:9037, V-B:ARG:545:CG:9890, H-B:TYR:484:OH:9315, V-B:ARG:545:CD:9891, H-B:HIS:456:ND1:9034, H-B:ARG:545:NH2:9896, V-B:GLY:453:CA:9011, V-B:GLY:453:C:9009, H-B:ILE:455:N:9022, V-B:GLY:454:C:9014"]

$$$$
RR9_Rahimova_2017
     RDKit          3D

 36 40  0  0  0  0  0  0  0  0999 V2000
  129.9750  128.4990   72.5590 C   0  0  0  0  0  0  0  0  0  0  0  0
  129.0990  129.3140   71.6020 C   0  0  0  0  0  0  0  0  0  0  0  0
  128.2980  128.4170   70.8390 O   0  0  0  0  0  0  0  0  0  0  0  0
  128.8190  127.8490   69.6930 C   0  0  0  0  0  0  0  0  0  0  0  0
  130.0320  128.3630   69.2380 C   0  0  0  0  0  0  0  0  0  0  0  0
  130.6310  127.8550   68.0900 C   0  0  0  0  0  0  0  0  0  0  0  0
  130.0330  126.8160   67.3620 C   0  0  0  0  0  0  0  0  0  0  0  0
  130.6720  126.2670   66.1210 C   0  0  0  0  0  0  0  0  0  0  0  0
  130.0900  126.4400   64.8560 C   0  0  0  0  0  0  0  0  0  0  0  0
  130.7000  125.9350   63.6930 C   0  0  0  0  0  0  0  0  0  0  0  0
  130.0790  126.2390   62.3570 C   0  0  0  0  0  0  0  0  0  0  0  0
  130.4190  127.2410   61.7270 O   0  0  0  0  0  0  0  0  0  0  0  0
  129.1380  125.3710   61.9370 N   0  0  0  0  0  0  0  0  0  0  0  0
  128.3030  125.5210   60.7400 C   0  0  0  0  0  0  0  0  0  0  0  0
  128.5130  124.3870   59.7100 C   0  0  0  0  0  0  0  0  0  0  0  0
  127.2540  123.9680   58.9590 C   0  0  0  0  0  0  0  0  0  0  0  0
  125.9950  124.3670   59.4210 C   0  0  0  0  0  0  0  0  0  0  0  0
  124.8500  124.0120   58.7130 C   0  0  0  0  0  0  0  0  0  0  0  0
  124.9650  123.2560   57.5490 C   0  0  0  0  0  0  0  0  0  0  0  0
  126.2150  122.8510   57.0850 C   0  0  0  0  0  0  0  0  0  0  0  0
  127.3620  123.2070   57.7920 C   0  0  0  0  0  0  0  0  0  0  0  0
  131.9080  125.2190   63.8800 C   0  0  0  0  0  0  0  0  0  0  0  0
  132.8770  124.4970   63.0890 C   0  0  0  0  0  0  0  0  0  0  0  0
  132.8630  124.1790   61.6300 C   0  0  0  0  0  0  0  0  0  0  0  0
  133.4170  122.9830   61.1650 C   0  0  0  0  0  0  0  0  0  0  0  0
  133.4170  122.6950   59.8030 C   0  0  0  0  0  0  0  0  0  0  0  0
  132.8590  123.6010   58.9000 C   0  0  0  0  0  0  0  0  0  0  0  0
  132.8750  123.2960   57.4130 C   0  0  0  0  0  0  0  0  0  0  0  0
  132.3060  124.7970   59.3590 C   0  0  0  0  0  0  0  0  0  0  0  0
  132.3040  125.0820   60.7220 C   0  0  0  0  0  0  0  0  0  0  0  0
  133.8680  124.0770   63.8430 N   0  0  0  0  0  0  0  0  0  0  0  0
  133.5970  124.4240   65.1110 N   0  0  0  0  0  0  0  0  0  0  0  0
  132.4100  125.1120   65.1990 C   0  0  0  0  0  0  0  0  0  0  0  0
  131.8440  125.5960   66.3040 N   0  0  0  0  0  0  0  0  0  0  0  0
  128.8120  126.3050   67.8250 C   0  0  0  0  0  0  0  0  0  0  0  0
  128.2100  126.8110   68.9750 C   0  0  0  0  0  0  0  0  0  0  0  0
  1  2  1  0
  2  3  1  0
  3  4  1  0
  4  5  2  0
  5  6  1  0
  6  7  2  0
  7  8  1  0
  8  9  2  0
  9 10  1  0
 10 11  1  0
 11 12  2  0
 11 13  1  0
 13 14  1  0
 14 15  1  0
 15 16  1  0
 16 17  2  0
 17 18  1  0
 18 19  2  0
 19 20  1  0
 20 21  2  0
 10 22  2  0
 22 23  1  0
 23 24  1  0
 24 25  2  0
 25 26  1  0
 26 27  2  0
 27 28  1  0
 27 29  1  0
 29 30  2  0
 23 31  2  0
 31 32  1  0
 32 33  1  0
 33 34  2  0
  7 35  1  0
 35 36  2  0
 36  4  1  0
 34  8  1  0
 21 16  1  0
 33 22  1  0
 30 24  1  0
M  END
>  <Binding energies>  (57) 
[-9.12]

>  <Ligand effiencies>  (57) 
[-0.24]

>  <Interactions>  (57) 
["V-B:TYR:539:C:9835, V-B:TYR:539:CE2:9844, V-B:PRO:540:N:9852, V-B:PRO:540:CA:9851, V-B:MET:535:CE:9803, V-B:PRO:540:CB:9853, H-B:GLU:543:OE2:9878, V-B:GLU:543:CD:9876, V-A:ASP:366:CB:3207, V-A:ASP:366:CG:3208, V-A:GLU:543:CD:4903, H-A:TYR:484:OH:4343, V-B:GLU:543:CG:9875, V-B:PRO:540:CD:9855, V-B:LEU:363:CD1:8156, V-B:TYR:539:CZ:9845, V-A:GLU:543:CB:4901, V-B:HIS:456:CE1:9037, V-A:TYR:484:CZ:4342, V-A:HIS:456:CE1:4064, H-A:HIS:456:NE2:4065, V-B:GLU:543:CB:9874, V-A:LYS:547:CE:4945, V-B:HIS:456:CD2:9035, V-B:GLU:543:C:9870, V-A:ILE:369:CD1:3234, V-A:ILE:369:CG2:3232, V-A:ILE:369:CB:3231, H-A:GLY:454:N:4045, V-A:GLY:454:CA:4044"]

$$$$
