1a_Ghoteimi_2023
     RDKit          3D

 67 70  0  0  0  0  0  0  0  0999 V2000
  132.9150  127.5760   74.1070 C   0  0  0  0  0  0  0  0  0  0  0  0
  131.9110  127.4310   75.2550 C   0  0  0  0  0  0  0  0  0  0  0  0
  130.7480  128.1970   74.9630 O   0  0  0  0  0  0  0  0  0  0  0  0
  129.6400  127.6170   74.4350 C   0  0  0  0  0  0  0  0  0  0  0  0
  128.7620  127.0810   75.1170 O   0  0  0  0  0  0  0  0  0  0  0  0
  129.5860  127.6980   72.9370 C   0  0  0  0  0  0  0  0  0  0  0  0
  128.8120  126.8130   72.1730 C   0  0  0  0  0  0  0  0  0  0  0  0
  128.7840  126.9100   70.7840 C   0  0  0  0  0  0  0  0  0  0  0  0
  129.5310  127.9030   70.1320 C   0  0  0  0  0  0  0  0  0  0  0  0
  129.5800  128.0900   68.7380 N   0  0  0  0  0  0  0  0  0  0  0  0
  128.6780  127.7590   67.7880 C   0  0  0  0  0  0  0  0  0  0  0  0
  127.5900  127.2210   67.9900 O   0  0  0  0  0  0  0  0  0  0  0  0
  129.0780  128.1050   66.3540 C   0  0  0  0  0  0  0  0  0  0  0  0
  127.6980  128.8420   65.4300 S   0  0  0  0  0  0  0  0  0  0  0  0
  128.0390  128.5470   63.7100 C   0  0  0  0  0  0  0  0  0  0  0  0
  128.1540  127.2360   63.3900 N   0  0  0  0  0  0  0  0  0  0  0  0
  128.4090  126.8750   62.1050 C   0  0  0  0  0  0  0  0  0  0  0  0
  128.5020  125.4020   61.8260 C   0  0  0  0  0  0  0  0  0  0  0  0
  129.4730  124.6010   62.4490 C   0  0  0  0  0  0  0  0  0  0  0  0
  129.5550  123.2360   62.1900 C   0  0  0  0  0  0  0  0  0  0  0  0
  128.6740  122.6290   61.2990 C   0  0  0  0  0  0  0  0  0  0  0  0
  128.8270  121.2700   61.1040 O   0  0  0  0  0  0  0  0  0  0  0  0
  129.8990  120.5930   61.7510 C   0  0  0  0  0  0  0  0  0  0  0  0
  127.7020  123.4160   60.6650 C   0  0  0  0  0  0  0  0  0  0  0  0
  127.6220  124.7800   60.9270 C   0  0  0  0  0  0  0  0  0  0  0  0
  128.5570  127.8470   61.1080 C   0  0  0  0  0  0  0  0  0  0  0  0
  128.4670  129.2100   61.4190 C   0  0  0  0  0  0  0  0  0  0  0  0
  128.6670  130.1910   60.3100 C   0  0  0  0  0  0  0  0  0  0  0  0
  127.8910  130.1280   59.1480 C   0  0  0  0  0  0  0  0  0  0  0  0
  128.0730  131.0550   58.1260 C   0  0  0  0  0  0  0  0  0  0  0  0
  129.0270  132.0660   58.2470 C   0  0  0  0  0  0  0  0  0  0  0  0
  129.1360  132.9390   57.1830 O   0  0  0  0  0  0  0  0  0  0  0  0
  130.2630  132.8440   56.3190 C   0  0  0  0  0  0  0  0  0  0  0  0
  129.8010  132.1370   59.4150 C   0  0  0  0  0  0  0  0  0  0  0  0
  129.6180  131.2080   60.4360 C   0  0  0  0  0  0  0  0  0  0  0  0
  128.1960  129.5780   62.7590 C   0  0  0  0  0  0  0  0  0  0  0  0
  128.0760  130.9880   63.1430 C   0  0  0  0  0  0  0  0  0  0  0  0
  127.9800  132.1010   63.4460 N   0  0  0  0  0  0  0  0  0  0  0  0
  130.3050  128.7830   70.8890 C   0  0  0  0  0  0  0  0  0  0  0  0
  130.3320  128.6840   72.2780 C   0  0  0  0  0  0  0  0  0  0  0  0
  133.9245  127.7218   74.5190 H   0  0  0  0  0  0  0  0  0  0  0  0
  132.8991  126.6662   73.4889 H   0  0  0  0  0  0  0  0  0  0  0  0
  132.6423  128.4441   73.4889 H   0  0  0  0  0  0  0  0  0  0  0  0
  131.6345  126.3725   75.3696 H   0  0  0  0  0  0  0  0  0  0  0  0
  132.3652  127.7928   76.1893 H   0  0  0  0  0  0  0  0  0  0  0  0
  128.2206  126.0338   72.6761 H   0  0  0  0  0  0  0  0  0  0  0  0
  128.1751  126.2068   70.1968 H   0  0  0  0  0  0  0  0  0  0  0  0
  130.4060  128.5730   68.4160 H   0  0  0  0  0  0  0  0  0  0  0  0
  129.9125  128.8212   66.3797 H   0  0  0  0  0  0  0  0  0  0  0  0
  129.3722  127.1746   65.8463 H   0  0  0  0  0  0  0  0  0  0  0  0
  130.1812  125.0606   63.1541 H   0  0  0  0  0  0  0  0  0  0  0  0
  130.3231  122.6310   62.6940 H   0  0  0  0  0  0  0  0  0  0  0  0
  129.7766  120.6703   62.8414 H   0  0  0  0  0  0  0  0  0  0  0  0
  129.8949  119.5334   61.4558 H   0  0  0  0  0  0  0  0  0  0  0  0
  130.8540  121.0521   61.4558 H   0  0  0  0  0  0  0  0  0  0  0  0
  126.9992  122.9526   59.9569 H   0  0  0  0  0  0  0  0  0  0  0  0
  126.8542  125.3826   60.4197 H   0  0  0  0  0  0  0  0  0  0  0  0
  128.7459  127.5371   60.0696 H   0  0  0  0  0  0  0  0  0  0  0  0
  127.1311  129.3398   59.0411 H   0  0  0  0  0  0  0  0  0  0  0  0
  127.4596  130.9901   57.2152 H   0  0  0  0  0  0  0  0  0  0  0  0
  131.1807  132.7666   56.9205 H   0  0  0  0  0  0  0  0  0  0  0  0
  130.1642  131.9510   55.6843 H   0  0  0  0  0  0  0  0  0  0  0  0
  130.3151  133.7409   55.6843 H   0  0  0  0  0  0  0  0  0  0  0  0
  130.5556  132.9298   59.5247 H   0  0  0  0  0  0  0  0  0  0  0  0
  130.2270  131.2749   61.3496 H   0  0  0  0  0  0  0  0  0  0  0  0
  130.8981  129.5605   70.3853 H   0  0  0  0  0  0  0  0  0  0  0  0
  130.9444  129.3861   72.8628 H   0  0  0  0  0  0  0  0  0  0  0  0
  1  2  1  0
  2  3  1  0
  3  4  1  0
  4  5  2  0
  4  6  1  0
  6  7  2  0
  7  8  1  0
  8  9  2  0
  9 10  1  0
 10 11  1  0
 11 12  2  0
 11 13  1  0
 13 14  1  0
 14 15  1  0
 15 16  2  0
 16 17  1  0
 17 18  1  0
 18 19  2  0
 19 20  1  0
 20 21  2  0
 21 22  1  0
 22 23  1  0
 21 24  1  0
 24 25  2  0
 17 26  2  0
 26 27  1  0
 27 28  1  0
 28 29  2  0
 29 30  1  0
 30 31  2  0
 31 32  1  0
 32 33  1  0
 31 34  1  0
 34 35  2  0
 27 36  2  0
 36 37  1  0
 37 38  3  0
  9 39  1  0
 39 40  2  0
 40  6  1  0
 36 15  1  0
 25 18  1  0
 35 28  1  0
  1 41  1  0
  1 42  1  0
  1 43  1  0
  2 44  1  0
  2 45  1  0
  7 46  1  0
  8 47  1  0
 10 48  1  0
 13 49  1  0
 13 50  1  0
 19 51  1  0
 20 52  1  0
 23 53  1  0
 23 54  1  0
 23 55  1  0
 24 56  1  0
 25 57  1  0
 26 58  1  0
 29 59  1  0
 30 60  1  0
 33 61  1  0
 33 62  1  0
 33 63  1  0
 34 64  1  0
 35 65  1  0
 39 66  1  0
 40 67  1  0
M  END
>  <Binding energies>  (1) 
[-7.1]

>  <Ligand effiencies>  (1) 
[-0.17317073170731706]

>  <Interactions>  (1) 
["V-B:PRO:540:CA:9855, V-B:GLU:543:CD:9880, H-B:ALA:541:N:9863, V-A:HIS:456:CE1:4070, V-A:LEU:475:CD2:4259, V-B:ALA:541:CB:9864, V-A:GLU:543:C:4902, V-B:HIS:456:CE1:9042, V-A:GLY:544:CA:4914, V-A:GLU:543:CB:4906, H-B:TYR:484:OH:9320, V-A:GLU:543:CD:4908, V-A:GLY:544:C:4912, V-A:GLU:543:CG:4907, V-A:HIS:456:CD2:4068, H-A:GLU:543:OE2:4910, V-A:PRO:540:CA:4883, V-A:PRO:540:N:4884, V-A:TYR:539:C:4867, H-A:TYR:539:N:4870, V-B:HIS:456:CD2:9040, H-B:LYS:547:NZ:9923, V-A:TYR:539:CA:4869, H-A:LYS:547:NZ:4951, V-A:LYS:547:CE:4950, H-A:GLU:543:O:4903, V-A:PRO:540:CD:4887, V-A:LYS:547:CD:4949"]

$$$$
1a_Grossjean_2025
     RDKit          3D

 45 46  0  0  0  0  0  0  0  0999 V2000
  123.9410  123.5100   57.7300 C   0  0  0  0  0  0  0  0  0  0  0  0
  124.6870  122.9150   56.5320 C   0  0  0  0  0  0  0  0  0  0  0  0
  125.7200  122.0560   56.9970 O   0  0  0  0  0  0  0  0  0  0  0  0
  126.9740  122.5270   57.2260 C   0  0  0  0  0  0  0  0  0  0  0  0
  127.9690  122.1400   56.6070 O   0  0  0  0  0  0  0  0  0  0  0  0
  127.0310  123.5550   58.3200 C   0  0  0  0  0  0  0  0  0  0  0  0
  126.8150  123.1560   59.6450 C   0  0  0  0  0  0  0  0  0  0  0  0
  126.8560  124.0850   60.6800 C   0  0  0  0  0  0  0  0  0  0  0  0
  127.1130  125.4300   60.4140 C   0  0  0  0  0  0  0  0  0  0  0  0
  127.1290  126.2820   61.5350 N   0  0  0  0  0  0  0  0  0  0  0  0
  127.8610  127.3910   61.7720 C   0  0  0  0  0  0  0  0  0  0  0  0
  128.6890  127.8800   61.0030 O   0  0  0  0  0  0  0  0  0  0  0  0
  127.6100  128.0670   63.1220 C   0  0  0  0  0  0  0  0  0  0  0  0
  128.0070  129.8400   63.0860 S   0  0  0  0  0  0  0  0  0  0  0  0
  127.5900  130.4480   61.4670 C   0  0  0  0  0  0  0  0  0  0  0  0
  126.3110  130.1870   61.0960 N   0  0  0  0  0  0  0  0  0  0  0  0
  125.8890  130.6010   59.8780 C   0  0  0  0  0  0  0  0  0  0  0  0
  124.4520  130.2620   59.5280 C   0  0  0  0  0  0  0  0  0  0  0  0
  126.7110  131.2940   58.9930 C   0  0  0  0  0  0  0  0  0  0  0  0
  128.0250  131.5880   59.3740 C   0  0  0  0  0  0  0  0  0  0  0  0
  128.9040  132.3620   58.3940 C   0  0  0  0  0  0  0  0  0  0  0  0
  128.4880  131.1680   60.6430 C   0  0  0  0  0  0  0  0  0  0  0  0
  129.8440  131.5060   61.0830 C   0  0  0  0  0  0  0  0  0  0  0  0
  130.9150  131.7740   61.4280 N   0  0  0  0  0  0  0  0  0  0  0  0
  127.3380  125.8380   59.0900 C   0  0  0  0  0  0  0  0  0  0  0  0
  127.2960  124.9080   58.0560 C   0  0  0  0  0  0  0  0  0  0  0  0
  124.3966  123.1466   58.6629 H   0  0  0  0  0  0  0  0  0  0  0  0
  124.0053  124.6075   57.6937 H   0  0  0  0  0  0  0  0  0  0  0  0
  122.8853  123.2032   57.6937 H   0  0  0  0  0  0  0  0  0  0  0  0
  123.9842  122.3406   55.9107 H   0  0  0  0  0  0  0  0  0  0  0  0
  125.1262  123.7265   55.9333 H   0  0  0  0  0  0  0  0  0  0  0  0
  126.6111  122.0986   59.8695 H   0  0  0  0  0  0  0  0  0  0  0  0
  126.6845  123.7564   61.7157 H   0  0  0  0  0  0  0  0  0  0  0  0
  126.4650  126.0290   62.2510 H   0  0  0  0  0  0  0  0  0  0  0  0
  126.5491  127.9468   63.3866 H   0  0  0  0  0  0  0  0  0  0  0  0
  128.2646  127.5893   63.8658 H   0  0  0  0  0  0  0  0  0  0  0  0
  123.8719  130.1252   60.4525 H   0  0  0  0  0  0  0  0  0  0  0  0
  124.0149  131.0817   58.9389 H   0  0  0  0  0  0  0  0  0  0  0  0
  124.4274  129.3334   58.9389 H   0  0  0  0  0  0  0  0  0  0  0  0
  126.3327  131.6059   58.0083 H   0  0  0  0  0  0  0  0  0  0  0  0
  129.6145  132.9877   58.9541 H   0  0  0  0  0  0  0  0  0  0  0  0
  129.4589  131.6539   57.7610 H   0  0  0  0  0  0  0  0  0  0  0  0
  128.2718  133.0020   57.7610 H   0  0  0  0  0  0  0  0  0  0  0  0
  127.5479  126.8950   58.8694 H   0  0  0  0  0  0  0  0  0  0  0  0
  127.4723  125.2363   57.0210 H   0  0  0  0  0  0  0  0  0  0  0  0
  1  2  1  0
  2  3  1  0
  3  4  1  0
  4  5  2  0
  4  6  1  0
  6  7  2  0
  7  8  1  0
  8  9  2  0
  9 10  1  0
 10 11  1  0
 11 12  2  0
 11 13  1  0
 13 14  1  0
 14 15  1  0
 15 16  2  0
 16 17  1  0
 17 18  1  0
 17 19  2  0
 19 20  1  0
 20 21  1  0
 20 22  2  0
 22 23  1  0
 23 24  3  0
  9 25  1  0
 25 26  2  0
 26  6  1  0
 22 15  1  0
  1 27  1  0
  1 28  1  0
  1 29  1  0
  2 30  1  0
  2 31  1  0
  7 32  1  0
  8 33  1  0
 10 34  1  0
 13 35  1  0
 13 36  1  0
 18 37  1  0
 18 38  1  0
 18 39  1  0
 19 40  1  0
 21 41  1  0
 21 42  1  0
 21 43  1  0
 25 44  1  0
 26 45  1  0
M  END
>  <Binding energies>  (1) 
[-6.51]

>  <Ligand effiencies>  (1) 
[-0.2411111111111111]

>  <Interactions>  (1) 
["V-B:PRO:540:CD:9859, V-B:LEU:363:CD1:8161, V-B:ILE:538:CD1:9837, V-B:PRO:540:CB:9857, V-B:TYR:539:C:9839, V-B:PRO:540:CA:9855, V-B:PRO:540:N:9856, V-B:GLU:543:CD:9880, V-B:ASP:366:CG:8185, V-B:TYR:539:CA:9841, H-B:GLU:543:OE2:9882, H-B:GLU:543:OE1:9881, V-B:TYR:531:CE2:9765, H-B:ASP:366:OD2:8187, V-B:TYR:531:CZ:9766, V-B:ASP:366:CB:8184, V-A:PRO:540:CA:4883, V-A:PRO:540:N:4884, H-B:TYR:539:N:9842, H-A:ALA:541:N:4891, V-A:TYR:539:CD1:4873, V-A:TYR:539:C:4867, V-A:TYR:539:CE1:4875, V-B:ASP:366:CA:8182, V-B:LEU:363:CA:8157, V-B:LEU:363:CB:8159"]

$$$$
1aa_Ghoteimi_2023
     RDKit          3D

 67 70  0  0  0  0  0  0  0  0999 V2000
  130.6210  118.2070   60.2960 C   0  0  0  0  0  0  0  0  0  0  0  0
  129.8750  118.4450   61.6120 C   0  0  0  0  0  0  0  0  0  0  0  0
  129.0900  119.6260   61.5050 O   0  0  0  0  0  0  0  0  0  0  0  0
  129.5510  120.8180   61.9640 C   0  0  0  0  0  0  0  0  0  0  0  0
  130.2900  120.9290   62.9470 O   0  0  0  0  0  0  0  0  0  0  0  0
  129.0730  121.9900   61.1560 C   0  0  0  0  0  0  0  0  0  0  0  0
  129.6940  122.3690   59.9560 C   0  0  0  0  0  0  0  0  0  0  0  0
  129.2290  123.4610   59.2280 C   0  0  0  0  0  0  0  0  0  0  0  0
  128.1260  124.1950   59.6880 C   0  0  0  0  0  0  0  0  0  0  0  0
  127.5700  125.3130   59.0400 N   0  0  0  0  0  0  0  0  0  0  0  0
  127.6680  125.7190   57.7530 C   0  0  0  0  0  0  0  0  0  0  0  0
  128.3010  125.1300   56.8760 O   0  0  0  0  0  0  0  0  0  0  0  0
  126.9310  127.0100   57.3630 C   0  0  0  0  0  0  0  0  0  0  0  0
  127.4170  128.1170   58.1330 O   0  0  0  0  0  0  0  0  0  0  0  0
  127.6740  127.9700   59.4890 C   0  0  0  0  0  0  0  0  0  0  0  0
  128.8030  127.3030   59.8580 N   0  0  0  0  0  0  0  0  0  0  0  0
  129.0830  127.1260   61.1760 C   0  0  0  0  0  0  0  0  0  0  0  0
  130.3470  126.3830   61.5000 C   0  0  0  0  0  0  0  0  0  0  0  0
  130.6810  126.0690   62.8250 C   0  0  0  0  0  0  0  0  0  0  0  0
  131.8530  125.3830   63.1280 C   0  0  0  0  0  0  0  0  0  0  0  0
  132.7270  124.9870   62.1180 C   0  0  0  0  0  0  0  0  0  0  0  0
  133.8660  124.3120   62.5120 O   0  0  0  0  0  0  0  0  0  0  0  0
  134.2320  123.1140   61.8350 C   0  0  0  0  0  0  0  0  0  0  0  0
  132.4050  125.2890   60.7880 C   0  0  0  0  0  0  0  0  0  0  0  0
  131.2310  125.9750   60.4880 C   0  0  0  0  0  0  0  0  0  0  0  0
  128.2310  127.6400   62.1610 C   0  0  0  0  0  0  0  0  0  0  0  0
  127.0680  128.3390   61.8090 C   0  0  0  0  0  0  0  0  0  0  0  0
  126.2070  128.8700   62.9060 C   0  0  0  0  0  0  0  0  0  0  0  0
  126.2240  128.2670   64.1680 C   0  0  0  0  0  0  0  0  0  0  0  0
  125.4310  128.7630   65.1990 C   0  0  0  0  0  0  0  0  0  0  0  0
  124.6110  129.8720   64.9940 C   0  0  0  0  0  0  0  0  0  0  0  0
  123.8600  130.2930   66.0740 O   0  0  0  0  0  0  0  0  0  0  0  0
  123.8390  129.5020   67.2560 C   0  0  0  0  0  0  0  0  0  0  0  0
  124.5970  130.4850   63.7320 C   0  0  0  0  0  0  0  0  0  0  0  0
  125.3900  129.9870   62.7010 C   0  0  0  0  0  0  0  0  0  0  0  0
  126.7790  128.4990   60.4330 C   0  0  0  0  0  0  0  0  0  0  0  0
  125.5670  129.1760   59.9700 C   0  0  0  0  0  0  0  0  0  0  0  0
  124.6090  129.7110   59.6010 N   0  0  0  0  0  0  0  0  0  0  0  0
  127.5070  123.8230   60.8820 C   0  0  0  0  0  0  0  0  0  0  0  0
  127.9740  122.7320   61.6090 C   0  0  0  0  0  0  0  0  0  0  0  0
  131.6487  117.8791   60.5112 H   0  0  0  0  0  0  0  0  0  0  0  0
  130.1021  117.4298   59.7157 H   0  0  0  0  0  0  0  0  0  0  0  0
  130.6481  119.1411   59.7157 H   0  0  0  0  0  0  0  0  0  0  0  0
  129.2197  117.5869   61.8224 H   0  0  0  0  0  0  0  0  0  0  0  0
  130.6016  118.5605   62.4297 H   0  0  0  0  0  0  0  0  0  0  0  0
  130.5578  121.7970   59.5864 H   0  0  0  0  0  0  0  0  0  0  0  0
  129.7276  123.7485   58.2906 H   0  0  0  0  0  0  0  0  0  0  0  0
  127.0040  125.8970   59.6400 H   0  0  0  0  0  0  0  0  0  0  0  0
  127.0956  127.2122   56.2943 H   0  0  0  0  0  0  0  0  0  0  0  0
  125.8571  126.8812   57.5632 H   0  0  0  0  0  0  0  0  0  0  0  0
  130.0050  126.3701   63.6388 H   0  0  0  0  0  0  0  0  0  0  0  0
  132.0920  125.1508   64.1763 H   0  0  0  0  0  0  0  0  0  0  0  0
  134.4703  122.3339   62.5730 H   0  0  0  0  0  0  0  0  0  0  0  0
  133.3953  122.7789   61.2045 H   0  0  0  0  0  0  0  0  0  0  0  0
  135.1132  123.3037   61.2045 H   0  0  0  0  0  0  0  0  0  0  0  0
  133.0827  124.9828   59.9774 H   0  0  0  0  0  0  0  0  0  0  0  0
  130.9915  126.2016   59.4386 H   0  0  0  0  0  0  0  0  0  0  0  0
  128.4770  127.4937   63.2231 H   0  0  0  0  0  0  0  0  0  0  0  0
  126.8690  127.3941   64.3471 H   0  0  0  0  0  0  0  0  0  0  0  0
  125.4514  128.2754   66.1848 H   0  0  0  0  0  0  0  0  0  0  0  0
  123.8565  130.1596   68.1376 H   0  0  0  0  0  0  0  0  0  0  0  0
  122.9243  128.8912   67.2722 H   0  0  0  0  0  0  0  0  0  0  0  0
  124.7200  128.8435   67.2722 H   0  0  0  0  0  0  0  0  0  0  0  0
  123.9572  131.3624   63.5562 H   0  0  0  0  0  0  0  0  0  0  0  0
  125.3738  130.4766   61.7161 H   0  0  0  0  0  0  0  0  0  0  0  0
  126.6438  124.3962   61.2512 H   0  0  0  0  0  0  0  0  0  0  0  0
  127.4757  122.4495   62.5481 H   0  0  0  0  0  0  0  0  0  0  0  0
  1  2  1  0
  2  3  1  0
  3  4  1  0
  4  5  2  0
  4  6  1  0
  6  7  2  0
  7  8  1  0
  8  9  2  0
  9 10  1  0
 10 11  1  0
 11 12  2  0
 11 13  1  0
 13 14  1  0
 14 15  1  0
 15 16  2  0
 16 17  1  0
 17 18  1  0
 18 19  2  0
 19 20  1  0
 20 21  2  0
 21 22  1  0
 22 23  1  0
 21 24  1  0
 24 25  2  0
 17 26  2  0
 26 27  1  0
 27 28  1  0
 28 29  2  0
 29 30  1  0
 30 31  2  0
 31 32  1  0
 32 33  1  0
 31 34  1  0
 34 35  2  0
 27 36  2  0
 36 37  1  0
 37 38  3  0
  9 39  1  0
 39 40  2  0
 40  6  1  0
 36 15  1  0
 25 18  1  0
 35 28  1  0
  1 41  1  0
  1 42  1  0
  1 43  1  0
  2 44  1  0
  2 45  1  0
  7 46  1  0
  8 47  1  0
 10 48  1  0
 13 49  1  0
 13 50  1  0
 19 51  1  0
 20 52  1  0
 23 53  1  0
 23 54  1  0
 23 55  1  0
 24 56  1  0
 25 57  1  0
 26 58  1  0
 29 59  1  0
 30 60  1  0
 33 61  1  0
 33 62  1  0
 33 63  1  0
 34 64  1  0
 35 65  1  0
 39 66  1  0
 40 67  1  0
M  END
>  <Binding energies>  (1) 
[-6.87]

>  <Ligand effiencies>  (1) 
[-0.1675609756097561]

>  <Interactions>  (1) 
["V-A:ARG:545:CZ:4926, V-B:PRO:540:CA:9855, V-B:GLU:543:CD:9880, V-A:ILE:369:CD1:3239, V-B:TYR:539:CE2:9848, H-B:ALA:541:N:9863, V-B:ASP:366:CG:8185, V-A:PRO:482:CG:4327, V-A:PRO:482:CB:4326, V-B:TYR:539:CB:9843, V-A:LEU:475:CD2:4259, H-A:TYR:484:OH:4348, V-B:TYR:539:CD2:9846, V-A:LEU:475:CD1:4258, V-A:LEU:475:CG:4257, V-B:ALA:541:CB:9864, V-B:HIS:456:CE1:9042, V-B:ARG:545:CZ:9898, H-B:TYR:484:OH:9320, V-A:GLU:543:CD:4908, V-B:TYR:484:CZ:9319, H-B:GLY:454:N:9022, V-B:GLY:454:CA:9021, V-A:GLY:454:CA:4049, H-A:GLY:454:N:4050, V-A:ASP:366:CG:3213, V-A:GLY:453:C:4042, H-B:ASP:366:OD2:8187, V-A:TYR:484:CE1:4345, V-B:ASP:366:CB:8184, V-B:MET:535:CE:9807, V-B:ARG:545:CG:9894, V-B:ARG:545:CD:9895, V-B:TYR:484:CE1:9317, V-B:ILE:455:C:9024, V-B:ARG:545:CB:9893, H-B:ILE:455:N:9027"]

$$$$
1b_Ghoteimi_2023
     RDKit          3D

 54 57  0  0  0  0  0  0  0  0999 V2000
  123.9470  129.4990   66.8890 C   0  0  0  0  0  0  0  0  0  0  0  0
  123.8610  129.8800   65.5210 O   0  0  0  0  0  0  0  0  0  0  0  0
  124.8210  129.4300   64.6350 C   0  0  0  0  0  0  0  0  0  0  0  0
  124.5300  129.5620   63.2790 C   0  0  0  0  0  0  0  0  0  0  0  0
  125.4380  129.1360   62.3130 C   0  0  0  0  0  0  0  0  0  0  0  0
  126.6670  128.5660   62.6760 C   0  0  0  0  0  0  0  0  0  0  0  0
  127.6440  128.1050   61.6300 C   0  0  0  0  0  0  0  0  0  0  0  0
  128.6560  127.1750   61.8920 C   0  0  0  0  0  0  0  0  0  0  0  0
  129.5390  126.7750   60.8800 C   0  0  0  0  0  0  0  0  0  0  0  0
  130.5980  125.7830   61.2330 C   0  0  0  0  0  0  0  0  0  0  0  0
  131.6230  126.1300   62.1180 C   0  0  0  0  0  0  0  0  0  0  0  0
  132.6180  125.2120   62.4430 C   0  0  0  0  0  0  0  0  0  0  0  0
  132.6100  123.9320   61.8870 C   0  0  0  0  0  0  0  0  0  0  0  0
  133.6370  123.0890   62.2670 O   0  0  0  0  0  0  0  0  0  0  0  0
  133.9330  121.9510   61.4640 C   0  0  0  0  0  0  0  0  0  0  0  0
  131.5880  123.5830   60.9920 C   0  0  0  0  0  0  0  0  0  0  0  0
  130.5960  124.5030   60.6690 C   0  0  0  0  0  0  0  0  0  0  0  0
  129.3740  127.3240   59.5850 C   0  0  0  0  0  0  0  0  0  0  0  0
  130.2090  126.8670   58.4710 C   0  0  0  0  0  0  0  0  0  0  0  0
  130.8690  126.5050   57.5910 N   0  0  0  0  0  0  0  0  0  0  0  0
  128.3450  128.2730   59.3940 C   0  0  0  0  0  0  0  0  0  0  0  0
  127.9960  129.0720   57.8410 S   0  0  0  0  0  0  0  0  0  0  0  0
  127.9660  130.8730   58.1300 C   0  0  0  0  0  0  0  0  0  0  0  0
  129.2520  131.4560   58.7330 C   0  0  0  0  0  0  0  0  0  0  0  0
  129.8450  132.3830   58.1770 O   0  0  0  0  0  0  0  0  0  0  0  0
  129.6490  130.8710   59.8860 N   0  0  0  0  0  0  0  0  0  0  0  0
  130.7660  131.1900   60.6490 C   0  0  0  0  0  0  0  0  0  0  0  0
  132.0720  130.9510   60.2250 C   0  0  0  0  0  0  0  0  0  0  0  0
  132.8700  131.4030   61.2510 C   0  0  0  0  0  0  0  0  0  0  0  0
  132.0850  131.8910   62.2410 O   0  0  0  0  0  0  0  0  0  0  0  0
  130.7530  131.7510   61.8480 N   0  0  0  0  0  0  0  0  0  0  0  0
  127.4960  128.6320   60.3870 N   0  0  0  0  0  0  0  0  0  0  0  0
  126.9490  128.4360   64.0450 C   0  0  0  0  0  0  0  0  0  0  0  0
  126.0440  128.8600   65.0130 C   0  0  0  0  0  0  0  0  0  0  0  0
  123.7496  130.3736   67.5263 H   0  0  0  0  0  0  0  0  0  0  0  0
  123.2028  128.7167   67.0992 H   0  0  0  0  0  0  0  0  0  0  0  0
  124.9551  129.1122   67.0992 H   0  0  0  0  0  0  0  0  0  0  0  0
  123.5733  130.0072   62.9683 H   0  0  0  0  0  0  0  0  0  0  0  0
  125.1873  129.2484   61.2479 H   0  0  0  0  0  0  0  0  0  0  0  0
  128.7596  126.7535   62.9027 H   0  0  0  0  0  0  0  0  0  0  0  0
  131.6436  127.1365   62.5612 H   0  0  0  0  0  0  0  0  0  0  0  0
  133.4166  125.4978   63.1434 H   0  0  0  0  0  0  0  0  0  0  0  0
  134.1564  121.0919   62.1137 H   0  0  0  0  0  0  0  0  0  0  0  0
  133.0664  121.7149   60.8290 H   0  0  0  0  0  0  0  0  0  0  0  0
  134.8048  122.1671   60.8290 H   0  0  0  0  0  0  0  0  0  0  0  0
  131.5709  122.5785   60.5441 H   0  0  0  0  0  0  0  0  0  0  0  0
  129.8015  124.2209   59.9625 H   0  0  0  0  0  0  0  0  0  0  0  0
  127.7857  131.3702   57.1655 H   0  0  0  0  0  0  0  0  0  0  0  0
  127.1716  131.0520   58.8695 H   0  0  0  0  0  0  0  0  0  0  0  0
  129.0730  130.1270   60.2490 H   0  0  0  0  0  0  0  0  0  0  0  0
  132.3950  130.4989   59.2756 H   0  0  0  0  0  0  0  0  0  0  0  0
  133.9695  131.3728   61.2649 H   0  0  0  0  0  0  0  0  0  0  0  0
  127.9044  127.9901   64.3587 H   0  0  0  0  0  0  0  0  0  0  0  0
  126.2896  128.7473   66.0793 H   0  0  0  0  0  0  0  0  0  0  0  0
  1  2  1  0
  2  3  1  0
  3  4  2  0
  4  5  1  0
  5  6  2  0
  6  7  1  0
  7  8  2  0
  8  9  1  0
  9 10  1  0
 10 11  2  0
 11 12  1  0
 12 13  2  0
 13 14  1  0
 14 15  1  0
 13 16  1  0
 16 17  2  0
  9 18  2  0
 18 19  1  0
 19 20  3  0
 18 21  1  0
 21 22  1  0
 22 23  1  0
 23 24  1  0
 24 25  2  0
 24 26  1  0
 26 27  1  0
 27 28  1  0
 28 29  2  0
 29 30  1  0
 30 31  1  0
 21 32  2  0
  6 33  1  0
 33 34  2  0
 34  3  1  0
 32  7  1  0
 17 10  1  0
 31 27  2  0
  1 35  1  0
  1 36  1  0
  1 37  1  0
  4 38  1  0
  5 39  1  0
  8 40  1  0
 11 41  1  0
 12 42  1  0
 15 43  1  0
 15 44  1  0
 15 45  1  0
 16 46  1  0
 17 47  1  0
 23 48  1  0
 23 49  1  0
 26 50  1  0
 28 51  1  0
 29 52  1  0
 33 53  1  0
 34 54  1  0
M  END
>  <Binding energies>  (1) 
[-7.23]

>  <Ligand effiencies>  (1) 
[-0.20657142857142857]

>  <Interactions>  (1) 
["V-A:ARG:545:CZ:4926, V-B:GLU:543:CD:9880, V-A:ILE:369:CD1:3239, V-A:LEU:475:CD2:4259, H-A:TYR:484:OH:4348, V-B:HIS:456:CE1:9042, V-B:ARG:545:CZ:9898, H-B:TYR:484:OH:9320, V-B:TYR:484:CZ:9319, H-B:GLY:454:N:9022, V-A:GLY:454:CA:4049, H-A:GLY:454:N:4050, V-A:ILE:369:CG2:3237, V-A:PRO:540:CA:4883, V-A:PRO:540:CB:4885, V-B:ARG:545:CG:9894, H-A:ALA:541:N:4891, V-A:ASN:362:CB:3176, V-B:ARG:545:CD:9895, V-B:TYR:484:CE1:9317"]

$$$$
1b_Grossjean_2025
     RDKit          3D

 42 43  0  0  0  0  0  0  0  0999 V2000
  132.4540  125.6610   64.2830 C   0  0  0  0  0  0  0  0  0  0  0  0
  133.4880  124.7910   63.8410 O   0  0  0  0  0  0  0  0  0  0  0  0
  133.9380  124.8350   62.5610 C   0  0  0  0  0  0  0  0  0  0  0  0
  135.1270  124.9800   62.2620 O   0  0  0  0  0  0  0  0  0  0  0  0
  132.8440  124.6830   61.5430 C   0  0  0  0  0  0  0  0  0  0  0  0
  131.9720  125.7350   61.2270 C   0  0  0  0  0  0  0  0  0  0  0  0
  130.9690  125.5610   60.2780 C   0  0  0  0  0  0  0  0  0  0  0  0
  130.8140  124.3370   59.6270 C   0  0  0  0  0  0  0  0  0  0  0  0
  129.7660  124.2740   58.6890 N   0  0  0  0  0  0  0  0  0  0  0  0
  129.3450  125.1910   57.7910 C   0  0  0  0  0  0  0  0  0  0  0  0
  129.8390  126.3060   57.6230 O   0  0  0  0  0  0  0  0  0  0  0  0
  128.1610  124.7630   56.9240 C   0  0  0  0  0  0  0  0  0  0  0  0
  127.5600  123.1020   57.3540 S   0  0  0  0  0  0  0  0  0  0  0  0
  127.0820  123.1390   59.0680 C   0  0  0  0  0  0  0  0  0  0  0  0
  128.0630  122.7460   59.9180 N   0  0  0  0  0  0  0  0  0  0  0  0
  127.8070  122.7370   61.2470 C   0  0  0  0  0  0  0  0  0  0  0  0
  128.9560  122.3000   62.1380 C   0  0  0  0  0  0  0  0  0  0  0  0
  126.5720  123.1050   61.7780 C   0  0  0  0  0  0  0  0  0  0  0  0
  125.5470  123.4900   60.9080 C   0  0  0  0  0  0  0  0  0  0  0  0
  124.1970  123.8740   61.5110 C   0  0  0  0  0  0  0  0  0  0  0  0
  125.7910  123.5070   59.5160 C   0  0  0  0  0  0  0  0  0  0  0  0
  124.7200  123.8650   58.5830 C   0  0  0  0  0  0  0  0  0  0  0  0
  123.8720  124.1480   57.8490 N   0  0  0  0  0  0  0  0  0  0  0  0
  131.6830  123.2790   59.9370 C   0  0  0  0  0  0  0  0  0  0  0  0
  132.6860  123.4550   60.8850 C   0  0  0  0  0  0  0  0  0  0  0  0
  132.4340  125.6778   65.3827 H   0  0  0  0  0  0  0  0  0  0  0  0
  132.6422  126.6764   63.9041 H   0  0  0  0  0  0  0  0  0  0  0  0
  131.4857  125.3019   63.9041 H   0  0  0  0  0  0  0  0  0  0  0  0
  132.0817  126.7054   61.7333 H   0  0  0  0  0  0  0  0  0  0  0  0
  130.2930  126.3953   60.0393 H   0  0  0  0  0  0  0  0  0  0  0  0
  129.2490  123.4070   58.7110 H   0  0  0  0  0  0  0  0  0  0  0  0
  127.3414  125.4833   57.0631 H   0  0  0  0  0  0  0  0  0  0  0  0
  128.4997  124.7392   55.8777 H   0  0  0  0  0  0  0  0  0  0  0  0
  128.6646  122.4108   63.1929 H   0  0  0  0  0  0  0  0  0  0  0  0
  129.1987  121.2468   61.9333 H   0  0  0  0  0  0  0  0  0  0  0  0
  129.8372  122.9258   61.9333 H   0  0  0  0  0  0  0  0  0  0  0  0
  126.4060  123.0928   62.8653 H   0  0  0  0  0  0  0  0  0  0  0  0
  124.2667  123.8542   62.6086 H   0  0  0  0  0  0  0  0  0  0  0  0
  123.9218  124.8860   61.1793 H   0  0  0  0  0  0  0  0  0  0  0  0
  123.4304  123.1583   61.1793 H   0  0  0  0  0  0  0  0  0  0  0  0
  131.5708  122.3094   59.4297 H   0  0  0  0  0  0  0  0  0  0  0  0
  133.3631  122.6208   61.1211 H   0  0  0  0  0  0  0  0  0  0  0  0
  1  2  1  0
  2  3  1  0
  3  4  2  0
  3  5  1  0
  5  6  2  0
  6  7  1  0
  7  8  2  0
  8  9  1  0
  9 10  1  0
 10 11  2  0
 10 12  1  0
 12 13  1  0
 13 14  1  0
 14 15  2  0
 15 16  1  0
 16 17  1  0
 16 18  2  0
 18 19  1  0
 19 20  1  0
 19 21  2  0
 21 22  1  0
 22 23  3  0
  8 24  1  0
 24 25  2  0
 25  5  1  0
 21 14  1  0
  1 26  1  0
  1 27  1  0
  1 28  1  0
  6 29  1  0
  7 30  1  0
  9 31  1  0
 12 32  1  0
 12 33  1  0
 17 34  1  0
 17 35  1  0
 17 36  1  0
 18 37  1  0
 20 38  1  0
 20 39  1  0
 20 40  1  0
 24 41  1  0
 25 42  1  0
M  END
>  <Binding energies>  (1) 
[-6.45]

>  <Ligand effiencies>  (1) 
[-0.24807692307692308]

>  <Interactions>  (1) 
["V-B:PRO:540:CB:9857, V-A:ARG:545:CZ:4926, V-B:TYR:539:C:9839, V-B:PRO:540:CA:9855, V-B:PRO:540:N:9856, V-B:GLU:543:CD:9880, V-A:TYR:484:CZ:4347, V-B:TYR:539:CE2:9848, V-B:PRO:540:C:9853, V-B:ASP:366:CG:8185, H-A:TYR:484:OH:4348, V-B:TYR:539:CD2:9846, V-B:ALA:541:CB:9864, V-B:ARG:545:CZ:9898, V-A:GLU:543:CD:4908, H-A:ARG:545:NH1:4927, H-A:GLY:454:N:4050, H-A:ARG:545:NH2:4928, V-A:ASP:366:CG:3213, H-A:ARG:545:NE:4924, V-A:GLY:453:CA:4044, V-A:GLY:453:C:4042, H-B:TYR:531:OH:9767, V-B:TYR:539:CZ:9849, V-B:MET:535:CE:9807, V-B:ASN:362:CB:8148, V-B:ASN:362:C:8144"]

$$$$
1c_Ghoteimi_2023
     RDKit          3D

 54 57  0  0  0  0  0  0  0  0999 V2000
  124.0570  129.5080   66.4600 C   0  0  0  0  0  0  0  0  0  0  0  0
  124.2410  129.9010   65.1040 O   0  0  0  0  0  0  0  0  0  0  0  0
  125.2760  129.3480   64.3750 C   0  0  0  0  0  0  0  0  0  0  0  0
  125.0740  129.2150   63.0040 C   0  0  0  0  0  0  0  0  0  0  0  0
  126.0620  128.6650   62.1920 C   0  0  0  0  0  0  0  0  0  0  0  0
  127.2830  128.2300   62.7290 C   0  0  0  0  0  0  0  0  0  0  0  0
  128.3500  127.6310   61.8580 C   0  0  0  0  0  0  0  0  0  0  0  0
  128.6680  126.2690   61.8800 C   0  0  0  0  0  0  0  0  0  0  0  0
  129.6530  125.7520   61.0290 C   0  0  0  0  0  0  0  0  0  0  0  0
  129.8930  124.2790   61.0580 C   0  0  0  0  0  0  0  0  0  0  0  0
  131.1250  123.7680   61.4760 C   0  0  0  0  0  0  0  0  0  0  0  0
  131.3550  122.3960   61.4820 C   0  0  0  0  0  0  0  0  0  0  0  0
  130.3620  121.5100   61.0650 C   0  0  0  0  0  0  0  0  0  0  0  0
  130.6780  120.1650   61.1040 O   0  0  0  0  0  0  0  0  0  0  0  0
  129.7380  119.2460   61.6510 C   0  0  0  0  0  0  0  0  0  0  0  0
  129.1260  122.0200   60.6370 C   0  0  0  0  0  0  0  0  0  0  0  0
  128.8990  123.3930   60.6330 C   0  0  0  0  0  0  0  0  0  0  0  0
  130.3370  126.6450   60.1700 C   0  0  0  0  0  0  0  0  0  0  0  0
  131.4020  126.1720   59.2790 C   0  0  0  0  0  0  0  0  0  0  0  0
  132.2410  125.7970   58.5760 N   0  0  0  0  0  0  0  0  0  0  0  0
  129.9540  128.0020   60.1870 C   0  0  0  0  0  0  0  0  0  0  0  0
  130.6080  129.2000   59.0450 S   0  0  0  0  0  0  0  0  0  0  0  0
  131.7060  130.2510   60.0500 C   0  0  0  0  0  0  0  0  0  0  0  0
  130.9290  131.0980   61.0630 C   0  0  0  0  0  0  0  0  0  0  0  0
  131.5430  131.7720   61.8910 O   0  0  0  0  0  0  0  0  0  0  0  0
  129.5840  131.0640   60.9300 N   0  0  0  0  0  0  0  0  0  0  0  0
  128.6650  131.8480   61.6100 C   0  0  0  0  0  0  0  0  0  0  0  0
  127.8430  132.7450   61.1100 N   0  0  0  0  0  0  0  0  0  0  0  0
  127.0770  133.2730   62.0450 C   0  0  0  0  0  0  0  0  0  0  0  0
  127.2710  132.7990   63.3390 C   0  0  0  0  0  0  0  0  0  0  0  0
  128.5290  131.5990   63.3200 S   0  0  0  0  0  0  0  0  0  0  0  0
  128.9820  128.4770   61.0020 N   0  0  0  0  0  0  0  0  0  0  0  0
  127.4780  128.3740   64.1110 C   0  0  0  0  0  0  0  0  0  0  0  0
  126.4930  128.9210   64.9260 C   0  0  0  0  0  0  0  0  0  0  0  0
  124.4284  130.3013   67.1253 H   0  0  0  0  0  0  0  0  0  0  0  0
  122.9868  129.3403   66.6512 H   0  0  0  0  0  0  0  0  0  0  0  0
  124.6136  128.5787   66.6512 H   0  0  0  0  0  0  0  0  0  0  0  0
  124.1250  129.5476   62.5582 H   0  0  0  0  0  0  0  0  0  0  0  0
  125.8823  128.5698   61.1110 H   0  0  0  0  0  0  0  0  0  0  0  0
  128.1393  125.5974   62.5724 H   0  0  0  0  0  0  0  0  0  0  0  0
  131.9187  124.4559   61.8027 H   0  0  0  0  0  0  0  0  0  0  0  0
  132.3275  122.0070   61.8182 H   0  0  0  0  0  0  0  0  0  0  0  0
  129.7808  119.2879   62.7494 H   0  0  0  0  0  0  0  0  0  0  0  0
  128.7256  119.5123   61.3131 H   0  0  0  0  0  0  0  0  0  0  0  0
  129.9814  118.2279   61.3131 H   0  0  0  0  0  0  0  0  0  0  0  0
  128.3347  121.3323   60.3039 H   0  0  0  0  0  0  0  0  0  0  0  0
  127.9290  123.7843   60.2925 H   0  0  0  0  0  0  0  0  0  0  0  0
  132.4120  129.6068   60.5945 H   0  0  0  0  0  0  0  0  0  0  0  0
  132.2323  130.9368   59.3698 H   0  0  0  0  0  0  0  0  0  0  0  0
  129.2040  130.4630   60.2150 H   0  0  0  0  0  0  0  0  0  0  0  0
  126.3273  134.0443   61.8150 H   0  0  0  0  0  0  0  0  0  0  0  0
  126.7177  133.1302   64.2301 H   0  0  0  0  0  0  0  0  0  0  0  0
  128.4285  128.0479   64.5584 H   0  0  0  0  0  0  0  0  0  0  0  0
  126.6691  129.0192   66.0074 H   0  0  0  0  0  0  0  0  0  0  0  0
  1  2  1  0
  2  3  1  0
  3  4  2  0
  4  5  1  0
  5  6  2  0
  6  7  1  0
  7  8  2  0
  8  9  1  0
  9 10  1  0
 10 11  2  0
 11 12  1  0
 12 13  2  0
 13 14  1  0
 14 15  1  0
 13 16  1  0
 16 17  2  0
  9 18  2  0
 18 19  1  0
 19 20  3  0
 18 21  1  0
 21 22  1  0
 22 23  1  0
 23 24  1  0
 24 25  2  0
 24 26  1  0
 26 27  1  0
 27 28  2  0
 28 29  1  0
 29 30  2  0
 30 31  1  0
 21 32  2  0
  6 33  1  0
 33 34  2  0
 34  3  1  0
 32  7  1  0
 17 10  1  0
 31 27  1  0
  1 35  1  0
  1 36  1  0
  1 37  1  0
  4 38  1  0
  5 39  1  0
  8 40  1  0
 11 41  1  0
 12 42  1  0
 15 43  1  0
 15 44  1  0
 15 45  1  0
 16 46  1  0
 17 47  1  0
 23 48  1  0
 23 49  1  0
 26 50  1  0
 29 51  1  0
 30 52  1  0
 33 53  1  0
 34 54  1  0
M  END
>  <Binding energies>  (1) 
[-6.81]

>  <Ligand effiencies>  (1) 
[-0.19457142857142856]

>  <Interactions>  (1) 
["V-B:GLU:543:CD:9880, V-A:PRO:482:CB:4326, V-A:LEU:475:CD2:4259, V-B:TYR:539:CD2:9846, V-A:LEU:475:CD1:4258, V-A:LEU:475:CG:4257, V-B:ALA:541:CB:9864, V-B:HIS:456:CE1:9042, V-B:ARG:545:CZ:9898, H-B:TYR:484:OH:9320, V-A:GLU:543:CD:4908, V-A:GLU:543:CG:4907, V-B:TYR:484:CZ:9319, H-B:GLY:454:N:9022, V-B:LEU:475:CD2:9231, V-A:ASP:366:CG:3213, V-B:ARG:545:CG:9894, H-A:ALA:541:N:4891, V-A:ALA:541:CB:4892, V-B:ARG:545:CD:9895, V-B:TYR:484:CE1:9317, V-B:TYR:484:CE2:9318"]

$$$$
1c_Grossjean_2025
     RDKit          3D

 40 41  0  0  0  0  0  0  0  0999 V2000
  133.5280  125.0040   65.1360 C   0  0  0  0  0  0  0  0  0  0  0  0
  133.9670  125.0000   63.7820 O   0  0  0  0  0  0  0  0  0  0  0  0
  133.0280  124.9740   62.7690 C   0  0  0  0  0  0  0  0  0  0  0  0
  133.4270  124.3950   61.5650 C   0  0  0  0  0  0  0  0  0  0  0  0
  132.5510  124.3210   60.4860 C   0  0  0  0  0  0  0  0  0  0  0  0
  131.2480  124.8260   60.6050 C   0  0  0  0  0  0  0  0  0  0  0  0
  130.2860  124.8120   59.5760 N   0  0  0  0  0  0  0  0  0  0  0  0
  130.4580  124.9190   58.2410 C   0  0  0  0  0  0  0  0  0  0  0  0
  131.5400  125.0360   57.6670 O   0  0  0  0  0  0  0  0  0  0  0  0
  129.1740  124.8810   57.4100 C   0  0  0  0  0  0  0  0  0  0  0  0
  128.3130  123.2880   57.5670 S   0  0  0  0  0  0  0  0  0  0  0  0
  127.7550  123.1140   59.2500 C   0  0  0  0  0  0  0  0  0  0  0  0
  128.7020  122.6140   60.0830 N   0  0  0  0  0  0  0  0  0  0  0  0
  128.3920  122.4360   61.3890 C   0  0  0  0  0  0  0  0  0  0  0  0
  129.5040  121.8840   62.2610 C   0  0  0  0  0  0  0  0  0  0  0  0
  127.1370  122.7370   61.9110 C   0  0  0  0  0  0  0  0  0  0  0  0
  126.1450  123.2290   61.0570 C   0  0  0  0  0  0  0  0  0  0  0  0
  124.7710  123.5350   61.6490 C   0  0  0  0  0  0  0  0  0  0  0  0
  126.4450  123.4210   59.6880 C   0  0  0  0  0  0  0  0  0  0  0  0
  125.4040  123.8840   58.7670 C   0  0  0  0  0  0  0  0  0  0  0  0
  124.5810  124.2500   58.0410 N   0  0  0  0  0  0  0  0  0  0  0  0
  130.8480  125.4160   61.8050 C   0  0  0  0  0  0  0  0  0  0  0  0
  131.7270  125.4890   62.8820 C   0  0  0  0  0  0  0  0  0  0  0  0
  134.4014  124.9960   65.8047 H   0  0  0  0  0  0  0  0  0  0  0  0
  132.9299  125.9076   65.3249 H   0  0  0  0  0  0  0  0  0  0  0  0
  132.9135  124.1114   65.3249 H   0  0  0  0  0  0  0  0  0  0  0  0
  134.4458  123.9921   61.4668 H   0  0  0  0  0  0  0  0  0  0  0  0
  132.8806  123.8665   59.5400 H   0  0  0  0  0  0  0  0  0  0  0  0
  129.3420  124.6500   59.8920 H   0  0  0  0  0  0  0  0  0  0  0  0
  128.5040  125.6829   57.7536 H   0  0  0  0  0  0  0  0  0  0  0  0
  129.4472  125.0185   56.3534 H   0  0  0  0  0  0  0  0  0  0  0  0
  129.2388  122.0156   63.3204 H   0  0  0  0  0  0  0  0  0  0  0  0
  129.6404  120.8136   62.0474 H   0  0  0  0  0  0  0  0  0  0  0  0
  130.4391  122.4225   62.0474 H   0  0  0  0  0  0  0  0  0  0  0  0
  126.9285  122.5898   62.9810 H   0  0  0  0  0  0  0  0  0  0  0  0
  124.8335  123.5211   62.7471 H   0  0  0  0  0  0  0  0  0  0  0  0
  124.4401  124.5288   61.3132 H   0  0  0  0  0  0  0  0  0  0  0  0
  124.0496  122.7755   61.3132 H   0  0  0  0  0  0  0  0  0  0  0  0
  129.8317  125.8259   61.9003 H   0  0  0  0  0  0  0  0  0  0  0  0
  131.4009  125.9519   63.8251 H   0  0  0  0  0  0  0  0  0  0  0  0
  1  2  1  0
  2  3  1  0
  3  4  2  0
  4  5  1  0
  5  6  2  0
  6  7  1  0
  7  8  1  0
  8  9  2  0
  8 10  1  0
 10 11  1  0
 11 12  1  0
 12 13  2  0
 13 14  1  0
 14 15  1  0
 14 16  2  0
 16 17  1  0
 17 18  1  0
 17 19  2  0
 19 20  1  0
 20 21  3  0
  6 22  1  0
 22 23  2  0
 23  3  1  0
 19 12  1  0
  1 24  1  0
  1 25  1  0
  1 26  1  0
  4 27  1  0
  5 28  1  0
  7 29  1  0
 10 30  1  0
 10 31  1  0
 15 32  1  0
 15 33  1  0
 15 34  1  0
 16 35  1  0
 18 36  1  0
 18 37  1  0
 18 38  1  0
 22 39  1  0
 23 40  1  0
M  END
>  <Binding energies>  (1) 
[-6.4]

>  <Ligand effiencies>  (1) 
[-0.26666666666666666]

>  <Interactions>  (1) 
["V-A:ARG:545:CD:4923, V-B:PRO:540:CB:9857, V-A:ARG:545:CZ:4926, V-B:TYR:539:C:9839, V-B:PRO:540:CA:9855, V-B:PRO:540:N:9856, V-B:GLU:543:CD:9880, V-A:TYR:484:CZ:4347, V-A:TYR:484:CE2:4346, V-B:TYR:539:CE2:9848, V-B:PRO:540:C:9853, H-A:TYR:484:OH:4348, V-B:ALA:541:CB:9864, H-A:ARG:545:NH1:4927, V-A:GLY:454:CA:4049, H-A:GLY:454:N:4050, H-A:ARG:545:NH2:4928, H-A:ARG:545:NE:4924, V-A:TYR:484:CE1:4345, H-B:TYR:531:OH:9767, V-B:TYR:539:CZ:9849, V-B:ASN:362:CB:8148, H-B:TYR:539:OH:9850"]

$$$$
1d_Ghoteimi_2023
     RDKit          3D

 50 52  0  0  0  0  0  0  0  0999 V2000
  123.9810  123.8560   57.8870 C   0  0  0  0  0  0  0  0  0  0  0  0
  125.3120  124.0450   57.4320 O   0  0  0  0  0  0  0  0  0  0  0  0
  126.2100  123.0400   57.5040 C   0  0  0  0  0  0  0  0  0  0  0  0
  126.2470  122.0430   56.7820 O   0  0  0  0  0  0  0  0  0  0  0  0
  127.2290  123.2520   58.6210 C   0  0  0  0  0  0  0  0  0  0  0  0
  126.3030  123.5140   60.1630 S   0  0  0  0  0  0  0  0  0  0  0  0
  127.2020  124.7220   61.1120 C   0  0  0  0  0  0  0  0  0  0  0  0
  126.5160  125.8700   61.3250 N   0  0  0  0  0  0  0  0  0  0  0  0
  127.0860  126.8790   62.0310 C   0  0  0  0  0  0  0  0  0  0  0  0
  126.2560  128.1150   62.2270 C   0  0  0  0  0  0  0  0  0  0  0  0
  126.0860  128.6840   63.4990 C   0  0  0  0  0  0  0  0  0  0  0  0
  125.3110  129.8250   63.6800 C   0  0  0  0  0  0  0  0  0  0  0  0
  124.6810  130.4330   62.5970 C   0  0  0  0  0  0  0  0  0  0  0  0
  123.9290  131.5600   62.8700 O   0  0  0  0  0  0  0  0  0  0  0  0
  124.1230  132.7300   62.0830 C   0  0  0  0  0  0  0  0  0  0  0  0
  124.8400  129.8760   61.3200 C   0  0  0  0  0  0  0  0  0  0  0  0
  125.6170  128.7350   61.1440 C   0  0  0  0  0  0  0  0  0  0  0  0
  128.3780  126.7420   62.5540 C   0  0  0  0  0  0  0  0  0  0  0  0
  129.1160  125.5720   62.3360 C   0  0  0  0  0  0  0  0  0  0  0  0
  130.4910  125.4960   62.9160 C   0  0  0  0  0  0  0  0  0  0  0  0
  130.6950  125.7350   64.2790 C   0  0  0  0  0  0  0  0  0  0  0  0
  131.9730  125.6650   64.8260 C   0  0  0  0  0  0  0  0  0  0  0  0
  133.0710  125.3510   64.0260 C   0  0  0  0  0  0  0  0  0  0  0  0
  134.3010  125.3120   64.6530 O   0  0  0  0  0  0  0  0  0  0  0  0
  134.3650  125.0060   66.0410 C   0  0  0  0  0  0  0  0  0  0  0  0
  132.8700  125.0980   62.6600 C   0  0  0  0  0  0  0  0  0  0  0  0
  131.5910  125.1670   62.1160 C   0  0  0  0  0  0  0  0  0  0  0  0
  128.5240  124.5330   61.5750 C   0  0  0  0  0  0  0  0  0  0  0  0
  129.2890  123.3310   61.2280 C   0  0  0  0  0  0  0  0  0  0  0  0
  129.8930  122.3830   60.9550 N   0  0  0  0  0  0  0  0  0  0  0  0
  123.9663  123.8539   58.9869 H   0  0  0  0  0  0  0  0  0  0  0  0
  123.3463  124.6730   57.5134 H   0  0  0  0  0  0  0  0  0  0  0  0
  123.5988  122.8946   57.5134 H   0  0  0  0  0  0  0  0  0  0  0  0
  127.8726  122.3650   58.7155 H   0  0  0  0  0  0  0  0  0  0  0  0
  127.8695  124.1190   58.4017 H   0  0  0  0  0  0  0  0  0  0  0  0
  126.5744  128.2193   64.3682 H   0  0  0  0  0  0  0  0  0  0  0  0
  125.1948  130.2508   64.6876 H   0  0  0  0  0  0  0  0  0  0  0  0
  124.2668  133.5971   62.7444 H   0  0  0  0  0  0  0  0  0  0  0  0
  125.0121  132.6016   61.4482 H   0  0  0  0  0  0  0  0  0  0  0  0
  123.2400  132.8955   61.4482 H   0  0  0  0  0  0  0  0  0  0  0  0
  124.3485  130.3429   60.4537 H   0  0  0  0  0  0  0  0  0  0  0  0
  125.7321  128.3113   60.1354 H   0  0  0  0  0  0  0  0  0  0  0  0
  128.8173  127.5615   63.1418 H   0  0  0  0  0  0  0  0  0  0  0  0
  129.8383  125.9803   64.9239 H   0  0  0  0  0  0  0  0  0  0  0  0
  132.1181  125.8591   65.8990 H   0  0  0  0  0  0  0  0  0  0  0  0
  134.1744  125.9175   66.6266 H   0  0  0  0  0  0  0  0  0  0  0  0
  133.6059  124.2481   66.2848 H   0  0  0  0  0  0  0  0  0  0  0  0
  135.3642  124.6158   66.2848 H   0  0  0  0  0  0  0  0  0  0  0  0
  133.7261  124.8444   62.0176 H   0  0  0  0  0  0  0  0  0  0  0  0
  131.4431  124.9607   61.0457 H   0  0  0  0  0  0  0  0  0  0  0  0
  1  2  1  0
  2  3  1  0
  3  4  2  0
  3  5  1  0
  5  6  1  0
  6  7  1  0
  7  8  2  0
  8  9  1  0
  9 10  1  0
 10 11  2  0
 11 12  1  0
 12 13  2  0
 13 14  1  0
 14 15  1  0
 13 16  1  0
 16 17  2  0
  9 18  2  0
 18 19  1  0
 19 20  1  0
 20 21  2  0
 21 22  1  0
 22 23  2  0
 23 24  1  0
 24 25  1  0
 23 26  1  0
 26 27  2  0
 19 28  2  0
 28 29  1  0
 29 30  3  0
 28  7  1  0
 17 10  1  0
 27 20  1  0
  1 31  1  0
  1 32  1  0
  1 33  1  0
  5 34  1  0
  5 35  1  0
 11 36  1  0
 12 37  1  0
 15 38  1  0
 15 39  1  0
 15 40  1  0
 16 41  1  0
 17 42  1  0
 18 43  1  0
 21 44  1  0
 22 45  1  0
 25 46  1  0
 25 47  1  0
 25 48  1  0
 26 49  1  0
 27 50  1  0
M  END
>  <Binding energies>  (1) 
[-6.97]

>  <Ligand effiencies>  (1) 
[-0.23233333333333334]

>  <Interactions>  (1) 
["V-B:LEU:363:CD1:8161, V-A:ARG:545:CD:4923, V-B:PRO:540:CB:9857, V-A:ARG:545:CZ:4926, V-B:TYR:539:C:9839, V-B:PRO:540:CA:9855, V-B:PRO:540:N:9856, V-B:GLU:543:CD:9880, V-A:TYR:484:CZ:4347, V-A:TYR:484:CE2:4346, V-A:ARG:545:CG:4922, V-B:ASP:366:CG:8185, V-B:ARG:545:CZ:9898, V-A:GLU:543:CD:4908, V-B:ILE:369:CD1:8211, H-B:GLY:454:N:9022, V-B:LEU:475:CD2:9231, V-B:GLY:454:CA:9021, H-A:ARG:545:NH1:4927, V-A:GLY:454:CA:4049, H-A:GLY:454:N:4050, H-A:ARG:545:NH2:4928, H-A:ARG:545:NE:4924, V-A:GLY:453:CA:4044, V-A:GLY:453:C:4042, V-B:TYR:531:CE2:9765, V-B:TYR:531:CZ:9766, H-B:TYR:531:OH:9767, H-B:ARG:545:NH2:9900, H-B:TYR:539:N:9842, V-A:GLY:454:C:4047, V-A:ILE:455:C:4052, V-B:LEU:363:CA:8157"]

$$$$
1d_Grossjean_2025
     RDKit          3D

 36 37  0  0  0  0  0  0  0  0999 V2000
  128.1070  123.9570   59.5260 C   0  0  0  0  0  0  0  0  0  0  0  0
  129.3290  124.2330   60.3790 C   0  0  0  0  0  0  0  0  0  0  0  0
  129.2270  124.8560   61.6210 C   0  0  0  0  0  0  0  0  0  0  0  0
  130.3880  125.0770   62.3690 C   0  0  0  0  0  0  0  0  0  0  0  0
  130.2490  125.7480   63.7350 C   0  0  0  0  0  0  0  0  0  0  0  0
  131.6370  124.6690   61.8450 C   0  0  0  0  0  0  0  0  0  0  0  0
  132.8590  124.8460   62.6310 C   0  0  0  0  0  0  0  0  0  0  0  0
  133.8240  124.9870   63.2550 N   0  0  0  0  0  0  0  0  0  0  0  0
  131.6490  124.0660   60.5650 C   0  0  0  0  0  0  0  0  0  0  0  0
  133.1260  123.4960   59.7540 S   0  0  0  0  0  0  0  0  0  0  0  0
  133.5720  121.8980   60.5000 C   0  0  0  0  0  0  0  0  0  0  0  0
  132.4330  120.8810   60.4090 C   0  0  0  0  0  0  0  0  0  0  0  0
  131.3230  121.1820   60.8490 O   0  0  0  0  0  0  0  0  0  0  0  0
  132.7480  119.7120   59.8110 N   0  0  0  0  0  0  0  0  0  0  0  0
  131.9530  118.5730   59.5830 C   0  0  0  0  0  0  0  0  0  0  0  0
  130.9140  118.3670   60.4940 C   0  0  0  0  0  0  0  0  0  0  0  0
  130.0650  117.2720   60.3570 C   0  0  0  0  0  0  0  0  0  0  0  0
  130.2500  116.3840   59.3010 C   0  0  0  0  0  0  0  0  0  0  0  0
  131.2770  116.5820   58.3810 C   0  0  0  0  0  0  0  0  0  0  0  0
  132.1280  117.6750   58.5160 C   0  0  0  0  0  0  0  0  0  0  0  0
  130.5140  123.8380   59.8560 N   0  0  0  0  0  0  0  0  0  0  0  0
  127.2420  123.7616   60.1769 H   0  0  0  0  0  0  0  0  0  0  0  0
  127.8982  124.8306   58.8910 H   0  0  0  0  0  0  0  0  0  0  0  0
  128.2939  123.0784   58.8910 H   0  0  0  0  0  0  0  0  0  0  0  0
  128.2464  125.1699   62.0082 H   0  0  0  0  0  0  0  0  0  0  0  0
  130.4037  125.0013   64.5278 H   0  0  0  0  0  0  0  0  0  0  0  0
  131.0011  126.5450   63.8302 H   0  0  0  0  0  0  0  0  0  0  0  0
  129.2422  126.1807   63.8302 H   0  0  0  0  0  0  0  0  0  0  0  0
  134.4503  121.4945   59.9748 H   0  0  0  0  0  0  0  0  0  0  0  0
  133.7872  122.0703   61.5649 H   0  0  0  0  0  0  0  0  0  0  0  0
  133.6900  119.6340   59.4580 H   0  0  0  0  0  0  0  0  0  0  0  0
  130.7659  119.0736   61.3239 H   0  0  0  0  0  0  0  0  0  0  0  0
  129.2519  117.1094   61.0798 H   0  0  0  0  0  0  0  0  0  0  0  0
  129.5796  115.5187   59.1922 H   0  0  0  0  0  0  0  0  0  0  0  0
  131.4152  115.8757   57.5491 H   0  0  0  0  0  0  0  0  0  0  0  0
  132.9369  117.8359   57.7882 H   0  0  0  0  0  0  0  0  0  0  0  0
  1  2  1  0
  2  3  2  0
  3  4  1  0
  4  5  1  0
  4  6  2  0
  6  7  1  0
  7  8  3  0
  6  9  1  0
  9 10  1  0
 10 11  1  0
 11 12  1  0
 12 13  2  0
 12 14  1  0
 14 15  1  0
 15 16  2  0
 16 17  1  0
 17 18  2  0
 18 19  1  0
 19 20  2  0
  9 21  2  0
 21  2  1  0
 20 15  1  0
  1 22  1  0
  1 23  1  0
  1 24  1  0
  3 25  1  0
  5 26  1  0
  5 27  1  0
  5 28  1  0
 11 29  1  0
 11 30  1  0
 14 31  1  0
 16 32  1  0
 17 33  1  0
 18 34  1  0
 19 35  1  0
 20 36  1  0
M  END
>  <Binding energies>  (1) 
[-6.83]

>  <Ligand effiencies>  (1) 
[-0.3104545454545455]

>  <Interactions>  (1) 
["V-A:ARG:545:CZ:4926, V-B:TYR:539:C:9839, V-B:GLU:543:CD:9880, V-A:ILE:369:CD1:3239, V-B:TYR:539:CE2:9848, V-A:SER:385:CB:3409, V-B:VAL:344:CG1:7973, V-A:HIS:383:CE1:3394, V-A:PRO:482:CG:4327, V-A:PRO:482:CB:4326, V-B:TYR:539:CB:9843, V-A:LEU:475:CD2:4259, H-A:TYR:484:OH:4348, V-B:TYR:539:CD2:9846, V-A:LEU:373:CD1:3280, V-A:LEU:373:CD2:3281, V-A:GLU:543:CD:4908, H-A:ARG:545:NH1:4927, H-A:GLY:454:N:4050, V-A:ILE:369:CG2:3237, H-A:ARG:545:NH2:4928, H-A:ARG:545:NE:4924, V-B:TYR:539:CG:9844, V-A:SER:385:CA:3407, H-A:SER:385:O:3406"]

$$$$
1e_Grossjean_2025
     RDKit          3D

 38 39  0  0  0  0  0  0  0  0999 V2000
  126.4810  123.0620   57.6290 C   0  0  0  0  0  0  0  0  0  0  0  0
  127.1900  123.0910   58.9700 C   0  0  0  0  0  0  0  0  0  0  0  0
  126.5410  123.5200   60.1310 C   0  0  0  0  0  0  0  0  0  0  0  0
  127.2580  123.5220   61.3280 C   0  0  0  0  0  0  0  0  0  0  0  0
  128.5900  123.1020   61.3370 C   0  0  0  0  0  0  0  0  0  0  0  0
  129.1780  122.6800   60.1380 C   0  0  0  0  0  0  0  0  0  0  0  0
  130.5240  122.2810   60.2070 N   0  0  0  0  0  0  0  0  0  0  0  0
  131.1580  121.6330   61.2090 C   0  0  0  0  0  0  0  0  0  0  0  0
  130.6350  121.2850   62.2690 O   0  0  0  0  0  0  0  0  0  0  0  0
  132.6460  121.3530   60.9840 C   0  0  0  0  0  0  0  0  0  0  0  0
  133.5960  122.8830   60.7350 S   0  0  0  0  0  0  0  0  0  0  0  0
  132.8230  124.1920   61.6640 C   0  0  0  0  0  0  0  0  0  0  0  0
  133.2440  124.2590   62.9530 N   0  0  0  0  0  0  0  0  0  0  0  0
  132.7240  125.2140   63.7600 C   0  0  0  0  0  0  0  0  0  0  0  0
  133.2480  125.2330   65.1830 C   0  0  0  0  0  0  0  0  0  0  0  0
  131.7640  126.1250   63.3240 C   0  0  0  0  0  0  0  0  0  0  0  0
  131.3050  126.0490   62.0050 C   0  0  0  0  0  0  0  0  0  0  0  0
  130.2390  127.0480   61.5580 C   0  0  0  0  0  0  0  0  0  0  0  0
  131.8310  125.0580   61.1450 C   0  0  0  0  0  0  0  0  0  0  0  0
  131.3190  124.9280   59.7790 C   0  0  0  0  0  0  0  0  0  0  0  0
  130.9120  124.8270   58.7000 N   0  0  0  0  0  0  0  0  0  0  0  0
  128.4830  122.6800   58.9620 N   0  0  0  0  0  0  0  0  0  0  0  0
  125.3938  123.0175   57.7900 H   0  0  0  0  0  0  0  0  0  0  0  0
  126.7309  123.9711   57.0624 H   0  0  0  0  0  0  0  0  0  0  0  0
  126.8043  122.1763   57.0624 H   0  0  0  0  0  0  0  0  0  0  0  0
  125.4914  123.8478   60.1019 H   0  0  0  0  0  0  0  0  0  0  0  0
  126.7765  123.8528   62.2601 H   0  0  0  0  0  0  0  0  0  0  0  0
  129.1689  123.1027   62.2723 H   0  0  0  0  0  0  0  0  0  0  0  0
  131.0910  122.5670   59.4220 H   0  0  0  0  0  0  0  0  0  0  0  0
  133.0452  120.8260   61.8631 H   0  0  0  0  0  0  0  0  0  0  0  0
  132.7432  120.7406   60.0754 H   0  0  0  0  0  0  0  0  0  0  0  0
  132.4022  125.2023   65.8856 H   0  0  0  0  0  0  0  0  0  0  0  0
  133.8935  124.3577   65.3478 H   0  0  0  0  0  0  0  0  0  0  0  0
  133.8284  126.1528   65.3478 H   0  0  0  0  0  0  0  0  0  0  0  0
  131.3727  126.8930   64.0074 H   0  0  0  0  0  0  0  0  0  0  0  0
  129.7618  127.4952   62.4424 H   0  0  0  0  0  0  0  0  0  0  0  0
  130.7080  127.8394   60.9549 H   0  0  0  0  0  0  0  0  0  0  0  0
  129.4797  126.5287   60.9549 H   0  0  0  0  0  0  0  0  0  0  0  0
  1  2  1  0
  2  3  2  0
  3  4  1  0
  4  5  2  0
  5  6  1  0
  6  7  1  0
  7  8  1  0
  8  9  2  0
  8 10  1  0
 10 11  1  0
 11 12  1  0
 12 13  2  0
 13 14  1  0
 14 15  1  0
 14 16  2  0
 16 17  1  0
 17 18  1  0
 17 19  2  0
 19 20  1  0
 20 21  3  0
  6 22  2  0
 22  2  1  0
 19 12  1  0
  1 23  1  0
  1 24  1  0
  1 25  1  0
  3 26  1  0
  4 27  1  0
  5 28  1  0
  7 29  1  0
 10 30  1  0
 10 31  1  0
 15 32  1  0
 15 33  1  0
 15 34  1  0
 16 35  1  0
 18 36  1  0
 18 37  1  0
 18 38  1  0
M  END
>  <Binding energies>  (1) 
[-6.65]

>  <Ligand effiencies>  (1) 
[-0.2891304347826087]

>  <Interactions>  (1) 
["V-A:ARG:545:CD:4923, V-B:PRO:540:CB:9857, V-A:ARG:545:CZ:4926, V-B:TYR:539:C:9839, V-B:PRO:540:CA:9855, V-B:PRO:540:N:9856, V-A:TYR:484:CZ:4347, V-A:TYR:484:CE2:4346, V-B:TYR:539:CE2:9848, V-A:LEU:475:CD2:4259, H-A:TYR:484:OH:4348, V-B:TYR:539:CD2:9846, V-A:GLU:543:CD:4908, H-A:GLY:454:N:4050"]

$$$$
1f_Grossjean_2025
     RDKit          3D

 35 36  0  0  0  0  0  0  0  0999 V2000
  129.8230  124.9960   57.0530 C   0  0  0  0  0  0  0  0  0  0  0  0
  130.6350  124.8270   58.3230 C   0  0  0  0  0  0  0  0  0  0  0  0
  132.0140  124.6370   58.2880 C   0  0  0  0  0  0  0  0  0  0  0  0
  132.7080  124.4750   59.4920 C   0  0  0  0  0  0  0  0  0  0  0  0
  134.2170  124.2500   59.4260 C   0  0  0  0  0  0  0  0  0  0  0  0
  131.9960  124.5160   60.7120 C   0  0  0  0  0  0  0  0  0  0  0  0
  132.6970  124.2920   61.9790 C   0  0  0  0  0  0  0  0  0  0  0  0
  133.2520  124.1160   62.9790 N   0  0  0  0  0  0  0  0  0  0  0  0
  130.6000  124.7420   60.6550 C   0  0  0  0  0  0  0  0  0  0  0  0
  129.5400  124.8250   62.0840 S   0  0  0  0  0  0  0  0  0  0  0  0
  128.6770  123.2260   62.2560 C   0  0  0  0  0  0  0  0  0  0  0  0
  127.4640  123.0430   61.3320 C   0  0  0  0  0  0  0  0  0  0  0  0
  126.3630  122.7450   61.7980 O   0  0  0  0  0  0  0  0  0  0  0  0
  127.7290  123.2080   60.0180 N   0  0  0  0  0  0  0  0  0  0  0  0
  126.8650  123.1230   58.9100 C   0  0  0  0  0  0  0  0  0  0  0  0
  125.5500  123.6210   58.8560 C   0  0  0  0  0  0  0  0  0  0  0  0
  124.8020  123.4710   57.6850 C   0  0  0  0  0  0  0  0  0  0  0  0
  125.3890  122.8290   56.5940 C   0  0  0  0  0  0  0  0  0  0  0  0
  126.6560  122.3450   56.6190 N   0  0  0  0  0  0  0  0  0  0  0  0
  127.3700  122.4990   57.7640 C   0  0  0  0  0  0  0  0  0  0  0  0
  129.9330  124.8730   59.4800 N   0  0  0  0  0  0  0  0  0  0  0  0
  128.7766  125.2138   57.3131 H   0  0  0  0  0  0  0  0  0  0  0  0
  130.2348  125.8277   56.4625 H   0  0  0  0  0  0  0  0  0  0  0  0
  129.8688  124.0691   56.4625 H   0  0  0  0  0  0  0  0  0  0  0  0
  132.5500  124.6146   57.3277 H   0  0  0  0  0  0  0  0  0  0  0  0
  134.6236  124.1894   60.4463 H   0  0  0  0  0  0  0  0  0  0  0  0
  134.4247  123.3110   58.8921 H   0  0  0  0  0  0  0  0  0  0  0  0
  134.6896  125.0876   58.8921 H   0  0  0  0  0  0  0  0  0  0  0  0
  129.3972  122.4238   62.0373 H   0  0  0  0  0  0  0  0  0  0  0  0
  128.2887  123.1942   63.2847 H   0  0  0  0  0  0  0  0  0  0  0  0
  128.6900  123.4090   59.7810 H   0  0  0  0  0  0  0  0  0  0  0  0
  125.1133  124.1255   59.7305 H   0  0  0  0  0  0  0  0  0  0  0  0
  123.7716  123.8513   57.6246 H   0  0  0  0  0  0  0  0  0  0  0  0
  124.7986  122.7102   55.6735 H   0  0  0  0  0  0  0  0  0  0  0  0
  128.3996  122.1128   57.7919 H   0  0  0  0  0  0  0  0  0  0  0  0
  1  2  1  0
  2  3  2  0
  3  4  1  0
  4  5  1  0
  4  6  2  0
  6  7  1  0
  7  8  3  0
  6  9  1  0
  9 10  1  0
 10 11  1  0
 11 12  1  0
 12 13  2  0
 12 14  1  0
 14 15  1  0
 15 16  2  0
 16 17  1  0
 17 18  2  0
 18 19  1  0
 19 20  2  0
  9 21  2  0
 21  2  1  0
 20 15  1  0
  1 22  1  0
  1 23  1  0
  1 24  1  0
  3 25  1  0
  5 26  1  0
  5 27  1  0
  5 28  1  0
 11 29  1  0
 11 30  1  0
 14 31  1  0
 16 32  1  0
 17 33  1  0
 18 34  1  0
 20 35  1  0
M  END
>  <Binding energies>  (1) 
[-6.92]

>  <Ligand effiencies>  (1) 
[-0.3145454545454545]

>  <Interactions>  (1) 
["V-B:PRO:540:CD:9859, V-B:LEU:363:CD1:8161, V-B:PRO:540:CB:9857, V-B:TYR:539:C:9839, V-B:PRO:540:CA:9855, V-B:PRO:540:N:9856, V-B:GLU:543:CD:9880, V-A:ILE:369:CD1:3239, V-B:TYR:539:CE2:9848, H-B:ALA:541:N:9863, H-A:TYR:484:OH:4348, V-B:TYR:539:CA:9841, V-B:TYR:539:CD2:9846, H-A:GLY:454:N:4050, V-A:ILE:369:CG2:3237, V-A:ASP:366:CG:3213, V-A:ASP:366:CB:3212, V-A:ILE:369:CB:3236, V-A:ASP:366:CA:3210, V-B:TYR:539:CG:9844, V-A:ILE:369:CG1:3238, V-B:TYR:539:CZ:9849, V-B:MET:535:CE:9807, H-B:TYR:539:N:9842"]

$$$$
1g_Grossjean_2025
     RDKit          3D

 39 40  0  0  0  0  0  0  0  0999 V2000
  133.6080  124.9990   64.9130 C   0  0  0  0  0  0  0  0  0  0  0  0
  132.8650  125.0130   63.5900 C   0  0  0  0  0  0  0  0  0  0  0  0
  131.8540  125.9370   63.3310 C   0  0  0  0  0  0  0  0  0  0  0  0
  131.1930  125.8930   62.0990 C   0  0  0  0  0  0  0  0  0  0  0  0
  130.0780  126.9060   61.8430 C   0  0  0  0  0  0  0  0  0  0  0  0
  131.5700  124.9200   61.1460 C   0  0  0  0  0  0  0  0  0  0  0  0
  130.8570  124.8200   59.8700 C   0  0  0  0  0  0  0  0  0  0  0  0
  130.2910  124.7440   58.8640 N   0  0  0  0  0  0  0  0  0  0  0  0
  132.6240  124.0380   61.4850 C   0  0  0  0  0  0  0  0  0  0  0  0
  133.2320  122.7630   60.4040 S   0  0  0  0  0  0  0  0  0  0  0  0
  132.2660  121.2610   60.7430 C   0  0  0  0  0  0  0  0  0  0  0  0
  130.8850  121.5860   61.3160 C   0  0  0  0  0  0  0  0  0  0  0  0
  130.6000  121.2510   62.4660 O   0  0  0  0  0  0  0  0  0  0  0  0
  130.0390  122.2340   60.4970 N   0  0  0  0  0  0  0  0  0  0  0  0
  128.6960  122.6920   60.8540 C   0  0  0  0  0  0  0  0  0  0  0  0
  127.7600  122.8810   59.6650 C   0  0  0  0  0  0  0  0  0  0  0  0
  128.1260  122.3960   58.4050 C   0  0  0  0  0  0  0  0  0  0  0  0
  127.2710  122.5680   57.3190 C   0  0  0  0  0  0  0  0  0  0  0  0
  126.0510  123.2180   57.4980 C   0  0  0  0  0  0  0  0  0  0  0  0
  125.6780  123.6980   58.7510 C   0  0  0  0  0  0  0  0  0  0  0  0
  126.5330  123.5290   59.8370 C   0  0  0  0  0  0  0  0  0  0  0  0
  133.2450  124.0750   62.6910 N   0  0  0  0  0  0  0  0  0  0  0  0
  132.8835  125.0127   65.7406 H   0  0  0  0  0  0  0  0  0  0  0  0
  134.2226  124.0891   64.9787 H   0  0  0  0  0  0  0  0  0  0  0  0
  134.2565  125.8851   64.9787 H   0  0  0  0  0  0  0  0  0  0  0  0
  131.5799  126.6900   64.0846 H   0  0  0  0  0  0  0  0  0  0  0  0
  129.6819  127.2659   62.8040 H   0  0  0  0  0  0  0  0  0  0  0  0
  130.4787  127.7554   61.2704 H   0  0  0  0  0  0  0  0  0  0  0  0
  129.2708  126.4259   61.2704 H   0  0  0  0  0  0  0  0  0  0  0  0
  132.1386  120.7012   59.8047 H   0  0  0  0  0  0  0  0  0  0  0  0
  132.8127  120.6662   61.4896 H   0  0  0  0  0  0  0  0  0  0  0  0
  130.3630  122.4890   59.5750 H   0  0  0  0  0  0  0  0  0  0  0  0
  128.2476  121.9497   61.5307 H   0  0  0  0  0  0  0  0  0  0  0  0
  128.8145  123.6806   61.3215 H   0  0  0  0  0  0  0  0  0  0  0  0
  129.0880  121.8794   58.2720 H   0  0  0  0  0  0  0  0  0  0  0  0
  127.5570  122.1929   56.3253 H   0  0  0  0  0  0  0  0  0  0  0  0
  125.3756  123.3533   56.6404 H   0  0  0  0  0  0  0  0  0  0  0  0
  124.7124  124.2083   58.8822 H   0  0  0  0  0  0  0  0  0  0  0  0
  126.2434  123.9050   60.8294 H   0  0  0  0  0  0  0  0  0  0  0  0
  1  2  1  0
  2  3  2  0
  3  4  1  0
  4  5  1  0
  4  6  2  0
  6  7  1  0
  7  8  3  0
  6  9  1  0
  9 10  1  0
 10 11  1  0
 11 12  1  0
 12 13  2  0
 12 14  1  0
 14 15  1  0
 15 16  1  0
 16 17  2  0
 17 18  1  0
 18 19  2  0
 19 20  1  0
 20 21  2  0
  9 22  2  0
 22  2  1  0
 21 16  1  0
  1 23  1  0
  1 24  1  0
  1 25  1  0
  3 26  1  0
  5 27  1  0
  5 28  1  0
  5 29  1  0
 11 30  1  0
 11 31  1  0
 14 32  1  0
 15 33  1  0
 15 34  1  0
 17 35  1  0
 18 36  1  0
 19 37  1  0
 20 38  1  0
 21 39  1  0
M  END
>  <Binding energies>  (1) 
[-6.72]

>  <Ligand effiencies>  (1) 
[-0.29217391304347823]

>  <Interactions>  (1) 
["V-A:ARG:545:CD:4923, V-B:PRO:540:CB:9857, V-A:ARG:545:CZ:4926, V-B:TYR:539:C:9839, V-B:PRO:540:CA:9855, V-B:PRO:540:N:9856, V-A:TYR:484:CZ:4347, V-A:TYR:484:CE2:4346, V-B:TYR:539:CE2:9848, V-A:LEU:475:CD2:4259, H-A:TYR:484:OH:4348, V-B:TYR:539:CA:9841, V-B:TYR:539:CD2:9846, V-A:GLU:543:CD:4908, V-A:GLY:454:CA:4049, H-A:GLY:454:N:4050, V-A:GLY:453:C:4042, V-B:TYR:539:CG:9844"]

$$$$
1h_Grossjean_2025
     RDKit          3D

 51 52  0  0  0  0  0  0  0  0999 V2000
  132.1250  125.3060   61.6800 C   0  0  0  0  0  0  0  0  0  0  0  0
  131.7210  124.4230   60.6390 O   0  0  0  0  0  0  0  0  0  0  0  0
  130.9330  123.3290   60.9460 C   0  0  0  0  0  0  0  0  0  0  0  0
  129.7010  123.4120   61.6140 C   0  0  0  0  0  0  0  0  0  0  0  0
  128.9650  122.2620   61.9030 C   0  0  0  0  0  0  0  0  0  0  0  0
  127.6180  122.3690   62.6100 C   0  0  0  0  0  0  0  0  0  0  0  0
  126.5710  122.9980   61.8040 N   0  0  0  0  0  0  0  0  0  0  0  0
  125.2820  123.1250   62.1670 C   0  0  0  0  0  0  0  0  0  0  0  0
  124.8360  122.7430   63.2480 O   0  0  0  0  0  0  0  0  0  0  0  0
  124.3500  123.7810   61.1480 C   0  0  0  0  0  0  0  0  0  0  0  0
  124.9050  123.5030   59.4390 S   0  0  0  0  0  0  0  0  0  0  0  0
  126.4400  124.3840   59.2050 C   0  0  0  0  0  0  0  0  0  0  0  0
  126.7270  125.3260   60.1400 N   0  0  0  0  0  0  0  0  0  0  0  0
  127.8780  126.0290   60.0250 C   0  0  0  0  0  0  0  0  0  0  0  0
  128.1310  127.0600   61.1100 C   0  0  0  0  0  0  0  0  0  0  0  0
  128.7820  125.8270   58.9850 C   0  0  0  0  0  0  0  0  0  0  0  0
  128.4970  124.8610   58.0140 C   0  0  0  0  0  0  0  0  0  0  0  0
  129.5020  124.6550   56.8830 C   0  0  0  0  0  0  0  0  0  0  0  0
  127.3000  124.1150   58.1150 C   0  0  0  0  0  0  0  0  0  0  0  0
  126.9740  123.0990   57.1110 C   0  0  0  0  0  0  0  0  0  0  0  0
  126.7160  122.2960   56.3180 N   0  0  0  0  0  0  0  0  0  0  0  0
  129.4420  121.0180   61.4900 C   0  0  0  0  0  0  0  0  0  0  0  0
  130.6680  120.9050   60.8140 C   0  0  0  0  0  0  0  0  0  0  0  0
  131.2020  119.7060   60.3780 O   0  0  0  0  0  0  0  0  0  0  0  0
  130.5330  118.4880   60.6890 C   0  0  0  0  0  0  0  0  0  0  0  0
  131.4090  122.0680   60.5580 C   0  0  0  0  0  0  0  0  0  0  0  0
  132.6070  121.9740   59.8930 O   0  0  0  0  0  0  0  0  0  0  0  0
  133.7350  121.8390   60.7470 C   0  0  0  0  0  0  0  0  0  0  0  0
  131.9135  124.8438   62.6555 H   0  0  0  0  0  0  0  0  0  0  0  0
  133.2035  125.5046   61.5944 H   0  0  0  0  0  0  0  0  0  0  0  0
  131.5701  126.2519   61.5944 H   0  0  0  0  0  0  0  0  0  0  0  0
  129.3108  124.3959   61.9134 H   0  0  0  0  0  0  0  0  0  0  0  0
  127.2863  121.3549   62.8775 H   0  0  0  0  0  0  0  0  0  0  0  0
  127.7707  123.0108   63.4902 H   0  0  0  0  0  0  0  0  0  0  0  0
  126.8500  123.3270   60.8910 H   0  0  0  0  0  0  0  0  0  0  0  0
  123.3410  123.3593   61.2667 H   0  0  0  0  0  0  0  0  0  0  0  0
  124.3527  124.8652   61.3339 H   0  0  0  0  0  0  0  0  0  0  0  0
  128.0154  126.5891   62.0974 H   0  0  0  0  0  0  0  0  0  0  0  0
  129.1527  127.4550   61.0094 H   0  0  0  0  0  0  0  0  0  0  0  0
  127.4082  127.8831   61.0094 H   0  0  0  0  0  0  0  0  0  0  0  0
  129.7074  126.4189   58.9278 H   0  0  0  0  0  0  0  0  0  0  0  0
  130.4958  124.4513   57.3082 H   0  0  0  0  0  0  0  0  0  0  0  0
  129.1867  123.8028   56.2630 H   0  0  0  0  0  0  0  0  0  0  0  0
  129.5474  125.5625   56.2630 H   0  0  0  0  0  0  0  0  0  0  0  0
  128.8504  120.1139   61.6964 H   0  0  0  0  0  0  0  0  0  0  0  0
  130.4698  118.3729   61.7811 H   0  0  0  0  0  0  0  0  0  0  0  0
  129.5190  118.5075   60.2631 H   0  0  0  0  0  0  0  0  0  0  0  0
  131.0934  117.6427   60.2631 H   0  0  0  0  0  0  0  0  0  0  0  0
  133.4073  121.8782   61.7963 H   0  0  0  0  0  0  0  0  0  0  0  0
  134.2287  120.8754   60.5528 H   0  0  0  0  0  0  0  0  0  0  0  0
  134.4421  122.6589   60.5528 H   0  0  0  0  0  0  0  0  0  0  0  0
  1  2  1  0
  2  3  1  0
  3  4  2  0
  4  5  1  0
  5  6  1  0
  6  7  1  0
  7  8  1  0
  8  9  2  0
  8 10  1  0
 10 11  1  0
 11 12  1  0
 12 13  2  0
 13 14  1  0
 14 15  1  0
 14 16  2  0
 16 17  1  0
 17 18  1  0
 17 19  2  0
 19 20  1  0
 20 21  3  0
  5 22  2  0
 22 23  1  0
 23 24  1  0
 24 25  1  0
 23 26  2  0
 26 27  1  0
 27 28  1  0
 26  3  1  0
 19 12  1  0
  1 29  1  0
  1 30  1  0
  1 31  1  0
  4 32  1  0
  6 33  1  0
  6 34  1  0
  7 35  1  0
 10 36  1  0
 10 37  1  0
 15 38  1  0
 15 39  1  0
 15 40  1  0
 16 41  1  0
 18 42  1  0
 18 43  1  0
 18 44  1  0
 22 45  1  0
 25 46  1  0
 25 47  1  0
 25 48  1  0
 28 49  1  0
 28 50  1  0
 28 51  1  0
M  END
>  <Binding energies>  (1) 
[-6.29]

>  <Ligand effiencies>  (1) 
[-0.21689655172413794]

>  <Interactions>  (1) 
["V-B:PRO:540:CB:9857, V-B:PRO:540:CA:9855, V-B:PRO:540:N:9856, V-B:GLU:543:CD:9880, V-A:ILE:369:CD1:3239, V-B:TYR:539:CE2:9848, V-B:PRO:540:C:9853, H-B:ALA:541:N:9863, V-B:ASP:366:CG:8185, V-A:LEU:475:CD2:4259, V-B:ALA:541:CA:9862, V-B:TYR:539:CD2:9846, V-B:ALA:541:CB:9864, V-A:ILE:369:CG2:3237, V-B:GLU:543:CG:9879, V-B:TYR:539:CZ:9849, V-B:TYR:539:CE1:9847, V-B:MET:535:CE:9807, H-B:ARG:545:NH2:9900, V-B:ASN:362:CB:8148, H-B:TYR:539:N:9842, H-B:ASN:362:ND2:8151"]

$$$$
1i_Grossjean_2025
     RDKit          3D

 32 33  0  0  0  0  0  0  0  0999 V2000
  128.7730  128.1060   67.1440 C   0  0  0  0  0  0  0  0  0  0  0  0
  127.6280  128.5510   66.2540 C   0  0  0  0  0  0  0  0  0  0  0  0
  126.3330  128.6940   66.7480 C   0  0  0  0  0  0  0  0  0  0  0  0
  125.3180  129.1180   65.8830 C   0  0  0  0  0  0  0  0  0  0  0  0
  123.9100  129.2830   66.4520 C   0  0  0  0  0  0  0  0  0  0  0  0
  125.6300  129.3840   64.5300 C   0  0  0  0  0  0  0  0  0  0  0  0
  124.5930  129.8770   63.6190 C   0  0  0  0  0  0  0  0  0  0  0  0
  123.7730  130.2670   62.9020 N   0  0  0  0  0  0  0  0  0  0  0  0
  126.9670  129.1880   64.1100 C   0  0  0  0  0  0  0  0  0  0  0  0
  127.5330  129.4740   62.4480 S   0  0  0  0  0  0  0  0  0  0  0  0
  127.4430  131.2620   62.1350 C   0  0  0  0  0  0  0  0  0  0  0  0
  128.7870  131.8350   61.6790 C   0  0  0  0  0  0  0  0  0  0  0  0
  128.8370  132.9880   61.2480 O   0  0  0  0  0  0  0  0  0  0  0  0
  129.8450  131.0020   61.7940 N   0  0  0  0  0  0  0  0  0  0  0  0
  131.1630  131.2650   61.4520 C   0  0  0  0  0  0  0  0  0  0  0  0
  131.6900  130.9970   60.1900 C   0  0  0  0  0  0  0  0  0  0  0  0
  133.0050  131.3940   60.2580 C   0  0  0  0  0  0  0  0  0  0  0  0
  133.2580  131.8750   61.4980 O   0  0  0  0  0  0  0  0  0  0  0  0
  132.0830  131.7860   62.2470 N   0  0  0  0  0  0  0  0  0  0  0  0
  127.9480  128.7960   64.9620 N   0  0  0  0  0  0  0  0  0  0  0  0
  128.4826  128.2189   68.1990 H   0  0  0  0  0  0  0  0  0  0  0  0
  129.0080  127.0511   66.9392 H   0  0  0  0  0  0  0  0  0  0  0  0
  129.6587  128.7254   66.9392 H   0  0  0  0  0  0  0  0  0  0  0  0
  126.1116  128.4766   67.8033 H   0  0  0  0  0  0  0  0  0  0  0  0
  123.9557  129.2776   67.5510 H   0  0  0  0  0  0  0  0  0  0  0  0
  123.4847  130.2371   66.1074 H   0  0  0  0  0  0  0  0  0  0  0  0
  123.2757  128.4530   66.1074 H   0  0  0  0  0  0  0  0  0  0  0  0
  126.6940  131.4476   61.3511 H   0  0  0  0  0  0  0  0  0  0  0  0
  127.1657  131.7573   63.0772 H   0  0  0  0  0  0  0  0  0  0  0  0
  129.6640  130.0680   62.1360 H   0  0  0  0  0  0  0  0  0  0  0  0
  131.1669  130.5617   59.3257 H   0  0  0  0  0  0  0  0  0  0  0  0
  133.7341  131.3309   59.4368 H   0  0  0  0  0  0  0  0  0  0  0  0
  1  2  1  0
  2  3  2  0
  3  4  1  0
  4  5  1  0
  4  6  2  0
  6  7  1  0
  7  8  3  0
  6  9  1  0
  9 10  1  0
 10 11  1  0
 11 12  1  0
 12 13  2  0
 12 14  1  0
 14 15  1  0
 15 16  1  0
 16 17  2  0
 17 18  1  0
 18 19  1  0
  9 20  2  0
 20  2  1  0
 19 15  2  0
  1 21  1  0
  1 22  1  0
  1 23  1  0
  3 24  1  0
  5 25  1  0
  5 26  1  0
  5 27  1  0
 11 28  1  0
 11 29  1  0
 14 30  1  0
 16 31  1  0
 17 32  1  0
M  END
>  <Binding energies>  (1) 
[-6.34]

>  <Ligand effiencies>  (1) 
[-0.3019047619047619]

>  <Interactions>  (1) 
["V-B:GLU:543:CD:9880, V-B:HIS:456:CE1:9042, V-B:ARG:545:CZ:9898, V-A:GLU:543:CB:4906, V-A:GLU:543:CD:4908, V-A:GLU:543:CG:4907, V-B:TYR:484:CZ:9319, H-B:GLY:454:N:9022, H-A:GLU:543:OE1:4909, V-A:PRO:540:CA:4883, V-A:PRO:540:CB:4885, V-B:ARG:545:CG:9894, H-A:ALA:541:N:4891, V-A:ASN:362:CB:3176, V-A:ALA:541:CB:4892, V-B:ARG:545:CD:9895"]

$$$$
1j_Grossjean_2025
     RDKit          3D

 32 33  0  0  0  0  0  0  0  0999 V2000
  128.2960  123.2170   56.5050 C   0  0  0  0  0  0  0  0  0  0  0  0
  127.3600  123.3300   57.6950 C   0  0  0  0  0  0  0  0  0  0  0  0
  125.9910  123.5270   57.5290 C   0  0  0  0  0  0  0  0  0  0  0  0
  125.1750  123.6100   58.6620 C   0  0  0  0  0  0  0  0  0  0  0  0
  123.6740  123.8080   58.4540 C   0  0  0  0  0  0  0  0  0  0  0  0
  125.7590  123.5000   59.9440 C   0  0  0  0  0  0  0  0  0  0  0  0
  124.9170  123.5320   61.1420 C   0  0  0  0  0  0  0  0  0  0  0  0
  124.2480  123.5560   62.0870 N   0  0  0  0  0  0  0  0  0  0  0  0
  127.1620  123.3280   60.0180 C   0  0  0  0  0  0  0  0  0  0  0  0
  128.0620  123.1750   61.5450 S   0  0  0  0  0  0  0  0  0  0  0  0
  129.8010  122.8460   61.1310 C   0  0  0  0  0  0  0  0  0  0  0  0
  130.2300  121.4350   61.5360 C   0  0  0  0  0  0  0  0  0  0  0  0
  130.6020  121.2240   62.6910 O   0  0  0  0  0  0  0  0  0  0  0  0
  130.1620  120.5020   60.5610 N   0  0  0  0  0  0  0  0  0  0  0  0
  130.4990  119.1610   60.6720 C   0  0  0  0  0  0  0  0  0  0  0  0
  129.9810  118.2620   61.4820 N   0  0  0  0  0  0  0  0  0  0  0  0
  130.5430  117.0820   61.3170 C   0  0  0  0  0  0  0  0  0  0  0  0
  131.5420  117.0040   60.3510 C   0  0  0  0  0  0  0  0  0  0  0  0
  131.7490  118.5690   59.6250 S   0  0  0  0  0  0  0  0  0  0  0  0
  127.9420  123.2270   58.9130 N   0  0  0  0  0  0  0  0  0  0  0  0
  129.3291  123.0923   56.8616 H   0  0  0  0  0  0  0  0  0  0  0  0
  128.0109  122.3468   55.8956 H   0  0  0  0  0  0  0  0  0  0  0  0
  128.2262  124.1301   55.8956 H   0  0  0  0  0  0  0  0  0  0  0  0
  125.5581  123.6160   56.5217 H   0  0  0  0  0  0  0  0  0  0  0  0
  123.1739  123.8740   59.4315 H   0  0  0  0  0  0  0  0  0  0  0  0
  123.5013  124.7367   57.8904 H   0  0  0  0  0  0  0  0  0  0  0  0
  123.2664  122.9558   57.8904 H   0  0  0  0  0  0  0  0  0  0  0  0
  129.9351  122.9599   60.0452 H   0  0  0  0  0  0  0  0  0  0  0  0
  130.4237  123.5627   61.6865 H   0  0  0  0  0  0  0  0  0  0  0  0
  129.8640  120.8050   59.6450 H   0  0  0  0  0  0  0  0  0  0  0  0
  130.2395  116.2066   61.9100 H   0  0  0  0  0  0  0  0  0  0  0  0
  132.1087  116.0982   60.0895 H   0  0  0  0  0  0  0  0  0  0  0  0
  1  2  1  0
  2  3  2  0
  3  4  1  0
  4  5  1  0
  4  6  2  0
  6  7  1  0
  7  8  3  0
  6  9  1  0
  9 10  1  0
 10 11  1  0
 11 12  1  0
 12 13  2  0
 12 14  1  0
 14 15  1  0
 15 16  2  0
 16 17  1  0
 17 18  2  0
 18 19  1  0
  9 20  2  0
 20  2  1  0
 19 15  1  0
  1 21  1  0
  1 22  1  0
  1 23  1  0
  3 24  1  0
  5 25  1  0
  5 26  1  0
  5 27  1  0
 11 28  1  0
 11 29  1  0
 14 30  1  0
 17 31  1  0
 18 32  1  0
M  END
>  <Binding energies>  (1) 
[-7.01]

>  <Ligand effiencies>  (1) 
[-0.3338095238095238]

>  <Interactions>  (1) 
["V-B:LEU:363:CD1:8161, V-B:PRO:540:CB:9857, V-B:TYR:539:C:9839, V-B:PRO:540:CA:9855, V-B:TYR:539:CE2:9848, H-B:TYR:539:O:9840, V-A:SER:385:CB:3409, V-B:ASP:366:CG:8185, V-A:PRO:482:CG:4327, V-A:PRO:482:CB:4326, V-B:TYR:539:CB:9843, V-A:LEU:475:CD2:4259, H-A:TYR:484:OH:4348, V-B:TYR:539:CD2:9846, V-A:LEU:475:CD1:4258, V-A:LEU:475:CG:4257, V-B:TYR:539:CG:9844, V-B:ASP:366:CB:8184, V-B:TYR:539:CZ:9849, V-B:TYR:539:CE1:9847, V-B:TYR:539:CD1:9845, V-B:MET:535:CE:9807, H-B:ARG:545:NH2:9900, V-B:LEU:363:CA:8157, V-B:LEU:363:CB:8159"]

$$$$
1k_Grossjean_2025
     RDKit          3D

 50 50  0  0  0  0  0  0  0  0999 V2000
  132.5900  124.9590   62.5320 C   0  0  0  0  0  0  0  0  0  0  0  0
  133.5620  123.9340   62.6640 O   0  0  0  0  0  0  0  0  0  0  0  0
  133.2010  122.7230   62.0130 C   0  0  0  0  0  0  0  0  0  0  0  0
  132.5680  123.0430   60.6520 C   0  0  0  0  0  0  0  0  0  0  0  0
  131.8890  121.8930   60.1640 O   0  0  0  0  0  0  0  0  0  0  0  0
  131.0700  121.2570   61.1370 C   0  0  0  0  0  0  0  0  0  0  0  0
  129.7010  121.9480   61.1800 C   0  0  0  0  0  0  0  0  0  0  0  0
  129.8560  123.2780   61.6590 O   0  0  0  0  0  0  0  0  0  0  0  0
  128.9000  123.6450   62.6450 C   0  0  0  0  0  0  0  0  0  0  0  0
  127.7190  122.6570   62.6120 C   0  0  0  0  0  0  0  0  0  0  0  0
  126.5860  123.1100   61.8040 N   0  0  0  0  0  0  0  0  0  0  0  0
  125.3030  123.1250   62.2070 C   0  0  0  0  0  0  0  0  0  0  0  0
  124.9460  122.7560   63.3270 O   0  0  0  0  0  0  0  0  0  0  0  0
  124.2890  123.6340   61.1710 C   0  0  0  0  0  0  0  0  0  0  0  0
  124.8100  123.5040   59.4250 S   0  0  0  0  0  0  0  0  0  0  0  0
  126.3250  124.4240   59.1950 C   0  0  0  0  0  0  0  0  0  0  0  0
  126.5640  125.4090   60.0990 N   0  0  0  0  0  0  0  0  0  0  0  0
  127.6880  126.1500   59.9760 C   0  0  0  0  0  0  0  0  0  0  0  0
  127.8790  127.2360   61.0180 C   0  0  0  0  0  0  0  0  0  0  0  0
  128.6210  125.9390   58.9630 C   0  0  0  0  0  0  0  0  0  0  0  0
  128.3910  124.9230   58.0290 C   0  0  0  0  0  0  0  0  0  0  0  0
  129.4240  124.7090   56.9260 C   0  0  0  0  0  0  0  0  0  0  0  0
  127.2190  124.1400   58.1370 C   0  0  0  0  0  0  0  0  0  0  0  0
  126.9510  123.0710   57.1710 C   0  0  0  0  0  0  0  0  0  0  0  0
  126.7390  122.2270   56.4080 N   0  0  0  0  0  0  0  0  0  0  0  0
  132.2724  125.2939   63.5305 H   0  0  0  0  0  0  0  0  0  0  0  0
  133.0237  125.8069   61.9816 H   0  0  0  0  0  0  0  0  0  0  0  0
  131.7203  124.5709   61.9816 H   0  0  0  0  0  0  0  0  0  0  0  0
  134.0988  122.1052   61.8637 H   0  0  0  0  0  0  0  0  0  0  0  0
  132.4776  122.1744   62.6340 H   0  0  0  0  0  0  0  0  0  0  0  0
  131.8525  123.8708   60.7657 H   0  0  0  0  0  0  0  0  0  0  0  0
  133.3548  123.3342   59.9406 H   0  0  0  0  0  0  0  0  0  0  0  0
  130.9384  120.1979   60.8705 H   0  0  0  0  0  0  0  0  0  0  0  0
  131.5492  121.3286   62.1245 H   0  0  0  0  0  0  0  0  0  0  0  0
  129.2698  121.9706   60.1683 H   0  0  0  0  0  0  0  0  0  0  0  0
  129.0307  121.3921   61.8521 H   0  0  0  0  0  0  0  0  0  0  0  0
  129.3708  123.6198   63.6388 H   0  0  0  0  0  0  0  0  0  0  0  0
  128.5326  124.6608   62.4375 H   0  0  0  0  0  0  0  0  0  0  0  0
  128.0781  121.7025   62.1998 H   0  0  0  0  0  0  0  0  0  0  0  0
  127.3548  122.5619   63.6456 H   0  0  0  0  0  0  0  0  0  0  0  0
  126.8020  123.4270   60.8700 H   0  0  0  0  0  0  0  0  0  0  0  0
  123.3622  123.0539   61.2915 H   0  0  0  0  0  0  0  0  0  0  0  0
  124.1703  124.7093   61.3699 H   0  0  0  0  0  0  0  0  0  0  0  0
  127.8018  126.7969   62.0236 H   0  0  0  0  0  0  0  0  0  0  0  0
  128.8714  127.6937   60.8930 H   0  0  0  0  0  0  0  0  0  0  0  0
  127.1023  128.0048   60.8930 H   0  0  0  0  0  0  0  0  0  0  0  0
  129.5252  126.5621   58.8985 H   0  0  0  0  0  0  0  0  0  0  0  0
  130.4061  124.5056   57.3778 H   0  0  0  0  0  0  0  0  0  0  0  0
  129.1230  123.8541   56.3026 H   0  0  0  0  0  0  0  0  0  0  0  0
  129.4874  125.6131   56.3026 H   0  0  0  0  0  0  0  0  0  0  0  0
  1  2  1  0
  2  3  1  0
  3  4  1  0
  4  5  1  0
  5  6  1  0
  6  7  1  0
  7  8  1  0
  8  9  1  0
  9 10  1  0
 10 11  1  0
 11 12  1  0
 12 13  2  0
 12 14  1  0
 14 15  1  0
 15 16  1  0
 16 17  2  0
 17 18  1  0
 18 19  1  0
 18 20  2  0
 20 21  1  0
 21 22  1  0
 21 23  2  0
 23 24  1  0
 24 25  3  0
 23 16  1  0
  1 26  1  0
  1 27  1  0
  1 28  1  0
  3 29  1  0
  3 30  1  0
  4 31  1  0
  4 32  1  0
  6 33  1  0
  6 34  1  0
  7 35  1  0
  7 36  1  0
  9 37  1  0
  9 38  1  0
 10 39  1  0
 10 40  1  0
 11 41  1  0
 14 42  1  0
 14 43  1  0
 19 44  1  0
 19 45  1  0
 19 46  1  0
 20 47  1  0
 22 48  1  0
 22 49  1  0
 22 50  1  0
M  END
>  <Binding energies>  (1) 
[-5.23]

>  <Ligand effiencies>  (1) 
[-0.20115384615384618]

>  <Interactions>  (1) 
["V-B:PRO:540:CB:9857, V-A:ARG:545:CZ:4926, V-B:PRO:540:CA:9855, V-B:PRO:540:N:9856, V-B:GLU:543:CD:9880, V-B:TYR:539:CE2:9848, V-B:PRO:540:C:9853, H-B:ALA:541:N:9863, V-B:ASP:366:CG:8185, V-A:LEU:475:CD2:4259, H-A:TYR:484:OH:4348, V-B:ALA:541:CA:9862, V-B:TYR:539:CD2:9846, V-B:ALA:541:CB:9864, V-A:GLY:454:CA:4049, H-A:GLY:454:N:4050, H-B:GLU:543:OE1:9881, V-B:GLU:543:CG:9879, V-B:TYR:539:CZ:9849, V-B:MET:535:CE:9807, H-B:ARG:545:NH2:9900, V-B:ASN:362:CB:8148, H-B:TYR:539:N:9842, H-B:ASN:362:ND2:8151"]

$$$$
1l_Grossjean_2025
     RDKit          3D

 30 30  0  0  0  0  0  0  0  0999 V2000
  133.5390  125.3350   66.3440 C   0  0  0  0  0  0  0  0  0  0  0  0
  134.1750  125.0650   65.1030 O   0  0  0  0  0  0  0  0  0  0  0  0
  133.2160  124.8260   64.1190 N   0  0  0  0  0  0  0  0  0  0  0  0
  133.5650  124.9480   62.8240 C   0  0  0  0  0  0  0  0  0  0  0  0
  134.7330  125.0370   62.4350 O   0  0  0  0  0  0  0  0  0  0  0  0
  132.3930  124.9560   61.8320 C   0  0  0  0  0  0  0  0  0  0  0  0
  132.4260  123.6190   60.5890 S   0  0  0  0  0  0  0  0  0  0  0  0
  131.1610  122.4340   61.0130 C   0  0  0  0  0  0  0  0  0  0  0  0
  130.0490  122.9450   61.6040 N   0  0  0  0  0  0  0  0  0  0  0  0
  129.0500  122.1010   61.9540 C   0  0  0  0  0  0  0  0  0  0  0  0
  127.8420  122.7450   62.6080 C   0  0  0  0  0  0  0  0  0  0  0  0
  129.1130  120.7270   61.7320 C   0  0  0  0  0  0  0  0  0  0  0  0
  130.2520  120.1900   61.1230 C   0  0  0  0  0  0  0  0  0  0  0  0
  130.3000  118.6810   60.8870 C   0  0  0  0  0  0  0  0  0  0  0  0
  131.3070  121.0530   60.7510 C   0  0  0  0  0  0  0  0  0  0  0  0
  132.5130  120.5170   60.1100 C   0  0  0  0  0  0  0  0  0  0  0  0
  133.4630  120.0930   59.6060 N   0  0  0  0  0  0  0  0  0  0  0  0
  134.2089  125.0506   67.1688 H   0  0  0  0  0  0  0  0  0  0  0  0
  133.3088  126.4085   66.4121 H   0  0  0  0  0  0  0  0  0  0  0  0
  132.6068  124.7550   66.4121 H   0  0  0  0  0  0  0  0  0  0  0  0
  132.2760  124.9590   64.4630 H   0  0  0  0  0  0  0  0  0  0  0  0
  131.4592  124.8653   62.4062 H   0  0  0  0  0  0  0  0  0  0  0  0
  132.4708  125.8993   61.2715 H   0  0  0  0  0  0  0  0  0  0  0  0
  127.9446  122.6903   63.7018 H   0  0  0  0  0  0  0  0  0  0  0  0
  127.7753  123.7984   62.2982 H   0  0  0  0  0  0  0  0  0  0  0  0
  126.9303  122.2132   62.2982 H   0  0  0  0  0  0  0  0  0  0  0  0
  128.2796  120.0743   62.0311 H   0  0  0  0  0  0  0  0  0  0  0  0
  130.3166  118.1588   61.8550 H   0  0  0  0  0  0  0  0  0  0  0  0
  129.4113  118.3704   60.3180 H   0  0  0  0  0  0  0  0  0  0  0  0
  131.2067  118.4275   60.3180 H   0  0  0  0  0  0  0  0  0  0  0  0
  1  2  1  0
  2  3  1  0
  3  4  1  0
  4  5  2  0
  4  6  1  0
  6  7  1  0
  7  8  1  0
  8  9  2  0
  9 10  1  0
 10 11  1  0
 10 12  2  0
 12 13  1  0
 13 14  1  0
 13 15  2  0
 15 16  1  0
 16 17  3  0
 15  8  1  0
  1 18  1  0
  1 19  1  0
  1 20  1  0
  3 21  1  0
  6 22  1  0
  6 23  1  0
 11 24  1  0
 11 25  1  0
 11 26  1  0
 12 27  1  0
 14 28  1  0
 14 29  1  0
 14 30  1  0
M  END
>  <Binding energies>  (1) 
[-6.28]

>  <Ligand effiencies>  (1) 
[-0.3488888888888889]

>  <Interactions>  (1) 
["V-A:ARG:545:CD:4923, V-A:ARG:545:CZ:4926, V-B:TYR:539:C:9839, V-B:GLU:543:CD:9880, V-A:TYR:484:CZ:4347, V-A:TYR:484:CE2:4346, V-B:TYR:539:CE2:9848, V-A:ARG:545:CG:4922, V-B:PRO:540:C:9853, V-A:HIS:456:CE1:4070, V-A:SER:385:CB:3409, V-A:LEU:475:CD2:4259, H-A:TYR:484:OH:4348, V-B:ALA:541:CA:9862, V-B:TYR:539:CD2:9846, V-A:LEU:475:CD1:4258, V-B:ALA:541:CB:9864, H-A:ARG:545:NH1:4927, V-A:GLY:454:CA:4049, H-A:GLY:454:N:4050, V-A:ILE:369:CG2:3237, H-A:ARG:545:NH2:4928, H-A:GLU:543:OE2:4910, H-A:ARG:545:NE:4924, V-A:GLY:453:CA:4044, V-B:GLU:543:CG:9879"]

$$$$
1m_Grossjean_2025
     RDKit          3D

 35 35  0  0  0  0  0  0  0  0999 V2000
  128.2520  125.0650   56.9830 C   0  0  0  0  0  0  0  0  0  0  0  0
  127.2060  124.1970   56.5720 O   0  0  0  0  0  0  0  0  0  0  0  0
  127.1560  122.9240   57.0160 C   0  0  0  0  0  0  0  0  0  0  0  0
  126.3460  122.0670   56.6510 O   0  0  0  0  0  0  0  0  0  0  0  0
  128.2620  122.6440   58.0550 C   0  0  0  0  0  0  0  0  0  0  0  0
  127.7390  122.5220   59.4250 N   0  0  0  0  0  0  0  0  0  0  0  0
  127.2210  123.5240   60.1600 C   0  0  0  0  0  0  0  0  0  0  0  0
  127.1450  124.6850   59.7540 O   0  0  0  0  0  0  0  0  0  0  0  0
  126.7320  123.1320   61.5600 C   0  0  0  0  0  0  0  0  0  0  0  0
  128.0060  122.3830   62.6320 S   0  0  0  0  0  0  0  0  0  0  0  0
  129.5750  122.5270   61.8040 C   0  0  0  0  0  0  0  0  0  0  0  0
  129.9710  123.8110   61.6130 N   0  0  0  0  0  0  0  0  0  0  0  0
  131.1540  124.0430   60.9980 C   0  0  0  0  0  0  0  0  0  0  0  0
  131.5390  125.5020   60.8380 C   0  0  0  0  0  0  0  0  0  0  0  0
  131.9790  123.0170   60.5420 C   0  0  0  0  0  0  0  0  0  0  0  0
  131.5680  121.6900   60.7100 C   0  0  0  0  0  0  0  0  0  0  0  0
  132.4810  120.5820   60.1880 C   0  0  0  0  0  0  0  0  0  0  0  0
  130.3360  121.4230   61.3490 C   0  0  0  0  0  0  0  0  0  0  0  0
  129.8640  120.0440   61.4900 C   0  0  0  0  0  0  0  0  0  0  0  0
  129.4920  118.9540   61.6030 N   0  0  0  0  0  0  0  0  0  0  0  0
  128.2911  125.0974   58.0818 H   0  0  0  0  0  0  0  0  0  0  0  0
  129.2111  124.6938   56.5928 H   0  0  0  0  0  0  0  0  0  0  0  0
  128.0640  126.0761   56.5928 H   0  0  0  0  0  0  0  0  0  0  0  0
  128.7669  121.7043   57.7865 H   0  0  0  0  0  0  0  0  0  0  0  0
  128.9550  123.4981   58.0397 H   0  0  0  0  0  0  0  0  0  0  0  0
  127.7920  121.6020   59.8380 H   0  0  0  0  0  0  0  0  0  0  0  0
  126.3553  124.0379   62.0573 H   0  0  0  0  0  0  0  0  0  0  0  0
  125.9580  122.3640   61.4147 H   0  0  0  0  0  0  0  0  0  0  0  0
  131.6599  125.9603   61.8306 H   0  0  0  0  0  0  0  0  0  0  0  0
  132.4865  125.5725   60.2837 H   0  0  0  0  0  0  0  0  0  0  0  0
  130.7497  126.0308   60.2837 H   0  0  0  0  0  0  0  0  0  0  0  0
  132.9392  123.2467   60.0571 H   0  0  0  0  0  0  0  0  0  0  0  0
  132.9255  120.0426   61.0374 H   0  0  0  0  0  0  0  0  0  0  0  0
  131.8943  119.8816   59.5754 H   0  0  0  0  0  0  0  0  0  0  0  0
  133.2806  121.0240   59.5754 H   0  0  0  0  0  0  0  0  0  0  0  0
  1  2  1  0
  2  3  1  0
  3  4  2  0
  3  5  1  0
  5  6  1  0
  6  7  1  0
  7  8  2  0
  7  9  1  0
  9 10  1  0
 10 11  1  0
 11 12  2  0
 12 13  1  0
 13 14  1  0
 13 15  2  0
 15 16  1  0
 16 17  1  0
 16 18  2  0
 18 19  1  0
 19 20  3  0
 18 11  1  0
  1 21  1  0
  1 22  1  0
  1 23  1  0
  5 24  1  0
  5 25  1  0
  6 26  1  0
  9 27  1  0
  9 28  1  0
 14 29  1  0
 14 30  1  0
 14 31  1  0
 15 32  1  0
 17 33  1  0
 17 34  1  0
 17 35  1  0
M  END
>  <Binding energies>  (1) 
[-5.28]

>  <Ligand effiencies>  (1) 
[-0.25142857142857145]

>  <Interactions>  (1) 
["V-B:PRO:540:CB:9857, V-B:TYR:539:C:9839, V-B:PRO:540:CA:9855, V-B:PRO:540:N:9856, V-B:GLU:543:CD:9880, V-B:TYR:539:CE2:9848, V-B:PRO:540:C:9853, H-B:ALA:541:N:9863, H-B:TYR:539:O:9840, V-A:SER:385:CB:3409, V-A:LEU:475:CD2:4259, H-A:TYR:484:OH:4348, V-B:TYR:539:CD2:9846, V-B:ALA:541:CB:9864, V-A:ILE:369:CG2:3237, V-B:TYR:539:CG:9844, H-B:TYR:531:OH:9767, V-B:TYR:539:CZ:9849, V-B:MET:535:CE:9807, H-B:TYR:539:N:9842"]

$$$$
1n_Grossjean_2025
     RDKit          3D

 48 49  0  0  0  0  0  0  0  0999 V2000
  133.4460  126.0090   74.6980 C   0  0  0  0  0  0  0  0  0  0  0  0
  132.9570  127.2290   73.9120 C   0  0  0  0  0  0  0  0  0  0  0  0
  131.8490  126.8570   73.1020 O   0  0  0  0  0  0  0  0  0  0  0  0
  130.7410  127.6390   73.0260 C   0  0  0  0  0  0  0  0  0  0  0  0
  130.3040  128.2930   73.9780 O   0  0  0  0  0  0  0  0  0  0  0  0
  130.1080  127.6390   71.6650 C   0  0  0  0  0  0  0  0  0  0  0  0
  130.6380  128.3820   70.5990 C   0  0  0  0  0  0  0  0  0  0  0  0
  130.0250  128.3630   69.3500 C   0  0  0  0  0  0  0  0  0  0  0  0
  128.8680  127.6100   69.1410 C   0  0  0  0  0  0  0  0  0  0  0  0
  128.3280  127.6670   67.8410 N   0  0  0  0  0  0  0  0  0  0  0  0
  128.1100  128.7330   67.0420 C   0  0  0  0  0  0  0  0  0  0  0  0
  128.3680  129.9030   67.3270 O   0  0  0  0  0  0  0  0  0  0  0  0
  127.4920  128.4210   65.6730 C   0  0  0  0  0  0  0  0  0  0  0  0
  128.2750  129.0470   64.4990 C   0  0  0  0  0  0  0  0  0  0  0  0
  127.4680  128.8770   62.8790 S   0  0  0  0  0  0  0  0  0  0  0  0
  126.8670  130.4830   62.4040 C   0  0  0  0  0  0  0  0  0  0  0  0
  127.7830  131.2310   61.7390 N   0  0  0  0  0  0  0  0  0  0  0  0
  127.4290  132.4660   61.3140 C   0  0  0  0  0  0  0  0  0  0  0  0
  128.5000  133.2390   60.5680 C   0  0  0  0  0  0  0  0  0  0  0  0
  126.1640  133.0060   61.5380 C   0  0  0  0  0  0  0  0  0  0  0  0
  125.2190  132.2500   62.2410 C   0  0  0  0  0  0  0  0  0  0  0  0
  123.8430  132.8670   62.4860 C   0  0  0  0  0  0  0  0  0  0  0  0
  125.5680  130.9590   62.6990 C   0  0  0  0  0  0  0  0  0  0  0  0
  124.6120  130.1730   63.4810 C   0  0  0  0  0  0  0  0  0  0  0  0
  123.8560  129.5530   64.1000 N   0  0  0  0  0  0  0  0  0  0  0  0
  128.3380  126.8570   70.1980 C   0  0  0  0  0  0  0  0  0  0  0  0
  128.9550  126.8740   71.4460 C   0  0  0  0  0  0  0  0  0  0  0  0
  133.3650  126.2110   75.7763 H   0  0  0  0  0  0  0  0  0  0  0  0
  132.8284  125.1357   74.4412 H   0  0  0  0  0  0  0  0  0  0  0  0
  134.4958  125.8040   74.4412 H   0  0  0  0  0  0  0  0  0  0  0  0
  132.6498  128.0184   74.6137 H   0  0  0  0  0  0  0  0  0  0  0  0
  133.7699  127.6035   73.2725 H   0  0  0  0  0  0  0  0  0  0  0  0
  131.5456  128.9844   70.7521 H   0  0  0  0  0  0  0  0  0  0  0  0
  130.4549  128.9452   68.5216 H   0  0  0  0  0  0  0  0  0  0  0  0
  128.1110  126.7640   67.4450 H   0  0  0  0  0  0  0  0  0  0  0  0
  127.4722  127.3295   65.5383 H   0  0  0  0  0  0  0  0  0  0  0  0
  126.4815  128.8554   65.6623 H   0  0  0  0  0  0  0  0  0  0  0  0
  128.4064  130.1192   64.7066 H   0  0  0  0  0  0  0  0  0  0  0  0
  129.2281  128.5018   64.4325 H   0  0  0  0  0  0  0  0  0  0  0  0
  129.1724  133.7243   61.2907 H   0  0  0  0  0  0  0  0  0  0  0  0
  129.0777  132.5483   59.9362 H   0  0  0  0  0  0  0  0  0  0  0  0
  128.0265  134.0049   59.9362 H   0  0  0  0  0  0  0  0  0  0  0  0
  125.9121  134.0108   61.1680 H   0  0  0  0  0  0  0  0  0  0  0  0
  123.6645  132.9470   63.5685 H   0  0  0  0  0  0  0  0  0  0  0  0
  123.8044  133.8686   62.0330 H   0  0  0  0  0  0  0  0  0  0  0  0
  123.0694  132.2296   62.0330 H   0  0  0  0  0  0  0  0  0  0  0  0
  127.4331  126.2516   70.0411 H   0  0  0  0  0  0  0  0  0  0  0  0
  128.5322  126.2799   72.2696 H   0  0  0  0  0  0  0  0  0  0  0  0
  1  2  1  0
  2  3  1  0
  3  4  1  0
  4  5  2  0
  4  6  1  0
  6  7  2  0
  7  8  1  0
  8  9  2  0
  9 10  1  0
 10 11  1  0
 11 12  2  0
 11 13  1  0
 13 14  1  0
 14 15  1  0
 15 16  1  0
 16 17  2  0
 17 18  1  0
 18 19  1  0
 18 20  2  0
 20 21  1  0
 21 22  1  0
 21 23  2  0
 23 24  1  0
 24 25  3  0
  9 26  1  0
 26 27  2  0
 27  6  1  0
 23 16  1  0
  1 28  1  0
  1 29  1  0
  1 30  1  0
  2 31  1  0
  2 32  1  0
  7 33  1  0
  8 34  1  0
 10 35  1  0
 13 36  1  0
 13 37  1  0
 14 38  1  0
 14 39  1  0
 19 40  1  0
 19 41  1  0
 19 42  1  0
 20 43  1  0
 22 44  1  0
 22 45  1  0
 22 46  1  0
 26 47  1  0
 27 48  1  0
M  END
>  <Binding energies>  (1) 
[-7.12]

>  <Ligand effiencies>  (1) 
[-0.2542857142857143]

>  <Interactions>  (1) 
["V-B:GLU:543:CD:9880, V-A:HIS:456:CE1:4070, V-A:GLU:543:C:4902, V-B:HIS:456:CE1:9042, V-A:GLY:544:CA:4914, V-A:GLU:543:CB:4906, H-B:TYR:484:OH:9320, V-A:GLU:543:CD:4908, V-A:GLY:544:C:4912, V-B:ILE:369:CD1:8211, V-A:GLU:543:CG:4907, H-B:ARG:545:NE:9896, V-A:HIS:456:CG:4066, H-B:GLY:454:N:9022, V-B:LEU:475:CD2:9231, V-B:GLY:454:CA:9021, V-A:HIS:456:CD2:4068, H-B:GLU:543:OE2:9882, H-B:ARG:545:NH2:9900, V-A:PRO:540:CA:4883, V-A:PRO:540:C:4881, V-A:ALA:541:CB:4892, V-A:TYR:539:C:4867, H-B:ARG:545:NH1:9899, V-B:HIS:456:CD2:9040, H-A:LYS:547:NZ:4951, V-A:HIS:456:C:4061, V-A:HIS:456:CB:4065, V-A:VAL:458:CG2:4087"]

$$$$
1o_Grossjean_2025
     RDKit          3D

 45 46  0  0  0  0  0  0  0  0999 V2000
  128.2530  128.5420   74.2250 C   0  0  0  0  0  0  0  0  0  0  0  0
  128.6530  127.4010   73.4800 O   0  0  0  0  0  0  0  0  0  0  0  0
  129.7730  127.4240   72.7120 C   0  0  0  0  0  0  0  0  0  0  0  0
  130.9160  127.3560   73.1750 O   0  0  0  0  0  0  0  0  0  0  0  0
  129.4840  127.5370   71.2430 C   0  0  0  0  0  0  0  0  0  0  0  0
  130.2370  128.3660   70.4000 C   0  0  0  0  0  0  0  0  0  0  0  0
  129.9440  128.4460   69.0410 C   0  0  0  0  0  0  0  0  0  0  0  0
  128.8930  127.7060   68.4990 C   0  0  0  0  0  0  0  0  0  0  0  0
  128.6900  127.8550   67.1130 N   0  0  0  0  0  0  0  0  0  0  0  0
  128.4320  128.9670   66.3900 C   0  0  0  0  0  0  0  0  0  0  0  0
  128.3700  130.1100   66.8440 O   0  0  0  0  0  0  0  0  0  0  0  0
  128.2360  128.7460   64.8830 C   0  0  0  0  0  0  0  0  0  0  0  0
  127.4570  129.8850   64.1950 C   0  0  0  0  0  0  0  0  0  0  0  0
  128.3790  131.4470   64.0840 S   0  0  0  0  0  0  0  0  0  0  0  0
  128.9450  131.6510   62.4070 C   0  0  0  0  0  0  0  0  0  0  0  0
  130.2810  131.4610   62.2600 N   0  0  0  0  0  0  0  0  0  0  0  0
  130.8250  131.5810   61.0270 C   0  0  0  0  0  0  0  0  0  0  0  0
  132.3200  131.3410   60.9390 C   0  0  0  0  0  0  0  0  0  0  0  0
  130.0700  131.9050   59.9020 C   0  0  0  0  0  0  0  0  0  0  0  0
  128.6970  132.1280   60.0450 C   0  0  0  0  0  0  0  0  0  0  0  0
  127.8940  132.4950   58.7980 C   0  0  0  0  0  0  0  0  0  0  0  0
  128.1070  132.0120   61.3240 C   0  0  0  0  0  0  0  0  0  0  0  0
  126.6820  132.3000   61.5040 C   0  0  0  0  0  0  0  0  0  0  0  0
  125.5560  132.5260   61.6430 N   0  0  0  0  0  0  0  0  0  0  0  0
  128.1380  126.8700   69.3360 C   0  0  0  0  0  0  0  0  0  0  0  0
  128.4330  126.7910   70.6940 C   0  0  0  0  0  0  0  0  0  0  0  0
  128.3297  128.3232   75.3003 H   0  0  0  0  0  0  0  0  0  0  0  0
  128.9073  129.3904   73.9759 H   0  0  0  0  0  0  0  0  0  0  0  0
  127.2122  128.7962   73.9759 H   0  0  0  0  0  0  0  0  0  0  0  0
  131.0659  128.9580   70.8153 H   0  0  0  0  0  0  0  0  0  0  0  0
  130.5457  129.0974   68.3901 H   0  0  0  0  0  0  0  0  0  0  0  0
  128.7760  126.9960   66.5890 H   0  0  0  0  0  0  0  0  0  0  0  0
  129.2260  128.6652   64.4104 H   0  0  0  0  0  0  0  0  0  0  0  0
  127.6429  127.8274   64.7632 H   0  0  0  0  0  0  0  0  0  0  0  0
  127.1996  129.5618   63.1755 H   0  0  0  0  0  0  0  0  0  0  0  0
  126.5687  130.0823   64.8130 H   0  0  0  0  0  0  0  0  0  0  0  0
  132.7408  131.2734   61.9531 H   0  0  0  0  0  0  0  0  0  0  0  0
  132.5094  130.4010   60.4001 H   0  0  0  0  0  0  0  0  0  0  0  0
  132.7941  132.1745   60.4001 H   0  0  0  0  0  0  0  0  0  0  0  0
  130.5476  131.9844   58.9143 H   0  0  0  0  0  0  0  0  0  0  0  0
  126.9315  132.9349   59.0980 H   0  0  0  0  0  0  0  0  0  0  0  0
  128.4596  133.2240   58.1991 H   0  0  0  0  0  0  0  0  0  0  0  0
  127.7129  131.5903   58.1991 H   0  0  0  0  0  0  0  0  0  0  0  0
  127.3117  126.2762   68.9182 H   0  0  0  0  0  0  0  0  0  0  0  0
  127.8342  126.1355   71.3434 H   0  0  0  0  0  0  0  0  0  0  0  0
  1  2  1  0
  2  3  1  0
  3  4  2  0
  3  5  1  0
  5  6  2  0
  6  7  1  0
  7  8  2  0
  8  9  1  0
  9 10  1  0
 10 11  2  0
 10 12  1  0
 12 13  1  0
 13 14  1  0
 14 15  1  0
 15 16  2  0
 16 17  1  0
 17 18  1  0
 17 19  2  0
 19 20  1  0
 20 21  1  0
 20 22  2  0
 22 23  1  0
 23 24  3  0
  8 25  1  0
 25 26  2  0
 26  5  1  0
 22 15  1  0
  1 27  1  0
  1 28  1  0
  1 29  1  0
  6 30  1  0
  7 31  1  0
  9 32  1  0
 12 33  1  0
 12 34  1  0
 13 35  1  0
 13 36  1  0
 18 37  1  0
 18 38  1  0
 18 39  1  0
 19 40  1  0
 21 41  1  0
 21 42  1  0
 21 43  1  0
 25 44  1  0
 26 45  1  0
M  END
>  <Binding energies>  (1) 
[-6.8]

>  <Ligand effiencies>  (1) 
[-0.2518518518518518]

>  <Interactions>  (1) 
["V-B:GLU:543:CD:9880, V-A:HIS:456:CE1:4070, V-A:GLU:543:C:4902, V-B:HIS:456:CE1:9042, V-A:GLY:544:CA:4914, V-A:GLU:543:CB:4906, H-B:TYR:484:OH:9320, V-A:GLU:543:CD:4908, V-A:GLY:544:C:4912, V-A:GLU:543:CG:4907, V-A:HIS:456:CD2:4068, H-A:GLU:543:OE2:4910, H-B:GLU:543:OE2:9882, V-A:PRO:540:CA:4883, V-A:PRO:540:CB:4885, V-A:PRO:540:C:4881, H-A:ALA:541:N:4891, V-A:ALA:541:CB:4892, V-A:TYR:539:CD1:4873, V-A:TYR:539:C:4867, V-A:TYR:539:CE1:4875, V-B:GLU:543:CB:9878, V-B:HIS:456:CD2:9040, H-B:LYS:547:NZ:9923"]

$$$$
1p_Grossjean_2025
     RDKit          3D

 35 36  0  0  0  0  0  0  0  0999 V2000
  129.5000  125.1890   57.5600 C   0  0  0  0  0  0  0  0  0  0  0  0
  130.4350  124.4570   58.5030 C   0  0  0  0  0  0  0  0  0  0  0  0
  131.7950  124.7590   58.5620 C   0  0  0  0  0  0  0  0  0  0  0  0
  132.6130  124.0420   59.4410 C   0  0  0  0  0  0  0  0  0  0  0  0
  134.1020  124.3800   59.4780 C   0  0  0  0  0  0  0  0  0  0  0  0
  132.0410  123.0370   60.2540 C   0  0  0  0  0  0  0  0  0  0  0  0
  132.8840  122.2410   61.1470 C   0  0  0  0  0  0  0  0  0  0  0  0
  133.5520  121.6120   61.8530 N   0  0  0  0  0  0  0  0  0  0  0  0
  130.6480  122.8140   60.1450 C   0  0  0  0  0  0  0  0  0  0  0  0
  129.7680  121.5980   61.0980 S   0  0  0  0  0  0  0  0  0  0  0  0
  128.7920  122.5030   62.3340 C   0  0  0  0  0  0  0  0  0  0  0  0
  127.9500  123.6500   61.7420 C   0  0  0  0  0  0  0  0  0  0  0  0
  126.9000  123.1780   60.7250 C   0  0  0  0  0  0  0  0  0  0  0  0
  125.8110  122.7610   61.1250 O   0  0  0  0  0  0  0  0  0  0  0  0
  127.2610  123.2730   59.4250 N   0  0  0  0  0  0  0  0  0  0  0  0
  126.5050  122.9190   58.3150 C   0  0  0  0  0  0  0  0  0  0  0  0
  125.2530  123.4680   58.0390 C   0  0  0  0  0  0  0  0  0  0  0  0
  124.8460  122.8650   56.8720 C   0  0  0  0  0  0  0  0  0  0  0  0
  125.8020  121.9960   56.4660 O   0  0  0  0  0  0  0  0  0  0  0  0
  126.8480  122.0380   57.3900 N   0  0  0  0  0  0  0  0  0  0  0  0
  129.8660  123.5000   59.2730 N   0  0  0  0  0  0  0  0  0  0  0  0
  128.7661  125.7636   58.1441 H   0  0  0  0  0  0  0  0  0  0  0  0
  130.0815  125.8744   56.9259 H   0  0  0  0  0  0  0  0  0  0  0  0
  128.9742  124.4600   56.9259 H   0  0  0  0  0  0  0  0  0  0  0  0
  132.2186  125.5502   57.9260 H   0  0  0  0  0  0  0  0  0  0  0  0
  134.4350  124.4556   60.5237 H   0  0  0  0  0  0  0  0  0  0  0  0
  134.6705  123.5881   58.9685 H   0  0  0  0  0  0  0  0  0  0  0  0
  134.2729  125.3398   58.9685 H   0  0  0  0  0  0  0  0  0  0  0  0
  128.1124  121.7926   62.8274 H   0  0  0  0  0  0  0  0  0  0  0  0
  129.5061  122.9585   63.0358 H   0  0  0  0  0  0  0  0  0  0  0  0
  127.4312  124.1621   62.5658 H   0  0  0  0  0  0  0  0  0  0  0  0
  128.6423  124.3163   61.2065 H   0  0  0  0  0  0  0  0  0  0  0  0
  128.1830  123.6310   59.2260 H   0  0  0  0  0  0  0  0  0  0  0  0
  124.7085  124.2209   58.6278 H   0  0  0  0  0  0  0  0  0  0  0  0
  123.8962  123.0576   56.3517 H   0  0  0  0  0  0  0  0  0  0  0  0
  1  2  1  0
  2  3  2  0
  3  4  1  0
  4  5  1  0
  4  6  2  0
  6  7  1  0
  7  8  3  0
  6  9  1  0
  9 10  1  0
 10 11  1  0
 11 12  1  0
 12 13  1  0
 13 14  2  0
 13 15  1  0
 15 16  1  0
 16 17  1  0
 17 18  2  0
 18 19  1  0
 19 20  1  0
  9 21  2  0
 21  2  1  0
 20 16  2  0
  1 22  1  0
  1 23  1  0
  1 24  1  0
  3 25  1  0
  5 26  1  0
  5 27  1  0
  5 28  1  0
 11 29  1  0
 11 30  1  0
 12 31  1  0
 12 32  1  0
 15 33  1  0
 17 34  1  0
 18 35  1  0
M  END
>  <Binding energies>  (1) 
[-6.77]

>  <Ligand effiencies>  (1) 
[-0.3077272727272727]

>  <Interactions>  (1) 
["V-B:PRO:540:CD:9859, V-B:LEU:363:CD1:8161, V-B:PRO:540:CB:9857, V-B:TYR:539:C:9839, V-B:PRO:540:CA:9855, V-B:PRO:540:N:9856, V-B:GLU:543:CD:9880, V-A:ILE:369:CD1:3239, V-B:TYR:539:CE2:9848, H-B:ALA:541:N:9863, V-A:LEU:475:CD2:4259, V-B:TYR:539:CD2:9846, V-B:ALA:541:CB:9864, H-A:GLY:454:N:4050, V-A:ILE:369:CG2:3237, V-A:ASP:366:CG:3213, V-A:ASP:366:CB:3212, V-A:ILE:369:CB:3236, V-A:ASP:366:CA:3210, V-B:TYR:531:CE2:9765, V-B:TYR:539:CZ:9849, H-B:TYR:539:N:9842"]

$$$$
1q_Grossjean_2025
     RDKit          3D

 38 38  0  0  0  0  0  0  0  0999 V2000
  127.7140  123.7160   62.1040 C   0  0  0  0  0  0  0  0  0  0  0  0
  126.6770  122.7480   62.0400 O   0  0  0  0  0  0  0  0  0  0  0  0
  125.3770  123.1270   62.1020 C   0  0  0  0  0  0  0  0  0  0  0  0
  124.6150  122.9210   63.0480 O   0  0  0  0  0  0  0  0  0  0  0  0
  124.8700  123.8440   60.8320 C   0  0  0  0  0  0  0  0  0  0  0  0
  125.7240  123.6060   59.6590 N   0  0  0  0  0  0  0  0  0  0  0  0
  125.3170  123.5990   58.3750 C   0  0  0  0  0  0  0  0  0  0  0  0
  124.1490  123.8010   58.0370 O   0  0  0  0  0  0  0  0  0  0  0  0
  126.4070  123.3390   57.3250 C   0  0  0  0  0  0  0  0  0  0  0  0
  127.8050  123.8540   57.7220 C   0  0  0  0  0  0  0  0  0  0  0  0
  128.5990  122.8700   59.0280 S   0  0  0  0  0  0  0  0  0  0  0  0
  130.2360  123.5150   59.3080 C   0  0  0  0  0  0  0  0  0  0  0  0
  130.6150  124.4400   58.3900 N   0  0  0  0  0  0  0  0  0  0  0  0
  131.8420  125.0010   58.4970 C   0  0  0  0  0  0  0  0  0  0  0  0
  132.2000  126.0130   57.4250 C   0  0  0  0  0  0  0  0  0  0  0  0
  132.7300  124.6760   59.5200 C   0  0  0  0  0  0  0  0  0  0  0  0
  132.3410  123.7430   60.4860 C   0  0  0  0  0  0  0  0  0  0  0  0
  133.3270  123.4160   61.6080 C   0  0  0  0  0  0  0  0  0  0  0  0
  131.0630  123.1450   60.3970 C   0  0  0  0  0  0  0  0  0  0  0  0
  130.6180  122.2100   61.4310 C   0  0  0  0  0  0  0  0  0  0  0  0
  130.2690  121.4710   62.2510 N   0  0  0  0  0  0  0  0  0  0  0  0
  127.9476  123.9341   63.1566 H   0  0  0  0  0  0  0  0  0  0  0  0
  128.6117  123.3253   61.6025 H   0  0  0  0  0  0  0  0  0  0  0  0
  127.3860  124.6384   61.6025 H   0  0  0  0  0  0  0  0  0  0  0  0
  123.8558  123.4826   60.6065 H   0  0  0  0  0  0  0  0  0  0  0  0
  124.8845  124.9248   61.0360 H   0  0  0  0  0  0  0  0  0  0  0  0
  126.6950  123.4070   59.8510 H   0  0  0  0  0  0  0  0  0  0  0  0
  126.4738  122.2536   57.1591 H   0  0  0  0  0  0  0  0  0  0  0  0
  126.1123  123.8919   56.4209 H   0  0  0  0  0  0  0  0  0  0  0  0
  128.4493  123.8334   56.8307 H   0  0  0  0  0  0  0  0  0  0  0  0
  127.6733  124.8712   58.1194 H   0  0  0  0  0  0  0  0  0  0  0  0
  132.5309  126.9485   57.8997 H   0  0  0  0  0  0  0  0  0  0  0  0
  133.0111  125.6126   56.7990 H   0  0  0  0  0  0  0  0  0  0  0  0
  131.3176  126.2117   56.7990 H   0  0  0  0  0  0  0  0  0  0  0  0
  133.7231  125.1467   59.5671 H   0  0  0  0  0  0  0  0  0  0  0  0
  132.8411  123.5771   62.5816 H   0  0  0  0  0  0  0  0  0  0  0  0
  133.6419  122.3653   61.5248 H   0  0  0  0  0  0  0  0  0  0  0  0
  134.2073  124.0703   61.5248 H   0  0  0  0  0  0  0  0  0  0  0  0
  1  2  1  0
  2  3  1  0
  3  4  2  0
  3  5  1  0
  5  6  1  0
  6  7  1  0
  7  8  2  0
  7  9  1  0
  9 10  1  0
 10 11  1  0
 11 12  1  0
 12 13  2  0
 13 14  1  0
 14 15  1  0
 14 16  2  0
 16 17  1  0
 17 18  1  0
 17 19  2  0
 19 20  1  0
 20 21  3  0
 19 12  1  0
  1 22  1  0
  1 23  1  0
  1 24  1  0
  5 25  1  0
  5 26  1  0
  6 27  1  0
  9 28  1  0
  9 29  1  0
 10 30  1  0
 10 31  1  0
 15 32  1  0
 15 33  1  0
 15 34  1  0
 16 35  1  0
 18 36  1  0
 18 37  1  0
 18 38  1  0
M  END
>  <Binding energies>  (1) 
[-6.0]

>  <Ligand effiencies>  (1) 
[-0.2727272727272727]

>  <Interactions>  (1) 
["V-B:PRO:540:CB:9857, V-B:PRO:540:CA:9855, V-B:GLU:543:CD:9880, V-A:ILE:369:CD1:3239, V-B:TYR:539:CE2:9848, V-B:PRO:540:C:9853, H-B:ALA:541:N:9863, V-B:ASP:366:CG:8185, H-A:TYR:484:OH:4348, V-B:TYR:539:CD2:9846, V-A:ASP:366:CG:3213, V-A:ASP:366:CB:3212, V-B:GLU:543:CG:9879, H-B:TYR:531:OH:9767, V-B:TYR:539:CZ:9849, H-B:ARG:545:NH2:9900, H-B:ASN:362:ND2:8151, H-B:TYR:539:OH:9850"]

$$$$
2a_Ghoteimi_2023
     RDKit          3D

 85 90  0  0  0  0  0  0  0  0999 V2000
  125.8890  122.5060   57.0530 C   0  0  0  0  0  0  0  0  0  0  0  0
  126.5090  123.7020   57.7810 C   0  0  0  0  0  0  0  0  0  0  0  0
  127.8550  123.4000   58.1240 O   0  0  0  0  0  0  0  0  0  0  0  0
  128.5600  124.1950   58.9690 C   0  0  0  0  0  0  0  0  0  0  0  0
  129.7710  124.0660   59.1730 O   0  0  0  0  0  0  0  0  0  0  0  0
  127.7200  125.2540   59.6250 C   0  0  0  0  0  0  0  0  0  0  0  0
  127.2780  126.3880   58.9290 C   0  0  0  0  0  0  0  0  0  0  0  0
  126.5000  127.3490   59.5670 C   0  0  0  0  0  0  0  0  0  0  0  0
  126.1430  127.1970   60.9080 C   0  0  0  0  0  0  0  0  0  0  0  0
  125.3580  128.2310   61.4530 N   0  0  0  0  0  0  0  0  0  0  0  0
  124.8970  129.3630   60.8770 C   0  0  0  0  0  0  0  0  0  0  0  0
  125.1400  129.7210   59.7240 O   0  0  0  0  0  0  0  0  0  0  0  0
  124.0410  130.2550   61.7860 C   0  0  0  0  0  0  0  0  0  0  0  0
  123.9760  129.7170   63.5260 S   0  0  0  0  0  0  0  0  0  0  0  0
  125.6690  129.5040   64.0260 C   0  0  0  0  0  0  0  0  0  0  0  0
  126.5660  129.7510   63.0430 N   0  0  0  0  0  0  0  0  0  0  0  0
  127.8910  129.6140   63.3000 C   0  0  0  0  0  0  0  0  0  0  0  0
  128.8220  129.8940   62.1640 C   0  0  0  0  0  0  0  0  0  0  0  0
  129.4370  131.1450   62.0220 C   0  0  0  0  0  0  0  0  0  0  0  0
  130.2940  131.4040   60.9560 C   0  0  0  0  0  0  0  0  0  0  0  0
  130.5760  130.4210   59.9970 C   0  0  0  0  0  0  0  0  0  0  0  0
  131.4160  130.7050   58.9150 N   0  0  0  0  0  0  0  0  0  0  0  0
  132.8410  131.0350   59.1130 C   0  0  0  0  0  0  0  0  0  0  0  0
  133.6830  130.9610   57.8210 C   0  0  0  0  0  0  0  0  0  0  0  0
  133.1060  131.7810   56.8180 O   0  0  0  0  0  0  0  0  0  0  0  0
  131.7890  131.3610   56.5000 C   0  0  0  0  0  0  0  0  0  0  0  0
  130.8880  131.4470   57.7500 C   0  0  0  0  0  0  0  0  0  0  0  0
  129.9470  129.1730   60.1380 C   0  0  0  0  0  0  0  0  0  0  0  0
  129.0920  128.9130   61.2040 C   0  0  0  0  0  0  0  0  0  0  0  0
  128.3460  129.2350   64.5650 C   0  0  0  0  0  0  0  0  0  0  0  0
  127.4360  128.9740   65.5980 C   0  0  0  0  0  0  0  0  0  0  0  0
  127.9910  128.5670   66.9250 C   0  0  0  0  0  0  0  0  0  0  0  0
  128.9440  129.3660   67.5630 C   0  0  0  0  0  0  0  0  0  0  0  0
  129.4810  128.9850   68.7890 C   0  0  0  0  0  0  0  0  0  0  0  0
  129.0810  127.7960   69.4160 C   0  0  0  0  0  0  0  0  0  0  0  0
  129.6220  127.3860   70.6380 N   0  0  0  0  0  0  0  0  0  0  0  0
  128.7200  126.9000   71.7010 C   0  0  0  0  0  0  0  0  0  0  0  0
  129.4550  126.1290   72.8180 C   0  0  0  0  0  0  0  0  0  0  0  0
  130.4900  126.9320   73.3640 O   0  0  0  0  0  0  0  0  0  0  0  0
  131.4460  127.2950   72.3800 C   0  0  0  0  0  0  0  0  0  0  0  0
  130.7640  128.0930   71.2490 C   0  0  0  0  0  0  0  0  0  0  0  0
  128.1330  126.9940   68.7630 C   0  0  0  0  0  0  0  0  0  0  0  0
  127.5960  127.3730   67.5360 C   0  0  0  0  0  0  0  0  0  0  0  0
  126.0530  129.1160   65.3290 C   0  0  0  0  0  0  0  0  0  0  0  0
  125.0560  128.9120   66.3840 C   0  0  0  0  0  0  0  0  0  0  0  0
  124.2710  128.7480   67.2190 N   0  0  0  0  0  0  0  0  0  0  0  0
  126.5890  126.0700   61.6130 C   0  0  0  0  0  0  0  0  0  0  0  0
  127.3670  125.1080   60.9740 C   0  0  0  0  0  0  0  0  0  0  0  0
  125.5136  121.7819   57.7911 H   0  0  0  0  0  0  0  0  0  0  0  0
  125.0566  122.8518   56.4225 H   0  0  0  0  0  0  0  0  0  0  0  0
  126.6514  122.0251   56.4225 H   0  0  0  0  0  0  0  0  0  0  0  0
  126.4868  124.5836   57.1235 H   0  0  0  0  0  0  0  0  0  0  0  0
  125.9353  123.9131   58.6955 H   0  0  0  0  0  0  0  0  0  0  0  0
  127.5483  126.5189   57.8708 H   0  0  0  0  0  0  0  0  0  0  0  0
  126.1634  128.2359   59.0101 H   0  0  0  0  0  0  0  0  0  0  0  0
  125.1340  128.1080   62.4290 H   0  0  0  0  0  0  0  0  0  0  0  0
  124.4548  131.2738   61.7564 H   0  0  0  0  0  0  0  0  0  0  0  0
  123.0119  130.1981   61.4017 H   0  0  0  0  0  0  0  0  0  0  0  0
  129.2398  131.9335   62.7632 H   0  0  0  0  0  0  0  0  0  0  0  0
  130.7580  132.3972   60.8645 H   0  0  0  0  0  0  0  0  0  0  0  0
  132.9079  132.0577   59.5125 H   0  0  0  0  0  0  0  0  0  0  0  0
  133.2504  130.2849   59.8056 H   0  0  0  0  0  0  0  0  0  0  0  0
  134.7051  131.3084   58.0320 H   0  0  0  0  0  0  0  0  0  0  0  0
  133.7084  129.9202   57.4659 H   0  0  0  0  0  0  0  0  0  0  0  0
  131.3805  132.0105   55.7118 H   0  0  0  0  0  0  0  0  0  0  0  0
  131.8186  130.3190   56.1488 H   0  0  0  0  0  0  0  0  0  0  0  0
  130.7834  132.5054   58.0306 H   0  0  0  0  0  0  0  0  0  0  0  0
  129.9250  130.9862   57.4847 H   0  0  0  0  0  0  0  0  0  0  0  0
  130.1340  128.3868   59.3917 H   0  0  0  0  0  0  0  0  0  0  0  0
  128.6218  127.9226   61.2933 H   0  0  0  0  0  0  0  0  0  0  0  0
  129.4260  129.1408   64.7515 H   0  0  0  0  0  0  0  0  0  0  0  0
  129.2724  130.3042   67.0919 H   0  0  0  0  0  0  0  0  0  0  0  0
  130.2313  129.6267   69.2741 H   0  0  0  0  0  0  0  0  0  0  0  0
  128.2113  127.7656   72.1504 H   0  0  0  0  0  0  0  0  0  0  0  0
  128.0114  126.2006   71.2334 H   0  0  0  0  0  0  0  0  0  0  0  0
  128.7395  125.8682   73.6118 H   0  0  0  0  0  0  0  0  0  0  0  0
  129.8942  125.2135   72.3950 H   0  0  0  0  0  0  0  0  0  0  0  0
  132.2276  127.9153   72.8431 H   0  0  0  0  0  0  0  0  0  0  0  0
  131.8937  126.3829   71.9585 H   0  0  0  0  0  0  0  0  0  0  0  0
  130.4027  129.0457   71.6636 H   0  0  0  0  0  0  0  0  0  0  0  0
  131.5144  128.2410   70.4584 H   0  0  0  0  0  0  0  0  0  0  0  0
  127.8091  126.0511   69.2278 H   0  0  0  0  0  0  0  0  0  0  0  0
  126.8544  126.7275   67.0427 H   0  0  0  0  0  0  0  0  0  0  0  0
  126.3237  125.9455   62.6732 H   0  0  0  0  0  0  0  0  0  0  0  0
  127.7081  124.2244   61.5334 H   0  0  0  0  0  0  0  0  0  0  0  0
  1  2  1  0
  2  3  1  0
  3  4  1  0
  4  5  2  0
  4  6  1  0
  6  7  2  0
  7  8  1  0
  8  9  2  0
  9 10  1  0
 10 11  1  0
 11 12  2  0
 11 13  1  0
 13 14  1  0
 14 15  1  0
 15 16  2  0
 16 17  1  0
 17 18  1  0
 18 19  2  0
 19 20  1  0
 20 21  2  0
 21 22  1  0
 22 23  1  0
 23 24  1  0
 24 25  1  0
 25 26  1  0
 26 27  1  0
 21 28  1  0
 28 29  2  0
 17 30  2  0
 30 31  1  0
 31 32  1  0
 32 33  2  0
 33 34  1  0
 34 35  2  0
 35 36  1  0
 36 37  1  0
 37 38  1  0
 38 39  1  0
 39 40  1  0
 40 41  1  0
 35 42  1  0
 42 43  2  0
 31 44  2  0
 44 45  1  0
 45 46  3  0
  9 47  1  0
 47 48  2  0
 48  6  1  0
 44 15  1  0
 29 18  1  0
 43 32  1  0
 27 22  1  0
 41 36  1  0
  1 49  1  0
  1 50  1  0
  1 51  1  0
  2 52  1  0
  2 53  1  0
  7 54  1  0
  8 55  1  0
 10 56  1  0
 13 57  1  0
 13 58  1  0
 19 59  1  0
 20 60  1  0
 23 61  1  0
 23 62  1  0
 24 63  1  0
 24 64  1  0
 26 65  1  0
 26 66  1  0
 27 67  1  0
 27 68  1  0
 28 69  1  0
 29 70  1  0
 30 71  1  0
 33 72  1  0
 34 73  1  0
 37 74  1  0
 37 75  1  0
 38 76  1  0
 38 77  1  0
 40 78  1  0
 40 79  1  0
 41 80  1  0
 41 81  1  0
 42 82  1  0
 43 83  1  0
 47 84  1  0
 48 85  1  0
M  END
>  <Binding energies>  (1) 
[-5.98]

>  <Ligand effiencies>  (1) 
[-0.12204081632653062]

>  <Interactions>  (1) 
["V-B:PRO:540:CD:9859, V-B:PRO:540:CB:9857, V-B:TYR:539:C:9839, V-B:PRO:540:CA:9855, V-B:PRO:540:N:9856, V-B:GLU:543:CD:9880, V-A:HIS:456:CE1:4070, V-B:ASP:366:CG:8185, V-A:GLU:543:C:4902, V-B:HIS:456:CE1:9042, V-A:GLY:544:CA:4914, V-B:ARG:545:CZ:9898, V-A:GLU:543:CB:4906, H-B:TYR:484:OH:9320, V-A:GLU:543:CD:4908, V-A:GLU:543:CA:4904, V-A:GLY:544:C:4912, V-A:GLU:543:CG:4907, H-B:ARG:545:NE:9896, V-B:TYR:484:CZ:9319, V-A:HIS:456:CG:4066, H-B:GLY:454:N:9022, V-A:HIS:456:CD2:4068, V-A:ASP:366:CG:3213, V-A:ASP:366:CB:3212, H-B:ASP:366:OD2:8187, V-B:ASP:366:CB:8184, H-B:ARG:545:NH2:9900, V-A:PRO:540:CA:4883, V-A:PRO:540:CB:4885, V-B:ARG:545:CG:9894, V-A:ALA:541:CB:4892, V-B:ARG:545:CD:9895, V-A:LEU:363:CD1:3189, H-A:TYR:531:OH:4795, V-A:LEU:363:CA:3185, V-A:LEU:363:CB:3187, H-B:ARG:545:NH1:9899, V-B:GLU:543:CB:9878, V-B:HIS:456:CD2:9040, V-B:LYS:547:CE:9922, H-B:ASP:366:OD1:8186, H-B:HIS:456:ND1:9039, V-A:HIS:456:CB:4065"]

$$$$
2a_Grossjean_2025
     RDKit          3D

 45 46  0  0  0  0  0  0  0  0999 V2000
  124.0600  123.8380   58.1900 C   0  0  0  0  0  0  0  0  0  0  0  0
  125.4130  123.5190   58.8310 C   0  0  0  0  0  0  0  0  0  0  0  0
  125.4440  124.0470   60.1520 O   0  0  0  0  0  0  0  0  0  0  0  0
  125.7460  123.2580   61.2150 C   0  0  0  0  0  0  0  0  0  0  0  0
  124.8960  122.7700   61.9650 O   0  0  0  0  0  0  0  0  0  0  0  0
  127.2210  123.0210   61.3740 C   0  0  0  0  0  0  0  0  0  0  0  0
  128.1160  123.1710   60.3040 C   0  0  0  0  0  0  0  0  0  0  0  0
  129.4770  122.9420   60.4840 C   0  0  0  0  0  0  0  0  0  0  0  0
  129.9710  122.5520   61.7290 C   0  0  0  0  0  0  0  0  0  0  0  0
  131.3590  122.3340   61.7920 N   0  0  0  0  0  0  0  0  0  0  0  0
  132.1580  121.5910   60.9960 C   0  0  0  0  0  0  0  0  0  0  0  0
  131.7840  120.9150   60.0370 O   0  0  0  0  0  0  0  0  0  0  0  0
  133.6490  121.6130   61.3520 C   0  0  0  0  0  0  0  0  0  0  0  0
  134.3560  123.2930   61.3920 S   0  0  0  0  0  0  0  0  0  0  0  0
  133.1800  124.4260   62.1240 C   0  0  0  0  0  0  0  0  0  0  0  0
  133.2510  124.5570   63.4730 N   0  0  0  0  0  0  0  0  0  0  0  0
  132.3840  125.3870   64.0950 C   0  0  0  0  0  0  0  0  0  0  0  0
  132.5060  125.4590   65.6060 C   0  0  0  0  0  0  0  0  0  0  0  0
  131.4240  126.1230   63.4070 C   0  0  0  0  0  0  0  0  0  0  0  0
  131.3390  126.0100   62.0100 C   0  0  0  0  0  0  0  0  0  0  0  0
  130.2710  126.8330   61.2630 C   0  0  0  0  0  0  0  0  0  0  0  0
  130.8570  127.7260   60.4660 F   0  0  0  0  0  0  0  0  0  0  0  0
  129.5090  126.0250   60.5240 F   0  0  0  0  0  0  0  0  0  0  0  0
  129.4630  127.5010   62.0900 F   0  0  0  0  0  0  0  0  0  0  0  0
  132.2400  125.1400   61.3460 C   0  0  0  0  0  0  0  0  0  0  0  0
  132.1930  124.9820   59.8880 C   0  0  0  0  0  0  0  0  0  0  0  0
  132.1570  124.8570   58.7380 N   0  0  0  0  0  0  0  0  0  0  0  0
  129.0840  122.4070   62.8050 C   0  0  0  0  0  0  0  0  0  0  0  0
  127.7230  122.6410   62.6250 C   0  0  0  0  0  0  0  0  0  0  0  0
  123.3132  124.0141   58.9782 H   0  0  0  0  0  0  0  0  0  0  0  0
  124.1534  124.7388   57.5656 H   0  0  0  0  0  0  0  0  0  0  0  0
  123.7411  122.9904   57.5656 H   0  0  0  0  0  0  0  0  0  0  0  0
  125.5542  122.4287   58.8677 H   0  0  0  0  0  0  0  0  0  0  0  0
  126.2190  123.9713   58.2345 H   0  0  0  0  0  0  0  0  0  0  0  0
  127.7392  123.4719   59.3153 H   0  0  0  0  0  0  0  0  0  0  0  0
  130.1685  123.0695   59.6380 H   0  0  0  0  0  0  0  0  0  0  0  0
  131.8240  122.8530   62.5210 H   0  0  0  0  0  0  0  0  0  0  0  0
  133.7778  121.1563   62.3444 H   0  0  0  0  0  0  0  0  0  0  0  0
  134.1798  121.0547   60.5668 H   0  0  0  0  0  0  0  0  0  0  0  0
  131.6462  124.9516   66.0679 H   0  0  0  0  0  0  0  0  0  0  0  0
  133.4366  124.9653   65.9227 H   0  0  0  0  0  0  0  0  0  0  0  0
  132.5236  126.5123   65.9227 H   0  0  0  0  0  0  0  0  0  0  0  0
  130.7379  126.7874   63.9527 H   0  0  0  0  0  0  0  0  0  0  0  0
  129.4637  122.1079   63.7931 H   0  0  0  0  0  0  0  0  0  0  0  0
  127.0344  122.5261   63.4751 H   0  0  0  0  0  0  0  0  0  0  0  0
  1  2  1  0
  2  3  1  0
  3  4  1  0
  4  5  2  0
  4  6  1  0
  6  7  2  0
  7  8  1  0
  8  9  2  0
  9 10  1  0
 10 11  1  0
 11 12  2  0
 11 13  1  0
 13 14  1  0
 14 15  1  0
 15 16  2  0
 16 17  1  0
 17 18  1  0
 17 19  2  0
 19 20  1  0
 20 21  1  0
 21 22  1  0
 21 23  1  0
 21 24  1  0
 20 25  2  0
 25 26  1  0
 26 27  3  0
  9 28  1  0
 28 29  2  0
 29  6  1  0
 25 15  1  0
  1 30  1  0
  1 31  1  0
  1 32  1  0
  2 33  1  0
  2 34  1  0
  7 35  1  0
  8 36  1  0
 10 37  1  0
 13 38  1  0
 13 39  1  0
 18 40  1  0
 18 41  1  0
 18 42  1  0
 19 43  1  0
 28 44  1  0
 29 45  1  0
M  END
>  <Binding energies>  (1) 
[-6.41]

>  <Ligand effiencies>  (1) 
[-0.21366666666666667]

>  <Interactions>  (1) 
["V-B:LEU:363:CD1:8161, V-A:ARG:545:CD:4923, V-B:PRO:540:CB:9857, V-A:ARG:545:CZ:4926, V-B:PRO:540:CA:9855, V-B:PRO:540:N:9856, V-B:GLU:543:CD:9880, V-A:ILE:369:CD1:3239, V-A:TYR:484:CZ:4347, V-A:TYR:484:CE2:4346, V-A:ARG:545:CG:4922, V-B:PRO:540:C:9853, H-B:ALA:541:N:9863, V-A:HIS:456:CE1:4070, V-B:ASP:366:CG:8185, V-A:LEU:475:CD2:4259, H-A:TYR:484:OH:4348, V-B:ALA:541:CA:9862, V-B:ALA:541:CB:9864, V-A:GLU:543:CD:4908, V-A:GLY:454:CA:4049, H-A:GLY:454:N:4050, V-A:ILE:369:CG2:3237, H-A:ARG:545:NH2:4928, V-A:ASP:366:CG:3213, V-B:GLU:543:CG:9879, V-A:TYR:484:CE1:4345, H-B:TYR:539:OH:9850, V-B:LEU:363:CA:8157"]

$$$$
2aa_Ghoteimi_2023
     RDKit          3D

 85 90  0  0  0  0  0  0  0  0999 V2000
  131.4960  131.3320   60.0920 C   0  0  0  0  0  0  0  0  0  0  0  0
  130.9790  130.9770   58.6940 C   0  0  0  0  0  0  0  0  0  0  0  0
  130.6870  132.1720   57.9820 O   0  0  0  0  0  0  0  0  0  0  0  0
  129.4440  132.4110   57.4890 C   0  0  0  0  0  0  0  0  0  0  0  0
  129.2360  133.0270   56.4380 O   0  0  0  0  0  0  0  0  0  0  0  0
  128.3480  131.8370   58.3400 C   0  0  0  0  0  0  0  0  0  0  0  0
  128.0890  132.3120   59.6340 C   0  0  0  0  0  0  0  0  0  0  0  0
  127.0640  131.7620   60.3970 C   0  0  0  0  0  0  0  0  0  0  0  0
  126.2820  130.7230   59.8880 C   0  0  0  0  0  0  0  0  0  0  0  0
  125.2700  130.2440   60.7430 N   0  0  0  0  0  0  0  0  0  0  0  0
  124.6300  130.8640   61.7570 C   0  0  0  0  0  0  0  0  0  0  0  0
  124.8170  132.0320   62.1050 O   0  0  0  0  0  0  0  0  0  0  0  0
  123.5850  130.0000   62.4750 C   0  0  0  0  0  0  0  0  0  0  0  0
  124.0280  129.7160   63.8060 O   0  0  0  0  0  0  0  0  0  0  0  0
  125.2970  129.1950   64.0220 C   0  0  0  0  0  0  0  0  0  0  0  0
  126.0500  128.8710   62.9340 N   0  0  0  0  0  0  0  0  0  0  0  0
  127.2950  128.3630   63.1100 C   0  0  0  0  0  0  0  0  0  0  0  0
  128.0610  128.0260   61.8700 C   0  0  0  0  0  0  0  0  0  0  0  0
  129.2730  128.6640   61.5830 C   0  0  0  0  0  0  0  0  0  0  0  0
  129.9930  128.3490   60.4330 C   0  0  0  0  0  0  0  0  0  0  0  0
  129.5350  127.3740   59.5340 C   0  0  0  0  0  0  0  0  0  0  0  0
  130.2400  127.0550   58.3680 N   0  0  0  0  0  0  0  0  0  0  0  0
  131.5730  127.6290   58.0930 C   0  0  0  0  0  0  0  0  0  0  0  0
  132.0360  127.4570   56.6310 C   0  0  0  0  0  0  0  0  0  0  0  0
  131.9880  126.0870   56.2650 O   0  0  0  0  0  0  0  0  0  0  0  0
  130.6710  125.5680   56.3670 C   0  0  0  0  0  0  0  0  0  0  0  0
  130.1680  125.6840   57.8220 C   0  0  0  0  0  0  0  0  0  0  0  0
  128.3090  126.7530   59.8150 C   0  0  0  0  0  0  0  0  0  0  0  0
  127.5880  127.0710   60.9630 C   0  0  0  0  0  0  0  0  0  0  0  0
  127.8150  128.1510   64.3900 C   0  0  0  0  0  0  0  0  0  0  0  0
  127.0580  128.4660   65.5250 C   0  0  0  0  0  0  0  0  0  0  0  0
  127.6570  128.1930   66.8670 C   0  0  0  0  0  0  0  0  0  0  0  0
  128.7480  128.9410   67.3180 C   0  0  0  0  0  0  0  0  0  0  0  0
  129.3230  128.6790   68.5590 C   0  0  0  0  0  0  0  0  0  0  0  0
  128.8330  127.6500   69.3780 C   0  0  0  0  0  0  0  0  0  0  0  0
  129.3930  127.3710   70.6280 N   0  0  0  0  0  0  0  0  0  0  0  0
  128.6860  126.5370   71.6190 C   0  0  0  0  0  0  0  0  0  0  0  0
  129.5900  126.0520   72.7710 C   0  0  0  0  0  0  0  0  0  0  0  0
  130.2140  127.1620   73.3980 O   0  0  0  0  0  0  0  0  0  0  0  0
  131.0190  127.8930   72.4860 C   0  0  0  0  0  0  0  0  0  0  0  0
  130.1530  128.4270   71.3270 C   0  0  0  0  0  0  0  0  0  0  0  0
  127.7350  126.9100   68.9200 C   0  0  0  0  0  0  0  0  0  0  0  0
  127.1590  127.1720   67.6810 C   0  0  0  0  0  0  0  0  0  0  0  0
  125.7690  129.0160   65.3350 C   0  0  0  0  0  0  0  0  0  0  0  0
  124.9260  129.4210   66.4620 C   0  0  0  0  0  0  0  0  0  0  0  0
  124.2610  129.7410   67.3540 N   0  0  0  0  0  0  0  0  0  0  0  0
  126.5300  130.2480   58.5920 C   0  0  0  0  0  0  0  0  0  0  0  0
  127.5550  130.8020   57.8300 C   0  0  0  0  0  0  0  0  0  0  0  0
  130.8397  130.8813   60.8510 H   0  0  0  0  0  0  0  0  0  0  0  0
  132.5181  130.9444   60.2143 H   0  0  0  0  0  0  0  0  0  0  0  0
  131.5013  132.4252   60.2143 H   0  0  0  0  0  0  0  0  0  0  0  0
  131.7473  130.4055   58.1526 H   0  0  0  0  0  0  0  0  0  0  0  0
  130.0663  130.3694   58.7827 H   0  0  0  0  0  0  0  0  0  0  0  0
  128.7014  133.1261   60.0490 H   0  0  0  0  0  0  0  0  0  0  0  0
  126.8682  132.1482   61.4082 H   0  0  0  0  0  0  0  0  0  0  0  0
  124.9600  129.3070   60.5290 H   0  0  0  0  0  0  0  0  0  0  0  0
  122.6282  130.5411   62.5155 H   0  0  0  0  0  0  0  0  0  0  0  0
  123.4520  129.0564   61.9256 H   0  0  0  0  0  0  0  0  0  0  0  0
  129.6625  129.4249   62.2753 H   0  0  0  0  0  0  0  0  0  0  0  0
  130.9373  128.8739   60.2260 H   0  0  0  0  0  0  0  0  0  0  0  0
  131.5416  128.7043   58.3225 H   0  0  0  0  0  0  0  0  0  0  0  0
  132.2921  127.0847   58.7228 H   0  0  0  0  0  0  0  0  0  0  0  0
  131.3740  128.0344   55.9689 H   0  0  0  0  0  0  0  0  0  0  0  0
  133.0696  127.8207   56.5343 H   0  0  0  0  0  0  0  0  0  0  0  0
  130.0029  126.1375   55.7043 H   0  0  0  0  0  0  0  0  0  0  0  0
  130.6768  124.5087   56.0707 H   0  0  0  0  0  0  0  0  0  0  0  0
  129.1198  125.3519   57.8546 H   0  0  0  0  0  0  0  0  0  0  0  0
  130.8266  125.0567   58.4407 H   0  0  0  0  0  0  0  0  0  0  0  0
  127.9105  126.0022   59.1168 H   0  0  0  0  0  0  0  0  0  0  0  0
  126.6320  126.5638   61.1600 H   0  0  0  0  0  0  0  0  0  0  0  0
  128.8261  127.7337   64.5065 H   0  0  0  0  0  0  0  0  0  0  0  0
  129.1563  129.7441   66.6869 H   0  0  0  0  0  0  0  0  0  0  0  0
  130.1731  129.2870   68.9021 H   0  0  0  0  0  0  0  0  0  0  0  0
  127.8627  127.1276   72.0473 H   0  0  0  0  0  0  0  0  0  0  0  0
  128.3260  125.6417   71.0909 H   0  0  0  0  0  0  0  0  0  0  0  0
  128.9802  125.5115   73.5099 H   0  0  0  0  0  0  0  0  0  0  0  0
  130.3641  125.3836   72.3660 H   0  0  0  0  0  0  0  0  0  0  0  0
  131.4869  128.7391   73.0106 H   0  0  0  0  0  0  0  0  0  0  0  0
  131.7964  127.2295   72.0792 H   0  0  0  0  0  0  0  0  0  0  0  0
  129.4396  129.1591   71.7333 H   0  0  0  0  0  0  0  0  0  0  0  0
  130.8363  128.8764   70.5914 H   0  0  0  0  0  0  0  0  0  0  0  0
  127.3216  126.1088   69.5503 H   0  0  0  0  0  0  0  0  0  0  0  0
  126.3041  126.5702   67.3391 H   0  0  0  0  0  0  0  0  0  0  0  0
  125.9139  129.4367   58.1770 H   0  0  0  0  0  0  0  0  0  0  0  0
  127.7441  130.4220   56.8152 H   0  0  0  0  0  0  0  0  0  0  0  0
  1  2  1  0
  2  3  1  0
  3  4  1  0
  4  5  2  0
  4  6  1  0
  6  7  2  0
  7  8  1  0
  8  9  2  0
  9 10  1  0
 10 11  1  0
 11 12  2  0
 11 13  1  0
 13 14  1  0
 14 15  1  0
 15 16  2  0
 16 17  1  0
 17 18  1  0
 18 19  2  0
 19 20  1  0
 20 21  2  0
 21 22  1  0
 22 23  1  0
 23 24  1  0
 24 25  1  0
 25 26  1  0
 26 27  1  0
 21 28  1  0
 28 29  2  0
 17 30  2  0
 30 31  1  0
 31 32  1  0
 32 33  2  0
 33 34  1  0
 34 35  2  0
 35 36  1  0
 36 37  1  0
 37 38  1  0
 38 39  1  0
 39 40  1  0
 40 41  1  0
 35 42  1  0
 42 43  2  0
 31 44  2  0
 44 45  1  0
 45 46  3  0
  9 47  1  0
 47 48  2  0
 48  6  1  0
 44 15  1  0
 29 18  1  0
 43 32  1  0
 27 22  1  0
 41 36  1  0
  1 49  1  0
  1 50  1  0
  1 51  1  0
  2 52  1  0
  2 53  1  0
  7 54  1  0
  8 55  1  0
 10 56  1  0
 13 57  1  0
 13 58  1  0
 19 59  1  0
 20 60  1  0
 23 61  1  0
 23 62  1  0
 24 63  1  0
 24 64  1  0
 26 65  1  0
 26 66  1  0
 27 67  1  0
 27 68  1  0
 28 69  1  0
 29 70  1  0
 30 71  1  0
 33 72  1  0
 34 73  1  0
 37 74  1  0
 37 75  1  0
 38 76  1  0
 38 77  1  0
 40 78  1  0
 40 79  1  0
 41 80  1  0
 41 81  1  0
 42 82  1  0
 43 83  1  0
 47 84  1  0
 48 85  1  0
M  END
>  <Binding energies>  (1) 
[-6.15]

>  <Ligand effiencies>  (1) 
[-0.12551020408163266]

>  <Interactions>  (1) 
["V-B:GLU:543:CD:9880, V-A:HIS:456:CE1:4070, V-B:ASP:366:CG:8185, V-A:GLU:543:C:4902, V-B:HIS:456:CE1:9042, V-A:GLY:544:CA:4914, V-B:ARG:545:CZ:9898, V-A:GLU:543:CB:4906, H-B:TYR:484:OH:9320, V-A:GLU:543:CD:4908, V-A:GLU:543:CA:4904, V-A:GLY:544:C:4912, V-A:GLU:543:CG:4907, V-B:TYR:484:CZ:9319, V-A:HIS:456:CG:4066, H-B:GLY:454:N:9022, V-A:HIS:456:CD2:4068, V-A:ASP:366:CG:3213, V-A:ASP:366:CB:3212, H-B:ASP:366:OD2:8187, V-B:TYR:539:CZ:9849, V-B:MET:535:CE:9807, H-B:ARG:545:NH2:9900, V-A:PRO:540:CA:4883, V-A:PRO:540:CB:4885, V-A:PRO:540:N:4884, V-B:ARG:545:CG:9894, V-B:ARG:545:CD:9895, V-A:TYR:531:CZ:4794, H-A:TYR:531:OH:4795, V-A:TYR:539:CD1:4873, V-A:TYR:539:C:4867, H-A:TYR:539:N:4870, V-B:TYR:484:CE1:9317, H-B:ARG:545:NH1:9899, V-B:GLY:453:CA:9016, V-B:GLU:543:CB:9878, V-B:HIS:456:CD2:9040, H-B:LYS:547:NZ:9923, H-B:TYR:539:OH:9850, V-B:LYS:547:CE:9922, H-B:ASP:366:OD1:8186, H-B:HIS:456:ND1:9039"]

$$$$
2b_Ghoteimi_2023
     RDKit          3D

 72 77  0  0  0  0  0  0  0  0999 V2000
  126.5740  131.0610   59.1250 N   0  0  0  0  0  0  0  0  0  0  0  0
  126.8640  130.7360   60.1970 C   0  0  0  0  0  0  0  0  0  0  0  0
  127.2310  130.3180   61.5530 C   0  0  0  0  0  0  0  0  0  0  0  0
  127.3730  128.9440   61.8700 C   0  0  0  0  0  0  0  0  0  0  0  0
  127.1700  127.8400   60.8850 C   0  0  0  0  0  0  0  0  0  0  0  0
  126.6700  126.6050   61.3040 C   0  0  0  0  0  0  0  0  0  0  0  0
  126.4810  125.5730   60.3900 C   0  0  0  0  0  0  0  0  0  0  0  0
  126.8030  125.7410   59.0340 C   0  0  0  0  0  0  0  0  0  0  0  0
  126.6090  124.7250   58.0970 N   0  0  0  0  0  0  0  0  0  0  0  0
  127.7690  123.9300   57.6480 C   0  0  0  0  0  0  0  0  0  0  0  0
  127.4960  123.1200   56.3630 C   0  0  0  0  0  0  0  0  0  0  0  0
  126.3510  122.3000   56.5360 O   0  0  0  0  0  0  0  0  0  0  0  0
  125.1940  123.0690   56.8260 C   0  0  0  0  0  0  0  0  0  0  0  0
  125.4070  123.8680   58.1280 C   0  0  0  0  0  0  0  0  0  0  0  0
  127.3070  126.9830   58.6240 C   0  0  0  0  0  0  0  0  0  0  0  0
  127.4930  128.0170   59.5370 C   0  0  0  0  0  0  0  0  0  0  0  0
  127.7300  128.5940   63.1780 C   0  0  0  0  0  0  0  0  0  0  0  0
  127.9700  129.5840   64.1340 C   0  0  0  0  0  0  0  0  0  0  0  0
  128.3830  129.2640   65.5360 C   0  0  0  0  0  0  0  0  0  0  0  0
  128.2070  130.1980   66.5630 C   0  0  0  0  0  0  0  0  0  0  0  0
  128.5740  129.9010   67.8730 C   0  0  0  0  0  0  0  0  0  0  0  0
  129.1440  128.6610   68.2040 C   0  0  0  0  0  0  0  0  0  0  0  0
  129.4900  128.3370   69.5200 N   0  0  0  0  0  0  0  0  0  0  0  0
  128.8500  127.1840   70.1870 C   0  0  0  0  0  0  0  0  0  0  0  0
  129.0240  127.1820   71.7210 C   0  0  0  0  0  0  0  0  0  0  0  0
  130.4020  127.2620   72.0530 O   0  0  0  0  0  0  0  0  0  0  0  0
  130.9880  128.4530   71.5540 C   0  0  0  0  0  0  0  0  0  0  0  0
  130.8710  128.4960   70.0160 C   0  0  0  0  0  0  0  0  0  0  0  0
  129.3120  127.7250   67.1730 C   0  0  0  0  0  0  0  0  0  0  0  0
  128.9420  128.0220   65.8640 C   0  0  0  0  0  0  0  0  0  0  0  0
  127.8350  130.8990   63.8290 N   0  0  0  0  0  0  0  0  0  0  0  0
  127.4580  131.2620   62.5800 C   0  0  0  0  0  0  0  0  0  0  0  0
  127.3260  133.0230   62.3590 S   0  0  0  0  0  0  0  0  0  0  0  0
  128.0460  133.4270   60.7390 C   0  0  0  0  0  0  0  0  0  0  0  0
  129.2750  132.5730   60.4260 C   0  0  0  0  0  0  0  0  0  0  0  0
  130.1730  132.4760   61.2650 O   0  0  0  0  0  0  0  0  0  0  0  0
  129.2760  131.9790   59.2130 N   0  0  0  0  0  0  0  0  0  0  0  0
  130.2540  131.1480   58.6840 C   0  0  0  0  0  0  0  0  0  0  0  0
  130.8210  130.0910   59.3940 C   0  0  0  0  0  0  0  0  0  0  0  0
  131.7310  129.5270   58.5320 C   0  0  0  0  0  0  0  0  0  0  0  0
  131.7130  130.2080   57.3620 O   0  0  0  0  0  0  0  0  0  0  0  0
  130.7710  131.2330   57.4690 N   0  0  0  0  0  0  0  0  0  0  0  0
  126.4238  126.4470   62.3644 H   0  0  0  0  0  0  0  0  0  0  0  0
  126.0733  124.6114   60.7351 H   0  0  0  0  0  0  0  0  0  0  0  0
  128.6082  124.6149   57.4568 H   0  0  0  0  0  0  0  0  0  0  0  0
  127.9959  123.2072   58.4456 H   0  0  0  0  0  0  0  0  0  0  0  0
  127.3239  123.8129   55.5261 H   0  0  0  0  0  0  0  0  0  0  0  0
  128.3660  122.4819   56.1487 H   0  0  0  0  0  0  0  0  0  0  0  0
  125.0026  123.7665   55.9973 H   0  0  0  0  0  0  0  0  0  0  0  0
  124.3336  122.3952   56.9514 H   0  0  0  0  0  0  0  0  0  0  0  0
  124.5269  124.5067   58.2937 H   0  0  0  0  0  0  0  0  0  0  0  0
  125.5479  123.1382   58.9389 H   0  0  0  0  0  0  0  0  0  0  0  0
  127.5592  127.1428   57.5653 H   0  0  0  0  0  0  0  0  0  0  0  0
  127.8974  128.9810   59.1948 H   0  0  0  0  0  0  0  0  0  0  0  0
  127.8220  127.5333   63.4544 H   0  0  0  0  0  0  0  0  0  0  0  0
  127.7722  131.1817   66.3320 H   0  0  0  0  0  0  0  0  0  0  0  0
  128.4147  130.6506   68.6621 H   0  0  0  0  0  0  0  0  0  0  0  0
  127.7740  127.2039   69.9592 H   0  0  0  0  0  0  0  0  0  0  0  0
  129.3420  126.2771   69.8056 H   0  0  0  0  0  0  0  0  0  0  0  0
  128.4954  128.0466   72.1488 H   0  0  0  0  0  0  0  0  0  0  0  0
  128.6072  126.2501   72.1307 H   0  0  0  0  0  0  0  0  0  0  0  0
  130.4679  129.3221   71.9831 H   0  0  0  0  0  0  0  0  0  0  0  0
  132.0511  128.4772   71.8355 H   0  0  0  0  0  0  0  0  0  0  0  0
  131.2561  129.4650   69.6656 H   0  0  0  0  0  0  0  0  0  0  0  0
  131.4517  127.6470   69.6262 H   0  0  0  0  0  0  0  0  0  0  0  0
  129.7434  126.7395   67.4025 H   0  0  0  0  0  0  0  0  0  0  0  0
  129.0909  127.2699   65.0752 H   0  0  0  0  0  0  0  0  0  0  0  0
  127.2875  133.2553   59.9611 H   0  0  0  0  0  0  0  0  0  0  0  0
  128.3627  134.4801   60.7625 H   0  0  0  0  0  0  0  0  0  0  0  0
  128.4700  132.1270   58.6240 H   0  0  0  0  0  0  0  0  0  0  0  0
  130.5900  129.7761   60.4223 H   0  0  0  0  0  0  0  0  0  0  0  0
  132.3712  128.6612   58.7567 H   0  0  0  0  0  0  0  0  0  0  0  0
  1  2  3  0
  2  3  1  0
  3  4  2  0
  4  5  1  0
  5  6  2  0
  6  7  1  0
  7  8  2  0
  8  9  1  0
  9 10  1  0
 10 11  1  0
 11 12  1  0
 12 13  1  0
 13 14  1  0
  8 15  1  0
 15 16  2  0
  4 17  1  0
 17 18  2  0
 18 19  1  0
 19 20  2  0
 20 21  1  0
 21 22  2  0
 22 23  1  0
 23 24  1  0
 24 25  1  0
 25 26  1  0
 26 27  1  0
 27 28  1  0
 22 29  1  0
 29 30  2  0
 18 31  1  0
 31 32  2  0
 32 33  1  0
 33 34  1  0
 34 35  1  0
 35 36  2  0
 35 37  1  0
 37 38  1  0
 38 39  1  0
 39 40  2  0
 40 41  1  0
 41 42  1  0
 32  3  1  0
 42 38  2  0
 16  5  1  0
 30 19  1  0
 14  9  1  0
 28 23  1  0
  6 43  1  0
  7 44  1  0
 10 45  1  0
 10 46  1  0
 11 47  1  0
 11 48  1  0
 13 49  1  0
 13 50  1  0
 14 51  1  0
 14 52  1  0
 15 53  1  0
 16 54  1  0
 17 55  1  0
 20 56  1  0
 21 57  1  0
 24 58  1  0
 24 59  1  0
 25 60  1  0
 25 61  1  0
 27 62  1  0
 27 63  1  0
 28 64  1  0
 28 65  1  0
 29 66  1  0
 30 67  1  0
 34 68  1  0
 34 69  1  0
 37 70  1  0
 39 71  1  0
 40 72  1  0
M  END
>  <Binding energies>  (1) 
[-6.35]

>  <Ligand effiencies>  (1) 
[-0.14767441860465116]

>  <Interactions>  (1) 
["V-B:PRO:540:CD:9859, V-B:LEU:363:CD1:8161, V-B:PRO:540:CB:9857, V-B:GLU:543:CD:9880, V-A:HIS:456:CE1:4070, V-B:ASP:366:CG:8185, V-A:GLU:543:C:4902, V-B:HIS:456:CE1:9042, V-A:GLY:544:CA:4914, V-A:GLU:543:CB:4906, H-B:TYR:484:OH:9320, V-A:GLU:543:CD:4908, V-A:GLU:543:CA:4904, V-A:GLY:544:C:4912, V-A:GLU:543:CG:4907, V-B:TYR:484:CZ:9319, V-A:HIS:456:CD2:4068, V-A:ASP:366:CG:3213, V-A:ASP:366:CB:3212, V-B:TYR:531:CE2:9765, V-B:TYR:539:CZ:9849, V-B:TYR:539:CE1:9847, V-B:TYR:539:CD1:9845, V-B:MET:535:CE:9807, V-A:PRO:540:CA:4883, V-A:PRO:540:C:4881, H-B:TYR:539:N:9842, H-A:ALA:541:N:4891, V-A:ALA:541:CB:4892, H-A:TYR:531:OH:4795, V-B:HIS:456:CD2:9040, V-B:TYR:484:CE2:9318, H-A:TYR:539:O:4868"]

$$$$
2b_Grossjean_2025
     RDKit          3D

 42 43  0  0  0  0  0  0  0  0999 V2000
  132.3210  126.8530   73.8330 C   0  0  0  0  0  0  0  0  0  0  0  0
  131.0110  126.5630   73.3660 O   0  0  0  0  0  0  0  0  0  0  0  0
  130.1460  127.5590   73.0460 C   0  0  0  0  0  0  0  0  0  0  0  0
  129.6820  128.3490   73.8750 O   0  0  0  0  0  0  0  0  0  0  0  0
  129.8060  127.6040   71.5850 C   0  0  0  0  0  0  0  0  0  0  0  0
  130.5420  128.3780   70.6750 C   0  0  0  0  0  0  0  0  0  0  0  0
  130.1990  128.3990   69.3260 C   0  0  0  0  0  0  0  0  0  0  0  0
  129.1240  127.6450   68.8570 C   0  0  0  0  0  0  0  0  0  0  0  0
  128.8610  127.7430   67.4780 N   0  0  0  0  0  0  0  0  0  0  0  0
  128.5200  128.8210   66.7400 C   0  0  0  0  0  0  0  0  0  0  0  0
  128.3470  129.9590   67.1780 O   0  0  0  0  0  0  0  0  0  0  0  0
  128.3270  128.5540   65.2440 C   0  0  0  0  0  0  0  0  0  0  0  0
  126.6690  129.0140   64.6410 S   0  0  0  0  0  0  0  0  0  0  0  0
  126.7790  129.6320   62.9670 C   0  0  0  0  0  0  0  0  0  0  0  0
  126.1360  128.8970   62.0240 N   0  0  0  0  0  0  0  0  0  0  0  0
  126.1810  129.3030   60.7360 C   0  0  0  0  0  0  0  0  0  0  0  0
  125.4480  128.4200   59.7440 C   0  0  0  0  0  0  0  0  0  0  0  0
  126.8540  130.4530   60.3340 C   0  0  0  0  0  0  0  0  0  0  0  0
  127.5200  131.2320   61.2920 C   0  0  0  0  0  0  0  0  0  0  0  0
  128.2570  132.5040   60.8310 C   0  0  0  0  0  0  0  0  0  0  0  0
  127.6740  133.5840   61.3550 F   0  0  0  0  0  0  0  0  0  0  0  0
  129.5300  132.4650   61.2260 F   0  0  0  0  0  0  0  0  0  0  0  0
  128.2540  132.6510   59.5040 F   0  0  0  0  0  0  0  0  0  0  0  0
  127.4870  130.8150   62.6470 C   0  0  0  0  0  0  0  0  0  0  0  0
  128.1700  131.5880   63.6890 C   0  0  0  0  0  0  0  0  0  0  0  0
  128.7090  132.1980   64.5110 N   0  0  0  0  0  0  0  0  0  0  0  0
  128.3780  126.8740   69.7610 C   0  0  0  0  0  0  0  0  0  0  0  0
  128.7210  126.8550   71.1100 C   0  0  0  0  0  0  0  0  0  0  0  0
  132.3262  126.8542   74.9330 H   0  0  0  0  0  0  0  0  0  0  0  0
  133.0197  126.0878   73.4638 H   0  0  0  0  0  0  0  0  0  0  0  0
  132.6314  127.8416   73.4638 H   0  0  0  0  0  0  0  0  0  0  0  0
  131.3965  128.9727   71.0303 H   0  0  0  0  0  0  0  0  0  0  0  0
  130.7806  129.0152   68.6246 H   0  0  0  0  0  0  0  0  0  0  0  0
  128.8900  126.8620   66.9870 H   0  0  0  0  0  0  0  0  0  0  0  0
  129.0758  129.1349   64.6856 H   0  0  0  0  0  0  0  0  0  0  0  0
  128.4434  127.4715   65.0872 H   0  0  0  0  0  0  0  0  0  0  0  0
  124.8376  127.6847   60.2888 H   0  0  0  0  0  0  0  0  0  0  0  0
  124.7964  129.0412   59.1119 H   0  0  0  0  0  0  0  0  0  0  0  0
  126.1785  127.8938   59.1119 H   0  0  0  0  0  0  0  0  0  0  0  0
  126.8636  130.7485   59.2745 H   0  0  0  0  0  0  0  0  0  0  0  0
  127.5212  126.2839   69.4035 H   0  0  0  0  0  0  0  0  0  0  0  0
  128.1333  126.2447   71.8116 H   0  0  0  0  0  0  0  0  0  0  0  0
  1  2  1  0
  2  3  1  0
  3  4  2  0
  3  5  1  0
  5  6  2  0
  6  7  1  0
  7  8  2  0
  8  9  1  0
  9 10  1  0
 10 11  2  0
 10 12  1  0
 12 13  1  0
 13 14  1  0
 14 15  2  0
 15 16  1  0
 16 17  1  0
 16 18  2  0
 18 19  1  0
 19 20  1  0
 20 21  1  0
 20 22  1  0
 20 23  1  0
 19 24  2  0
 24 25  1  0
 25 26  3  0
  8 27  1  0
 27 28  2  0
 28  5  1  0
 24 14  1  0
  1 29  1  0
  1 30  1  0
  1 31  1  0
  6 32  1  0
  7 33  1  0
  9 34  1  0
 12 35  1  0
 12 36  1  0
 17 37  1  0
 17 38  1  0
 17 39  1  0
 18 40  1  0
 27 41  1  0
 28 42  1  0
M  END
>  <Binding energies>  (1) 
[-5.82]

>  <Ligand effiencies>  (1) 
[-0.2006896551724138]

>  <Interactions>  (1) 
["V-B:GLU:543:CD:9880, V-A:HIS:456:CE1:4070, V-B:ASP:366:CG:8185, V-A:GLU:543:C:4902, V-B:HIS:456:CE1:9042, V-A:GLY:544:CA:4914, V-A:GLU:543:CB:4906, H-B:TYR:484:OH:9320, V-A:GLU:543:CD:4908, V-A:GLY:544:C:4912, V-A:GLU:543:CG:4907, V-A:HIS:456:CG:4066, V-B:LEU:475:CD2:9231, V-A:HIS:456:CD2:4068, H-A:GLU:543:OE2:4910, H-B:GLU:543:OE2:9882, V-B:ASP:366:CB:8184, H-B:ARG:545:NH2:9900, V-A:PRO:540:CA:4883, V-A:PRO:540:C:4881, V-A:ALA:541:CB:4892, V-A:TYR:539:CD1:4873, V-A:TYR:539:C:4867, V-B:HIS:456:CD2:9040, H-A:LYS:547:NZ:4951, V-B:TYR:484:CE2:9318, V-A:ALA:541:CA:4890, V-A:HIS:456:CB:4065"]

$$$$
2c_Ghoteimi_2023
     RDKit          3D

 72 77  0  0  0  0  0  0  0  0999 V2000
  126.1370  130.7990   58.6730 N   0  0  0  0  0  0  0  0  0  0  0  0
  126.4580  130.5050   59.7450 C   0  0  0  0  0  0  0  0  0  0  0  0
  126.8670  130.1270   61.1010 C   0  0  0  0  0  0  0  0  0  0  0  0
  127.0110  128.7620   61.4570 C   0  0  0  0  0  0  0  0  0  0  0  0
  126.7640  127.6270   60.5170 C   0  0  0  0  0  0  0  0  0  0  0  0
  126.7630  127.8440   59.1380 C   0  0  0  0  0  0  0  0  0  0  0  0
  126.5380  126.7910   58.2560 C   0  0  0  0  0  0  0  0  0  0  0  0
  126.2950  125.4920   58.7290 C   0  0  0  0  0  0  0  0  0  0  0  0
  126.0870  124.4170   57.8620 N   0  0  0  0  0  0  0  0  0  0  0  0
  127.1940  123.4760   57.6010 C   0  0  0  0  0  0  0  0  0  0  0  0
  126.9610  122.5900   56.3580 C   0  0  0  0  0  0  0  0  0  0  0  0
  125.7270  121.8990   56.4780 O   0  0  0  0  0  0  0  0  0  0  0  0
  124.6320  122.7960   56.5870 C   0  0  0  0  0  0  0  0  0  0  0  0
  124.8040  123.6880   57.8350 C   0  0  0  0  0  0  0  0  0  0  0  0
  126.2950  125.2850   60.1160 C   0  0  0  0  0  0  0  0  0  0  0  0
  126.5210  126.3380   60.9970 C   0  0  0  0  0  0  0  0  0  0  0  0
  127.4070  128.4530   62.7640 C   0  0  0  0  0  0  0  0  0  0  0  0
  127.6790  129.4710   63.6820 C   0  0  0  0  0  0  0  0  0  0  0  0
  128.1210  129.1930   65.0830 C   0  0  0  0  0  0  0  0  0  0  0  0
  128.7960  128.0100   65.3970 C   0  0  0  0  0  0  0  0  0  0  0  0
  129.2160  127.7470   66.6990 C   0  0  0  0  0  0  0  0  0  0  0  0
  128.9640  128.6560   67.7390 C   0  0  0  0  0  0  0  0  0  0  0  0
  129.4010  128.4190   69.0470 N   0  0  0  0  0  0  0  0  0  0  0  0
  128.8900  127.2510   69.7930 C   0  0  0  0  0  0  0  0  0  0  0  0
  129.1440  127.3270   71.3130 C   0  0  0  0  0  0  0  0  0  0  0  0
  130.5260  127.5220   71.5660 O   0  0  0  0  0  0  0  0  0  0  0  0
  130.9940  128.7310   70.9880 C   0  0  0  0  0  0  0  0  0  0  0  0
  130.7920  128.7000   69.4580 C   0  0  0  0  0  0  0  0  0  0  0  0
  128.2980  129.8470   67.4170 C   0  0  0  0  0  0  0  0  0  0  0  0
  127.8810  130.1090   66.1140 C   0  0  0  0  0  0  0  0  0  0  0  0
  127.5430  130.7780   63.3380 N   0  0  0  0  0  0  0  0  0  0  0  0
  127.1310  131.1020   62.0890 C   0  0  0  0  0  0  0  0  0  0  0  0
  126.9970  132.8540   61.8170 S   0  0  0  0  0  0  0  0  0  0  0  0
  128.0060  133.2580   60.3590 C   0  0  0  0  0  0  0  0  0  0  0  0
  129.3800  132.5880   60.4090 C   0  0  0  0  0  0  0  0  0  0  0  0
  129.9030  132.3620   61.5010 O   0  0  0  0  0  0  0  0  0  0  0  0
  129.9280  132.2930   59.2100 N   0  0  0  0  0  0  0  0  0  0  0  0
  131.1480  131.6730   58.9860 C   0  0  0  0  0  0  0  0  0  0  0  0
  132.2820  131.8650   59.6260 N   0  0  0  0  0  0  0  0  0  0  0  0
  133.2430  131.0980   59.1510 C   0  0  0  0  0  0  0  0  0  0  0  0
  132.8950  130.2570   58.0980 C   0  0  0  0  0  0  0  0  0  0  0  0
  131.2150  130.4920   57.7180 S   0  0  0  0  0  0  0  0  0  0  0  0
  126.9415  128.8558   58.7451 H   0  0  0  0  0  0  0  0  0  0  0  0
  126.5508  126.9796   57.1724 H   0  0  0  0  0  0  0  0  0  0  0  0
  128.1165  124.0555   57.4490 H   0  0  0  0  0  0  0  0  0  0  0  0
  127.2645  122.8060   58.4706 H   0  0  0  0  0  0  0  0  0  0  0  0
  126.9379  123.2231   55.4587 H   0  0  0  0  0  0  0  0  0  0  0  0
  127.7782  121.8579   56.2784 H   0  0  0  0  0  0  0  0  0  0  0  0
  124.5893  123.4299   55.6890 H   0  0  0  0  0  0  0  0  0  0  0  0
  123.7000  122.2192   56.6805 H   0  0  0  0  0  0  0  0  0  0  0  0
  123.9852  124.4223   57.8543 H   0  0  0  0  0  0  0  0  0  0  0  0
  124.7886  123.0251   58.7126 H   0  0  0  0  0  0  0  0  0  0  0  0
  126.1137  124.2754   60.5133 H   0  0  0  0  0  0  0  0  0  0  0  0
  126.5082  126.1537   62.0814 H   0  0  0  0  0  0  0  0  0  0  0  0
  127.5047  127.4011   63.0705 H   0  0  0  0  0  0  0  0  0  0  0  0
  128.9987  127.2753   64.6038 H   0  0  0  0  0  0  0  0  0  0  0  0
  129.7537  126.8122   66.9158 H   0  0  0  0  0  0  0  0  0  0  0  0
  127.8052  127.1791   69.6252 H   0  0  0  0  0  0  0  0  0  0  0  0
  129.4314  126.3691   69.4201 H   0  0  0  0  0  0  0  0  0  0  0  0
  128.5744  128.1677   71.7357 H   0  0  0  0  0  0  0  0  0  0  0  0
  128.8214  126.3847   71.7800 H   0  0  0  0  0  0  0  0  0  0  0  0
  130.4341  129.5776   71.4119 H   0  0  0  0  0  0  0  0  0  0  0  0
  132.0659  128.8439   71.2076 H   0  0  0  0  0  0  0  0  0  0  0  0
  131.0836  129.6789   69.0495 H   0  0  0  0  0  0  0  0  0  0  0  0
  131.4135  127.8801   69.0688 H   0  0  0  0  0  0  0  0  0  0  0  0
  128.1014  130.5871   68.2067 H   0  0  0  0  0  0  0  0  0  0  0  0
  127.3554  131.0495   65.8919 H   0  0  0  0  0  0  0  0  0  0  0  0
  127.4777  132.9176   59.4562 H   0  0  0  0  0  0  0  0  0  0  0  0
  128.1597  134.3471   60.3436 H   0  0  0  0  0  0  0  0  0  0  0  0
  129.3940  132.5200   58.3840 H   0  0  0  0  0  0  0  0  0  0  0  0
  134.2625  131.1213   59.5635 H   0  0  0  0  0  0  0  0  0  0  0  0
  133.5734  129.5568   57.5886 H   0  0  0  0  0  0  0  0  0  0  0  0
  1  2  3  0
  2  3  1  0
  3  4  2  0
  4  5  1  0
  5  6  2  0
  6  7  1  0
  7  8  2  0
  8  9  1  0
  9 10  1  0
 10 11  1  0
 11 12  1  0
 12 13  1  0
 13 14  1  0
  8 15  1  0
 15 16  2  0
  4 17  1  0
 17 18  2  0
 18 19  1  0
 19 20  2  0
 20 21  1  0
 21 22  2  0
 22 23  1  0
 23 24  1  0
 24 25  1  0
 25 26  1  0
 26 27  1  0
 27 28  1  0
 22 29  1  0
 29 30  2  0
 18 31  1  0
 31 32  2  0
 32 33  1  0
 33 34  1  0
 34 35  1  0
 35 36  2  0
 35 37  1  0
 37 38  1  0
 38 39  2  0
 39 40  1  0
 40 41  2  0
 41 42  1  0
 32  3  1  0
 42 38  1  0
 16  5  1  0
 30 19  1  0
 14  9  1  0
 28 23  1  0
  6 43  1  0
  7 44  1  0
 10 45  1  0
 10 46  1  0
 11 47  1  0
 11 48  1  0
 13 49  1  0
 13 50  1  0
 14 51  1  0
 14 52  1  0
 15 53  1  0
 16 54  1  0
 17 55  1  0
 20 56  1  0
 21 57  1  0
 24 58  1  0
 24 59  1  0
 25 60  1  0
 25 61  1  0
 27 62  1  0
 27 63  1  0
 28 64  1  0
 28 65  1  0
 29 66  1  0
 30 67  1  0
 34 68  1  0
 34 69  1  0
 37 70  1  0
 40 71  1  0
 41 72  1  0
M  END
>  <Binding energies>  (1) 
[-5.93]

>  <Ligand effiencies>  (1) 
[-0.13790697674418603]

>  <Interactions>  (1) 
["V-B:PRO:540:CD:9859, V-B:LEU:363:CD1:8161, V-B:ILE:538:CD1:9837, V-B:PRO:540:CB:9857, V-B:TYR:539:C:9839, V-B:PRO:540:N:9856, V-B:GLU:543:CD:9880, V-B:ILE:538:CG2:9835, V-A:HIS:456:CE1:4070, V-B:ASP:366:CG:8185, V-A:GLU:543:C:4902, V-B:HIS:456:CE1:9042, V-A:GLY:544:CA:4914, V-A:GLU:543:CB:4906, H-B:TYR:484:OH:9320, V-A:GLU:543:CD:4908, V-A:GLU:543:CA:4904, V-A:GLY:544:C:4912, V-A:GLU:543:CG:4907, V-B:TYR:484:CZ:9319, V-A:HIS:456:CD2:4068, V-A:ASP:366:CG:3213, V-A:ASP:366:CB:3212, V-B:TYR:531:CE2:9765, V-B:TYR:539:CE1:9847, V-B:TYR:539:CD1:9845, V-A:PRO:540:CA:4883, V-A:PRO:540:CB:4885, V-A:PRO:540:N:4884, V-A:PRO:540:C:4881, H-B:TYR:539:N:9842, H-A:ALA:541:N:4891, V-A:ALA:541:CB:4892, V-A:LEU:363:CA:3185, V-A:TYR:539:C:4867, V-B:HIS:456:CD2:9040, V-B:TYR:484:CE2:9318, H-A:TYR:539:O:4868"]

$$$$
2c_Grossjean_2025
     RDKit          3D

 40 41  0  0  0  0  0  0  0  0999 V2000
  124.2700  123.4750   61.9050 C   0  0  0  0  0  0  0  0  0  0  0  0
  124.9150  123.6470   60.6470 O   0  0  0  0  0  0  0  0  0  0  0  0
  126.2510  123.3180   60.5240 C   0  0  0  0  0  0  0  0  0  0  0  0
  126.9490  123.0960   61.7110 C   0  0  0  0  0  0  0  0  0  0  0  0
  128.3000  122.7600   61.6890 C   0  0  0  0  0  0  0  0  0  0  0  0
  128.9750  122.6540   60.4640 C   0  0  0  0  0  0  0  0  0  0  0  0
  130.3320  122.3030   60.3410 N   0  0  0  0  0  0  0  0  0  0  0  0
  131.1120  121.6350   61.2180 C   0  0  0  0  0  0  0  0  0  0  0  0
  130.7500  121.2600   62.3350 O   0  0  0  0  0  0  0  0  0  0  0  0
  132.5530  121.3890   60.7440 C   0  0  0  0  0  0  0  0  0  0  0  0
  133.6560  122.8450   60.7970 S   0  0  0  0  0  0  0  0  0  0  0  0
  132.8660  124.1560   61.7220 C   0  0  0  0  0  0  0  0  0  0  0  0
  133.2880  124.3070   63.0040 N   0  0  0  0  0  0  0  0  0  0  0  0
  132.7290  125.2720   63.7660 C   0  0  0  0  0  0  0  0  0  0  0  0
  133.2420  125.3660   65.1900 C   0  0  0  0  0  0  0  0  0  0  0  0
  131.7400  126.1280   63.2880 C   0  0  0  0  0  0  0  0  0  0  0  0
  131.2940  125.9960   61.9660 C   0  0  0  0  0  0  0  0  0  0  0  0
  130.2000  126.9520   61.4500 C   0  0  0  0  0  0  0  0  0  0  0  0
  129.5050  127.4450   62.4760 F   0  0  0  0  0  0  0  0  0  0  0  0
  130.7540  127.9610   60.7780 F   0  0  0  0  0  0  0  0  0  0  0  0
  129.3350  126.3500   60.6310 F   0  0  0  0  0  0  0  0  0  0  0  0
  131.8690  124.9830   61.1560 C   0  0  0  0  0  0  0  0  0  0  0  0
  131.4390  124.7980   59.7650 C   0  0  0  0  0  0  0  0  0  0  0  0
  131.1000  124.6520   58.6680 N   0  0  0  0  0  0  0  0  0  0  0  0
  128.2770  122.8600   59.2730 C   0  0  0  0  0  0  0  0  0  0  0  0
  126.9270  123.1940   59.3000 C   0  0  0  0  0  0  0  0  0  0  0  0
  124.9891  123.6668   62.7150 H   0  0  0  0  0  0  0  0  0  0  0  0
  123.4299  124.1805   61.9858 H   0  0  0  0  0  0  0  0  0  0  0  0
  123.8928  122.4449   61.9858 H   0  0  0  0  0  0  0  0  0  0  0  0
  126.4266  123.1873   62.6747 H   0  0  0  0  0  0  0  0  0  0  0  0
  128.8375  122.5779   62.6313 H   0  0  0  0  0  0  0  0  0  0  0  0
  130.7850  122.6560   59.5110 H   0  0  0  0  0  0  0  0  0  0  0  0
  132.9914  120.6079   61.3825 H   0  0  0  0  0  0  0  0  0  0  0  0
  132.4785  121.1041   59.6842 H   0  0  0  0  0  0  0  0  0  0  0  0
  132.4082  125.2132   65.8910 H   0  0  0  0  0  0  0  0  0  0  0  0
  134.0069  124.5931   65.3560 H   0  0  0  0  0  0  0  0  0  0  0  0
  133.6831  126.3599   65.3560 H   0  0  0  0  0  0  0  0  0  0  0  0
  131.3123  126.9015   63.9428 H   0  0  0  0  0  0  0  0  0  0  0  0
  128.7967  122.7578   58.3089 H   0  0  0  0  0  0  0  0  0  0  0  0
  126.3861  123.3619   58.3570 H   0  0  0  0  0  0  0  0  0  0  0  0
  1  2  1  0
  2  3  1  0
  3  4  2  0
  4  5  1  0
  5  6  2  0
  6  7  1  0
  7  8  1  0
  8  9  2  0
  8 10  1  0
 10 11  1  0
 11 12  1  0
 12 13  2  0
 13 14  1  0
 14 15  1  0
 14 16  2  0
 16 17  1  0
 17 18  1  0
 18 19  1  0
 18 20  1  0
 18 21  1  0
 17 22  2  0
 22 23  1  0
 23 24  3  0
  6 25  1  0
 25 26  2  0
 26  3  1  0
 22 12  1  0
  1 27  1  0
  1 28  1  0
  1 29  1  0
  4 30  1  0
  5 31  1  0
  7 32  1  0
 10 33  1  0
 10 34  1  0
 15 35  1  0
 15 36  1  0
 15 37  1  0
 16 38  1  0
 25 39  1  0
 26 40  1  0
M  END
>  <Binding energies>  (1) 
[-5.99]

>  <Ligand effiencies>  (1) 
[-0.22185185185185186]

>  <Interactions>  (1) 
["V-A:ARG:545:CD:4923, V-B:PRO:540:CB:9857, V-A:ARG:545:CZ:4926, V-B:TYR:539:C:9839, V-B:PRO:540:CA:9855, V-B:PRO:540:N:9856, V-B:GLU:543:CD:9880, V-A:TYR:484:CZ:4347, V-A:TYR:484:CE2:4346, V-B:TYR:539:CE2:9848, V-A:ARG:545:CG:4922, V-B:PRO:540:C:9853, V-A:LEU:475:CD2:4259, H-A:TYR:484:OH:4348, V-B:TYR:539:CD2:9846, V-B:ARG:545:CZ:9898, V-A:GLU:543:CD:4908, H-A:GLY:454:N:4050, V-A:ILE:369:CG2:3237, V-B:ASN:362:CB:8148, H-B:TYR:539:OH:9850"]

$$$$
2d_Ghoteimi_2023
     RDKit          3D

 68 72  0  0  0  0  0  0  0  0999 V2000
  127.1840  133.0830   59.8380 C   0  0  0  0  0  0  0  0  0  0  0  0
  126.1800  133.5270   60.7390 O   0  0  0  0  0  0  0  0  0  0  0  0
  124.8790  133.2620   60.5000 C   0  0  0  0  0  0  0  0  0  0  0  0
  124.2490  133.6130   59.4980 O   0  0  0  0  0  0  0  0  0  0  0  0
  124.2570  132.4470   61.6430 C   0  0  0  0  0  0  0  0  0  0  0  0
  125.4460  132.2060   63.0070 S   0  0  0  0  0  0  0  0  0  0  0  0
  125.9340  130.4930   63.0280 C   0  0  0  0  0  0  0  0  0  0  0  0
  126.4070  130.0860   64.2310 N   0  0  0  0  0  0  0  0  0  0  0  0
  126.8220  128.8050   64.3900 C   0  0  0  0  0  0  0  0  0  0  0  0
  127.3470  128.4340   65.7400 C   0  0  0  0  0  0  0  0  0  0  0  0
  126.5710  127.6740   66.6220 C   0  0  0  0  0  0  0  0  0  0  0  0
  127.0530  127.3250   67.8810 C   0  0  0  0  0  0  0  0  0  0  0  0
  128.3350  127.7140   68.2990 C   0  0  0  0  0  0  0  0  0  0  0  0
  128.8280  127.3870   69.5670 N   0  0  0  0  0  0  0  0  0  0  0  0
  129.8180  128.2400   70.2540 C   0  0  0  0  0  0  0  0  0  0  0  0
  130.5120  127.5460   71.4440 C   0  0  0  0  0  0  0  0  0  0  0  0
  129.5400  127.0640   72.3580 O   0  0  0  0  0  0  0  0  0  0  0  0
  128.6750  126.1200   71.7490 C   0  0  0  0  0  0  0  0  0  0  0  0
  127.9300  126.7690   70.5640 C   0  0  0  0  0  0  0  0  0  0  0  0
  129.1040  128.4870   67.4170 C   0  0  0  0  0  0  0  0  0  0  0  0
  128.6210  128.8380   66.1590 C   0  0  0  0  0  0  0  0  0  0  0  0
  126.7680  127.8930   63.3330 C   0  0  0  0  0  0  0  0  0  0  0  0
  126.2530  128.2780   62.0890 C   0  0  0  0  0  0  0  0  0  0  0  0
  126.1980  127.2430   61.0140 C   0  0  0  0  0  0  0  0  0  0  0  0
  126.2050  127.6240   59.6710 C   0  0  0  0  0  0  0  0  0  0  0  0
  126.1670  126.6680   58.6610 C   0  0  0  0  0  0  0  0  0  0  0  0
  126.1190  125.2980   58.9670 C   0  0  0  0  0  0  0  0  0  0  0  0
  126.0930  124.3190   57.9700 N   0  0  0  0  0  0  0  0  0  0  0  0
  124.8710  123.5410   57.6860 C   0  0  0  0  0  0  0  0  0  0  0  0
  124.9230  122.7820   56.3430 C   0  0  0  0  0  0  0  0  0  0  0  0
  126.0740  121.9540   56.2970 O   0  0  0  0  0  0  0  0  0  0  0  0
  127.2690  122.7090   56.4230 C   0  0  0  0  0  0  0  0  0  0  0  0
  127.2790  123.4630   57.7700 C   0  0  0  0  0  0  0  0  0  0  0  0
  126.1300  124.9230   60.3180 C   0  0  0  0  0  0  0  0  0  0  0  0
  126.1690  125.8810   61.3270 C   0  0  0  0  0  0  0  0  0  0  0  0
  125.8150  129.6160   61.9250 C   0  0  0  0  0  0  0  0  0  0  0  0
  125.2510  130.0630   60.6480 C   0  0  0  0  0  0  0  0  0  0  0  0
  124.8060  130.4110   59.6370 N   0  0  0  0  0  0  0  0  0  0  0  0
  128.0449  132.7023   60.4070 H   0  0  0  0  0  0  0  0  0  0  0  0
  126.7791  132.2800   59.2045 H   0  0  0  0  0  0  0  0  0  0  0  0
  127.5056  133.9228   59.2045 H   0  0  0  0  0  0  0  0  0  0  0  0
  123.3753  132.9817   62.0261 H   0  0  0  0  0  0  0  0  0  0  0  0
  123.9725  131.4594   61.2511 H   0  0  0  0  0  0  0  0  0  0  0  0
  125.5659  127.3476   66.3166 H   0  0  0  0  0  0  0  0  0  0  0  0
  126.4187  126.7349   68.5588 H   0  0  0  0  0  0  0  0  0  0  0  0
  130.5882  128.5343   69.5258 H   0  0  0  0  0  0  0  0  0  0  0  0
  129.2723  129.1050   70.6589 H   0  0  0  0  0  0  0  0  0  0  0  0
  131.1137  126.7029   71.0737 H   0  0  0  0  0  0  0  0  0  0  0  0
  131.1616  128.2710   71.9563 H   0  0  0  0  0  0  0  0  0  0  0  0
  129.2665  125.2676   71.3837 H   0  0  0  0  0  0  0  0  0  0  0  0
  127.9395  125.7754   72.4908 H   0  0  0  0  0  0  0  0  0  0  0  0
  127.3339  125.9932   70.0613 H   0  0  0  0  0  0  0  0  0  0  0  0
  127.3054  127.5743   70.9781 H   0  0  0  0  0  0  0  0  0  0  0  0
  130.1058  128.8217   67.7242 H   0  0  0  0  0  0  0  0  0  0  0  0
  129.2482  129.4405   65.4855 H   0  0  0  0  0  0  0  0  0  0  0  0
  127.1325  126.8655   63.4790 H   0  0  0  0  0  0  0  0  0  0  0  0
  126.2409  128.6916   59.4085 H   0  0  0  0  0  0  0  0  0  0  0  0
  126.1746  126.9892   57.6090 H   0  0  0  0  0  0  0  0  0  0  0  0
  124.7285  122.8088   58.4945 H   0  0  0  0  0  0  0  0  0  0  0  0
  124.0389  124.2575   57.6209 H   0  0  0  0  0  0  0  0  0  0  0  0
  124.0221  122.1591   56.2417 H   0  0  0  0  0  0  0  0  0  0  0  0
  124.9687  123.5094   55.5191 H   0  0  0  0  0  0  0  0  0  0  0  0
  128.1342  122.0312   56.3788 H   0  0  0  0  0  0  0  0  0  0  0  0
  127.3232  123.4382   55.6012 H   0  0  0  0  0  0  0  0  0  0  0  0
  127.3168  122.7236   58.5835 H   0  0  0  0  0  0  0  0  0  0  0  0
  128.1594  124.1224   57.7672 H   0  0  0  0  0  0  0  0  0  0  0  0
  126.1075  123.8560   60.5844 H   0  0  0  0  0  0  0  0  0  0  0  0
  126.1771  125.5634   62.3801 H   0  0  0  0  0  0  0  0  0  0  0  0
  1  2  1  0
  2  3  1  0
  3  4  2  0
  3  5  1  0
  5  6  1  0
  6  7  1  0
  7  8  2  0
  8  9  1  0
  9 10  1  0
 10 11  2  0
 11 12  1  0
 12 13  2  0
 13 14  1  0
 14 15  1  0
 15 16  1  0
 16 17  1  0
 17 18  1  0
 18 19  1  0
 13 20  1  0
 20 21  2  0
  9 22  2  0
 22 23  1  0
 23 24  1  0
 24 25  2  0
 25 26  1  0
 26 27  2  0
 27 28  1  0
 28 29  1  0
 29 30  1  0
 30 31  1  0
 31 32  1  0
 32 33  1  0
 27 34  1  0
 34 35  2  0
 23 36  2  0
 36 37  1  0
 37 38  3  0
 36  7  1  0
 21 10  1  0
 35 24  1  0
 19 14  1  0
 33 28  1  0
  1 39  1  0
  1 40  1  0
  1 41  1  0
  5 42  1  0
  5 43  1  0
 11 44  1  0
 12 45  1  0
 15 46  1  0
 15 47  1  0
 16 48  1  0
 16 49  1  0
 18 50  1  0
 18 51  1  0
 19 52  1  0
 19 53  1  0
 20 54  1  0
 21 55  1  0
 22 56  1  0
 25 57  1  0
 26 58  1  0
 29 59  1  0
 29 60  1  0
 30 61  1  0
 30 62  1  0
 32 63  1  0
 32 64  1  0
 33 65  1  0
 33 66  1  0
 34 67  1  0
 35 68  1  0
M  END
>  <Binding energies>  (1) 
[-5.94]

>  <Ligand effiencies>  (1) 
[-0.1563157894736842]

>  <Interactions>  (1) 
["V-B:PRO:540:CD:9859, V-B:LEU:363:CD1:8161, V-B:ILE:538:CD1:9837, V-B:PRO:540:CB:9857, V-B:GLU:543:CD:9880, V-B:ILE:538:CG2:9835, V-A:HIS:456:CE1:4070, V-B:ASP:366:CG:8185, V-A:GLU:543:C:4902, V-B:HIS:456:CE1:9042, V-B:ARG:545:CZ:9898, V-A:GLU:543:CB:4906, H-B:TYR:484:OH:9320, V-A:GLU:543:CD:4908, V-A:GLY:544:C:4912, V-B:ILE:369:CD1:8211, V-A:GLU:543:CG:4907, V-A:HIS:456:CG:4066, V-A:HIS:456:CD2:4068, V-B:TYR:531:CE2:9765, V-B:TYR:539:CG:9844, V-B:ASP:366:CB:8184, V-B:TYR:539:CZ:9849, V-B:TYR:539:CE1:9847, V-B:TYR:539:CD1:9845, H-B:TYR:539:N:9842, V-B:ARG:545:CG:9894, V-A:TYR:539:CD1:4873, V-A:TYR:539:CE1:4875, V-B:GLU:543:CB:9878, V-B:HIS:456:CD2:9040, H-B:LYS:547:NZ:9923"]

$$$$
2d_Grossjean_2025
     RDKit          3D

 36 37  0  0  0  0  0  0  0  0999 V2000
  133.1990  125.3600   65.1030 C   0  0  0  0  0  0  0  0  0  0  0  0
  132.6990  125.1660   63.6840 C   0  0  0  0  0  0  0  0  0  0  0  0
  131.7320  126.0030   63.1310 C   0  0  0  0  0  0  0  0  0  0  0  0
  131.3050  125.7860   61.8120 C   0  0  0  0  0  0  0  0  0  0  0  0
  130.2420  126.7270   61.2140 C   0  0  0  0  0  0  0  0  0  0  0  0
  129.3630  126.0260   60.4980 F   0  0  0  0  0  0  0  0  0  0  0  0
  129.5940  127.3640   62.1900 F   0  0  0  0  0  0  0  0  0  0  0  0
  130.7670  127.6540   60.4100 F   0  0  0  0  0  0  0  0  0  0  0  0
  131.8730  124.7090   61.0840 C   0  0  0  0  0  0  0  0  0  0  0  0
  131.4950  124.4680   59.6890 C   0  0  0  0  0  0  0  0  0  0  0  0
  131.1970  124.2810   58.5870 N   0  0  0  0  0  0  0  0  0  0  0  0
  132.8310  123.8960   61.7360 C   0  0  0  0  0  0  0  0  0  0  0  0
  133.6190  122.4860   60.9830 S   0  0  0  0  0  0  0  0  0  0  0  0
  132.3360  121.2800   60.5120 C   0  0  0  0  0  0  0  0  0  0  0  0
  130.9620  121.6040   61.1070 C   0  0  0  0  0  0  0  0  0  0  0  0
  130.7250  121.2890   62.2740 O   0  0  0  0  0  0  0  0  0  0  0  0
  130.0880  122.1990   60.2680 N   0  0  0  0  0  0  0  0  0  0  0  0
  128.7680  122.6210   60.5120 C   0  0  0  0  0  0  0  0  0  0  0  0
  128.0520  123.0690   59.4000 C   0  0  0  0  0  0  0  0  0  0  0  0
  126.7400  123.5120   59.5410 C   0  0  0  0  0  0  0  0  0  0  0  0
  126.1450  123.5160   60.8010 C   0  0  0  0  0  0  0  0  0  0  0  0
  126.8530  123.0840   61.9190 C   0  0  0  0  0  0  0  0  0  0  0  0
  128.1650  122.6390   61.7810 C   0  0  0  0  0  0  0  0  0  0  0  0
  133.2470  124.1330   63.0040 N   0  0  0  0  0  0  0  0  0  0  0  0
  132.4154  125.0560   65.8126 H   0  0  0  0  0  0  0  0  0  0  0  0
  134.0969  124.7450   65.2627 H   0  0  0  0  0  0  0  0  0  0  0  0
  133.4472  126.4197   65.2627 H   0  0  0  0  0  0  0  0  0  0  0  0
  131.3070  126.8268   63.7233 H   0  0  0  0  0  0  0  0  0  0  0  0
  132.2496  121.2705   59.4154 H   0  0  0  0  0  0  0  0  0  0  0  0
  132.6435  120.3011   60.9084 H   0  0  0  0  0  0  0  0  0  0  0  0
  130.3930  122.3140   59.3120 H   0  0  0  0  0  0  0  0  0  0  0  0
  128.5271  123.0718   58.4079 H   0  0  0  0  0  0  0  0  0  0  0  0
  126.1757  123.8572   58.6621 H   0  0  0  0  0  0  0  0  0  0  0  0
  125.1073  123.8634   60.9131 H   0  0  0  0  0  0  0  0  0  0  0  0
  126.3764  123.0942   62.9103 H   0  0  0  0  0  0  0  0  0  0  0  0
  128.7284  122.3022   62.6637 H   0  0  0  0  0  0  0  0  0  0  0  0
  1  2  1  0
  2  3  2  0
  3  4  1  0
  4  5  1  0
  5  6  1  0
  5  7  1  0
  5  8  1  0
  4  9  2  0
  9 10  1  0
 10 11  3  0
  9 12  1  0
 12 13  1  0
 13 14  1  0
 14 15  1  0
 15 16  2  0
 15 17  1  0
 17 18  1  0
 18 19  2  0
 19 20  1  0
 20 21  2  0
 21 22  1  0
 22 23  2  0
 12 24  2  0
 24  2  1  0
 23 18  1  0
  1 25  1  0
  1 26  1  0
  1 27  1  0
  3 28  1  0
 14 29  1  0
 14 30  1  0
 17 31  1  0
 19 32  1  0
 20 33  1  0
 21 34  1  0
 22 35  1  0
 23 36  1  0
M  END
>  <Binding energies>  (1) 
[-6.09]

>  <Ligand effiencies>  (1) 
[-0.24359999999999998]

>  <Interactions>  (1) 
["V-A:ARG:545:CD:4923, V-B:PRO:540:CB:9857, V-A:ARG:545:CZ:4926, V-B:PRO:540:CA:9855, V-B:GLU:543:CD:9880, V-A:TYR:484:CZ:4347, V-A:TYR:484:CE2:4346, V-B:TYR:539:CE2:9848, V-A:ARG:545:CG:4922, V-B:PRO:540:C:9853, H-B:TYR:539:O:9840, V-A:LEU:475:CD2:4259, H-A:TYR:484:OH:4348, V-B:TYR:539:CD2:9846, V-B:ALA:541:CB:9864, V-A:GLU:543:CD:4908, H-A:GLY:454:N:4050, V-A:ILE:369:CG2:3237, V-A:ASP:366:CG:3213, V-B:GLU:543:CG:9879, H-B:TYR:539:OH:9850"]

$$$$
2e_Grossjean_2025
     RDKit          3D

 38 39  0  0  0  0  0  0  0  0999 V2000
  132.2490  116.6560   58.1350 C   0  0  0  0  0  0  0  0  0  0  0  0
  131.4930  117.4170   59.2080 C   0  0  0  0  0  0  0  0  0  0  0  0
  130.5250  116.7950   60.0010 C   0  0  0  0  0  0  0  0  0  0  0  0
  129.8780  117.5560   60.9770 C   0  0  0  0  0  0  0  0  0  0  0  0
  130.2090  118.9040   61.1330 C   0  0  0  0  0  0  0  0  0  0  0  0
  131.1810  119.4660   60.2970 C   0  0  0  0  0  0  0  0  0  0  0  0
  131.5060  120.8140   60.5260 N   0  0  0  0  0  0  0  0  0  0  0  0
  131.0270  121.6360   61.4860 C   0  0  0  0  0  0  0  0  0  0  0  0
  130.2560  121.2970   62.3850 O   0  0  0  0  0  0  0  0  0  0  0  0
  131.4630  123.1010   61.3880 C   0  0  0  0  0  0  0  0  0  0  0  0
  131.0990  123.8150   59.7530 S   0  0  0  0  0  0  0  0  0  0  0  0
  129.3610  123.5380   59.4890 C   0  0  0  0  0  0  0  0  0  0  0  0
  129.0380  123.1270   58.2380 N   0  0  0  0  0  0  0  0  0  0  0  0
  127.7330  122.9350   57.9390 C   0  0  0  0  0  0  0  0  0  0  0  0
  127.4420  122.4750   56.5230 C   0  0  0  0  0  0  0  0  0  0  0  0
  126.7100  123.1500   58.8610 C   0  0  0  0  0  0  0  0  0  0  0  0
  127.0280  123.5840   60.1570 C   0  0  0  0  0  0  0  0  0  0  0  0
  125.8850  123.8370   61.1580 C   0  0  0  0  0  0  0  0  0  0  0  0
  125.8550  125.1240   61.5040 F   0  0  0  0  0  0  0  0  0  0  0  0
  124.7160  123.5100   60.6060 F   0  0  0  0  0  0  0  0  0  0  0  0
  126.0140  123.1230   62.2780 F   0  0  0  0  0  0  0  0  0  0  0  0
  128.3910  123.7840   60.4870 C   0  0  0  0  0  0  0  0  0  0  0  0
  128.7860  124.2650   61.8150 C   0  0  0  0  0  0  0  0  0  0  0  0
  129.0970  124.6460   62.8630 N   0  0  0  0  0  0  0  0  0  0  0  0
  131.8240  118.7260   59.3470 N   0  0  0  0  0  0  0  0  0  0  0  0
  132.9486  115.9518   58.6089 H   0  0  0  0  0  0  0  0  0  0  0  0
  131.5361  116.0993   57.5091 H   0  0  0  0  0  0  0  0  0  0  0  0
  132.8104  117.3652   57.5091 H   0  0  0  0  0  0  0  0  0  0  0  0
  130.2787  115.7322   59.8600 H   0  0  0  0  0  0  0  0  0  0  0  0
  129.1122  117.0965   61.6192 H   0  0  0  0  0  0  0  0  0  0  0  0
  129.7131  119.5150   61.9016 H   0  0  0  0  0  0  0  0  0  0  0  0
  132.2140  121.1920   59.9140 H   0  0  0  0  0  0  0  0  0  0  0  0
  130.9304  123.6818   62.1554 H   0  0  0  0  0  0  0  0  0  0  0  0
  132.5515  123.1418   61.5411 H   0  0  0  0  0  0  0  0  0  0  0  0
  126.8541  121.5457   56.5529 H   0  0  0  0  0  0  0  0  0  0  0  0
  126.8714  123.2530   55.9947 H   0  0  0  0  0  0  0  0  0  0  0  0
  128.3894  122.2927   55.9947 H   0  0  0  0  0  0  0  0  0  0  0  0
  125.6614  122.9808   58.5749 H   0  0  0  0  0  0  0  0  0  0  0  0
  1  2  1  0
  2  3  2  0
  3  4  1  0
  4  5  2  0
  5  6  1  0
  6  7  1  0
  7  8  1  0
  8  9  2  0
  8 10  1  0
 10 11  1  0
 11 12  1  0
 12 13  2  0
 13 14  1  0
 14 15  1  0
 14 16  2  0
 16 17  1  0
 17 18  1  0
 18 19  1  0
 18 20  1  0
 18 21  1  0
 17 22  2  0
 22 23  1  0
 23 24  3  0
  6 25  2  0
 25  2  1  0
 22 12  1  0
  1 26  1  0
  1 27  1  0
  1 28  1  0
  3 29  1  0
  4 30  1  0
  5 31  1  0
  7 32  1  0
 10 33  1  0
 10 34  1  0
 15 35  1  0
 15 36  1  0
 15 37  1  0
 16 38  1  0
M  END
>  <Binding energies>  (1) 
[-6.54]

>  <Ligand effiencies>  (1) 
[-0.25153846153846154]

>  <Interactions>  (1) 
["V-B:PRO:540:CB:9857, V-B:TYR:539:C:9839, V-B:PRO:540:CA:9855, V-B:PRO:540:N:9856, V-B:GLU:543:CD:9880, V-B:TYR:539:CE2:9848, V-B:PRO:540:C:9853, V-A:SER:385:CB:3409, V-B:ASP:366:CG:8185, V-A:HIS:383:CE1:3394, V-A:PRO:482:CG:4327, V-A:PRO:482:CB:4326, V-B:TYR:539:CB:9843, V-A:LEU:475:CD2:4259, H-A:TYR:484:OH:4348, V-B:TYR:539:CA:9841, V-B:TYR:539:CD2:9846, V-A:LEU:475:CD1:4258, V-A:LEU:475:CG:4257, V-A:LEU:373:CD1:3280, V-A:LEU:373:CD2:3281, V-B:GLU:543:CG:9879, V-B:TYR:539:CG:9844, V-B:TYR:539:CZ:9849, V-B:TYR:539:CE1:9847, V-B:TYR:539:CD1:9845, V-A:LEU:373:CG:3279"]

$$$$
2f_Grossjean_2025
     RDKit          3D

 35 36  0  0  0  0  0  0  0  0999 V2000
  133.2730  125.3440   65.1140 C   0  0  0  0  0  0  0  0  0  0  0  0
  132.7160  125.1820   63.7120 C   0  0  0  0  0  0  0  0  0  0  0  0
  131.7660  126.0620   63.1980 C   0  0  0  0  0  0  0  0  0  0  0  0
  131.2760  125.8650   61.8970 C   0  0  0  0  0  0  0  0  0  0  0  0
  130.2170  126.8420   61.3510 C   0  0  0  0  0  0  0  0  0  0  0  0
  129.5400  127.3950   62.3600 F   0  0  0  0  0  0  0  0  0  0  0  0
  130.8090  127.8080   60.6480 F   0  0  0  0  0  0  0  0  0  0  0  0
  129.3290  126.2480   60.5520 F   0  0  0  0  0  0  0  0  0  0  0  0
  131.7750  124.7730   61.1420 C   0  0  0  0  0  0  0  0  0  0  0  0
  131.2530  124.4920   59.8020 C   0  0  0  0  0  0  0  0  0  0  0  0
  130.8410  124.2720   58.7430 N   0  0  0  0  0  0  0  0  0  0  0  0
  132.7590  123.9460   61.7370 C   0  0  0  0  0  0  0  0  0  0  0  0
  133.5020  122.5410   60.9330 S   0  0  0  0  0  0  0  0  0  0  0  0
  132.2070  121.2780   60.6910 C   0  0  0  0  0  0  0  0  0  0  0  0
  130.8500  121.6050   61.3290 C   0  0  0  0  0  0  0  0  0  0  0  0
  130.6290  121.3340   62.5100 O   0  0  0  0  0  0  0  0  0  0  0  0
  129.9600  122.1780   60.4900 N   0  0  0  0  0  0  0  0  0  0  0  0
  128.6450  122.6120   60.7400 C   0  0  0  0  0  0  0  0  0  0  0  0
  127.8050  123.2540   59.8110 C   0  0  0  0  0  0  0  0  0  0  0  0
  126.5150  123.6290   60.1890 C   0  0  0  0  0  0  0  0  0  0  0  0
  126.0920  123.3500   61.4890 C   0  0  0  0  0  0  0  0  0  0  0  0
  126.8790  122.7260   62.4010 N   0  0  0  0  0  0  0  0  0  0  0  0
  128.1300  122.3660   62.0190 C   0  0  0  0  0  0  0  0  0  0  0  0
  133.2030  124.1390   63.0030 N   0  0  0  0  0  0  0  0  0  0  0  0
  132.4874  125.1155   65.8493 H   0  0  0  0  0  0  0  0  0  0  0  0
  134.1185  124.6546   65.2546 H   0  0  0  0  0  0  0  0  0  0  0  0
  133.6169  126.3794   65.2546 H   0  0  0  0  0  0  0  0  0  0  0  0
  131.4030  126.9037   63.8061 H   0  0  0  0  0  0  0  0  0  0  0  0
  132.0530  121.1510   59.6093 H   0  0  0  0  0  0  0  0  0  0  0  0
  132.5694  120.3684   61.1922 H   0  0  0  0  0  0  0  0  0  0  0  0
  130.2580  122.2880   59.5310 H   0  0  0  0  0  0  0  0  0  0  0  0
  128.1636  123.4593   58.7916 H   0  0  0  0  0  0  0  0  0  0  0  0
  125.8457  124.1340   59.4769 H   0  0  0  0  0  0  0  0  0  0  0  0
  125.0763  123.6490   61.7874 H   0  0  0  0  0  0  0  0  0  0  0  0
  128.7726  121.8549   62.7510 H   0  0  0  0  0  0  0  0  0  0  0  0
  1  2  1  0
  2  3  2  0
  3  4  1  0
  4  5  1  0
  5  6  1  0
  5  7  1  0
  5  8  1  0
  4  9  2  0
  9 10  1  0
 10 11  3  0
  9 12  1  0
 12 13  1  0
 13 14  1  0
 14 15  1  0
 15 16  2  0
 15 17  1  0
 17 18  1  0
 18 19  2  0
 19 20  1  0
 20 21  2  0
 21 22  1  0
 22 23  2  0
 12 24  2  0
 24  2  1  0
 23 18  1  0
  1 25  1  0
  1 26  1  0
  1 27  1  0
  3 28  1  0
 14 29  1  0
 14 30  1  0
 17 31  1  0
 19 32  1  0
 20 33  1  0
 21 34  1  0
 23 35  1  0
M  END
>  <Binding energies>  (1) 
[-6.04]

>  <Ligand effiencies>  (1) 
[-0.2416]

>  <Interactions>  (1) 
["V-A:ARG:545:CD:4923, V-B:PRO:540:CB:9857, V-A:ARG:545:CZ:4926, V-B:PRO:540:CA:9855, V-A:TYR:484:CZ:4347, V-A:TYR:484:CE2:4346, V-B:TYR:539:CE2:9848, V-A:ARG:545:CG:4922, V-B:PRO:540:C:9853, H-B:ALA:541:N:9863, H-B:TYR:539:O:9840, V-A:LEU:475:CD2:4259, H-A:TYR:484:OH:4348, V-B:TYR:539:CD2:9846, V-B:ALA:541:CB:9864, V-A:GLU:543:CD:4908, H-A:GLY:454:N:4050, V-A:ASP:366:CG:3213, H-B:TYR:539:OH:9850"]

$$$$
2g_Grossjean_2025
     RDKit          3D

 39 40  0  0  0  0  0  0  0  0999 V2000
  133.4520  125.0830   65.0700 C   0  0  0  0  0  0  0  0  0  0  0  0
  132.7960  125.0140   63.7040 C   0  0  0  0  0  0  0  0  0  0  0  0
  131.8050  125.9150   63.3250 C   0  0  0  0  0  0  0  0  0  0  0  0
  131.2230  125.8050   62.0530 C   0  0  0  0  0  0  0  0  0  0  0  0
  130.1200  126.8060   61.6540 C   0  0  0  0  0  0  0  0  0  0  0  0
  129.5150  127.2840   62.7420 F   0  0  0  0  0  0  0  0  0  0  0  0
  130.6560  127.8220   60.9760 F   0  0  0  0  0  0  0  0  0  0  0  0
  129.1790  126.2580   60.8830 F   0  0  0  0  0  0  0  0  0  0  0  0
  131.6740  124.7770   61.1870 C   0  0  0  0  0  0  0  0  0  0  0  0
  131.0600  124.5830   59.8700 C   0  0  0  0  0  0  0  0  0  0  0  0
  130.5750  124.4300   58.8310 N   0  0  0  0  0  0  0  0  0  0  0  0
  132.7080  123.9260   61.6470 C   0  0  0  0  0  0  0  0  0  0  0  0
  133.4080  122.6030   60.6830 S   0  0  0  0  0  0  0  0  0  0  0  0
  132.2040  121.2320   60.6780 C   0  0  0  0  0  0  0  0  0  0  0  0
  130.8550  121.5600   61.3340 C   0  0  0  0  0  0  0  0  0  0  0  0
  130.6300  121.2800   62.5130 O   0  0  0  0  0  0  0  0  0  0  0  0
  129.9540  122.1590   60.5340 N   0  0  0  0  0  0  0  0  0  0  0  0
  128.6080  122.5740   60.9320 C   0  0  0  0  0  0  0  0  0  0  0  0
  127.6680  122.8620   59.7660 C   0  0  0  0  0  0  0  0  0  0  0  0
  126.4860  123.5750   59.9850 C   0  0  0  0  0  0  0  0  0  0  0  0
  125.6450  123.8730   58.9160 C   0  0  0  0  0  0  0  0  0  0  0  0
  125.9930  123.4650   57.6300 C   0  0  0  0  0  0  0  0  0  0  0  0
  127.1770  122.7660   57.4030 C   0  0  0  0  0  0  0  0  0  0  0  0
  128.0180  122.4690   58.4720 C   0  0  0  0  0  0  0  0  0  0  0  0
  133.2430  124.0320   62.8880 N   0  0  0  0  0  0  0  0  0  0  0  0
  132.6818  125.0020   65.8512 H   0  0  0  0  0  0  0  0  0  0  0  0
  134.1689  124.2553   65.1747 H   0  0  0  0  0  0  0  0  0  0  0  0
  133.9810  126.0417   65.1747 H   0  0  0  0  0  0  0  0  0  0  0  0
  131.4809  126.7065   64.0168 H   0  0  0  0  0  0  0  0  0  0  0  0
  132.0159  120.9450   59.6329 H   0  0  0  0  0  0  0  0  0  0  0  0
  132.6513  120.4237   61.2751 H   0  0  0  0  0  0  0  0  0  0  0  0
  130.2230  122.3770   59.5860 H   0  0  0  0  0  0  0  0  0  0  0  0
  128.1660  121.7711   61.5403 H   0  0  0  0  0  0  0  0  0  0  0  0
  128.7208  123.5179   61.4854 H   0  0  0  0  0  0  0  0  0  0  0  0
  126.2202  123.9006   61.0015 H   0  0  0  0  0  0  0  0  0  0  0  0
  124.7105  124.4278   59.0859 H   0  0  0  0  0  0  0  0  0  0  0  0
  125.3268  123.6968   56.7859 H   0  0  0  0  0  0  0  0  0  0  0  0
  127.4458  122.4504   56.3841 H   0  0  0  0  0  0  0  0  0  0  0  0
  128.9580  121.9249   58.2977 H   0  0  0  0  0  0  0  0  0  0  0  0
  1  2  1  0
  2  3  2  0
  3  4  1  0
  4  5  1  0
  5  6  1  0
  5  7  1  0
  5  8  1  0
  4  9  2  0
  9 10  1  0
 10 11  3  0
  9 12  1  0
 12 13  1  0
 13 14  1  0
 14 15  1  0
 15 16  2  0
 15 17  1  0
 17 18  1  0
 18 19  1  0
 19 20  2  0
 20 21  1  0
 21 22  2  0
 22 23  1  0
 23 24  2  0
 12 25  2  0
 25  2  1  0
 24 19  1  0
  1 26  1  0
  1 27  1  0
  1 28  1  0
  3 29  1  0
 14 30  1  0
 14 31  1  0
 17 32  1  0
 18 33  1  0
 18 34  1  0
 20 35  1  0
 21 36  1  0
 22 37  1  0
 23 38  1  0
 24 39  1  0
M  END
>  <Binding energies>  (1) 
[-6.39]

>  <Ligand effiencies>  (1) 
[-0.24576923076923077]

>  <Interactions>  (1) 
["V-A:ARG:545:CD:4923, V-B:PRO:540:CB:9857, V-A:ARG:545:CZ:4926, V-B:TYR:539:C:9839, V-B:PRO:540:CA:9855, V-B:PRO:540:N:9856, V-A:TYR:484:CZ:4347, V-A:TYR:484:CE2:4346, V-B:TYR:539:CE2:9848, H-B:TYR:539:O:9840, V-A:LEU:475:CD2:4259, H-A:TYR:484:OH:4348, V-B:TYR:539:CD2:9846, V-A:GLU:543:CD:4908, V-A:GLY:454:CA:4049, H-A:GLY:454:N:4050, V-B:TYR:539:CG:9844"]

$$$$
2h_Grossjean_2025
     RDKit          3D

 51 52  0  0  0  0  0  0  0  0999 V2000
  124.0500  129.5010   66.8120 C   0  0  0  0  0  0  0  0  0  0  0  0
  124.1890  130.0490   65.5060 O   0  0  0  0  0  0  0  0  0  0  0  0
  124.9880  129.4030   64.5800 C   0  0  0  0  0  0  0  0  0  0  0  0
  126.1220  128.6470   64.9150 C   0  0  0  0  0  0  0  0  0  0  0  0
  126.8740  128.0170   63.9270 C   0  0  0  0  0  0  0  0  0  0  0  0
  126.5110  128.1270   62.5830 C   0  0  0  0  0  0  0  0  0  0  0  0
  127.3390  127.4100   61.5180 C   0  0  0  0  0  0  0  0  0  0  0  0
  127.1820  125.9550   61.5330 N   0  0  0  0  0  0  0  0  0  0  0  0
  126.7470  125.2160   60.4970 C   0  0  0  0  0  0  0  0  0  0  0  0
  126.3520  125.7060   59.4380 O   0  0  0  0  0  0  0  0  0  0  0  0
  126.7780  123.6960   60.7080 C   0  0  0  0  0  0  0  0  0  0  0  0
  127.5840  123.1480   62.2510 S   0  0  0  0  0  0  0  0  0  0  0  0
  129.3190  122.9840   61.8940 C   0  0  0  0  0  0  0  0  0  0  0  0
  129.6510  121.7940   61.3340 N   0  0  0  0  0  0  0  0  0  0  0  0
  130.9480  121.5560   61.0390 C   0  0  0  0  0  0  0  0  0  0  0  0
  131.2450  120.2020   60.4220 C   0  0  0  0  0  0  0  0  0  0  0  0
  131.9580  122.4850   61.2810 C   0  0  0  0  0  0  0  0  0  0  0  0
  131.6310  123.7290   61.8410 C   0  0  0  0  0  0  0  0  0  0  0  0
  132.7600  124.7470   62.0940 C   0  0  0  0  0  0  0  0  0  0  0  0
  132.8450  125.0180   63.3970 F   0  0  0  0  0  0  0  0  0  0  0  0
  133.9550  124.3010   61.7010 F   0  0  0  0  0  0  0  0  0  0  0  0
  132.5150  125.8780   61.4310 F   0  0  0  0  0  0  0  0  0  0  0  0
  130.2730  123.9980   62.1500 C   0  0  0  0  0  0  0  0  0  0  0  0
  129.8720  125.3030   62.6810 C   0  0  0  0  0  0  0  0  0  0  0  0
  129.5580  126.3360   63.0980 N   0  0  0  0  0  0  0  0  0  0  0  0
  125.3940  128.8980   62.2310 C   0  0  0  0  0  0  0  0  0  0  0  0
  125.0320  129.0140   60.9090 O   0  0  0  0  0  0  0  0  0  0  0  0
  125.6780  130.0740   60.2150 C   0  0  0  0  0  0  0  0  0  0  0  0
  124.6250  129.5170   63.2310 C   0  0  0  0  0  0  0  0  0  0  0  0
  123.5190  130.2590   62.8910 O   0  0  0  0  0  0  0  0  0  0  0  0
  123.8050  131.6120   62.5640 C   0  0  0  0  0  0  0  0  0  0  0  0
  124.2482  130.2823   67.5605 H   0  0  0  0  0  0  0  0  0  0  0  0
  123.0266  129.1194   66.9425 H   0  0  0  0  0  0  0  0  0  0  0  0
  124.7678  128.6777   66.9425 H   0  0  0  0  0  0  0  0  0  0  0  0
  126.4199  128.5512   65.9695 H   0  0  0  0  0  0  0  0  0  0  0  0
  127.7602  127.4286   64.2070 H   0  0  0  0  0  0  0  0  0  0  0  0
  127.0315  127.7825   60.5297 H   0  0  0  0  0  0  0  0  0  0  0  0
  128.3962  127.6220   61.7355 H   0  0  0  0  0  0  0  0  0  0  0  0
  127.5200  125.4790   62.3580 H   0  0  0  0  0  0  0  0  0  0  0  0
  125.7402  123.3315   60.7170 H   0  0  0  0  0  0  0  0  0  0  0  0
  127.3786  123.2834   59.8840 H   0  0  0  0  0  0  0  0  0  0  0  0
  131.4071  119.4629   61.2204 H   0  0  0  0  0  0  0  0  0  0  0  0
  130.3943  119.8883   59.7992 H   0  0  0  0  0  0  0  0  0  0  0  0
  132.1489  120.2732   59.7992 H   0  0  0  0  0  0  0  0  0  0  0  0
  133.0029  122.2450   61.0350 H   0  0  0  0  0  0  0  0  0  0  0  0
  126.1079  130.7794   60.9413 H   0  0  0  0  0  0  0  0  0  0  0  0
  126.4798  129.6638   59.5835 H   0  0  0  0  0  0  0  0  0  0  0  0
  124.9459  130.5986   59.5835 H   0  0  0  0  0  0  0  0  0  0  0  0
  123.9282  132.1946   63.4889 H   0  0  0  0  0  0  0  0  0  0  0  0
  124.7328  131.6586   61.9750 H   0  0  0  0  0  0  0  0  0  0  0  0
  122.9754  132.0301   61.9750 H   0  0  0  0  0  0  0  0  0  0  0  0
  1  2  1  0
  2  3  1  0
  3  4  2  0
  4  5  1  0
  5  6  2  0
  6  7  1  0
  7  8  1  0
  8  9  1  0
  9 10  2  0
  9 11  1  0
 11 12  1  0
 12 13  1  0
 13 14  2  0
 14 15  1  0
 15 16  1  0
 15 17  2  0
 17 18  1  0
 18 19  1  0
 19 20  1  0
 19 21  1  0
 19 22  1  0
 18 23  2  0
 23 24  1  0
 24 25  3  0
  6 26  1  0
 26 27  1  0
 27 28  1  0
 26 29  2  0
 29 30  1  0
 30 31  1  0
 29  3  1  0
 23 13  1  0
  1 32  1  0
  1 33  1  0
  1 34  1  0
  4 35  1  0
  5 36  1  0
  7 37  1  0
  7 38  1  0
  8 39  1  0
 11 40  1  0
 11 41  1  0
 16 42  1  0
 16 43  1  0
 16 44  1  0
 17 45  1  0
 28 46  1  0
 28 47  1  0
 28 48  1  0
 31 49  1  0
 31 50  1  0
 31 51  1  0
M  END
>  <Binding energies>  (1) 
[-5.17]

>  <Ligand effiencies>  (1) 
[-0.1615625]

>  <Interactions>  (1) 
["V-A:ARG:545:CZ:4926, V-B:PRO:540:CA:9855, V-B:GLU:543:CD:9880, V-A:ILE:369:CD1:3239, V-B:TYR:539:CE2:9848, H-B:ALA:541:N:9863, V-B:ASP:366:CG:8185, V-A:LEU:475:CD2:4259, V-B:TYR:539:CD2:9846, V-B:HIS:456:CE1:9042, V-B:ARG:545:CZ:9898, H-B:TYR:484:OH:9320, V-B:GLY:453:C:9014, V-B:ILE:369:CD1:8211, V-B:TYR:484:CZ:9319, H-B:GLY:454:N:9022, V-B:GLY:454:CA:9021, V-A:ASP:366:CG:3213, H-B:GLU:543:OE2:9882, H-B:GLU:543:OE1:9881, V-B:ARG:545:CG:9894, V-B:ARG:545:CD:9895, V-B:TYR:484:CE1:9317"]

$$$$
2i_Grossjean_2025
     RDKit          3D

 32 33  0  0  0  0  0  0  0  0999 V2000
  131.7460  125.7770   60.5060 C   0  0  0  0  0  0  0  0  0  0  0  0
  130.4580  125.0460   60.8360 C   0  0  0  0  0  0  0  0  0  0  0  0
  130.4400  123.6770   61.0920 C   0  0  0  0  0  0  0  0  0  0  0  0
  129.2230  123.0480   61.3950 C   0  0  0  0  0  0  0  0  0  0  0  0
  129.2220  121.5330   61.6750 C   0  0  0  0  0  0  0  0  0  0  0  0
  129.4660  121.3080   62.9670 F   0  0  0  0  0  0  0  0  0  0  0  0
  128.0360  121.0110   61.3620 F   0  0  0  0  0  0  0  0  0  0  0  0
  130.1470  120.8770   60.9720 F   0  0  0  0  0  0  0  0  0  0  0  0
  128.0440  123.8350   61.4290 C   0  0  0  0  0  0  0  0  0  0  0  0
  126.7460  123.2290   61.7410 C   0  0  0  0  0  0  0  0  0  0  0  0
  125.7210  122.7520   61.9870 N   0  0  0  0  0  0  0  0  0  0  0  0
  128.1530  125.2180   61.1530 C   0  0  0  0  0  0  0  0  0  0  0  0
  126.7360  126.3050   61.1590 S   0  0  0  0  0  0  0  0  0  0  0  0
  126.5100  126.9470   59.4730 C   0  0  0  0  0  0  0  0  0  0  0  0
  126.6560  125.8540   58.4120 C   0  0  0  0  0  0  0  0  0  0  0  0
  127.5170  125.9790   57.5390 O   0  0  0  0  0  0  0  0  0  0  0  0
  125.7890  124.8240   58.5060 N   0  0  0  0  0  0  0  0  0  0  0  0
  125.7100  123.7300   57.6600 C   0  0  0  0  0  0  0  0  0  0  0  0
  124.6140  123.2100   56.9550 C   0  0  0  0  0  0  0  0  0  0  0  0
  125.1180  122.1240   56.2780 C   0  0  0  0  0  0  0  0  0  0  0  0
  126.4390  122.0020   56.5540 O   0  0  0  0  0  0  0  0  0  0  0  0
  126.7990  123.0310   57.4270 N   0  0  0  0  0  0  0  0  0  0  0  0
  129.3410  125.8080   60.8640 N   0  0  0  0  0  0  0  0  0  0  0  0
  132.2534  126.0650   61.4385 H   0  0  0  0  0  0  0  0  0  0  0  0
  132.4025  125.1169   59.9201 H   0  0  0  0  0  0  0  0  0  0  0  0
  131.5159  126.6791   59.9201 H   0  0  0  0  0  0  0  0  0  0  0  0
  131.3721  123.0939   61.0569 H   0  0  0  0  0  0  0  0  0  0  0  0
  125.5044  127.3857   59.3932 H   0  0  0  0  0  0  0  0  0  0  0  0
  127.2916  127.6994   59.2914 H   0  0  0  0  0  0  0  0  0  0  0  0
  125.1010  124.8550   59.2440 H   0  0  0  0  0  0  0  0  0  0  0  0
  123.5807  123.5872   56.9458 H   0  0  0  0  0  0  0  0  0  0  0  0
  124.5406  121.4602   55.6177 H   0  0  0  0  0  0  0  0  0  0  0  0
  1  2  1  0
  2  3  2  0
  3  4  1  0
  4  5  1  0
  5  6  1  0
  5  7  1  0
  5  8  1  0
  4  9  2  0
  9 10  1  0
 10 11  3  0
  9 12  1  0
 12 13  1  0
 13 14  1  0
 14 15  1  0
 15 16  2  0
 15 17  1  0
 17 18  1  0
 18 19  1  0
 19 20  2  0
 20 21  1  0
 21 22  1  0
 12 23  2  0
 23  2  1  0
 22 18  2  0
  1 24  1  0
  1 25  1  0
  1 26  1  0
  3 27  1  0
 14 28  1  0
 14 29  1  0
 17 30  1  0
 19 31  1  0
 20 32  1  0
M  END
>  <Binding energies>  (1) 
[-6.18]

>  <Ligand effiencies>  (1) 
[-0.2575]

>  <Interactions>  (1) 
["V-B:PRO:540:CD:9859, V-B:LEU:363:CD1:8161, V-B:ILE:538:CD1:9837, V-B:PRO:540:CB:9857, V-B:TYR:539:C:9839, V-B:PRO:540:CA:9855, V-B:PRO:540:CG:9858, V-B:PRO:540:N:9856, V-B:GLU:543:CD:9880, V-A:TYR:484:CZ:4347, V-B:ILE:538:CG2:9835, V-B:PRO:540:C:9853, H-B:ALA:541:N:9863, V-B:ASP:366:CG:8185, V-A:LEU:475:CD2:4259, V-B:ALA:541:CA:9862, V-B:TYR:539:CD2:9846, V-B:ALA:541:CB:9864, V-A:ASP:366:CG:3213, V-B:TYR:531:CE2:9765, H-B:ASP:366:OD2:8187, V-B:TYR:531:CZ:9766, V-A:TYR:484:CE1:4345, H-B:TYR:531:OH:9767, H-B:ARG:545:NH2:9900, V-B:ILE:538:CA:9832, H-B:TYR:539:N:9842"]

$$$$
2j_Grossjean_2025
     RDKit          3D

 32 33  0  0  0  0  0  0  0  0999 V2000
  133.2000  125.3460   64.2890 C   0  0  0  0  0  0  0  0  0  0  0  0
  132.5310  125.1100   62.9480 C   0  0  0  0  0  0  0  0  0  0  0  0
  133.2710  124.8240   61.8030 C   0  0  0  0  0  0  0  0  0  0  0  0
  132.6070  124.6100   60.5870 C   0  0  0  0  0  0  0  0  0  0  0  0
  133.4410  124.2930   59.3310 C   0  0  0  0  0  0  0  0  0  0  0  0
  133.1150  125.1290   58.3440 F   0  0  0  0  0  0  0  0  0  0  0  0
  134.7410  124.4280   59.6000 F   0  0  0  0  0  0  0  0  0  0  0  0
  133.2510  123.0500   58.8840 F   0  0  0  0  0  0  0  0  0  0  0  0
  131.1920  124.6950   60.5640 C   0  0  0  0  0  0  0  0  0  0  0  0
  130.4450  124.4810   59.3210 C   0  0  0  0  0  0  0  0  0  0  0  0
  129.8570  124.3110   58.3390 N   0  0  0  0  0  0  0  0  0  0  0  0
  130.5200  124.9910   61.7740 C   0  0  0  0  0  0  0  0  0  0  0  0
  128.7400  125.1210   61.8650 S   0  0  0  0  0  0  0  0  0  0  0  0
  128.0450  123.4360   61.9630 C   0  0  0  0  0  0  0  0  0  0  0  0
  126.9540  123.1260   60.9280 C   0  0  0  0  0  0  0  0  0  0  0  0
  125.8330  122.7570   61.2860 O   0  0  0  0  0  0  0  0  0  0  0  0
  127.3340  123.2810   59.6400 N   0  0  0  0  0  0  0  0  0  0  0  0
  126.5510  123.0710   58.5130 C   0  0  0  0  0  0  0  0  0  0  0  0
  126.8450  122.3570   57.4480 N   0  0  0  0  0  0  0  0  0  0  0  0
  125.8640  122.3740   56.5660 C   0  0  0  0  0  0  0  0  0  0  0  0
  124.7400  123.1180   56.9110 C   0  0  0  0  0  0  0  0  0  0  0  0
  124.9920  123.8300   58.4770 S   0  0  0  0  0  0  0  0  0  0  0  0
  131.1820  125.1930   62.9420 N   0  0  0  0  0  0  0  0  0  0  0  0
  132.4972  125.0981   65.0981 H   0  0  0  0  0  0  0  0  0  0  0  0
  134.0927  124.7085   64.3706 H   0  0  0  0  0  0  0  0  0  0  0  0
  133.4952  126.4025   64.3706 H   0  0  0  0  0  0  0  0  0  0  0  0
  134.3684  124.7665   61.8526 H   0  0  0  0  0  0  0  0  0  0  0  0
  128.8664  122.7186   61.8191 H   0  0  0  0  0  0  0  0  0  0  0  0
  127.5658  123.3566   62.9499 H   0  0  0  0  0  0  0  0  0  0  0  0
  128.2830  123.5780   59.4660 H   0  0  0  0  0  0  0  0  0  0  0  0
  125.9309  121.8307   55.6119 H   0  0  0  0  0  0  0  0  0  0  0  0
  123.8378  123.2366   56.2929 H   0  0  0  0  0  0  0  0  0  0  0  0
  1  2  1  0
  2  3  2  0
  3  4  1  0
  4  5  1  0
  5  6  1  0
  5  7  1  0
  5  8  1  0
  4  9  2  0
  9 10  1  0
 10 11  3  0
  9 12  1  0
 12 13  1  0
 13 14  1  0
 14 15  1  0
 15 16  2  0
 15 17  1  0
 17 18  1  0
 18 19  2  0
 19 20  1  0
 20 21  2  0
 21 22  1  0
 12 23  2  0
 23  2  1  0
 22 18  1  0
  1 24  1  0
  1 25  1  0
  1 26  1  0
  3 27  1  0
 14 28  1  0
 14 29  1  0
 17 30  1  0
 20 31  1  0
 21 32  1  0
M  END
>  <Binding energies>  (1) 
[-5.55]

>  <Ligand effiencies>  (1) 
[-0.23124999999999998]

>  <Interactions>  (1) 
["V-B:PRO:540:CD:9859, V-B:LEU:363:CD1:8161, V-A:ARG:545:CD:4923, V-B:PRO:540:CB:9857, V-A:ARG:545:CZ:4926, V-B:TYR:539:C:9839, V-B:PRO:540:CA:9855, V-B:PRO:540:N:9856, V-B:GLU:543:CD:9880, V-A:ILE:369:CD1:3239, V-A:TYR:484:CZ:4347, V-B:TYR:539:CE2:9848, V-B:PRO:540:C:9853, H-B:ALA:541:N:9863, H-A:TYR:484:OH:4348, V-A:ILE:369:CG2:3237, V-A:ASP:366:CG:3213, V-A:ASP:366:CB:3212, V-A:ILE:369:CB:3236, V-A:ASP:366:C:3208, V-A:ASP:366:CA:3210, V-B:TYR:531:CE2:9765, V-B:TYR:531:CZ:9766, V-A:ILE:369:CG1:3238, V-B:TYR:539:CZ:9849, H-B:TYR:539:N:9842, H-B:TYR:539:OH:9850"]

$$$$
2k_Grossjean_2025
     RDKit          3D

 50 50  0  0  0  0  0  0  0  0999 V2000
  127.5950  122.4280   56.9780 C   0  0  0  0  0  0  0  0  0  0  0  0
  126.2370  122.0190   56.9400 O   0  0  0  0  0  0  0  0  0  0  0  0
  125.3250  123.0980   56.7800 C   0  0  0  0  0  0  0  0  0  0  0  0
  124.7670  123.5120   58.1480 C   0  0  0  0  0  0  0  0  0  0  0  0
  125.8240  123.5180   59.0960 O   0  0  0  0  0  0  0  0  0  0  0  0
  125.4110  123.7920   60.4300 C   0  0  0  0  0  0  0  0  0  0  0  0
  126.3830  123.0940   61.3910 C   0  0  0  0  0  0  0  0  0  0  0  0
  127.3140  124.0630   61.8470 O   0  0  0  0  0  0  0  0  0  0  0  0
  128.6760  123.7670   61.5770 C   0  0  0  0  0  0  0  0  0  0  0  0
  128.7440  122.7110   60.4580 C   0  0  0  0  0  0  0  0  0  0  0  0
  130.1050  122.2250   60.2120 N   0  0  0  0  0  0  0  0  0  0  0  0
  130.9070  121.6480   61.1270 C   0  0  0  0  0  0  0  0  0  0  0  0
  130.5640  121.4340   62.2910 O   0  0  0  0  0  0  0  0  0  0  0  0
  132.3160  121.2790   60.6390 C   0  0  0  0  0  0  0  0  0  0  0  0
  133.6170  122.5080   61.0010 S   0  0  0  0  0  0  0  0  0  0  0  0
  132.8840  123.9320   61.7960 C   0  0  0  0  0  0  0  0  0  0  0  0
  133.2620  124.1490   63.0820 N   0  0  0  0  0  0  0  0  0  0  0  0
  132.7440  125.2050   63.7460 C   0  0  0  0  0  0  0  0  0  0  0  0
  133.2070  125.3720   65.1800 C   0  0  0  0  0  0  0  0  0  0  0  0
  131.8440  126.0920   63.1620 C   0  0  0  0  0  0  0  0  0  0  0  0
  131.4450  125.8930   61.8310 C   0  0  0  0  0  0  0  0  0  0  0  0
  130.4520  126.8860   61.1980 C   0  0  0  0  0  0  0  0  0  0  0  0
  131.0580  127.8610   60.5190 F   0  0  0  0  0  0  0  0  0  0  0  0
  129.6460  126.2480   60.3480 F   0  0  0  0  0  0  0  0  0  0  0  0
  129.7110  127.4590   62.1470 F   0  0  0  0  0  0  0  0  0  0  0  0
  131.9750  124.7830   61.1240 C   0  0  0  0  0  0  0  0  0  0  0  0
  131.5900  124.5250   59.7330 C   0  0  0  0  0  0  0  0  0  0  0  0
  131.2860  124.3220   58.6340 N   0  0  0  0  0  0  0  0  0  0  0  0
  127.9194  122.5257   58.0245 H   0  0  0  0  0  0  0  0  0  0  0  0
  128.2183  121.6777   56.4695 H   0  0  0  0  0  0  0  0  0  0  0  0
  127.7003  123.3977   56.4695 H   0  0  0  0  0  0  0  0  0  0  0  0
  125.8463  123.9526   56.3241 H   0  0  0  0  0  0  0  0  0  0  0  0
  124.4963  122.7806   56.1299 H   0  0  0  0  0  0  0  0  0  0  0  0
  124.3286  124.5184   58.0782 H   0  0  0  0  0  0  0  0  0  0  0  0
  123.9895  122.8005   58.4629 H   0  0  0  0  0  0  0  0  0  0  0  0
  125.4273  124.8773   60.6085 H   0  0  0  0  0  0  0  0  0  0  0  0
  124.3879  123.4220   60.5925 H   0  0  0  0  0  0  0  0  0  0  0  0
  125.8295  122.6762   62.2448 H   0  0  0  0  0  0  0  0  0  0  0  0
  126.9044  122.2716   60.8794 H   0  0  0  0  0  0  0  0  0  0  0  0
  129.1957  124.6812   61.2542 H   0  0  0  0  0  0  0  0  0  0  0  0
  129.1606  123.3796   62.4853 H   0  0  0  0  0  0  0  0  0  0  0  0
  128.1127  121.8565   60.7434 H   0  0  0  0  0  0  0  0  0  0  0  0
  128.3927  123.1894   59.5319 H   0  0  0  0  0  0  0  0  0  0  0  0
  130.4590  122.3490   59.2750 H   0  0  0  0  0  0  0  0  0  0  0  0
  132.6029  120.3304   61.1164 H   0  0  0  0  0  0  0  0  0  0  0  0
  132.2513  121.2202   59.5425 H   0  0  0  0  0  0  0  0  0  0  0  0
  132.3962  125.0796   65.8635 H   0  0  0  0  0  0  0  0  0  0  0  0
  134.0851  124.7339   65.3585 H   0  0  0  0  0  0  0  0  0  0  0  0
  133.4756  126.4237   65.3585 H   0  0  0  0  0  0  0  0  0  0  0  0
  131.4489  126.9414   63.7385 H   0  0  0  0  0  0  0  0  0  0  0  0
  1  2  1  0
  2  3  1  0
  3  4  1  0
  4  5  1  0
  5  6  1  0
  6  7  1  0
  7  8  1  0
  8  9  1  0
  9 10  1  0
 10 11  1  0
 11 12  1  0
 12 13  2  0
 12 14  1  0
 14 15  1  0
 15 16  1  0
 16 17  2  0
 17 18  1  0
 18 19  1  0
 18 20  2  0
 20 21  1  0
 21 22  1  0
 22 23  1  0
 22 24  1  0
 22 25  1  0
 21 26  2  0
 26 27  1  0
 27 28  3  0
 26 16  1  0
  1 29  1  0
  1 30  1  0
  1 31  1  0
  3 32  1  0
  3 33  1  0
  4 34  1  0
  4 35  1  0
  6 36  1  0
  6 37  1  0
  7 38  1  0
  7 39  1  0
  9 40  1  0
  9 41  1  0
 10 42  1  0
 10 43  1  0
 11 44  1  0
 14 45  1  0
 14 46  1  0
 19 47  1  0
 19 48  1  0
 19 49  1  0
 20 50  1  0
M  END
>  <Binding energies>  (1) 
[-5.27]

>  <Ligand effiencies>  (1) 
[-0.18172413793103448]

>  <Interactions>  (1) 
["V-B:PRO:540:CD:9859, V-A:ARG:545:CD:4923, V-B:PRO:540:CB:9857, V-A:ARG:545:CZ:4926, V-B:TYR:539:C:9839, V-B:PRO:540:CA:9855, V-B:PRO:540:N:9856, V-A:TYR:484:CZ:4347, V-A:TYR:484:CE2:4346, V-B:TYR:539:CE2:9848, V-A:ARG:545:CG:4922, V-B:PRO:540:C:9853, V-A:LEU:475:CD2:4259, H-A:TYR:484:OH:4348, V-B:TYR:539:CA:9841, V-B:TYR:539:CD2:9846, V-A:GLU:543:CD:4908, H-A:GLY:454:N:4050, V-A:ASP:366:CG:3213, V-B:TYR:539:CG:9844, V-B:TYR:539:CZ:9849, V-B:TYR:539:CE1:9847, V-B:TYR:539:CD1:9845, H-B:TYR:539:N:9842, H-B:TYR:539:OH:9850"]

$$$$
3aa_Grossjean_2025
     RDKit          3D

 52 54  0  0  0  0  0  0  0  0999 V2000
  133.0340  126.1900   74.5700 C   0  0  0  0  0  0  0  0  0  0  0  0
  132.1890  127.1870   73.7710 C   0  0  0  0  0  0  0  0  0  0  0  0
  131.0600  126.5190   73.2220 O   0  0  0  0  0  0  0  0  0  0  0  0
  129.8880  127.1750   73.0230 C   0  0  0  0  0  0  0  0  0  0  0  0
  129.1790  127.5960   73.9430 O   0  0  0  0  0  0  0  0  0  0  0  0
  129.5300  127.3240   71.5720 C   0  0  0  0  0  0  0  0  0  0  0  0
  130.2340  128.1860   70.7180 C   0  0  0  0  0  0  0  0  0  0  0  0
  129.8780  128.2980   69.3760 C   0  0  0  0  0  0  0  0  0  0  0  0
  128.8210  127.5470   68.8600 C   0  0  0  0  0  0  0  0  0  0  0  0
  128.5470  127.7310   67.4900 N   0  0  0  0  0  0  0  0  0  0  0  0
  128.3590  128.8750   66.7960 C   0  0  0  0  0  0  0  0  0  0  0  0
  128.3750  130.0100   67.2720 O   0  0  0  0  0  0  0  0  0  0  0  0
  128.0970  128.7020   65.3000 C   0  0  0  0  0  0  0  0  0  0  0  0
  126.3320  128.4350   64.9500 S   0  0  0  0  0  0  0  0  0  0  0  0
  126.1590  128.3430   63.1820 C   0  0  0  0  0  0  0  0  0  0  0  0
  126.7050  127.2280   62.6400 N   0  0  0  0  0  0  0  0  0  0  0  0
  126.6450  127.0340   61.2970 C   0  0  0  0  0  0  0  0  0  0  0  0
  127.2590  125.7700   60.7760 C   0  0  0  0  0  0  0  0  0  0  0  0
  126.4880  124.6050   60.6350 C   0  0  0  0  0  0  0  0  0  0  0  0
  127.0510  123.4270   60.1510 C   0  0  0  0  0  0  0  0  0  0  0  0
  128.3960  123.3990   59.8000 C   0  0  0  0  0  0  0  0  0  0  0  0
  129.1820  124.5400   59.9270 C   0  0  0  0  0  0  0  0  0  0  0  0
  128.6150  125.7170   60.4100 C   0  0  0  0  0  0  0  0  0  0  0  0
  126.0180  127.9660   60.4640 C   0  0  0  0  0  0  0  0  0  0  0  0
  125.4610  129.1370   61.0000 C   0  0  0  0  0  0  0  0  0  0  0  0
  124.7890  130.1440   60.0480 C   0  0  0  0  0  0  0  0  0  0  0  0
  123.5360  130.4370   60.4030 F   0  0  0  0  0  0  0  0  0  0  0  0
  125.4750  131.2880   60.0300 F   0  0  0  0  0  0  0  0  0  0  0  0
  124.7510  129.6440   58.8120 F   0  0  0  0  0  0  0  0  0  0  0  0
  125.5410  129.3430   62.3990 C   0  0  0  0  0  0  0  0  0  0  0  0
  125.0270  130.5730   63.0080 C   0  0  0  0  0  0  0  0  0  0  0  0
  124.6220  131.5460   63.4880 N   0  0  0  0  0  0  0  0  0  0  0  0
  128.1040  126.6920   69.7110 C   0  0  0  0  0  0  0  0  0  0  0  0
  128.4600  126.5840   71.0520 C   0  0  0  0  0  0  0  0  0  0  0  0
  132.8865  126.3640   75.6461 H   0  0  0  0  0  0  0  0  0  0  0  0
  132.7260  125.1643   74.3188 H   0  0  0  0  0  0  0  0  0  0  0  0
  134.0963  126.3257   74.3188 H   0  0  0  0  0  0  0  0  0  0  0  0
  131.8495  127.9951   74.4356 H   0  0  0  0  0  0  0  0  0  0  0  0
  132.7951  127.6116   72.9572 H   0  0  0  0  0  0  0  0  0  0  0  0
  131.0736  128.7780   71.1112 H   0  0  0  0  0  0  0  0  0  0  0  0
  130.4337  128.9829   68.7186 H   0  0  0  0  0  0  0  0  0  0  0  0
  128.4300  126.8720   66.9720 H   0  0  0  0  0  0  0  0  0  0  0  0
  128.4315  129.6076   64.7728 H   0  0  0  0  0  0  0  0  0  0  0  0
  128.6517  127.8166   64.9558 H   0  0  0  0  0  0  0  0  0  0  0  0
  125.4233  124.6232   60.9110 H   0  0  0  0  0  0  0  0  0  0  0  0
  126.4341  122.5222   60.0468 H   0  0  0  0  0  0  0  0  0  0  0  0
  128.8418  122.4683   59.4192 H   0  0  0  0  0  0  0  0  0  0  0  0
  130.2455  124.5127   59.6475 H   0  0  0  0  0  0  0  0  0  0  0  0
  129.2378  126.6186   60.5064 H   0  0  0  0  0  0  0  0  0  0  0  0
  125.9611  127.7798   59.3814 H   0  0  0  0  0  0  0  0  0  0  0  0
  127.2598  126.1066   69.3177 H   0  0  0  0  0  0  0  0  0  0  0  0
  127.8945  125.9095   71.7117 H   0  0  0  0  0  0  0  0  0  0  0  0
  1  2  1  0
  2  3  1  0
  3  4  1  0
  4  5  2  0
  4  6  1  0
  6  7  2  0
  7  8  1  0
  8  9  2  0
  9 10  1  0
 10 11  1  0
 11 12  2  0
 11 13  1  0
 13 14  1  0
 14 15  1  0
 15 16  2  0
 16 17  1  0
 17 18  1  0
 18 19  2  0
 19 20  1  0
 20 21  2  0
 21 22  1  0
 22 23  2  0
 17 24  2  0
 24 25  1  0
 25 26  1  0
 26 27  1  0
 26 28  1  0
 26 29  1  0
 25 30  2  0
 30 31  1  0
 31 32  3  0
  9 33  1  0
 33 34  2  0
 34  6  1  0
 30 15  1  0
 23 18  1  0
  1 35  1  0
  1 36  1  0
  1 37  1  0
  2 38  1  0
  2 39  1  0
  7 40  1  0
  8 41  1  0
 10 42  1  0
 13 43  1  0
 13 44  1  0
 19 45  1  0
 20 46  1  0
 21 47  1  0
 22 48  1  0
 23 49  1  0
 24 50  1  0
 33 51  1  0
 34 52  1  0
M  END
>  <Binding energies>  (1) 
[-7.13]

>  <Ligand effiencies>  (1) 
[-0.2037142857142857]

>  <Interactions>  (1) 
["V-B:PRO:540:CA:9855, V-B:GLU:543:CD:9880, V-A:HIS:456:CE1:4070, V-B:ASP:366:CG:8185, V-A:GLU:543:C:4902, V-B:HIS:456:CE1:9042, V-B:ARG:545:CZ:9898, V-A:GLU:543:CB:4906, H-B:TYR:484:OH:9320, V-A:GLU:543:CD:4908, V-A:GLY:544:C:4912, V-B:ILE:369:CD1:8211, V-A:GLU:543:CG:4907, H-B:ARG:545:NE:9896, V-A:HIS:456:CG:4066, H-B:GLY:454:N:9022, V-A:HIS:456:CD2:4068, H-B:GLU:543:OE2:9882, V-B:ASP:366:CB:8184, H-B:ARG:545:NH2:9900, V-B:ASP:366:CA:8182, V-B:GLU:543:CB:9878, V-B:HIS:456:CD2:9040, H-B:LYS:547:NZ:9923, V-A:HIS:456:CB:4065, V-A:VAL:458:CG2:4087"]

$$$$
3ab_Grossjean_2025
     RDKit          3D

 49 51  0  0  0  0  0  0  0  0999 V2000
  128.3620  123.6330   56.3390 C   0  0  0  0  0  0  0  0  0  0  0  0
  127.4000  122.5900   56.2670 O   0  0  0  0  0  0  0  0  0  0  0  0
  126.2490  122.6510   56.9850 C   0  0  0  0  0  0  0  0  0  0  0  0
  125.2360  122.0040   56.7030 O   0  0  0  0  0  0  0  0  0  0  0  0
  126.3320  123.5810   58.1610 C   0  0  0  0  0  0  0  0  0  0  0  0
  126.1620  124.9670   58.0250 C   0  0  0  0  0  0  0  0  0  0  0  0
  126.2430  125.8060   59.1330 C   0  0  0  0  0  0  0  0  0  0  0  0
  126.4980  125.2680   60.4050 C   0  0  0  0  0  0  0  0  0  0  0  0
  126.5940  126.0190   61.5920 N   0  0  0  0  0  0  0  0  0  0  0  0
  126.8240  127.3370   61.7680 C   0  0  0  0  0  0  0  0  0  0  0  0
  127.0140  128.1560   60.8690 O   0  0  0  0  0  0  0  0  0  0  0  0
  126.8460  127.8110   63.2230 C   0  0  0  0  0  0  0  0  0  0  0  0
  128.2550  128.9080   63.5640 S   0  0  0  0  0  0  0  0  0  0  0  0
  128.3650  130.0710   62.2210 C   0  0  0  0  0  0  0  0  0  0  0  0
  129.6190  130.2180   61.7330 N   0  0  0  0  0  0  0  0  0  0  0  0
  129.8480  131.0710   60.7010 C   0  0  0  0  0  0  0  0  0  0  0  0
  131.2640  131.1730   60.2170 C   0  0  0  0  0  0  0  0  0  0  0  0
  131.5770  130.9650   58.8640 C   0  0  0  0  0  0  0  0  0  0  0  0
  132.8890  131.0590   58.4080 C   0  0  0  0  0  0  0  0  0  0  0  0
  133.9110  131.3630   59.3030 C   0  0  0  0  0  0  0  0  0  0  0  0
  133.6280  131.5700   60.6490 C   0  0  0  0  0  0  0  0  0  0  0  0
  132.3140  131.4740   61.1000 C   0  0  0  0  0  0  0  0  0  0  0  0
  128.8040  131.8210   60.1470 C   0  0  0  0  0  0  0  0  0  0  0  0
  127.5000  131.7010   60.6490 C   0  0  0  0  0  0  0  0  0  0  0  0
  126.3800  132.5490   60.0150 C   0  0  0  0  0  0  0  0  0  0  0  0
  126.7680  133.1640   58.8950 F   0  0  0  0  0  0  0  0  0  0  0  0
  125.3380  131.7770   59.7050 F   0  0  0  0  0  0  0  0  0  0  0  0
  125.9800  133.4890   60.8720 F   0  0  0  0  0  0  0  0  0  0  0  0
  127.2660  130.8080   61.7240 C   0  0  0  0  0  0  0  0  0  0  0  0
  125.9340  130.6870   62.3220 C   0  0  0  0  0  0  0  0  0  0  0  0
  124.8810  130.5940   62.7930 N   0  0  0  0  0  0  0  0  0  0  0  0
  126.6610  123.8900   60.5440 C   0  0  0  0  0  0  0  0  0  0  0  0
  126.5810  123.0540   59.4350 C   0  0  0  0  0  0  0  0  0  0  0  0
  128.5746  123.8635   57.3933 H   0  0  0  0  0  0  0  0  0  0  0  0
  129.2883  123.3126   55.8397 H   0  0  0  0  0  0  0  0  0  0  0  0
  127.9679  124.5304   55.8397 H   0  0  0  0  0  0  0  0  0  0  0  0
  125.9625  125.3956   57.0318 H   0  0  0  0  0  0  0  0  0  0  0  0
  126.1072  126.8909   59.0121 H   0  0  0  0  0  0  0  0  0  0  0  0
  126.5090  125.4670   62.4340 H   0  0  0  0  0  0  0  0  0  0  0  0
  125.9136  128.3557   63.4327 H   0  0  0  0  0  0  0  0  0  0  0  0
  126.9437  126.9243   63.8666 H   0  0  0  0  0  0  0  0  0  0  0  0
  130.7728  130.7240   58.1532 H   0  0  0  0  0  0  0  0  0  0  0  0
  133.1172  130.8937   57.3447 H   0  0  0  0  0  0  0  0  0  0  0  0
  134.9479  131.4399   58.9438 H   0  0  0  0  0  0  0  0  0  0  0  0
  134.4382  131.8084   61.3538 H   0  0  0  0  0  0  0  0  0  0  0  0
  132.0947  131.6366   62.1656 H   0  0  0  0  0  0  0  0  0  0  0  0
  129.0076  132.5086   59.3129 H   0  0  0  0  0  0  0  0  0  0  0  0
  126.8543  123.4608   61.5382 H   0  0  0  0  0  0  0  0  0  0  0  0
  126.7145  121.9692   59.5595 H   0  0  0  0  0  0  0  0  0  0  0  0
  1  2  1  0
  2  3  1  0
  3  4  2  0
  3  5  1  0
  5  6  2  0
  6  7  1  0
  7  8  2  0
  8  9  1  0
  9 10  1  0
 10 11  2  0
 10 12  1  0
 12 13  1  0
 13 14  1  0
 14 15  2  0
 15 16  1  0
 16 17  1  0
 17 18  2  0
 18 19  1  0
 19 20  2  0
 20 21  1  0
 21 22  2  0
 16 23  2  0
 23 24  1  0
 24 25  1  0
 25 26  1  0
 25 27  1  0
 25 28  1  0
 24 29  2  0
 29 30  1  0
 30 31  3  0
  8 32  1  0
 32 33  2  0
 33  5  1  0
 29 14  1  0
 22 17  1  0
  1 34  1  0
  1 35  1  0
  1 36  1  0
  6 37  1  0
  7 38  1  0
  9 39  1  0
 12 40  1  0
 12 41  1  0
 18 42  1  0
 19 43  1  0
 20 44  1  0
 21 45  1  0
 22 46  1  0
 23 47  1  0
 32 48  1  0
 33 49  1  0
M  END
>  <Binding energies>  (1) 
[-6.46]

>  <Ligand effiencies>  (1) 
[-0.19]

>  <Interactions>  (1) 
["V-B:PRO:540:CD:9859, V-B:PRO:540:CB:9857, V-B:TYR:539:C:9839, V-B:PRO:540:CA:9855, V-B:PRO:540:N:9856, V-B:GLU:543:CD:9880, V-B:TYR:539:CE2:9848, V-B:ASP:366:CG:8185, H-B:TYR:484:OH:9320, V-A:GLU:543:CD:4908, V-B:LEU:475:CD2:9231, V-A:ASP:366:CG:3213, H-B:GLU:543:OE2:9882, H-B:GLU:543:OE1:9881, V-B:TYR:539:CZ:9849, V-B:TYR:539:CE1:9847, V-B:TYR:539:CD1:9845, V-B:MET:535:CE:9807, V-A:PRO:540:CA:4883, V-A:PRO:540:CB:4885, H-B:TYR:539:N:9842, V-A:ASN:362:CB:3176, V-A:LEU:363:CA:3185, V-A:TYR:539:CD1:4873, V-A:TYR:539:CE1:4875, V-A:LEU:363:CB:3187, V-A:TYR:539:CZ:4877, V-A:TYR:539:CG:4872, V-A:ASN:362:C:3172"]

$$$$
3ac_Grossjean_2025
     RDKit          3D

 47 49  0  0  0  0  0  0  0  0999 V2000
  124.3810  123.5240   61.6660 C   0  0  0  0  0  0  0  0  0  0  0  0
  125.3940  122.8030   62.3620 O   0  0  0  0  0  0  0  0  0  0  0  0
  126.6850  122.8110   61.8710 C   0  0  0  0  0  0  0  0  0  0  0  0
  127.6940  122.4680   62.7710 C   0  0  0  0  0  0  0  0  0  0  0  0
  129.0260  122.4440   62.3670 C   0  0  0  0  0  0  0  0  0  0  0  0
  129.3690  122.7730   61.0540 C   0  0  0  0  0  0  0  0  0  0  0  0
  130.7380  122.7010   60.7340 N   0  0  0  0  0  0  0  0  0  0  0  0
  131.4800  121.6200   60.4090 C   0  0  0  0  0  0  0  0  0  0  0  0
  131.0510  120.4720   60.2920 O   0  0  0  0  0  0  0  0  0  0  0  0
  132.9660  121.8890   60.1710 C   0  0  0  0  0  0  0  0  0  0  0  0
  133.2400  123.2690   59.0180 S   0  0  0  0  0  0  0  0  0  0  0  0
  132.5130  124.7430   59.7080 C   0  0  0  0  0  0  0  0  0  0  0  0
  132.4410  124.7190   61.0610 N   0  0  0  0  0  0  0  0  0  0  0  0
  131.9150  125.7780   61.7300 C   0  0  0  0  0  0  0  0  0  0  0  0
  131.8650  125.6680   63.2250 C   0  0  0  0  0  0  0  0  0  0  0  0
  133.0270  125.3890   63.9640 C   0  0  0  0  0  0  0  0  0  0  0  0
  132.9880  125.2910   65.3520 C   0  0  0  0  0  0  0  0  0  0  0  0
  131.7820  125.4700   66.0220 C   0  0  0  0  0  0  0  0  0  0  0  0
  130.6170  125.7420   65.3150 C   0  0  0  0  0  0  0  0  0  0  0  0
  130.6600  125.8380   63.9260 C   0  0  0  0  0  0  0  0  0  0  0  0
  131.4290  126.8920   61.0390 C   0  0  0  0  0  0  0  0  0  0  0  0
  131.4710  126.9330   59.6370 C   0  0  0  0  0  0  0  0  0  0  0  0
  130.9190  128.1780   58.9160 C   0  0  0  0  0  0  0  0  0  0  0  0
  130.6340  129.1780   59.7520 F   0  0  0  0  0  0  0  0  0  0  0  0
  131.8130  128.6370   58.0380 F   0  0  0  0  0  0  0  0  0  0  0  0
  129.7980  127.8640   58.2650 F   0  0  0  0  0  0  0  0  0  0  0  0
  132.0150  125.8230   58.9430 C   0  0  0  0  0  0  0  0  0  0  0  0
  132.0110  125.7870   57.4790 C   0  0  0  0  0  0  0  0  0  0  0  0
  132.0060  125.7590   56.3220 N   0  0  0  0  0  0  0  0  0  0  0  0
  128.3590  123.1120   60.1410 C   0  0  0  0  0  0  0  0  0  0  0  0
  127.0280  123.1340   60.5490 C   0  0  0  0  0  0  0  0  0  0  0  0
  123.7076  124.0033   62.3919 H   0  0  0  0  0  0  0  0  0  0  0  0
  124.8475  124.2944   61.0344 H   0  0  0  0  0  0  0  0  0  0  0  0
  123.8059  122.8309   61.0344 H   0  0  0  0  0  0  0  0  0  0  0  0
  127.4348  122.2142   63.8095 H   0  0  0  0  0  0  0  0  0  0  0  0
  129.8113  122.1648   63.0849 H   0  0  0  0  0  0  0  0  0  0  0  0
  131.2070  123.5940   60.7000 H   0  0  0  0  0  0  0  0  0  0  0  0
  133.4403  122.1322   61.1332 H   0  0  0  0  0  0  0  0  0  0  0  0
  133.4051  120.9846   59.7247 H   0  0  0  0  0  0  0  0  0  0  0  0
  133.9822  125.2458   63.4376 H   0  0  0  0  0  0  0  0  0  0  0  0
  133.9066  125.0730   65.9165 H   0  0  0  0  0  0  0  0  0  0  0  0
  131.7504  125.3957   67.1190 H   0  0  0  0  0  0  0  0  0  0  0  0
  129.6657  125.8808   65.8495 H   0  0  0  0  0  0  0  0  0  0  0  0
  129.7353  126.0504   63.3693 H   0  0  0  0  0  0  0  0  0  0  0  0
  131.0109  127.7420   61.5981 H   0  0  0  0  0  0  0  0  0  0  0  0
  128.6191  123.3607   59.1015 H   0  0  0  0  0  0  0  0  0  0  0  0
  126.2405  123.4062   59.8308 H   0  0  0  0  0  0  0  0  0  0  0  0
  1  2  1  0
  2  3  1  0
  3  4  2  0
  4  5  1  0
  5  6  2  0
  6  7  1  0
  7  8  1  0
  8  9  2  0
  8 10  1  0
 10 11  1  0
 11 12  1  0
 12 13  2  0
 13 14  1  0
 14 15  1  0
 15 16  2  0
 16 17  1  0
 17 18  2  0
 18 19  1  0
 19 20  2  0
 14 21  2  0
 21 22  1  0
 22 23  1  0
 23 24  1  0
 23 25  1  0
 23 26  1  0
 22 27  2  0
 27 28  1  0
 28 29  3  0
  6 30  1  0
 30 31  2  0
 31  3  1  0
 27 12  1  0
 20 15  1  0
  1 32  1  0
  1 33  1  0
  1 34  1  0
  4 35  1  0
  5 36  1  0
  7 37  1  0
 10 38  1  0
 10 39  1  0
 16 40  1  0
 17 41  1  0
 18 42  1  0
 19 43  1  0
 20 44  1  0
 21 45  1  0
 30 46  1  0
 31 47  1  0
M  END
>  <Binding energies>  (1) 
[-6.17]

>  <Ligand effiencies>  (1) 
[-0.1928125]

>  <Interactions>  (1) 
["V-A:ARG:545:CD:4923, V-B:PRO:540:CB:9857, V-A:ARG:545:CZ:4926, V-B:PRO:540:CA:9855, V-B:GLU:543:CD:9880, V-A:TYR:484:CZ:4347, V-A:TYR:484:CE2:4346, V-B:TYR:539:CE2:9848, V-A:ARG:545:CG:4922, V-B:PRO:540:C:9853, H-B:ALA:541:N:9863, V-A:HIS:456:CE1:4070, V-A:LEU:475:CD2:4259, V-B:ALA:541:CA:9862, V-B:TYR:539:CD2:9846, V-B:ALA:541:CB:9864, V-A:GLU:543:CD:4908, V-A:ILE:369:CG2:3237, V-A:ASP:366:CG:3213, V-A:ASP:366:CB:3212, V-B:GLU:543:CG:9879, V-A:TYR:484:CE1:4345, V-B:ASN:362:CB:8148, H-B:TYR:539:OH:9850"]

$$$$
3ad_Grossjean_2025
     RDKit          3D

 43 45  0  0  0  0  0  0  0  0999 V2000
  133.6330  124.9360   63.0860 N   0  0  0  0  0  0  0  0  0  0  0  0
  132.7010  124.7610   62.4230 C   0  0  0  0  0  0  0  0  0  0  0  0
  131.5170  124.5420   61.5850 C   0  0  0  0  0  0  0  0  0  0  0  0
  130.2270  124.8990   62.0470 C   0  0  0  0  0  0  0  0  0  0  0  0
  129.9880  125.5700   63.4130 C   0  0  0  0  0  0  0  0  0  0  0  0
  131.0480  126.2550   63.8460 F   0  0  0  0  0  0  0  0  0  0  0  0
  128.9650  126.4220   63.3280 F   0  0  0  0  0  0  0  0  0  0  0  0
  129.7060  124.6470   64.3350 F   0  0  0  0  0  0  0  0  0  0  0  0
  129.1220  124.6240   61.2270 C   0  0  0  0  0  0  0  0  0  0  0  0
  129.3000  124.0090   59.9830 C   0  0  0  0  0  0  0  0  0  0  0  0
  128.1530  123.6790   59.0730 C   0  0  0  0  0  0  0  0  0  0  0  0
  128.2860  122.6970   58.0790 C   0  0  0  0  0  0  0  0  0  0  0  0
  127.2260  122.3860   57.2330 C   0  0  0  0  0  0  0  0  0  0  0  0
  126.0130  123.0560   57.3700 C   0  0  0  0  0  0  0  0  0  0  0  0
  125.8560  124.0310   58.3480 C   0  0  0  0  0  0  0  0  0  0  0  0
  126.9190  124.3380   59.1940 C   0  0  0  0  0  0  0  0  0  0  0  0
  130.5380  123.6630   59.5480 N   0  0  0  0  0  0  0  0  0  0  0  0
  131.6210  123.9360   60.3130 C   0  0  0  0  0  0  0  0  0  0  0  0
  133.1590  123.4260   59.5800 S   0  0  0  0  0  0  0  0  0  0  0  0
  133.6490  121.8690   60.3810 C   0  0  0  0  0  0  0  0  0  0  0  0
  132.4740  120.8990   60.5250 C   0  0  0  0  0  0  0  0  0  0  0  0
  131.4960  121.2380   61.1920 O   0  0  0  0  0  0  0  0  0  0  0  0
  132.6170  119.7170   59.8870 N   0  0  0  0  0  0  0  0  0  0  0  0
  131.7340  118.6250   59.8060 C   0  0  0  0  0  0  0  0  0  0  0  0
  131.9790  117.7250   58.7640 C   0  0  0  0  0  0  0  0  0  0  0  0
  131.1620  116.6110   58.5900 C   0  0  0  0  0  0  0  0  0  0  0  0
  130.0940  116.3970   59.4570 C   0  0  0  0  0  0  0  0  0  0  0  0
  129.8350  117.2880   60.4940 C   0  0  0  0  0  0  0  0  0  0  0  0
  130.6490  118.4040   60.6720 C   0  0  0  0  0  0  0  0  0  0  0  0
  128.1102  124.8935   61.5641 H   0  0  0  0  0  0  0  0  0  0  0  0
  129.2425  122.1653   57.9671 H   0  0  0  0  0  0  0  0  0  0  0  0
  127.3458  121.6138   56.4589 H   0  0  0  0  0  0  0  0  0  0  0  0
  125.1747  122.8124   56.7007 H   0  0  0  0  0  0  0  0  0  0  0  0
  124.8962  124.5580   58.4534 H   0  0  0  0  0  0  0  0  0  0  0  0
  126.7899  125.1083   59.9686 H   0  0  0  0  0  0  0  0  0  0  0  0
  134.4319  121.3898   59.7749 H   0  0  0  0  0  0  0  0  0  0  0  0
  134.0150  122.1087   61.3902 H   0  0  0  0  0  0  0  0  0  0  0  0
  133.5020  119.5670   59.4250 H   0  0  0  0  0  0  0  0  0  0  0  0
  132.8215  117.8981   58.0783 H   0  0  0  0  0  0  0  0  0  0  0  0
  131.3595  115.9033   57.7713 H   0  0  0  0  0  0  0  0  0  0  0  0
  129.4494  115.5161   59.3211 H   0  0  0  0  0  0  0  0  0  0  0  0
  128.9878  117.1110   61.1728 H   0  0  0  0  0  0  0  0  0  0  0  0
  130.4432  119.1113   61.4889 H   0  0  0  0  0  0  0  0  0  0  0  0
  1  2  3  0
  2  3  1  0
  3  4  2  0
  4  5  1  0
  5  6  1  0
  5  7  1  0
  5  8  1  0
  4  9  1  0
  9 10  2  0
 10 11  1  0
 11 12  2  0
 12 13  1  0
 13 14  2  0
 14 15  1  0
 15 16  2  0
 10 17  1  0
 17 18  2  0
 18 19  1  0
 19 20  1  0
 20 21  1  0
 21 22  2  0
 21 23  1  0
 23 24  1  0
 24 25  2  0
 25 26  1  0
 26 27  2  0
 27 28  1  0
 28 29  2  0
 18  3  1  0
 29 24  1  0
 16 11  1  0
  9 30  1  0
 12 31  1  0
 13 32  1  0
 14 33  1  0
 15 34  1  0
 16 35  1  0
 20 36  1  0
 20 37  1  0
 23 38  1  0
 25 39  1  0
 26 40  1  0
 27 41  1  0
 28 42  1  0
 29 43  1  0
M  END
>  <Binding energies>  (1) 
[-7.82]

>  <Ligand effiencies>  (1) 
[-0.26066666666666666]

>  <Interactions>  (1) 
["V-B:PRO:540:CD:9859, V-B:PRO:540:CB:9857, V-B:TYR:539:C:9839, V-B:PRO:540:CA:9855, V-B:PRO:540:N:9856, V-B:GLU:543:CD:9880, V-A:ILE:369:CD1:3239, V-A:TYR:484:CZ:4347, V-A:TYR:484:CE2:4346, V-B:TYR:539:CE2:9848, V-A:SER:385:CB:3409, V-B:VAL:344:CG1:7973, V-A:HIS:383:CE1:3394, V-A:PRO:482:CG:4327, V-A:PRO:482:CB:4326, V-B:TYR:539:CB:9843, V-A:LEU:475:CD2:4259, H-A:TYR:484:OH:4348, V-B:TYR:539:CA:9841, V-B:TYR:539:CD2:9846, V-A:LEU:373:CD1:3280, V-A:GLU:543:CD:4908, H-A:GLY:454:N:4050, V-A:ILE:369:CG2:3237, H-A:ARG:545:NH2:4928, V-A:ILE:369:CB:3236, V-B:GLU:543:CG:9879, V-B:TYR:539:CG:9844, V-A:TYR:484:CE1:4345, V-B:TYR:539:CZ:9849, V-B:TYR:539:CD1:9845, H-A:SER:385:O:3406"]

$$$$
3af_Grossjean_2025
     RDKit          3D

 42 44  0  0  0  0  0  0  0  0999 V2000
  131.3810  126.6970   61.4320 N   0  0  0  0  0  0  0  0  0  0  0  0
  131.3620  125.5480   61.3000 C   0  0  0  0  0  0  0  0  0  0  0  0
  131.3400  124.0920   61.1320 C   0  0  0  0  0  0  0  0  0  0  0  0
  132.2450  123.4530   60.2510 C   0  0  0  0  0  0  0  0  0  0  0  0
  133.3240  124.2230   59.4640 C   0  0  0  0  0  0  0  0  0  0  0  0
  132.9060  125.4190   59.0440 F   0  0  0  0  0  0  0  0  0  0  0  0
  134.3960  124.4190   60.2330 F   0  0  0  0  0  0  0  0  0  0  0  0
  133.6880  123.5280   58.3850 F   0  0  0  0  0  0  0  0  0  0  0  0
  132.1500  122.0630   60.0820 C   0  0  0  0  0  0  0  0  0  0  0  0
  131.1770  121.3330   60.7730 C   0  0  0  0  0  0  0  0  0  0  0  0
  131.0180  119.8500   60.6160 C   0  0  0  0  0  0  0  0  0  0  0  0
  131.8820  119.1200   59.7840 C   0  0  0  0  0  0  0  0  0  0  0  0
  131.7420  117.7420   59.6370 C   0  0  0  0  0  0  0  0  0  0  0  0
  130.7310  117.0750   60.3210 C   0  0  0  0  0  0  0  0  0  0  0  0
  129.8630  117.7740   61.1530 C   0  0  0  0  0  0  0  0  0  0  0  0
  130.0080  119.1520   61.2980 C   0  0  0  0  0  0  0  0  0  0  0  0
  130.3090  121.9500   61.6140 N   0  0  0  0  0  0  0  0  0  0  0  0
  130.3960  123.2880   61.8100 C   0  0  0  0  0  0  0  0  0  0  0  0
  129.1850  123.9130   62.9580 S   0  0  0  0  0  0  0  0  0  0  0  0
  127.7960  122.7410   63.0040 C   0  0  0  0  0  0  0  0  0  0  0  0
  126.8970  122.8760   61.7750 C   0  0  0  0  0  0  0  0  0  0  0  0
  125.6790  122.9580   61.9310 O   0  0  0  0  0  0  0  0  0  0  0  0
  127.5390  122.8870   60.5870 N   0  0  0  0  0  0  0  0  0  0  0  0
  127.0150  122.9890   59.2830 C   0  0  0  0  0  0  0  0  0  0  0  0
  125.8240  123.6470   58.9260 C   0  0  0  0  0  0  0  0  0  0  0  0
  125.4200  123.6680   57.5900 C   0  0  0  0  0  0  0  0  0  0  0  0
  126.2170  123.0280   56.6400 C   0  0  0  0  0  0  0  0  0  0  0  0
  127.3690  122.3870   56.9580 N   0  0  0  0  0  0  0  0  0  0  0  0
  127.7480  122.3760   58.2610 C   0  0  0  0  0  0  0  0  0  0  0  0
  132.8437  121.5453   59.4032 H   0  0  0  0  0  0  0  0  0  0  0  0
  132.6815  119.6443   59.2401 H   0  0  0  0  0  0  0  0  0  0  0  0
  132.4279  117.1837   58.9829 H   0  0  0  0  0  0  0  0  0  0  0  0
  130.6173  115.9873   60.2031 H   0  0  0  0  0  0  0  0  0  0  0  0
  129.0664  117.2418   61.6936 H   0  0  0  0  0  0  0  0  0  0  0  0
  129.3204  119.7021   61.9572 H   0  0  0  0  0  0  0  0  0  0  0  0
  128.1956  121.7169   63.0418 H   0  0  0  0  0  0  0  0  0  0  0  0
  127.1912  122.9631   63.8955 H   0  0  0  0  0  0  0  0  0  0  0  0
  128.5450  122.8190   60.6240 H   0  0  0  0  0  0  0  0  0  0  0  0
  125.2141  124.1425   59.6958 H   0  0  0  0  0  0  0  0  0  0  0  0
  124.4923  124.1786   57.2921 H   0  0  0  0  0  0  0  0  0  0  0  0
  125.8970  123.0441   55.5877 H   0  0  0  0  0  0  0  0  0  0  0  0
  128.6808  121.8577   58.5278 H   0  0  0  0  0  0  0  0  0  0  0  0
  1  2  3  0
  2  3  1  0
  3  4  2  0
  4  5  1  0
  5  6  1  0
  5  7  1  0
  5  8  1  0
  4  9  1  0
  9 10  2  0
 10 11  1  0
 11 12  2  0
 12 13  1  0
 13 14  2  0
 14 15  1  0
 15 16  2  0
 10 17  1  0
 17 18  2  0
 18 19  1  0
 19 20  1  0
 20 21  1  0
 21 22  2  0
 21 23  1  0
 23 24  1  0
 24 25  2  0
 25 26  1  0
 26 27  2  0
 27 28  1  0
 28 29  2  0
 18  3  1  0
 29 24  1  0
 16 11  1  0
  9 30  1  0
 12 31  1  0
 13 32  1  0
 14 33  1  0
 15 34  1  0
 16 35  1  0
 20 36  1  0
 20 37  1  0
 23 38  1  0
 25 39  1  0
 26 40  1  0
 27 41  1  0
 29 42  1  0
M  END
>  <Binding energies>  (1) 
[-8.01]

>  <Ligand effiencies>  (1) 
[-0.267]

>  <Interactions>  (1) 
["V-B:PRO:540:CB:9857, V-B:TYR:539:C:9839, V-B:PRO:540:CA:9855, V-B:PRO:540:N:9856, V-B:GLU:543:CD:9880, V-A:ILE:369:CD1:3239, V-B:TYR:539:CE2:9848, V-B:PRO:540:C:9853, H-B:ALA:541:N:9863, H-B:TYR:539:O:9840, V-A:SER:385:CB:3409, V-A:PRO:482:CG:4327, V-A:PRO:482:CB:4326, V-B:TYR:539:CB:9843, V-A:LEU:475:CD2:4259, H-A:TYR:484:OH:4348, V-B:ALA:541:CA:9862, V-B:TYR:539:CA:9841, V-B:TYR:539:CD2:9846, V-A:LEU:475:CD1:4258, V-A:LEU:475:CG:4257, V-B:ALA:541:CB:9864, V-A:ILE:369:CG2:3237, H-A:ARG:545:NH2:4928, V-A:ASP:366:CG:3213, V-A:ASP:366:CB:3212, V-A:ILE:369:CB:3236, V-A:ASP:366:CA:3210, V-B:GLU:543:CG:9879, V-B:TYR:539:CG:9844, V-A:ILE:369:CG1:3238, V-B:TYR:539:CZ:9849, H-B:TYR:539:N:9842"]

$$$$
3ag_Grossjean_2025
     RDKit          3D

 46 48  0  0  0  0  0  0  0  0999 V2000
  132.2300  120.7150   60.2310 N   0  0  0  0  0  0  0  0  0  0  0  0
  131.7890  121.7690   60.4150 C   0  0  0  0  0  0  0  0  0  0  0  0
  131.2330  123.1050   60.6460 C   0  0  0  0  0  0  0  0  0  0  0  0
  131.9330  124.2630   60.2250 C   0  0  0  0  0  0  0  0  0  0  0  0
  133.2680  124.1950   59.4590 C   0  0  0  0  0  0  0  0  0  0  0  0
  134.3200  124.0430   60.2650 F   0  0  0  0  0  0  0  0  0  0  0  0
  133.2550  123.1620   58.6150 F   0  0  0  0  0  0  0  0  0  0  0  0
  133.4570  125.3180   58.7650 F   0  0  0  0  0  0  0  0  0  0  0  0
  131.3850  125.5210   60.5170 C   0  0  0  0  0  0  0  0  0  0  0  0
  130.1800  125.6220   61.2200 C   0  0  0  0  0  0  0  0  0  0  0  0
  129.5510  126.9390   61.5610 C   0  0  0  0  0  0  0  0  0  0  0  0
  128.7410  127.0730   62.6990 C   0  0  0  0  0  0  0  0  0  0  0  0
  128.1540  128.2940   63.0220 C   0  0  0  0  0  0  0  0  0  0  0  0
  128.3700  129.4000   62.2070 C   0  0  0  0  0  0  0  0  0  0  0  0
  129.1670  129.2930   61.0720 C   0  0  0  0  0  0  0  0  0  0  0  0
  129.7510  128.0710   60.7520 C   0  0  0  0  0  0  0  0  0  0  0  0
  129.5050  124.5100   61.6110 N   0  0  0  0  0  0  0  0  0  0  0  0
  130.0060  123.2840   61.3230 C   0  0  0  0  0  0  0  0  0  0  0  0
  128.9900  121.9460   61.9080 S   0  0  0  0  0  0  0  0  0  0  0  0
  127.5050  122.6800   62.6560 C   0  0  0  0  0  0  0  0  0  0  0  0
  126.5310  123.2130   61.6030 C   0  0  0  0  0  0  0  0  0  0  0  0
  125.3890  122.7560   61.5350 O   0  0  0  0  0  0  0  0  0  0  0  0
  126.9960  124.1830   60.7970 N   0  0  0  0  0  0  0  0  0  0  0  0
  126.2280  124.8570   59.7510 C   0  0  0  0  0  0  0  0  0  0  0  0
  125.9440  123.9890   58.5300 C   0  0  0  0  0  0  0  0  0  0  0  0
  124.6250  123.6590   58.2050 C   0  0  0  0  0  0  0  0  0  0  0  0
  124.3590  122.8910   57.0750 C   0  0  0  0  0  0  0  0  0  0  0  0
  125.4110  122.4630   56.2680 C   0  0  0  0  0  0  0  0  0  0  0  0
  126.7270  122.8000   56.5780 C   0  0  0  0  0  0  0  0  0  0  0  0
  126.9940  123.5690   57.7070 C   0  0  0  0  0  0  0  0  0  0  0  0
  131.9060  126.4333   60.1912 H   0  0  0  0  0  0  0  0  0  0  0  0
  128.5670  126.2004   63.3458 H   0  0  0  0  0  0  0  0  0  0  0  0
  127.5222  128.3832   63.9180 H   0  0  0  0  0  0  0  0  0  0  0  0
  127.9078  130.3652   62.4615 H   0  0  0  0  0  0  0  0  0  0  0  0
  129.3349  130.1704   60.4302 H   0  0  0  0  0  0  0  0  0  0  0  0
  130.3787  127.9897   59.8523 H   0  0  0  0  0  0  0  0  0  0  0  0
  126.9937  121.9122   63.2552 H   0  0  0  0  0  0  0  0  0  0  0  0
  127.8248  123.5275   63.2801 H   0  0  0  0  0  0  0  0  0  0  0  0
  127.9440  124.5060   60.9290 H   0  0  0  0  0  0  0  0  0  0  0  0
  125.2663  125.1757   60.1795 H   0  0  0  0  0  0  0  0  0  0  0  0
  126.8395  125.7028   59.4036 H   0  0  0  0  0  0  0  0  0  0  0  0
  123.7979  124.0060   58.8418 H   0  0  0  0  0  0  0  0  0  0  0  0
  123.3229  122.6232   56.8203 H   0  0  0  0  0  0  0  0  0  0  0  0
  125.2006  121.8529   55.3772 H   0  0  0  0  0  0  0  0  0  0  0  0
  127.5510  122.4599   55.9335 H   0  0  0  0  0  0  0  0  0  0  0  0
  128.0300  123.8462   57.9518 H   0  0  0  0  0  0  0  0  0  0  0  0
  1  2  3  0
  2  3  1  0
  3  4  2  0
  4  5  1  0
  5  6  1  0
  5  7  1  0
  5  8  1  0
  4  9  1  0
  9 10  2  0
 10 11  1  0
 11 12  2  0
 12 13  1  0
 13 14  2  0
 14 15  1  0
 15 16  2  0
 10 17  1  0
 17 18  2  0
 18 19  1  0
 19 20  1  0
 20 21  1  0
 21 22  2  0
 21 23  1  0
 23 24  1  0
 24 25  1  0
 25 26  2  0
 26 27  1  0
 27 28  2  0
 28 29  1  0
 29 30  2  0
 18  3  1  0
 30 25  1  0
 16 11  1  0
  9 31  1  0
 12 32  1  0
 13 33  1  0
 14 34  1  0
 15 35  1  0
 16 36  1  0
 20 37  1  0
 20 38  1  0
 23 39  1  0
 24 40  1  0
 24 41  1  0
 26 42  1  0
 27 43  1  0
 28 44  1  0
 29 45  1  0
 30 46  1  0
M  END
>  <Binding energies>  (1) 
[-6.77]

>  <Ligand effiencies>  (1) 
[-0.21838709677419355]

>  <Interactions>  (1) 
["V-B:PRO:540:CD:9859, V-B:LEU:363:CD1:8161, V-B:ILE:538:CD1:9837, V-B:PRO:540:CB:9857, V-B:PRO:540:CA:9855, V-B:PRO:540:CG:9858, V-B:PRO:540:N:9856, V-B:GLU:543:CD:9880, V-A:ILE:369:CD1:3239, V-B:TYR:539:CE2:9848, V-B:ILE:538:CG2:9835, V-B:PRO:540:C:9853, H-B:ALA:541:N:9863, V-A:LEU:475:CD2:4259, V-B:ALA:541:CA:9862, V-B:TYR:539:CD2:9846, V-B:ALA:541:CB:9864, V-A:GLU:543:CD:4908, V-A:ILE:369:CG2:3237, V-A:ASP:366:CG:3213, V-A:ASP:366:CB:3212, V-A:ILE:369:CB:3236, V-A:ASP:366:C:3208, V-A:ASP:366:CA:3210, H-B:GLU:543:OE1:9881, V-B:GLU:543:CG:9879, V-B:TYR:531:CE2:9765, V-A:ILE:369:CG1:3238, V-B:TYR:539:CZ:9849, V-B:ILE:538:CA:9832"]

$$$$
3ai_Grossjean_2025
     RDKit          3D

 39 41  0  0  0  0  0  0  0  0999 V2000
  132.6580  123.0160   61.9880 N   0  0  0  0  0  0  0  0  0  0  0  0
  131.6420  123.0400   61.4340 C   0  0  0  0  0  0  0  0  0  0  0  0
  130.3540  123.0700   60.7340 C   0  0  0  0  0  0  0  0  0  0  0  0
  129.4990  121.9410   60.7420 C   0  0  0  0  0  0  0  0  0  0  0  0
  129.8370  120.6480   61.5100 C   0  0  0  0  0  0  0  0  0  0  0  0
  128.8140  119.7910   61.5560 F   0  0  0  0  0  0  0  0  0  0  0  0
  130.8580  120.0230   60.9220 F   0  0  0  0  0  0  0  0  0  0  0  0
  130.1720  120.9350   62.7680 F   0  0  0  0  0  0  0  0  0  0  0  0
  128.3000  122.0020   60.0170 C   0  0  0  0  0  0  0  0  0  0  0  0
  127.9630  123.1560   59.3020 C   0  0  0  0  0  0  0  0  0  0  0  0
  126.7010  123.2730   58.5030 C   0  0  0  0  0  0  0  0  0  0  0  0
  126.6400  122.7890   57.1860 C   0  0  0  0  0  0  0  0  0  0  0  0
  125.4700  122.8900   56.4390 C   0  0  0  0  0  0  0  0  0  0  0  0
  124.3400  123.4770   57.0010 C   0  0  0  0  0  0  0  0  0  0  0  0
  124.3740  123.9630   58.3040 C   0  0  0  0  0  0  0  0  0  0  0  0
  125.5460  123.8600   59.0480 C   0  0  0  0  0  0  0  0  0  0  0  0
  128.7900  124.2330   59.2900 N   0  0  0  0  0  0  0  0  0  0  0  0
  129.9420  124.2070   60.0020 C   0  0  0  0  0  0  0  0  0  0  0  0
  130.8830  125.7140   59.8850 S   0  0  0  0  0  0  0  0  0  0  0  0
  131.0010  126.4320   61.5590 C   0  0  0  0  0  0  0  0  0  0  0  0
  132.1710  125.9120   62.4070 C   0  0  0  0  0  0  0  0  0  0  0  0
  133.2020  125.4960   61.8720 O   0  0  0  0  0  0  0  0  0  0  0  0
  131.9620  125.9530   63.7420 N   0  0  0  0  0  0  0  0  0  0  0  0
  132.8390  125.5570   64.7430 C   0  0  0  0  0  0  0  0  0  0  0  0
  132.5680  125.7160   66.1020 C   0  0  0  0  0  0  0  0  0  0  0  0
  133.6690  125.2090   66.7500 C   0  0  0  0  0  0  0  0  0  0  0  0
  134.5600  124.7660   65.8300 O   0  0  0  0  0  0  0  0  0  0  0  0
  134.0220  124.9920   64.5620 N   0  0  0  0  0  0  0  0  0  0  0  0
  127.6205  121.1370   60.0106 H   0  0  0  0  0  0  0  0  0  0  0  0
  127.5302  122.3231   56.7382 H   0  0  0  0  0  0  0  0  0  0  0  0
  125.4385  122.5073   55.4082 H   0  0  0  0  0  0  0  0  0  0  0  0
  123.4148  123.5571   56.4114 H   0  0  0  0  0  0  0  0  0  0  0  0
  123.4789  124.4265   58.7444 H   0  0  0  0  0  0  0  0  0  0  0  0
  125.5686  124.2440   60.0786 H   0  0  0  0  0  0  0  0  0  0  0  0
  131.1120  127.5215   61.4560 H   0  0  0  0  0  0  0  0  0  0  0  0
  130.0828  126.1346   62.0866 H   0  0  0  0  0  0  0  0  0  0  0  0
  131.0750  126.3140   64.0610 H   0  0  0  0  0  0  0  0  0  0  0  0
  131.6670  126.1531   66.5572 H   0  0  0  0  0  0  0  0  0  0  0  0
  133.8051  125.1692   67.8408 H   0  0  0  0  0  0  0  0  0  0  0  0
  1  2  3  0
  2  3  1  0
  3  4  2  0
  4  5  1  0
  5  6  1  0
  5  7  1  0
  5  8  1  0
  4  9  1  0
  9 10  2  0
 10 11  1  0
 11 12  2  0
 12 13  1  0
 13 14  2  0
 14 15  1  0
 15 16  2  0
 10 17  1  0
 17 18  2  0
 18 19  1  0
 19 20  1  0
 20 21  1  0
 21 22  2  0
 21 23  1  0
 23 24  1  0
 24 25  1  0
 25 26  2  0
 26 27  1  0
 27 28  1  0
 18  3  1  0
 28 24  2  0
 16 11  1  0
  9 29  1  0
 12 30  1  0
 13 31  1  0
 14 32  1  0
 15 33  1  0
 16 34  1  0
 20 35  1  0
 20 36  1  0
 23 37  1  0
 25 38  1  0
 26 39  1  0
M  END
>  <Binding energies>  (1) 
[-7.69]

>  <Ligand effiencies>  (1) 
[-0.26517241379310347]

>  <Interactions>  (1) 
["V-B:PRO:540:CD:9859, V-B:LEU:363:CD1:8161, V-A:ARG:545:CD:4923, V-B:PRO:540:CB:9857, V-A:ARG:545:CZ:4926, V-B:TYR:539:C:9839, V-B:PRO:540:CA:9855, V-B:PRO:540:N:9856, V-A:TYR:484:CZ:4347, V-A:TYR:484:CE2:4346, V-B:TYR:539:CE2:9848, V-A:ARG:545:CG:4922, V-B:PRO:540:C:9853, V-A:HIS:456:CE1:4070, V-B:ASP:366:CG:8185, V-A:LEU:475:CD2:4259, H-A:TYR:484:OH:4348, V-B:ALA:541:CA:9862, V-B:TYR:539:CD2:9846, V-A:LEU:475:CD1:4258, V-B:ALA:541:CB:9864, V-A:GLU:543:CD:4908, H-A:GLU:543:OE1:4909, H-A:ARG:545:NH1:4927, H-A:GLY:454:N:4050, H-A:ARG:545:NH2:4928, H-A:GLU:543:OE2:4910, H-A:ARG:545:NE:4924, H-B:GLU:543:OE2:9882, V-B:TYR:531:CE2:9765, V-B:TYR:531:CZ:9766, V-A:TYR:484:CE1:4345, V-A:ILE:455:C:4052, H-A:ILE:455:N:4055"]

$$$$
3aj_Grossjean_2025
     RDKit          3D

 39 41  0  0  0  0  0  0  0  0999 V2000
  131.3430  126.5840   61.5520 N   0  0  0  0  0  0  0  0  0  0  0  0
  131.3220  125.4380   61.3940 C   0  0  0  0  0  0  0  0  0  0  0  0
  131.2990  123.9860   61.1930 C   0  0  0  0  0  0  0  0  0  0  0  0
  132.2180  123.3630   60.3130 C   0  0  0  0  0  0  0  0  0  0  0  0
  133.3090  124.1470   59.5580 C   0  0  0  0  0  0  0  0  0  0  0  0
  134.4220  124.3080   60.2780 F   0  0  0  0  0  0  0  0  0  0  0  0
  133.6430  123.5020   58.4390 F   0  0  0  0  0  0  0  0  0  0  0  0
  132.8610  125.3620   59.2400 F   0  0  0  0  0  0  0  0  0  0  0  0
  132.1240  121.9760   60.1180 C   0  0  0  0  0  0  0  0  0  0  0  0
  131.1390  121.2350   60.7790 C   0  0  0  0  0  0  0  0  0  0  0  0
  130.9880  119.7550   60.6000 C   0  0  0  0  0  0  0  0  0  0  0  0
  129.9990  119.0460   61.2990 C   0  0  0  0  0  0  0  0  0  0  0  0
  129.8500  117.6710   61.1340 C   0  0  0  0  0  0  0  0  0  0  0  0
  130.6930  116.9850   60.2650 C   0  0  0  0  0  0  0  0  0  0  0  0
  131.6800  117.6650   59.5590 C   0  0  0  0  0  0  0  0  0  0  0  0
  131.8240  119.0390   59.7260 C   0  0  0  0  0  0  0  0  0  0  0  0
  130.2560  121.8380   61.6150 N   0  0  0  0  0  0  0  0  0  0  0  0
  130.3420  123.1710   61.8380 C   0  0  0  0  0  0  0  0  0  0  0  0
  129.1190  123.7800   62.9790 S   0  0  0  0  0  0  0  0  0  0  0  0
  127.6620  122.6850   62.8750 C   0  0  0  0  0  0  0  0  0  0  0  0
  126.8670  122.7850   61.5650 C   0  0  0  0  0  0  0  0  0  0  0  0
  125.6360  122.8490   61.5770 O   0  0  0  0  0  0  0  0  0  0  0  0
  127.6240  122.7960   60.4450 N   0  0  0  0  0  0  0  0  0  0  0  0
  127.1670  122.8850   59.1360 C   0  0  0  0  0  0  0  0  0  0  0  0
  127.7130  122.3730   58.0540 N   0  0  0  0  0  0  0  0  0  0  0  0
  127.0060  122.6510   56.9760 C   0  0  0  0  0  0  0  0  0  0  0  0
  125.8540  123.4070   57.1740 C   0  0  0  0  0  0  0  0  0  0  0  0
  125.7000  123.7700   58.8670 S   0  0  0  0  0  0  0  0  0  0  0  0
  132.8285  121.4694   59.4420 H   0  0  0  0  0  0  0  0  0  0  0  0
  129.3313  119.5844   61.9877 H   0  0  0  0  0  0  0  0  0  0  0  0
  129.0692  117.1296   61.6883 H   0  0  0  0  0  0  0  0  0  0  0  0
  130.5782  115.8987   60.1356 H   0  0  0  0  0  0  0  0  0  0  0  0
  132.3435  117.1192   58.8720 H   0  0  0  0  0  0  0  0  0  0  0  0
  132.6048  119.5734   59.1649 H   0  0  0  0  0  0  0  0  0  0  0  0
  128.0071  121.6465   62.9863 H   0  0  0  0  0  0  0  0  0  0  0  0
  126.9784  123.0063   63.6747 H   0  0  0  0  0  0  0  0  0  0  0  0
  128.6260  122.7440   60.5580 H   0  0  0  0  0  0  0  0  0  0  0  0
  127.3094  122.3051   55.9769 H   0  0  0  0  0  0  0  0  0  0  0  0
  125.1543  123.7235   56.3865 H   0  0  0  0  0  0  0  0  0  0  0  0
  1  2  3  0
  2  3  1  0
  3  4  2  0
  4  5  1  0
  5  6  1  0
  5  7  1  0
  5  8  1  0
  4  9  1  0
  9 10  2  0
 10 11  1  0
 11 12  2  0
 12 13  1  0
 13 14  2  0
 14 15  1  0
 15 16  2  0
 10 17  1  0
 17 18  2  0
 18 19  1  0
 19 20  1  0
 20 21  1  0
 21 22  2  0
 21 23  1  0
 23 24  1  0
 24 25  2  0
 25 26  1  0
 26 27  2  0
 27 28  1  0
 18  3  1  0
 28 24  1  0
 16 11  1  0
  9 29  1  0
 12 30  1  0
 13 31  1  0
 14 32  1  0
 15 33  1  0
 16 34  1  0
 20 35  1  0
 20 36  1  0
 23 37  1  0
 26 38  1  0
 27 39  1  0
M  END
>  <Binding energies>  (1) 
[-7.29]

>  <Ligand effiencies>  (1) 
[-0.2513793103448276]

>  <Interactions>  (1) 
["V-B:PRO:540:CB:9857, V-B:TYR:539:C:9839, V-B:PRO:540:CA:9855, V-B:PRO:540:N:9856, V-B:GLU:543:CD:9880, V-A:ILE:369:CD1:3239, V-B:TYR:539:CE2:9848, V-B:PRO:540:C:9853, H-B:ALA:541:N:9863, H-B:TYR:539:O:9840, V-A:SER:385:CB:3409, V-A:PRO:482:CG:4327, V-A:PRO:482:CB:4326, V-B:TYR:539:CB:9843, V-A:LEU:475:CD2:4259, H-A:TYR:484:OH:4348, V-B:ALA:541:CA:9862, V-B:TYR:539:CD2:9846, V-A:LEU:475:CD1:4258, V-A:LEU:475:CG:4257, V-B:ALA:541:CB:9864, V-A:ILE:369:CG2:3237, H-A:ARG:545:NH2:4928, V-A:ASP:366:CG:3213, V-A:ASP:366:CB:3212, V-A:ILE:369:CB:3236, V-A:ASP:366:CA:3210, V-B:GLU:543:CG:9879, V-B:TYR:539:CG:9844, V-A:ILE:369:CG1:3238, V-B:TYR:539:CZ:9849"]

$$$$
3ak_Grossjean_2025
     RDKit          3D

 57 58  0  0  0  0  0  0  0  0999 V2000
  132.9870  121.2300   60.6870 C   0  0  0  0  0  0  0  0  0  0  0  0
  131.5890  121.3710   60.4950 O   0  0  0  0  0  0  0  0  0  0  0  0
  130.8610  120.1760   60.7440 C   0  0  0  0  0  0  0  0  0  0  0  0
  129.9010  120.4110   61.9170 C   0  0  0  0  0  0  0  0  0  0  0  0
  129.7370  121.8120   62.1080 O   0  0  0  0  0  0  0  0  0  0  0  0
  128.5400  122.3690   61.5730 C   0  0  0  0  0  0  0  0  0  0  0  0
  127.6310  123.0190   62.6330 C   0  0  0  0  0  0  0  0  0  0  0  0
  126.2740  122.8670   62.2400 O   0  0  0  0  0  0  0  0  0  0  0  0
  125.7820  123.9350   61.4410 C   0  0  0  0  0  0  0  0  0  0  0  0
  125.7480  123.5170   59.9590 C   0  0  0  0  0  0  0  0  0  0  0  0
  127.0090  123.7540   59.2540 N   0  0  0  0  0  0  0  0  0  0  0  0
  127.4110  123.1380   58.1260 C   0  0  0  0  0  0  0  0  0  0  0  0
  126.7250  122.2960   57.5450 O   0  0  0  0  0  0  0  0  0  0  0  0
  128.7840  123.4990   57.5340 C   0  0  0  0  0  0  0  0  0  0  0  0
  129.3210  125.2400   57.7170 S   0  0  0  0  0  0  0  0  0  0  0  0
  129.6460  125.5610   59.4440 C   0  0  0  0  0  0  0  0  0  0  0  0
  128.7030  126.2880   60.0930 N   0  0  0  0  0  0  0  0  0  0  0  0
  128.8640  126.5890   61.4070 C   0  0  0  0  0  0  0  0  0  0  0  0
  127.7720  127.3950   62.0450 C   0  0  0  0  0  0  0  0  0  0  0  0
  127.8880  127.8360   63.3720 C   0  0  0  0  0  0  0  0  0  0  0  0
  126.8790  128.5880   63.9690 C   0  0  0  0  0  0  0  0  0  0  0  0
  125.7380  128.9110   63.2420 C   0  0  0  0  0  0  0  0  0  0  0  0
  125.5990  128.4900   61.9250 C   0  0  0  0  0  0  0  0  0  0  0  0
  126.6100  127.7380   61.3310 C   0  0  0  0  0  0  0  0  0  0  0  0
  129.9870  126.1440   62.1120 C   0  0  0  0  0  0  0  0  0  0  0  0
  130.9770  125.3900   61.4650 C   0  0  0  0  0  0  0  0  0  0  0  0
  132.2010  124.9200   62.2750 C   0  0  0  0  0  0  0  0  0  0  0  0
  132.2570  123.5890   62.2880 F   0  0  0  0  0  0  0  0  0  0  0  0
  133.3210  125.3950   61.7270 F   0  0  0  0  0  0  0  0  0  0  0  0
  132.1720  125.3330   63.5440 F   0  0  0  0  0  0  0  0  0  0  0  0
  130.8080  125.0880   60.0920 C   0  0  0  0  0  0  0  0  0  0  0  0
  131.8100  124.3030   59.3650 C   0  0  0  0  0  0  0  0  0  0  0  0
  132.6020  123.6840   58.7890 N   0  0  0  0  0  0  0  0  0  0  0  0
  133.2088  121.2076   61.7642 H   0  0  0  0  0  0  0  0  0  0  0  0
  133.3282  120.2929   60.2229 H   0  0  0  0  0  0  0  0  0  0  0  0
  133.5084  122.0801   60.2229 H   0  0  0  0  0  0  0  0  0  0  0  0
  130.2868  119.9003   59.8471 H   0  0  0  0  0  0  0  0  0  0  0  0
  131.5575  119.3614   60.9914 H   0  0  0  0  0  0  0  0  0  0  0  0
  128.9263  119.9527   61.6934 H   0  0  0  0  0  0  0  0  0  0  0  0
  130.3123  119.9570   62.8306 H   0  0  0  0  0  0  0  0  0  0  0  0
  128.8142  123.1358   60.8335 H   0  0  0  0  0  0  0  0  0  0  0  0
  127.9712  121.5397   61.1271 H   0  0  0  0  0  0  0  0  0  0  0  0
  127.7899  122.5287   63.6048 H   0  0  0  0  0  0  0  0  0  0  0  0
  127.8728  124.0884   62.7222 H   0  0  0  0  0  0  0  0  0  0  0  0
  124.7648  124.1955   61.7687 H   0  0  0  0  0  0  0  0  0  0  0  0
  126.4465  124.8042   61.5541 H   0  0  0  0  0  0  0  0  0  0  0  0
  125.5164  122.4430   59.9059 H   0  0  0  0  0  0  0  0  0  0  0  0
  124.9824  124.1349   59.4671 H   0  0  0  0  0  0  0  0  0  0  0  0
  127.6190  124.4490   59.6600 H   0  0  0  0  0  0  0  0  0  0  0  0
  129.5366  122.8639   58.0242 H   0  0  0  0  0  0  0  0  0  0  0  0
  128.6852  123.3374   56.4504 H   0  0  0  0  0  0  0  0  0  0  0  0
  128.7896  127.5840   63.9496 H   0  0  0  0  0  0  0  0  0  0  0  0
  126.9840  128.9250   65.0108 H   0  0  0  0  0  0  0  0  0  0  0  0
  124.9401  129.5039   63.7129 H   0  0  0  0  0  0  0  0  0  0  0  0
  124.6951  128.7493   61.3543 H   0  0  0  0  0  0  0  0  0  0  0  0
  126.4978  127.4075   60.2878 H   0  0  0  0  0  0  0  0  0  0  0  0
  130.0944  126.3866   63.1795 H   0  0  0  0  0  0  0  0  0  0  0  0
  1  2  1  0
  2  3  1  0
  3  4  1  0
  4  5  1  0
  5  6  1  0
  6  7  1  0
  7  8  1  0
  8  9  1  0
  9 10  1  0
 10 11  1  0
 11 12  1  0
 12 13  2  0
 12 14  1  0
 14 15  1  0
 15 16  1  0
 16 17  2  0
 17 18  1  0
 18 19  1  0
 19 20  2  0
 20 21  1  0
 21 22  2  0
 22 23  1  0
 23 24  2  0
 18 25  2  0
 25 26  1  0
 26 27  1  0
 27 28  1  0
 27 29  1  0
 27 30  1  0
 26 31  2  0
 31 32  1  0
 32 33  3  0
 31 16  1  0
 24 19  1  0
  1 34  1  0
  1 35  1  0
  1 36  1  0
  3 37  1  0
  3 38  1  0
  4 39  1  0
  4 40  1  0
  6 41  1  0
  6 42  1  0
  7 43  1  0
  7 44  1  0
  9 45  1  0
  9 46  1  0
 10 47  1  0
 10 48  1  0
 11 49  1  0
 14 50  1  0
 14 51  1  0
 20 52  1  0
 21 53  1  0
 22 54  1  0
 23 55  1  0
 24 56  1  0
 25 57  1  0
M  END
>  <Binding energies>  (1) 
[-4.45]

>  <Ligand effiencies>  (1) 
[-0.13088235294117648]

>  <Interactions>  (1) 
["V-B:PRO:540:CB:9857, V-A:ARG:545:CZ:4926, V-B:TYR:539:C:9839, V-B:PRO:540:CA:9855, V-B:PRO:540:N:9856, V-B:GLU:543:CD:9880, V-A:TYR:484:CZ:4347, V-B:TYR:539:CE2:9848, H-B:ALA:541:N:9863, V-B:ASP:366:CG:8185, V-A:LEU:475:CD2:4259, H-A:TYR:484:OH:4348, V-B:TYR:539:CD2:9846, V-A:LEU:475:CD1:4258, V-B:ALA:541:CB:9864, V-B:ARG:545:CZ:9898, V-A:GLU:543:CD:4908, V-A:ILE:369:CG2:3237, V-A:ASP:366:CG:3213, V-B:GLU:543:CG:9879, V-B:TYR:539:CZ:9849, V-B:TYR:539:CE1:9847, H-B:TYR:539:N:9842, H-B:TYR:539:OH:9850"]

$$$$
3bc_Grossjean_2025
     RDKit          3D

 47 49  0  0  0  0  0  0  0  0999 V2000
  133.9530  125.0090   65.9000 C   0  0  0  0  0  0  0  0  0  0  0  0
  133.9820  125.0720   64.4790 O   0  0  0  0  0  0  0  0  0  0  0  0
  132.8230  125.3860   63.7950 C   0  0  0  0  0  0  0  0  0  0  0  0
  131.7200  125.7420   64.5710 C   0  0  0  0  0  0  0  0  0  0  0  0
  130.5080  126.0750   63.9720 C   0  0  0  0  0  0  0  0  0  0  0  0
  130.3810  126.0480   62.5820 C   0  0  0  0  0  0  0  0  0  0  0  0
  129.1230  126.4120   62.0670 N   0  0  0  0  0  0  0  0  0  0  0  0
  128.8090  127.4010   61.2030 C   0  0  0  0  0  0  0  0  0  0  0  0
  129.6270  128.1560   60.6740 O   0  0  0  0  0  0  0  0  0  0  0  0
  127.3150  127.5120   60.8700 C   0  0  0  0  0  0  0  0  0  0  0  0
  126.5120  125.9500   60.3750 S   0  0  0  0  0  0  0  0  0  0  0  0
  127.7660  124.6890   60.3150 C   0  0  0  0  0  0  0  0  0  0  0  0
  128.8480  125.0310   59.5730 N   0  0  0  0  0  0  0  0  0  0  0  0
  129.8830  124.1600   59.4450 C   0  0  0  0  0  0  0  0  0  0  0  0
  131.0320  124.6050   58.5900 C   0  0  0  0  0  0  0  0  0  0  0  0
  132.3290  124.1270   58.8270 C   0  0  0  0  0  0  0  0  0  0  0  0
  133.4010  124.5360   58.0370 C   0  0  0  0  0  0  0  0  0  0  0  0
  133.1870  125.4340   56.9970 C   0  0  0  0  0  0  0  0  0  0  0  0
  131.9110  125.9260   56.7420 C   0  0  0  0  0  0  0  0  0  0  0  0
  130.8430  125.5150   57.5350 C   0  0  0  0  0  0  0  0  0  0  0  0
  129.8500  122.9090   60.0690 C   0  0  0  0  0  0  0  0  0  0  0  0
  128.7510  122.5500   60.8570 C   0  0  0  0  0  0  0  0  0  0  0  0
  128.7670  121.1810   61.5350 C   0  0  0  0  0  0  0  0  0  0  0  0
  127.6790  123.4570   61.0020 C   0  0  0  0  0  0  0  0  0  0  0  0
  126.5420  123.1230   61.8610 C   0  0  0  0  0  0  0  0  0  0  0  0
  125.6430  122.8570   62.5400 N   0  0  0  0  0  0  0  0  0  0  0  0
  131.4890  125.7040   61.7930 C   0  0  0  0  0  0  0  0  0  0  0  0
  132.6990  125.3720   62.3970 C   0  0  0  0  0  0  0  0  0  0  0  0
  134.3787  125.9337   66.3168 H   0  0  0  0  0  0  0  0  0  0  0  0
  132.9131  124.8978   66.2410 H   0  0  0  0  0  0  0  0  0  0  0  0
  134.5448  124.1467   66.2410 H   0  0  0  0  0  0  0  0  0  0  0  0
  131.8086  125.7599   65.6673 H   0  0  0  0  0  0  0  0  0  0  0  0
  129.6480  126.3602   64.5958 H   0  0  0  0  0  0  0  0  0  0  0  0
  128.3660  125.8040   62.3460 H   0  0  0  0  0  0  0  0  0  0  0  0
  126.7952  127.8946   61.7607 H   0  0  0  0  0  0  0  0  0  0  0  0
  127.2448  128.1809   59.9995 H   0  0  0  0  0  0  0  0  0  0  0  0
  132.5026  123.4178   59.6498 H   0  0  0  0  0  0  0  0  0  0  0  0
  134.4120  124.1504   58.2349 H   0  0  0  0  0  0  0  0  0  0  0  0
  134.0323  125.7575   56.3718 H   0  0  0  0  0  0  0  0  0  0  0  0
  131.7467  126.6361   55.9181 H   0  0  0  0  0  0  0  0  0  0  0  0
  129.8358  125.9083   57.3330 H   0  0  0  0  0  0  0  0  0  0  0  0
  130.6876  122.2076   59.9404 H   0  0  0  0  0  0  0  0  0  0  0  0
  128.7655  121.3127   62.6271 H   0  0  0  0  0  0  0  0  0  0  0  0
  127.8754  120.6118   61.2330 H   0  0  0  0  0  0  0  0  0  0  0  0
  129.6716  120.6328   61.2330 H   0  0  0  0  0  0  0  0  0  0  0  0
  131.4018  125.6966   60.6965 H   0  0  0  0  0  0  0  0  0  0  0  0
  133.5632  125.0970   61.7745 H   0  0  0  0  0  0  0  0  0  0  0  0
  1  2  1  0
  2  3  1  0
  3  4  2  0
  4  5  1  0
  5  6  2  0
  6  7  1  0
  7  8  1  0
  8  9  2  0
  8 10  1  0
 10 11  1  0
 11 12  1  0
 12 13  2  0
 13 14  1  0
 14 15  1  0
 15 16  2  0
 16 17  1  0
 17 18  2  0
 18 19  1  0
 19 20  2  0
 14 21  2  0
 21 22  1  0
 22 23  1  0
 22 24  2  0
 24 25  1  0
 25 26  3  0
  6 27  1  0
 27 28  2  0
 28  3  1  0
 24 12  1  0
 20 15  1  0
  1 29  1  0
  1 30  1  0
  1 31  1  0
  4 32  1  0
  5 33  1  0
  7 34  1  0
 10 35  1  0
 10 36  1  0
 16 37  1  0
 17 38  1  0
 18 39  1  0
 19 40  1  0
 20 41  1  0
 21 42  1  0
 23 43  1  0
 23 44  1  0
 23 45  1  0
 27 46  1  0
 28 47  1  0
M  END
>  <Binding energies>  (1) 
[-6.42]

>  <Ligand effiencies>  (1) 
[-0.22137931034482758]

>  <Interactions>  (1) 
["V-A:ARG:545:CD:4923, V-A:ARG:545:CZ:4926, V-B:TYR:539:C:9839, V-B:PRO:540:CA:9855, V-B:GLU:543:CD:9880, V-A:TYR:484:CZ:4347, V-A:TYR:484:CE2:4346, V-B:TYR:539:CE2:9848, V-A:ARG:545:CG:4922, V-B:PRO:540:C:9853, H-B:ALA:541:N:9863, H-A:TYR:484:OH:4348, V-B:ALA:541:CA:9862, V-B:TYR:539:CD2:9846, V-B:ALA:541:CB:9864, V-A:GLU:543:CD:4908, H-A:ARG:545:NH1:4927, V-A:GLY:454:CA:4049, H-A:GLY:454:N:4050, V-A:ILE:369:CG2:3237, H-A:ARG:545:NH2:4928, V-A:ASP:366:CG:3213, V-A:ASP:366:CB:3212, V-A:ILE:369:CB:3236, V-A:ASP:366:C:3208, H-A:ARG:545:NE:4924, V-A:ASP:366:CA:3210, V-A:GLY:453:C:4042, H-B:GLU:543:OE2:9882, H-B:GLU:543:OE1:9881, V-B:TYR:539:CZ:9849"]

$$$$
3bd_Grossjean_2025
     RDKit          3D

 43 45  0  0  0  0  0  0  0  0999 V2000
  133.6590  123.5120   60.0540 C   0  0  0  0  0  0  0  0  0  0  0  0
  132.4700  122.7140   60.5880 C   0  0  0  0  0  0  0  0  0  0  0  0
  132.3700  121.3630   60.2400 C   0  0  0  0  0  0  0  0  0  0  0  0
  131.2940  120.5990   60.7050 C   0  0  0  0  0  0  0  0  0  0  0  0
  131.1290  119.1450   60.3740 C   0  0  0  0  0  0  0  0  0  0  0  0
  130.1850  118.3570   61.0520 C   0  0  0  0  0  0  0  0  0  0  0  0
  130.0280  117.0070   60.7510 C   0  0  0  0  0  0  0  0  0  0  0  0
  130.8160  116.4240   59.7630 C   0  0  0  0  0  0  0  0  0  0  0  0
  131.7600  117.1810   59.0780 C   0  0  0  0  0  0  0  0  0  0  0  0
  131.9140  118.5310   59.3830 C   0  0  0  0  0  0  0  0  0  0  0  0
  130.3450  121.1500   61.5060 N   0  0  0  0  0  0  0  0  0  0  0  0
  130.4260  122.4590   61.8530 C   0  0  0  0  0  0  0  0  0  0  0  0
  129.1120  123.0650   62.8990 S   0  0  0  0  0  0  0  0  0  0  0  0
  128.1320  124.2580   61.9390 C   0  0  0  0  0  0  0  0  0  0  0  0
  127.1950  123.5650   60.9490 C   0  0  0  0  0  0  0  0  0  0  0  0
  126.3890  122.7340   61.3680 O   0  0  0  0  0  0  0  0  0  0  0  0
  127.3440  123.9220   59.6540 N   0  0  0  0  0  0  0  0  0  0  0  0
  126.6230  123.4870   58.5270 C   0  0  0  0  0  0  0  0  0  0  0  0
  125.2530  123.7660   58.5280 C   0  0  0  0  0  0  0  0  0  0  0  0
  124.4560  123.3660   57.4590 C   0  0  0  0  0  0  0  0  0  0  0  0
  125.0260  122.6770   56.3920 C   0  0  0  0  0  0  0  0  0  0  0  0
  126.3870  122.3810   56.3860 C   0  0  0  0  0  0  0  0  0  0  0  0
  127.1870  122.7800   57.4520 C   0  0  0  0  0  0  0  0  0  0  0  0
  131.4790  123.2890   61.4120 C   0  0  0  0  0  0  0  0  0  0  0  0
  131.5560  124.7020   61.7960 C   0  0  0  0  0  0  0  0  0  0  0  0
  131.6190  125.8170   62.0990 N   0  0  0  0  0  0  0  0  0  0  0  0
  134.2451  123.9054   60.8976 H   0  0  0  0  0  0  0  0  0  0  0  0
  134.2943  122.8567   59.4400 H   0  0  0  0  0  0  0  0  0  0  0  0
  133.2933  124.3482   59.4400 H   0  0  0  0  0  0  0  0  0  0  0  0
  133.1371  120.9013   59.6009 H   0  0  0  0  0  0  0  0  0  0  0  0
  129.5597  118.8137   61.8333 H   0  0  0  0  0  0  0  0  0  0  0  0
  129.2842  116.4035   61.2918 H   0  0  0  0  0  0  0  0  0  0  0  0
  130.6913  115.3579   59.5226 H   0  0  0  0  0  0  0  0  0  0  0  0
  132.3820  116.7158   58.2991 H   0  0  0  0  0  0  0  0  0  0  0  0
  132.6622  119.1265   58.8394 H   0  0  0  0  0  0  0  0  0  0  0  0
  127.5305  124.8634   62.6330 H   0  0  0  0  0  0  0  0  0  0  0  0
  128.8290  124.8858   61.3645 H   0  0  0  0  0  0  0  0  0  0  0  0
  128.1090  124.5470   59.4470 H   0  0  0  0  0  0  0  0  0  0  0  0
  124.8035  124.3032   59.3761 H   0  0  0  0  0  0  0  0  0  0  0  0
  123.3798  123.5935   57.4574 H   0  0  0  0  0  0  0  0  0  0  0  0
  124.3961  122.3637   55.5464 H   0  0  0  0  0  0  0  0  0  0  0  0
  126.8283  121.8331   55.5404 H   0  0  0  0  0  0  0  0  0  0  0  0
  128.2609  122.5419   57.4531 H   0  0  0  0  0  0  0  0  0  0  0  0
  1  2  1  0
  2  3  2  0
  3  4  1  0
  4  5  1  0
  5  6  2  0
  6  7  1  0
  7  8  2  0
  8  9  1  0
  9 10  2  0
  4 11  2  0
 11 12  1  0
 12 13  1  0
 13 14  1  0
 14 15  1  0
 15 16  2  0
 15 17  1  0
 17 18  1  0
 18 19  2  0
 19 20  1  0
 20 21  2  0
 21 22  1  0
 22 23  2  0
 12 24  2  0
 24 25  1  0
 25 26  3  0
 24  2  1  0
 10  5  1  0
 23 18  1  0
  1 27  1  0
  1 28  1  0
  1 29  1  0
  3 30  1  0
  6 31  1  0
  7 32  1  0
  8 33  1  0
  9 34  1  0
 10 35  1  0
 14 36  1  0
 14 37  1  0
 17 38  1  0
 19 39  1  0
 20 40  1  0
 21 41  1  0
 22 42  1  0
 23 43  1  0
M  END
>  <Binding energies>  (1) 
[-8.96]

>  <Ligand effiencies>  (1) 
[-0.3318518518518519]

>  <Interactions>  (1) 
["V-B:PRO:540:CD:9859, V-B:LEU:363:CD1:8161, V-B:ILE:538:CD1:9837, V-B:PRO:540:CB:9857, V-B:TYR:539:C:9839, V-B:PRO:540:CA:9855, V-B:PRO:540:N:9856, V-B:GLU:543:CD:9880, V-A:ILE:369:CD1:3239, V-B:TYR:539:CE2:9848, V-B:ILE:538:CG2:9835, H-B:ALA:541:N:9863, V-A:SER:385:CB:3409, V-A:HIS:383:CE1:3394, V-A:PRO:482:CG:4327, V-A:PRO:482:CB:4326, V-B:TYR:539:CB:9843, V-A:LEU:475:CD2:4259, H-A:TYR:484:OH:4348, V-B:TYR:539:CA:9841, V-B:TYR:539:CD2:9846, V-A:LEU:475:CD1:4258, V-A:LEU:475:CG:4257, V-A:LEU:373:CD1:3280, V-A:ILE:369:CG2:3237, H-A:ARG:545:NH2:4928, V-A:ILE:369:CB:3236, V-B:TYR:531:CE2:9765, V-B:TYR:539:CG:9844, V-B:ILE:538:CA:9832"]

$$$$
3be_Grossjean_2025
     RDKit          3D

 45 47  0  0  0  0  0  0  0  0999 V2000
  131.3890  117.1110   60.2300 C   0  0  0  0  0  0  0  0  0  0  0  0
  131.3840  118.6260   60.2830 C   0  0  0  0  0  0  0  0  0  0  0  0
  132.5180  119.3730   59.9550 C   0  0  0  0  0  0  0  0  0  0  0  0
  132.4420  120.7640   60.0290 C   0  0  0  0  0  0  0  0  0  0  0  0
  131.2460  121.3690   60.4240 C   0  0  0  0  0  0  0  0  0  0  0  0
  130.1460  120.5620   60.7360 C   0  0  0  0  0  0  0  0  0  0  0  0
  128.9750  121.2310   61.1370 N   0  0  0  0  0  0  0  0  0  0  0  0
  128.7130  121.8480   62.3100 C   0  0  0  0  0  0  0  0  0  0  0  0
  129.5000  121.9160   63.2560 O   0  0  0  0  0  0  0  0  0  0  0  0
  127.3200  122.4890   62.4010 C   0  0  0  0  0  0  0  0  0  0  0  0
  126.6730  123.1680   60.8350 S   0  0  0  0  0  0  0  0  0  0  0  0
  128.0540  123.7300   59.8640 C   0  0  0  0  0  0  0  0  0  0  0  0
  129.1830  123.9290   60.5890 N   0  0  0  0  0  0  0  0  0  0  0  0
  130.3170  124.3560   59.9730 C   0  0  0  0  0  0  0  0  0  0  0  0
  131.5170  124.5660   60.8490 C   0  0  0  0  0  0  0  0  0  0  0  0
  132.8020  124.2180   60.4010 C   0  0  0  0  0  0  0  0  0  0  0  0
  133.9190  124.4080   61.2090 C   0  0  0  0  0  0  0  0  0  0  0  0
  133.7660  124.9490   62.4810 C   0  0  0  0  0  0  0  0  0  0  0  0
  132.5050  125.2990   62.9500 C   0  0  0  0  0  0  0  0  0  0  0  0
  131.3900  125.1070   62.1390 C   0  0  0  0  0  0  0  0  0  0  0  0
  130.3380  124.5960   58.5950 C   0  0  0  0  0  0  0  0  0  0  0  0
  129.1900  124.3720   57.8290 C   0  0  0  0  0  0  0  0  0  0  0  0
  129.2650  124.6320   56.3250 C   0  0  0  0  0  0  0  0  0  0  0  0
  128.0140  123.9160   58.4640 C   0  0  0  0  0  0  0  0  0  0  0  0
  126.8170  123.6230   57.6730 C   0  0  0  0  0  0  0  0  0  0  0  0
  125.8720  123.3920   57.0460 N   0  0  0  0  0  0  0  0  0  0  0  0
  130.2160  119.2000   60.6680 N   0  0  0  0  0  0  0  0  0  0  0  0
  131.3903  116.7083   61.2536 H   0  0  0  0  0  0  0  0  0  0  0  0
  130.4920  116.7597   59.6990 H   0  0  0  0  0  0  0  0  0  0  0  0
  132.2883  116.7657   59.6990 H   0  0  0  0  0  0  0  0  0  0  0  0
  133.4492  118.8759   59.6456 H   0  0  0  0  0  0  0  0  0  0  0  0
  133.3178  121.3805   59.7781 H   0  0  0  0  0  0  0  0  0  0  0  0
  131.1701  122.4645   60.4888 H   0  0  0  0  0  0  0  0  0  0  0  0
  128.2290  121.2170   60.4570 H   0  0  0  0  0  0  0  0  0  0  0  0
  126.6154  121.7228   62.7565 H   0  0  0  0  0  0  0  0  0  0  0  0
  127.4216  123.3440   63.0855 H   0  0  0  0  0  0  0  0  0  0  0  0
  132.9273  123.7887   59.3960 H   0  0  0  0  0  0  0  0  0  0  0  0
  134.9188  124.1314   60.8431 H   0  0  0  0  0  0  0  0  0  0  0  0
  134.6484  125.1009   63.1200 H   0  0  0  0  0  0  0  0  0  0  0  0
  132.3888  125.7257   63.9572 H   0  0  0  0  0  0  0  0  0  0  0  0
  130.3936  125.3834   62.5144 H   0  0  0  0  0  0  0  0  0  0  0  0
  131.2576  124.9609   58.1142 H   0  0  0  0  0  0  0  0  0  0  0  0
  129.5659  125.6751   56.1478 H   0  0  0  0  0  0  0  0  0  0  0  0
  130.0045  123.9551   55.8723 H   0  0  0  0  0  0  0  0  0  0  0  0
  128.2786  124.4530   55.8723 H   0  0  0  0  0  0  0  0  0  0  0  0
  1  2  1  0
  2  3  2  0
  3  4  1  0
  4  5  2  0
  5  6  1  0
  6  7  1  0
  7  8  1  0
  8  9  2  0
  8 10  1  0
 10 11  1  0
 11 12  1  0
 12 13  2  0
 13 14  1  0
 14 15  1  0
 15 16  2  0
 16 17  1  0
 17 18  2  0
 18 19  1  0
 19 20  2  0
 14 21  2  0
 21 22  1  0
 22 23  1  0
 22 24  2  0
 24 25  1  0
 25 26  3  0
  6 27  2  0
 27  2  1  0
 24 12  1  0
 20 15  1  0
  1 28  1  0
  1 29  1  0
  1 30  1  0
  3 31  1  0
  4 32  1  0
  5 33  1  0
  7 34  1  0
 10 35  1  0
 10 36  1  0
 16 37  1  0
 17 38  1  0
 18 39  1  0
 19 40  1  0
 20 41  1  0
 21 42  1  0
 23 43  1  0
 23 44  1  0
 23 45  1  0
M  END
>  <Binding energies>  (1) 
[-7.39]

>  <Ligand effiencies>  (1) 
[-0.2639285714285714]

>  <Interactions>  (1) 
["V-A:ARG:545:CZ:4926, V-B:TYR:539:C:9839, V-B:PRO:540:CA:9855, V-B:GLU:543:CD:9880, V-A:ILE:369:CD1:3239, V-B:TYR:539:CE2:9848, V-B:PRO:540:C:9853, H-B:ALA:541:N:9863, H-B:TYR:539:O:9840, V-A:SER:385:CB:3409, V-A:LEU:475:CD2:4259, H-A:TYR:484:OH:4348, V-B:ALA:541:CA:9862, V-B:TYR:539:CD2:9846, V-B:ALA:541:CB:9864, V-A:ILE:369:CG2:3237, V-A:ASP:366:CG:3213, V-A:GLY:453:CA:4044, V-B:GLU:543:CG:9879, V-A:TYR:484:CE1:4345, H-B:TYR:531:OH:9767, V-B:TYR:539:CZ:9849, V-B:TYR:539:CE1:9847, V-B:MET:535:CE:9807, V-A:SER:385:CA:3407"]

$$$$
3bf_Grossjean_2025
     RDKit          3D

 42 44  0  0  0  0  0  0  0  0999 V2000
  133.9210  123.9110   59.6300 C   0  0  0  0  0  0  0  0  0  0  0  0
  132.6940  123.2520   60.2560 C   0  0  0  0  0  0  0  0  0  0  0  0
  132.5090  121.8800   60.0570 C   0  0  0  0  0  0  0  0  0  0  0  0
  131.4050  121.2340   60.6250 C   0  0  0  0  0  0  0  0  0  0  0  0
  131.1620  119.7630   60.4680 C   0  0  0  0  0  0  0  0  0  0  0  0
  130.1160  119.1320   61.1600 C   0  0  0  0  0  0  0  0  0  0  0  0
  129.8830  117.7670   61.0190 C   0  0  0  0  0  0  0  0  0  0  0  0
  130.6980  117.0110   60.1820 C   0  0  0  0  0  0  0  0  0  0  0  0
  131.7420  117.6120   59.4870 C   0  0  0  0  0  0  0  0  0  0  0  0
  131.9720  118.9770   59.6310 C   0  0  0  0  0  0  0  0  0  0  0  0
  130.5030  121.9230   61.3730 N   0  0  0  0  0  0  0  0  0  0  0  0
  130.6550  123.2580   61.5540 C   0  0  0  0  0  0  0  0  0  0  0  0
  129.3780  123.9920   62.5540 S   0  0  0  0  0  0  0  0  0  0  0  0
  127.9850  122.8160   62.6440 C   0  0  0  0  0  0  0  0  0  0  0  0
  127.0520  122.8160   61.4240 C   0  0  0  0  0  0  0  0  0  0  0  0
  125.8280  122.7980   61.5690 O   0  0  0  0  0  0  0  0  0  0  0  0
  127.6840  122.8660   60.2320 N   0  0  0  0  0  0  0  0  0  0  0  0
  127.1300  122.8680   58.9380 C   0  0  0  0  0  0  0  0  0  0  0  0
  125.8780  123.4710   58.7800 C   0  0  0  0  0  0  0  0  0  0  0  0
  125.2810  123.5170   57.5190 C   0  0  0  0  0  0  0  0  0  0  0  0
  125.9640  122.9580   56.4380 C   0  0  0  0  0  0  0  0  0  0  0  0
  127.1840  122.3770   56.5590 N   0  0  0  0  0  0  0  0  0  0  0  0
  127.7510  122.3390   57.7930 C   0  0  0  0  0  0  0  0  0  0  0  0
  131.7540  123.9710   61.0270 C   0  0  0  0  0  0  0  0  0  0  0  0
  131.9560  125.3980   61.2890 C   0  0  0  0  0  0  0  0  0  0  0  0
  132.1160  126.5260   61.4950 N   0  0  0  0  0  0  0  0  0  0  0  0
  134.5902  124.2704   60.4256 H   0  0  0  0  0  0  0  0  0  0  0  0
  134.4533  123.1774   59.0067 H   0  0  0  0  0  0  0  0  0  0  0  0
  133.6034  124.7599   59.0067 H   0  0  0  0  0  0  0  0  0  0  0  0
  133.2308  121.3090   59.4544 H   0  0  0  0  0  0  0  0  0  0  0  0
  129.4705  119.7257   61.8240 H   0  0  0  0  0  0  0  0  0  0  0  0
  129.0582  117.2879   61.5669 H   0  0  0  0  0  0  0  0  0  0  0  0
  130.5155  115.9321   60.0694 H   0  0  0  0  0  0  0  0  0  0  0  0
  132.3835  117.0107   58.8260 H   0  0  0  0  0  0  0  0  0  0  0  0
  132.8004  119.4477   59.0813 H   0  0  0  0  0  0  0  0  0  0  0  0
  128.4005  121.8036   62.7552 H   0  0  0  0  0  0  0  0  0  0  0  0
  127.3706  123.1340   63.4993 H   0  0  0  0  0  0  0  0  0  0  0  0
  128.6890  122.9610   60.2580 H   0  0  0  0  0  0  0  0  0  0  0  0
  125.3642  123.9086   59.6486 H   0  0  0  0  0  0  0  0  0  0  0  0
  124.2944  123.9834   57.3805 H   0  0  0  0  0  0  0  0  0  0  0  0
  125.4927  122.9898   55.4446 H   0  0  0  0  0  0  0  0  0  0  0  0
  128.7415  121.8729   57.9012 H   0  0  0  0  0  0  0  0  0  0  0  0
  1  2  1  0
  2  3  2  0
  3  4  1  0
  4  5  1  0
  5  6  2  0
  6  7  1  0
  7  8  2  0
  8  9  1  0
  9 10  2  0
  4 11  2  0
 11 12  1  0
 12 13  1  0
 13 14  1  0
 14 15  1  0
 15 16  2  0
 15 17  1  0
 17 18  1  0
 18 19  2  0
 19 20  1  0
 20 21  2  0
 21 22  1  0
 22 23  2  0
 12 24  2  0
 24 25  1  0
 25 26  3  0
 24  2  1  0
 10  5  1  0
 23 18  1  0
  1 27  1  0
  1 28  1  0
  1 29  1  0
  3 30  1  0
  6 31  1  0
  7 32  1  0
  8 33  1  0
  9 34  1  0
 10 35  1  0
 14 36  1  0
 14 37  1  0
 17 38  1  0
 19 39  1  0
 20 40  1  0
 21 41  1  0
 23 42  1  0
M  END
>  <Binding energies>  (1) 
[-8.76]

>  <Ligand effiencies>  (1) 
[-0.3244444444444444]

>  <Interactions>  (1) 
["V-B:PRO:540:CB:9857, V-B:TYR:539:C:9839, V-B:PRO:540:CA:9855, V-B:PRO:540:N:9856, V-B:GLU:543:CD:9880, V-A:ILE:369:CD1:3239, V-B:TYR:539:CE2:9848, V-B:PRO:540:C:9853, H-B:ALA:541:N:9863, H-B:TYR:539:O:9840, V-A:SER:385:CB:3409, V-A:PRO:482:CG:4327, V-A:PRO:482:CB:4326, V-B:TYR:539:CB:9843, V-A:LEU:475:CD2:4259, H-A:TYR:484:OH:4348, V-B:TYR:539:CA:9841, V-B:TYR:539:CD2:9846, V-A:LEU:475:CD1:4258, V-B:ALA:541:CB:9864, V-A:ILE:369:CG2:3237, H-A:ARG:545:NH2:4928, V-A:ASP:366:CG:3213, V-A:ILE:369:CB:3236, V-A:ASP:366:CA:3210, V-B:GLU:543:CG:9879, V-B:TYR:539:CG:9844, V-B:TYR:539:CZ:9849, V-B:TYR:539:CD1:9845, H-B:TYR:539:N:9842"]

$$$$
3bg_Grossjean_2025
     RDKit          3D

 46 48  0  0  0  0  0  0  0  0999 V2000
  127.8230  122.6250   62.5470 C   0  0  0  0  0  0  0  0  0  0  0  0
  129.1690  122.2180   61.9510 C   0  0  0  0  0  0  0  0  0  0  0  0
  129.3350  120.8940   61.5350 C   0  0  0  0  0  0  0  0  0  0  0  0
  130.5510  120.4800   60.9760 C   0  0  0  0  0  0  0  0  0  0  0  0
  130.7910  119.0740   60.4980 C   0  0  0  0  0  0  0  0  0  0  0  0
  130.0440  117.9990   61.0080 C   0  0  0  0  0  0  0  0  0  0  0  0
  130.2500  116.6990   60.5550 C   0  0  0  0  0  0  0  0  0  0  0  0
  131.2130  116.4510   59.5830 C   0  0  0  0  0  0  0  0  0  0  0  0
  131.9750  117.4930   59.0690 C   0  0  0  0  0  0  0  0  0  0  0  0
  131.7670  118.7910   59.5260 C   0  0  0  0  0  0  0  0  0  0  0  0
  131.5730  121.3620   60.8150 N   0  0  0  0  0  0  0  0  0  0  0  0
  131.4280  122.6530   61.2110 C   0  0  0  0  0  0  0  0  0  0  0  0
  132.8320  123.7160   60.9130 S   0  0  0  0  0  0  0  0  0  0  0  0
  132.8540  124.1500   59.1420 C   0  0  0  0  0  0  0  0  0  0  0  0
  131.6920  125.0740   58.7670 C   0  0  0  0  0  0  0  0  0  0  0  0
  131.4260  126.0440   59.4770 O   0  0  0  0  0  0  0  0  0  0  0  0
  130.9980  124.7450   57.6640 N   0  0  0  0  0  0  0  0  0  0  0  0
  129.7520  125.3730   57.2260 C   0  0  0  0  0  0  0  0  0  0  0  0
  128.5660  124.4240   57.3490 C   0  0  0  0  0  0  0  0  0  0  0  0
  128.1670  123.6550   56.2500 C   0  0  0  0  0  0  0  0  0  0  0  0
  127.0780  122.7960   56.3600 C   0  0  0  0  0  0  0  0  0  0  0  0
  126.3970  122.6970   57.5720 C   0  0  0  0  0  0  0  0  0  0  0  0
  126.8000  123.4430   58.6760 C   0  0  0  0  0  0  0  0  0  0  0  0
  127.8900  124.3040   58.5660 C   0  0  0  0  0  0  0  0  0  0  0  0
  130.2360  123.1280   61.7970 C   0  0  0  0  0  0  0  0  0  0  0  0
  130.0910  124.5250   62.2160 C   0  0  0  0  0  0  0  0  0  0  0  0
  129.9740  125.6270   62.5470 N   0  0  0  0  0  0  0  0  0  0  0  0
  127.8872  122.6056   63.6450 H   0  0  0  0  0  0  0  0  0  0  0  0
  127.5661  123.6410   62.2127 H   0  0  0  0  0  0  0  0  0  0  0  0
  127.0462  121.9216   62.2127 H   0  0  0  0  0  0  0  0  0  0  0  0
  128.5093  120.1758   61.6467 H   0  0  0  0  0  0  0  0  0  0  0  0
  129.2827  118.1880   61.7791 H   0  0  0  0  0  0  0  0  0  0  0  0
  129.6531  115.8708   60.9645 H   0  0  0  0  0  0  0  0  0  0  0  0
  131.3723  115.4251   59.2193 H   0  0  0  0  0  0  0  0  0  0  0  0
  132.7396  117.2928   58.3039 H   0  0  0  0  0  0  0  0  0  0  0  0
  132.3774  119.6108   59.1193 H   0  0  0  0  0  0  0  0  0  0  0  0
  133.8017  124.6589   58.9121 H   0  0  0  0  0  0  0  0  0  0  0  0
  132.7523  123.2211   58.5617 H   0  0  0  0  0  0  0  0  0  0  0  0
  131.2860  123.9280   57.1460 H   0  0  0  0  0  0  0  0  0  0  0  0
  129.5633  126.2610   57.8472 H   0  0  0  0  0  0  0  0  0  0  0  0
  129.8616  125.6476   56.1665 H   0  0  0  0  0  0  0  0  0  0  0  0
  128.7145  123.7297   55.2989 H   0  0  0  0  0  0  0  0  0  0  0  0
  126.7561  122.1980   55.4947 H   0  0  0  0  0  0  0  0  0  0  0  0
  125.5322  122.0225   57.6570 H   0  0  0  0  0  0  0  0  0  0  0  0
  126.2606  123.3532   59.6305 H   0  0  0  0  0  0  0  0  0  0  0  0
  128.2184  124.8894   59.4375 H   0  0  0  0  0  0  0  0  0  0  0  0
  1  2  1  0
  2  3  2  0
  3  4  1  0
  4  5  1  0
  5  6  2  0
  6  7  1  0
  7  8  2  0
  8  9  1  0
  9 10  2  0
  4 11  2  0
 11 12  1  0
 12 13  1  0
 13 14  1  0
 14 15  1  0
 15 16  2  0
 15 17  1  0
 17 18  1  0
 18 19  1  0
 19 20  2  0
 20 21  1  0
 21 22  2  0
 22 23  1  0
 23 24  2  0
 12 25  2  0
 25 26  1  0
 26 27  3  0
 25  2  1  0
 10  5  1  0
 24 19  1  0
  1 28  1  0
  1 29  1  0
  1 30  1  0
  3 31  1  0
  6 32  1  0
  7 33  1  0
  8 34  1  0
  9 35  1  0
 10 36  1  0
 14 37  1  0
 14 38  1  0
 17 39  1  0
 18 40  1  0
 18 41  1  0
 20 42  1  0
 21 43  1  0
 22 44  1  0
 23 45  1  0
 24 46  1  0
M  END
>  <Binding energies>  (1) 
[-8.02]

>  <Ligand effiencies>  (1) 
[-0.2864285714285714]

>  <Interactions>  (1) 
["V-B:PRO:540:CD:9859, V-B:PRO:540:CB:9857, V-B:TYR:539:C:9839, V-B:PRO:540:CA:9855, V-B:PRO:540:N:9856, V-B:GLU:543:CD:9880, V-B:TYR:539:CE2:9848, V-A:SER:385:CB:3409, V-A:HIS:383:CE1:3394, V-A:PRO:482:CG:4327, V-A:PRO:482:CB:4326, V-B:TYR:539:CB:9843, V-A:LEU:475:CD2:4259, V-B:ALA:541:CA:9862, V-B:TYR:539:CD2:9846, V-A:LEU:475:CD1:4258, V-B:ALA:541:CB:9864, V-A:LEU:373:CD1:3280, V-A:ILE:369:CG2:3237, V-B:GLU:543:CG:9879, V-B:TYR:539:CG:9844, V-B:TYR:539:CZ:9849, V-B:TYR:539:CE1:9847, V-B:TYR:539:CD1:9845, V-B:MET:535:CE:9807, H-B:TYR:539:OH:9850"]

$$$$
3bk_Grossjean_2025
     RDKit          3D

 57 58  0  0  0  0  0  0  0  0999 V2000
  125.2430  129.3310   56.5740 C   0  0  0  0  0  0  0  0  0  0  0  0
  126.3000  128.3840   56.5610 O   0  0  0  0  0  0  0  0  0  0  0  0
  126.6680  127.9290   57.8570 C   0  0  0  0  0  0  0  0  0  0  0  0
  127.1160  126.4620   57.7790 C   0  0  0  0  0  0  0  0  0  0  0  0
  126.3160  125.6790   58.6540 O   0  0  0  0  0  0  0  0  0  0  0  0
  125.4840  124.7400   57.9860 C   0  0  0  0  0  0  0  0  0  0  0  0
  125.2790  123.5150   58.8860 C   0  0  0  0  0  0  0  0  0  0  0  0
  126.1350  122.4650   58.4540 O   0  0  0  0  0  0  0  0  0  0  0  0
  126.9450  122.8060   57.3360 C   0  0  0  0  0  0  0  0  0  0  0  0
  128.2590  123.4290   57.8280 C   0  0  0  0  0  0  0  0  0  0  0  0
  128.1670  123.9070   59.2080 N   0  0  0  0  0  0  0  0  0  0  0  0
  128.0770  123.1280   60.3000 C   0  0  0  0  0  0  0  0  0  0  0  0
  128.0800  121.8960   60.2630 O   0  0  0  0  0  0  0  0  0  0  0  0
  127.9940  123.8480   61.6470 C   0  0  0  0  0  0  0  0  0  0  0  0
  129.4980  123.6020   62.6440 S   0  0  0  0  0  0  0  0  0  0  0  0
  130.7580  122.8590   61.6220 C   0  0  0  0  0  0  0  0  0  0  0  0
  130.6160  121.5320   61.3770 N   0  0  0  0  0  0  0  0  0  0  0  0
  131.5300  120.8800   60.6100 C   0  0  0  0  0  0  0  0  0  0  0  0
  131.2870  119.4200   60.3720 C   0  0  0  0  0  0  0  0  0  0  0  0
  130.2980  118.7300   61.0920 C   0  0  0  0  0  0  0  0  0  0  0  0
  130.0720  117.3730   60.8780 C   0  0  0  0  0  0  0  0  0  0  0  0
  130.8330  116.6850   59.9380 C   0  0  0  0  0  0  0  0  0  0  0  0
  131.8160  117.3460   59.2090 C   0  0  0  0  0  0  0  0  0  0  0  0
  132.0380  118.7040   59.4240 C   0  0  0  0  0  0  0  0  0  0  0  0
  132.6220  121.5620   60.0600 C   0  0  0  0  0  0  0  0  0  0  0  0
  132.7840  122.9300   60.3030 C   0  0  0  0  0  0  0  0  0  0  0  0
  133.9890  123.6360   59.6840 C   0  0  0  0  0  0  0  0  0  0  0  0
  131.8370  123.6060   61.1010 C   0  0  0  0  0  0  0  0  0  0  0  0
  131.9800  125.0390   61.3710 C   0  0  0  0  0  0  0  0  0  0  0  0
  132.0940  126.1710   61.5850 N   0  0  0  0  0  0  0  0  0  0  0  0
  124.9770  129.5693   57.6144 H   0  0  0  0  0  0  0  0  0  0  0  0
  125.5657  130.2478   56.0588 H   0  0  0  0  0  0  0  0  0  0  0  0
  124.3671  128.9099   56.0588 H   0  0  0  0  0  0  0  0  0  0  0  0
  127.4951  128.5447   58.2401 H   0  0  0  0  0  0  0  0  0  0  0  0
  125.8040  128.0121   58.5328 H   0  0  0  0  0  0  0  0  0  0  0  0
  126.9988  126.0964   56.7482 H   0  0  0  0  0  0  0  0  0  0  0  0
  128.1722  126.3832   58.0762 H   0  0  0  0  0  0  0  0  0  0  0  0
  124.5102  125.2023   57.7670 H   0  0  0  0  0  0  0  0  0  0  0  0
  125.9602  124.4300   57.0441 H   0  0  0  0  0  0  0  0  0  0  0  0
  125.5184  123.7795   59.9265 H   0  0  0  0  0  0  0  0  0  0  0  0
  124.2315  123.1846   58.8252 H   0  0  0  0  0  0  0  0  0  0  0  0
  127.1646  121.8999   56.7522 H   0  0  0  0  0  0  0  0  0  0  0  0
  126.4105  123.5293   56.7026 H   0  0  0  0  0  0  0  0  0  0  0  0
  129.0535  122.6705   57.7690 H   0  0  0  0  0  0  0  0  0  0  0  0
  128.4804  124.2951   57.1870 H   0  0  0  0  0  0  0  0  0  0  0  0
  128.2180  124.9070   59.3330 H   0  0  0  0  0  0  0  0  0  0  0  0
  127.8593  124.9247   61.4667 H   0  0  0  0  0  0  0  0  0  0  0  0
  127.1435  123.4292   62.2049 H   0  0  0  0  0  0  0  0  0  0  0  0
  129.6932  119.2696   61.8357 H   0  0  0  0  0  0  0  0  0  0  0  0
  129.2942  116.8463   61.4503 H   0  0  0  0  0  0  0  0  0  0  0  0
  130.6562  115.6123   59.7705 H   0  0  0  0  0  0  0  0  0  0  0  0
  132.4151  116.7988   58.4663 H   0  0  0  0  0  0  0  0  0  0  0  0
  132.8134  119.2244   58.8427 H   0  0  0  0  0  0  0  0  0  0  0  0
  133.3515  121.0229   59.4377 H   0  0  0  0  0  0  0  0  0  0  0  0
  134.6408  124.0179   60.4836 H   0  0  0  0  0  0  0  0  0  0  0  0
  134.5510  122.9243   59.0614 H   0  0  0  0  0  0  0  0  0  0  0  0
  133.6429  124.4742   59.0614 H   0  0  0  0  0  0  0  0  0  0  0  0
  1  2  1  0
  2  3  1  0
  3  4  1  0
  4  5  1  0
  5  6  1  0
  6  7  1  0
  7  8  1  0
  8  9  1  0
  9 10  1  0
 10 11  1  0
 11 12  1  0
 12 13  2  0
 12 14  1  0
 14 15  1  0
 15 16  1  0
 16 17  2  0
 17 18  1  0
 18 19  1  0
 19 20  2  0
 20 21  1  0
 21 22  2  0
 22 23  1  0
 23 24  2  0
 18 25  2  0
 25 26  1  0
 26 27  1  0
 26 28  2  0
 28 29  1  0
 29 30  3  0
 28 16  1  0
 24 19  1  0
  1 31  1  0
  1 32  1  0
  1 33  1  0
  3 34  1  0
  3 35  1  0
  4 36  1  0
  4 37  1  0
  6 38  1  0
  6 39  1  0
  7 40  1  0
  7 41  1  0
  9 42  1  0
  9 43  1  0
 10 44  1  0
 10 45  1  0
 11 46  1  0
 14 47  1  0
 14 48  1  0
 20 49  1  0
 21 50  1  0
 22 51  1  0
 23 52  1  0
 24 53  1  0
 25 54  1  0
 27 55  1  0
 27 56  1  0
 27 57  1  0
M  END
>  <Binding energies>  (1) 
[-5.23]

>  <Ligand effiencies>  (1) 
[-0.16870967741935486]

>  <Interactions>  (1) 
["V-B:PRO:540:CB:9857, V-B:TYR:539:C:9839, V-B:PRO:540:CA:9855, V-B:PRO:540:N:9856, V-B:GLU:543:CD:9880, V-A:ILE:369:CD1:3239, V-B:TYR:539:CE2:9848, V-A:SER:385:CB:3409, V-A:HIS:383:CE1:3394, V-A:PRO:482:CG:4327, V-A:PRO:482:CB:4326, V-B:TYR:539:CB:9843, V-A:LEU:475:CD2:4259, H-A:TYR:484:OH:4348, V-B:TYR:539:CD2:9846, V-A:LEU:475:CD1:4258, V-A:LEU:475:CG:4257, V-A:LEU:373:CD1:3280, V-A:ILE:369:CG2:3237, H-A:ARG:545:NH2:4928, V-A:ILE:369:CB:3236, V-B:TYR:531:CZ:9766, V-B:TYR:539:CG:9844, H-B:TYR:531:OH:9767, V-A:ILE:369:CG1:3238, V-B:TYR:539:CZ:9849, V-B:TYR:531:CE1:9764"]

$$$$
3ca_Grossjean_2025
     RDKit          3D

 52 54  0  0  0  0  0  0  0  0999 V2000
  130.8200  123.9880   74.7030 C   0  0  0  0  0  0  0  0  0  0  0  0
  130.8660  125.4950   74.4390 C   0  0  0  0  0  0  0  0  0  0  0  0
  129.8560  125.8430   73.5000 O   0  0  0  0  0  0  0  0  0  0  0  0
  129.6350  127.1370   73.1550 C   0  0  0  0  0  0  0  0  0  0  0  0
  129.5850  128.0610   73.9730 O   0  0  0  0  0  0  0  0  0  0  0  0
  129.4640  127.3360   71.6760 C   0  0  0  0  0  0  0  0  0  0  0  0
  128.3940  126.7120   71.0210 C   0  0  0  0  0  0  0  0  0  0  0  0
  128.2090  126.8770   69.6510 C   0  0  0  0  0  0  0  0  0  0  0  0
  129.0920  127.6610   68.9070 C   0  0  0  0  0  0  0  0  0  0  0  0
  128.8120  127.7620   67.5310 N   0  0  0  0  0  0  0  0  0  0  0  0
  128.4010  128.8280   66.8110 C   0  0  0  0  0  0  0  0  0  0  0  0
  128.2100  129.9590   67.2580 O   0  0  0  0  0  0  0  0  0  0  0  0
  128.1900  128.5660   65.3160 C   0  0  0  0  0  0  0  0  0  0  0  0
  126.4310  128.4780   64.8440 S   0  0  0  0  0  0  0  0  0  0  0  0
  126.2850  128.3260   63.0690 C   0  0  0  0  0  0  0  0  0  0  0  0
  126.8840  127.2380   62.5210 N   0  0  0  0  0  0  0  0  0  0  0  0
  126.7980  127.0480   61.1870 C   0  0  0  0  0  0  0  0  0  0  0  0
  127.4760  125.8020   60.6540 C   0  0  0  0  0  0  0  0  0  0  0  0
  126.1290  127.9340   60.3450 C   0  0  0  0  0  0  0  0  0  0  0  0
  125.5180  129.0730   60.8840 C   0  0  0  0  0  0  0  0  0  0  0  0
  124.8240  130.0020   59.9410 C   0  0  0  0  0  0  0  0  0  0  0  0
  124.5140  129.5830   58.6420 C   0  0  0  0  0  0  0  0  0  0  0  0
  123.8760  130.4440   57.7540 C   0  0  0  0  0  0  0  0  0  0  0  0
  123.5480  131.7350   58.1620 C   0  0  0  0  0  0  0  0  0  0  0  0
  123.8560  132.1710   59.4480 C   0  0  0  0  0  0  0  0  0  0  0  0
  124.4950  131.3060   60.3330 C   0  0  0  0  0  0  0  0  0  0  0  0
  125.5870  129.2760   62.2860 C   0  0  0  0  0  0  0  0  0  0  0  0
  124.9230  130.4230   62.9130 C   0  0  0  0  0  0  0  0  0  0  0  0
  124.3980  131.3300   63.4070 N   0  0  0  0  0  0  0  0  0  0  0  0
  130.1610  128.2960   69.5560 C   0  0  0  0  0  0  0  0  0  0  0  0
  130.3440  128.1320   70.9270 C   0  0  0  0  0  0  0  0  0  0  0  0
  130.8144  123.8058   75.7878 H   0  0  0  0  0  0  0  0  0  0  0  0
  129.9085  123.5650   74.2555 H   0  0  0  0  0  0  0  0  0  0  0  0
  131.7040  123.5102   74.2555 H   0  0  0  0  0  0  0  0  0  0  0  0
  130.6941  126.0375   75.3803 H   0  0  0  0  0  0  0  0  0  0  0  0
  131.8521  125.7663   74.0342 H   0  0  0  0  0  0  0  0  0  0  0  0
  127.6941  126.0863   71.5942 H   0  0  0  0  0  0  0  0  0  0  0  0
  127.3609  126.3860   69.1514 H   0  0  0  0  0  0  0  0  0  0  0  0
  128.9950  126.9180   67.0090 H   0  0  0  0  0  0  0  0  0  0  0  0
  128.6642  129.3800   64.7480 H   0  0  0  0  0  0  0  0  0  0  0  0
  128.6390  127.5878   65.0888 H   0  0  0  0  0  0  0  0  0  0  0  0
  127.8144  125.1801   61.4959 H   0  0  0  0  0  0  0  0  0  0  0  0
  126.7640  125.2314   60.0396 H   0  0  0  0  0  0  0  0  0  0  0  0
  128.3418  126.0900   60.0396 H   0  0  0  0  0  0  0  0  0  0  0  0
  126.0811  127.7399   59.2633 H   0  0  0  0  0  0  0  0  0  0  0  0
  124.7769  128.5645   58.3202 H   0  0  0  0  0  0  0  0  0  0  0  0
  123.6321  130.1070   56.7357 H   0  0  0  0  0  0  0  0  0  0  0  0
  123.0413  132.4158   57.4622 H   0  0  0  0  0  0  0  0  0  0  0  0
  123.5962  133.1924   59.7631 H   0  0  0  0  0  0  0  0  0  0  0  0
  124.7434  131.6496   61.3480 H   0  0  0  0  0  0  0  0  0  0  0  0
  130.8565  128.9250   68.9809 H   0  0  0  0  0  0  0  0  0  0  0  0
  131.1867  128.6314   71.4275 H   0  0  0  0  0  0  0  0  0  0  0  0
  1  2  1  0
  2  3  1  0
  3  4  1  0
  4  5  2  0
  4  6  1  0
  6  7  2  0
  7  8  1  0
  8  9  2  0
  9 10  1  0
 10 11  1  0
 11 12  2  0
 11 13  1  0
 13 14  1  0
 14 15  1  0
 15 16  2  0
 16 17  1  0
 17 18  1  0
 17 19  2  0
 19 20  1  0
 20 21  1  0
 21 22  2  0
 22 23  1  0
 23 24  2  0
 24 25  1  0
 25 26  2  0
 20 27  2  0
 27 28  1  0
 28 29  3  0
  9 30  1  0
 30 31  2  0
 31  6  1  0
 27 15  1  0
 26 21  1  0
  1 32  1  0
  1 33  1  0
  1 34  1  0
  2 35  1  0
  2 36  1  0
  7 37  1  0
  8 38  1  0
 10 39  1  0
 13 40  1  0
 13 41  1  0
 18 42  1  0
 18 43  1  0
 18 44  1  0
 19 45  1  0
 22 46  1  0
 23 47  1  0
 24 48  1  0
 25 49  1  0
 26 50  1  0
 30 51  1  0
 31 52  1  0
M  END
>  <Binding energies>  (1) 
[-7.88]

>  <Ligand effiencies>  (1) 
[-0.24625]

>  <Interactions>  (1) 
["V-B:GLU:543:CD:9880, V-A:HIS:456:CE1:4070, V-B:ASP:366:CG:8185, V-A:GLU:543:C:4902, V-B:HIS:456:CE1:9042, V-A:GLY:544:CA:4914, V-B:ARG:545:CZ:9898, V-A:GLU:543:CB:4906, H-B:TYR:484:OH:9320, V-A:GLU:543:CD:4908, V-A:GLY:544:C:4912, V-B:ILE:369:CD1:8211, V-A:GLU:543:CG:4907, H-B:GLY:454:N:9022, V-A:HIS:456:CD2:4068, H-A:GLU:543:OE2:4910, H-B:GLU:543:OE2:9882, V-B:ASP:366:CB:8184, H-B:ARG:545:NH2:9900, V-A:TYR:539:CE1:4875, V-A:TYR:539:CZ:4877, V-B:ILE:369:CB:8208, V-B:ASP:366:C:8180, V-B:ASP:366:CA:8182, V-B:ILE:369:CG2:8209, V-B:HIS:456:CD2:9040, H-B:LYS:547:NZ:9923, H-A:LYS:547:NZ:4951, V-B:LYS:547:CE:9922, V-A:HIS:456:CB:4065"]

$$$$
3cb_Grossjean_2025
     RDKit          3D

 49 51  0  0  0  0  0  0  0  0999 V2000
  128.3600  132.8480   60.2590 C   0  0  0  0  0  0  0  0  0  0  0  0
  129.1250  132.7480   61.4510 O   0  0  0  0  0  0  0  0  0  0  0  0
  129.9120  131.6670   61.6890 C   0  0  0  0  0  0  0  0  0  0  0  0
  131.1330  131.7390   61.8550 O   0  0  0  0  0  0  0  0  0  0  0  0
  129.1490  130.3740   61.7260 C   0  0  0  0  0  0  0  0  0  0  0  0
  128.0960  130.1580   62.6280 C   0  0  0  0  0  0  0  0  0  0  0  0
  127.4070  128.9490   62.6340 C   0  0  0  0  0  0  0  0  0  0  0  0
  127.7560  127.9290   61.7470 C   0  0  0  0  0  0  0  0  0  0  0  0
  126.9910  126.7490   61.8390 N   0  0  0  0  0  0  0  0  0  0  0  0
  126.5130  125.9480   60.8630 C   0  0  0  0  0  0  0  0  0  0  0  0
  126.6950  126.1190   59.6560 O   0  0  0  0  0  0  0  0  0  0  0  0
  125.7060  124.7420   61.3680 C   0  0  0  0  0  0  0  0  0  0  0  0
  126.4130  123.1120   60.9470 S   0  0  0  0  0  0  0  0  0  0  0  0
  128.0010  123.3860   60.1900 C   0  0  0  0  0  0  0  0  0  0  0  0
  127.9230  123.9800   58.9740 N   0  0  0  0  0  0  0  0  0  0  0  0
  129.0680  124.2380   58.3030 C   0  0  0  0  0  0  0  0  0  0  0  0
  128.9050  124.9140   56.9560 C   0  0  0  0  0  0  0  0  0  0  0  0
  130.3230  123.9130   58.8100 C   0  0  0  0  0  0  0  0  0  0  0  0
  130.4270  123.2840   60.0580 C   0  0  0  0  0  0  0  0  0  0  0  0
  131.7960  122.9510   60.5560 C   0  0  0  0  0  0  0  0  0  0  0  0
  132.3040  121.6540   60.4050 C   0  0  0  0  0  0  0  0  0  0  0  0
  133.5820  121.3360   60.8550 C   0  0  0  0  0  0  0  0  0  0  0  0
  134.3630  122.3180   61.4580 C   0  0  0  0  0  0  0  0  0  0  0  0
  133.8780  123.6140   61.6100 C   0  0  0  0  0  0  0  0  0  0  0  0
  132.6000  123.9290   61.1570 C   0  0  0  0  0  0  0  0  0  0  0  0
  129.2330  122.9940   60.7680 C   0  0  0  0  0  0  0  0  0  0  0  0
  129.2770  122.2550   62.0340 C   0  0  0  0  0  0  0  0  0  0  0  0
  129.3110  121.6720   63.0320 N   0  0  0  0  0  0  0  0  0  0  0  0
  128.8060  128.1390   60.8400 C   0  0  0  0  0  0  0  0  0  0  0  0
  129.4940  129.3500   60.8330 C   0  0  0  0  0  0  0  0  0  0  0  0
  127.2992  132.9867   60.5147 H   0  0  0  0  0  0  0  0  0  0  0  0
  128.7105  133.7080   59.6694 H   0  0  0  0  0  0  0  0  0  0  0  0
  128.4777  131.9268   59.6694 H   0  0  0  0  0  0  0  0  0  0  0  0
  127.8129  130.9508   63.3361 H   0  0  0  0  0  0  0  0  0  0  0  0
  126.5805  128.7957   63.3435 H   0  0  0  0  0  0  0  0  0  0  0  0
  126.8000  126.4560   62.7870 H   0  0  0  0  0  0  0  0  0  0  0  0
  125.6371  124.8117   62.4636 H   0  0  0  0  0  0  0  0  0  0  0  0
  124.7287  124.7930   60.8657 H   0  0  0  0  0  0  0  0  0  0  0  0
  128.6496  125.9734   57.1059 H   0  0  0  0  0  0  0  0  0  0  0  0
  129.8467  124.8401   56.3923 H   0  0  0  0  0  0  0  0  0  0  0  0
  128.1005  124.4190   56.3923 H   0  0  0  0  0  0  0  0  0  0  0  0
  131.2295  124.1490   58.2333 H   0  0  0  0  0  0  0  0  0  0  0  0
  131.6868  120.8796   59.9262 H   0  0  0  0  0  0  0  0  0  0  0  0
  133.9727  120.3147   60.7349 H   0  0  0  0  0  0  0  0  0  0  0  0
  135.3720  122.0677   61.8175 H   0  0  0  0  0  0  0  0  0  0  0  0
  134.5016  124.3853   62.0857 H   0  0  0  0  0  0  0  0  0  0  0  0
  132.2180  124.9541   61.2717 H   0  0  0  0  0  0  0  0  0  0  0  0
  129.0865  127.3448   60.1325 H   0  0  0  0  0  0  0  0  0  0  0  0
  130.3167  129.5045   60.1193 H   0  0  0  0  0  0  0  0  0  0  0  0
  1  2  1  0
  2  3  1  0
  3  4  2  0
  3  5  1  0
  5  6  2  0
  6  7  1  0
  7  8  2  0
  8  9  1  0
  9 10  1  0
 10 11  2  0
 10 12  1  0
 12 13  1  0
 13 14  1  0
 14 15  2  0
 15 16  1  0
 16 17  1  0
 16 18  2  0
 18 19  1  0
 19 20  1  0
 20 21  2  0
 21 22  1  0
 22 23  2  0
 23 24  1  0
 24 25  2  0
 19 26  2  0
 26 27  1  0
 27 28  3  0
  8 29  1  0
 29 30  2  0
 30  5  1  0
 26 14  1  0
 25 20  1  0
  1 31  1  0
  1 32  1  0
  1 33  1  0
  6 34  1  0
  7 35  1  0
  9 36  1  0
 12 37  1  0
 12 38  1  0
 17 39  1  0
 17 40  1  0
 17 41  1  0
 18 42  1  0
 21 43  1  0
 22 44  1  0
 23 45  1  0
 24 46  1  0
 25 47  1  0
 29 48  1  0
 30 49  1  0
M  END
>  <Binding energies>  (1) 
[-6.35]

>  <Ligand effiencies>  (1) 
[-0.20483870967741935]

>  <Interactions>  (1) 
["V-B:PRO:540:CA:9855, V-B:GLU:543:CD:9880, V-A:ILE:369:CD1:3239, V-B:TYR:539:CE2:9848, H-B:ALA:541:N:9863, V-B:ASP:366:CG:8185, V-A:LEU:475:CD2:4259, H-A:TYR:484:OH:4348, V-B:TYR:539:CD2:9846, V-B:ALA:541:CB:9864, V-A:GLU:543:CD:4908, V-A:GLU:543:CG:4907, V-A:GLY:454:CA:4049, V-A:ILE:369:CG2:3237, V-A:GLY:453:C:4042, H-B:GLU:543:OE2:9882, H-B:GLU:543:OE1:9881, V-A:ILE:369:CG1:3238, V-B:TYR:539:CZ:9849, V-B:MET:535:CE:9807, H-A:ALA:541:N:4891, V-A:ALA:541:CB:4892, V-A:SER:385:C:3405"]

$$$$
3ce_Grossjean_2025
     RDKit          3D

 45 47  0  0  0  0  0  0  0  0999 V2000
  128.4320  132.2740   57.0440 C   0  0  0  0  0  0  0  0  0  0  0  0
  129.8530  131.7460   57.0080 C   0  0  0  0  0  0  0  0  0  0  0  0
  130.8480  132.3750   56.2540 C   0  0  0  0  0  0  0  0  0  0  0  0
  132.1350  131.8400   56.2770 C   0  0  0  0  0  0  0  0  0  0  0  0
  132.3970  130.7020   57.0440 C   0  0  0  0  0  0  0  0  0  0  0  0
  131.3530  130.1170   57.7690 C   0  0  0  0  0  0  0  0  0  0  0  0
  131.6790  128.9870   58.5380 N   0  0  0  0  0  0  0  0  0  0  0  0
  130.8750  127.9620   58.8990 C   0  0  0  0  0  0  0  0  0  0  0  0
  129.6870  127.8530   58.5920 O   0  0  0  0  0  0  0  0  0  0  0  0
  131.5310  126.8710   59.7450 C   0  0  0  0  0  0  0  0  0  0  0  0
  131.9110  125.3880   58.7650 S   0  0  0  0  0  0  0  0  0  0  0  0
  130.5760  124.2540   59.0680 C   0  0  0  0  0  0  0  0  0  0  0  0
  130.8450  123.3300   60.0230 N   0  0  0  0  0  0  0  0  0  0  0  0
  129.8850  122.4300   60.3390 C   0  0  0  0  0  0  0  0  0  0  0  0
  130.2470  121.4330   61.4240 C   0  0  0  0  0  0  0  0  0  0  0  0
  128.6410  122.4090   59.7140 C   0  0  0  0  0  0  0  0  0  0  0  0
  128.3540  123.3400   58.7070 C   0  0  0  0  0  0  0  0  0  0  0  0
  127.0160  123.2620   58.0480 C   0  0  0  0  0  0  0  0  0  0  0  0
  126.7980  122.3540   57.0040 C   0  0  0  0  0  0  0  0  0  0  0  0
  125.5550  122.2800   56.3810 C   0  0  0  0  0  0  0  0  0  0  0  0
  124.5250  123.1190   56.7950 C   0  0  0  0  0  0  0  0  0  0  0  0
  124.7280  124.0340   57.8250 C   0  0  0  0  0  0  0  0  0  0  0  0
  125.9710  124.1060   58.4470 C   0  0  0  0  0  0  0  0  0  0  0  0
  129.3450  124.2970   58.3720 C   0  0  0  0  0  0  0  0  0  0  0  0
  129.0970  125.3050   57.3370 C   0  0  0  0  0  0  0  0  0  0  0  0
  128.9000  126.1010   56.5200 N   0  0  0  0  0  0  0  0  0  0  0  0
  130.0910  130.6390   57.7570 N   0  0  0  0  0  0  0  0  0  0  0  0
  128.1115  132.3931   58.0895 H   0  0  0  0  0  0  0  0  0  0  0  0
  128.3897  133.2479   56.5343 H   0  0  0  0  0  0  0  0  0  0  0  0
  127.7640  131.5641   56.5343 H   0  0  0  0  0  0  0  0  0  0  0  0
  130.6208  133.2705   55.6570 H   0  0  0  0  0  0  0  0  0  0  0  0
  132.9401  132.3114   55.6943 H   0  0  0  0  0  0  0  0  0  0  0  0
  133.4090  130.2723   57.0774 H   0  0  0  0  0  0  0  0  0  0  0  0
  132.6570  128.8980   58.7700 H   0  0  0  0  0  0  0  0  0  0  0  0
  132.4658  127.2650   60.1704 H   0  0  0  0  0  0  0  0  0  0  0  0
  130.8242  126.5835   60.5373 H   0  0  0  0  0  0  0  0  0  0  0  0
  130.0814  121.8891   62.4112 H   0  0  0  0  0  0  0  0  0  0  0  0
  129.6168  120.5370   61.3237 H   0  0  0  0  0  0  0  0  0  0  0  0
  131.3052  121.1501   61.3237 H   0  0  0  0  0  0  0  0  0  0  0  0
  127.8868  121.6648   60.0095 H   0  0  0  0  0  0  0  0  0  0  0  0
  127.6145  121.6948   56.6740 H   0  0  0  0  0  0  0  0  0  0  0  0
  125.3880  121.5614   55.5651 H   0  0  0  0  0  0  0  0  0  0  0  0
  123.5422  123.0590   56.3046 H   0  0  0  0  0  0  0  0  0  0  0  0
  123.9103  124.6964   58.1453 H   0  0  0  0  0  0  0  0  0  0  0  0
  126.1343  124.8310   59.2580 H   0  0  0  0  0  0  0  0  0  0  0  0
  1  2  1  0
  2  3  2  0
  3  4  1  0
  4  5  2  0
  5  6  1  0
  6  7  1  0
  7  8  1  0
  8  9  2  0
  8 10  1  0
 10 11  1  0
 11 12  1  0
 12 13  2  0
 13 14  1  0
 14 15  1  0
 14 16  2  0
 16 17  1  0
 17 18  1  0
 18 19  2  0
 19 20  1  0
 20 21  2  0
 21 22  1  0
 22 23  2  0
 17 24  2  0
 24 25  1  0
 25 26  3  0
  6 27  2  0
 27  2  1  0
 24 12  1  0
 23 18  1  0
  1 28  1  0
  1 29  1  0
  1 30  1  0
  3 31  1  0
  4 32  1  0
  5 33  1  0
  7 34  1  0
 10 35  1  0
 10 36  1  0
 15 37  1  0
 15 38  1  0
 15 39  1  0
 16 40  1  0
 19 41  1  0
 20 42  1  0
 21 43  1  0
 22 44  1  0
 23 45  1  0
M  END
>  <Binding energies>  (1) 
[-7.53]

>  <Ligand effiencies>  (1) 
[-0.26892857142857146]

>  <Interactions>  (1) 
["V-B:PRO:540:CD:9859, V-B:LEU:363:CD1:8161, V-B:ILE:538:CD1:9837, V-B:PRO:540:CB:9857, V-B:TYR:539:C:9839, V-B:PRO:540:CA:9855, V-B:PRO:540:N:9856, V-B:TYR:539:CE2:9848, V-B:ILE:538:CG2:9835, V-A:LEU:475:CD2:4259, V-B:TYR:539:CA:9841, V-B:TYR:539:CD2:9846, V-A:ASP:366:CG:3213, V-A:ASP:366:CB:3212, H-A:ASP:366:OD2:3215, H-A:ASP:366:OD1:3214, V-B:TYR:531:CE2:9765, V-B:TYR:531:CZ:9766, V-B:TYR:539:CG:9844, V-B:TYR:539:CZ:9849, V-B:MET:535:CE:9807, V-A:PRO:540:CA:4883, V-A:PRO:540:CB:4885, V-A:PRO:540:N:4884, V-B:ILE:538:CA:9832, V-A:LEU:363:CD1:3189, V-A:TYR:539:CD1:4873, V-A:TYR:539:C:4867, V-A:TYR:539:CE1:4875, V-A:TYR:539:CZ:4877, V-A:TYR:539:CG:4872, V-A:PRO:540:CD:4887"]

$$$$
3ch_Grossjean_2025
     RDKit          3D

 55 57  0  0  0  0  0  0  0  0999 V2000
  125.2700  129.2390   59.0470 C   0  0  0  0  0  0  0  0  0  0  0  0
  124.9080  129.9420   60.2310 O   0  0  0  0  0  0  0  0  0  0  0  0
  125.3220  129.4640   61.4620 C   0  0  0  0  0  0  0  0  0  0  0  0
  126.4140  128.6000   61.6420 C   0  0  0  0  0  0  0  0  0  0  0  0
  126.7820  128.1640   62.9230 C   0  0  0  0  0  0  0  0  0  0  0  0
  127.8610  127.3040   63.2030 N   0  0  0  0  0  0  0  0  0  0  0  0
  128.9270  126.9800   62.4390 C   0  0  0  0  0  0  0  0  0  0  0  0
  129.1560  127.4160   61.3100 O   0  0  0  0  0  0  0  0  0  0  0  0
  129.9310  126.0230   63.0800 C   0  0  0  0  0  0  0  0  0  0  0  0
  129.6330  124.2940   62.6030 S   0  0  0  0  0  0  0  0  0  0  0  0
  129.2860  124.3160   60.8580 C   0  0  0  0  0  0  0  0  0  0  0  0
  130.3080  124.7850   60.1000 N   0  0  0  0  0  0  0  0  0  0  0  0
  130.1420  124.8490   58.7600 C   0  0  0  0  0  0  0  0  0  0  0  0
  131.3210  125.3880   57.9740 C   0  0  0  0  0  0  0  0  0  0  0  0
  128.9650  124.4550   58.1290 C   0  0  0  0  0  0  0  0  0  0  0  0
  127.8990  123.9600   58.8950 C   0  0  0  0  0  0  0  0  0  0  0  0
  126.6520  123.5580   58.1760 C   0  0  0  0  0  0  0  0  0  0  0  0
  126.7250  122.7310   57.0490 C   0  0  0  0  0  0  0  0  0  0  0  0
  125.5680  122.3590   56.3700 C   0  0  0  0  0  0  0  0  0  0  0  0
  124.3300  122.8170   56.8140 C   0  0  0  0  0  0  0  0  0  0  0  0
  124.2410  123.6460   57.9290 C   0  0  0  0  0  0  0  0  0  0  0  0
  125.4010  124.0170   58.6050 C   0  0  0  0  0  0  0  0  0  0  0  0
  128.0650  123.8680   60.3010 C   0  0  0  0  0  0  0  0  0  0  0  0
  127.0220  123.2710   61.1400 C   0  0  0  0  0  0  0  0  0  0  0  0
  126.1980  122.8010   61.8030 N   0  0  0  0  0  0  0  0  0  0  0  0
  126.0350  128.5840   64.0250 C   0  0  0  0  0  0  0  0  0  0  0  0
  124.9390  129.4460   63.8700 C   0  0  0  0  0  0  0  0  0  0  0  0
  124.1630  129.9060   64.9210 O   0  0  0  0  0  0  0  0  0  0  0  0
  124.3290  129.3380   66.2160 C   0  0  0  0  0  0  0  0  0  0  0  0
  124.5910  129.8770   62.5840 C   0  0  0  0  0  0  0  0  0  0  0  0
  123.5300  130.7360   62.4210 O   0  0  0  0  0  0  0  0  0  0  0  0
  123.9060  132.0970   62.2580 C   0  0  0  0  0  0  0  0  0  0  0  0
  125.7581  128.2912   59.3181 H   0  0  0  0  0  0  0  0  0  0  0  0
  124.3673  129.0302   58.4541 H   0  0  0  0  0  0  0  0  0  0  0  0
  125.9643  129.8525   58.4541 H   0  0  0  0  0  0  0  0  0  0  0  0
  126.9881  128.2608   60.7671 H   0  0  0  0  0  0  0  0  0  0  0  0
  127.8440  126.9070   64.1320 H   0  0  0  0  0  0  0  0  0  0  0  0
  130.9448  126.3084   62.7625 H   0  0  0  0  0  0  0  0  0  0  0  0
  129.8178  126.0964   64.1717 H   0  0  0  0  0  0  0  0  0  0  0  0
  132.0952  125.7419   58.6707 H   0  0  0  0  0  0  0  0  0  0  0  0
  131.7351  124.5898   57.3405 H   0  0  0  0  0  0  0  0  0  0  0  0
  130.9882  126.2234   57.3405 H   0  0  0  0  0  0  0  0  0  0  0  0
  128.8715  124.5315   57.0357 H   0  0  0  0  0  0  0  0  0  0  0  0
  127.7037  122.3724   56.6973 H   0  0  0  0  0  0  0  0  0  0  0  0
  125.6313  121.7063   55.4868 H   0  0  0  0  0  0  0  0  0  0  0  0
  123.4152  122.5214   56.2795 H   0  0  0  0  0  0  0  0  0  0  0  0
  123.2605  124.0059   58.2740 H   0  0  0  0  0  0  0  0  0  0  0  0
  125.3335  124.6760   59.4831 H   0  0  0  0  0  0  0  0  0  0  0  0
  126.3101  128.2336   65.0307 H   0  0  0  0  0  0  0  0  0  0  0  0
  124.1071  130.0971   66.9805 H   0  0  0  0  0  0  0  0  0  0  0  0
  123.6420  128.4871   66.3340 H   0  0  0  0  0  0  0  0  0  0  0  0
  125.3661  128.9910   66.3340 H   0  0  0  0  0  0  0  0  0  0  0  0
  124.0347  132.5627   63.2462 H   0  0  0  0  0  0  0  0  0  0  0  0
  124.8529  132.1516   61.7008 H   0  0  0  0  0  0  0  0  0  0  0  0
  123.1214  132.6299   61.7008 H   0  0  0  0  0  0  0  0  0  0  0  0
  1  2  1  0
  2  3  1  0
  3  4  2  0
  4  5  1  0
  5  6  1  0
  6  7  1  0
  7  8  2  0
  7  9  1  0
  9 10  1  0
 10 11  1  0
 11 12  2  0
 12 13  1  0
 13 14  1  0
 13 15  2  0
 15 16  1  0
 16 17  1  0
 17 18  2  0
 18 19  1  0
 19 20  2  0
 20 21  1  0
 21 22  2  0
 16 23  2  0
 23 24  1  0
 24 25  3  0
  5 26  2  0
 26 27  1  0
 27 28  1  0
 28 29  1  0
 27 30  2  0
 30 31  1  0
 31 32  1  0
 30  3  1  0
 23 11  1  0
 22 17  1  0
  1 33  1  0
  1 34  1  0
  1 35  1  0
  4 36  1  0
  6 37  1  0
  9 38  1  0
  9 39  1  0
 14 40  1  0
 14 41  1  0
 14 42  1  0
 15 43  1  0
 18 44  1  0
 19 45  1  0
 20 46  1  0
 21 47  1  0
 22 48  1  0
 26 49  1  0
 29 50  1  0
 29 51  1  0
 29 52  1  0
 32 53  1  0
 32 54  1  0
 32 55  1  0
M  END
>  <Binding energies>  (1) 
[-8.14]

>  <Ligand effiencies>  (1) 
[-0.24666666666666667]

>  <Interactions>  (1) 
["V-B:PRO:540:CD:9859, V-B:LEU:363:CD1:8161, V-B:ILE:538:CD1:9837, V-B:PRO:540:CB:9857, V-B:TYR:539:C:9839, V-B:PRO:540:CA:9855, V-B:PRO:540:CG:9858, V-B:PRO:540:N:9856, V-B:GLU:543:CD:9880, V-B:TYR:539:CE2:9848, V-B:ILE:538:CG2:9835, H-B:ALA:541:N:9863, V-B:ASP:366:CG:8185, H-A:TYR:484:OH:4348, V-B:HIS:456:CE1:9042, V-B:ARG:545:CZ:9898, H-B:TYR:484:OH:9320, V-A:GLU:543:CD:4908, V-B:ILE:369:CD1:8211, V-B:TYR:484:CZ:9319, H-B:GLY:454:N:9022, V-B:GLY:454:CA:9021, H-B:GLU:543:OE2:9882, H-B:GLU:543:OE1:9881, V-B:TYR:531:CE2:9765, V-B:ASP:366:CB:8184, V-B:TYR:539:CZ:9849, V-B:ILE:538:CA:9832, V-B:ARG:545:CG:9894, V-B:ARG:545:CD:9895, V-B:LEU:363:CA:8157"]

$$$$
3ci_Grossjean_2025
     RDKit          3D

 39 41  0  0  0  0  0  0  0  0999 V2000
  129.8780  120.7830   62.1500 C   0  0  0  0  0  0  0  0  0  0  0  0
  129.2940  122.0600   61.5740 C   0  0  0  0  0  0  0  0  0  0  0  0
  128.5000  122.0490   60.4310 C   0  0  0  0  0  0  0  0  0  0  0  0
  127.9690  123.2530   59.9460 C   0  0  0  0  0  0  0  0  0  0  0  0
  127.1100  123.1920   58.7260 C   0  0  0  0  0  0  0  0  0  0  0  0
  125.7440  123.4980   58.7940 C   0  0  0  0  0  0  0  0  0  0  0  0
  124.9460  123.4310   57.6550 C   0  0  0  0  0  0  0  0  0  0  0  0
  125.5100  123.0510   56.4410 C   0  0  0  0  0  0  0  0  0  0  0  0
  126.8640  122.7350   56.3570 C   0  0  0  0  0  0  0  0  0  0  0  0
  127.6590  122.8030   57.4980 C   0  0  0  0  0  0  0  0  0  0  0  0
  128.2730  124.4520   60.6400 C   0  0  0  0  0  0  0  0  0  0  0  0
  127.7810  125.7460   60.1550 C   0  0  0  0  0  0  0  0  0  0  0  0
  127.3920  126.7670   59.7720 N   0  0  0  0  0  0  0  0  0  0  0  0
  129.0850  124.3710   61.7970 C   0  0  0  0  0  0  0  0  0  0  0  0
  129.5130  125.8160   62.7600 S   0  0  0  0  0  0  0  0  0  0  0  0
  131.1370  125.5630   63.5480 C   0  0  0  0  0  0  0  0  0  0  0  0
  132.2110  125.0560   62.5780 C   0  0  0  0  0  0  0  0  0  0  0  0
  133.2720  124.6210   63.0280 O   0  0  0  0  0  0  0  0  0  0  0  0
  131.9040  125.1450   61.2640 N   0  0  0  0  0  0  0  0  0  0  0  0
  132.6800  124.7340   60.1900 C   0  0  0  0  0  0  0  0  0  0  0  0
  132.2250  124.7510   58.8720 C   0  0  0  0  0  0  0  0  0  0  0  0
  133.2770  124.2720   58.1230 C   0  0  0  0  0  0  0  0  0  0  0  0
  134.3110  123.9840   58.9490 O   0  0  0  0  0  0  0  0  0  0  0  0
  133.9210  124.2800   60.2560 N   0  0  0  0  0  0  0  0  0  0  0  0
  129.5880  123.1940   62.2470 N   0  0  0  0  0  0  0  0  0  0  0  0
  129.8554  120.8324   63.2487 H   0  0  0  0  0  0  0  0  0  0  0  0
  129.2841  119.9220   61.8094 H   0  0  0  0  0  0  0  0  0  0  0  0
  130.9177  120.6691   61.8094 H   0  0  0  0  0  0  0  0  0  0  0  0
  128.2904  121.1023   59.9115 H   0  0  0  0  0  0  0  0  0  0  0  0
  125.2985  123.7936   59.7553 H   0  0  0  0  0  0  0  0  0  0  0  0
  123.8755  123.6771   57.7145 H   0  0  0  0  0  0  0  0  0  0  0  0
  124.8812  122.9997   55.5399 H   0  0  0  0  0  0  0  0  0  0  0  0
  127.3028  122.4334   55.3945 H   0  0  0  0  0  0  0  0  0  0  0  0
  128.7274  122.5490   57.4342 H   0  0  0  0  0  0  0  0  0  0  0  0
  131.4729  126.5215   63.9705 H   0  0  0  0  0  0  0  0  0  0  0  0
  131.0067  124.7914   64.3211 H   0  0  0  0  0  0  0  0  0  0  0  0
  131.0010  125.5280   61.0260 H   0  0  0  0  0  0  0  0  0  0  0  0
  131.2390  125.0766   58.5089 H   0  0  0  0  0  0  0  0  0  0  0  0
  133.2773  124.1440   57.0305 H   0  0  0  0  0  0  0  0  0  0  0  0
  1  2  1  0
  2  3  2  0
  3  4  1  0
  4  5  1  0
  5  6  2  0
  6  7  1  0
  7  8  2  0
  8  9  1  0
  9 10  2  0
  4 11  2  0
 11 12  1  0
 12 13  3  0
 11 14  1  0
 14 15  1  0
 15 16  1  0
 16 17  1  0
 17 18  2  0
 17 19  1  0
 19 20  1  0
 20 21  1  0
 21 22  2  0
 22 23  1  0
 23 24  1  0
 14 25  2  0
 25  2  1  0
 10  5  1  0
 24 20  2  0
  1 26  1  0
  1 27  1  0
  1 28  1  0
  3 29  1  0
  6 30  1  0
  7 31  1  0
  8 32  1  0
  9 33  1  0
 10 34  1  0
 16 35  1  0
 16 36  1  0
 19 37  1  0
 21 38  1  0
 22 39  1  0
M  END
>  <Binding energies>  (1) 
[-7.48]

>  <Ligand effiencies>  (1) 
[-0.2876923076923077]

>  <Interactions>  (1) 
["V-B:LEU:363:CD1:8161, V-B:PRO:540:CB:9857, V-B:TYR:539:C:9839, V-B:PRO:540:CA:9855, V-B:PRO:540:N:9856, V-B:GLU:543:CD:9880, V-A:TYR:484:CZ:4347, V-B:TYR:539:CE2:9848, V-A:LEU:475:CD2:4259, H-A:TYR:484:OH:4348, V-B:TYR:539:CD2:9846, V-B:ALA:541:CB:9864, V-A:GLU:543:CD:4908, H-A:GLY:454:N:4050, V-A:ILE:369:CG2:3237, H-A:ARG:545:NH2:4928, V-A:ASP:366:CG:3213, V-A:ASP:366:CB:3212, V-A:ILE:369:CB:3236, V-A:ASP:366:CA:3210, V-B:TYR:531:CE2:9765, V-B:TYR:539:CG:9844, V-A:TYR:484:CE1:4345, V-B:TYR:539:CZ:9849"]

$$$$
3cj_Grossjean_2025
     RDKit          3D

 39 41  0  0  0  0  0  0  0  0999 V2000
  130.0130  120.8140   62.0850 C   0  0  0  0  0  0  0  0  0  0  0  0
  129.4190  122.0930   61.5280 C   0  0  0  0  0  0  0  0  0  0  0  0
  128.6540  122.0950   60.3630 C   0  0  0  0  0  0  0  0  0  0  0  0
  128.1040  123.2970   59.8970 C   0  0  0  0  0  0  0  0  0  0  0  0
  127.2390  123.2410   58.6830 C   0  0  0  0  0  0  0  0  0  0  0  0
  127.8060  123.0820   57.4130 C   0  0  0  0  0  0  0  0  0  0  0  0
  126.9980  123.0430   56.2790 C   0  0  0  0  0  0  0  0  0  0  0  0
  125.6180  123.1690   56.4120 C   0  0  0  0  0  0  0  0  0  0  0  0
  125.0410  123.3380   57.6680 C   0  0  0  0  0  0  0  0  0  0  0  0
  125.8500  123.3760   58.8000 C   0  0  0  0  0  0  0  0  0  0  0  0
  128.3770  124.4870   60.6170 C   0  0  0  0  0  0  0  0  0  0  0  0
  127.8550  125.7800   60.1640 C   0  0  0  0  0  0  0  0  0  0  0  0
  127.4410  126.8000   59.8060 N   0  0  0  0  0  0  0  0  0  0  0  0
  129.1590  124.3910   61.7900 C   0  0  0  0  0  0  0  0  0  0  0  0
  129.4630  125.7830   62.8580 S   0  0  0  0  0  0  0  0  0  0  0  0
  131.1030  125.4640   63.5840 C   0  0  0  0  0  0  0  0  0  0  0  0
  132.1440  125.1220   62.5130 C   0  0  0  0  0  0  0  0  0  0  0  0
  133.2160  124.6140   62.8490 O   0  0  0  0  0  0  0  0  0  0  0  0
  131.7720  125.3810   61.2410 N   0  0  0  0  0  0  0  0  0  0  0  0
  132.4680  125.0440   60.0910 C   0  0  0  0  0  0  0  0  0  0  0  0
  133.6260  124.4280   59.9990 N   0  0  0  0  0  0  0  0  0  0  0  0
  133.9760  124.2430   58.7410 C   0  0  0  0  0  0  0  0  0  0  0  0
  133.0900  124.7170   57.7780 C   0  0  0  0  0  0  0  0  0  0  0  0
  131.7260  125.4450   58.5750 S   0  0  0  0  0  0  0  0  0  0  0  0
  129.6610  123.2150   62.2420 N   0  0  0  0  0  0  0  0  0  0  0  0
  129.9962  120.8502   63.1843 H   0  0  0  0  0  0  0  0  0  0  0  0
  129.4223  119.9536   61.7374 H   0  0  0  0  0  0  0  0  0  0  0  0
  131.0515  120.7102   61.7374 H   0  0  0  0  0  0  0  0  0  0  0  0
  128.4828  121.1583   59.8122 H   0  0  0  0  0  0  0  0  0  0  0  0
  128.8970  122.9872   57.3099 H   0  0  0  0  0  0  0  0  0  0  0  0
  127.4480  122.9133   55.2837 H   0  0  0  0  0  0  0  0  0  0  0  0
  124.9783  123.1348   55.5178 H   0  0  0  0  0  0  0  0  0  0  0  0
  123.9502  123.4411   57.7652 H   0  0  0  0  0  0  0  0  0  0  0  0
  125.3956  123.5129   59.7924 H   0  0  0  0  0  0  0  0  0  0  0  0
  131.4327  126.3622   64.1267 H   0  0  0  0  0  0  0  0  0  0  0  0
  131.0145  124.6021   64.2617 H   0  0  0  0  0  0  0  0  0  0  0  0
  130.8570  125.7840   61.0980 H   0  0  0  0  0  0  0  0  0  0  0  0
  134.9163  123.7417   58.4679 H   0  0  0  0  0  0  0  0  0  0  0  0
  133.2297  124.6432   56.6894 H   0  0  0  0  0  0  0  0  0  0  0  0
  1  2  1  0
  2  3  2  0
  3  4  1  0
  4  5  1  0
  5  6  2  0
  6  7  1  0
  7  8  2  0
  8  9  1  0
  9 10  2  0
  4 11  2  0
 11 12  1  0
 12 13  3  0
 11 14  1  0
 14 15  1  0
 15 16  1  0
 16 17  1  0
 17 18  2  0
 17 19  1  0
 19 20  1  0
 20 21  2  0
 21 22  1  0
 22 23  2  0
 23 24  1  0
 14 25  2  0
 25  2  1  0
 10  5  1  0
 24 20  1  0
  1 26  1  0
  1 27  1  0
  1 28  1  0
  3 29  1  0
  6 30  1  0
  7 31  1  0
  8 32  1  0
  9 33  1  0
 10 34  1  0
 16 35  1  0
 16 36  1  0
 19 37  1  0
 22 38  1  0
 23 39  1  0
M  END
>  <Binding energies>  (1) 
[-7.07]

>  <Ligand effiencies>  (1) 
[-0.27192307692307693]

>  <Interactions>  (1) 
["V-B:PRO:540:CB:9857, V-B:TYR:539:C:9839, V-B:PRO:540:CA:9855, V-B:PRO:540:N:9856, V-B:GLU:543:CD:9880, V-A:ILE:369:CD1:3239, V-A:TYR:484:CZ:4347, V-B:TYR:539:CE2:9848, V-A:LEU:475:CD2:4259, H-A:TYR:484:OH:4348, V-B:TYR:539:CD2:9846, V-B:ALA:541:CB:9864, V-A:GLU:543:CD:4908, H-A:GLY:454:N:4050, V-A:ILE:369:CG2:3237, H-A:ARG:545:NH2:4928, V-A:ASP:366:CG:3213, V-A:ASP:366:CB:3212, V-A:ILE:369:CB:3236, V-A:ASP:366:C:3208, V-A:ASP:366:CA:3210, V-B:TYR:531:CE2:9765, V-B:TYR:531:CZ:9766, V-B:TYR:539:CG:9844, V-A:TYR:484:CE1:4345, V-B:TYR:539:CZ:9849, V-B:MET:535:CE:9807"]

$$$$
3ck_Grossjean_2025
     RDKit          3D

 57 58  0  0  0  0  0  0  0  0999 V2000
  133.9970  124.9860   66.1800 C   0  0  0  0  0  0  0  0  0  0  0  0
  134.0100  125.1870   64.7760 O   0  0  0  0  0  0  0  0  0  0  0  0
  132.7220  125.4310   64.2270 C   0  0  0  0  0  0  0  0  0  0  0  0
  132.7080  125.0220   62.7480 C   0  0  0  0  0  0  0  0  0  0  0  0
  133.6230  123.9520   62.5480 O   0  0  0  0  0  0  0  0  0  0  0  0
  134.0620  123.8140   61.2030 C   0  0  0  0  0  0  0  0  0  0  0  0
  133.0760  124.5370   60.2770 C   0  0  0  0  0  0  0  0  0  0  0  0
  132.1570  123.5820   59.7690 O   0  0  0  0  0  0  0  0  0  0  0  0
  132.4240  122.2390   60.1450 C   0  0  0  0  0  0  0  0  0  0  0  0
  131.0970  121.4970   60.3890 C   0  0  0  0  0  0  0  0  0  0  0  0
  130.0550  122.3350   60.9910 N   0  0  0  0  0  0  0  0  0  0  0  0
  129.4840  122.1350   62.1920 C   0  0  0  0  0  0  0  0  0  0  0  0
  129.8030  121.2140   62.9470 O   0  0  0  0  0  0  0  0  0  0  0  0
  128.3910  123.1430   62.5820 C   0  0  0  0  0  0  0  0  0  0  0  0
  126.9400  123.1920   61.4750 S   0  0  0  0  0  0  0  0  0  0  0  0
  127.4770  123.6150   59.8240 C   0  0  0  0  0  0  0  0  0  0  0  0
  126.8700  122.9340   58.8190 N   0  0  0  0  0  0  0  0  0  0  0  0
  127.2310  123.2000   57.5440 C   0  0  0  0  0  0  0  0  0  0  0  0
  126.5130  122.3990   56.4750 C   0  0  0  0  0  0  0  0  0  0  0  0
  128.2020  124.1450   57.2200 C   0  0  0  0  0  0  0  0  0  0  0  0
  128.8450  124.8550   58.2410 C   0  0  0  0  0  0  0  0  0  0  0  0
  129.8960  125.8410   57.8480 C   0  0  0  0  0  0  0  0  0  0  0  0
  131.1470  125.3960   57.4040 C   0  0  0  0  0  0  0  0  0  0  0  0
  132.1350  126.3110   57.0460 C   0  0  0  0  0  0  0  0  0  0  0  0
  131.8760  127.6750   57.1360 C   0  0  0  0  0  0  0  0  0  0  0  0
  130.6390  128.1340   57.5840 C   0  0  0  0  0  0  0  0  0  0  0  0
  129.6540  127.2180   57.9410 C   0  0  0  0  0  0  0  0  0  0  0  0
  128.4670  124.5950   59.5840 C   0  0  0  0  0  0  0  0  0  0  0  0
  129.0780  125.3380   60.6920 C   0  0  0  0  0  0  0  0  0  0  0  0
  129.5590  125.9250   61.5660 N   0  0  0  0  0  0  0  0  0  0  0  0
  134.0599  125.9585   66.6902 H   0  0  0  0  0  0  0  0  0  0  0  0
  133.0642  124.4798   66.4693 H   0  0  0  0  0  0  0  0  0  0  0  0
  134.8568  124.3639   66.4693 H   0  0  0  0  0  0  0  0  0  0  0  0
  131.9722  124.8431   64.7767 H   0  0  0  0  0  0  0  0  0  0  0  0
  132.4848  126.5017   64.3126 H   0  0  0  0  0  0  0  0  0  0  0  0
  131.6955  124.6973   62.4660 H   0  0  0  0  0  0  0  0  0  0  0  0
  133.0022  125.8799   62.1255 H   0  0  0  0  0  0  0  0  0  0  0  0
  135.0625  124.2581   61.0946 H   0  0  0  0  0  0  0  0  0  0  0  0
  134.1082  122.7480   60.9356 H   0  0  0  0  0  0  0  0  0  0  0  0
  132.5344  125.3101   60.8418 H   0  0  0  0  0  0  0  0  0  0  0  0
  133.6177  125.0182   59.4493 H   0  0  0  0  0  0  0  0  0  0  0  0
  132.9812  121.7374   59.3400 H   0  0  0  0  0  0  0  0  0  0  0  0
  133.0223  122.2303   61.0680 H   0  0  0  0  0  0  0  0  0  0  0  0
  130.7263  121.1219   59.4237 H   0  0  0  0  0  0  0  0  0  0  0  0
  131.3085  120.6859   61.1013 H   0  0  0  0  0  0  0  0  0  0  0  0
  129.7470  123.1230   60.4400 H   0  0  0  0  0  0  0  0  0  0  0  0
  128.0386  122.8876   63.5923 H   0  0  0  0  0  0  0  0  0  0  0  0
  128.8574  124.1370   62.5146 H   0  0  0  0  0  0  0  0  0  0  0  0
  125.8515  121.6610   56.9522 H   0  0  0  0  0  0  0  0  0  0  0  0
  125.9146  123.0770   55.8487 H   0  0  0  0  0  0  0  0  0  0  0  0
  127.2522  121.8780   55.8487 H   0  0  0  0  0  0  0  0  0  0  0  0
  128.4620  124.3323   56.1677 H   0  0  0  0  0  0  0  0  0  0  0  0
  131.3512  124.3172   57.3374 H   0  0  0  0  0  0  0  0  0  0  0  0
  133.1150  125.9566   56.6939 H   0  0  0  0  0  0  0  0  0  0  0  0
  132.6548  128.3976   56.8509 H   0  0  0  0  0  0  0  0  0  0  0  0
  130.4422  129.2139   57.6551 H   0  0  0  0  0  0  0  0  0  0  0  0
  128.6780  127.5777   58.2989 H   0  0  0  0  0  0  0  0  0  0  0  0
  1  2  1  0
  2  3  1  0
  3  4  1  0
  4  5  1  0
  5  6  1  0
  6  7  1  0
  7  8  1  0
  8  9  1  0
  9 10  1  0
 10 11  1  0
 11 12  1  0
 12 13  2  0
 12 14  1  0
 14 15  1  0
 15 16  1  0
 16 17  2  0
 17 18  1  0
 18 19  1  0
 18 20  2  0
 20 21  1  0
 21 22  1  0
 22 23  2  0
 23 24  1  0
 24 25  2  0
 25 26  1  0
 26 27  2  0
 21 28  2  0
 28 29  1  0
 29 30  3  0
 28 16  1  0
 27 22  1  0
  1 31  1  0
  1 32  1  0
  1 33  1  0
  3 34  1  0
  3 35  1  0
  4 36  1  0
  4 37  1  0
  6 38  1  0
  6 39  1  0
  7 40  1  0
  7 41  1  0
  9 42  1  0
  9 43  1  0
 10 44  1  0
 10 45  1  0
 11 46  1  0
 14 47  1  0
 14 48  1  0
 19 49  1  0
 19 50  1  0
 19 51  1  0
 20 52  1  0
 23 53  1  0
 24 54  1  0
 25 55  1  0
 26 56  1  0
 27 57  1  0
M  END
>  <Binding energies>  (1) 
[-6.06]

>  <Ligand effiencies>  (1) 
[-0.19548387096774192]

>  <Interactions>  (1) 
["V-B:PRO:540:CD:9859, V-A:ARG:545:CD:4923, V-A:ARG:545:CZ:4926, V-B:TYR:539:C:9839, V-B:PRO:540:CA:9855, V-B:PRO:540:N:9856, V-B:GLU:543:CD:9880, V-A:ILE:369:CD1:3239, V-A:TYR:484:CZ:4347, V-A:TYR:484:CE2:4346, V-B:TYR:539:CE2:9848, V-A:ARG:545:CG:4922, H-B:ALA:541:N:9863, V-A:HIS:456:CE1:4070, V-A:LEU:475:CD2:4259, H-A:TYR:484:OH:4348, V-B:TYR:539:CA:9841, V-B:TYR:539:CD2:9846, V-B:ALA:541:CB:9864, H-A:ARG:545:NH1:4927, V-A:GLY:454:CA:4049, H-A:GLY:454:N:4050, V-A:ILE:369:CG2:3237, H-A:ARG:545:NH2:4928, V-A:ASP:366:CG:3213, V-A:ASP:366:CB:3212, H-A:ARG:545:NE:4924, V-B:GLU:543:CG:9879, V-A:TYR:484:CE1:4345, V-B:TYR:539:CZ:9849, V-B:MET:535:CE:9807, V-A:ILE:455:C:4052"]

$$$$
4aa_Grossjean_2025
     RDKit          3D

 45 47  0  0  0  0  0  0  0  0999 V2000
  130.2510  129.3380   71.9970 C   0  0  0  0  0  0  0  0  0  0  0  0
  130.2670  127.9240   72.5840 C   0  0  0  0  0  0  0  0  0  0  0  0
  128.9660  127.3580   72.4900 O   0  0  0  0  0  0  0  0  0  0  0  0
  128.7030  126.3450   71.6250 C   0  0  0  0  0  0  0  0  0  0  0  0
  128.7340  125.1520   71.9440 O   0  0  0  0  0  0  0  0  0  0  0  0
  128.3740  126.8200   70.2390 C   0  0  0  0  0  0  0  0  0  0  0  0
  127.1600  126.4350   69.6540 C   0  0  0  0  0  0  0  0  0  0  0  0
  126.8280  126.8540   68.3690 C   0  0  0  0  0  0  0  0  0  0  0  0
  127.6970  127.6730   67.6460 C   0  0  0  0  0  0  0  0  0  0  0  0
  127.2660  128.0300   66.3540 N   0  0  0  0  0  0  0  0  0  0  0  0
  126.1350  128.6590   65.9530 C   0  0  0  0  0  0  0  0  0  0  0  0
  125.2260  128.9990   66.7110 O   0  0  0  0  0  0  0  0  0  0  0  0
  126.0310  128.9000   64.5120 C   0  0  0  0  0  0  0  0  0  0  0  0
  124.5550  129.5850   63.8280 S   0  0  0  0  0  0  0  0  0  0  0  0
  125.2090  129.4990   62.2090 C   0  0  0  0  0  0  0  0  0  0  0  0
  124.5160  129.9060   61.1450 N   0  0  0  0  0  0  0  0  0  0  0  0
  125.1370  129.7810   59.9470 C   0  0  0  0  0  0  0  0  0  0  0  0
  124.3290  130.2450   58.7480 C   0  0  0  0  0  0  0  0  0  0  0  0
  126.4230  129.2670   59.7900 C   0  0  0  0  0  0  0  0  0  0  0  0
  127.1480  128.8430   60.9080 C   0  0  0  0  0  0  0  0  0  0  0  0
  128.5480  128.2900   60.6870 C   0  0  0  0  0  0  0  0  0  0  0  0
  126.5280  128.9540   62.1820 C   0  0  0  0  0  0  0  0  0  0  0  0
  126.9710  128.6170   63.5090 C   0  0  0  0  0  0  0  0  0  0  0  0
  128.2070  128.0720   63.7510 N   0  0  0  0  0  0  0  0  0  0  0  0
  128.9160  128.0590   68.2210 C   0  0  0  0  0  0  0  0  0  0  0  0
  129.2480  127.6360   69.5060 C   0  0  0  0  0  0  0  0  0  0  0  0
  130.2427  130.0742   72.8143 H   0  0  0  0  0  0  0  0  0  0  0  0
  131.1475  129.4880   71.3775 H   0  0  0  0  0  0  0  0  0  0  0  0
  129.3513  129.4677   71.3775 H   0  0  0  0  0  0  0  0  0  0  0  0
  130.9792  127.3017   72.0224 H   0  0  0  0  0  0  0  0  0  0  0  0
  130.5726  127.9683   73.6398 H   0  0  0  0  0  0  0  0  0  0  0  0
  126.4631  125.7957   70.2157 H   0  0  0  0  0  0  0  0  0  0  0  0
  125.8748  126.5378   67.9203 H   0  0  0  0  0  0  0  0  0  0  0  0
  127.9030  127.7590   65.6170 H   0  0  0  0  0  0  0  0  0  0  0  0
  123.4238  130.7648   59.0948 H   0  0  0  0  0  0  0  0  0  0  0  0
  124.9362  130.9320   58.1403 H   0  0  0  0  0  0  0  0  0  0  0  0
  124.0417  129.3743   58.1403 H   0  0  0  0  0  0  0  0  0  0  0  0
  126.8677  129.1949   58.7865 H   0  0  0  0  0  0  0  0  0  0  0  0
  129.0255  128.1014   61.6598 H   0  0  0  0  0  0  0  0  0  0  0  0
  128.4854  127.3491   60.1207 H   0  0  0  0  0  0  0  0  0  0  0  0
  129.1453  129.0197   60.1207 H   0  0  0  0  0  0  0  0  0  0  0  0
  128.3190  127.2160   64.2760 H   0  0  0  0  0  0  0  0  0  0  0  0
  129.0510  128.5120   63.4120 H   0  0  0  0  0  0  0  0  0  0  0  0
  129.6116  128.6971   67.6563 H   0  0  0  0  0  0  0  0  0  0  0  0
  130.2056  127.9452   69.9504 H   0  0  0  0  0  0  0  0  0  0  0  0
  1  2  1  0
  2  3  1  0
  3  4  1  0
  4  5  2  0
  4  6  1  0
  6  7  2  0
  7  8  1  0
  8  9  2  0
  9 10  1  0
 10 11  1  0
 11 12  2  0
 11 13  1  0
 13 14  1  0
 14 15  1  0
 15 16  2  0
 16 17  1  0
 17 18  1  0
 17 19  2  0
 19 20  1  0
 20 21  1  0
 20 22  2  0
 22 23  1  0
 23 24  1  0
  9 25  1  0
 25 26  2  0
 26  6  1  0
 23 13  2  0
 22 15  1  0
  1 27  1  0
  1 28  1  0
  1 29  1  0
  2 30  1  0
  2 31  1  0
  7 32  1  0
  8 33  1  0
 10 34  1  0
 18 35  1  0
 18 36  1  0
 18 37  1  0
 19 38  1  0
 21 39  1  0
 21 40  1  0
 21 41  1  0
 24 42  1  0
 24 43  1  0
 25 44  1  0
 26 45  1  0
M  END
>  <Binding energies>  (1) 
[-5.98]

>  <Ligand effiencies>  (1) 
[-0.20620689655172414]

>  <Interactions>  (1) 
["V-B:GLU:543:CD:9880, V-A:HIS:456:CE1:4070, V-B:ASP:366:CG:8185, V-A:GLU:543:C:4902, V-B:HIS:456:CE1:9042, V-A:GLY:544:CA:4914, V-B:ARG:545:CZ:9898, V-A:GLU:543:CB:4906, H-B:TYR:484:OH:9320, V-A:GLU:543:CD:4908, V-A:GLY:544:C:4912, H-B:ARG:545:NE:9896, V-A:HIS:456:CD2:4068, H-A:GLU:543:OE1:4909, H-A:GLU:543:OE2:4910, H-B:GLU:543:OE2:9882, H-B:GLU:543:OE1:9881, V-B:ASP:366:CB:8184, V-B:ARG:545:CG:9894, V-B:ASP:366:CA:8182, V-B:GLU:543:CB:9878, V-B:GLU:543:C:9874, V-B:HIS:456:CD2:9040, V-B:GLY:544:C:9884, H-B:LYS:547:NZ:9923, V-A:LYS:547:CE:4950, H-B:HIS:456:ND1:9039, V-B:ARG:545:CA:9891"]

$$$$
4ab_Grossjean_2025
     RDKit          3D

 42 44  0  0  0  0  0  0  0  0999 V2000
  130.4160  127.7790   72.5970 C   0  0  0  0  0  0  0  0  0  0  0  0
  129.0690  127.3430   72.4770 O   0  0  0  0  0  0  0  0  0  0  0  0
  128.7340  126.3350   71.6320 C   0  0  0  0  0  0  0  0  0  0  0  0
  128.7100  125.1460   71.9670 O   0  0  0  0  0  0  0  0  0  0  0  0
  128.4000  126.8090   70.2470 C   0  0  0  0  0  0  0  0  0  0  0  0
  127.1820  126.4260   69.6690 C   0  0  0  0  0  0  0  0  0  0  0  0
  126.8450  126.8480   68.3850 C   0  0  0  0  0  0  0  0  0  0  0  0
  127.7110  127.6650   67.6580 C   0  0  0  0  0  0  0  0  0  0  0  0
  127.2730  128.0240   66.3700 N   0  0  0  0  0  0  0  0  0  0  0  0
  126.1490  128.6720   65.9780 C   0  0  0  0  0  0  0  0  0  0  0  0
  125.2560  129.0360   66.7450 O   0  0  0  0  0  0  0  0  0  0  0  0
  126.0330  128.9060   64.5380 C   0  0  0  0  0  0  0  0  0  0  0  0
  124.5620  129.6160   63.8660 S   0  0  0  0  0  0  0  0  0  0  0  0
  125.1950  129.5080   62.2400 C   0  0  0  0  0  0  0  0  0  0  0  0
  124.4970  129.9200   61.1810 N   0  0  0  0  0  0  0  0  0  0  0  0
  125.1020  129.7780   59.9770 C   0  0  0  0  0  0  0  0  0  0  0  0
  124.2880  130.2480   58.7850 C   0  0  0  0  0  0  0  0  0  0  0  0
  126.3770  129.2430   59.8080 C   0  0  0  0  0  0  0  0  0  0  0  0
  127.1070  128.8100   60.9210 C   0  0  0  0  0  0  0  0  0  0  0  0
  128.4940  128.2310   60.6850 C   0  0  0  0  0  0  0  0  0  0  0  0
  126.5040  128.9390   62.2020 C   0  0  0  0  0  0  0  0  0  0  0  0
  126.9540  128.6000   63.5240 C   0  0  0  0  0  0  0  0  0  0  0  0
  128.1820  128.0310   63.7560 N   0  0  0  0  0  0  0  0  0  0  0  0
  128.9350  128.0490   68.2270 C   0  0  0  0  0  0  0  0  0  0  0  0
  129.2720  127.6240   69.5090 C   0  0  0  0  0  0  0  0  0  0  0  0
  130.6803  127.8645   73.6614 H   0  0  0  0  0  0  0  0  0  0  0  0
  131.0819  127.0505   72.1113 H   0  0  0  0  0  0  0  0  0  0  0  0
  130.5287  128.7595   72.1113 H   0  0  0  0  0  0  0  0  0  0  0  0
  126.4869  125.7873   70.2336 H   0  0  0  0  0  0  0  0  0  0  0  0
  125.8887  126.5346   67.9409 H   0  0  0  0  0  0  0  0  0  0  0  0
  127.8950  127.7380   65.6290 H   0  0  0  0  0  0  0  0  0  0  0  0
  123.3861  130.7687   59.1392 H   0  0  0  0  0  0  0  0  0  0  0  0
  124.8931  130.9357   58.1760 H   0  0  0  0  0  0  0  0  0  0  0  0
  123.9949  129.3801   58.1760 H   0  0  0  0  0  0  0  0  0  0  0  0
  126.8100  129.1608   58.8002 H   0  0  0  0  0  0  0  0  0  0  0  0
  128.9767  128.0295   61.6527 H   0  0  0  0  0  0  0  0  0  0  0  0
  128.4081  127.2936   60.1159 H   0  0  0  0  0  0  0  0  0  0  0  0
  129.1000  128.9513   60.1159 H   0  0  0  0  0  0  0  0  0  0  0  0
  128.2950  127.2360   64.3680 H   0  0  0  0  0  0  0  0  0  0  0  0
  129.0190  128.3960   63.3220 H   0  0  0  0  0  0  0  0  0  0  0  0
  129.6288  128.6865   67.6594 H   0  0  0  0  0  0  0  0  0  0  0  0
  130.2327  127.9305   69.9485 H   0  0  0  0  0  0  0  0  0  0  0  0
  1  2  1  0
  2  3  1  0
  3  4  2  0
  3  5  1  0
  5  6  2  0
  6  7  1  0
  7  8  2  0
  8  9  1  0
  9 10  1  0
 10 11  2  0
 10 12  1  0
 12 13  1  0
 13 14  1  0
 14 15  2  0
 15 16  1  0
 16 17  1  0
 16 18  2  0
 18 19  1  0
 19 20  1  0
 19 21  2  0
 21 22  1  0
 22 23  1  0
  8 24  1  0
 24 25  2  0
 25  5  1  0
 22 12  2  0
 21 14  1  0
  1 26  1  0
  1 27  1  0
  1 28  1  0
  6 29  1  0
  7 30  1  0
  9 31  1  0
 17 32  1  0
 17 33  1  0
 17 34  1  0
 18 35  1  0
 20 36  1  0
 20 37  1  0
 20 38  1  0
 23 39  1  0
 23 40  1  0
 24 41  1  0
 25 42  1  0
M  END
>  <Binding energies>  (1) 
[-5.88]

>  <Ligand effiencies>  (1) 
[-0.21]

>  <Interactions>  (1) 
["V-B:GLU:543:CD:9880, V-A:HIS:456:CE1:4070, V-B:ASP:366:CG:8185, V-B:HIS:456:CE1:9042, V-B:ARG:545:CZ:9898, V-A:GLU:543:CB:4906, H-B:TYR:484:OH:9320, V-A:GLU:543:CD:4908, H-B:ARG:545:NE:9896, V-A:HIS:456:CD2:4068, H-A:GLU:543:OE1:4909, H-A:GLU:543:OE2:4910, H-B:GLU:543:OE2:9882, H-B:GLU:543:OE1:9881, V-B:ASP:366:CB:8184, V-B:ARG:545:CG:9894, V-B:ASP:366:CA:8182, V-B:GLU:543:CB:9878, V-B:GLU:543:C:9874, V-B:HIS:456:CD2:9040, V-B:GLY:544:C:9884, H-B:LYS:547:NZ:9923, H-B:HIS:456:ND1:9039, V-B:ARG:545:CA:9891"]

$$$$
4ac_Grossjean_2025
     RDKit          3D

 40 42  0  0  0  0  0  0  0  0999 V2000
  124.3000  132.0780   62.9880 C   0  0  0  0  0  0  0  0  0  0  0  0
  124.2390  130.8920   63.7730 O   0  0  0  0  0  0  0  0  0  0  0  0
  125.2090  129.9220   63.6050 C   0  0  0  0  0  0  0  0  0  0  0  0
  125.4430  129.4960   62.2980 C   0  0  0  0  0  0  0  0  0  0  0  0
  126.4020  128.5220   62.0310 C   0  0  0  0  0  0  0  0  0  0  0  0
  127.1470  127.9670   63.0720 C   0  0  0  0  0  0  0  0  0  0  0  0
  128.0830  126.9810   62.7090 N   0  0  0  0  0  0  0  0  0  0  0  0
  128.1380  126.2220   61.5880 C   0  0  0  0  0  0  0  0  0  0  0  0
  127.3010  126.2670   60.6840 O   0  0  0  0  0  0  0  0  0  0  0  0
  129.2770  125.3050   61.5050 C   0  0  0  0  0  0  0  0  0  0  0  0
  129.1410  123.7920   60.6090 S   0  0  0  0  0  0  0  0  0  0  0  0
  130.7910  123.3590   60.9950 C   0  0  0  0  0  0  0  0  0  0  0  0
  131.3420  122.2220   60.5680 N   0  0  0  0  0  0  0  0  0  0  0  0
  132.6270  122.0070   60.9380 C   0  0  0  0  0  0  0  0  0  0  0  0
  133.2350  120.7080   60.4420 C   0  0  0  0  0  0  0  0  0  0  0  0
  133.3670  122.8930   61.7190 C   0  0  0  0  0  0  0  0  0  0  0  0
  132.7870  124.0850   62.1660 C   0  0  0  0  0  0  0  0  0  0  0  0
  133.6350  125.0190   63.0150 C   0  0  0  0  0  0  0  0  0  0  0  0
  131.4400  124.3460   61.7950 C   0  0  0  0  0  0  0  0  0  0  0  0
  130.5550  125.4460   62.0700 C   0  0  0  0  0  0  0  0  0  0  0  0
  130.9420  126.5270   62.8210 N   0  0  0  0  0  0  0  0  0  0  0  0
  126.9090  128.3800   64.3910 C   0  0  0  0  0  0  0  0  0  0  0  0
  125.9480  129.3540   64.6540 C   0  0  0  0  0  0  0  0  0  0  0  0
  124.3451  132.9546   63.6510 H   0  0  0  0  0  0  0  0  0  0  0  0
  125.1980  132.0518   62.3532 H   0  0  0  0  0  0  0  0  0  0  0  0
  123.4041  132.1440   62.3532 H   0  0  0  0  0  0  0  0  0  0  0  0
  124.8650  129.9331   61.4705 H   0  0  0  0  0  0  0  0  0  0  0  0
  126.5726  128.1893   60.9965 H   0  0  0  0  0  0  0  0  0  0  0  0
  128.7930  126.8000   63.4050 H   0  0  0  0  0  0  0  0  0  0  0  0
  133.5256  120.0872   61.3023 H   0  0  0  0  0  0  0  0  0  0  0  0
  132.4966  120.1669   59.8321 H   0  0  0  0  0  0  0  0  0  0  0  0
  134.1235  120.9284   59.8321 H   0  0  0  0  0  0  0  0  0  0  0  0
  134.4077  122.6549   61.9841 H   0  0  0  0  0  0  0  0  0  0  0  0
  133.4502  124.8155   64.0801 H   0  0  0  0  0  0  0  0  0  0  0  0
  134.6991  124.8548   62.7895 H   0  0  0  0  0  0  0  0  0  0  0  0
  133.3691  126.0623   62.7895 H   0  0  0  0  0  0  0  0  0  0  0  0
  131.1560  126.4450   63.8040 H   0  0  0  0  0  0  0  0  0  0  0  0
  131.0290  127.4460   62.4100 H   0  0  0  0  0  0  0  0  0  0  0  0
  127.4813  127.9348   65.2182 H   0  0  0  0  0  0  0  0  0  0  0  0
  125.7677  129.6794   65.6892 H   0  0  0  0  0  0  0  0  0  0  0  0
  1  2  1  0
  2  3  1  0
  3  4  2  0
  4  5  1  0
  5  6  2  0
  6  7  1  0
  7  8  1  0
  8  9  2  0
  8 10  1  0
 10 11  1  0
 11 12  1  0
 12 13  2  0
 13 14  1  0
 14 15  1  0
 14 16  2  0
 16 17  1  0
 17 18  1  0
 17 19  2  0
 19 20  1  0
 20 21  1  0
  6 22  1  0
 22 23  2  0
 23  3  1  0
 20 10  2  0
 19 12  1  0
  1 24  1  0
  1 25  1  0
  1 26  1  0
  4 27  1  0
  5 28  1  0
  7 29  1  0
 15 30  1  0
 15 31  1  0
 15 32  1  0
 16 33  1  0
 18 34  1  0
 18 35  1  0
 18 36  1  0
 21 37  1  0
 21 38  1  0
 22 39  1  0
 23 40  1  0
M  END
>  <Binding energies>  (1) 
[-5.87]

>  <Ligand effiencies>  (1) 
[-0.22576923076923078]

>  <Interactions>  (1) 
["V-A:ARG:545:CZ:4926, V-B:GLU:543:CD:9880, V-A:ILE:369:CD1:3239, V-A:SER:385:CB:3409, V-A:LEU:475:CD2:4259, H-A:TYR:484:OH:4348, H-B:TYR:484:OH:9320, V-A:GLU:543:CD:4908, H-B:GLY:454:N:9022, V-B:LEU:475:CD2:9231, V-B:GLY:454:CA:9021, H-A:GLU:543:OE1:4909, V-A:GLY:454:CA:4049, V-A:ILE:369:CG2:3237, H-A:GLU:543:OE2:4910, V-A:GLY:453:CA:4044, V-A:GLY:453:C:4042, H-B:GLU:543:OE2:9882, H-B:GLU:543:OE1:9881, V-A:SER:385:C:3405"]

$$$$
4ad_Grossjean_2025
     RDKit          3D

 36 38  0  0  0  0  0  0  0  0999 V2000
  133.2770  121.2030   60.7380 C   0  0  0  0  0  0  0  0  0  0  0  0
  132.8690  122.6650   60.7310 C   0  0  0  0  0  0  0  0  0  0  0  0
  132.8480  123.4090   61.9080 C   0  0  0  0  0  0  0  0  0  0  0  0
  132.4670  124.7560   61.8780 C   0  0  0  0  0  0  0  0  0  0  0  0
  132.4570  125.5280   63.1890 C   0  0  0  0  0  0  0  0  0  0  0  0
  132.1100  125.3160   60.6220 C   0  0  0  0  0  0  0  0  0  0  0  0
  131.6800  126.6320   60.2330 C   0  0  0  0  0  0  0  0  0  0  0  0
  131.5460  127.6550   61.1390 N   0  0  0  0  0  0  0  0  0  0  0  0
  131.4180  126.7660   58.8600 C   0  0  0  0  0  0  0  0  0  0  0  0
  130.9530  127.9480   58.1320 C   0  0  0  0  0  0  0  0  0  0  0  0
  129.8620  127.9420   57.5580 O   0  0  0  0  0  0  0  0  0  0  0  0
  131.7930  129.0110   58.1540 N   0  0  0  0  0  0  0  0  0  0  0  0
  131.6660  130.2660   57.5270 C   0  0  0  0  0  0  0  0  0  0  0  0
  130.4060  130.8660   57.6100 C   0  0  0  0  0  0  0  0  0  0  0  0
  130.1830  132.1120   57.0310 C   0  0  0  0  0  0  0  0  0  0  0  0
  131.2230  132.7640   56.3730 C   0  0  0  0  0  0  0  0  0  0  0  0
  132.4860  132.1830   56.2950 C   0  0  0  0  0  0  0  0  0  0  0  0
  132.7120  130.9370   56.8720 C   0  0  0  0  0  0  0  0  0  0  0  0
  131.7060  125.2480   58.0080 S   0  0  0  0  0  0  0  0  0  0  0  0
  132.1720  124.4470   59.4910 C   0  0  0  0  0  0  0  0  0  0  0  0
  132.5360  123.1640   59.5170 N   0  0  0  0  0  0  0  0  0  0  0  0
  133.3743  120.8544   61.7768 H   0  0  0  0  0  0  0  0  0  0  0  0
  132.5111  120.6061   60.2212 H   0  0  0  0  0  0  0  0  0  0  0  0
  134.2413  121.0889   60.2212 H   0  0  0  0  0  0  0  0  0  0  0  0
  133.1307  122.9385   62.8612 H   0  0  0  0  0  0  0  0  0  0  0  0
  132.4662  124.8205   64.0312 H   0  0  0  0  0  0  0  0  0  0  0  0
  133.3469  126.1725   63.2418 H   0  0  0  0  0  0  0  0  0  0  0  0
  131.5507  126.1492   63.2418 H   0  0  0  0  0  0  0  0  0  0  0  0
  130.8550  127.6290   61.8750 H   0  0  0  0  0  0  0  0  0  0  0  0
  132.1420  128.4700   61.1020 H   0  0  0  0  0  0  0  0  0  0  0  0
  132.6280  128.9070   58.7110 H   0  0  0  0  0  0  0  0  0  0  0  0
  129.5877  130.3514   58.1349 H   0  0  0  0  0  0  0  0  0  0  0  0
  129.1894  132.5798   57.0929 H   0  0  0  0  0  0  0  0  0  0  0  0
  131.0451  133.7463   55.9110 H   0  0  0  0  0  0  0  0  0  0  0  0
  133.3032  132.7077   55.7785 H   0  0  0  0  0  0  0  0  0  0  0  0
  133.7098  130.4775   56.8152 H   0  0  0  0  0  0  0  0  0  0  0  0
  1  2  1  0
  2  3  2  0
  3  4  1  0
  4  5  1  0
  4  6  2  0
  6  7  1  0
  7  8  1  0
  7  9  2  0
  9 10  1  0
 10 11  2  0
 10 12  1  0
 12 13  1  0
 13 14  2  0
 14 15  1  0
 15 16  2  0
 16 17  1  0
 17 18  2  0
  9 19  1  0
 19 20  1  0
 20 21  2  0
 21  2  1  0
 20  6  1  0
 18 13  1  0
  1 22  1  0
  1 23  1  0
  1 24  1  0
  3 25  1  0
  5 26  1  0
  5 27  1  0
  5 28  1  0
  8 29  1  0
  8 30  1  0
 12 31  1  0
 14 32  1  0
 15 33  1  0
 16 34  1  0
 17 35  1  0
 18 36  1  0
M  END
>  <Binding energies>  (1) 
[-6.54]

>  <Ligand effiencies>  (1) 
[-0.2725]

>  <Interactions>  (1) 
["V-A:ARG:545:CZ:4926, V-B:TYR:539:CE2:9848, V-A:LEU:475:CD2:4259, V-A:GLU:543:CD:4908, H-A:GLU:543:OE1:4909, V-A:ILE:369:CG2:3237, H-A:GLU:543:OE2:4910, V-A:ASP:366:CG:3213, V-A:ASP:366:CB:3212, H-A:ASP:366:OD2:3215, H-A:ASP:366:OD1:3214, V-B:TYR:539:CZ:9849, V-A:PRO:540:CA:4883, V-A:PRO:540:CB:4885, V-A:PRO:540:N:4884, V-A:LEU:363:CD1:3189, V-A:PRO:540:CG:4886, V-A:TYR:539:C:4867, V-A:PRO:540:CD:4887"]

$$$$
4ae_Grossjean_2025
     RDKit          3D

 38 40  0  0  0  0  0  0  0  0999 V2000
  128.7830  132.5470   56.7170 C   0  0  0  0  0  0  0  0  0  0  0  0
  130.1920  131.9960   56.8050 C   0  0  0  0  0  0  0  0  0  0  0  0
  131.2820  132.6860   56.2680 C   0  0  0  0  0  0  0  0  0  0  0  0
  132.5500  132.1140   56.3800 C   0  0  0  0  0  0  0  0  0  0  0  0
  132.6960  130.8800   57.0170 C   0  0  0  0  0  0  0  0  0  0  0  0
  131.5640  130.2470   57.5400 C   0  0  0  0  0  0  0  0  0  0  0  0
  131.7720  128.9980   58.1520 N   0  0  0  0  0  0  0  0  0  0  0  0
  130.9990  127.8850   58.0910 C   0  0  0  0  0  0  0  0  0  0  0  0
  129.9440  127.8160   57.4580 O   0  0  0  0  0  0  0  0  0  0  0  0
  131.4990  126.7330   58.8450 C   0  0  0  0  0  0  0  0  0  0  0  0
  131.8360  125.2090   58.0230 S   0  0  0  0  0  0  0  0  0  0  0  0
  132.3020  124.4460   59.5250 C   0  0  0  0  0  0  0  0  0  0  0  0
  132.6940  123.1730   59.5780 N   0  0  0  0  0  0  0  0  0  0  0  0
  133.0230  122.7010   60.8040 C   0  0  0  0  0  0  0  0  0  0  0  0
  133.4590  121.2480   60.8430 C   0  0  0  0  0  0  0  0  0  0  0  0
  132.9720  123.4670   61.9690 C   0  0  0  0  0  0  0  0  0  0  0  0
  132.5600  124.8030   61.9090 C   0  0  0  0  0  0  0  0  0  0  0  0
  132.5170  125.5970   63.2060 C   0  0  0  0  0  0  0  0  0  0  0  0
  132.2060  125.3330   60.6390 C   0  0  0  0  0  0  0  0  0  0  0  0
  131.7470  126.6310   60.2230 C   0  0  0  0  0  0  0  0  0  0  0  0
  131.5720  127.6650   61.1080 N   0  0  0  0  0  0  0  0  0  0  0  0
  130.3190  130.7970   57.4290 N   0  0  0  0  0  0  0  0  0  0  0  0
  128.3860  132.7022   57.7310 H   0  0  0  0  0  0  0  0  0  0  0  0
  128.7972  133.5058   56.1780 H   0  0  0  0  0  0  0  0  0  0  0  0
  128.1430  131.8329   56.1780 H   0  0  0  0  0  0  0  0  0  0  0  0
  131.1439  133.6566   55.7691 H   0  0  0  0  0  0  0  0  0  0  0  0
  133.4290  132.6320   55.9690 H   0  0  0  0  0  0  0  0  0  0  0  0
  133.6876  130.4123   57.1062 H   0  0  0  0  0  0  0  0  0  0  0  0
  132.5810  128.9520   58.7540 H   0  0  0  0  0  0  0  0  0  0  0  0
  133.5567  120.9225   61.8892 H   0  0  0  0  0  0  0  0  0  0  0  0
  132.7079  120.6260   60.3340 H   0  0  0  0  0  0  0  0  0  0  0  0
  134.4284  121.1423   60.3340 H   0  0  0  0  0  0  0  0  0  0  0  0
  133.2554  123.0211   62.9338 H   0  0  0  0  0  0  0  0  0  0  0  0
  132.5544  124.9055   64.0607 H   0  0  0  0  0  0  0  0  0  0  0  0
  133.3796  126.2784   63.2476 H   0  0  0  0  0  0  0  0  0  0  0  0
  131.5859  126.1812   63.2476 H   0  0  0  0  0  0  0  0  0  0  0  0
  130.9080  127.6120   61.8680 H   0  0  0  0  0  0  0  0  0  0  0  0
  132.1070  128.5190   61.0290 H   0  0  0  0  0  0  0  0  0  0  0  0
  1  2  1  0
  2  3  2  0
  3  4  1  0
  4  5  2  0
  5  6  1  0
  6  7  1  0
  7  8  1  0
  8  9  2  0
  8 10  1  0
 10 11  1  0
 11 12  1  0
 12 13  2  0
 13 14  1  0
 14 15  1  0
 14 16  2  0
 16 17  1  0
 17 18  1  0
 17 19  2  0
 19 20  1  0
 20 21  1  0
  6 22  2  0
 22  2  1  0
 20 10  2  0
 19 12  1  0
  1 23  1  0
  1 24  1  0
  1 25  1  0
  3 26  1  0
  4 27  1  0
  5 28  1  0
  7 29  1  0
 15 30  1  0
 15 31  1  0
 15 32  1  0
 16 33  1  0
 18 34  1  0
 18 35  1  0
 18 36  1  0
 21 37  1  0
 21 38  1  0
M  END
>  <Binding energies>  (1) 
[-6.74]

>  <Ligand effiencies>  (1) 
[-0.2696]

>  <Interactions>  (1) 
["V-A:ARG:545:CZ:4926, V-A:ILE:369:CD1:3239, V-B:TYR:539:CE2:9848, V-A:LEU:475:CD2:4259, V-A:GLU:543:CD:4908, H-A:GLU:543:OE1:4909, V-A:ILE:369:CG2:3237, H-A:GLU:543:OE2:4910, V-A:ASP:366:CG:3213, V-A:ASP:366:CB:3212, H-A:ASP:366:OD2:3215, H-A:ASP:366:OD1:3214, V-B:TYR:539:CZ:9849, V-A:PRO:540:CA:4883, V-A:PRO:540:CB:4885, V-A:PRO:540:N:4884, V-A:LEU:363:CD1:3189, V-A:PRO:540:CG:4886, V-A:TYR:539:CD1:4873, V-A:TYR:539:C:4867, V-A:TYR:539:CE1:4875, V-A:TYR:539:CG:4872, V-A:TYR:539:CD2:4874, V-A:SER:385:C:3405, V-A:PRO:540:CD:4887"]

$$$$
4af_Grossjean_2025
     RDKit          3D

 35 37  0  0  0  0  0  0  0  0999 V2000
  133.1630  121.2020   60.7610 C   0  0  0  0  0  0  0  0  0  0  0  0
  132.7810  122.6710   60.7400 C   0  0  0  0  0  0  0  0  0  0  0  0
  132.7860  123.4310   61.9080 C   0  0  0  0  0  0  0  0  0  0  0  0
  132.4270  124.7830   61.8650 C   0  0  0  0  0  0  0  0  0  0  0  0
  132.4460  125.5700   63.1660 C   0  0  0  0  0  0  0  0  0  0  0  0
  132.0650  125.3340   60.6060 C   0  0  0  0  0  0  0  0  0  0  0  0
  131.6510  126.6530   60.2070 C   0  0  0  0  0  0  0  0  0  0  0  0
  131.5380  127.6860   61.1030 N   0  0  0  0  0  0  0  0  0  0  0  0
  131.3810  126.7750   58.8350 C   0  0  0  0  0  0  0  0  0  0  0  0
  130.9130  127.9520   58.1000 C   0  0  0  0  0  0  0  0  0  0  0  0
  129.8110  127.9510   57.5510 O   0  0  0  0  0  0  0  0  0  0  0  0
  131.7640  129.0070   58.0930 N   0  0  0  0  0  0  0  0  0  0  0  0
  131.6410  130.2520   57.4480 C   0  0  0  0  0  0  0  0  0  0  0  0
  132.6930  130.9670   56.8470 C   0  0  0  0  0  0  0  0  0  0  0  0
  132.4380  132.2050   56.2550 C   0  0  0  0  0  0  0  0  0  0  0  0
  131.1340  132.7030   56.2820 C   0  0  0  0  0  0  0  0  0  0  0  0
  130.1040  132.0370   56.8620 N   0  0  0  0  0  0  0  0  0  0  0  0
  130.3680  130.8350   57.4330 C   0  0  0  0  0  0  0  0  0  0  0  0
  131.6320  125.2420   57.9970 S   0  0  0  0  0  0  0  0  0  0  0  0
  132.1010  124.4510   59.4850 C   0  0  0  0  0  0  0  0  0  0  0  0
  132.4430  123.1630   59.5220 N   0  0  0  0  0  0  0  0  0  0  0  0
  133.2517  120.8611   61.8031 H   0  0  0  0  0  0  0  0  0  0  0  0
  132.3878  120.6142   60.2476 H   0  0  0  0  0  0  0  0  0  0  0  0
  134.1263  121.0663   60.2476 H   0  0  0  0  0  0  0  0  0  0  0  0
  133.0722  122.9682   62.8640 H   0  0  0  0  0  0  0  0  0  0  0  0
  132.4292  124.8727   64.0166 H   0  0  0  0  0  0  0  0  0  0  0  0
  133.3592  126.1816   63.2113 H   0  0  0  0  0  0  0  0  0  0  0  0
  131.5634  126.2250   63.2113 H   0  0  0  0  0  0  0  0  0  0  0  0
  130.9410  127.6260   61.9160 H   0  0  0  0  0  0  0  0  0  0  0  0
  132.0550  128.5460   60.9790 H   0  0  0  0  0  0  0  0  0  0  0  0
  132.6120  128.8980   58.6300 H   0  0  0  0  0  0  0  0  0  0  0  0
  133.7118  130.5523   56.8436 H   0  0  0  0  0  0  0  0  0  0  0  0
  133.2475  132.7763   55.7772 H   0  0  0  0  0  0  0  0  0  0  0  0
  130.9330  133.6774   55.8128 H   0  0  0  0  0  0  0  0  0  0  0  0
  129.5392  130.2903   57.9088 H   0  0  0  0  0  0  0  0  0  0  0  0
  1  2  1  0
  2  3  2  0
  3  4  1  0
  4  5  1  0
  4  6  2  0
  6  7  1  0
  7  8  1  0
  7  9  2  0
  9 10  1  0
 10 11  2  0
 10 12  1  0
 12 13  1  0
 13 14  2  0
 14 15  1  0
 15 16  2  0
 16 17  1  0
 17 18  2  0
  9 19  1  0
 19 20  1  0
 20 21  2  0
 21  2  1  0
 20  6  1  0
 18 13  1  0
  1 22  1  0
  1 23  1  0
  1 24  1  0
  3 25  1  0
  5 26  1  0
  5 27  1  0
  5 28  1  0
  8 29  1  0
  8 30  1  0
 12 31  1  0
 14 32  1  0
 15 33  1  0
 16 34  1  0
 18 35  1  0
M  END
>  <Binding energies>  (1) 
[-6.19]

>  <Ligand effiencies>  (1) 
[-0.2579166666666667]

>  <Interactions>  (1) 
["V-A:ARG:545:CZ:4926, V-B:TYR:539:CE2:9848, V-A:LEU:475:CD2:4259, V-A:GLU:543:CD:4908, H-A:GLU:543:OE1:4909, V-A:ILE:369:CG2:3237, H-A:GLU:543:OE2:4910, V-A:ASP:366:CG:3213, V-A:ASP:366:CB:3212, H-A:ASP:366:OD2:3215, H-A:ASP:366:OD1:3214, V-B:TYR:539:CZ:9849, V-A:PRO:540:CA:4883, V-A:PRO:540:CB:4885, V-A:PRO:540:N:4884, V-A:LEU:363:CD1:3189, V-A:PRO:540:CG:4886, V-A:TYR:539:C:4867, V-A:PRO:540:CD:4887"]

$$$$
4ag_Grossjean_2025
     RDKit          3D

 39 41  0  0  0  0  0  0  0  0999 V2000
  131.9980  120.3910   60.3770 C   0  0  0  0  0  0  0  0  0  0  0  0
  131.7160  121.7780   60.9250 C   0  0  0  0  0  0  0  0  0  0  0  0
  132.7300  122.5400   61.5030 C   0  0  0  0  0  0  0  0  0  0  0  0
  132.4490  123.8170   62.0010 C   0  0  0  0  0  0  0  0  0  0  0  0
  133.5880  124.6110   62.6220 C   0  0  0  0  0  0  0  0  0  0  0  0
  131.1140  124.2910   61.8940 C   0  0  0  0  0  0  0  0  0  0  0  0
  130.4880  125.5240   62.2910 C   0  0  0  0  0  0  0  0  0  0  0  0
  131.1850  126.5360   62.9020 N   0  0  0  0  0  0  0  0  0  0  0  0
  129.1180  125.5860   61.9980 C   0  0  0  0  0  0  0  0  0  0  0  0
  128.1840  126.6840   62.2510 C   0  0  0  0  0  0  0  0  0  0  0  0
  126.9640  126.5050   62.2340 O   0  0  0  0  0  0  0  0  0  0  0  0
  128.7370  127.8930   62.4830 N   0  0  0  0  0  0  0  0  0  0  0  0
  127.9990  129.1190   62.7840 C   0  0  0  0  0  0  0  0  0  0  0  0
  127.0790  129.0060   63.9940 C   0  0  0  0  0  0  0  0  0  0  0  0
  127.6220  128.7850   65.2630 C   0  0  0  0  0  0  0  0  0  0  0  0
  126.7850  128.7070   66.3730 C   0  0  0  0  0  0  0  0  0  0  0  0
  125.4100  128.8610   66.2130 C   0  0  0  0  0  0  0  0  0  0  0  0
  124.8630  129.0960   64.9540 C   0  0  0  0  0  0  0  0  0  0  0  0
  125.6990  129.1760   63.8440 C   0  0  0  0  0  0  0  0  0  0  0  0
  128.5650  124.1110   61.2070 S   0  0  0  0  0  0  0  0  0  0  0  0
  130.1680  123.4150   61.2810 C   0  0  0  0  0  0  0  0  0  0  0  0
  130.4340  122.1980   60.8040 N   0  0  0  0  0  0  0  0  0  0  0  0
  132.1407  119.6890   61.2117 H   0  0  0  0  0  0  0  0  0  0  0  0
  131.1487  120.0604   59.7610 H   0  0  0  0  0  0  0  0  0  0  0  0
  132.9090  120.4183   59.7610 H   0  0  0  0  0  0  0  0  0  0  0  0
  133.7516  122.1372   61.5676 H   0  0  0  0  0  0  0  0  0  0  0  0
  133.5152  124.5603   63.7184 H   0  0  0  0  0  0  0  0  0  0  0  0
  134.5499  124.1867   62.2984 H   0  0  0  0  0  0  0  0  0  0  0  0
  133.5226  125.6603   62.2984 H   0  0  0  0  0  0  0  0  0  0  0  0
  131.3730  126.5300   63.8940 H   0  0  0  0  0  0  0  0  0  0  0  0
  131.5370  127.3240   62.3750 H   0  0  0  0  0  0  0  0  0  0  0  0
  129.7430  127.9540   62.5390 H   0  0  0  0  0  0  0  0  0  0  0  0
  128.7257  129.9223   62.9755 H   0  0  0  0  0  0  0  0  0  0  0  0
  127.3581  129.3270   61.9145 H   0  0  0  0  0  0  0  0  0  0  0  0
  128.7095  128.6728   65.3846 H   0  0  0  0  0  0  0  0  0  0  0  0
  127.2079  128.5245   67.3719 H   0  0  0  0  0  0  0  0  0  0  0  0
  124.7493  128.7963   67.0901 H   0  0  0  0  0  0  0  0  0  0  0  0
  123.7760  129.2178   64.8374 H   0  0  0  0  0  0  0  0  0  0  0  0
  125.2742  129.3730   62.8487 H   0  0  0  0  0  0  0  0  0  0  0  0
  1  2  1  0
  2  3  2  0
  3  4  1  0
  4  5  1  0
  4  6  2  0
  6  7  1  0
  7  8  1  0
  7  9  2  0
  9 10  1  0
 10 11  2  0
 10 12  1  0
 12 13  1  0
 13 14  1  0
 14 15  2  0
 15 16  1  0
 16 17  2  0
 17 18  1  0
 18 19  2  0
  9 20  1  0
 20 21  1  0
 21 22  2  0
 22  2  1  0
 21  6  1  0
 19 14  1  0
  1 23  1  0
  1 24  1  0
  1 25  1  0
  3 26  1  0
  5 27  1  0
  5 28  1  0
  5 29  1  0
  8 30  1  0
  8 31  1  0
 12 32  1  0
 13 33  1  0
 13 34  1  0
 15 35  1  0
 16 36  1  0
 17 37  1  0
 18 38  1  0
 19 39  1  0
M  END
>  <Binding energies>  (1) 
[-6.23]

>  <Ligand effiencies>  (1) 
[-0.2492]

>  <Interactions>  (1) 
["V-A:ARG:545:CZ:4926, V-B:GLU:543:CD:9880, V-B:TYR:539:CE2:9848, V-A:LEU:475:CD2:4259, H-A:TYR:484:OH:4348, V-B:TYR:539:CD2:9846, V-B:HIS:456:CE1:9042, V-B:ARG:545:CZ:9898, V-A:GLU:543:CD:4908, V-B:TYR:484:CZ:9319, H-A:GLU:543:OE1:4909, H-A:GLU:543:OE2:4910, H-A:ASP:366:OD1:3214, H-B:ARG:545:NH2:9900, V-B:ARG:545:CG:9894, V-B:ARG:545:CD:9895"]

$$$$
4ah_Grossjean_2025
     RDKit          3D

 51 53  0  0  0  0  0  0  0  0999 V2000
  131.0210  131.1300   61.1330 C   0  0  0  0  0  0  0  0  0  0  0  0
  130.1360  132.0640   61.7410 O   0  0  0  0  0  0  0  0  0  0  0  0
  128.9140  131.6260   62.2220 C   0  0  0  0  0  0  0  0  0  0  0  0
  128.7410  130.4530   62.9730 C   0  0  0  0  0  0  0  0  0  0  0  0
  127.4770  130.0730   63.4250 C   0  0  0  0  0  0  0  0  0  0  0  0
  127.3160  128.8200   64.2790 C   0  0  0  0  0  0  0  0  0  0  0  0
  128.0290  127.6560   63.7510 N   0  0  0  0  0  0  0  0  0  0  0  0
  127.9110  127.1700   62.4980 C   0  0  0  0  0  0  0  0  0  0  0  0
  127.1400  127.6520   61.6670 O   0  0  0  0  0  0  0  0  0  0  0  0
  128.7270  125.9970   62.1870 C   0  0  0  0  0  0  0  0  0  0  0  0
  127.9580  124.4880   61.6920 S   0  0  0  0  0  0  0  0  0  0  0  0
  129.5080  123.6840   61.5770 C   0  0  0  0  0  0  0  0  0  0  0  0
  129.6150  122.4070   61.2100 N   0  0  0  0  0  0  0  0  0  0  0  0
  130.8730  121.9050   61.1590 C   0  0  0  0  0  0  0  0  0  0  0  0
  130.9720  120.4490   60.7420 C   0  0  0  0  0  0  0  0  0  0  0  0
  132.0140  122.6440   61.4620 C   0  0  0  0  0  0  0  0  0  0  0  0
  131.8990  123.9840   61.8490 C   0  0  0  0  0  0  0  0  0  0  0  0
  133.1740  124.7490   62.1710 C   0  0  0  0  0  0  0  0  0  0  0  0
  130.5950  124.5450   61.9160 C   0  0  0  0  0  0  0  0  0  0  0  0
  130.1200  125.8550   62.2720 C   0  0  0  0  0  0  0  0  0  0  0  0
  130.9670  126.8660   62.6490 N   0  0  0  0  0  0  0  0  0  0  0  0
  126.3750  130.8840   63.1500 C   0  0  0  0  0  0  0  0  0  0  0  0
  126.5170  132.0590   62.3960 C   0  0  0  0  0  0  0  0  0  0  0  0
  125.4670  132.9010   62.0740 O   0  0  0  0  0  0  0  0  0  0  0  0
  124.1370  132.3920   62.0820 C   0  0  0  0  0  0  0  0  0  0  0  0
  127.7910  132.4160   61.9330 C   0  0  0  0  0  0  0  0  0  0  0  0
  127.9470  133.5740   61.2100 O   0  0  0  0  0  0  0  0  0  0  0  0
  127.2770  133.5690   59.9560 C   0  0  0  0  0  0  0  0  0  0  0  0
  131.5538  130.5677   61.9140 H   0  0  0  0  0  0  0  0  0  0  0  0
  130.4447  130.4324   60.5075 H   0  0  0  0  0  0  0  0  0  0  0  0
  131.7486  131.6679   60.5075 H   0  0  0  0  0  0  0  0  0  0  0  0
  129.6131  129.8253   63.2082 H   0  0  0  0  0  0  0  0  0  0  0  0
  127.6993  129.0347   65.2874 H   0  0  0  0  0  0  0  0  0  0  0  0
  126.2453  128.5679   64.2836 H   0  0  0  0  0  0  0  0  0  0  0  0
  128.7400  127.2630   64.3500 H   0  0  0  0  0  0  0  0  0  0  0  0
  131.0152  119.8130   61.6384 H   0  0  0  0  0  0  0  0  0  0  0  0
  130.0902  120.1785   60.1427 H   0  0  0  0  0  0  0  0  0  0  0  0
  131.8823  120.3003   60.1427 H   0  0  0  0  0  0  0  0  0  0  0  0
  133.0064  122.1740   61.3971 H   0  0  0  0  0  0  0  0  0  0  0  0
  133.2931  124.8204   63.2622 H   0  0  0  0  0  0  0  0  0  0  0  0
  134.0375  124.2197   61.7418 H   0  0  0  0  0  0  0  0  0  0  0  0
  133.1133  125.7600   61.7418 H   0  0  0  0  0  0  0  0  0  0  0  0
  131.2180  127.6150   62.0210 H   0  0  0  0  0  0  0  0  0  0  0  0
  131.3750  126.8900   63.5740 H   0  0  0  0  0  0  0  0  0  0  0  0
  125.3826  130.5986   63.5291 H   0  0  0  0  0  0  0  0  0  0  0  0
  123.8000  132.2630   63.1211 H   0  0  0  0  0  0  0  0  0  0  0  0
  123.4708  133.0987   61.5655 H   0  0  0  0  0  0  0  0  0  0  0  0
  124.1129  131.4211   61.5655 H   0  0  0  0  0  0  0  0  0  0  0  0
  126.1895  133.5609   60.1213 H   0  0  0  0  0  0  0  0  0  0  0  0
  127.5549  134.4692   59.3882 H   0  0  0  0  0  0  0  0  0  0  0  0
  127.5683  132.6730   59.3882 H   0  0  0  0  0  0  0  0  0  0  0  0
  1  2  1  0
  2  3  1  0
  3  4  2  0
  4  5  1  0
  5  6  1  0
  6  7  1  0
  7  8  1  0
  8  9  2  0
  8 10  1  0
 10 11  1  0
 11 12  1  0
 12 13  2  0
 13 14  1  0
 14 15  1  0
 14 16  2  0
 16 17  1  0
 17 18  1  0
 17 19  2  0
 19 20  1  0
 20 21  1  0
  5 22  2  0
 22 23  1  0
 23 24  1  0
 24 25  1  0
 23 26  2  0
 26 27  1  0
 27 28  1  0
 26  3  1  0
 20 10  2  0
 19 12  1  0
  1 29  1  0
  1 30  1  0
  1 31  1  0
  4 32  1  0
  6 33  1  0
  6 34  1  0
  7 35  1  0
 15 36  1  0
 15 37  1  0
 15 38  1  0
 16 39  1  0
 18 40  1  0
 18 41  1  0
 18 42  1  0
 21 43  1  0
 21 44  1  0
 22 45  1  0
 25 46  1  0
 25 47  1  0
 25 48  1  0
 28 49  1  0
 28 50  1  0
 28 51  1  0
M  END
>  <Binding energies>  (1) 
[-5.64]

>  <Ligand effiencies>  (1) 
[-0.18193548387096772]

>  <Interactions>  (1) 
["V-A:ARG:545:CZ:4926, V-B:GLU:543:CD:9880, V-B:TYR:539:CE2:9848, V-A:LEU:475:CD2:4259, V-B:TYR:539:CD2:9846, V-A:GLU:543:CD:4908, V-B:ILE:369:CD1:8211, V-A:GLU:543:CG:4907, V-B:LEU:475:CD2:9231, V-B:GLY:454:CA:9021, H-A:GLU:543:OE1:4909, H-A:GLU:543:OE2:4910, H-A:ASP:366:OD1:3214, H-B:GLU:543:OE2:9882, H-B:GLU:543:OE1:9881, H-A:ALA:541:N:4891, V-A:ALA:541:CB:4892, V-A:TYR:539:CD1:4873, V-A:TYR:539:CE1:4875"]

$$$$
4ai_Grossjean_2025
     RDKit          3D

 32 34  0  0  0  0  0  0  0  0999 V2000
  123.9280  132.4680   62.0220 C   0  0  0  0  0  0  0  0  0  0  0  0
  124.5790  131.1070   61.8570 C   0  0  0  0  0  0  0  0  0  0  0  0
  125.0590  130.4030   62.9600 C   0  0  0  0  0  0  0  0  0  0  0  0
  125.6510  129.1470   62.7850 C   0  0  0  0  0  0  0  0  0  0  0  0
  126.1560  128.4160   64.0190 C   0  0  0  0  0  0  0  0  0  0  0  0
  125.7380  128.6330   61.4620 C   0  0  0  0  0  0  0  0  0  0  0  0
  126.2710  127.4080   60.9320 C   0  0  0  0  0  0  0  0  0  0  0  0
  126.8440  126.4510   61.7320 N   0  0  0  0  0  0  0  0  0  0  0  0
  126.1440  127.2850   59.5390 C   0  0  0  0  0  0  0  0  0  0  0  0
  126.5820  126.1860   58.6770 C   0  0  0  0  0  0  0  0  0  0  0  0
  127.7290  126.1570   58.2280 O   0  0  0  0  0  0  0  0  0  0  0  0
  125.6510  125.2270   58.4400 N   0  0  0  0  0  0  0  0  0  0  0  0
  125.7990  124.0780   57.6740 C   0  0  0  0  0  0  0  0  0  0  0  0
  124.7330  123.4510   57.0290 C   0  0  0  0  0  0  0  0  0  0  0  0
  125.2880  122.3650   56.3920 C   0  0  0  0  0  0  0  0  0  0  0  0
  126.6190  122.3400   56.6390 O   0  0  0  0  0  0  0  0  0  0  0  0
  126.9320  123.4310   57.4520 N   0  0  0  0  0  0  0  0  0  0  0  0
  125.3760  128.7130   58.8420 S   0  0  0  0  0  0  0  0  0  0  0  0
  125.2110  129.4530   60.4190 C   0  0  0  0  0  0  0  0  0  0  0  0
  124.6470  130.6510   60.5820 N   0  0  0  0  0  0  0  0  0  0  0  0
  123.8194  132.6951   63.0928 H   0  0  0  0  0  0  0  0  0  0  0  0
  124.5566  133.2352   61.5464 H   0  0  0  0  0  0  0  0  0  0  0  0
  122.9362  132.4601   61.5464 H   0  0  0  0  0  0  0  0  0  0  0  0
  124.9725  130.8346   63.9681 H   0  0  0  0  0  0  0  0  0  0  0  0
  125.7994  128.9322   64.9225 H   0  0  0  0  0  0  0  0  0  0  0  0
  125.7780  127.3830   64.0136 H   0  0  0  0  0  0  0  0  0  0  0  0
  127.2559  128.4040   64.0136 H   0  0  0  0  0  0  0  0  0  0  0  0
  126.4990  126.2570   62.6610 H   0  0  0  0  0  0  0  0  0  0  0  0
  127.6380  125.9110   61.4180 H   0  0  0  0  0  0  0  0  0  0  0  0
  124.7480  125.3480   58.8720 H   0  0  0  0  0  0  0  0  0  0  0  0
  123.6768  123.7583   57.0295 H   0  0  0  0  0  0  0  0  0  0  0  0
  124.7385  121.6344   55.7802 H   0  0  0  0  0  0  0  0  0  0  0  0
  1  2  1  0
  2  3  2  0
  3  4  1  0
  4  5  1  0
  4  6  2  0
  6  7  1  0
  7  8  1  0
  7  9  2  0
  9 10  1  0
 10 11  2  0
 10 12  1  0
 12 13  1  0
 13 14  1  0
 14 15  2  0
 15 16  1  0
 16 17  1  0
  9 18  1  0
 18 19  1  0
 19 20  2  0
 20  2  1  0
 19  6  1  0
 17 13  2  0
  1 21  1  0
  1 22  1  0
  1 23  1  0
  3 24  1  0
  5 25  1  0
  5 26  1  0
  5 27  1  0
  8 28  1  0
  8 29  1  0
 12 30  1  0
 14 31  1  0
 15 32  1  0
M  END
>  <Binding energies>  (1) 
[-6.07]

>  <Ligand effiencies>  (1) 
[-0.2639130434782609]

>  <Interactions>  (1) 
["V-B:PRO:540:CD:9859, V-B:LEU:363:CD1:8161, V-B:ILE:538:CD1:9837, V-B:PRO:540:CB:9857, V-B:PRO:540:N:9856, V-B:GLU:543:CD:9880, V-B:ILE:538:CG2:9835, V-B:ASP:366:CG:8185, V-B:ARG:545:CZ:9898, V-B:ILE:369:CD1:8211, V-B:LEU:475:CD2:9231, V-B:GLY:454:CA:9021, H-B:GLU:543:OE2:9882, H-B:GLU:543:OE1:9881, V-B:TYR:531:CE2:9765, H-B:ASP:366:OD2:8187, V-B:TYR:531:CZ:9766, V-B:ASP:366:CB:8184, H-B:TYR:531:OH:9767, V-B:ILE:538:CA:9832, H-B:TYR:539:N:9842"]

$$$$
4aj_Grossjean_2025
     RDKit          3D

 32 34  0  0  0  0  0  0  0  0999 V2000
  133.6120  121.4820   61.0030 C   0  0  0  0  0  0  0  0  0  0  0  0
  133.1090  122.9120   60.9170 C   0  0  0  0  0  0  0  0  0  0  0  0
  132.8800  123.6610   62.0690 C   0  0  0  0  0  0  0  0  0  0  0  0
  132.4110  124.9760   61.9670 C   0  0  0  0  0  0  0  0  0  0  0  0
  132.1750  125.7520   63.2530 C   0  0  0  0  0  0  0  0  0  0  0  0
  132.1860  125.5010   60.6660 C   0  0  0  0  0  0  0  0  0  0  0  0
  131.7170  126.7800   60.2050 C   0  0  0  0  0  0  0  0  0  0  0  0
  131.3790  127.7910   61.0670 N   0  0  0  0  0  0  0  0  0  0  0  0
  131.6470  126.8900   58.8070 C   0  0  0  0  0  0  0  0  0  0  0  0
  131.2080  128.0340   58.0050 C   0  0  0  0  0  0  0  0  0  0  0  0
  130.2010  127.9570   57.2970 O   0  0  0  0  0  0  0  0  0  0  0  0
  131.9700  129.1500   58.1160 N   0  0  0  0  0  0  0  0  0  0  0  0
  131.7670  130.3650   57.4760 C   0  0  0  0  0  0  0  0  0  0  0  0
  130.6220  130.9570   57.2110 N   0  0  0  0  0  0  0  0  0  0  0  0
  130.8030  132.1080   56.5940 C   0  0  0  0  0  0  0  0  0  0  0  0
  132.1240  132.4720   56.3440 C   0  0  0  0  0  0  0  0  0  0  0  0
  133.1770  131.2310   56.9570 S   0  0  0  0  0  0  0  0  0  0  0  0
  132.1490  125.3910   58.0230 S   0  0  0  0  0  0  0  0  0  0  0  0
  132.4620  124.6320   59.5670 C   0  0  0  0  0  0  0  0  0  0  0  0
  132.9080  123.3790   59.6610 N   0  0  0  0  0  0  0  0  0  0  0  0
  133.7140  121.1921   62.0592 H   0  0  0  0  0  0  0  0  0  0  0  0
  132.8960  120.8109   60.5061 H   0  0  0  0  0  0  0  0  0  0  0  0
  134.5905  121.4070   60.5061 H   0  0  0  0  0  0  0  0  0  0  0  0
  133.0677  123.2192   63.0587 H   0  0  0  0  0  0  0  0  0  0  0  0
  132.3733  125.0999   64.1164 H   0  0  0  0  0  0  0  0  0  0  0  0
  132.8498  126.6201   63.2865 H   0  0  0  0  0  0  0  0  0  0  0  0
  131.1312  126.0974   63.2865 H   0  0  0  0  0  0  0  0  0  0  0  0
  130.7900  127.6320   61.8720 H   0  0  0  0  0  0  0  0  0  0  0  0
  131.7100  128.7350   60.9250 H   0  0  0  0  0  0  0  0  0  0  0  0
  132.7700  129.1050   58.7300 H   0  0  0  0  0  0  0  0  0  0  0  0
  129.9581  132.7451   56.2935 H   0  0  0  0  0  0  0  0  0  0  0  0
  132.4486  133.3946   55.8406 H   0  0  0  0  0  0  0  0  0  0  0  0
  1  2  1  0
  2  3  2  0
  3  4  1  0
  4  5  1  0
  4  6  2  0
  6  7  1  0
  7  8  1  0
  7  9  2  0
  9 10  1  0
 10 11  2  0
 10 12  1  0
 12 13  1  0
 13 14  2  0
 14 15  1  0
 15 16  2  0
 16 17  1  0
  9 18  1  0
 18 19  1  0
 19 20  2  0
 20  2  1  0
 19  6  1  0
 17 13  1  0
  1 21  1  0
  1 22  1  0
  1 23  1  0
  3 24  1  0
  5 25  1  0
  5 26  1  0
  5 27  1  0
  8 28  1  0
  8 29  1  0
 12 30  1  0
 15 31  1  0
 16 32  1  0
M  END
>  <Binding energies>  (1) 
[-5.96]

>  <Ligand effiencies>  (1) 
[-0.2591304347826087]

>  <Interactions>  (1) 
["V-A:ARG:545:CZ:4926, V-A:ILE:369:CD1:3239, V-B:TYR:539:CE2:9848, V-A:LEU:475:CD2:4259, V-A:GLU:543:CD:4908, H-A:GLU:543:OE1:4909, V-A:ILE:369:CG2:3237, H-A:GLU:543:OE2:4910, V-A:ASP:366:CG:3213, V-A:ASP:366:CB:3212, H-A:ASP:366:OD1:3214, V-A:PRO:540:CA:4883, V-A:PRO:540:CB:4885, V-A:PRO:540:N:4884, V-A:LEU:363:CD1:3189, V-A:PRO:540:CG:4886, V-A:TYR:539:C:4867, V-A:PRO:540:CD:4887"]

$$$$
4ak_Grossjean_2025
     RDKit          3D

 50 51  0  0  0  0  0  0  0  0999 V2000
  132.9020  131.2460   61.8840 C   0  0  0  0  0  0  0  0  0  0  0  0
  131.6200  131.7510   61.5460 O   0  0  0  0  0  0  0  0  0  0  0  0
  130.9260  130.9490   60.5990 C   0  0  0  0  0  0  0  0  0  0  0  0
  129.7820  131.7620   59.9800 C   0  0  0  0  0  0  0  0  0  0  0  0
  129.4820  132.8680   60.8200 O   0  0  0  0  0  0  0  0  0  0  0  0
  128.1990  132.7970   61.4270 C   0  0  0  0  0  0  0  0  0  0  0  0
  127.5940  131.4110   61.1710 C   0  0  0  0  0  0  0  0  0  0  0  0
  127.3190  130.7820   62.4160 O   0  0  0  0  0  0  0  0  0  0  0  0
  128.3930  129.9930   62.9100 C   0  0  0  0  0  0  0  0  0  0  0  0
  127.8660  128.5970   63.2920 C   0  0  0  0  0  0  0  0  0  0  0  0
  128.7520  127.5060   62.8890 N   0  0  0  0  0  0  0  0  0  0  0  0
  128.3700  126.3940   62.2270 C   0  0  0  0  0  0  0  0  0  0  0  0
  127.2060  126.2040   61.8730 O   0  0  0  0  0  0  0  0  0  0  0  0
  129.4240  125.4220   61.9420 C   0  0  0  0  0  0  0  0  0  0  0  0
  129.0440  123.9200   61.1000 S   0  0  0  0  0  0  0  0  0  0  0  0
  130.7160  123.4100   61.1590 C   0  0  0  0  0  0  0  0  0  0  0  0
  131.1170  122.2460   60.6460 N   0  0  0  0  0  0  0  0  0  0  0  0
  132.4400  121.9700   60.7600 C   0  0  0  0  0  0  0  0  0  0  0  0
  132.8770  120.6420   60.1700 C   0  0  0  0  0  0  0  0  0  0  0  0
  133.3600  122.8230   61.3670 C   0  0  0  0  0  0  0  0  0  0  0  0
  132.9360  124.0440   61.9030 C   0  0  0  0  0  0  0  0  0  0  0  0
  133.9760  124.9380   62.5590 C   0  0  0  0  0  0  0  0  0  0  0  0
  131.5560  124.3670   61.8040 C   0  0  0  0  0  0  0  0  0  0  0  0
  130.7940  125.5080   62.2360 C   0  0  0  0  0  0  0  0  0  0  0  0
  131.3700  126.5740   62.8780 N   0  0  0  0  0  0  0  0  0  0  0  0
  133.0034  131.2060   62.9786 H   0  0  0  0  0  0  0  0  0  0  0  0
  133.0191  130.2346   61.4677 H   0  0  0  0  0  0  0  0  0  0  0  0
  133.6774  131.9059   61.4677 H   0  0  0  0  0  0  0  0  0  0  0  0
  131.6210  130.6326   59.8073 H   0  0  0  0  0  0  0  0  0  0  0  0
  130.5143  130.0616   61.1021 H   0  0  0  0  0  0  0  0  0  0  0  0
  130.0857  132.1264   58.9875 H   0  0  0  0  0  0  0  0  0  0  0  0
  128.8910  131.1249   59.8783 H   0  0  0  0  0  0  0  0  0  0  0  0
  128.2953  132.9617   62.5103 H   0  0  0  0  0  0  0  0  0  0  0  0
  127.5446  133.5701   60.9978 H   0  0  0  0  0  0  0  0  0  0  0  0
  126.6606  131.5173   60.5988 H   0  0  0  0  0  0  0  0  0  0  0  0
  128.3051  130.7984   60.5973 H   0  0  0  0  0  0  0  0  0  0  0  0
  129.1644  129.8942   62.1321 H   0  0  0  0  0  0  0  0  0  0  0  0
  128.8286  130.4774   63.7963 H   0  0  0  0  0  0  0  0  0  0  0  0
  127.7423  128.5590   64.3844 H   0  0  0  0  0  0  0  0  0  0  0  0
  126.9151  128.4541   62.7579 H   0  0  0  0  0  0  0  0  0  0  0  0
  129.7250  127.6030   63.1450 H   0  0  0  0  0  0  0  0  0  0  0  0
  133.1086  119.9381   60.9829 H   0  0  0  0  0  0  0  0  0  0  0  0
  132.0664  120.2319   59.5497 H   0  0  0  0  0  0  0  0  0  0  0  0
  133.7727  120.7934   59.5497 H   0  0  0  0  0  0  0  0  0  0  0  0
  134.4204  122.5361   61.4248 H   0  0  0  0  0  0  0  0  0  0  0  0
  133.8875  124.8619   63.6528 H   0  0  0  0  0  0  0  0  0  0  0  0
  134.9820  124.6184   62.2494 H   0  0  0  0  0  0  0  0  0  0  0  0
  133.8110  125.9806   62.2494 H   0  0  0  0  0  0  0  0  0  0  0  0
  131.6410  127.4130   62.3840 H   0  0  0  0  0  0  0  0  0  0  0  0
  131.5390  126.5570   63.8740 H   0  0  0  0  0  0  0  0  0  0  0  0
  1  2  1  0
  2  3  1  0
  3  4  1  0
  4  5  1  0
  5  6  1  0
  6  7  1  0
  7  8  1  0
  8  9  1  0
  9 10  1  0
 10 11  1  0
 11 12  1  0
 12 13  2  0
 12 14  1  0
 14 15  1  0
 15 16  1  0
 16 17  2  0
 17 18  1  0
 18 19  1  0
 18 20  2  0
 20 21  1  0
 21 22  1  0
 21 23  2  0
 23 24  1  0
 24 25  1  0
 24 14  2  0
 23 16  1  0
  1 26  1  0
  1 27  1  0
  1 28  1  0
  3 29  1  0
  3 30  1  0
  4 31  1  0
  4 32  1  0
  6 33  1  0
  6 34  1  0
  7 35  1  0
  7 36  1  0
  9 37  1  0
  9 38  1  0
 10 39  1  0
 10 40  1  0
 11 41  1  0
 19 42  1  0
 19 43  1  0
 19 44  1  0
 20 45  1  0
 22 46  1  0
 22 47  1  0
 22 48  1  0
 25 49  1  0
 25 50  1  0
M  END
>  <Binding energies>  (1) 
[-4.93]

>  <Ligand effiencies>  (1) 
[-0.17607142857142857]

>  <Interactions>  (1) 
["V-A:ARG:545:CZ:4926, V-B:GLU:543:CD:9880, V-A:ILE:369:CD1:3239, V-B:TYR:539:CE2:9848, V-A:SER:385:CB:3409, V-A:LEU:475:CD2:4259, V-B:TYR:539:CD2:9846, V-A:GLU:543:CD:4908, V-A:GLU:543:CG:4907, H-A:GLU:543:OE1:4909, V-A:ILE:369:CG2:3237, H-A:GLU:543:OE2:4910, H-A:ASP:366:OD1:3214, V-A:GLY:453:CA:4044, V-A:GLY:453:C:4042, H-B:GLU:543:OE2:9882, H-B:ARG:545:NH2:9900, V-A:PRO:540:CA:4883, H-A:ALA:541:N:4891, V-A:ASN:362:CB:3176, V-A:ALA:541:CB:4892, V-A:ASN:362:CG:3177"]

$$$$
4al_Grossjean_2025
     RDKit          3D

 28 29  0  0  0  0  0  0  0  0999 V2000
  126.1670  123.5130   59.5080 C   0  0  0  0  0  0  0  0  0  0  0  0
  125.4040  123.5270   60.7050 O   0  0  0  0  0  0  0  0  0  0  0  0
  125.9470  123.1260   61.8830 C   0  0  0  0  0  0  0  0  0  0  0  0
  125.2860  122.7630   62.8590 O   0  0  0  0  0  0  0  0  0  0  0  0
  127.4250  123.1700   61.8800 C   0  0  0  0  0  0  0  0  0  0  0  0
  128.3520  121.6670   61.8830 S   0  0  0  0  0  0  0  0  0  0  0  0
  129.8610  122.5490   61.8770 C   0  0  0  0  0  0  0  0  0  0  0  0
  131.0410  121.9280   61.8770 N   0  0  0  0  0  0  0  0  0  0  0  0
  132.1360  122.7280   61.8720 C   0  0  0  0  0  0  0  0  0  0  0  0
  133.4680  122.0000   61.8720 C   0  0  0  0  0  0  0  0  0  0  0  0
  132.0780  124.1200   61.8680 C   0  0  0  0  0  0  0  0  0  0  0  0
  130.8390  124.7690   61.8680 C   0  0  0  0  0  0  0  0  0  0  0  0
  130.8270  126.2890   61.8630 C   0  0  0  0  0  0  0  0  0  0  0  0
  129.6690  123.9630   61.8730 C   0  0  0  0  0  0  0  0  0  0  0  0
  128.2690  124.2870   61.8750 C   0  0  0  0  0  0  0  0  0  0  0  0
  127.8100  125.5790   61.8710 N   0  0  0  0  0  0  0  0  0  0  0  0
  127.2384  123.4933   59.7563 H   0  0  0  0  0  0  0  0  0  0  0  0
  125.9104  122.6194   58.9201 H   0  0  0  0  0  0  0  0  0  0  0  0
  125.9434  124.4154   58.9201 H   0  0  0  0  0  0  0  0  0  0  0  0
  133.7897  121.8242   62.9091 H   0  0  0  0  0  0  0  0  0  0  0  0
  133.3590  121.0360   61.3535 H   0  0  0  0  0  0  0  0  0  0  0  0
  134.2205  122.6123   61.3535 H   0  0  0  0  0  0  0  0  0  0  0  0
  133.0071  124.7089   61.8648 H   0  0  0  0  0  0  0  0  0  0  0  0
  130.8241  126.6591   62.8989 H   0  0  0  0  0  0  0  0  0  0  0  0
  131.7222  126.6610   61.3433 H   0  0  0  0  0  0  0  0  0  0  0  0
  129.9260  126.6469   61.3433 H   0  0  0  0  0  0  0  0  0  0  0  0
  128.0070  126.2140   61.1110 H   0  0  0  0  0  0  0  0  0  0  0  0
  127.2550  125.9420   62.6350 H   0  0  0  0  0  0  0  0  0  0  0  0
  1  2  1  0
  2  3  1  0
  3  4  2  0
  3  5  1  0
  5  6  1  0
  6  7  1  0
  7  8  2  0
  8  9  1  0
  9 10  1  0
  9 11  2  0
 11 12  1  0
 12 13  1  0
 12 14  2  0
 14 15  1  0
 15 16  1  0
 15  5  2  0
 14  7  1  0
  1 17  1  0
  1 18  1  0
  1 19  1  0
 10 20  1  0
 10 21  1  0
 10 22  1  0
 11 23  1  0
 13 24  1  0
 13 25  1  0
 13 26  1  0
 16 27  1  0
 16 28  1  0
M  END
>  <Binding energies>  (1) 
[-4.98]

>  <Ligand effiencies>  (1) 
[-0.27666666666666667]

>  <Interactions>  (1) 
["V-B:PRO:540:CB:9857, V-B:PRO:540:CA:9855, V-B:PRO:540:N:9856, V-B:GLU:543:CD:9880, V-A:ILE:369:CD1:3239, V-B:PRO:540:C:9853, H-B:ALA:541:N:9863, V-A:LEU:475:CD2:4259, H-A:TYR:484:OH:4348, V-B:ALA:541:CA:9862, V-B:ALA:541:CB:9864, V-A:GLY:454:CA:4049, H-B:GLU:543:OE2:9882, H-B:GLU:543:OE1:9881, H-B:ASN:362:ND2:8151"]

$$$$
4ba_Grossjean_2025
     RDKit          3D

 44 46  0  0  0  0  0  0  0  0999 V2000
  131.1590  127.5850   73.0550 C   0  0  0  0  0  0  0  0  0  0  0  0
  130.6380  127.8050   71.6220 C   0  0  0  0  0  0  0  0  0  0  0  0
  129.3830  126.9890   71.2500 C   0  0  0  0  0  0  0  0  0  0  0  0
  128.9410  126.1580   72.0460 O   0  0  0  0  0  0  0  0  0  0  0  0
  128.7470  127.2560   69.9160 C   0  0  0  0  0  0  0  0  0  0  0  0
  129.3060  128.2200   69.0680 C   0  0  0  0  0  0  0  0  0  0  0  0
  128.7370  128.4880   67.8270 C   0  0  0  0  0  0  0  0  0  0  0  0
  127.6000  127.7970   67.4060 C   0  0  0  0  0  0  0  0  0  0  0  0
  127.1020  128.1530   66.1380 N   0  0  0  0  0  0  0  0  0  0  0  0
  125.9170  128.7130   65.7920 C   0  0  0  0  0  0  0  0  0  0  0  0
  125.0160  128.9750   66.5910 O   0  0  0  0  0  0  0  0  0  0  0  0
  125.7450  128.9790   64.3620 C   0  0  0  0  0  0  0  0  0  0  0  0
  124.6340  130.2360   63.8220 S   0  0  0  0  0  0  0  0  0  0  0  0
  124.9690  129.8760   62.1450 C   0  0  0  0  0  0  0  0  0  0  0  0
  124.3770  130.5490   61.1590 N   0  0  0  0  0  0  0  0  0  0  0  0
  124.7140  130.1800   59.9020 C   0  0  0  0  0  0  0  0  0  0  0  0
  124.0210  130.9530   58.7940 C   0  0  0  0  0  0  0  0  0  0  0  0
  125.6240  129.1670   59.6100 C   0  0  0  0  0  0  0  0  0  0  0  0
  126.2510  128.4550   60.6450 C   0  0  0  0  0  0  0  0  0  0  0  0
  127.2470  127.3510   60.2750 C   0  0  0  0  0  0  0  0  0  0  0  0
  128.4770  127.5800   60.7380 F   0  0  0  0  0  0  0  0  0  0  0  0
  126.8410  126.1860   60.7810 F   0  0  0  0  0  0  0  0  0  0  0  0
  127.3330  127.2480   58.9480 F   0  0  0  0  0  0  0  0  0  0  0  0
  125.9120  128.8160   61.9830 C   0  0  0  0  0  0  0  0  0  0  0  0
  126.3310  128.3170   63.2710 C   0  0  0  0  0  0  0  0  0  0  0  0
  127.2250  127.2860   63.4100 N   0  0  0  0  0  0  0  0  0  0  0  0
  127.0300  126.8340   68.2520 C   0  0  0  0  0  0  0  0  0  0  0  0
  127.6010  126.5670   69.4930 C   0  0  0  0  0  0  0  0  0  0  0  0
  130.3943  127.9079   73.7768 H   0  0  0  0  0  0  0  0  0  0  0  0
  131.3780  126.5176   73.2057 H   0  0  0  0  0  0  0  0  0  0  0  0
  132.0767  128.1724   73.2057 H   0  0  0  0  0  0  0  0  0  0  0  0
  130.3972  128.8721   71.5070 H   0  0  0  0  0  0  0  0  0  0  0  0
  131.4375  127.4615   70.9491 H   0  0  0  0  0  0  0  0  0  0  0  0
  130.2036  128.7706   69.3861 H   0  0  0  0  0  0  0  0  0  0  0  0
  129.1865  129.2499   67.1731 H   0  0  0  0  0  0  0  0  0  0  0  0
  127.7290  127.9420   65.3760 H   0  0  0  0  0  0  0  0  0  0  0  0
  123.3485  131.7032   59.2355 H   0  0  0  0  0  0  0  0  0  0  0  0
  124.7750  131.4575   58.1719 H   0  0  0  0  0  0  0  0  0  0  0  0
  123.4375  130.2584   58.1719 H   0  0  0  0  0  0  0  0  0  0  0  0
  125.8529  128.9232   58.5621 H   0  0  0  0  0  0  0  0  0  0  0  0
  128.0180  127.3460   64.0320 H   0  0  0  0  0  0  0  0  0  0  0  0
  127.1250  126.4290   62.8840 H   0  0  0  0  0  0  0  0  0  0  0  0
  126.1294  126.2884   67.9338 H   0  0  0  0  0  0  0  0  0  0  0  0
  127.1489  125.8081   70.1485 H   0  0  0  0  0  0  0  0  0  0  0  0
  1  2  1  0
  2  3  1  0
  3  4  2  0
  3  5  1  0
  5  6  2  0
  6  7  1  0
  7  8  2  0
  8  9  1  0
  9 10  1  0
 10 11  2  0
 10 12  1  0
 12 13  1  0
 13 14  1  0
 14 15  2  0
 15 16  1  0
 16 17  1  0
 16 18  2  0
 18 19  1  0
 19 20  1  0
 20 21  1  0
 20 22  1  0
 20 23  1  0
 19 24  2  0
 24 25  1  0
 25 26  1  0
  8 27  1  0
 27 28  2  0
 28  5  1  0
 25 12  2  0
 24 14  1  0
  1 29  1  0
  1 30  1  0
  1 31  1  0
  2 32  1  0
  2 33  1  0
  6 34  1  0
  7 35  1  0
  9 36  1  0
 17 37  1  0
 17 38  1  0
 17 39  1  0
 18 40  1  0
 26 41  1  0
 26 42  1  0
 27 43  1  0
 28 44  1  0
M  END
>  <Binding energies>  (1) 
[-5.86]

>  <Ligand effiencies>  (1) 
[-0.18903225806451615]

>  <Interactions>  (1) 
["V-B:GLU:543:CD:9880, V-A:HIS:456:CE1:4070, V-B:ASP:366:CG:8185, V-B:HIS:456:CE1:9042, V-B:ARG:545:CZ:9898, V-A:GLU:543:CB:4906, H-B:TYR:484:OH:9320, V-A:GLY:544:C:4912, H-B:ARG:545:NE:9896, V-A:HIS:456:CG:4066, V-A:HIS:456:CD2:4068, H-B:GLU:543:OE2:9882, H-B:GLU:543:OE1:9881, V-B:ASP:366:CB:8184, V-B:ARG:545:CG:9894, V-A:TYR:539:CE1:4875, V-B:ASP:366:CA:8182, V-B:GLU:543:CB:9878, V-B:GLU:543:C:9874, V-B:HIS:456:CD2:9040, H-B:LYS:547:NZ:9923, H-B:HIS:456:ND1:9039"]

$$$$
4bb_Grossjean_2025
     RDKit          3D

 41 43  0  0  0  0  0  0  0  0999 V2000
  129.7880  127.3300   71.8340 C   0  0  0  0  0  0  0  0  0  0  0  0
  128.7470  126.5180   71.0620 C   0  0  0  0  0  0  0  0  0  0  0  0
  128.3000  125.4970   71.5880 O   0  0  0  0  0  0  0  0  0  0  0  0
  128.3340  127.0000   69.7030 C   0  0  0  0  0  0  0  0  0  0  0  0
  127.1390  126.5320   69.1420 C   0  0  0  0  0  0  0  0  0  0  0  0
  126.7330  126.9630   67.8820 C   0  0  0  0  0  0  0  0  0  0  0  0
  127.5080  127.8760   67.1640 C   0  0  0  0  0  0  0  0  0  0  0  0
  127.0050  128.2420   65.8990 N   0  0  0  0  0  0  0  0  0  0  0  0
  125.8090  128.7810   65.5600 C   0  0  0  0  0  0  0  0  0  0  0  0
  124.9060  129.0210   66.3620 O   0  0  0  0  0  0  0  0  0  0  0  0
  125.6250  129.0440   64.1300 C   0  0  0  0  0  0  0  0  0  0  0  0
  124.6120  130.3830   63.5970 S   0  0  0  0  0  0  0  0  0  0  0  0
  124.8830  129.9820   61.9170 C   0  0  0  0  0  0  0  0  0  0  0  0
  124.3370  130.6960   60.9350 N   0  0  0  0  0  0  0  0  0  0  0  0
  124.6180  130.2880   59.6760 C   0  0  0  0  0  0  0  0  0  0  0  0
  123.9870  131.1160   58.5720 C   0  0  0  0  0  0  0  0  0  0  0  0
  125.4260  129.1930   59.3800 C   0  0  0  0  0  0  0  0  0  0  0  0
  126.0040  128.4370   60.4100 C   0  0  0  0  0  0  0  0  0  0  0  0
  126.8860  127.2410   60.0350 C   0  0  0  0  0  0  0  0  0  0  0  0
  126.5070  126.1070   60.6290 F   0  0  0  0  0  0  0  0  0  0  0  0
  126.8340  127.0390   58.7180 F   0  0  0  0  0  0  0  0  0  0  0  0
  128.1470  127.4780   60.3940 F   0  0  0  0  0  0  0  0  0  0  0  0
  125.7270  128.8410   61.7510 C   0  0  0  0  0  0  0  0  0  0  0  0
  126.1310  128.3240   63.0350 C   0  0  0  0  0  0  0  0  0  0  0  0
  126.9450  127.2280   63.1690 N   0  0  0  0  0  0  0  0  0  0  0  0
  128.7100  128.3430   67.7170 C   0  0  0  0  0  0  0  0  0  0  0  0
  129.1150  127.9090   68.9760 C   0  0  0  0  0  0  0  0  0  0  0  0
  129.6248  127.2027   72.9144 H   0  0  0  0  0  0  0  0  0  0  0  0
  130.7964  126.9775   71.5715 H   0  0  0  0  0  0  0  0  0  0  0  0
  129.6916  128.3938   71.5715 H   0  0  0  0  0  0  0  0  0  0  0  0
  126.5164  125.8183   69.7014 H   0  0  0  0  0  0  0  0  0  0  0  0
  125.7961  126.5820   67.4495 H   0  0  0  0  0  0  0  0  0  0  0  0
  127.6360  128.0500   65.1340 H   0  0  0  0  0  0  0  0  0  0  0  0
  123.3772  131.9162   59.0167 H   0  0  0  0  0  0  0  0  0  0  0  0
  124.7776  131.5604   57.9495 H   0  0  0  0  0  0  0  0  0  0  0  0
  123.3488  130.4716   57.9495 H   0  0  0  0  0  0  0  0  0  0  0  0
  125.6121  128.9192   58.3310 H   0  0  0  0  0  0  0  0  0  0  0  0
  126.8030  126.3860   62.6280 H   0  0  0  0  0  0  0  0  0  0  0  0
  127.7200  127.2240   63.8190 H   0  0  0  0  0  0  0  0  0  0  0  0
  129.3335  129.0535   67.1545 H   0  0  0  0  0  0  0  0  0  0  0  0
  130.0567  128.2828   69.4044 H   0  0  0  0  0  0  0  0  0  0  0  0
  1  2  1  0
  2  3  2  0
  2  4  1  0
  4  5  2  0
  5  6  1  0
  6  7  2  0
  7  8  1  0
  8  9  1  0
  9 10  2  0
  9 11  1  0
 11 12  1  0
 12 13  1  0
 13 14  2  0
 14 15  1  0
 15 16  1  0
 15 17  2  0
 17 18  1  0
 18 19  1  0
 19 20  1  0
 19 21  1  0
 19 22  1  0
 18 23  2  0
 23 24  1  0
 24 25  1  0
  7 26  1  0
 26 27  2  0
 27  4  1  0
 24 11  2  0
 23 13  1  0
  1 28  1  0
  1 29  1  0
  1 30  1  0
  5 31  1  0
  6 32  1  0
  8 33  1  0
 16 34  1  0
 16 35  1  0
 16 36  1  0
 17 37  1  0
 25 38  1  0
 25 39  1  0
 26 40  1  0
 27 41  1  0
M  END
>  <Binding energies>  (1) 
[-5.8]

>  <Ligand effiencies>  (1) 
[-0.19333333333333333]

>  <Interactions>  (1) 
["V-B:GLU:543:CD:9880, V-A:HIS:456:CE1:4070, V-B:ASP:366:CG:8185, V-B:HIS:456:CE1:9042, V-B:ARG:545:CZ:9898, V-A:GLU:543:CB:4906, H-B:TYR:484:OH:9320, H-B:ARG:545:NE:9896, V-A:HIS:456:CG:4066, V-A:HIS:456:CD2:4068, H-B:GLU:543:OE2:9882, H-B:GLU:543:OE1:9881, V-B:GLU:543:CG:9879, V-B:ASP:366:CB:8184, V-B:ARG:545:CG:9894, V-A:TYR:539:CE1:4875, V-B:ASP:366:CA:8182, V-B:ILE:369:CG2:8209, V-B:GLU:543:CB:9878, V-B:GLU:543:C:9874, V-B:HIS:456:CD2:9040, V-B:GLY:544:C:9884, H-B:LYS:547:NZ:9923"]

$$$$
4bc_Grossjean_2025
     RDKit          3D

 40 42  0  0  0  0  0  0  0  0999 V2000
  123.8420  132.2620   62.3560 C   0  0  0  0  0  0  0  0  0  0  0  0
  123.8670  131.2630   63.3700 O   0  0  0  0  0  0  0  0  0  0  0  0
  124.7350  130.1950   63.2420 C   0  0  0  0  0  0  0  0  0  0  0  0
  125.0810  129.8270   61.9430 C   0  0  0  0  0  0  0  0  0  0  0  0
  125.9490  128.7620   61.7140 C   0  0  0  0  0  0  0  0  0  0  0  0
  126.4920  128.0550   62.7890 C   0  0  0  0  0  0  0  0  0  0  0  0
  127.3470  126.9870   62.4610 N   0  0  0  0  0  0  0  0  0  0  0  0
  128.6040  127.0190   61.9550 C   0  0  0  0  0  0  0  0  0  0  0  0
  129.2000  128.0560   61.6590 O   0  0  0  0  0  0  0  0  0  0  0  0
  129.2390  125.7110   61.7630 C   0  0  0  0  0  0  0  0  0  0  0  0
  128.2520  124.2820   61.4640 S   0  0  0  0  0  0  0  0  0  0  0  0
  129.6710  123.2670   61.3670 C   0  0  0  0  0  0  0  0  0  0  0  0
  129.5750  121.9580   61.1340 N   0  0  0  0  0  0  0  0  0  0  0  0
  130.7430  121.2760   61.0830 C   0  0  0  0  0  0  0  0  0  0  0  0
  130.6120  119.7890   60.8120 C   0  0  0  0  0  0  0  0  0  0  0  0
  131.9930  121.8660   61.2570 C   0  0  0  0  0  0  0  0  0  0  0  0
  132.1000  123.2440   61.5020 C   0  0  0  0  0  0  0  0  0  0  0  0
  133.4970  123.8470   61.6900 C   0  0  0  0  0  0  0  0  0  0  0  0
  134.4520  122.9230   61.8090 F   0  0  0  0  0  0  0  0  0  0  0  0
  133.8030  124.6070   60.6390 F   0  0  0  0  0  0  0  0  0  0  0  0
  133.5220  124.5920   62.7950 F   0  0  0  0  0  0  0  0  0  0  0  0
  130.8870  123.9930   61.5610 C   0  0  0  0  0  0  0  0  0  0  0  0
  130.6050  125.3910   61.7830 C   0  0  0  0  0  0  0  0  0  0  0  0
  131.5920  126.3200   61.9940 N   0  0  0  0  0  0  0  0  0  0  0  0
  126.1380  128.4110   64.0990 C   0  0  0  0  0  0  0  0  0  0  0  0
  125.2700  129.4750   64.3230 C   0  0  0  0  0  0  0  0  0  0  0  0
  123.8171  133.2577   62.8228 H   0  0  0  0  0  0  0  0  0  0  0  0
  124.7427  132.1725   61.7309 H   0  0  0  0  0  0  0  0  0  0  0  0
  122.9469  132.1276   61.7309 H   0  0  0  0  0  0  0  0  0  0  0  0
  124.6645  130.3831   61.0902 H   0  0  0  0  0  0  0  0  0  0  0  0
  126.2075  128.4770   60.6835 H   0  0  0  0  0  0  0  0  0  0  0  0
  126.9440  126.0720   62.5990 H   0  0  0  0  0  0  0  0  0  0  0  0
  130.5641  119.2451   61.7669 H   0  0  0  0  0  0  0  0  0  0  0  0
  129.6938  119.6007   60.2363 H   0  0  0  0  0  0  0  0  0  0  0  0
  131.4831  119.4431   60.2363 H   0  0  0  0  0  0  0  0  0  0  0  0
  132.9015  121.2483   61.2021 H   0  0  0  0  0  0  0  0  0  0  0  0
  131.3830  127.2760   62.2400 H   0  0  0  0  0  0  0  0  0  0  0  0
  132.5690  126.0740   61.9120 H   0  0  0  0  0  0  0  0  0  0  0  0
  126.5475  127.8479   64.9506 H   0  0  0  0  0  0  0  0  0  0  0  0
  125.0011  129.7540   65.3525 H   0  0  0  0  0  0  0  0  0  0  0  0
  1  2  1  0
  2  3  1  0
  3  4  2  0
  4  5  1  0
  5  6  2  0
  6  7  1  0
  7  8  1  0
  8  9  2  0
  8 10  1  0
 10 11  1  0
 11 12  1  0
 12 13  2  0
 13 14  1  0
 14 15  1  0
 14 16  2  0
 16 17  1  0
 17 18  1  0
 18 19  1  0
 18 20  1  0
 18 21  1  0
 17 22  2  0
 22 23  1  0
 23 24  1  0
  6 25  1  0
 25 26  2  0
 26  3  1  0
 23 10  2  0
 22 12  1  0
  1 27  1  0
  1 28  1  0
  1 29  1  0
  4 30  1  0
  5 31  1  0
  7 32  1  0
 15 33  1  0
 15 34  1  0
 15 35  1  0
 16 36  1  0
 24 37  1  0
 24 38  1  0
 25 39  1  0
 26 40  1  0
M  END
>  <Binding energies>  (1) 
[-5.5]

>  <Ligand effiencies>  (1) 
[-0.1896551724137931]

>  <Interactions>  (1) 
["V-A:ARG:545:CZ:4926, V-B:GLU:543:CD:9880, V-A:ILE:369:CD1:3239, V-B:ASP:366:CG:8185, V-A:LEU:475:CD2:4259, V-B:TYR:539:CD2:9846, V-B:ARG:545:CZ:9898, H-B:TYR:484:OH:9320, V-A:GLU:543:CD:4908, V-B:ILE:369:CD1:8211, H-B:GLY:454:N:9022, V-B:LEU:475:CD2:9231, V-B:GLY:454:CA:9021, H-A:GLU:543:OE1:4909, V-A:GLY:454:CA:4049, H-A:GLU:543:OE2:4910, V-A:ASP:366:CG:3213, V-A:ASP:366:CB:3212, H-A:ASP:366:OD2:3215, H-A:ASP:366:OD1:3214, V-A:GLY:453:CA:4044, V-A:GLY:453:C:4042, H-B:GLU:543:OE2:9882, H-B:GLU:543:OE1:9881"]

$$$$
4bd_Grossjean_2025
     RDKit          3D

 36 38  0  0  0  0  0  0  0  0999 V2000
  130.2550  119.8980   61.1450 C   0  0  0  0  0  0  0  0  0  0  0  0
  130.4250  121.3920   61.3590 C   0  0  0  0  0  0  0  0  0  0  0  0
  131.6900  121.9670   61.4330 C   0  0  0  0  0  0  0  0  0  0  0  0
  131.8330  123.3490   61.6330 C   0  0  0  0  0  0  0  0  0  0  0  0
  133.2470  123.9360   61.7120 C   0  0  0  0  0  0  0  0  0  0  0  0
  133.4480  124.6660   62.8110 F   0  0  0  0  0  0  0  0  0  0  0  0
  134.1450  122.9520   61.7160 F   0  0  0  0  0  0  0  0  0  0  0  0
  133.4650  124.7280   60.6630 F   0  0  0  0  0  0  0  0  0  0  0  0
  130.6380  124.1180   61.7530 C   0  0  0  0  0  0  0  0  0  0  0  0
  130.3910  125.5240   61.9580 C   0  0  0  0  0  0  0  0  0  0  0  0
  131.4020  126.4420   62.0780 N   0  0  0  0  0  0  0  0  0  0  0  0
  129.0300  125.8650   62.0250 C   0  0  0  0  0  0  0  0  0  0  0  0
  128.4280  127.1850   62.2400 C   0  0  0  0  0  0  0  0  0  0  0  0
  129.0930  128.2100   62.0870 O   0  0  0  0  0  0  0  0  0  0  0  0
  127.1190  127.1760   62.5960 N   0  0  0  0  0  0  0  0  0  0  0  0
  126.2710  128.2530   62.9110 C   0  0  0  0  0  0  0  0  0  0  0  0
  126.0190  128.4560   64.2710 C   0  0  0  0  0  0  0  0  0  0  0  0
  125.2000  129.5020   64.6860 C   0  0  0  0  0  0  0  0  0  0  0  0
  124.6370  130.3540   63.7400 C   0  0  0  0  0  0  0  0  0  0  0  0
  124.8910  130.1710   62.3830 C   0  0  0  0  0  0  0  0  0  0  0  0
  125.7090  129.1250   61.9640 C   0  0  0  0  0  0  0  0  0  0  0  0
  128.0070  124.4440   61.8270 S   0  0  0  0  0  0  0  0  0  0  0  0
  129.4030  123.4050   61.6590 C   0  0  0  0  0  0  0  0  0  0  0  0
  129.2730  122.0930   61.4680 N   0  0  0  0  0  0  0  0  0  0  0  0
  130.1974  119.3921   62.1201 H   0  0  0  0  0  0  0  0  0  0  0  0
  129.3298  119.7115   60.5800 H   0  0  0  0  0  0  0  0  0  0  0  0
  131.1146  119.5084   60.5800 H   0  0  0  0  0  0  0  0  0  0  0  0
  132.5842  121.3341   61.3341 H   0  0  0  0  0  0  0  0  0  0  0  0
  132.3740  126.1840   61.9770 H   0  0  0  0  0  0  0  0  0  0  0  0
  131.2090  127.4160   62.2660 H   0  0  0  0  0  0  0  0  0  0  0  0
  126.6730  126.2710   62.6260 H   0  0  0  0  0  0  0  0  0  0  0  0
  126.4704  127.7855   65.0171 H   0  0  0  0  0  0  0  0  0  0  0  0
  124.9985  129.6547   65.7566 H   0  0  0  0  0  0  0  0  0  0  0  0
  123.9863  131.1784   64.0669 H   0  0  0  0  0  0  0  0  0  0  0  0
  124.4458  130.8522   61.6428 H   0  0  0  0  0  0  0  0  0  0  0  0
  125.9148  128.9817   60.8930 H   0  0  0  0  0  0  0  0  0  0  0  0
  1  2  1  0
  2  3  2  0
  3  4  1  0
  4  5  1  0
  5  6  1  0
  5  7  1  0
  5  8  1  0
  4  9  2  0
  9 10  1  0
 10 11  1  0
 10 12  2  0
 12 13  1  0
 13 14  2  0
 13 15  1  0
 15 16  1  0
 16 17  2  0
 17 18  1  0
 18 19  2  0
 19 20  1  0
 20 21  2  0
 12 22  1  0
 22 23  1  0
 23 24  2  0
 24  2  1  0
 23  9  1  0
 21 16  1  0
  1 25  1  0
  1 26  1  0
  1 27  1  0
  3 28  1  0
 11 29  1  0
 11 30  1  0
 15 31  1  0
 17 32  1  0
 18 33  1  0
 19 34  1  0
 20 35  1  0
 21 36  1  0
M  END
>  <Binding energies>  (1) 
[-5.34]

>  <Ligand effiencies>  (1) 
[-0.19777777777777777]

>  <Interactions>  (1) 
["V-A:ARG:545:CZ:4926, V-B:GLU:543:CD:9880, V-A:ILE:369:CD1:3239, V-A:LEU:475:CD2:4259, V-B:TYR:539:CD2:9846, V-B:ARG:545:CZ:9898, V-A:GLU:543:CD:4908, V-B:GLY:454:CA:9021, H-A:GLU:543:OE1:4909, V-A:GLY:454:CA:4049, H-A:GLU:543:OE2:4910, V-A:ASP:366:CG:3213, H-A:ASP:366:OD2:3215, H-A:ASP:366:OD1:3214, V-A:GLY:453:C:4042, H-B:GLU:543:OE2:9882, H-B:GLU:543:OE1:9881"]

$$$$
4be_Grossjean_2025
     RDKit          3D

 38 40  0  0  0  0  0  0  0  0999 V2000
  124.1910  129.5020   65.9490 C   0  0  0  0  0  0  0  0  0  0  0  0
  124.8580  129.4470   64.5870 C   0  0  0  0  0  0  0  0  0  0  0  0
  124.6380  130.4370   63.6260 C   0  0  0  0  0  0  0  0  0  0  0  0
  125.2830  130.3200   62.3940 C   0  0  0  0  0  0  0  0  0  0  0  0
  126.1230  129.2290   62.1550 C   0  0  0  0  0  0  0  0  0  0  0  0
  126.3030  128.2770   63.1650 C   0  0  0  0  0  0  0  0  0  0  0  0
  127.1550  127.2000   62.8590 N   0  0  0  0  0  0  0  0  0  0  0  0
  128.4190  127.2270   62.3690 C   0  0  0  0  0  0  0  0  0  0  0  0
  129.0350  128.2640   62.1140 O   0  0  0  0  0  0  0  0  0  0  0  0
  129.0290  125.9160   62.1290 C   0  0  0  0  0  0  0  0  0  0  0  0
  128.0100  124.5020   61.8610 S   0  0  0  0  0  0  0  0  0  0  0  0
  129.4100  123.4660   61.7120 C   0  0  0  0  0  0  0  0  0  0  0  0
  129.2860  122.1600   61.4790 N   0  0  0  0  0  0  0  0  0  0  0  0
  130.4410  121.4620   61.3810 C   0  0  0  0  0  0  0  0  0  0  0  0
  130.2780  119.9760   61.1190 C   0  0  0  0  0  0  0  0  0  0  0  0
  131.7040  122.0340   61.5070 C   0  0  0  0  0  0  0  0  0  0  0  0
  131.8410  123.4090   61.7520 C   0  0  0  0  0  0  0  0  0  0  0  0
  133.2520  123.9940   61.8790 C   0  0  0  0  0  0  0  0  0  0  0  0
  134.2090  123.0650   61.8190 F   0  0  0  0  0  0  0  0  0  0  0  0
  133.4740  124.8580   60.8890 F   0  0  0  0  0  0  0  0  0  0  0  0
  133.3770  124.6220   63.0480 F   0  0  0  0  0  0  0  0  0  0  0  0
  130.6420  124.1740   61.8650 C   0  0  0  0  0  0  0  0  0  0  0  0
  130.3890  125.5720   62.1130 C   0  0  0  0  0  0  0  0  0  0  0  0
  131.3960  126.4840   62.3090 N   0  0  0  0  0  0  0  0  0  0  0  0
  125.6710  128.3820   64.3710 N   0  0  0  0  0  0  0  0  0  0  0  0
  124.9575  129.4388   66.7355 H   0  0  0  0  0  0  0  0  0  0  0  0
  123.6398  130.4486   66.0494 H   0  0  0  0  0  0  0  0  0  0  0  0
  123.4922  128.6584   66.0494 H   0  0  0  0  0  0  0  0  0  0  0  0
  123.9728  131.2877   63.8353 H   0  0  0  0  0  0  0  0  0  0  0  0
  125.1311  131.0821   61.6155 H   0  0  0  0  0  0  0  0  0  0  0  0
  126.6350  129.1201   61.1876 H   0  0  0  0  0  0  0  0  0  0  0  0
  126.7430  126.2880   62.9890 H   0  0  0  0  0  0  0  0  0  0  0  0
  130.2191  119.4390   62.0772 H   0  0  0  0  0  0  0  0  0  0  0  0
  129.3556  119.8039   60.5449 H   0  0  0  0  0  0  0  0  0  0  0  0
  131.1412  119.6080   60.5449 H   0  0  0  0  0  0  0  0  0  0  0  0
  132.6008  121.4038   61.4139 H   0  0  0  0  0  0  0  0  0  0  0  0
  131.2070  127.4550   62.5070 H   0  0  0  0  0  0  0  0  0  0  0  0
  132.3680  126.2120   62.2530 H   0  0  0  0  0  0  0  0  0  0  0  0
  1  2  1  0
  2  3  2  0
  3  4  1  0
  4  5  2  0
  5  6  1  0
  6  7  1  0
  7  8  1  0
  8  9  2  0
  8 10  1  0
 10 11  1  0
 11 12  1  0
 12 13  2  0
 13 14  1  0
 14 15  1  0
 14 16  2  0
 16 17  1  0
 17 18  1  0
 18 19  1  0
 18 20  1  0
 18 21  1  0
 17 22  2  0
 22 23  1  0
 23 24  1  0
  6 25  2  0
 25  2  1  0
 23 10  2  0
 22 12  1  0
  1 26  1  0
  1 27  1  0
  1 28  1  0
  3 29  1  0
  4 30  1  0
  5 31  1  0
  7 32  1  0
 15 33  1  0
 15 34  1  0
 15 35  1  0
 16 36  1  0
 24 37  1  0
 24 38  1  0
M  END
>  <Binding energies>  (1) 
[-5.65]

>  <Ligand effiencies>  (1) 
[-0.2017857142857143]

>  <Interactions>  (1) 
["V-A:ARG:545:CZ:4926, V-B:GLU:543:CD:9880, V-A:ILE:369:CD1:3239, V-A:LEU:475:CD2:4259, V-B:TYR:539:CD2:9846, V-B:ARG:545:CZ:9898, V-A:GLU:543:CD:4908, H-B:ARG:545:NE:9896, V-B:TYR:484:CZ:9319, V-B:GLY:454:CA:9021, H-A:GLU:543:OE1:4909, V-A:GLY:454:CA:4049, H-A:GLU:543:OE2:4910, V-A:ASP:366:CG:3213, H-A:ASP:366:OD2:3215, H-A:ASP:366:OD1:3214, V-A:GLY:453:C:4042, H-B:GLU:543:OE2:9882, H-B:GLU:543:OE1:9881, H-B:ARG:545:NH2:9900, V-B:ARG:545:CG:9894, V-B:ARG:545:CD:9895"]

$$$$
4bf_Grossjean_2025
     RDKit          3D

 35 37  0  0  0  0  0  0  0  0999 V2000
  130.2770  119.9600   61.1930 C   0  0  0  0  0  0  0  0  0  0  0  0
  130.4360  121.4570   61.3930 C   0  0  0  0  0  0  0  0  0  0  0  0
  131.6970  122.0350   61.5070 C   0  0  0  0  0  0  0  0  0  0  0  0
  131.8300  123.4190   61.6960 C   0  0  0  0  0  0  0  0  0  0  0  0
  133.2390  124.0100   61.8190 C   0  0  0  0  0  0  0  0  0  0  0  0
  133.4180  124.7010   62.9480 F   0  0  0  0  0  0  0  0  0  0  0  0
  134.1430  123.0310   61.8030 F   0  0  0  0  0  0  0  0  0  0  0  0
  133.4700  124.8410   60.8020 F   0  0  0  0  0  0  0  0  0  0  0  0
  130.6290  124.1870   61.7620 C   0  0  0  0  0  0  0  0  0  0  0  0
  130.3730  125.5940   61.9440 C   0  0  0  0  0  0  0  0  0  0  0  0
  131.3790  126.5160   62.0930 N   0  0  0  0  0  0  0  0  0  0  0  0
  129.0110  125.9350   61.9490 C   0  0  0  0  0  0  0  0  0  0  0  0
  128.3990  127.2540   62.1400 C   0  0  0  0  0  0  0  0  0  0  0  0
  129.0440  128.2810   61.9270 O   0  0  0  0  0  0  0  0  0  0  0  0
  127.1040  127.2400   62.5410 N   0  0  0  0  0  0  0  0  0  0  0  0
  126.2520  128.3160   62.8570 C   0  0  0  0  0  0  0  0  0  0  0  0
  125.7180  129.2310   61.9330 C   0  0  0  0  0  0  0  0  0  0  0  0
  124.8950  130.2660   62.3820 C   0  0  0  0  0  0  0  0  0  0  0  0
  124.6300  130.3640   63.7490 C   0  0  0  0  0  0  0  0  0  0  0  0
  125.1380  129.4980   64.6610 N   0  0  0  0  0  0  0  0  0  0  0  0
  125.9370  128.4970   64.2090 C   0  0  0  0  0  0  0  0  0  0  0  0
  127.9980  124.5090   61.7330 S   0  0  0  0  0  0  0  0  0  0  0  0
  129.4000  123.4710   61.6300 C   0  0  0  0  0  0  0  0  0  0  0  0
  129.2790  122.1560   61.4510 N   0  0  0  0  0  0  0  0  0  0  0  0
  130.2242  119.4627   62.1728 H   0  0  0  0  0  0  0  0  0  0  0  0
  129.3527  119.7613   60.6307 H   0  0  0  0  0  0  0  0  0  0  0  0
  131.1389  119.5716   60.6307 H   0  0  0  0  0  0  0  0  0  0  0  0
  132.5952  121.4027   61.4485 H   0  0  0  0  0  0  0  0  0  0  0  0
  131.1870  127.4940   62.2540 H   0  0  0  0  0  0  0  0  0  0  0  0
  132.3510  126.2440   62.0490 H   0  0  0  0  0  0  0  0  0  0  0  0
  126.6730  126.3310   62.6220 H   0  0  0  0  0  0  0  0  0  0  0  0
  125.9473  129.1322   60.8617 H   0  0  0  0  0  0  0  0  0  0  0  0
  124.4646  130.9889   61.6733 H   0  0  0  0  0  0  0  0  0  0  0  0
  123.9810  131.1790   64.1020 H   0  0  0  0  0  0  0  0  0  0  0  0
  126.3578  127.7931   64.9421 H   0  0  0  0  0  0  0  0  0  0  0  0
  1  2  1  0
  2  3  2  0
  3  4  1  0
  4  5  1  0
  5  6  1  0
  5  7  1  0
  5  8  1  0
  4  9  2  0
  9 10  1  0
 10 11  1  0
 10 12  2  0
 12 13  1  0
 13 14  2  0
 13 15  1  0
 15 16  1  0
 16 17  2  0
 17 18  1  0
 18 19  2  0
 19 20  1  0
 20 21  2  0
 12 22  1  0
 22 23  1  0
 23 24  2  0
 24  2  1  0
 23  9  1  0
 21 16  1  0
  1 25  1  0
  1 26  1  0
  1 27  1  0
  3 28  1  0
 11 29  1  0
 11 30  1  0
 15 31  1  0
 17 32  1  0
 18 33  1  0
 19 34  1  0
 21 35  1  0
M  END
>  <Binding energies>  (1) 
[-5.11]

>  <Ligand effiencies>  (1) 
[-0.18925925925925927]

>  <Interactions>  (1) 
["V-A:ARG:545:CZ:4926, V-B:GLU:543:CD:9880, V-A:ILE:369:CD1:3239, V-A:LEU:475:CD2:4259, V-B:TYR:539:CD2:9846, V-B:ARG:545:CZ:9898, H-B:TYR:484:OH:9320, V-A:GLU:543:CD:4908, V-B:GLY:454:CA:9021, H-A:GLU:543:OE1:4909, V-A:GLY:454:CA:4049, H-A:GLU:543:OE2:4910, V-A:ASP:366:CG:3213, H-A:ASP:366:OD2:3215, H-A:ASP:366:OD1:3214, V-A:GLY:453:C:4042, H-B:GLU:543:OE2:9882, H-B:GLU:543:OE1:9881"]

$$$$
4bg_Grossjean_2025
     RDKit          3D

 39 41  0  0  0  0  0  0  0  0999 V2000
  129.9210  119.9300   61.4870 C   0  0  0  0  0  0  0  0  0  0  0  0
  130.1900  121.4200   61.5970 C   0  0  0  0  0  0  0  0  0  0  0  0
  131.4910  121.9150   61.6130 C   0  0  0  0  0  0  0  0  0  0  0  0
  131.7260  123.2950   61.7210 C   0  0  0  0  0  0  0  0  0  0  0  0
  133.1750  123.7920   61.7350 C   0  0  0  0  0  0  0  0  0  0  0  0
  133.4530  124.5610   62.7900 F   0  0  0  0  0  0  0  0  0  0  0  0
  134.0080  122.7520   61.7690 F   0  0  0  0  0  0  0  0  0  0  0  0
  133.4160  124.5140   60.6400 F   0  0  0  0  0  0  0  0  0  0  0  0
  130.5840  124.1450   61.8120 C   0  0  0  0  0  0  0  0  0  0  0  0
  130.4320  125.5740   61.9380 C   0  0  0  0  0  0  0  0  0  0  0  0
  131.5010  126.4320   62.0100 N   0  0  0  0  0  0  0  0  0  0  0  0
  129.0980  126.0060   61.9710 C   0  0  0  0  0  0  0  0  0  0  0  0
  128.5830  127.3670   62.1210 C   0  0  0  0  0  0  0  0  0  0  0  0
  128.2960  128.0580   61.1420 O   0  0  0  0  0  0  0  0  0  0  0  0
  128.4090  127.7970   63.3880 N   0  0  0  0  0  0  0  0  0  0  0  0
  127.9230  129.1200   63.7770 C   0  0  0  0  0  0  0  0  0  0  0  0
  126.5810  129.0910   64.4950 C   0  0  0  0  0  0  0  0  0  0  0  0
  126.5140  128.7300   65.8440 C   0  0  0  0  0  0  0  0  0  0  0  0
  125.2910  128.7410   66.5080 C   0  0  0  0  0  0  0  0  0  0  0  0
  124.1380  129.1260   65.8260 C   0  0  0  0  0  0  0  0  0  0  0  0
  124.1990  129.5040   64.4870 C   0  0  0  0  0  0  0  0  0  0  0  0
  125.4230  129.4910   63.8220 C   0  0  0  0  0  0  0  0  0  0  0  0
  127.9810  124.6470   61.8860 S   0  0  0  0  0  0  0  0  0  0  0  0
  129.3040  123.5110   61.7770 C   0  0  0  0  0  0  0  0  0  0  0  0
  129.0870  122.2000   61.6760 N   0  0  0  0  0  0  0  0  0  0  0  0
  129.8427  119.4962   62.4948 H   0  0  0  0  0  0  0  0  0  0  0  0
  128.9788  119.7667   60.9432 H   0  0  0  0  0  0  0  0  0  0  0  0
  130.7466  119.4475   60.9432 H   0  0  0  0  0  0  0  0  0  0  0  0
  132.3407  121.2202   61.5405 H   0  0  0  0  0  0  0  0  0  0  0  0
  132.3660  126.2490   61.5230 H   0  0  0  0  0  0  0  0  0  0  0  0
  131.4600  127.2760   62.5640 H   0  0  0  0  0  0  0  0  0  0  0  0
  128.7400  127.2090   64.1400 H   0  0  0  0  0  0  0  0  0  0  0  0
  128.6652  129.5799   64.4460 H   0  0  0  0  0  0  0  0  0  0  0  0
  127.7801  129.6957   62.8506 H   0  0  0  0  0  0  0  0  0  0  0  0
  127.4284  128.4371   66.3808 H   0  0  0  0  0  0  0  0  0  0  0  0
  125.2345  128.4471   67.5665 H   0  0  0  0  0  0  0  0  0  0  0  0
  123.1710  129.1313   66.3502 H   0  0  0  0  0  0  0  0  0  0  0  0
  123.2853  129.8113   63.9572 H   0  0  0  0  0  0  0  0  0  0  0  0
  125.4783  129.7957   62.7665 H   0  0  0  0  0  0  0  0  0  0  0  0
  1  2  1  0
  2  3  2  0
  3  4  1  0
  4  5  1  0
  5  6  1  0
  5  7  1  0
  5  8  1  0
  4  9  2  0
  9 10  1  0
 10 11  1  0
 10 12  2  0
 12 13  1  0
 13 14  2  0
 13 15  1  0
 15 16  1  0
 16 17  1  0
 17 18  2  0
 18 19  1  0
 19 20  2  0
 20 21  1  0
 21 22  2  0
 12 23  1  0
 23 24  1  0
 24 25  2  0
 25  2  1  0
 24  9  1  0
 22 17  1  0
  1 26  1  0
  1 27  1  0
  1 28  1  0
  3 29  1  0
 11 30  1  0
 11 31  1  0
 15 32  1  0
 16 33  1  0
 16 34  1  0
 18 35  1  0
 19 36  1  0
 20 37  1  0
 21 38  1  0
 22 39  1  0
M  END
>  <Binding energies>  (1) 
[-6.0]

>  <Ligand effiencies>  (1) 
[-0.21428571428571427]

>  <Interactions>  (1) 
["V-A:ARG:545:CZ:4926, V-B:GLU:543:CD:9880, V-A:ILE:369:CD1:3239, V-A:LEU:475:CD2:4259, V-A:LEU:475:CD1:4258, V-B:ALA:541:CB:9864, V-B:HIS:456:CE1:9042, V-B:ARG:545:CZ:9898, V-A:GLU:543:CD:4908, V-A:GLU:543:CG:4907, H-A:GLU:543:OE1:4909, V-A:GLY:454:CA:4049, H-A:GLU:543:OE2:4910, V-A:ASP:366:CG:3213, H-A:ASP:366:OD2:3215, H-A:ASP:366:OD1:3214, V-A:GLY:453:C:4042, H-B:GLU:543:OE2:9882, H-B:GLU:543:OE1:9881, V-B:ARG:545:CG:9894, V-B:ARG:545:CD:9895, V-B:GLY:453:CA:9016"]

$$$$
4bh_Grossjean_2025
     RDKit          3D

 51 53  0  0  0  0  0  0  0  0999 V2000
  124.1520  132.6740   62.2450 C   0  0  0  0  0  0  0  0  0  0  0  0
  125.4350  132.7700   61.6360 O   0  0  0  0  0  0  0  0  0  0  0  0
  126.4760  131.9980   62.1200 C   0  0  0  0  0  0  0  0  0  0  0  0
  126.3020  130.8690   62.9360 C   0  0  0  0  0  0  0  0  0  0  0  0
  127.3990  130.1380   63.3910 C   0  0  0  0  0  0  0  0  0  0  0  0
  127.1880  128.8890   64.2380 C   0  0  0  0  0  0  0  0  0  0  0  0
  127.8780  127.7070   63.7180 N   0  0  0  0  0  0  0  0  0  0  0  0
  127.7770  127.2340   62.4590 C   0  0  0  0  0  0  0  0  0  0  0  0
  127.0400  127.7470   61.6150 O   0  0  0  0  0  0  0  0  0  0  0  0
  128.5640  126.0370   62.1570 C   0  0  0  0  0  0  0  0  0  0  0  0
  127.7560  124.5530   61.6610 S   0  0  0  0  0  0  0  0  0  0  0  0
  129.2820  123.7050   61.5630 C   0  0  0  0  0  0  0  0  0  0  0  0
  129.3430  122.4250   61.2000 N   0  0  0  0  0  0  0  0  0  0  0  0
  130.5800  121.8780   61.1580 C   0  0  0  0  0  0  0  0  0  0  0  0
  130.6270  120.4180   60.7450 C   0  0  0  0  0  0  0  0  0  0  0  0
  131.7460  122.5740   61.4650 C   0  0  0  0  0  0  0  0  0  0  0  0
  131.6880  123.9230   61.8500 C   0  0  0  0  0  0  0  0  0  0  0  0
  132.9970  124.6490   62.1750 C   0  0  0  0  0  0  0  0  0  0  0  0
  133.0910  125.0100   63.4570 F   0  0  0  0  0  0  0  0  0  0  0  0
  134.0320  123.8540   61.9090 F   0  0  0  0  0  0  0  0  0  0  0  0
  133.0930  125.7570   61.4400 F   0  0  0  0  0  0  0  0  0  0  0  0
  130.3980  124.5300   61.9070 C   0  0  0  0  0  0  0  0  0  0  0  0
  129.9520  125.8560   62.2560 C   0  0  0  0  0  0  0  0  0  0  0  0
  130.8120  126.8520   62.6410 N   0  0  0  0  0  0  0  0  0  0  0  0
  128.6860  130.5180   63.0050 C   0  0  0  0  0  0  0  0  0  0  0  0
  128.8910  131.6470   62.1960 C   0  0  0  0  0  0  0  0  0  0  0  0
  130.1370  132.0880   61.7880 O   0  0  0  0  0  0  0  0  0  0  0  0
  131.0090  131.1880   61.1130 C   0  0  0  0  0  0  0  0  0  0  0  0
  127.7770  132.3820   61.7650 C   0  0  0  0  0  0  0  0  0  0  0  0
  127.9620  133.4790   60.9570 O   0  0  0  0  0  0  0  0  0  0  0  0
  127.6150  133.2600   59.5970 C   0  0  0  0  0  0  0  0  0  0  0  0
  124.2640  132.6824   63.3393 H   0  0  0  0  0  0  0  0  0  0  0  0
  123.5333  133.5284   61.9332 H   0  0  0  0  0  0  0  0  0  0  0  0
  123.6673  131.7371   61.9332 H   0  0  0  0  0  0  0  0  0  0  0  0
  125.2864  130.5566   63.2204 H   0  0  0  0  0  0  0  0  0  0  0  0
  127.5595  129.0903   65.2536 H   0  0  0  0  0  0  0  0  0  0  0  0
  126.1107  128.6669   64.2240 H   0  0  0  0  0  0  0  0  0  0  0  0
  128.5630  127.2890   64.3310 H   0  0  0  0  0  0  0  0  0  0  0  0
  130.6474  119.7833   61.6432 H   0  0  0  0  0  0  0  0  0  0  0  0
  129.7361  120.1775   60.1463 H   0  0  0  0  0  0  0  0  0  0  0  0
  131.5315  120.2352   60.1463 H   0  0  0  0  0  0  0  0  0  0  0  0
  132.7188  122.0639   61.4056 H   0  0  0  0  0  0  0  0  0  0  0  0
  131.1020  127.5830   62.0060 H   0  0  0  0  0  0  0  0  0  0  0  0
  131.1950  126.8840   63.5750 H   0  0  0  0  0  0  0  0  0  0  0  0
  129.5503  129.9252   63.3390 H   0  0  0  0  0  0  0  0  0  0  0  0
  131.5759  130.6029   61.8522 H   0  0  0  0  0  0  0  0  0  0  0  0
  130.4175  130.5078   60.4826 H   0  0  0  0  0  0  0  0  0  0  0  0
  131.7076  131.7577   60.4826 H   0  0  0  0  0  0  0  0  0  0  0  0
  126.6858  132.6736   59.5455 H   0  0  0  0  0  0  0  0  0  0  0  0
  127.4659  134.2280   59.0962 H   0  0  0  0  0  0  0  0  0  0  0  0
  128.4246  132.7089   59.0962 H   0  0  0  0  0  0  0  0  0  0  0  0
  1  2  1  0
  2  3  1  0
  3  4  2  0
  4  5  1  0
  5  6  1  0
  6  7  1  0
  7  8  1  0
  8  9  2  0
  8 10  1  0
 10 11  1  0
 11 12  1  0
 12 13  2  0
 13 14  1  0
 14 15  1  0
 14 16  2  0
 16 17  1  0
 17 18  1  0
 18 19  1  0
 18 20  1  0
 18 21  1  0
 17 22  2  0
 22 23  1  0
 23 24  1  0
  5 25  2  0
 25 26  1  0
 26 27  1  0
 27 28  1  0
 26 29  2  0
 29 30  1  0
 30 31  1  0
 29  3  1  0
 23 10  2  0
 22 12  1  0
  1 32  1  0
  1 33  1  0
  1 34  1  0
  4 35  1  0
  6 36  1  0
  6 37  1  0
  7 38  1  0
 15 39  1  0
 15 40  1  0
 15 41  1  0
 16 42  1  0
 24 43  1  0
 24 44  1  0
 25 45  1  0
 28 46  1  0
 28 47  1  0
 28 48  1  0
 31 49  1  0
 31 50  1  0
 31 51  1  0
M  END
>  <Binding energies>  (1) 
[-5.34]

>  <Ligand effiencies>  (1) 
[-0.15705882352941175]

>  <Interactions>  (1) 
["V-A:ARG:545:CZ:4926, V-B:GLU:543:CD:9880, V-A:ILE:369:CD1:3239, V-B:TYR:539:CE2:9848, V-A:LEU:475:CD2:4259, V-B:TYR:539:CD2:9846, V-A:GLU:543:CD:4908, V-B:ILE:369:CD1:8211, V-A:GLU:543:CG:4907, V-B:LEU:475:CD2:9231, V-B:GLY:454:CA:9021, H-A:GLU:543:OE1:4909, V-A:GLY:454:CA:4049, H-A:GLU:543:OE2:4910, V-A:ASP:366:CG:3213, H-A:ASP:366:OD1:3214, V-A:GLY:453:CA:4044, V-A:GLY:453:C:4042, H-B:GLU:543:OE2:9882, H-B:GLU:543:OE1:9881, H-A:ALA:541:N:4891, V-A:ALA:541:CB:4892, V-A:TYR:539:CD1:4873, V-A:TYR:539:C:4867, V-A:TYR:539:CE1:4875"]

$$$$
4bi_Grossjean_2025
     RDKit          3D

 32 34  0  0  0  0  0  0  0  0999 V2000
  132.4790  124.7750   59.7470 C   0  0  0  0  0  0  0  0  0  0  0  0
  131.0360  124.9740   60.1760 C   0  0  0  0  0  0  0  0  0  0  0  0
  130.0820  123.9830   59.9640 C   0  0  0  0  0  0  0  0  0  0  0  0
  128.7510  124.1790   60.3710 C   0  0  0  0  0  0  0  0  0  0  0  0
  127.7380  123.0560   60.1240 C   0  0  0  0  0  0  0  0  0  0  0  0
  127.2270  122.5570   61.2510 F   0  0  0  0  0  0  0  0  0  0  0  0
  126.7220  123.5170   59.3950 F   0  0  0  0  0  0  0  0  0  0  0  0
  128.3270  122.0510   59.4740 F   0  0  0  0  0  0  0  0  0  0  0  0
  128.4370  125.4230   60.9940 C   0  0  0  0  0  0  0  0  0  0  0  0
  127.2130  125.9710   61.5260 C   0  0  0  0  0  0  0  0  0  0  0  0
  126.0220  125.2920   61.4980 N   0  0  0  0  0  0  0  0  0  0  0  0
  127.3520  127.2560   62.0780 C   0  0  0  0  0  0  0  0  0  0  0  0
  126.3240  128.1050   62.6860 C   0  0  0  0  0  0  0  0  0  0  0  0
  125.5410  128.7470   61.9830 O   0  0  0  0  0  0  0  0  0  0  0  0
  126.2980  128.1070   64.0420 N   0  0  0  0  0  0  0  0  0  0  0  0
  125.4290  128.8060   64.8700 C   0  0  0  0  0  0  0  0  0  0  0  0
  125.4020  128.6460   66.2550 C   0  0  0  0  0  0  0  0  0  0  0  0
  124.4180  129.5010   66.6960 C   0  0  0  0  0  0  0  0  0  0  0  0
  123.8810  130.1430   65.6310 O   0  0  0  0  0  0  0  0  0  0  0  0
  124.5300  129.6930   64.4790 N   0  0  0  0  0  0  0  0  0  0  0  0
  129.0090  127.8360   61.9310 S   0  0  0  0  0  0  0  0  0  0  0  0
  129.5080  126.3540   61.1520 C   0  0  0  0  0  0  0  0  0  0  0  0
  130.7700  126.1620   60.7660 N   0  0  0  0  0  0  0  0  0  0  0  0
  133.1177  124.6869   60.6383 H   0  0  0  0  0  0  0  0  0  0  0  0
  132.5596  123.8572   59.1460 H   0  0  0  0  0  0  0  0  0  0  0  0
  132.8050  125.6367   59.1460 H   0  0  0  0  0  0  0  0  0  0  0  0
  130.3713  123.0410   59.4751 H   0  0  0  0  0  0  0  0  0  0  0  0
  125.3730  125.3830   60.7290 H   0  0  0  0  0  0  0  0  0  0  0  0
  125.7490  124.6780   62.2530 H   0  0  0  0  0  0  0  0  0  0  0  0
  126.9790  127.5320   64.5160 H   0  0  0  0  0  0  0  0  0  0  0  0
  126.0314  127.9801   66.8636 H   0  0  0  0  0  0  0  0  0  0  0  0
  124.1162  129.6406   67.7445 H   0  0  0  0  0  0  0  0  0  0  0  0
  1  2  1  0
  2  3  2  0
  3  4  1  0
  4  5  1  0
  5  6  1  0
  5  7  1  0
  5  8  1  0
  4  9  2  0
  9 10  1  0
 10 11  1  0
 10 12  2  0
 12 13  1  0
 13 14  2  0
 13 15  1  0
 15 16  1  0
 16 17  1  0
 17 18  2  0
 18 19  1  0
 19 20  1  0
 12 21  1  0
 21 22  1  0
 22 23  2  0
 23  2  1  0
 22  9  1  0
 20 16  2  0
  1 24  1  0
  1 25  1  0
  1 26  1  0
  3 27  1  0
 11 28  1  0
 11 29  1  0
 15 30  1  0
 17 31  1  0
 18 32  1  0
M  END
>  <Binding energies>  (1) 
[-5.77]

>  <Ligand effiencies>  (1) 
[-0.22192307692307692]

>  <Interactions>  (1) 
["V-B:PRO:540:CB:9857, V-B:TYR:539:C:9839, V-B:PRO:540:CA:9855, V-B:PRO:540:N:9856, V-B:GLU:543:CD:9880, V-B:TYR:539:CE2:9848, V-B:PRO:540:C:9853, V-B:ASP:366:CG:8185, V-B:TYR:539:CD2:9846, V-B:HIS:456:CE1:9042, V-B:ARG:545:CZ:9898, H-B:TYR:484:OH:9320, V-A:GLU:543:CD:4908, V-B:TYR:484:CZ:9319, H-B:GLY:454:N:9022, V-A:ASP:366:CG:3213, H-B:GLU:543:OE2:9882, H-B:GLU:543:OE1:9881, H-B:ASP:366:OD2:8187, H-B:ARG:545:NH2:9900, V-B:ARG:545:CG:9894, V-B:ARG:545:CD:9895, V-B:TYR:484:CE1:9317, H-B:ASP:366:OD1:8186"]

$$$$
4bj_Grossjean_2025
     RDKit          3D

 32 34  0  0  0  0  0  0  0  0999 V2000
  130.2500  119.9690   61.1240 C   0  0  0  0  0  0  0  0  0  0  0  0
  130.4020  121.4600   61.3660 C   0  0  0  0  0  0  0  0  0  0  0  0
  131.6610  122.0450   61.4760 C   0  0  0  0  0  0  0  0  0  0  0  0
  131.7860  123.4240   61.7070 C   0  0  0  0  0  0  0  0  0  0  0  0
  133.1930  124.0220   61.8240 C   0  0  0  0  0  0  0  0  0  0  0  0
  133.3830  124.6870   62.9650 F   0  0  0  0  0  0  0  0  0  0  0  0
  134.1020  123.0490   61.7710 F   0  0  0  0  0  0  0  0  0  0  0  0
  133.4020  124.8770   60.8230 F   0  0  0  0  0  0  0  0  0  0  0  0
  130.5800  124.1790   61.8170 C   0  0  0  0  0  0  0  0  0  0  0  0
  130.3160  125.5780   62.0510 C   0  0  0  0  0  0  0  0  0  0  0  0
  131.3150  126.5010   62.2270 N   0  0  0  0  0  0  0  0  0  0  0  0
  128.9520  125.9080   62.0740 C   0  0  0  0  0  0  0  0  0  0  0  0
  128.3330  127.2170   62.2940 C   0  0  0  0  0  0  0  0  0  0  0  0
  128.9960  128.2530   62.1990 O   0  0  0  0  0  0  0  0  0  0  0  0
  127.0090  127.1950   62.5860 N   0  0  0  0  0  0  0  0  0  0  0  0
  126.1890  128.2890   62.8260 C   0  0  0  0  0  0  0  0  0  0  0  0
  125.5650  129.0390   61.9440 N   0  0  0  0  0  0  0  0  0  0  0  0
  124.8650  129.9920   62.5270 C   0  0  0  0  0  0  0  0  0  0  0  0
  124.9140  130.0290   63.9170 C   0  0  0  0  0  0  0  0  0  0  0  0
  125.9380  128.7420   64.4810 S   0  0  0  0  0  0  0  0  0  0  0  0
  127.9460  124.4820   61.8280 S   0  0  0  0  0  0  0  0  0  0  0  0
  129.3550  123.4580   61.6800 C   0  0  0  0  0  0  0  0  0  0  0  0
  129.2410  122.1480   61.4640 N   0  0  0  0  0  0  0  0  0  0  0  0
  130.1965  119.4444   62.0894 H   0  0  0  0  0  0  0  0  0  0  0  0
  129.3282  119.7822   60.5536 H   0  0  0  0  0  0  0  0  0  0  0  0
  131.1152  119.6000   60.5536 H   0  0  0  0  0  0  0  0  0  0  0  0
  132.5631  121.4227   61.3813 H   0  0  0  0  0  0  0  0  0  0  0  0
  132.2920  126.2480   62.1860 H   0  0  0  0  0  0  0  0  0  0  0  0
  131.1050  127.4730   62.4100 H   0  0  0  0  0  0  0  0  0  0  0  0
  126.5600  126.2920   62.6300 H   0  0  0  0  0  0  0  0  0  0  0  0
  124.2753  130.7172   61.9471 H   0  0  0  0  0  0  0  0  0  0  0  0
  124.3897  130.7550   64.5558 H   0  0  0  0  0  0  0  0  0  0  0  0
  1  2  1  0
  2  3  2  0
  3  4  1  0
  4  5  1  0
  5  6  1  0
  5  7  1  0
  5  8  1  0
  4  9  2  0
  9 10  1  0
 10 11  1  0
 10 12  2  0
 12 13  1  0
 13 14  2  0
 13 15  1  0
 15 16  1  0
 16 17  2  0
 17 18  1  0
 18 19  2  0
 19 20  1  0
 12 21  1  0
 21 22  1  0
 22 23  2  0
 23  2  1  0
 22  9  1  0
 20 16  1  0
  1 24  1  0
  1 25  1  0
  1 26  1  0
  3 27  1  0
 11 28  1  0
 11 29  1  0
 15 30  1  0
 18 31  1  0
 19 32  1  0
M  END
>  <Binding energies>  (1) 
[-4.82]

>  <Ligand effiencies>  (1) 
[-0.1853846153846154]

>  <Interactions>  (1) 
["V-A:ARG:545:CZ:4926, V-B:GLU:543:CD:9880, V-A:ILE:369:CD1:3239, V-A:LEU:475:CD2:4259, V-B:TYR:539:CD2:9846, V-B:ARG:545:CZ:9898, V-A:GLU:543:CD:4908, H-A:GLU:543:OE1:4909, V-A:GLY:454:CA:4049, H-A:GLU:543:OE2:4910, V-A:ASP:366:CG:3213, H-A:ASP:366:OD2:3215, H-A:ASP:366:OD1:3214, V-A:GLY:453:C:4042, H-B:GLU:543:OE2:9882, H-B:GLU:543:OE1:9881, H-B:ARG:545:NH2:9900"]

$$$$
4bk_Grossjean_2025
     RDKit          3D

 50 51  0  0  0  0  0  0  0  0999 V2000
  133.3150  131.6090   61.0750 C   0  0  0  0  0  0  0  0  0  0  0  0
  131.9520  131.7480   61.4460 O   0  0  0  0  0  0  0  0  0  0  0  0
  131.0690  130.9540   60.6640 C   0  0  0  0  0  0  0  0  0  0  0  0
  129.7860  131.7460   60.3770 C   0  0  0  0  0  0  0  0  0  0  0  0
  129.3680  132.4110   61.5610 O   0  0  0  0  0  0  0  0  0  0  0  0
  129.2220  131.5500   62.6830 C   0  0  0  0  0  0  0  0  0  0  0  0
  127.9070  131.8710   63.4050 C   0  0  0  0  0  0  0  0  0  0  0  0
  126.9240  130.9140   63.0390 O   0  0  0  0  0  0  0  0  0  0  0  0
  127.1010  129.6430   63.6530 C   0  0  0  0  0  0  0  0  0  0  0  0
  126.3720  128.5700   62.8260 C   0  0  0  0  0  0  0  0  0  0  0  0
  127.1690  127.3640   62.5950 N   0  0  0  0  0  0  0  0  0  0  0  0
  128.4320  127.3440   62.1190 C   0  0  0  0  0  0  0  0  0  0  0  0
  129.0510  128.3730   61.8460 O   0  0  0  0  0  0  0  0  0  0  0  0
  129.0350  126.0210   61.9500 C   0  0  0  0  0  0  0  0  0  0  0  0
  128.0110  124.5940   61.8130 S   0  0  0  0  0  0  0  0  0  0  0  0
  129.4060  123.5570   61.6270 C   0  0  0  0  0  0  0  0  0  0  0  0
  129.2780  122.2400   61.4700 N   0  0  0  0  0  0  0  0  0  0  0  0
  130.4290  121.5430   61.3340 C   0  0  0  0  0  0  0  0  0  0  0  0
  130.2590  120.0450   61.1540 C   0  0  0  0  0  0  0  0  0  0  0  0
  131.6940  122.1260   61.3530 C   0  0  0  0  0  0  0  0  0  0  0  0
  131.8360  123.5120   61.5200 C   0  0  0  0  0  0  0  0  0  0  0  0
  133.2480  124.1070   61.5380 C   0  0  0  0  0  0  0  0  0  0  0  0
  133.4950  124.8330   62.6300 F   0  0  0  0  0  0  0  0  0  0  0  0
  134.1510  123.1270   61.4960 F   0  0  0  0  0  0  0  0  0  0  0  0
  133.4150  124.9040   60.4840 F   0  0  0  0  0  0  0  0  0  0  0  0
  130.6410  124.2780   61.6640 C   0  0  0  0  0  0  0  0  0  0  0  0
  130.3930  125.6860   61.8460 C   0  0  0  0  0  0  0  0  0  0  0  0
  131.4010  126.6140   61.9140 N   0  0  0  0  0  0  0  0  0  0  0  0
  133.9368  131.5456   61.9802 H   0  0  0  0  0  0  0  0  0  0  0  0
  133.4411  130.6933   60.4786 H   0  0  0  0  0  0  0  0  0  0  0  0
  133.6234  132.4804   60.4786 H   0  0  0  0  0  0  0  0  0  0  0  0
  131.5571  130.6902   59.7142 H   0  0  0  0  0  0  0  0  0  0  0  0
  130.8172  130.0356   61.2147 H   0  0  0  0  0  0  0  0  0  0  0  0
  129.9811  132.4879   59.5886 H   0  0  0  0  0  0  0  0  0  0  0  0
  128.9957  131.0575   60.0433 H   0  0  0  0  0  0  0  0  0  0  0  0
  129.2081  130.5039   62.3433 H   0  0  0  0  0  0  0  0  0  0  0  0
  130.0656  131.6998   63.3729 H   0  0  0  0  0  0  0  0  0  0  0  0
  128.0671  131.8355   64.4927 H   0  0  0  0  0  0  0  0  0  0  0  0
  127.5660  132.8769   63.1188 H   0  0  0  0  0  0  0  0  0  0  0  0
  128.1738  129.4043   63.6998 H   0  0  0  0  0  0  0  0  0  0  0  0
  126.6866  129.6662   64.6717 H   0  0  0  0  0  0  0  0  0  0  0  0
  125.4546  128.2830   63.3608 H   0  0  0  0  0  0  0  0  0  0  0  0
  126.1622  129.0108   61.8403 H   0  0  0  0  0  0  0  0  0  0  0  0
  126.7170  126.4860   62.7990 H   0  0  0  0  0  0  0  0  0  0  0  0
  130.2041  119.5611   62.1403 H   0  0  0  0  0  0  0  0  0  0  0  0
  129.3325  119.8456   60.5956 H   0  0  0  0  0  0  0  0  0  0  0  0
  131.1173  119.6430   60.5956 H   0  0  0  0  0  0  0  0  0  0  0  0
  132.5878  121.4955   61.2363 H   0  0  0  0  0  0  0  0  0  0  0  0
  132.3760  126.3510   61.8530 H   0  0  0  0  0  0  0  0  0  0  0  0
  131.2020  127.5990   62.0210 H   0  0  0  0  0  0  0  0  0  0  0  0
  1  2  1  0
  2  3  1  0
  3  4  1  0
  4  5  1  0
  5  6  1  0
  6  7  1  0
  7  8  1  0
  8  9  1  0
  9 10  1  0
 10 11  1  0
 11 12  1  0
 12 13  2  0
 12 14  1  0
 14 15  1  0
 15 16  1  0
 16 17  2  0
 17 18  1  0
 18 19  1  0
 18 20  2  0
 20 21  1  0
 21 22  1  0
 22 23  1  0
 22 24  1  0
 22 25  1  0
 21 26  2  0
 26 27  1  0
 27 28  1  0
 27 14  2  0
 26 16  1  0
  1 29  1  0
  1 30  1  0
  1 31  1  0
  3 32  1  0
  3 33  1  0
  4 34  1  0
  4 35  1  0
  6 36  1  0
  6 37  1  0
  7 38  1  0
  7 39  1  0
  9 40  1  0
  9 41  1  0
 10 42  1  0
 10 43  1  0
 11 44  1  0
 19 45  1  0
 19 46  1  0
 19 47  1  0
 20 48  1  0
 28 49  1  0
 28 50  1  0
M  END
>  <Binding energies>  (1) 
[-4.63]

>  <Ligand effiencies>  (1) 
[-0.14935483870967742]

>  <Interactions>  (1) 
["V-A:ARG:545:CZ:4926, V-B:GLU:543:CD:9880, V-A:ILE:369:CD1:3239, V-A:LEU:475:CD2:4259, V-B:TYR:539:CD2:9846, H-B:TYR:484:OH:9320, V-A:GLU:543:CD:4908, V-A:GLU:543:CG:4907, H-A:GLU:543:OE1:4909, V-A:GLY:454:CA:4049, H-A:GLU:543:OE2:4910, V-A:ASP:366:CG:3213, V-A:ASP:366:CB:3212, H-A:ASP:366:OD2:3215, H-A:ASP:366:OD1:3214, V-A:GLY:453:C:4042, H-B:GLU:543:OE2:9882, H-B:GLU:543:OE1:9881, V-A:PRO:540:CA:4883, V-A:PRO:540:CB:4885, H-A:ALA:541:N:4891, V-A:ASN:362:CB:3176, V-A:ALA:541:CB:4892, V-A:ASN:362:C:3172"]

$$$$
4ca_Grossjean_2025
     RDKit          3D

 52 55  0  0  0  0  0  0  0  0999 V2000
  132.9890  126.8650   73.9780 C   0  0  0  0  0  0  0  0  0  0  0  0
  131.4580  126.8690   73.9470 C   0  0  0  0  0  0  0  0  0  0  0  0
  131.0120  126.9530   72.6000 O   0  0  0  0  0  0  0  0  0  0  0  0
  129.6990  127.1460   72.3060 C   0  0  0  0  0  0  0  0  0  0  0  0
  128.8000  127.1010   73.1510 O   0  0  0  0  0  0  0  0  0  0  0  0
  129.4530  127.4230   70.8520 C   0  0  0  0  0  0  0  0  0  0  0  0
  128.3900  126.7800   70.2030 C   0  0  0  0  0  0  0  0  0  0  0  0
  128.1340  127.0200   68.8560 C   0  0  0  0  0  0  0  0  0  0  0  0
  128.9360  127.8980   68.1290 C   0  0  0  0  0  0  0  0  0  0  0  0
  128.5810  128.0740   66.7770 N   0  0  0  0  0  0  0  0  0  0  0  0
  128.1330  129.1770   66.1280 C   0  0  0  0  0  0  0  0  0  0  0  0
  128.0050  130.2830   66.6530 O   0  0  0  0  0  0  0  0  0  0  0  0
  127.8160  128.9830   64.7110 C   0  0  0  0  0  0  0  0  0  0  0  0
  126.5770  129.9680   63.9380 S   0  0  0  0  0  0  0  0  0  0  0  0
  126.8540  129.1880   62.3980 C   0  0  0  0  0  0  0  0  0  0  0  0
  126.1640  129.5300   61.3130 N   0  0  0  0  0  0  0  0  0  0  0  0
  126.4590  128.8800   60.1580 C   0  0  0  0  0  0  0  0  0  0  0  0
  125.6700  129.2950   58.9500 C   0  0  0  0  0  0  0  0  0  0  0  0
  125.9830  128.7890   57.6780 C   0  0  0  0  0  0  0  0  0  0  0  0
  125.2580  129.1740   56.5530 C   0  0  0  0  0  0  0  0  0  0  0  0
  124.2060  130.0750   56.6840 C   0  0  0  0  0  0  0  0  0  0  0  0
  123.8760  130.5930   57.9320 C   0  0  0  0  0  0  0  0  0  0  0  0
  124.6040  130.2060   59.0550 C   0  0  0  0  0  0  0  0  0  0  0  0
  127.4300  127.8740   60.1040 C   0  0  0  0  0  0  0  0  0  0  0  0
  128.1610  127.5030   61.2430 C   0  0  0  0  0  0  0  0  0  0  0  0
  129.2130  126.3960   61.1120 C   0  0  0  0  0  0  0  0  0  0  0  0
  129.3150  125.9160   59.8710 F   0  0  0  0  0  0  0  0  0  0  0  0
  130.4100  126.8670   61.4570 F   0  0  0  0  0  0  0  0  0  0  0  0
  128.8950  125.3750   61.9070 F   0  0  0  0  0  0  0  0  0  0  0  0
  127.8710  128.1920   62.4560 C   0  0  0  0  0  0  0  0  0  0  0  0
  128.4060  128.0970   63.7930 C   0  0  0  0  0  0  0  0  0  0  0  0
  129.4010  127.2160   64.1320 N   0  0  0  0  0  0  0  0  0  0  0  0
  129.9990  128.5510   68.7700 C   0  0  0  0  0  0  0  0  0  0  0  0
  130.2530  128.3120   70.1180 C   0  0  0  0  0  0  0  0  0  0  0  0
  133.3346  126.8641   75.0223 H   0  0  0  0  0  0  0  0  0  0  0  0
  133.3637  125.9659   73.4670 H   0  0  0  0  0  0  0  0  0  0  0  0
  133.3684  127.7622   73.4670 H   0  0  0  0  0  0  0  0  0  0  0  0
  131.0796  125.9415   74.4015 H   0  0  0  0  0  0  0  0  0  0  0  0
  131.0819  127.7342   74.5126 H   0  0  0  0  0  0  0  0  0  0  0  0
  127.7527  126.0798   70.7629 H   0  0  0  0  0  0  0  0  0  0  0  0
  127.2924  126.5129   68.3615 H   0  0  0  0  0  0  0  0  0  0  0  0
  128.6930  127.2460   66.2110 H   0  0  0  0  0  0  0  0  0  0  0  0
  126.8143  128.0770   57.5684 H   0  0  0  0  0  0  0  0  0  0  0  0
  125.5162  128.7671   55.5642 H   0  0  0  0  0  0  0  0  0  0  0  0
  123.6323  130.3793   55.7961 H   0  0  0  0  0  0  0  0  0  0  0  0
  123.0437  131.3052   58.0318 H   0  0  0  0  0  0  0  0  0  0  0  0
  124.3407  130.6197   60.0396 H   0  0  0  0  0  0  0  0  0  0  0  0
  127.6243  127.3635   59.1492 H   0  0  0  0  0  0  0  0  0  0  0  0
  130.3290  127.2800   63.7360 H   0  0  0  0  0  0  0  0  0  0  0  0
  129.2410  126.4700   64.7960 H   0  0  0  0  0  0  0  0  0  0  0  0
  130.6325  129.2525   68.2073 H   0  0  0  0  0  0  0  0  0  0  0  0
  131.0902  128.8258   70.6131 H   0  0  0  0  0  0  0  0  0  0  0  0
  1  2  1  0
  2  3  1  0
  3  4  1  0
  4  5  2  0
  4  6  1  0
  6  7  2  0
  7  8  1  0
  8  9  2  0
  9 10  1  0
 10 11  1  0
 11 12  2  0
 11 13  1  0
 13 14  1  0
 14 15  1  0
 15 16  2  0
 16 17  1  0
 17 18  1  0
 18 19  2  0
 19 20  1  0
 20 21  2  0
 21 22  1  0
 22 23  2  0
 17 24  2  0
 24 25  1  0
 25 26  1  0
 26 27  1  0
 26 28  1  0
 26 29  1  0
 25 30  2  0
 30 31  1  0
 31 32  1  0
  9 33  1  0
 33 34  2  0
 34  6  1  0
 31 13  2  0
 30 15  1  0
 23 18  1  0
  1 35  1  0
  1 36  1  0
  1 37  1  0
  2 38  1  0
  2 39  1  0
  7 40  1  0
  8 41  1  0
 10 42  1  0
 19 43  1  0
 20 44  1  0
 21 45  1  0
 22 46  1  0
 23 47  1  0
 24 48  1  0
 32 49  1  0
 32 50  1  0
 33 51  1  0
 34 52  1  0
M  END
>  <Binding energies>  (1) 
[-6.54]

>  <Ligand effiencies>  (1) 
[-0.17675675675675676]

>  <Interactions>  (1) 
["V-B:GLU:543:CD:9880, V-A:HIS:456:CE1:4070, V-B:ASP:366:CG:8185, V-A:GLU:543:C:4902, V-B:HIS:456:CE1:9042, V-A:GLY:544:CA:4914, V-A:GLU:543:CB:4906, H-B:TYR:484:OH:9320, V-A:GLU:543:CD:4908, V-A:GLU:543:CA:4904, V-A:GLY:544:C:4912, V-A:GLU:543:CG:4907, V-A:HIS:456:CG:4066, V-A:HIS:456:CD2:4068, H-A:GLU:543:OE1:4909, H-A:GLU:543:OE2:4910, H-B:GLU:543:OE2:9882, H-B:GLU:543:OE1:9881, V-B:TYR:531:CZ:9766, V-B:ASP:366:CB:8184, V-A:TYR:539:CE1:4875, V-B:TYR:531:CE1:9764, V-A:TYR:539:CZ:4877, V-B:ASP:366:C:8180, V-B:ASP:366:CA:8182, V-B:GLU:543:CB:9878, V-B:HIS:456:CD2:9040, H-B:LYS:547:NZ:9923, V-A:HIS:456:CB:4065"]

$$$$
4cb_Grossjean_2025
     RDKit          3D

 49 52  0  0  0  0  0  0  0  0999 V2000
  131.2300  127.7340   73.8380 C   0  0  0  0  0  0  0  0  0  0  0  0
  130.3410  128.0510   72.7750 O   0  0  0  0  0  0  0  0  0  0  0  0
  129.6320  127.0800   72.1450 C   0  0  0  0  0  0  0  0  0  0  0  0
  129.2210  126.0610   72.7090 O   0  0  0  0  0  0  0  0  0  0  0  0
  129.3950  127.3680   70.6900 C   0  0  0  0  0  0  0  0  0  0  0  0
  128.3150  126.7580   70.0380 C   0  0  0  0  0  0  0  0  0  0  0  0
  128.0640  127.0110   68.6930 C   0  0  0  0  0  0  0  0  0  0  0  0
  128.8900  127.8720   67.9700 C   0  0  0  0  0  0  0  0  0  0  0  0
  128.5360  128.0680   66.6200 N   0  0  0  0  0  0  0  0  0  0  0  0
  128.0880  129.1800   65.9880 C   0  0  0  0  0  0  0  0  0  0  0  0
  127.9570  130.2790   66.5290 O   0  0  0  0  0  0  0  0  0  0  0  0
  127.7720  129.0070   64.5670 C   0  0  0  0  0  0  0  0  0  0  0  0
  126.5560  130.0250   63.7990 S   0  0  0  0  0  0  0  0  0  0  0  0
  126.8240  129.2560   62.2520 C   0  0  0  0  0  0  0  0  0  0  0  0
  126.1440  129.6200   61.1680 N   0  0  0  0  0  0  0  0  0  0  0  0
  126.4290  128.9720   60.0080 C   0  0  0  0  0  0  0  0  0  0  0  0
  125.6500  129.4090   58.8010 C   0  0  0  0  0  0  0  0  0  0  0  0
  126.0280  128.9930   57.5150 C   0  0  0  0  0  0  0  0  0  0  0  0
  125.3120  129.3980   56.3900 C   0  0  0  0  0  0  0  0  0  0  0  0
  124.2050  130.2280   56.5380 C   0  0  0  0  0  0  0  0  0  0  0  0
  123.8110  130.6570   57.8020 C   0  0  0  0  0  0  0  0  0  0  0  0
  124.5310  130.2510   58.9220 C   0  0  0  0  0  0  0  0  0  0  0  0
  127.3790  127.9470   59.9500 C   0  0  0  0  0  0  0  0  0  0  0  0
  128.0980  127.5520   61.0880 C   0  0  0  0  0  0  0  0  0  0  0  0
  129.1270  126.4220   60.9520 C   0  0  0  0  0  0  0  0  0  0  0  0
  130.3640  126.7990   61.2860 F   0  0  0  0  0  0  0  0  0  0  0  0
  128.7900  125.4090   61.7490 F   0  0  0  0  0  0  0  0  0  0  0  0
  129.1660  125.9960   59.6900 F   0  0  0  0  0  0  0  0  0  0  0  0
  127.8190  128.2370   62.3060 C   0  0  0  0  0  0  0  0  0  0  0  0
  128.3490  128.1200   63.6430 C   0  0  0  0  0  0  0  0  0  0  0  0
  129.3280  127.2190   63.9760 N   0  0  0  0  0  0  0  0  0  0  0  0
  129.9710  128.4910   68.6150 C   0  0  0  0  0  0  0  0  0  0  0  0
  130.2200  128.2380   69.9600 C   0  0  0  0  0  0  0  0  0  0  0  0
  130.7288  127.9127   74.8008 H   0  0  0  0  0  0  0  0  0  0  0  0
  131.5229  126.6760   73.7679 H   0  0  0  0  0  0  0  0  0  0  0  0
  132.1262  128.3680   73.7679 H   0  0  0  0  0  0  0  0  0  0  0  0
  127.6593  126.0725   70.5949 H   0  0  0  0  0  0  0  0  0  0  0  0
  127.2088  126.5291   68.1966 H   0  0  0  0  0  0  0  0  0  0  0  0
  128.6460  127.2470   66.0430 H   0  0  0  0  0  0  0  0  0  0  0  0
  126.9027  128.3373   57.3932 H   0  0  0  0  0  0  0  0  0  0  0  0
  125.6208  129.0628   55.3889 H   0  0  0  0  0  0  0  0  0  0  0  0
  123.6381  130.5469   55.6509 H   0  0  0  0  0  0  0  0  0  0  0  0
  122.9355  131.3132   57.9153 H   0  0  0  0  0  0  0  0  0  0  0  0
  124.2188  130.5951   59.9191 H   0  0  0  0  0  0  0  0  0  0  0  0
  127.5663  127.4400   58.9919 H   0  0  0  0  0  0  0  0  0  0  0  0
  129.1660  126.4770   64.6420 H   0  0  0  0  0  0  0  0  0  0  0  0
  130.2480  127.2650   63.5610 H   0  0  0  0  0  0  0  0  0  0  0  0
  130.6233  129.1780   68.0559 H   0  0  0  0  0  0  0  0  0  0  0  0
  131.0723  128.7248   70.4567 H   0  0  0  0  0  0  0  0  0  0  0  0
  1  2  1  0
  2  3  1  0
  3  4  2  0
  3  5  1  0
  5  6  2  0
  6  7  1  0
  7  8  2  0
  8  9  1  0
  9 10  1  0
 10 11  2  0
 10 12  1  0
 12 13  1  0
 13 14  1  0
 14 15  2  0
 15 16  1  0
 16 17  1  0
 17 18  2  0
 18 19  1  0
 19 20  2  0
 20 21  1  0
 21 22  2  0
 16 23  2  0
 23 24  1  0
 24 25  1  0
 25 26  1  0
 25 27  1  0
 25 28  1  0
 24 29  2  0
 29 30  1  0
 30 31  1  0
  8 32  1  0
 32 33  2  0
 33  5  1  0
 30 12  2  0
 29 14  1  0
 22 17  1  0
  1 34  1  0
  1 35  1  0
  1 36  1  0
  6 37  1  0
  7 38  1  0
  9 39  1  0
 18 40  1  0
 19 41  1  0
 20 42  1  0
 21 43  1  0
 22 44  1  0
 23 45  1  0
 31 46  1  0
 31 47  1  0
 32 48  1  0
 33 49  1  0
M  END
>  <Binding energies>  (1) 
[-6.43]

>  <Ligand effiencies>  (1) 
[-0.1786111111111111]

>  <Interactions>  (1) 
["V-B:GLU:543:CD:9880, V-A:HIS:456:CE1:4070, V-B:ASP:366:CG:8185, V-A:GLU:543:C:4902, V-B:HIS:456:CE1:9042, V-A:GLU:543:CB:4906, H-B:TYR:484:OH:9320, V-A:GLU:543:CD:4908, V-A:GLU:543:CA:4904, V-A:GLY:544:C:4912, V-A:GLU:543:CG:4907, V-A:HIS:456:CD2:4068, H-A:GLU:543:OE1:4909, H-A:GLU:543:OE2:4910, H-B:GLU:543:OE2:9882, H-B:GLU:543:OE1:9881, V-B:TYR:531:CZ:9766, V-B:ASP:366:CB:8184, V-A:TYR:539:CE1:4875, V-B:TYR:531:CE1:9764, V-A:TYR:539:CZ:4877, V-B:ASP:366:C:8180, V-B:ASP:366:CA:8182, V-B:GLU:543:CB:9878, V-B:HIS:456:CD2:9040, H-B:LYS:547:NZ:9923, H-A:LYS:547:NZ:4951, V-A:LYS:547:CE:4950"]

$$$$
4cc_Grossjean_2025
     RDKit          3D

 47 50  0  0  0  0  0  0  0  0999 V2000
  123.8520  132.1090   62.2720 C   0  0  0  0  0  0  0  0  0  0  0  0
  123.9010  131.1480   63.3220 O   0  0  0  0  0  0  0  0  0  0  0  0
  124.7940  130.0980   63.2350 C   0  0  0  0  0  0  0  0  0  0  0  0
  125.1290  129.6710   61.9500 C   0  0  0  0  0  0  0  0  0  0  0  0
  126.0230  128.6210   61.7620 C   0  0  0  0  0  0  0  0  0  0  0  0
  126.5880  127.9730   62.8620 C   0  0  0  0  0  0  0  0  0  0  0  0
  127.4920  126.9330   62.5740 N   0  0  0  0  0  0  0  0  0  0  0  0
  128.7400  127.0030   62.0540 C   0  0  0  0  0  0  0  0  0  0  0  0
  129.3120  128.0590   61.7760 O   0  0  0  0  0  0  0  0  0  0  0  0
  129.4030  125.7150   61.8310 C   0  0  0  0  0  0  0  0  0  0  0  0
  128.4460  124.2620   61.5440 S   0  0  0  0  0  0  0  0  0  0  0  0
  129.8890  123.2890   61.3860 C   0  0  0  0  0  0  0  0  0  0  0  0
  129.8220  121.9830   61.1400 N   0  0  0  0  0  0  0  0  0  0  0  0
  130.9970  121.3110   61.0240 C   0  0  0  0  0  0  0  0  0  0  0  0
  130.8900  119.8400   60.7490 C   0  0  0  0  0  0  0  0  0  0  0  0
  129.8820  119.0680   61.3500 C   0  0  0  0  0  0  0  0  0  0  0  0
  129.7780  117.7020   61.1010 C   0  0  0  0  0  0  0  0  0  0  0  0
  130.6840  117.0850   60.2460 C   0  0  0  0  0  0  0  0  0  0  0  0
  131.6950  117.8250   59.6400 C   0  0  0  0  0  0  0  0  0  0  0  0
  131.7960  119.1910   59.8920 C   0  0  0  0  0  0  0  0  0  0  0  0
  132.2320  121.9510   61.1720 C   0  0  0  0  0  0  0  0  0  0  0  0
  132.3130  123.3280   61.4340 C   0  0  0  0  0  0  0  0  0  0  0  0
  133.7000  123.9660   61.5780 C   0  0  0  0  0  0  0  0  0  0  0  0
  133.7740  124.8380   62.5870 F   0  0  0  0  0  0  0  0  0  0  0  0
  134.6100  123.0190   61.8030 F   0  0  0  0  0  0  0  0  0  0  0  0
  134.0140  124.6210   60.4610 F   0  0  0  0  0  0  0  0  0  0  0  0
  131.0880  124.0440   61.5480 C   0  0  0  0  0  0  0  0  0  0  0  0
  130.7770  125.4290   61.8060 C   0  0  0  0  0  0  0  0  0  0  0  0
  131.7460  126.3800   62.0060 N   0  0  0  0  0  0  0  0  0  0  0  0
  126.2650  128.4040   64.1580 C   0  0  0  0  0  0  0  0  0  0  0  0
  125.3720  129.4560   64.3410 C   0  0  0  0  0  0  0  0  0  0  0  0
  123.8005  133.1200   62.7024 H   0  0  0  0  0  0  0  0  0  0  0  0
  124.7558  132.0203   61.6513 H   0  0  0  0  0  0  0  0  0  0  0  0
  122.9619  131.9289   61.6513 H   0  0  0  0  0  0  0  0  0  0  0  0
  124.6823  130.1690   61.0768 H   0  0  0  0  0  0  0  0  0  0  0  0
  126.2854  128.3005   60.7430 H   0  0  0  0  0  0  0  0  0  0  0  0
  127.1620  126.0120   62.8210 H   0  0  0  0  0  0  0  0  0  0  0  0
  129.1631  119.5505   62.0284 H   0  0  0  0  0  0  0  0  0  0  0  0
  128.9815  117.1130   61.5793 H   0  0  0  0  0  0  0  0  0  0  0  0
  130.6014  116.0062   60.0474 H   0  0  0  0  0  0  0  0  0  0  0  0
  132.4110  117.3332   58.9651 H   0  0  0  0  0  0  0  0  0  0  0  0
  132.5979  119.7717   59.4126 H   0  0  0  0  0  0  0  0  0  0  0  0
  133.1578  121.3640   61.0813 H   0  0  0  0  0  0  0  0  0  0  0  0
  132.7290  126.1710   61.9050 H   0  0  0  0  0  0  0  0  0  0  0  0
  131.5060  127.3270   62.2650 H   0  0  0  0  0  0  0  0  0  0  0  0
  126.7180  127.9099   65.0302 H   0  0  0  0  0  0  0  0  0  0  0  0
  125.1178  129.7862   65.3590 H   0  0  0  0  0  0  0  0  0  0  0  0
  1  2  1  0
  2  3  1  0
  3  4  2  0
  4  5  1  0
  5  6  2  0
  6  7  1  0
  7  8  1  0
  8  9  2  0
  8 10  1  0
 10 11  1  0
 11 12  1  0
 12 13  2  0
 13 14  1  0
 14 15  1  0
 15 16  2  0
 16 17  1  0
 17 18  2  0
 18 19  1  0
 19 20  2  0
 14 21  2  0
 21 22  1  0
 22 23  1  0
 23 24  1  0
 23 25  1  0
 23 26  1  0
 22 27  2  0
 27 28  1  0
 28 29  1  0
  6 30  1  0
 30 31  2  0
 31  3  1  0
 28 10  2  0
 27 12  1  0
 20 15  1  0
  1 32  1  0
  1 33  1  0
  1 34  1  0
  4 35  1  0
  5 36  1  0
  7 37  1  0
 16 38  1  0
 17 39  1  0
 18 40  1  0
 19 41  1  0
 20 42  1  0
 21 43  1  0
 29 44  1  0
 29 45  1  0
 30 46  1  0
 31 47  1  0
M  END
>  <Binding energies>  (1) 
[-7.48]

>  <Ligand effiencies>  (1) 
[-0.22]

>  <Interactions>  (1) 
["V-A:ARG:545:CZ:4926, V-B:TYR:539:C:9839, V-B:GLU:543:CD:9880, V-A:ILE:369:CD1:3239, V-B:TYR:539:CE2:9848, V-A:SER:385:CB:3409, V-B:ASP:366:CG:8185, V-A:PRO:482:CG:4327, V-A:PRO:482:CB:4326, V-B:TYR:539:CB:9843, V-A:LEU:475:CD2:4259, V-B:TYR:539:CD2:9846, V-A:LEU:475:CD1:4258, V-B:ALA:541:CB:9864, V-B:ARG:545:CZ:9898, H-B:TYR:484:OH:9320, V-A:GLU:543:CD:4908, V-B:ILE:369:CD1:8211, H-B:GLY:454:N:9022, V-B:GLY:454:CA:9021, H-A:GLU:543:OE1:4909, V-A:GLY:454:CA:4049, H-A:GLU:543:OE2:4910, V-A:ASP:366:CG:3213, V-A:ASP:366:CB:3212, H-A:ASP:366:OD2:3215, H-A:ASP:366:OD1:3214, V-A:ASP:366:CA:3210, V-A:GLY:453:CA:4044, V-A:GLY:453:C:4042, H-B:GLU:543:OE2:9882, H-B:GLU:543:OE1:9881"]

$$$$
4cd_Grossjean_2025
     RDKit          3D

 43 46  0  0  0  0  0  0  0  0999 V2000
  131.3670  126.6720   61.8310 N   0  0  0  0  0  0  0  0  0  0  0  0
  130.4360  125.6800   61.6550 C   0  0  0  0  0  0  0  0  0  0  0  0
  129.0520  125.9170   61.6410 C   0  0  0  0  0  0  0  0  0  0  0  0
  128.3410  127.1860   61.8210 C   0  0  0  0  0  0  0  0  0  0  0  0
  128.8150  128.2380   61.3910 O   0  0  0  0  0  0  0  0  0  0  0  0
  127.1540  127.1000   62.4700 N   0  0  0  0  0  0  0  0  0  0  0  0
  126.2610  128.1210   62.8450 C   0  0  0  0  0  0  0  0  0  0  0  0
  125.6080  128.7790   61.7980 C   0  0  0  0  0  0  0  0  0  0  0  0
  124.6960  129.7940   62.0670 C   0  0  0  0  0  0  0  0  0  0  0  0
  124.4290  130.1500   63.3860 C   0  0  0  0  0  0  0  0  0  0  0  0
  125.0610  129.4950   64.4390 C   0  0  0  0  0  0  0  0  0  0  0  0
  125.9750  128.4780   64.1740 C   0  0  0  0  0  0  0  0  0  0  0  0
  128.1540  124.4230   61.3820 S   0  0  0  0  0  0  0  0  0  0  0  0
  129.6320  123.4950   61.3020 C   0  0  0  0  0  0  0  0  0  0  0  0
  129.6160  122.1780   61.1090 N   0  0  0  0  0  0  0  0  0  0  0  0
  130.8160  121.5410   61.0750 C   0  0  0  0  0  0  0  0  0  0  0  0
  130.7650  120.0560   60.8580 C   0  0  0  0  0  0  0  0  0  0  0  0
  129.7980  119.2680   61.5020 C   0  0  0  0  0  0  0  0  0  0  0  0
  129.7450  117.8910   61.3050 C   0  0  0  0  0  0  0  0  0  0  0  0
  130.6630  117.2800   60.4570 C   0  0  0  0  0  0  0  0  0  0  0  0
  131.6290  118.0370   59.8050 C   0  0  0  0  0  0  0  0  0  0  0  0
  131.6770  119.4140   60.0030 C   0  0  0  0  0  0  0  0  0  0  0  0
  132.0230  122.2300   61.2160 C   0  0  0  0  0  0  0  0  0  0  0  0
  132.0510  123.6200   61.4170 C   0  0  0  0  0  0  0  0  0  0  0  0
  133.4110  124.3120   61.5680 C   0  0  0  0  0  0  0  0  0  0  0  0
  133.4330  125.2160   62.5510 F   0  0  0  0  0  0  0  0  0  0  0  0
  134.3510  123.4060   61.8380 F   0  0  0  0  0  0  0  0  0  0  0  0
  133.7220  124.9460   60.4370 F   0  0  0  0  0  0  0  0  0  0  0  0
  130.8000  124.2970   61.4660 C   0  0  0  0  0  0  0  0  0  0  0  0
  132.0960  126.8460   61.1550 H   0  0  0  0  0  0  0  0  0  0  0  0
  131.3510  127.2680   62.6470 H   0  0  0  0  0  0  0  0  0  0  0  0
  126.8470  126.1700   62.7140 H   0  0  0  0  0  0  0  0  0  0  0  0
  125.8167  128.4924   60.7567 H   0  0  0  0  0  0  0  0  0  0  0  0
  124.1879  130.3132   61.2410 H   0  0  0  0  0  0  0  0  0  0  0  0
  123.7118  130.9566   63.5981 H   0  0  0  0  0  0  0  0  0  0  0  0
  124.8391  129.7799   65.4781 H   0  0  0  0  0  0  0  0  0  0  0  0
  126.4725  127.9548   65.0039 H   0  0  0  0  0  0  0  0  0  0  0  0
  129.0700  119.7467   62.1735 H   0  0  0  0  0  0  0  0  0  0  0  0
  128.9806  117.2887   61.8176 H   0  0  0  0  0  0  0  0  0  0  0  0
  130.6241  116.1917   60.3017 H   0  0  0  0  0  0  0  0  0  0  0  0
  132.3529  117.5499   59.1351 H   0  0  0  0  0  0  0  0  0  0  0  0
  132.4412  120.0093   59.4818 H   0  0  0  0  0  0  0  0  0  0  0  0
  132.9704  121.6730   61.1687 H   0  0  0  0  0  0  0  0  0  0  0  0
  1  2  1  0
  2  3  2  0
  3  4  1  0
  4  5  2  0
  4  6  1  0
  6  7  1  0
  7  8  2  0
  8  9  1  0
  9 10  2  0
 10 11  1  0
 11 12  2  0
  3 13  1  0
 13 14  1  0
 14 15  2  0
 15 16  1  0
 16 17  1  0
 17 18  2  0
 18 19  1  0
 19 20  2  0
 20 21  1  0
 21 22  2  0
 16 23  2  0
 23 24  1  0
 24 25  1  0
 25 26  1  0
 25 27  1  0
 25 28  1  0
 24 29  2  0
 29  2  1  0
 12  7  1  0
 29 14  1  0
 22 17  1  0
  1 30  1  0
  1 31  1  0
  6 32  1  0
  8 33  1  0
  9 34  1  0
 10 35  1  0
 11 36  1  0
 12 37  1  0
 18 38  1  0
 19 39  1  0
 20 40  1  0
 21 41  1  0
 22 42  1  0
 23 43  1  0
M  END
>  <Binding energies>  (1) 
[-7.26]

>  <Ligand effiencies>  (1) 
[-0.226875]

>  <Interactions>  (1) 
["V-A:ARG:545:CZ:4926, V-B:TYR:539:C:9839, V-B:GLU:543:CD:9880, V-A:ILE:369:CD1:3239, V-B:TYR:539:CE2:9848, V-A:SER:385:CB:3409, V-B:ASP:366:CG:8185, V-A:PRO:482:CG:4327, V-A:PRO:482:CB:4326, V-B:TYR:539:CB:9843, V-A:LEU:475:CD2:4259, V-B:TYR:539:CD2:9846, V-A:LEU:475:CD1:4258, V-B:ALA:541:CB:9864, V-B:ARG:545:CZ:9898, V-A:GLU:543:CD:4908, H-A:GLU:543:OE1:4909, V-A:GLY:454:CA:4049, H-A:GLU:543:OE2:4910, V-A:ASP:366:CG:3213, V-A:ASP:366:CB:3212, H-A:ASP:366:OD2:3215, H-A:ASP:366:OD1:3214, V-A:ASP:366:CA:3210, V-A:GLY:453:CA:4044, V-A:GLY:453:C:4042, H-B:GLU:543:OE2:9882, H-B:GLU:543:OE1:9881"]

$$$$
4ce_Grossjean_2025
     RDKit          3D

 45 48  0  0  0  0  0  0  0  0999 V2000
  124.5020  129.4300   65.9360 C   0  0  0  0  0  0  0  0  0  0  0  0
  125.0190  129.3030   64.5150 C   0  0  0  0  0  0  0  0  0  0  0  0
  124.6370  130.2030   63.5160 C   0  0  0  0  0  0  0  0  0  0  0  0
  125.1590  130.0300   62.2330 C   0  0  0  0  0  0  0  0  0  0  0  0
  126.0390  128.9760   61.9830 C   0  0  0  0  0  0  0  0  0  0  0  0
  126.3760  128.1080   63.0290 C   0  0  0  0  0  0  0  0  0  0  0  0
  127.2860  127.0810   62.7200 N   0  0  0  0  0  0  0  0  0  0  0  0
  128.5410  127.1820   62.2160 C   0  0  0  0  0  0  0  0  0  0  0  0
  129.0920  128.2550   61.9610 O   0  0  0  0  0  0  0  0  0  0  0  0
  129.2310  125.9110   61.9850 C   0  0  0  0  0  0  0  0  0  0  0  0
  128.3090  124.4190   61.8230 S   0  0  0  0  0  0  0  0  0  0  0  0
  129.7670  123.4950   61.5500 C   0  0  0  0  0  0  0  0  0  0  0  0
  129.7270  122.1820   61.3370 N   0  0  0  0  0  0  0  0  0  0  0  0
  130.9110  121.5520   61.1190 C   0  0  0  0  0  0  0  0  0  0  0  0
  130.8310  120.0740   60.8760 C   0  0  0  0  0  0  0  0  0  0  0  0
  131.7320  119.4410   60.0050 C   0  0  0  0  0  0  0  0  0  0  0  0
  131.6590  118.0700   59.7700 C   0  0  0  0  0  0  0  0  0  0  0  0
  130.6820  117.3120   60.4060 C   0  0  0  0  0  0  0  0  0  0  0  0
  129.7770  117.9140   61.2730 C   0  0  0  0  0  0  0  0  0  0  0  0
  129.8520  119.2850   61.5040 C   0  0  0  0  0  0  0  0  0  0  0  0
  132.1290  122.2390   61.1370 C   0  0  0  0  0  0  0  0  0  0  0  0
  132.1830  123.6230   61.3660 C   0  0  0  0  0  0  0  0  0  0  0  0
  133.5510  124.3130   61.3710 C   0  0  0  0  0  0  0  0  0  0  0  0
  133.6970  125.1800   62.3750 F   0  0  0  0  0  0  0  0  0  0  0  0
  134.5160  123.4000   61.4890 F   0  0  0  0  0  0  0  0  0  0  0  0
  133.7200  124.9870   60.2340 F   0  0  0  0  0  0  0  0  0  0  0  0
  130.9460  124.2970   61.5810 C   0  0  0  0  0  0  0  0  0  0  0  0
  130.6080  125.6760   61.8330 C   0  0  0  0  0  0  0  0  0  0  0  0
  131.5520  126.6680   61.9160 N   0  0  0  0  0  0  0  0  0  0  0  0
  125.8740  128.2730   64.2870 N   0  0  0  0  0  0  0  0  0  0  0  0
  125.3202  129.2290   66.6432 H   0  0  0  0  0  0  0  0  0  0  0  0
  124.1198  130.4487   66.0974 H   0  0  0  0  0  0  0  0  0  0  0  0
  123.6913  128.7043   66.0974 H   0  0  0  0  0  0  0  0  0  0  0  0
  123.9423  131.0271   63.7355 H   0  0  0  0  0  0  0  0  0  0  0  0
  124.8784  130.7203   61.4238 H   0  0  0  0  0  0  0  0  0  0  0  0
  126.4620  128.8291   60.9783 H   0  0  0  0  0  0  0  0  0  0  0  0
  126.9640  126.1510   62.9440 H   0  0  0  0  0  0  0  0  0  0  0  0
  132.5071  120.0366   59.5006 H   0  0  0  0  0  0  0  0  0  0  0  0
  132.3715  117.5888   59.0839 H   0  0  0  0  0  0  0  0  0  0  0  0
  130.6248  116.2290   60.2220 H   0  0  0  0  0  0  0  0  0  0  0  0
  129.0058  117.3103   61.7738 H   0  0  0  0  0  0  0  0  0  0  0  0
  129.1333  119.7583   62.1892 H   0  0  0  0  0  0  0  0  0  0  0  0
  133.0635  121.6838   60.9683 H   0  0  0  0  0  0  0  0  0  0  0  0
  132.5360  126.4830   61.7790 H   0  0  0  0  0  0  0  0  0  0  0  0
  131.2930  127.6230   62.1210 H   0  0  0  0  0  0  0  0  0  0  0  0
  1  2  1  0
  2  3  2  0
  3  4  1  0
  4  5  2  0
  5  6  1  0
  6  7  1  0
  7  8  1  0
  8  9  2  0
  8 10  1  0
 10 11  1  0
 11 12  1  0
 12 13  2  0
 13 14  1  0
 14 15  1  0
 15 16  2  0
 16 17  1  0
 17 18  2  0
 18 19  1  0
 19 20  2  0
 14 21  2  0
 21 22  1  0
 22 23  1  0
 23 24  1  0
 23 25  1  0
 23 26  1  0
 22 27  2  0
 27 28  1  0
 28 29  1  0
  6 30  2  0
 30  2  1  0
 28 10  2  0
 27 12  1  0
 20 15  1  0
  1 31  1  0
  1 32  1  0
  1 33  1  0
  3 34  1  0
  4 35  1  0
  5 36  1  0
  7 37  1  0
 16 38  1  0
 17 39  1  0
 18 40  1  0
 19 41  1  0
 20 42  1  0
 21 43  1  0
 29 44  1  0
 29 45  1  0
M  END
>  <Binding energies>  (1) 
[-7.45]

>  <Ligand effiencies>  (1) 
[-0.22575757575757577]

>  <Interactions>  (1) 
["V-A:ARG:545:CZ:4926, V-B:GLU:543:CD:9880, V-A:ILE:369:CD1:3239, V-B:TYR:539:CE2:9848, V-A:SER:385:CB:3409, V-A:PRO:482:CG:4327, V-A:PRO:482:CB:4326, V-B:TYR:539:CB:9843, V-A:LEU:475:CD2:4259, V-B:TYR:539:CD2:9846, V-A:LEU:475:CD1:4258, V-A:LEU:475:CG:4257, V-B:ALA:541:CB:9864, V-B:HIS:456:CE1:9042, V-B:ARG:545:CZ:9898, V-A:GLU:543:CD:4908, H-B:ARG:545:NE:9896, V-B:TYR:484:CZ:9319, H-A:GLU:543:OE1:4909, V-A:GLY:454:CA:4049, H-A:GLU:543:OE2:4910, V-A:ASP:366:CG:3213, V-A:ASP:366:CB:3212, H-A:ASP:366:OD2:3215, H-A:ASP:366:OD1:3214, V-A:ASP:366:CA:3210, V-A:GLY:453:CA:4044, V-A:GLY:453:C:4042, H-B:GLU:543:OE2:9882, H-B:GLU:543:OE1:9881, H-B:ARG:545:NH2:9900, V-B:ARG:545:CG:9894, V-B:ARG:545:CD:9895"]

$$$$
4cf_Grossjean_2025
     RDKit          3D

 42 45  0  0  0  0  0  0  0  0999 V2000
  131.5470  126.6540   61.8280 N   0  0  0  0  0  0  0  0  0  0  0  0
  130.6010  125.6660   61.7230 C   0  0  0  0  0  0  0  0  0  0  0  0
  129.2220  125.9060   61.8380 C   0  0  0  0  0  0  0  0  0  0  0  0
  128.5350  127.1710   62.1140 C   0  0  0  0  0  0  0  0  0  0  0  0
  129.1150  128.2470   61.9600 O   0  0  0  0  0  0  0  0  0  0  0  0
  127.2490  127.0550   62.5270 N   0  0  0  0  0  0  0  0  0  0  0  0
  126.3370  128.0540   62.9170 C   0  0  0  0  0  0  0  0  0  0  0  0
  125.5500  128.8280   62.0430 C   0  0  0  0  0  0  0  0  0  0  0  0
  124.6930  129.8000   62.5640 C   0  0  0  0  0  0  0  0  0  0  0  0
  124.6450  129.9780   63.9460 C   0  0  0  0  0  0  0  0  0  0  0  0
  125.3980  129.2510   64.8100 N   0  0  0  0  0  0  0  0  0  0  0  0
  126.2280  128.3100   64.2880 C   0  0  0  0  0  0  0  0  0  0  0  0
  128.2990  124.4180   61.6450 S   0  0  0  0  0  0  0  0  0  0  0  0
  129.7620  123.4870   61.4210 C   0  0  0  0  0  0  0  0  0  0  0  0
  129.7240  122.1710   61.2200 N   0  0  0  0  0  0  0  0  0  0  0  0
  130.9140  121.5320   61.0730 C   0  0  0  0  0  0  0  0  0  0  0  0
  130.8410  120.0490   60.8540 C   0  0  0  0  0  0  0  0  0  0  0  0
  131.7470  119.4040   59.9970 C   0  0  0  0  0  0  0  0  0  0  0  0
  131.6870  118.0280   59.7900 C   0  0  0  0  0  0  0  0  0  0  0  0
  130.7160  117.2750   60.4420 C   0  0  0  0  0  0  0  0  0  0  0  0
  129.8080  117.8870   61.3000 C   0  0  0  0  0  0  0  0  0  0  0  0
  129.8730  119.2630   61.5040 C   0  0  0  0  0  0  0  0  0  0  0  0
  132.1320  122.2180   61.1040 C   0  0  0  0  0  0  0  0  0  0  0  0
  132.1820  123.6060   61.3120 C   0  0  0  0  0  0  0  0  0  0  0  0
  133.5510  124.2950   61.3400 C   0  0  0  0  0  0  0  0  0  0  0  0
  133.6770  125.1700   62.3400 F   0  0  0  0  0  0  0  0  0  0  0  0
  134.5120  123.3820   61.4860 F   0  0  0  0  0  0  0  0  0  0  0  0
  133.7450  124.9610   60.2020 F   0  0  0  0  0  0  0  0  0  0  0  0
  130.9410  124.2850   61.4850 C   0  0  0  0  0  0  0  0  0  0  0  0
  132.5250  126.4780   61.6440 H   0  0  0  0  0  0  0  0  0  0  0  0
  131.2960  127.5960   62.0930 H   0  0  0  0  0  0  0  0  0  0  0  0
  126.8760  126.1170   62.5600 H   0  0  0  0  0  0  0  0  0  0  0  0
  125.6097  128.6681   60.9563 H   0  0  0  0  0  0  0  0  0  0  0  0
  124.0684  130.4128   61.8974 H   0  0  0  0  0  0  0  0  0  0  0  0
  123.9666  130.7416   64.3543 H   0  0  0  0  0  0  0  0  0  0  0  0
  126.8463  127.7188   64.9795 H   0  0  0  0  0  0  0  0  0  0  0  0
  132.5172  119.9954   59.4803 H   0  0  0  0  0  0  0  0  0  0  0  0
  132.4040  117.5390   59.1141 H   0  0  0  0  0  0  0  0  0  0  0  0
  130.6658  116.1884   60.2781 H   0  0  0  0  0  0  0  0  0  0  0  0
  129.0428  117.2872   61.8145 H   0  0  0  0  0  0  0  0  0  0  0  0
  129.1550  119.7432   62.1851 H   0  0  0  0  0  0  0  0  0  0  0  0
  133.0692  121.6597   60.9627 H   0  0  0  0  0  0  0  0  0  0  0  0
  1  2  1  0
  2  3  2  0
  3  4  1  0
  4  5  2  0
  4  6  1  0
  6  7  1  0
  7  8  2  0
  8  9  1  0
  9 10  2  0
 10 11  1  0
 11 12  2  0
  3 13  1  0
 13 14  1  0
 14 15  2  0
 15 16  1  0
 16 17  1  0
 17 18  2  0
 18 19  1  0
 19 20  2  0
 20 21  1  0
 21 22  2  0
 16 23  2  0
 23 24  1  0
 24 25  1  0
 25 26  1  0
 25 27  1  0
 25 28  1  0
 24 29  2  0
 29  2  1  0
 12  7  1  0
 29 14  1  0
 22 17  1  0
  1 30  1  0
  1 31  1  0
  6 32  1  0
  8 33  1  0
  9 34  1  0
 10 35  1  0
 12 36  1  0
 18 37  1  0
 19 38  1  0
 20 39  1  0
 21 40  1  0
 22 41  1  0
 23 42  1  0
M  END
>  <Binding energies>  (1) 
[-6.89]

>  <Ligand effiencies>  (1) 
[-0.2153125]

>  <Interactions>  (1) 
["V-A:ARG:545:CZ:4926, V-B:GLU:543:CD:9880, V-A:ILE:369:CD1:3239, V-B:TYR:539:CE2:9848, V-A:SER:385:CB:3409, V-B:ASP:366:CG:8185, V-A:PRO:482:CG:4327, V-A:PRO:482:CB:4326, V-B:TYR:539:CB:9843, V-A:LEU:475:CD2:4259, V-B:TYR:539:CD2:9846, V-A:LEU:475:CD1:4258, V-A:LEU:475:CG:4257, V-B:ALA:541:CB:9864, V-B:ARG:545:CZ:9898, H-B:TYR:484:OH:9320, V-A:GLU:543:CD:4908, H-B:ARG:545:NE:9896, H-A:GLU:543:OE1:4909, V-A:GLY:454:CA:4049, H-A:GLU:543:OE2:4910, V-A:ASP:366:CG:3213, V-A:ASP:366:CB:3212, H-A:ASP:366:OD2:3215, H-A:ASP:366:OD1:3214, V-A:ASP:366:CA:3210, V-A:GLY:453:CA:4044, V-A:GLY:453:C:4042, H-B:GLU:543:OE2:9882, H-B:GLU:543:OE1:9881, V-A:ILE:369:CG1:3238, H-B:ARG:545:NH2:9900"]

$$$$
4cg_Grossjean_2025
     RDKit          3D

 46 49  0  0  0  0  0  0  0  0999 V2000
  130.9850  126.6920   62.5490 N   0  0  0  0  0  0  0  0  0  0  0  0
  130.1160  125.6710   62.2600 C   0  0  0  0  0  0  0  0  0  0  0  0
  128.7230  125.8290   62.2440 C   0  0  0  0  0  0  0  0  0  0  0  0
  127.9410  127.0450   62.4640 C   0  0  0  0  0  0  0  0  0  0  0  0
  126.7470  127.1040   62.1620 O   0  0  0  0  0  0  0  0  0  0  0  0
  128.6130  128.0970   62.9760 N   0  0  0  0  0  0  0  0  0  0  0  0
  128.0320  129.3990   63.2980 C   0  0  0  0  0  0  0  0  0  0  0  0
  126.8310  129.3130   64.2320 C   0  0  0  0  0  0  0  0  0  0  0  0
  125.5590  129.6540   63.7620 C   0  0  0  0  0  0  0  0  0  0  0  0
  124.4550  129.5460   64.6030 C   0  0  0  0  0  0  0  0  0  0  0  0
  124.6240  129.0880   65.9080 C   0  0  0  0  0  0  0  0  0  0  0  0
  125.8860  128.7310   66.3770 C   0  0  0  0  0  0  0  0  0  0  0  0
  126.9900  128.8370   65.5360 C   0  0  0  0  0  0  0  0  0  0  0  0
  127.9110  124.3260   61.8170 S   0  0  0  0  0  0  0  0  0  0  0  0
  129.4400  123.4890   61.6860 C   0  0  0  0  0  0  0  0  0  0  0  0
  129.5010  122.2000   61.3640 N   0  0  0  0  0  0  0  0  0  0  0  0
  130.7340  121.6360   61.2820 C   0  0  0  0  0  0  0  0  0  0  0  0
  130.7680  120.1780   60.9170 C   0  0  0  0  0  0  0  0  0  0  0  0
  129.8510  119.2740   61.4770 C   0  0  0  0  0  0  0  0  0  0  0  0
  129.8790  117.9230   61.1440 C   0  0  0  0  0  0  0  0  0  0  0  0
  130.8300  117.4530   60.2430 C   0  0  0  0  0  0  0  0  0  0  0  0
  131.7520  118.3270   59.6760 C   0  0  0  0  0  0  0  0  0  0  0  0
  131.7200  119.6770   60.0130 C   0  0  0  0  0  0  0  0  0  0  0  0
  131.8990  122.3660   61.5420 C   0  0  0  0  0  0  0  0  0  0  0  0
  131.8470  123.7260   61.8840 C   0  0  0  0  0  0  0  0  0  0  0  0
  133.1610  124.4660   62.1570 C   0  0  0  0  0  0  0  0  0  0  0  0
  133.3180  124.7990   63.4400 F   0  0  0  0  0  0  0  0  0  0  0  0
  134.1930  123.6930   61.8160 F   0  0  0  0  0  0  0  0  0  0  0  0
  133.2010  125.5920   61.4450 F   0  0  0  0  0  0  0  0  0  0  0  0
  130.5580  124.3320   61.9580 C   0  0  0  0  0  0  0  0  0  0  0  0
  131.2550  127.3760   61.8560 H   0  0  0  0  0  0  0  0  0  0  0  0
  131.3790  126.8020   63.4730 H   0  0  0  0  0  0  0  0  0  0  0  0
  129.5690  127.9540   63.2670 H   0  0  0  0  0  0  0  0  0  0  0  0
  128.8048  130.0158   63.7800 H   0  0  0  0  0  0  0  0  0  0  0  0
  127.6775  129.8382   62.3538 H   0  0  0  0  0  0  0  0  0  0  0  0
  125.4308  130.0074   62.7282 H   0  0  0  0  0  0  0  0  0  0  0  0
  123.4540  129.8209   64.2391 H   0  0  0  0  0  0  0  0  0  0  0  0
  123.7524  129.0076   66.5743 H   0  0  0  0  0  0  0  0  0  0  0  0
  126.0096  128.3669   67.4076 H   0  0  0  0  0  0  0  0  0  0  0  0
  127.9872  128.5462   65.8978 H   0  0  0  0  0  0  0  0  0  0  0  0
  129.0981  119.6397   62.1907 H   0  0  0  0  0  0  0  0  0  0  0  0
  129.1521  117.2291   61.5913 H   0  0  0  0  0  0  0  0  0  0  0  0
  130.8527  116.3856   59.9780 H   0  0  0  0  0  0  0  0  0  0  0  0
  132.5029  117.9528   58.9646 H   0  0  0  0  0  0  0  0  0  0  0  0
  132.4527  120.3637   59.5639 H   0  0  0  0  0  0  0  0  0  0  0  0
  132.8754  121.8637   61.4770 H   0  0  0  0  0  0  0  0  0  0  0  0
  1  2  1  0
  2  3  2  0
  3  4  1  0
  4  5  2  0
  4  6  1  0
  6  7  1  0
  7  8  1  0
  8  9  2  0
  9 10  1  0
 10 11  2  0
 11 12  1  0
 12 13  2  0
  3 14  1  0
 14 15  1  0
 15 16  2  0
 16 17  1  0
 17 18  1  0
 18 19  2  0
 19 20  1  0
 20 21  2  0
 21 22  1  0
 22 23  2  0
 17 24  2  0
 24 25  1  0
 25 26  1  0
 26 27  1  0
 26 28  1  0
 26 29  1  0
 25 30  2  0
 30  2  1  0
 13  8  1  0
 30 15  1  0
 23 18  1  0
  1 31  1  0
  1 32  1  0
  6 33  1  0
  7 34  1  0
  7 35  1  0
  9 36  1  0
 10 37  1  0
 11 38  1  0
 12 39  1  0
 13 40  1  0
 19 41  1  0
 20 42  1  0
 21 43  1  0
 22 44  1  0
 23 45  1  0
 24 46  1  0
M  END
>  <Binding energies>  (1) 
[-7.82]

>  <Ligand effiencies>  (1) 
[-0.23696969696969697]

>  <Interactions>  (1) 
["V-A:ARG:545:CZ:4926, V-B:GLU:543:CD:9880, V-A:ILE:369:CD1:3239, V-B:TYR:539:CE2:9848, V-A:SER:385:CB:3409, V-A:PRO:482:CG:4327, V-A:PRO:482:CB:4326, V-B:TYR:539:CB:9843, V-A:LEU:475:CD2:4259, V-B:TYR:539:CD2:9846, V-A:LEU:475:CD1:4258, V-B:ALA:541:CB:9864, V-B:HIS:456:CE1:9042, V-B:ARG:545:CZ:9898, V-A:GLU:543:CD:4908, V-A:GLU:543:CG:4907, V-B:TYR:484:CZ:9319, H-A:GLU:543:OE1:4909, V-A:GLY:454:CA:4049, H-A:GLU:543:OE2:4910, V-A:ASP:366:CG:3213, H-A:ASP:366:OD1:3214, V-A:GLY:453:CA:4044, V-A:GLY:453:C:4042, H-B:GLU:543:OE2:9882, H-B:ARG:545:NH2:9900, V-B:ARG:545:CG:9894, V-B:ARG:545:CD:9895"]

$$$$
4ch_Grossjean_2025
     RDKit          3D

 58 61  0  0  0  0  0  0  0  0999 V2000
  126.4780  127.6090   67.1800 C   0  0  0  0  0  0  0  0  0  0  0  0
  125.4660  127.8080   66.1980 O   0  0  0  0  0  0  0  0  0  0  0  0
  125.7320  128.6090   65.1030 C   0  0  0  0  0  0  0  0  0  0  0  0
  126.9400  128.5830   64.3870 C   0  0  0  0  0  0  0  0  0  0  0  0
  127.1390  129.4210   63.2880 C   0  0  0  0  0  0  0  0  0  0  0  0
  128.4670  129.3980   62.5410 C   0  0  0  0  0  0  0  0  0  0  0  0
  128.9930  128.0550   62.2920 N   0  0  0  0  0  0  0  0  0  0  0  0
  128.3660  127.0840   61.5970 C   0  0  0  0  0  0  0  0  0  0  0  0
  127.2660  127.2520   61.0660 O   0  0  0  0  0  0  0  0  0  0  0  0
  129.0870  125.8160   61.4740 C   0  0  0  0  0  0  0  0  0  0  0  0
  128.1970  124.3120   61.2570 S   0  0  0  0  0  0  0  0  0  0  0  0
  129.6810  123.3940   61.1780 C   0  0  0  0  0  0  0  0  0  0  0  0
  129.6740  122.0740   61.0160 N   0  0  0  0  0  0  0  0  0  0  0  0
  130.8780  121.4460   60.9610 C   0  0  0  0  0  0  0  0  0  0  0  0
  130.8340  119.9560   60.7830 C   0  0  0  0  0  0  0  0  0  0  0  0
  131.7580  119.3040   59.9500 C   0  0  0  0  0  0  0  0  0  0  0  0
  131.7230  117.9220   59.7800 C   0  0  0  0  0  0  0  0  0  0  0  0
  130.7590  117.1700   60.4420 C   0  0  0  0  0  0  0  0  0  0  0  0
  129.8280  117.7900   61.2700 C   0  0  0  0  0  0  0  0  0  0  0  0
  129.8660  119.1720   61.4350 C   0  0  0  0  0  0  0  0  0  0  0  0
  132.0820  122.1460   61.0860 C   0  0  0  0  0  0  0  0  0  0  0  0
  132.1020  123.5400   61.2590 C   0  0  0  0  0  0  0  0  0  0  0  0
  133.4570  124.2440   61.3900 C   0  0  0  0  0  0  0  0  0  0  0  0
  133.9050  124.7380   60.2340 F   0  0  0  0  0  0  0  0  0  0  0  0
  133.3560  125.2600   62.2460 F   0  0  0  0  0  0  0  0  0  0  0  0
  134.3710  123.3830   61.8360 F   0  0  0  0  0  0  0  0  0  0  0  0
  130.8450  124.2090   61.3060 C   0  0  0  0  0  0  0  0  0  0  0  0
  130.4730  125.5940   61.4620 C   0  0  0  0  0  0  0  0  0  0  0  0
  131.3950  126.6010   61.5980 N   0  0  0  0  0  0  0  0  0  0  0  0
  126.1310  130.3070   62.9070 C   0  0  0  0  0  0  0  0  0  0  0  0
  124.9130  130.3560   63.6060 C   0  0  0  0  0  0  0  0  0  0  0  0
  123.8720  131.2070   63.2820 O   0  0  0  0  0  0  0  0  0  0  0  0
  123.8680  131.8570   62.0160 C   0  0  0  0  0  0  0  0  0  0  0  0
  124.7240  129.4970   64.6980 C   0  0  0  0  0  0  0  0  0  0  0  0
  123.5440  129.5440   65.3990 O   0  0  0  0  0  0  0  0  0  0  0  0
  123.6990  129.8820   66.7710 C   0  0  0  0  0  0  0  0  0  0  0  0
  126.0369  127.6957   68.1839 H   0  0  0  0  0  0  0  0  0  0  0  0
  126.9161  126.6075   67.0573 H   0  0  0  0  0  0  0  0  0  0  0  0
  127.2627  128.3700   67.0573 H   0  0  0  0  0  0  0  0  0  0  0  0
  127.7396  127.8936   64.6960 H   0  0  0  0  0  0  0  0  0  0  0  0
  128.3260  129.8983   61.5716 H   0  0  0  0  0  0  0  0  0  0  0  0
  129.1992  129.9099   63.1828 H   0  0  0  0  0  0  0  0  0  0  0  0
  129.8680  127.8300   62.7450 H   0  0  0  0  0  0  0  0  0  0  0  0
  132.5220  119.8946   59.4231 H   0  0  0  0  0  0  0  0  0  0  0  0
  132.4551  117.4275   59.1246 H   0  0  0  0  0  0  0  0  0  0  0  0
  130.7320  116.0782   60.3105 H   0  0  0  0  0  0  0  0  0  0  0  0
  129.0663  117.1915   61.7912 H   0  0  0  0  0  0  0  0  0  0  0  0
  129.1258  119.6590   62.0868 H   0  0  0  0  0  0  0  0  0  0  0  0
  133.0327  121.5940   61.0481 H   0  0  0  0  0  0  0  0  0  0  0  0
  131.3150  127.3050   62.3180 H   0  0  0  0  0  0  0  0  0  0  0  0
  132.1920  126.6700   60.9810 H   0  0  0  0  0  0  0  0  0  0  0  0
  126.2917  130.9757   62.0485 H   0  0  0  0  0  0  0  0  0  0  0  0
  123.8613  132.9470   62.1635 H   0  0  0  0  0  0  0  0  0  0  0  0
  124.7679  131.5687   61.4530 H   0  0  0  0  0  0  0  0  0  0  0  0
  122.9717  131.5577   61.4530 H   0  0  0  0  0  0  0  0  0  0  0  0
  123.3217  129.0593   67.3962 H   0  0  0  0  0  0  0  0  0  0  0  0
  124.7640  130.0497   66.9893 H   0  0  0  0  0  0  0  0  0  0  0  0
  123.1312  130.7985   66.9893 H   0  0  0  0  0  0  0  0  0  0  0  0
  1  2  1  0
  2  3  1  0
  3  4  2  0
  4  5  1  0
  5  6  1  0
  6  7  1  0
  7  8  1  0
  8  9  2  0
  8 10  1  0
 10 11  1  0
 11 12  1  0
 12 13  2  0
 13 14  1  0
 14 15  1  0
 15 16  2  0
 16 17  1  0
 17 18  2  0
 18 19  1  0
 19 20  2  0
 14 21  2  0
 21 22  1  0
 22 23  1  0
 23 24  1  0
 23 25  1  0
 23 26  1  0
 22 27  2  0
 27 28  1  0
 28 29  1  0
  5 30  2  0
 30 31  1  0
 31 32  1  0
 32 33  1  0
 31 34  2  0
 34 35  1  0
 35 36  1  0
 34  3  1  0
 28 10  2  0
 27 12  1  0
 20 15  1  0
  1 37  1  0
  1 38  1  0
  1 39  1  0
  4 40  1  0
  6 41  1  0
  6 42  1  0
  7 43  1  0
 16 44  1  0
 17 45  1  0
 18 46  1  0
 19 47  1  0
 20 48  1  0
 21 49  1  0
 29 50  1  0
 29 51  1  0
 30 52  1  0
 33 53  1  0
 33 54  1  0
 33 55  1  0
 36 56  1  0
 36 57  1  0
 36 58  1  0
M  END
>  <Binding energies>  (1) 
[-7.77]

>  <Ligand effiencies>  (1) 
[-0.1992307692307692]

>  <Interactions>  (1) 
["V-A:ARG:545:CZ:4926, V-B:TYR:539:C:9839, V-B:GLU:543:CD:9880, V-A:ILE:369:CD1:3239, V-B:TYR:539:CE2:9848, V-A:SER:385:CB:3409, V-A:PRO:482:CG:4327, V-A:PRO:482:CB:4326, V-A:LEU:475:CD2:4259, V-B:TYR:539:CD2:9846, V-A:LEU:475:CD1:4258, V-A:LEU:475:CG:4257, V-B:ALA:541:CB:9864, V-B:HIS:456:CE1:9042, V-B:ARG:545:CZ:9898, H-B:TYR:484:OH:9320, V-A:GLU:543:CD:4908, V-B:GLY:453:C:9014, V-B:ILE:369:CD1:8211, H-B:ARG:545:NE:9896, V-B:TYR:484:CZ:9319, H-B:GLY:454:N:9022, V-B:GLY:454:CA:9021, H-A:GLU:543:OE1:4909, V-A:GLY:454:CA:4049, H-A:GLU:543:OE2:4910, V-A:ASP:366:CG:3213, V-A:ASP:366:CB:3212, H-A:ASP:366:OD2:3215, H-A:ASP:366:OD1:3214, V-A:ASP:366:CA:3210, V-A:GLY:453:CA:4044, V-A:GLY:453:C:4042, H-B:ARG:545:NH2:9900, V-B:ARG:545:CG:9894, V-B:ARG:545:CD:9895, V-B:TYR:484:CE1:9317, H-B:ARG:545:NH1:9899, V-B:GLY:453:CA:9016, V-B:GLU:543:CB:9878, V-B:ILE:455:C:9024, V-B:GLY:454:C:9019"]

$$$$
4ci_Grossjean_2025
     RDKit          3D

 39 42  0  0  0  0  0  0  0  0999 V2000
  130.2640  127.1990   62.2420 N   0  0  0  0  0  0  0  0  0  0  0  0
  129.4580  126.1240   61.9710 C   0  0  0  0  0  0  0  0  0  0  0  0
  128.0650  126.2240   61.8260 C   0  0  0  0  0  0  0  0  0  0  0  0
  127.2210  127.4190   61.9140 C   0  0  0  0  0  0  0  0  0  0  0  0
  127.1030  128.1780   60.9490 O   0  0  0  0  0  0  0  0  0  0  0  0
  126.6130  127.6180   63.1100 N   0  0  0  0  0  0  0  0  0  0  0  0
  125.7700  128.6620   63.4670 C   0  0  0  0  0  0  0  0  0  0  0  0
  125.4470  129.7110   62.6060 C   0  0  0  0  0  0  0  0  0  0  0  0
  124.6030  130.5210   63.3280 C   0  0  0  0  0  0  0  0  0  0  0  0
  124.4240  129.9870   64.5610 O   0  0  0  0  0  0  0  0  0  0  0  0
  125.1700  128.8100   64.6360 N   0  0  0  0  0  0  0  0  0  0  0  0
  127.3470  124.6540   61.4720 S   0  0  0  0  0  0  0  0  0  0  0  0
  128.9110  123.8760   61.5300 C   0  0  0  0  0  0  0  0  0  0  0  0
  129.0450  122.5670   61.3240 N   0  0  0  0  0  0  0  0  0  0  0  0
  130.3000  122.0530   61.3850 C   0  0  0  0  0  0  0  0  0  0  0  0
  130.4180  120.5730   61.1530 C   0  0  0  0  0  0  0  0  0  0  0  0
  131.4490  120.0490   60.3560 C   0  0  0  0  0  0  0  0  0  0  0  0
  131.5650  118.6780   60.1390 C   0  0  0  0  0  0  0  0  0  0  0  0
  130.6450  117.8090   60.7170 C   0  0  0  0  0  0  0  0  0  0  0  0
  129.6120  118.3010   61.5060 C   0  0  0  0  0  0  0  0  0  0  0  0
  129.5000  119.6720   61.7200 C   0  0  0  0  0  0  0  0  0  0  0  0
  131.4120  122.8520   61.6700 C   0  0  0  0  0  0  0  0  0  0  0  0
  131.2830  124.2330   61.8880 C   0  0  0  0  0  0  0  0  0  0  0  0
  132.5440  125.0490   62.1950 C   0  0  0  0  0  0  0  0  0  0  0  0
  133.6670  124.3340   62.0980 F   0  0  0  0  0  0  0  0  0  0  0  0
  132.6420  126.0640   61.3370 F   0  0  0  0  0  0  0  0  0  0  0  0
  132.4810  125.5270   63.4380 F   0  0  0  0  0  0  0  0  0  0  0  0
  129.9720  124.7850   61.8130 C   0  0  0  0  0  0  0  0  0  0  0  0
  130.1990  128.0620   61.7210 H   0  0  0  0  0  0  0  0  0  0  0  0
  130.9510  127.1670   62.9840 H   0  0  0  0  0  0  0  0  0  0  0  0
  126.7880  126.9370   63.8330 H   0  0  0  0  0  0  0  0  0  0  0  0
  125.7930  129.8583   61.5723 H   0  0  0  0  0  0  0  0  0  0  0  0
  124.1462  131.4530   62.9636 H   0  0  0  0  0  0  0  0  0  0  0  0
  132.1771  120.7329   59.8954 H   0  0  0  0  0  0  0  0  0  0  0  0
  132.3799  118.2843   59.5138 H   0  0  0  0  0  0  0  0  0  0  0  0
  130.7357  116.7258   60.5485 H   0  0  0  0  0  0  0  0  0  0  0  0
  128.8860  117.6101   61.9594 H   0  0  0  0  0  0  0  0  0  0  0  0
  128.6793  120.0567   62.3433 H   0  0  0  0  0  0  0  0  0  0  0  0
  132.4083  122.3889   61.7245 H   0  0  0  0  0  0  0  0  0  0  0  0
  1  2  1  0
  2  3  2  0
  3  4  1  0
  4  5  2  0
  4  6  1  0
  6  7  1  0
  7  8  1  0
  8  9  2  0
  9 10  1  0
 10 11  1  0
  3 12  1  0
 12 13  1  0
 13 14  2  0
 14 15  1  0
 15 16  1  0
 16 17  2  0
 17 18  1  0
 18 19  2  0
 19 20  1  0
 20 21  2  0
 15 22  2  0
 22 23  1  0
 23 24  1  0
 24 25  1  0
 24 26  1  0
 24 27  1  0
 23 28  2  0
 28  2  1  0
 11  7  2  0
 28 13  1  0
 21 16  1  0
  1 29  1  0
  1 30  1  0
  6 31  1  0
  8 32  1  0
  9 33  1  0
 17 34  1  0
 18 35  1  0
 19 36  1  0
 20 37  1  0
 21 38  1  0
 22 39  1  0
M  END
>  <Binding energies>  (1) 
[-7.32]

>  <Ligand effiencies>  (1) 
[-0.23612903225806453]

>  <Interactions>  (1) 
["V-A:ARG:545:CZ:4926, V-B:TYR:539:C:9839, V-B:GLU:543:CD:9880, V-A:ILE:369:CD1:3239, V-B:TYR:539:CE2:9848, V-B:PRO:540:C:9853, V-A:SER:385:CB:3409, V-A:PRO:482:CG:4327, V-A:PRO:482:CB:4326, V-A:LEU:475:CD2:4259, V-B:TYR:539:CD2:9846, V-A:LEU:475:CD1:4258, V-A:LEU:475:CG:4257, V-B:ALA:541:CB:9864, V-B:ARG:545:CZ:9898, H-B:TYR:484:OH:9320, V-A:GLU:543:CD:4908, H-B:ARG:545:NE:9896, H-B:GLY:454:N:9022, H-A:GLU:543:OE1:4909, H-A:GLU:543:OE2:4910, V-A:ASP:366:CG:3213, H-B:GLU:543:OE2:9882, H-B:GLU:543:OE1:9881, H-B:ARG:545:NH2:9900"]

$$$$
4cj_Grossjean_2025
     RDKit          3D

 39 42  0  0  0  0  0  0  0  0999 V2000
  131.4810  126.6540   61.8410 N   0  0  0  0  0  0  0  0  0  0  0  0
  130.5360  125.6620   61.7690 C   0  0  0  0  0  0  0  0  0  0  0  0
  129.1590  125.9000   61.9090 C   0  0  0  0  0  0  0  0  0  0  0  0
  128.4710  127.1730   62.1400 C   0  0  0  0  0  0  0  0  0  0  0  0
  129.0380  128.2460   61.9200 O   0  0  0  0  0  0  0  0  0  0  0  0
  127.2030  127.0720   62.6110 N   0  0  0  0  0  0  0  0  0  0  0  0
  126.3390  128.1170   62.9110 C   0  0  0  0  0  0  0  0  0  0  0  0
  125.6370  128.8490   62.0730 N   0  0  0  0  0  0  0  0  0  0  0  0
  124.9190  129.7560   62.7050 C   0  0  0  0  0  0  0  0  0  0  0  0
  125.0300  129.7710   64.0930 C   0  0  0  0  0  0  0  0  0  0  0  0
  126.1390  128.5250   64.5850 S   0  0  0  0  0  0  0  0  0  0  0  0
  128.2350  124.4080   61.7490 S   0  0  0  0  0  0  0  0  0  0  0  0
  129.6950  123.4800   61.4980 C   0  0  0  0  0  0  0  0  0  0  0  0
  129.6540  122.1660   61.2940 N   0  0  0  0  0  0  0  0  0  0  0  0
  130.8380  121.5300   61.1010 C   0  0  0  0  0  0  0  0  0  0  0  0
  130.7570  120.0490   60.8600 C   0  0  0  0  0  0  0  0  0  0  0  0
  129.7800  119.2700   61.5010 C   0  0  0  0  0  0  0  0  0  0  0  0
  129.7020  117.8960   61.2870 C   0  0  0  0  0  0  0  0  0  0  0  0
  130.6060  117.2800   60.4270 C   0  0  0  0  0  0  0  0  0  0  0  0
  131.5840  118.0280   59.7810 C   0  0  0  0  0  0  0  0  0  0  0  0
  131.6570  119.4010   59.9980 C   0  0  0  0  0  0  0  0  0  0  0  0
  132.0580  122.2130   61.1380 C   0  0  0  0  0  0  0  0  0  0  0  0
  132.1130  123.5990   61.3550 C   0  0  0  0  0  0  0  0  0  0  0  0
  133.4830  124.2850   61.3800 C   0  0  0  0  0  0  0  0  0  0  0  0
  133.6270  125.1300   62.4030 F   0  0  0  0  0  0  0  0  0  0  0  0
  134.4440  123.3670   61.4830 F   0  0  0  0  0  0  0  0  0  0  0  0
  133.6600  124.9830   60.2580 F   0  0  0  0  0  0  0  0  0  0  0  0
  130.8750  124.2790   61.5390 C   0  0  0  0  0  0  0  0  0  0  0  0
  132.4650  126.4660   61.7090 H   0  0  0  0  0  0  0  0  0  0  0  0
  131.2220  127.6140   62.0250 H   0  0  0  0  0  0  0  0  0  0  0  0
  126.8410  126.1440   62.7740 H   0  0  0  0  0  0  0  0  0  0  0  0
  124.2689  130.4612   62.1664 H   0  0  0  0  0  0  0  0  0  0  0  0
  124.5017  130.4595   64.7689 H   0  0  0  0  0  0  0  0  0  0  0  0
  129.0648  119.7528   62.1831 H   0  0  0  0  0  0  0  0  0  0  0  0
  128.9294  117.3006   61.7954 H   0  0  0  0  0  0  0  0  0  0  0  0
  130.5466  116.1948   60.2572 H   0  0  0  0  0  0  0  0  0  0  0  0
  132.2965  117.5371   59.1018 H   0  0  0  0  0  0  0  0  0  0  0  0
  132.4329  119.9887   59.4856 H   0  0  0  0  0  0  0  0  0  0  0  0
  132.9936  121.6527   60.9941 H   0  0  0  0  0  0  0  0  0  0  0  0
  1  2  1  0
  2  3  2  0
  3  4  1  0
  4  5  2  0
  4  6  1  0
  6  7  1  0
  7  8  2  0
  8  9  1  0
  9 10  2  0
 10 11  1  0
  3 12  1  0
 12 13  1  0
 13 14  2  0
 14 15  1  0
 15 16  1  0
 16 17  2  0
 17 18  1  0
 18 19  2  0
 19 20  1  0
 20 21  2  0
 15 22  2  0
 22 23  1  0
 23 24  1  0
 24 25  1  0
 24 26  1  0
 24 27  1  0
 23 28  2  0
 28  2  1  0
 11  7  1  0
 28 13  1  0
 21 16  1  0
  1 29  1  0
  1 30  1  0
  6 31  1  0
  9 32  1  0
 10 33  1  0
 17 34  1  0
 18 35  1  0
 19 36  1  0
 20 37  1  0
 21 38  1  0
 22 39  1  0
M  END
>  <Binding energies>  (1) 
[-6.7]

>  <Ligand effiencies>  (1) 
[-0.2161290322580645]

>  <Interactions>  (1) 
["V-A:ARG:545:CZ:4926, V-B:TYR:539:C:9839, V-B:GLU:543:CD:9880, V-A:ILE:369:CD1:3239, V-B:TYR:539:CE2:9848, V-A:SER:385:CB:3409, V-A:PRO:482:CG:4327, V-A:PRO:482:CB:4326, V-B:TYR:539:CB:9843, V-A:LEU:475:CD2:4259, V-B:TYR:539:CD2:9846, V-A:LEU:475:CD1:4258, V-B:ALA:541:CB:9864, V-B:ARG:545:CZ:9898, V-A:GLU:543:CD:4908, H-A:GLU:543:OE1:4909, V-A:GLY:454:CA:4049, H-A:GLU:543:OE2:4910, V-A:ASP:366:CG:3213, V-A:ASP:366:CB:3212, H-A:ASP:366:OD2:3215, H-A:ASP:366:OD1:3214, V-A:ASP:366:CA:3210, V-A:GLY:453:CA:4044, V-A:GLY:453:C:4042, H-B:GLU:543:OE2:9882, H-B:GLU:543:OE1:9881, H-B:ARG:545:NH2:9900"]

$$$$
4ck_Grossjean_2025
     RDKit          3D

 57 59  0  0  0  0  0  0  0  0999 V2000
  132.8780  131.3740   62.0470 C   0  0  0  0  0  0  0  0  0  0  0  0
  132.0430  132.0420   61.1140 O   0  0  0  0  0  0  0  0  0  0  0  0
  131.6930  131.2410   59.9950 C   0  0  0  0  0  0  0  0  0  0  0  0
  130.5960  130.2520   60.4110 C   0  0  0  0  0  0  0  0  0  0  0  0
  129.3270  130.8620   60.2250 O   0  0  0  0  0  0  0  0  0  0  0  0
  129.1080  131.9850   61.0690 C   0  0  0  0  0  0  0  0  0  0  0  0
  128.7670  131.4930   62.4810 C   0  0  0  0  0  0  0  0  0  0  0  0
  128.3300  130.1440   62.4030 O   0  0  0  0  0  0  0  0  0  0  0  0
  126.9600  129.9630   62.7350 C   0  0  0  0  0  0  0  0  0  0  0  0
  126.8230  128.8230   63.7560 C   0  0  0  0  0  0  0  0  0  0  0  0
  127.6020  127.6450   63.3730 N   0  0  0  0  0  0  0  0  0  0  0  0
  127.8120  127.2130   62.1120 C   0  0  0  0  0  0  0  0  0  0  0  0
  127.3760  127.8050   61.1240 O   0  0  0  0  0  0  0  0  0  0  0  0
  128.6080  125.9920   61.9790 C   0  0  0  0  0  0  0  0  0  0  0  0
  127.8290  124.4720   61.5460 S   0  0  0  0  0  0  0  0  0  0  0  0
  129.3640  123.6360   61.5440 C   0  0  0  0  0  0  0  0  0  0  0  0
  129.4480  122.3380   61.2630 N   0  0  0  0  0  0  0  0  0  0  0  0
  130.6840  121.7750   61.2870 C   0  0  0  0  0  0  0  0  0  0  0  0
  130.7470  120.3130   60.9480 C   0  0  0  0  0  0  0  0  0  0  0  0
  131.7230  119.8210   60.0670 C   0  0  0  0  0  0  0  0  0  0  0  0
  131.7850  118.4670   59.7460 C   0  0  0  0  0  0  0  0  0  0  0  0
  130.8680  117.5830   60.3050 C   0  0  0  0  0  0  0  0  0  0  0  0
  129.8940  118.0430   61.1850 C   0  0  0  0  0  0  0  0  0  0  0  0
  129.8360  119.3980   61.5030 C   0  0  0  0  0  0  0  0  0  0  0  0
  131.8300  122.5200   61.5840 C   0  0  0  0  0  0  0  0  0  0  0  0
  131.7520  123.8890   61.8830 C   0  0  0  0  0  0  0  0  0  0  0  0
  133.0480  124.6440   62.2040 C   0  0  0  0  0  0  0  0  0  0  0  0
  133.1260  125.0310   63.4780 F   0  0  0  0  0  0  0  0  0  0  0  0
  134.0980  123.8620   61.9590 F   0  0  0  0  0  0  0  0  0  0  0  0
  133.1290  125.7400   61.4480 F   0  0  0  0  0  0  0  0  0  0  0  0
  130.4610  124.4900   61.8630 C   0  0  0  0  0  0  0  0  0  0  0  0
  129.9970  125.8360   62.1000 C   0  0  0  0  0  0  0  0  0  0  0  0
  130.8430  126.8670   62.4190 N   0  0  0  0  0  0  0  0  0  0  0  0
  132.5613  131.6273   63.0695 H   0  0  0  0  0  0  0  0  0  0  0  0
  132.7989  130.2871   61.8973 H   0  0  0  0  0  0  0  0  0  0  0  0
  133.9210  131.6898   61.8973 H   0  0  0  0  0  0  0  0  0  0  0  0
  131.3214  131.8838   59.1834 H   0  0  0  0  0  0  0  0  0  0  0  0
  132.5767  130.6887   59.6428 H   0  0  0  0  0  0  0  0  0  0  0  0
  130.6633  129.3452   59.7920 H   0  0  0  0  0  0  0  0  0  0  0  0
  130.7247  129.9783   61.4686 H   0  0  0  0  0  0  0  0  0  0  0  0
  130.0177  132.6025   61.1038 H   0  0  0  0  0  0  0  0  0  0  0  0
  128.2760  132.5874   60.6756 H   0  0  0  0  0  0  0  0  0  0  0  0
  129.6601  131.5558   63.1200 H   0  0  0  0  0  0  0  0  0  0  0  0
  127.9721  132.1188   62.9128 H   0  0  0  0  0  0  0  0  0  0  0  0
  126.5626  130.8925   63.1687 H   0  0  0  0  0  0  0  0  0  0  0  0
  126.3945  129.7093   61.8263 H   0  0  0  0  0  0  0  0  0  0  0  0
  127.1764  129.1791   64.7349 H   0  0  0  0  0  0  0  0  0  0  0  0
  125.7635  128.5301   63.7968 H   0  0  0  0  0  0  0  0  0  0  0  0
  128.0660  127.1570   64.1250 H   0  0  0  0  0  0  0  0  0  0  0  0
  132.4507  120.5161   59.6229 H   0  0  0  0  0  0  0  0  0  0  0  0
  132.5559  118.0983   59.0533 H   0  0  0  0  0  0  0  0  0  0  0  0
  130.9134  116.5140   60.0497 H   0  0  0  0  0  0  0  0  0  0  0  0
  129.1729  117.3401   61.6277 H   0  0  0  0  0  0  0  0  0  0  0  0
  129.0646  119.7577   62.1998 H   0  0  0  0  0  0  0  0  0  0  0  0
  132.8114  122.0232   61.5832 H   0  0  0  0  0  0  0  0  0  0  0  0
  130.9910  127.6510   61.7990 H   0  0  0  0  0  0  0  0  0  0  0  0
  131.3460  126.8810   63.2960 H   0  0  0  0  0  0  0  0  0  0  0  0
  1  2  1  0
  2  3  1  0
  3  4  1  0
  4  5  1  0
  5  6  1  0
  6  7  1  0
  7  8  1  0
  8  9  1  0
  9 10  1  0
 10 11  1  0
 11 12  1  0
 12 13  2  0
 12 14  1  0
 14 15  1  0
 15 16  1  0
 16 17  2  0
 17 18  1  0
 18 19  1  0
 19 20  2  0
 20 21  1  0
 21 22  2  0
 22 23  1  0
 23 24  2  0
 18 25  2  0
 25 26  1  0
 26 27  1  0
 27 28  1  0
 27 29  1  0
 27 30  1  0
 26 31  2  0
 31 32  1  0
 32 33  1  0
 32 14  2  0
 31 16  1  0
 24 19  1  0
  1 34  1  0
  1 35  1  0
  1 36  1  0
  3 37  1  0
  3 38  1  0
  4 39  1  0
  4 40  1  0
  6 41  1  0
  6 42  1  0
  7 43  1  0
  7 44  1  0
  9 45  1  0
  9 46  1  0
 10 47  1  0
 10 48  1  0
 11 49  1  0
 20 50  1  0
 21 51  1  0
 22 52  1  0
 23 53  1  0
 24 54  1  0
 25 55  1  0
 33 56  1  0
 33 57  1  0
M  END
>  <Binding energies>  (1) 
[-6.23]

>  <Ligand effiencies>  (1) 
[-0.17305555555555557]

>  <Interactions>  (1) 
["V-A:ARG:545:CZ:4926, V-B:GLU:543:CD:9880, V-A:ILE:369:CD1:3239, V-B:TYR:539:CE2:9848, V-A:SER:385:CB:3409, V-A:PRO:482:CG:4327, V-A:PRO:482:CB:4326, V-A:LEU:475:CD2:4259, V-B:TYR:539:CD2:9846, V-A:LEU:475:CD1:4258, V-A:LEU:475:CG:4257, V-B:ALA:541:CB:9864, V-A:GLU:543:CD:4908, V-A:GLU:543:CG:4907, H-A:GLU:543:OE1:4909, V-A:GLY:454:CA:4049, H-A:GLU:543:OE2:4910, V-A:ASP:366:CG:3213, H-A:ASP:366:OD1:3214, V-A:GLY:453:CA:4044, V-A:GLY:453:C:4042, H-B:GLU:543:OE2:9882, H-B:GLU:543:OE1:9881, V-A:PRO:540:CA:4883, V-A:PRO:540:CB:4885, H-A:ALA:541:N:4891, V-A:ASN:362:CB:3176, V-A:ALA:541:CB:4892, V-A:ALA:541:C:4888, V-A:ASN:362:CG:3177"]

$$$$
4dd_Grossjean_2025
     RDKit          3D

 43 46  0  0  0  0  0  0  0  0999 V2000
  133.5210  124.3250   61.1860 C   0  0  0  0  0  0  0  0  0  0  0  0
  132.1680  123.6310   61.2310 C   0  0  0  0  0  0  0  0  0  0  0  0
  132.1310  122.2450   61.0350 C   0  0  0  0  0  0  0  0  0  0  0  0
  130.9170  121.5470   61.0650 C   0  0  0  0  0  0  0  0  0  0  0  0
  130.8460  120.0640   60.8530 C   0  0  0  0  0  0  0  0  0  0  0  0
  129.8680  119.2900   61.4990 C   0  0  0  0  0  0  0  0  0  0  0  0
  129.7950  117.9130   61.3040 C   0  0  0  0  0  0  0  0  0  0  0  0
  130.7030  117.2880   60.4580 C   0  0  0  0  0  0  0  0  0  0  0  0
  131.6810  118.0290   59.8040 C   0  0  0  0  0  0  0  0  0  0  0  0
  131.7500  119.4060   60.0000 C   0  0  0  0  0  0  0  0  0  0  0  0
  129.7290  122.1790   61.2710 N   0  0  0  0  0  0  0  0  0  0  0  0
  129.7640  123.4970   61.4640 C   0  0  0  0  0  0  0  0  0  0  0  0
  128.3150  124.4310   61.7580 S   0  0  0  0  0  0  0  0  0  0  0  0
  129.2470  125.9240   61.8870 C   0  0  0  0  0  0  0  0  0  0  0  0
  128.5760  127.1950   62.1670 C   0  0  0  0  0  0  0  0  0  0  0  0
  129.1440  128.2660   61.9500 O   0  0  0  0  0  0  0  0  0  0  0  0
  127.3180  127.0900   62.6610 N   0  0  0  0  0  0  0  0  0  0  0  0
  126.4320  128.1000   63.0790 C   0  0  0  0  0  0  0  0  0  0  0  0
  125.8090  128.8270   62.0610 C   0  0  0  0  0  0  0  0  0  0  0  0
  124.9040  129.8380   62.3720 C   0  0  0  0  0  0  0  0  0  0  0  0
  124.6150  130.1190   63.7050 C   0  0  0  0  0  0  0  0  0  0  0  0
  125.2190  129.3950   64.7290 C   0  0  0  0  0  0  0  0  0  0  0  0
  126.1250  128.3830   64.4210 C   0  0  0  0  0  0  0  0  0  0  0  0
  130.6170  125.6820   61.7010 C   0  0  0  0  0  0  0  0  0  0  0  0
  131.5780  126.6620   61.7430 N   0  0  0  0  0  0  0  0  0  0  0  0
  130.9390  124.3010   61.4600 C   0  0  0  0  0  0  0  0  0  0  0  0
  133.8744  124.5063   62.2118 H   0  0  0  0  0  0  0  0  0  0  0  0
  134.2434  123.6861   60.6568 H   0  0  0  0  0  0  0  0  0  0  0  0
  133.4236  125.2844   60.6568 H   0  0  0  0  0  0  0  0  0  0  0  0
  133.0677  121.6971   60.8551 H   0  0  0  0  0  0  0  0  0  0  0  0
  129.1474  119.7799   62.1704 H   0  0  0  0  0  0  0  0  0  0  0  0
  129.0218  117.3226   61.8175 H   0  0  0  0  0  0  0  0  0  0  0  0
  130.6477  116.2001   60.3047 H   0  0  0  0  0  0  0  0  0  0  0  0
  132.3971  117.5297   59.1347 H   0  0  0  0  0  0  0  0  0  0  0  0
  132.5242  119.9885   59.4791 H   0  0  0  0  0  0  0  0  0  0  0  0
  126.9450  126.1550   62.7320 H   0  0  0  0  0  0  0  0  0  0  0  0
  126.0348  128.5992   61.0088 H   0  0  0  0  0  0  0  0  0  0  0  0
  124.4194  130.4122   61.5686 H   0  0  0  0  0  0  0  0  0  0  0  0
  123.9029  130.9205   63.9510 H   0  0  0  0  0  0  0  0  0  0  0  0
  124.9814  129.6216   65.7789 H   0  0  0  0  0  0  0  0  0  0  0  0
  126.6001  127.8055   65.2277 H   0  0  0  0  0  0  0  0  0  0  0  0
  131.3490  127.6270   61.9360 H   0  0  0  0  0  0  0  0  0  0  0  0
  132.5520  126.4470   61.5840 H   0  0  0  0  0  0  0  0  0  0  0  0
  1  2  1  0
  2  3  2  0
  3  4  1  0
  4  5  1  0
  5  6  2  0
  6  7  1  0
  7  8  2  0
  8  9  1  0
  9 10  2  0
  4 11  2  0
 11 12  1  0
 12 13  1  0
 13 14  1  0
 14 15  1  0
 15 16  2  0
 15 17  1  0
 17 18  1  0
 18 19  2  0
 19 20  1  0
 20 21  2  0
 21 22  1  0
 22 23  2  0
 14 24  2  0
 24 25  1  0
 24 26  1  0
 26  2  1  0
 10  5  1  0
 26 12  2  0
 23 18  1  0
  1 27  1  0
  1 28  1  0
  1 29  1  0
  3 30  1  0
  6 31  1  0
  7 32  1  0
  8 33  1  0
  9 34  1  0
 10 35  1  0
 17 36  1  0
 19 37  1  0
 20 38  1  0
 21 39  1  0
 22 40  1  0
 23 41  1  0
 25 42  1  0
 25 43  1  0
M  END
>  <Binding energies>  (1) 
[-7.56]

>  <Ligand effiencies>  (1) 
[-0.26068965517241377]

>  <Interactions>  (1) 
["V-A:ARG:545:CZ:4926, V-B:GLU:543:CD:9880, V-A:ILE:369:CD1:3239, V-B:TYR:539:CE2:9848, V-A:SER:385:CB:3409, V-B:ASP:366:CG:8185, V-A:PRO:482:CG:4327, V-A:PRO:482:CB:4326, V-A:LEU:475:CD2:4259, V-B:TYR:539:CD2:9846, V-A:LEU:475:CD1:4258, V-A:LEU:475:CG:4257, V-B:ALA:541:CB:9864, V-B:ARG:545:CZ:9898, V-A:GLU:543:CD:4908, H-A:GLU:543:OE1:4909, H-A:GLU:543:OE2:4910, V-A:ASP:366:CG:3213, H-A:ASP:366:OD2:3215, H-A:ASP:366:OD1:3214, H-B:GLU:543:OE2:9882, H-B:GLU:543:OE1:9881"]

$$$$
4dg_Grossjean_2025
     RDKit          3D

 46 49  0  0  0  0  0  0  0  0999 V2000
  133.2000  124.3460   61.7020 C   0  0  0  0  0  0  0  0  0  0  0  0
  131.8850  123.5890   61.5910 C   0  0  0  0  0  0  0  0  0  0  0  0
  131.9350  122.2200   61.3020 C   0  0  0  0  0  0  0  0  0  0  0  0
  130.7610  121.4660   61.1860 C   0  0  0  0  0  0  0  0  0  0  0  0
  130.7820  119.9950   60.8780 C   0  0  0  0  0  0  0  0  0  0  0  0
  129.8580  119.1210   61.4730 C   0  0  0  0  0  0  0  0  0  0  0  0
  129.8760  117.7560   61.1940 C   0  0  0  0  0  0  0  0  0  0  0  0
  130.8220  117.2440   60.3130 C   0  0  0  0  0  0  0  0  0  0  0  0
  131.7520  118.0870   59.7120 C   0  0  0  0  0  0  0  0  0  0  0  0
  131.7310  119.4500   59.9950 C   0  0  0  0  0  0  0  0  0  0  0  0
  129.5310  122.0200   61.3660 N   0  0  0  0  0  0  0  0  0  0  0  0
  129.4820  123.3230   61.6400 C   0  0  0  0  0  0  0  0  0  0  0  0
  127.9680  124.1610   61.8870 S   0  0  0  0  0  0  0  0  0  0  0  0
  128.8080  125.6850   62.1710 C   0  0  0  0  0  0  0  0  0  0  0  0
  128.0460  126.9080   62.4200 C   0  0  0  0  0  0  0  0  0  0  0  0
  126.8490  126.9880   62.1360 O   0  0  0  0  0  0  0  0  0  0  0  0
  128.7430  127.9410   62.9380 N   0  0  0  0  0  0  0  0  0  0  0  0
  128.1860  129.2480   63.2870 C   0  0  0  0  0  0  0  0  0  0  0  0
  126.9540  129.1610   64.1810 C   0  0  0  0  0  0  0  0  0  0  0  0
  127.0890  128.7530   65.5110 C   0  0  0  0  0  0  0  0  0  0  0  0
  125.9710  128.7030   66.3390 C   0  0  0  0  0  0  0  0  0  0  0  0
  124.7240  129.0720   65.8380 C   0  0  0  0  0  0  0  0  0  0  0  0
  124.5850  129.4960   64.5180 C   0  0  0  0  0  0  0  0  0  0  0  0
  125.7040  129.5470   63.6900 C   0  0  0  0  0  0  0  0  0  0  0  0
  130.1970  125.5310   62.0580 C   0  0  0  0  0  0  0  0  0  0  0  0
  131.0950  126.5560   62.2160 N   0  0  0  0  0  0  0  0  0  0  0  0
  130.6100  124.1830   61.7670 C   0  0  0  0  0  0  0  0  0  0  0  0
  133.4513  124.4907   62.7631 H   0  0  0  0  0  0  0  0  0  0  0  0
  133.9978  123.7689   61.2116 H   0  0  0  0  0  0  0  0  0  0  0  0
  133.1016  125.3257   61.2116 H   0  0  0  0  0  0  0  0  0  0  0  0
  132.9102  121.7300   61.1642 H   0  0  0  0  0  0  0  0  0  0  0  0
  129.1075  119.5206   62.1709 H   0  0  0  0  0  0  0  0  0  0  0  0
  129.1444  117.0858   61.6690 H   0  0  0  0  0  0  0  0  0  0  0  0
  130.8354  116.1670   60.0899 H   0  0  0  0  0  0  0  0  0  0  0  0
  132.5001  117.6784   59.0167 H   0  0  0  0  0  0  0  0  0  0  0  0
  132.4696  120.1121   59.5196 H   0  0  0  0  0  0  0  0  0  0  0  0
  129.6990  127.7780   63.2170 H   0  0  0  0  0  0  0  0  0  0  0  0
  128.9588  129.8273   63.8135 H   0  0  0  0  0  0  0  0  0  0  0  0
  127.8734  129.7293   62.3486 H   0  0  0  0  0  0  0  0  0  0  0  0
  128.0775  128.4717   65.9030 H   0  0  0  0  0  0  0  0  0  0  0  0
  126.0714  128.3738   67.3838 H   0  0  0  0  0  0  0  0  0  0  0  0
  123.8402  129.0281   66.4915 H   0  0  0  0  0  0  0  0  0  0  0  0
  123.5974  129.7887   64.1320 H   0  0  0  0  0  0  0  0  0  0  0  0
  125.6037  129.8910   62.6500 H   0  0  0  0  0  0  0  0  0  0  0  0
  131.8410  126.7190   61.5570 H   0  0  0  0  0  0  0  0  0  0  0  0
  131.0330  127.1900   63.0010 H   0  0  0  0  0  0  0  0  0  0  0  0
  1  2  1  0
  2  3  2  0
  3  4  1  0
  4  5  1  0
  5  6  2  0
  6  7  1  0
  7  8  2  0
  8  9  1  0
  9 10  2  0
  4 11  2  0
 11 12  1  0
 12 13  1  0
 13 14  1  0
 14 15  1  0
 15 16  2  0
 15 17  1  0
 17 18  1  0
 18 19  1  0
 19 20  2  0
 20 21  1  0
 21 22  2  0
 22 23  1  0
 23 24  2  0
 14 25  2  0
 25 26  1  0
 25 27  1  0
 27  2  1  0
 10  5  1  0
 27 12  2  0
 24 19  1  0
  1 28  1  0
  1 29  1  0
  1 30  1  0
  3 31  1  0
  6 32  1  0
  7 33  1  0
  8 34  1  0
  9 35  1  0
 10 36  1  0
 17 37  1  0
 18 38  1  0
 18 39  1  0
 20 40  1  0
 21 41  1  0
 22 42  1  0
 23 43  1  0
 24 44  1  0
 26 45  1  0
 26 46  1  0
M  END
>  <Binding energies>  (1) 
[-8.01]

>  <Ligand effiencies>  (1) 
[-0.267]

>  <Interactions>  (1) 
["V-B:GLU:543:CD:9880, V-B:TYR:539:CE2:9848, V-A:SER:385:CB:3409, V-A:PRO:482:CG:4327, V-A:PRO:482:CB:4326, V-B:TYR:539:CB:9843, V-A:LEU:475:CD2:4259, V-B:TYR:539:CD2:9846, V-A:LEU:475:CD1:4258, V-A:LEU:475:CG:4257, V-B:ALA:541:CB:9864, V-B:HIS:456:CE1:9042, V-B:ARG:545:CZ:9898, V-A:GLU:543:CD:4908, V-A:GLU:543:CG:4907, V-B:TYR:484:CZ:9319, H-A:GLU:543:OE1:4909, H-A:GLU:543:OE2:4910, H-A:ASP:366:OD2:3215, H-A:ASP:366:OD1:3214, H-B:GLU:543:OE2:9882, H-B:ARG:545:NH2:9900, V-B:ARG:545:CG:9894, V-B:ARG:545:CD:9895"]

$$$$
4dj_Grossjean_2025
     RDKit          3D

 39 42  0  0  0  0  0  0  0  0999 V2000
  133.5200  124.3260   61.2590 C   0  0  0  0  0  0  0  0  0  0  0  0
  132.1660  123.6320   61.2640 C   0  0  0  0  0  0  0  0  0  0  0  0
  132.1340  122.2470   61.0610 C   0  0  0  0  0  0  0  0  0  0  0  0
  130.9200  121.5490   61.0520 C   0  0  0  0  0  0  0  0  0  0  0  0
  130.8560  120.0630   60.8420 C   0  0  0  0  0  0  0  0  0  0  0  0
  131.7660  119.4150   59.9900 C   0  0  0  0  0  0  0  0  0  0  0  0
  131.7110  118.0380   59.7910 C   0  0  0  0  0  0  0  0  0  0  0  0
  130.7380  117.2850   60.4410 C   0  0  0  0  0  0  0  0  0  0  0  0
  129.8220  117.9010   61.2870 C   0  0  0  0  0  0  0  0  0  0  0  0
  129.8810  119.2770   61.4840 C   0  0  0  0  0  0  0  0  0  0  0  0
  129.7300  122.1750   61.2550 N   0  0  0  0  0  0  0  0  0  0  0  0
  129.7580  123.4930   61.4470 C   0  0  0  0  0  0  0  0  0  0  0  0
  128.3010  124.4250   61.7120 S   0  0  0  0  0  0  0  0  0  0  0  0
  129.2270  125.9210   61.8550 C   0  0  0  0  0  0  0  0  0  0  0  0
  128.5450  127.1930   62.0940 C   0  0  0  0  0  0  0  0  0  0  0  0
  129.1170  128.2650   61.8800 O   0  0  0  0  0  0  0  0  0  0  0  0
  127.2770  127.0960   62.5640 N   0  0  0  0  0  0  0  0  0  0  0  0
  126.4190  128.1420   62.8730 C   0  0  0  0  0  0  0  0  0  0  0  0
  125.7890  128.9430   62.0400 N   0  0  0  0  0  0  0  0  0  0  0  0
  125.0520  129.8280   62.6830 C   0  0  0  0  0  0  0  0  0  0  0  0
  125.0750  129.7560   64.0720 C   0  0  0  0  0  0  0  0  0  0  0  0
  126.1210  128.4540   64.5530 S   0  0  0  0  0  0  0  0  0  0  0  0
  130.6010  125.6810   61.6980 C   0  0  0  0  0  0  0  0  0  0  0  0
  131.5590  126.6630   61.7570 N   0  0  0  0  0  0  0  0  0  0  0  0
  130.9310  124.3010   61.4660 C   0  0  0  0  0  0  0  0  0  0  0  0
  133.8493  124.4948   62.2949 H   0  0  0  0  0  0  0  0  0  0  0  0
  134.2545  123.6932   60.7393 H   0  0  0  0  0  0  0  0  0  0  0  0
  133.4351  125.2917   60.7393 H   0  0  0  0  0  0  0  0  0  0  0  0
  133.0755  121.6996   60.9064 H   0  0  0  0  0  0  0  0  0  0  0  0
  132.5353  120.0058   59.4711 H   0  0  0  0  0  0  0  0  0  0  0  0
  132.4339  117.5474   59.1226 H   0  0  0  0  0  0  0  0  0  0  0  0
  130.6931  116.1971   60.2849 H   0  0  0  0  0  0  0  0  0  0  0  0
  129.0537  117.3025   61.7985 H   0  0  0  0  0  0  0  0  0  0  0  0
  129.1530  119.7589   62.1531 H   0  0  0  0  0  0  0  0  0  0  0  0
  126.9080  126.1680   62.7130 H   0  0  0  0  0  0  0  0  0  0  0  0
  124.4526  130.5811   62.1505 H   0  0  0  0  0  0  0  0  0  0  0  0
  124.5208  130.4163   64.7554 H   0  0  0  0  0  0  0  0  0  0  0  0
  132.5390  126.4610   61.6340 H   0  0  0  0  0  0  0  0  0  0  0  0
  131.3100  127.6280   61.9290 H   0  0  0  0  0  0  0  0  0  0  0  0
  1  2  1  0
  2  3  2  0
  3  4  1  0
  4  5  1  0
  5  6  2  0
  6  7  1  0
  7  8  2  0
  8  9  1  0
  9 10  2  0
  4 11  2  0
 11 12  1  0
 12 13  1  0
 13 14  1  0
 14 15  1  0
 15 16  2  0
 15 17  1  0
 17 18  1  0
 18 19  2  0
 19 20  1  0
 20 21  2  0
 21 22  1  0
 14 23  2  0
 23 24  1  0
 23 25  1  0
 25  2  1  0
 10  5  1  0
 25 12  2  0
 22 18  1  0
  1 26  1  0
  1 27  1  0
  1 28  1  0
  3 29  1  0
  6 30  1  0
  7 31  1  0
  8 32  1  0
  9 33  1  0
 10 34  1  0
 17 35  1  0
 20 36  1  0
 21 37  1  0
 24 38  1  0
 24 39  1  0
M  END
>  <Binding energies>  (1) 
[-7.0]

>  <Ligand effiencies>  (1) 
[-0.25]

>  <Interactions>  (1) 
["V-A:ARG:545:CZ:4926, V-B:GLU:543:CD:9880, V-A:ILE:369:CD1:3239, V-B:TYR:539:CE2:9848, V-A:SER:385:CB:3409, V-A:PRO:482:CG:4327, V-A:PRO:482:CB:4326, V-A:LEU:475:CD2:4259, V-B:TYR:539:CD2:9846, V-A:LEU:475:CD1:4258, V-A:LEU:475:CG:4257, V-B:ALA:541:CB:9864, V-B:ARG:545:CZ:9898, V-A:GLU:543:CD:4908, H-A:GLU:543:OE1:4909, H-A:GLU:543:OE2:4910, V-A:ASP:366:CG:3213, H-A:ASP:366:OD2:3215, H-A:ASP:366:OD1:3214, H-B:GLU:543:OE2:9882, H-B:GLU:543:OE1:9881, H-B:ARG:545:NH2:9900"]

$$$$
4ea_Grossjean_2025
     RDKit          3D

 52 55  0  0  0  0  0  0  0  0999 V2000
  131.3830  116.6710   60.4480 C   0  0  0  0  0  0  0  0  0  0  0  0
  131.2560  117.9120   59.5600 C   0  0  0  0  0  0  0  0  0  0  0  0
  131.2700  119.0780   60.3730 O   0  0  0  0  0  0  0  0  0  0  0  0
  130.2390  119.3640   61.2090 C   0  0  0  0  0  0  0  0  0  0  0  0
  129.6170  118.5030   61.8400 O   0  0  0  0  0  0  0  0  0  0  0  0
  129.9300  120.8310   61.2900 C   0  0  0  0  0  0  0  0  0  0  0  0
  130.9620  121.7580   61.0960 C   0  0  0  0  0  0  0  0  0  0  0  0
  130.7090  123.1250   61.1640 C   0  0  0  0  0  0  0  0  0  0  0  0
  129.4210  123.5940   61.4270 C   0  0  0  0  0  0  0  0  0  0  0  0
  129.2830  124.9940   61.4730 N   0  0  0  0  0  0  0  0  0  0  0  0
  130.1130  125.9740   61.0370 C   0  0  0  0  0  0  0  0  0  0  0  0
  131.1990  125.7710   60.4930 O   0  0  0  0  0  0  0  0  0  0  0  0
  129.6340  127.3410   61.2550 C   0  0  0  0  0  0  0  0  0  0  0  0
  130.1750  128.6550   60.2070 S   0  0  0  0  0  0  0  0  0  0  0  0
  129.2130  129.8190   61.0890 C   0  0  0  0  0  0  0  0  0  0  0  0
  129.1890  131.1110   60.7560 N   0  0  0  0  0  0  0  0  0  0  0  0
  128.4030  131.9090   61.5200 C   0  0  0  0  0  0  0  0  0  0  0  0
  128.3910  133.3730   61.1230 C   0  0  0  0  0  0  0  0  0  0  0  0
  127.6490  131.4500   62.5970 C   0  0  0  0  0  0  0  0  0  0  0  0
  127.6760  130.0950   62.9430 C   0  0  0  0  0  0  0  0  0  0  0  0
  126.8690  129.6240   64.0900 C   0  0  0  0  0  0  0  0  0  0  0  0
  125.4730  129.6050   64.0070 C   0  0  0  0  0  0  0  0  0  0  0  0
  124.7130  129.1590   65.0850 C   0  0  0  0  0  0  0  0  0  0  0  0
  125.3500  128.7350   66.2490 C   0  0  0  0  0  0  0  0  0  0  0  0
  126.7390  128.7540   66.3450 C   0  0  0  0  0  0  0  0  0  0  0  0
  127.4980  129.2000   65.2660 C   0  0  0  0  0  0  0  0  0  0  0  0
  128.4890  129.2240   62.1660 C   0  0  0  0  0  0  0  0  0  0  0  0
  128.7480  127.8090   62.2380 C   0  0  0  0  0  0  0  0  0  0  0  0
  128.1700  127.0080   63.1890 N   0  0  0  0  0  0  0  0  0  0  0  0
  128.3800  122.6720   61.6220 C   0  0  0  0  0  0  0  0  0  0  0  0
  128.6360  121.3050   61.5540 C   0  0  0  0  0  0  0  0  0  0  0  0
  131.3522  116.9721   61.5055 H   0  0  0  0  0  0  0  0  0  0  0  0
  130.5505  115.9832   60.2382 H   0  0  0  0  0  0  0  0  0  0  0  0
  132.3375  116.1661   60.2382 H   0  0  0  0  0  0  0  0  0  0  0  0
  132.0993  117.9463   58.8546 H   0  0  0  0  0  0  0  0  0  0  0  0
  130.3111  117.8669   58.9987 H   0  0  0  0  0  0  0  0  0  0  0  0
  131.9819  121.4023   60.8880 H   0  0  0  0  0  0  0  0  0  0  0  0
  131.5299  123.8407   61.0094 H   0  0  0  0  0  0  0  0  0  0  0  0
  128.4240  125.3070   61.9000 H   0  0  0  0  0  0  0  0  0  0  0  0
  128.3859  133.9983   62.0280 H   0  0  0  0  0  0  0  0  0  0  0  0
  129.2873  133.5985   60.5266 H   0  0  0  0  0  0  0  0  0  0  0  0
  127.4911  133.5838   60.5266 H   0  0  0  0  0  0  0  0  0  0  0  0
  127.0321  132.1531   63.1758 H   0  0  0  0  0  0  0  0  0  0  0  0
  124.9739  129.9435   63.0871 H   0  0  0  0  0  0  0  0  0  0  0  0
  123.6152  129.1415   65.0178 H   0  0  0  0  0  0  0  0  0  0  0  0
  124.7499  128.3818   67.1006 H   0  0  0  0  0  0  0  0  0  0  0  0
  127.2341  128.4185   67.2682 H   0  0  0  0  0  0  0  0  0  0  0  0
  128.5955  129.2191   65.3383 H   0  0  0  0  0  0  0  0  0  0  0  0
  128.5790  126.8890   64.1060 H   0  0  0  0  0  0  0  0  0  0  0  0
  127.3120  126.5060   63.0040 H   0  0  0  0  0  0  0  0  0  0  0  0
  127.3607  123.0302   61.8288 H   0  0  0  0  0  0  0  0  0  0  0  0
  127.8152  120.5892   61.7089 H   0  0  0  0  0  0  0  0  0  0  0  0
  1  2  1  0
  2  3  1  0
  3  4  1  0
  4  5  2  0
  4  6  1  0
  6  7  2  0
  7  8  1  0
  8  9  2  0
  9 10  1  0
 10 11  1  0
 11 12  2  0
 11 13  1  0
 13 14  1  0
 14 15  1  0
 15 16  2  0
 16 17  1  0
 17 18  1  0
 17 19  2  0
 19 20  1  0
 20 21  1  0
 21 22  2  0
 22 23  1  0
 23 24  2  0
 24 25  1  0
 25 26  2  0
 20 27  2  0
 27 28  1  0
 28 29  1  0
  9 30  1  0
 30 31  2  0
 31  6  1  0
 28 13  2  0
 27 15  1  0
 26 21  1  0
  1 32  1  0
  1 33  1  0
  1 34  1  0
  2 35  1  0
  2 36  1  0
  7 37  1  0
  8 38  1  0
 10 39  1  0
 18 40  1  0
 18 41  1  0
 18 42  1  0
 19 43  1  0
 22 44  1  0
 23 45  1  0
 24 46  1  0
 25 47  1  0
 26 48  1  0
 29 49  1  0
 29 50  1  0
 30 51  1  0
 31 52  1  0
M  END
>  <Binding energies>  (1) 
[-7.35]

>  <Ligand effiencies>  (1) 
[-0.21617647058823528]

>  <Interactions>  (1) 
["V-B:TYR:539:C:9839, V-B:PRO:540:CA:9855, V-B:GLU:543:CD:9880, V-B:TYR:539:CE2:9848, V-B:PRO:540:C:9853, V-A:SER:385:CB:3409, V-A:HIS:383:CE1:3394, V-B:TYR:539:CB:9843, V-A:LEU:475:CD2:4259, V-B:ALA:541:CA:9862, V-B:TYR:539:CD2:9846, V-A:LEU:475:CD1:4258, V-A:LEU:475:CG:4257, V-B:ALA:541:CB:9864, V-B:HIS:456:CE1:9042, V-B:ARG:545:CZ:9898, V-A:GLU:543:CD:4908, V-A:GLU:543:CG:4907, V-B:TYR:484:CZ:9319, H-A:GLU:543:OE1:4909, H-A:GLU:543:OE2:4910, H-B:GLU:543:OE2:9882, H-B:GLU:543:OE1:9881, V-B:TYR:539:CG:9844, V-A:PRO:540:C:4881, V-B:ARG:545:CG:9894, V-A:ALA:541:CB:4892, V-B:ARG:545:CD:9895"]

$$$$
4eb_Grossjean_2025
     RDKit          3D

 49 52  0  0  0  0  0  0  0  0999 V2000
  131.3460  117.9090   59.7420 C   0  0  0  0  0  0  0  0  0  0  0  0
  131.2380  119.1870   60.3520 O   0  0  0  0  0  0  0  0  0  0  0  0
  130.2250  119.4680   61.2120 C   0  0  0  0  0  0  0  0  0  0  0  0
  129.6260  118.6050   61.8610 O   0  0  0  0  0  0  0  0  0  0  0  0
  129.9060  120.9330   61.2950 C   0  0  0  0  0  0  0  0  0  0  0  0
  130.9480  121.8650   61.2040 C   0  0  0  0  0  0  0  0  0  0  0  0
  130.6850  123.2300   61.2780 C   0  0  0  0  0  0  0  0  0  0  0  0
  129.3780  123.6910   61.4430 C   0  0  0  0  0  0  0  0  0  0  0  0
  129.2310  125.0910   61.5040 N   0  0  0  0  0  0  0  0  0  0  0  0
  130.1220  126.0790   61.2430 C   0  0  0  0  0  0  0  0  0  0  0  0
  131.2850  125.8890   60.8860 O   0  0  0  0  0  0  0  0  0  0  0  0
  129.6120  127.4420   61.4150 C   0  0  0  0  0  0  0  0  0  0  0  0
  130.1900  128.7480   60.3790 S   0  0  0  0  0  0  0  0  0  0  0  0
  129.1640  129.9100   61.1890 C   0  0  0  0  0  0  0  0  0  0  0  0
  129.1400  131.1970   60.8360 N   0  0  0  0  0  0  0  0  0  0  0  0
  128.3030  131.9930   61.5430 C   0  0  0  0  0  0  0  0  0  0  0  0
  128.2920  133.4520   61.1250 C   0  0  0  0  0  0  0  0  0  0  0  0
  127.4960  131.5390   62.5850 C   0  0  0  0  0  0  0  0  0  0  0  0
  127.5250  130.1890   62.9520 C   0  0  0  0  0  0  0  0  0  0  0  0
  126.6610  129.7210   64.0610 C   0  0  0  0  0  0  0  0  0  0  0  0
  127.2340  129.1770   65.2140 C   0  0  0  0  0  0  0  0  0  0  0  0
  126.4230  128.7380   66.2590 C   0  0  0  0  0  0  0  0  0  0  0  0
  125.0380  128.8420   66.1460 C   0  0  0  0  0  0  0  0  0  0  0  0
  124.4590  129.3800   64.9990 C   0  0  0  0  0  0  0  0  0  0  0  0
  125.2710  129.8180   63.9570 C   0  0  0  0  0  0  0  0  0  0  0  0
  128.3910  129.3200   62.2340 C   0  0  0  0  0  0  0  0  0  0  0  0
  128.6660  127.9110   62.3400 C   0  0  0  0  0  0  0  0  0  0  0  0
  128.0490  127.1130   63.2700 N   0  0  0  0  0  0  0  0  0  0  0  0
  128.3280  122.7650   61.5350 C   0  0  0  0  0  0  0  0  0  0  0  0
  128.5930  121.4000   61.4620 C   0  0  0  0  0  0  0  0  0  0  0  0
  131.4114  117.1352   60.5211 H   0  0  0  0  0  0  0  0  0  0  0  0
  130.4602  117.7253   59.1162 H   0  0  0  0  0  0  0  0  0  0  0  0
  132.2501  117.8766   59.1162 H   0  0  0  0  0  0  0  0  0  0  0  0
  131.9827  121.5152   61.0730 H   0  0  0  0  0  0  0  0  0  0  0  0
  131.5132  123.9504   61.2059 H   0  0  0  0  0  0  0  0  0  0  0  0
  128.3120  125.3940   61.7880 H   0  0  0  0  0  0  0  0  0  0  0  0
  128.2872  134.0901   62.0210 H   0  0  0  0  0  0  0  0  0  0  0  0
  129.1885  133.6684   60.5255 H   0  0  0  0  0  0  0  0  0  0  0  0
  127.3923  133.6549   60.5255 H   0  0  0  0  0  0  0  0  0  0  0  0
  126.8375  132.2408   63.1178 H   0  0  0  0  0  0  0  0  0  0  0  0
  128.3278  129.0952   65.2968 H   0  0  0  0  0  0  0  0  0  0  0  0
  126.8735  128.3120   67.1676 H   0  0  0  0  0  0  0  0  0  0  0  0
  124.3963  128.4962   66.9698 H   0  0  0  0  0  0  0  0  0  0  0  0
  123.3648  129.4583   64.9172 H   0  0  0  0  0  0  0  0  0  0  0  0
  124.8172  130.2418   63.0490 H   0  0  0  0  0  0  0  0  0  0  0  0
  128.3520  127.0890   64.2340 H   0  0  0  0  0  0  0  0  0  0  0  0
  127.2680  126.5210   63.0220 H   0  0  0  0  0  0  0  0  0  0  0  0
  127.2942  123.1177   61.6650 H   0  0  0  0  0  0  0  0  0  0  0  0
  127.7646  120.6801   61.5360 H   0  0  0  0  0  0  0  0  0  0  0  0
  1  2  1  0
  2  3  1  0
  3  4  2  0
  3  5  1  0
  5  6  2  0
  6  7  1  0
  7  8  2  0
  8  9  1  0
  9 10  1  0
 10 11  2  0
 10 12  1  0
 12 13  1  0
 13 14  1  0
 14 15  2  0
 15 16  1  0
 16 17  1  0
 16 18  2  0
 18 19  1  0
 19 20  1  0
 20 21  2  0
 21 22  1  0
 22 23  2  0
 23 24  1  0
 24 25  2  0
 19 26  2  0
 26 27  1  0
 27 28  1  0
  8 29  1  0
 29 30  2  0
 30  5  1  0
 27 12  2  0
 26 14  1  0
 25 20  1  0
  1 31  1  0
  1 32  1  0
  1 33  1  0
  6 34  1  0
  7 35  1  0
  9 36  1  0
 17 37  1  0
 17 38  1  0
 17 39  1  0
 18 40  1  0
 21 41  1  0
 22 42  1  0
 23 43  1  0
 24 44  1  0
 25 45  1  0
 28 46  1  0
 28 47  1  0
 29 48  1  0
 30 49  1  0
M  END
>  <Binding energies>  (1) 
[-6.99]

>  <Ligand effiencies>  (1) 
[-0.21181818181818182]

>  <Interactions>  (1) 
["V-B:TYR:539:C:9839, V-B:PRO:540:CA:9855, V-B:GLU:543:CD:9880, V-B:PRO:540:C:9853, V-A:SER:385:CB:3409, V-B:TYR:539:CB:9843, V-A:LEU:475:CD2:4259, V-B:TYR:539:CD2:9846, V-A:LEU:475:CD1:4258, V-B:ALA:541:CB:9864, V-B:HIS:456:CE1:9042, V-B:ARG:545:CZ:9898, V-A:GLU:543:CD:4908, V-B:TYR:484:CZ:9319, H-A:GLU:543:OE1:4909, H-A:GLU:543:OE2:4910, H-B:GLU:543:OE2:9882, H-B:GLU:543:OE1:9881, V-B:ARG:545:CG:9894, V-A:ALA:541:CB:4892, V-B:ARG:545:CD:9895"]

$$$$
8a_Ghoteimi_2023
     RDKit          3D

 67 71  0  0  0  0  0  0  0  0999 V2000
  125.2080  127.9080   74.2250 C   0  0  0  0  0  0  0  0  0  0  0  0
  126.4420  128.6350   74.7660 C   0  0  0  0  0  0  0  0  0  0  0  0
  127.5270  127.7210   74.8580 O   0  0  0  0  0  0  0  0  0  0  0  0
  128.7740  128.0680   74.4450 C   0  0  0  0  0  0  0  0  0  0  0  0
  129.6600  128.4580   75.2130 O   0  0  0  0  0  0  0  0  0  0  0  0
  128.9660  127.9370   72.9620 C   0  0  0  0  0  0  0  0  0  0  0  0
  128.1930  127.0090   72.2520 C   0  0  0  0  0  0  0  0  0  0  0  0
  128.3490  126.8630   70.8770 C   0  0  0  0  0  0  0  0  0  0  0  0
  129.2790  127.6380   70.1820 C   0  0  0  0  0  0  0  0  0  0  0  0
  129.3520  127.4000   68.7950 N   0  0  0  0  0  0  0  0  0  0  0  0
  129.0420  128.2070   67.7500 C   0  0  0  0  0  0  0  0  0  0  0  0
  128.6140  129.3550   67.8630 O   0  0  0  0  0  0  0  0  0  0  0  0
  129.2570  127.6200   66.4240 C   0  0  0  0  0  0  0  0  0  0  0  0
  130.2750  126.1920   66.2350 S   0  0  0  0  0  0  0  0  0  0  0  0
  130.0200  126.1810   64.5060 C   0  0  0  0  0  0  0  0  0  0  0  0
  130.5970  125.2730   63.7190 N   0  0  0  0  0  0  0  0  0  0  0  0
  130.3370  125.3570   62.3870 C   0  0  0  0  0  0  0  0  0  0  0  0
  131.0100  124.3410   61.5210 C   0  0  0  0  0  0  0  0  0  0  0  0
  130.5460  123.0190   61.4620 C   0  0  0  0  0  0  0  0  0  0  0  0
  131.1840  122.0750   60.6630 C   0  0  0  0  0  0  0  0  0  0  0  0
  132.2970  122.4260   59.9020 C   0  0  0  0  0  0  0  0  0  0  0  0
  132.8670  121.4230   59.1410 O   0  0  0  0  0  0  0  0  0  0  0  0
  132.9190  120.1010   59.6640 C   0  0  0  0  0  0  0  0  0  0  0  0
  132.7660  123.7470   59.9490 C   0  0  0  0  0  0  0  0  0  0  0  0
  132.1270  124.6890   60.7520 C   0  0  0  0  0  0  0  0  0  0  0  0
  129.5010  126.3380   61.8500 C   0  0  0  0  0  0  0  0  0  0  0  0
  128.8800  127.2830   62.6750 C   0  0  0  0  0  0  0  0  0  0  0  0
  127.9750  128.2850   62.0560 C   0  0  0  0  0  0  0  0  0  0  0  0
  128.4750  129.5190   61.6350 C   0  0  0  0  0  0  0  0  0  0  0  0
  127.6340  130.4520   61.0360 C   0  0  0  0  0  0  0  0  0  0  0  0
  126.2820  130.1680   60.8420 C   0  0  0  0  0  0  0  0  0  0  0  0
  125.5240  131.1530   60.2390 O   0  0  0  0  0  0  0  0  0  0  0  0
  124.2050  130.8460   59.8040 C   0  0  0  0  0  0  0  0  0  0  0  0
  125.7790  128.9240   61.2560 C   0  0  0  0  0  0  0  0  0  0  0  0
  126.6230  127.9920   61.8540 C   0  0  0  0  0  0  0  0  0  0  0  0
  129.1550  127.2280   64.0700 C   0  0  0  0  0  0  0  0  0  0  0  0
  128.7490  128.0460   65.1860 C   0  0  0  0  0  0  0  0  0  0  0  0
  127.9510  129.1520   65.0370 N   0  0  0  0  0  0  0  0  0  0  0  0
  130.0540  128.5730   70.8840 C   0  0  0  0  0  0  0  0  0  0  0  0
  129.8970  128.7180   72.2610 C   0  0  0  0  0  0  0  0  0  0  0  0
  124.5967  127.5479   75.0656 H   0  0  0  0  0  0  0  0  0  0  0  0
  124.6144  128.6007   73.6103 H   0  0  0  0  0  0  0  0  0  0  0  0
  125.5262  127.0531   73.6103 H   0  0  0  0  0  0  0  0  0  0  0  0
  126.7112  129.4567   74.0860 H   0  0  0  0  0  0  0  0  0  0  0  0
  126.2200  129.0428   75.7632 H   0  0  0  0  0  0  0  0  0  0  0  0
  127.4565  126.3906   72.7860 H   0  0  0  0  0  0  0  0  0  0  0  0
  127.7343  126.1307   70.3331 H   0  0  0  0  0  0  0  0  0  0  0  0
  129.7030  126.4860   68.5540 H   0  0  0  0  0  0  0  0  0  0  0  0
  129.6671  122.7246   62.0544 H   0  0  0  0  0  0  0  0  0  0  0  0
  130.8062  121.0424   60.6320 H   0  0  0  0  0  0  0  0  0  0  0  0
  132.9174  120.1412   60.7633 H   0  0  0  0  0  0  0  0  0  0  0  0
  132.0424  119.5345   59.3166 H   0  0  0  0  0  0  0  0  0  0  0  0
  133.8373  119.6051   59.3166 H   0  0  0  0  0  0  0  0  0  0  0  0
  133.6409  124.0400   59.3501 H   0  0  0  0  0  0  0  0  0  0  0  0
  132.5056  125.7214   60.7823 H   0  0  0  0  0  0  0  0  0  0  0  0
  129.3281  126.3686   60.7641 H   0  0  0  0  0  0  0  0  0  0  0  0
  129.5399  129.7549   61.7777 H   0  0  0  0  0  0  0  0  0  0  0  0
  128.0390  131.4223   60.7125 H   0  0  0  0  0  0  0  0  0  0  0  0
  123.5561  130.6950   60.6793 H   0  0  0  0  0  0  0  0  0  0  0  0
  123.8158  131.6776   59.1982 H   0  0  0  0  0  0  0  0  0  0  0  0
  124.2230  129.9280   59.1982 H   0  0  0  0  0  0  0  0  0  0  0  0
  124.7155  128.6853   61.1075 H   0  0  0  0  0  0  0  0  0  0  0  0
  126.2228  127.0173   62.1700 H   0  0  0  0  0  0  0  0  0  0  0  0
  127.5460  129.3920   64.1420 H   0  0  0  0  0  0  0  0  0  0  0  0
  127.7360  129.7610   65.8130 H   0  0  0  0  0  0  0  0  0  0  0  0
  130.7869  129.1928   70.3466 H   0  0  0  0  0  0  0  0  0  0  0  0
  130.5096  129.4527   72.8041 H   0  0  0  0  0  0  0  0  0  0  0  0
  1  2  1  0
  2  3  1  0
  3  4  1  0
  4  5  2  0
  4  6  1  0
  6  7  2  0
  7  8  1  0
  8  9  2  0
  9 10  1  0
 10 11  1  0
 11 12  2  0
 11 13  1  0
 13 14  1  0
 14 15  1  0
 15 16  2  0
 16 17  1  0
 17 18  1  0
 18 19  2  0
 19 20  1  0
 20 21  2  0
 21 22  1  0
 22 23  1  0
 21 24  1  0
 24 25  2  0
 17 26  2  0
 26 27  1  0
 27 28  1  0
 28 29  2  0
 29 30  1  0
 30 31  2  0
 31 32  1  0
 32 33  1  0
 31 34  1  0
 34 35  2  0
 27 36  2  0
 36 37  1  0
 37 38  1  0
  9 39  1  0
 39 40  2  0
 40  6  1  0
 37 13  2  0
 36 15  1  0
 25 18  1  0
 35 28  1  0
  1 41  1  0
  1 42  1  0
  1 43  1  0
  2 44  1  0
  2 45  1  0
  7 46  1  0
  8 47  1  0
 10 48  1  0
 19 49  1  0
 20 50  1  0
 23 51  1  0
 23 52  1  0
 23 53  1  0
 24 54  1  0
 25 55  1  0
 26 56  1  0
 29 57  1  0
 30 58  1  0
 33 59  1  0
 33 60  1  0
 33 61  1  0
 34 62  1  0
 35 63  1  0
 38 64  1  0
 38 65  1  0
 39 66  1  0
 40 67  1  0
M  END
>  <Binding energies>  (1) 
[-3.25]

>  <Ligand effiencies>  (1) 
[-0.0755813953488372]

>  <Interactions>  (1) 
["V-B:GLU:543:CD:9880, V-A:TYR:484:CZ:4347, V-A:TYR:484:CE2:4346, V-B:TYR:539:CE2:9848, V-A:HIS:456:CE1:4070, V-A:SER:385:CB:3409, V-B:ASP:366:CG:8185, V-A:LEU:475:CD2:4259, H-A:TYR:484:OH:4348, V-B:TYR:539:CD2:9846, V-A:GLU:543:C:4902, V-B:HIS:456:CE1:9042, V-A:GLY:544:CA:4914, V-A:GLU:543:CB:4906, H-B:TYR:484:OH:9320, V-A:GLU:543:CD:4908, V-A:GLY:544:C:4912, V-A:GLU:543:CG:4907, V-A:HIS:456:CD2:4068, V-A:ILE:369:CG2:3237, H-B:GLU:543:OE2:9882, V-B:ASP:366:CB:8184, V-A:SER:385:CA:3407, V-B:ASP:366:CA:8182, V-B:HIS:456:CD2:9040, H-B:LYS:547:NZ:9923, H-A:LYS:547:NZ:4951, V-A:LYS:547:CE:4950, V-B:HIS:456:CG:9038, H-A:HIS:456:NE2:4071, V-B:HIS:456:CB:9037"]

$$$$
8b_Ghoteimi_2023
     RDKit          3D

 54 58  0  0  0  0  0  0  0  0999 V2000
  130.7810  127.2260   73.0050 C   0  0  0  0  0  0  0  0  0  0  0  0
  129.5570  127.5460   72.3520 O   0  0  0  0  0  0  0  0  0  0  0  0
  129.5250  127.6060   70.9720 C   0  0  0  0  0  0  0  0  0  0  0  0
  128.5330  126.8600   70.3390 C   0  0  0  0  0  0  0  0  0  0  0  0
  128.4250  126.8590   68.9520 C   0  0  0  0  0  0  0  0  0  0  0  0
  129.3080  127.6060   68.1600 C   0  0  0  0  0  0  0  0  0  0  0  0
  129.1980  127.6070   66.6680 C   0  0  0  0  0  0  0  0  0  0  0  0
  128.3670  128.5070   65.9920 C   0  0  0  0  0  0  0  0  0  0  0  0
  128.2820  128.4880   64.5960 C   0  0  0  0  0  0  0  0  0  0  0  0
  127.3860  129.4470   63.9110 C   0  0  0  0  0  0  0  0  0  0  0  0
  126.0490  129.1190   63.6810 C   0  0  0  0  0  0  0  0  0  0  0  0
  125.2050  130.0260   63.0450 C   0  0  0  0  0  0  0  0  0  0  0  0
  125.6840  131.2700   62.6300 C   0  0  0  0  0  0  0  0  0  0  0  0
  124.7750  132.1060   62.0100 O   0  0  0  0  0  0  0  0  0  0  0  0
  125.2540  133.1620   61.1840 C   0  0  0  0  0  0  0  0  0  0  0  0
  127.0300  131.5950   62.8590 C   0  0  0  0  0  0  0  0  0  0  0  0
  127.8720  130.6880   63.4950 C   0  0  0  0  0  0  0  0  0  0  0  0
  129.0680  127.5360   63.8920 C   0  0  0  0  0  0  0  0  0  0  0  0
  129.2270  127.2480   62.4900 C   0  0  0  0  0  0  0  0  0  0  0  0
  128.5550  127.9420   61.5170 N   0  0  0  0  0  0  0  0  0  0  0  0
  130.1250  126.2030   62.2230 C   0  0  0  0  0  0  0  0  0  0  0  0
  130.5250  125.6540   60.9260 C   0  0  0  0  0  0  0  0  0  0  0  0
  129.6790  125.2340   60.1320 O   0  0  0  0  0  0  0  0  0  0  0  0
  131.8600  125.6450   60.6850 N   0  0  0  0  0  0  0  0  0  0  0  0
  132.5100  125.1900   59.5460 C   0  0  0  0  0  0  0  0  0  0  0  0
  132.1930  125.6290   58.2610 C   0  0  0  0  0  0  0  0  0  0  0  0
  133.0490  124.9460   57.4280 C   0  0  0  0  0  0  0  0  0  0  0  0
  133.8420  124.1400   58.1710 O   0  0  0  0  0  0  0  0  0  0  0  0
  133.4930  124.3040   59.5130 N   0  0  0  0  0  0  0  0  0  0  0  0
  130.8020  125.5480   63.7160 S   0  0  0  0  0  0  0  0  0  0  0  0
  129.8790  126.6750   64.6840 C   0  0  0  0  0  0  0  0  0  0  0  0
  129.9590  126.6900   66.0140 N   0  0  0  0  0  0  0  0  0  0  0  0
  130.3020  128.3570   68.8030 C   0  0  0  0  0  0  0  0  0  0  0  0
  130.4130  128.3590   70.1910 C   0  0  0  0  0  0  0  0  0  0  0  0
  130.6360  127.2639   74.0947 H   0  0  0  0  0  0  0  0  0  0  0  0
  131.0992  126.2145   72.7124 H   0  0  0  0  0  0  0  0  0  0  0  0
  131.5535  127.9524   72.7124 H   0  0  0  0  0  0  0  0  0  0  0  0
  127.8291  126.2667   70.9411 H   0  0  0  0  0  0  0  0  0  0  0  0
  127.6356  126.2636   68.4700 H   0  0  0  0  0  0  0  0  0  0  0  0
  127.7748  129.2366   66.5639 H   0  0  0  0  0  0  0  0  0  0  0  0
  125.6609  128.1414   64.0030 H   0  0  0  0  0  0  0  0  0  0  0  0
  124.1524  129.7601   62.8682 H   0  0  0  0  0  0  0  0  0  0  0  0
  125.6259  133.9819   61.8160 H   0  0  0  0  0  0  0  0  0  0  0  0
  126.0710  132.7890   60.5489 H   0  0  0  0  0  0  0  0  0  0  0  0
  124.4352  133.5310   60.5489 H   0  0  0  0  0  0  0  0  0  0  0  0
  127.4209  132.5706   62.5344 H   0  0  0  0  0  0  0  0  0  0  0  0
  128.9258  130.9500   63.6709 H   0  0  0  0  0  0  0  0  0  0  0  0
  128.3870  128.9350   61.6000 H   0  0  0  0  0  0  0  0  0  0  0  0
  128.2030  127.4880   60.6860 H   0  0  0  0  0  0  0  0  0  0  0  0
  132.4590  126.0140   61.4080 H   0  0  0  0  0  0  0  0  0  0  0  0
  131.4248  126.3626   57.9751 H   0  0  0  0  0  0  0  0  0  0  0  0
  133.0832  125.0402   56.3326 H   0  0  0  0  0  0  0  0  0  0  0  0
  131.0045  128.9534   68.2023 H   0  0  0  0  0  0  0  0  0  0  0  0
  131.2006  128.9538   70.6767 H   0  0  0  0  0  0  0  0  0  0  0  0
  1  2  1  0
  2  3  1  0
  3  4  2  0
  4  5  1  0
  5  6  2  0
  6  7  1  0
  7  8  2  0
  8  9  1  0
  9 10  1  0
 10 11  2  0
 11 12  1  0
 12 13  2  0
 13 14  1  0
 14 15  1  0
 13 16  1  0
 16 17  2  0
  9 18  2  0
 18 19  1  0
 19 20  1  0
 19 21  2  0
 21 22  1  0
 22 23  2  0
 22 24  1  0
 24 25  1  0
 25 26  1  0
 26 27  2  0
 27 28  1  0
 28 29  1  0
 21 30  1  0
 30 31  1  0
 31 32  2  0
  6 33  1  0
 33 34  2  0
 34  3  1  0
 32  7  1  0
 17 10  1  0
 31 18  1  0
 29 25  2  0
  1 35  1  0
  1 36  1  0
  1 37  1  0
  4 38  1  0
  5 39  1  0
  8 40  1  0
 11 41  1  0
 12 42  1  0
 15 43  1  0
 15 44  1  0
 15 45  1  0
 16 46  1  0
 17 47  1  0
 20 48  1  0
 20 49  1  0
 24 50  1  0
 26 51  1  0
 27 52  1  0
 33 53  1  0
 34 54  1  0
M  END
>  <Binding energies>  (1) 
[-2.89]

>  <Ligand effiencies>  (1) 
[-0.07810810810810812]

>  <Interactions>  (1) 
["V-B:GLU:543:CD:9880, V-A:TYR:484:CZ:4347, V-B:TYR:539:CE2:9848, V-A:HIS:456:CE1:4070, V-A:GLU:543:C:4902, V-B:HIS:456:CE1:9042, V-A:GLY:544:CA:4914, V-B:ARG:545:CZ:9898, V-A:GLU:543:CB:4906, V-A:GLU:543:CD:4908, V-A:GLU:543:CA:4904, V-A:GLY:544:C:4912, V-A:GLU:543:CG:4907, V-A:HIS:456:CG:4066, V-B:LEU:475:CD2:9231, V-A:HIS:456:CD2:4068, H-A:GLU:543:OE1:4909, V-A:ASP:366:CG:3213, V-A:ASP:366:CB:3212, H-A:ASP:366:OD2:3215, V-A:ASP:366:C:3208, H-A:ASP:366:OD1:3214, V-A:ASP:366:CA:3210, V-B:TYR:539:CZ:9849, V-B:GLU:543:CB:9878, V-B:HIS:456:CD2:9040, H-B:TYR:539:OH:9850"]

$$$$
8c_Ghoteimi_2023
     RDKit          3D

 54 58  0  0  0  0  0  0  0  0999 V2000
  133.3650  119.4170   58.9130 C   0  0  0  0  0  0  0  0  0  0  0  0
  132.8460  119.8680   60.1580 O   0  0  0  0  0  0  0  0  0  0  0  0
  132.2020  121.0890   60.2180 C   0  0  0  0  0  0  0  0  0  0  0  0
  133.0040  122.2230   60.1080 C   0  0  0  0  0  0  0  0  0  0  0  0
  132.4410  123.4950   60.1600 C   0  0  0  0  0  0  0  0  0  0  0  0
  131.0590  123.6650   60.3230 C   0  0  0  0  0  0  0  0  0  0  0  0
  130.4480  125.0300   60.3830 C   0  0  0  0  0  0  0  0  0  0  0  0
  131.0260  126.1250   59.7350 C   0  0  0  0  0  0  0  0  0  0  0  0
  130.4330  127.3900   59.8050 C   0  0  0  0  0  0  0  0  0  0  0  0
  131.0750  128.5320   59.1140 C   0  0  0  0  0  0  0  0  0  0  0  0
  131.4930  128.4060   57.7870 C   0  0  0  0  0  0  0  0  0  0  0  0
  132.0880  129.4820   57.1360 C   0  0  0  0  0  0  0  0  0  0  0  0
  132.2760  130.6960   57.7980 C   0  0  0  0  0  0  0  0  0  0  0  0
  132.8720  131.7100   57.0730 O   0  0  0  0  0  0  0  0  0  0  0  0
  132.0570  132.5830   56.3010 C   0  0  0  0  0  0  0  0  0  0  0  0
  131.8590  130.8200   59.1330 C   0  0  0  0  0  0  0  0  0  0  0  0
  131.2640  129.7420   59.7830 C   0  0  0  0  0  0  0  0  0  0  0  0
  129.2290  127.5240   60.5460 C   0  0  0  0  0  0  0  0  0  0  0  0
  128.3700  128.6460   60.8190 C   0  0  0  0  0  0  0  0  0  0  0  0
  128.6300  129.9040   60.3370 N   0  0  0  0  0  0  0  0  0  0  0  0
  127.2570  128.3310   61.6150 C   0  0  0  0  0  0  0  0  0  0  0  0
  126.1870  129.2160   62.0780 C   0  0  0  0  0  0  0  0  0  0  0  0
  125.3940  128.8460   62.9460 O   0  0  0  0  0  0  0  0  0  0  0  0
  126.1450  130.4360   61.4870 N   0  0  0  0  0  0  0  0  0  0  0  0
  125.2400  131.4560   61.7420 C   0  0  0  0  0  0  0  0  0  0  0  0
  124.8170  132.3880   60.9140 N   0  0  0  0  0  0  0  0  0  0  0  0
  123.9530  133.1950   61.4950 C   0  0  0  0  0  0  0  0  0  0  0  0
  123.6570  132.9270   62.8270 C   0  0  0  0  0  0  0  0  0  0  0  0
  124.5680  131.5370   63.3390 S   0  0  0  0  0  0  0  0  0  0  0  0
  127.2460  126.6190   62.0450 S   0  0  0  0  0  0  0  0  0  0  0  0
  128.7280  126.3390   61.1610 C   0  0  0  0  0  0  0  0  0  0  0  0
  129.2940  125.1340   61.0960 N   0  0  0  0  0  0  0  0  0  0  0  0
  130.2580  122.5200   60.4290 C   0  0  0  0  0  0  0  0  0  0  0  0
  130.8180  121.2470   60.3790 C   0  0  0  0  0  0  0  0  0  0  0  0
  134.1841  118.7053   59.0934 H   0  0  0  0  0  0  0  0  0  0  0  0
  132.5671  118.9205   58.3413 H   0  0  0  0  0  0  0  0  0  0  0  0
  133.7453  120.2764   58.3413 H   0  0  0  0  0  0  0  0  0  0  0  0
  134.0908  122.1122   59.9790 H   0  0  0  0  0  0  0  0  0  0  0  0
  133.0895  124.3791   60.0720 H   0  0  0  0  0  0  0  0  0  0  0  0
  131.9567  125.9908   59.1641 H   0  0  0  0  0  0  0  0  0  0  0  0
  131.3513  127.4535   57.2554 H   0  0  0  0  0  0  0  0  0  0  0  0
  132.4130  129.3749   56.0906 H   0  0  0  0  0  0  0  0  0  0  0  0
  131.4627  133.2196   56.9729 H   0  0  0  0  0  0  0  0  0  0  0  0
  132.6955  133.2152   55.6665 H   0  0  0  0  0  0  0  0  0  0  0  0
  131.3824  131.9894   55.6665 H   0  0  0  0  0  0  0  0  0  0  0  0
  132.0027  131.7711   59.6666 H   0  0  0  0  0  0  0  0  0  0  0  0
  130.9412  129.8447   60.8295 H   0  0  0  0  0  0  0  0  0  0  0  0
  128.0340  130.3360   59.6430 H   0  0  0  0  0  0  0  0  0  0  0  0
  129.4230  130.4420   60.6560 H   0  0  0  0  0  0  0  0  0  0  0  0
  126.8460  130.6350   60.7870 H   0  0  0  0  0  0  0  0  0  0  0  0
  123.4909  134.0351   60.9559 H   0  0  0  0  0  0  0  0  0  0  0  0
  122.9598  133.5011   63.4549 H   0  0  0  0  0  0  0  0  0  0  0  0
  129.1705  122.6291   60.5536 H   0  0  0  0  0  0  0  0  0  0  0  0
  130.1722  120.3608   60.4662 H   0  0  0  0  0  0  0  0  0  0  0  0
  1  2  1  0
  2  3  1  0
  3  4  2  0
  4  5  1  0
  5  6  2  0
  6  7  1  0
  7  8  2  0
  8  9  1  0
  9 10  1  0
 10 11  2  0
 11 12  1  0
 12 13  2  0
 13 14  1  0
 14 15  1  0
 13 16  1  0
 16 17  2  0
  9 18  2  0
 18 19  1  0
 19 20  1  0
 19 21  2  0
 21 22  1  0
 22 23  2  0
 22 24  1  0
 24 25  1  0
 25 26  2  0
 26 27  1  0
 27 28  2  0
 28 29  1  0
 21 30  1  0
 30 31  1  0
 31 32  2  0
  6 33  1  0
 33 34  2  0
 34  3  1  0
 32  7  1  0
 17 10  1  0
 31 18  1  0
 29 25  1  0
  1 35  1  0
  1 36  1  0
  1 37  1  0
  4 38  1  0
  5 39  1  0
  8 40  1  0
 11 41  1  0
 12 42  1  0
 15 43  1  0
 15 44  1  0
 15 45  1  0
 16 46  1  0
 17 47  1  0
 20 48  1  0
 20 49  1  0
 24 50  1  0
 27 51  1  0
 28 52  1  0
 33 53  1  0
 34 54  1  0
M  END
>  <Binding energies>  (1) 
[-3.47]

>  <Ligand effiencies>  (1) 
[-0.09378378378378378]

>  <Interactions>  (1) 
["V-B:GLU:543:CD:9880, V-B:TYR:539:CE2:9848, V-A:SER:385:CB:3409, V-A:LEU:475:CD2:4259, V-B:TYR:539:CD2:9846, V-A:LEU:373:CD1:3280, V-B:GLY:453:C:9014, V-B:ILE:369:CD1:8211, V-B:LEU:475:CD2:9231, V-B:GLY:454:CA:9021, H-A:GLU:543:OE1:4909, V-A:ILE:369:CG2:3237, V-A:ASP:366:CG:3213, V-A:ASP:366:CB:3212, H-B:ARG:545:NH2:9900, V-A:PRO:540:CA:4883, V-A:PRO:540:CB:4885, V-A:PRO:540:N:4884, V-A:LEU:363:CD1:3189, V-A:PRO:540:CG:4886, H-A:TYR:531:OH:4795, V-A:SER:385:CA:3407, V-A:SER:385:C:3405, V-A:PRO:540:CD:4887"]

$$$$
8d_Ghoteimi_2023
     RDKit          3D

 50 53  0  0  0  0  0  0  0  0999 V2000
  123.6170  123.5060   58.1210 C   0  0  0  0  0  0  0  0  0  0  0  0
  124.4420  123.4490   56.9660 O   0  0  0  0  0  0  0  0  0  0  0  0
  125.7010  122.9430   57.0340 C   0  0  0  0  0  0  0  0  0  0  0  0
  126.1050  122.0020   56.3470 O   0  0  0  0  0  0  0  0  0  0  0  0
  126.5490  123.6410   58.0250 C   0  0  0  0  0  0  0  0  0  0  0  0
  127.9550  122.8250   58.7100 S   0  0  0  0  0  0  0  0  0  0  0  0
  128.3390  124.2230   59.6870 C   0  0  0  0  0  0  0  0  0  0  0  0
  129.3900  124.2410   60.5070 N   0  0  0  0  0  0  0  0  0  0  0  0
  129.5990  125.3800   61.2210 C   0  0  0  0  0  0  0  0  0  0  0  0
  130.7830  125.3720   62.1360 C   0  0  0  0  0  0  0  0  0  0  0  0
  132.0500  124.9860   61.6780 C   0  0  0  0  0  0  0  0  0  0  0  0
  133.1480  124.9800   62.5330 C   0  0  0  0  0  0  0  0  0  0  0  0
  133.0090  125.3590   63.8680 C   0  0  0  0  0  0  0  0  0  0  0  0
  134.1510  125.3230   64.6430 O   0  0  0  0  0  0  0  0  0  0  0  0
  134.0400  125.0280   66.0320 C   0  0  0  0  0  0  0  0  0  0  0  0
  131.7460  125.7490   64.3360 C   0  0  0  0  0  0  0  0  0  0  0  0
  130.6500  125.7540   63.4770 C   0  0  0  0  0  0  0  0  0  0  0  0
  128.7550  126.4900   61.1190 C   0  0  0  0  0  0  0  0  0  0  0  0
  127.6540  126.4720   60.2570 C   0  0  0  0  0  0  0  0  0  0  0  0
  126.7840  127.6670   60.1650 C   0  0  0  0  0  0  0  0  0  0  0  0
  126.0490  128.0880   61.2760 C   0  0  0  0  0  0  0  0  0  0  0  0
  125.2240  129.2050   61.1860 C   0  0  0  0  0  0  0  0  0  0  0  0
  125.1240  129.9200   59.9920 C   0  0  0  0  0  0  0  0  0  0  0  0
  124.2810  131.0130   59.9960 O   0  0  0  0  0  0  0  0  0  0  0  0
  123.5700  131.3470   58.8100 C   0  0  0  0  0  0  0  0  0  0  0  0
  125.8670  129.4970   58.8770 C   0  0  0  0  0  0  0  0  0  0  0  0
  126.6910  128.3780   58.9680 C   0  0  0  0  0  0  0  0  0  0  0  0
  127.4190  125.2940   59.5000 C   0  0  0  0  0  0  0  0  0  0  0  0
  126.4070  124.9330   58.5450 C   0  0  0  0  0  0  0  0  0  0  0  0
  125.3930  125.7840   58.1860 N   0  0  0  0  0  0  0  0  0  0  0  0
  124.2453  123.4626   59.0229 H   0  0  0  0  0  0  0  0  0  0  0  0
  123.0453  124.4458   58.1173 H   0  0  0  0  0  0  0  0  0  0  0  0
  122.9215  122.6538   58.1173 H   0  0  0  0  0  0  0  0  0  0  0  0
  132.1783  124.6836   60.6282 H   0  0  0  0  0  0  0  0  0  0  0  0
  134.1337  124.6738   62.1527 H   0  0  0  0  0  0  0  0  0  0  0  0
  134.3676  125.8986   66.6191 H   0  0  0  0  0  0  0  0  0  0  0  0
  132.9927  124.7951   66.2748 H   0  0  0  0  0  0  0  0  0  0  0  0
  134.6739  124.1625   66.2748 H   0  0  0  0  0  0  0  0  0  0  0  0
  131.6205  126.0522   65.3859 H   0  0  0  0  0  0  0  0  0  0  0  0
  129.6650  126.0626   63.8573 H   0  0  0  0  0  0  0  0  0  0  0  0
  128.9591  127.3865   61.7229 H   0  0  0  0  0  0  0  0  0  0  0  0
  126.1226  127.5352   62.2242 H   0  0  0  0  0  0  0  0  0  0  0  0
  124.6454  129.5273   62.0642 H   0  0  0  0  0  0  0  0  0  0  0  0
  122.6042  131.8007   59.0770 H   0  0  0  0  0  0  0  0  0  0  0  0
  124.1599  132.0622   58.2180 H   0  0  0  0  0  0  0  0  0  0  0  0
  123.3962  130.4364   58.2180 H   0  0  0  0  0  0  0  0  0  0  0  0
  125.7976  130.0513   57.9294 H   0  0  0  0  0  0  0  0  0  0  0  0
  127.2714  128.0530   58.0919 H   0  0  0  0  0  0  0  0  0  0  0  0
  125.2100  126.6340   58.7010 H   0  0  0  0  0  0  0  0  0  0  0  0
  124.7980  125.5950   57.3920 H   0  0  0  0  0  0  0  0  0  0  0  0
  1  2  1  0
  2  3  1  0
  3  4  2  0
  3  5  1  0
  5  6  1  0
  6  7  1  0
  7  8  2  0
  8  9  1  0
  9 10  1  0
 10 11  2  0
 11 12  1  0
 12 13  2  0
 13 14  1  0
 14 15  1  0
 13 16  1  0
 16 17  2  0
  9 18  2  0
 18 19  1  0
 19 20  1  0
 20 21  2  0
 21 22  1  0
 22 23  2  0
 23 24  1  0
 24 25  1  0
 23 26  1  0
 26 27  2  0
 19 28  2  0
 28 29  1  0
 29 30  1  0
 29  5  2  0
 28  7  1  0
 17 10  1  0
 27 20  1  0
  1 31  1  0
  1 32  1  0
  1 33  1  0
 11 34  1  0
 12 35  1  0
 15 36  1  0
 15 37  1  0
 15 38  1  0
 16 39  1  0
 17 40  1  0
 18 41  1  0
 21 42  1  0
 22 43  1  0
 25 44  1  0
 25 45  1  0
 25 46  1  0
 26 47  1  0
 27 48  1  0
 30 49  1  0
 30 50  1  0
M  END
>  <Binding energies>  (1) 
[-7.0]

>  <Ligand effiencies>  (1) 
[-0.21875]

>  <Interactions>  (1) 
["V-B:PRO:540:CD:9859, V-B:LEU:363:CD1:8161, V-A:ARG:545:CD:4923, V-B:PRO:540:CB:9857, V-A:ARG:545:CZ:4926, V-B:TYR:539:C:9839, V-B:PRO:540:CA:9855, V-B:PRO:540:CG:9858, V-B:PRO:540:N:9856, V-A:TYR:484:CZ:4347, V-A:TYR:484:CE2:4346, V-B:TYR:539:CE2:9848, V-A:ARG:545:CG:4922, V-B:ASP:366:CG:8185, H-A:TYR:484:OH:4348, V-B:TYR:539:CD2:9846, V-A:GLU:543:CD:4908, V-B:ILE:369:CD1:8211, H-A:ARG:545:NH1:4927, V-A:GLY:454:CA:4049, H-A:GLY:454:N:4050, H-A:ARG:545:NH2:4928, H-A:ARG:545:NE:4924, V-A:GLY:453:C:4042, H-B:ASP:366:OD2:8187, V-B:TYR:531:CZ:9766, V-B:ASP:366:CB:8184, H-B:TYR:531:OH:9767, H-B:TYR:539:N:9842, V-A:TYR:539:CE1:4875, V-B:ILE:369:CB:8208, V-B:ASP:366:CA:8182, V-B:ILE:369:CG2:8209, V-A:ILE:455:C:4052, V-B:LEU:363:CA:8157, V-B:LEU:363:CB:8159, V-B:LEU:363:CG:8160"]

$$$$
9a_Ghoteimi_2023
     RDKit          3D

 85 91  0  0  0  0  0  0  0  0999 V2000
  130.6620  117.6810   59.2610 C   0  0  0  0  0  0  0  0  0  0  0  0
  131.7100  118.2840   60.2020 C   0  0  0  0  0  0  0  0  0  0  0  0
  132.8950  118.5700   59.4700 O   0  0  0  0  0  0  0  0  0  0  0  0
  133.2830  119.8500   59.2370 C   0  0  0  0  0  0  0  0  0  0  0  0
  134.0860  120.1680   58.3530 O   0  0  0  0  0  0  0  0  0  0  0  0
  132.6440  120.8430   60.1640 C   0  0  0  0  0  0  0  0  0  0  0  0
  132.3310  122.1230   59.6890 C   0  0  0  0  0  0  0  0  0  0  0  0
  131.7400  123.0660   60.5240 C   0  0  0  0  0  0  0  0  0  0  0  0
  131.4460  122.7500   61.8510 C   0  0  0  0  0  0  0  0  0  0  0  0
  130.8500  123.7810   62.6030 N   0  0  0  0  0  0  0  0  0  0  0  0
  129.5630  123.9470   62.9990 C   0  0  0  0  0  0  0  0  0  0  0  0
  128.6520  123.1600   62.7420 O   0  0  0  0  0  0  0  0  0  0  0  0
  129.3030  125.1560   63.7860 C   0  0  0  0  0  0  0  0  0  0  0  0
  129.7180  125.2100   65.5000 S   0  0  0  0  0  0  0  0  0  0  0  0
  129.1410  126.8540   65.6350 C   0  0  0  0  0  0  0  0  0  0  0  0
  129.2070  127.5260   66.7840 N   0  0  0  0  0  0  0  0  0  0  0  0
  128.7430  128.8040   66.7790 C   0  0  0  0  0  0  0  0  0  0  0  0
  128.8370  129.5410   68.0760 C   0  0  0  0  0  0  0  0  0  0  0  0
  129.8040  129.1910   69.0240 C   0  0  0  0  0  0  0  0  0  0  0  0
  129.9000  129.8740   70.2340 C   0  0  0  0  0  0  0  0  0  0  0  0
  129.0390  130.9410   70.5350 C   0  0  0  0  0  0  0  0  0  0  0  0
  129.1100  131.6230   71.7540 N   0  0  0  0  0  0  0  0  0  0  0  0
  129.9520  132.8250   71.9180 C   0  0  0  0  0  0  0  0  0  0  0  0
  130.1910  133.2220   73.3900 C   0  0  0  0  0  0  0  0  0  0  0  0
  128.9510  133.3750   74.0600 O   0  0  0  0  0  0  0  0  0  0  0  0
  128.2020  132.1690   74.0500 C   0  0  0  0  0  0  0  0  0  0  0  0
  127.9020  131.7480   72.5970 C   0  0  0  0  0  0  0  0  0  0  0  0
  128.0610  131.2770   69.5870 C   0  0  0  0  0  0  0  0  0  0  0  0
  127.9650  130.5930   68.3800 C   0  0  0  0  0  0  0  0  0  0  0  0
  128.1920  129.3930   65.6390 C   0  0  0  0  0  0  0  0  0  0  0  0
  128.1030  128.6840   64.4360 C   0  0  0  0  0  0  0  0  0  0  0  0
  127.4750  129.3450   63.2630 C   0  0  0  0  0  0  0  0  0  0  0  0
  126.3200  128.8160   62.6810 C   0  0  0  0  0  0  0  0  0  0  0  0
  125.7260  129.4440   61.5920 C   0  0  0  0  0  0  0  0  0  0  0  0
  126.2590  130.6320   61.0650 C   0  0  0  0  0  0  0  0  0  0  0  0
  125.6870  131.2740   59.9650 N   0  0  0  0  0  0  0  0  0  0  0  0
  124.2910  131.7470   60.0540 C   0  0  0  0  0  0  0  0  0  0  0  0
  123.9150  132.7540   58.9470 C   0  0  0  0  0  0  0  0  0  0  0  0
  124.1780  132.1930   57.6700 O   0  0  0  0  0  0  0  0  0  0  0  0
  125.5500  131.8640   57.5140 C   0  0  0  0  0  0  0  0  0  0  0  0
  125.9700  130.8340   58.5840 C   0  0  0  0  0  0  0  0  0  0  0  0
  127.4170  131.1560   61.6590 C   0  0  0  0  0  0  0  0  0  0  0  0
  128.0140  130.5250   62.7460 C   0  0  0  0  0  0  0  0  0  0  0  0
  128.6160  127.3560   64.4080 C   0  0  0  0  0  0  0  0  0  0  0  0
  128.7430  126.3710   63.3620 C   0  0  0  0  0  0  0  0  0  0  0  0
  128.3620  126.6170   62.0680 N   0  0  0  0  0  0  0  0  0  0  0  0
  131.7520  121.4690   62.3360 C   0  0  0  0  0  0  0  0  0  0  0  0
  132.3450  120.5270   61.4990 C   0  0  0  0  0  0  0  0  0  0  0  0
  129.8591  117.2190   59.8542 H   0  0  0  0  0  0  0  0  0  0  0  0
  130.2393  118.4740   58.6266 H   0  0  0  0  0  0  0  0  0  0  0  0
  131.1352  116.9170   58.6266 H   0  0  0  0  0  0  0  0  0  0  0  0
  131.3172  119.2128   60.6414 H   0  0  0  0  0  0  0  0  0  0  0  0
  131.9385  117.5670   61.0043 H   0  0  0  0  0  0  0  0  0  0  0  0
  132.5549  122.3855   58.6445 H   0  0  0  0  0  0  0  0  0  0  0  0
  131.5029  124.0674   60.1355 H   0  0  0  0  0  0  0  0  0  0  0  0
  131.4930  124.5040   62.8900 H   0  0  0  0  0  0  0  0  0  0  0  0
  130.4983  128.3648   68.8110 H   0  0  0  0  0  0  0  0  0  0  0  0
  130.6634  129.5722   70.9662 H   0  0  0  0  0  0  0  0  0  0  0  0
  130.9276  132.6317   71.4481 H   0  0  0  0  0  0  0  0  0  0  0  0
  129.4145  133.6597   71.4443 H   0  0  0  0  0  0  0  0  0  0  0  0
  130.7792  132.4370   73.8878 H   0  0  0  0  0  0  0  0  0  0  0  0
  130.7379  134.1759   73.4218 H   0  0  0  0  0  0  0  0  0  0  0  0
  128.7806  131.3764   74.5471 H   0  0  0  0  0  0  0  0  0  0  0  0
  127.2533  132.3280   74.5836 H   0  0  0  0  0  0  0  0  0  0  0  0
  127.3894  130.7749   72.6160 H   0  0  0  0  0  0  0  0  0  0  0  0
  127.2809  132.5405   72.1540 H   0  0  0  0  0  0  0  0  0  0  0  0
  127.3582  132.0954   69.8021 H   0  0  0  0  0  0  0  0  0  0  0  0
  127.1921  130.8831   67.6531 H   0  0  0  0  0  0  0  0  0  0  0  0
  127.8230  130.4281   65.6874 H   0  0  0  0  0  0  0  0  0  0  0  0
  125.8770  127.8950   63.0878 H   0  0  0  0  0  0  0  0  0  0  0  0
  124.8262  129.0045   61.1368 H   0  0  0  0  0  0  0  0  0  0  0  0
  123.6222  130.8771   59.9763 H   0  0  0  0  0  0  0  0  0  0  0  0
  124.1846  132.2675   61.0172 H   0  0  0  0  0  0  0  0  0  0  0  0
  122.8451  132.9976   59.0244 H   0  0  0  0  0  0  0  0  0  0  0  0
  124.5157  133.6671   59.0706 H   0  0  0  0  0  0  0  0  0  0  0  0
  125.7107  131.4362   56.5134 H   0  0  0  0  0  0  0  0  0  0  0  0
  126.1557  132.7747   57.6316 H   0  0  0  0  0  0  0  0  0  0  0  0
  125.4253  129.8965   58.3983 H   0  0  0  0  0  0  0  0  0  0  0  0
  127.0593  130.7056   58.5010 H   0  0  0  0  0  0  0  0  0  0  0  0
  127.8599  132.0801   61.2592 H   0  0  0  0  0  0  0  0  0  0  0  0
  128.9167  130.9586   63.2012 H   0  0  0  0  0  0  0  0  0  0  0  0
  129.0190  126.9390   61.3710 H   0  0  0  0  0  0  0  0  0  0  0  0
  127.4070  126.4830   61.7670 H   0  0  0  0  0  0  0  0  0  0  0  0
  131.5229  121.2084   63.3798 H   0  0  0  0  0  0  0  0  0  0  0  0
  132.5815  119.5255   61.8876 H   0  0  0  0  0  0  0  0  0  0  0  0
  1  2  1  0
  2  3  1  0
  3  4  1  0
  4  5  2  0
  4  6  1  0
  6  7  2  0
  7  8  1  0
  8  9  2  0
  9 10  1  0
 10 11  1  0
 11 12  2  0
 11 13  1  0
 13 14  1  0
 14 15  1  0
 15 16  2  0
 16 17  1  0
 17 18  1  0
 18 19  2  0
 19 20  1  0
 20 21  2  0
 21 22  1  0
 22 23  1  0
 23 24  1  0
 24 25  1  0
 25 26  1  0
 26 27  1  0
 21 28  1  0
 28 29  2  0
 17 30  2  0
 30 31  1  0
 31 32  1  0
 32 33  2  0
 33 34  1  0
 34 35  2  0
 35 36  1  0
 36 37  1  0
 37 38  1  0
 38 39  1  0
 39 40  1  0
 40 41  1  0
 35 42  1  0
 42 43  2  0
 31 44  2  0
 44 45  1  0
 45 46  1  0
  9 47  1  0
 47 48  2  0
 48  6  1  0
 45 13  2  0
 44 15  1  0
 29 18  1  0
 43 32  1  0
 27 22  1  0
 41 36  1  0
  1 49  1  0
  1 50  1  0
  1 51  1  0
  2 52  1  0
  2 53  1  0
  7 54  1  0
  8 55  1  0
 10 56  1  0
 19 57  1  0
 20 58  1  0
 23 59  1  0
 23 60  1  0
 24 61  1  0
 24 62  1  0
 26 63  1  0
 26 64  1  0
 27 65  1  0
 27 66  1  0
 28 67  1  0
 29 68  1  0
 30 69  1  0
 33 70  1  0
 34 71  1  0
 37 72  1  0
 37 73  1  0
 38 74  1  0
 38 75  1  0
 40 76  1  0
 40 77  1  0
 41 78  1  0
 41 79  1  0
 42 80  1  0
 43 81  1  0
 46 82  1  0
 46 83  1  0
 47 84  1  0
 48 85  1  0
M  END
>  <Binding energies>  (1) 
[279.49]

>  <Ligand effiencies>  (1) 
[5.480196078431373]

>  <Interactions>  (1) 
["V-B:TYR:539:C:9839, V-B:GLU:543:CD:9880, V-A:TYR:484:CZ:4347, V-A:TYR:484:CE2:4346, V-B:TYR:539:CE2:9848, V-A:SER:385:CB:3409, V-B:TYR:539:CB:9843, V-A:LEU:475:CD2:4259, H-A:TYR:484:OH:4348, V-B:TYR:539:CA:9841, V-B:TYR:539:CD2:9846, V-A:LEU:475:CG:4257, V-A:LEU:373:CD1:3280, V-A:GLU:543:C:4902, V-B:HIS:456:CE1:9042, V-A:GLY:544:CA:4914, V-A:GLU:543:CB:4906, V-A:GLU:543:CD:4908, V-A:GLU:543:CA:4904, V-A:GLY:544:C:4912, V-B:ILE:369:CD1:8211, V-A:GLU:543:CG:4907, V-B:TYR:484:CZ:9319, V-A:ILE:369:CG2:3237, H-B:GLU:543:OE1:9881, V-B:GLU:543:CG:9879, V-B:TYR:539:CG:9844, V-A:TYR:484:CE1:4345, V-A:TYR:539:CD1:4873, V-A:TYR:539:CE1:4875, V-A:TYR:539:CZ:4877, V-A:SER:385:CA:3407, V-B:TYR:484:CE1:9317, V-B:ILE:369:CB:8208, V-B:ILE:369:CG2:8209, V-B:GLU:543:CB:9878, V-B:HIS:456:CD2:9040, H-A:LYS:547:NZ:4951, V-A:TYR:539:CE2:4876, V-B:TYR:484:CE2:9318, V-A:SER:385:C:3405, V-A:LYS:547:CE:4950, H-A:SER:385:OG:3410, H-A:TYR:539:OH:4878, V-B:HIS:456:CG:9038, V-B:TYR:484:CD2:9316, V-B:TYR:484:CB:9313, V-B:HIS:456:CB:9037, V-B:TYR:484:CG:9314, V-B:TYR:484:CD1:9315"]

$$$$
9b_Ghoteimi_2023
     RDKit          3D

 72 78  0  0  0  0  0  0  0  0999 V2000
  127.4400  128.4790   61.3020 N   0  0  0  0  0  0  0  0  0  0  0  0
  126.9320  128.8280   62.5280 C   0  0  0  0  0  0  0  0  0  0  0  0
  125.7590  129.5810   62.6930 C   0  0  0  0  0  0  0  0  0  0  0  0
  124.8590  130.1070   61.6640 C   0  0  0  0  0  0  0  0  0  0  0  0
  123.7220  130.4850   61.9560 O   0  0  0  0  0  0  0  0  0  0  0  0
  125.3650  130.1360   60.4060 N   0  0  0  0  0  0  0  0  0  0  0  0
  124.7330  130.5700   59.2480 C   0  0  0  0  0  0  0  0  0  0  0  0
  124.7980  129.8780   58.0400 C   0  0  0  0  0  0  0  0  0  0  0  0
  124.0500  130.6240   57.1590 C   0  0  0  0  0  0  0  0  0  0  0  0
  123.5590  131.7090   57.8040 O   0  0  0  0  0  0  0  0  0  0  0  0
  123.9990  131.6640   59.1270 N   0  0  0  0  0  0  0  0  0  0  0  0
  125.4220  129.8690   64.4000 S   0  0  0  0  0  0  0  0  0  0  0  0
  126.8590  128.9980   64.8780 C   0  0  0  0  0  0  0  0  0  0  0  0
  127.2060  128.8740   66.1580 N   0  0  0  0  0  0  0  0  0  0  0  0
  128.3520  128.1930   66.4220 C   0  0  0  0  0  0  0  0  0  0  0  0
  128.7300  128.0860   67.8640 C   0  0  0  0  0  0  0  0  0  0  0  0
  129.5940  129.0160   68.4570 C   0  0  0  0  0  0  0  0  0  0  0  0
  129.9540  128.9030   69.7960 C   0  0  0  0  0  0  0  0  0  0  0  0
  129.4750  127.8490   70.5890 C   0  0  0  0  0  0  0  0  0  0  0  0
  129.8260  127.7240   71.9380 N   0  0  0  0  0  0  0  0  0  0  0  0
  129.2030  128.5700   72.9760 C   0  0  0  0  0  0  0  0  0  0  0  0
  129.4440  128.0690   74.4150 C   0  0  0  0  0  0  0  0  0  0  0  0
  130.8340  127.9190   74.6510 O   0  0  0  0  0  0  0  0  0  0  0  0
  131.4120  126.9750   73.7640 C   0  0  0  0  0  0  0  0  0  0  0  0
  131.2300  127.4380   72.3020 C   0  0  0  0  0  0  0  0  0  0  0  0
  128.5950  126.9330   69.9960 C   0  0  0  0  0  0  0  0  0  0  0  0
  128.2310  127.0470   68.6570 C   0  0  0  0  0  0  0  0  0  0  0  0
  129.1280  127.6170   65.4130 C   0  0  0  0  0  0  0  0  0  0  0  0
  128.7550  127.7270   64.0690 C   0  0  0  0  0  0  0  0  0  0  0  0
  129.5980  127.0720   63.0370 C   0  0  0  0  0  0  0  0  0  0  0  0
  130.1870  125.8330   63.2910 C   0  0  0  0  0  0  0  0  0  0  0  0
  130.9620  125.2070   62.3190 C   0  0  0  0  0  0  0  0  0  0  0  0
  131.1690  125.8040   61.0650 C   0  0  0  0  0  0  0  0  0  0  0  0
  131.9300  125.1860   60.0700 N   0  0  0  0  0  0  0  0  0  0  0  0
  132.0990  125.8600   58.7680 C   0  0  0  0  0  0  0  0  0  0  0  0
  132.6040  124.9150   57.6560 C   0  0  0  0  0  0  0  0  0  0  0  0
  133.8140  124.2930   58.0590 O   0  0  0  0  0  0  0  0  0  0  0  0
  133.6420  123.5270   59.2430 C   0  0  0  0  0  0  0  0  0  0  0  0
  133.1590  124.4340   60.3940 C   0  0  0  0  0  0  0  0  0  0  0  0
  130.5570  127.0410   60.8150 C   0  0  0  0  0  0  0  0  0  0  0  0
  129.7820  127.6670   61.7870 C   0  0  0  0  0  0  0  0  0  0  0  0
  127.5770  128.4670   63.7660 C   0  0  0  0  0  0  0  0  0  0  0  0
  128.0800  129.0790   60.8010 H   0  0  0  0  0  0  0  0  0  0  0  0
  127.1910  127.6060   60.8580 H   0  0  0  0  0  0  0  0  0  0  0  0
  126.3130  129.8090   60.2850 H   0  0  0  0  0  0  0  0  0  0  0  0
  125.3320  128.9384   57.8353 H   0  0  0  0  0  0  0  0  0  0  0  0
  123.8782  130.3787   56.1005 H   0  0  0  0  0  0  0  0  0  0  0  0
  129.9929  129.8464   67.8559 H   0  0  0  0  0  0  0  0  0  0  0  0
  130.6254  129.6524   70.2406 H   0  0  0  0  0  0  0  0  0  0  0  0
  129.6154  129.5860   72.8889 H   0  0  0  0  0  0  0  0  0  0  0  0
  128.1169  128.5403   72.8041 H   0  0  0  0  0  0  0  0  0  0  0  0
  129.0301  128.7971   75.1281 H   0  0  0  0  0  0  0  0  0  0  0  0
  128.9490  127.0954   74.5455 H   0  0  0  0  0  0  0  0  0  0  0  0
  132.4855  126.8792   73.9841 H   0  0  0  0  0  0  0  0  0  0  0  0
  130.9136  126.0036   73.8982 H   0  0  0  0  0  0  0  0  0  0  0  0
  131.8208  128.3537   72.1519 H   0  0  0  0  0  0  0  0  0  0  0  0
  131.5658  126.6108   71.6594 H   0  0  0  0  0  0  0  0  0  0  0  0
  128.1848  126.1097   70.5992 H   0  0  0  0  0  0  0  0  0  0  0  0
  127.5423  126.3108   68.2170 H   0  0  0  0  0  0  0  0  0  0  0  0
  130.0444  127.0697   65.6788 H   0  0  0  0  0  0  0  0  0  0  0  0
  130.0378  125.3473   64.2666 H   0  0  0  0  0  0  0  0  0  0  0  0
  131.4190  124.2303   62.5363 H   0  0  0  0  0  0  0  0  0  0  0  0
  131.1278  126.2748   58.4602 H   0  0  0  0  0  0  0  0  0  0  0  0
  132.8590  126.6440   58.9015 H   0  0  0  0  0  0  0  0  0  0  0  0
  131.8449  124.1430   57.4617 H   0  0  0  0  0  0  0  0  0  0  0  0
  132.7857  125.4987   56.7415 H   0  0  0  0  0  0  0  0  0  0  0  0
  132.8954  122.7397   59.0620 H   0  0  0  0  0  0  0  0  0  0  0  0
  134.6042  123.0725   59.5215 H   0  0  0  0  0  0  0  0  0  0  0  0
  132.9613  123.8050   61.2745 H   0  0  0  0  0  0  0  0  0  0  0  0
  133.9525  125.1725   60.5812 H   0  0  0  0  0  0  0  0  0  0  0  0
  130.6916  127.5238   59.8358 H   0  0  0  0  0  0  0  0  0  0  0  0
  129.3112  128.6370   61.5691 H   0  0  0  0  0  0  0  0  0  0  0  0
  1  2  1  0
  2  3  2  0
  3  4  1  0
  4  5  2  0
  4  6  1  0
  6  7  1  0
  7  8  1  0
  8  9  2  0
  9 10  1  0
 10 11  1  0
  3 12  1  0
 12 13  1  0
 13 14  2  0
 14 15  1  0
 15 16  1  0
 16 17  2  0
 17 18  1  0
 18 19  2  0
 19 20  1  0
 20 21  1  0
 21 22  1  0
 22 23  1  0
 23 24  1  0
 24 25  1  0
 19 26  1  0
 26 27  2  0
 15 28  2  0
 28 29  1  0
 29 30  1  0
 30 31  2  0
 31 32  1  0
 32 33  2  0
 33 34  1  0
 34 35  1  0
 35 36  1  0
 36 37  1  0
 37 38  1  0
 38 39  1  0
 33 40  1  0
 40 41  2  0
 29 42  2  0
 42  2  1  0
 11  7  2  0
 42 13  1  0
 27 16  1  0
 41 30  1  0
 25 20  1  0
 39 34  1  0
  1 43  1  0
  1 44  1  0
  6 45  1  0
  8 46  1  0
  9 47  1  0
 17 48  1  0
 18 49  1  0
 21 50  1  0
 21 51  1  0
 22 52  1  0
 22 53  1  0
 24 54  1  0
 24 55  1  0
 25 56  1  0
 25 57  1  0
 26 58  1  0
 27 59  1  0
 28 60  1  0
 31 61  1  0
 32 62  1  0
 35 63  1  0
 35 64  1  0
 36 65  1  0
 36 66  1  0
 38 67  1  0
 38 68  1  0
 39 69  1  0
 39 70  1  0
 40 71  1  0
 41 72  1  0
M  END
>  <Binding energies>  (1) 
[-4.03]

>  <Ligand effiencies>  (1) 
[-0.08955555555555555]

>  <Interactions>  (1) 
["V-B:GLU:543:CD:9880, V-A:ILE:369:CD1:3239, V-B:TYR:539:CE2:9848, V-A:HIS:456:CE1:4070, V-A:GLU:543:C:4902, V-B:HIS:456:CE1:9042, V-A:GLY:544:CA:4914, V-A:GLU:543:CB:4906, H-B:TYR:484:OH:9320, V-A:GLU:543:CD:4908, V-A:GLU:543:CA:4904, V-A:GLY:544:C:4912, V-A:GLU:543:CG:4907, V-B:TYR:484:CZ:9319, V-A:HIS:456:CG:4066, V-A:HIS:456:CD2:4068, V-A:ILE:369:CG2:3237, V-A:ASP:366:CG:3213, V-A:ASP:366:CB:3212, V-A:ILE:369:CB:3236, V-A:ASP:366:CA:3210, V-B:ASP:366:CB:8184, V-B:TYR:539:CZ:9849, V-A:TYR:539:CE1:4875, V-A:TYR:539:CZ:4877, V-B:ASP:366:C:8180, V-B:ASP:366:CA:8182, V-B:GLU:543:CB:9878, V-B:HIS:456:CD2:9040, H-A:LYS:547:NZ:4951, H-B:TYR:539:OH:9850, H-A:TYR:539:OH:4878, V-A:HIS:456:CB:4065"]

$$$$
9c_Ghoteimi_2023
     RDKit          3D

 72 78  0  0  0  0  0  0  0  0999 V2000
  127.5170  128.5530   61.3370 N   0  0  0  0  0  0  0  0  0  0  0  0
  126.9990  128.8780   62.5650 C   0  0  0  0  0  0  0  0  0  0  0  0
  125.8220  129.6240   62.7340 C   0  0  0  0  0  0  0  0  0  0  0  0
  124.9300  130.1690   61.7060 C   0  0  0  0  0  0  0  0  0  0  0  0
  123.8440  130.6650   62.0120 O   0  0  0  0  0  0  0  0  0  0  0  0
  125.3860  130.0780   60.4320 N   0  0  0  0  0  0  0  0  0  0  0  0
  124.7370  130.5010   59.2810 C   0  0  0  0  0  0  0  0  0  0  0  0
  124.0150  131.5870   59.1130 N   0  0  0  0  0  0  0  0  0  0  0  0
  123.5410  131.6690   57.8840 C   0  0  0  0  0  0  0  0  0  0  0  0
  123.8790  130.6280   57.0230 C   0  0  0  0  0  0  0  0  0  0  0  0
  124.8720  129.4870   57.8800 S   0  0  0  0  0  0  0  0  0  0  0  0
  125.4690  129.8790   64.4420 S   0  0  0  0  0  0  0  0  0  0  0  0
  126.9050  129.0040   64.9170 C   0  0  0  0  0  0  0  0  0  0  0  0
  127.2410  128.8560   66.1970 N   0  0  0  0  0  0  0  0  0  0  0  0
  128.3860  128.1740   66.4590 C   0  0  0  0  0  0  0  0  0  0  0  0
  128.7510  128.0410   67.9020 C   0  0  0  0  0  0  0  0  0  0  0  0
  129.6900  128.8940   68.4940 C   0  0  0  0  0  0  0  0  0  0  0  0
  130.0330  128.7610   69.8350 C   0  0  0  0  0  0  0  0  0  0  0  0
  129.4580  127.7590   70.6340 C   0  0  0  0  0  0  0  0  0  0  0  0
  129.7880  127.6160   71.9860 N   0  0  0  0  0  0  0  0  0  0  0  0
  128.9580  128.2230   73.0480 C   0  0  0  0  0  0  0  0  0  0  0  0
  129.2590  127.6800   74.4610 C   0  0  0  0  0  0  0  0  0  0  0  0
  130.6400  127.8260   74.7510 O   0  0  0  0  0  0  0  0  0  0  0  0
  131.4420  127.1030   73.8320 C   0  0  0  0  0  0  0  0  0  0  0  0
  131.2070  127.6230   72.3970 C   0  0  0  0  0  0  0  0  0  0  0  0
  128.5040  126.9190   70.0410 C   0  0  0  0  0  0  0  0  0  0  0  0
  128.1590  127.0560   68.6990 C   0  0  0  0  0  0  0  0  0  0  0  0
  129.1730  127.6190   65.4460 C   0  0  0  0  0  0  0  0  0  0  0  0
  128.8110  127.7530   64.1010 C   0  0  0  0  0  0  0  0  0  0  0  0
  129.6630  127.1190   63.0640 C   0  0  0  0  0  0  0  0  0  0  0  0
  130.1620  125.8290   63.2540 C   0  0  0  0  0  0  0  0  0  0  0  0
  130.9470  125.2240   62.2760 C   0  0  0  0  0  0  0  0  0  0  0  0
  131.2550  125.8950   61.0830 C   0  0  0  0  0  0  0  0  0  0  0  0
  132.0320  125.3030   60.0820 N   0  0  0  0  0  0  0  0  0  0  0  0
  132.9680  124.2200   60.4440 C   0  0  0  0  0  0  0  0  0  0  0  0
  134.0220  123.9350   59.3510 C   0  0  0  0  0  0  0  0  0  0  0  0
  133.3780  123.6510   58.1180 O   0  0  0  0  0  0  0  0  0  0  0  0
  132.5760  124.7380   57.6830 C   0  0  0  0  0  0  0  0  0  0  0  0
  131.4880  125.0490   58.7340 C   0  0  0  0  0  0  0  0  0  0  0  0
  130.7310  127.1820   60.8940 C   0  0  0  0  0  0  0  0  0  0  0  0
  129.9460  127.7870   61.8710 C   0  0  0  0  0  0  0  0  0  0  0  0
  127.6330  128.4950   63.8010 C   0  0  0  0  0  0  0  0  0  0  0  0
  127.5160  129.2070   60.5670 H   0  0  0  0  0  0  0  0  0  0  0  0
  127.9190  127.6430   61.1600 H   0  0  0  0  0  0  0  0  0  0  0  0
  126.2960  129.6610   60.2940 H   0  0  0  0  0  0  0  0  0  0  0  0
  122.9142  132.5122   57.5581 H   0  0  0  0  0  0  0  0  0  0  0  0
  123.5682  130.5417   55.9714 H   0  0  0  0  0  0  0  0  0  0  0  0
  130.1636  129.6813   67.8892 H   0  0  0  0  0  0  0  0  0  0  0  0
  130.7663  129.4515   70.2771 H   0  0  0  0  0  0  0  0  0  0  0  0
  129.1352  129.3086   73.0487 H   0  0  0  0  0  0  0  0  0  0  0  0
  127.9122  127.9672   72.8227 H   0  0  0  0  0  0  0  0  0  0  0  0
  128.6697  128.2418   75.2007 H   0  0  0  0  0  0  0  0  0  0  0  0
  128.9910  126.6140   74.5037 H   0  0  0  0  0  0  0  0  0  0  0  0
  132.5022  127.2306   74.0959 H   0  0  0  0  0  0  0  0  0  0  0  0
  131.1698  126.0382   73.8776 H   0  0  0  0  0  0  0  0  0  0  0  0
  131.5806  128.6559   72.3367 H   0  0  0  0  0  0  0  0  0  0  0  0
  131.7410  126.9423   71.7177 H   0  0  0  0  0  0  0  0  0  0  0  0
  128.0200  126.1386   70.6466 H   0  0  0  0  0  0  0  0  0  0  0  0
  127.4105  126.3802   68.2596 H   0  0  0  0  0  0  0  0  0  0  0  0
  130.0889  127.0697   65.7095 H   0  0  0  0  0  0  0  0  0  0  0  0
  129.9333  125.2866   64.1832 H   0  0  0  0  0  0  0  0  0  0  0  0
  131.3308  124.2064   62.4409 H   0  0  0  0  0  0  0  0  0  0  0  0
  133.4915  124.5050   61.3685 H   0  0  0  0  0  0  0  0  0  0  0  0
  132.3734  123.3034   60.5713 H   0  0  0  0  0  0  0  0  0  0  0  0
  134.6686  124.8166   59.2297 H   0  0  0  0  0  0  0  0  0  0  0  0
  134.6274  123.0668   59.6506 H   0  0  0  0  0  0  0  0  0  0  0  0
  133.2108  125.6253   57.5431 H   0  0  0  0  0  0  0  0  0  0  0  0
  132.0919  124.4703   56.7322 H   0  0  0  0  0  0  0  0  0  0  0  0
  130.9330  125.9410   58.4080 H   0  0  0  0  0  0  0  0  0  0  0  0
  130.8423  124.1613   58.8060 H   0  0  0  0  0  0  0  0  0  0  0  0
  130.9437  127.7215   59.9593 H   0  0  0  0  0  0  0  0  0  0  0  0
  129.5460  128.7977   61.7023 H   0  0  0  0  0  0  0  0  0  0  0  0
  1  2  1  0
  2  3  2  0
  3  4  1  0
  4  5  2  0
  4  6  1  0
  6  7  1  0
  7  8  2  0
  8  9  1  0
  9 10  2  0
 10 11  1  0
  3 12  1  0
 12 13  1  0
 13 14  2  0
 14 15  1  0
 15 16  1  0
 16 17  2  0
 17 18  1  0
 18 19  2  0
 19 20  1  0
 20 21  1  0
 21 22  1  0
 22 23  1  0
 23 24  1  0
 24 25  1  0
 19 26  1  0
 26 27  2  0
 15 28  2  0
 28 29  1  0
 29 30  1  0
 30 31  2  0
 31 32  1  0
 32 33  2  0
 33 34  1  0
 34 35  1  0
 35 36  1  0
 36 37  1  0
 37 38  1  0
 38 39  1  0
 33 40  1  0
 40 41  2  0
 29 42  2  0
 42  2  1  0
 11  7  1  0
 42 13  1  0
 27 16  1  0
 41 30  1  0
 25 20  1  0
 39 34  1  0
  1 43  1  0
  1 44  1  0
  6 45  1  0
  9 46  1  0
 10 47  1  0
 17 48  1  0
 18 49  1  0
 21 50  1  0
 21 51  1  0
 22 52  1  0
 22 53  1  0
 24 54  1  0
 24 55  1  0
 25 56  1  0
 25 57  1  0
 26 58  1  0
 27 59  1  0
 28 60  1  0
 31 61  1  0
 32 62  1  0
 35 63  1  0
 35 64  1  0
 36 65  1  0
 36 66  1  0
 38 67  1  0
 38 68  1  0
 39 69  1  0
 39 70  1  0
 40 71  1  0
 41 72  1  0
M  END
>  <Binding energies>  (1) 
[-3.49]

>  <Ligand effiencies>  (1) 
[-0.07755555555555556]

>  <Interactions>  (1) 
["V-B:GLU:543:CD:9880, V-A:ILE:369:CD1:3239, V-B:TYR:539:CE2:9848, V-A:HIS:456:CE1:4070, V-B:ASP:366:CG:8185, V-A:GLU:543:C:4902, V-B:HIS:456:CE1:9042, V-A:GLY:544:CA:4914, V-A:GLU:543:CB:4906, H-B:TYR:484:OH:9320, V-A:GLU:543:CD:4908, V-A:GLU:543:CA:4904, V-A:GLY:544:C:4912, V-A:GLU:543:CG:4907, V-B:TYR:484:CZ:9319, V-A:HIS:456:CG:4066, V-A:HIS:456:CD2:4068, V-A:ILE:369:CG2:3237, V-A:ASP:366:CG:3213, V-A:ASP:366:CB:3212, V-A:ILE:369:CB:3236, V-A:ASP:366:CA:3210, V-B:ASP:366:CB:8184, V-A:ILE:369:CG1:3238, V-B:TYR:539:CZ:9849, V-A:TYR:539:CE1:4875, V-A:TYR:539:CZ:4877, V-B:ILE:369:CB:8208, V-B:ASP:366:C:8180, V-B:ASP:366:CA:8182, V-B:ILE:369:CG2:8209, V-B:GLU:543:CB:9878, V-B:HIS:456:CD2:9040, H-A:LYS:547:NZ:4951, H-B:TYR:539:OH:9850"]

$$$$
9d_Ghoteimi_2023
     RDKit          3D

 68 73  0  0  0  0  0  0  0  0999 V2000
  123.5140  131.6790   58.1560 C   0  0  0  0  0  0  0  0  0  0  0  0
  124.5270  132.2640   58.9610 O   0  0  0  0  0  0  0  0  0  0  0  0
  124.3090  132.5210   60.2770 C   0  0  0  0  0  0  0  0  0  0  0  0
  123.6620  133.4860   60.6930 O   0  0  0  0  0  0  0  0  0  0  0  0
  124.9340  131.5220   61.1720 C   0  0  0  0  0  0  0  0  0  0  0  0
  125.4170  131.9840   62.8030 S   0  0  0  0  0  0  0  0  0  0  0  0
  125.9770  130.3630   63.1390 C   0  0  0  0  0  0  0  0  0  0  0  0
  126.4720  130.0290   64.3300 N   0  0  0  0  0  0  0  0  0  0  0  0
  126.8640  128.7390   64.4960 C   0  0  0  0  0  0  0  0  0  0  0  0
  127.3920  128.3810   65.8480 C   0  0  0  0  0  0  0  0  0  0  0  0
  126.6150  127.6340   66.7390 C   0  0  0  0  0  0  0  0  0  0  0  0
  127.0960  127.2970   68.0010 C   0  0  0  0  0  0  0  0  0  0  0  0
  128.3810  127.6850   68.4140 C   0  0  0  0  0  0  0  0  0  0  0  0
  128.8720  127.3690   69.6860 N   0  0  0  0  0  0  0  0  0  0  0  0
  129.8580  128.2350   70.3650 C   0  0  0  0  0  0  0  0  0  0  0  0
  130.5400  127.5690   71.5790 C   0  0  0  0  0  0  0  0  0  0  0  0
  129.5610  127.1010   72.4900 O   0  0  0  0  0  0  0  0  0  0  0  0
  128.7120  126.1370   71.8900 C   0  0  0  0  0  0  0  0  0  0  0  0
  127.9730  126.7550   70.6850 C   0  0  0  0  0  0  0  0  0  0  0  0
  129.1500  128.4470   67.5230 C   0  0  0  0  0  0  0  0  0  0  0  0
  128.6660  128.7860   66.2620 C   0  0  0  0  0  0  0  0  0  0  0  0
  126.7910  127.7990   63.4650 C   0  0  0  0  0  0  0  0  0  0  0  0
  126.2890  128.1500   62.2060 C   0  0  0  0  0  0  0  0  0  0  0  0
  126.2590  127.1180   61.1360 C   0  0  0  0  0  0  0  0  0  0  0  0
  126.4120  127.4770   59.7950 C   0  0  0  0  0  0  0  0  0  0  0  0
  126.4020  126.5050   58.7980 C   0  0  0  0  0  0  0  0  0  0  0  0
  126.2560  125.1460   59.1180 C   0  0  0  0  0  0  0  0  0  0  0  0
  126.2330  124.1540   58.1360 N   0  0  0  0  0  0  0  0  0  0  0  0
  124.9500  123.5060   57.7990 C   0  0  0  0  0  0  0  0  0  0  0  0
  124.9900  122.7340   56.4630 C   0  0  0  0  0  0  0  0  0  0  0  0
  126.0470  121.7870   56.4790 O   0  0  0  0  0  0  0  0  0  0  0  0
  127.3090  122.4110   56.6650 C   0  0  0  0  0  0  0  0  0  0  0  0
  127.3260  123.1710   58.0090 C   0  0  0  0  0  0  0  0  0  0  0  0
  126.1020  124.7980   60.4680 C   0  0  0  0  0  0  0  0  0  0  0  0
  126.1100  125.7700   61.4640 C   0  0  0  0  0  0  0  0  0  0  0  0
  125.8340  129.4860   62.0240 C   0  0  0  0  0  0  0  0  0  0  0  0
  125.2170  130.1740   60.9200 C   0  0  0  0  0  0  0  0  0  0  0  0
  124.9120  129.5560   59.7340 N   0  0  0  0  0  0  0  0  0  0  0  0
  122.7433  131.2339   58.8025 H   0  0  0  0  0  0  0  0  0  0  0  0
  123.0578  132.4527   57.5210 H   0  0  0  0  0  0  0  0  0  0  0  0
  123.9561  130.8972   57.5210 H   0  0  0  0  0  0  0  0  0  0  0  0
  125.6085  127.3078   66.4380 H   0  0  0  0  0  0  0  0  0  0  0  0
  126.4594  126.7175   68.6858 H   0  0  0  0  0  0  0  0  0  0  0  0
  130.6362  128.5108   69.6381 H   0  0  0  0  0  0  0  0  0  0  0  0
  129.3088  129.1089   70.7454 H   0  0  0  0  0  0  0  0  0  0  0  0
  131.1507  126.7217   71.2339 H   0  0  0  0  0  0  0  0  0  0  0  0
  131.1784  128.3086   72.0844 H   0  0  0  0  0  0  0  0  0  0  0  0
  129.3159  125.2838   71.5474 H   0  0  0  0  0  0  0  0  0  0  0  0
  127.9720  125.7996   72.6306 H   0  0  0  0  0  0  0  0  0  0  0  0
  127.3936  125.9621   70.1894 H   0  0  0  0  0  0  0  0  0  0  0  0
  127.3341  127.5592   71.0787 H   0  0  0  0  0  0  0  0  0  0  0  0
  130.1529  128.7828   67.8253 H   0  0  0  0  0  0  0  0  0  0  0  0
  129.2938  129.3804   65.5819 H   0  0  0  0  0  0  0  0  0  0  0  0
  127.1326  126.7690   63.6449 H   0  0  0  0  0  0  0  0  0  0  0  0
  126.5413  128.5353   59.5244 H   0  0  0  0  0  0  0  0  0  0  0  0
  126.5100  126.8061   57.7455 H   0  0  0  0  0  0  0  0  0  0  0  0
  124.6932  122.8003   58.6028 H   0  0  0  0  0  0  0  0  0  0  0  0
  124.1995  124.3032   57.6930 H   0  0  0  0  0  0  0  0  0  0  0  0
  124.0340  122.2099   56.3168 H   0  0  0  0  0  0  0  0  0  0  0  0
  125.1561  123.4454   55.6406 H   0  0  0  0  0  0  0  0  0  0  0  0
  128.0979  121.6444   56.6694 H   0  0  0  0  0  0  0  0  0  0  0  0
  127.4861  123.1219   55.8445 H   0  0  0  0  0  0  0  0  0  0  0  0
  127.2345  122.4394   58.8253 H   0  0  0  0  0  0  0  0  0  0  0  0
  128.2733  123.7282   58.0569 H   0  0  0  0  0  0  0  0  0  0  0  0
  125.9730  123.7409   60.7436 H   0  0  0  0  0  0  0  0  0  0  0  0
  125.9981  125.4734   62.5173 H   0  0  0  0  0  0  0  0  0  0  0  0
  124.5010  128.6340   59.7050 H   0  0  0  0  0  0  0  0  0  0  0  0
  125.0840  130.0060   58.8460 H   0  0  0  0  0  0  0  0  0  0  0  0
  1  2  1  0
  2  3  1  0
  3  4  2  0
  3  5  1  0
  5  6  1  0
  6  7  1  0
  7  8  2  0
  8  9  1  0
  9 10  1  0
 10 11  2  0
 11 12  1  0
 12 13  2  0
 13 14  1  0
 14 15  1  0
 15 16  1  0
 16 17  1  0
 17 18  1  0
 18 19  1  0
 13 20  1  0
 20 21  2  0
  9 22  2  0
 22 23  1  0
 23 24  1  0
 24 25  2  0
 25 26  1  0
 26 27  2  0
 27 28  1  0
 28 29  1  0
 29 30  1  0
 30 31  1  0
 31 32  1  0
 32 33  1  0
 27 34  1  0
 34 35  2  0
 23 36  2  0
 36 37  1  0
 37 38  1  0
 37  5  2  0
 36  7  1  0
 21 10  1  0
 35 24  1  0
 19 14  1  0
 33 28  1  0
  1 39  1  0
  1 40  1  0
  1 41  1  0
 11 42  1  0
 12 43  1  0
 15 44  1  0
 15 45  1  0
 16 46  1  0
 16 47  1  0
 18 48  1  0
 18 49  1  0
 19 50  1  0
 19 51  1  0
 20 52  1  0
 21 53  1  0
 22 54  1  0
 25 55  1  0
 26 56  1  0
 29 57  1  0
 29 58  1  0
 30 59  1  0
 30 60  1  0
 32 61  1  0
 32 62  1  0
 33 63  1  0
 33 64  1  0
 34 65  1  0
 35 66  1  0
 38 67  1  0
 38 68  1  0
M  END
>  <Binding energies>  (1) 
[-5.71]

>  <Ligand effiencies>  (1) 
[-0.14275]

>  <Interactions>  (1) 
["V-B:PRO:540:CD:9859, V-B:LEU:363:CD1:8161, V-B:ILE:538:CD1:9837, V-B:PRO:540:CB:9857, V-B:TYR:539:C:9839, V-B:PRO:540:CA:9855, V-B:PRO:540:N:9856, V-B:GLU:543:CD:9880, V-B:TYR:539:CE2:9848, V-B:ILE:538:CG2:9835, V-A:HIS:456:CE1:4070, V-B:ASP:366:CG:8185, V-B:TYR:539:CA:9841, V-B:TYR:539:CD2:9846, V-B:HIS:456:CE1:9042, V-B:ARG:545:CZ:9898, V-A:GLU:543:CB:4906, H-B:TYR:484:OH:9320, V-A:GLU:543:CD:4908, V-A:GLY:544:C:4912, V-B:ILE:369:CD1:8211, V-A:GLU:543:CG:4907, V-A:HIS:456:CG:4066, V-B:LEU:475:CD2:9231, V-A:HIS:456:CD2:4068, V-B:TYR:531:CE2:9765, H-B:ASP:366:OD2:8187, V-B:TYR:539:CG:9844, V-B:ASP:366:CB:8184, V-B:TYR:539:CZ:9849, V-B:TYR:539:CE1:9847, V-B:TYR:539:CD1:9845, H-B:TYR:539:N:9842, V-B:ARG:545:CG:9894, V-A:TYR:539:CE1:4875, V-A:TYR:539:CZ:4877, V-B:ILE:369:CB:8208, V-B:ASP:366:CA:8182, V-B:ILE:369:CG2:8209, V-B:GLU:543:CB:9878, V-B:HIS:456:CD2:9040, H-B:LYS:547:NZ:9923, H-B:ASP:366:OD1:8186"]

$$$$
RR10_Rahimova_2017
     RDKit          3D

 66 70  0  0  0  0  0  0  0  0999 V2000
  133.5390  124.6610   57.9930 C   0  0  0  0  0  0  0  0  0  0  0  0
  133.4480  124.1220   59.4300 C   0  0  1  0  0  0  0  0  0  0  0  0
  132.5880  125.0330   60.3360 C   0  0  0  0  0  0  0  0  0  0  0  0
  132.5400  124.4910   61.7820 C   0  0  0  0  0  0  0  0  0  0  0  0
  131.9870  123.0440   61.8460 C   0  0  1  0  0  0  0  0  0  0  0  0
  130.5620  123.0150   61.4920 N   0  0  0  0  0  0  0  0  0  0  0  0
  129.6760  122.0860   61.8960 C   0  0  0  0  0  0  0  0  0  0  0  0
  129.9770  121.1520   62.6440 O   0  0  0  0  0  0  0  0  0  0  0  0
  128.2340  122.2250   61.3670 C   0  0  1  0  0  0  0  0  0  0  0  0
  127.3520  122.9040   62.4470 C   0  0  0  0  0  0  0  0  0  0  0  0
  125.9280  123.1290   61.8860 C   0  0  0  0  0  0  0  0  0  0  0  0
  125.9360  123.8660   60.5270 C   0  0  0  0  0  0  0  0  0  0  0  0
  126.8530  123.1910   59.5690 N   0  0  0  0  0  0  0  0  0  0  0  0
  126.7190  123.7640   57.8980 S   0  0  0  0  0  0  0  0  0  0  0  0
  125.2930  123.8780   57.5670 O   0  0  0  0  0  0  0  0  0  0  0  0
  127.6070  122.9410   57.0660 O   0  0  0  0  0  0  0  0  0  0  0  0
  127.3770  125.4310   57.9230 C   0  0  0  0  0  0  0  0  0  0  0  0
  126.5040  126.5140   57.7800 C   0  0  0  0  0  0  0  0  0  0  0  0
  126.9540  127.8380   57.7890 C   0  0  0  0  0  0  0  0  0  0  0  0
  128.3280  128.0290   57.9510 C   0  0  0  0  0  0  0  0  0  0  0  0
  129.1350  129.1400   58.0050 N   0  0  0  0  0  0  0  0  0  0  0  0
  130.4350  128.7130   58.1810 C   0  0  0  0  0  0  0  0  0  0  0  0
  131.6100  129.6440   58.2780 C   0  0  0  0  0  0  0  0  0  0  0  0
  131.7360  130.5160   59.3680 C   0  0  0  0  0  0  0  0  0  0  0  0
  132.8260  131.3770   59.4610 C   0  0  0  0  0  0  0  0  0  0  0  0
  133.7970  131.3710   58.4630 C   0  0  0  0  0  0  0  0  0  0  0  0
  133.6870  130.5110   57.3740 C   0  0  0  0  0  0  0  0  0  0  0  0
  132.5960  129.6510   57.2820 C   0  0  0  0  0  0  0  0  0  0  0  0
  130.5180  127.4030   58.2490 N   0  0  0  0  0  0  0  0  0  0  0  0
  129.2320  126.9510   58.1070 C   0  0  0  0  0  0  0  0  0  0  0  0
  128.7520  125.6340   58.0970 C   0  0  0  0  0  0  0  0  0  0  0  0
  128.2460  123.0680   60.0680 C   0  0  0  0  0  0  0  0  0  0  0  0
  132.8500  122.1440   60.9200 C   0  0  0  0  0  0  0  0  0  0  0  0
  132.8940  122.6780   59.4710 C   0  0  0  0  0  0  0  0  0  0  0  0
  133.7221  125.7453   58.0190 H   0  0  0  0  0  0  0  0  0  0  0  0
  134.3656  124.1621   57.4659 H   0  0  0  0  0  0  0  0  0  0  0  0
  132.5944  124.4612   57.4659 H   0  0  0  0  0  0  0  0  0  0  0  0
  134.4773  124.1142   59.8178 H   0  0  0  0  0  0  0  0  0  0  0  0
  133.0219  126.0437   60.3451 H   0  0  0  0  0  0  0  0  0  0  0  0
  131.5632  125.0566   59.9368 H   0  0  0  0  0  0  0  0  0  0  0  0
  133.5583  124.5000   62.1978 H   0  0  0  0  0  0  0  0  0  0  0  0
  131.8652  125.1368   62.3629 H   0  0  0  0  0  0  0  0  0  0  0  0
  132.0547  122.6537   62.8722 H   0  0  0  0  0  0  0  0  0  0  0  0
  130.2660  123.6860   60.7980 H   0  0  0  0  0  0  0  0  0  0  0  0
  127.8175  121.2317   61.1437 H   0  0  0  0  0  0  0  0  0  0  0  0
  127.2978  122.2575   63.3353 H   0  0  0  0  0  0  0  0  0  0  0  0
  127.7934  123.8728   62.7238 H   0  0  0  0  0  0  0  0  0  0  0  0
  125.4424  122.1509   61.7539 H   0  0  0  0  0  0  0  0  0  0  0  0
  125.3818  123.7584   62.6040 H   0  0  0  0  0  0  0  0  0  0  0  0
  124.9175  123.8686   60.1114 H   0  0  0  0  0  0  0  0  0  0  0  0
  126.2857  124.8968   60.6853 H   0  0  0  0  0  0  0  0  0  0  0  0
  125.4287  126.3181   57.6565 H   0  0  0  0  0  0  0  0  0  0  0  0
  126.2617  128.6851   57.6744 H   0  0  0  0  0  0  0  0  0  0  0  0
  128.8760  130.1140   57.9310 H   0  0  0  0  0  0  0  0  0  0  0  0
  130.9681  130.5201   60.1556 H   0  0  0  0  0  0  0  0  0  0  0  0
  132.9198  132.0590   60.3190 H   0  0  0  0  0  0  0  0  0  0  0  0
  134.6582  132.0515   58.5358 H   0  0  0  0  0  0  0  0  0  0  0  0
  134.4584  130.5109   56.5898 H   0  0  0  0  0  0  0  0  0  0  0  0
  132.5072  128.9720   56.4212 H   0  0  0  0  0  0  0  0  0  0  0  0
  129.4370  124.7825   58.2225 H   0  0  0  0  0  0  0  0  0  0  0  0
  128.8686  122.5709   59.3096 H   0  0  0  0  0  0  0  0  0  0  0  0
  128.6611  124.0660   60.2720 H   0  0  0  0  0  0  0  0  0  0  0  0
  133.8755  122.1070   61.3161 H   0  0  0  0  0  0  0  0  0  0  0  0
  132.3950  121.1427   60.8994 H   0  0  0  0  0  0  0  0  0  0  0  0
  133.5424  122.0264   58.8668 H   0  0  0  0  0  0  0  0  0  0  0  0
  131.8706  122.6832   59.0677 H   0  0  0  0  0  0  0  0  0  0  0  0
  1  2  1  0
  2  3  1  0
  3  4  1  0
  4  5  1  0
  5  6  1  0
  6  7  1  0
  7  8  2  0
  7  9  1  0
  9 10  1  0
 10 11  1  0
 11 12  1  0
 12 13  1  0
 13 14  1  0
 14 15  2  0
 14 16  2  0
 14 17  1  0
 17 18  2  0
 18 19  1  0
 19 20  2  0
 20 21  1  0
 21 22  1  0
 22 23  1  0
 23 24  2  0
 24 25  1  0
 25 26  2  0
 26 27  1  0
 27 28  2  0
 22 29  2  0
 29 30  1  0
 30 31  2  0
 13 32  1  0
  5 33  1  0
 33 34  1  0
 34  2  1  0
 32  9  1  0
 31 17  1  0
 30 20  1  0
 28 23  1  0
  1 35  1  0
  1 36  1  0
  1 37  1  0
  2 38  1  1
  3 39  1  0
  3 40  1  0
  4 41  1  0
  4 42  1  0
  5 43  1  1
  6 44  1  0
  9 45  1  6
 10 46  1  0
 10 47  1  0
 11 48  1  0
 11 49  1  0
 12 50  1  0
 12 51  1  0
 18 52  1  0
 19 53  1  0
 21 54  1  0
 24 55  1  0
 25 56  1  0
 26 57  1  0
 27 58  1  0
 28 59  1  0
 31 60  1  0
 32 61  1  0
 32 62  1  0
 33 63  1  0
 33 64  1  0
 34 65  1  0
 34 66  1  0
M  END
>  <Binding energies>  (1) 
[-8.97]

>  <Ligand effiencies>  (1) 
[-0.24916666666666668]

>  <Interactions>  (1) 
["V-B:PRO:540:CB:9857, V-B:PRO:540:CA:9855, V-B:GLU:543:CD:9880, V-A:ILE:369:CD1:3239, V-B:TYR:539:CE2:9848, V-B:PRO:540:C:9853, V-A:LEU:475:CD2:4259, H-A:TYR:484:OH:4348, V-B:TYR:539:CD2:9846, V-B:ALA:541:CB:9864, V-A:ILE:369:CG2:3237, V-A:ASP:366:CG:3213, V-A:ASP:366:CB:3212, V-A:ILE:369:CB:3236, V-A:ASP:366:C:3208, V-A:ASP:366:CA:3210, V-B:GLU:543:CG:9879, H-B:TYR:531:OH:9767, V-A:PRO:540:CA:4883, V-A:PRO:540:CB:4885, V-A:LEU:363:CD1:3189, V-A:LEU:363:CA:3185, V-A:LEU:363:CB:3187"]

$$$$
RR11_Rahimova_2017
     RDKit          3D

 55 60  0  0  0  0  0  0  0  0999 V2000
  133.8690  123.9570   56.9920 N   0  0  0  0  0  0  0  0  0  0  0  0
  133.0230  125.0230   57.2920 C   0  0  0  0  0  0  0  0  0  0  0  0
  132.8670  126.0630   56.3780 C   0  0  0  0  0  0  0  0  0  0  0  0
  132.0200  127.1260   56.6780 C   0  0  0  0  0  0  0  0  0  0  0  0
  131.3220  127.1600   57.8920 C   0  0  0  0  0  0  0  0  0  0  0  0
  130.4050  128.3030   58.2110 C   0  0  0  0  0  0  0  0  0  0  0  0
  129.4590  128.2650   59.1240 N   0  0  0  0  0  0  0  0  0  0  0  0
  128.8790  129.5060   59.0960 C   0  0  0  0  0  0  0  0  0  0  0  0
  127.8250  130.0090   59.8710 C   0  0  0  0  0  0  0  0  0  0  0  0
  127.4200  131.3330   59.6660 C   0  0  0  0  0  0  0  0  0  0  0  0
  126.2730  131.9040   60.4890 C   0  0  0  0  0  0  0  0  0  0  0  0
  125.9900  131.1020   61.7510 C   0  0  0  0  0  0  0  0  0  0  0  0
  124.6700  130.7700   62.0750 C   0  0  0  0  0  0  0  0  0  0  0  0
  124.3610  130.0280   63.2170 C   0  0  0  0  0  0  0  0  0  0  0  0
  125.4160  129.6110   64.0390 C   0  0  0  0  0  0  0  0  0  0  0  0
  125.3770  128.8880   65.2030 N   0  0  0  0  0  0  0  0  0  0  0  0
  126.6310  128.7690   65.5810 C   0  0  0  0  0  0  0  0  0  0  0  0
  127.0790  128.0600   66.8260 C   0  0  0  0  0  0  0  0  0  0  0  0
  126.2120  127.1900   67.4990 C   0  0  0  0  0  0  0  0  0  0  0  0
  126.6240  126.5400   68.6600 C   0  0  0  0  0  0  0  0  0  0  0  0
  127.9070  126.7560   69.1560 C   0  0  0  0  0  0  0  0  0  0  0  0
  128.3190  126.1090   70.3210 N   0  0  0  0  0  0  0  0  0  0  0  0
  128.7810  127.6150   68.4950 C   0  0  0  0  0  0  0  0  0  0  0  0
  128.3690  128.2640   67.3350 C   0  0  0  0  0  0  0  0  0  0  0  0
  127.4960  129.3840   64.7000 N   0  0  0  0  0  0  0  0  0  0  0  0
  126.7470  129.9420   63.6910 C   0  0  0  0  0  0  0  0  0  0  0  0
  127.0630  130.6800   62.5470 C   0  0  0  0  0  0  0  0  0  0  0  0
  128.0370  132.1240   58.6900 C   0  0  0  0  0  0  0  0  0  0  0  0
  129.0860  131.6510   57.8990 C   0  0  0  0  0  0  0  0  0  0  0  0
  129.4920  130.3340   58.1260 C   0  0  0  0  0  0  0  0  0  0  0  0
  130.4620  129.5280   57.5780 N   0  0  0  0  0  0  0  0  0  0  0  0
  131.4890  126.1070   58.8020 C   0  0  0  0  0  0  0  0  0  0  0  0
  132.3360  125.0420   58.5050 C   0  0  0  0  0  0  0  0  0  0  0  0
  133.4720  123.0700   56.7130 H   0  0  0  0  0  0  0  0  0  0  0  0
  134.8690  124.0940   57.0170 H   0  0  0  0  0  0  0  0  0  0  0  0
  133.4115  126.0440   55.4224 H   0  0  0  0  0  0  0  0  0  0  0  0
  131.8977  127.9464   55.9555 H   0  0  0  0  0  0  0  0  0  0  0  0
  127.3279  129.3781   60.6226 H   0  0  0  0  0  0  0  0  0  0  0  0
  126.5279  132.9342   60.7782 H   0  0  0  0  0  0  0  0  0  0  0  0
  125.3684  131.8648   59.8644 H   0  0  0  0  0  0  0  0  0  0  0  0
  123.8557  131.1016   61.4140 H   0  0  0  0  0  0  0  0  0  0  0  0
  123.3187  129.7780   63.4641 H   0  0  0  0  0  0  0  0  0  0  0  0
  125.1983  127.0188   67.1078 H   0  0  0  0  0  0  0  0  0  0  0  0
  125.9378  125.8580   69.1835 H   0  0  0  0  0  0  0  0  0  0  0  0
  128.4540  126.6460   71.1670 H   0  0  0  0  0  0  0  0  0  0  0  0
  128.4430  125.1070   70.3150 H   0  0  0  0  0  0  0  0  0  0  0  0
  129.7947  127.7802   68.8888 H   0  0  0  0  0  0  0  0  0  0  0  0
  129.0607  128.9421   66.8137 H   0  0  0  0  0  0  0  0  0  0  0  0
  128.4980  129.3980   64.8250 H   0  0  0  0  0  0  0  0  0  0  0  0
  128.1042  130.9181   62.2841 H   0  0  0  0  0  0  0  0  0  0  0  0
  127.6830  133.1547   58.5408 H   0  0  0  0  0  0  0  0  0  0  0  0
  129.5672  132.2822   57.1374 H   0  0  0  0  0  0  0  0  0  0  0  0
  131.1230  129.7450   56.8470 H   0  0  0  0  0  0  0  0  0  0  0  0
  130.9465  126.1219   59.7588 H   0  0  0  0  0  0  0  0  0  0  0  0
  132.4624  124.2195   59.2244 H   0  0  0  0  0  0  0  0  0  0  0  0
  1  2  1  0
  2  3  2  0
  3  4  1  0
  4  5  2  0
  5  6  1  0
  6  7  2  0
  7  8  1  0
  8  9  2  0
  9 10  1  0
 10 11  1  0
 11 12  1  0
 12 13  2  0
 13 14  1  0
 14 15  2  0
 15 16  1  0
 16 17  2  0
 17 18  1  0
 18 19  2  0
 19 20  1  0
 20 21  2  0
 21 22  1  0
 21 23  1  0
 23 24  2  0
 17 25  1  0
 25 26  1  0
 26 27  2  0
 10 28  2  0
 28 29  1  0
 29 30  2  0
 30 31  1  0
  5 32  1  0
 32 33  2  0
 33  2  1  0
 31  6  1  0
 30  8  1  0
 27 12  1  0
 26 15  1  0
 24 18  1  0
  1 34  1  0
  1 35  1  0
  3 36  1  0
  4 37  1  0
  9 38  1  0
 11 39  1  0
 11 40  1  0
 13 41  1  0
 14 42  1  0
 19 43  1  0
 20 44  1  0
 22 45  1  0
 22 46  1  0
 23 47  1  0
 24 48  1  0
 25 49  1  0
 27 50  1  0
 28 51  1  0
 29 52  1  0
 31 53  1  0
 32 54  1  0
 33 55  1  0
M  END
>  <Binding energies>  (1) 
[-6.66]

>  <Ligand effiencies>  (1) 
[-0.17076923076923078]

>  <Interactions>  (1) 
["V-B:GLU:543:CD:9880, V-B:TYR:539:CE2:9848, V-A:HIS:456:CE1:4070, V-B:HIS:456:CE1:9042, V-B:ARG:545:CZ:9898, V-A:GLU:543:CB:4906, H-B:TYR:484:OH:9320, V-A:GLU:543:CD:4908, V-A:GLU:543:CG:4907, H-B:ARG:545:NE:9896, V-A:HIS:456:CD2:4068, H-A:GLU:543:OE1:4909, V-A:ILE:369:CG2:3237, H-A:GLU:543:OE2:4910, V-A:ASP:366:CG:3213, V-A:ASP:366:CB:3212, V-A:ILE:369:CB:3236, V-A:ASP:366:C:3208, V-A:ASP:366:CA:3210, V-B:TYR:539:CZ:9849, H-B:ARG:545:NH2:9900, V-B:ARG:545:CG:9894, V-B:ARG:545:CD:9895, H-A:TYR:531:OH:4795, V-A:TYR:539:CD1:4873, V-A:TYR:539:CE1:4875, V-B:GLU:543:CB:9878, V-B:GLU:543:C:9874, H-B:TYR:539:OH:9850, H-B:HIS:456:NE2:9043, V-A:ASN:370:CB:3245, H-A:ASP:366:O:3209, V-B:ARG:545:CA:9891, H-A:HIS:456:NE2:4071, H-B:GLU:543:O:9875, V-A:ASN:370:CA:3243, V-A:ILE:369:C:3232"]

$$$$
RR11_Rahimova_2017-again1
     RDKit          3D

 56 61  0  0  0  0  0  0  0  0999 V2000
  131.6290  117.3560   60.5730 N   0  0  0  0  0  0  0  0  0  0  0  0
  131.3800  118.7280   60.5730 C   0  0  0  0  0  0  0  0  0  0  0  0
  130.1930  119.2180   61.1120 C   0  0  0  0  0  0  0  0  0  0  0  0
  129.9440  120.5890   61.1090 C   0  0  0  0  0  0  0  0  0  0  0  0
  130.8800  121.4790   60.5650 C   0  0  0  0  0  0  0  0  0  0  0  0
  130.6070  122.9550   60.5540 C   0  0  0  0  0  0  0  0  0  0  0  0
  131.4670  123.8660   60.1540 N   0  0  0  0  0  0  0  0  0  0  0  0
  130.8300  125.0670   60.3270 C   0  0  0  0  0  0  0  0  0  0  0  0
  131.2920  126.3630   60.0640 C   0  0  0  0  0  0  0  0  0  0  0  0
  130.4430  127.4340   60.3440 C   0  0  0  0  0  0  0  0  0  0  0  0
  129.1630  127.2360   60.8750 C   0  0  0  0  0  0  0  0  0  0  0  0
  128.2790  128.4410   61.1660 C   0  0  0  0  0  0  0  0  0  0  0  0
  128.2470  128.8010   62.6450 C   0  0  0  0  0  0  0  0  0  0  0  0
  127.6990  130.0250   63.0470 C   0  0  0  0  0  0  0  0  0  0  0  0
  127.6430  130.4100   64.3880 C   0  0  0  0  0  0  0  0  0  0  0  0
  128.1600  129.5070   65.3210 C   0  0  0  0  0  0  0  0  0  0  0  0
  128.2750  129.5680   66.7040 N   0  0  0  0  0  0  0  0  0  0  0  0
  128.8670  128.4210   67.1800 C   0  0  0  0  0  0  0  0  0  0  0  0
  129.1860  128.0990   68.6040 C   0  0  0  0  0  0  0  0  0  0  0  0
  130.2550  128.7370   69.2450 C   0  0  0  0  0  0  0  0  0  0  0  0
  130.5520  128.4470   70.5740 C   0  0  0  0  0  0  0  0  0  0  0  0
  129.7810  127.5170   71.2690 C   0  0  0  0  0  0  0  0  0  0  0  0
  130.0760  127.2310   72.6010 N   0  0  0  0  0  0  0  0  0  0  0  0
  128.7160  126.8750   70.6390 C   0  0  0  0  0  0  0  0  0  0  0  0
  128.4190  127.1650   69.3100 C   0  0  0  0  0  0  0  0  0  0  0  0
  129.1170  127.6290   66.0830 N   0  0  0  0  0  0  0  0  0  0  0  0
  128.6980  128.2700   64.9260 C   0  0  0  0  0  0  0  0  0  0  0  0
  128.7450  127.8870   63.5830 C   0  0  0  0  0  0  0  0  0  0  0  0
  128.6690  125.9480   61.1240 C   0  0  0  0  0  0  0  0  0  0  0  0
  129.5270  124.8810   60.8490 C   0  0  0  0  0  0  0  0  0  0  0  0
  129.4190  123.5160   60.9740 N   0  0  0  0  0  0  0  0  0  0  0  0
  132.0700  120.9720   60.0270 C   0  0  0  0  0  0  0  0  0  0  0  0
  132.3200  119.6020   60.0310 C   0  0  0  0  0  0  0  0  0  0  0  0
  130.9030  116.7200   60.2780 H   0  0  0  0  0  0  0  0  0  0  0  0
  132.5180  117.0130   60.9060 H   0  0  0  0  0  0  0  0  0  0  0  0
  129.4538  118.5244   61.5391 H   0  0  0  0  0  0  0  0  0  0  0  0
  129.0068  120.9752   61.5363 H   0  0  0  0  0  0  0  0  0  0  0  0
  132.2964  126.5316   59.6482 H   0  0  0  0  0  0  0  0  0  0  0  0
  130.7878  128.4590   60.1426 H   0  0  0  0  0  0  0  0  0  0  0  0
  128.6628  129.3038   60.6018 H   0  0  0  0  0  0  0  0  0  0  0  0
  127.2534  128.1821   60.8642 H   0  0  0  0  0  0  0  0  0  0  0  0
  127.2993  130.7059   62.2811 H   0  0  0  0  0  0  0  0  0  0  0  0
  127.2137  131.3752   64.6946 H   0  0  0  0  0  0  0  0  0  0  0  0
  127.9890  130.3220   67.3110 H   0  0  0  0  0  0  0  0  0  0  0  0
  130.8631  129.4709   68.6959 H   0  0  0  0  0  0  0  0  0  0  0  0
  131.3926  128.9504   71.0739 H   0  0  0  0  0  0  0  0  0  0  0  0
  130.9910  127.4550   72.9670 H   0  0  0  0  0  0  0  0  0  0  0  0
  129.3840  126.7770   73.1780 H   0  0  0  0  0  0  0  0  0  0  0  0
  128.1112  126.1405   71.1910 H   0  0  0  0  0  0  0  0  0  0  0  0
  127.5786  126.6583   68.8131 H   0  0  0  0  0  0  0  0  0  0  0  0
  129.5510  126.7220   66.1600 H   0  0  0  0  0  0  0  0  0  0  0  0
  129.1540  126.9130   63.2764 H   0  0  0  0  0  0  0  0  0  0  0  0
  127.6545  125.7856   61.5170 H   0  0  0  0  0  0  0  0  0  0  0  0
  128.6400  122.9730   61.3160 H   0  0  0  0  0  0  0  0  0  0  0  0
  132.8124  121.6612   59.5982 H   0  0  0  0  0  0  0  0  0  0  0  0
  133.2569  119.2110   59.6075 H   0  0  0  0  0  0  0  0  0  0  0  0
  1  2  1  0
  2  3  2  0
  3  4  1  0
  4  5  2  0
  5  6  1  0
  6  7  2  0
  7  8  1  0
  8  9  2  0
  9 10  1  0
 10 11  2  0
 11 12  1  0
 12 13  1  0
 13 14  2  0
 14 15  1  0
 15 16  2  0
 16 17  1  0
 17 18  1  0
 18 19  1  0
 19 20  2  0
 20 21  1  0
 21 22  2  0
 22 23  1  0
 22 24  1  0
 24 25  2  0
 18 26  2  0
 26 27  1  0
 27 28  2  0
 11 29  1  0
 29 30  2  0
 30 31  1  0
  5 32  1  0
 32 33  2  0
 33  2  1  0
 31  6  1  0
 30  8  1  0
 28 13  1  0
 27 16  1  0
 25 19  1  0
  1 34  1  0
  1 35  1  0
  3 36  1  0
  4 37  1  0
  9 38  1  0
 10 39  1  0
 12 40  1  0
 12 41  1  0
 14 42  1  0
 15 43  1  0
 17 44  1  0
 20 45  1  0
 21 46  1  0
 23 47  1  0
 23 48  1  0
 24 49  1  0
 25 50  1  0
 26 51  1  0
 28 52  1  0
 29 53  1  0
 31 54  1  0
 32 55  1  0
 33 56  1  0
M  CHG  1  26   1
M  END
>  <Binding energies>  (1) 
[-5.76]

>  <Ligand effiencies>  (1) 
[-0.144]

>  <Interactions>  (1) 
["V-B:TYR:539:C:9839, V-B:GLU:543:CD:9880, V-B:TYR:539:CE2:9848, V-A:HIS:456:CE1:4070, V-A:SER:385:CB:3409, V-A:LEU:475:CD2:4259, V-B:TYR:539:CD2:9846, V-A:LEU:475:CD1:4258, V-A:LEU:475:CG:4257, V-B:ALA:541:CB:9864, V-A:GLU:543:C:4902, V-B:HIS:456:CE1:9042, V-A:GLY:544:CA:4914, V-A:GLU:543:CB:4906, H-B:TYR:484:OH:9320, V-A:GLU:543:CD:4908, V-A:GLU:543:CA:4904, V-A:GLY:544:C:4912, V-A:GLU:543:CG:4907, V-B:TYR:484:CZ:9319, V-A:HIS:456:CG:4066, V-A:HIS:456:CD2:4068, V-A:ILE:369:CG2:3237, H-A:GLU:543:OE2:4910, V-A:ASP:366:CG:3213, H-B:GLU:543:OE2:9882, V-B:HIS:456:CD2:9040, V-B:TYR:484:CE2:9318, H-A:GLU:543:O:4903, H-B:HIS:456:NE2:9043, H-A:SER:385:OG:3410, H-A:GLY:544:O:4913"]

$$$$
RR11_Rahimova_2017-again2
     RDKit          3D

 57 62  0  0  0  0  0  0  0  0999 V2000
  131.7250  117.2310   60.5240 N   0  0  0  0  0  0  0  0  0  0  0  0
  131.4650  118.6000   60.5400 C   0  0  0  0  0  0  0  0  0  0  0  0
  132.3920  119.4890   60.0000 C   0  0  0  0  0  0  0  0  0  0  0  0
  132.1350  120.8570   60.0210 C   0  0  0  0  0  0  0  0  0  0  0  0
  130.9480  121.3440   60.5830 C   0  0  0  0  0  0  0  0  0  0  0  0
  130.6770  122.8130   60.6150 C   0  0  0  0  0  0  0  0  0  0  0  0
  129.4990  123.4250   60.9820 N   0  0  0  0  0  0  0  0  0  0  0  0
  129.6350  124.8040   60.9050 C   0  0  0  0  0  0  0  0  0  0  0  0
  128.7410  125.8430   61.1790 C   0  0  0  0  0  0  0  0  0  0  0  0
  129.2170  127.1500   61.0120 C   0  0  0  0  0  0  0  0  0  0  0  0
  128.2910  128.3240   61.3010 C   0  0  0  0  0  0  0  0  0  0  0  0
  128.2780  128.7180   62.7710 C   0  0  0  0  0  0  0  0  0  0  0  0
  127.7750  129.9690   63.1460 C   0  0  0  0  0  0  0  0  0  0  0  0
  127.7380  130.3860   64.4790 C   0  0  0  0  0  0  0  0  0  0  0  0
  128.2260  129.4870   65.4310 C   0  0  0  0  0  0  0  0  0  0  0  0
  128.3470  129.5770   66.8110 N   0  0  0  0  0  0  0  0  0  0  0  0
  128.8980  128.4210   67.3140 C   0  0  0  0  0  0  0  0  0  0  0  0
  129.2080  128.1240   68.7450 C   0  0  0  0  0  0  0  0  0  0  0  0
  128.4500  127.1820   69.4500 C   0  0  0  0  0  0  0  0  0  0  0  0
  128.7450  126.8960   70.7810 C   0  0  0  0  0  0  0  0  0  0  0  0
  129.7990  127.5530   71.4130 C   0  0  0  0  0  0  0  0  0  0  0  0
  130.0990  127.2640   72.7440 N   0  0  0  0  0  0  0  0  0  0  0  0
  130.5580  128.4960   70.7210 C   0  0  0  0  0  0  0  0  0  0  0  0
  130.2630  128.7800   69.3910 C   0  0  0  0  0  0  0  0  0  0  0  0
  129.1170  127.5950   66.2360 N   0  0  0  0  0  0  0  0  0  0  0  0
  128.7200  128.2240   65.0630 C   0  0  0  0  0  0  0  0  0  0  0  0
  128.7490  127.8090   63.7290 C   0  0  0  0  0  0  0  0  0  0  0  0
  130.5200  127.3950   60.5620 C   0  0  0  0  0  0  0  0  0  0  0  0
  131.4150  126.3610   60.2800 C   0  0  0  0  0  0  0  0  0  0  0  0
  130.9450  125.0580   60.4660 C   0  0  0  0  0  0  0  0  0  0  0  0
  131.5560  123.8220   60.2970 N   0  0  0  0  0  0  0  0  0  0  0  0
  130.0220  120.4420   61.1190 C   0  0  0  0  0  0  0  0  0  0  0  0
  130.2790  119.0740   61.0980 C   0  0  0  0  0  0  0  0  0  0  0  0
  131.0870  116.6090   60.0470 H   0  0  0  0  0  0  0  0  0  0  0  0
  132.5100  116.8670   61.0450 H   0  0  0  0  0  0  0  0  0  0  0  0
  133.3254  119.1105   59.5578 H   0  0  0  0  0  0  0  0  0  0  0  0
  132.8672  121.5584   59.5945 H   0  0  0  0  0  0  0  0  0  0  0  0
  128.6840  122.9020   61.2650 H   0  0  0  0  0  0  0  0  0  0  0  0
  127.7112  125.6436   61.5105 H   0  0  0  0  0  0  0  0  0  0  0  0
  128.6246  129.1887   60.7085 H   0  0  0  0  0  0  0  0  0  0  0  0
  127.2703  128.0141   61.0325 H   0  0  0  0  0  0  0  0  0  0  0  0
  127.3965  130.6459   62.3660 H   0  0  0  0  0  0  0  0  0  0  0  0
  127.3444  131.3726   64.7648 H   0  0  0  0  0  0  0  0  0  0  0  0
  128.0880  130.3540   67.4020 H   0  0  0  0  0  0  0  0  0  0  0  0
  127.6173  126.6650   68.9506 H   0  0  0  0  0  0  0  0  0  0  0  0
  128.1479  126.1540   71.3314 H   0  0  0  0  0  0  0  0  0  0  0  0
  129.4950  127.6070   73.4760 H   0  0  0  0  0  0  0  0  0  0  0  0
  130.9520  126.7710   72.9640 H   0  0  0  0  0  0  0  0  0  0  0  0
  131.3874  129.0139   71.2248 H   0  0  0  0  0  0  0  0  0  0  0  0
  130.8616  129.5236   68.8444 H   0  0  0  0  0  0  0  0  0  0  0  0
  129.5200  126.6740   66.3330 H   0  0  0  0  0  0  0  0  0  0  0  0
  129.1240  126.8151   63.4436 H   0  0  0  0  0  0  0  0  0  0  0  0
  130.8493  128.4357   60.4262 H   0  0  0  0  0  0  0  0  0  0  0  0
  132.4381  126.5618   59.9293 H   0  0  0  0  0  0  0  0  0  0  0  0
  132.5010  123.6390   59.9930 H   0  0  0  0  0  0  0  0  0  0  0  0
  129.0859  120.8160   61.5593 H   0  0  0  0  0  0  0  0  0  0  0  0
  129.5480  118.3690   61.5207 H   0  0  0  0  0  0  0  0  0  0  0  0
  1  2  1  0
  2  3  2  0
  3  4  1  0
  4  5  2  0
  5  6  1  0
  6  7  1  0
  7  8  1  0
  8  9  2  0
  9 10  1  0
 10 11  1  0
 11 12  1  0
 12 13  2  0
 13 14  1  0
 14 15  2  0
 15 16  1  0
 16 17  1  0
 17 18  1  0
 18 19  2  0
 19 20  1  0
 20 21  2  0
 21 22  1  0
 21 23  1  0
 23 24  2  0
 17 25  2  0
 25 26  1  0
 26 27  2  0
 10 28  2  0
 28 29  1  0
 29 30  2  0
 30 31  1  0
  5 32  1  0
 32 33  2  0
 33  2  1  0
 31  6  2  0
 30  8  1  0
 27 12  1  0
 26 15  1  0
 24 18  1  0
  1 34  1  0
  1 35  1  0
  3 36  1  0
  4 37  1  0
  7 38  1  0
  9 39  1  0
 11 40  1  0
 11 41  1  0
 13 42  1  0
 14 43  1  0
 16 44  1  0
 19 45  1  0
 20 46  1  0
 22 47  1  0
 22 48  1  0
 23 49  1  0
 24 50  1  0
 25 51  1  0
 27 52  1  0
 28 53  1  0
 29 54  1  0
 31 55  1  0
 32 56  1  0
 33 57  1  0
M  CHG  2  25   1  31   1
M  END
>  <Binding energies>  (1) 
[-5.96]

>  <Ligand effiencies>  (1) 
[-0.14536585365853658]

>  <Interactions>  (1) 
["V-B:GLU:543:CD:9880, V-B:TYR:539:CE2:9848, V-A:HIS:456:CE1:4070, V-A:SER:385:CB:3409, V-A:LEU:475:CD2:4259, V-B:TYR:539:CD2:9846, V-A:LEU:475:CD1:4258, V-A:LEU:475:CG:4257, V-B:ALA:541:CB:9864, V-A:GLU:543:C:4902, V-B:HIS:456:CE1:9042, V-A:GLY:544:CA:4914, V-A:GLU:543:CB:4906, H-B:TYR:484:OH:9320, V-A:GLU:543:CD:4908, V-A:GLU:543:CA:4904, V-A:GLY:544:C:4912, V-A:GLU:543:CG:4907, V-B:TYR:484:CZ:9319, V-A:HIS:456:CD2:4068, V-A:ILE:369:CG2:3237, H-A:GLU:543:OE2:4910, V-A:ASP:366:CG:3213, H-B:GLU:543:OE2:9882, V-B:HIS:456:CD2:9040, V-B:TYR:484:CE2:9318, H-A:GLU:543:O:4903, H-B:HIS:456:NE2:9043, H-A:SER:385:OG:3410, H-A:GLY:544:O:4913, H-A:HIS:456:NE2:4071"]

$$$$
RR12_Rahimova_2017
     RDKit          3D

 51 53  0  0  0  0  0  0  0  0999 V2000
  133.2280  124.6160   62.5100 C   0  0  0  0  0  0  0  0  0  0  0  0
  134.1440  124.2290   61.3420 C   0  0  0  0  0  0  0  0  0  0  0  0
  133.5320  123.1350   60.4470 C   0  0  0  0  0  0  0  0  0  0  0  0
  132.2940  123.6040   59.8300 N   0  0  0  0  0  0  0  0  0  0  0  0
  130.9970  123.3830   60.2670 C   0  0  0  0  0  0  0  0  0  0  0  0
  130.6440  122.5450   61.4830 C   0  0  0  0  0  0  0  0  0  0  0  0
  129.7630  121.3340   61.1250 C   0  0  0  0  0  0  0  0  0  0  0  0
  128.2830  121.5430   61.4980 C   0  0  0  0  0  0  0  0  0  0  0  0
  127.7200  122.7970   60.9980 N   0  0  0  0  0  0  0  0  0  0  0  0
  126.5410  123.3200   61.3820 C   0  0  0  0  0  0  0  0  0  0  0  0
  125.7990  122.7830   62.2070 O   0  0  0  0  0  0  0  0  0  0  0  0
  126.1620  124.6540   60.7250 C   0  0  0  0  0  0  0  0  0  0  0  0
  126.8910  124.8090   59.5070 O   0  0  0  0  0  0  0  0  0  0  0  0
  126.5790  124.0080   58.4250 C   0  0  0  0  0  0  0  0  0  0  0  0
  125.2270  123.9260   58.0830 C   0  0  0  0  0  0  0  0  0  0  0  0
  124.8160  123.1460   57.0060 C   0  0  0  0  0  0  0  0  0  0  0  0
  125.7610  122.4440   56.2630 C   0  0  0  0  0  0  0  0  0  0  0  0
  127.1130  122.5130   56.5910 C   0  0  0  0  0  0  0  0  0  0  0  0
  127.5230  123.2920   57.6700 C   0  0  0  0  0  0  0  0  0  0  0  0
  130.0910  123.9570   59.5140 N   0  0  0  0  0  0  0  0  0  0  0  0
  130.8010  124.6120   58.5470 C   0  0  0  0  0  0  0  0  0  0  0  0
  130.3290  125.4000   57.4860 C   0  0  0  0  0  0  0  0  0  0  0  0
  131.2650  125.9730   56.6260 C   0  0  0  0  0  0  0  0  0  0  0  0
  132.6340  125.7740   56.8090 C   0  0  0  0  0  0  0  0  0  0  0  0
  133.1350  124.9950   57.8530 C   0  0  0  0  0  0  0  0  0  0  0  0
  132.1950  124.4180   58.7160 C   0  0  0  0  0  0  0  0  0  0  0  0
  133.7365  124.4012   63.4615 H   0  0  0  0  0  0  0  0  0  0  0  0
  132.9949  125.6895   62.4530 H   0  0  0  0  0  0  0  0  0  0  0  0
  132.2958  124.0348   62.4530 H   0  0  0  0  0  0  0  0  0  0  0  0
  134.3297  125.1230   60.7286 H   0  0  0  0  0  0  0  0  0  0  0  0
  135.0759  123.8286   61.7678 H   0  0  0  0  0  0  0  0  0  0  0  0
  134.2510  122.8705   59.6576 H   0  0  0  0  0  0  0  0  0  0  0  0
  133.3060  122.2559   61.0683 H   0  0  0  0  0  0  0  0  0  0  0  0
  131.5743  122.1813   61.9436 H   0  0  0  0  0  0  0  0  0  0  0  0
  130.0739  123.1818   62.1754 H   0  0  0  0  0  0  0  0  0  0  0  0
  129.8311  121.1577   60.0414 H   0  0  0  0  0  0  0  0  0  0  0  0
  130.1321  120.4732   61.7018 H   0  0  0  0  0  0  0  0  0  0  0  0
  127.6990  120.7096   61.0803 H   0  0  0  0  0  0  0  0  0  0  0  0
  128.2319  121.5840   62.5960 H   0  0  0  0  0  0  0  0  0  0  0  0
  128.2740  123.2970   60.3190 H   0  0  0  0  0  0  0  0  0  0  0  0
  125.0832  124.6635   60.5103 H   0  0  0  0  0  0  0  0  0  0  0  0
  126.4076  125.4814   61.4070 H   0  0  0  0  0  0  0  0  0  0  0  0
  124.4812  124.4824   58.6697 H   0  0  0  0  0  0  0  0  0  0  0  0
  123.7496  123.0846   56.7432 H   0  0  0  0  0  0  0  0  0  0  0  0
  125.4374  121.8297   55.4098 H   0  0  0  0  0  0  0  0  0  0  0  0
  127.8538  121.9544   56.0001 H   0  0  0  0  0  0  0  0  0  0  0  0
  128.5899  123.3470   57.9322 H   0  0  0  0  0  0  0  0  0  0  0  0
  129.2511  125.5610   57.3371 H   0  0  0  0  0  0  0  0  0  0  0  0
  130.9176  126.5939   55.7871 H   0  0  0  0  0  0  0  0  0  0  0  0
  133.3397  126.2454   56.1092 H   0  0  0  0  0  0  0  0  0  0  0  0
  134.2155  124.8417   57.9913 H   0  0  0  0  0  0  0  0  0  0  0  0
  1  2  1  0
  2  3  1  0
  3  4  1  0
  4  5  1  0
  5  6  1  0
  6  7  1  0
  7  8  1  0
  8  9  1  0
  9 10  1  0
 10 11  2  0
 10 12  1  0
 12 13  1  0
 13 14  1  0
 14 15  2  0
 15 16  1  0
 16 17  2  0
 17 18  1  0
 18 19  2  0
  5 20  2  0
 20 21  1  0
 21 22  2  0
 22 23  1  0
 23 24  2  0
 24 25  1  0
 25 26  2  0
 26  4  1  0
 19 14  1  0
 26 21  1  0
  1 27  1  0
  1 28  1  0
  1 29  1  0
  2 30  1  0
  2 31  1  0
  3 32  1  0
  3 33  1  0
  6 34  1  0
  6 35  1  0
  7 36  1  0
  7 37  1  0
  8 38  1  0
  8 39  1  0
  9 40  1  0
 12 41  1  0
 12 42  1  0
 15 43  1  0
 16 44  1  0
 17 45  1  0
 18 46  1  0
 19 47  1  0
 22 48  1  0
 23 49  1  0
 24 50  1  0
 25 51  1  0
M  END
>  <Binding energies>  (1) 
[-6.79]

>  <Ligand effiencies>  (1) 
[-0.2514814814814815]

>  <Interactions>  (1) 
["V-B:PRO:540:CD:9859, V-B:LEU:363:CD1:8161, V-B:ILE:538:CD1:9837, V-B:PRO:540:CB:9857, V-A:ARG:545:CZ:4926, V-B:TYR:539:C:9839, V-B:PRO:540:CA:9855, V-B:PRO:540:N:9856, V-A:ILE:369:CD1:3239, V-B:TYR:539:CE2:9848, V-B:ILE:538:CG2:9835, V-B:PRO:540:C:9853, H-B:ALA:541:N:9863, V-B:ALA:541:CA:9862, V-B:TYR:539:CA:9841, V-B:TYR:539:CD2:9846, V-B:ALA:541:CB:9864, V-A:ILE:369:CG2:3237, V-A:ASP:366:CG:3213, V-A:ASP:366:CB:3212, V-A:ASP:366:C:3208, V-A:ASP:366:CA:3210, V-B:TYR:531:CE2:9765, V-B:TYR:531:CZ:9766, V-B:TYR:539:CG:9844, V-B:TYR:539:CZ:9849, V-B:TYR:539:CE1:9847, V-B:TYR:539:CD1:9845, V-B:ILE:538:CA:9832"]

$$$$
RR13_Rahimova_2017
     RDKit          3D

 84 90  0  0  0  0  0  0  0  0999 V2000
  125.7180  123.5790   60.7790 Cl  0  0  0  0  0  0  0  0  0  0  0  0
  126.5180  123.2880   59.2720 C   0  0  0  0  0  0  0  0  0  0  0  0
  125.7330  122.9070   58.1810 C   0  0  0  0  0  0  0  0  0  0  0  0
  126.3180  122.6380   56.9480 C   0  0  0  0  0  0  0  0  0  0  0  0
  127.6980  122.7450   56.7960 C   0  0  0  0  0  0  0  0  0  0  0  0
  128.4890  123.1240   57.8790 C   0  0  0  0  0  0  0  0  0  0  0  0
  127.9150  123.4110   59.1290 C   0  0  0  0  0  0  0  0  0  0  0  0
  128.8160  123.8050   60.3200 C   0  0  1  0  0  0  0  0  0  0  0  0
  130.3010  123.7580   59.9280 C   0  0  0  0  0  0  0  0  0  0  0  0
  130.8620  124.3600   58.9040 N   0  0  0  0  0  0  0  0  0  0  0  0
  132.2070  124.0050   58.9420 N   0  0  0  0  0  0  0  0  0  0  0  0
  132.4430  123.1560   60.0060 N   0  0  0  0  0  0  0  0  0  0  0  0
  131.2470  122.9990   60.5840 N   0  0  0  0  0  0  0  0  0  0  0  0
  131.1100  122.1830   61.7840 C   0  0  0  0  0  0  0  0  0  0  0  0
  129.9010  121.2380   61.6520 C   0  0  0  0  0  0  0  0  0  0  0  0
  130.2990  119.8650   61.1330 C   0  0  0  0  0  0  0  0  0  0  0  0
  129.5790  118.7340   61.5280 C   0  0  0  0  0  0  0  0  0  0  0  0
  129.9490  117.4760   61.0590 C   0  0  0  0  0  0  0  0  0  0  0  0
  131.0370  117.3540   60.1960 C   0  0  0  0  0  0  0  0  0  0  0  0
  131.7590  118.4780   59.8000 C   0  0  0  0  0  0  0  0  0  0  0  0
  131.3900  119.7360   60.2690 C   0  0  0  0  0  0  0  0  0  0  0  0
  128.4380  125.0950   60.9450 N   0  0  0  0  0  0  0  0  0  0  0  0
  127.8930  126.0200   59.9340 C   0  0  0  0  0  0  0  0  0  0  0  0
  127.3730  127.3160   60.5990 C   0  0  0  0  0  0  0  0  0  0  0  0
  128.4670  128.0180   61.2910 N   0  0  0  0  0  0  0  0  0  0  0  0
  128.0310  129.3090   61.8740 C   0  0  1  0  0  0  0  0  0  0  0  0
  127.3980  129.2250   63.2800 C   0  0  0  0  0  0  0  0  0  0  0  0
  128.2730  129.1430   64.3720 C   0  0  0  0  0  0  0  0  0  0  0  0
  127.7900  129.0810   65.6790 C   0  0  0  0  0  0  0  0  0  0  0  0
  126.4180  129.0930   65.9130 C   0  0  0  0  0  0  0  0  0  0  0  0
  125.5320  129.1570   64.8420 C   0  0  0  0  0  0  0  0  0  0  0  0
  126.0050  129.2160   63.5280 C   0  0  0  0  0  0  0  0  0  0  0  0
  124.8230  129.2230   62.2630 Cl  0  0  0  0  0  0  0  0  0  0  0  0
  129.1260  130.3780   61.8540 C   0  0  0  0  0  0  0  0  0  0  0  0
  129.1470  131.4610   62.5950 N   0  0  0  0  0  0  0  0  0  0  0  0
  130.3220  132.1280   62.2640 N   0  0  0  0  0  0  0  0  0  0  0  0
  131.0210  131.4130   61.3140 N   0  0  0  0  0  0  0  0  0  0  0  0
  130.2740  130.3250   61.0910 N   0  0  0  0  0  0  0  0  0  0  0  0
  130.7010  129.3340   60.1090 C   0  0  0  0  0  0  0  0  0  0  0  0
  130.0020  129.5780   58.7600 C   0  0  0  0  0  0  0  0  0  0  0  0
  130.7570  130.5740   57.8930 C   0  0  0  0  0  0  0  0  0  0  0  0
  132.1460  130.4790   57.7710 C   0  0  0  0  0  0  0  0  0  0  0  0
  132.8370  131.3860   56.9720 C   0  0  0  0  0  0  0  0  0  0  0  0
  132.1370  132.3850   56.2980 C   0  0  0  0  0  0  0  0  0  0  0  0
  130.7510  132.4840   56.4160 C   0  0  0  0  0  0  0  0  0  0  0  0
  130.0600  131.5770   57.2140 C   0  0  0  0  0  0  0  0  0  0  0  0
  129.0050  127.0930   62.3040 C   0  0  0  0  0  0  0  0  0  0  0  0
  129.5320  125.8030   61.6330 C   0  0  0  0  0  0  0  0  0  0  0  0
  124.6428  122.8190   58.2980 H   0  0  0  0  0  0  0  0  0  0  0  0
  125.6913  122.3411   56.0941 H   0  0  0  0  0  0  0  0  0  0  0  0
  128.1632  122.5307   55.8225 H   0  0  0  0  0  0  0  0  0  0  0  0
  129.5792  123.1996   57.7533 H   0  0  0  0  0  0  0  0  0  0  0  0
  128.6504  123.0492   61.1018 H   0  0  0  0  0  0  0  0  0  0  0  0
  132.0235  121.5863   61.9235 H   0  0  0  0  0  0  0  0  0  0  0  0
  130.9555  122.8432   62.6502 H   0  0  0  0  0  0  0  0  0  0  0  0
  129.4332  121.1211   62.6407 H   0  0  0  0  0  0  0  0  0  0  0  0
  129.2020  121.6829   60.9285 H   0  0  0  0  0  0  0  0  0  0  0  0
  128.7210  118.8374   62.2086 H   0  0  0  0  0  0  0  0  0  0  0  0
  129.3856  116.5832   61.3679 H   0  0  0  0  0  0  0  0  0  0  0  0
  131.3284  116.3607   59.8240 H   0  0  0  0  0  0  0  0  0  0  0  0
  132.6169  118.3719   59.1197 H   0  0  0  0  0  0  0  0  0  0  0  0
  131.9563  120.6270   59.9600 H   0  0  0  0  0  0  0  0  0  0  0  0
  128.6853  126.2763   59.2153 H   0  0  0  0  0  0  0  0  0  0  0  0
  127.0549  125.5266   59.4201 H   0  0  0  0  0  0  0  0  0  0  0  0
  126.9523  127.9755   59.8257 H   0  0  0  0  0  0  0  0  0  0  0  0
  126.5996  127.0514   61.3351 H   0  0  0  0  0  0  0  0  0  0  0  0
  127.2222  129.6151   61.1942 H   0  0  0  0  0  0  0  0  0  0  0  0
  129.3586  129.1273   64.1952 H   0  0  0  0  0  0  0  0  0  0  0  0
  128.4923  129.0227   66.5236 H   0  0  0  0  0  0  0  0  0  0  0  0
  126.0346  129.0519   66.9432 H   0  0  0  0  0  0  0  0  0  0  0  0
  124.4484  129.1612   65.0313 H   0  0  0  0  0  0  0  0  0  0  0  0
  131.7899  129.4066   59.9711 H   0  0  0  0  0  0  0  0  0  0  0  0
  130.4315  128.3318   60.4738 H   0  0  0  0  0  0  0  0  0  0  0  0
  129.9299  128.6221   58.2205 H   0  0  0  0  0  0  0  0  0  0  0  0
  129.0063  129.9973   58.9668 H   0  0  0  0  0  0  0  0  0  0  0  0
  132.6928  129.6884   58.3057 H   0  0  0  0  0  0  0  0  0  0  0  0
  133.9302  131.3144   56.8732 H   0  0  0  0  0  0  0  0  0  0  0  0
  132.6828  133.1020   55.6671 H   0  0  0  0  0  0  0  0  0  0  0  0
  130.2062  133.2756   55.8806 H   0  0  0  0  0  0  0  0  0  0  0  0
  128.9666  131.6495   57.3101 H   0  0  0  0  0  0  0  0  0  0  0  0
  129.8294  127.5843   62.8416 H   0  0  0  0  0  0  0  0  0  0  0  0
  128.2008  126.8264   63.0056 H   0  0  0  0  0  0  0  0  0  0  0  0
  130.3090  126.0674   60.9006 H   0  0  0  0  0  0  0  0  0  0  0  0
  129.9500  125.1440   62.4083 H   0  0  0  0  0  0  0  0  0  0  0  0
  1  2  1  0
  2  3  2  0
  3  4  1  0
  4  5  2  0
  5  6  1  0
  6  7  2  0
  7  8  1  0
  8  9  1  0
  9 10  2  0
 10 11  1  0
 11 12  2  0
 12 13  1  0
 13 14  1  0
 14 15  1  0
 15 16  1  0
 16 17  2  0
 17 18  1  0
 18 19  2  0
 19 20  1  0
 20 21  2  0
  8 22  1  0
 22 23  1  0
 23 24  1  0
 24 25  1  0
 25 26  1  0
 26 27  1  0
 27 28  2  0
 28 29  1  0
 29 30  2  0
 30 31  1  0
 31 32  2  0
 32 33  1  0
 26 34  1  0
 34 35  2  0
 35 36  1  0
 36 37  2  0
 37 38  1  0
 38 39  1  0
 39 40  1  0
 40 41  1  0
 41 42  2  0
 42 43  1  0
 43 44  2  0
 44 45  1  0
 45 46  2  0
 25 47  1  0
 47 48  1  0
  7  2  1  0
 13  9  1  0
 21 16  1  0
 48 22  1  0
 32 27  1  0
 38 34  1  0
 46 41  1  0
  3 49  1  0
  4 50  1  0
  5 51  1  0
  6 52  1  0
  8 53  1  1
 14 54  1  0
 14 55  1  0
 15 56  1  0
 15 57  1  0
 17 58  1  0
 18 59  1  0
 19 60  1  0
 20 61  1  0
 21 62  1  0
 23 63  1  0
 23 64  1  0
 24 65  1  0
 24 66  1  0
 26 67  1  6
 28 68  1  0
 29 69  1  0
 30 70  1  0
 31 71  1  0
 39 72  1  0
 39 73  1  0
 40 74  1  0
 40 75  1  0
 42 76  1  0
 43 77  1  0
 44 78  1  0
 45 79  1  0
 46 80  1  0
 47 81  1  0
 47 82  1  0
 48 83  1  0
 48 84  1  0
M  END
>  <Binding energies>  (1) 
[-12.01]

>  <Ligand effiencies>  (1) 
[-0.2502083333333333]

>  <Interactions>  (1) 
["V-B:PRO:540:CD:9859, V-B:PRO:540:CB:9857, V-B:TYR:539:C:9839, V-B:PRO:540:CA:9855, V-B:PRO:540:N:9856, V-B:TYR:539:CE2:9848, V-A:SER:385:CB:3409, V-B:ASP:366:CG:8185, V-A:PRO:482:CG:4327, V-A:PRO:482:CB:4326, V-A:LEU:475:CD2:4259, V-B:TYR:539:CD2:9846, V-A:LEU:475:CD1:4258, V-B:ALA:541:CB:9864, V-B:HIS:456:CE1:9042, V-B:ARG:545:CZ:9898, V-A:GLU:543:CB:4906, V-A:GLU:543:CD:4908, V-A:GLU:543:CG:4907, V-B:TYR:484:CZ:9319, V-B:TYR:539:CG:9844, V-B:TYR:539:CZ:9849, V-B:TYR:539:CE1:9847, V-B:TYR:539:CD1:9845, V-A:PRO:540:CA:4883, V-A:PRO:540:CB:4885, V-A:PRO:540:N:4884, H-A:ALA:541:N:4891, V-A:LEU:363:CD1:3189, V-A:PRO:540:CG:4886, V-A:TYR:539:C:4867, H-B:TYR:539:OH:9850, V-A:PRO:540:CD:4887"]

$$$$
RR14_Rahimova_2017
     RDKit          3D

 76 80  0  0  0  0  0  0  0  0999 V2000
  131.1620  117.1220   59.5690 C   0  0  0  0  0  0  0  0  0  0  0  0
  130.9540  117.8680   60.7630 O   0  0  0  0  0  0  0  0  0  0  0  0
  130.9910  119.2480   60.7090 C   0  0  0  0  0  0  0  0  0  0  0  0
  132.1220  119.8190   60.1240 C   0  0  0  0  0  0  0  0  0  0  0  0
  132.2580  121.2010   60.0470 C   0  0  0  0  0  0  0  0  0  0  0  0
  131.2590  122.0310   60.5620 C   0  0  0  0  0  0  0  0  0  0  0  0
  131.4350  123.5450   60.5390 C   0  0  0  0  0  0  0  0  0  0  0  0
  132.5090  124.0160   61.4130 N   0  0  0  0  0  0  0  0  0  0  0  0
  133.7620  123.5810   61.2400 N   0  0  0  0  0  0  0  0  0  0  0  0
  134.4890  124.1980   62.2400 N   0  0  0  0  0  0  0  0  0  0  0  0
  133.6540  124.9980   63.0130 N   0  0  0  0  0  0  0  0  0  0  0  0
  132.4550  124.8660   62.4970 C   0  0  0  0  0  0  0  0  0  0  0  0
  131.1950  125.5380   63.0230 C   0  0  0  0  0  0  0  0  0  0  0  0
  130.0840  125.4850   62.0590 N   0  0  0  0  0  0  0  0  0  0  0  0
  129.1780  124.3600   62.3260 C   0  0  0  0  0  0  0  0  0  0  0  0
  127.8090  124.4960   61.6250 C   0  0  0  0  0  0  0  0  0  0  0  0
  127.4630  123.3080   60.7030 C   0  0  0  0  0  0  0  0  0  0  0  0
  127.4910  123.6520   59.2780 N   0  0  0  0  0  0  0  0  0  0  0  0
  127.5870  122.4350   58.4610 C   0  0  0  0  0  0  0  0  0  0  0  0
  127.6700  122.7650   56.9560 C   0  0  0  0  0  0  0  0  0  0  0  0
  128.7450  123.6660   56.7110 O   0  0  0  0  0  0  0  0  0  0  0  0
  128.5930  124.8920   57.4170 C   0  0  0  0  0  0  0  0  0  0  0  0
  128.5390  124.6260   58.9370 C   0  0  0  0  0  0  0  0  0  0  0  0
  129.3440  126.7550   62.0690 C   0  0  0  0  0  0  0  0  0  0  0  0
  129.8400  127.8290   61.1030 C   0  0  0  0  0  0  0  0  0  0  0  0
  129.1890  129.0110   60.9770 C   0  0  0  0  0  0  0  0  0  0  0  0
  129.6240  130.0500   60.0220 C   0  0  0  0  0  0  0  0  0  0  0  0
  128.9860  131.2940   59.8800 C   0  0  0  0  0  0  0  0  0  0  0  0
  127.7730  131.6690   60.7200 C   0  0  0  0  0  0  0  0  0  0  0  0
  129.4800  132.2090   58.9460 C   0  0  0  0  0  0  0  0  0  0  0  0
  130.5910  131.8980   58.1630 C   0  0  0  0  0  0  0  0  0  0  0  0
  131.2340  130.6640   58.2990 C   0  0  0  0  0  0  0  0  0  0  0  0
  132.4470  130.3540   57.4310 C   0  0  0  0  0  0  0  0  0  0  0  0
  130.7470  129.7370   59.2340 C   0  0  0  0  0  0  0  0  0  0  0  0
  131.3610  128.4790   59.4030 N   0  0  0  0  0  0  0  0  0  0  0  0
  130.9970  127.4970   60.2660 C   0  0  0  0  0  0  0  0  0  0  0  0
  131.6170  126.4350   60.2990 O   0  0  0  0  0  0  0  0  0  0  0  0
  130.1100  121.4700   61.1220 C   0  0  0  0  0  0  0  0  0  0  0  0
  129.9760  120.0870   61.1990 C   0  0  0  0  0  0  0  0  0  0  0  0
  131.4493  116.0917   59.8257 H   0  0  0  0  0  0  0  0  0  0  0  0
  130.2336  117.1076   58.9792 H   0  0  0  0  0  0  0  0  0  0  0  0
  131.9639  117.5901   58.9792 H   0  0  0  0  0  0  0  0  0  0  0  0
  132.9131  119.1702   59.7201 H   0  0  0  0  0  0  0  0  0  0  0  0
  133.1520  121.6406   59.5807 H   0  0  0  0  0  0  0  0  0  0  0  0
  131.6627  123.8544   59.5083 H   0  0  0  0  0  0  0  0  0  0  0  0
  130.4977  123.9875   60.9072 H   0  0  0  0  0  0  0  0  0  0  0  0
  130.8841  125.0302   63.9479 H   0  0  0  0  0  0  0  0  0  0  0  0
  131.4312  126.5971   63.2031 H   0  0  0  0  0  0  0  0  0  0  0  0
  129.6586  123.4345   61.9760 H   0  0  0  0  0  0  0  0  0  0  0  0
  128.9883  124.3457   63.4094 H   0  0  0  0  0  0  0  0  0  0  0  0
  127.0297  124.5745   62.3974 H   0  0  0  0  0  0  0  0  0  0  0  0
  127.8614  125.3918   60.9888 H   0  0  0  0  0  0  0  0  0  0  0  0
  128.1913  122.5034   60.8822 H   0  0  0  0  0  0  0  0  0  0  0  0
  126.4352  122.9981   60.9430 H   0  0  0  0  0  0  0  0  0  0  0  0
  128.4893  121.8785   58.7545 H   0  0  0  0  0  0  0  0  0  0  0  0
  126.6814  121.8343   58.6316 H   0  0  0  0  0  0  0  0  0  0  0  0
  127.8364  121.8373   56.3888 H   0  0  0  0  0  0  0  0  0  0  0  0
  126.7274  123.2343   56.6379 H   0  0  0  0  0  0  0  0  0  0  0  0
  129.4462  125.5491   57.1928 H   0  0  0  0  0  0  0  0  0  0  0  0
  127.6559  125.3747   57.1025 H   0  0  0  0  0  0  0  0  0  0  0  0
  129.5124  124.2331   59.2657 H   0  0  0  0  0  0  0  0  0  0  0  0
  128.3070  125.5738   59.4447 H   0  0  0  0  0  0  0  0  0  0  0  0
  128.2958  126.5353   61.8179 H   0  0  0  0  0  0  0  0  0  0  0  0
  129.4887  127.1735   63.0759 H   0  0  0  0  0  0  0  0  0  0  0  0
  128.3077  129.2027   61.6067 H   0  0  0  0  0  0  0  0  0  0  0  0
  128.0276  131.5903   61.7872 H   0  0  0  0  0  0  0  0  0  0  0  0
  127.4728  132.7019   60.4899 H   0  0  0  0  0  0  0  0  0  0  0  0
  126.9422  130.9858   60.4899 H   0  0  0  0  0  0  0  0  0  0  0  0
  128.9869  133.1851   58.8274 H   0  0  0  0  0  0  0  0  0  0  0  0
  130.9649  132.6299   57.4319 H   0  0  0  0  0  0  0  0  0  0  0  0
  133.3114  130.1331   58.0744 H   0  0  0  0  0  0  0  0  0  0  0  0
  132.2303  129.4824   56.7959 H   0  0  0  0  0  0  0  0  0  0  0  0
  132.6751  131.2227   56.7959 H   0  0  0  0  0  0  0  0  0  0  0  0
  132.1590  128.2570   58.8280 H   0  0  0  0  0  0  0  0  0  0  0  0
  129.3098  122.1217   61.5028 H   0  0  0  0  0  0  0  0  0  0  0  0
  129.0713  119.6486   61.6455 H   0  0  0  0  0  0  0  0  0  0  0  0
  1  2  1  0
  2  3  1  0
  3  4  2  0
  4  5  1  0
  5  6  2  0
  6  7  1  0
  7  8  1  0
  8  9  1  0
  9 10  2  0
 10 11  1  0
 11 12  2  0
 12 13  1  0
 13 14  1  0
 14 15  1  0
 15 16  1  0
 16 17  1  0
 17 18  1  0
 18 19  1  0
 19 20  1  0
 20 21  1  0
 21 22  1  0
 22 23  1  0
 14 24  1  0
 24 25  1  0
 25 26  2  0
 26 27  1  0
 27 28  2  0
 28 29  1  0
 28 30  1  0
 30 31  2  0
 31 32  1  0
 32 33  1  0
 32 34  2  0
 34 35  1  0
 35 36  1  0
 36 37  2  0
  6 38  1  0
 38 39  2  0
 39  3  1  0
 12  8  1  0
 23 18  1  0
 36 25  1  0
 34 27  1  0
  1 40  1  0
  1 41  1  0
  1 42  1  0
  4 43  1  0
  5 44  1  0
  7 45  1  0
  7 46  1  0
 13 47  1  0
 13 48  1  0
 15 49  1  0
 15 50  1  0
 16 51  1  0
 16 52  1  0
 17 53  1  0
 17 54  1  0
 19 55  1  0
 19 56  1  0
 20 57  1  0
 20 58  1  0
 22 59  1  0
 22 60  1  0
 23 61  1  0
 23 62  1  0
 24 63  1  0
 24 64  1  0
 26 65  1  0
 29 66  1  0
 29 67  1  0
 29 68  1  0
 30 69  1  0
 31 70  1  0
 33 71  1  0
 33 72  1  0
 33 73  1  0
 35 74  1  0
 38 75  1  0
 39 76  1  0
M  END
>  <Binding energies>  (1) 
[-8.08]

>  <Ligand effiencies>  (1) 
[-0.202]

>  <Interactions>  (1) 
["V-B:TYR:539:C:9839, V-B:PRO:540:CA:9855, V-B:PRO:540:N:9856, V-B:GLU:543:CD:9880, V-B:TYR:539:CE2:9848, V-A:SER:385:CB:3409, V-B:TYR:539:CB:9843, V-A:LEU:475:CD2:4259, H-A:TYR:484:OH:4348, V-B:TYR:539:CD2:9846, V-A:LEU:475:CG:4257, V-B:ALA:541:CB:9864, H-A:ARG:545:NH1:4927, H-A:GLY:454:N:4050, V-A:ILE:369:CG2:3237, H-A:ARG:545:NH2:4928, V-A:ASP:366:CG:3213, V-A:ASP:366:CB:3212, H-A:ASP:366:OD1:3214, V-B:TYR:539:CG:9844, V-B:TYR:539:CZ:9849, V-B:TYR:539:CE1:9847, V-B:TYR:539:CD1:9845, V-B:MET:535:CE:9807, V-A:PRO:540:CA:4883, V-A:PRO:540:CB:4885, V-A:PRO:540:N:4884, V-A:TYR:539:C:4867, H-B:TYR:539:OH:9850"]

$$$$
RR15_Rahimova_2017
     RDKit          3D

 85 89  0  0  0  0  0  0  0  0999 V2000
  132.5110  132.1810   56.4910 C   0  0  0  0  0  0  0  0  0  0  0  0
  132.3690  131.5420   57.7560 O   0  0  0  0  0  0  0  0  0  0  0  0
  131.4610  130.5070   57.8980 C   0  0  0  0  0  0  0  0  0  0  0  0
  131.3440  129.4450   56.9880 C   0  0  0  0  0  0  0  0  0  0  0  0
  130.4060  128.4350   57.1890 C   0  0  0  0  0  0  0  0  0  0  0  0
  129.5580  128.4570   58.3010 C   0  0  0  0  0  0  0  0  0  0  0  0
  128.5410  127.3700   58.5150 C   0  0  0  0  0  0  0  0  0  0  0  0
  127.2490  127.5330   58.2670 N   0  0  0  0  0  0  0  0  0  0  0  0
  126.6440  126.3360   58.5900 N   0  0  0  0  0  0  0  0  0  0  0  0
  127.6620  125.5600   58.9640 N   0  0  0  0  0  0  0  0  0  0  0  0
  127.4530  124.2370   59.5490 C   0  0  0  0  0  0  0  0  0  0  0  0
  127.2180  124.2340   61.0800 C   0  0  0  0  0  0  0  0  0  0  0  0
  126.0550  124.2620   61.4910 O   0  0  0  0  0  0  0  0  0  0  0  0
  128.2890  124.1690   61.9300 N   0  0  0  0  0  0  0  0  0  0  0  0
  128.9490  122.8840   62.2360 C   0  0  0  0  0  0  0  0  0  0  0  0
  129.4340  122.1250   60.9820 C   0  0  0  0  0  0  0  0  0  0  0  0
  130.6620  121.2120   61.2110 C   0  0  0  0  0  0  0  0  0  0  0  0
  130.5690  119.9170   60.5310 N   0  0  0  0  0  0  0  0  0  0  0  0
  131.8570  119.4290   60.0160 C   0  0  0  0  0  0  0  0  0  0  0  0
  131.7200  118.0260   59.3870 C   0  0  0  0  0  0  0  0  0  0  0  0
  131.1370  117.1240   60.3210 O   0  0  0  0  0  0  0  0  0  0  0  0
  129.8430  117.5410   60.7430 C   0  0  0  0  0  0  0  0  0  0  0  0
  129.9300  118.9300   61.4120 C   0  0  0  0  0  0  0  0  0  0  0  0
  128.9940  125.3770   62.4580 C   0  0  2  0  0  0  0  0  0  0  0  0
  128.3630  126.7310   62.0060 C   0  0  0  0  0  0  0  0  0  0  0  0
  129.0500  127.6120   61.4900 O   0  0  0  0  0  0  0  0  0  0  0  0
  127.0340  126.8410   62.1830 N   0  0  0  0  0  0  0  0  0  0  0  0
  126.2150  127.9650   61.7450 C   0  0  0  0  0  0  0  0  0  0  0  0
  126.4170  129.1890   62.6580 C   0  0  2  0  0  0  0  0  0  0  0  0
  125.9100  129.0260   64.1020 C   0  0  0  0  0  0  0  0  0  0  0  0
  124.5900  129.7590   64.1250 C   0  0  0  0  0  0  0  0  0  0  0  0
  124.8560  130.8860   63.1420 C   0  0  0  0  0  0  0  0  0  0  0  0
  125.5930  130.2310   62.1160 O   0  0  0  0  0  0  0  0  0  0  0  0
  130.5040  125.2240   62.3140 C   0  0  0  0  0  0  0  0  0  0  0  0
  131.3010  125.4550   63.4420 C   0  0  0  0  0  0  0  0  0  0  0  0
  132.6850  125.3310   63.3690 C   0  0  0  0  0  0  0  0  0  0  0  0
  133.2840  124.9720   62.1650 C   0  0  0  0  0  0  0  0  0  0  0  0
  134.6290  124.8500   62.0950 F   0  0  0  0  0  0  0  0  0  0  0  0
  132.5080  124.7370   61.0340 C   0  0  0  0  0  0  0  0  0  0  0  0
  131.1240  124.8620   61.1070 C   0  0  0  0  0  0  0  0  0  0  0  0
  128.8530  126.1720   58.9730 N   0  0  0  0  0  0  0  0  0  0  0  0
  129.6790  129.5170   59.2090 C   0  0  0  0  0  0  0  0  0  0  0  0
  130.6220  130.5420   59.0220 C   0  0  0  0  0  0  0  0  0  0  0  0
  130.7810  131.6070   59.8910 O   0  0  0  0  0  0  0  0  0  0  0  0
  130.7080  131.3850   61.2950 C   0  0  0  0  0  0  0  0  0  0  0  0
  132.7474  133.2446   56.6420 H   0  0  0  0  0  0  0  0  0  0  0  0
  133.3244  131.7011   55.9270 H   0  0  0  0  0  0  0  0  0  0  0  0
  131.5709  132.0908   55.9270 H   0  0  0  0  0  0  0  0  0  0  0  0
  132.0004  129.4098   56.1060 H   0  0  0  0  0  0  0  0  0  0  0  0
  130.3313  127.6105   56.4647 H   0  0  0  0  0  0  0  0  0  0  0  0
  126.5739  123.7846   59.0669 H   0  0  0  0  0  0  0  0  0  0  0  0
  128.3810  123.6720   59.3768 H   0  0  0  0  0  0  0  0  0  0  0  0
  129.8184  123.0840   62.8795 H   0  0  0  0  0  0  0  0  0  0  0  0
  128.2011  122.2465   62.7301 H   0  0  0  0  0  0  0  0  0  0  0  0
  128.6054  121.4994   60.6188 H   0  0  0  0  0  0  0  0  0  0  0  0
  129.7485  122.8914   60.2583 H   0  0  0  0  0  0  0  0  0  0  0  0
  131.5568  121.7345   60.8418 H   0  0  0  0  0  0  0  0  0  0  0  0
  130.7118  121.0053   62.2903 H   0  0  0  0  0  0  0  0  0  0  0  0
  132.2246  120.1291   59.2514 H   0  0  0  0  0  0  0  0  0  0  0  0
  132.5622  119.3625   60.8576 H   0  0  0  0  0  0  0  0  0  0  0  0
  131.0802  118.0888   58.4944 H   0  0  0  0  0  0  0  0  0  0  0  0
  132.7185  117.6584   59.1079 H   0  0  0  0  0  0  0  0  0  0  0  0
  129.1756  117.5977   59.8704 H   0  0  0  0  0  0  0  0  0  0  0  0
  129.4471  116.8144   61.4678 H   0  0  0  0  0  0  0  0  0  0  0  0
  128.9135  119.2735   61.6544 H   0  0  0  0  0  0  0  0  0  0  0  0
  130.5409  118.8354   62.3219 H   0  0  0  0  0  0  0  0  0  0  0  0
  128.8253  125.4371   63.5433 H   0  0  0  0  0  0  0  0  0  0  0  0
  126.5360  126.0610   62.5880 H   0  0  0  0  0  0  0  0  0  0  0  0
  126.4957  128.2343   60.7161 H   0  0  0  0  0  0  0  0  0  0  0  0
  125.1576  127.6654   61.7921 H   0  0  0  0  0  0  0  0  0  0  0  0
  127.5012  129.3716   62.6918 H   0  0  0  0  0  0  0  0  0  0  0  0
  125.7686  127.9629   64.3466 H   0  0  0  0  0  0  0  0  0  0  0  0
  126.6211  129.4222   64.8419 H   0  0  0  0  0  0  0  0  0  0  0  0
  123.7659  129.1146   63.7849 H   0  0  0  0  0  0  0  0  0  0  0  0
  124.2811  130.0979   65.1249 H   0  0  0  0  0  0  0  0  0  0  0  0
  123.9161  131.3035   62.7518 H   0  0  0  0  0  0  0  0  0  0  0  0
  125.3873  131.7402   63.5870 H   0  0  0  0  0  0  0  0  0  0  0  0
  130.8286  125.7371   64.3945 H   0  0  0  0  0  0  0  0  0  0  0  0
  133.3035  125.5160   64.2596 H   0  0  0  0  0  0  0  0  0  0  0  0
  132.9871  124.4533   60.0853 H   0  0  0  0  0  0  0  0  0  0  0  0
  130.5111  124.6759   60.2127 H   0  0  0  0  0  0  0  0  0  0  0  0
  129.0201  129.5477   60.0893 H   0  0  0  0  0  0  0  0  0  0  0  0
  131.0088  132.2996   61.8270 H   0  0  0  0  0  0  0  0  0  0  0  0
  129.6762  131.1225   61.5716 H   0  0  0  0  0  0  0  0  0  0  0  0
  131.3826  130.5613   61.5716 H   0  0  0  0  0  0  0  0  0  0  0  0
  1  2  1  0
  2  3  1  0
  3  4  2  0
  4  5  1  0
  5  6  2  0
  6  7  1  0
  7  8  1  0
  8  9  2  0
  9 10  1  0
 10 11  1  0
 11 12  1  0
 12 13  2  0
 12 14  1  0
 14 15  1  0
 15 16  1  0
 16 17  1  0
 17 18  1  0
 18 19  1  0
 19 20  1  0
 20 21  1  0
 21 22  1  0
 22 23  1  0
 14 24  1  0
 24 25  1  0
 25 26  2  0
 25 27  1  0
 27 28  1  0
 28 29  1  0
 29 30  1  0
 30 31  1  0
 31 32  1  0
 32 33  1  0
 24 34  1  0
 34 35  2  0
 35 36  1  0
 36 37  2  0
 37 38  1  0
 37 39  1  0
 39 40  2  0
 10 41  1  0
  6 42  1  0
 42 43  2  0
 43 44  1  0
 44 45  1  0
 43  3  1  0
 41  7  2  0
 23 18  1  0
 33 29  1  0
 40 34  1  0
  1 46  1  0
  1 47  1  0
  1 48  1  0
  4 49  1  0
  5 50  1  0
 11 51  1  0
 11 52  1  0
 15 53  1  0
 15 54  1  0
 16 55  1  0
 16 56  1  0
 17 57  1  0
 17 58  1  0
 19 59  1  0
 19 60  1  0
 20 61  1  0
 20 62  1  0
 22 63  1  0
 22 64  1  0
 23 65  1  0
 23 66  1  0
 24 67  1  1
 27 68  1  0
 28 69  1  0
 28 70  1  0
 29 71  1  1
 30 72  1  0
 30 73  1  0
 31 74  1  0
 31 75  1  0
 32 76  1  0
 32 77  1  0
 35 78  1  0
 36 79  1  0
 39 80  1  0
 40 81  1  0
 42 82  1  0
 45 83  1  0
 45 84  1  0
 45 85  1  0
M  END
>  <Binding energies>  (1) 
[-6.35]

>  <Ligand effiencies>  (1) 
[-0.13804347826086955]

>  <Interactions>  (1) 
["V-A:ARG:545:CZ:4926, V-B:TYR:539:C:9839, V-B:GLU:543:CD:9880, V-A:ILE:369:CD1:3239, V-A:TYR:484:CZ:4347, V-B:TYR:539:CE2:9848, V-A:SER:385:CB:3409, V-B:ASP:366:CG:8185, V-A:PRO:482:CG:4327, V-A:PRO:482:CB:4326, V-B:TYR:539:CB:9843, V-A:LEU:475:CD2:4259, V-B:TYR:539:CD2:9846, V-A:LEU:475:CD1:4258, V-A:LEU:475:CG:4257, V-B:ALA:541:CB:9864, V-B:ARG:545:CZ:9898, V-A:GLU:543:CD:4908, V-A:ASP:366:CG:3213, V-A:GLY:453:CA:4044, V-A:GLY:453:C:4042, H-B:GLU:543:OE2:9882, H-B:GLU:543:OE1:9881, V-B:TYR:539:CG:9844, H-B:TYR:531:OH:9767, H-B:ARG:545:NH2:9900, V-A:PRO:540:CA:4883, V-A:PRO:540:CB:4885, V-A:PRO:540:N:4884, H-A:ALA:541:N:4891, V-A:LEU:363:CD1:3189, V-A:PRO:540:CG:4886, V-A:PRO:540:CD:4887, H-A:SER:385:OG:3410"]

$$$$
RR16_Rahimova_2017
     RDKit          3D

 80 85  0  0  0  0  0  0  0  0999 V2000
  128.9320  131.9280   63.6230 O   0  0  0  0  0  0  0  0  0  0  0  0
  128.0140  132.1130   62.4930 S   0  0  0  0  0  0  0  0  0  0  0  0
  127.4880  133.4420   62.1610 O   0  0  0  0  0  0  0  0  0  0  0  0
  126.6450  131.0270   62.7380 N   0  0  0  0  0  0  0  0  0  0  0  0
  126.7990  129.7680   63.5050 C   0  0  0  0  0  0  0  0  0  0  0  0
  127.5630  130.0640   64.8220 C   0  0  0  0  0  0  0  0  0  0  0  0
  127.7860  128.8860   65.7900 C   0  0  0  0  0  0  0  0  0  0  0  0
  126.4910  128.1720   66.2130 C   0  0  0  0  0  0  0  0  0  0  0  0
  125.2310  129.0530   66.2870 C   0  0  0  0  0  0  0  0  0  0  0  0
  124.6460  129.5390   64.9460 C   0  0  0  0  0  0  0  0  0  0  0  0
  125.4040  129.1210   63.6710 C   0  0  0  0  0  0  0  0  0  0  0  0
  128.8390  131.4690   61.0430 C   0  0  0  0  0  0  0  0  0  0  0  0
  128.1370  130.6930   60.1180 C   0  0  0  0  0  0  0  0  0  0  0  0
  128.8180  130.0970   59.0600 C   0  0  0  0  0  0  0  0  0  0  0  0
  130.1960  130.2800   58.9310 C   0  0  0  0  0  0  0  0  0  0  0  0
  131.0970  129.4020   57.6560 S   0  0  0  0  0  0  0  0  0  0  0  0
  132.4480  129.9750   57.5990 O   0  0  0  0  0  0  0  0  0  0  0  0
  130.2500  129.3790   56.4560 O   0  0  0  0  0  0  0  0  0  0  0  0
  131.2210  127.7440   58.2760 N   0  0  0  0  0  0  0  0  0  0  0  0
  132.0990  126.8520   57.4750 C   0  0  0  0  0  0  0  0  0  0  0  0
  131.9020  125.3810   57.8960 C   0  0  0  0  0  0  0  0  0  0  0  0
  132.0780  125.1910   59.4230 C   0  0  0  0  0  0  0  0  0  0  0  0
  131.8400  123.7460   59.8670 C   0  0  0  0  0  0  0  0  0  0  0  0
  132.8780  122.8080   59.7700 C   0  0  0  0  0  0  0  0  0  0  0  0
  132.7080  121.4820   60.1710 C   0  0  0  0  0  0  0  0  0  0  0  0
  133.7360  120.5800   60.0720 O   0  0  0  0  0  0  0  0  0  0  0  0
  131.4590  121.1000   60.6830 C   0  0  0  0  0  0  0  0  0  0  0  0
  131.0150  119.9010   61.1610 N   0  0  0  0  0  0  0  0  0  0  0  0
  129.7110  120.0760   61.5710 N   0  0  0  0  0  0  0  0  0  0  0  0
  129.3490  121.3470   61.3080 N   0  0  0  0  0  0  0  0  0  0  0  0
  128.0390  121.8360   61.7200 C   0  0  0  0  0  0  0  0  0  0  0  0
  127.5230  122.9550   60.8270 C   0  0  0  0  0  0  0  0  0  0  0  0
  127.1530  124.1840   61.3850 C   0  0  0  0  0  0  0  0  0  0  0  0
  126.7010  125.2190   60.5660 C   0  0  0  0  0  0  0  0  0  0  0  0
  126.6170  125.0320   59.1850 C   0  0  0  0  0  0  0  0  0  0  0  0
  126.9870  123.8100   58.6230 C   0  0  0  0  0  0  0  0  0  0  0  0
  126.8940  123.5790   56.9150 Cl  0  0  0  0  0  0  0  0  0  0  0  0
  127.4360  122.7720   59.4430 C   0  0  0  0  0  0  0  0  0  0  0  0
  130.4140  122.0500   60.7710 C   0  0  0  0  0  0  0  0  0  0  0  0
  130.5820  123.3780   60.3660 C   0  0  0  0  0  0  0  0  0  0  0  0
  131.2500  126.2160   60.2420 C   0  0  0  0  0  0  0  0  0  0  0  0
  131.4600  127.6580   59.7400 C   0  0  0  0  0  0  0  0  0  0  0  0
  130.8900  131.0900   59.8330 C   0  0  0  0  0  0  0  0  0  0  0  0
  130.2100  131.6830   60.8920 C   0  0  0  0  0  0  0  0  0  0  0  0
  125.7110  131.4460   62.7310 H   0  0  0  0  0  0  0  0  0  0  0  0
  127.4140  129.0229   62.9791 H   0  0  0  0  0  0  0  0  0  0  0  0
  128.5526  130.4586   64.5483 H   0  0  0  0  0  0  0  0  0  0  0  0
  126.9163  130.7631   65.3725 H   0  0  0  0  0  0  0  0  0  0  0  0
  128.4408  128.1522   65.2972 H   0  0  0  0  0  0  0  0  0  0  0  0
  128.2326  129.3045   66.7040 H   0  0  0  0  0  0  0  0  0  0  0  0
  126.2976  127.3674   65.4883 H   0  0  0  0  0  0  0  0  0  0  0  0
  126.6677  127.8184   67.2395 H   0  0  0  0  0  0  0  0  0  0  0  0
  124.4495  128.4744   66.8014 H   0  0  0  0  0  0  0  0  0  0  0  0
  125.5474  129.9663   66.8122 H   0  0  0  0  0  0  0  0  0  0  0  0
  123.6207  129.1483   64.8680 H   0  0  0  0  0  0  0  0  0  0  0  0
  124.7168  130.6362   64.9791 H   0  0  0  0  0  0  0  0  0  0  0  0
  125.5335  128.0289   63.6923 H   0  0  0  0  0  0  0  0  0  0  0  0
  124.7978  129.4693   62.8218 H   0  0  0  0  0  0  0  0  0  0  0  0
  127.0511  130.5534   60.2249 H   0  0  0  0  0  0  0  0  0  0  0  0
  128.2720  129.4838   58.3280 H   0  0  0  0  0  0  0  0  0  0  0  0
  131.8494  126.9601   56.4092 H   0  0  0  0  0  0  0  0  0  0  0  0
  133.1477  127.1348   57.6491 H   0  0  0  0  0  0  0  0  0  0  0  0
  130.8882  125.0621   57.6121 H   0  0  0  0  0  0  0  0  0  0  0  0
  132.6648  124.7744   57.3859 H   0  0  0  0  0  0  0  0  0  0  0  0
  133.1346  125.4028   59.6439 H   0  0  0  0  0  0  0  0  0  0  0  0
  133.8512  123.1255   59.3675 H   0  0  0  0  0  0  0  0  0  0  0  0
  134.2870  120.5460   60.8570 H   0  0  0  0  0  0  0  0  0  0  0  0
  127.3245  121.0003   61.6856 H   0  0  0  0  0  0  0  0  0  0  0  0
  128.1406  122.2423   62.7371 H   0  0  0  0  0  0  0  0  0  0  0  0
  127.2188  124.3344   62.4727 H   0  0  0  0  0  0  0  0  0  0  0  0
  126.4106  126.1832   61.0087 H   0  0  0  0  0  0  0  0  0  0  0  0
  126.2591  125.8481   58.5402 H   0  0  0  0  0  0  0  0  0  0  0  0
  127.7222  121.8073   58.9987 H   0  0  0  0  0  0  0  0  0  0  0  0
  129.7598  124.1053   60.4361 H   0  0  0  0  0  0  0  0  0  0  0  0
  130.1834  125.9614   60.1557 H   0  0  0  0  0  0  0  0  0  0  0  0
  131.5864  126.1672   61.2882 H   0  0  0  0  0  0  0  0  0  0  0  0
  130.7590  128.3273   60.2603 H   0  0  0  0  0  0  0  0  0  0  0  0
  132.4980  127.9572   59.9473 H   0  0  0  0  0  0  0  0  0  0  0  0
  131.9697  131.2583   59.7065 H   0  0  0  0  0  0  0  0  0  0  0  0
  130.7512  132.3187   61.6082 H   0  0  0  0  0  0  0  0  0  0  0  0
  1  2  2  0
  2  3  2  0
  2  4  1  0
  4  5  1  0
  5  6  1  0
  6  7  1  0
  7  8  1  0
  8  9  1  0
  9 10  1  0
 10 11  1  0
  2 12  1  0
 12 13  2  0
 13 14  1  0
 14 15  2  0
 15 16  1  0
 16 17  2  0
 16 18  2  0
 16 19  1  0
 19 20  1  0
 20 21  1  0
 21 22  1  0
 22 23  1  0
 23 24  2  0
 24 25  1  0
 25 26  1  0
 25 27  2  0
 27 28  1  0
 28 29  2  0
 29 30  1  0
 30 31  1  0
 31 32  1  0
 32 33  2  0
 33 34  1  0
 34 35  2  0
 35 36  1  0
 36 37  1  0
 36 38  2  0
 30 39  1  0
 39 40  2  0
 22 41  1  0
 41 42  1  0
 15 43  1  0
 43 44  2  0
 11  5  1  0
 44 12  1  0
 42 19  1  0
 40 23  1  0
 39 27  1  0
 38 32  1  0
  4 45  1  0
  5 46  1  0
  6 47  1  0
  6 48  1  0
  7 49  1  0
  7 50  1  0
  8 51  1  0
  8 52  1  0
  9 53  1  0
  9 54  1  0
 10 55  1  0
 10 56  1  0
 11 57  1  0
 11 58  1  0
 13 59  1  0
 14 60  1  0
 20 61  1  0
 20 62  1  0
 21 63  1  0
 21 64  1  0
 22 65  1  0
 24 66  1  0
 26 67  1  0
 31 68  1  0
 31 69  1  0
 33 70  1  0
 34 71  1  0
 35 72  1  0
 38 73  1  0
 40 74  1  0
 41 75  1  0
 41 76  1  0
 42 77  1  0
 42 78  1  0
 43 79  1  0
 44 80  1  0
M  END
>  <Binding energies>  (1) 
[-7.32]

>  <Ligand effiencies>  (1) 
[-0.1525]

>  <Interactions>  (1) 
["V-B:PRO:540:CB:9857, V-B:TYR:539:C:9839, V-B:PRO:540:CA:9855, V-B:PRO:540:N:9856, V-B:GLU:543:CD:9880, V-B:TYR:539:CE2:9848, V-B:PRO:540:C:9853, V-A:LEU:475:CD2:4259, V-B:ALA:541:CA:9862, V-B:TYR:539:CD2:9846, V-B:ALA:541:CB:9864, V-B:HIS:456:CE1:9042, V-B:ARG:545:CZ:9898, V-A:GLU:543:CB:4906, H-B:TYR:484:OH:9320, V-A:GLU:543:CD:4908, V-A:GLU:543:CG:4907, V-B:TYR:484:CZ:9319, V-A:ILE:369:CG2:3237, V-A:ASP:366:CG:3213, V-A:ASP:366:CB:3212, V-B:TYR:539:CZ:9849, V-B:MET:535:CE:9807, V-A:PRO:540:CA:4883, V-B:ARG:545:CG:9894, V-A:ALA:541:CB:4892, V-B:ARG:545:CD:9895, H-A:TYR:531:OH:4795, H-A:SER:385:O:3406, V-B:TYR:484:CE2:9318"]

$$$$
RR17_Rahimova_2017
     RDKit          3D

 63 66  0  0  0  0  0  0  0  0999 V2000
  130.6440  119.1750   60.6930 C   0  0  0  0  0  0  0  0  0  0  0  0
  131.6010  120.3410   60.4270 C   0  0  0  0  0  0  0  0  0  0  0  0
  131.2700  121.4140   61.3040 O   0  0  0  0  0  0  0  0  0  0  0  0
  129.9530  121.8230   61.4070 C   0  0  0  0  0  0  0  0  0  0  0  0
  129.3010  122.1290   60.2140 C   0  0  0  0  0  0  0  0  0  0  0  0
  127.9750  122.5500   60.2180 C   0  0  0  0  0  0  0  0  0  0  0  0
  127.2710  122.6770   61.4240 C   0  0  0  0  0  0  0  0  0  0  0  0
  125.8410  123.1330   61.3980 C   0  0  0  0  0  0  0  0  0  0  0  0
  124.9830  122.6660   62.1530 O   0  0  0  0  0  0  0  0  0  0  0  0
  125.4690  124.2170   60.3610 C   0  0  0  0  0  0  0  0  0  0  0  0
  124.9030  123.4930   58.7800 S   0  0  0  0  0  0  0  0  0  0  0  0
  126.4290  123.4920   57.8820 C   0  0  0  0  0  0  0  0  0  0  0  0
  126.8820  122.4980   57.1550 N   0  0  0  0  0  0  0  0  0  0  0  0
  128.0990  122.8890   56.6100 N   0  0  0  0  0  0  0  0  0  0  0  0
  128.3330  124.1080   57.0260 C   0  0  0  0  0  0  0  0  0  0  0  0
  129.5610  124.9270   56.6540 C   0  0  0  0  0  0  0  0  0  0  0  0
  130.1050  125.7100   57.7600 N   0  0  0  0  0  0  0  0  0  0  0  0
  130.9800  125.1880   58.7300 C   0  0  0  0  0  0  0  0  0  0  0  0
  132.1310  124.5440   58.2760 C   0  0  0  0  0  0  0  0  0  0  0  0
  133.0370  124.0000   59.1820 C   0  0  0  0  0  0  0  0  0  0  0  0
  132.8030  124.0980   60.5570 C   0  0  0  0  0  0  0  0  0  0  0  0
  133.8050  123.4900   61.5380 C   0  0  0  0  0  0  0  0  0  0  0  0
  134.8440  124.2960   61.7640 F   0  0  0  0  0  0  0  0  0  0  0  0
  133.2160  123.2400   62.7080 F   0  0  0  0  0  0  0  0  0  0  0  0
  134.2660  122.3440   61.0370 F   0  0  0  0  0  0  0  0  0  0  0  0
  131.6540  124.7510   61.0140 C   0  0  0  0  0  0  0  0  0  0  0  0
  130.7490  125.2950   60.1080 C   0  0  0  0  0  0  0  0  0  0  0  0
  127.3170  124.5480   57.8480 N   0  0  0  0  0  0  0  0  0  0  0  0
  127.1990  125.7960   58.4780 C   0  0  0  0  0  0  0  0  0  0  0  0
  126.5080  126.8260   57.8400 C   0  0  0  0  0  0  0  0  0  0  0  0
  126.3950  128.0650   58.4630 C   0  0  0  0  0  0  0  0  0  0  0  0
  126.9710  128.2780   59.7260 C   0  0  0  0  0  0  0  0  0  0  0  0
  126.9090  129.4720   60.4190 O   0  0  0  0  0  0  0  0  0  0  0  0
  125.8780  129.6630   61.3830 C   0  0  0  0  0  0  0  0  0  0  0  0
  127.6610  127.2350   60.3490 C   0  0  0  0  0  0  0  0  0  0  0  0
  127.7770  125.9930   59.7320 C   0  0  0  0  0  0  0  0  0  0  0  0
  127.9280  122.3690   62.6240 C   0  0  0  0  0  0  0  0  0  0  0  0
  129.2550  121.9460   62.6170 C   0  0  0  0  0  0  0  0  0  0  0  0
  130.5292  119.0351   61.7780 H   0  0  0  0  0  0  0  0  0  0  0  0
  129.6635  119.3961   60.2460 H   0  0  0  0  0  0  0  0  0  0  0  0
  131.0520  118.2565   60.2460 H   0  0  0  0  0  0  0  0  0  0  0  0
  132.6366  120.0190   60.6108 H   0  0  0  0  0  0  0  0  0  0  0  0
  131.5088  120.6700   59.3814 H   0  0  0  0  0  0  0  0  0  0  0  0
  129.8401  122.0368   59.2596 H   0  0  0  0  0  0  0  0  0  0  0  0
  127.4746  122.7852   59.2671 H   0  0  0  0  0  0  0  0  0  0  0  0
  124.6626  124.8408   60.7740 H   0  0  0  0  0  0  0  0  0  0  0  0
  126.3706  124.8131   60.1565 H   0  0  0  0  0  0  0  0  0  0  0  0
  130.3423  124.2388   56.2992 H   0  0  0  0  0  0  0  0  0  0  0  0
  129.2463  125.6422   55.8798 H   0  0  0  0  0  0  0  0  0  0  0  0
  129.6740  126.6020   57.9520 H   0  0  0  0  0  0  0  0  0  0  0  0
  132.3238  124.4656   57.1959 H   0  0  0  0  0  0  0  0  0  0  0  0
  133.9404  123.4911   58.8148 H   0  0  0  0  0  0  0  0  0  0  0  0
  131.4649  124.8349   62.0944 H   0  0  0  0  0  0  0  0  0  0  0  0
  129.8492  125.8108   60.4746 H   0  0  0  0  0  0  0  0  0  0  0  0
  126.0555  126.6600   56.8512 H   0  0  0  0  0  0  0  0  0  0  0  0
  125.8521  128.8813   57.9641 H   0  0  0  0  0  0  0  0  0  0  0  0
  126.3028  129.5843   62.3946 H   0  0  0  0  0  0  0  0  0  0  0  0
  125.4311  130.6592   61.2494 H   0  0  0  0  0  0  0  0  0  0  0  0
  125.1039  128.8930   61.2494 H   0  0  0  0  0  0  0  0  0  0  0  0
  128.1170  127.3971   61.3368 H   0  0  0  0  0  0  0  0  0  0  0  0
  128.3192  125.1747   60.2284 H   0  0  0  0  0  0  0  0  0  0  0  0
  127.3906  122.4623   63.5792 H   0  0  0  0  0  0  0  0  0  0  0  0
  129.7581  121.7072   63.5656 H   0  0  0  0  0  0  0  0  0  0  0  0
  1  2  1  0
  2  3  1  0
  3  4  1  0
  4  5  2  0
  5  6  1  0
  6  7  2  0
  7  8  1  0
  8  9  2  0
  8 10  1  0
 10 11  1  0
 11 12  1  0
 12 13  2  0
 13 14  1  0
 14 15  2  0
 15 16  1  0
 16 17  1  0
 17 18  1  0
 18 19  2  0
 19 20  1  0
 20 21  2  0
 21 22  1  0
 22 23  1  0
 22 24  1  0
 22 25  1  0
 21 26  1  0
 26 27  2  0
 15 28  1  0
 28 29  1  0
 29 30  2  0
 30 31  1  0
 31 32  2  0
 32 33  1  0
 33 34  1  0
 32 35  1  0
 35 36  2  0
  7 37  1  0
 37 38  2  0
 38  4  1  0
 28 12  1  0
 36 29  1  0
 27 18  1  0
  1 39  1  0
  1 40  1  0
  1 41  1  0
  2 42  1  0
  2 43  1  0
  5 44  1  0
  6 45  1  0
 10 46  1  0
 10 47  1  0
 16 48  1  0
 16 49  1  0
 17 50  1  0
 19 51  1  0
 20 52  1  0
 26 53  1  0
 27 54  1  0
 30 55  1  0
 31 56  1  0
 34 57  1  0
 34 58  1  0
 34 59  1  0
 35 60  1  0
 36 61  1  0
 37 62  1  0
 38 63  1  0
M  END
>  <Binding energies>  (1) 
[-6.59]

>  <Ligand effiencies>  (1) 
[-0.16897435897435897]

>  <Interactions>  (1) 
["V-B:PRO:540:CB:9857, V-B:TYR:539:C:9839, V-B:PRO:540:CA:9855, V-B:PRO:540:N:9856, V-B:GLU:543:CD:9880, V-A:ILE:369:CD1:3239, V-A:TYR:484:CZ:4347, V-B:TYR:539:CE2:9848, V-B:PRO:540:C:9853, H-B:ALA:541:N:9863, V-B:ASP:366:CG:8185, V-A:LEU:475:CD2:4259, H-A:TYR:484:OH:4348, V-B:ALA:541:CA:9862, V-B:TYR:539:CD2:9846, V-B:ALA:541:CB:9864, V-A:GLY:454:CA:4049, V-A:ILE:369:CG2:3237, V-A:ASP:366:CG:3213, V-A:ILE:369:CB:3236, V-A:GLY:453:CA:4044, V-A:GLY:453:C:4042, V-B:GLU:543:CG:9879, V-A:TYR:484:CE1:4345, V-A:ILE:369:CG1:3238, V-B:TYR:539:CZ:9849, V-B:MET:535:CE:9807, H-B:TYR:539:N:9842"]

$$$$
RR18_Rahimova_2017
     RDKit          3D

 56 61  0  0  0  0  0  0  0  0999 V2000
  127.2980  122.7700   58.1050 C   0  0  0  0  0  0  0  0  0  0  0  0
  127.8530  123.5370   59.2790 C   0  0  0  0  0  0  0  0  0  0  0  0
  127.3280  123.9690   60.4860 C   0  0  0  0  0  0  0  0  0  0  0  0
  128.3530  124.6370   61.1550 C   0  0  0  0  0  0  0  0  0  0  0  0
  129.4680  124.5880   60.3340 C   0  0  0  0  0  0  0  0  0  0  0  0
  130.8980  125.1070   60.4590 C   0  0  1  0  0  0  0  0  0  0  0  0
  131.9180  124.1350   59.7950 C   0  0  0  0  0  0  0  0  0  0  0  0
  132.1190  122.7940   60.3350 C   0  0  0  0  0  0  0  0  0  0  0  0
  133.1500  122.4820   60.9340 O   0  0  0  0  0  0  0  0  0  0  0  0
  131.0800  121.9520   60.1300 N   0  0  0  0  0  0  0  0  0  0  0  0
  130.9210  120.5950   60.4830 C   0  0  0  0  0  0  0  0  0  0  0  0
  131.7540  119.5670   60.0070 C   0  0  0  0  0  0  0  0  0  0  0  0
  131.5390  118.2440   60.3890 C   0  0  0  0  0  0  0  0  0  0  0  0
  130.4880  117.9270   61.2440 C   0  0  0  0  0  0  0  0  0  0  0  0
  129.6470  118.9330   61.7140 C   0  0  0  0  0  0  0  0  0  0  0  0
  129.8510  120.2650   61.3400 C   0  0  0  0  0  0  0  0  0  0  0  0
  128.8990  121.3280   61.8790 C   0  0  0  0  0  0  0  0  0  0  0  0
  132.5350  124.5280   58.6500 C   0  0  0  0  0  0  0  0  0  0  0  0
  132.4210  125.7640   58.0910 N   0  0  0  0  0  0  0  0  0  0  0  0
  131.7550  126.6740   58.7010 C   0  0  0  0  0  0  0  0  0  0  0  0
  131.6460  128.3400   58.1850 S   0  0  0  0  0  0  0  0  0  0  0  0
  130.6230  128.7640   59.5930 C   0  0  0  0  0  0  0  0  0  0  0  0
  130.1000  130.0020   59.8990 C   0  0  0  0  0  0  0  0  0  0  0  0
  130.4310  131.1730   59.0740 C   0  0  0  0  0  0  0  0  0  0  0  0
  131.1270  131.2570   58.0620 O   0  0  0  0  0  0  0  0  0  0  0  0
  129.8370  132.2340   59.6290 N   0  0  0  0  0  0  0  0  0  0  0  0
  129.1020  131.9150   60.7300 C   0  0  0  0  0  0  0  0  0  0  0  0
  128.3490  132.7710   61.5330 C   0  0  0  0  0  0  0  0  0  0  0  0
  127.6380  132.2370   62.6040 C   0  0  0  0  0  0  0  0  0  0  0  0
  127.6840  130.8650   62.8470 C   0  0  0  0  0  0  0  0  0  0  0  0
  128.4460  130.0280   62.0280 C   0  0  0  0  0  0  0  0  0  0  0  0
  129.1910  130.5520   60.9550 C   0  0  0  0  0  0  0  0  0  0  0  0
  130.4370  127.5560   60.3970 C   0  0  0  0  0  0  0  0  0  0  0  0
  129.8350  127.4750   61.4630 O   0  0  0  0  0  0  0  0  0  0  0  0
  131.0420  126.4720   59.8390 N   0  0  0  0  0  0  0  0  0  0  0  0
  129.1550  123.9170   59.1930 O   0  0  0  0  0  0  0  0  0  0  0  0
  126.6898  121.9295   58.4706 H   0  0  0  0  0  0  0  0  0  0  0  0
  126.6721  123.4371   57.4941 H   0  0  0  0  0  0  0  0  0  0  0  0
  128.1273  122.3840   57.4941 H   0  0  0  0  0  0  0  0  0  0  0  0
  126.3005  123.8148   60.8471 H   0  0  0  0  0  0  0  0  0  0  0  0
  128.2887  125.1120   62.1451 H   0  0  0  0  0  0  0  0  0  0  0  0
  131.1160  125.1746   61.5351 H   0  0  0  0  0  0  0  0  0  0  0  0
  130.2630  122.3600   59.7000 H   0  0  0  0  0  0  0  0  0  0  0  0
  132.5835  119.8094   59.3264 H   0  0  0  0  0  0  0  0  0  0  0  0
  132.2010  117.4495   60.0141 H   0  0  0  0  0  0  0  0  0  0  0  0
  130.3215  116.8832   61.5484 H   0  0  0  0  0  0  0  0  0  0  0  0
  128.8144  118.6773   62.3858 H   0  0  0  0  0  0  0  0  0  0  0  0
  128.9146  121.3105   62.9787 H   0  0  0  0  0  0  0  0  0  0  0  0
  129.2170  122.3192   61.5235 H   0  0  0  0  0  0  0  0  0  0  0  0
  127.8789  121.1208   61.5235 H   0  0  0  0  0  0  0  0  0  0  0  0
  133.1734  123.7936   58.1371 H   0  0  0  0  0  0  0  0  0  0  0  0
  129.9110  133.1670   59.2530 H   0  0  0  0  0  0  0  0  0  0  0  0
  128.3174  133.8504   61.3236 H   0  0  0  0  0  0  0  0  0  0  0  0
  127.0430  132.8942   63.2552 H   0  0  0  0  0  0  0  0  0  0  0  0
  127.1173  130.4391   63.6881 H   0  0  0  0  0  0  0  0  0  0  0  0
  128.4639  128.9458   62.2243 H   0  0  0  0  0  0  0  0  0  0  0  0
  1  2  1  0
  2  3  2  0
  3  4  1  0
  4  5  2  0
  5  6  1  0
  6  7  1  0
  7  8  1  0
  8  9  2  0
  8 10  1  0
 10 11  1  0
 11 12  2  0
 12 13  1  0
 13 14  2  0
 14 15  1  0
 15 16  2  0
 16 17  1  0
  7 18  2  0
 18 19  1  0
 19 20  2  0
 20 21  1  0
 21 22  1  0
 22 23  2  0
 23 24  1  0
 24 25  2  0
 24 26  1  0
 26 27  1  0
 27 28  2  0
 28 29  1  0
 29 30  2  0
 30 31  1  0
 31 32  2  0
 22 33  1  0
 33 34  2  0
 33 35  1  0
  5 36  1  0
 36  2  1  0
 35  6  1  0
 16 11  1  0
 35 20  1  0
 32 23  1  0
 32 27  1  0
  1 37  1  0
  1 38  1  0
  1 39  1  0
  3 40  1  0
  4 41  1  0
  6 42  1  1
 10 43  1  0
 12 44  1  0
 13 45  1  0
 14 46  1  0
 15 47  1  0
 17 48  1  0
 17 49  1  0
 17 50  1  0
 18 51  1  0
 26 52  1  0
 28 53  1  0
 29 54  1  0
 30 55  1  0
 31 56  1  0
M  END
>  <Binding energies>  (1) 
[-7.9]

>  <Ligand effiencies>  (1) 
[-0.20789473684210527]

>  <Interactions>  (1) 
["V-B:TYR:539:C:9839, V-B:PRO:540:CA:9855, V-B:PRO:540:N:9856, V-B:TYR:539:CE2:9848, V-B:PRO:540:C:9853, H-B:TYR:539:O:9840, V-A:SER:385:CB:3409, V-A:PRO:482:CG:4327, V-A:PRO:482:CB:4326, V-A:LEU:475:CD2:4259, V-B:ALA:541:CA:9862, V-B:TYR:539:CD2:9846, V-A:LEU:475:CD1:4258, V-A:LEU:475:CG:4257, V-B:ALA:541:CB:9864, V-A:GLU:543:CD:4908, V-A:ASP:366:CG:3213, V-A:ASP:366:CB:3212, V-A:PRO:540:CA:4883, V-A:PRO:540:N:4884, V-A:PRO:540:C:4881, V-A:ALA:541:CB:4892, V-A:TYR:539:C:4867, H-A:TYR:539:O:4868, H-B:TYR:539:OH:9850"]

$$$$
RR19_Rahimova_2017
     RDKit          3D

 72 77  0  0  0  0  0  0  0  0999 V2000
  129.0490  124.9280   59.0590 O   0  0  0  0  0  0  0  0  0  0  0  0
  129.7310  125.7920   59.6170 C   0  0  0  0  0  0  0  0  0  0  0  0
  129.3030  127.0250   59.9920 N   0  0  0  0  0  0  0  0  0  0  0  0
  128.0580  127.5950   60.0860 C   0  0  0  0  0  0  0  0  0  0  0  0
  126.5850  126.7680   59.9690 S   0  0  0  0  0  0  0  0  0  0  0  0
  128.2060  128.9440   60.2920 N   0  0  0  0  0  0  0  0  0  0  0  0
  127.3290  129.9350   60.5900 C   0  0  0  0  0  0  0  0  0  0  0  0
  126.1520  129.7930   60.9330 O   0  0  0  0  0  0  0  0  0  0  0  0
  127.9180  131.3610   60.4460 C   0  0  2  0  0  0  0  0  0  0  0  0
  127.2040  132.2590   59.3950 C   0  0  0  0  0  0  0  0  0  0  0  0
  126.1090  131.5740   58.5940 C   0  0  0  0  0  0  0  0  0  0  0  0
  124.7520  131.7050   58.9620 C   0  0  0  0  0  0  0  0  0  0  0  0
  123.7600  131.1380   58.1740 C   0  0  0  0  0  0  0  0  0  0  0  0
  124.0950  130.4540   57.0110 C   0  0  0  0  0  0  0  0  0  0  0  0
  125.4230  130.3420   56.6210 C   0  0  0  0  0  0  0  0  0  0  0  0
  126.4300  130.9040   57.3940 C   0  0  0  0  0  0  0  0  0  0  0  0
  129.3890  131.3170   60.2180 N   0  0  0  0  0  0  0  0  0  0  0  0
  129.9090  130.9690   59.0070 C   0  0  0  0  0  0  0  0  0  0  0  0
  129.2880  130.6330   57.9960 O   0  0  0  0  0  0  0  0  0  0  0  0
  131.3800  131.0850   59.1590 C   0  0  0  0  0  0  0  0  0  0  0  0
  132.4150  130.8490   58.2520 C   0  0  0  0  0  0  0  0  0  0  0  0
  133.7340  131.0500   58.6740 C   0  0  0  0  0  0  0  0  0  0  0  0
  133.9990  131.4810   59.9810 C   0  0  0  0  0  0  0  0  0  0  0  0
  132.9470  131.7120   60.8750 C   0  0  0  0  0  0  0  0  0  0  0  0
  131.6400  131.5040   60.4350 C   0  0  0  0  0  0  0  0  0  0  0  0
  130.3410  131.6700   61.1330 C   0  0  0  0  0  0  0  0  0  0  0  0
  130.1630  132.0540   62.2900 O   0  0  0  0  0  0  0  0  0  0  0  0
  131.2230  125.5060   59.9320 C   0  0  2  0  0  0  0  0  0  0  0  0
  131.7940  124.2580   59.1990 C   0  0  0  0  0  0  0  0  0  0  0  0
  131.5140  122.9450   59.9080 C   0  0  0  0  0  0  0  0  0  0  0  0
  130.2140  122.6570   60.3760 C   0  0  0  0  0  0  0  0  0  0  0  0
  129.9370  121.4140   60.9330 C   0  0  0  0  0  0  0  0  0  0  0  0
  130.9260  120.4430   61.0070 C   0  0  0  0  0  0  0  0  0  0  0  0
  132.2000  120.6990   60.5140 C   0  0  0  0  0  0  0  0  0  0  0  0
  132.4980  121.9350   59.9540 C   0  0  0  0  0  0  0  0  0  0  0  0
  131.5220  125.4660   61.3920 N   0  0  0  0  0  0  0  0  0  0  0  0
  132.7740  125.2010   61.8610 C   0  0  0  0  0  0  0  0  0  0  0  0
  133.7820  124.9520   61.1980 O   0  0  0  0  0  0  0  0  0  0  0  0
  132.6650  125.2770   63.3390 C   0  0  0  0  0  0  0  0  0  0  0  0
  133.6220  125.0900   64.3370 C   0  0  0  0  0  0  0  0  0  0  0  0
  133.2320  125.2290   65.6740 C   0  0  0  0  0  0  0  0  0  0  0  0
  131.9060  125.5520   65.9930 C   0  0  0  0  0  0  0  0  0  0  0  0
  130.9610  125.7370   64.9770 C   0  0  0  0  0  0  0  0  0  0  0  0
  131.3700  125.5920   63.6500 C   0  0  0  0  0  0  0  0  0  0  0  0
  130.6160  125.7260   62.3810 C   0  0  0  0  0  0  0  0  0  0  0  0
  129.4260  126.0120   62.2470 O   0  0  0  0  0  0  0  0  0  0  0  0
  130.0400  127.6070   60.3630 H   0  0  0  0  0  0  0  0  0  0  0  0
  129.1360  129.2820   60.0920 H   0  0  0  0  0  0  0  0  0  0  0  0
  127.7227  131.8502   61.4117 H   0  0  0  0  0  0  0  0  0  0  0  0
  126.7547  133.1116   59.9253 H   0  0  0  0  0  0  0  0  0  0  0  0
  127.9764  132.5504   58.6681 H   0  0  0  0  0  0  0  0  0  0  0  0
  124.4808  132.2569   59.8741 H   0  0  0  0  0  0  0  0  0  0  0  0
  122.7048  131.2302   58.4708 H   0  0  0  0  0  0  0  0  0  0  0  0
  123.3040  129.9992   56.3966 H   0  0  0  0  0  0  0  0  0  0  0  0
  125.6783  129.8055   55.6953 H   0  0  0  0  0  0  0  0  0  0  0  0
  127.4787  130.8271   57.0710 H   0  0  0  0  0  0  0  0  0  0  0  0
  132.1982  130.5122   57.2275 H   0  0  0  0  0  0  0  0  0  0  0  0
  134.5658  130.8691   57.9774 H   0  0  0  0  0  0  0  0  0  0  0  0
  135.0381  131.6384   60.3057 H   0  0  0  0  0  0  0  0  0  0  0  0
  133.1468  132.0503   61.9024 H   0  0  0  0  0  0  0  0  0  0  0  0
  131.7550  126.3762   59.5200 H   0  0  0  0  0  0  0  0  0  0  0  0
  131.3468  124.2115   58.1951 H   0  0  0  0  0  0  0  0  0  0  0  0
  132.8871  124.3778   59.1699 H   0  0  0  0  0  0  0  0  0  0  0  0
  129.4209  123.4154   60.3000 H   0  0  0  0  0  0  0  0  0  0  0  0
  128.9289  121.1988   61.3171 H   0  0  0  0  0  0  0  0  0  0  0  0
  130.7003  119.4656   61.4583 H   0  0  0  0  0  0  0  0  0  0  0  0
  132.9751  119.9203   60.5674 H   0  0  0  0  0  0  0  0  0  0  0  0
  133.5016  122.1262   59.5463 H   0  0  0  0  0  0  0  0  0  0  0  0
  134.6612  124.8386   64.0784 H   0  0  0  0  0  0  0  0  0  0  0  0
  133.9691  125.0842   66.4776 H   0  0  0  0  0  0  0  0  0  0  0  0
  131.6067  125.6606   67.0459 H   0  0  0  0  0  0  0  0  0  0  0  0
  129.9185  125.9912   65.2190 H   0  0  0  0  0  0  0  0  0  0  0  0
  1  2  2  0
  2  3  1  0
  3  4  1  0
  4  5  2  0
  4  6  1  0
  6  7  1  0
  7  8  2  0
  7  9  1  0
  9 10  1  0
 10 11  1  0
 11 12  2  0
 12 13  1  0
 13 14  2  0
 14 15  1  0
 15 16  2  0
  9 17  1  0
 17 18  1  0
 18 19  2  0
 18 20  1  0
 20 21  2  0
 21 22  1  0
 22 23  2  0
 23 24  1  0
 24 25  2  0
 25 26  1  0
 26 27  2  0
  2 28  1  0
 28 29  1  0
 29 30  1  0
 30 31  2  0
 31 32  1  0
 32 33  2  0
 33 34  1  0
 34 35  2  0
 28 36  1  0
 36 37  1  0
 37 38  2  0
 37 39  1  0
 39 40  2  0
 40 41  1  0
 41 42  2  0
 42 43  1  0
 43 44  2  0
 44 45  1  0
 45 46  2  0
 16 11  1  0
 26 17  1  0
 35 30  1  0
 45 36  1  0
 25 20  1  0
 44 39  1  0
  3 47  1  0
  6 48  1  0
  9 49  1  1
 10 50  1  0
 10 51  1  0
 12 52  1  0
 13 53  1  0
 14 54  1  0
 15 55  1  0
 16 56  1  0
 21 57  1  0
 22 58  1  0
 23 59  1  0
 24 60  1  0
 28 61  1  6
 29 62  1  0
 29 63  1  0
 31 64  1  0
 32 65  1  0
 33 66  1  0
 34 67  1  0
 35 68  1  0
 40 69  1  0
 41 70  1  0
 42 71  1  0
 43 72  1  0
M  END
>  <Binding energies>  (1) 
[-9.17]

>  <Ligand effiencies>  (1) 
[-0.19104166666666667]

>  <Interactions>  (1) 
["V-A:ARG:545:CD:4923, V-A:ARG:545:CZ:4926, V-A:TYR:484:CZ:4347, V-A:TYR:484:CE2:4346, V-B:TYR:539:CE2:9848, V-A:ARG:545:CG:4922, V-A:HIS:456:CE1:4070, V-B:ASP:366:CG:8185, V-A:LEU:475:CD2:4259, V-B:TYR:539:CD2:9846, V-A:GLU:543:CD:4908, H-A:GLU:543:OE1:4909, V-A:GLY:454:CA:4049, V-A:ILE:369:CG2:3237, H-A:ARG:545:NH2:4928, V-A:ASP:366:CG:3213, V-A:ASP:366:CB:3212, V-A:GLY:453:CA:4044, V-A:GLY:453:C:4042, V-B:ASP:366:CB:8184, V-A:PRO:540:CA:4883, V-A:PRO:540:CB:4885, V-A:PRO:540:C:4881, H-A:ALA:541:N:4891, V-A:ASN:362:CB:3176, V-A:ALA:541:CB:4892, V-A:LEU:363:CD1:3189, V-A:LEU:363:CA:3185, V-A:TYR:539:CD1:4873, V-A:TYR:539:CE1:4875, V-A:LEU:363:CB:3187, V-B:TYR:531:CE1:9764, V-A:TYR:539:CZ:4877, V-B:ILE:369:CB:8208, V-B:ASP:366:C:8180, V-B:ASP:366:CA:8182, V-B:ILE:369:CG2:8209, V-A:ASN:362:C:3172, V-A:ASN:362:CA:3174"]

$$$$
RR19_Rahimova_2017-again1
     RDKit          3D

 71 76  0  0  0  0  0  0  0  0999 V2000
  132.5990  124.9860   58.9440 O   0  0  0  0  0  0  0  0  0  0  0  0
  131.5950  125.0050   59.6610 C   0  0  0  0  0  0  0  0  0  0  0  0
  130.4130  125.5900   59.3540 N   0  0  0  0  0  0  0  0  0  0  0  0
  129.9290  126.1620   58.2110 C   0  0  0  0  0  0  0  0  0  0  0  0
  130.6890  126.4630   56.7430 S   0  0  0  0  0  0  0  0  0  0  0  0
  128.5860  126.4090   58.4310 N   0  0  0  0  0  0  0  0  0  0  0  0
  127.9530  126.5530   59.5490 C   0  0  0  0  0  0  0  0  0  0  0  0
  128.3800  126.5910   60.7200 O   0  0  0  0  0  0  0  0  0  0  0  0
  126.3970  126.6840   59.4290 C   0  0  2  0  0  0  0  0  0  0  0  0
  125.8590  125.9470   58.1570 C   0  0  0  0  0  0  0  0  0  0  0  0
  126.5140  124.5950   57.8830 C   0  0  0  0  0  0  0  0  0  0  0  0
  126.8230  124.2240   56.5720 C   0  0  0  0  0  0  0  0  0  0  0  0
  127.4340  122.9980   56.3220 C   0  0  0  0  0  0  0  0  0  0  0  0
  127.7300  122.1450   57.3840 C   0  0  0  0  0  0  0  0  0  0  0  0
  127.4200  122.5080   58.6940 C   0  0  0  0  0  0  0  0  0  0  0  0
  126.8090  123.7330   58.9430 C   0  0  0  0  0  0  0  0  0  0  0  0
  125.8990  128.0890   59.5940 N   0  0  0  0  0  0  0  0  0  0  0  0
  125.5870  128.8670   58.5190 C   0  0  0  0  0  0  0  0  0  0  0  0
  125.6720  128.5660   57.3270 O   0  0  0  0  0  0  0  0  0  0  0  0
  125.1240  130.1590   59.0880 C   0  0  0  0  0  0  0  0  0  0  0  0
  124.6840  131.3270   58.4640 C   0  0  0  0  0  0  0  0  0  0  0  0
  124.3030  132.4100   59.2640 C   0  0  0  0  0  0  0  0  0  0  0  0
  124.3630  132.3120   60.6610 C   0  0  0  0  0  0  0  0  0  0  0  0
  124.8060  131.1320   61.2660 C   0  0  0  0  0  0  0  0  0  0  0  0
  125.1840  130.0650   60.4510 C   0  0  0  0  0  0  0  0  0  0  0  0
  125.6850  128.7120   60.7930 C   0  0  0  0  0  0  0  0  0  0  0  0
  125.8670  128.2520   61.9190 O   0  0  0  0  0  0  0  0  0  0  0  0
  131.6330  124.3130   61.0560 C   0  0  2  0  0  0  0  0  0  0  0  0
  132.8200  124.7720   61.9510 C   0  0  0  0  0  0  0  0  0  0  0  0
  132.4110  125.1920   63.3510 C   0  0  0  0  0  0  0  0  0  0  0  0
  131.0570  125.4650   63.6400 C   0  0  0  0  0  0  0  0  0  0  0  0
  130.6690  125.7530   64.9420 C   0  0  0  0  0  0  0  0  0  0  0  0
  131.6050  125.7470   65.9700 C   0  0  0  0  0  0  0  0  0  0  0  0
  132.9340  125.4430   65.7050 C   0  0  0  0  0  0  0  0  0  0  0  0
  133.3420  125.1520   64.4110 C   0  0  0  0  0  0  0  0  0  0  0  0
  131.5150  122.8240   61.0010 N   0  0  0  0  0  0  0  0  0  0  0  0
  130.4750  122.1680   61.5880 C   0  0  0  0  0  0  0  0  0  0  0  0
  129.5780  122.6540   62.2780 O   0  0  0  0  0  0  0  0  0  0  0  0
  130.6440  120.7420   61.2120 C   0  0  0  0  0  0  0  0  0  0  0  0
  129.8740  119.6190   61.5160 C   0  0  0  0  0  0  0  0  0  0  0  0
  130.2660  118.3790   61.0000 C   0  0  0  0  0  0  0  0  0  0  0  0
  131.4110  118.2770   60.1980 C   0  0  0  0  0  0  0  0  0  0  0  0
  132.1720  119.4150   59.9070 C   0  0  0  0  0  0  0  0  0  0  0  0
  131.7620  120.6420   60.4300 C   0  0  0  0  0  0  0  0  0  0  0  0
  132.3330  122.0030   60.2770 C   0  0  0  0  0  0  0  0  0  0  0  0
  133.3280  122.3250   59.6250 O   0  0  0  0  0  0  0  0  0  0  0  0
  129.7200  125.5160   60.0840 H   0  0  0  0  0  0  0  0  0  0  0  0
  125.9597  126.1578   60.2903 H   0  0  0  0  0  0  0  0  0  0  0  0
  124.7785  125.7855   58.2850 H   0  0  0  0  0  0  0  0  0  0  0  0
  126.0994  126.5905   57.2979 H   0  0  0  0  0  0  0  0  0  0  0  0
  126.5838  124.9000   55.7378 H   0  0  0  0  0  0  0  0  0  0  0  0
  127.6819  122.7040   55.2914 H   0  0  0  0  0  0  0  0  0  0  0  0
  128.2127  121.1764   57.1867 H   0  0  0  0  0  0  0  0  0  0  0  0
  127.6573  121.8293   59.5265 H   0  0  0  0  0  0  0  0  0  0  0  0
  126.5581  124.0231   59.9740 H   0  0  0  0  0  0  0  0  0  0  0  0
  124.6377  131.3949   57.3671 H   0  0  0  0  0  0  0  0  0  0  0  0
  123.9550  133.3420   58.7947 H   0  0  0  0  0  0  0  0  0  0  0  0
  124.0604  133.1668   61.2837 H   0  0  0  0  0  0  0  0  0  0  0  0
  124.8554  131.0468   62.3616 H   0  0  0  0  0  0  0  0  0  0  0  0
  130.7179  124.6695   61.5515 H   0  0  0  0  0  0  0  0  0  0  0  0
  133.5329  123.9384   62.0343 H   0  0  0  0  0  0  0  0  0  0  0  0
  133.2586  125.6578   61.4683 H   0  0  0  0  0  0  0  0  0  0  0  0
  130.3087  125.4497   62.8339 H   0  0  0  0  0  0  0  0  0  0  0  0
  129.6167  125.9869   65.1608 H   0  0  0  0  0  0  0  0  0  0  0  0
  131.2917  125.9840   66.9975 H   0  0  0  0  0  0  0  0  0  0  0  0
  133.6670  125.4328   66.5251 H   0  0  0  0  0  0  0  0  0  0  0  0
  134.3915  124.8900   64.2113 H   0  0  0  0  0  0  0  0  0  0  0  0
  128.9779  119.7066   62.1479 H   0  0  0  0  0  0  0  0  0  0  0  0
  129.6730  117.4802   61.2247 H   0  0  0  0  0  0  0  0  0  0  0  0
  131.7127  117.2987   59.7957 H   0  0  0  0  0  0  0  0  0  0  0  0
  133.0731  119.3438   59.2801 H   0  0  0  0  0  0  0  0  0  0  0  0
  1  2  2  0
  2  3  1  0
  3  4  1  0
  4  5  2  0
  4  6  1  0
  6  7  2  0
  7  8  1  0
  7  9  1  0
  9 10  1  0
 10 11  1  0
 11 12  2  0
 12 13  1  0
 13 14  2  0
 14 15  1  0
 15 16  2  0
  9 17  1  0
 17 18  1  0
 18 19  2  0
 18 20  1  0
 20 21  2  0
 21 22  1  0
 22 23  2  0
 23 24  1  0
 24 25  2  0
 25 26  1  0
 26 27  2  0
  2 28  1  0
 28 29  1  0
 29 30  1  0
 30 31  2  0
 31 32  1  0
 32 33  2  0
 33 34  1  0
 34 35  2  0
 28 36  1  0
 36 37  1  0
 37 38  2  0
 37 39  1  0
 39 40  2  0
 40 41  1  0
 41 42  2  0
 42 43  1  0
 43 44  2  0
 44 45  1  0
 45 46  2  0
 16 11  1  0
 26 17  1  0
 35 30  1  0
 45 36  1  0
 25 20  1  0
 44 39  1  0
  3 47  1  0
  9 48  1  1
 10 49  1  0
 10 50  1  0
 12 51  1  0
 13 52  1  0
 14 53  1  0
 15 54  1  0
 16 55  1  0
 21 56  1  0
 22 57  1  0
 23 58  1  0
 24 59  1  0
 28 60  1  1
 29 61  1  0
 29 62  1  0
 31 63  1  0
 32 64  1  0
 33 65  1  0
 34 66  1  0
 35 67  1  0
 40 68  1  0
 41 69  1  0
 42 70  1  0
 43 71  1  0
M  CHG  1   8  -1
M  END
>  <Binding energies>  (1) 
[-8.37]

>  <Ligand effiencies>  (1) 
[-0.1780851063829787]

>  <Interactions>  (1) 
["V-A:ARG:545:CD:4923, V-B:PRO:540:CB:9857, V-A:ARG:545:CZ:4926, V-B:TYR:539:C:9839, V-B:PRO:540:CA:9855, V-B:PRO:540:N:9856, V-B:GLU:543:CD:9880, V-A:TYR:484:CZ:4347, V-A:TYR:484:CE2:4346, V-B:TYR:539:CE2:9848, V-A:ARG:545:CG:4922, V-A:HIS:456:CE1:4070, V-A:SER:385:CB:3409, V-B:ASP:366:CG:8185, V-A:PRO:482:CB:4326, V-B:TYR:539:CB:9843, V-A:LEU:475:CD2:4259, H-A:TYR:484:OH:4348, V-B:TYR:539:CA:9841, V-B:TYR:539:CD2:9846, V-A:LEU:475:CD1:4258, V-A:LEU:475:CG:4257, V-B:ALA:541:CB:9864, V-A:GLU:543:CD:4908, V-B:ILE:369:CD1:8211, V-A:ILE:369:CG2:3237, V-B:TYR:531:CZ:9766, V-B:TYR:539:CG:9844, V-B:ASP:366:CB:8184, H-B:TYR:531:OH:9767, V-B:TYR:539:CZ:9849, V-B:TYR:539:CE1:9847, V-B:TYR:539:CD1:9845, V-B:MET:535:CE:9807, H-B:ARG:545:NH2:9900, V-A:TYR:539:CD1:4873, V-A:TYR:539:CE1:4875, V-A:TYR:539:CZ:4877, V-B:ILE:369:CG2:8209"]

$$$$
RR1_Rahimova_2017
     RDKit          3D

 68 71  0  0  0  0  0  0  0  0999 V2000
  133.9680  130.1230   56.9630 C   0  0  0  0  0  0  0  0  0  0  0  0
  133.9340  131.1830   57.9110 O   0  0  0  0  0  0  0  0  0  0  0  0
  132.9380  131.2010   58.8670 C   0  0  0  0  0  0  0  0  0  0  0  0
  133.1670  131.3230   60.2470 C   0  0  0  0  0  0  0  0  0  0  0  0
  132.0980  131.3230   61.1390 C   0  0  0  0  0  0  0  0  0  0  0  0
  130.7880  131.2090   60.6710 C   0  0  0  0  0  0  0  0  0  0  0  0
  129.7800  131.1730   61.6540 N   0  0  0  0  0  0  0  0  0  0  0  0
  128.8730  132.1170   61.9830 C   0  0  0  0  0  0  0  0  0  0  0  0
  128.8260  133.2450   61.4940 O   0  0  0  0  0  0  0  0  0  0  0  0
  127.8600  131.6840   63.0560 C   0  0  0  0  0  0  0  0  0  0  0  0
  126.7090  130.3560   62.5570 S   0  0  0  0  0  0  0  0  0  0  0  0
  127.7330  128.9830   62.9690 C   0  0  0  0  0  0  0  0  0  0  0  0
  128.5780  128.4210   62.1430 N   0  0  0  0  0  0  0  0  0  0  0  0
  129.1330  127.4530   62.8650 C   0  0  0  0  0  0  0  0  0  0  0  0
  130.1920  126.5430   62.3110 C   0  0  0  0  0  0  0  0  0  0  0  0
  131.0300  126.9460   61.2590 C   0  0  0  0  0  0  0  0  0  0  0  0
  132.0040  126.0770   60.7630 C   0  0  0  0  0  0  0  0  0  0  0  0
  132.1190  124.8120   61.3360 C   0  0  0  0  0  0  0  0  0  0  0  0
  131.3260  124.3890   62.3540 N   0  0  0  0  0  0  0  0  0  0  0  0
  130.3860  125.2500   62.8220 C   0  0  0  0  0  0  0  0  0  0  0  0
  128.6920  127.3490   64.1050 N   0  0  0  0  0  0  0  0  0  0  0  0
  127.7900  128.3320   64.1740 N   0  0  0  0  0  0  0  0  0  0  0  0
  127.0620  128.5870   65.4180 C   0  0  0  0  0  0  0  0  0  0  0  0
  127.9490  128.7880   66.6590 C   0  0  0  0  0  0  0  0  0  0  0  0
  128.2610  129.9230   67.0370 O   0  0  0  0  0  0  0  0  0  0  0  0
  128.3390  127.6520   67.2680 N   0  0  0  0  0  0  0  0  0  0  0  0
  129.0150  127.7570   68.4760 N   0  0  0  0  0  0  0  0  0  0  0  0
  128.4440  127.2050   69.5690 C   0  0  0  0  0  0  0  0  0  0  0  0
  127.4120  126.5260   69.5420 O   0  0  0  0  0  0  0  0  0  0  0  0
  129.1700  127.4410   70.8780 C   0  0  0  0  0  0  0  0  0  0  0  0
  129.9240  128.6060   71.0580 C   0  0  0  0  0  0  0  0  0  0  0  0
  130.6070  128.8380   72.2470 C   0  0  0  0  0  0  0  0  0  0  0  0
  130.5640  127.9030   73.2940 C   0  0  0  0  0  0  0  0  0  0  0  0
  131.2310  128.0660   74.4950 O   0  0  0  0  0  0  0  0  0  0  0  0
  132.5650  127.5890   74.6260 C   0  0  0  0  0  0  0  0  0  0  0  0
  129.8200  126.7270   73.1310 C   0  0  0  0  0  0  0  0  0  0  0  0
  129.8260  125.8290   74.1850 O   0  0  0  0  0  0  0  0  0  0  0  0
  130.8820  124.8820   74.2980 C   0  0  0  0  0  0  0  0  0  0  0  0
  129.1280  126.5080   71.9260 C   0  0  0  0  0  0  0  0  0  0  0  0
  130.5550  131.0870   59.2930 C   0  0  0  0  0  0  0  0  0  0  0  0
  131.6260  131.0880   58.4040 C   0  0  0  0  0  0  0  0  0  0  0  0
  133.9989  129.1590   57.4919 H   0  0  0  0  0  0  0  0  0  0  0  0
  133.0680  130.1664   56.3320 H   0  0  0  0  0  0  0  0  0  0  0  0
  134.8634  130.2240   56.3320 H   0  0  0  0  0  0  0  0  0  0  0  0
  134.1955  131.4190   60.6250 H   0  0  0  0  0  0  0  0  0  0  0  0
  132.2869  131.4134   62.2189 H   0  0  0  0  0  0  0  0  0  0  0  0
  129.7670  130.3270   62.2060 H   0  0  0  0  0  0  0  0  0  0  0  0
  128.4238  131.3327   63.9328 H   0  0  0  0  0  0  0  0  0  0  0  0
  127.2352  132.5668   63.2566 H   0  0  0  0  0  0  0  0  0  0  0  0
  130.9188  127.9501   60.8239 H   0  0  0  0  0  0  0  0  0  0  0  0
  132.6651  126.3839   59.9391 H   0  0  0  0  0  0  0  0  0  0  0  0
  132.8857  124.1260   60.9467 H   0  0  0  0  0  0  0  0  0  0  0  0
  129.7406  124.9156   63.6476 H   0  0  0  0  0  0  0  0  0  0  0  0
  126.4572  129.4953   65.2797 H   0  0  0  0  0  0  0  0  0  0  0  0
  126.4594  127.6875   65.6123 H   0  0  0  0  0  0  0  0  0  0  0  0
  127.9320  126.7410   67.1070 H   0  0  0  0  0  0  0  0  0  0  0  0
  129.5330  128.6210   68.5350 H   0  0  0  0  0  0  0  0  0  0  0  0
  129.9772  129.3484   70.2480 H   0  0  0  0  0  0  0  0  0  0  0  0
  131.1875  129.7644   72.3688 H   0  0  0  0  0  0  0  0  0  0  0  0
  132.8189  127.4982   75.6924 H   0  0  0  0  0  0  0  0  0  0  0  0
  132.6514  126.6043   74.1434 H   0  0  0  0  0  0  0  0  0  0  0  0
  133.2562  128.2957   74.1434 H   0  0  0  0  0  0  0  0  0  0  0  0
  131.0928  124.6930   75.3609 H   0  0  0  0  0  0  0  0  0  0  0  0
  130.5851  123.9418   73.8102 H   0  0  0  0  0  0  0  0  0  0  0  0
  131.7844  125.2791   73.8102 H   0  0  0  0  0  0  0  0  0  0  0  0
  128.5413  125.5858   71.8023 H   0  0  0  0  0  0  0  0  0  0  0  0
  129.5264  130.9906   58.9153 H   0  0  0  0  0  0  0  0  0  0  0  0
  131.4363  130.9987   57.3242 H   0  0  0  0  0  0  0  0  0  0  0  0
  1  2  1  0
  2  3  1  0
  3  4  2  0
  4  5  1  0
  5  6  2  0
  6  7  1  0
  7  8  1  0
  8  9  2  0
  8 10  1  0
 10 11  1  0
 11 12  1  0
 12 13  2  0
 13 14  1  0
 14 15  1  0
 15 16  2  0
 16 17  1  0
 17 18  2  0
 18 19  1  0
 19 20  2  0
 14 21  2  0
 21 22  1  0
 22 23  1  0
 23 24  1  0
 24 25  2  0
 24 26  1  0
 26 27  1  0
 27 28  1  0
 28 29  2  0
 28 30  1  0
 30 31  2  0
 31 32  1  0
 32 33  2  0
 33 34  1  0
 34 35  1  0
 33 36  1  0
 36 37  1  0
 37 38  1  0
 36 39  2  0
  6 40  1  0
 40 41  2  0
 41  3  1  0
 22 12  1  0
 39 30  1  0
 20 15  1  0
  1 42  1  0
  1 43  1  0
  1 44  1  0
  4 45  1  0
  5 46  1  0
  7 47  1  0
 10 48  1  0
 10 49  1  0
 16 50  1  0
 17 51  1  0
 18 52  1  0
 20 53  1  0
 23 54  1  0
 23 55  1  0
 26 56  1  0
 27 57  1  0
 31 58  1  0
 32 59  1  0
 35 60  1  0
 35 61  1  0
 35 62  1  0
 38 63  1  0
 38 64  1  0
 38 65  1  0
 39 66  1  0
 40 67  1  0
 41 68  1  0
M  END
>  <Binding energies>  (1) 
[-6.57]

>  <Ligand effiencies>  (1) 
[-0.14931818181818182]

>  <Interactions>  (1) 
["V-B:GLU:543:CD:9880, V-A:HIS:456:CE1:4070, H-A:TYR:484:OH:4348, V-A:GLU:543:C:4902, V-B:HIS:456:CE1:9042, V-A:GLY:544:CA:4914, V-A:GLU:543:CB:4906, H-B:TYR:484:OH:9320, V-A:GLU:543:CD:4908, V-A:GLY:544:C:4912, V-A:GLU:543:CG:4907, V-A:HIS:456:CG:4066, V-A:HIS:456:CD2:4068, H-A:GLU:543:OE1:4909, V-A:ASP:366:CG:3213, V-A:ASP:366:CB:3212, H-B:GLU:543:OE2:9882, V-A:PRO:540:CA:4883, V-A:PRO:540:CB:4885, H-A:ALA:541:N:4891, V-A:ASN:362:CB:3176, V-A:ALA:541:CB:4892, V-A:LEU:363:CD1:3189, V-A:TYR:531:CZ:4794, V-A:TYR:531:CE2:4793, V-A:LEU:363:CA:3185, V-B:HIS:456:CD2:9040, H-B:LYS:547:NZ:9923, H-A:LYS:547:NZ:4951, V-B:LYS:547:CE:9922, V-A:LYS:547:CE:4950, H-A:GLU:543:O:4903, H-B:HIS:456:NE2:9043, V-A:HIS:456:CB:4065, V-A:LYS:547:CD:4949"]

$$$$
RR20_Rahimova_2017
     RDKit          3D

 68 73  0  0  0  0  0  0  0  0999 V2000
  128.8730  127.3060   68.7230 C   0  0  0  0  0  0  0  0  0  0  0  0
  127.9520  127.8130   67.6280 C   0  0  0  0  0  0  0  0  0  0  0  0
  126.6620  127.2960   67.5120 C   0  0  0  0  0  0  0  0  0  0  0  0
  125.8120  127.7660   66.5140 C   0  0  0  0  0  0  0  0  0  0  0  0
  126.2500  128.7460   65.6160 C   0  0  0  0  0  0  0  0  0  0  0  0
  125.3040  129.2580   64.5520 C   0  0  0  0  0  0  0  0  0  0  0  0
  124.3780  129.9880   64.9140 O   0  0  0  0  0  0  0  0  0  0  0  0
  125.5140  128.9110   63.2480 N   0  0  0  0  0  0  0  0  0  0  0  0
  124.7510  129.5320   62.1520 C   0  0  0  0  0  0  0  0  0  0  0  0
  125.3600  129.0160   60.8600 C   0  0  0  0  0  0  0  0  0  0  0  0
  126.6650  128.4350   61.3150 C   0  0  0  0  0  0  0  0  0  0  0  0
  127.6970  127.8890   60.5520 C   0  0  0  0  0  0  0  0  0  0  0  0
  128.7760  127.2430   61.1690 C   0  0  0  0  0  0  0  0  0  0  0  0
  129.8930  126.6620   60.3480 C   0  0  0  0  0  0  0  0  0  0  0  0
  130.3700  125.4740   60.6860 N   0  0  0  0  0  0  0  0  0  0  0  0
  131.3240  125.0580   59.8930 C   0  0  0  0  0  0  0  0  0  0  0  0
  132.0300  123.8670   59.9570 N   0  0  0  0  0  0  0  0  0  0  0  0
  132.8730  123.4720   60.9430 C   0  0  0  0  0  0  0  0  0  0  0  0
  133.1120  124.1370   61.9530 O   0  0  0  0  0  0  0  0  0  0  0  0
  133.5580  122.0920   60.8040 C   0  0  0  0  0  0  0  0  0  0  0  0
  132.6190  120.9650   60.9550 N   0  0  0  0  0  0  0  0  0  0  0  0
  131.2290  121.4120   61.1290 C   0  0  0  0  0  0  0  0  0  0  0  0
  130.3360  120.2220   61.5470 C   0  0  0  0  0  0  0  0  0  0  0  0
  130.5820  118.9670   60.7080 C   0  0  0  0  0  0  0  0  0  0  0  0
  129.6960  117.8850   60.7540 C   0  0  0  0  0  0  0  0  0  0  0  0
  129.9400  116.7270   60.0200 C   0  0  0  0  0  0  0  0  0  0  0  0
  131.0790  116.6390   59.2250 C   0  0  0  0  0  0  0  0  0  0  0  0
  131.9640  117.7130   59.1630 C   0  0  0  0  0  0  0  0  0  0  0  0
  131.7310  118.8810   59.8970 C   0  0  0  0  0  0  0  0  0  0  0  0
  132.6720  120.0810   59.7840 C   0  0  0  0  0  0  0  0  0  0  0  0
  131.7260  126.1540   58.6290 S   0  0  0  0  0  0  0  0  0  0  0  0
  130.5130  127.2590   59.2300 C   0  0  0  0  0  0  0  0  0  0  0  0
  130.3060  128.6040   58.5680 C   0  0  0  0  0  0  0  0  0  0  0  0
  128.7650  127.1090   62.5660 C   0  0  0  0  0  0  0  0  0  0  0  0
  127.7240  127.6370   63.3300 C   0  0  0  0  0  0  0  0  0  0  0  0
  126.6950  128.3550   62.7070 C   0  0  0  0  0  0  0  0  0  0  0  0
  127.5370  129.2810   65.7570 C   0  0  0  0  0  0  0  0  0  0  0  0
  128.3870  128.8130   66.7560 C   0  0  0  0  0  0  0  0  0  0  0  0
  128.4401  127.5443   69.7058 H   0  0  0  0  0  0  0  0  0  0  0  0
  128.9900  126.2163   68.6284 H   0  0  0  0  0  0  0  0  0  0  0  0
  129.8563  127.7900   68.6284 H   0  0  0  0  0  0  0  0  0  0  0  0
  126.3162  126.5177   68.2082 H   0  0  0  0  0  0  0  0  0  0  0  0
  124.7911  127.3649   66.4311 H   0  0  0  0  0  0  0  0  0  0  0  0
  123.6914  129.2436   62.2150 H   0  0  0  0  0  0  0  0  0  0  0  0
  124.7984  130.6297   62.2049 H   0  0  0  0  0  0  0  0  0  0  0  0
  124.7222  128.2460   60.4014 H   0  0  0  0  0  0  0  0  0  0  0  0
  125.4750  129.7950   60.0919 H   0  0  0  0  0  0  0  0  0  0  0  0
  127.6633  127.9664   59.4552 H   0  0  0  0  0  0  0  0  0  0  0  0
  131.9040  123.2340   59.1800 H   0  0  0  0  0  0  0  0  0  0  0  0
  134.0229  122.0300   59.8090 H   0  0  0  0  0  0  0  0  0  0  0  0
  134.3017  122.0110   61.6104 H   0  0  0  0  0  0  0  0  0  0  0  0
  131.1911  122.1867   61.9090 H   0  0  0  0  0  0  0  0  0  0  0  0
  130.8608  121.8209   60.1765 H   0  0  0  0  0  0  0  0  0  0  0  0
  130.5397  119.9842   62.6015 H   0  0  0  0  0  0  0  0  0  0  0  0
  129.2901  120.5238   61.3889 H   0  0  0  0  0  0  0  0  0  0  0  0
  128.7933  117.9501   61.3792 H   0  0  0  0  0  0  0  0  0  0  0  0
  129.2346  115.8843   60.0684 H   0  0  0  0  0  0  0  0  0  0  0  0
  131.2797  115.7245   58.6476 H   0  0  0  0  0  0  0  0  0  0  0  0
  132.8591  117.6417   58.5276 H   0  0  0  0  0  0  0  0  0  0  0  0
  133.7013  119.7097   59.6716 H   0  0  0  0  0  0  0  0  0  0  0  0
  132.3500  120.6702   58.9127 H   0  0  0  0  0  0  0  0  0  0  0  0
  130.1868  129.3783   59.3402 H   0  0  0  0  0  0  0  0  0  0  0  0
  131.1780  128.8423   57.9413 H   0  0  0  0  0  0  0  0  0  0  0  0
  129.4027  128.5691   57.9413 H   0  0  0  0  0  0  0  0  0  0  0  0
  129.5895  126.5797   63.0660 H   0  0  0  0  0  0  0  0  0  0  0  0
  127.7112  127.4898   64.4200 H   0  0  0  0  0  0  0  0  0  0  0  0
  127.8778  130.0744   65.0755 H   0  0  0  0  0  0  0  0  0  0  0  0
  129.3996  129.2305   66.8579 H   0  0  0  0  0  0  0  0  0  0  0  0
  1  2  1  0
  2  3  2  0
  3  4  1  0
  4  5  2  0
  5  6  1  0
  6  7  2  0
  6  8  1  0
  8  9  1  0
  9 10  1  0
 10 11  1  0
 11 12  2  0
 12 13  1  0
 13 14  1  0
 14 15  1  0
 15 16  2  0
 16 17  1  0
 17 18  1  0
 18 19  2  0
 18 20  1  0
 20 21  1  0
 21 22  1  0
 22 23  1  0
 23 24  1  0
 24 25  2  0
 25 26  1  0
 26 27  2  0
 27 28  1  0
 28 29  2  0
 29 30  1  0
 16 31  1  0
 31 32  1  0
 32 33  1  0
 13 34  2  0
 34 35  1  0
 35 36  2  0
  5 37  1  0
 37 38  2  0
 38  2  1  0
 36  8  1  0
 36 11  1  0
 32 14  2  0
 30 21  1  0
 29 24  1  0
  1 39  1  0
  1 40  1  0
  1 41  1  0
  3 42  1  0
  4 43  1  0
  9 44  1  0
  9 45  1  0
 10 46  1  0
 10 47  1  0
 12 48  1  0
 17 49  1  0
 20 50  1  0
 20 51  1  0
 22 52  1  0
 22 53  1  0
 23 54  1  0
 23 55  1  0
 25 56  1  0
 26 57  1  0
 27 58  1  0
 28 59  1  0
 30 60  1  0
 30 61  1  0
 33 62  1  0
 33 63  1  0
 33 64  1  0
 34 65  1  0
 35 66  1  0
 37 67  1  0
 38 68  1  0
M  END
>  <Binding energies>  (1) 
[-9.19]

>  <Ligand effiencies>  (1) 
[-0.23564102564102563]

>  <Interactions>  (1) 
["V-B:TYR:539:C:9839, V-B:GLU:543:CD:9880, V-A:ILE:369:CD1:3239, V-B:TYR:539:CE2:9848, V-A:HIS:456:CE1:4070, V-A:SER:385:CB:3409, V-B:ASP:366:CG:8185, V-A:HIS:383:CE1:3394, V-A:PRO:482:CG:4327, V-A:PRO:482:CB:4326, V-B:TYR:539:CB:9843, V-A:LEU:475:CD2:4259, H-A:TYR:484:OH:4348, V-B:TYR:539:CD2:9846, V-A:LEU:475:CD1:4258, V-B:ALA:541:CB:9864, V-A:LEU:373:CD1:3280, V-B:HIS:456:CE1:9042, V-B:ARG:545:CZ:9898, V-A:GLU:543:CB:4906, H-B:TYR:484:OH:9320, V-A:GLU:543:CD:4908, V-A:GLU:543:CG:4907, V-B:TYR:484:CZ:9319, H-B:GLY:454:N:9022, H-A:GLY:454:N:4050, V-A:ILE:369:CG2:3237, V-A:ASP:366:CG:3213, V-A:ASP:366:CB:3212, V-B:ARG:545:CG:9894, V-B:ARG:545:CD:9895, V-B:GLU:543:CB:9878"]

$$$$
RR20_Rahimova_2017-again1
     RDKit          3D

 68 73  0  0  0  0  0  0  0  0999 V2000
  128.3840  132.1120   64.1250 C   0  0  0  0  0  0  0  0  0  0  0  0
  127.3380  132.0290   63.0270 C   0  0  0  0  0  0  0  0  0  0  0  0
  126.1130  131.4090   63.2790 C   0  0  0  0  0  0  0  0  0  0  0  0
  125.1510  131.3390   62.2760 C   0  0  0  0  0  0  0  0  0  0  0  0
  125.4090  131.8780   61.0090 C   0  0  0  0  0  0  0  0  0  0  0  0
  124.3440  131.8080   59.9370 C   0  0  0  0  0  0  0  0  0  0  0  0
  123.5160  132.7190   59.8920 O   0  0  0  0  0  0  0  0  0  0  0  0
  124.3560  130.7670   59.0530 N   0  0  0  0  0  0  0  0  0  0  0  0
  123.9080  130.9370   57.6610 C   0  0  0  0  0  0  0  0  0  0  0  0
  124.2040  129.6260   56.9520 C   0  0  0  0  0  0  0  0  0  0  0  0
  125.1420  128.9400   57.9010 C   0  0  0  0  0  0  0  0  0  0  0  0
  125.8170  127.7290   57.7460 C   0  0  0  0  0  0  0  0  0  0  0  0
  126.5250  127.1630   58.8180 C   0  0  0  0  0  0  0  0  0  0  0  0
  127.2460  125.8560   58.6550 C   0  0  0  0  0  0  0  0  0  0  0  0
  128.5470  125.8250   58.8930 N   0  0  0  0  0  0  0  0  0  0  0  0
  129.0960  124.6470   58.7170 C   0  0  0  0  0  0  0  0  0  0  0  0
  130.4110  124.2820   58.8350 N   0  0  0  0  0  0  0  0  0  0  0  0
  131.4150  125.0870   58.7330 C   0  0  0  0  0  0  0  0  0  0  0  0
  131.4710  126.3230   58.5920 O   0  0  0  0  0  0  0  0  0  0  0  0
  132.7870  124.3880   58.8130 C   0  0  0  0  0  0  0  0  0  0  0  0
  133.2150  124.2280   60.3010 N   0  0  2  0  0  0  0  0  0  0  0  0
  133.6190  122.7800   60.6480 C   0  0  0  0  0  0  0  0  0  0  0  0
  132.3970  121.8510   60.5340 C   0  0  0  0  0  0  0  0  0  0  0  0
  131.1660  122.3850   61.2610 C   0  0  0  0  0  0  0  0  0  0  0  0
  130.1310  121.5090   61.6090 C   0  0  0  0  0  0  0  0  0  0  0  0
  128.9730  121.9690   62.2300 C   0  0  0  0  0  0  0  0  0  0  0  0
  128.8360  123.3220   62.5150 C   0  0  0  0  0  0  0  0  0  0  0  0
  129.8620  124.2030   62.1860 C   0  0  0  0  0  0  0  0  0  0  0  0
  131.0370  123.7600   61.5690 C   0  0  0  0  0  0  0  0  0  0  0  0
  132.1510  124.7740   61.2830 C   0  0  0  0  0  0  0  0  0  0  0  0
  127.9750  123.4470   58.1920 S   0  0  0  0  0  0  0  0  0  0  0  0
  126.6850  124.6220   58.2660 C   0  0  0  0  0  0  0  0  0  0  0  0
  125.2590  124.2190   57.9570 C   0  0  0  0  0  0  0  0  0  0  0  0
  126.4980  127.8190   60.0550 C   0  0  0  0  0  0  0  0  0  0  0  0
  125.8090  129.0220   60.2180 C   0  0  0  0  0  0  0  0  0  0  0  0
  125.1720  129.6160   59.1210 C   0  0  0  0  0  0  0  0  0  0  0  0
  126.6290  132.5250   60.7740 C   0  0  0  0  0  0  0  0  0  0  0  0
  127.5910  132.5950   61.7780 C   0  0  0  0  0  0  0  0  0  0  0  0
  127.8891  132.0727   65.1066 H   0  0  0  0  0  0  0  0  0  0  0  0
  129.0813  131.2664   64.0318 H   0  0  0  0  0  0  0  0  0  0  0  0
  128.9392  133.0570   64.0318 H   0  0  0  0  0  0  0  0  0  0  0  0
  125.9084  130.9762   64.2694 H   0  0  0  0  0  0  0  0  0  0  0  0
  124.1829  130.8579   62.4791 H   0  0  0  0  0  0  0  0  0  0  0  0
  122.8292  131.1502   57.6319 H   0  0  0  0  0  0  0  0  0  0  0  0
  124.4245  131.7783   57.1757 H   0  0  0  0  0  0  0  0  0  0  0  0
  123.2860  129.0375   56.8074 H   0  0  0  0  0  0  0  0  0  0  0  0
  124.6248  129.7607   55.9446 H   0  0  0  0  0  0  0  0  0  0  0  0
  125.7943  127.2129   56.7749 H   0  0  0  0  0  0  0  0  0  0  0  0
  132.7182  123.3951   58.3446 H   0  0  0  0  0  0  0  0  0  0  0  0
  133.5350  124.9976   58.2849 H   0  0  0  0  0  0  0  0  0  0  0  0
  134.0480  124.7920   60.4130 H   0  0  0  0  0  0  0  0  0  0  0  0
  134.3996  122.4424   59.9503 H   0  0  0  0  0  0  0  0  0  0  0  0
  134.0014  122.7489   61.6789 H   0  0  0  0  0  0  0  0  0  0  0  0
  132.1487  121.7289   59.4694 H   0  0  0  0  0  0  0  0  0  0  0  0
  132.6674  120.8956   61.0074 H   0  0  0  0  0  0  0  0  0  0  0  0
  130.2347  120.4365   61.3875 H   0  0  0  0  0  0  0  0  0  0  0  0
  128.1703  121.2647   62.4938 H   0  0  0  0  0  0  0  0  0  0  0  0
  127.9210  123.6951   62.9983 H   0  0  0  0  0  0  0  0  0  0  0  0
  129.7464  125.2724   62.4164 H   0  0  0  0  0  0  0  0  0  0  0  0
  131.7009  125.6784   60.8476 H   0  0  0  0  0  0  0  0  0  0  0  0
  132.6568  124.9907   62.2355 H   0  0  0  0  0  0  0  0  0  0  0  0
  124.7099  124.0638   58.8974 H   0  0  0  0  0  0  0  0  0  0  0  0
  124.7712  125.0145   57.3745 H   0  0  0  0  0  0  0  0  0  0  0  0
  125.2597  123.2859   57.3745 H   0  0  0  0  0  0  0  0  0  0  0  0
  127.0285  127.3790   60.9123 H   0  0  0  0  0  0  0  0  0  0  0  0
  125.7664  129.5028   61.2064 H   0  0  0  0  0  0  0  0  0  0  0  0
  126.8278  132.9796   59.7922 H   0  0  0  0  0  0  0  0  0  0  0  0
  128.5508  133.0969   61.5859 H   0  0  0  0  0  0  0  0  0  0  0  0
  1  2  1  0
  2  3  2  0
  3  4  1  0
  4  5  2  0
  5  6  1  0
  6  7  2  0
  6  8  1  0
  8  9  1  0
  9 10  1  0
 10 11  1  0
 11 12  2  0
 12 13  1  0
 13 14  1  0
 14 15  1  0
 15 16  2  0
 16 17  1  0
 17 18  2  0
 18 19  1  0
 18 20  1  0
 20 21  1  0
 21 22  1  0
 22 23  1  0
 23 24  1  0
 24 25  2  0
 25 26  1  0
 26 27  2  0
 27 28  1  0
 28 29  2  0
 29 30  1  0
 16 31  1  0
 31 32  1  0
 32 33  1  0
 13 34  2  0
 34 35  1  0
 35 36  2  0
  5 37  1  0
 37 38  2  0
 38  2  1  0
 36  8  1  0
 36 11  1  0
 32 14  2  0
 30 21  1  0
 29 24  1  0
  1 39  1  0
  1 40  1  0
  1 41  1  0
  3 42  1  0
  4 43  1  0
  9 44  1  0
  9 45  1  0
 10 46  1  0
 10 47  1  0
 12 48  1  0
 20 49  1  0
 20 50  1  0
 21 51  1  6
 22 52  1  0
 22 53  1  0
 23 54  1  0
 23 55  1  0
 25 56  1  0
 26 57  1  0
 27 58  1  0
 28 59  1  0
 30 60  1  0
 30 61  1  0
 33 62  1  0
 33 63  1  0
 33 64  1  0
 34 65  1  0
 35 66  1  0
 37 67  1  0
 38 68  1  0
M  CHG  2  19  -1  21   1
M  END
>  <Binding energies>  (1) 
[-7.87]

>  <Ligand effiencies>  (1) 
[-0.2017948717948718]

>  <Interactions>  (1) 
["V-B:GLU:543:CD:9880, V-A:ILE:369:CD1:3239, V-B:TYR:539:CE2:9848, V-B:ASP:366:CG:8185, V-A:LEU:475:CD2:4259, V-B:TYR:539:CD2:9846, V-B:ALA:541:CB:9864, V-A:GLU:543:CG:4907, V-B:TYR:484:CZ:9319, V-A:ILE:369:CG2:3237, V-A:ASP:366:CG:3213, V-A:ASP:366:CB:3212, H-A:ASP:366:OD2:3215, V-B:GLU:543:CG:9879, V-B:TYR:531:CZ:9766, V-A:TYR:484:CE1:4345, V-B:ASP:366:CB:8184, V-A:ALA:541:CB:4892, V-A:TYR:539:CE1:4875, V-B:TYR:531:CE1:9764, V-A:TYR:539:CZ:4877, V-B:ASP:366:C:8180, V-B:ASP:366:CA:8182, V-B:TYR:484:CE2:9318"]

$$$$
RR21_Rahimova_2017
     RDKit          3D

 62 67  0  0  0  0  0  0  0  0999 V2000
  132.4610  125.3970   57.0280 C   0  0  0  0  0  0  0  0  0  0  0  0
  131.3710  126.1370   56.4870 O   0  0  0  0  0  0  0  0  0  0  0  0
  130.4080  126.6430   57.3390 C   0  0  0  0  0  0  0  0  0  0  0  0
  130.5890  127.7730   58.1540 C   0  0  0  0  0  0  0  0  0  0  0  0
  129.5640  128.2210   58.9860 C   0  0  0  0  0  0  0  0  0  0  0  0
  128.3320  127.5570   59.0230 C   0  0  0  0  0  0  0  0  0  0  0  0
  127.2310  128.0430   59.9130 C   0  0  0  0  0  0  0  0  0  0  0  0
  126.9060  129.3210   59.9170 N   0  0  0  0  0  0  0  0  0  0  0  0
  125.9020  129.4620   60.7950 N   0  0  0  0  0  0  0  0  0  0  0  0
  125.2950  130.7220   61.0320 C   0  0  0  0  0  0  0  0  0  0  0  0
  125.5000  131.4030   62.2420 C   0  0  0  0  0  0  0  0  0  0  0  0
  124.9030  132.6410   62.4600 C   0  0  0  0  0  0  0  0  0  0  0  0
  124.0980  133.2030   61.4710 C   0  0  0  0  0  0  0  0  0  0  0  0
  123.8830  132.5370   60.2670 C   0  0  0  0  0  0  0  0  0  0  0  0
  124.4790  131.2980   60.0460 C   0  0  0  0  0  0  0  0  0  0  0  0
  125.5780  128.2460   61.3430 C   0  0  0  0  0  0  0  0  0  0  0  0
  126.4310  127.2930   60.8060 C   0  0  0  0  0  0  0  0  0  0  0  0
  126.4410  125.8580   61.0470 C   0  0  0  0  0  0  0  0  0  0  0  0
  127.5100  125.0380   61.1750 C   0  0  0  0  0  0  0  0  0  0  0  0
  129.2320  125.4660   61.0780 S   0  0  0  0  0  0  0  0  0  0  0  0
  129.6520  123.7890   61.3960 C   0  0  0  0  0  0  0  0  0  0  0  0
  130.8370  123.2720   61.5040 N   0  0  0  0  0  0  0  0  0  0  0  0
  131.0400  121.8920   61.7770 C   0  0  0  0  0  0  0  0  0  0  0  0
  132.1260  121.3300   61.9150 O   0  0  0  0  0  0  0  0  0  0  0  0
  129.7650  121.1040   61.9070 C   0  0  0  0  0  0  0  0  0  0  0  0
  129.8590  119.5980   62.1820 C   0  0  0  0  0  0  0  0  0  0  0  0
  130.3810  118.7750   61.0060 C   0  0  0  0  0  0  0  0  0  0  0  0
  131.4700  119.2330   60.2600 C   0  0  0  0  0  0  0  0  0  0  0  0
  131.9570  118.4740   59.1990 C   0  0  0  0  0  0  0  0  0  0  0  0
  131.3580  117.2540   58.8820 C   0  0  0  0  0  0  0  0  0  0  0  0
  131.9000  116.4250   57.7320 C   0  0  0  0  0  0  0  0  0  0  0  0
  130.2760  116.7880   59.6330 C   0  0  0  0  0  0  0  0  0  0  0  0
  129.7890  117.5470   60.6940 C   0  0  0  0  0  0  0  0  0  0  0  0
  128.5900  121.6320   61.7900 N   0  0  0  0  0  0  0  0  0  0  0  0
  128.5350  123.0070   61.5320 N   0  0  0  0  0  0  0  0  0  0  0  0
  127.3280  123.6140   61.4200 C   0  0  0  0  0  0  0  0  0  0  0  0
  126.2380  123.0380   61.5180 O   0  0  0  0  0  0  0  0  0  0  0  0
  128.1530  126.4280   58.2170 C   0  0  0  0  0  0  0  0  0  0  0  0
  129.1780  125.9780   57.3840 C   0  0  0  0  0  0  0  0  0  0  0  0
  128.9720  124.8830   56.6160 F   0  0  0  0  0  0  0  0  0  0  0  0
  132.4157  125.4278   58.1266 H   0  0  0  0  0  0  0  0  0  0  0  0
  132.4001  124.3528   56.6876 H   0  0  0  0  0  0  0  0  0  0  0  0
  133.4091  125.8389   56.6876 H   0  0  0  0  0  0  0  0  0  0  0  0
  131.5491  128.3096   58.1354 H   0  0  0  0  0  0  0  0  0  0  0  0
  129.7249  129.1054   59.6200 H   0  0  0  0  0  0  0  0  0  0  0  0
  126.1351  130.9563   63.0212 H   0  0  0  0  0  0  0  0  0  0  0  0
  125.0658  133.1735   63.4086 H   0  0  0  0  0  0  0  0  0  0  0  0
  123.6277  134.1824   61.6431 H   0  0  0  0  0  0  0  0  0  0  0  0
  123.2445  132.9881   59.4932 H   0  0  0  0  0  0  0  0  0  0  0  0
  124.3098  130.7694   59.0963 H   0  0  0  0  0  0  0  0  0  0  0  0
  124.7818  128.0599   62.0788 H   0  0  0  0  0  0  0  0  0  0  0  0
  125.4548  125.3791   61.1365 H   0  0  0  0  0  0  0  0  0  0  0  0
  130.5352  119.4455   63.0361 H   0  0  0  0  0  0  0  0  0  0  0  0
  128.8345  119.2497   62.3797 H   0  0  0  0  0  0  0  0  0  0  0  0
  131.9430  120.1939   60.5110 H   0  0  0  0  0  0  0  0  0  0  0  0
  132.8134  118.8358   58.6110 H   0  0  0  0  0  0  0  0  0  0  0  0
  132.4610  115.5670   58.1310 H   0  0  0  0  0  0  0  0  0  0  0  0
  131.0642  116.0621   57.1158 H   0  0  0  0  0  0  0  0  0  0  0  0
  132.5677  117.0451   57.1158 H   0  0  0  0  0  0  0  0  0  0  0  0
  129.8094  115.8228   59.3865 H   0  0  0  0  0  0  0  0  0  0  0  0
  128.9382  117.1805   61.2871 H   0  0  0  0  0  0  0  0  0  0  0  0
  127.1942  125.8893   58.2400 H   0  0  0  0  0  0  0  0  0  0  0  0
  1  2  1  0
  2  3  1  0
  3  4  2  0
  4  5  1  0
  5  6  2  0
  6  7  1  0
  7  8  2  0
  8  9  1  0
  9 10  1  0
 10 11  2  0
 11 12  1  0
 12 13  2  0
 13 14  1  0
 14 15  2  0
  9 16  1  0
 16 17  2  0
 17 18  1  0
 18 19  2  0
 19 20  1  0
 20 21  1  0
 21 22  2  0
 22 23  1  0
 23 24  2  0
 23 25  1  0
 25 26  1  0
 26 27  1  0
 27 28  2  0
 28 29  1  0
 29 30  2  0
 30 31  1  0
 30 32  1  0
 32 33  2  0
 25 34  2  0
 34 35  1  0
 35 36  1  0
 36 37  2  0
  6 38  1  0
 38 39  2  0
 39 40  1  0
 39  3  1  0
 17  7  1  0
 36 19  1  0
 15 10  1  0
 35 21  1  0
 33 27  1  0
  1 41  1  0
  1 42  1  0
  1 43  1  0
  4 44  1  0
  5 45  1  0
 11 46  1  0
 12 47  1  0
 13 48  1  0
 14 49  1  0
 15 50  1  0
 16 51  1  0
 18 52  1  0
 26 53  1  0
 26 54  1  0
 28 55  1  0
 29 56  1  0
 31 57  1  0
 31 58  1  0
 31 59  1  0
 32 60  1  0
 33 61  1  0
 38 62  1  0
M  END
>  <Binding energies>  (1) 
[-7.88]

>  <Ligand effiencies>  (1) 
[-0.197]

>  <Interactions>  (1) 
["V-B:TYR:539:C:9839, V-B:GLU:543:CD:9880, V-B:TYR:539:CE2:9848, H-B:ALA:541:N:9863, V-A:SER:385:CB:3409, V-B:ASP:366:CG:8185, V-A:HIS:383:CE1:3394, V-A:PRO:482:CG:4327, V-A:PRO:482:CB:4326, V-B:TYR:539:CB:9843, V-A:LEU:475:CD2:4259, H-A:TYR:484:OH:4348, V-B:TYR:539:CD2:9846, V-A:LEU:475:CD1:4258, V-A:LEU:475:CG:4257, V-B:ALA:541:CB:9864, V-A:LEU:373:CD1:3280, V-A:LEU:373:CD2:3281, V-B:ILE:369:CD1:8211, V-B:LEU:475:CD2:9231, V-B:GLY:454:CA:9021, V-A:ASP:366:CB:3212, V-B:TYR:539:CG:9844, V-A:TYR:484:CE1:4345, V-B:TYR:539:CZ:9849, V-B:MET:535:CE:9807, V-B:ILE:369:CB:8208, V-B:ILE:369:CG2:8209, H-B:TYR:539:OH:9850, V-A:LEU:373:CG:3279, V-B:ILE:343:CG2:7964"]

$$$$
RR22_Rahimova_2017
     RDKit          3D

 49 54  0  0  0  0  0  0  0  0999 V2000
  129.6540  129.1130   56.4030 O   0  0  0  0  0  0  0  0  0  0  0  0
  129.5320  128.0890   57.0710 C   0  0  0  0  0  0  0  0  0  0  0  0
  130.4100  127.5870   58.0160 N   0  0  0  0  0  0  0  0  0  0  0  0
  130.0870  126.4040   58.7540 C   0  0  1  0  0  0  0  0  0  0  0  0
  131.1810  125.5110   58.5280 O   0  0  0  0  0  0  0  0  0  0  0  0
  131.9120  125.0660   59.6300 C   0  0  0  0  0  0  0  0  0  0  0  0
  133.1650  124.5140   59.3640 C   0  0  0  0  0  0  0  0  0  0  0  0
  133.9370  124.0100   60.4110 C   0  0  0  0  0  0  0  0  0  0  0  0
  133.4530  124.0510   61.7190 C   0  0  0  0  0  0  0  0  0  0  0  0
  132.1980  124.6030   61.9850 C   0  0  0  0  0  0  0  0  0  0  0  0
  131.4240  125.1340   60.9490 C   0  0  0  0  0  0  0  0  0  0  0  0
  130.0380  125.7130   61.1270 C   0  0  1  0  0  0  0  0  0  0  0  0
  129.6110  126.4310   62.3910 C   0  0  0  0  0  0  0  0  0  0  0  0
  128.5880  127.4080   61.8040 C   0  0  0  0  0  0  0  0  0  0  0  0
  127.5750  128.0950   62.6300 C   0  0  0  0  0  0  0  0  0  0  0  0
  126.3400  128.4670   62.0800 C   0  0  0  0  0  0  0  0  0  0  0  0
  125.3880  129.1130   62.8640 C   0  0  0  0  0  0  0  0  0  0  0  0
  125.6640  129.3910   64.1990 C   0  0  0  0  0  0  0  0  0  0  0  0
  126.8850  129.0270   64.7600 C   0  0  0  0  0  0  0  0  0  0  0  0
  127.8380  128.3800   63.9790 C   0  0  0  0  0  0  0  0  0  0  0  0
  128.7570  127.5510   60.5430 N   0  0  0  0  0  0  0  0  0  0  0  0
  129.8500  126.7550   60.1630 N   0  0  0  0  0  0  0  0  0  0  0  0
  128.8660  125.7930   58.0840 C   0  0  0  0  0  0  0  0  0  0  0  0
  128.4800  124.5100   58.2830 C   0  0  0  0  0  0  0  0  0  0  0  0
  127.3160  123.8010   57.7170 C   0  0  0  0  0  0  0  0  0  0  0  0
  125.9900  124.1320   58.0310 C   0  0  0  0  0  0  0  0  0  0  0  0
  124.9380  123.4160   57.4570 C   0  0  0  0  0  0  0  0  0  0  0  0
  125.2430  122.3740   56.5810 C   0  0  0  0  0  0  0  0  0  0  0  0
  126.5150  122.0270   56.2660 N   0  0  0  0  0  0  0  0  0  0  0  0
  127.5250  122.7360   56.8330 C   0  0  0  0  0  0  0  0  0  0  0  0
  128.1200  126.9470   56.9690 S   0  0  0  0  0  0  0  0  0  0  0  0
  131.3070  128.0200   58.1690 H   0  0  0  0  0  0  0  0  0  0  0  0
  133.5433  124.4762   58.3318 H   0  0  0  0  0  0  0  0  0  0  0  0
  134.9283  123.5799   60.2052 H   0  0  0  0  0  0  0  0  0  0  0  0
  134.0610  123.6478   62.5422 H   0  0  0  0  0  0  0  0  0  0  0  0
  131.8161  124.6201   63.0164 H   0  0  0  0  0  0  0  0  0  0  0  0
  129.4626  124.7768   61.0774 H   0  0  0  0  0  0  0  0  0  0  0  0
  129.1507  125.7437   63.1161 H   0  0  0  0  0  0  0  0  0  0  0  0
  130.4287  126.8993   62.9585 H   0  0  0  0  0  0  0  0  0  0  0  0
  126.1224  128.2474   61.0243 H   0  0  0  0  0  0  0  0  0  0  0  0
  124.4201  129.4029   62.4291 H   0  0  0  0  0  0  0  0  0  0  0  0
  124.9111  129.9027   64.8164 H   0  0  0  0  0  0  0  0  0  0  0  0
  127.0957  129.2499   65.8164 H   0  0  0  0  0  0  0  0  0  0  0  0
  128.8026  128.0904   64.4213 H   0  0  0  0  0  0  0  0  0  0  0  0
  129.1186  123.9183   58.9554 H   0  0  0  0  0  0  0  0  0  0  0  0
  125.7789  124.9554   58.7292 H   0  0  0  0  0  0  0  0  0  0  0  0
  123.8928  123.6676   57.6900 H   0  0  0  0  0  0  0  0  0  0  0  0
  124.4156  121.8096   56.1262 H   0  0  0  0  0  0  0  0  0  0  0  0
  128.5603  122.4592   56.5849 H   0  0  0  0  0  0  0  0  0  0  0  0
  1  2  2  0
  2  3  1  0
  3  4  1  0
  4  5  1  1
  5  6  1  0
  6  7  2  0
  7  8  1  0
  8  9  2  0
  9 10  1  0
 10 11  2  0
 11 12  1  0
 12 13  1  0
 13 14  1  0
 14 15  1  0
 15 16  2  0
 16 17  1  0
 17 18  2  0
 18 19  1  0
 19 20  2  0
 14 21  2  0
 21 22  1  0
  4 23  1  0
 23 24  2  0
 24 25  1  0
 25 26  2  0
 26 27  1  0
 27 28  2  0
 28 29  1  0
 29 30  2  0
 23 31  1  0
 31  2  1  0
 22  4  1  0
 30 25  1  0
 11  6  1  0
 22 12  1  0
 20 15  1  0
  3 32  1  0
  7 33  1  0
  8 34  1  0
  9 35  1  0
 10 36  1  0
 12 37  1  6
 13 38  1  0
 13 39  1  0
 16 40  1  0
 17 41  1  0
 18 42  1  0
 19 43  1  0
 20 44  1  0
 24 45  1  0
 26 46  1  0
 27 47  1  0
 28 48  1  0
 30 49  1  0
M  END
>  <Binding energies>  (1) 
[-8.26]

>  <Ligand effiencies>  (1) 
[-0.258125]

>  <Interactions>  (1) 
["V-B:PRO:540:CD:9859, V-B:LEU:363:CD1:8161, V-B:PRO:540:CB:9857, V-B:TYR:539:C:9839, V-B:PRO:540:CG:9858, V-B:PRO:540:N:9856, V-B:GLU:543:CD:9880, V-A:ILE:369:CD1:3239, V-B:TYR:539:CE2:9848, V-B:ILE:538:CG2:9835, V-B:TYR:539:CD2:9846, V-B:ARG:545:CZ:9898, V-A:GLU:543:CD:4908, V-A:ILE:369:CG2:3237, V-A:ASP:366:CG:3213, V-A:ASP:366:CB:3212, H-A:ASP:366:OD1:3214, V-A:ASP:366:CA:3210, V-B:TYR:539:CG:9844, H-B:TYR:531:OH:9767, V-B:TYR:539:CZ:9849, V-B:TYR:539:CE1:9847, V-B:TYR:539:CD1:9845, H-B:TYR:539:N:9842, H-A:TYR:531:OH:4795"]

$$$$
RR23_Rahimova_2017
     RDKit          3D

 65 70  0  0  0  0  0  0  0  0999 V2000
  124.6160  129.3700   65.6100 C   0  0  0  0  0  0  0  0  0  0  0  0
  124.9960  129.7420   64.1890 C   0  0  0  0  0  0  0  0  0  0  0  0
  124.0020  129.9750   63.2380 C   0  0  0  0  0  0  0  0  0  0  0  0
  124.3510  130.3250   61.9360 C   0  0  0  0  0  0  0  0  0  0  0  0
  125.6980  130.4350   61.5720 C   0  0  0  0  0  0  0  0  0  0  0  0
  126.0560  130.8370   60.1590 C   0  0  0  0  0  0  0  0  0  0  0  0
  126.4720  131.9840   59.9800 O   0  0  0  0  0  0  0  0  0  0  0  0
  125.9240  129.9260   59.1490 N   0  0  0  0  0  0  0  0  0  0  0  0
  125.9860  130.3310   57.7350 C   0  0  0  0  0  0  0  0  0  0  0  0
  125.9490  129.0470   56.9220 C   0  0  0  0  0  0  0  0  0  0  0  0
  126.2500  127.9950   57.9460 C   0  0  0  0  0  0  0  0  0  0  0  0
  126.4360  126.6230   57.7680 C   0  0  0  0  0  0  0  0  0  0  0  0
  126.5500  125.7730   58.8780 C   0  0  0  0  0  0  0  0  0  0  0  0
  126.7560  124.2580   58.7280 C   0  0  2  0  0  0  0  0  0  0  0  0
  127.2840  123.6560   59.9330 N   0  0  0  0  0  0  0  0  0  0  0  0
  128.0350  122.6620   59.6760 C   0  0  0  0  0  0  0  0  0  0  0  0
  128.7190  121.8790   60.5530 N   0  0  0  0  0  0  0  0  0  0  0  0
  128.8770  122.0490   61.8880 C   0  0  0  0  0  0  0  0  0  0  0  0
  128.3750  122.9540   62.5590 O   0  0  0  0  0  0  0  0  0  0  0  0
  129.7670  121.0090   62.5880 C   0  0  0  0  0  0  0  0  0  0  0  0
  129.9860  119.8660   61.6740 N   0  0  0  0  0  0  0  0  0  0  0  0
  129.1120  118.7980   61.8340 N   0  0  0  0  0  0  0  0  0  0  0  0
  129.1990  117.7370   61.0980 N   0  0  0  0  0  0  0  0  0  0  0  0
  130.1890  117.6520   60.1150 C   0  0  0  0  0  0  0  0  0  0  0  0
  130.2560  116.4930   59.3390 C   0  0  0  0  0  0  0  0  0  0  0  0
  131.2340  116.3790   58.3490 C   0  0  0  0  0  0  0  0  0  0  0  0
  132.1420  117.4180   58.1360 C   0  0  0  0  0  0  0  0  0  0  0  0
  132.0770  118.5780   58.9110 C   0  0  0  0  0  0  0  0  0  0  0  0
  131.0950  118.6930   59.9020 C   0  0  0  0  0  0  0  0  0  0  0  0
  131.0090  119.9370   60.7540 C   0  0  0  0  0  0  0  0  0  0  0  0
  131.7760  120.8990   60.6440 O   0  0  0  0  0  0  0  0  0  0  0  0
  128.2490  122.2310   57.9550 S   0  0  0  0  0  0  0  0  0  0  0  0
  127.6010  123.8500   57.4990 C   0  0  2  0  0  0  0  0  0  0  0  0
  128.7790  124.7760   57.1300 C   0  0  0  0  0  0  0  0  0  0  0  0
  126.4270  126.3180   60.1620 C   0  0  0  0  0  0  0  0  0  0  0  0
  126.2200  127.6870   60.3400 C   0  0  0  0  0  0  0  0  0  0  0  0
  126.1870  128.5400   59.2290 C   0  0  0  0  0  0  0  0  0  0  0  0
  126.6910  130.2270   62.5390 C   0  0  0  0  0  0  0  0  0  0  0  0
  126.3410  129.8780   63.8400 C   0  0  0  0  0  0  0  0  0  0  0  0
  125.2183  129.9596   66.3169 H   0  0  0  0  0  0  0  0  0  0  0  0
  123.5488  129.5822   65.7717 H   0  0  0  0  0  0  0  0  0  0  0  0
  124.8054  128.2986   65.7717 H   0  0  0  0  0  0  0  0  0  0  0  0
  122.9420  129.8822   63.5168 H   0  0  0  0  0  0  0  0  0  0  0  0
  123.5648  130.5158   61.1906 H   0  0  0  0  0  0  0  0  0  0  0  0
  125.1245  130.9667   57.4826 H   0  0  0  0  0  0  0  0  0  0  0  0
  126.8963  130.9116   57.5247 H   0  0  0  0  0  0  0  0  0  0  0  0
  124.9568  128.8907   56.4736 H   0  0  0  0  0  0  0  0  0  0  0  0
  126.6541  129.0464   56.0777 H   0  0  0  0  0  0  0  0  0  0  0  0
  126.4935  126.2061   56.7517 H   0  0  0  0  0  0  0  0  0  0  0  0
  125.7458  123.8601   58.5517 H   0  0  0  0  0  0  0  0  0  0  0  0
  129.2110  121.0940   60.1530 H   0  0  0  0  0  0  0  0  0  0  0  0
  130.7342  121.4654   62.8455 H   0  0  0  0  0  0  0  0  0  0  0  0
  129.2754  120.6593   63.5078 H   0  0  0  0  0  0  0  0  0  0  0  0
  129.5416  115.6736   59.5069 H   0  0  0  0  0  0  0  0  0  0  0  0
  131.2893  115.4679   57.7351 H   0  0  0  0  0  0  0  0  0  0  0  0
  132.9110  117.3226   57.3553 H   0  0  0  0  0  0  0  0  0  0  0  0
  132.7930  119.3962   58.7437 H   0  0  0  0  0  0  0  0  0  0  0  0
  126.9629  123.8879   56.6038 H   0  0  0  0  0  0  0  0  0  0  0  0
  129.2539  125.1493   58.0493 H   0  0  0  0  0  0  0  0  0  0  0  0
  129.5165  124.2133   56.5388 H   0  0  0  0  0  0  0  0  0  0  0  0
  128.4064  125.6255   56.5388 H   0  0  0  0  0  0  0  0  0  0  0  0
  126.4943  125.6597   61.0407 H   0  0  0  0  0  0  0  0  0  0  0  0
  126.0829  128.0958   61.3520 H   0  0  0  0  0  0  0  0  0  0  0  0
  127.7512  130.3401   62.2686 H   0  0  0  0  0  0  0  0  0  0  0  0
  127.1243  129.7092   64.5936 H   0  0  0  0  0  0  0  0  0  0  0  0
  1  2  1  0
  2  3  2  0
  3  4  1  0
  4  5  2  0
  5  6  1  0
  6  7  2  0
  6  8  1  0
  8  9  1  0
  9 10  1  0
 10 11  1  0
 11 12  2  0
 12 13  1  0
 13 14  1  0
 14 15  1  0
 15 16  2  0
 16 17  1  0
 17 18  1  0
 18 19  2  0
 18 20  1  0
 20 21  1  0
 21 22  1  0
 22 23  2  0
 23 24  1  0
 24 25  2  0
 25 26  1  0
 26 27  2  0
 27 28  1  0
 28 29  2  0
 29 30  1  0
 30 31  2  0
 16 32  1  0
 32 33  1  0
 33 34  1  0
 13 35  2  0
 35 36  1  0
 36 37  2  0
  5 38  1  0
 38 39  2  0
 39  2  1  0
 37  8  1  0
 37 11  1  0
 33 14  1  0
 30 21  1  0
 29 24  1  0
  1 40  1  0
  1 41  1  0
  1 42  1  0
  3 43  1  0
  4 44  1  0
  9 45  1  0
  9 46  1  0
 10 47  1  0
 10 48  1  0
 12 49  1  0
 14 50  1  6
 17 51  1  0
 20 52  1  0
 20 53  1  0
 25 54  1  0
 26 55  1  0
 27 56  1  0
 28 57  1  0
 33 58  1  6
 34 59  1  0
 34 60  1  0
 34 61  1  0
 35 62  1  0
 36 63  1  0
 38 64  1  0
 39 65  1  0
M  END
>  <Binding energies>  (1) 
[-9.11]

>  <Ligand effiencies>  (1) 
[-0.22774999999999998]

>  <Interactions>  (1) 
["V-B:TYR:539:C:9839, V-B:PRO:540:CA:9855, V-B:PRO:540:N:9856, V-A:TYR:484:CZ:4347, V-B:TYR:539:CE2:9848, H-B:ALA:541:N:9863, H-B:TYR:539:O:9840, V-A:SER:385:CB:3409, V-B:VAL:344:CG1:7973, V-B:ASP:366:CG:8185, V-A:HIS:383:CE1:3394, V-A:PRO:482:CG:4327, V-A:PRO:482:CB:4326, V-B:TYR:539:CB:9843, V-A:LEU:475:CD2:4259, H-A:TYR:484:OH:4348, V-B:TYR:539:CD2:9846, V-A:LEU:475:CD1:4258, V-B:ALA:541:CB:9864, V-A:LEU:373:CD1:3280, V-A:LEU:373:CD2:3281, V-B:ARG:545:CZ:9898, V-B:GLY:453:C:9014, V-B:TYR:484:CZ:9319, V-B:TYR:531:CZ:9766, V-B:TYR:539:CG:9844, V-A:TYR:484:CE1:4345, V-B:TYR:539:CZ:9849, V-B:MET:535:CE:9807, V-B:ARG:545:CD:9895, V-A:TYR:539:CE1:4875, V-B:TYR:531:CE1:9764, V-B:GLY:453:CA:9016, V-A:LEU:373:CG:3279, V-B:ILE:343:CG2:7964"]

$$$$
RR24_Rahimova_2017
     RDKit          3D

 65 71  0  0  0  0  0  0  0  0999 V2000
  127.1050  132.7240   60.2650 C   0  0  0  0  0  0  0  0  0  0  0  0
  127.3360  132.1490   58.8600 C   0  0  2  0  0  0  0  0  0  0  0  0
  126.4520  130.9040   58.5530 C   0  0  0  0  0  0  0  0  0  0  0  0
  125.3650  130.7190   59.1100 O   0  0  0  0  0  0  0  0  0  0  0  0
  127.0290  130.0640   57.6440 O   0  0  0  0  0  0  0  0  0  0  0  0
  127.3210  128.7690   58.0060 C   0  0  0  0  0  0  0  0  0  0  0  0
  126.5960  127.7200   57.4370 C   0  0  0  0  0  0  0  0  0  0  0  0
  126.8890  126.4050   57.7880 C   0  0  0  0  0  0  0  0  0  0  0  0
  127.9110  126.1320   58.7010 C   0  0  0  0  0  0  0  0  0  0  0  0
  128.2160  124.6830   59.0980 C   0  0  1  0  0  0  0  0  0  0  0  0
  129.6810  124.5070   59.5640 C   0  0  0  0  0  0  0  0  0  0  0  0
  130.0090  123.9070   60.7220 C   0  0  0  0  0  0  0  0  0  0  0  0
  129.0620  123.4060   61.5810 N   0  0  0  0  0  0  0  0  0  0  0  0
  127.7200  123.4950   61.2970 C   0  0  0  0  0  0  0  0  0  0  0  0
  126.9170  122.9440   62.2430 N   0  0  0  0  0  0  0  0  0  0  0  0
  125.5590  123.0070   62.1710 C   0  0  0  0  0  0  0  0  0  0  0  0
  124.8920  122.7850   63.1830 O   0  0  0  0  0  0  0  0  0  0  0  0
  125.0780  123.4900   60.9640 N   0  0  0  0  0  0  0  0  0  0  0  0
  123.6100  123.4940   60.8000 C   0  0  0  0  0  0  0  0  0  0  0  0
  125.8030  124.0720   59.9380 C   0  0  0  0  0  0  0  0  0  0  0  0
  125.3000  124.5300   58.9080 O   0  0  0  0  0  0  0  0  0  0  0  0
  127.2520  124.0820   60.1640 C   0  0  0  0  0  0  0  0  0  0  0  0
  131.4510  123.8830   60.9020 C   0  0  0  0  0  0  0  0  0  0  0  0
  132.2760  123.3910   61.9140 C   0  0  0  0  0  0  0  0  0  0  0  0
  133.6610  123.5240   61.7900 C   0  0  0  0  0  0  0  0  0  0  0  0
  134.2110  124.1420   60.6630 C   0  0  0  0  0  0  0  0  0  0  0  0
  133.3800  124.6330   59.6520 C   0  0  0  0  0  0  0  0  0  0  0  0
  131.9960  124.4980   59.7830 C   0  0  0  0  0  0  0  0  0  0  0  0
  130.9030  124.9170   58.8800 C   0  0  0  0  0  0  0  0  0  0  0  0
  130.9560  125.4840   57.7900 O   0  0  0  0  0  0  0  0  0  0  0  0
  128.6480  127.1850   59.2550 C   0  0  0  0  0  0  0  0  0  0  0  0
  128.3580  128.5000   58.9030 C   0  0  0  0  0  0  0  0  0  0  0  0
  128.7830  131.9000   58.5860 N   0  0  0  0  0  0  0  0  0  0  0  0
  129.3270  132.1330   57.3590 C   0  0  0  0  0  0  0  0  0  0  0  0
  128.7500  132.5470   56.3520 O   0  0  0  0  0  0  0  0  0  0  0  0
  130.7620  131.7810   57.4900 C   0  0  0  0  0  0  0  0  0  0  0  0
  131.8010  131.8190   56.5580 C   0  0  0  0  0  0  0  0  0  0  0  0
  133.0810  131.4260   56.9670 C   0  0  0  0  0  0  0  0  0  0  0  0
  133.3040  131.0080   58.2850 C   0  0  0  0  0  0  0  0  0  0  0  0
  132.2500  130.9780   59.2040 C   0  0  0  0  0  0  0  0  0  0  0  0
  130.9810  131.3720   58.7780 C   0  0  0  0  0  0  0  0  0  0  0  0
  129.6900  131.4500   59.5060 C   0  0  0  0  0  0  0  0  0  0  0  0
  129.4830  131.1720   60.6880 O   0  0  0  0  0  0  0  0  0  0  0  0
  127.4036  131.9808   61.0190 H   0  0  0  0  0  0  0  0  0  0  0  0
  127.7064  133.6364   60.3912 H   0  0  0  0  0  0  0  0  0  0  0  0
  126.0396  132.9667   60.3912 H   0  0  0  0  0  0  0  0  0  0  0  0
  127.0059  132.9277   58.1566 H   0  0  0  0  0  0  0  0  0  0  0  0
  125.7953  127.9321   56.7132 H   0  0  0  0  0  0  0  0  0  0  0  0
  126.3141  125.5783   57.3452 H   0  0  0  0  0  0  0  0  0  0  0  0
  128.0514  124.1143   58.1709 H   0  0  0  0  0  0  0  0  0  0  0  0
  129.3540  122.9600   62.4400 H   0  0  0  0  0  0  0  0  0  0  0  0
  127.3100  122.4880   63.0530 H   0  0  0  0  0  0  0  0  0  0  0  0
  123.1305  123.4953   61.7900 H   0  0  0  0  0  0  0  0  0  0  0  0
  123.3056  124.3930   60.2440 H   0  0  0  0  0  0  0  0  0  0  0  0
  123.3007  122.5967   60.2440 H   0  0  0  0  0  0  0  0  0  0  0  0
  131.8408  122.9041   62.7992 H   0  0  0  0  0  0  0  0  0  0  0  0
  134.3213  123.1411   62.5820 H   0  0  0  0  0  0  0  0  0  0  0  0
  135.3026  124.2423   60.5715 H   0  0  0  0  0  0  0  0  0  0  0  0
  133.8106  125.1196   58.7644 H   0  0  0  0  0  0  0  0  0  0  0  0
  129.4572  126.9731   59.9693 H   0  0  0  0  0  0  0  0  0  0  0  0
  128.9445  129.3266   59.3305 H   0  0  0  0  0  0  0  0  0  0  0  0
  131.6179  132.1504   55.5252 H   0  0  0  0  0  0  0  0  0  0  0  0
  133.9151  131.4456   56.2501 H   0  0  0  0  0  0  0  0  0  0  0  0
  134.3128  130.7018   58.5989 H   0  0  0  0  0  0  0  0  0  0  0  0
  132.4179  130.6507   60.2407 H   0  0  0  0  0  0  0  0  0  0  0  0
  1  2  1  0
  2  3  1  0
  3  4  2  0
  3  5  1  0
  5  6  1  0
  6  7  2  0
  7  8  1  0
  8  9  2  0
  9 10  1  0
 10 11  1  0
 11 12  2  0
 12 13  1  0
 13 14  1  0
 14 15  1  0
 15 16  1  0
 16 17  2  0
 16 18  1  0
 18 19  1  0
 18 20  1  0
 20 21  2  0
 20 22  1  0
 12 23  1  0
 23 24  2  0
 24 25  1  0
 25 26  2  0
 26 27  1  0
 27 28  2  0
 28 29  1  0
 29 30  2  0
  9 31  1  0
 31 32  2  0
  2 33  1  0
 33 34  1  0
 34 35  2  0
 34 36  1  0
 36 37  2  0
 37 38  1  0
 38 39  2  0
 39 40  1  0
 40 41  2  0
 41 42  1  0
 42 43  2  0
 32  6  1  0
 42 33  1  0
 22 10  1  0
 28 23  1  0
 41 36  1  0
 29 11  1  0
 22 14  2  0
  1 44  1  0
  1 45  1  0
  1 46  1  0
  2 47  1  6
  7 48  1  0
  8 49  1  0
 10 50  1  6
 13 51  1  0
 15 52  1  0
 19 53  1  0
 19 54  1  0
 19 55  1  0
 24 56  1  0
 25 57  1  0
 26 58  1  0
 27 59  1  0
 31 60  1  0
 32 61  1  0
 37 62  1  0
 38 63  1  0
 39 64  1  0
 40 65  1  0
M  END
>  <Binding energies>  (1) 
[-9.03]

>  <Ligand effiencies>  (1) 
[-0.20066666666666666]

>  <Interactions>  (1) 
["V-B:PRO:540:CB:9857, V-B:PRO:540:CA:9855, V-B:GLU:543:CD:9880, V-A:ILE:369:CD1:3239, V-B:TYR:539:CE2:9848, V-B:PRO:540:C:9853, H-B:ALA:541:N:9863, V-B:ASP:366:CG:8185, H-A:TYR:484:OH:4348, V-B:ALA:541:CB:9864, V-A:GLY:454:CA:4049, V-A:ILE:369:CG2:3237, V-A:ASP:366:CG:3213, V-A:ASP:366:CB:3212, V-A:ASP:366:CA:3210, H-B:GLU:543:OE1:9881, V-B:GLU:543:CG:9879, H-B:TYR:531:OH:9767, H-B:ARG:545:NH2:9900, V-A:PRO:540:CA:4883, V-A:PRO:540:CB:4885, V-A:PRO:540:N:4884, V-B:ASN:362:CB:8148, V-A:LEU:363:CD1:3189, V-A:LEU:363:CA:3185, V-A:TYR:539:CD1:4873, V-A:TYR:539:C:4867, H-A:TYR:539:N:4870, V-A:TYR:539:CE1:4875, H-B:ASN:362:ND2:8151, H-B:TYR:539:OH:9850, V-B:LEU:363:CA:8157, V-B:ASN:362:C:8144"]

$$$$
RR24_Rahimova_2017-again1
     RDKit          3D

 63 69  0  0  0  0  0  0  0  0999 V2000
  124.2450  123.5330   59.0900 C   0  0  0  0  0  0  0  0  0  0  0  0
  125.6680  123.6720   58.5330 C   0  0  2  0  0  0  0  0  0  0  0  0
  125.8230  123.1080   57.0900 C   0  0  0  0  0  0  0  0  0  0  0  0
  125.3530  122.0130   56.7610 O   0  0  0  0  0  0  0  0  0  0  0  0
  126.5420  123.9360   56.2760 O   0  0  0  0  0  0  0  0  0  0  0  0
  127.6160  124.6270   56.7860 C   0  0  0  0  0  0  0  0  0  0  0  0
  128.8990  124.3560   56.3070 C   0  0  0  0  0  0  0  0  0  0  0  0
  129.9900  125.0640   56.8040 C   0  0  0  0  0  0  0  0  0  0  0  0
  129.8030  126.0530   57.7760 C   0  0  0  0  0  0  0  0  0  0  0  0
  131.0020  126.8370   58.3270 C   0  0  1  0  0  0  0  0  0  0  0  0
  130.5930  128.2670   58.7510 C   0  0  0  0  0  0  0  0  0  0  0  0
  130.1240  129.3230   58.0500 C   0  0  0  0  0  0  0  0  0  0  0  0
  129.9490  129.3430   56.7730 O   0  0  0  0  0  0  0  0  0  0  0  0
  129.8150  130.4330   58.9520 C   0  0  0  0  0  0  0  0  0  0  0  0
  129.3030  131.7170   58.7280 C   0  0  0  0  0  0  0  0  0  0  0  0
  129.1020  132.5770   59.8090 C   0  0  0  0  0  0  0  0  0  0  0  0
  129.4130  132.1570   61.1040 C   0  0  0  0  0  0  0  0  0  0  0  0
  129.9250  130.8770   61.3220 C   0  0  0  0  0  0  0  0  0  0  0  0
  130.1210  130.0160   60.2390 C   0  0  0  0  0  0  0  0  0  0  0  0
  130.6420  128.6640   60.1480 C   0  0  0  0  0  0  0  0  0  0  0  0
  131.0920  127.8930   61.0660 N   0  0  0  0  0  0  0  0  0  0  0  0
  131.6590  126.6880   60.7730 C   0  0  0  0  0  0  0  0  0  0  0  0
  132.2260  126.0850   61.8580 N   0  0  0  0  0  0  0  0  0  0  0  0
  132.7800  124.9330   61.7220 C   0  0  0  0  0  0  0  0  0  0  0  0
  133.2570  124.4790   62.7750 O   0  0  0  0  0  0  0  0  0  0  0  0
  132.8340  124.2720   60.4950 N   0  0  0  0  0  0  0  0  0  0  0  0
  133.4630  122.9430   60.3070 C   0  0  0  0  0  0  0  0  0  0  0  0
  132.3030  124.8130   59.3410 C   0  0  0  0  0  0  0  0  0  0  0  0
  132.3500  124.2720   58.2310 O   0  0  0  0  0  0  0  0  0  0  0  0
  131.6650  126.1200   59.5260 C   0  0  0  0  0  0  0  0  0  0  0  0
  128.5140  126.3300   58.2440 C   0  0  0  0  0  0  0  0  0  0  0  0
  127.4240  125.6240   57.7470 C   0  0  0  0  0  0  0  0  0  0  0  0
  126.6920  123.1240   59.4690 N   0  0  0  0  0  0  0  0  0  0  0  0
  127.8040  122.4810   59.0130 C   0  0  0  0  0  0  0  0  0  0  0  0
  128.1160  122.2630   57.8410 O   0  0  0  0  0  0  0  0  0  0  0  0
  128.5640  122.0960   60.2290 C   0  0  0  0  0  0  0  0  0  0  0  0
  129.7740  121.4140   60.3730 C   0  0  0  0  0  0  0  0  0  0  0  0
  130.2630  121.1850   61.6640 C   0  0  0  0  0  0  0  0  0  0  0  0
  129.5480  121.6360   62.7810 C   0  0  0  0  0  0  0  0  0  0  0  0
  128.3380  122.3190   62.6160 C   0  0  0  0  0  0  0  0  0  0  0  0
  127.8660  122.5360   61.3200 C   0  0  0  0  0  0  0  0  0  0  0  0
  126.6400  123.2170   60.8330 C   0  0  0  0  0  0  0  0  0  0  0  0
  125.7650  123.7530   61.5130 O   0  0  0  0  0  0  0  0  0  0  0  0
  124.2796  123.5364   60.1894 H   0  0  0  0  0  0  0  0  0  0  0  0
  123.6303  124.3754   58.7399 H   0  0  0  0  0  0  0  0  0  0  0  0
  123.8049  122.5876   58.7399 H   0  0  0  0  0  0  0  0  0  0  0  0
  125.8542  124.7529   58.4490 H   0  0  0  0  0  0  0  0  0  0  0  0
  129.0478  123.5839   55.5377 H   0  0  0  0  0  0  0  0  0  0  0  0
  131.0016  124.8453   56.4315 H   0  0  0  0  0  0  0  0  0  0  0  0
  131.7338  126.8961   57.5078 H   0  0  0  0  0  0  0  0  0  0  0  0
  129.0607  132.0458   57.7066 H   0  0  0  0  0  0  0  0  0  0  0  0
  128.6983  133.5863   59.6406 H   0  0  0  0  0  0  0  0  0  0  0  0
  129.2541  132.8366   61.9543 H   0  0  0  0  0  0  0  0  0  0  0  0
  130.1731  130.5475   62.3417 H   0  0  0  0  0  0  0  0  0  0  0  0
  133.6749  122.4954   61.2892 H   0  0  0  0  0  0  0  0  0  0  0  0
  132.7786  122.2895   59.7461 H   0  0  0  0  0  0  0  0  0  0  0  0
  134.4023  123.0579   59.7461 H   0  0  0  0  0  0  0  0  0  0  0  0
  128.3625  127.1080   59.0068 H   0  0  0  0  0  0  0  0  0  0  0  0
  126.4105  125.8500   58.1100 H   0  0  0  0  0  0  0  0  0  0  0  0
  130.3306  121.0644   59.4909 H   0  0  0  0  0  0  0  0  0  0  0  0
  131.2132  120.6484   61.8023 H   0  0  0  0  0  0  0  0  0  0  0  0
  129.9396  121.4524   63.7924 H   0  0  0  0  0  0  0  0  0  0  0  0
  127.7711  122.6771   63.4880 H   0  0  0  0  0  0  0  0  0  0  0  0
  1  2  1  0
  2  3  1  0
  3  4  2  0
  3  5  1  0
  5  6  1  0
  6  7  2  0
  7  8  1  0
  8  9  2  0
  9 10  1  0
 10 11  1  0
 11 12  2  0
 12 13  1  0
 12 14  1  0
 14 15  2  0
 15 16  1  0
 16 17  2  0
 17 18  1  0
 18 19  2  0
 19 20  1  0
 20 21  2  0
 21 22  1  0
 22 23  1  0
 23 24  2  0
 24 25  1  0
 24 26  1  0
 26 27  1  0
 26 28  1  0
 28 29  2  0
 28 30  1  0
  9 31  1  0
 31 32  2  0
  2 33  1  0
 33 34  1  0
 34 35  2  0
 34 36  1  0
 36 37  2  0
 37 38  1  0
 38 39  2  0
 39 40  1  0
 40 41  2  0
 41 42  1  0
 42 43  2  0
 32  6  1  0
 42 33  1  0
 30 10  1  0
 41 36  1  0
 20 11  1  0
 30 22  2  0
 19 14  1  0
  1 44  1  0
  1 45  1  0
  1 46  1  0
  2 47  1  6
  7 48  1  0
  8 49  1  0
 10 50  1  6
 15 51  1  0
 16 52  1  0
 17 53  1  0
 18 54  1  0
 27 55  1  0
 27 56  1  0
 27 57  1  0
 31 58  1  0
 32 59  1  0
 37 60  1  0
 38 61  1  0
 39 62  1  0
 40 63  1  0
M  CHG  2  13  -1  25  -1
M  END
>  <Binding energies>  (1) 
[-7.68]

>  <Ligand effiencies>  (1) 
[-0.1786046511627907]

>  <Interactions>  (1) 
["V-B:PRO:540:CB:9857, V-B:TYR:539:C:9839, V-B:PRO:540:CA:9855, V-B:PRO:540:CG:9858, V-B:PRO:540:N:9856, V-B:GLU:543:CD:9880, V-A:ILE:369:CD1:3239, V-A:TYR:484:CZ:4347, V-B:TYR:539:CE2:9848, V-B:PRO:540:C:9853, V-B:ASP:366:CG:8185, V-A:LEU:475:CD2:4259, H-A:TYR:484:OH:4348, V-B:ALA:541:CA:9862, V-B:TYR:539:CD2:9846, V-B:ALA:541:CB:9864, V-A:GLU:543:CD:4908, H-A:GLY:454:N:4050, V-A:ILE:369:CG2:3237, H-A:ARG:545:NH2:4928, V-A:ASP:366:CG:3213, V-A:ASP:366:CB:3212, V-B:GLU:543:CG:9879, V-A:TYR:484:CE1:4345, H-B:TYR:531:OH:9767, V-B:TYR:539:CZ:9849, V-B:TYR:539:CE1:9847, V-B:MET:535:CE:9807, H-B:ARG:545:NH2:9900, V-A:PRO:540:CA:4883, V-A:PRO:540:N:4884, V-A:PRO:540:C:4881, H-B:TYR:539:N:9842, V-A:ALA:541:CB:4892, H-A:TYR:531:OH:4795, V-A:TYR:539:C:4867, H-B:TYR:539:OH:9850, V-B:LEU:363:CA:8157"]

$$$$
RR25_Rahimova_2017
     RDKit          3D

 63 68  0  0  0  0  0  0  0  0999 V2000
  132.7120  123.8000   60.9510 O   0  0  0  0  0  0  0  0  0  0  0  0
  131.4930  123.8600   60.7850 C   0  0  0  0  0  0  0  0  0  0  0  0
  130.7470  122.8970   61.4180 O   0  0  0  0  0  0  0  0  0  0  0  0
  129.3710  122.9980   61.5170 C   0  0  0  0  0  0  0  0  0  0  0  0
  128.7690  122.3390   62.5870 C   0  0  0  0  0  0  0  0  0  0  0  0
  127.3860  122.3930   62.7430 C   0  0  0  0  0  0  0  0  0  0  0  0
  126.5860  123.1000   61.8330 C   0  0  0  0  0  0  0  0  0  0  0  0
  125.1140  123.1620   62.0060 N   0  0  0  0  0  0  0  0  0  0  0  0
  124.6280  122.7560   63.0590 O   0  0  0  0  0  0  0  0  0  0  0  0
  124.4340  123.6160   61.0910 O   0  0  0  0  0  0  0  0  0  0  0  0
  127.2110  123.7470   60.7540 C   0  0  0  0  0  0  0  0  0  0  0  0
  128.5970  123.6960   60.5790 C   0  0  0  0  0  0  0  0  0  0  0  0
  129.3200  124.3870   59.4370 C   0  0  0  0  0  0  0  0  0  0  0  0
  130.7070  124.8920   59.9250 C   0  0  2  0  0  0  0  0  0  0  0  0
  131.5190  125.5190   58.7550 C   0  0  0  0  0  0  0  0  0  0  0  0
  132.1260  124.7260   58.0300 O   0  0  0  0  0  0  0  0  0  0  0  0
  131.4650  126.8540   58.4640 N   0  0  0  0  0  0  0  0  0  0  0  0
  131.0280  127.8700   59.4460 C   0  0  0  0  0  0  0  0  0  0  0  0
  130.2280  128.9660   58.7110 C   0  0  0  0  0  0  0  0  0  0  0  0
  130.9990  129.5400   57.6040 N   0  0  0  0  0  0  0  0  0  0  0  0
  130.2950  130.6720   56.9880 C   0  0  0  0  0  0  0  0  0  0  0  0
  130.3290  131.9520   57.8650 C   0  0  0  0  0  0  0  0  0  0  0  0
  129.3010  132.0360   58.9440 N   0  0  0  0  0  0  0  0  0  0  0  0
  127.9950  132.0970   58.5090 C   0  0  0  0  0  0  0  0  0  0  0  0
  127.6800  132.1190   57.3130 O   0  0  0  0  0  0  0  0  0  0  0  0
  126.9600  132.1150   59.6170 C   0  0  0  0  0  0  0  0  0  0  0  0
  125.5990  132.1500   59.2870 C   0  0  0  0  0  0  0  0  0  0  0  0
  124.6210  132.1600   60.2810 C   0  0  0  0  0  0  0  0  0  0  0  0
  124.9700  132.1320   61.6300 C   0  0  0  0  0  0  0  0  0  0  0  0
  126.3330  132.0960   62.0110 C   0  0  0  0  0  0  0  0  0  0  0  0
  126.7560  132.0650   63.3610 C   0  0  0  0  0  0  0  0  0  0  0  0
  128.1160  132.0280   63.6660 C   0  0  0  0  0  0  0  0  0  0  0  0
  129.0760  132.0220   62.6580 C   0  0  0  0  0  0  0  0  0  0  0  0
  128.7040  132.0520   61.3080 C   0  0  0  0  0  0  0  0  0  0  0  0
  127.3220  132.0890   60.9880 C   0  0  0  0  0  0  0  0  0  0  0  0
  129.7790  132.0350   60.2380 C   0  0  0  0  0  0  0  0  0  0  0  0
  130.9820  132.0060   60.5190 O   0  0  0  0  0  0  0  0  0  0  0  0
  131.3100  128.4980   56.6230 C   0  0  0  0  0  0  0  0  0  0  0  0
  132.1450  127.3550   57.2480 C   0  0  0  0  0  0  0  0  0  0  0  0
  129.3840  121.7780   63.3061 H   0  0  0  0  0  0  0  0  0  0  0  0
  126.9148  121.8744   63.5910 H   0  0  0  0  0  0  0  0  0  0  0  0
  126.5971  124.3053   60.0319 H   0  0  0  0  0  0  0  0  0  0  0  0
  129.4601  123.6761   58.6093 H   0  0  0  0  0  0  0  0  0  0  0  0
  128.7215  125.2427   59.0913 H   0  0  0  0  0  0  0  0  0  0  0  0
  130.5194  125.7067   60.6398 H   0  0  0  0  0  0  0  0  0  0  0  0
  130.3913  127.3968   60.2081 H   0  0  0  0  0  0  0  0  0  0  0  0
  131.9061  128.3157   59.9361 H   0  0  0  0  0  0  0  0  0  0  0  0
  129.3020  128.5263   58.3120 H   0  0  0  0  0  0  0  0  0  0  0  0
  130.0017  129.7689   59.4280 H   0  0  0  0  0  0  0  0  0  0  0  0
  130.7689  130.8961   56.0209 H   0  0  0  0  0  0  0  0  0  0  0  0
  129.2410  130.3807   56.8688 H   0  0  0  0  0  0  0  0  0  0  0  0
  131.3198  132.0081   58.3396 H   0  0  0  0  0  0  0  0  0  0  0  0
  130.1084  132.7848   57.1811 H   0  0  0  0  0  0  0  0  0  0  0  0
  125.2976  132.1699   58.2293 H   0  0  0  0  0  0  0  0  0  0  0  0
  123.5589  132.1904   59.9963 H   0  0  0  0  0  0  0  0  0  0  0  0
  124.1848  132.1379   62.4003 H   0  0  0  0  0  0  0  0  0  0  0  0
  126.0112  132.0701   64.1705 H   0  0  0  0  0  0  0  0  0  0  0  0
  128.4350  132.0032   64.7184 H   0  0  0  0  0  0  0  0  0  0  0  0
  130.1426  131.9933   62.9256 H   0  0  0  0  0  0  0  0  0  0  0  0
  130.3688  128.0811   56.2352 H   0  0  0  0  0  0  0  0  0  0  0  0
  131.9018  128.9530   55.8151 H   0  0  0  0  0  0  0  0  0  0  0  0
  132.2468  126.5357   56.5211 H   0  0  0  0  0  0  0  0  0  0  0  0
  133.1423  127.7341   57.5158 H   0  0  0  0  0  0  0  0  0  0  0  0
  1  2  2  0
  2  3  1  0
  3  4  1  0
  4  5  2  0
  5  6  1  0
  6  7  2  0
  7  8  1  0
  8  9  2  0
  8 10  1  0
  7 11  1  0
 11 12  2  0
 12 13  1  0
 13 14  1  0
 14 15  1  0
 15 16  2  0
 15 17  1  0
 17 18  1  0
 18 19  1  0
 19 20  1  0
 20 21  1  0
 21 22  1  0
 22 23  1  0
 23 24  1  0
 24 25  2  0
 24 26  1  0
 26 27  2  0
 27 28  1  0
 28 29  2  0
 29 30  1  0
 30 31  2  0
 31 32  1  0
 32 33  2  0
 33 34  1  0
 34 35  2  0
 34 36  1  0
 36 37  2  0
 20 38  1  0
 38 39  1  0
 14  2  1  0
 39 17  1  0
 12  4  1  0
 36 23  1  0
 35 26  1  0
 35 30  1  0
  5 40  1  0
  6 41  1  0
 11 42  1  0
 13 43  1  0
 13 44  1  0
 14 45  1  1
 18 46  1  0
 18 47  1  0
 19 48  1  0
 19 49  1  0
 21 50  1  0
 21 51  1  0
 22 52  1  0
 22 53  1  0
 27 54  1  0
 28 55  1  0
 29 56  1  0
 31 57  1  0
 32 58  1  0
 33 59  1  0
 38 60  1  0
 38 61  1  0
 39 62  1  0
 39 63  1  0
M  CHG  2   8   1  10  -1
M  END
>  <Binding energies>  (1) 
[-9.23]

>  <Ligand effiencies>  (1) 
[-0.23666666666666666]

>  <Interactions>  (1) 
["V-B:PRO:540:CB:9857, V-B:PRO:540:CA:9855, V-B:GLU:543:CD:9880, V-B:PRO:540:C:9853, H-B:ALA:541:N:9863, H-A:TYR:484:OH:4348, V-B:ALA:541:CA:9862, V-B:ALA:541:CB:9864, V-A:GLU:543:CG:4907, V-B:TYR:484:CZ:9319, V-B:LEU:475:CD2:9231, V-A:ASP:366:CG:3213, V-A:ASP:366:CB:3212, V-B:GLU:543:CG:9879, V-A:TYR:484:CE1:4345, H-B:ARG:545:NH2:9900, V-A:PRO:540:CA:4883, V-A:PRO:540:CB:4885, V-A:PRO:540:N:4884, V-A:PRO:540:C:4881, V-B:ASN:362:CB:8148, H-A:ALA:541:N:4891, V-A:ALA:541:CB:4892, H-A:TYR:531:OH:4795, V-A:TYR:539:CD1:4873, V-A:TYR:539:C:4867, V-A:TYR:539:CE1:4875, H-B:ASN:362:ND2:8151, V-B:TYR:484:CE2:9318, H-B:TYR:539:OH:9850, V-A:ALA:541:CA:4890"]

$$$$
RR26_Rahimova_2017
     RDKit          3D

 59 65  0  0  0  0  0  0  0  0999 V2000
  128.8090  118.4830   61.8760 C   0  0  0  0  0  0  0  0  0  0  0  0
  130.0000  118.2230   60.9630 C   0  0  0  0  0  0  0  0  0  0  0  0
  130.3810  116.8970   60.7310 C   0  0  0  0  0  0  0  0  0  0  0  0
  131.4370  116.5990   59.8730 C   0  0  0  0  0  0  0  0  0  0  0  0
  132.1210  117.6280   59.2330 C   0  0  0  0  0  0  0  0  0  0  0  0
  131.7510  118.9530   59.4550 C   0  0  0  0  0  0  0  0  0  0  0  0
  130.6950  119.2720   60.3220 C   0  0  0  0  0  0  0  0  0  0  0  0
  130.3720  120.7250   60.5180 C   0  0  0  0  0  0  0  0  0  0  0  0
  131.2590  121.6890   60.2850 N   0  0  0  0  0  0  0  0  0  0  0  0
  130.5710  122.7630   60.5640 C   0  0  0  0  0  0  0  0  0  0  0  0
  130.8740  124.4610   60.5660 S   0  0  0  0  0  0  0  0  0  0  0  0
  129.1770  124.7400   61.1100 C   0  0  0  0  0  0  0  0  0  0  0  0
  128.5760  125.9220   61.3720 C   0  0  0  0  0  0  0  0  0  0  0  0
  129.1430  127.2570   61.2730 C   0  0  0  0  0  0  0  0  0  0  0  0
  130.3010  127.6500   60.6210 C   0  0  0  0  0  0  0  0  0  0  0  0
  130.4220  129.0100   60.7560 N   0  0  0  0  0  0  0  0  0  0  0  0
  131.4430  129.8560   60.2510 C   0  0  0  0  0  0  0  0  0  0  0  0
  132.2010  130.6610   61.1130 C   0  0  0  0  0  0  0  0  0  0  0  0
  133.1980  131.4890   60.6040 C   0  0  0  0  0  0  0  0  0  0  0  0
  133.4430  131.5120   59.2330 C   0  0  0  0  0  0  0  0  0  0  0  0
  132.6990  130.7140   58.3660 C   0  0  0  0  0  0  0  0  0  0  0  0
  131.7000  129.8880   58.8720 C   0  0  0  0  0  0  0  0  0  0  0  0
  129.3790  129.5040   61.4410 N   0  0  0  0  0  0  0  0  0  0  0  0
  128.6160  128.4760   61.7580 C   0  0  0  0  0  0  0  0  0  0  0  0
  127.3600  128.6940   62.5440 C   0  0  0  0  0  0  0  0  0  0  0  0
  126.1500  128.9680   61.8880 C   0  0  0  0  0  0  0  0  0  0  0  0
  124.9750  129.1760   62.6110 C   0  0  0  0  0  0  0  0  0  0  0  0
  125.0010  129.1130   64.0030 C   0  0  0  0  0  0  0  0  0  0  0  0
  126.2010  128.8220   64.6700 C   0  0  0  0  0  0  0  0  0  0  0  0
  127.3740  128.6210   63.9450 C   0  0  0  0  0  0  0  0  0  0  0  0
  126.2830  128.7940   66.0480 O   0  0  0  0  0  0  0  0  0  0  0  0
  125.0220  128.6400   66.7070 C   0  0  0  0  0  0  0  0  0  0  0  0
  123.9600  129.5690   66.0710 C   0  0  0  0  0  0  0  0  0  0  0  0
  123.8080  129.2770   64.6770 O   0  0  0  0  0  0  0  0  0  0  0  0
  128.4360  123.4940   61.2770 C   0  0  0  0  0  0  0  0  0  0  0  0
  127.2700  123.3250   61.6370 O   0  0  0  0  0  0  0  0  0  0  0  0
  129.3170  122.4540   60.9410 N   0  0  0  0  0  0  0  0  0  0  0  0
  129.1730  121.1270   60.9100 N   0  0  0  0  0  0  0  0  0  0  0  0
  129.1297  118.4130   62.9259 H   0  0  0  0  0  0  0  0  0  0  0  0
  128.4101  119.4894   61.6808 H   0  0  0  0  0  0  0  0  0  0  0  0
  128.0270  117.7344   61.6808 H   0  0  0  0  0  0  0  0  0  0  0  0
  129.8404  116.0804   61.2319 H   0  0  0  0  0  0  0  0  0  0  0  0
  131.7296  115.5526   59.7017 H   0  0  0  0  0  0  0  0  0  0  0  0
  132.9532  117.3956   58.5523 H   0  0  0  0  0  0  0  0  0  0  0  0
  132.2948  119.7606   58.9431 H   0  0  0  0  0  0  0  0  0  0  0  0
  127.5278  125.8670   61.7010 H   0  0  0  0  0  0  0  0  0  0  0  0
  131.0001  126.9881   60.0889 H   0  0  0  0  0  0  0  0  0  0  0  0
  132.0073  130.6384   62.1956 H   0  0  0  0  0  0  0  0  0  0  0  0
  133.7896  132.1222   61.2816 H   0  0  0  0  0  0  0  0  0  0  0  0
  134.2309  132.1660   58.8310 H   0  0  0  0  0  0  0  0  0  0  0  0
  132.9008  130.7370   57.2849 H   0  0  0  0  0  0  0  0  0  0  0  0
  131.1103  129.2586   58.1892 H   0  0  0  0  0  0  0  0  0  0  0  0
  126.1277  129.0194   60.7894 H   0  0  0  0  0  0  0  0  0  0  0  0
  124.0327  129.3887   62.0849 H   0  0  0  0  0  0  0  0  0  0  0  0
  128.3143  128.4043   64.4731 H   0  0  0  0  0  0  0  0  0  0  0  0
  124.6907  127.5952   66.6146 H   0  0  0  0  0  0  0  0  0  0  0  0
  125.1399  128.9085   67.7672 H   0  0  0  0  0  0  0  0  0  0  0  0
  122.9963  129.4185   66.5795 H   0  0  0  0  0  0  0  0  0  0  0  0
  124.2884  130.6129   66.1820 H   0  0  0  0  0  0  0  0  0  0  0  0
  1  2  1  0
  2  3  2  0
  3  4  1  0
  4  5  2  0
  5  6  1  0
  6  7  2  0
  7  8  1  0
  8  9  1  0
  9 10  2  0
 10 11  1  0
 11 12  1  0
 12 13  2  0
 13 14  1  0
 14 15  2  0
 15 16  1  0
 16 17  1  0
 17 18  2  0
 18 19  1  0
 19 20  2  0
 20 21  1  0
 21 22  2  0
 16 23  1  0
 23 24  2  0
 24 25  1  0
 25 26  2  0
 26 27  1  0
 27 28  2  0
 28 29  1  0
 29 30  2  0
 29 31  1  0
 31 32  1  0
 32 33  1  0
 33 34  1  0
 12 35  1  0
 35 36  2  0
 35 37  1  0
 37 38  1  0
  7  2  1  0
 38  8  2  0
 37 10  1  0
 24 14  1  0
 30 25  1  0
 22 17  1  0
 34 28  1  0
  1 39  1  0
  1 40  1  0
  1 41  1  0
  3 42  1  0
  4 43  1  0
  5 44  1  0
  6 45  1  0
 13 46  1  0
 15 47  1  0
 18 48  1  0
 19 49  1  0
 20 50  1  0
 21 51  1  0
 22 52  1  0
 26 53  1  0
 27 54  1  0
 30 55  1  0
 32 56  1  0
 32 57  1  0
 33 58  1  0
 33 59  1  0
M  END
>  <Binding energies>  (1) 
[-7.35]

>  <Ligand effiencies>  (1) 
[-0.19342105263157894]

>  <Interactions>  (1) 
["V-B:TYR:539:C:9839, V-B:GLU:543:CD:9880, V-B:TYR:539:CE2:9848, V-B:PRO:540:C:9853, V-A:SER:385:CB:3409, V-B:ASP:366:CG:8185, V-A:HIS:383:CE1:3394, V-A:PRO:482:CG:4327, V-A:PRO:482:CB:4326, V-B:TYR:539:CB:9843, V-A:LEU:475:CD2:4259, V-B:ALA:541:CA:9862, V-B:TYR:539:CD2:9846, V-A:LEU:475:CD1:4258, V-B:ALA:541:CB:9864, V-A:LEU:373:CD1:3280, V-B:HIS:456:CE1:9042, V-B:ARG:545:CZ:9898, H-B:TYR:484:OH:9320, V-A:GLU:543:CD:4908, V-B:GLY:453:C:9014, H-B:ARG:545:NE:9896, V-B:TYR:484:CZ:9319, H-B:GLY:454:N:9022, V-B:GLY:454:CA:9021, V-A:ASP:366:CG:3213, V-A:ASP:366:CB:3212, V-B:TYR:539:CG:9844, H-B:ARG:545:NH2:9900, V-A:PRO:540:CA:4883, V-A:PRO:540:CB:4885, V-B:ARG:545:CG:9894, V-A:ASN:362:CB:3176, V-B:ARG:545:CD:9895, V-A:LEU:363:CA:3185, H-B:ARG:545:NH1:9899, V-B:GLY:453:CA:9016"]

$$$$
RR27_Rahimova_2017
     RDKit          3D

 66 71  0  0  0  0  0  0  0  0999 V2000
  128.8330  130.6650   62.3660 O   0  0  0  0  0  0  0  0  0  0  0  0
  128.1470  129.8980   61.6840 C   0  0  0  0  0  0  0  0  0  0  0  0
  126.6980  129.5850   62.1580 C   0  0  0  0  0  0  0  0  0  0  0  0
  125.6750  130.6510   61.7220 C   0  0  0  0  0  0  0  0  0  0  0  0
  125.7440  131.9750   62.1830 C   0  0  0  0  0  0  0  0  0  0  0  0
  124.8050  132.9140   61.7670 C   0  0  0  0  0  0  0  0  0  0  0  0
  123.7920  132.5350   60.8900 C   0  0  0  0  0  0  0  0  0  0  0  0
  123.7100  131.2250   60.4270 C   0  0  0  0  0  0  0  0  0  0  0  0
  124.6490  130.2860   60.8430 C   0  0  0  0  0  0  0  0  0  0  0  0
  126.6520  129.2140   63.6530 C   0  0  0  0  0  0  0  0  0  0  0  0
  125.4390  129.0380   64.3320 C   0  0  0  0  0  0  0  0  0  0  0  0
  125.4340  128.7150   65.6870 C   0  0  0  0  0  0  0  0  0  0  0  0
  126.6400  128.5720   66.3670 C   0  0  0  0  0  0  0  0  0  0  0  0
  127.8530  128.7550   65.7070 C   0  0  0  0  0  0  0  0  0  0  0  0
  127.8570  129.0790   64.3550 C   0  0  0  0  0  0  0  0  0  0  0  0
  128.5710  129.4480   60.4690 N   0  0  0  0  0  0  0  0  0  0  0  0
  127.9220  128.3490   59.7390 C   0  0  0  0  0  0  0  0  0  0  0  0
  128.5680  127.0370   60.2390 C   0  0  0  0  0  0  0  0  0  0  0  0
  130.1230  127.0380   60.0950 C   0  0  0  0  0  0  0  0  0  0  0  0
  130.8260  125.7990   60.6810 C   0  0  0  0  0  0  0  0  0  0  0  0
  132.0800  125.9940   61.1840 N   0  0  0  0  0  0  0  0  0  0  0  0
  132.7350  124.9370   61.7390 C   0  0  0  0  0  0  0  0  0  0  0  0
  133.9920  125.0090   62.2780 O   0  0  0  0  0  0  0  0  0  0  0  0
  132.0920  123.6850   61.7690 C   0  0  0  0  0  0  0  0  0  0  0  0
  132.4490  122.4550   62.2410 N   0  0  0  0  0  0  0  0  0  0  0  0
  131.3980  121.5950   61.9810 N   0  0  0  0  0  0  0  0  0  0  0  0
  130.4120  122.2840   61.3690 N   0  0  0  0  0  0  0  0  0  0  0  0
  129.1840  121.6110   60.9550 C   0  0  0  0  0  0  0  0  0  0  0  0
  128.1750  122.5340   60.2860 C   0  0  0  0  0  0  0  0  0  0  0  0
  127.3580  123.3640   61.0600 C   0  0  0  0  0  0  0  0  0  0  0  0
  126.4410  124.2180   60.4450 C   0  0  0  0  0  0  0  0  0  0  0  0
  126.3400  124.2510   59.0550 C   0  0  0  0  0  0  0  0  0  0  0  0
  127.1590  123.4320   58.2760 C   0  0  0  0  0  0  0  0  0  0  0  0
  127.0550  123.4910   56.5530 Cl  0  0  0  0  0  0  0  0  0  0  0  0
  128.0700  122.5730   58.8900 C   0  0  0  0  0  0  0  0  0  0  0  0
  130.8000  123.6040   61.2070 C   0  0  0  0  0  0  0  0  0  0  0  0
  130.1390  124.6220   60.6510 N   0  0  0  0  0  0  0  0  0  0  0  0
  130.7510  128.3860   60.5650 C   0  0  0  0  0  0  0  0  0  0  0  0
  129.9740  129.6290   60.0620 C   0  0  0  0  0  0  0  0  0  0  0  0
  126.3690  128.6796   61.6271 H   0  0  0  0  0  0  0  0  0  0  0  0
  126.5444  132.2719   62.8767 H   0  0  0  0  0  0  0  0  0  0  0  0
  124.8627  133.9510   62.1293 H   0  0  0  0  0  0  0  0  0  0  0  0
  123.0502  133.2773   60.5603 H   0  0  0  0  0  0  0  0  0  0  0  0
  122.9062  130.9331   59.7351 H   0  0  0  0  0  0  0  0  0  0  0  0
  124.5844  129.2501   60.4786 H   0  0  0  0  0  0  0  0  0  0  0  0
  124.4873  129.1553   63.7931 H   0  0  0  0  0  0  0  0  0  0  0  0
  124.4808  128.5735   66.2175 H   0  0  0  0  0  0  0  0  0  0  0  0
  126.6352  128.3120   67.4358 H   0  0  0  0  0  0  0  0  0  0  0  0
  128.8019  128.6438   66.2522 H   0  0  0  0  0  0  0  0  0  0  0  0
  128.8131  129.2305   63.8326 H   0  0  0  0  0  0  0  0  0  0  0  0
  126.8418  128.3423   59.9469 H   0  0  0  0  0  0  0  0  0  0  0  0
  128.0539  128.4647   58.6531 H   0  0  0  0  0  0  0  0  0  0  0  0
  128.3129  126.9013   61.3004 H   0  0  0  0  0  0  0  0  0  0  0  0
  128.1774  126.2168   59.6188 H   0  0  0  0  0  0  0  0  0  0  0  0
  130.3138  126.9552   59.0148 H   0  0  0  0  0  0  0  0  0  0  0  0
  134.5180  125.7170   61.9010 H   0  0  0  0  0  0  0  0  0  0  0  0
  129.4479  120.8128   60.2456 H   0  0  0  0  0  0  0  0  0  0  0  0
  128.7079  121.2220   61.8671 H   0  0  0  0  0  0  0  0  0  0  0  0
  127.4382  123.3438   62.1569 H   0  0  0  0  0  0  0  0  0  0  0  0
  125.7972  124.8658   61.0580 H   0  0  0  0  0  0  0  0  0  0  0  0
  125.6148  124.9225   58.5721 H   0  0  0  0  0  0  0  0  0  0  0  0
  128.7093  121.9228   58.2747 H   0  0  0  0  0  0  0  0  0  0  0  0
  130.7621  128.4020   61.6648 H   0  0  0  0  0  0  0  0  0  0  0  0
  131.7646  128.4401   60.1410 H   0  0  0  0  0  0  0  0  0  0  0  0
  130.3853  130.5422   60.5169 H   0  0  0  0  0  0  0  0  0  0  0  0
  130.0578  129.7311   58.9700 H   0  0  0  0  0  0  0  0  0  0  0  0
  1  2  2  0
  2  3  1  0
  3  4  1  0
  4  5  2  0
  5  6  1  0
  6  7  2  0
  7  8  1  0
  8  9  2  0
  3 10  1  0
 10 11  2  0
 11 12  1  0
 12 13  2  0
 13 14  1  0
 14 15  2  0
  2 16  1  0
 16 17  1  0
 17 18  1  0
 18 19  1  0
 19 20  1  0
 20 21  2  0
 21 22  1  0
 22 23  1  0
 22 24  2  0
 24 25  1  0
 25 26  2  0
 26 27  1  0
 27 28  1  0
 28 29  1  0
 29 30  2  0
 30 31  1  0
 31 32  2  0
 32 33  1  0
 33 34  1  0
 33 35  2  0
 27 36  1  0
 36 37  2  0
 19 38  1  0
 38 39  1  0
  9  4  1  0
 15 10  1  0
 39 16  1  0
 37 20  1  0
 36 24  1  0
 35 29  1  0
  3 40  1  0
  5 41  1  0
  6 42  1  0
  7 43  1  0
  8 44  1  0
  9 45  1  0
 11 46  1  0
 12 47  1  0
 13 48  1  0
 14 49  1  0
 15 50  1  0
 17 51  1  0
 17 52  1  0
 18 53  1  0
 18 54  1  0
 19 55  1  0
 23 56  1  0
 28 57  1  0
 28 58  1  0
 30 59  1  0
 31 60  1  0
 32 61  1  0
 35 62  1  0
 38 63  1  0
 38 64  1  0
 39 65  1  0
 39 66  1  0
M  END
>  <Binding energies>  (1) 
[-9.17]

>  <Ligand effiencies>  (1) 
[-0.22925]

>  <Interactions>  (1) 
["V-B:TYR:539:C:9839, V-B:PRO:540:CA:9855, V-B:PRO:540:N:9856, V-B:GLU:543:CD:9880, V-B:TYR:539:CE2:9848, V-B:ASP:366:CG:8185, H-A:TYR:484:OH:4348, V-B:TYR:539:CD2:9846, V-B:HIS:456:CE1:9042, V-B:ARG:545:CZ:9898, V-A:GLU:543:CD:4908, V-B:ILE:369:CD1:8211, V-A:GLU:543:CG:4907, V-B:LEU:475:CD2:9231, H-A:ARG:545:NH1:4927, H-A:GLY:454:N:4050, H-A:ARG:545:NH2:4928, V-A:ASP:366:CG:3213, H-A:ASP:366:OD2:3215, H-A:ASP:366:OD1:3214, V-B:MET:535:CE:9807, V-B:ARG:545:CG:9894, V-B:ARG:545:CD:9895, V-B:ILE:369:CG2:8209"]

$$$$
RR27_Rahimova_2017-again1
     RDKit          3D

 66 71  0  0  0  0  0  0  0  0999 V2000
  128.9000  125.2280   57.5610 O   0  0  0  0  0  0  0  0  0  0  0  0
  128.9280  125.0970   58.7890 C   0  0  0  0  0  0  0  0  0  0  0  0
  127.8400  124.2050   59.4590 C   0  0  0  0  0  0  0  0  0  0  0  0
  128.4440  123.1290   60.3820 C   0  0  0  0  0  0  0  0  0  0  0  0
  129.5100  122.3120   59.9750 C   0  0  0  0  0  0  0  0  0  0  0  0
  130.0310  121.3520   60.8380 C   0  0  0  0  0  0  0  0  0  0  0  0
  129.4880  121.2020   62.1110 C   0  0  0  0  0  0  0  0  0  0  0  0
  128.4320  122.0050   62.5300 C   0  0  0  0  0  0  0  0  0  0  0  0
  127.9120  122.9660   61.6670 C   0  0  0  0  0  0  0  0  0  0  0  0
  126.8370  123.6470   58.4320 C   0  0  0  0  0  0  0  0  0  0  0  0
  127.2610  122.8820   57.3350 C   0  0  0  0  0  0  0  0  0  0  0  0
  126.3370  122.4060   56.4080 C   0  0  0  0  0  0  0  0  0  0  0  0
  124.9850  122.6890   56.5740 C   0  0  0  0  0  0  0  0  0  0  0  0
  124.5480  123.4480   57.6570 C   0  0  0  0  0  0  0  0  0  0  0  0
  125.4720  123.9310   58.5790 C   0  0  0  0  0  0  0  0  0  0  0  0
  129.9700  125.5770   59.5280 N   0  0  0  0  0  0  0  0  0  0  0  0
  129.9410  125.7060   60.9910 C   0  0  0  0  0  0  0  0  0  0  0  0
  129.2810  127.0620   61.3310 C   0  0  0  0  0  0  0  0  0  0  0  0
  129.7510  128.2810   60.4700 C   0  0  0  0  0  0  0  0  0  0  0  0
  128.7110  129.4020   60.3800 C   0  0  0  0  0  0  0  0  0  0  0  0
  127.5430  129.2630   60.9240 N   0  0  0  0  0  0  0  0  0  0  0  0
  126.6970  130.3200   60.7760 C   0  0  0  0  0  0  0  0  0  0  0  0
  126.9710  131.5040   60.1080 C   0  0  0  0  0  0  0  0  0  0  0  0
  125.9230  132.3090   60.1490 N   0  0  0  0  0  0  0  0  0  0  0  0
  124.9230  131.6550   60.8630 N   0  0  0  0  0  0  0  0  0  0  0  0
  125.4180  130.4650   61.2450 N   0  0  0  0  0  0  0  0  0  0  0  0
  124.6010  129.5230   62.0010 C   0  0  0  0  0  0  0  0  0  0  0  0
  125.0890  129.3090   63.4260 C   0  0  0  0  0  0  0  0  0  0  0  0
  126.4110  128.9190   63.6640 C   0  0  0  0  0  0  0  0  0  0  0  0
  126.8580  128.7130   64.9700 C   0  0  0  0  0  0  0  0  0  0  0  0
  125.9880  128.8980   66.0430 C   0  0  0  0  0  0  0  0  0  0  0  0
  124.6690  129.2920   65.8120 C   0  0  0  0  0  0  0  0  0  0  0  0
  123.5920  129.5170   67.1410 Cl  0  0  0  0  0  0  0  0  0  0  0  0
  124.2210  129.5000   64.5070 C   0  0  0  0  0  0  0  0  0  0  0  0
  128.2840  131.6890   59.4910 C   0  0  0  0  0  0  0  0  0  0  0  0
  128.7080  132.6590   58.8670 O   0  0  0  0  0  0  0  0  0  0  0  0
  129.0580  130.5670   59.7030 N   0  0  0  0  0  0  0  0  0  0  0  0
  130.3720  127.9380   59.0790 C   0  0  0  0  0  0  0  0  0  0  0  0
  130.9350  126.5040   58.9190 C   0  0  0  0  0  0  0  0  0  0  0  0
  127.2539  124.8568   60.1236 H   0  0  0  0  0  0  0  0  0  0  0  0
  129.9364  122.4309   58.9680 H   0  0  0  0  0  0  0  0  0  0  0  0
  130.8678  120.7150   60.5156 H   0  0  0  0  0  0  0  0  0  0  0  0
  129.8977  120.4415   62.7920 H   0  0  0  0  0  0  0  0  0  0  0  0
  128.0099  121.8813   63.5382 H   0  0  0  0  0  0  0  0  0  0  0  0
  127.0772  123.6018   61.9970 H   0  0  0  0  0  0  0  0  0  0  0  0
  128.3300  122.6567   57.2063 H   0  0  0  0  0  0  0  0  0  0  0  0
  126.6748  121.8088   55.5482 H   0  0  0  0  0  0  0  0  0  0  0  0
  124.2549  122.3101   55.8437 H   0  0  0  0  0  0  0  0  0  0  0  0
  123.4770  123.6648   57.7831 H   0  0  0  0  0  0  0  0  0  0  0  0
  125.1290  124.5396   59.4287 H   0  0  0  0  0  0  0  0  0  0  0  0
  129.3548  124.8841   61.4279 H   0  0  0  0  0  0  0  0  0  0  0  0
  130.9604  125.6603   61.4018 H   0  0  0  0  0  0  0  0  0  0  0  0
  128.1948  126.9522   61.1965 H   0  0  0  0  0  0  0  0  0  0  0  0
  129.5821  127.2910   62.3639 H   0  0  0  0  0  0  0  0  0  0  0  0
  130.5992  128.6702   61.0523 H   0  0  0  0  0  0  0  0  0  0  0  0
  123.5709  129.9070   62.0391 H   0  0  0  0  0  0  0  0  0  0  0  0
  124.6639  128.5526   61.4868 H   0  0  0  0  0  0  0  0  0  0  0  0
  127.1005  128.7742   62.8192 H   0  0  0  0  0  0  0  0  0  0  0  0
  127.8979  128.4043   65.1526 H   0  0  0  0  0  0  0  0  0  0  0  0
  126.3408  128.7335   67.0718 H   0  0  0  0  0  0  0  0  0  0  0  0
  123.1825  129.8150   64.3274 H   0  0  0  0  0  0  0  0  0  0  0  0
  129.9850  130.6120   59.3060 H   0  0  0  0  0  0  0  0  0  0  0  0
  129.5903  128.0790   58.3180 H   0  0  0  0  0  0  0  0  0  0  0  0
  131.2366  128.6089   58.9679 H   0  0  0  0  0  0  0  0  0  0  0  0
  131.0606  126.2672   57.8522 H   0  0  0  0  0  0  0  0  0  0  0  0
  131.9160  126.4173   59.4090 H   0  0  0  0  0  0  0  0  0  0  0  0
  1  2  2  0
  2  3  1  0
  3  4  1  0
  4  5  2  0
  5  6  1  0
  6  7  2  0
  7  8  1  0
  8  9  2  0
  3 10  1  0
 10 11  2  0
 11 12  1  0
 12 13  2  0
 13 14  1  0
 14 15  2  0
  2 16  1  0
 16 17  1  0
 17 18  1  0
 18 19  1  0
 19 20  1  0
 20 21  2  0
 21 22  1  0
 22 23  2  0
 23 24  1  0
 24 25  2  0
 25 26  1  0
 26 27  1  0
 27 28  1  0
 28 29  2  0
 29 30  1  0
 30 31  2  0
 31 32  1  0
 32 33  1  0
 32 34  2  0
 23 35  1  0
 35 36  2  0
 35 37  1  0
 19 38  1  0
 38 39  1  0
  9  4  1  0
 15 10  1  0
 39 16  1  0
 37 20  1  0
 26 22  1  0
 34 28  1  0
  3 40  1  0
  5 41  1  0
  6 42  1  0
  7 43  1  0
  8 44  1  0
  9 45  1  0
 11 46  1  0
 12 47  1  0
 13 48  1  0
 14 49  1  0
 15 50  1  0
 17 51  1  0
 17 52  1  0
 18 53  1  0
 18 54  1  0
 19 55  1  0
 27 56  1  0
 27 57  1  0
 29 58  1  0
 30 59  1  0
 31 60  1  0
 34 61  1  0
 37 62  1  0
 38 63  1  0
 38 64  1  0
 39 65  1  0
 39 66  1  0
M  END
>  <Binding energies>  (1) 
[-9.5]

>  <Ligand effiencies>  (1) 
[-0.2375]

>  <Interactions>  (1) 
["V-B:PRO:540:CD:9859, V-B:LEU:363:CD1:8161, V-B:PRO:540:CB:9857, V-B:TYR:539:C:9839, V-B:PRO:540:CA:9855, V-B:PRO:540:N:9856, V-B:GLU:543:CD:9880, V-B:TYR:539:CE2:9848, V-B:ILE:538:CG2:9835, V-B:ASP:366:CG:8185, V-A:LEU:475:CD2:4259, V-B:ALA:541:CA:9862, V-B:TYR:539:CD2:9846, V-B:ALA:541:CB:9864, V-B:HIS:456:CE1:9042, V-B:ARG:545:CZ:9898, V-B:TYR:484:CZ:9319, V-B:GLU:543:CG:9879, V-B:TYR:531:CE2:9765, V-A:TYR:484:CE1:4345, V-B:ILE:538:CA:9832, V-B:ARG:545:CG:9894, V-B:ARG:545:CD:9895, V-B:TYR:484:CE1:9317, V-B:GLY:453:CA:9016, V-B:ILE:455:C:9024, V-B:ARG:545:CB:9893"]

$$$$
RR28_Rahimova_2017
     RDKit          3D

 82 85  0  0  0  0  0  0  0  0999 V2000
  132.8560  131.5930   61.9640 C   0  0  0  0  0  0  0  0  0  0  0  0
  132.2500  131.0800   60.6620 C   0  0  0  0  0  0  0  0  0  0  0  0
  132.6750  131.5000   59.5880 O   0  0  0  0  0  0  0  0  0  0  0  0
  131.2600  130.1720   60.7810 N   0  0  0  0  0  0  0  0  0  0  0  0
  130.4890  129.5120   59.7030 C   0  0  0  0  0  0  0  0  0  0  0  0
  131.0900  128.0960   59.4720 C   0  0  0  0  0  0  0  0  0  0  0  0
  131.2420  127.2260   60.5630 C   0  0  0  0  0  0  0  0  0  0  0  0
  131.7800  125.9540   60.3940 C   0  0  0  0  0  0  0  0  0  0  0  0
  132.1800  125.5220   59.1290 C   0  0  0  0  0  0  0  0  0  0  0  0
  132.7730  124.1240   58.9630 C   0  0  0  0  0  0  0  0  0  0  0  0
  133.1630  123.8830   57.7100 F   0  0  0  0  0  0  0  0  0  0  0  0
  133.8320  123.9720   59.7600 F   0  0  0  0  0  0  0  0  0  0  0  0
  131.8540  123.2160   59.2940 F   0  0  0  0  0  0  0  0  0  0  0  0
  132.0360  126.3790   58.0340 C   0  0  0  0  0  0  0  0  0  0  0  0
  131.4970  127.6520   58.2050 C   0  0  0  0  0  0  0  0  0  0  0  0
  130.4670  130.4080   58.4140 C   0  0  0  0  0  0  0  0  0  0  0  0
  129.6990  131.7400   58.6050 C   0  0  0  0  0  0  0  0  0  0  0  0
  128.3270  131.3770   58.9970 N   0  0  0  0  0  0  0  0  0  0  0  0
  127.3520  131.2590   58.0560 C   0  0  0  0  0  0  0  0  0  0  0  0
  127.5260  131.6070   56.8860 O   0  0  0  0  0  0  0  0  0  0  0  0
  125.9320  130.8280   58.5000 C   0  0  0  0  0  0  0  0  0  0  0  0
  125.5330  129.3640   58.1700 C   0  0  0  0  0  0  0  0  0  0  0  0
  126.6220  128.5320   57.4540 C   0  0  0  0  0  0  0  0  0  0  0  0
  126.8380  128.7650   56.2610 O   0  0  0  0  0  0  0  0  0  0  0  0
  127.4000  127.6750   58.1740 N   0  0  0  0  0  0  0  0  0  0  0  0
  127.0060  127.1290   59.4780 C   0  0  0  0  0  0  0  0  0  0  0  0
  126.1430  125.8810   59.1920 C   0  0  0  0  0  0  0  0  0  0  0  0
  126.8430  124.7890   58.3100 C   0  0  0  0  0  0  0  0  0  0  0  0
  125.8180  123.8650   57.7800 N   0  0  0  0  0  0  0  0  0  0  0  0
  125.9750  122.8820   56.8700 C   0  0  0  0  0  0  0  0  0  0  0  0
  124.7200  122.0970   56.5000 C   0  0  0  0  0  0  0  0  0  0  0  0
  127.0480  122.5990   56.3390 O   0  0  0  0  0  0  0  0  0  0  0  0
  127.7830  123.9620   59.2460 C   0  0  0  0  0  0  0  0  0  0  0  0
  128.0440  124.3270   60.5780 C   0  0  0  0  0  0  0  0  0  0  0  0
  128.8870  123.5630   61.3790 C   0  0  0  0  0  0  0  0  0  0  0  0
  129.4960  122.4140   60.8680 C   0  0  0  0  0  0  0  0  0  0  0  0
  130.4210  121.5620   61.7360 C   0  0  0  0  0  0  0  0  0  0  0  0
  130.6740  120.3920   61.1470 F   0  0  0  0  0  0  0  0  0  0  0  0
  131.5730  122.2090   61.9110 F   0  0  0  0  0  0  0  0  0  0  0  0
  129.8950  121.3120   62.9370 F   0  0  0  0  0  0  0  0  0  0  0  0
  129.2540  122.0430   59.5450 C   0  0  0  0  0  0  0  0  0  0  0  0
  128.4100  122.8090   58.7470 C   0  0  0  0  0  0  0  0  0  0  0  0
  127.6100  125.4970   57.1270 C   0  0  0  0  0  0  0  0  0  0  0  0
  128.3650  126.8040   57.4900 C   0  0  0  0  0  0  0  0  0  0  0  0
  128.2530  130.7100   60.3050 C   0  0  0  0  0  0  0  0  0  0  0  0
  129.0030  129.3600   60.1690 C   0  0  0  0  0  0  0  0  0  0  0  0
  132.3259  131.1442   62.8170 H   0  0  0  0  0  0  0  0  0  0  0  0
  133.9199  131.3169   62.0071 H   0  0  0  0  0  0  0  0  0  0  0  0
  132.7593  132.6879   62.0071 H   0  0  0  0  0  0  0  0  0  0  0  0
  130.9810  129.9170   61.7170 H   0  0  0  0  0  0  0  0  0  0  0  0
  130.9314  127.5545   61.5658 H   0  0  0  0  0  0  0  0  0  0  0  0
  131.8904  125.2863   61.2612 H   0  0  0  0  0  0  0  0  0  0  0  0
  132.3496  126.0468   57.0334 H   0  0  0  0  0  0  0  0  0  0  0  0
  131.3891  128.3174   57.3358 H   0  0  0  0  0  0  0  0  0  0  0  0
  131.5048  130.6408   58.1331 H   0  0  0  0  0  0  0  0  0  0  0  0
  129.9427  129.8396   57.6317 H   0  0  0  0  0  0  0  0  0  0  0  0
  130.1731  132.3426   59.3938 H   0  0  0  0  0  0  0  0  0  0  0  0
  129.7046  132.3390   57.6824 H   0  0  0  0  0  0  0  0  0  0  0  0
  125.8660  130.9576   59.5903 H   0  0  0  0  0  0  0  0  0  0  0  0
  125.2368  131.4616   57.9297 H   0  0  0  0  0  0  0  0  0  0  0  0
  125.2835  128.8579   59.1142 H   0  0  0  0  0  0  0  0  0  0  0  0
  124.6870  129.4279   57.4698 H   0  0  0  0  0  0  0  0  0  0  0  0
  127.8982  126.8487   60.0572 H   0  0  0  0  0  0  0  0  0  0  0  0
  126.4466  127.8715   60.0660 H   0  0  0  0  0  0  0  0  0  0  0  0
  125.8733  125.4227   60.1549 H   0  0  0  0  0  0  0  0  0  0  0  0
  125.2708  126.2305   58.6201 H   0  0  0  0  0  0  0  0  0  0  0  0
  124.8830  124.0260   58.1240 H   0  0  0  0  0  0  0  0  0  0  0  0
  124.2052  121.7750   57.4172 H   0  0  0  0  0  0  0  0  0  0  0  0
  124.0487  122.7365   55.9080 H   0  0  0  0  0  0  0  0  0  0  0  0
  125.0013  121.2136   55.9080 H   0  0  0  0  0  0  0  0  0  0  0  0
  127.5745  125.2308   60.9937 H   0  0  0  0  0  0  0  0  0  0  0  0
  129.0750  123.8651   62.4199 H   0  0  0  0  0  0  0  0  0  0  0  0
  129.7317  121.1425   59.1317 H   0  0  0  0  0  0  0  0  0  0  0  0
  128.2305  122.5055   57.7051 H   0  0  0  0  0  0  0  0  0  0  0  0
  128.3458  124.7832   56.7282 H   0  0  0  0  0  0  0  0  0  0  0  0
  126.8337  125.7938   56.4063 H   0  0  0  0  0  0  0  0  0  0  0  0
  129.2114  126.5800   58.1559 H   0  0  0  0  0  0  0  0  0  0  0  0
  128.7672  127.2909   56.5893 H   0  0  0  0  0  0  0  0  0  0  0  0
  128.7329  131.3328   61.0743 H   0  0  0  0  0  0  0  0  0  0  0  0
  127.2069  130.5492   60.6048 H   0  0  0  0  0  0  0  0  0  0  0  0
  128.9953  128.8580   61.1477 H   0  0  0  0  0  0  0  0  0  0  0  0
  128.4808  128.7778   59.3955 H   0  0  0  0  0  0  0  0  0  0  0  0
  1  2  1  0
  2  3  2  0
  2  4  1  0
  4  5  1  0
  5  6  1  0
  6  7  2  0
  7  8  1  0
  8  9  2  0
  9 10  1  0
 10 11  1  0
 10 12  1  0
 10 13  1  0
  9 14  1  0
 14 15  2  0
  5 16  1  0
 16 17  1  0
 17 18  1  0
 18 19  1  0
 19 20  2  0
 19 21  1  0
 21 22  1  0
 22 23  1  0
 23 24  2  0
 23 25  1  0
 25 26  1  0
 26 27  1  0
 27 28  1  0
 28 29  1  0
 29 30  1  0
 30 31  1  0
 30 32  2  0
 28 33  1  0
 33 34  2  0
 34 35  1  0
 35 36  2  0
 36 37  1  0
 37 38  1  0
 37 39  1  0
 37 40  1  0
 36 41  1  0
 41 42  2  0
 28 43  1  0
 43 44  1  0
 18 45  1  0
 45 46  1  0
 46  5  1  0
 15  6  1  0
 44 25  1  0
 42 33  1  0
  1 47  1  0
  1 48  1  0
  1 49  1  0
  4 50  1  0
  7 51  1  0
  8 52  1  0
 14 53  1  0
 15 54  1  0
 16 55  1  0
 16 56  1  0
 17 57  1  0
 17 58  1  0
 21 59  1  0
 21 60  1  0
 22 61  1  0
 22 62  1  0
 26 63  1  0
 26 64  1  0
 27 65  1  0
 27 66  1  0
 29 67  1  0
 31 68  1  0
 31 69  1  0
 31 70  1  0
 34 71  1  0
 35 72  1  0
 41 73  1  0
 42 74  1  0
 43 75  1  0
 43 76  1  0
 44 77  1  0
 44 78  1  0
 45 79  1  0
 45 80  1  0
 46 81  1  0
 46 82  1  0
M  END
>  <Binding energies>  (1) 
[-8.48]

>  <Ligand effiencies>  (1) 
[-0.17666666666666667]

>  <Interactions>  (1) 
["V-B:PRO:540:CD:9859, V-B:LEU:363:CD1:8161, V-B:ILE:538:CD1:9837, V-B:PRO:540:CB:9857, V-B:TYR:539:C:9839, V-B:PRO:540:CG:9858, V-B:PRO:540:N:9856, V-A:ILE:369:CD1:3239, V-A:TYR:484:CZ:4347, V-B:TYR:539:CE2:9848, V-B:ILE:538:CG2:9835, V-B:ASP:366:CG:8185, V-A:LEU:475:CD2:4259, V-B:TYR:539:CD2:9846, V-B:ALA:541:CB:9864, V-A:GLU:543:CD:4908, V-A:GLU:543:CG:4907, H-A:GLU:543:OE1:4909, V-A:ILE:369:CG2:3237, V-A:ASP:366:CG:3213, V-A:ASP:366:CB:3212, V-A:ILE:369:CB:3236, H-A:ASP:366:OD1:3214, V-A:ASP:366:CA:3210, H-B:ASP:366:OD2:8187, V-B:TYR:539:CG:9844, V-A:TYR:484:CE1:4345, V-B:ASP:366:CB:8184, H-B:TYR:531:OH:9767, V-B:TYR:539:CZ:9849, V-B:MET:535:CE:9807, V-A:PRO:540:CA:4883, V-A:PRO:540:CB:4885, H-B:TYR:539:N:9842, V-A:ASN:362:CB:3176, V-A:TYR:539:CE1:4875, V-A:ALA:541:C:4888, V-A:ASN:362:CG:3177"]

$$$$
RR29_Rahimova_2017
     RDKit          3D

 35 36  0  0  0  0  0  0  0  0999 V2000
  132.5910  121.6260   61.1880 C   0  0  0  0  0  0  0  0  0  0  0  0
  131.7280  122.8720   61.0480 C   0  0  0  0  0  0  0  0  0  0  0  0
  130.5270  122.6690   60.0980 C   0  0  0  0  0  0  0  0  0  0  0  0
  129.1910  122.6200   60.8690 C   0  0  0  0  0  0  0  0  0  0  0  0
  127.9930  122.8640   59.9650 C   0  0  0  0  0  0  0  0  0  0  0  0
  126.8810  123.5820   60.4490 C   0  0  0  0  0  0  0  0  0  0  0  0
  125.7670  123.8200   59.6310 C   0  0  0  0  0  0  0  0  0  0  0  0
  125.7990  123.3120   58.3380 C   0  0  0  0  0  0  0  0  0  0  0  0
  126.8730  122.6140   57.8640 C   0  0  0  0  0  0  0  0  0  0  0  0
  127.9960  122.3720   58.6480 C   0  0  0  0  0  0  0  0  0  0  0  0
  126.6490  122.2700   56.5680 O   0  0  0  0  0  0  0  0  0  0  0  0
  125.3080  122.5920   56.3170 C   0  0  0  0  0  0  0  0  0  0  0  0
  124.8680  123.4290   57.3540 O   0  0  0  0  0  0  0  0  0  0  0  0
  132.0640  123.9280   61.6910 N   0  0  0  0  0  0  0  0  0  0  0  0
  131.3350  125.0810   61.4990 N   0  0  0  0  0  0  0  0  0  0  0  0
  130.9570  125.9050   62.4900 C   0  0  0  0  0  0  0  0  0  0  0  0
  131.2510  125.7310   63.7800 N   0  0  0  0  0  0  0  0  0  0  0  0
  130.2410  126.9710   62.1660 N   0  0  0  0  0  0  0  0  0  0  0  0
  132.7446  121.4043   62.2544 H   0  0  0  0  0  0  0  0  0  0  0  0
  132.0877  120.7753   60.7054 H   0  0  0  0  0  0  0  0  0  0  0  0
  133.5644  121.7980   60.7054 H   0  0  0  0  0  0  0  0  0  0  0  0
  130.4945  123.5028   59.3813 H   0  0  0  0  0  0  0  0  0  0  0  0
  130.6589  121.7080   59.5792 H   0  0  0  0  0  0  0  0  0  0  0  0
  129.0871  121.6285   61.3338 H   0  0  0  0  0  0  0  0  0  0  0  0
  129.2097  123.4186   61.6252 H   0  0  0  0  0  0  0  0  0  0  0  0
  126.8870  123.9606   61.4818 H   0  0  0  0  0  0  0  0  0  0  0  0
  124.8999  124.3879   59.9993 H   0  0  0  0  0  0  0  0  0  0  0  0
  128.8573  121.8146   58.2511 H   0  0  0  0  0  0  0  0  0  0  0  0
  125.2224  123.1140   55.3525 H   0  0  0  0  0  0  0  0  0  0  0  0
  124.6950  121.6797   56.2723 H   0  0  0  0  0  0  0  0  0  0  0  0
  131.0530  125.2860   60.5510 H   0  0  0  0  0  0  0  0  0  0  0  0
  131.2200  126.5140   64.4170 H   0  0  0  0  0  0  0  0  0  0  0  0
  131.5150  124.8140   64.1100 H   0  0  0  0  0  0  0  0  0  0  0  0
  129.7280  126.9900   61.2960 H   0  0  0  0  0  0  0  0  0  0  0  0
  130.2040  127.7620   62.7930 H   0  0  0  0  0  0  0  0  0  0  0  0
  1  2  1  0
  2  3  1  0
  3  4  1  0
  4  5  1  0
  5  6  2  0
  6  7  1  0
  7  8  2  0
  8  9  1  0
  9 10  2  0
  9 11  1  0
 11 12  1  0
 12 13  1  0
  2 14  2  0
 14 15  1  0
 15 16  1  0
 16 17  1  0
 16 18  2  0
 10  5  1  0
 13  8  1  0
  1 19  1  0
  1 20  1  0
  1 21  1  0
  3 22  1  0
  3 23  1  0
  4 24  1  0
  4 25  1  0
  6 26  1  0
  7 27  1  0
 10 28  1  0
 12 29  1  0
 12 30  1  0
 15 31  1  0
 17 32  1  0
 17 33  1  0
 18 34  1  0
 18 35  1  0
M  CHG  1  18   1
M  END
>  <Binding energies>  (1) 
[-7.33]

>  <Ligand effiencies>  (1) 
[-0.31869565217391305]

>  <Interactions>  (1) 
["V-B:PRO:540:CD:9859, V-B:LEU:363:CD1:8161, V-B:ILE:538:CD1:9837, V-B:PRO:540:CB:9857, V-B:TYR:539:C:9839, V-B:PRO:540:CA:9855, V-B:PRO:540:N:9856, V-A:TYR:484:CZ:4347, V-B:TYR:539:CE2:9848, V-B:ILE:538:CG2:9835, V-A:LEU:475:CD2:4259, H-A:TYR:484:OH:4348, V-B:TYR:539:CD2:9846, V-A:GLU:543:CD:4908, H-A:GLU:543:OE1:4909, H-A:GLU:543:OE2:4910, V-B:TYR:539:CG:9844, H-B:TYR:531:OH:9767, H-B:TYR:539:N:9842"]

$$$$
RR29_Rahimova_2017-again1
     RDKit          3D

 34 35  0  0  0  0  0  0  0  0999 V2000
  133.6710  123.7270   59.8740 C   0  0  0  0  0  0  0  0  0  0  0  0
  133.3880  123.6750   61.3670 C   0  0  0  0  0  0  0  0  0  0  0  0
  132.7500  122.3490   61.8260 C   0  0  0  0  0  0  0  0  0  0  0  0
  131.3220  122.1850   61.2640 C   0  0  0  0  0  0  0  0  0  0  0  0
  130.9500  120.7250   61.0550 C   0  0  0  0  0  0  0  0  0  0  0  0
  129.8660  120.1670   61.7620 C   0  0  0  0  0  0  0  0  0  0  0  0
  129.5050  118.8250   61.5830 C   0  0  0  0  0  0  0  0  0  0  0  0
  130.2590  118.0680   60.6930 C   0  0  0  0  0  0  0  0  0  0  0  0
  131.3130  118.6040   60.0060 C   0  0  0  0  0  0  0  0  0  0  0  0
  131.6870  119.9340   60.1570 C   0  0  0  0  0  0  0  0  0  0  0  0
  131.8440  117.6560   59.1900 O   0  0  0  0  0  0  0  0  0  0  0  0
  131.2220  116.4530   59.5510 C   0  0  0  0  0  0  0  0  0  0  0  0
  130.0980  116.7700   60.3270 O   0  0  0  0  0  0  0  0  0  0  0  0
  133.6710  124.6970   62.0960 N   0  0  0  0  0  0  0  0  0  0  0  0
  133.3880  124.6230   63.3570 N   0  0  0  0  0  0  0  0  0  0  0  0
  132.4760  125.4060   63.8030 C   0  0  0  0  0  0  0  0  0  0  0  0
  131.7180  126.3710   63.0820 N   0  0  0  0  0  0  0  0  0  0  0  0
  132.0990  125.3910   65.1630 N   0  0  0  0  0  0  0  0  0  0  0  0
  134.7408  123.9236   59.7102 H   0  0  0  0  0  0  0  0  0  0  0  0
  133.4008  122.7642   59.4158 H   0  0  0  0  0  0  0  0  0  0  0  0
  133.0761  124.5309   59.4158 H   0  0  0  0  0  0  0  0  0  0  0  0
  133.3712  121.5124   61.4736 H   0  0  0  0  0  0  0  0  0  0  0  0
  132.6903  122.3563   62.9244 H   0  0  0  0  0  0  0  0  0  0  0  0
  130.6093  122.6342   61.9713 H   0  0  0  0  0  0  0  0  0  0  0  0
  131.2851  122.6859   60.2854 H   0  0  0  0  0  0  0  0  0  0  0  0
  129.2957  120.7934   62.4637 H   0  0  0  0  0  0  0  0  0  0  0  0
  128.6556  118.3860   62.1270 H   0  0  0  0  0  0  0  0  0  0  0  0
  132.5323  120.3539   59.5921 H   0  0  0  0  0  0  0  0  0  0  0  0
  130.9119  115.9061   58.6484 H   0  0  0  0  0  0  0  0  0  0  0  0
  131.9156  115.8164   60.1199 H   0  0  0  0  0  0  0  0  0  0  0  0
  131.8550  126.5290   62.0940 H   0  0  0  0  0  0  0  0  0  0  0  0
  131.0190  126.9500   63.5210 H   0  0  0  0  0  0  0  0  0  0  0  0
  132.5320  124.7720   65.8330 H   0  0  0  0  0  0  0  0  0  0  0  0
  131.3870  126.0010   65.5360 H   0  0  0  0  0  0  0  0  0  0  0  0
  1  2  1  0
  2  3  1  0
  3  4  1  0
  4  5  1  0
  5  6  2  0
  6  7  1  0
  7  8  2  0
  8  9  1  0
  9 10  2  0
  9 11  1  0
 11 12  1  0
 12 13  1  0
  2 14  2  0
 14 15  1  0
 15 16  2  0
 16 17  1  0
 16 18  1  0
 10  5  1  0
 13  8  1  0
  1 19  1  0
  1 20  1  0
  1 21  1  0
  3 22  1  0
  3 23  1  0
  4 24  1  0
  4 25  1  0
  6 26  1  0
  7 27  1  0
 10 28  1  0
 12 29  1  0
 12 30  1  0
 17 31  1  0
 17 32  1  0
 18 33  1  0
 18 34  1  0
M  END
>  <Binding energies>  (1) 
[-6.53]

>  <Ligand effiencies>  (1) 
[-0.2968181818181818]

>  <Interactions>  (1) 
["V-A:ARG:545:CZ:4926, V-B:TYR:539:C:9839, V-A:ILE:369:CD1:3239, V-A:TYR:484:CZ:4347, V-A:TYR:484:CE2:4346, V-B:TYR:539:CE2:9848, V-B:PRO:540:C:9853, V-A:HIS:456:CE1:4070, V-A:SER:385:CB:3409, V-A:HIS:383:CE1:3394, V-A:PRO:482:CG:4327, V-A:PRO:482:CB:4326, V-B:TYR:539:CB:9843, V-A:LEU:475:CD2:4259, H-A:TYR:484:OH:4348, V-B:TYR:539:CD2:9846, V-A:LEU:475:CD1:4258, V-B:ALA:541:CB:9864, V-A:GLU:543:CD:4908, H-A:GLU:543:OE1:4909, V-A:GLY:454:CA:4049, H-A:GLY:454:N:4050, V-A:ILE:369:CG2:3237, H-A:ARG:545:NH2:4928, H-A:GLU:543:OE2:4910, V-A:ILE:369:CB:3236, H-A:ASP:366:OD2:3215, H-A:ASP:366:OD1:3214, H-B:GLU:543:OE2:9882, H-A:SER:385:OG:3410"]

$$$$
RR2_Rahimova_2017
     RDKit          3D

 76 80  0  0  0  0  0  0  0  0999 V2000
  129.8680  120.8020   61.4080 C   0  0  0  0  0  0  0  0  0  0  0  0
  129.8430  121.8280   62.3940 O   0  0  0  0  0  0  0  0  0  0  0  0
  129.1730  123.0070   62.1250 C   0  0  0  0  0  0  0  0  0  0  0  0
  129.6660  124.2840   62.4270 C   0  0  0  0  0  0  0  0  0  0  0  0
  128.9170  125.4160   62.1210 C   0  0  0  0  0  0  0  0  0  0  0  0
  127.6600  125.3010   61.5100 C   0  0  0  0  0  0  0  0  0  0  0  0
  126.8610  126.5500   61.1940 C   0  0  0  0  0  0  0  0  0  0  0  0
  126.1280  127.0550   62.0510 O   0  0  0  0  0  0  0  0  0  0  0  0
  127.0010  127.0380   59.9390 N   0  0  0  0  0  0  0  0  0  0  0  0
  126.2210  128.1270   59.5670 N   0  0  0  0  0  0  0  0  0  0  0  0
  126.1790  128.4660   58.2630 C   0  0  0  0  0  0  0  0  0  0  0  0
  126.9180  128.0020   57.3890 O   0  0  0  0  0  0  0  0  0  0  0  0
  125.1050  129.4930   57.8810 C   0  0  0  0  0  0  0  0  0  0  0  0
  125.1320  131.0420   58.8550 S   0  0  0  0  0  0  0  0  0  0  0  0
  125.0660  130.3940   60.4980 C   0  0  0  0  0  0  0  0  0  0  0  0
  123.9700  129.9220   61.0360 N   0  0  0  0  0  0  0  0  0  0  0  0
  124.2650  129.5710   62.3450 N   0  0  0  0  0  0  0  0  0  0  0  0
  125.5390  129.8170   62.5420 C   0  0  0  0  0  0  0  0  0  0  0  0
  126.2370  129.5520   63.8360 C   0  0  0  0  0  0  0  0  0  0  0  0
  127.4910  130.1190   64.0780 C   0  0  0  0  0  0  0  0  0  0  0  0
  128.1520  129.8710   65.2770 C   0  0  0  0  0  0  0  0  0  0  0  0
  127.5570  129.0650   66.2550 C   0  0  0  0  0  0  0  0  0  0  0  0
  128.1810  128.7730   67.4770 N   0  0  0  0  0  0  0  0  0  0  0  0
  128.3950  127.1370   68.1380 S   0  0  0  0  0  0  0  0  0  0  0  0
  129.4800  126.5260   67.3620 O   0  0  0  0  0  0  0  0  0  0  0  0
  127.0740  126.5010   68.2150 O   0  0  0  0  0  0  0  0  0  0  0  0
  129.0220  127.3810   69.7980 C   0  0  0  0  0  0  0  0  0  0  0  0
  130.1360  128.1930   70.0260 C   0  0  0  0  0  0  0  0  0  0  0  0
  130.6170  128.3570   71.3220 C   0  0  0  0  0  0  0  0  0  0  0  0
  129.9830  127.7160   72.3880 C   0  0  0  0  0  0  0  0  0  0  0  0
  130.5190  127.8840   73.7990 C   0  0  0  0  0  0  0  0  0  0  0  0
  128.8720  126.9020   72.1570 C   0  0  0  0  0  0  0  0  0  0  0  0
  128.3900  126.7360   70.8620 C   0  0  0  0  0  0  0  0  0  0  0  0
  126.3030  128.5020   66.0130 C   0  0  0  0  0  0  0  0  0  0  0  0
  125.6440  128.7440   64.8120 C   0  0  0  0  0  0  0  0  0  0  0  0
  126.1130  130.3510   61.4000 N   0  0  0  0  0  0  0  0  0  0  0  0
  127.4400  130.7900   61.2090 C   0  0  0  0  0  0  0  0  0  0  0  0
  128.4660  129.8580   61.0470 C   0  0  0  0  0  0  0  0  0  0  0  0
  129.7720  130.2980   60.8540 C   0  0  0  0  0  0  0  0  0  0  0  0
  130.0650  131.6630   60.8230 C   0  0  0  0  0  0  0  0  0  0  0  0
  131.3900  132.0020   60.6280 O   0  0  0  0  0  0  0  0  0  0  0  0
  132.4090  131.1290   61.1060 C   0  0  0  0  0  0  0  0  0  0  0  0
  129.0260  132.5930   60.9880 C   0  0  0  0  0  0  0  0  0  0  0  0
  127.7180  132.1580   61.1780 C   0  0  0  0  0  0  0  0  0  0  0  0
  127.1760  124.0190   61.2060 C   0  0  0  0  0  0  0  0  0  0  0  0
  127.9280  122.8880   61.5110 C   0  0  0  0  0  0  0  0  0  0  0  0
  129.8919  119.8194   61.9018 H   0  0  0  0  0  0  0  0  0  0  0  0
  128.9678  120.8749   60.7800 H   0  0  0  0  0  0  0  0  0  0  0  0
  130.7636  120.9187   60.7800 H   0  0  0  0  0  0  0  0  0  0  0  0
  130.6494  124.3917   62.9080 H   0  0  0  0  0  0  0  0  0  0  0  0
  129.3155  126.4128   62.3612 H   0  0  0  0  0  0  0  0  0  0  0  0
  127.1930  126.4310   59.1550 H   0  0  0  0  0  0  0  0  0  0  0  0
  125.4720  128.3230   60.2180 H   0  0  0  0  0  0  0  0  0  0  0  0
  125.2444  129.7540   56.8215 H   0  0  0  0  0  0  0  0  0  0  0  0
  124.1362  129.0159   58.0904 H   0  0  0  0  0  0  0  0  0  0  0  0
  127.9571  130.7635   63.3182 H   0  0  0  0  0  0  0  0  0  0  0  0
  129.1447  130.3094   65.4570 H   0  0  0  0  0  0  0  0  0  0  0  0
  128.5590  129.5450   68.0070 H   0  0  0  0  0  0  0  0  0  0  0  0
  130.6309  128.7006   69.1849 H   0  0  0  0  0  0  0  0  0  0  0  0
  131.4965  128.9915   71.5062 H   0  0  0  0  0  0  0  0  0  0  0  0
  129.7290  127.6364   74.5232 H   0  0  0  0  0  0  0  0  0  0  0  0
  131.3768  127.2116   73.9479 H   0  0  0  0  0  0  0  0  0  0  0  0
  130.8395  128.9257   73.9479 H   0  0  0  0  0  0  0  0  0  0  0  0
  128.3784  126.3926   72.9977 H   0  0  0  0  0  0  0  0  0  0  0  0
  127.5131  126.0980   70.6776 H   0  0  0  0  0  0  0  0  0  0  0  0
  125.8334  127.8636   66.7759 H   0  0  0  0  0  0  0  0  0  0  0  0
  124.6547  128.2991   64.6294 H   0  0  0  0  0  0  0  0  0  0  0  0
  128.2435  128.7810   61.0717 H   0  0  0  0  0  0  0  0  0  0  0  0
  130.5809  129.5639   60.7247 H   0  0  0  0  0  0  0  0  0  0  0  0
  132.4070  131.1307   62.2060 H   0  0  0  0  0  0  0  0  0  0  0  0
  132.2191  130.1090   60.7406 H   0  0  0  0  0  0  0  0  0  0  0  0
  133.3878  131.4731   60.7406 H   0  0  0  0  0  0  0  0  0  0  0  0
  129.2471  133.6703   60.9670 H   0  0  0  0  0  0  0  0  0  0  0  0
  126.9059  132.8892   61.3033 H   0  0  0  0  0  0  0  0  0  0  0  0
  126.1942  123.9071   60.7227 H   0  0  0  0  0  0  0  0  0  0  0  0
  127.5354  121.8904   61.2648 H   0  0  0  0  0  0  0  0  0  0  0  0
  1  2  1  0
  2  3  1  0
  3  4  2  0
  4  5  1  0
  5  6  2  0
  6  7  1  0
  7  8  2  0
  7  9  1  0
  9 10  1  0
 10 11  1  0
 11 12  2  0
 11 13  1  0
 13 14  1  0
 14 15  1  0
 15 16  2  0
 16 17  1  0
 17 18  2  0
 18 19  1  0
 19 20  2  0
 20 21  1  0
 21 22  2  0
 22 23  1  0
 23 24  1  0
 24 25  2  0
 24 26  2  0
 24 27  1  0
 27 28  2  0
 28 29  1  0
 29 30  2  0
 30 31  1  0
 30 32  1  0
 32 33  2  0
 22 34  1  0
 34 35  2  0
 18 36  1  0
 36 37  1  0
 37 38  2  0
 38 39  1  0
 39 40  2  0
 40 41  1  0
 41 42  1  0
 40 43  1  0
 43 44  2  0
  6 45  1  0
 45 46  2  0
 46  3  1  0
 36 15  1  0
 44 37  1  0
 35 19  1  0
 33 27  1  0
  1 47  1  0
  1 48  1  0
  1 49  1  0
  4 50  1  0
  5 51  1  0
  9 52  1  0
 10 53  1  0
 13 54  1  0
 13 55  1  0
 20 56  1  0
 21 57  1  0
 23 58  1  0
 28 59  1  0
 29 60  1  0
 31 61  1  0
 31 62  1  0
 31 63  1  0
 32 64  1  0
 33 65  1  0
 34 66  1  0
 35 67  1  0
 38 68  1  0
 39 69  1  0
 42 70  1  0
 42 71  1  0
 42 72  1  0
 43 73  1  0
 44 74  1  0
 45 75  1  0
 46 76  1  0
M  END
>  <Binding energies>  (1) 
[-9.29]

>  <Ligand effiencies>  (1) 
[-0.18959183673469385]

>  <Interactions>  (1) 
["V-B:PRO:540:CA:9855, V-B:GLU:543:CD:9880, V-A:HIS:456:CE1:4070, V-B:ASP:366:CG:8185, V-A:LEU:475:CD2:4259, H-A:TYR:484:OH:4348, V-B:ALA:541:CB:9864, V-A:GLU:543:C:4902, V-B:HIS:456:CE1:9042, V-A:GLY:544:CA:4914, V-B:ARG:545:CZ:9898, V-A:GLU:543:CB:4906, V-A:GLU:543:CD:4908, V-A:GLY:544:C:4912, V-A:GLU:543:CG:4907, V-B:TYR:484:CZ:9319, V-A:HIS:456:CD2:4068, H-B:ASP:366:OD2:8187, V-B:ASP:366:CB:8184, H-B:TYR:531:OH:9767, H-B:ARG:545:NH2:9900, V-A:PRO:540:CA:4883, V-A:PRO:540:CB:4885, V-A:PRO:540:C:4881, H-A:ALA:541:N:4891, V-A:ALA:541:CB:4892, V-B:GLU:543:CB:9878, V-B:HIS:456:CD2:9040, V-B:TYR:484:CE2:9318, V-A:LYS:547:CE:4950, H-A:GLU:543:O:4903, H-B:HIS:456:NE2:9043, H-B:ASP:366:OD1:8186"]

$$$$
RR30_Rahimova_2017
     RDKit          3D

 29 30  0  0  0  0  0  0  0  0999 V2000
  130.0190  125.6760   63.3510 C   0  0  0  0  0  0  0  0  0  0  0  0
  131.5000  125.7610   63.7490 C   0  0  0  0  0  0  0  0  0  0  0  0
  132.4020  125.0630   62.7540 C   0  0  0  0  0  0  0  0  0  0  0  0
  133.6260  124.6330   62.9340 N   0  0  0  0  0  0  0  0  0  0  0  0
  134.0170  124.0770   61.7180 N   0  0  0  0  0  0  0  0  0  0  0  0
  133.0010  124.2270   60.9080 C   0  0  0  0  0  0  0  0  0  0  0  0
  132.8810  123.7110   59.2250 S   0  0  0  0  0  0  0  0  0  0  0  0
  131.6490  124.9060   58.6180 C   0  0  0  0  0  0  0  0  0  0  0  0
  130.2250  124.3460   58.6710 C   0  0  0  0  0  0  0  0  0  0  0  0
  129.7020  124.1310   59.7670 O   0  0  0  0  0  0  0  0  0  0  0  0
  129.6460  124.0910   57.4760 N   0  0  0  0  0  0  0  0  0  0  0  0
  128.3730  123.5810   57.2700 C   0  0  0  0  0  0  0  0  0  0  0  0
  128.0280  122.4910   56.6230 N   0  0  0  0  0  0  0  0  0  0  0  0
  126.6530  122.2930   56.6180 N   0  0  0  0  0  0  0  0  0  0  0  0
  125.9890  123.2290   57.2550 C   0  0  0  0  0  0  0  0  0  0  0  0
  124.4830  123.2360   57.3840 C   0  0  0  0  0  0  0  0  0  0  0  0
  127.0270  124.4560   57.9310 S   0  0  0  0  0  0  0  0  0  0  0  0
  131.9420  124.8400   61.4980 O   0  0  0  0  0  0  0  0  0  0  0  0
  129.3971  125.6403   64.2577 H   0  0  0  0  0  0  0  0  0  0  0  0
  129.7481  126.5601   62.7552 H   0  0  0  0  0  0  0  0  0  0  0  0
  129.8511  124.7667   62.7552 H   0  0  0  0  0  0  0  0  0  0  0  0
  131.7905  126.8203   63.8077 H   0  0  0  0  0  0  0  0  0  0  0  0
  131.6173  125.2585   64.7205 H   0  0  0  0  0  0  0  0  0  0  0  0
  131.6970  125.8115   59.2408 H   0  0  0  0  0  0  0  0  0  0  0  0
  131.8849  125.1299   57.5672 H   0  0  0  0  0  0  0  0  0  0  0  0
  130.1860  124.2810   56.6440 H   0  0  0  0  0  0  0  0  0  0  0  0
  124.2062  123.2373   58.4486 H   0  0  0  0  0  0  0  0  0  0  0  0
  124.0776  124.1360   56.8986 H   0  0  0  0  0  0  0  0  0  0  0  0
  124.0692  122.3398   56.8986 H   0  0  0  0  0  0  0  0  0  0  0  0
  1  2  1  0
  2  3  1  0
  3  4  2  0
  4  5  1  0
  5  6  2  0
  6  7  1  0
  7  8  1  0
  8  9  1  0
  9 10  2  0
  9 11  1  0
 11 12  1  0
 12 13  2  0
 13 14  1  0
 14 15  2  0
 15 16  1  0
 15 17  1  0
  6 18  1  0
 18  3  1  0
 17 12  1  0
  1 19  1  0
  1 20  1  0
  1 21  1  0
  2 22  1  0
  2 23  1  0
  8 24  1  0
  8 25  1  0
 11 26  1  0
 16 27  1  0
 16 28  1  0
 16 29  1  0
M  END
>  <Binding energies>  (1) 
[-6.21]

>  <Ligand effiencies>  (1) 
[-0.3268421052631579]

>  <Interactions>  (1) 
["V-B:PRO:540:CD:9859, V-B:LEU:363:CD1:8161, V-B:PRO:540:CB:9857, V-A:ARG:545:CZ:4926, V-B:PRO:540:N:9856, V-B:GLU:543:CD:9880, V-B:TYR:539:CE2:9848, H-A:TYR:484:OH:4348, V-B:TYR:539:CD2:9846, V-A:GLU:543:CD:4908, H-A:GLY:454:N:4050, H-A:ARG:545:NH2:4928, V-B:TYR:531:CE2:9765, V-B:TYR:539:CZ:9849, V-B:TYR:539:CE1:9847, H-B:TYR:539:N:9842, H-B:TYR:539:OH:9850"]

$$$$
RR31_Rahimova_2017
     RDKit          3D

 44 45  0  0  0  0  0  0  0  0999 V2000
  134.1230  124.6540   62.2180 C   0  0  0  0  0  0  0  0  0  0  0  0
  132.9020  124.4040   61.3430 C   0  0  0  0  0  0  0  0  0  0  0  0
  132.0560  125.4690   61.0340 C   0  0  0  0  0  0  0  0  0  0  0  0
  130.9330  125.2740   60.2320 C   0  0  0  0  0  0  0  0  0  0  0  0
  130.6270  124.0070   59.7090 C   0  0  0  0  0  0  0  0  0  0  0  0
  129.5000  123.7930   58.9120 N   0  0  0  0  0  0  0  0  0  0  0  0
  128.1810  123.4730   59.4940 C   0  0  0  0  0  0  0  0  0  0  0  0
  127.1750  122.8740   58.4830 C   0  0  0  0  0  0  0  0  0  0  0  0
  127.0000  123.7610   57.3300 N   0  0  0  0  0  0  0  0  0  0  0  0
  126.0240  123.2360   56.3700 C   0  0  0  0  0  0  0  0  0  0  0  0
  124.8740  122.4610   57.0430 C   0  0  0  0  0  0  0  0  0  0  0  0
  123.8670  123.3950   57.7330 C   0  0  0  0  0  0  0  0  0  0  0  0
  124.5500  124.7140   58.1110 N   0  0  0  0  0  0  0  0  0  0  0  0
  128.3040  123.8980   56.6820 C   0  0  0  0  0  0  0  0  0  0  0  0
  129.3320  124.5330   57.6460 C   0  0  0  0  0  0  0  0  0  0  0  0
  131.4810  122.9430   60.0340 C   0  0  0  0  0  0  0  0  0  0  0  0
  132.6120  123.1260   60.8390 C   0  0  0  0  0  0  0  0  0  0  0  0
  133.4980  121.9290   61.1590 C   0  0  0  0  0  0  0  0  0  0  0  0
  133.8332  124.5947   63.2775 H   0  0  0  0  0  0  0  0  0  0  0  0
  134.8891  123.8941   62.0043 H   0  0  0  0  0  0  0  0  0  0  0  0
  134.5287  125.6539   62.0043 H   0  0  0  0  0  0  0  0  0  0  0  0
  132.2772  126.4723   61.4270 H   0  0  0  0  0  0  0  0  0  0  0  0
  130.2757  126.1263   60.0050 H   0  0  0  0  0  0  0  0  0  0  0  0
  128.3287  122.7464   60.3066 H   0  0  0  0  0  0  0  0  0  0  0  0
  127.7505  124.4218   59.8467 H   0  0  0  0  0  0  0  0  0  0  0  0
  127.5511  121.9008   58.1346 H   0  0  0  0  0  0  0  0  0  0  0  0
  126.2032  122.7539   58.9841 H   0  0  0  0  0  0  0  0  0  0  0  0
  125.5965  124.0795   55.8080 H   0  0  0  0  0  0  0  0  0  0  0  0
  126.5550  122.5317   55.7128 H   0  0  0  0  0  0  0  0  0  0  0  0
  124.3456  121.8755   56.2762 H   0  0  0  0  0  0  0  0  0  0  0  0
  125.3124  121.8102   57.8138 H   0  0  0  0  0  0  0  0  0  0  0  0
  123.0318  123.6006   57.0474 H   0  0  0  0  0  0  0  0  0  0  0  0
  123.4898  122.9092   58.6450 H   0  0  0  0  0  0  0  0  0  0  0  0
  123.8610  125.4460   58.2150 H   0  0  0  0  0  0  0  0  0  0  0  0
  125.2060  124.9850   57.3930 H   0  0  0  0  0  0  0  0  0  0  0  0
  125.0480  124.6110   58.9840 H   0  0  0  0  0  0  0  0  0  0  0  0
  128.6617  122.9033   56.3775 H   0  0  0  0  0  0  0  0  0  0  0  0
  128.1943  124.5509   55.8035 H   0  0  0  0  0  0  0  0  0  0  0  0
  130.3060  124.5734   57.1364 H   0  0  0  0  0  0  0  0  0  0  0  0
  128.9509  125.5312   57.9074 H   0  0  0  0  0  0  0  0  0  0  0  0
  131.2564  121.9384   59.6463 H   0  0  0  0  0  0  0  0  0  0  0  0
  133.5817  121.8160   62.2500 H   0  0  0  0  0  0  0  0  0  0  0  0
  133.0542  121.0190   60.7291 H   0  0  0  0  0  0  0  0  0  0  0  0
  134.4980  122.0876   60.7291 H   0  0  0  0  0  0  0  0  0  0  0  0
  1  2  1  0
  2  3  2  0
  3  4  1  0
  4  5  2  0
  5  6  1  0
  6  7  1  0
  7  8  1  0
  8  9  1  0
  9 10  1  0
 10 11  1  0
 11 12  1  0
 12 13  1  0
  9 14  1  0
 14 15  1  0
  5 16  1  0
 16 17  2  0
 17 18  1  0
 17  2  1  0
 15  6  1  0
  1 19  1  0
  1 20  1  0
  1 21  1  0
  3 22  1  0
  4 23  1  0
  7 24  1  0
  7 25  1  0
  8 26  1  0
  8 27  1  0
 10 28  1  0
 10 29  1  0
 11 30  1  0
 11 31  1  0
 12 32  1  0
 12 33  1  0
 13 34  1  0
 13 35  1  0
 13 36  1  0
 14 37  1  0
 14 38  1  0
 15 39  1  0
 15 40  1  0
 16 41  1  0
 18 42  1  0
 18 43  1  0
 18 44  1  0
M  CHG  1  13   1
M  END
>  <Binding energies>  (1) 
[-6.25]

>  <Ligand effiencies>  (1) 
[-0.2976190476190476]

>  <Interactions>  (1) 
["V-B:PRO:540:CD:9859, V-B:LEU:363:CD1:8161, V-B:PRO:540:CB:9857, V-A:ARG:545:CZ:4926, V-B:TYR:539:C:9839, V-B:PRO:540:CA:9855, V-B:PRO:540:CG:9858, V-B:PRO:540:N:9856, V-A:ILE:369:CD1:3239, V-B:TYR:539:CE2:9848, V-B:ASP:366:CG:8185, V-A:LEU:475:CD2:4259, V-B:TYR:539:CD2:9846, V-A:ILE:369:CG2:3237, V-A:ASP:366:CG:3213, V-A:GLY:453:CA:4044, V-A:GLY:453:C:4042, V-B:TYR:531:CE2:9765, H-B:ASP:366:OD2:8187, V-B:TYR:531:CZ:9766, V-B:ASP:366:CB:8184, H-B:TYR:531:OH:9767, V-B:TYR:539:CZ:9849, V-B:TYR:539:CE1:9847, V-B:MET:535:CE:9807, V-B:LEU:363:CA:8157, V-B:LEU:363:CB:8159, V-B:LEU:363:CG:8160"]

$$$$
RR32_Rahimova_2017
     RDKit          3D

 37 39  0  0  0  0  0  0  0  0999 V2000
  125.5350  123.9340   61.4440 C   0  0  0  0  0  0  0  0  0  0  0  0
  126.4530  123.5020   60.3050 C   0  0  0  0  0  0  0  0  0  0  0  0
  127.7990  123.2750   60.5910 C   0  0  0  0  0  0  0  0  0  0  0  0
  128.6650  122.8770   59.5770 C   0  0  0  0  0  0  0  0  0  0  0  0
  130.0010  122.6530   59.8660 N   0  0  0  0  0  0  0  0  0  0  0  0
  130.7520  123.7600   60.4860 C   0  0  0  0  0  0  0  0  0  0  0  0
  132.2690  123.4790   60.6010 C   0  0  0  0  0  0  0  0  0  0  0  0
  132.4990  122.2630   61.3820 N   0  0  0  0  0  0  0  0  0  0  0  0
  133.9310  122.0160   61.5180 C   0  0  0  0  0  0  0  0  0  0  0  0
  131.8570  121.1510   60.6850 C   0  0  0  0  0  0  0  0  0  0  0  0
  130.3340  121.3990   60.5670 C   0  0  0  0  0  0  0  0  0  0  0  0
  128.2570  122.6960   58.2950 N   0  0  0  0  0  0  0  0  0  0  0  0
  126.9500  122.9120   57.9830 C   0  0  0  0  0  0  0  0  0  0  0  0
  126.5530  122.7180   56.6380 C   0  0  0  0  0  0  0  0  0  0  0  0
  125.2300  122.9230   56.2610 C   0  0  0  0  0  0  0  0  0  0  0  0
  124.2840  123.3200   57.1990 C   0  0  0  0  0  0  0  0  0  0  0  0
  124.6420  123.5200   58.5290 C   0  0  0  0  0  0  0  0  0  0  0  0
  125.9860  123.3210   58.9600 C   0  0  0  0  0  0  0  0  0  0  0  0
  126.0150  123.7081   62.4076 H   0  0  0  0  0  0  0  0  0  0  0  0
  125.3464  125.0154   61.3729 H   0  0  0  0  0  0  0  0  0  0  0  0
  124.5815  123.3901   61.3729 H   0  0  0  0  0  0  0  0  0  0  0  0
  128.1752  123.4103   61.6158 H   0  0  0  0  0  0  0  0  0  0  0  0
  130.6093  124.6640   59.8758 H   0  0  0  0  0  0  0  0  0  0  0  0
  130.3647  123.8854   61.5079 H   0  0  0  0  0  0  0  0  0  0  0  0
  132.6921  123.3497   59.5939 H   0  0  0  0  0  0  0  0  0  0  0  0
  132.7544  124.3274   61.1057 H   0  0  0  0  0  0  0  0  0  0  0  0
  134.1955  121.9704   62.5847 H   0  0  0  0  0  0  0  0  0  0  0  0
  134.1857  121.0607   61.0359 H   0  0  0  0  0  0  0  0  0  0  0  0
  134.4910  122.8308   61.0359 H   0  0  0  0  0  0  0  0  0  0  0  0
  132.2885  121.0565   59.6776 H   0  0  0  0  0  0  0  0  0  0  0  0
  132.0259  120.2257   61.2554 H   0  0  0  0  0  0  0  0  0  0  0  0
  129.8852  120.5602   60.0147 H   0  0  0  0  0  0  0  0  0  0  0  0
  129.9366  121.4812   61.5894 H   0  0  0  0  0  0  0  0  0  0  0  0
  127.2939  122.4039   55.8881 H   0  0  0  0  0  0  0  0  0  0  0  0
  124.9303  122.7700   55.2137 H   0  0  0  0  0  0  0  0  0  0  0  0
  123.2411  123.4778   56.8867 H   0  0  0  0  0  0  0  0  0  0  0  0
  123.8790  123.8353   59.2559 H   0  0  0  0  0  0  0  0  0  0  0  0
  1  2  1  0
  2  3  2  0
  3  4  1  0
  4  5  1  0
  5  6  1  0
  6  7  1  0
  7  8  1  0
  8  9  1  0
  8 10  1  0
 10 11  1  0
  4 12  2  0
 12 13  1  0
 13 14  2  0
 14 15  1  0
 15 16  2  0
 16 17  1  0
 17 18  2  0
 18  2  1  0
 11  5  1  0
 18 13  1  0
  1 19  1  0
  1 20  1  0
  1 21  1  0
  3 22  1  0
  6 23  1  0
  6 24  1  0
  7 25  1  0
  7 26  1  0
  9 27  1  0
  9 28  1  0
  9 29  1  0
 10 30  1  0
 10 31  1  0
 11 32  1  0
 11 33  1  0
 14 34  1  0
 15 35  1  0
 16 36  1  0
 17 37  1  0
M  END
>  <Binding energies>  (1) 
[-6.52]

>  <Ligand effiencies>  (1) 
[-0.3622222222222222]

>  <Interactions>  (1) 
["V-B:LEU:363:CD1:8161, V-B:ILE:538:CD1:9837, V-B:PRO:540:CB:9857, V-B:TYR:539:C:9839, V-B:PRO:540:CA:9855, V-B:PRO:540:N:9856, V-A:ILE:369:CD1:3239, V-B:TYR:539:CE2:9848, V-A:LEU:475:CD2:4259, H-A:TYR:484:OH:4348, V-B:TYR:539:CD2:9846, V-A:GLY:454:CA:4049, V-A:ILE:369:CG2:3237, V-B:TYR:531:CE2:9765, V-B:TYR:531:CZ:9766"]

$$$$
RR32_Rahimova_2017-again1
     RDKit          3D

 38 40  0  0  0  0  0  0  0  0999 V2000
  132.8030  121.8020   60.0060 C   0  0  0  0  0  0  0  0  0  0  0  0
  131.5260  121.3420   60.6940 C   0  0  0  0  0  0  0  0  0  0  0  0
  130.7200  122.2600   61.3690 C   0  0  0  0  0  0  0  0  0  0  0  0
  129.5440  121.8360   61.9960 C   0  0  0  0  0  0  0  0  0  0  0  0
  128.7270  122.7360   62.6870 N   0  0  0  0  0  0  0  0  0  0  0  0
  129.1580  124.1350   62.8840 C   0  0  0  0  0  0  0  0  0  0  0  0
  128.7800  125.0470   61.6930 C   0  0  0  0  0  0  0  0  0  0  0  0
  127.2460  125.0480   61.5430 N   0  0  0  0  0  0  0  0  0  0  0  0
  126.8130  125.9310   60.3570 C   0  0  0  0  0  0  0  0  0  0  0  0
  126.7670  123.5960   61.3460 C   0  0  0  0  0  0  0  0  0  0  0  0
  127.2550  122.7480   62.5440 C   0  0  0  0  0  0  0  0  0  0  0  0
  129.1710  120.5260   61.9900 N   0  0  0  0  0  0  0  0  0  0  0  0
  129.9350  119.6080   61.3380 C   0  0  0  0  0  0  0  0  0  0  0  0
  129.5080  118.2580   61.3390 C   0  0  0  0  0  0  0  0  0  0  0  0
  130.2580  117.2870   60.6820 C   0  0  0  0  0  0  0  0  0  0  0  0
  131.4320  117.6280   60.0190 C   0  0  0  0  0  0  0  0  0  0  0  0
  131.8790  118.9470   60.0020 C   0  0  0  0  0  0  0  0  0  0  0  0
  131.1400  119.9680   60.6610 C   0  0  0  0  0  0  0  0  0  0  0  0
  133.5518  122.0717   60.7653 H   0  0  0  0  0  0  0  0  0  0  0  0
  133.1945  120.9884   59.3777 H   0  0  0  0  0  0  0  0  0  0  0  0
  132.5857  122.6784   59.3777 H   0  0  0  0  0  0  0  0  0  0  0  0
  131.0106  123.3202   61.4079 H   0  0  0  0  0  0  0  0  0  0  0  0
  128.6789  124.5265   63.7935 H   0  0  0  0  0  0  0  0  0  0  0  0
  130.2546  124.1369   62.9703 H   0  0  0  0  0  0  0  0  0  0  0  0
  129.1346  126.0708   61.8829 H   0  0  0  0  0  0  0  0  0  0  0  0
  129.2479  124.6737   60.7701 H   0  0  0  0  0  0  0  0  0  0  0  0
  126.8410  125.4060   62.3960 H   0  0  0  0  0  0  0  0  0  0  0  0
  126.3585  126.8579   60.7367 H   0  0  0  0  0  0  0  0  0  0  0  0
  127.6921  126.1782   59.7438 H   0  0  0  0  0  0  0  0  0  0  0  0
  126.0793  125.3873   59.7438 H   0  0  0  0  0  0  0  0  0  0  0  0
  125.6683  123.5716   61.2979 H   0  0  0  0  0  0  0  0  0  0  0  0
  127.1740  123.1902   60.4081 H   0  0  0  0  0  0  0  0  0  0  0  0
  126.8174  123.1598   63.4654 H   0  0  0  0  0  0  0  0  0  0  0  0
  126.9353  121.7112   62.3629 H   0  0  0  0  0  0  0  0  0  0  0  0
  128.5813  117.9760   61.8603 H   0  0  0  0  0  0  0  0  0  0  0  0
  129.9192  116.2405   60.6872 H   0  0  0  0  0  0  0  0  0  0  0  0
  132.0128  116.8490   59.5034 H   0  0  0  0  0  0  0  0  0  0  0  0
  132.8105  119.2010   59.4750 H   0  0  0  0  0  0  0  0  0  0  0  0
  1  2  1  0
  2  3  2  0
  3  4  1  0
  4  5  1  0
  5  6  1  0
  6  7  1  0
  7  8  1  0
  8  9  1  0
  8 10  1  0
 10 11  1  0
  4 12  2  0
 12 13  1  0
 13 14  2  0
 14 15  1  0
 15 16  2  0
 16 17  1  0
 17 18  2  0
 18  2  1  0
 11  5  1  0
 18 13  1  0
  1 19  1  0
  1 20  1  0
  1 21  1  0
  3 22  1  0
  6 23  1  0
  6 24  1  0
  7 25  1  0
  7 26  1  0
  8 27  1  0
  9 28  1  0
  9 29  1  0
  9 30  1  0
 10 31  1  0
 10 32  1  0
 11 33  1  0
 11 34  1  0
 14 35  1  0
 15 36  1  0
 16 37  1  0
 17 38  1  0
M  CHG  1   8   1
M  END
>  <Binding energies>  (1) 
[-6.91]

>  <Ligand effiencies>  (1) 
[-0.3636842105263158]

>  <Interactions>  (1) 
["V-B:TYR:539:C:9839, V-B:PRO:540:CA:9855, V-B:GLU:543:CD:9880, V-A:TYR:484:CZ:4347, V-B:TYR:539:CE2:9848, V-B:PRO:540:C:9853, H-B:ALA:541:N:9863, V-A:SER:385:CB:3409, V-A:PRO:482:CG:4327, V-A:PRO:482:CB:4326, V-A:LEU:475:CD2:4259, V-B:ALA:541:CA:9862, V-B:TYR:539:CD2:9846, V-A:LEU:475:CD1:4258, V-B:ALA:541:CB:9864, V-A:ILE:369:CG2:3237, H-B:GLU:543:OE2:9882, H-B:GLU:543:OE1:9881, V-B:GLU:543:CG:9879, V-A:TYR:484:CE1:4345"]

$$$$
RR32_Rahimova_2017-again2
     RDKit          3D

 39 41  0  0  0  0  0  0  0  0999 V2000
  129.1330  124.4040   56.2660 C   0  0  0  0  0  0  0  0  0  0  0  0
  128.1020  124.7280   57.3400 C   0  0  0  0  0  0  0  0  0  0  0  0
  128.4110  125.6350   58.3580 C   0  0  0  0  0  0  0  0  0  0  0  0
  127.4780  125.9410   59.3580 C   0  0  0  0  0  0  0  0  0  0  0  0
  127.7410  126.8790   60.4200 N   0  0  0  0  0  0  0  0  0  0  0  0
  127.5830  126.4820   61.8440 C   0  0  0  0  0  0  0  0  0  0  0  0
  128.8740  125.7990   62.3700 C   0  0  0  0  0  0  0  0  0  0  0  0
  130.0660  126.7780   62.2390 N   0  0  0  0  0  0  0  0  0  0  0  0
  131.3780  126.1150   62.6990 C   0  0  0  0  0  0  0  0  0  0  0  0
  130.1820  127.2860   60.7820 C   0  0  0  0  0  0  0  0  0  0  0  0
  128.8240  127.8930   60.3420 C   0  0  0  0  0  0  0  0  0  0  0  0
  126.2720  125.3400   59.3010 N   0  0  0  0  0  0  0  0  0  0  0  0
  125.8800  124.4380   58.3390 C   0  0  0  0  0  0  0  0  0  0  0  0
  124.5890  123.8650   58.3740 C   0  0  0  0  0  0  0  0  0  0  0  0
  124.2240  122.9580   57.3820 C   0  0  0  0  0  0  0  0  0  0  0  0
  125.1170  122.6180   56.3680 C   0  0  0  0  0  0  0  0  0  0  0  0
  126.3950  123.1760   56.3220 C   0  0  0  0  0  0  0  0  0  0  0  0
  126.8140  124.1080   57.3130 C   0  0  0  0  0  0  0  0  0  0  0  0
  130.0785  124.1069   56.7432 H   0  0  0  0  0  0  0  0  0  0  0  0
  128.7631  123.5788   55.6397 H   0  0  0  0  0  0  0  0  0  0  0  0
  129.3017  125.2924   55.6397 H   0  0  0  0  0  0  0  0  0  0  0  0
  129.4005  126.1153   58.3743 H   0  0  0  0  0  0  0  0  0  0  0  0
  127.3769  127.3780   62.4479 H   0  0  0  0  0  0  0  0  0  0  0  0
  126.7490  125.7690   61.9218 H   0  0  0  0  0  0  0  0  0  0  0  0
  128.7392  125.5247   63.4267 H   0  0  0  0  0  0  0  0  0  0  0  0
  129.0766  124.8936   61.7791 H   0  0  0  0  0  0  0  0  0  0  0  0
  129.8740  127.5770   62.8290 H   0  0  0  0  0  0  0  0  0  0  0  0
  131.4139  126.0969   63.7983 H   0  0  0  0  0  0  0  0  0  0  0  0
  131.4235  125.0857   62.3136 H   0  0  0  0  0  0  0  0  0  0  0  0
  132.2336  126.6889   62.3136 H   0  0  0  0  0  0  0  0  0  0  0  0
  130.9654  128.0559   60.7224 H   0  0  0  0  0  0  0  0  0  0  0  0
  130.4437  126.4482   60.1190 H   0  0  0  0  0  0  0  0  0  0  0  0
  128.5757  128.7369   61.0024 H   0  0  0  0  0  0  0  0  0  0  0  0
  128.9122  128.2342   59.3000 H   0  0  0  0  0  0  0  0  0  0  0  0
  125.6030  125.5770   60.0180 H   0  0  0  0  0  0  0  0  0  0  0  0
  123.8821  124.1315   59.1735 H   0  0  0  0  0  0  0  0  0  0  0  0
  123.2214  122.5059   57.3993 H   0  0  0  0  0  0  0  0  0  0  0  0
  124.8103  121.8999   55.5932 H   0  0  0  0  0  0  0  0  0  0  0  0
  127.0847  122.8933   55.5130 H   0  0  0  0  0  0  0  0  0  0  0  0
  1  2  1  0
  2  3  2  0
  3  4  1  0
  4  5  1  0
  5  6  1  0
  6  7  1  0
  7  8  1  0
  8  9  1  0
  8 10  1  0
 10 11  1  0
  4 12  2  0
 12 13  1  0
 13 14  2  0
 14 15  1  0
 15 16  2  0
 16 17  1  0
 17 18  2  0
 18  2  1  0
 11  5  1  0
 18 13  1  0
  1 19  1  0
  1 20  1  0
  1 21  1  0
  3 22  1  0
  6 23  1  0
  6 24  1  0
  7 25  1  0
  7 26  1  0
  8 27  1  0
  9 28  1  0
  9 29  1  0
  9 30  1  0
 10 31  1  0
 10 32  1  0
 11 33  1  0
 11 34  1  0
 12 35  1  0
 14 36  1  0
 15 37  1  0
 16 38  1  0
 17 39  1  0
M  CHG  2   8   1  12   1
M  END
>  <Binding energies>  (1) 
[-7.22]

>  <Ligand effiencies>  (1) 
[-0.361]

>  <Interactions>  (1) 
["V-B:PRO:540:CD:9859, V-B:LEU:363:CD1:8161, V-B:ILE:538:CD1:9837, V-B:PRO:540:CB:9857, V-A:ARG:545:CZ:4926, V-B:PRO:540:CA:9855, V-B:PRO:540:CG:9858, V-B:PRO:540:N:9856, V-B:GLU:543:CD:9880, V-B:TYR:539:CE2:9848, V-B:ILE:538:CG2:9835, V-B:ASP:366:CG:8185, V-A:GLU:543:CD:4908, H-A:GLU:543:OE1:4909, H-A:GLU:543:OE2:4910, V-B:TYR:531:CE2:9765, H-B:ASP:366:OD2:8187, V-B:TYR:539:CZ:9849, V-B:TYR:539:CE1:9847, V-B:MET:535:CE:9807"]

$$$$
RR33_Rahimova_2017
     RDKit          3D

 36 37  0  0  0  0  0  0  0  0999 V2000
  133.6260  123.7820   61.9700 C   0  0  0  0  0  0  0  0  0  0  0  0
  133.8550  122.5920   61.0340 C   0  0  0  0  0  0  0  0  0  0  0  0
  132.8890  121.5860   61.3280 O   0  0  0  0  0  0  0  0  0  0  0  0
  131.5460  121.8670   61.1650 C   0  0  0  0  0  0  0  0  0  0  0  0
  131.2220  122.8100   60.1900 C   0  0  0  0  0  0  0  0  0  0  0  0
  129.8950  123.1610   59.9560 C   0  0  0  0  0  0  0  0  0  0  0  0
  128.8680  122.5690   60.6980 C   0  0  0  0  0  0  0  0  0  0  0  0
  127.4430  122.9460   60.4460 C   0  0  0  0  0  0  0  0  0  0  0  0
  126.8820  123.2390   59.2950 N   0  0  0  0  0  0  0  0  0  0  0  0
  125.6160  123.5030   59.5800 C   0  0  0  0  0  0  0  0  0  0  0  0
  124.6350  123.8760   58.4890 C   0  0  0  0  0  0  0  0  0  0  0  0
  125.2070  123.6250   57.1750 N   0  0  0  0  0  0  0  0  0  0  0  0
  124.6860  122.3880   56.6160 C   0  0  0  0  0  0  0  0  0  0  0  0
  125.4080  123.3670   60.9460 C   0  0  0  0  0  0  0  0  0  0  0  0
  124.2250  123.5190   61.8720 C   0  0  0  0  0  0  0  0  0  0  0  0
  126.5890  123.0090   61.5010 O   0  0  0  0  0  0  0  0  0  0  0  0
  129.1880  121.6200   61.6730 C   0  0  0  0  0  0  0  0  0  0  0  0
  130.5160  121.2700   61.9080 C   0  0  0  0  0  0  0  0  0  0  0  0
  133.6910  123.4444   63.0149 H   0  0  0  0  0  0  0  0  0  0  0  0
  134.3932  124.5479   61.7838 H   0  0  0  0  0  0  0  0  0  0  0  0
  132.6293  124.2085   61.7838 H   0  0  0  0  0  0  0  0  0  0  0  0
  133.7447  122.9167   59.9888 H   0  0  0  0  0  0  0  0  0  0  0  0
  134.8691  122.1912   61.1790 H   0  0  0  0  0  0  0  0  0  0  0  0
  132.0223  123.2810   59.6003 H   0  0  0  0  0  0  0  0  0  0  0  0
  129.6535  123.9069   59.1844 H   0  0  0  0  0  0  0  0  0  0  0  0
  123.7204  123.2760   58.6053 H   0  0  0  0  0  0  0  0  0  0  0  0
  124.4020  124.9476   58.5743 H   0  0  0  0  0  0  0  0  0  0  0  0
  126.2120  123.5480   57.2590 H   0  0  0  0  0  0  0  0  0  0  0  0
  124.3999  121.7086   57.4324 H   0  0  0  0  0  0  0  0  0  0  0  0
  123.8043  122.6084   55.9963 H   0  0  0  0  0  0  0  0  0  0  0  0
  125.4597  121.9112   55.9963 H   0  0  0  0  0  0  0  0  0  0  0  0
  124.5685  123.4749   62.9160 H   0  0  0  0  0  0  0  0  0  0  0  0
  123.7368  124.4873   61.6873 H   0  0  0  0  0  0  0  0  0  0  0  0
  123.5079  122.7056   61.6873 H   0  0  0  0  0  0  0  0  0  0  0  0
  128.3862  121.1464   62.2586 H   0  0  0  0  0  0  0  0  0  0  0  0
  130.7579  120.5232   62.6785 H   0  0  0  0  0  0  0  0  0  0  0  0
  1  2  1  0
  2  3  1  0
  3  4  1  0
  4  5  2  0
  5  6  1  0
  6  7  2  0
  7  8  1  0
  8  9  2  0
  9 10  1  0
 10 11  1  0
 11 12  1  0
 12 13  1  0
 10 14  2  0
 14 15  1  0
 14 16  1  0
  7 17  1  0
 17 18  2  0
 18  4  1  0
 16  8  1  0
  1 19  1  0
  1 20  1  0
  1 21  1  0
  2 22  1  0
  2 23  1  0
  5 24  1  0
  6 25  1  0
 11 26  1  0
 11 27  1  0
 12 28  1  0
 13 29  1  0
 13 30  1  0
 13 31  1  0
 15 32  1  0
 15 33  1  0
 15 34  1  0
 17 35  1  0
 18 36  1  0
M  END
>  <Binding energies>  (1) 
[-4.48]

>  <Ligand effiencies>  (1) 
[-0.23578947368421055]

>  <Interactions>  (1) 
["V-B:PRO:540:CD:9859, V-B:LEU:363:CD1:8161, V-B:ILE:538:CD1:9837, V-B:PRO:540:CB:9857, V-B:PRO:540:CA:9855, V-B:PRO:540:CG:9858, V-B:PRO:540:N:9856, V-A:ILE:369:CD1:3239, V-B:TYR:539:CE2:9848, V-B:ILE:538:CG2:9835, V-B:PRO:540:C:9853, H-B:ALA:541:N:9863, V-B:ASP:366:CG:8185, V-A:LEU:475:CD2:4259, V-B:TYR:539:CD2:9846, V-B:ALA:541:CB:9864, V-B:ARG:545:CZ:9898, V-A:GLY:454:CA:4049, V-A:ILE:369:CG2:3237, V-A:TYR:484:CE1:4345, H-B:TYR:531:OH:9767, V-B:ASN:362:CB:8148"]

$$$$
RR33_Rahimova_2017-again1
     RDKit          3D

 37 38  0  0  0  0  0  0  0  0999 V2000
  131.3980  116.4350   58.2810 C   0  0  0  0  0  0  0  0  0  0  0  0
  130.2550  116.6610   59.2740 C   0  0  0  0  0  0  0  0  0  0  0  0
  130.7940  117.1920   60.4810 O   0  0  0  0  0  0  0  0  0  0  0  0
  130.6510  118.5400   60.7530 C   0  0  0  0  0  0  0  0  0  0  0  0
  131.6320  119.3870   60.2370 C   0  0  0  0  0  0  0  0  0  0  0  0
  131.5720  120.7600   60.4570 C   0  0  0  0  0  0  0  0  0  0  0  0
  130.5240  121.3080   61.2030 C   0  0  0  0  0  0  0  0  0  0  0  0
  130.4550  122.7830   61.4420 C   0  0  0  0  0  0  0  0  0  0  0  0
  129.4700  123.4630   61.9860 N   0  0  0  0  0  0  0  0  0  0  0  0
  129.8700  124.7250   61.9840 C   0  0  0  0  0  0  0  0  0  0  0  0
  128.9850  125.8300   62.5290 C   0  0  0  0  0  0  0  0  0  0  0  0
  129.6920  126.5000   63.7190 N   0  0  0  0  0  0  0  0  0  0  0  0
  130.6160  125.5530   64.4970 C   0  0  0  0  0  0  0  0  0  0  0  0
  131.1340  124.8100   61.4130 C   0  0  0  0  0  0  0  0  0  0  0  0
  132.1080  125.9250   61.1200 C   0  0  0  0  0  0  0  0  0  0  0  0
  131.5070  123.5550   61.0690 O   0  0  0  0  0  0  0  0  0  0  0  0
  129.5380  120.4620   61.7230 C   0  0  0  0  0  0  0  0  0  0  0  0
  129.5990  119.0900   61.5010 C   0  0  0  0  0  0  0  0  0  0  0  0
  132.3317  116.2504   58.8325 H   0  0  0  0  0  0  0  0  0  0  0  0
  131.1676  115.5650   57.6485 H   0  0  0  0  0  0  0  0  0  0  0  0
  131.5160  117.3272   57.6485 H   0  0  0  0  0  0  0  0  0  0  0  0
  129.5307  117.3712   58.8486 H   0  0  0  0  0  0  0  0  0  0  0  0
  129.7447  115.7085   59.4797 H   0  0  0  0  0  0  0  0  0  0  0  0
  132.4615  118.9654   59.6502 H   0  0  0  0  0  0  0  0  0  0  0  0
  132.3516  121.4162   60.0426 H   0  0  0  0  0  0  0  0  0  0  0  0
  128.8009  126.5763   61.7422 H   0  0  0  0  0  0  0  0  0  0  0  0
  128.0246  125.4070   62.8588 H   0  0  0  0  0  0  0  0  0  0  0  0
  130.2330  127.2810   63.3780 H   0  0  0  0  0  0  0  0  0  0  0  0
  128.9880  126.8610   64.3490 H   0  0  0  0  0  0  0  0  0  0  0  0
  130.4696  125.7030   65.5768 H   0  0  0  0  0  0  0  0  0  0  0  0
  130.3774  124.5114   64.2359 H   0  0  0  0  0  0  0  0  0  0  0  0
  131.6631  125.7659   64.2359 H   0  0  0  0  0  0  0  0  0  0  0  0
  132.4771  126.3475   62.0662 H   0  0  0  0  0  0  0  0  0  0  0  0
  132.9548  125.5292   60.5401 H   0  0  0  0  0  0  0  0  0  0  0  0
  131.6020  126.7109   60.5401 H   0  0  0  0  0  0  0  0  0  0  0  0
  128.7097  120.8844   62.3108 H   0  0  0  0  0  0  0  0  0  0  0  0
  128.8190  118.4334   61.9138 H   0  0  0  0  0  0  0  0  0  0  0  0
  1  2  1  0
  2  3  1  0
  3  4  1  0
  4  5  2  0
  5  6  1  0
  6  7  2  0
  7  8  1  0
  8  9  2  0
  9 10  1  0
 10 11  1  0
 11 12  1  0
 12 13  1  0
 10 14  2  0
 14 15  1  0
 14 16  1  0
  7 17  1  0
 17 18  2  0
 18  4  1  0
 16  8  1  0
  1 19  1  0
  1 20  1  0
  1 21  1  0
  2 22  1  0
  2 23  1  0
  5 24  1  0
  6 25  1  0
 11 26  1  0
 11 27  1  0
 12 28  1  0
 12 29  1  0
 13 30  1  0
 13 31  1  0
 13 32  1  0
 15 33  1  0
 15 34  1  0
 15 35  1  0
 17 36  1  0
 18 37  1  0
M  CHG  1  12   1
M  END
>  <Binding energies>  (1) 
[-6.27]

>  <Ligand effiencies>  (1) 
[-0.3135]

>  <Interactions>  (1) 
["V-B:TYR:539:C:9839, V-B:GLU:543:CD:9880, V-A:TYR:484:CZ:4347, V-A:TYR:484:CE2:4346, V-B:TYR:539:CE2:9848, V-A:SER:385:CB:3409, V-B:VAL:344:CG1:7973, V-A:HIS:383:CE1:3394, V-A:PRO:482:CG:4327, V-A:PRO:482:CB:4326, V-B:TYR:539:CB:9843, V-A:LEU:475:CD2:4259, H-A:TYR:484:OH:4348, V-B:TYR:539:CD2:9846, V-A:LEU:475:CD1:4258, V-A:LEU:475:CG:4257, V-B:ALA:541:CB:9864, V-A:LEU:373:CD1:3280, V-A:LEU:373:CD2:3281, V-A:GLU:543:CD:4908, H-A:GLU:543:OE1:4909, H-A:GLU:543:OE2:4910, V-A:ASP:366:CG:3213, H-B:GLU:543:OE2:9882, H-B:GLU:543:OE1:9881, V-B:ILE:343:CG2:7964"]

$$$$
RR3_Rahimova_2017
     RDKit          3D

 63 69  0  0  0  0  0  0  0  0999 V2000
  130.9930  120.3550   60.8970 C   0  0  0  0  0  0  0  0  0  0  0  0
  131.5570  121.5180   60.3830 C   0  0  0  0  0  0  0  0  0  0  0  0
  130.9250  122.7410   60.5910 C   0  0  0  0  0  0  0  0  0  0  0  0
  129.7250  122.8170   61.3150 C   0  0  0  0  0  0  0  0  0  0  0  0
  129.0470  124.1330   61.5390 C   0  0  0  0  0  0  0  0  0  0  0  0
  129.5380  125.0440   62.4840 C   0  0  0  0  0  0  0  0  0  0  0  0
  128.9050  126.2660   62.6940 C   0  0  0  0  0  0  0  0  0  0  0  0
  127.7590  126.6020   61.9670 C   0  0  0  0  0  0  0  0  0  0  0  0
  127.0710  127.9120   62.1930 C   0  0  0  0  0  0  0  0  0  0  0  0
  126.5200  128.5570   61.1710 N   0  0  0  0  0  0  0  0  0  0  0  0
  125.9600  129.6340   61.6660 C   0  0  0  0  0  0  0  0  0  0  0  0
  125.2350  130.6380   60.8910 C   0  0  0  0  0  0  0  0  0  0  0  0
  124.9000  131.9100   61.3250 C   0  0  0  0  0  0  0  0  0  0  0  0
  124.2310  132.5850   60.3380 N   0  0  0  0  0  0  0  0  0  0  0  0
  124.1030  131.7840   59.2250 C   0  0  0  0  0  0  0  0  0  0  0  0
  123.5040  132.0310   57.9850 C   0  0  0  0  0  0  0  0  0  0  0  0
  123.5380  130.9990   57.0490 C   0  0  0  0  0  0  0  0  0  0  0  0
  124.1380  129.7750   57.3270 C   0  0  0  0  0  0  0  0  0  0  0  0
  124.7350  129.5290   58.5610 C   0  0  0  0  0  0  0  0  0  0  0  0
  124.7290  130.5370   59.5420 C   0  0  0  0  0  0  0  0  0  0  0  0
  126.1460  129.7050   63.0190 N   0  0  0  0  0  0  0  0  0  0  0  0
  126.8860  128.6130   63.3960 C   0  0  0  0  0  0  0  0  0  0  0  0
  127.3360  128.3860   64.8020 C   0  0  0  0  0  0  0  0  0  0  0  0
  128.6980  128.3780   65.1080 C   0  0  0  0  0  0  0  0  0  0  0  0
  129.1220  128.1540   66.4130 C   0  0  0  0  0  0  0  0  0  0  0  0
  128.1970  127.9370   67.4450 C   0  0  0  0  0  0  0  0  0  0  0  0
  128.6570  127.6770   68.8440 C   0  0  0  0  0  0  0  0  0  0  0  0
  129.8350  128.2620   69.3350 C   0  0  0  0  0  0  0  0  0  0  0  0
  130.2610  128.0230   70.6400 C   0  0  0  0  0  0  0  0  0  0  0  0
  129.5120  127.1950   71.4690 C   0  0  0  0  0  0  0  0  0  0  0  0
  128.3410  126.6060   71.0040 C   0  0  0  0  0  0  0  0  0  0  0  0
  127.9190  126.8450   69.7000 C   0  0  0  0  0  0  0  0  0  0  0  0
  126.8320  127.9650   67.1270 C   0  0  0  0  0  0  0  0  0  0  0  0
  126.4040  128.1890   65.8220 C   0  0  0  0  0  0  0  0  0  0  0  0
  127.2710  125.7070   61.0140 C   0  0  0  0  0  0  0  0  0  0  0  0
  127.9060  124.4850   60.8060 C   0  0  0  0  0  0  0  0  0  0  0  0
  129.1750  121.6310   61.8230 C   0  0  0  0  0  0  0  0  0  0  0  0
  129.8040  120.4060   61.6170 C   0  0  0  0  0  0  0  0  0  0  0  0
  131.4909  119.3880   60.7329 H   0  0  0  0  0  0  0  0  0  0  0  0
  132.4978  121.4717   59.8149 H   0  0  0  0  0  0  0  0  0  0  0  0
  131.3719  123.6595   60.1827 H   0  0  0  0  0  0  0  0  0  0  0  0
  130.4353  124.7902   63.0674 H   0  0  0  0  0  0  0  0  0  0  0  0
  129.3086  126.9709   63.4358 H   0  0  0  0  0  0  0  0  0  0  0  0
  125.1368  132.3191   62.3183 H   0  0  0  0  0  0  0  0  0  0  0  0
  123.9020  133.5320   60.4560 H   0  0  0  0  0  0  0  0  0  0  0  0
  123.0276  132.9964   57.7590 H   0  0  0  0  0  0  0  0  0  0  0  0
  123.0774  131.1567   56.0626 H   0  0  0  0  0  0  0  0  0  0  0  0
  124.1409  128.9877   56.5587 H   0  0  0  0  0  0  0  0  0  0  0  0
  125.2063  128.5565   58.7663 H   0  0  0  0  0  0  0  0  0  0  0  0
  125.8230  130.4430   63.6270 H   0  0  0  0  0  0  0  0  0  0  0  0
  129.4389  128.5496   64.3133 H   0  0  0  0  0  0  0  0  0  0  0  0
  130.1984  128.1468   66.6395 H   0  0  0  0  0  0  0  0  0  0  0  0
  130.4292  128.9173   68.6812 H   0  0  0  0  0  0  0  0  0  0  0  0
  131.1859  128.4873   71.0129 H   0  0  0  0  0  0  0  0  0  0  0  0
  129.8478  127.0047   72.4991 H   0  0  0  0  0  0  0  0  0  0  0  0
  127.7509  125.9538   71.6646 H   0  0  0  0  0  0  0  0  0  0  0  0
  126.9938  126.3752   69.3348 H   0  0  0  0  0  0  0  0  0  0  0  0
  126.0876  127.8074   67.9214 H   0  0  0  0  0  0  0  0  0  0  0  0
  125.3282  128.2109   65.5937 H   0  0  0  0  0  0  0  0  0  0  0  0
  126.3801  125.9680   60.4240 H   0  0  0  0  0  0  0  0  0  0  0  0
  127.5063  123.7867   60.0560 H   0  0  0  0  0  0  0  0  0  0  0  0
  128.2342  121.6691   62.3917 H   0  0  0  0  0  0  0  0  0  0  0  0
  129.3628  119.4832   62.0216 H   0  0  0  0  0  0  0  0  0  0  0  0
  1  2  2  0
  2  3  1  0
  3  4  2  0
  4  5  1  0
  5  6  2  0
  6  7  1  0
  7  8  2  0
  8  9  1  0
  9 10  1  0
 10 11  2  0
 11 12  1  0
 12 13  2  0
 13 14  1  0
 14 15  1  0
 15 16  2  0
 16 17  1  0
 17 18  2  0
 18 19  1  0
 19 20  2  0
 11 21  1  0
 21 22  1  0
 22 23  1  0
 23 24  2  0
 24 25  1  0
 25 26  2  0
 26 27  1  0
 27 28  2  0
 28 29  1  0
 29 30  2  0
 30 31  1  0
 31 32  2  0
 26 33  1  0
 33 34  2  0
  8 35  1  0
 35 36  2  0
  4 37  1  0
 37 38  2  0
 38  1  1  0
 36  5  1  0
 22  9  2  0
 34 23  1  0
 20 12  1  0
 32 27  1  0
 20 15  1  0
  1 39  1  0
  2 40  1  0
  3 41  1  0
  6 42  1  0
  7 43  1  0
 13 44  1  0
 14 45  1  0
 16 46  1  0
 17 47  1  0
 18 48  1  0
 19 49  1  0
 21 50  1  0
 24 51  1  0
 25 52  1  0
 28 53  1  0
 29 54  1  0
 30 55  1  0
 31 56  1  0
 32 57  1  0
 33 58  1  0
 34 59  1  0
 35 60  1  0
 36 61  1  0
 37 62  1  0
 38 63  1  0
M  END
>  <Binding energies>  (1) 
[-7.28]

>  <Ligand effiencies>  (1) 
[-0.182]

>  <Interactions>  (1) 
["V-B:GLU:543:CD:9880, V-B:TYR:539:CE2:9848, V-A:HIS:456:CE1:4070, V-B:ASP:366:CG:8185, V-A:LEU:475:CD2:4259, V-B:TYR:539:CD2:9846, V-B:ALA:541:CB:9864, V-A:GLU:543:C:4902, V-B:HIS:456:CE1:9042, V-A:GLU:543:CB:4906, H-B:TYR:484:OH:9320, V-A:GLU:543:CD:4908, V-A:GLY:544:C:4912, V-B:ILE:369:CD1:8211, V-A:GLU:543:CG:4907, V-A:HIS:456:CD2:4068, V-B:ASP:366:CB:8184, V-B:ARG:545:CG:9894, V-A:TYR:539:CE1:4875, V-B:TYR:531:CE1:9764, V-A:TYR:539:CZ:4877, V-B:ILE:369:CB:8208, V-B:ASP:366:C:8180, V-B:ASP:366:CA:8182, V-B:ILE:369:CG2:8209, V-B:HIS:456:CD2:9040, H-B:SER:385:O:8378"]

$$$$
RR4_Rahimova_2017
     RDKit          3D

 66 70  0  0  0  0  0  0  0  0999 V2000
  123.9210  133.0090   61.8240 C   0  0  0  0  0  0  0  0  0  0  0  0
  123.8800  131.9390   62.7620 O   0  0  0  0  0  0  0  0  0  0  0  0
  124.5630  130.7710   62.4820 C   0  0  0  0  0  0  0  0  0  0  0  0
  125.1580  130.1210   63.5610 C   0  0  0  0  0  0  0  0  0  0  0  0
  125.8650  128.9370   63.3750 C   0  0  0  0  0  0  0  0  0  0  0  0
  126.0010  128.3680   62.1000 C   0  0  0  0  0  0  0  0  0  0  0  0
  126.7660  127.0910   61.9020 C   0  0  0  0  0  0  0  0  0  0  0  0
  128.0810  126.9180   62.3470 C   0  0  0  0  0  0  0  0  0  0  0  0
  128.7500  125.7050   62.1420 C   0  0  0  0  0  0  0  0  0  0  0  0
  130.1430  125.5850   62.6700 C   0  0  0  0  0  0  0  0  0  0  0  0
  130.4010  125.8080   64.0260 C   0  0  0  0  0  0  0  0  0  0  0  0
  131.6940  125.6870   64.5280 C   0  0  0  0  0  0  0  0  0  0  0  0
  132.7510  125.3340   63.6890 C   0  0  0  0  0  0  0  0  0  0  0  0
  133.9980  125.2370   64.2760 O   0  0  0  0  0  0  0  0  0  0  0  0
  134.0900  124.9970   65.6760 C   0  0  0  0  0  0  0  0  0  0  0  0
  132.4950  125.1040   62.3290 C   0  0  0  0  0  0  0  0  0  0  0  0
  131.2010  125.2260   61.8290 C   0  0  0  0  0  0  0  0  0  0  0  0
  128.0750  124.6700   61.4500 C   0  0  0  0  0  0  0  0  0  0  0  0
  128.7300  123.3810   61.2090 C   0  0  0  0  0  0  0  0  0  0  0  0
  129.2460  122.3630   61.0190 N   0  0  0  0  0  0  0  0  0  0  0  0
  126.7580  124.9230   61.0020 C   0  0  0  0  0  0  0  0  0  0  0  0
  125.7670  123.7460   60.1070 S   0  0  0  0  0  0  0  0  0  0  0  0
  125.6930  124.2890   58.3680 C   0  0  0  0  0  0  0  0  0  0  0  0
  126.6840  125.4040   58.0050 C   0  0  0  0  0  0  0  0  0  0  0  0
  127.6250  125.1800   57.2400 O   0  0  0  0  0  0  0  0  0  0  0  0
  126.4370  126.5950   58.5980 N   0  0  0  0  0  0  0  0  0  0  0  0
  127.1480  127.7920   58.4700 C   0  0  0  0  0  0  0  0  0  0  0  0
  128.8030  127.9720   58.9860 S   0  0  0  0  0  0  0  0  0  0  0  0
  128.8370  129.6350   58.4880 C   0  0  0  0  0  0  0  0  0  0  0  0
  127.6060  130.0360   57.9460 C   0  0  0  0  0  0  0  0  0  0  0  0
  126.6560  128.9860   57.9220 C   0  0  0  0  0  0  0  0  0  0  0  0
  125.3050  129.1370   57.3900 C   0  0  0  0  0  0  0  0  0  0  0  0
  124.2330  129.2570   56.9690 N   0  0  0  0  0  0  0  0  0  0  0  0
  127.3940  131.4520   57.3980 C   0  0  0  0  0  0  0  0  0  0  0  0
  128.7500  132.1570   57.1680 C   0  0  0  0  0  0  0  0  0  0  0  0
  129.7060  131.9780   58.3600 C   0  0  0  0  0  0  0  0  0  0  0  0
  130.0880  130.4990   58.5790 C   0  0  0  0  0  0  0  0  0  0  0  0
  126.1230  126.0940   61.2420 N   0  0  0  0  0  0  0  0  0  0  0  0
  125.3950  129.0280   61.0200 C   0  0  0  0  0  0  0  0  0  0  0  0
  124.6870  130.2130   61.2020 C   0  0  0  0  0  0  0  0  0  0  0  0
  123.9577  133.9675   62.3625 H   0  0  0  0  0  0  0  0  0  0  0  0
  124.8160  132.9088   61.1923 H   0  0  0  0  0  0  0  0  0  0  0  0
  123.0210  132.9776   61.1923 H   0  0  0  0  0  0  0  0  0  0  0  0
  125.0680  130.5482   64.5706 H   0  0  0  0  0  0  0  0  0  0  0  0
  126.3246  128.4392   64.2416 H   0  0  0  0  0  0  0  0  0  0  0  0
  128.5944  127.7428   62.8629 H   0  0  0  0  0  0  0  0  0  0  0  0
  129.5765  126.0810   64.7010 H   0  0  0  0  0  0  0  0  0  0  0  0
  131.8837  125.8714   65.5957 H   0  0  0  0  0  0  0  0  0  0  0  0
  133.7486  125.8876   66.2239 H   0  0  0  0  0  0  0  0  0  0  0  0
  133.4576  124.1375   65.9430 H   0  0  0  0  0  0  0  0  0  0  0  0
  135.1349  124.7804   65.9430 H   0  0  0  0  0  0  0  0  0  0  0  0
  133.3191  124.8264   61.6554 H   0  0  0  0  0  0  0  0  0  0  0  0
  131.0093  125.0382   60.7622 H   0  0  0  0  0  0  0  0  0  0  0  0
  125.9044  123.4199   57.7277 H   0  0  0  0  0  0  0  0  0  0  0  0
  124.6860  124.7036   58.2130 H   0  0  0  0  0  0  0  0  0  0  0  0
  125.6310  126.6410   59.2030 H   0  0  0  0  0  0  0  0  0  0  0  0
  126.8515  131.3922   56.4430 H   0  0  0  0  0  0  0  0  0  0  0  0
  126.8136  132.0318   58.1308 H   0  0  0  0  0  0  0  0  0  0  0  0
  129.2215  131.7339   56.2688 H   0  0  0  0  0  0  0  0  0  0  0  0
  128.5559  133.2331   57.0487 H   0  0  0  0  0  0  0  0  0  0  0  0
  130.6220  132.5568   58.1704 H   0  0  0  0  0  0  0  0  0  0  0  0
  129.1905  132.3328   59.2646 H   0  0  0  0  0  0  0  0  0  0  0  0
  130.8064  130.1872   57.8066 H   0  0  0  0  0  0  0  0  0  0  0  0
  130.5450  130.3806   59.5725 H   0  0  0  0  0  0  0  0  0  0  0  0
  125.4810  128.6008   60.0100 H   0  0  0  0  0  0  0  0  0  0  0  0
  124.2235  130.7129   60.3387 H   0  0  0  0  0  0  0  0  0  0  0  0
  1  2  1  0
  2  3  1  0
  3  4  2  0
  4  5  1  0
  5  6  2  0
  6  7  1  0
  7  8  2  0
  8  9  1  0
  9 10  1  0
 10 11  2  0
 11 12  1  0
 12 13  2  0
 13 14  1  0
 14 15  1  0
 13 16  1  0
 16 17  2  0
  9 18  2  0
 18 19  1  0
 19 20  3  0
 18 21  1  0
 21 22  1  0
 22 23  1  0
 23 24  1  0
 24 25  2  0
 24 26  1  0
 26 27  1  0
 27 28  1  0
 28 29  1  0
 29 30  2  0
 30 31  1  0
 31 32  1  0
 32 33  3  0
 30 34  1  0
 34 35  1  0
 35 36  1  0
 36 37  1  0
 21 38  2  0
  6 39  1  0
 39 40  2  0
 40  3  1  0
 38  7  1  0
 17 10  1  0
 31 27  2  0
 37 29  1  0
  1 41  1  0
  1 42  1  0
  1 43  1  0
  4 44  1  0
  5 45  1  0
  8 46  1  0
 11 47  1  0
 12 48  1  0
 15 49  1  0
 15 50  1  0
 15 51  1  0
 16 52  1  0
 17 53  1  0
 23 54  1  0
 23 55  1  0
 26 56  1  0
 34 57  1  0
 34 58  1  0
 35 59  1  0
 35 60  1  0
 36 61  1  0
 36 62  1  0
 37 63  1  0
 37 64  1  0
 39 65  1  0
 40 66  1  0
M  END
>  <Binding energies>  (1) 
[-8.14]

>  <Ligand effiencies>  (1) 
[-0.19853658536585367]

>  <Interactions>  (1) 
["V-A:ARG:545:CD:4923, V-A:ARG:545:CZ:4926, V-B:GLU:543:CD:9880, V-A:TYR:484:CZ:4347, V-A:TYR:484:CE2:4346, V-A:ARG:545:CG:4922, V-B:ASP:366:CG:8185, H-A:TYR:484:OH:4348, V-B:ARG:545:CZ:9898, V-A:GLU:543:CD:4908, V-B:ILE:369:CD1:8211, H-B:GLY:454:N:9022, V-B:LEU:475:CD2:9231, V-B:GLY:454:CA:9021, H-A:ARG:545:NH1:4927, V-A:GLY:454:CA:4049, H-A:GLY:454:N:4050, H-A:ARG:545:NH2:4928, H-A:ARG:545:NE:4924, V-A:GLY:453:CA:4044, V-A:GLY:453:C:4042, H-B:ASP:366:OD2:8187, V-B:ASP:366:CB:8184, H-B:TYR:531:OH:9767, H-B:ARG:545:NH2:9900, V-A:PRO:540:CA:4883, V-A:PRO:540:N:4884, V-A:TYR:539:CD1:4873, V-A:TYR:539:C:4867, V-A:TYR:539:CE1:4875, V-B:TYR:531:CE1:9764, V-A:TYR:539:CZ:4877"]

$$$$
RR5_Rahimova_2017
     RDKit          3D

 77 82  0  0  0  0  0  0  0  0999 V2000
  129.4490  121.8230   63.0760 O   0  0  0  0  0  0  0  0  0  0  0  0
  128.8710  122.6580   62.3810 C   0  0  0  0  0  0  0  0  0  0  0  0
  127.4340  123.0830   62.7370 C   0  0  0  0  0  0  0  0  0  0  0  0
  126.5150  123.3380   61.4890 C   0  0  2  0  0  0  0  0  0  0  0  0
  126.6890  124.6570   60.8470 N   0  0  0  0  0  0  0  0  0  0  0  0
  127.5980  125.5870   61.3300 C   0  0  0  0  0  0  0  0  0  0  0  0
  128.3750  125.4350   62.2760 O   0  0  0  0  0  0  0  0  0  0  0  0
  127.4850  126.7100   60.5990 O   0  0  0  0  0  0  0  0  0  0  0  0
  128.5160  127.1210   59.7050 C   0  0  0  0  0  0  0  0  0  0  0  0
  129.6170  127.8990   60.4580 C   0  0  0  0  0  0  0  0  0  0  0  0
  130.4760  128.7660   59.5560 C   0  0  0  0  0  0  0  0  0  0  0  0
  131.2530  128.4040   58.4510 C   0  0  0  0  0  0  0  0  0  0  0  0
  131.9540  129.3830   57.7440 C   0  0  0  0  0  0  0  0  0  0  0  0
  131.8810  130.7200   58.1370 C   0  0  0  0  0  0  0  0  0  0  0  0
  131.1070  131.0840   59.2410 C   0  0  0  0  0  0  0  0  0  0  0  0
  130.4080  130.1040   59.9480 C   0  0  0  0  0  0  0  0  0  0  0  0
  129.5400  130.1980   61.1320 C   0  0  0  0  0  0  0  0  0  0  0  0
  129.1600  131.2950   61.9080 C   0  0  0  0  0  0  0  0  0  0  0  0
  128.3290  131.1050   63.0130 C   0  0  0  0  0  0  0  0  0  0  0  0
  127.8760  129.8230   63.3370 C   0  0  0  0  0  0  0  0  0  0  0  0
  128.2540  128.7310   62.5560 C   0  0  0  0  0  0  0  0  0  0  0  0
  129.0840  128.9180   61.4480 C   0  0  0  0  0  0  0  0  0  0  0  0
  125.0240  123.1270   61.8510 C   0  0  0  0  0  0  0  0  0  0  0  0
  124.6270  122.6500   62.8950 O   0  0  0  0  0  0  0  0  0  0  0  0
  124.2360  123.5750   60.8310 O   0  0  0  0  0  0  0  0  0  0  0  0
  129.4140  123.2810   61.3120 N   0  0  0  0  0  0  0  0  0  0  0  0
  130.7410  123.1860   60.6310 C   0  0  0  0  0  0  0  0  0  0  0  0
  130.4590  123.8960   59.2640 C   0  0  0  0  0  0  0  0  0  0  0  0
  131.4230  124.7110   58.6490 C   0  0  0  0  0  0  0  0  0  0  0  0
  131.1620  125.3360   57.4330 C   0  0  0  0  0  0  0  0  0  0  0  0
  129.9270  125.1660   56.8160 C   0  0  0  0  0  0  0  0  0  0  0  0
  128.9540  124.3640   57.4020 C   0  0  0  0  0  0  0  0  0  0  0  0
  129.2200  123.7310   58.6130 C   0  0  0  0  0  0  0  0  0  0  0  0
  131.7740  123.9650   61.5120 C   0  0  0  0  0  0  0  0  0  0  0  0
  131.3650  124.8390   62.5310 C   0  0  0  0  0  0  0  0  0  0  0  0
  132.3020  125.5370   63.2900 C   0  0  0  0  0  0  0  0  0  0  0  0
  133.6600  125.3710   63.0370 C   0  0  0  0  0  0  0  0  0  0  0  0
  134.0900  124.5080   62.0350 C   0  0  0  0  0  0  0  0  0  0  0  0
  133.1530  123.8050   61.2850 C   0  0  0  0  0  0  0  0  0  0  0  0
  131.0390  121.6570   60.4730 C   0  0  0  0  0  0  0  0  0  0  0  0
  132.2940  121.2070   60.0230 C   0  0  0  0  0  0  0  0  0  0  0  0
  132.5630  119.8500   59.8720 C   0  0  0  0  0  0  0  0  0  0  0  0
  131.5800  118.9140   60.1750 C   0  0  0  0  0  0  0  0  0  0  0  0
  130.3350  119.3270   60.6350 C   0  0  0  0  0  0  0  0  0  0  0  0
  130.0710  120.6860   60.7840 C   0  0  0  0  0  0  0  0  0  0  0  0
  126.9787  122.2874   63.3450 H   0  0  0  0  0  0  0  0  0  0  0  0
  127.5094  124.0384   63.2770 H   0  0  0  0  0  0  0  0  0  0  0  0
  126.8400  122.5945   60.7463 H   0  0  0  0  0  0  0  0  0  0  0  0
  126.0130  124.9430   60.1530 H   0  0  0  0  0  0  0  0  0  0  0  0
  128.9606  126.2318   59.2341 H   0  0  0  0  0  0  0  0  0  0  0  0
  128.0781  127.7804   58.9411 H   0  0  0  0  0  0  0  0  0  0  0  0
  130.1709  127.0774   60.9356 H   0  0  0  0  0  0  0  0  0  0  0  0
  131.3118  127.3506   58.1396 H   0  0  0  0  0  0  0  0  0  0  0  0
  132.5656  129.0995   56.8747 H   0  0  0  0  0  0  0  0  0  0  0  0
  132.4338  131.4882   57.5765 H   0  0  0  0  0  0  0  0  0  0  0  0
  131.0484  132.1375   59.5519 H   0  0  0  0  0  0  0  0  0  0  0  0
  129.5139  132.3039   61.6496 H   0  0  0  0  0  0  0  0  0  0  0  0
  128.0301  131.9653   63.6298 H   0  0  0  0  0  0  0  0  0  0  0  0
  127.2211  129.6753   64.2083 H   0  0  0  0  0  0  0  0  0  0  0  0
  127.8984  127.7222   62.8126 H   0  0  0  0  0  0  0  0  0  0  0  0
  124.2520  124.5310   60.7520 H   0  0  0  0  0  0  0  0  0  0  0  0
  128.7660  123.8620   60.8010 H   0  0  0  0  0  0  0  0  0  0  0  0
  132.3987  124.8577   59.1353 H   0  0  0  0  0  0  0  0  0  0  0  0
  131.9317  125.9638   56.9604 H   0  0  0  0  0  0  0  0  0  0  0  0
  129.7191  125.6685   55.8598 H   0  0  0  0  0  0  0  0  0  0  0  0
  127.9787  124.2303   56.9111 H   0  0  0  0  0  0  0  0  0  0  0  0
  128.4502  123.0913   59.0694 H   0  0  0  0  0  0  0  0  0  0  0  0
  130.2922  124.9746   62.7328 H   0  0  0  0  0  0  0  0  0  0  0  0
  131.9689  126.2177   64.0873 H   0  0  0  0  0  0  0  0  0  0  0  0
  134.3986  125.9263   63.6337 H   0  0  0  0  0  0  0  0  0  0  0  0
  135.1646  124.3821   61.8367 H   0  0  0  0  0  0  0  0  0  0  0  0
  133.4958  123.1128   60.5018 H   0  0  0  0  0  0  0  0  0  0  0  0
  133.0774  121.9419   59.7860 H   0  0  0  0  0  0  0  0  0  0  0  0
  133.5492  119.5190   59.5144 H   0  0  0  0  0  0  0  0  0  0  0  0
  131.7888  117.8413   60.0500 H   0  0  0  0  0  0  0  0  0  0  0  0
  129.5620  118.5838   60.8801 H   0  0  0  0  0  0  0  0  0  0  0  0
  129.0853  121.0063   61.1524 H   0  0  0  0  0  0  0  0  0  0  0  0
  1  2  2  0
  2  3  1  0
  3  4  1  0
  4  5  1  0
  5  6  1  0
  6  7  2  0
  6  8  1  0
  8  9  1  0
  9 10  1  0
 10 11  1  0
 11 12  2  0
 12 13  1  0
 13 14  2  0
 14 15  1  0
 15 16  2  0
 16 17  1  0
 17 18  2  0
 18 19  1  0
 19 20  2  0
 20 21  1  0
 21 22  2  0
  4 23  1  0
 23 24  2  0
 23 25  1  0
  2 26  1  0
 26 27  1  0
 27 28  1  0
 28 29  2  0
 29 30  1  0
 30 31  2  0
 31 32  1  0
 32 33  2  0
 27 34  1  0
 34 35  2  0
 35 36  1  0
 36 37  2  0
 37 38  1  0
 38 39  2  0
 27 40  1  0
 40 41  2  0
 41 42  1  0
 42 43  2  0
 43 44  1  0
 44 45  2  0
 22 10  1  0
 33 28  1  0
 39 34  1  0
 45 40  1  0
 16 11  1  0
 22 17  1  0
  3 46  1  0
  3 47  1  0
  4 48  1  6
  5 49  1  0
  9 50  1  0
  9 51  1  0
 10 52  1  0
 12 53  1  0
 13 54  1  0
 14 55  1  0
 15 56  1  0
 18 57  1  0
 19 58  1  0
 20 59  1  0
 21 60  1  0
 25 61  1  0
 26 62  1  0
 29 63  1  0
 30 64  1  0
 31 65  1  0
 32 66  1  0
 33 67  1  0
 35 68  1  0
 36 69  1  0
 37 70  1  0
 38 71  1  0
 39 72  1  0
 41 73  1  0
 42 74  1  0
 43 75  1  0
 44 76  1  0
 45 77  1  0
M  END
>  <Binding energies>  (1) 
[-8.88]

>  <Ligand effiencies>  (1) 
[-0.18500000000000003]

>  <Interactions>  (1) 
["V-B:PRO:540:CB:9857, V-A:ARG:545:CZ:4926, V-B:TYR:539:C:9839, V-B:PRO:540:CA:9855, V-B:GLU:543:CD:9880, V-A:ILE:369:CD1:3239, V-B:TYR:539:CE2:9848, V-B:PRO:540:C:9853, H-B:ALA:541:N:9863, V-A:SER:385:CB:3409, V-A:LEU:475:CD2:4259, H-A:TYR:484:OH:4348, V-B:TYR:539:CD2:9846, V-B:ALA:541:CB:9864, V-A:GLU:543:CD:4908, V-A:GLU:543:CG:4907, V-A:ILE:369:CG2:3237, V-A:ASP:366:CG:3213, V-A:ASP:366:CB:3212, V-A:GLY:453:CA:4044, V-A:GLY:453:C:4042, V-B:GLU:543:CG:9879, H-B:ASP:366:OD2:8187, V-A:TYR:484:CE1:4345, V-B:TYR:539:CZ:9849, V-B:MET:535:CE:9807, H-B:ARG:545:NH2:9900, V-A:PRO:540:CA:4883, V-A:PRO:540:CB:4885, V-B:ASN:362:CB:8148, V-A:ALA:541:CB:4892, H-B:ASN:362:ND2:8151, H-B:ASP:366:OD1:8186"]

$$$$
RR5_Rahimova_2017-again1
     RDKit          3D

 76 81  0  0  0  0  0  0  0  0999 V2000
  128.6320  128.8930   58.3670 O   0  0  0  0  0  0  0  0  0  0  0  0
  128.1790  128.0950   59.1890 C   0  0  0  0  0  0  0  0  0  0  0  0
  128.7890  126.6800   59.2650 C   0  0  0  0  0  0  0  0  0  0  0  0
  127.9320  125.5140   58.6710 C   0  0  2  0  0  0  0  0  0  0  0  0
  128.4360  124.2280   59.1950 N   0  0  0  0  0  0  0  0  0  0  0  0
  127.6760  123.4410   60.0540 C   0  0  0  0  0  0  0  0  0  0  0  0
  126.5520  123.7050   60.4890 O   0  0  0  0  0  0  0  0  0  0  0  0
  128.3700  122.3240   60.3440 O   0  0  0  0  0  0  0  0  0  0  0  0
  128.3680  121.7830   61.6600 C   0  0  0  0  0  0  0  0  0  0  0  0
  129.7820  121.3000   62.0360 C   0  0  0  0  0  0  0  0  0  0  0  0
  130.1490  119.9610   61.4200 C   0  0  0  0  0  0  0  0  0  0  0  0
  129.5320  118.7160   61.5610 C   0  0  0  0  0  0  0  0  0  0  0  0
  130.0380  117.6060   60.8800 C   0  0  0  0  0  0  0  0  0  0  0  0
  131.1630  117.7380   60.0640 C   0  0  0  0  0  0  0  0  0  0  0  0
  131.7850  118.9790   59.9260 C   0  0  0  0  0  0  0  0  0  0  0  0
  131.2770  120.0870   60.6060 C   0  0  0  0  0  0  0  0  0  0  0  0
  131.7300  121.4860   60.6530 C   0  0  0  0  0  0  0  0  0  0  0  0
  132.8060  122.1240   60.0320 C   0  0  0  0  0  0  0  0  0  0  0  0
  133.0270  123.4830   60.2590 C   0  0  0  0  0  0  0  0  0  0  0  0
  132.1760  124.2010   61.1010 C   0  0  0  0  0  0  0  0  0  0  0  0
  131.0990  123.5600   61.7190 C   0  0  0  0  0  0  0  0  0  0  0  0
  130.8740  122.2000   61.4920 C   0  0  0  0  0  0  0  0  0  0  0  0
  127.9130  125.5380   57.0890 C   0  0  0  0  0  0  0  0  0  0  0  0
  128.4860  124.5620   56.5500 O   0  0  0  0  0  0  0  0  0  0  0  0
  127.3060  126.4920   56.5450 O   0  0  0  0  0  0  0  0  0  0  0  0
  127.2560  128.4390   60.1120 N   0  0  0  0  0  0  0  0  0  0  0  0
  126.5240  129.7200   60.2870 C   0  0  0  0  0  0  0  0  0  0  0  0
  125.6480  129.6650   61.5780 C   0  0  0  0  0  0  0  0  0  0  0  0
  124.3100  130.0970   61.5620 C   0  0  0  0  0  0  0  0  0  0  0  0
  123.5230  130.0380   62.7080 C   0  0  0  0  0  0  0  0  0  0  0  0
  124.0620  129.5390   63.8890 C   0  0  0  0  0  0  0  0  0  0  0  0
  125.3820  129.1010   63.9320 C   0  0  0  0  0  0  0  0  0  0  0  0
  126.1680  129.1620   62.7850 C   0  0  0  0  0  0  0  0  0  0  0  0
  127.4250  130.9770   60.5070 C   0  0  0  0  0  0  0  0  0  0  0  0
  128.8270  130.8700   60.5010 C   0  0  0  0  0  0  0  0  0  0  0  0
  129.6330  131.9880   60.6990 C   0  0  0  0  0  0  0  0  0  0  0  0
  129.0460  133.2340   60.9000 C   0  0  0  0  0  0  0  0  0  0  0  0
  127.6610  133.3680   60.9000 C   0  0  0  0  0  0  0  0  0  0  0  0
  126.8590  132.2480   60.7020 C   0  0  0  0  0  0  0  0  0  0  0  0
  125.6200  129.8220   59.0100 C   0  0  0  0  0  0  0  0  0  0  0  0
  125.4650  128.7410   58.1250 C   0  0  0  0  0  0  0  0  0  0  0  0
  124.6450  128.8420   57.0060 C   0  0  0  0  0  0  0  0  0  0  0  0
  123.9530  130.0240   56.7610 C   0  0  0  0  0  0  0  0  0  0  0  0
  124.0700  131.1010   57.6330 C   0  0  0  0  0  0  0  0  0  0  0  0
  124.8930  130.9980   58.7510 C   0  0  0  0  0  0  0  0  0  0  0  0
  129.7462  126.6999   58.7233 H   0  0  0  0  0  0  0  0  0  0  0  0
  128.8742  126.4587   60.3391 H   0  0  0  0  0  0  0  0  0  0  0  0
  126.8866  125.6450   58.9873 H   0  0  0  0  0  0  0  0  0  0  0  0
  129.3290  123.8870   58.8660 H   0  0  0  0  0  0  0  0  0  0  0  0
  128.0471  122.5581   62.3715 H   0  0  0  0  0  0  0  0  0  0  0  0
  127.6743  120.9301   61.6976 H   0  0  0  0  0  0  0  0  0  0  0  0
  129.7338  121.2721   63.1346 H   0  0  0  0  0  0  0  0  0  0  0  0
  128.6485  118.6095   62.2076 H   0  0  0  0  0  0  0  0  0  0  0  0
  129.5491  116.6264   60.9870 H   0  0  0  0  0  0  0  0  0  0  0  0
  131.5595  116.8623   59.5292 H   0  0  0  0  0  0  0  0  0  0  0  0
  132.6720  119.0839   59.2840 H   0  0  0  0  0  0  0  0  0  0  0  0
  133.4757  121.5583   59.3675 H   0  0  0  0  0  0  0  0  0  0  0  0
  133.8739  123.9898   59.7732 H   0  0  0  0  0  0  0  0  0  0  0  0
  132.3533  125.2721   61.2781 H   0  0  0  0  0  0  0  0  0  0  0  0
  130.4292  124.1256   62.3834 H   0  0  0  0  0  0  0  0  0  0  0  0
  126.9120  127.6890   60.6930 H   0  0  0  0  0  0  0  0  0  0  0  0
  123.8786  130.4878   60.6287 H   0  0  0  0  0  0  0  0  0  0  0  0
  122.4794  130.3844   62.6800 H   0  0  0  0  0  0  0  0  0  0  0  0
  123.4405  129.4903   64.7953 H   0  0  0  0  0  0  0  0  0  0  0  0
  125.8028  128.7079   64.8692 H   0  0  0  0  0  0  0  0  0  0  0  0
  127.2102  128.8121   62.8225 H   0  0  0  0  0  0  0  0  0  0  0  0
  129.2943  129.8878   60.3373 H   0  0  0  0  0  0  0  0  0  0  0  0
  130.7284  131.8870   60.6966 H   0  0  0  0  0  0  0  0  0  0  0  0
  129.6808  134.1180   61.0598 H   0  0  0  0  0  0  0  0  0  0  0  0
  127.2018  134.3553   61.0559 H   0  0  0  0  0  0  0  0  0  0  0  0
  125.7647  132.3596   60.6981 H   0  0  0  0  0  0  0  0  0  0  0  0
  126.0006  127.8003   58.3204 H   0  0  0  0  0  0  0  0  0  0  0  0
  124.5439  127.9904   56.3171 H   0  0  0  0  0  0  0  0  0  0  0  0
  123.3097  130.1070   55.8726 H   0  0  0  0  0  0  0  0  0  0  0  0
  123.5144  132.0306   57.4401 H   0  0  0  0  0  0  0  0  0  0  0  0
  124.9761  131.8494   59.4426 H   0  0  0  0  0  0  0  0  0  0  0  0
  1  2  2  0
  2  3  1  0
  3  4  1  0
  4  5  1  0
  5  6  1  0
  6  7  2  0
  6  8  1  0
  8  9  1  0
  9 10  1  0
 10 11  1  0
 11 12  2  0
 12 13  1  0
 13 14  2  0
 14 15  1  0
 15 16  2  0
 16 17  1  0
 17 18  2  0
 18 19  1  0
 19 20  2  0
 20 21  1  0
 21 22  2  0
  4 23  1  0
 23 24  2  0
 23 25  1  0
  2 26  1  0
 26 27  1  0
 27 28  1  0
 28 29  2  0
 29 30  1  0
 30 31  2  0
 31 32  1  0
 32 33  2  0
 27 34  1  0
 34 35  2  0
 35 36  1  0
 36 37  2  0
 37 38  1  0
 38 39  2  0
 27 40  1  0
 40 41  2  0
 41 42  1  0
 42 43  2  0
 43 44  1  0
 44 45  2  0
 22 10  1  0
 33 28  1  0
 39 34  1  0
 45 40  1  0
 16 11  1  0
 22 17  1  0
  3 46  1  0
  3 47  1  0
  4 48  1  1
  5 49  1  0
  9 50  1  0
  9 51  1  0
 10 52  1  0
 12 53  1  0
 13 54  1  0
 14 55  1  0
 15 56  1  0
 18 57  1  0
 19 58  1  0
 20 59  1  0
 21 60  1  0
 26 61  1  0
 29 62  1  0
 30 63  1  0
 31 64  1  0
 32 65  1  0
 33 66  1  0
 35 67  1  0
 36 68  1  0
 37 69  1  0
 38 70  1  0
 39 71  1  0
 41 72  1  0
 42 73  1  0
 43 74  1  0
 44 75  1  0
 45 76  1  0
M  CHG  1  25  -1
M  END
>  <Binding energies>  (1) 
[-8.54]

>  <Ligand effiencies>  (1) 
[-0.18170212765957444]

>  <Interactions>  (1) 
["V-B:TYR:539:C:9839, V-B:PRO:540:CA:9855, V-A:ILE:369:CD1:3239, V-B:TYR:539:CE2:9848, V-B:PRO:540:C:9853, V-A:SER:385:CB:3409, V-B:ASP:366:CG:8185, V-A:PRO:482:CG:4327, V-A:PRO:482:CB:4326, V-B:TYR:539:CB:9843, V-A:LEU:475:CD2:4259, V-B:ALA:541:CA:9862, V-B:TYR:539:CD2:9846, V-A:LEU:475:CD1:4258, V-B:ALA:541:CB:9864, V-B:ARG:545:CZ:9898, V-B:GLY:453:C:9014, V-A:ILE:369:CG2:3237, H-B:ASP:366:OD2:8187, V-B:TYR:531:CZ:9766, V-A:TYR:484:CE1:4345, V-B:ASP:366:CB:8184, H-B:TYR:531:OH:9767, V-B:MET:535:CE:9807, V-A:PRO:540:CA:4883, V-A:PRO:540:C:4881, V-A:ALA:541:CB:4892, V-A:TYR:539:CE1:4875, V-B:TYR:531:CE1:9764, V-A:TYR:539:CZ:4877, V-B:ASP:366:C:8180, V-B:ASP:366:CA:8182, V-B:GLY:453:CA:9016, V-A:ALA:541:CA:4890"]

$$$$
RR6_Rahimova_2017
     RDKit          3D

 63 66  0  0  0  0  0  0  0  0999 V2000
  132.9950  125.3710   64.6180 C   0  0  0  0  0  0  0  0  0  0  0  0
  133.2650  124.4730   63.5500 O   0  0  0  0  0  0  0  0  0  0  0  0
  133.8480  124.9080   62.4030 C   0  0  0  0  0  0  0  0  0  0  0  0
  135.0710  124.9880   62.2510 O   0  0  0  0  0  0  0  0  0  0  0  0
  132.8580  125.2790   61.3370 C   0  0  0  0  0  0  0  0  0  0  0  0
  132.9530  124.7840   60.0290 C   0  0  0  0  0  0  0  0  0  0  0  0
  132.0230  125.1540   59.0600 C   0  0  0  0  0  0  0  0  0  0  0  0
  130.9790  126.0330   59.3860 C   0  0  0  0  0  0  0  0  0  0  0  0
  130.0050  126.4920   58.4810 N   0  0  0  0  0  0  0  0  0  0  0  0
  129.3210  125.8070   57.5380 C   0  0  0  0  0  0  0  0  0  0  0  0
  129.4330  124.6020   57.3090 O   0  0  0  0  0  0  0  0  0  0  0  0
  128.3820  126.6440   56.6630 C   0  0  0  0  0  0  0  0  0  0  0  0
  127.5590  128.0010   57.5600 S   0  0  0  0  0  0  0  0  0  0  0  0
  127.2750  127.4230   59.2200 C   0  0  0  0  0  0  0  0  0  0  0  0
  127.7390  126.1730   59.4610 N   0  0  0  0  0  0  0  0  0  0  0  0
  127.6080  125.6340   60.7000 C   0  0  0  0  0  0  0  0  0  0  0  0
  128.2030  124.2720   60.9010 C   0  0  0  0  0  0  0  0  0  0  0  0
  128.3890  123.3970   59.8190 C   0  0  0  0  0  0  0  0  0  0  0  0
  128.9290  122.1280   60.0070 C   0  0  0  0  0  0  0  0  0  0  0  0
  129.2990  121.7100   61.2850 C   0  0  0  0  0  0  0  0  0  0  0  0
  129.8790  120.3220   61.4870 C   0  0  0  0  0  0  0  0  0  0  0  0
  129.1250  122.5630   62.3720 C   0  0  0  0  0  0  0  0  0  0  0  0
  128.5850  123.8310   62.1780 C   0  0  0  0  0  0  0  0  0  0  0  0
  126.9850  126.3490   61.7280 C   0  0  0  0  0  0  0  0  0  0  0  0
  126.4930  127.6420   61.5020 C   0  0  0  0  0  0  0  0  0  0  0  0
  125.8560  128.3550   62.6490 C   0  0  0  0  0  0  0  0  0  0  0  0
  124.7050  129.1220   62.4480 C   0  0  0  0  0  0  0  0  0  0  0  0
  124.0960  129.7780   63.5150 C   0  0  0  0  0  0  0  0  0  0  0  0
  124.6210  129.6750   64.8020 C   0  0  0  0  0  0  0  0  0  0  0  0
  123.9500  130.3570   65.7990 O   0  0  0  0  0  0  0  0  0  0  0  0
  123.7690  129.7320   67.0650 C   0  0  0  0  0  0  0  0  0  0  0  0
  125.7740  128.9020   65.0100 C   0  0  0  0  0  0  0  0  0  0  0  0
  126.3800  128.2480   63.9410 C   0  0  0  0  0  0  0  0  0  0  0  0
  126.6340  128.1990   60.2070 C   0  0  0  0  0  0  0  0  0  0  0  0
  126.1160  129.5340   59.8940 C   0  0  0  0  0  0  0  0  0  0  0  0
  125.7080  130.5890   59.6480 N   0  0  0  0  0  0  0  0  0  0  0  0
  130.8710  126.5140   60.6910 C   0  0  0  0  0  0  0  0  0  0  0  0
  131.8040  126.1450   61.6570 C   0  0  0  0  0  0  0  0  0  0  0  0
  133.1497  124.8563   65.5778 H   0  0  0  0  0  0  0  0  0  0  0  0
  133.6733  126.2344   64.5514 H   0  0  0  0  0  0  0  0  0  0  0  0
  131.9530  125.7172   64.5514 H   0  0  0  0  0  0  0  0  0  0  0  0
  133.7701  124.0965   59.7650 H   0  0  0  0  0  0  0  0  0  0  0  0
  132.1072  124.7565   58.0378 H   0  0  0  0  0  0  0  0  0  0  0  0
  129.8660  127.4920   58.4910 H   0  0  0  0  0  0  0  0  0  0  0  0
  128.9689  127.0776   55.8399 H   0  0  0  0  0  0  0  0  0  0  0  0
  127.5906  125.9694   56.3045 H   0  0  0  0  0  0  0  0  0  0  0  0
  128.1035  123.7194   58.8068 H   0  0  0  0  0  0  0  0  0  0  0  0
  129.0639  121.4548   59.1476 H   0  0  0  0  0  0  0  0  0  0  0  0
  129.9659  120.1140   62.5637 H   0  0  0  0  0  0  0  0  0  0  0  0
  129.2170  119.5767   61.0219 H   0  0  0  0  0  0  0  0  0  0  0  0
  130.8744  120.2693   61.0219 H   0  0  0  0  0  0  0  0  0  0  0  0
  129.4137  122.2353   63.3816 H   0  0  0  0  0  0  0  0  0  0  0  0
  128.4551  124.5002   63.0413 H   0  0  0  0  0  0  0  0  0  0  0  0
  126.8801  125.8924   62.7232 H   0  0  0  0  0  0  0  0  0  0  0  0
  124.2765  129.2083   61.4386 H   0  0  0  0  0  0  0  0  0  0  0  0
  123.1935  130.3822   63.3406 H   0  0  0  0  0  0  0  0  0  0  0  0
  123.9790  130.4570   67.8652 H   0  0  0  0  0  0  0  0  0  0  0  0
  122.7314  129.3778   67.1541 H   0  0  0  0  0  0  0  0  0  0  0  0
  124.4568  128.8782   67.1541 H   0  0  0  0  0  0  0  0  0  0  0  0
  126.1998  128.8128   66.0203 H   0  0  0  0  0  0  0  0  0  0  0  0
  127.2806  127.6406   64.1144 H   0  0  0  0  0  0  0  0  0  0  0  0
  130.0443  127.1885   60.9586 H   0  0  0  0  0  0  0  0  0  0  0  0
  131.7126  126.5371   62.6807 H   0  0  0  0  0  0  0  0  0  0  0  0
  1  2  1  0
  2  3  1  0
  3  4  2  0
  3  5  1  0
  5  6  2  0
  6  7  1  0
  7  8  2  0
  8  9  1  0
  9 10  1  0
 10 11  2  0
 10 12  1  0
 12 13  1  0
 13 14  1  0
 14 15  2  0
 15 16  1  0
 16 17  1  0
 17 18  2  0
 18 19  1  0
 19 20  2  0
 20 21  1  0
 20 22  1  0
 22 23  2  0
 16 24  2  0
 24 25  1  0
 25 26  1  0
 26 27  2  0
 27 28  1  0
 28 29  2  0
 29 30  1  0
 30 31  1  0
 29 32  1  0
 32 33  2  0
 25 34  2  0
 34 35  1  0
 35 36  3  0
  8 37  1  0
 37 38  2  0
 38  5  1  0
 34 14  1  0
 23 17  1  0
 33 26  1  0
  1 39  1  0
  1 40  1  0
  1 41  1  0
  6 42  1  0
  7 43  1  0
  9 44  1  0
 12 45  1  0
 12 46  1  0
 18 47  1  0
 19 48  1  0
 21 49  1  0
 21 50  1  0
 21 51  1  0
 22 52  1  0
 23 53  1  0
 24 54  1  0
 27 55  1  0
 28 56  1  0
 31 57  1  0
 31 58  1  0
 31 59  1  0
 32 60  1  0
 33 61  1  0
 37 62  1  0
 38 63  1  0
M  END
>  <Binding energies>  (1) 
[-7.41]

>  <Ligand effiencies>  (1) 
[-0.19]

>  <Interactions>  (1) 
["V-A:ARG:545:CD:4923, V-A:ARG:545:CZ:4926, V-B:TYR:539:C:9839, V-B:PRO:540:CA:9855, V-B:GLU:543:CD:9880, V-A:TYR:484:CZ:4347, V-A:TYR:484:CE2:4346, V-B:TYR:539:CE2:9848, V-B:ASP:366:CG:8185, V-A:LEU:475:CD2:4259, H-A:TYR:484:OH:4348, V-B:TYR:539:CD2:9846, V-B:ALA:541:CB:9864, V-B:HIS:456:CE1:9042, V-B:ARG:545:CZ:9898, H-B:TYR:484:OH:9320, V-B:TYR:484:CZ:9319, H-B:GLY:454:N:9022, V-B:GLY:454:CA:9021, H-A:ARG:545:NH1:4927, H-A:GLY:454:N:4050, H-A:ARG:545:NH2:4928, V-A:ASP:366:CG:3213, V-A:ASP:366:CB:3212, V-A:GLY:453:CA:4044, V-A:GLY:453:C:4042, V-A:TYR:484:CE1:4345, V-B:MET:535:CE:9807, V-B:ARG:545:CG:9894, V-B:ARG:545:CD:9895, V-B:TYR:484:CE1:9317, V-B:GLY:453:CA:9016, H-B:TYR:539:OH:9850, V-B:ILE:455:C:9024, H-B:ILE:455:N:9027"]

$$$$
RR7_Rahimova_2017
     RDKit          3D

 80 86  0  0  0  0  0  0  0  0999 V2000
  125.7260  122.3670   56.7900 C   0  0  0  0  0  0  0  0  0  0  0  0
  126.3200  122.5720   58.0680 O   0  0  0  0  0  0  0  0  0  0  0  0
  126.5280  123.8630   58.5140 C   0  0  0  0  0  0  0  0  0  0  0  0
  127.0220  124.7730   57.5810 C   0  0  0  0  0  0  0  0  0  0  0  0
  127.2580  126.0970   57.9370 C   0  0  0  0  0  0  0  0  0  0  0  0
  127.0150  126.5420   59.2440 C   0  0  0  0  0  0  0  0  0  0  0  0
  127.2390  128.0280   59.6630 C   0  0  0  0  0  0  0  0  0  0  0  0
  128.5780  128.3720   59.2430 O   0  0  0  0  0  0  0  0  0  0  0  0
  129.0180  129.7330   59.2900 C   0  0  0  0  0  0  0  0  0  0  0  0
  130.5120  129.7900   58.9350 C   0  0  1  0  0  0  0  0  0  0  0  0
  131.1060  128.6050   59.4600 O   0  0  0  0  0  0  0  0  0  0  0  0
  131.7150  127.8380   58.4610 C   0  0  1  0  0  0  0  0  0  0  0  0
  131.6080  126.4270   58.7810 N   0  0  0  0  0  0  0  0  0  0  0  0
  132.0090  125.3470   58.0140 C   0  0  0  0  0  0  0  0  0  0  0  0
  131.7500  124.1690   58.5260 N   0  0  0  0  0  0  0  0  0  0  0  0
  131.0930  124.4570   59.6920 C   0  0  0  0  0  0  0  0  0  0  0  0
  130.5400  123.6320   60.6900 C   0  0  0  0  0  0  0  0  0  0  0  0
  130.6490  122.2350   60.5490 N   0  0  0  0  0  0  0  0  0  0  0  0
  130.3910  121.2640   61.4570 C   0  0  0  0  0  0  0  0  0  0  0  0
  130.0180  121.4760   62.6130 O   0  0  0  0  0  0  0  0  0  0  0  0
  130.6200  119.8450   60.9820 C   0  0  0  0  0  0  0  0  0  0  0  0
  129.8190  118.8080   61.4830 C   0  0  0  0  0  0  0  0  0  0  0  0
  130.0090  117.4970   61.0550 C   0  0  0  0  0  0  0  0  0  0  0  0
  130.9990  117.2120   60.1200 C   0  0  0  0  0  0  0  0  0  0  0  0
  131.8010  118.2280   59.6070 C   0  0  0  0  0  0  0  0  0  0  0  0
  131.6130  119.5400   60.0350 C   0  0  0  0  0  0  0  0  0  0  0  0
  129.9130  124.2070   61.7600 N   0  0  0  0  0  0  0  0  0  0  0  0
  129.8540  125.5640   61.8050 C   0  0  0  0  0  0  0  0  0  0  0  0
  130.3540  126.4500   60.9040 N   0  0  0  0  0  0  0  0  0  0  0  0
  130.9680  125.8580   59.8710 C   0  0  0  0  0  0  0  0  0  0  0  0
  131.0340  128.2570   57.1630 C   0  0  0  0  0  0  0  0  0  0  0  0
  130.8250  129.7370   57.4330 C   0  0  2  0  0  0  0  0  0  0  0  0
  131.9660  130.5060   57.0910 O   0  0  0  0  0  0  0  0  0  0  0  0
  126.2730  128.9990   58.9330 C   0  0  0  0  0  0  0  0  0  0  0  0
  126.0620  130.2960   59.4300 C   0  0  0  0  0  0  0  0  0  0  0  0
  125.1880  131.1690   58.7910 C   0  0  0  0  0  0  0  0  0  0  0  0
  124.5130  130.7550   57.6480 C   0  0  0  0  0  0  0  0  0  0  0  0
  124.7060  129.4750   57.1380 C   0  0  0  0  0  0  0  0  0  0  0  0
  125.5800  128.6010   57.7770 C   0  0  0  0  0  0  0  0  0  0  0  0
  127.0740  128.3370   61.1780 C   0  0  0  0  0  0  0  0  0  0  0  0
  125.7950  128.4680   61.7420 C   0  0  0  0  0  0  0  0  0  0  0  0
  125.6380  128.7540   63.0940 C   0  0  0  0  0  0  0  0  0  0  0  0
  126.7620  128.9210   63.8990 C   0  0  0  0  0  0  0  0  0  0  0  0
  128.0390  128.8090   63.3580 C   0  0  0  0  0  0  0  0  0  0  0  0
  128.1940  128.5230   62.0050 C   0  0  0  0  0  0  0  0  0  0  0  0
  126.5040  125.6260   60.1760 C   0  0  0  0  0  0  0  0  0  0  0  0
  126.2680  124.3010   59.8200 C   0  0  0  0  0  0  0  0  0  0  0  0
  124.6933  122.0106   56.9186 H   0  0  0  0  0  0  0  0  0  0  0  0
  125.7199  123.3150   56.2322 H   0  0  0  0  0  0  0  0  0  0  0  0
  126.3059  121.6170   56.2322 H   0  0  0  0  0  0  0  0  0  0  0  0
  127.2274  124.4409   56.5526 H   0  0  0  0  0  0  0  0  0  0  0  0
  127.6396  126.8027   57.1844 H   0  0  0  0  0  0  0  0  0  0  0  0
  128.4443  130.3310   58.5666 H   0  0  0  0  0  0  0  0  0  0  0  0
  128.8610  130.1390   60.3002 H   0  0  0  0  0  0  0  0  0  0  0  0
  130.8839  130.7445   59.3358 H   0  0  0  0  0  0  0  0  0  0  0  0
  132.7978  128.0073   58.3667 H   0  0  0  0  0  0  0  0  0  0  0  0
  132.5101  125.4690   57.0424 H   0  0  0  0  0  0  0  0  0  0  0  0
  130.9680  121.9300   59.6410 H   0  0  0  0  0  0  0  0  0  0  0  0
  129.0342  119.0327   62.2203 H   0  0  0  0  0  0  0  0  0  0  0  0
  129.3785  116.6891   61.4547 H   0  0  0  0  0  0  0  0  0  0  0  0
  131.1494  116.1756   59.7833 H   0  0  0  0  0  0  0  0  0  0  0  0
  132.5803  117.9953   58.8663 H   0  0  0  0  0  0  0  0  0  0  0  0
  132.2459  120.3430   59.6292 H   0  0  0  0  0  0  0  0  0  0  0  0
  129.3396  125.9973   62.6754 H   0  0  0  0  0  0  0  0  0  0  0  0
  131.6827  128.0899   56.2905 H   0  0  0  0  0  0  0  0  0  0  0  0
  130.1174  127.6985   56.9223 H   0  0  0  0  0  0  0  0  0  0  0  0
  130.0192  130.1707   56.8226 H   0  0  0  0  0  0  0  0  0  0  0  0
  132.3400  130.1540   56.2800 H   0  0  0  0  0  0  0  0  0  0  0  0
  126.5941  130.6248   60.3348 H   0  0  0  0  0  0  0  0  0  0  0  0
  125.0314  132.1828   59.1882 H   0  0  0  0  0  0  0  0  0  0  0  0
  123.8209  131.4450   57.1430 H   0  0  0  0  0  0  0  0  0  0  0  0
  124.1694  129.1550   56.2326 H   0  0  0  0  0  0  0  0  0  0  0  0
  125.7300  127.5888   57.3734 H   0  0  0  0  0  0  0  0  0  0  0  0
  124.9059  128.3429   61.1066 H   0  0  0  0  0  0  0  0  0  0  0  0
  124.6305  128.8479   63.5255 H   0  0  0  0  0  0  0  0  0  0  0  0
  126.6395  129.1429   64.9694 H   0  0  0  0  0  0  0  0  0  0  0  0
  128.9232  128.9461   63.9978 H   0  0  0  0  0  0  0  0  0  0  0  0
  129.2047  128.4417   61.5785 H   0  0  0  0  0  0  0  0  0  0  0  0
  126.2870  125.9593   61.2016 H   0  0  0  0  0  0  0  0  0  0  0  0
  125.8759  123.5948   60.5667 H   0  0  0  0  0  0  0  0  0  0  0  0
  1  2  1  0
  2  3  1  0
  3  4  2  0
  4  5  1  0
  5  6  2  0
  6  7  1  0
  7  8  1  0
  8  9  1  0
  9 10  1  0
 10 11  1  0
 11 12  1  0
 12 13  1  0
 13 14  1  0
 14 15  2  0
 15 16  1  0
 16 17  2  0
 17 18  1  0
 18 19  1  0
 19 20  2  0
 19 21  1  0
 21 22  2  0
 22 23  1  0
 23 24  2  0
 24 25  1  0
 25 26  2  0
 17 27  1  0
 27 28  2  0
 28 29  1  0
 29 30  2  0
 12 31  1  0
 31 32  1  0
 32 33  1  0
  7 34  1  0
 34 35  2  0
 35 36  1  0
 36 37  2  0
 37 38  1  0
 38 39  2  0
  7 40  1  0
 40 41  2  0
 41 42  1  0
 42 43  2  0
 43 44  1  0
 44 45  2  0
  6 46  1  0
 46 47  2  0
 47  3  1  0
 32 10  1  0
 39 34  1  0
 45 40  1  0
 30 13  1  0
 30 16  1  0
 26 21  1  0
  1 48  1  0
  1 49  1  0
  1 50  1  0
  4 51  1  0
  5 52  1  0
  9 53  1  0
  9 54  1  0
 10 55  1  1
 12 56  1  6
 14 57  1  0
 18 58  1  0
 22 59  1  0
 23 60  1  0
 24 61  1  0
 25 62  1  0
 26 63  1  0
 28 64  1  0
 31 65  1  0
 31 66  1  0
 32 67  1  6
 33 68  1  0
 35 69  1  0
 36 70  1  0
 37 71  1  0
 38 72  1  0
 39 73  1  0
 41 74  1  0
 42 75  1  0
 43 76  1  0
 44 77  1  0
 45 78  1  0
 46 79  1  0
 47 80  1  0
M  END
>  <Binding energies>  (1) 
[-8.11]

>  <Ligand effiencies>  (1) 
[-0.16551020408163264]

>  <Interactions>  (1) 
["V-B:PRO:540:CD:9859, V-B:PRO:540:CB:9857, V-B:TYR:539:C:9839, V-B:PRO:540:CA:9855, V-B:PRO:540:N:9856, V-B:TYR:539:CE2:9848, V-A:SER:385:CB:3409, V-B:ASP:366:CG:8185, V-A:PRO:482:CG:4327, V-A:PRO:482:CB:4326, V-B:TYR:539:CB:9843, V-A:LEU:475:CD2:4259, H-A:TYR:484:OH:4348, V-B:TYR:539:CD2:9846, V-A:LEU:475:CD1:4258, V-A:LEU:475:CG:4257, V-B:ALA:541:CB:9864, V-B:ARG:545:CZ:9898, V-A:GLU:543:CD:4908, V-A:ASP:366:CG:3213, V-A:ASP:366:CB:3212, V-B:TYR:531:CZ:9766, V-B:ASP:366:CB:8184, H-A:TYR:531:OH:4795, V-A:TYR:539:CE1:4875, V-B:TYR:531:CE1:9764, V-A:TYR:539:CZ:4877, V-B:ASP:366:C:8180, V-B:ASP:366:CA:8182, H-B:TYR:539:OH:9850"]

$$$$
RR8_A_Rahimova_2017
     RDKit          3D

 73 77  0  0  0  0  0  0  0  0999 V2000
  125.3660  123.1070   62.2610 O   0  0  0  0  0  0  0  0  0  0  0  0
  126.2000  123.4940   61.4360 C   0  0  0  0  0  0  0  0  0  0  0  0
  126.0300  124.5740   60.6120 O   0  0  0  0  0  0  0  0  0  0  0  0
  126.8330  125.6990   60.8430 C   0  0  1  0  0  0  0  0  0  0  0  0
  127.6650  125.5190   61.9520 O   0  0  0  0  0  0  0  0  0  0  0  0
  128.9540  126.0900   61.7460 C   0  0  2  0  0  0  0  0  0  0  0  0
  129.2390  127.0830   62.8850 C   0  0  0  0  0  0  0  0  0  0  0  0
  128.0190  127.3800   63.5500 O   0  0  0  0  0  0  0  0  0  0  0  0
  127.9390  128.7100   64.0450 C   0  0  0  0  0  0  0  0  0  0  0  0
  126.5450  128.9720   64.5960 C   0  0  0  0  0  0  0  0  0  0  0  0
  126.2840  128.7750   65.9540 C   0  0  0  0  0  0  0  0  0  0  0  0
  125.0100  129.0200   66.4620 C   0  0  0  0  0  0  0  0  0  0  0  0
  124.0020  129.4660   65.6100 C   0  0  0  0  0  0  0  0  0  0  0  0
  124.2550  129.6720   64.2550 C   0  0  0  0  0  0  0  0  0  0  0  0
  125.5290  129.4280   63.7480 C   0  0  0  0  0  0  0  0  0  0  0  0
  128.8610  126.7030   60.3420 C   0  0  1  0  0  0  0  0  0  0  0  0
  130.0570  126.5460   59.5810 O   0  0  0  0  0  0  0  0  0  0  0  0
  130.3920  125.2090   59.2270 C   0  0  0  0  0  0  0  0  0  0  0  0
  131.6740  124.7910   59.9340 C   0  0  0  0  0  0  0  0  0  0  0  0
  131.7420  124.8330   61.3300 C   0  0  0  0  0  0  0  0  0  0  0  0
  132.9130  124.4610   61.9830 C   0  0  0  0  0  0  0  0  0  0  0  0
  134.0180  124.0510   61.2380 C   0  0  0  0  0  0  0  0  0  0  0  0
  133.9620  124.0130   59.8470 C   0  0  0  0  0  0  0  0  0  0  0  0
  132.7900  124.3860   59.1940 C   0  0  0  0  0  0  0  0  0  0  0  0
  127.7850  125.8720   59.6680 C   0  0  2  0  0  0  0  0  0  0  0  0
  127.2170  126.5810   58.5700 O   0  0  0  0  0  0  0  0  0  0  0  0
  127.5050  126.0540   57.2800 C   0  0  0  0  0  0  0  0  0  0  0  0
  126.9210  124.6560   57.1490 C   0  0  0  0  0  0  0  0  0  0  0  0
  127.6240  123.6610   56.4610 C   0  0  0  0  0  0  0  0  0  0  0  0
  127.0890  122.3800   56.3520 C   0  0  0  0  0  0  0  0  0  0  0  0
  125.8560  122.0950   56.9340 C   0  0  0  0  0  0  0  0  0  0  0  0
  125.1520  123.0780   57.6250 C   0  0  0  0  0  0  0  0  0  0  0  0
  125.6860  124.3600   57.7350 C   0  0  0  0  0  0  0  0  0  0  0  0
  127.5290  122.8220   61.2410 C   0  0  0  0  0  0  0  0  0  0  0  0
  128.0870  122.6370   59.9660 C   0  0  0  0  0  0  0  0  0  0  0  0
  129.3200  122.0090   59.8190 C   0  0  0  0  0  0  0  0  0  0  0  0
  130.0260  121.5480   60.9380 C   0  0  0  0  0  0  0  0  0  0  0  0
  131.3410  120.8800   60.7790 N   0  0  0  0  0  0  0  0  0  0  0  0
  132.3570  121.5060   61.0660 O   0  0  0  0  0  0  0  0  0  0  0  0
  131.3670  119.7240   60.3670 O   0  0  0  0  0  0  0  0  0  0  0  0
  129.4670  121.7300   62.2090 C   0  0  0  0  0  0  0  0  0  0  0  0
  128.2340  122.3580   62.3590 C   0  0  0  0  0  0  0  0  0  0  0  0
  126.1566  126.5534   60.9929 H   0  0  0  0  0  0  0  0  0  0  0  0
  129.8017  125.3897   61.7780 H   0  0  0  0  0  0  0  0  0  0  0  0
  129.9484  126.6355   63.5966 H   0  0  0  0  0  0  0  0  0  0  0  0
  129.6756  128.0059   62.4755 H   0  0  0  0  0  0  0  0  0  0  0  0
  128.6800  128.8466   64.8464 H   0  0  0  0  0  0  0  0  0  0  0  0
  128.1443  129.4152   63.2262 H   0  0  0  0  0  0  0  0  0  0  0  0
  127.0847  128.4262   66.6227 H   0  0  0  0  0  0  0  0  0  0  0  0
  124.8011  128.8621   67.5304 H   0  0  0  0  0  0  0  0  0  0  0  0
  122.9958  129.6576   66.0110 H   0  0  0  0  0  0  0  0  0  0  0  0
  123.4532  130.0252   63.5899 H   0  0  0  0  0  0  0  0  0  0  0  0
  125.7369  129.5937   62.6806 H   0  0  0  0  0  0  0  0  0  0  0  0
  128.6667  127.7838   60.4064 H   0  0  0  0  0  0  0  0  0  0  0  0
  129.5745  124.5367   59.5266 H   0  0  0  0  0  0  0  0  0  0  0  0
  130.5428  125.1496   58.1390 H   0  0  0  0  0  0  0  0  0  0  0  0
  130.8685  125.1606   61.9128 H   0  0  0  0  0  0  0  0  0  0  0  0
  132.9667  124.4902   63.0813 H   0  0  0  0  0  0  0  0  0  0  0  0
  134.9431  123.7546   61.7541 H   0  0  0  0  0  0  0  0  0  0  0  0
  134.8391  123.6900   59.2671 H   0  0  0  0  0  0  0  0  0  0  0  0
  132.7417  124.3622   58.0953 H   0  0  0  0  0  0  0  0  0  0  0  0
  128.1059  124.9229   59.2139 H   0  0  0  0  0  0  0  0  0  0  0  0
  127.0637  126.7069   56.5126 H   0  0  0  0  0  0  0  0  0  0  0  0
  128.5955  126.0048   57.1445 H   0  0  0  0  0  0  0  0  0  0  0  0
  128.5990  123.8906   56.0064 H   0  0  0  0  0  0  0  0  0  0  0  0
  127.6377  121.5966   55.8087 H   0  0  0  0  0  0  0  0  0  0  0  0
  125.4340  121.0829   56.8469 H   0  0  0  0  0  0  0  0  0  0  0  0
  124.1792  122.8434   58.0817 H   0  0  0  0  0  0  0  0  0  0  0  0
  125.1363  125.1396   58.2828 H   0  0  0  0  0  0  0  0  0  0  0  0
  127.5454  122.9912   59.0765 H   0  0  0  0  0  0  0  0  0  0  0  0
  129.7450  121.8730   58.8136 H   0  0  0  0  0  0  0  0  0  0  0  0
  130.0079  121.3730   63.0978 H   0  0  0  0  0  0  0  0  0  0  0  0
  127.8092  122.4912   63.3649 H   0  0  0  0  0  0  0  0  0  0  0  0
  1  2  2  0
  2  3  1  0
  3  4  1  0
  4  5  1  0
  5  6  1  0
  6  7  1  0
  7  8  1  0
  8  9  1  0
  9 10  1  0
 10 11  2  0
 11 12  1  0
 12 13  2  0
 13 14  1  0
 14 15  2  0
  6 16  1  0
 16 17  1  0
 17 18  1  0
 18 19  1  0
 19 20  2  0
 20 21  1  0
 21 22  2  0
 22 23  1  0
 23 24  2  0
 16 25  1  0
 25 26  1  0
 26 27  1  0
 27 28  1  0
 28 29  2  0
 29 30  1  0
 30 31  2  0
 31 32  1  0
 32 33  2  0
  2 34  1  0
 34 35  2  0
 35 36  1  0
 36 37  2  0
 37 38  1  0
 38 39  2  0
 38 40  1  0
 37 41  1  0
 41 42  2  0
 25  4  1  0
 33 28  1  0
 42 34  1  0
 15 10  1  0
 24 19  1  0
  4 43  1  1
  6 44  1  6
  7 45  1  0
  7 46  1  0
  9 47  1  0
  9 48  1  0
 11 49  1  0
 12 50  1  0
 13 51  1  0
 14 52  1  0
 15 53  1  0
 16 54  1  1
 18 55  1  0
 18 56  1  0
 20 57  1  0
 21 58  1  0
 22 59  1  0
 23 60  1  0
 24 61  1  0
 25 62  1  6
 27 63  1  0
 27 64  1  0
 29 65  1  0
 30 66  1  0
 31 67  1  0
 32 68  1  0
 33 69  1  0
 35 70  1  0
 36 71  1  0
 41 72  1  0
 42 73  1  0
M  CHG  2  38   1  40  -1
M  END
>  <Binding energies>  (1) 
[-8.38]

>  <Ligand effiencies>  (1) 
[-0.19952380952380955]

>  <Interactions>  (1) 
["V-B:PRO:540:CD:9859, V-B:PRO:540:CB:9857, V-B:TYR:539:C:9839, V-B:PRO:540:CA:9855, V-B:PRO:540:CG:9858, V-B:PRO:540:N:9856, V-B:GLU:543:CD:9880, V-A:ILE:369:CD1:3239, V-B:TYR:539:CE2:9848, V-B:PRO:540:C:9853, H-B:ALA:541:N:9863, V-A:LEU:475:CD2:4259, V-B:TYR:539:CA:9841, V-B:TYR:539:CD2:9846, V-B:ALA:541:CB:9864, V-B:HIS:456:CE1:9042, V-B:ARG:545:CZ:9898, V-A:GLU:543:CD:4908, V-B:GLY:453:C:9014, V-A:GLU:543:CG:4907, V-B:TYR:484:CZ:9319, V-A:ILE:369:CG2:3237, V-A:ASP:366:CG:3213, V-A:ILE:369:CB:3236, V-A:ASP:366:CA:3210, V-B:GLU:543:CG:9879, V-B:TYR:531:CZ:9766, V-B:TYR:539:CG:9844, V-A:TYR:484:CE1:4345, V-B:TYR:539:CZ:9849, V-B:TYR:539:CE1:9847, V-B:TYR:539:CD1:9845, V-B:MET:535:CE:9807, H-B:ARG:545:NH2:9900, V-B:ARG:545:CG:9894, V-B:ARG:545:CD:9895, V-B:GLY:453:CA:9016"]

$$$$
RR8_B_Rahimova_2017
     RDKit          3D

 73 77  0  0  0  0  0  0  0  0999 V2000
  129.8960  127.2820   61.4980 O   0  0  0  0  0  0  0  0  0  0  0  0
  130.0480  126.1780   62.0300 C   0  0  0  0  0  0  0  0  0  0  0  0
  129.3180  125.0640   61.7180 O   0  0  0  0  0  0  0  0  0  0  0  0
  129.3660  123.9700   62.6010 C   0  0  2  0  0  0  0  0  0  0  0  0
  130.6170  123.3440   62.5900 O   0  0  0  0  0  0  0  0  0  0  0  0
  130.6610  122.2830   61.6370 C   0  0  2  0  0  0  0  0  0  0  0  0
  131.7910  122.5460   60.6260 C   0  0  0  0  0  0  0  0  0  0  0  0
  132.2320  123.8920   60.7580 O   0  0  0  0  0  0  0  0  0  0  0  0
  133.2920  124.2620   59.8880 C   0  0  0  0  0  0  0  0  0  0  0  0
  132.7420  125.1350   58.7710 C   0  0  0  0  0  0  0  0  0  0  0  0
  131.7030  126.0320   59.0380 C   0  0  0  0  0  0  0  0  0  0  0  0
  131.1780  126.8160   58.0140 C   0  0  0  0  0  0  0  0  0  0  0  0
  131.6960  126.7020   56.7250 C   0  0  0  0  0  0  0  0  0  0  0  0
  132.7340  125.8150   56.4520 C   0  0  0  0  0  0  0  0  0  0  0  0
  133.2570  125.0280   57.4760 C   0  0  0  0  0  0  0  0  0  0  0  0
  129.2460  122.2420   61.0490 C   0  0  1  0  0  0  0  0  0  0  0  0
  128.8740  120.8900   60.7690 O   0  0  0  0  0  0  0  0  0  0  0  0
  129.4690  119.8710   61.5770 C   0  0  0  0  0  0  0  0  0  0  0  0
  130.2520  118.8580   60.7480 C   0  0  0  0  0  0  0  0  0  0  0  0
  131.3760  119.2650   60.0220 C   0  0  0  0  0  0  0  0  0  0  0  0
  132.1070  118.3320   59.2920 C   0  0  0  0  0  0  0  0  0  0  0  0
  131.7100  116.9960   59.2870 C   0  0  0  0  0  0  0  0  0  0  0  0
  130.5890  116.5850   60.0040 C   0  0  0  0  0  0  0  0  0  0  0  0
  129.8590  117.5170   60.7370 C   0  0  0  0  0  0  0  0  0  0  0  0
  128.3910  122.8920   62.1310 C   0  0  2  0  0  0  0  0  0  0  0  0
  127.1880  123.4110   61.5680 O   0  0  0  0  0  0  0  0  0  0  0  0
  127.3550  124.3120   60.4850 C   0  0  0  0  0  0  0  0  0  0  0  0
  126.8300  123.6450   59.2260 C   0  0  0  0  0  0  0  0  0  0  0  0
  127.7030  122.9680   58.3700 C   0  0  0  0  0  0  0  0  0  0  0  0
  127.2130  122.3760   57.2080 C   0  0  0  0  0  0  0  0  0  0  0  0
  125.8560  122.4650   56.9060 C   0  0  0  0  0  0  0  0  0  0  0  0
  124.9800  123.1380   57.7560 C   0  0  0  0  0  0  0  0  0  0  0  0
  125.4690  123.7280   58.9180 C   0  0  0  0  0  0  0  0  0  0  0  0
  131.0410  125.9240   63.1270 C   0  0  0  0  0  0  0  0  0  0  0  0
  130.6680  125.9400   64.4800 C   0  0  0  0  0  0  0  0  0  0  0  0
  131.6110  125.7100   65.4750 C   0  0  0  0  0  0  0  0  0  0  0  0
  132.9510  125.4690   65.1470 C   0  0  0  0  0  0  0  0  0  0  0  0
  133.9600  125.2500   66.2120 N   0  0  0  0  0  0  0  0  0  0  0  0
  135.0200  124.7040   65.9160 O   0  0  0  0  0  0  0  0  0  0  0  0
  133.7030  125.6260   67.3530 O   0  0  0  0  0  0  0  0  0  0  0  0
  133.3210  125.4460   63.7960 C   0  0  0  0  0  0  0  0  0  0  0  0
  132.3770  125.6690   62.7990 C   0  0  0  0  0  0  0  0  0  0  0  0
  129.1311  124.3674   63.5994 H   0  0  0  0  0  0  0  0  0  0  0  0
  130.9057  121.2941   62.0521 H   0  0  0  0  0  0  0  0  0  0  0  0
  132.6297  121.8627   60.8254 H   0  0  0  0  0  0  0  0  0  0  0  0
  131.4200  122.3769   59.6044 H   0  0  0  0  0  0  0  0  0  0  0  0
  134.0522  124.8223   60.4521 H   0  0  0  0  0  0  0  0  0  0  0  0
  133.7498  123.3585   59.4589 H   0  0  0  0  0  0  0  0  0  0  0  0
  131.3001  126.1183   60.0579 H   0  0  0  0  0  0  0  0  0  0  0  0
  130.3594  127.5210   58.2210 H   0  0  0  0  0  0  0  0  0  0  0  0
  131.2804  127.3193   55.9149 H   0  0  0  0  0  0  0  0  0  0  0  0
  133.1393  125.7359   55.4325 H   0  0  0  0  0  0  0  0  0  0  0  0
  134.0746  124.3229   57.2654 H   0  0  0  0  0  0  0  0  0  0  0  0
  129.1368  122.7685   60.0894 H   0  0  0  0  0  0  0  0  0  0  0  0
  130.1538  120.3445   62.2959 H   0  0  0  0  0  0  0  0  0  0  0  0
  128.6585  119.3318   62.0892 H   0  0  0  0  0  0  0  0  0  0  0  0
  131.6821  120.3215   60.0279 H   0  0  0  0  0  0  0  0  0  0  0  0
  132.9934  118.6475   58.7221 H   0  0  0  0  0  0  0  0  0  0  0  0
  132.2881  116.2586   58.7108 H   0  0  0  0  0  0  0  0  0  0  0  0
  130.2817  115.5289   59.9913 H   0  0  0  0  0  0  0  0  0  0  0  0
  128.9738  117.1980   61.3068 H   0  0  0  0  0  0  0  0  0  0  0  0
  128.0303  122.2393   62.9396 H   0  0  0  0  0  0  0  0  0  0  0  0
  126.7910  125.2362   60.6794 H   0  0  0  0  0  0  0  0  0  0  0  0
  128.4182  124.5671   60.3641 H   0  0  0  0  0  0  0  0  0  0  0  0
  128.7738  122.9028   58.6130 H   0  0  0  0  0  0  0  0  0  0  0  0
  127.8951  121.8403   56.5315 H   0  0  0  0  0  0  0  0  0  0  0  0
  125.4716  121.9991   55.9867 H   0  0  0  0  0  0  0  0  0  0  0  0
  123.9097  123.2024   57.5102 H   0  0  0  0  0  0  0  0  0  0  0  0
  124.7839  124.2600   59.5945 H   0  0  0  0  0  0  0  0  0  0  0  0
  129.6212  126.1361   64.7551 H   0  0  0  0  0  0  0  0  0  0  0  0
  131.3016  125.7174   66.5306 H   0  0  0  0  0  0  0  0  0  0  0  0
  134.3679  125.2498   63.5211 H   0  0  0  0  0  0  0  0  0  0  0  0
  132.6837  125.6446   61.7429 H   0  0  0  0  0  0  0  0  0  0  0  0
  1  2  2  0
  2  3  1  0
  3  4  1  0
  4  5  1  0
  5  6  1  0
  6  7  1  0
  7  8  1  0
  8  9  1  0
  9 10  1  0
 10 11  2  0
 11 12  1  0
 12 13  2  0
 13 14  1  0
 14 15  2  0
  6 16  1  0
 16 17  1  0
 17 18  1  0
 18 19  1  0
 19 20  2  0
 20 21  1  0
 21 22  2  0
 22 23  1  0
 23 24  2  0
 16 25  1  0
 25 26  1  0
 26 27  1  0
 27 28  1  0
 28 29  2  0
 29 30  1  0
 30 31  2  0
 31 32  1  0
 32 33  2  0
  2 34  1  0
 34 35  2  0
 35 36  1  0
 36 37  2  0
 37 38  1  0
 38 39  2  0
 38 40  1  0
 37 41  1  0
 41 42  2  0
 25  4  1  0
 33 28  1  0
 42 34  1  0
 15 10  1  0
 24 19  1  0
  4 43  1  1
  6 44  1  1
  7 45  1  0
  7 46  1  0
  9 47  1  0
  9 48  1  0
 11 49  1  0
 12 50  1  0
 13 51  1  0
 14 52  1  0
 15 53  1  0
 16 54  1  6
 18 55  1  0
 18 56  1  0
 20 57  1  0
 21 58  1  0
 22 59  1  0
 23 60  1  0
 24 61  1  0
 25 62  1  1
 27 63  1  0
 27 64  1  0
 29 65  1  0
 30 66  1  0
 31 67  1  0
 32 68  1  0
 33 69  1  0
 35 70  1  0
 36 71  1  0
 41 72  1  0
 42 73  1  0
M  CHG  2  38   1  40  -1
M  END
>  <Binding energies>  (1) 
[-8.58]

>  <Ligand effiencies>  (1) 
[-0.2042857142857143]

>  <Interactions>  (1) 
["V-B:PRO:540:CD:9859, V-B:LEU:363:CD1:8161, V-A:ARG:545:CD:4923, V-B:PRO:540:CB:9857, V-A:ARG:545:CZ:4926, V-B:TYR:539:C:9839, V-B:PRO:540:CA:9855, V-B:PRO:540:CG:9858, V-B:PRO:540:N:9856, V-B:GLU:543:CD:9880, V-A:ILE:369:CD1:3239, V-A:TYR:484:CZ:4347, V-A:TYR:484:CE2:4346, V-B:TYR:539:CE2:9848, V-A:ARG:545:CG:4922, V-B:PRO:540:C:9853, V-A:HIS:456:CE1:4070, V-A:SER:385:CB:3409, V-A:HIS:383:CE1:3394, V-A:PRO:482:CG:4327, V-A:PRO:482:CB:4326, V-B:TYR:539:CB:9843, V-A:LEU:475:CD2:4259, H-A:TYR:484:OH:4348, V-B:TYR:539:CA:9841, V-B:TYR:539:CD2:9846, V-B:ALA:541:CB:9864, V-A:LEU:373:CD1:3280, V-A:GLU:543:CD:4908, H-A:GLY:454:N:4050, V-A:ILE:369:CG2:3237, V-A:ASP:366:CG:3213, V-A:ASP:366:CB:3212, V-A:ASP:366:C:3208, H-A:ARG:545:NE:4924, V-A:ASP:366:CA:3210, V-B:TYR:539:CG:9844, V-B:TYR:539:CZ:9849, V-B:TYR:539:CD1:9845, V-A:ILE:455:C:4052, H-A:ILE:455:N:4055, H-A:HIS:456:ND1:4067"]

$$$$
RR9_Rahimova_2017
     RDKit          3D

 64 68  0  0  0  0  0  0  0  0999 V2000
  127.6350  133.1020   61.9440 C   0  0  0  0  0  0  0  0  0  0  0  0
  127.9330  133.3020   60.4550 C   0  0  0  0  0  0  0  0  0  0  0  0
  129.2970  132.9710   60.2120 O   0  0  0  0  0  0  0  0  0  0  0  0
  129.7050  131.6550   60.3180 C   0  0  0  0  0  0  0  0  0  0  0  0
  128.7390  130.6810   60.0740 C   0  0  0  0  0  0  0  0  0  0  0  0
  129.0570  129.3300   60.1590 C   0  0  0  0  0  0  0  0  0  0  0  0
  130.3540  128.9130   60.4930 C   0  0  0  0  0  0  0  0  0  0  0  0
  130.7020  127.4570   60.5910 C   0  0  0  0  0  0  0  0  0  0  0  0
  130.0610  126.4920   59.7990 C   0  0  0  0  0  0  0  0  0  0  0  0
  130.4000  125.1300   59.8850 C   0  0  0  0  0  0  0  0  0  0  0  0
  129.7490  124.1590   58.9380 C   0  0  0  0  0  0  0  0  0  0  0  0
  129.5880  122.9830   59.2650 O   0  0  0  0  0  0  0  0  0  0  0  0
  129.3940  124.6600   57.7380 N   0  0  0  0  0  0  0  0  0  0  0  0
  128.8680  123.8890   56.6070 C   0  0  0  0  0  0  0  0  0  0  0  0
  128.0330  122.6640   57.0450 C   0  0  0  0  0  0  0  0  0  0  0  0
  126.5920  122.9800   57.4310 C   0  0  0  0  0  0  0  0  0  0  0  0
  126.3020  123.5010   58.6960 C   0  0  0  0  0  0  0  0  0  0  0  0
  124.9890  123.8200   59.0320 C   0  0  0  0  0  0  0  0  0  0  0  0
  123.9700  123.6140   58.1050 C   0  0  0  0  0  0  0  0  0  0  0  0
  124.2510  123.0910   56.8440 C   0  0  0  0  0  0  0  0  0  0  0  0
  125.5640  122.7720   56.5070 C   0  0  0  0  0  0  0  0  0  0  0  0
  131.3930  124.7900   60.8370 C   0  0  0  0  0  0  0  0  0  0  0  0
  132.0570  123.6110   61.3410 C   0  0  0  0  0  0  0  0  0  0  0  0
  131.8150  122.1740   61.0160 C   0  0  0  0  0  0  0  0  0  0  0  0
  132.7720  121.4420   60.3060 C   0  0  0  0  0  0  0  0  0  0  0  0
  132.5370  120.1060   59.9900 C   0  0  0  0  0  0  0  0  0  0  0  0
  131.3450  119.4960   60.3860 C   0  0  0  0  0  0  0  0  0  0  0  0
  131.0810  118.0450   60.0260 C   0  0  0  0  0  0  0  0  0  0  0  0
  130.3870  120.2240   61.0930 C   0  0  0  0  0  0  0  0  0  0  0  0
  130.6240  121.5580   61.4100 C   0  0  0  0  0  0  0  0  0  0  0  0
  132.9750  123.9400   62.2220 N   0  0  0  0  0  0  0  0  0  0  0  0
  132.9320  125.2710   62.3860 N   0  0  0  0  0  0  0  0  0  0  0  0
  131.9790  125.8440   61.5780 C   0  0  0  0  0  0  0  0  0  0  0  0
  131.6710  127.1380   61.4940 N   0  0  0  0  0  0  0  0  0  0  0  0
  131.3200  129.8980   60.7390 C   0  0  0  0  0  0  0  0  0  0  0  0
  131.0050  131.2530   60.6530 C   0  0  0  0  0  0  0  0  0  0  0  0
  128.4008  133.6160   62.5435 H   0  0  0  0  0  0  0  0  0  0  0  0
  126.6446  133.5190   62.1790 H   0  0  0  0  0  0  0  0  0  0  0  0
  127.6456  132.0274   62.1790 H   0  0  0  0  0  0  0  0  0  0  0  0
  127.2815  132.6484   59.8564 H   0  0  0  0  0  0  0  0  0  0  0  0
  127.7463  134.3488   60.1735 H   0  0  0  0  0  0  0  0  0  0  0  0
  127.7146  130.9838   59.8115 H   0  0  0  0  0  0  0  0  0  0  0  0
  128.2799  128.5770   59.9614 H   0  0  0  0  0  0  0  0  0  0  0  0
  129.2764  126.8079   59.0957 H   0  0  0  0  0  0  0  0  0  0  0  0
  129.4860  125.6540   57.5920 H   0  0  0  0  0  0  0  0  0  0  0  0
  128.2304  124.5485   55.9999 H   0  0  0  0  0  0  0  0  0  0  0  0
  129.7302  123.5119   56.0375 H   0  0  0  0  0  0  0  0  0  0  0  0
  128.0149  121.9461   56.2118 H   0  0  0  0  0  0  0  0  0  0  0  0
  128.5166  122.2657   57.9492 H   0  0  0  0  0  0  0  0  0  0  0  0
  127.1106  123.6587   59.4250 H   0  0  0  0  0  0  0  0  0  0  0  0
  124.7575  124.2328   60.0250 H   0  0  0  0  0  0  0  0  0  0  0  0
  122.9329  123.8667   58.3708 H   0  0  0  0  0  0  0  0  0  0  0  0
  123.4397  122.9310   56.1186 H   0  0  0  0  0  0  0  0  0  0  0  0
  125.7920  122.3566   55.5143 H   0  0  0  0  0  0  0  0  0  0  0  0
  133.7120  121.9222   59.9965 H   0  0  0  0  0  0  0  0  0  0  0  0
  133.2895  119.5322   59.4292 H   0  0  0  0  0  0  0  0  0  0  0  0
  130.9732  117.4526   60.9466 H   0  0  0  0  0  0  0  0  0  0  0  0
  130.1556  117.9763   59.4353 H   0  0  0  0  0  0  0  0  0  0  0  0
  131.9229  117.6548   59.4353 H   0  0  0  0  0  0  0  0  0  0  0  0
  129.4459  119.7439   61.3992 H   0  0  0  0  0  0  0  0  0  0  0  0
  129.8713  122.1297   61.9727 H   0  0  0  0  0  0  0  0  0  0  0  0
  133.5530  125.7300   63.0370 H   0  0  0  0  0  0  0  0  0  0  0  0
  132.3441  129.5967   61.0044 H   0  0  0  0  0  0  0  0  0  0  0  0
  131.7794  132.0093   60.8487 H   0  0  0  0  0  0  0  0  0  0  0  0
  1  2  1  0
  2  3  1  0
  3  4  1  0
  4  5  2  0
  5  6  1  0
  6  7  2  0
  7  8  1  0
  8  9  2  0
  9 10  1  0
 10 11  1  0
 11 12  2  0
 11 13  1  0
 13 14  1  0
 14 15  1  0
 15 16  1  0
 16 17  2  0
 17 18  1  0
 18 19  2  0
 19 20  1  0
 20 21  2  0
 10 22  2  0
 22 23  1  0
 23 24  1  0
 24 25  2  0
 25 26  1  0
 26 27  2  0
 27 28  1  0
 27 29  1  0
 29 30  2  0
 23 31  2  0
 31 32  1  0
 32 33  1  0
 33 34  2  0
  7 35  1  0
 35 36  2  0
 36  4  1  0
 34  8  1  0
 21 16  1  0
 33 22  1  0
 30 24  1  0
  1 37  1  0
  1 38  1  0
  1 39  1  0
  2 40  1  0
  2 41  1  0
  5 42  1  0
  6 43  1  0
  9 44  1  0
 13 45  1  0
 14 46  1  0
 14 47  1  0
 15 48  1  0
 15 49  1  0
 17 50  1  0
 18 51  1  0
 19 52  1  0
 20 53  1  0
 21 54  1  0
 25 55  1  0
 26 56  1  0
 28 57  1  0
 28 58  1  0
 28 59  1  0
 29 60  1  0
 30 61  1  0
 32 62  1  0
 35 63  1  0
 36 64  1  0
M  END
>  <Binding energies>  (1) 
[-8.09]

>  <Ligand effiencies>  (1) 
[-0.21289473684210525]

>  <Interactions>  (1) 
["V-B:PRO:540:CD:9859, V-B:LEU:363:CD1:8161, V-B:PRO:540:CB:9857, V-A:ARG:545:CZ:4926, V-B:TYR:539:C:9839, V-B:PRO:540:CA:9855, V-B:PRO:540:N:9856, V-B:TYR:539:CE2:9848, V-A:SER:385:CB:3409, V-B:ASP:366:CG:8185, V-B:TYR:539:CB:9843, V-A:LEU:475:CD2:4259, H-A:TYR:484:OH:4348, V-B:TYR:539:CD2:9846, V-A:GLU:543:CD:4908, V-B:LEU:475:CD2:9231, H-A:GLY:454:N:4050, V-A:ILE:369:CG2:3237, H-A:ARG:545:NH2:4928, V-A:ASP:366:CG:3213, H-A:ASP:366:OD2:3215, V-B:TYR:531:CE2:9765, V-B:TYR:531:CZ:9766, V-B:TYR:539:CG:9844, V-B:TYR:539:CZ:9849, V-B:TYR:539:CE1:9847, V-B:TYR:539:CD1:9845, V-B:MET:535:CE:9807, V-A:PRO:540:CA:4883, H-A:ALA:541:N:4891, V-A:ALA:541:CB:4892, V-B:LEU:363:CA:8157, V-B:LEU:363:CB:8159"]

$$$$
