1a_Ghoteimi_2023
     RDKit          3D

 40 43  0  0  0  0  0  0  0  0999 V2000
  132.9150  127.5760   74.1070 C   0  0  0  0  0  0  0  0  0  0  0  0
  131.9110  127.4310   75.2550 C   0  0  0  0  0  0  0  0  0  0  0  0
  130.7480  128.1970   74.9630 O   0  0  0  0  0  0  0  0  0  0  0  0
  129.6400  127.6170   74.4350 C   0  0  0  0  0  0  0  0  0  0  0  0
  128.7620  127.0810   75.1170 O   0  0  0  0  0  0  0  0  0  0  0  0
  129.5860  127.6980   72.9370 C   0  0  0  0  0  0  0  0  0  0  0  0
  128.8120  126.8130   72.1730 C   0  0  0  0  0  0  0  0  0  0  0  0
  128.7840  126.9100   70.7840 C   0  0  0  0  0  0  0  0  0  0  0  0
  129.5310  127.9030   70.1320 C   0  0  0  0  0  0  0  0  0  0  0  0
  129.5800  128.0900   68.7380 N   0  0  0  0  0  0  0  0  0  0  0  0
  128.6780  127.7590   67.7880 C   0  0  0  0  0  0  0  0  0  0  0  0
  127.5900  127.2210   67.9900 O   0  0  0  0  0  0  0  0  0  0  0  0
  129.0780  128.1050   66.3540 C   0  0  0  0  0  0  0  0  0  0  0  0
  127.6980  128.8420   65.4300 S   0  0  0  0  0  0  0  0  0  0  0  0
  128.0390  128.5470   63.7100 C   0  0  0  0  0  0  0  0  0  0  0  0
  128.1540  127.2360   63.3900 N   0  0  0  0  0  0  0  0  0  0  0  0
  128.4090  126.8750   62.1050 C   0  0  0  0  0  0  0  0  0  0  0  0
  128.5020  125.4020   61.8260 C   0  0  0  0  0  0  0  0  0  0  0  0
  129.4730  124.6010   62.4490 C   0  0  0  0  0  0  0  0  0  0  0  0
  129.5550  123.2360   62.1900 C   0  0  0  0  0  0  0  0  0  0  0  0
  128.6740  122.6290   61.2990 C   0  0  0  0  0  0  0  0  0  0  0  0
  128.8270  121.2700   61.1040 O   0  0  0  0  0  0  0  0  0  0  0  0
  129.8990  120.5930   61.7510 C   0  0  0  0  0  0  0  0  0  0  0  0
  127.7020  123.4160   60.6650 C   0  0  0  0  0  0  0  0  0  0  0  0
  127.6220  124.7800   60.9270 C   0  0  0  0  0  0  0  0  0  0  0  0
  128.5570  127.8470   61.1080 C   0  0  0  0  0  0  0  0  0  0  0  0
  128.4670  129.2100   61.4190 C   0  0  0  0  0  0  0  0  0  0  0  0
  128.6670  130.1910   60.3100 C   0  0  0  0  0  0  0  0  0  0  0  0
  127.8910  130.1280   59.1480 C   0  0  0  0  0  0  0  0  0  0  0  0
  128.0730  131.0550   58.1260 C   0  0  0  0  0  0  0  0  0  0  0  0
  129.0270  132.0660   58.2470 C   0  0  0  0  0  0  0  0  0  0  0  0
  129.1360  132.9390   57.1830 O   0  0  0  0  0  0  0  0  0  0  0  0
  130.2630  132.8440   56.3190 C   0  0  0  0  0  0  0  0  0  0  0  0
  129.8010  132.1370   59.4150 C   0  0  0  0  0  0  0  0  0  0  0  0
  129.6180  131.2080   60.4360 C   0  0  0  0  0  0  0  0  0  0  0  0
  128.1960  129.5780   62.7590 C   0  0  0  0  0  0  0  0  0  0  0  0
  128.0760  130.9880   63.1430 C   0  0  0  0  0  0  0  0  0  0  0  0
  127.9800  132.1010   63.4460 N   0  0  0  0  0  0  0  0  0  0  0  0
  130.3050  128.7830   70.8890 C   0  0  0  0  0  0  0  0  0  0  0  0
  130.3320  128.6840   72.2780 C   0  0  0  0  0  0  0  0  0  0  0  0
  1  2  1  0
  2  3  1  0
  3  4  1  0
  4  5  2  0
  4  6  1  0
  6  7  2  0
  7  8  1  0
  8  9  2  0
  9 10  1  0
 10 11  1  0
 11 12  2  0
 11 13  1  0
 13 14  1  0
 14 15  1  0
 15 16  2  0
 16 17  1  0
 17 18  1  0
 18 19  2  0
 19 20  1  0
 20 21  2  0
 21 22  1  0
 22 23  1  0
 21 24  1  0
 24 25  2  0
 17 26  2  0
 26 27  1  0
 27 28  1  0
 28 29  2  0
 29 30  1  0
 30 31  2  0
 31 32  1  0
 32 33  1  0
 31 34  1  0
 34 35  2  0
 27 36  2  0
 36 37  1  0
 37 38  3  0
  9 39  1  0
 39 40  2  0
 40  6  1  0
 36 15  1  0
 25 18  1  0
 35 28  1  0
M  END
>  <Binding energies>  (1) 
[-7.1]

>  <Ligand effiencies>  (1) 
[-0.17317073170731706]

>  <Interactions>  (1) 
["V-B:PRO:540:CA:9855, V-B:GLU:543:CD:9880, H-B:ALA:541:N:9863, V-A:HIS:456:CE1:4070, V-A:LEU:475:CD2:4259, V-B:ALA:541:CB:9864, V-A:GLU:543:C:4902, V-B:HIS:456:CE1:9042, V-A:GLY:544:CA:4914, V-A:GLU:543:CB:4906, H-B:TYR:484:OH:9320, V-A:GLU:543:CD:4908, V-A:GLY:544:C:4912, V-A:GLU:543:CG:4907, V-A:HIS:456:CD2:4068, H-A:GLU:543:OE2:4910, V-A:PRO:540:CA:4883, V-A:PRO:540:N:4884, V-A:TYR:539:C:4867, H-A:TYR:539:N:4870, V-B:HIS:456:CD2:9040, H-B:LYS:547:NZ:9923, V-A:TYR:539:CA:4869, H-A:LYS:547:NZ:4951, V-A:LYS:547:CE:4950, H-A:GLU:543:O:4903, V-A:PRO:540:CD:4887, V-A:LYS:547:CD:4949"]

$$$$
1b_Ghoteimi_2023
     RDKit          3D

 34 37  0  0  0  0  0  0  0  0999 V2000
  123.9470  129.4990   66.8890 C   0  0  0  0  0  0  0  0  0  0  0  0
  123.8610  129.8800   65.5210 O   0  0  0  0  0  0  0  0  0  0  0  0
  124.8210  129.4300   64.6350 C   0  0  0  0  0  0  0  0  0  0  0  0
  124.5300  129.5620   63.2790 C   0  0  0  0  0  0  0  0  0  0  0  0
  125.4380  129.1360   62.3130 C   0  0  0  0  0  0  0  0  0  0  0  0
  126.6670  128.5660   62.6760 C   0  0  0  0  0  0  0  0  0  0  0  0
  127.6440  128.1050   61.6300 C   0  0  0  0  0  0  0  0  0  0  0  0
  128.6560  127.1750   61.8920 C   0  0  0  0  0  0  0  0  0  0  0  0
  129.5390  126.7750   60.8800 C   0  0  0  0  0  0  0  0  0  0  0  0
  130.5980  125.7830   61.2330 C   0  0  0  0  0  0  0  0  0  0  0  0
  131.6230  126.1300   62.1180 C   0  0  0  0  0  0  0  0  0  0  0  0
  132.6180  125.2120   62.4430 C   0  0  0  0  0  0  0  0  0  0  0  0
  132.6100  123.9320   61.8870 C   0  0  0  0  0  0  0  0  0  0  0  0
  133.6370  123.0890   62.2670 O   0  0  0  0  0  0  0  0  0  0  0  0
  133.9330  121.9510   61.4640 C   0  0  0  0  0  0  0  0  0  0  0  0
  131.5880  123.5830   60.9920 C   0  0  0  0  0  0  0  0  0  0  0  0
  130.5960  124.5030   60.6690 C   0  0  0  0  0  0  0  0  0  0  0  0
  129.3740  127.3240   59.5850 C   0  0  0  0  0  0  0  0  0  0  0  0
  130.2090  126.8670   58.4710 C   0  0  0  0  0  0  0  0  0  0  0  0
  130.8690  126.5050   57.5910 N   0  0  0  0  0  0  0  0  0  0  0  0
  128.3450  128.2730   59.3940 C   0  0  0  0  0  0  0  0  0  0  0  0
  127.9960  129.0720   57.8410 S   0  0  0  0  0  0  0  0  0  0  0  0
  127.9660  130.8730   58.1300 C   0  0  0  0  0  0  0  0  0  0  0  0
  129.2520  131.4560   58.7330 C   0  0  0  0  0  0  0  0  0  0  0  0
  129.8450  132.3830   58.1770 O   0  0  0  0  0  0  0  0  0  0  0  0
  129.6490  130.8710   59.8860 N   0  0  0  0  0  0  0  0  0  0  0  0
  130.7660  131.1900   60.6490 C   0  0  0  0  0  0  0  0  0  0  0  0
  132.0720  130.9510   60.2250 C   0  0  0  0  0  0  0  0  0  0  0  0
  132.8700  131.4030   61.2510 C   0  0  0  0  0  0  0  0  0  0  0  0
  132.0850  131.8910   62.2410 O   0  0  0  0  0  0  0  0  0  0  0  0
  130.7530  131.7510   61.8480 N   0  0  0  0  0  0  0  0  0  0  0  0
  127.4960  128.6320   60.3870 N   0  0  0  0  0  0  0  0  0  0  0  0
  126.9490  128.4360   64.0450 C   0  0  0  0  0  0  0  0  0  0  0  0
  126.0440  128.8600   65.0130 C   0  0  0  0  0  0  0  0  0  0  0  0
  1  2  1  0
  2  3  1  0
  3  4  2  0
  4  5  1  0
  5  6  2  0
  6  7  1  0
  7  8  2  0
  8  9  1  0
  9 10  1  0
 10 11  2  0
 11 12  1  0
 12 13  2  0
 13 14  1  0
 14 15  1  0
 13 16  1  0
 16 17  2  0
  9 18  2  0
 18 19  1  0
 19 20  3  0
 18 21  1  0
 21 22  1  0
 22 23  1  0
 23 24  1  0
 24 25  2  0
 24 26  1  0
 26 27  1  0
 27 28  1  0
 28 29  2  0
 29 30  1  0
 30 31  1  0
 21 32  2  0
  6 33  1  0
 33 34  2  0
 34  3  1  0
 32  7  1  0
 17 10  1  0
 31 27  2  0
M  END
>  <Binding energies>  (2) 
[-7.23]

>  <Ligand effiencies>  (2) 
[-0.20657142857142857]

>  <Interactions>  (2) 
["V-A:ARG:545:CZ:4926, V-B:GLU:543:CD:9880, V-A:ILE:369:CD1:3239, V-A:LEU:475:CD2:4259, H-A:TYR:484:OH:4348, V-B:HIS:456:CE1:9042, V-B:ARG:545:CZ:9898, H-B:TYR:484:OH:9320, V-B:TYR:484:CZ:9319, H-B:GLY:454:N:9022, V-A:GLY:454:CA:4049, H-A:GLY:454:N:4050, V-A:ILE:369:CG2:3237, V-A:PRO:540:CA:4883, V-A:PRO:540:CB:4885, V-B:ARG:545:CG:9894, H-A:ALA:541:N:4891, V-A:ASN:362:CB:3176, V-B:ARG:545:CD:9895, V-B:TYR:484:CE1:9317"]

$$$$
1c_Ghoteimi_2023
     RDKit          3D

 34 37  0  0  0  0  0  0  0  0999 V2000
  124.0570  129.5080   66.4600 C   0  0  0  0  0  0  0  0  0  0  0  0
  124.2410  129.9010   65.1040 O   0  0  0  0  0  0  0  0  0  0  0  0
  125.2760  129.3480   64.3750 C   0  0  0  0  0  0  0  0  0  0  0  0
  125.0740  129.2150   63.0040 C   0  0  0  0  0  0  0  0  0  0  0  0
  126.0620  128.6650   62.1920 C   0  0  0  0  0  0  0  0  0  0  0  0
  127.2830  128.2300   62.7290 C   0  0  0  0  0  0  0  0  0  0  0  0
  128.3500  127.6310   61.8580 C   0  0  0  0  0  0  0  0  0  0  0  0
  128.6680  126.2690   61.8800 C   0  0  0  0  0  0  0  0  0  0  0  0
  129.6530  125.7520   61.0290 C   0  0  0  0  0  0  0  0  0  0  0  0
  129.8930  124.2790   61.0580 C   0  0  0  0  0  0  0  0  0  0  0  0
  131.1250  123.7680   61.4760 C   0  0  0  0  0  0  0  0  0  0  0  0
  131.3550  122.3960   61.4820 C   0  0  0  0  0  0  0  0  0  0  0  0
  130.3620  121.5100   61.0650 C   0  0  0  0  0  0  0  0  0  0  0  0
  130.6780  120.1650   61.1040 O   0  0  0  0  0  0  0  0  0  0  0  0
  129.7380  119.2460   61.6510 C   0  0  0  0  0  0  0  0  0  0  0  0
  129.1260  122.0200   60.6370 C   0  0  0  0  0  0  0  0  0  0  0  0
  128.8990  123.3930   60.6330 C   0  0  0  0  0  0  0  0  0  0  0  0
  130.3370  126.6450   60.1700 C   0  0  0  0  0  0  0  0  0  0  0  0
  131.4020  126.1720   59.2790 C   0  0  0  0  0  0  0  0  0  0  0  0
  132.2410  125.7970   58.5760 N   0  0  0  0  0  0  0  0  0  0  0  0
  129.9540  128.0020   60.1870 C   0  0  0  0  0  0  0  0  0  0  0  0
  130.6080  129.2000   59.0450 S   0  0  0  0  0  0  0  0  0  0  0  0
  131.7060  130.2510   60.0500 C   0  0  0  0  0  0  0  0  0  0  0  0
  130.9290  131.0980   61.0630 C   0  0  0  0  0  0  0  0  0  0  0  0
  131.5430  131.7720   61.8910 O   0  0  0  0  0  0  0  0  0  0  0  0
  129.5840  131.0640   60.9300 N   0  0  0  0  0  0  0  0  0  0  0  0
  128.6650  131.8480   61.6100 C   0  0  0  0  0  0  0  0  0  0  0  0
  127.8430  132.7450   61.1100 N   0  0  0  0  0  0  0  0  0  0  0  0
  127.0770  133.2730   62.0450 C   0  0  0  0  0  0  0  0  0  0  0  0
  127.2710  132.7990   63.3390 C   0  0  0  0  0  0  0  0  0  0  0  0
  128.5290  131.5990   63.3200 S   0  0  0  0  0  0  0  0  0  0  0  0
  128.9820  128.4770   61.0020 N   0  0  0  0  0  0  0  0  0  0  0  0
  127.4780  128.3740   64.1110 C   0  0  0  0  0  0  0  0  0  0  0  0
  126.4930  128.9210   64.9260 C   0  0  0  0  0  0  0  0  0  0  0  0
  1  2  1  0
  2  3  1  0
  3  4  2  0
  4  5  1  0
  5  6  2  0
  6  7  1  0
  7  8  2  0
  8  9  1  0
  9 10  1  0
 10 11  2  0
 11 12  1  0
 12 13  2  0
 13 14  1  0
 14 15  1  0
 13 16  1  0
 16 17  2  0
  9 18  2  0
 18 19  1  0
 19 20  3  0
 18 21  1  0
 21 22  1  0
 22 23  1  0
 23 24  1  0
 24 25  2  0
 24 26  1  0
 26 27  1  0
 27 28  2  0
 28 29  1  0
 29 30  2  0
 30 31  1  0
 21 32  2  0
  6 33  1  0
 33 34  2  0
 34  3  1  0
 32  7  1  0
 17 10  1  0
 31 27  1  0
M  END
>  <Binding energies>  (3) 
[-6.81]

>  <Ligand effiencies>  (3) 
[-0.19457142857142856]

>  <Interactions>  (3) 
["V-B:GLU:543:CD:9880, V-A:PRO:482:CB:4326, V-A:LEU:475:CD2:4259, V-B:TYR:539:CD2:9846, V-A:LEU:475:CD1:4258, V-A:LEU:475:CG:4257, V-B:ALA:541:CB:9864, V-B:HIS:456:CE1:9042, V-B:ARG:545:CZ:9898, H-B:TYR:484:OH:9320, V-A:GLU:543:CD:4908, V-A:GLU:543:CG:4907, V-B:TYR:484:CZ:9319, H-B:GLY:454:N:9022, V-B:LEU:475:CD2:9231, V-A:ASP:366:CG:3213, V-B:ARG:545:CG:9894, H-A:ALA:541:N:4891, V-A:ALA:541:CB:4892, V-B:ARG:545:CD:9895, V-B:TYR:484:CE1:9317, V-B:TYR:484:CE2:9318"]

$$$$
1d_Ghoteimi_2023
     RDKit          3D

 30 32  0  0  0  0  0  0  0  0999 V2000
  123.9810  123.8560   57.8870 C   0  0  0  0  0  0  0  0  0  0  0  0
  125.3120  124.0450   57.4320 O   0  0  0  0  0  0  0  0  0  0  0  0
  126.2100  123.0400   57.5040 C   0  0  0  0  0  0  0  0  0  0  0  0
  126.2470  122.0430   56.7820 O   0  0  0  0  0  0  0  0  0  0  0  0
  127.2290  123.2520   58.6210 C   0  0  0  0  0  0  0  0  0  0  0  0
  126.3030  123.5140   60.1630 S   0  0  0  0  0  0  0  0  0  0  0  0
  127.2020  124.7220   61.1120 C   0  0  0  0  0  0  0  0  0  0  0  0
  126.5160  125.8700   61.3250 N   0  0  0  0  0  0  0  0  0  0  0  0
  127.0860  126.8790   62.0310 C   0  0  0  0  0  0  0  0  0  0  0  0
  126.2560  128.1150   62.2270 C   0  0  0  0  0  0  0  0  0  0  0  0
  126.0860  128.6840   63.4990 C   0  0  0  0  0  0  0  0  0  0  0  0
  125.3110  129.8250   63.6800 C   0  0  0  0  0  0  0  0  0  0  0  0
  124.6810  130.4330   62.5970 C   0  0  0  0  0  0  0  0  0  0  0  0
  123.9290  131.5600   62.8700 O   0  0  0  0  0  0  0  0  0  0  0  0
  124.1230  132.7300   62.0830 C   0  0  0  0  0  0  0  0  0  0  0  0
  124.8400  129.8760   61.3200 C   0  0  0  0  0  0  0  0  0  0  0  0
  125.6170  128.7350   61.1440 C   0  0  0  0  0  0  0  0  0  0  0  0
  128.3780  126.7420   62.5540 C   0  0  0  0  0  0  0  0  0  0  0  0
  129.1160  125.5720   62.3360 C   0  0  0  0  0  0  0  0  0  0  0  0
  130.4910  125.4960   62.9160 C   0  0  0  0  0  0  0  0  0  0  0  0
  130.6950  125.7350   64.2790 C   0  0  0  0  0  0  0  0  0  0  0  0
  131.9730  125.6650   64.8260 C   0  0  0  0  0  0  0  0  0  0  0  0
  133.0710  125.3510   64.0260 C   0  0  0  0  0  0  0  0  0  0  0  0
  134.3010  125.3120   64.6530 O   0  0  0  0  0  0  0  0  0  0  0  0
  134.3650  125.0060   66.0410 C   0  0  0  0  0  0  0  0  0  0  0  0
  132.8700  125.0980   62.6600 C   0  0  0  0  0  0  0  0  0  0  0  0
  131.5910  125.1670   62.1160 C   0  0  0  0  0  0  0  0  0  0  0  0
  128.5240  124.5330   61.5750 C   0  0  0  0  0  0  0  0  0  0  0  0
  129.2890  123.3310   61.2280 C   0  0  0  0  0  0  0  0  0  0  0  0
  129.8930  122.3830   60.9550 N   0  0  0  0  0  0  0  0  0  0  0  0
  1  2  1  0
  2  3  1  0
  3  4  2  0
  3  5  1  0
  5  6  1  0
  6  7  1  0
  7  8  2  0
  8  9  1  0
  9 10  1  0
 10 11  2  0
 11 12  1  0
 12 13  2  0
 13 14  1  0
 14 15  1  0
 13 16  1  0
 16 17  2  0
  9 18  2  0
 18 19  1  0
 19 20  1  0
 20 21  2  0
 21 22  1  0
 22 23  2  0
 23 24  1  0
 24 25  1  0
 23 26  1  0
 26 27  2  0
 19 28  2  0
 28 29  1  0
 29 30  3  0
 28  7  1  0
 17 10  1  0
 27 20  1  0
M  END
>  <Binding energies>  (4) 
[-6.97]

>  <Ligand effiencies>  (4) 
[-0.23233333333333334]

>  <Interactions>  (4) 
["V-B:LEU:363:CD1:8161, V-A:ARG:545:CD:4923, V-B:PRO:540:CB:9857, V-A:ARG:545:CZ:4926, V-B:TYR:539:C:9839, V-B:PRO:540:CA:9855, V-B:PRO:540:N:9856, V-B:GLU:543:CD:9880, V-A:TYR:484:CZ:4347, V-A:TYR:484:CE2:4346, V-A:ARG:545:CG:4922, V-B:ASP:366:CG:8185, V-B:ARG:545:CZ:9898, V-A:GLU:543:CD:4908, V-B:ILE:369:CD1:8211, H-B:GLY:454:N:9022, V-B:LEU:475:CD2:9231, V-B:GLY:454:CA:9021, H-A:ARG:545:NH1:4927, V-A:GLY:454:CA:4049, H-A:GLY:454:N:4050, H-A:ARG:545:NH2:4928, H-A:ARG:545:NE:4924, V-A:GLY:453:CA:4044, V-A:GLY:453:C:4042, V-B:TYR:531:CE2:9765, V-B:TYR:531:CZ:9766, H-B:TYR:531:OH:9767, H-B:ARG:545:NH2:9900, H-B:TYR:539:N:9842, V-A:GLY:454:C:4047, V-A:ILE:455:C:4052, V-B:LEU:363:CA:8157"]

$$$$
1j_Grossjean_2025
     RDKit          3D

 20 21  0  0  0  0  0  0  0  0999 V2000
  128.2960  123.2170   56.5050 C   0  0  0  0  0  0  0  0  0  0  0  0
  127.3600  123.3300   57.6950 C   0  0  0  0  0  0  0  0  0  0  0  0
  125.9910  123.5270   57.5290 C   0  0  0  0  0  0  0  0  0  0  0  0
  125.1750  123.6100   58.6620 C   0  0  0  0  0  0  0  0  0  0  0  0
  123.6740  123.8080   58.4540 C   0  0  0  0  0  0  0  0  0  0  0  0
  125.7590  123.5000   59.9440 C   0  0  0  0  0  0  0  0  0  0  0  0
  124.9170  123.5320   61.1420 C   0  0  0  0  0  0  0  0  0  0  0  0
  124.2480  123.5560   62.0870 N   0  0  0  0  0  0  0  0  0  0  0  0
  127.1620  123.3280   60.0180 C   0  0  0  0  0  0  0  0  0  0  0  0
  128.0620  123.1750   61.5450 S   0  0  0  0  0  0  0  0  0  0  0  0
  129.8010  122.8460   61.1310 C   0  0  0  0  0  0  0  0  0  0  0  0
  130.2300  121.4350   61.5360 C   0  0  0  0  0  0  0  0  0  0  0  0
  130.6020  121.2240   62.6910 O   0  0  0  0  0  0  0  0  0  0  0  0
  130.1620  120.5020   60.5610 N   0  0  0  0  0  0  0  0  0  0  0  0
  130.4990  119.1610   60.6720 C   0  0  0  0  0  0  0  0  0  0  0  0
  129.9810  118.2620   61.4820 N   0  0  0  0  0  0  0  0  0  0  0  0
  130.5430  117.0820   61.3170 C   0  0  0  0  0  0  0  0  0  0  0  0
  131.5420  117.0040   60.3510 C   0  0  0  0  0  0  0  0  0  0  0  0
  131.7490  118.5690   59.6250 S   0  0  0  0  0  0  0  0  0  0  0  0
  127.9420  123.2270   58.9130 N   0  0  0  0  0  0  0  0  0  0  0  0
  1  2  1  0
  2  3  2  0
  3  4  1  0
  4  5  1  0
  4  6  2  0
  6  7  1  0
  7  8  3  0
  6  9  1  0
  9 10  1  0
 10 11  1  0
 11 12  1  0
 12 13  2  0
 12 14  1  0
 14 15  1  0
 15 16  2  0
 16 17  1  0
 17 18  2  0
 18 19  1  0
  9 20  2  0
 20  2  1  0
 19 15  1  0
M  END
>  <Binding energies>  (5) 
[-7.01]

>  <Ligand effiencies>  (5) 
[-0.3338095238095238]

>  <Interactions>  (5) 
["V-B:LEU:363:CD1:8161, V-B:PRO:540:CB:9857, V-B:TYR:539:C:9839, V-B:PRO:540:CA:9855, V-B:TYR:539:CE2:9848, H-B:TYR:539:O:9840, V-A:SER:385:CB:3409, V-B:ASP:366:CG:8185, V-A:PRO:482:CG:4327, V-A:PRO:482:CB:4326, V-B:TYR:539:CB:9843, V-A:LEU:475:CD2:4259, H-A:TYR:484:OH:4348, V-B:TYR:539:CD2:9846, V-A:LEU:475:CD1:4258, V-A:LEU:475:CG:4257, V-B:TYR:539:CG:9844, V-B:ASP:366:CB:8184, V-B:TYR:539:CZ:9849, V-B:TYR:539:CE1:9847, V-B:TYR:539:CD1:9845, V-B:MET:535:CE:9807, H-B:ARG:545:NH2:9900, V-B:LEU:363:CA:8157, V-B:LEU:363:CB:8159"]

$$$$
1o_Grossjean_2025
     RDKit          3D

 26 27  0  0  0  0  0  0  0  0999 V2000
  128.2530  128.5420   74.2250 C   0  0  0  0  0  0  0  0  0  0  0  0
  128.6530  127.4010   73.4800 O   0  0  0  0  0  0  0  0  0  0  0  0
  129.7730  127.4240   72.7120 C   0  0  0  0  0  0  0  0  0  0  0  0
  130.9160  127.3560   73.1750 O   0  0  0  0  0  0  0  0  0  0  0  0
  129.4840  127.5370   71.2430 C   0  0  0  0  0  0  0  0  0  0  0  0
  130.2370  128.3660   70.4000 C   0  0  0  0  0  0  0  0  0  0  0  0
  129.9440  128.4460   69.0410 C   0  0  0  0  0  0  0  0  0  0  0  0
  128.8930  127.7060   68.4990 C   0  0  0  0  0  0  0  0  0  0  0  0
  128.6900  127.8550   67.1130 N   0  0  0  0  0  0  0  0  0  0  0  0
  128.4320  128.9670   66.3900 C   0  0  0  0  0  0  0  0  0  0  0  0
  128.3700  130.1100   66.8440 O   0  0  0  0  0  0  0  0  0  0  0  0
  128.2360  128.7460   64.8830 C   0  0  0  0  0  0  0  0  0  0  0  0
  127.4570  129.8850   64.1950 C   0  0  0  0  0  0  0  0  0  0  0  0
  128.3790  131.4470   64.0840 S   0  0  0  0  0  0  0  0  0  0  0  0
  128.9450  131.6510   62.4070 C   0  0  0  0  0  0  0  0  0  0  0  0
  130.2810  131.4610   62.2600 N   0  0  0  0  0  0  0  0  0  0  0  0
  130.8250  131.5810   61.0270 C   0  0  0  0  0  0  0  0  0  0  0  0
  132.3200  131.3410   60.9390 C   0  0  0  0  0  0  0  0  0  0  0  0
  130.0700  131.9050   59.9020 C   0  0  0  0  0  0  0  0  0  0  0  0
  128.6970  132.1280   60.0450 C   0  0  0  0  0  0  0  0  0  0  0  0
  127.8940  132.4950   58.7980 C   0  0  0  0  0  0  0  0  0  0  0  0
  128.1070  132.0120   61.3240 C   0  0  0  0  0  0  0  0  0  0  0  0
  126.6820  132.3000   61.5040 C   0  0  0  0  0  0  0  0  0  0  0  0
  125.5560  132.5260   61.6430 N   0  0  0  0  0  0  0  0  0  0  0  0
  128.1380  126.8700   69.3360 C   0  0  0  0  0  0  0  0  0  0  0  0
  128.4330  126.7910   70.6940 C   0  0  0  0  0  0  0  0  0  0  0  0
  1  2  1  0
  2  3  1  0
  3  4  2  0
  3  5  1  0
  5  6  2  0
  6  7  1  0
  7  8  2  0
  8  9  1  0
  9 10  1  0
 10 11  2  0
 10 12  1  0
 12 13  1  0
 13 14  1  0
 14 15  1  0
 15 16  2  0
 16 17  1  0
 17 18  1  0
 17 19  2  0
 19 20  1  0
 20 21  1  0
 20 22  2  0
 22 23  1  0
 23 24  3  0
  8 25  1  0
 25 26  2  0
 26  5  1  0
 22 15  1  0
M  END
>  <Binding energies>  (6) 
[-6.8]

>  <Ligand effiencies>  (6) 
[-0.2518518518518518]

>  <Interactions>  (6) 
["V-B:GLU:543:CD:9880, V-A:HIS:456:CE1:4070, V-A:GLU:543:C:4902, V-B:HIS:456:CE1:9042, V-A:GLY:544:CA:4914, V-A:GLU:543:CB:4906, H-B:TYR:484:OH:9320, V-A:GLU:543:CD:4908, V-A:GLY:544:C:4912, V-A:GLU:543:CG:4907, V-A:HIS:456:CD2:4068, H-A:GLU:543:OE2:4910, H-B:GLU:543:OE2:9882, V-A:PRO:540:CA:4883, V-A:PRO:540:CB:4885, V-A:PRO:540:C:4881, H-A:ALA:541:N:4891, V-A:ALA:541:CB:4892, V-A:TYR:539:CD1:4873, V-A:TYR:539:C:4867, V-A:TYR:539:CE1:4875, V-B:GLU:543:CB:9878, V-B:HIS:456:CD2:9040, H-B:LYS:547:NZ:9923"]

$$$$
1p_Grossjean_2025
     RDKit          3D

 21 22  0  0  0  0  0  0  0  0999 V2000
  129.5000  125.1890   57.5600 C   0  0  0  0  0  0  0  0  0  0  0  0
  130.4350  124.4570   58.5030 C   0  0  0  0  0  0  0  0  0  0  0  0
  131.7950  124.7590   58.5620 C   0  0  0  0  0  0  0  0  0  0  0  0
  132.6130  124.0420   59.4410 C   0  0  0  0  0  0  0  0  0  0  0  0
  134.1020  124.3800   59.4780 C   0  0  0  0  0  0  0  0  0  0  0  0
  132.0410  123.0370   60.2540 C   0  0  0  0  0  0  0  0  0  0  0  0
  132.8840  122.2410   61.1470 C   0  0  0  0  0  0  0  0  0  0  0  0
  133.5520  121.6120   61.8530 N   0  0  0  0  0  0  0  0  0  0  0  0
  130.6480  122.8140   60.1450 C   0  0  0  0  0  0  0  0  0  0  0  0
  129.7680  121.5980   61.0980 S   0  0  0  0  0  0  0  0  0  0  0  0
  128.7920  122.5030   62.3340 C   0  0  0  0  0  0  0  0  0  0  0  0
  127.9500  123.6500   61.7420 C   0  0  0  0  0  0  0  0  0  0  0  0
  126.9000  123.1780   60.7250 C   0  0  0  0  0  0  0  0  0  0  0  0
  125.8110  122.7610   61.1250 O   0  0  0  0  0  0  0  0  0  0  0  0
  127.2610  123.2730   59.4250 N   0  0  0  0  0  0  0  0  0  0  0  0
  126.5050  122.9190   58.3150 C   0  0  0  0  0  0  0  0  0  0  0  0
  125.2530  123.4680   58.0390 C   0  0  0  0  0  0  0  0  0  0  0  0
  124.8460  122.8650   56.8720 C   0  0  0  0  0  0  0  0  0  0  0  0
  125.8020  121.9960   56.4660 O   0  0  0  0  0  0  0  0  0  0  0  0
  126.8480  122.0380   57.3900 N   0  0  0  0  0  0  0  0  0  0  0  0
  129.8660  123.5000   59.2730 N   0  0  0  0  0  0  0  0  0  0  0  0
  1  2  1  0
  2  3  2  0
  3  4  1  0
  4  5  1  0
  4  6  2  0
  6  7  1  0
  7  8  3  0
  6  9  1  0
  9 10  1  0
 10 11  1  0
 11 12  1  0
 12 13  1  0
 13 14  2  0
 13 15  1  0
 15 16  1  0
 16 17  1  0
 17 18  2  0
 18 19  1  0
 19 20  1  0
  9 21  2  0
 21  2  1  0
 20 16  2  0
M  END
>  <Binding energies>  (7) 
[-6.77]

>  <Ligand effiencies>  (7) 
[-0.3077272727272727]

>  <Interactions>  (7) 
["V-B:PRO:540:CD:9859, V-B:LEU:363:CD1:8161, V-B:PRO:540:CB:9857, V-B:TYR:539:C:9839, V-B:PRO:540:CA:9855, V-B:PRO:540:N:9856, V-B:GLU:543:CD:9880, V-A:ILE:369:CD1:3239, V-B:TYR:539:CE2:9848, H-B:ALA:541:N:9863, V-A:LEU:475:CD2:4259, V-B:TYR:539:CD2:9846, V-B:ALA:541:CB:9864, H-A:GLY:454:N:4050, V-A:ILE:369:CG2:3237, V-A:ASP:366:CG:3213, V-A:ASP:366:CB:3212, V-A:ILE:369:CB:3236, V-A:ASP:366:CA:3210, V-B:TYR:531:CE2:9765, V-B:TYR:539:CZ:9849, H-B:TYR:539:N:9842"]

$$$$
2a_Ghoteimi_2023
     RDKit          3D

 48 53  0  0  0  0  0  0  0  0999 V2000
  125.8890  122.5060   57.0530 C   0  0  0  0  0  0  0  0  0  0  0  0
  126.5090  123.7020   57.7810 C   0  0  0  0  0  0  0  0  0  0  0  0
  127.8550  123.4000   58.1240 O   0  0  0  0  0  0  0  0  0  0  0  0
  128.5600  124.1950   58.9690 C   0  0  0  0  0  0  0  0  0  0  0  0
  129.7710  124.0660   59.1730 O   0  0  0  0  0  0  0  0  0  0  0  0
  127.7200  125.2540   59.6250 C   0  0  0  0  0  0  0  0  0  0  0  0
  127.2780  126.3880   58.9290 C   0  0  0  0  0  0  0  0  0  0  0  0
  126.5000  127.3490   59.5670 C   0  0  0  0  0  0  0  0  0  0  0  0
  126.1430  127.1970   60.9080 C   0  0  0  0  0  0  0  0  0  0  0  0
  125.3580  128.2310   61.4530 N   0  0  0  0  0  0  0  0  0  0  0  0
  124.8970  129.3630   60.8770 C   0  0  0  0  0  0  0  0  0  0  0  0
  125.1400  129.7210   59.7240 O   0  0  0  0  0  0  0  0  0  0  0  0
  124.0410  130.2550   61.7860 C   0  0  0  0  0  0  0  0  0  0  0  0
  123.9760  129.7170   63.5260 S   0  0  0  0  0  0  0  0  0  0  0  0
  125.6690  129.5040   64.0260 C   0  0  0  0  0  0  0  0  0  0  0  0
  126.5660  129.7510   63.0430 N   0  0  0  0  0  0  0  0  0  0  0  0
  127.8910  129.6140   63.3000 C   0  0  0  0  0  0  0  0  0  0  0  0
  128.8220  129.8940   62.1640 C   0  0  0  0  0  0  0  0  0  0  0  0
  129.4370  131.1450   62.0220 C   0  0  0  0  0  0  0  0  0  0  0  0
  130.2940  131.4040   60.9560 C   0  0  0  0  0  0  0  0  0  0  0  0
  130.5760  130.4210   59.9970 C   0  0  0  0  0  0  0  0  0  0  0  0
  131.4160  130.7050   58.9150 N   0  0  0  0  0  0  0  0  0  0  0  0
  132.8410  131.0350   59.1130 C   0  0  0  0  0  0  0  0  0  0  0  0
  133.6830  130.9610   57.8210 C   0  0  0  0  0  0  0  0  0  0  0  0
  133.1060  131.7810   56.8180 O   0  0  0  0  0  0  0  0  0  0  0  0
  131.7890  131.3610   56.5000 C   0  0  0  0  0  0  0  0  0  0  0  0
  130.8880  131.4470   57.7500 C   0  0  0  0  0  0  0  0  0  0  0  0
  129.9470  129.1730   60.1380 C   0  0  0  0  0  0  0  0  0  0  0  0
  129.0920  128.9130   61.2040 C   0  0  0  0  0  0  0  0  0  0  0  0
  128.3460  129.2350   64.5650 C   0  0  0  0  0  0  0  0  0  0  0  0
  127.4360  128.9740   65.5980 C   0  0  0  0  0  0  0  0  0  0  0  0
  127.9910  128.5670   66.9250 C   0  0  0  0  0  0  0  0  0  0  0  0
  128.9440  129.3660   67.5630 C   0  0  0  0  0  0  0  0  0  0  0  0
  129.4810  128.9850   68.7890 C   0  0  0  0  0  0  0  0  0  0  0  0
  129.0810  127.7960   69.4160 C   0  0  0  0  0  0  0  0  0  0  0  0
  129.6220  127.3860   70.6380 N   0  0  0  0  0  0  0  0  0  0  0  0
  128.7200  126.9000   71.7010 C   0  0  0  0  0  0  0  0  0  0  0  0
  129.4550  126.1290   72.8180 C   0  0  0  0  0  0  0  0  0  0  0  0
  130.4900  126.9320   73.3640 O   0  0  0  0  0  0  0  0  0  0  0  0
  131.4460  127.2950   72.3800 C   0  0  0  0  0  0  0  0  0  0  0  0
  130.7640  128.0930   71.2490 C   0  0  0  0  0  0  0  0  0  0  0  0
  128.1330  126.9940   68.7630 C   0  0  0  0  0  0  0  0  0  0  0  0
  127.5960  127.3730   67.5360 C   0  0  0  0  0  0  0  0  0  0  0  0
  126.0530  129.1160   65.3290 C   0  0  0  0  0  0  0  0  0  0  0  0
  125.0560  128.9120   66.3840 C   0  0  0  0  0  0  0  0  0  0  0  0
  124.2710  128.7480   67.2190 N   0  0  0  0  0  0  0  0  0  0  0  0
  126.5890  126.0700   61.6130 C   0  0  0  0  0  0  0  0  0  0  0  0
  127.3670  125.1080   60.9740 C   0  0  0  0  0  0  0  0  0  0  0  0
  1  2  1  0
  2  3  1  0
  3  4  1  0
  4  5  2  0
  4  6  1  0
  6  7  2  0
  7  8  1  0
  8  9  2  0
  9 10  1  0
 10 11  1  0
 11 12  2  0
 11 13  1  0
 13 14  1  0
 14 15  1  0
 15 16  2  0
 16 17  1  0
 17 18  1  0
 18 19  2  0
 19 20  1  0
 20 21  2  0
 21 22  1  0
 22 23  1  0
 23 24  1  0
 24 25  1  0
 25 26  1  0
 26 27  1  0
 21 28  1  0
 28 29  2  0
 17 30  2  0
 30 31  1  0
 31 32  1  0
 32 33  2  0
 33 34  1  0
 34 35  2  0
 35 36  1  0
 36 37  1  0
 37 38  1  0
 38 39  1  0
 39 40  1  0
 40 41  1  0
 35 42  1  0
 42 43  2  0
 31 44  2  0
 44 45  1  0
 45 46  3  0
  9 47  1  0
 47 48  2  0
 48  6  1  0
 44 15  1  0
 29 18  1  0
 43 32  1  0
 27 22  1  0
 41 36  1  0
M  END
>  <Binding energies>  (8) 
[-5.98]

>  <Ligand effiencies>  (8) 
[-0.12204081632653062]

>  <Interactions>  (8) 
["V-B:PRO:540:CD:9859, V-B:PRO:540:CB:9857, V-B:TYR:539:C:9839, V-B:PRO:540:CA:9855, V-B:PRO:540:N:9856, V-B:GLU:543:CD:9880, V-A:HIS:456:CE1:4070, V-B:ASP:366:CG:8185, V-A:GLU:543:C:4902, V-B:HIS:456:CE1:9042, V-A:GLY:544:CA:4914, V-B:ARG:545:CZ:9898, V-A:GLU:543:CB:4906, H-B:TYR:484:OH:9320, V-A:GLU:543:CD:4908, V-A:GLU:543:CA:4904, V-A:GLY:544:C:4912, V-A:GLU:543:CG:4907, H-B:ARG:545:NE:9896, V-B:TYR:484:CZ:9319, V-A:HIS:456:CG:4066, H-B:GLY:454:N:9022, V-A:HIS:456:CD2:4068, V-A:ASP:366:CG:3213, V-A:ASP:366:CB:3212, H-B:ASP:366:OD2:8187, V-B:ASP:366:CB:8184, H-B:ARG:545:NH2:9900, V-A:PRO:540:CA:4883, V-A:PRO:540:CB:4885, V-B:ARG:545:CG:9894, V-A:ALA:541:CB:4892, V-B:ARG:545:CD:9895, V-A:LEU:363:CD1:3189, H-A:TYR:531:OH:4795, V-A:LEU:363:CA:3185, V-A:LEU:363:CB:3187, H-B:ARG:545:NH1:9899, V-B:GLU:543:CB:9878, V-B:HIS:456:CD2:9040, V-B:LYS:547:CE:9922, H-B:ASP:366:OD1:8186, H-B:HIS:456:ND1:9039, V-A:HIS:456:CB:4065"]

$$$$
2aa_Ghoteimi_2023
     RDKit          3D

 48 53  0  0  0  0  0  0  0  0999 V2000
  131.4960  131.3320   60.0920 C   0  0  0  0  0  0  0  0  0  0  0  0
  130.9790  130.9770   58.6940 C   0  0  0  0  0  0  0  0  0  0  0  0
  130.6870  132.1720   57.9820 O   0  0  0  0  0  0  0  0  0  0  0  0
  129.4440  132.4110   57.4890 C   0  0  0  0  0  0  0  0  0  0  0  0
  129.2360  133.0270   56.4380 O   0  0  0  0  0  0  0  0  0  0  0  0
  128.3480  131.8370   58.3400 C   0  0  0  0  0  0  0  0  0  0  0  0
  128.0890  132.3120   59.6340 C   0  0  0  0  0  0  0  0  0  0  0  0
  127.0640  131.7620   60.3970 C   0  0  0  0  0  0  0  0  0  0  0  0
  126.2820  130.7230   59.8880 C   0  0  0  0  0  0  0  0  0  0  0  0
  125.2700  130.2440   60.7430 N   0  0  0  0  0  0  0  0  0  0  0  0
  124.6300  130.8640   61.7570 C   0  0  0  0  0  0  0  0  0  0  0  0
  124.8170  132.0320   62.1050 O   0  0  0  0  0  0  0  0  0  0  0  0
  123.5850  130.0000   62.4750 C   0  0  0  0  0  0  0  0  0  0  0  0
  124.0280  129.7160   63.8060 O   0  0  0  0  0  0  0  0  0  0  0  0
  125.2970  129.1950   64.0220 C   0  0  0  0  0  0  0  0  0  0  0  0
  126.0500  128.8710   62.9340 N   0  0  0  0  0  0  0  0  0  0  0  0
  127.2950  128.3630   63.1100 C   0  0  0  0  0  0  0  0  0  0  0  0
  128.0610  128.0260   61.8700 C   0  0  0  0  0  0  0  0  0  0  0  0
  129.2730  128.6640   61.5830 C   0  0  0  0  0  0  0  0  0  0  0  0
  129.9930  128.3490   60.4330 C   0  0  0  0  0  0  0  0  0  0  0  0
  129.5350  127.3740   59.5340 C   0  0  0  0  0  0  0  0  0  0  0  0
  130.2400  127.0550   58.3680 N   0  0  0  0  0  0  0  0  0  0  0  0
  131.5730  127.6290   58.0930 C   0  0  0  0  0  0  0  0  0  0  0  0
  132.0360  127.4570   56.6310 C   0  0  0  0  0  0  0  0  0  0  0  0
  131.9880  126.0870   56.2650 O   0  0  0  0  0  0  0  0  0  0  0  0
  130.6710  125.5680   56.3670 C   0  0  0  0  0  0  0  0  0  0  0  0
  130.1680  125.6840   57.8220 C   0  0  0  0  0  0  0  0  0  0  0  0
  128.3090  126.7530   59.8150 C   0  0  0  0  0  0  0  0  0  0  0  0
  127.5880  127.0710   60.9630 C   0  0  0  0  0  0  0  0  0  0  0  0
  127.8150  128.1510   64.3900 C   0  0  0  0  0  0  0  0  0  0  0  0
  127.0580  128.4660   65.5250 C   0  0  0  0  0  0  0  0  0  0  0  0
  127.6570  128.1930   66.8670 C   0  0  0  0  0  0  0  0  0  0  0  0
  128.7480  128.9410   67.3180 C   0  0  0  0  0  0  0  0  0  0  0  0
  129.3230  128.6790   68.5590 C   0  0  0  0  0  0  0  0  0  0  0  0
  128.8330  127.6500   69.3780 C   0  0  0  0  0  0  0  0  0  0  0  0
  129.3930  127.3710   70.6280 N   0  0  0  0  0  0  0  0  0  0  0  0
  128.6860  126.5370   71.6190 C   0  0  0  0  0  0  0  0  0  0  0  0
  129.5900  126.0520   72.7710 C   0  0  0  0  0  0  0  0  0  0  0  0
  130.2140  127.1620   73.3980 O   0  0  0  0  0  0  0  0  0  0  0  0
  131.0190  127.8930   72.4860 C   0  0  0  0  0  0  0  0  0  0  0  0
  130.1530  128.4270   71.3270 C   0  0  0  0  0  0  0  0  0  0  0  0
  127.7350  126.9100   68.9200 C   0  0  0  0  0  0  0  0  0  0  0  0
  127.1590  127.1720   67.6810 C   0  0  0  0  0  0  0  0  0  0  0  0
  125.7690  129.0160   65.3350 C   0  0  0  0  0  0  0  0  0  0  0  0
  124.9260  129.4210   66.4620 C   0  0  0  0  0  0  0  0  0  0  0  0
  124.2610  129.7410   67.3540 N   0  0  0  0  0  0  0  0  0  0  0  0
  126.5300  130.2480   58.5920 C   0  0  0  0  0  0  0  0  0  0  0  0
  127.5550  130.8020   57.8300 C   0  0  0  0  0  0  0  0  0  0  0  0
  1  2  1  0
  2  3  1  0
  3  4  1  0
  4  5  2  0
  4  6  1  0
  6  7  2  0
  7  8  1  0
  8  9  2  0
  9 10  1  0
 10 11  1  0
 11 12  2  0
 11 13  1  0
 13 14  1  0
 14 15  1  0
 15 16  2  0
 16 17  1  0
 17 18  1  0
 18 19  2  0
 19 20  1  0
 20 21  2  0
 21 22  1  0
 22 23  1  0
 23 24  1  0
 24 25  1  0
 25 26  1  0
 26 27  1  0
 21 28  1  0
 28 29  2  0
 17 30  2  0
 30 31  1  0
 31 32  1  0
 32 33  2  0
 33 34  1  0
 34 35  2  0
 35 36  1  0
 36 37  1  0
 37 38  1  0
 38 39  1  0
 39 40  1  0
 40 41  1  0
 35 42  1  0
 42 43  2  0
 31 44  2  0
 44 45  1  0
 45 46  3  0
  9 47  1  0
 47 48  2  0
 48  6  1  0
 44 15  1  0
 29 18  1  0
 43 32  1  0
 27 22  1  0
 41 36  1  0
M  END
>  <Binding energies>  (9) 
[-6.15]

>  <Ligand effiencies>  (9) 
[-0.12551020408163266]

>  <Interactions>  (9) 
["V-B:GLU:543:CD:9880, V-A:HIS:456:CE1:4070, V-B:ASP:366:CG:8185, V-A:GLU:543:C:4902, V-B:HIS:456:CE1:9042, V-A:GLY:544:CA:4914, V-B:ARG:545:CZ:9898, V-A:GLU:543:CB:4906, H-B:TYR:484:OH:9320, V-A:GLU:543:CD:4908, V-A:GLU:543:CA:4904, V-A:GLY:544:C:4912, V-A:GLU:543:CG:4907, V-B:TYR:484:CZ:9319, V-A:HIS:456:CG:4066, H-B:GLY:454:N:9022, V-A:HIS:456:CD2:4068, V-A:ASP:366:CG:3213, V-A:ASP:366:CB:3212, H-B:ASP:366:OD2:8187, V-B:TYR:539:CZ:9849, V-B:MET:535:CE:9807, H-B:ARG:545:NH2:9900, V-A:PRO:540:CA:4883, V-A:PRO:540:CB:4885, V-A:PRO:540:N:4884, V-B:ARG:545:CG:9894, V-B:ARG:545:CD:9895, V-A:TYR:531:CZ:4794, H-A:TYR:531:OH:4795, V-A:TYR:539:CD1:4873, V-A:TYR:539:C:4867, H-A:TYR:539:N:4870, V-B:TYR:484:CE1:9317, H-B:ARG:545:NH1:9899, V-B:GLY:453:CA:9016, V-B:GLU:543:CB:9878, V-B:HIS:456:CD2:9040, H-B:LYS:547:NZ:9923, H-B:TYR:539:OH:9850, V-B:LYS:547:CE:9922, H-B:ASP:366:OD1:8186, H-B:HIS:456:ND1:9039"]

$$$$
2b_Ghoteimi_2023
     RDKit          3D

 42 47  0  0  0  0  0  0  0  0999 V2000
  126.5740  131.0610   59.1250 N   0  0  0  0  0  0  0  0  0  0  0  0
  126.8640  130.7360   60.1970 C   0  0  0  0  0  0  0  0  0  0  0  0
  127.2310  130.3180   61.5530 C   0  0  0  0  0  0  0  0  0  0  0  0
  127.3730  128.9440   61.8700 C   0  0  0  0  0  0  0  0  0  0  0  0
  127.1700  127.8400   60.8850 C   0  0  0  0  0  0  0  0  0  0  0  0
  126.6700  126.6050   61.3040 C   0  0  0  0  0  0  0  0  0  0  0  0
  126.4810  125.5730   60.3900 C   0  0  0  0  0  0  0  0  0  0  0  0
  126.8030  125.7410   59.0340 C   0  0  0  0  0  0  0  0  0  0  0  0
  126.6090  124.7250   58.0970 N   0  0  0  0  0  0  0  0  0  0  0  0
  127.7690  123.9300   57.6480 C   0  0  0  0  0  0  0  0  0  0  0  0
  127.4960  123.1200   56.3630 C   0  0  0  0  0  0  0  0  0  0  0  0
  126.3510  122.3000   56.5360 O   0  0  0  0  0  0  0  0  0  0  0  0
  125.1940  123.0690   56.8260 C   0  0  0  0  0  0  0  0  0  0  0  0
  125.4070  123.8680   58.1280 C   0  0  0  0  0  0  0  0  0  0  0  0
  127.3070  126.9830   58.6240 C   0  0  0  0  0  0  0  0  0  0  0  0
  127.4930  128.0170   59.5370 C   0  0  0  0  0  0  0  0  0  0  0  0
  127.7300  128.5940   63.1780 C   0  0  0  0  0  0  0  0  0  0  0  0
  127.9700  129.5840   64.1340 C   0  0  0  0  0  0  0  0  0  0  0  0
  128.3830  129.2640   65.5360 C   0  0  0  0  0  0  0  0  0  0  0  0
  128.2070  130.1980   66.5630 C   0  0  0  0  0  0  0  0  0  0  0  0
  128.5740  129.9010   67.8730 C   0  0  0  0  0  0  0  0  0  0  0  0
  129.1440  128.6610   68.2040 C   0  0  0  0  0  0  0  0  0  0  0  0
  129.4900  128.3370   69.5200 N   0  0  0  0  0  0  0  0  0  0  0  0
  128.8500  127.1840   70.1870 C   0  0  0  0  0  0  0  0  0  0  0  0
  129.0240  127.1820   71.7210 C   0  0  0  0  0  0  0  0  0  0  0  0
  130.4020  127.2620   72.0530 O   0  0  0  0  0  0  0  0  0  0  0  0
  130.9880  128.4530   71.5540 C   0  0  0  0  0  0  0  0  0  0  0  0
  130.8710  128.4960   70.0160 C   0  0  0  0  0  0  0  0  0  0  0  0
  129.3120  127.7250   67.1730 C   0  0  0  0  0  0  0  0  0  0  0  0
  128.9420  128.0220   65.8640 C   0  0  0  0  0  0  0  0  0  0  0  0
  127.8350  130.8990   63.8290 N   0  0  0  0  0  0  0  0  0  0  0  0
  127.4580  131.2620   62.5800 C   0  0  0  0  0  0  0  0  0  0  0  0
  127.3260  133.0230   62.3590 S   0  0  0  0  0  0  0  0  0  0  0  0
  128.0460  133.4270   60.7390 C   0  0  0  0  0  0  0  0  0  0  0  0
  129.2750  132.5730   60.4260 C   0  0  0  0  0  0  0  0  0  0  0  0
  130.1730  132.4760   61.2650 O   0  0  0  0  0  0  0  0  0  0  0  0
  129.2760  131.9790   59.2130 N   0  0  0  0  0  0  0  0  0  0  0  0
  130.2540  131.1480   58.6840 C   0  0  0  0  0  0  0  0  0  0  0  0
  130.8210  130.0910   59.3940 C   0  0  0  0  0  0  0  0  0  0  0  0
  131.7310  129.5270   58.5320 C   0  0  0  0  0  0  0  0  0  0  0  0
  131.7130  130.2080   57.3620 O   0  0  0  0  0  0  0  0  0  0  0  0
  130.7710  131.2330   57.4690 N   0  0  0  0  0  0  0  0  0  0  0  0
  1  2  3  0
  2  3  1  0
  3  4  2  0
  4  5  1  0
  5  6  2  0
  6  7  1  0
  7  8  2  0
  8  9  1  0
  9 10  1  0
 10 11  1  0
 11 12  1  0
 12 13  1  0
 13 14  1  0
  8 15  1  0
 15 16  2  0
  4 17  1  0
 17 18  2  0
 18 19  1  0
 19 20  2  0
 20 21  1  0
 21 22  2  0
 22 23  1  0
 23 24  1  0
 24 25  1  0
 25 26  1  0
 26 27  1  0
 27 28  1  0
 22 29  1  0
 29 30  2  0
 18 31  1  0
 31 32  2  0
 32 33  1  0
 33 34  1  0
 34 35  1  0
 35 36  2  0
 35 37  1  0
 37 38  1  0
 38 39  1  0
 39 40  2  0
 40 41  1  0
 41 42  1  0
 32  3  1  0
 42 38  2  0
 16  5  1  0
 30 19  1  0
 14  9  1  0
 28 23  1  0
M  END
>  <Binding energies>  (10) 
[-6.35]

>  <Ligand effiencies>  (10) 
[-0.14767441860465116]

>  <Interactions>  (10) 
["V-B:PRO:540:CD:9859, V-B:LEU:363:CD1:8161, V-B:PRO:540:CB:9857, V-B:GLU:543:CD:9880, V-A:HIS:456:CE1:4070, V-B:ASP:366:CG:8185, V-A:GLU:543:C:4902, V-B:HIS:456:CE1:9042, V-A:GLY:544:CA:4914, V-A:GLU:543:CB:4906, H-B:TYR:484:OH:9320, V-A:GLU:543:CD:4908, V-A:GLU:543:CA:4904, V-A:GLY:544:C:4912, V-A:GLU:543:CG:4907, V-B:TYR:484:CZ:9319, V-A:HIS:456:CD2:4068, V-A:ASP:366:CG:3213, V-A:ASP:366:CB:3212, V-B:TYR:531:CE2:9765, V-B:TYR:539:CZ:9849, V-B:TYR:539:CE1:9847, V-B:TYR:539:CD1:9845, V-B:MET:535:CE:9807, V-A:PRO:540:CA:4883, V-A:PRO:540:C:4881, H-B:TYR:539:N:9842, H-A:ALA:541:N:4891, V-A:ALA:541:CB:4892, H-A:TYR:531:OH:4795, V-B:HIS:456:CD2:9040, V-B:TYR:484:CE2:9318, H-A:TYR:539:O:4868"]

$$$$
2c_Ghoteimi_2023
     RDKit          3D

 42 47  0  0  0  0  0  0  0  0999 V2000
  126.1370  130.7990   58.6730 N   0  0  0  0  0  0  0  0  0  0  0  0
  126.4580  130.5050   59.7450 C   0  0  0  0  0  0  0  0  0  0  0  0
  126.8670  130.1270   61.1010 C   0  0  0  0  0  0  0  0  0  0  0  0
  127.0110  128.7620   61.4570 C   0  0  0  0  0  0  0  0  0  0  0  0
  126.7640  127.6270   60.5170 C   0  0  0  0  0  0  0  0  0  0  0  0
  126.7630  127.8440   59.1380 C   0  0  0  0  0  0  0  0  0  0  0  0
  126.5380  126.7910   58.2560 C   0  0  0  0  0  0  0  0  0  0  0  0
  126.2950  125.4920   58.7290 C   0  0  0  0  0  0  0  0  0  0  0  0
  126.0870  124.4170   57.8620 N   0  0  0  0  0  0  0  0  0  0  0  0
  127.1940  123.4760   57.6010 C   0  0  0  0  0  0  0  0  0  0  0  0
  126.9610  122.5900   56.3580 C   0  0  0  0  0  0  0  0  0  0  0  0
  125.7270  121.8990   56.4780 O   0  0  0  0  0  0  0  0  0  0  0  0
  124.6320  122.7960   56.5870 C   0  0  0  0  0  0  0  0  0  0  0  0
  124.8040  123.6880   57.8350 C   0  0  0  0  0  0  0  0  0  0  0  0
  126.2950  125.2850   60.1160 C   0  0  0  0  0  0  0  0  0  0  0  0
  126.5210  126.3380   60.9970 C   0  0  0  0  0  0  0  0  0  0  0  0
  127.4070  128.4530   62.7640 C   0  0  0  0  0  0  0  0  0  0  0  0
  127.6790  129.4710   63.6820 C   0  0  0  0  0  0  0  0  0  0  0  0
  128.1210  129.1930   65.0830 C   0  0  0  0  0  0  0  0  0  0  0  0
  128.7960  128.0100   65.3970 C   0  0  0  0  0  0  0  0  0  0  0  0
  129.2160  127.7470   66.6990 C   0  0  0  0  0  0  0  0  0  0  0  0
  128.9640  128.6560   67.7390 C   0  0  0  0  0  0  0  0  0  0  0  0
  129.4010  128.4190   69.0470 N   0  0  0  0  0  0  0  0  0  0  0  0
  128.8900  127.2510   69.7930 C   0  0  0  0  0  0  0  0  0  0  0  0
  129.1440  127.3270   71.3130 C   0  0  0  0  0  0  0  0  0  0  0  0
  130.5260  127.5220   71.5660 O   0  0  0  0  0  0  0  0  0  0  0  0
  130.9940  128.7310   70.9880 C   0  0  0  0  0  0  0  0  0  0  0  0
  130.7920  128.7000   69.4580 C   0  0  0  0  0  0  0  0  0  0  0  0
  128.2980  129.8470   67.4170 C   0  0  0  0  0  0  0  0  0  0  0  0
  127.8810  130.1090   66.1140 C   0  0  0  0  0  0  0  0  0  0  0  0
  127.5430  130.7780   63.3380 N   0  0  0  0  0  0  0  0  0  0  0  0
  127.1310  131.1020   62.0890 C   0  0  0  0  0  0  0  0  0  0  0  0
  126.9970  132.8540   61.8170 S   0  0  0  0  0  0  0  0  0  0  0  0
  128.0060  133.2580   60.3590 C   0  0  0  0  0  0  0  0  0  0  0  0
  129.3800  132.5880   60.4090 C   0  0  0  0  0  0  0  0  0  0  0  0
  129.9030  132.3620   61.5010 O   0  0  0  0  0  0  0  0  0  0  0  0
  129.9280  132.2930   59.2100 N   0  0  0  0  0  0  0  0  0  0  0  0
  131.1480  131.6730   58.9860 C   0  0  0  0  0  0  0  0  0  0  0  0
  132.2820  131.8650   59.6260 N   0  0  0  0  0  0  0  0  0  0  0  0
  133.2430  131.0980   59.1510 C   0  0  0  0  0  0  0  0  0  0  0  0
  132.8950  130.2570   58.0980 C   0  0  0  0  0  0  0  0  0  0  0  0
  131.2150  130.4920   57.7180 S   0  0  0  0  0  0  0  0  0  0  0  0
  1  2  3  0
  2  3  1  0
  3  4  2  0
  4  5  1  0
  5  6  2  0
  6  7  1  0
  7  8  2  0
  8  9  1  0
  9 10  1  0
 10 11  1  0
 11 12  1  0
 12 13  1  0
 13 14  1  0
  8 15  1  0
 15 16  2  0
  4 17  1  0
 17 18  2  0
 18 19  1  0
 19 20  2  0
 20 21  1  0
 21 22  2  0
 22 23  1  0
 23 24  1  0
 24 25  1  0
 25 26  1  0
 26 27  1  0
 27 28  1  0
 22 29  1  0
 29 30  2  0
 18 31  1  0
 31 32  2  0
 32 33  1  0
 33 34  1  0
 34 35  1  0
 35 36  2  0
 35 37  1  0
 37 38  1  0
 38 39  2  0
 39 40  1  0
 40 41  2  0
 41 42  1  0
 32  3  1  0
 42 38  1  0
 16  5  1  0
 30 19  1  0
 14  9  1  0
 28 23  1  0
M  END
>  <Binding energies>  (11) 
[-5.93]

>  <Ligand effiencies>  (11) 
[-0.13790697674418603]

>  <Interactions>  (11) 
["V-B:PRO:540:CD:9859, V-B:LEU:363:CD1:8161, V-B:ILE:538:CD1:9837, V-B:PRO:540:CB:9857, V-B:TYR:539:C:9839, V-B:PRO:540:N:9856, V-B:GLU:543:CD:9880, V-B:ILE:538:CG2:9835, V-A:HIS:456:CE1:4070, V-B:ASP:366:CG:8185, V-A:GLU:543:C:4902, V-B:HIS:456:CE1:9042, V-A:GLY:544:CA:4914, V-A:GLU:543:CB:4906, H-B:TYR:484:OH:9320, V-A:GLU:543:CD:4908, V-A:GLU:543:CA:4904, V-A:GLY:544:C:4912, V-A:GLU:543:CG:4907, V-B:TYR:484:CZ:9319, V-A:HIS:456:CD2:4068, V-A:ASP:366:CG:3213, V-A:ASP:366:CB:3212, V-B:TYR:531:CE2:9765, V-B:TYR:539:CE1:9847, V-B:TYR:539:CD1:9845, V-A:PRO:540:CA:4883, V-A:PRO:540:CB:4885, V-A:PRO:540:N:4884, V-A:PRO:540:C:4881, H-B:TYR:539:N:9842, H-A:ALA:541:N:4891, V-A:ALA:541:CB:4892, V-A:LEU:363:CA:3185, V-A:TYR:539:C:4867, V-B:HIS:456:CD2:9040, V-B:TYR:484:CE2:9318, H-A:TYR:539:O:4868"]

$$$$
2j_Grossjean_2025
     RDKit          3D

 23 24  0  0  0  0  0  0  0  0999 V2000
  133.2000  125.3460   64.2890 C   0  0  0  0  0  0  0  0  0  0  0  0
  132.5310  125.1100   62.9480 C   0  0  0  0  0  0  0  0  0  0  0  0
  133.2710  124.8240   61.8030 C   0  0  0  0  0  0  0  0  0  0  0  0
  132.6070  124.6100   60.5870 C   0  0  0  0  0  0  0  0  0  0  0  0
  133.4410  124.2930   59.3310 C   0  0  0  0  0  0  0  0  0  0  0  0
  133.1150  125.1290   58.3440 F   0  0  0  0  0  0  0  0  0  0  0  0
  134.7410  124.4280   59.6000 F   0  0  0  0  0  0  0  0  0  0  0  0
  133.2510  123.0500   58.8840 F   0  0  0  0  0  0  0  0  0  0  0  0
  131.1920  124.6950   60.5640 C   0  0  0  0  0  0  0  0  0  0  0  0
  130.4450  124.4810   59.3210 C   0  0  0  0  0  0  0  0  0  0  0  0
  129.8570  124.3110   58.3390 N   0  0  0  0  0  0  0  0  0  0  0  0
  130.5200  124.9910   61.7740 C   0  0  0  0  0  0  0  0  0  0  0  0
  128.7400  125.1210   61.8650 S   0  0  0  0  0  0  0  0  0  0  0  0
  128.0450  123.4360   61.9630 C   0  0  0  0  0  0  0  0  0  0  0  0
  126.9540  123.1260   60.9280 C   0  0  0  0  0  0  0  0  0  0  0  0
  125.8330  122.7570   61.2860 O   0  0  0  0  0  0  0  0  0  0  0  0
  127.3340  123.2810   59.6400 N   0  0  0  0  0  0  0  0  0  0  0  0
  126.5510  123.0710   58.5130 C   0  0  0  0  0  0  0  0  0  0  0  0
  126.8450  122.3570   57.4480 N   0  0  0  0  0  0  0  0  0  0  0  0
  125.8640  122.3740   56.5660 C   0  0  0  0  0  0  0  0  0  0  0  0
  124.7400  123.1180   56.9110 C   0  0  0  0  0  0  0  0  0  0  0  0
  124.9920  123.8300   58.4770 S   0  0  0  0  0  0  0  0  0  0  0  0
  131.1820  125.1930   62.9420 N   0  0  0  0  0  0  0  0  0  0  0  0
  1  2  1  0
  2  3  2  0
  3  4  1  0
  4  5  1  0
  5  6  1  0
  5  7  1  0
  5  8  1  0
  4  9  2  0
  9 10  1  0
 10 11  3  0
  9 12  1  0
 12 13  1  0
 13 14  1  0
 14 15  1  0
 15 16  2  0
 15 17  1  0
 17 18  1  0
 18 19  2  0
 19 20  1  0
 20 21  2  0
 21 22  1  0
 12 23  2  0
 23  2  1  0
 22 18  1  0
M  END
>  <Binding energies>  (12) 
[-5.55]

>  <Ligand effiencies>  (12) 
[-0.23124999999999998]

>  <Interactions>  (12) 
["V-B:PRO:540:CD:9859, V-B:LEU:363:CD1:8161, V-A:ARG:545:CD:4923, V-B:PRO:540:CB:9857, V-A:ARG:545:CZ:4926, V-B:TYR:539:C:9839, V-B:PRO:540:CA:9855, V-B:PRO:540:N:9856, V-B:GLU:543:CD:9880, V-A:ILE:369:CD1:3239, V-A:TYR:484:CZ:4347, V-B:TYR:539:CE2:9848, V-B:PRO:540:C:9853, H-B:ALA:541:N:9863, H-A:TYR:484:OH:4348, V-A:ILE:369:CG2:3237, V-A:ASP:366:CG:3213, V-A:ASP:366:CB:3212, V-A:ILE:369:CB:3236, V-A:ASP:366:C:3208, V-A:ASP:366:CA:3210, V-B:TYR:531:CE2:9765, V-B:TYR:531:CZ:9766, V-A:ILE:369:CG1:3238, V-B:TYR:539:CZ:9849, H-B:TYR:539:N:9842, H-B:TYR:539:OH:9850"]

$$$$
3ab_Grossjean_2025
     RDKit          3D

 33 35  0  0  0  0  0  0  0  0999 V2000
  128.3620  123.6330   56.3390 C   0  0  0  0  0  0  0  0  0  0  0  0
  127.4000  122.5900   56.2670 O   0  0  0  0  0  0  0  0  0  0  0  0
  126.2490  122.6510   56.9850 C   0  0  0  0  0  0  0  0  0  0  0  0
  125.2360  122.0040   56.7030 O   0  0  0  0  0  0  0  0  0  0  0  0
  126.3320  123.5810   58.1610 C   0  0  0  0  0  0  0  0  0  0  0  0
  126.1620  124.9670   58.0250 C   0  0  0  0  0  0  0  0  0  0  0  0
  126.2430  125.8060   59.1330 C   0  0  0  0  0  0  0  0  0  0  0  0
  126.4980  125.2680   60.4050 C   0  0  0  0  0  0  0  0  0  0  0  0
  126.5940  126.0190   61.5920 N   0  0  0  0  0  0  0  0  0  0  0  0
  126.8240  127.3370   61.7680 C   0  0  0  0  0  0  0  0  0  0  0  0
  127.0140  128.1560   60.8690 O   0  0  0  0  0  0  0  0  0  0  0  0
  126.8460  127.8110   63.2230 C   0  0  0  0  0  0  0  0  0  0  0  0
  128.2550  128.9080   63.5640 S   0  0  0  0  0  0  0  0  0  0  0  0
  128.3650  130.0710   62.2210 C   0  0  0  0  0  0  0  0  0  0  0  0
  129.6190  130.2180   61.7330 N   0  0  0  0  0  0  0  0  0  0  0  0
  129.8480  131.0710   60.7010 C   0  0  0  0  0  0  0  0  0  0  0  0
  131.2640  131.1730   60.2170 C   0  0  0  0  0  0  0  0  0  0  0  0
  131.5770  130.9650   58.8640 C   0  0  0  0  0  0  0  0  0  0  0  0
  132.8890  131.0590   58.4080 C   0  0  0  0  0  0  0  0  0  0  0  0
  133.9110  131.3630   59.3030 C   0  0  0  0  0  0  0  0  0  0  0  0
  133.6280  131.5700   60.6490 C   0  0  0  0  0  0  0  0  0  0  0  0
  132.3140  131.4740   61.1000 C   0  0  0  0  0  0  0  0  0  0  0  0
  128.8040  131.8210   60.1470 C   0  0  0  0  0  0  0  0  0  0  0  0
  127.5000  131.7010   60.6490 C   0  0  0  0  0  0  0  0  0  0  0  0
  126.3800  132.5490   60.0150 C   0  0  0  0  0  0  0  0  0  0  0  0
  126.7680  133.1640   58.8950 F   0  0  0  0  0  0  0  0  0  0  0  0
  125.3380  131.7770   59.7050 F   0  0  0  0  0  0  0  0  0  0  0  0
  125.9800  133.4890   60.8720 F   0  0  0  0  0  0  0  0  0  0  0  0
  127.2660  130.8080   61.7240 C   0  0  0  0  0  0  0  0  0  0  0  0
  125.9340  130.6870   62.3220 C   0  0  0  0  0  0  0  0  0  0  0  0
  124.8810  130.5940   62.7930 N   0  0  0  0  0  0  0  0  0  0  0  0
  126.6610  123.8900   60.5440 C   0  0  0  0  0  0  0  0  0  0  0  0
  126.5810  123.0540   59.4350 C   0  0  0  0  0  0  0  0  0  0  0  0
  1  2  1  0
  2  3  1  0
  3  4  2  0
  3  5  1  0
  5  6  2  0
  6  7  1  0
  7  8  2  0
  8  9  1  0
  9 10  1  0
 10 11  2  0
 10 12  1  0
 12 13  1  0
 13 14  1  0
 14 15  2  0
 15 16  1  0
 16 17  1  0
 17 18  2  0
 18 19  1  0
 19 20  2  0
 20 21  1  0
 21 22  2  0
 16 23  2  0
 23 24  1  0
 24 25  1  0
 25 26  1  0
 25 27  1  0
 25 28  1  0
 24 29  2  0
 29 30  1  0
 30 31  3  0
  8 32  1  0
 32 33  2  0
 33  5  1  0
 29 14  1  0
 22 17  1  0
M  END
>  <Binding energies>  (13) 
[-6.46]

>  <Ligand effiencies>  (13) 
[-0.19]

>  <Interactions>  (13) 
["V-B:PRO:540:CD:9859, V-B:PRO:540:CB:9857, V-B:TYR:539:C:9839, V-B:PRO:540:CA:9855, V-B:PRO:540:N:9856, V-B:GLU:543:CD:9880, V-B:TYR:539:CE2:9848, V-B:ASP:366:CG:8185, H-B:TYR:484:OH:9320, V-A:GLU:543:CD:4908, V-B:LEU:475:CD2:9231, V-A:ASP:366:CG:3213, H-B:GLU:543:OE2:9882, H-B:GLU:543:OE1:9881, V-B:TYR:539:CZ:9849, V-B:TYR:539:CE1:9847, V-B:TYR:539:CD1:9845, V-B:MET:535:CE:9807, V-A:PRO:540:CA:4883, V-A:PRO:540:CB:4885, H-B:TYR:539:N:9842, V-A:ASN:362:CB:3176, V-A:LEU:363:CA:3185, V-A:TYR:539:CD1:4873, V-A:TYR:539:CE1:4875, V-A:LEU:363:CB:3187, V-A:TYR:539:CZ:4877, V-A:TYR:539:CG:4872, V-A:ASN:362:C:3172"]

$$$$
3ac_Grossjean_2025
     RDKit          3D

 31 33  0  0  0  0  0  0  0  0999 V2000
  124.3810  123.5240   61.6660 C   0  0  0  0  0  0  0  0  0  0  0  0
  125.3940  122.8030   62.3620 O   0  0  0  0  0  0  0  0  0  0  0  0
  126.6850  122.8110   61.8710 C   0  0  0  0  0  0  0  0  0  0  0  0
  127.6940  122.4680   62.7710 C   0  0  0  0  0  0  0  0  0  0  0  0
  129.0260  122.4440   62.3670 C   0  0  0  0  0  0  0  0  0  0  0  0
  129.3690  122.7730   61.0540 C   0  0  0  0  0  0  0  0  0  0  0  0
  130.7380  122.7010   60.7340 N   0  0  0  0  0  0  0  0  0  0  0  0
  131.4800  121.6200   60.4090 C   0  0  0  0  0  0  0  0  0  0  0  0
  131.0510  120.4720   60.2920 O   0  0  0  0  0  0  0  0  0  0  0  0
  132.9660  121.8890   60.1710 C   0  0  0  0  0  0  0  0  0  0  0  0
  133.2400  123.2690   59.0180 S   0  0  0  0  0  0  0  0  0  0  0  0
  132.5130  124.7430   59.7080 C   0  0  0  0  0  0  0  0  0  0  0  0
  132.4410  124.7190   61.0610 N   0  0  0  0  0  0  0  0  0  0  0  0
  131.9150  125.7780   61.7300 C   0  0  0  0  0  0  0  0  0  0  0  0
  131.8650  125.6680   63.2250 C   0  0  0  0  0  0  0  0  0  0  0  0
  133.0270  125.3890   63.9640 C   0  0  0  0  0  0  0  0  0  0  0  0
  132.9880  125.2910   65.3520 C   0  0  0  0  0  0  0  0  0  0  0  0
  131.7820  125.4700   66.0220 C   0  0  0  0  0  0  0  0  0  0  0  0
  130.6170  125.7420   65.3150 C   0  0  0  0  0  0  0  0  0  0  0  0
  130.6600  125.8380   63.9260 C   0  0  0  0  0  0  0  0  0  0  0  0
  131.4290  126.8920   61.0390 C   0  0  0  0  0  0  0  0  0  0  0  0
  131.4710  126.9330   59.6370 C   0  0  0  0  0  0  0  0  0  0  0  0
  130.9190  128.1780   58.9160 C   0  0  0  0  0  0  0  0  0  0  0  0
  130.6340  129.1780   59.7520 F   0  0  0  0  0  0  0  0  0  0  0  0
  131.8130  128.6370   58.0380 F   0  0  0  0  0  0  0  0  0  0  0  0
  129.7980  127.8640   58.2650 F   0  0  0  0  0  0  0  0  0  0  0  0
  132.0150  125.8230   58.9430 C   0  0  0  0  0  0  0  0  0  0  0  0
  132.0110  125.7870   57.4790 C   0  0  0  0  0  0  0  0  0  0  0  0
  132.0060  125.7590   56.3220 N   0  0  0  0  0  0  0  0  0  0  0  0
  128.3590  123.1120   60.1410 C   0  0  0  0  0  0  0  0  0  0  0  0
  127.0280  123.1340   60.5490 C   0  0  0  0  0  0  0  0  0  0  0  0
  1  2  1  0
  2  3  1  0
  3  4  2  0
  4  5  1  0
  5  6  2  0
  6  7  1  0
  7  8  1  0
  8  9  2  0
  8 10  1  0
 10 11  1  0
 11 12  1  0
 12 13  2  0
 13 14  1  0
 14 15  1  0
 15 16  2  0
 16 17  1  0
 17 18  2  0
 18 19  1  0
 19 20  2  0
 14 21  2  0
 21 22  1  0
 22 23  1  0
 23 24  1  0
 23 25  1  0
 23 26  1  0
 22 27  2  0
 27 28  1  0
 28 29  3  0
  6 30  1  0
 30 31  2  0
 31  3  1  0
 27 12  1  0
 20 15  1  0
M  END
>  <Binding energies>  (14) 
[-6.17]

>  <Ligand effiencies>  (14) 
[-0.1928125]

>  <Interactions>  (14) 
["V-A:ARG:545:CD:4923, V-B:PRO:540:CB:9857, V-A:ARG:545:CZ:4926, V-B:PRO:540:CA:9855, V-B:GLU:543:CD:9880, V-A:TYR:484:CZ:4347, V-A:TYR:484:CE2:4346, V-B:TYR:539:CE2:9848, V-A:ARG:545:CG:4922, V-B:PRO:540:C:9853, H-B:ALA:541:N:9863, V-A:HIS:456:CE1:4070, V-A:LEU:475:CD2:4259, V-B:ALA:541:CA:9862, V-B:TYR:539:CD2:9846, V-B:ALA:541:CB:9864, V-A:GLU:543:CD:4908, V-A:ILE:369:CG2:3237, V-A:ASP:366:CG:3213, V-A:ASP:366:CB:3212, V-B:GLU:543:CG:9879, V-A:TYR:484:CE1:4345, V-B:ASN:362:CB:8148, H-B:TYR:539:OH:9850"]

$$$$
3af_Grossjean_2025
     RDKit          3D

 29 31  0  0  0  0  0  0  0  0999 V2000
  131.3810  126.6970   61.4320 N   0  0  0  0  0  0  0  0  0  0  0  0
  131.3620  125.5480   61.3000 C   0  0  0  0  0  0  0  0  0  0  0  0
  131.3400  124.0920   61.1320 C   0  0  0  0  0  0  0  0  0  0  0  0
  132.2450  123.4530   60.2510 C   0  0  0  0  0  0  0  0  0  0  0  0
  133.3240  124.2230   59.4640 C   0  0  0  0  0  0  0  0  0  0  0  0
  132.9060  125.4190   59.0440 F   0  0  0  0  0  0  0  0  0  0  0  0
  134.3960  124.4190   60.2330 F   0  0  0  0  0  0  0  0  0  0  0  0
  133.6880  123.5280   58.3850 F   0  0  0  0  0  0  0  0  0  0  0  0
  132.1500  122.0630   60.0820 C   0  0  0  0  0  0  0  0  0  0  0  0
  131.1770  121.3330   60.7730 C   0  0  0  0  0  0  0  0  0  0  0  0
  131.0180  119.8500   60.6160 C   0  0  0  0  0  0  0  0  0  0  0  0
  131.8820  119.1200   59.7840 C   0  0  0  0  0  0  0  0  0  0  0  0
  131.7420  117.7420   59.6370 C   0  0  0  0  0  0  0  0  0  0  0  0
  130.7310  117.0750   60.3210 C   0  0  0  0  0  0  0  0  0  0  0  0
  129.8630  117.7740   61.1530 C   0  0  0  0  0  0  0  0  0  0  0  0
  130.0080  119.1520   61.2980 C   0  0  0  0  0  0  0  0  0  0  0  0
  130.3090  121.9500   61.6140 N   0  0  0  0  0  0  0  0  0  0  0  0
  130.3960  123.2880   61.8100 C   0  0  0  0  0  0  0  0  0  0  0  0
  129.1850  123.9130   62.9580 S   0  0  0  0  0  0  0  0  0  0  0  0
  127.7960  122.7410   63.0040 C   0  0  0  0  0  0  0  0  0  0  0  0
  126.8970  122.8760   61.7750 C   0  0  0  0  0  0  0  0  0  0  0  0
  125.6790  122.9580   61.9310 O   0  0  0  0  0  0  0  0  0  0  0  0
  127.5390  122.8870   60.5870 N   0  0  0  0  0  0  0  0  0  0  0  0
  127.0150  122.9890   59.2830 C   0  0  0  0  0  0  0  0  0  0  0  0
  125.8240  123.6470   58.9260 C   0  0  0  0  0  0  0  0  0  0  0  0
  125.4200  123.6680   57.5900 C   0  0  0  0  0  0  0  0  0  0  0  0
  126.2170  123.0280   56.6400 C   0  0  0  0  0  0  0  0  0  0  0  0
  127.3690  122.3870   56.9580 N   0  0  0  0  0  0  0  0  0  0  0  0
  127.7480  122.3760   58.2610 C   0  0  0  0  0  0  0  0  0  0  0  0
  1  2  3  0
  2  3  1  0
  3  4  2  0
  4  5  1  0
  5  6  1  0
  5  7  1  0
  5  8  1  0
  4  9  1  0
  9 10  2  0
 10 11  1  0
 11 12  2  0
 12 13  1  0
 13 14  2  0
 14 15  1  0
 15 16  2  0
 10 17  1  0
 17 18  2  0
 18 19  1  0
 19 20  1  0
 20 21  1  0
 21 22  2  0
 21 23  1  0
 23 24  1  0
 24 25  2  0
 25 26  1  0
 26 27  2  0
 27 28  1  0
 28 29  2  0
 18  3  1  0
 29 24  1  0
 16 11  1  0
M  END
>  <Binding energies>  (15) 
[-8.01]

>  <Ligand effiencies>  (15) 
[-0.267]

>  <Interactions>  (15) 
["V-B:PRO:540:CB:9857, V-B:TYR:539:C:9839, V-B:PRO:540:CA:9855, V-B:PRO:540:N:9856, V-B:GLU:543:CD:9880, V-A:ILE:369:CD1:3239, V-B:TYR:539:CE2:9848, V-B:PRO:540:C:9853, H-B:ALA:541:N:9863, H-B:TYR:539:O:9840, V-A:SER:385:CB:3409, V-A:PRO:482:CG:4327, V-A:PRO:482:CB:4326, V-B:TYR:539:CB:9843, V-A:LEU:475:CD2:4259, H-A:TYR:484:OH:4348, V-B:ALA:541:CA:9862, V-B:TYR:539:CA:9841, V-B:TYR:539:CD2:9846, V-A:LEU:475:CD1:4258, V-A:LEU:475:CG:4257, V-B:ALA:541:CB:9864, V-A:ILE:369:CG2:3237, H-A:ARG:545:NH2:4928, V-A:ASP:366:CG:3213, V-A:ASP:366:CB:3212, V-A:ILE:369:CB:3236, V-A:ASP:366:CA:3210, V-B:GLU:543:CG:9879, V-B:TYR:539:CG:9844, V-A:ILE:369:CG1:3238, V-B:TYR:539:CZ:9849, H-B:TYR:539:N:9842"]

$$$$
3ag_Grossjean_2025
     RDKit          3D

 30 32  0  0  0  0  0  0  0  0999 V2000
  132.2300  120.7150   60.2310 N   0  0  0  0  0  0  0  0  0  0  0  0
  131.7890  121.7690   60.4150 C   0  0  0  0  0  0  0  0  0  0  0  0
  131.2330  123.1050   60.6460 C   0  0  0  0  0  0  0  0  0  0  0  0
  131.9330  124.2630   60.2250 C   0  0  0  0  0  0  0  0  0  0  0  0
  133.2680  124.1950   59.4590 C   0  0  0  0  0  0  0  0  0  0  0  0
  134.3200  124.0430   60.2650 F   0  0  0  0  0  0  0  0  0  0  0  0
  133.2550  123.1620   58.6150 F   0  0  0  0  0  0  0  0  0  0  0  0
  133.4570  125.3180   58.7650 F   0  0  0  0  0  0  0  0  0  0  0  0
  131.3850  125.5210   60.5170 C   0  0  0  0  0  0  0  0  0  0  0  0
  130.1800  125.6220   61.2200 C   0  0  0  0  0  0  0  0  0  0  0  0
  129.5510  126.9390   61.5610 C   0  0  0  0  0  0  0  0  0  0  0  0
  128.7410  127.0730   62.6990 C   0  0  0  0  0  0  0  0  0  0  0  0
  128.1540  128.2940   63.0220 C   0  0  0  0  0  0  0  0  0  0  0  0
  128.3700  129.4000   62.2070 C   0  0  0  0  0  0  0  0  0  0  0  0
  129.1670  129.2930   61.0720 C   0  0  0  0  0  0  0  0  0  0  0  0
  129.7510  128.0710   60.7520 C   0  0  0  0  0  0  0  0  0  0  0  0
  129.5050  124.5100   61.6110 N   0  0  0  0  0  0  0  0  0  0  0  0
  130.0060  123.2840   61.3230 C   0  0  0  0  0  0  0  0  0  0  0  0
  128.9900  121.9460   61.9080 S   0  0  0  0  0  0  0  0  0  0  0  0
  127.5050  122.6800   62.6560 C   0  0  0  0  0  0  0  0  0  0  0  0
  126.5310  123.2130   61.6030 C   0  0  0  0  0  0  0  0  0  0  0  0
  125.3890  122.7560   61.5350 O   0  0  0  0  0  0  0  0  0  0  0  0
  126.9960  124.1830   60.7970 N   0  0  0  0  0  0  0  0  0  0  0  0
  126.2280  124.8570   59.7510 C   0  0  0  0  0  0  0  0  0  0  0  0
  125.9440  123.9890   58.5300 C   0  0  0  0  0  0  0  0  0  0  0  0
  124.6250  123.6590   58.2050 C   0  0  0  0  0  0  0  0  0  0  0  0
  124.3590  122.8910   57.0750 C   0  0  0  0  0  0  0  0  0  0  0  0
  125.4110  122.4630   56.2680 C   0  0  0  0  0  0  0  0  0  0  0  0
  126.7270  122.8000   56.5780 C   0  0  0  0  0  0  0  0  0  0  0  0
  126.9940  123.5690   57.7070 C   0  0  0  0  0  0  0  0  0  0  0  0
  1  2  3  0
  2  3  1  0
  3  4  2  0
  4  5  1  0
  5  6  1  0
  5  7  1  0
  5  8  1  0
  4  9  1  0
  9 10  2  0
 10 11  1  0
 11 12  2  0
 12 13  1  0
 13 14  2  0
 14 15  1  0
 15 16  2  0
 10 17  1  0
 17 18  2  0
 18 19  1  0
 19 20  1  0
 20 21  1  0
 21 22  2  0
 21 23  1  0
 23 24  1  0
 24 25  1  0
 25 26  2  0
 26 27  1  0
 27 28  2  0
 28 29  1  0
 29 30  2  0
 18  3  1  0
 30 25  1  0
 16 11  1  0
M  END
>  <Binding energies>  (16) 
[-6.77]

>  <Ligand effiencies>  (16) 
[-0.21838709677419355]

>  <Interactions>  (16) 
["V-B:PRO:540:CD:9859, V-B:LEU:363:CD1:8161, V-B:ILE:538:CD1:9837, V-B:PRO:540:CB:9857, V-B:PRO:540:CA:9855, V-B:PRO:540:CG:9858, V-B:PRO:540:N:9856, V-B:GLU:543:CD:9880, V-A:ILE:369:CD1:3239, V-B:TYR:539:CE2:9848, V-B:ILE:538:CG2:9835, V-B:PRO:540:C:9853, H-B:ALA:541:N:9863, V-A:LEU:475:CD2:4259, V-B:ALA:541:CA:9862, V-B:TYR:539:CD2:9846, V-B:ALA:541:CB:9864, V-A:GLU:543:CD:4908, V-A:ILE:369:CG2:3237, V-A:ASP:366:CG:3213, V-A:ASP:366:CB:3212, V-A:ILE:369:CB:3236, V-A:ASP:366:C:3208, V-A:ASP:366:CA:3210, H-B:GLU:543:OE1:9881, V-B:GLU:543:CG:9879, V-B:TYR:531:CE2:9765, V-A:ILE:369:CG1:3238, V-B:TYR:539:CZ:9849, V-B:ILE:538:CA:9832"]

$$$$
3bc_Grossjean_2025
     RDKit          3D

 28 30  0  0  0  0  0  0  0  0999 V2000
  133.9530  125.0090   65.9000 C   0  0  0  0  0  0  0  0  0  0  0  0
  133.9820  125.0720   64.4790 O   0  0  0  0  0  0  0  0  0  0  0  0
  132.8230  125.3860   63.7950 C   0  0  0  0  0  0  0  0  0  0  0  0
  131.7200  125.7420   64.5710 C   0  0  0  0  0  0  0  0  0  0  0  0
  130.5080  126.0750   63.9720 C   0  0  0  0  0  0  0  0  0  0  0  0
  130.3810  126.0480   62.5820 C   0  0  0  0  0  0  0  0  0  0  0  0
  129.1230  126.4120   62.0670 N   0  0  0  0  0  0  0  0  0  0  0  0
  128.8090  127.4010   61.2030 C   0  0  0  0  0  0  0  0  0  0  0  0
  129.6270  128.1560   60.6740 O   0  0  0  0  0  0  0  0  0  0  0  0
  127.3150  127.5120   60.8700 C   0  0  0  0  0  0  0  0  0  0  0  0
  126.5120  125.9500   60.3750 S   0  0  0  0  0  0  0  0  0  0  0  0
  127.7660  124.6890   60.3150 C   0  0  0  0  0  0  0  0  0  0  0  0
  128.8480  125.0310   59.5730 N   0  0  0  0  0  0  0  0  0  0  0  0
  129.8830  124.1600   59.4450 C   0  0  0  0  0  0  0  0  0  0  0  0
  131.0320  124.6050   58.5900 C   0  0  0  0  0  0  0  0  0  0  0  0
  132.3290  124.1270   58.8270 C   0  0  0  0  0  0  0  0  0  0  0  0
  133.4010  124.5360   58.0370 C   0  0  0  0  0  0  0  0  0  0  0  0
  133.1870  125.4340   56.9970 C   0  0  0  0  0  0  0  0  0  0  0  0
  131.9110  125.9260   56.7420 C   0  0  0  0  0  0  0  0  0  0  0  0
  130.8430  125.5150   57.5350 C   0  0  0  0  0  0  0  0  0  0  0  0
  129.8500  122.9090   60.0690 C   0  0  0  0  0  0  0  0  0  0  0  0
  128.7510  122.5500   60.8570 C   0  0  0  0  0  0  0  0  0  0  0  0
  128.7670  121.1810   61.5350 C   0  0  0  0  0  0  0  0  0  0  0  0
  127.6790  123.4570   61.0020 C   0  0  0  0  0  0  0  0  0  0  0  0
  126.5420  123.1230   61.8610 C   0  0  0  0  0  0  0  0  0  0  0  0
  125.6430  122.8570   62.5400 N   0  0  0  0  0  0  0  0  0  0  0  0
  131.4890  125.7040   61.7930 C   0  0  0  0  0  0  0  0  0  0  0  0
  132.6990  125.3720   62.3970 C   0  0  0  0  0  0  0  0  0  0  0  0
  1  2  1  0
  2  3  1  0
  3  4  2  0
  4  5  1  0
  5  6  2  0
  6  7  1  0
  7  8  1  0
  8  9  2  0
  8 10  1  0
 10 11  1  0
 11 12  1  0
 12 13  2  0
 13 14  1  0
 14 15  1  0
 15 16  2  0
 16 17  1  0
 17 18  2  0
 18 19  1  0
 19 20  2  0
 14 21  2  0
 21 22  1  0
 22 23  1  0
 22 24  2  0
 24 25  1  0
 25 26  3  0
  6 27  1  0
 27 28  2  0
 28  3  1  0
 24 12  1  0
 20 15  1  0
M  END
>  <Binding energies>  (17) 
[-6.42]

>  <Ligand effiencies>  (17) 
[-0.22137931034482758]

>  <Interactions>  (17) 
["V-A:ARG:545:CD:4923, V-A:ARG:545:CZ:4926, V-B:TYR:539:C:9839, V-B:PRO:540:CA:9855, V-B:GLU:543:CD:9880, V-A:TYR:484:CZ:4347, V-A:TYR:484:CE2:4346, V-B:TYR:539:CE2:9848, V-A:ARG:545:CG:4922, V-B:PRO:540:C:9853, H-B:ALA:541:N:9863, H-A:TYR:484:OH:4348, V-B:ALA:541:CA:9862, V-B:TYR:539:CD2:9846, V-B:ALA:541:CB:9864, V-A:GLU:543:CD:4908, H-A:ARG:545:NH1:4927, V-A:GLY:454:CA:4049, H-A:GLY:454:N:4050, V-A:ILE:369:CG2:3237, H-A:ARG:545:NH2:4928, V-A:ASP:366:CG:3213, V-A:ASP:366:CB:3212, V-A:ILE:369:CB:3236, V-A:ASP:366:C:3208, H-A:ARG:545:NE:4924, V-A:ASP:366:CA:3210, V-A:GLY:453:C:4042, H-B:GLU:543:OE2:9882, H-B:GLU:543:OE1:9881, V-B:TYR:539:CZ:9849"]

$$$$
3bd_Grossjean_2025
     RDKit          3D

 26 28  0  0  0  0  0  0  0  0999 V2000
  133.6590  123.5120   60.0540 C   0  0  0  0  0  0  0  0  0  0  0  0
  132.4700  122.7140   60.5880 C   0  0  0  0  0  0  0  0  0  0  0  0
  132.3700  121.3630   60.2400 C   0  0  0  0  0  0  0  0  0  0  0  0
  131.2940  120.5990   60.7050 C   0  0  0  0  0  0  0  0  0  0  0  0
  131.1290  119.1450   60.3740 C   0  0  0  0  0  0  0  0  0  0  0  0
  130.1850  118.3570   61.0520 C   0  0  0  0  0  0  0  0  0  0  0  0
  130.0280  117.0070   60.7510 C   0  0  0  0  0  0  0  0  0  0  0  0
  130.8160  116.4240   59.7630 C   0  0  0  0  0  0  0  0  0  0  0  0
  131.7600  117.1810   59.0780 C   0  0  0  0  0  0  0  0  0  0  0  0
  131.9140  118.5310   59.3830 C   0  0  0  0  0  0  0  0  0  0  0  0
  130.3450  121.1500   61.5060 N   0  0  0  0  0  0  0  0  0  0  0  0
  130.4260  122.4590   61.8530 C   0  0  0  0  0  0  0  0  0  0  0  0
  129.1120  123.0650   62.8990 S   0  0  0  0  0  0  0  0  0  0  0  0
  128.1320  124.2580   61.9390 C   0  0  0  0  0  0  0  0  0  0  0  0
  127.1950  123.5650   60.9490 C   0  0  0  0  0  0  0  0  0  0  0  0
  126.3890  122.7340   61.3680 O   0  0  0  0  0  0  0  0  0  0  0  0
  127.3440  123.9220   59.6540 N   0  0  0  0  0  0  0  0  0  0  0  0
  126.6230  123.4870   58.5270 C   0  0  0  0  0  0  0  0  0  0  0  0
  125.2530  123.7660   58.5280 C   0  0  0  0  0  0  0  0  0  0  0  0
  124.4560  123.3660   57.4590 C   0  0  0  0  0  0  0  0  0  0  0  0
  125.0260  122.6770   56.3920 C   0  0  0  0  0  0  0  0  0  0  0  0
  126.3870  122.3810   56.3860 C   0  0  0  0  0  0  0  0  0  0  0  0
  127.1870  122.7800   57.4520 C   0  0  0  0  0  0  0  0  0  0  0  0
  131.4790  123.2890   61.4120 C   0  0  0  0  0  0  0  0  0  0  0  0
  131.5560  124.7020   61.7960 C   0  0  0  0  0  0  0  0  0  0  0  0
  131.6190  125.8170   62.0990 N   0  0  0  0  0  0  0  0  0  0  0  0
  1  2  1  0
  2  3  2  0
  3  4  1  0
  4  5  1  0
  5  6  2  0
  6  7  1  0
  7  8  2  0
  8  9  1  0
  9 10  2  0
  4 11  2  0
 11 12  1  0
 12 13  1  0
 13 14  1  0
 14 15  1  0
 15 16  2  0
 15 17  1  0
 17 18  1  0
 18 19  2  0
 19 20  1  0
 20 21  2  0
 21 22  1  0
 22 23  2  0
 12 24  2  0
 24 25  1  0
 25 26  3  0
 24  2  1  0
 10  5  1  0
 23 18  1  0
M  END
>  <Binding energies>  (18) 
[-8.96]

>  <Ligand effiencies>  (18) 
[-0.3318518518518519]

>  <Interactions>  (18) 
["V-B:PRO:540:CD:9859, V-B:LEU:363:CD1:8161, V-B:ILE:538:CD1:9837, V-B:PRO:540:CB:9857, V-B:TYR:539:C:9839, V-B:PRO:540:CA:9855, V-B:PRO:540:N:9856, V-B:GLU:543:CD:9880, V-A:ILE:369:CD1:3239, V-B:TYR:539:CE2:9848, V-B:ILE:538:CG2:9835, H-B:ALA:541:N:9863, V-A:SER:385:CB:3409, V-A:HIS:383:CE1:3394, V-A:PRO:482:CG:4327, V-A:PRO:482:CB:4326, V-B:TYR:539:CB:9843, V-A:LEU:475:CD2:4259, H-A:TYR:484:OH:4348, V-B:TYR:539:CA:9841, V-B:TYR:539:CD2:9846, V-A:LEU:475:CD1:4258, V-A:LEU:475:CG:4257, V-A:LEU:373:CD1:3280, V-A:ILE:369:CG2:3237, H-A:ARG:545:NH2:4928, V-A:ILE:369:CB:3236, V-B:TYR:531:CE2:9765, V-B:TYR:539:CG:9844, V-B:ILE:538:CA:9832"]

$$$$
3be_Grossjean_2025
     RDKit          3D

 27 29  0  0  0  0  0  0  0  0999 V2000
  131.3890  117.1110   60.2300 C   0  0  0  0  0  0  0  0  0  0  0  0
  131.3840  118.6260   60.2830 C   0  0  0  0  0  0  0  0  0  0  0  0
  132.5180  119.3730   59.9550 C   0  0  0  0  0  0  0  0  0  0  0  0
  132.4420  120.7640   60.0290 C   0  0  0  0  0  0  0  0  0  0  0  0
  131.2460  121.3690   60.4240 C   0  0  0  0  0  0  0  0  0  0  0  0
  130.1460  120.5620   60.7360 C   0  0  0  0  0  0  0  0  0  0  0  0
  128.9750  121.2310   61.1370 N   0  0  0  0  0  0  0  0  0  0  0  0
  128.7130  121.8480   62.3100 C   0  0  0  0  0  0  0  0  0  0  0  0
  129.5000  121.9160   63.2560 O   0  0  0  0  0  0  0  0  0  0  0  0
  127.3200  122.4890   62.4010 C   0  0  0  0  0  0  0  0  0  0  0  0
  126.6730  123.1680   60.8350 S   0  0  0  0  0  0  0  0  0  0  0  0
  128.0540  123.7300   59.8640 C   0  0  0  0  0  0  0  0  0  0  0  0
  129.1830  123.9290   60.5890 N   0  0  0  0  0  0  0  0  0  0  0  0
  130.3170  124.3560   59.9730 C   0  0  0  0  0  0  0  0  0  0  0  0
  131.5170  124.5660   60.8490 C   0  0  0  0  0  0  0  0  0  0  0  0
  132.8020  124.2180   60.4010 C   0  0  0  0  0  0  0  0  0  0  0  0
  133.9190  124.4080   61.2090 C   0  0  0  0  0  0  0  0  0  0  0  0
  133.7660  124.9490   62.4810 C   0  0  0  0  0  0  0  0  0  0  0  0
  132.5050  125.2990   62.9500 C   0  0  0  0  0  0  0  0  0  0  0  0
  131.3900  125.1070   62.1390 C   0  0  0  0  0  0  0  0  0  0  0  0
  130.3380  124.5960   58.5950 C   0  0  0  0  0  0  0  0  0  0  0  0
  129.1900  124.3720   57.8290 C   0  0  0  0  0  0  0  0  0  0  0  0
  129.2650  124.6320   56.3250 C   0  0  0  0  0  0  0  0  0  0  0  0
  128.0140  123.9160   58.4640 C   0  0  0  0  0  0  0  0  0  0  0  0
  126.8170  123.6230   57.6730 C   0  0  0  0  0  0  0  0  0  0  0  0
  125.8720  123.3920   57.0460 N   0  0  0  0  0  0  0  0  0  0  0  0
  130.2160  119.2000   60.6680 N   0  0  0  0  0  0  0  0  0  0  0  0
  1  2  1  0
  2  3  2  0
  3  4  1  0
  4  5  2  0
  5  6  1  0
  6  7  1  0
  7  8  1  0
  8  9  2  0
  8 10  1  0
 10 11  1  0
 11 12  1  0
 12 13  2  0
 13 14  1  0
 14 15  1  0
 15 16  2  0
 16 17  1  0
 17 18  2  0
 18 19  1  0
 19 20  2  0
 14 21  2  0
 21 22  1  0
 22 23  1  0
 22 24  2  0
 24 25  1  0
 25 26  3  0
  6 27  2  0
 27  2  1  0
 24 12  1  0
 20 15  1  0
M  END
>  <Binding energies>  (19) 
[-7.39]

>  <Ligand effiencies>  (19) 
[-0.2639285714285714]

>  <Interactions>  (19) 
["V-A:ARG:545:CZ:4926, V-B:TYR:539:C:9839, V-B:PRO:540:CA:9855, V-B:GLU:543:CD:9880, V-A:ILE:369:CD1:3239, V-B:TYR:539:CE2:9848, V-B:PRO:540:C:9853, H-B:ALA:541:N:9863, H-B:TYR:539:O:9840, V-A:SER:385:CB:3409, V-A:LEU:475:CD2:4259, H-A:TYR:484:OH:4348, V-B:ALA:541:CA:9862, V-B:TYR:539:CD2:9846, V-B:ALA:541:CB:9864, V-A:ILE:369:CG2:3237, V-A:ASP:366:CG:3213, V-A:GLY:453:CA:4044, V-B:GLU:543:CG:9879, V-A:TYR:484:CE1:4345, H-B:TYR:531:OH:9767, V-B:TYR:539:CZ:9849, V-B:TYR:539:CE1:9847, V-B:MET:535:CE:9807, V-A:SER:385:CA:3407"]

$$$$
3bf_Grossjean_2025
     RDKit          3D

 26 28  0  0  0  0  0  0  0  0999 V2000
  133.9210  123.9110   59.6300 C   0  0  0  0  0  0  0  0  0  0  0  0
  132.6940  123.2520   60.2560 C   0  0  0  0  0  0  0  0  0  0  0  0
  132.5090  121.8800   60.0570 C   0  0  0  0  0  0  0  0  0  0  0  0
  131.4050  121.2340   60.6250 C   0  0  0  0  0  0  0  0  0  0  0  0
  131.1620  119.7630   60.4680 C   0  0  0  0  0  0  0  0  0  0  0  0
  130.1160  119.1320   61.1600 C   0  0  0  0  0  0  0  0  0  0  0  0
  129.8830  117.7670   61.0190 C   0  0  0  0  0  0  0  0  0  0  0  0
  130.6980  117.0110   60.1820 C   0  0  0  0  0  0  0  0  0  0  0  0
  131.7420  117.6120   59.4870 C   0  0  0  0  0  0  0  0  0  0  0  0
  131.9720  118.9770   59.6310 C   0  0  0  0  0  0  0  0  0  0  0  0
  130.5030  121.9230   61.3730 N   0  0  0  0  0  0  0  0  0  0  0  0
  130.6550  123.2580   61.5540 C   0  0  0  0  0  0  0  0  0  0  0  0
  129.3780  123.9920   62.5540 S   0  0  0  0  0  0  0  0  0  0  0  0
  127.9850  122.8160   62.6440 C   0  0  0  0  0  0  0  0  0  0  0  0
  127.0520  122.8160   61.4240 C   0  0  0  0  0  0  0  0  0  0  0  0
  125.8280  122.7980   61.5690 O   0  0  0  0  0  0  0  0  0  0  0  0
  127.6840  122.8660   60.2320 N   0  0  0  0  0  0  0  0  0  0  0  0
  127.1300  122.8680   58.9380 C   0  0  0  0  0  0  0  0  0  0  0  0
  125.8780  123.4710   58.7800 C   0  0  0  0  0  0  0  0  0  0  0  0
  125.2810  123.5170   57.5190 C   0  0  0  0  0  0  0  0  0  0  0  0
  125.9640  122.9580   56.4380 C   0  0  0  0  0  0  0  0  0  0  0  0
  127.1840  122.3770   56.5590 N   0  0  0  0  0  0  0  0  0  0  0  0
  127.7510  122.3390   57.7930 C   0  0  0  0  0  0  0  0  0  0  0  0
  131.7540  123.9710   61.0270 C   0  0  0  0  0  0  0  0  0  0  0  0
  131.9560  125.3980   61.2890 C   0  0  0  0  0  0  0  0  0  0  0  0
  132.1160  126.5260   61.4950 N   0  0  0  0  0  0  0  0  0  0  0  0
  1  2  1  0
  2  3  2  0
  3  4  1  0
  4  5  1  0
  5  6  2  0
  6  7  1  0
  7  8  2  0
  8  9  1  0
  9 10  2  0
  4 11  2  0
 11 12  1  0
 12 13  1  0
 13 14  1  0
 14 15  1  0
 15 16  2  0
 15 17  1  0
 17 18  1  0
 18 19  2  0
 19 20  1  0
 20 21  2  0
 21 22  1  0
 22 23  2  0
 12 24  2  0
 24 25  1  0
 25 26  3  0
 24  2  1  0
 10  5  1  0
 23 18  1  0
M  END
>  <Binding energies>  (20) 
[-8.76]

>  <Ligand effiencies>  (20) 
[-0.3244444444444444]

>  <Interactions>  (20) 
["V-B:PRO:540:CB:9857, V-B:TYR:539:C:9839, V-B:PRO:540:CA:9855, V-B:PRO:540:N:9856, V-B:GLU:543:CD:9880, V-A:ILE:369:CD1:3239, V-B:TYR:539:CE2:9848, V-B:PRO:540:C:9853, H-B:ALA:541:N:9863, H-B:TYR:539:O:9840, V-A:SER:385:CB:3409, V-A:PRO:482:CG:4327, V-A:PRO:482:CB:4326, V-B:TYR:539:CB:9843, V-A:LEU:475:CD2:4259, H-A:TYR:484:OH:4348, V-B:TYR:539:CA:9841, V-B:TYR:539:CD2:9846, V-A:LEU:475:CD1:4258, V-B:ALA:541:CB:9864, V-A:ILE:369:CG2:3237, H-A:ARG:545:NH2:4928, V-A:ASP:366:CG:3213, V-A:ILE:369:CB:3236, V-A:ASP:366:CA:3210, V-B:GLU:543:CG:9879, V-B:TYR:539:CG:9844, V-B:TYR:539:CZ:9849, V-B:TYR:539:CD1:9845, H-B:TYR:539:N:9842"]

$$$$
3bg_Grossjean_2025
     RDKit          3D

 27 29  0  0  0  0  0  0  0  0999 V2000
  127.8230  122.6250   62.5470 C   0  0  0  0  0  0  0  0  0  0  0  0
  129.1690  122.2180   61.9510 C   0  0  0  0  0  0  0  0  0  0  0  0
  129.3350  120.8940   61.5350 C   0  0  0  0  0  0  0  0  0  0  0  0
  130.5510  120.4800   60.9760 C   0  0  0  0  0  0  0  0  0  0  0  0
  130.7910  119.0740   60.4980 C   0  0  0  0  0  0  0  0  0  0  0  0
  130.0440  117.9990   61.0080 C   0  0  0  0  0  0  0  0  0  0  0  0
  130.2500  116.6990   60.5550 C   0  0  0  0  0  0  0  0  0  0  0  0
  131.2130  116.4510   59.5830 C   0  0  0  0  0  0  0  0  0  0  0  0
  131.9750  117.4930   59.0690 C   0  0  0  0  0  0  0  0  0  0  0  0
  131.7670  118.7910   59.5260 C   0  0  0  0  0  0  0  0  0  0  0  0
  131.5730  121.3620   60.8150 N   0  0  0  0  0  0  0  0  0  0  0  0
  131.4280  122.6530   61.2110 C   0  0  0  0  0  0  0  0  0  0  0  0
  132.8320  123.7160   60.9130 S   0  0  0  0  0  0  0  0  0  0  0  0
  132.8540  124.1500   59.1420 C   0  0  0  0  0  0  0  0  0  0  0  0
  131.6920  125.0740   58.7670 C   0  0  0  0  0  0  0  0  0  0  0  0
  131.4260  126.0440   59.4770 O   0  0  0  0  0  0  0  0  0  0  0  0
  130.9980  124.7450   57.6640 N   0  0  0  0  0  0  0  0  0  0  0  0
  129.7520  125.3730   57.2260 C   0  0  0  0  0  0  0  0  0  0  0  0
  128.5660  124.4240   57.3490 C   0  0  0  0  0  0  0  0  0  0  0  0
  128.1670  123.6550   56.2500 C   0  0  0  0  0  0  0  0  0  0  0  0
  127.0780  122.7960   56.3600 C   0  0  0  0  0  0  0  0  0  0  0  0
  126.3970  122.6970   57.5720 C   0  0  0  0  0  0  0  0  0  0  0  0
  126.8000  123.4430   58.6760 C   0  0  0  0  0  0  0  0  0  0  0  0
  127.8900  124.3040   58.5660 C   0  0  0  0  0  0  0  0  0  0  0  0
  130.2360  123.1280   61.7970 C   0  0  0  0  0  0  0  0  0  0  0  0
  130.0910  124.5250   62.2160 C   0  0  0  0  0  0  0  0  0  0  0  0
  129.9740  125.6270   62.5470 N   0  0  0  0  0  0  0  0  0  0  0  0
  1  2  1  0
  2  3  2  0
  3  4  1  0
  4  5  1  0
  5  6  2  0
  6  7  1  0
  7  8  2  0
  8  9  1  0
  9 10  2  0
  4 11  2  0
 11 12  1  0
 12 13  1  0
 13 14  1  0
 14 15  1  0
 15 16  2  0
 15 17  1  0
 17 18  1  0
 18 19  1  0
 19 20  2  0
 20 21  1  0
 21 22  2  0
 22 23  1  0
 23 24  2  0
 12 25  2  0
 25 26  1  0
 26 27  3  0
 25  2  1  0
 10  5  1  0
 24 19  1  0
M  END
>  <Binding energies>  (21) 
[-8.02]

>  <Ligand effiencies>  (21) 
[-0.2864285714285714]

>  <Interactions>  (21) 
["V-B:PRO:540:CD:9859, V-B:PRO:540:CB:9857, V-B:TYR:539:C:9839, V-B:PRO:540:CA:9855, V-B:PRO:540:N:9856, V-B:GLU:543:CD:9880, V-B:TYR:539:CE2:9848, V-A:SER:385:CB:3409, V-A:HIS:383:CE1:3394, V-A:PRO:482:CG:4327, V-A:PRO:482:CB:4326, V-B:TYR:539:CB:9843, V-A:LEU:475:CD2:4259, V-B:ALA:541:CA:9862, V-B:TYR:539:CD2:9846, V-A:LEU:475:CD1:4258, V-B:ALA:541:CB:9864, V-A:LEU:373:CD1:3280, V-A:ILE:369:CG2:3237, V-B:GLU:543:CG:9879, V-B:TYR:539:CG:9844, V-B:TYR:539:CZ:9849, V-B:TYR:539:CE1:9847, V-B:TYR:539:CD1:9845, V-B:MET:535:CE:9807, H-B:TYR:539:OH:9850"]

$$$$
3ca_Grossjean_2025
     RDKit          3D

 31 33  0  0  0  0  0  0  0  0999 V2000
  130.8200  123.9880   74.7030 C   0  0  0  0  0  0  0  0  0  0  0  0
  130.8660  125.4950   74.4390 C   0  0  0  0  0  0  0  0  0  0  0  0
  129.8560  125.8430   73.5000 O   0  0  0  0  0  0  0  0  0  0  0  0
  129.6350  127.1370   73.1550 C   0  0  0  0  0  0  0  0  0  0  0  0
  129.5850  128.0610   73.9730 O   0  0  0  0  0  0  0  0  0  0  0  0
  129.4640  127.3360   71.6760 C   0  0  0  0  0  0  0  0  0  0  0  0
  128.3940  126.7120   71.0210 C   0  0  0  0  0  0  0  0  0  0  0  0
  128.2090  126.8770   69.6510 C   0  0  0  0  0  0  0  0  0  0  0  0
  129.0920  127.6610   68.9070 C   0  0  0  0  0  0  0  0  0  0  0  0
  128.8120  127.7620   67.5310 N   0  0  0  0  0  0  0  0  0  0  0  0
  128.4010  128.8280   66.8110 C   0  0  0  0  0  0  0  0  0  0  0  0
  128.2100  129.9590   67.2580 O   0  0  0  0  0  0  0  0  0  0  0  0
  128.1900  128.5660   65.3160 C   0  0  0  0  0  0  0  0  0  0  0  0
  126.4310  128.4780   64.8440 S   0  0  0  0  0  0  0  0  0  0  0  0
  126.2850  128.3260   63.0690 C   0  0  0  0  0  0  0  0  0  0  0  0
  126.8840  127.2380   62.5210 N   0  0  0  0  0  0  0  0  0  0  0  0
  126.7980  127.0480   61.1870 C   0  0  0  0  0  0  0  0  0  0  0  0
  127.4760  125.8020   60.6540 C   0  0  0  0  0  0  0  0  0  0  0  0
  126.1290  127.9340   60.3450 C   0  0  0  0  0  0  0  0  0  0  0  0
  125.5180  129.0730   60.8840 C   0  0  0  0  0  0  0  0  0  0  0  0
  124.8240  130.0020   59.9410 C   0  0  0  0  0  0  0  0  0  0  0  0
  124.5140  129.5830   58.6420 C   0  0  0  0  0  0  0  0  0  0  0  0
  123.8760  130.4440   57.7540 C   0  0  0  0  0  0  0  0  0  0  0  0
  123.5480  131.7350   58.1620 C   0  0  0  0  0  0  0  0  0  0  0  0
  123.8560  132.1710   59.4480 C   0  0  0  0  0  0  0  0  0  0  0  0
  124.4950  131.3060   60.3330 C   0  0  0  0  0  0  0  0  0  0  0  0
  125.5870  129.2760   62.2860 C   0  0  0  0  0  0  0  0  0  0  0  0
  124.9230  130.4230   62.9130 C   0  0  0  0  0  0  0  0  0  0  0  0
  124.3980  131.3300   63.4070 N   0  0  0  0  0  0  0  0  0  0  0  0
  130.1610  128.2960   69.5560 C   0  0  0  0  0  0  0  0  0  0  0  0
  130.3440  128.1320   70.9270 C   0  0  0  0  0  0  0  0  0  0  0  0
  1  2  1  0
  2  3  1  0
  3  4  1  0
  4  5  2  0
  4  6  1  0
  6  7  2  0
  7  8  1  0
  8  9  2  0
  9 10  1  0
 10 11  1  0
 11 12  2  0
 11 13  1  0
 13 14  1  0
 14 15  1  0
 15 16  2  0
 16 17  1  0
 17 18  1  0
 17 19  2  0
 19 20  1  0
 20 21  1  0
 21 22  2  0
 22 23  1  0
 23 24  2  0
 24 25  1  0
 25 26  2  0
 20 27  2  0
 27 28  1  0
 28 29  3  0
  9 30  1  0
 30 31  2  0
 31  6  1  0
 27 15  1  0
 26 21  1  0
M  END
>  <Binding energies>  (22) 
[-7.88]

>  <Ligand effiencies>  (22) 
[-0.24625]

>  <Interactions>  (22) 
["V-B:GLU:543:CD:9880, V-A:HIS:456:CE1:4070, V-B:ASP:366:CG:8185, V-A:GLU:543:C:4902, V-B:HIS:456:CE1:9042, V-A:GLY:544:CA:4914, V-B:ARG:545:CZ:9898, V-A:GLU:543:CB:4906, H-B:TYR:484:OH:9320, V-A:GLU:543:CD:4908, V-A:GLY:544:C:4912, V-B:ILE:369:CD1:8211, V-A:GLU:543:CG:4907, H-B:GLY:454:N:9022, V-A:HIS:456:CD2:4068, H-A:GLU:543:OE2:4910, H-B:GLU:543:OE2:9882, V-B:ASP:366:CB:8184, H-B:ARG:545:NH2:9900, V-A:TYR:539:CE1:4875, V-A:TYR:539:CZ:4877, V-B:ILE:369:CB:8208, V-B:ASP:366:C:8180, V-B:ASP:366:CA:8182, V-B:ILE:369:CG2:8209, V-B:HIS:456:CD2:9040, H-B:LYS:547:NZ:9923, H-A:LYS:547:NZ:4951, V-B:LYS:547:CE:9922, V-A:HIS:456:CB:4065"]

$$$$
3ce_Grossjean_2025
     RDKit          3D

 27 29  0  0  0  0  0  0  0  0999 V2000
  128.4320  132.2740   57.0440 C   0  0  0  0  0  0  0  0  0  0  0  0
  129.8530  131.7460   57.0080 C   0  0  0  0  0  0  0  0  0  0  0  0
  130.8480  132.3750   56.2540 C   0  0  0  0  0  0  0  0  0  0  0  0
  132.1350  131.8400   56.2770 C   0  0  0  0  0  0  0  0  0  0  0  0
  132.3970  130.7020   57.0440 C   0  0  0  0  0  0  0  0  0  0  0  0
  131.3530  130.1170   57.7690 C   0  0  0  0  0  0  0  0  0  0  0  0
  131.6790  128.9870   58.5380 N   0  0  0  0  0  0  0  0  0  0  0  0
  130.8750  127.9620   58.8990 C   0  0  0  0  0  0  0  0  0  0  0  0
  129.6870  127.8530   58.5920 O   0  0  0  0  0  0  0  0  0  0  0  0
  131.5310  126.8710   59.7450 C   0  0  0  0  0  0  0  0  0  0  0  0
  131.9110  125.3880   58.7650 S   0  0  0  0  0  0  0  0  0  0  0  0
  130.5760  124.2540   59.0680 C   0  0  0  0  0  0  0  0  0  0  0  0
  130.8450  123.3300   60.0230 N   0  0  0  0  0  0  0  0  0  0  0  0
  129.8850  122.4300   60.3390 C   0  0  0  0  0  0  0  0  0  0  0  0
  130.2470  121.4330   61.4240 C   0  0  0  0  0  0  0  0  0  0  0  0
  128.6410  122.4090   59.7140 C   0  0  0  0  0  0  0  0  0  0  0  0
  128.3540  123.3400   58.7070 C   0  0  0  0  0  0  0  0  0  0  0  0
  127.0160  123.2620   58.0480 C   0  0  0  0  0  0  0  0  0  0  0  0
  126.7980  122.3540   57.0040 C   0  0  0  0  0  0  0  0  0  0  0  0
  125.5550  122.2800   56.3810 C   0  0  0  0  0  0  0  0  0  0  0  0
  124.5250  123.1190   56.7950 C   0  0  0  0  0  0  0  0  0  0  0  0
  124.7280  124.0340   57.8250 C   0  0  0  0  0  0  0  0  0  0  0  0
  125.9710  124.1060   58.4470 C   0  0  0  0  0  0  0  0  0  0  0  0
  129.3450  124.2970   58.3720 C   0  0  0  0  0  0  0  0  0  0  0  0
  129.0970  125.3050   57.3370 C   0  0  0  0  0  0  0  0  0  0  0  0
  128.9000  126.1010   56.5200 N   0  0  0  0  0  0  0  0  0  0  0  0
  130.0910  130.6390   57.7570 N   0  0  0  0  0  0  0  0  0  0  0  0
  1  2  1  0
  2  3  2  0
  3  4  1  0
  4  5  2  0
  5  6  1  0
  6  7  1  0
  7  8  1  0
  8  9  2  0
  8 10  1  0
 10 11  1  0
 11 12  1  0
 12 13  2  0
 13 14  1  0
 14 15  1  0
 14 16  2  0
 16 17  1  0
 17 18  1  0
 18 19  2  0
 19 20  1  0
 20 21  2  0
 21 22  1  0
 22 23  2  0
 17 24  2  0
 24 25  1  0
 25 26  3  0
  6 27  2  0
 27  2  1  0
 24 12  1  0
 23 18  1  0
M  END
>  <Binding energies>  (23) 
[-7.53]

>  <Ligand effiencies>  (23) 
[-0.26892857142857146]

>  <Interactions>  (23) 
["V-B:PRO:540:CD:9859, V-B:LEU:363:CD1:8161, V-B:ILE:538:CD1:9837, V-B:PRO:540:CB:9857, V-B:TYR:539:C:9839, V-B:PRO:540:CA:9855, V-B:PRO:540:N:9856, V-B:TYR:539:CE2:9848, V-B:ILE:538:CG2:9835, V-A:LEU:475:CD2:4259, V-B:TYR:539:CA:9841, V-B:TYR:539:CD2:9846, V-A:ASP:366:CG:3213, V-A:ASP:366:CB:3212, H-A:ASP:366:OD2:3215, H-A:ASP:366:OD1:3214, V-B:TYR:531:CE2:9765, V-B:TYR:531:CZ:9766, V-B:TYR:539:CG:9844, V-B:TYR:539:CZ:9849, V-B:MET:535:CE:9807, V-A:PRO:540:CA:4883, V-A:PRO:540:CB:4885, V-A:PRO:540:N:4884, V-B:ILE:538:CA:9832, V-A:LEU:363:CD1:3189, V-A:TYR:539:CD1:4873, V-A:TYR:539:C:4867, V-A:TYR:539:CE1:4875, V-A:TYR:539:CZ:4877, V-A:TYR:539:CG:4872, V-A:PRO:540:CD:4887"]

$$$$
3cj_Grossjean_2025
     RDKit          3D

 25 27  0  0  0  0  0  0  0  0999 V2000
  130.0130  120.8140   62.0850 C   0  0  0  0  0  0  0  0  0  0  0  0
  129.4190  122.0930   61.5280 C   0  0  0  0  0  0  0  0  0  0  0  0
  128.6540  122.0950   60.3630 C   0  0  0  0  0  0  0  0  0  0  0  0
  128.1040  123.2970   59.8970 C   0  0  0  0  0  0  0  0  0  0  0  0
  127.2390  123.2410   58.6830 C   0  0  0  0  0  0  0  0  0  0  0  0
  127.8060  123.0820   57.4130 C   0  0  0  0  0  0  0  0  0  0  0  0
  126.9980  123.0430   56.2790 C   0  0  0  0  0  0  0  0  0  0  0  0
  125.6180  123.1690   56.4120 C   0  0  0  0  0  0  0  0  0  0  0  0
  125.0410  123.3380   57.6680 C   0  0  0  0  0  0  0  0  0  0  0  0
  125.8500  123.3760   58.8000 C   0  0  0  0  0  0  0  0  0  0  0  0
  128.3770  124.4870   60.6170 C   0  0  0  0  0  0  0  0  0  0  0  0
  127.8550  125.7800   60.1640 C   0  0  0  0  0  0  0  0  0  0  0  0
  127.4410  126.8000   59.8060 N   0  0  0  0  0  0  0  0  0  0  0  0
  129.1590  124.3910   61.7900 C   0  0  0  0  0  0  0  0  0  0  0  0
  129.4630  125.7830   62.8580 S   0  0  0  0  0  0  0  0  0  0  0  0
  131.1030  125.4640   63.5840 C   0  0  0  0  0  0  0  0  0  0  0  0
  132.1440  125.1220   62.5130 C   0  0  0  0  0  0  0  0  0  0  0  0
  133.2160  124.6140   62.8490 O   0  0  0  0  0  0  0  0  0  0  0  0
  131.7720  125.3810   61.2410 N   0  0  0  0  0  0  0  0  0  0  0  0
  132.4680  125.0440   60.0910 C   0  0  0  0  0  0  0  0  0  0  0  0
  133.6260  124.4280   59.9990 N   0  0  0  0  0  0  0  0  0  0  0  0
  133.9760  124.2430   58.7410 C   0  0  0  0  0  0  0  0  0  0  0  0
  133.0900  124.7170   57.7780 C   0  0  0  0  0  0  0  0  0  0  0  0
  131.7260  125.4450   58.5750 S   0  0  0  0  0  0  0  0  0  0  0  0
  129.6610  123.2150   62.2420 N   0  0  0  0  0  0  0  0  0  0  0  0
  1  2  1  0
  2  3  2  0
  3  4  1  0
  4  5  1  0
  5  6  2  0
  6  7  1  0
  7  8  2  0
  8  9  1  0
  9 10  2  0
  4 11  2  0
 11 12  1  0
 12 13  3  0
 11 14  1  0
 14 15  1  0
 15 16  1  0
 16 17  1  0
 17 18  2  0
 17 19  1  0
 19 20  1  0
 20 21  2  0
 21 22  1  0
 22 23  2  0
 23 24  1  0
 14 25  2  0
 25  2  1  0
 10  5  1  0
 24 20  1  0
M  END
>  <Binding energies>  (24) 
[-7.07]

>  <Ligand effiencies>  (24) 
[-0.27192307692307693]

>  <Interactions>  (24) 
["V-B:PRO:540:CB:9857, V-B:TYR:539:C:9839, V-B:PRO:540:CA:9855, V-B:PRO:540:N:9856, V-B:GLU:543:CD:9880, V-A:ILE:369:CD1:3239, V-A:TYR:484:CZ:4347, V-B:TYR:539:CE2:9848, V-A:LEU:475:CD2:4259, H-A:TYR:484:OH:4348, V-B:TYR:539:CD2:9846, V-B:ALA:541:CB:9864, V-A:GLU:543:CD:4908, H-A:GLY:454:N:4050, V-A:ILE:369:CG2:3237, H-A:ARG:545:NH2:4928, V-A:ASP:366:CG:3213, V-A:ASP:366:CB:3212, V-A:ILE:369:CB:3236, V-A:ASP:366:C:3208, V-A:ASP:366:CA:3210, V-B:TYR:531:CE2:9765, V-B:TYR:531:CZ:9766, V-B:TYR:539:CG:9844, V-A:TYR:484:CE1:4345, V-B:TYR:539:CZ:9849, V-B:MET:535:CE:9807"]

$$$$
4ba_Grossjean_2025
     RDKit          3D

 28 30  0  0  0  0  0  0  0  0999 V2000
  131.1590  127.5850   73.0550 C   0  0  0  0  0  0  0  0  0  0  0  0
  130.6380  127.8050   71.6220 C   0  0  0  0  0  0  0  0  0  0  0  0
  129.3830  126.9890   71.2500 C   0  0  0  0  0  0  0  0  0  0  0  0
  128.9410  126.1580   72.0460 O   0  0  0  0  0  0  0  0  0  0  0  0
  128.7470  127.2560   69.9160 C   0  0  0  0  0  0  0  0  0  0  0  0
  129.3060  128.2200   69.0680 C   0  0  0  0  0  0  0  0  0  0  0  0
  128.7370  128.4880   67.8270 C   0  0  0  0  0  0  0  0  0  0  0  0
  127.6000  127.7970   67.4060 C   0  0  0  0  0  0  0  0  0  0  0  0
  127.1020  128.1530   66.1380 N   0  0  0  0  0  0  0  0  0  0  0  0
  125.9170  128.7130   65.7920 C   0  0  0  0  0  0  0  0  0  0  0  0
  125.0160  128.9750   66.5910 O   0  0  0  0  0  0  0  0  0  0  0  0
  125.7450  128.9790   64.3620 C   0  0  0  0  0  0  0  0  0  0  0  0
  124.6340  130.2360   63.8220 S   0  0  0  0  0  0  0  0  0  0  0  0
  124.9690  129.8760   62.1450 C   0  0  0  0  0  0  0  0  0  0  0  0
  124.3770  130.5490   61.1590 N   0  0  0  0  0  0  0  0  0  0  0  0
  124.7140  130.1800   59.9020 C   0  0  0  0  0  0  0  0  0  0  0  0
  124.0210  130.9530   58.7940 C   0  0  0  0  0  0  0  0  0  0  0  0
  125.6240  129.1670   59.6100 C   0  0  0  0  0  0  0  0  0  0  0  0
  126.2510  128.4550   60.6450 C   0  0  0  0  0  0  0  0  0  0  0  0
  127.2470  127.3510   60.2750 C   0  0  0  0  0  0  0  0  0  0  0  0
  128.4770  127.5800   60.7380 F   0  0  0  0  0  0  0  0  0  0  0  0
  126.8410  126.1860   60.7810 F   0  0  0  0  0  0  0  0  0  0  0  0
  127.3330  127.2480   58.9480 F   0  0  0  0  0  0  0  0  0  0  0  0
  125.9120  128.8160   61.9830 C   0  0  0  0  0  0  0  0  0  0  0  0
  126.3310  128.3170   63.2710 C   0  0  0  0  0  0  0  0  0  0  0  0
  127.2250  127.2860   63.4100 N   0  0  0  0  0  0  0  0  0  0  0  0
  127.0300  126.8340   68.2520 C   0  0  0  0  0  0  0  0  0  0  0  0
  127.6010  126.5670   69.4930 C   0  0  0  0  0  0  0  0  0  0  0  0
  1  2  1  0
  2  3  1  0
  3  4  2  0
  3  5  1  0
  5  6  2  0
  6  7  1  0
  7  8  2  0
  8  9  1  0
  9 10  1  0
 10 11  2  0
 10 12  1  0
 12 13  1  0
 13 14  1  0
 14 15  2  0
 15 16  1  0
 16 17  1  0
 16 18  2  0
 18 19  1  0
 19 20  1  0
 20 21  1  0
 20 22  1  0
 20 23  1  0
 19 24  2  0
 24 25  1  0
 25 26  1  0
  8 27  1  0
 27 28  2  0
 28  5  1  0
 25 12  2  0
 24 14  1  0
M  END
>  <Binding energies>  (25) 
[-5.86]

>  <Ligand effiencies>  (25) 
[-0.18903225806451615]

>  <Interactions>  (25) 
["V-B:GLU:543:CD:9880, V-A:HIS:456:CE1:4070, V-B:ASP:366:CG:8185, V-B:HIS:456:CE1:9042, V-B:ARG:545:CZ:9898, V-A:GLU:543:CB:4906, H-B:TYR:484:OH:9320, V-A:GLY:544:C:4912, H-B:ARG:545:NE:9896, V-A:HIS:456:CG:4066, V-A:HIS:456:CD2:4068, H-B:GLU:543:OE2:9882, H-B:GLU:543:OE1:9881, V-B:ASP:366:CB:8184, V-B:ARG:545:CG:9894, V-A:TYR:539:CE1:4875, V-B:ASP:366:CA:8182, V-B:GLU:543:CB:9878, V-B:GLU:543:C:9874, V-B:HIS:456:CD2:9040, H-B:LYS:547:NZ:9923, H-B:HIS:456:ND1:9039"]

$$$$
4bb_Grossjean_2025
     RDKit          3D

 27 29  0  0  0  0  0  0  0  0999 V2000
  129.7880  127.3300   71.8340 C   0  0  0  0  0  0  0  0  0  0  0  0
  128.7470  126.5180   71.0620 C   0  0  0  0  0  0  0  0  0  0  0  0
  128.3000  125.4970   71.5880 O   0  0  0  0  0  0  0  0  0  0  0  0
  128.3340  127.0000   69.7030 C   0  0  0  0  0  0  0  0  0  0  0  0
  127.1390  126.5320   69.1420 C   0  0  0  0  0  0  0  0  0  0  0  0
  126.7330  126.9630   67.8820 C   0  0  0  0  0  0  0  0  0  0  0  0
  127.5080  127.8760   67.1640 C   0  0  0  0  0  0  0  0  0  0  0  0
  127.0050  128.2420   65.8990 N   0  0  0  0  0  0  0  0  0  0  0  0
  125.8090  128.7810   65.5600 C   0  0  0  0  0  0  0  0  0  0  0  0
  124.9060  129.0210   66.3620 O   0  0  0  0  0  0  0  0  0  0  0  0
  125.6250  129.0440   64.1300 C   0  0  0  0  0  0  0  0  0  0  0  0
  124.6120  130.3830   63.5970 S   0  0  0  0  0  0  0  0  0  0  0  0
  124.8830  129.9820   61.9170 C   0  0  0  0  0  0  0  0  0  0  0  0
  124.3370  130.6960   60.9350 N   0  0  0  0  0  0  0  0  0  0  0  0
  124.6180  130.2880   59.6760 C   0  0  0  0  0  0  0  0  0  0  0  0
  123.9870  131.1160   58.5720 C   0  0  0  0  0  0  0  0  0  0  0  0
  125.4260  129.1930   59.3800 C   0  0  0  0  0  0  0  0  0  0  0  0
  126.0040  128.4370   60.4100 C   0  0  0  0  0  0  0  0  0  0  0  0
  126.8860  127.2410   60.0350 C   0  0  0  0  0  0  0  0  0  0  0  0
  126.5070  126.1070   60.6290 F   0  0  0  0  0  0  0  0  0  0  0  0
  126.8340  127.0390   58.7180 F   0  0  0  0  0  0  0  0  0  0  0  0
  128.1470  127.4780   60.3940 F   0  0  0  0  0  0  0  0  0  0  0  0
  125.7270  128.8410   61.7510 C   0  0  0  0  0  0  0  0  0  0  0  0
  126.1310  128.3240   63.0350 C   0  0  0  0  0  0  0  0  0  0  0  0
  126.9450  127.2280   63.1690 N   0  0  0  0  0  0  0  0  0  0  0  0
  128.7100  128.3430   67.7170 C   0  0  0  0  0  0  0  0  0  0  0  0
  129.1150  127.9090   68.9760 C   0  0  0  0  0  0  0  0  0  0  0  0
  1  2  1  0
  2  3  2  0
  2  4  1  0
  4  5  2  0
  5  6  1  0
  6  7  2  0
  7  8  1  0
  8  9  1  0
  9 10  2  0
  9 11  1  0
 11 12  1  0
 12 13  1  0
 13 14  2  0
 14 15  1  0
 15 16  1  0
 15 17  2  0
 17 18  1  0
 18 19  1  0
 19 20  1  0
 19 21  1  0
 19 22  1  0
 18 23  2  0
 23 24  1  0
 24 25  1  0
  7 26  1  0
 26 27  2  0
 27  4  1  0
 24 11  2  0
 23 13  1  0
M  END
>  <Binding energies>  (26) 
[-5.8]

>  <Ligand effiencies>  (26) 
[-0.19333333333333333]

>  <Interactions>  (26) 
["V-B:GLU:543:CD:9880, V-A:HIS:456:CE1:4070, V-B:ASP:366:CG:8185, V-B:HIS:456:CE1:9042, V-B:ARG:545:CZ:9898, V-A:GLU:543:CB:4906, H-B:TYR:484:OH:9320, H-B:ARG:545:NE:9896, V-A:HIS:456:CG:4066, V-A:HIS:456:CD2:4068, H-B:GLU:543:OE2:9882, H-B:GLU:543:OE1:9881, V-B:GLU:543:CG:9879, V-B:ASP:366:CB:8184, V-B:ARG:545:CG:9894, V-A:TYR:539:CE1:4875, V-B:ASP:366:CA:8182, V-B:ILE:369:CG2:8209, V-B:GLU:543:CB:9878, V-B:GLU:543:C:9874, V-B:HIS:456:CD2:9040, V-B:GLY:544:C:9884, H-B:LYS:547:NZ:9923"]

$$$$
4bd_Grossjean_2025
     RDKit          3D

 24 26  0  0  0  0  0  0  0  0999 V2000
  130.2550  119.8980   61.1450 C   0  0  0  0  0  0  0  0  0  0  0  0
  130.4250  121.3920   61.3590 C   0  0  0  0  0  0  0  0  0  0  0  0
  131.6900  121.9670   61.4330 C   0  0  0  0  0  0  0  0  0  0  0  0
  131.8330  123.3490   61.6330 C   0  0  0  0  0  0  0  0  0  0  0  0
  133.2470  123.9360   61.7120 C   0  0  0  0  0  0  0  0  0  0  0  0
  133.4480  124.6660   62.8110 F   0  0  0  0  0  0  0  0  0  0  0  0
  134.1450  122.9520   61.7160 F   0  0  0  0  0  0  0  0  0  0  0  0
  133.4650  124.7280   60.6630 F   0  0  0  0  0  0  0  0  0  0  0  0
  130.6380  124.1180   61.7530 C   0  0  0  0  0  0  0  0  0  0  0  0
  130.3910  125.5240   61.9580 C   0  0  0  0  0  0  0  0  0  0  0  0
  131.4020  126.4420   62.0780 N   0  0  0  0  0  0  0  0  0  0  0  0
  129.0300  125.8650   62.0250 C   0  0  0  0  0  0  0  0  0  0  0  0
  128.4280  127.1850   62.2400 C   0  0  0  0  0  0  0  0  0  0  0  0
  129.0930  128.2100   62.0870 O   0  0  0  0  0  0  0  0  0  0  0  0
  127.1190  127.1760   62.5960 N   0  0  0  0  0  0  0  0  0  0  0  0
  126.2710  128.2530   62.9110 C   0  0  0  0  0  0  0  0  0  0  0  0
  126.0190  128.4560   64.2710 C   0  0  0  0  0  0  0  0  0  0  0  0
  125.2000  129.5020   64.6860 C   0  0  0  0  0  0  0  0  0  0  0  0
  124.6370  130.3540   63.7400 C   0  0  0  0  0  0  0  0  0  0  0  0
  124.8910  130.1710   62.3830 C   0  0  0  0  0  0  0  0  0  0  0  0
  125.7090  129.1250   61.9640 C   0  0  0  0  0  0  0  0  0  0  0  0
  128.0070  124.4440   61.8270 S   0  0  0  0  0  0  0  0  0  0  0  0
  129.4030  123.4050   61.6590 C   0  0  0  0  0  0  0  0  0  0  0  0
  129.2730  122.0930   61.4680 N   0  0  0  0  0  0  0  0  0  0  0  0
  1  2  1  0
  2  3  2  0
  3  4  1  0
  4  5  1  0
  5  6  1  0
  5  7  1  0
  5  8  1  0
  4  9  2  0
  9 10  1  0
 10 11  1  0
 10 12  2  0
 12 13  1  0
 13 14  2  0
 13 15  1  0
 15 16  1  0
 16 17  2  0
 17 18  1  0
 18 19  2  0
 19 20  1  0
 20 21  2  0
 12 22  1  0
 22 23  1  0
 23 24  2  0
 24  2  1  0
 23  9  1  0
 21 16  1  0
M  END
>  <Binding energies>  (27) 
[-5.34]

>  <Ligand effiencies>  (27) 
[-0.19777777777777777]

>  <Interactions>  (27) 
["V-A:ARG:545:CZ:4926, V-B:GLU:543:CD:9880, V-A:ILE:369:CD1:3239, V-A:LEU:475:CD2:4259, V-B:TYR:539:CD2:9846, V-B:ARG:545:CZ:9898, V-A:GLU:543:CD:4908, V-B:GLY:454:CA:9021, H-A:GLU:543:OE1:4909, V-A:GLY:454:CA:4049, H-A:GLU:543:OE2:4910, V-A:ASP:366:CG:3213, H-A:ASP:366:OD2:3215, H-A:ASP:366:OD1:3214, V-A:GLY:453:C:4042, H-B:GLU:543:OE2:9882, H-B:GLU:543:OE1:9881"]

$$$$
4be_Grossjean_2025
     RDKit          3D

 25 27  0  0  0  0  0  0  0  0999 V2000
  124.1910  129.5020   65.9490 C   0  0  0  0  0  0  0  0  0  0  0  0
  124.8580  129.4470   64.5870 C   0  0  0  0  0  0  0  0  0  0  0  0
  124.6380  130.4370   63.6260 C   0  0  0  0  0  0  0  0  0  0  0  0
  125.2830  130.3200   62.3940 C   0  0  0  0  0  0  0  0  0  0  0  0
  126.1230  129.2290   62.1550 C   0  0  0  0  0  0  0  0  0  0  0  0
  126.3030  128.2770   63.1650 C   0  0  0  0  0  0  0  0  0  0  0  0
  127.1550  127.2000   62.8590 N   0  0  0  0  0  0  0  0  0  0  0  0
  128.4190  127.2270   62.3690 C   0  0  0  0  0  0  0  0  0  0  0  0
  129.0350  128.2640   62.1140 O   0  0  0  0  0  0  0  0  0  0  0  0
  129.0290  125.9160   62.1290 C   0  0  0  0  0  0  0  0  0  0  0  0
  128.0100  124.5020   61.8610 S   0  0  0  0  0  0  0  0  0  0  0  0
  129.4100  123.4660   61.7120 C   0  0  0  0  0  0  0  0  0  0  0  0
  129.2860  122.1600   61.4790 N   0  0  0  0  0  0  0  0  0  0  0  0
  130.4410  121.4620   61.3810 C   0  0  0  0  0  0  0  0  0  0  0  0
  130.2780  119.9760   61.1190 C   0  0  0  0  0  0  0  0  0  0  0  0
  131.7040  122.0340   61.5070 C   0  0  0  0  0  0  0  0  0  0  0  0
  131.8410  123.4090   61.7520 C   0  0  0  0  0  0  0  0  0  0  0  0
  133.2520  123.9940   61.8790 C   0  0  0  0  0  0  0  0  0  0  0  0
  134.2090  123.0650   61.8190 F   0  0  0  0  0  0  0  0  0  0  0  0
  133.4740  124.8580   60.8890 F   0  0  0  0  0  0  0  0  0  0  0  0
  133.3770  124.6220   63.0480 F   0  0  0  0  0  0  0  0  0  0  0  0
  130.6420  124.1740   61.8650 C   0  0  0  0  0  0  0  0  0  0  0  0
  130.3890  125.5720   62.1130 C   0  0  0  0  0  0  0  0  0  0  0  0
  131.3960  126.4840   62.3090 N   0  0  0  0  0  0  0  0  0  0  0  0
  125.6710  128.3820   64.3710 N   0  0  0  0  0  0  0  0  0  0  0  0
  1  2  1  0
  2  3  2  0
  3  4  1  0
  4  5  2  0
  5  6  1  0
  6  7  1  0
  7  8  1  0
  8  9  2  0
  8 10  1  0
 10 11  1  0
 11 12  1  0
 12 13  2  0
 13 14  1  0
 14 15  1  0
 14 16  2  0
 16 17  1  0
 17 18  1  0
 18 19  1  0
 18 20  1  0
 18 21  1  0
 17 22  2  0
 22 23  1  0
 23 24  1  0
  6 25  2  0
 25  2  1  0
 23 10  2  0
 22 12  1  0
M  END
>  <Binding energies>  (28) 
[-5.65]

>  <Ligand effiencies>  (28) 
[-0.2017857142857143]

>  <Interactions>  (28) 
["V-A:ARG:545:CZ:4926, V-B:GLU:543:CD:9880, V-A:ILE:369:CD1:3239, V-A:LEU:475:CD2:4259, V-B:TYR:539:CD2:9846, V-B:ARG:545:CZ:9898, V-A:GLU:543:CD:4908, H-B:ARG:545:NE:9896, V-B:TYR:484:CZ:9319, V-B:GLY:454:CA:9021, H-A:GLU:543:OE1:4909, V-A:GLY:454:CA:4049, H-A:GLU:543:OE2:4910, V-A:ASP:366:CG:3213, H-A:ASP:366:OD2:3215, H-A:ASP:366:OD1:3214, V-A:GLY:453:C:4042, H-B:GLU:543:OE2:9882, H-B:GLU:543:OE1:9881, H-B:ARG:545:NH2:9900, V-B:ARG:545:CG:9894, V-B:ARG:545:CD:9895"]

$$$$
4bg_Grossjean_2025
     RDKit          3D

 25 27  0  0  0  0  0  0  0  0999 V2000
  129.9210  119.9300   61.4870 C   0  0  0  0  0  0  0  0  0  0  0  0
  130.1900  121.4200   61.5970 C   0  0  0  0  0  0  0  0  0  0  0  0
  131.4910  121.9150   61.6130 C   0  0  0  0  0  0  0  0  0  0  0  0
  131.7260  123.2950   61.7210 C   0  0  0  0  0  0  0  0  0  0  0  0
  133.1750  123.7920   61.7350 C   0  0  0  0  0  0  0  0  0  0  0  0
  133.4530  124.5610   62.7900 F   0  0  0  0  0  0  0  0  0  0  0  0
  134.0080  122.7520   61.7690 F   0  0  0  0  0  0  0  0  0  0  0  0
  133.4160  124.5140   60.6400 F   0  0  0  0  0  0  0  0  0  0  0  0
  130.5840  124.1450   61.8120 C   0  0  0  0  0  0  0  0  0  0  0  0
  130.4320  125.5740   61.9380 C   0  0  0  0  0  0  0  0  0  0  0  0
  131.5010  126.4320   62.0100 N   0  0  0  0  0  0  0  0  0  0  0  0
  129.0980  126.0060   61.9710 C   0  0  0  0  0  0  0  0  0  0  0  0
  128.5830  127.3670   62.1210 C   0  0  0  0  0  0  0  0  0  0  0  0
  128.2960  128.0580   61.1420 O   0  0  0  0  0  0  0  0  0  0  0  0
  128.4090  127.7970   63.3880 N   0  0  0  0  0  0  0  0  0  0  0  0
  127.9230  129.1200   63.7770 C   0  0  0  0  0  0  0  0  0  0  0  0
  126.5810  129.0910   64.4950 C   0  0  0  0  0  0  0  0  0  0  0  0
  126.5140  128.7300   65.8440 C   0  0  0  0  0  0  0  0  0  0  0  0
  125.2910  128.7410   66.5080 C   0  0  0  0  0  0  0  0  0  0  0  0
  124.1380  129.1260   65.8260 C   0  0  0  0  0  0  0  0  0  0  0  0
  124.1990  129.5040   64.4870 C   0  0  0  0  0  0  0  0  0  0  0  0
  125.4230  129.4910   63.8220 C   0  0  0  0  0  0  0  0  0  0  0  0
  127.9810  124.6470   61.8860 S   0  0  0  0  0  0  0  0  0  0  0  0
  129.3040  123.5110   61.7770 C   0  0  0  0  0  0  0  0  0  0  0  0
  129.0870  122.2000   61.6760 N   0  0  0  0  0  0  0  0  0  0  0  0
  1  2  1  0
  2  3  2  0
  3  4  1  0
  4  5  1  0
  5  6  1  0
  5  7  1  0
  5  8  1  0
  4  9  2  0
  9 10  1  0
 10 11  1  0
 10 12  2  0
 12 13  1  0
 13 14  2  0
 13 15  1  0
 15 16  1  0
 16 17  1  0
 17 18  2  0
 18 19  1  0
 19 20  2  0
 20 21  1  0
 21 22  2  0
 12 23  1  0
 23 24  1  0
 24 25  2  0
 25  2  1  0
 24  9  1  0
 22 17  1  0
M  END
>  <Binding energies>  (29) 
[-6.0]

>  <Ligand effiencies>  (29) 
[-0.21428571428571427]

>  <Interactions>  (29) 
["V-A:ARG:545:CZ:4926, V-B:GLU:543:CD:9880, V-A:ILE:369:CD1:3239, V-A:LEU:475:CD2:4259, V-A:LEU:475:CD1:4258, V-B:ALA:541:CB:9864, V-B:HIS:456:CE1:9042, V-B:ARG:545:CZ:9898, V-A:GLU:543:CD:4908, V-A:GLU:543:CG:4907, H-A:GLU:543:OE1:4909, V-A:GLY:454:CA:4049, H-A:GLU:543:OE2:4910, V-A:ASP:366:CG:3213, H-A:ASP:366:OD2:3215, H-A:ASP:366:OD1:3214, V-A:GLY:453:C:4042, H-B:GLU:543:OE2:9882, H-B:GLU:543:OE1:9881, V-B:ARG:545:CG:9894, V-B:ARG:545:CD:9895, V-B:GLY:453:CA:9016"]

$$$$
4ca_Grossjean_2025
     RDKit          3D

 34 37  0  0  0  0  0  0  0  0999 V2000
  132.9890  126.8650   73.9780 C   0  0  0  0  0  0  0  0  0  0  0  0
  131.4580  126.8690   73.9470 C   0  0  0  0  0  0  0  0  0  0  0  0
  131.0120  126.9530   72.6000 O   0  0  0  0  0  0  0  0  0  0  0  0
  129.6990  127.1460   72.3060 C   0  0  0  0  0  0  0  0  0  0  0  0
  128.8000  127.1010   73.1510 O   0  0  0  0  0  0  0  0  0  0  0  0
  129.4530  127.4230   70.8520 C   0  0  0  0  0  0  0  0  0  0  0  0
  128.3900  126.7800   70.2030 C   0  0  0  0  0  0  0  0  0  0  0  0
  128.1340  127.0200   68.8560 C   0  0  0  0  0  0  0  0  0  0  0  0
  128.9360  127.8980   68.1290 C   0  0  0  0  0  0  0  0  0  0  0  0
  128.5810  128.0740   66.7770 N   0  0  0  0  0  0  0  0  0  0  0  0
  128.1330  129.1770   66.1280 C   0  0  0  0  0  0  0  0  0  0  0  0
  128.0050  130.2830   66.6530 O   0  0  0  0  0  0  0  0  0  0  0  0
  127.8160  128.9830   64.7110 C   0  0  0  0  0  0  0  0  0  0  0  0
  126.5770  129.9680   63.9380 S   0  0  0  0  0  0  0  0  0  0  0  0
  126.8540  129.1880   62.3980 C   0  0  0  0  0  0  0  0  0  0  0  0
  126.1640  129.5300   61.3130 N   0  0  0  0  0  0  0  0  0  0  0  0
  126.4590  128.8800   60.1580 C   0  0  0  0  0  0  0  0  0  0  0  0
  125.6700  129.2950   58.9500 C   0  0  0  0  0  0  0  0  0  0  0  0
  125.9830  128.7890   57.6780 C   0  0  0  0  0  0  0  0  0  0  0  0
  125.2580  129.1740   56.5530 C   0  0  0  0  0  0  0  0  0  0  0  0
  124.2060  130.0750   56.6840 C   0  0  0  0  0  0  0  0  0  0  0  0
  123.8760  130.5930   57.9320 C   0  0  0  0  0  0  0  0  0  0  0  0
  124.6040  130.2060   59.0550 C   0  0  0  0  0  0  0  0  0  0  0  0
  127.4300  127.8740   60.1040 C   0  0  0  0  0  0  0  0  0  0  0  0
  128.1610  127.5030   61.2430 C   0  0  0  0  0  0  0  0  0  0  0  0
  129.2130  126.3960   61.1120 C   0  0  0  0  0  0  0  0  0  0  0  0
  129.3150  125.9160   59.8710 F   0  0  0  0  0  0  0  0  0  0  0  0
  130.4100  126.8670   61.4570 F   0  0  0  0  0  0  0  0  0  0  0  0
  128.8950  125.3750   61.9070 F   0  0  0  0  0  0  0  0  0  0  0  0
  127.8710  128.1920   62.4560 C   0  0  0  0  0  0  0  0  0  0  0  0
  128.4060  128.0970   63.7930 C   0  0  0  0  0  0  0  0  0  0  0  0
  129.4010  127.2160   64.1320 N   0  0  0  0  0  0  0  0  0  0  0  0
  129.9990  128.5510   68.7700 C   0  0  0  0  0  0  0  0  0  0  0  0
  130.2530  128.3120   70.1180 C   0  0  0  0  0  0  0  0  0  0  0  0
  1  2  1  0
  2  3  1  0
  3  4  1  0
  4  5  2  0
  4  6  1  0
  6  7  2  0
  7  8  1  0
  8  9  2  0
  9 10  1  0
 10 11  1  0
 11 12  2  0
 11 13  1  0
 13 14  1  0
 14 15  1  0
 15 16  2  0
 16 17  1  0
 17 18  1  0
 18 19  2  0
 19 20  1  0
 20 21  2  0
 21 22  1  0
 22 23  2  0
 17 24  2  0
 24 25  1  0
 25 26  1  0
 26 27  1  0
 26 28  1  0
 26 29  1  0
 25 30  2  0
 30 31  1  0
 31 32  1  0
  9 33  1  0
 33 34  2  0
 34  6  1  0
 31 13  2  0
 30 15  1  0
 23 18  1  0
M  END
>  <Binding energies>  (30) 
[-6.54]

>  <Ligand effiencies>  (30) 
[-0.17675675675675676]

>  <Interactions>  (30) 
["V-B:GLU:543:CD:9880, V-A:HIS:456:CE1:4070, V-B:ASP:366:CG:8185, V-A:GLU:543:C:4902, V-B:HIS:456:CE1:9042, V-A:GLY:544:CA:4914, V-A:GLU:543:CB:4906, H-B:TYR:484:OH:9320, V-A:GLU:543:CD:4908, V-A:GLU:543:CA:4904, V-A:GLY:544:C:4912, V-A:GLU:543:CG:4907, V-A:HIS:456:CG:4066, V-A:HIS:456:CD2:4068, H-A:GLU:543:OE1:4909, H-A:GLU:543:OE2:4910, H-B:GLU:543:OE2:9882, H-B:GLU:543:OE1:9881, V-B:TYR:531:CZ:9766, V-B:ASP:366:CB:8184, V-A:TYR:539:CE1:4875, V-B:TYR:531:CE1:9764, V-A:TYR:539:CZ:4877, V-B:ASP:366:C:8180, V-B:ASP:366:CA:8182, V-B:GLU:543:CB:9878, V-B:HIS:456:CD2:9040, H-B:LYS:547:NZ:9923, V-A:HIS:456:CB:4065"]

$$$$
4cb_Grossjean_2025
     RDKit          3D

 33 36  0  0  0  0  0  0  0  0999 V2000
  131.2300  127.7340   73.8380 C   0  0  0  0  0  0  0  0  0  0  0  0
  130.3410  128.0510   72.7750 O   0  0  0  0  0  0  0  0  0  0  0  0
  129.6320  127.0800   72.1450 C   0  0  0  0  0  0  0  0  0  0  0  0
  129.2210  126.0610   72.7090 O   0  0  0  0  0  0  0  0  0  0  0  0
  129.3950  127.3680   70.6900 C   0  0  0  0  0  0  0  0  0  0  0  0
  128.3150  126.7580   70.0380 C   0  0  0  0  0  0  0  0  0  0  0  0
  128.0640  127.0110   68.6930 C   0  0  0  0  0  0  0  0  0  0  0  0
  128.8900  127.8720   67.9700 C   0  0  0  0  0  0  0  0  0  0  0  0
  128.5360  128.0680   66.6200 N   0  0  0  0  0  0  0  0  0  0  0  0
  128.0880  129.1800   65.9880 C   0  0  0  0  0  0  0  0  0  0  0  0
  127.9570  130.2790   66.5290 O   0  0  0  0  0  0  0  0  0  0  0  0
  127.7720  129.0070   64.5670 C   0  0  0  0  0  0  0  0  0  0  0  0
  126.5560  130.0250   63.7990 S   0  0  0  0  0  0  0  0  0  0  0  0
  126.8240  129.2560   62.2520 C   0  0  0  0  0  0  0  0  0  0  0  0
  126.1440  129.6200   61.1680 N   0  0  0  0  0  0  0  0  0  0  0  0
  126.4290  128.9720   60.0080 C   0  0  0  0  0  0  0  0  0  0  0  0
  125.6500  129.4090   58.8010 C   0  0  0  0  0  0  0  0  0  0  0  0
  126.0280  128.9930   57.5150 C   0  0  0  0  0  0  0  0  0  0  0  0
  125.3120  129.3980   56.3900 C   0  0  0  0  0  0  0  0  0  0  0  0
  124.2050  130.2280   56.5380 C   0  0  0  0  0  0  0  0  0  0  0  0
  123.8110  130.6570   57.8020 C   0  0  0  0  0  0  0  0  0  0  0  0
  124.5310  130.2510   58.9220 C   0  0  0  0  0  0  0  0  0  0  0  0
  127.3790  127.9470   59.9500 C   0  0  0  0  0  0  0  0  0  0  0  0
  128.0980  127.5520   61.0880 C   0  0  0  0  0  0  0  0  0  0  0  0
  129.1270  126.4220   60.9520 C   0  0  0  0  0  0  0  0  0  0  0  0
  130.3640  126.7990   61.2860 F   0  0  0  0  0  0  0  0  0  0  0  0
  128.7900  125.4090   61.7490 F   0  0  0  0  0  0  0  0  0  0  0  0
  129.1660  125.9960   59.6900 F   0  0  0  0  0  0  0  0  0  0  0  0
  127.8190  128.2370   62.3060 C   0  0  0  0  0  0  0  0  0  0  0  0
  128.3490  128.1200   63.6430 C   0  0  0  0  0  0  0  0  0  0  0  0
  129.3280  127.2190   63.9760 N   0  0  0  0  0  0  0  0  0  0  0  0
  129.9710  128.4910   68.6150 C   0  0  0  0  0  0  0  0  0  0  0  0
  130.2200  128.2380   69.9600 C   0  0  0  0  0  0  0  0  0  0  0  0
  1  2  1  0
  2  3  1  0
  3  4  2  0
  3  5  1  0
  5  6  2  0
  6  7  1  0
  7  8  2  0
  8  9  1  0
  9 10  1  0
 10 11  2  0
 10 12  1  0
 12 13  1  0
 13 14  1  0
 14 15  2  0
 15 16  1  0
 16 17  1  0
 17 18  2  0
 18 19  1  0
 19 20  2  0
 20 21  1  0
 21 22  2  0
 16 23  2  0
 23 24  1  0
 24 25  1  0
 25 26  1  0
 25 27  1  0
 25 28  1  0
 24 29  2  0
 29 30  1  0
 30 31  1  0
  8 32  1  0
 32 33  2  0
 33  5  1  0
 30 12  2  0
 29 14  1  0
 22 17  1  0
M  END
>  <Binding energies>  (31) 
[-6.43]

>  <Ligand effiencies>  (31) 
[-0.1786111111111111]

>  <Interactions>  (31) 
["V-B:GLU:543:CD:9880, V-A:HIS:456:CE1:4070, V-B:ASP:366:CG:8185, V-A:GLU:543:C:4902, V-B:HIS:456:CE1:9042, V-A:GLU:543:CB:4906, H-B:TYR:484:OH:9320, V-A:GLU:543:CD:4908, V-A:GLU:543:CA:4904, V-A:GLY:544:C:4912, V-A:GLU:543:CG:4907, V-A:HIS:456:CD2:4068, H-A:GLU:543:OE1:4909, H-A:GLU:543:OE2:4910, H-B:GLU:543:OE2:9882, H-B:GLU:543:OE1:9881, V-B:TYR:531:CZ:9766, V-B:ASP:366:CB:8184, V-A:TYR:539:CE1:4875, V-B:TYR:531:CE1:9764, V-A:TYR:539:CZ:4877, V-B:ASP:366:C:8180, V-B:ASP:366:CA:8182, V-B:GLU:543:CB:9878, V-B:HIS:456:CD2:9040, H-B:LYS:547:NZ:9923, H-A:LYS:547:NZ:4951, V-A:LYS:547:CE:4950"]

$$$$
4cc_Grossjean_2025
     RDKit          3D

 31 34  0  0  0  0  0  0  0  0999 V2000
  123.8520  132.1090   62.2720 C   0  0  0  0  0  0  0  0  0  0  0  0
  123.9010  131.1480   63.3220 O   0  0  0  0  0  0  0  0  0  0  0  0
  124.7940  130.0980   63.2350 C   0  0  0  0  0  0  0  0  0  0  0  0
  125.1290  129.6710   61.9500 C   0  0  0  0  0  0  0  0  0  0  0  0
  126.0230  128.6210   61.7620 C   0  0  0  0  0  0  0  0  0  0  0  0
  126.5880  127.9730   62.8620 C   0  0  0  0  0  0  0  0  0  0  0  0
  127.4920  126.9330   62.5740 N   0  0  0  0  0  0  0  0  0  0  0  0
  128.7400  127.0030   62.0540 C   0  0  0  0  0  0  0  0  0  0  0  0
  129.3120  128.0590   61.7760 O   0  0  0  0  0  0  0  0  0  0  0  0
  129.4030  125.7150   61.8310 C   0  0  0  0  0  0  0  0  0  0  0  0
  128.4460  124.2620   61.5440 S   0  0  0  0  0  0  0  0  0  0  0  0
  129.8890  123.2890   61.3860 C   0  0  0  0  0  0  0  0  0  0  0  0
  129.8220  121.9830   61.1400 N   0  0  0  0  0  0  0  0  0  0  0  0
  130.9970  121.3110   61.0240 C   0  0  0  0  0  0  0  0  0  0  0  0
  130.8900  119.8400   60.7490 C   0  0  0  0  0  0  0  0  0  0  0  0
  129.8820  119.0680   61.3500 C   0  0  0  0  0  0  0  0  0  0  0  0
  129.7780  117.7020   61.1010 C   0  0  0  0  0  0  0  0  0  0  0  0
  130.6840  117.0850   60.2460 C   0  0  0  0  0  0  0  0  0  0  0  0
  131.6950  117.8250   59.6400 C   0  0  0  0  0  0  0  0  0  0  0  0
  131.7960  119.1910   59.8920 C   0  0  0  0  0  0  0  0  0  0  0  0
  132.2320  121.9510   61.1720 C   0  0  0  0  0  0  0  0  0  0  0  0
  132.3130  123.3280   61.4340 C   0  0  0  0  0  0  0  0  0  0  0  0
  133.7000  123.9660   61.5780 C   0  0  0  0  0  0  0  0  0  0  0  0
  133.7740  124.8380   62.5870 F   0  0  0  0  0  0  0  0  0  0  0  0
  134.6100  123.0190   61.8030 F   0  0  0  0  0  0  0  0  0  0  0  0
  134.0140  124.6210   60.4610 F   0  0  0  0  0  0  0  0  0  0  0  0
  131.0880  124.0440   61.5480 C   0  0  0  0  0  0  0  0  0  0  0  0
  130.7770  125.4290   61.8060 C   0  0  0  0  0  0  0  0  0  0  0  0
  131.7460  126.3800   62.0060 N   0  0  0  0  0  0  0  0  0  0  0  0
  126.2650  128.4040   64.1580 C   0  0  0  0  0  0  0  0  0  0  0  0
  125.3720  129.4560   64.3410 C   0  0  0  0  0  0  0  0  0  0  0  0
  1  2  1  0
  2  3  1  0
  3  4  2  0
  4  5  1  0
  5  6  2  0
  6  7  1  0
  7  8  1  0
  8  9  2  0
  8 10  1  0
 10 11  1  0
 11 12  1  0
 12 13  2  0
 13 14  1  0
 14 15  1  0
 15 16  2  0
 16 17  1  0
 17 18  2  0
 18 19  1  0
 19 20  2  0
 14 21  2  0
 21 22  1  0
 22 23  1  0
 23 24  1  0
 23 25  1  0
 23 26  1  0
 22 27  2  0
 27 28  1  0
 28 29  1  0
  6 30  1  0
 30 31  2  0
 31  3  1  0
 28 10  2  0
 27 12  1  0
 20 15  1  0
M  END
>  <Binding energies>  (32) 
[-7.48]

>  <Ligand effiencies>  (32) 
[-0.22]

>  <Interactions>  (32) 
["V-A:ARG:545:CZ:4926, V-B:TYR:539:C:9839, V-B:GLU:543:CD:9880, V-A:ILE:369:CD1:3239, V-B:TYR:539:CE2:9848, V-A:SER:385:CB:3409, V-B:ASP:366:CG:8185, V-A:PRO:482:CG:4327, V-A:PRO:482:CB:4326, V-B:TYR:539:CB:9843, V-A:LEU:475:CD2:4259, V-B:TYR:539:CD2:9846, V-A:LEU:475:CD1:4258, V-B:ALA:541:CB:9864, V-B:ARG:545:CZ:9898, H-B:TYR:484:OH:9320, V-A:GLU:543:CD:4908, V-B:ILE:369:CD1:8211, H-B:GLY:454:N:9022, V-B:GLY:454:CA:9021, H-A:GLU:543:OE1:4909, V-A:GLY:454:CA:4049, H-A:GLU:543:OE2:4910, V-A:ASP:366:CG:3213, V-A:ASP:366:CB:3212, H-A:ASP:366:OD2:3215, H-A:ASP:366:OD1:3214, V-A:ASP:366:CA:3210, V-A:GLY:453:CA:4044, V-A:GLY:453:C:4042, H-B:GLU:543:OE2:9882, H-B:GLU:543:OE1:9881"]

$$$$
4ce_Grossjean_2025
     RDKit          3D

 30 33  0  0  0  0  0  0  0  0999 V2000
  124.5020  129.4300   65.9360 C   0  0  0  0  0  0  0  0  0  0  0  0
  125.0190  129.3030   64.5150 C   0  0  0  0  0  0  0  0  0  0  0  0
  124.6370  130.2030   63.5160 C   0  0  0  0  0  0  0  0  0  0  0  0
  125.1590  130.0300   62.2330 C   0  0  0  0  0  0  0  0  0  0  0  0
  126.0390  128.9760   61.9830 C   0  0  0  0  0  0  0  0  0  0  0  0
  126.3760  128.1080   63.0290 C   0  0  0  0  0  0  0  0  0  0  0  0
  127.2860  127.0810   62.7200 N   0  0  0  0  0  0  0  0  0  0  0  0
  128.5410  127.1820   62.2160 C   0  0  0  0  0  0  0  0  0  0  0  0
  129.0920  128.2550   61.9610 O   0  0  0  0  0  0  0  0  0  0  0  0
  129.2310  125.9110   61.9850 C   0  0  0  0  0  0  0  0  0  0  0  0
  128.3090  124.4190   61.8230 S   0  0  0  0  0  0  0  0  0  0  0  0
  129.7670  123.4950   61.5500 C   0  0  0  0  0  0  0  0  0  0  0  0
  129.7270  122.1820   61.3370 N   0  0  0  0  0  0  0  0  0  0  0  0
  130.9110  121.5520   61.1190 C   0  0  0  0  0  0  0  0  0  0  0  0
  130.8310  120.0740   60.8760 C   0  0  0  0  0  0  0  0  0  0  0  0
  131.7320  119.4410   60.0050 C   0  0  0  0  0  0  0  0  0  0  0  0
  131.6590  118.0700   59.7700 C   0  0  0  0  0  0  0  0  0  0  0  0
  130.6820  117.3120   60.4060 C   0  0  0  0  0  0  0  0  0  0  0  0
  129.7770  117.9140   61.2730 C   0  0  0  0  0  0  0  0  0  0  0  0
  129.8520  119.2850   61.5040 C   0  0  0  0  0  0  0  0  0  0  0  0
  132.1290  122.2390   61.1370 C   0  0  0  0  0  0  0  0  0  0  0  0
  132.1830  123.6230   61.3660 C   0  0  0  0  0  0  0  0  0  0  0  0
  133.5510  124.3130   61.3710 C   0  0  0  0  0  0  0  0  0  0  0  0
  133.6970  125.1800   62.3750 F   0  0  0  0  0  0  0  0  0  0  0  0
  134.5160  123.4000   61.4890 F   0  0  0  0  0  0  0  0  0  0  0  0
  133.7200  124.9870   60.2340 F   0  0  0  0  0  0  0  0  0  0  0  0
  130.9460  124.2970   61.5810 C   0  0  0  0  0  0  0  0  0  0  0  0
  130.6080  125.6760   61.8330 C   0  0  0  0  0  0  0  0  0  0  0  0
  131.5520  126.6680   61.9160 N   0  0  0  0  0  0  0  0  0  0  0  0
  125.8740  128.2730   64.2870 N   0  0  0  0  0  0  0  0  0  0  0  0
  1  2  1  0
  2  3  2  0
  3  4  1  0
  4  5  2  0
  5  6  1  0
  6  7  1  0
  7  8  1  0
  8  9  2  0
  8 10  1  0
 10 11  1  0
 11 12  1  0
 12 13  2  0
 13 14  1  0
 14 15  1  0
 15 16  2  0
 16 17  1  0
 17 18  2  0
 18 19  1  0
 19 20  2  0
 14 21  2  0
 21 22  1  0
 22 23  1  0
 23 24  1  0
 23 25  1  0
 23 26  1  0
 22 27  2  0
 27 28  1  0
 28 29  1  0
  6 30  2  0
 30  2  1  0
 28 10  2  0
 27 12  1  0
 20 15  1  0
M  END
>  <Binding energies>  (33) 
[-7.45]

>  <Ligand effiencies>  (33) 
[-0.22575757575757577]

>  <Interactions>  (33) 
["V-A:ARG:545:CZ:4926, V-B:GLU:543:CD:9880, V-A:ILE:369:CD1:3239, V-B:TYR:539:CE2:9848, V-A:SER:385:CB:3409, V-A:PRO:482:CG:4327, V-A:PRO:482:CB:4326, V-B:TYR:539:CB:9843, V-A:LEU:475:CD2:4259, V-B:TYR:539:CD2:9846, V-A:LEU:475:CD1:4258, V-A:LEU:475:CG:4257, V-B:ALA:541:CB:9864, V-B:HIS:456:CE1:9042, V-B:ARG:545:CZ:9898, V-A:GLU:543:CD:4908, H-B:ARG:545:NE:9896, V-B:TYR:484:CZ:9319, H-A:GLU:543:OE1:4909, V-A:GLY:454:CA:4049, H-A:GLU:543:OE2:4910, V-A:ASP:366:CG:3213, V-A:ASP:366:CB:3212, H-A:ASP:366:OD2:3215, H-A:ASP:366:OD1:3214, V-A:ASP:366:CA:3210, V-A:GLY:453:CA:4044, V-A:GLY:453:C:4042, H-B:GLU:543:OE2:9882, H-B:GLU:543:OE1:9881, H-B:ARG:545:NH2:9900, V-B:ARG:545:CG:9894, V-B:ARG:545:CD:9895"]

$$$$
4cf_Grossjean_2025
     RDKit          3D

 29 32  0  0  0  0  0  0  0  0999 V2000
  131.5470  126.6540   61.8280 N   0  0  0  0  0  0  0  0  0  0  0  0
  130.6010  125.6660   61.7230 C   0  0  0  0  0  0  0  0  0  0  0  0
  129.2220  125.9060   61.8380 C   0  0  0  0  0  0  0  0  0  0  0  0
  128.5350  127.1710   62.1140 C   0  0  0  0  0  0  0  0  0  0  0  0
  129.1150  128.2470   61.9600 O   0  0  0  0  0  0  0  0  0  0  0  0
  127.2490  127.0550   62.5270 N   0  0  0  0  0  0  0  0  0  0  0  0
  126.3370  128.0540   62.9170 C   0  0  0  0  0  0  0  0  0  0  0  0
  125.5500  128.8280   62.0430 C   0  0  0  0  0  0  0  0  0  0  0  0
  124.6930  129.8000   62.5640 C   0  0  0  0  0  0  0  0  0  0  0  0
  124.6450  129.9780   63.9460 C   0  0  0  0  0  0  0  0  0  0  0  0
  125.3980  129.2510   64.8100 N   0  0  0  0  0  0  0  0  0  0  0  0
  126.2280  128.3100   64.2880 C   0  0  0  0  0  0  0  0  0  0  0  0
  128.2990  124.4180   61.6450 S   0  0  0  0  0  0  0  0  0  0  0  0
  129.7620  123.4870   61.4210 C   0  0  0  0  0  0  0  0  0  0  0  0
  129.7240  122.1710   61.2200 N   0  0  0  0  0  0  0  0  0  0  0  0
  130.9140  121.5320   61.0730 C   0  0  0  0  0  0  0  0  0  0  0  0
  130.8410  120.0490   60.8540 C   0  0  0  0  0  0  0  0  0  0  0  0
  131.7470  119.4040   59.9970 C   0  0  0  0  0  0  0  0  0  0  0  0
  131.6870  118.0280   59.7900 C   0  0  0  0  0  0  0  0  0  0  0  0
  130.7160  117.2750   60.4420 C   0  0  0  0  0  0  0  0  0  0  0  0
  129.8080  117.8870   61.3000 C   0  0  0  0  0  0  0  0  0  0  0  0
  129.8730  119.2630   61.5040 C   0  0  0  0  0  0  0  0  0  0  0  0
  132.1320  122.2180   61.1040 C   0  0  0  0  0  0  0  0  0  0  0  0
  132.1820  123.6060   61.3120 C   0  0  0  0  0  0  0  0  0  0  0  0
  133.5510  124.2950   61.3400 C   0  0  0  0  0  0  0  0  0  0  0  0
  133.6770  125.1700   62.3400 F   0  0  0  0  0  0  0  0  0  0  0  0
  134.5120  123.3820   61.4860 F   0  0  0  0  0  0  0  0  0  0  0  0
  133.7450  124.9610   60.2020 F   0  0  0  0  0  0  0  0  0  0  0  0
  130.9410  124.2850   61.4850 C   0  0  0  0  0  0  0  0  0  0  0  0
  1  2  1  0
  2  3  2  0
  3  4  1  0
  4  5  2  0
  4  6  1  0
  6  7  1  0
  7  8  2  0
  8  9  1  0
  9 10  2  0
 10 11  1  0
 11 12  2  0
  3 13  1  0
 13 14  1  0
 14 15  2  0
 15 16  1  0
 16 17  1  0
 17 18  2  0
 18 19  1  0
 19 20  2  0
 20 21  1  0
 21 22  2  0
 16 23  2  0
 23 24  1  0
 24 25  1  0
 25 26  1  0
 25 27  1  0
 25 28  1  0
 24 29  2  0
 29  2  1  0
 12  7  1  0
 29 14  1  0
 22 17  1  0
M  END
>  <Binding energies>  (34) 
[-6.89]

>  <Ligand effiencies>  (34) 
[-0.2153125]

>  <Interactions>  (34) 
["V-A:ARG:545:CZ:4926, V-B:GLU:543:CD:9880, V-A:ILE:369:CD1:3239, V-B:TYR:539:CE2:9848, V-A:SER:385:CB:3409, V-B:ASP:366:CG:8185, V-A:PRO:482:CG:4327, V-A:PRO:482:CB:4326, V-B:TYR:539:CB:9843, V-A:LEU:475:CD2:4259, V-B:TYR:539:CD2:9846, V-A:LEU:475:CD1:4258, V-A:LEU:475:CG:4257, V-B:ALA:541:CB:9864, V-B:ARG:545:CZ:9898, H-B:TYR:484:OH:9320, V-A:GLU:543:CD:4908, H-B:ARG:545:NE:9896, H-A:GLU:543:OE1:4909, V-A:GLY:454:CA:4049, H-A:GLU:543:OE2:4910, V-A:ASP:366:CG:3213, V-A:ASP:366:CB:3212, H-A:ASP:366:OD2:3215, H-A:ASP:366:OD1:3214, V-A:ASP:366:CA:3210, V-A:GLY:453:CA:4044, V-A:GLY:453:C:4042, H-B:GLU:543:OE2:9882, H-B:GLU:543:OE1:9881, V-A:ILE:369:CG1:3238, H-B:ARG:545:NH2:9900"]

$$$$
4ci_Grossjean_2025
     RDKit          3D

 28 31  0  0  0  0  0  0  0  0999 V2000
  130.2640  127.1990   62.2420 N   0  0  0  0  0  0  0  0  0  0  0  0
  129.4580  126.1240   61.9710 C   0  0  0  0  0  0  0  0  0  0  0  0
  128.0650  126.2240   61.8260 C   0  0  0  0  0  0  0  0  0  0  0  0
  127.2210  127.4190   61.9140 C   0  0  0  0  0  0  0  0  0  0  0  0
  127.1030  128.1780   60.9490 O   0  0  0  0  0  0  0  0  0  0  0  0
  126.6130  127.6180   63.1100 N   0  0  0  0  0  0  0  0  0  0  0  0
  125.7700  128.6620   63.4670 C   0  0  0  0  0  0  0  0  0  0  0  0
  125.4470  129.7110   62.6060 C   0  0  0  0  0  0  0  0  0  0  0  0
  124.6030  130.5210   63.3280 C   0  0  0  0  0  0  0  0  0  0  0  0
  124.4240  129.9870   64.5610 O   0  0  0  0  0  0  0  0  0  0  0  0
  125.1700  128.8100   64.6360 N   0  0  0  0  0  0  0  0  0  0  0  0
  127.3470  124.6540   61.4720 S   0  0  0  0  0  0  0  0  0  0  0  0
  128.9110  123.8760   61.5300 C   0  0  0  0  0  0  0  0  0  0  0  0
  129.0450  122.5670   61.3240 N   0  0  0  0  0  0  0  0  0  0  0  0
  130.3000  122.0530   61.3850 C   0  0  0  0  0  0  0  0  0  0  0  0
  130.4180  120.5730   61.1530 C   0  0  0  0  0  0  0  0  0  0  0  0
  131.4490  120.0490   60.3560 C   0  0  0  0  0  0  0  0  0  0  0  0
  131.5650  118.6780   60.1390 C   0  0  0  0  0  0  0  0  0  0  0  0
  130.6450  117.8090   60.7170 C   0  0  0  0  0  0  0  0  0  0  0  0
  129.6120  118.3010   61.5060 C   0  0  0  0  0  0  0  0  0  0  0  0
  129.5000  119.6720   61.7200 C   0  0  0  0  0  0  0  0  0  0  0  0
  131.4120  122.8520   61.6700 C   0  0  0  0  0  0  0  0  0  0  0  0
  131.2830  124.2330   61.8880 C   0  0  0  0  0  0  0  0  0  0  0  0
  132.5440  125.0490   62.1950 C   0  0  0  0  0  0  0  0  0  0  0  0
  133.6670  124.3340   62.0980 F   0  0  0  0  0  0  0  0  0  0  0  0
  132.6420  126.0640   61.3370 F   0  0  0  0  0  0  0  0  0  0  0  0
  132.4810  125.5270   63.4380 F   0  0  0  0  0  0  0  0  0  0  0  0
  129.9720  124.7850   61.8130 C   0  0  0  0  0  0  0  0  0  0  0  0
  1  2  1  0
  2  3  2  0
  3  4  1  0
  4  5  2  0
  4  6  1  0
  6  7  1  0
  7  8  1  0
  8  9  2  0
  9 10  1  0
 10 11  1  0
  3 12  1  0
 12 13  1  0
 13 14  2  0
 14 15  1  0
 15 16  1  0
 16 17  2  0
 17 18  1  0
 18 19  2  0
 19 20  1  0
 20 21  2  0
 15 22  2  0
 22 23  1  0
 23 24  1  0
 24 25  1  0
 24 26  1  0
 24 27  1  0
 23 28  2  0
 28  2  1  0
 11  7  2  0
 28 13  1  0
 21 16  1  0
M  END
>  <Binding energies>  (35) 
[-7.32]

>  <Ligand effiencies>  (35) 
[-0.23612903225806453]

>  <Interactions>  (35) 
["V-A:ARG:545:CZ:4926, V-B:TYR:539:C:9839, V-B:GLU:543:CD:9880, V-A:ILE:369:CD1:3239, V-B:TYR:539:CE2:9848, V-B:PRO:540:C:9853, V-A:SER:385:CB:3409, V-A:PRO:482:CG:4327, V-A:PRO:482:CB:4326, V-A:LEU:475:CD2:4259, V-B:TYR:539:CD2:9846, V-A:LEU:475:CD1:4258, V-A:LEU:475:CG:4257, V-B:ALA:541:CB:9864, V-B:ARG:545:CZ:9898, H-B:TYR:484:OH:9320, V-A:GLU:543:CD:4908, H-B:ARG:545:NE:9896, H-B:GLY:454:N:9022, H-A:GLU:543:OE1:4909, H-A:GLU:543:OE2:4910, V-A:ASP:366:CG:3213, H-B:GLU:543:OE2:9882, H-B:GLU:543:OE1:9881, H-B:ARG:545:NH2:9900"]

$$$$
8a_Ghoteimi_2023
     RDKit          3D

 40 44  0  0  0  0  0  0  0  0999 V2000
  125.2080  127.9080   74.2250 C   0  0  0  0  0  0  0  0  0  0  0  0
  126.4420  128.6350   74.7660 C   0  0  0  0  0  0  0  0  0  0  0  0
  127.5270  127.7210   74.8580 O   0  0  0  0  0  0  0  0  0  0  0  0
  128.7740  128.0680   74.4450 C   0  0  0  0  0  0  0  0  0  0  0  0
  129.6600  128.4580   75.2130 O   0  0  0  0  0  0  0  0  0  0  0  0
  128.9660  127.9370   72.9620 C   0  0  0  0  0  0  0  0  0  0  0  0
  128.1930  127.0090   72.2520 C   0  0  0  0  0  0  0  0  0  0  0  0
  128.3490  126.8630   70.8770 C   0  0  0  0  0  0  0  0  0  0  0  0
  129.2790  127.6380   70.1820 C   0  0  0  0  0  0  0  0  0  0  0  0
  129.3520  127.4000   68.7950 N   0  0  0  0  0  0  0  0  0  0  0  0
  129.0420  128.2070   67.7500 C   0  0  0  0  0  0  0  0  0  0  0  0
  128.6140  129.3550   67.8630 O   0  0  0  0  0  0  0  0  0  0  0  0
  129.2570  127.6200   66.4240 C   0  0  0  0  0  0  0  0  0  0  0  0
  130.2750  126.1920   66.2350 S   0  0  0  0  0  0  0  0  0  0  0  0
  130.0200  126.1810   64.5060 C   0  0  0  0  0  0  0  0  0  0  0  0
  130.5970  125.2730   63.7190 N   0  0  0  0  0  0  0  0  0  0  0  0
  130.3370  125.3570   62.3870 C   0  0  0  0  0  0  0  0  0  0  0  0
  131.0100  124.3410   61.5210 C   0  0  0  0  0  0  0  0  0  0  0  0
  130.5460  123.0190   61.4620 C   0  0  0  0  0  0  0  0  0  0  0  0
  131.1840  122.0750   60.6630 C   0  0  0  0  0  0  0  0  0  0  0  0
  132.2970  122.4260   59.9020 C   0  0  0  0  0  0  0  0  0  0  0  0
  132.8670  121.4230   59.1410 O   0  0  0  0  0  0  0  0  0  0  0  0
  132.9190  120.1010   59.6640 C   0  0  0  0  0  0  0  0  0  0  0  0
  132.7660  123.7470   59.9490 C   0  0  0  0  0  0  0  0  0  0  0  0
  132.1270  124.6890   60.7520 C   0  0  0  0  0  0  0  0  0  0  0  0
  129.5010  126.3380   61.8500 C   0  0  0  0  0  0  0  0  0  0  0  0
  128.8800  127.2830   62.6750 C   0  0  0  0  0  0  0  0  0  0  0  0
  127.9750  128.2850   62.0560 C   0  0  0  0  0  0  0  0  0  0  0  0
  128.4750  129.5190   61.6350 C   0  0  0  0  0  0  0  0  0  0  0  0
  127.6340  130.4520   61.0360 C   0  0  0  0  0  0  0  0  0  0  0  0
  126.2820  130.1680   60.8420 C   0  0  0  0  0  0  0  0  0  0  0  0
  125.5240  131.1530   60.2390 O   0  0  0  0  0  0  0  0  0  0  0  0
  124.2050  130.8460   59.8040 C   0  0  0  0  0  0  0  0  0  0  0  0
  125.7790  128.9240   61.2560 C   0  0  0  0  0  0  0  0  0  0  0  0
  126.6230  127.9920   61.8540 C   0  0  0  0  0  0  0  0  0  0  0  0
  129.1550  127.2280   64.0700 C   0  0  0  0  0  0  0  0  0  0  0  0
  128.7490  128.0460   65.1860 C   0  0  0  0  0  0  0  0  0  0  0  0
  127.9510  129.1520   65.0370 N   0  0  0  0  0  0  0  0  0  0  0  0
  130.0540  128.5730   70.8840 C   0  0  0  0  0  0  0  0  0  0  0  0
  129.8970  128.7180   72.2610 C   0  0  0  0  0  0  0  0  0  0  0  0
  1  2  1  0
  2  3  1  0
  3  4  1  0
  4  5  2  0
  4  6  1  0
  6  7  2  0
  7  8  1  0
  8  9  2  0
  9 10  1  0
 10 11  1  0
 11 12  2  0
 11 13  1  0
 13 14  1  0
 14 15  1  0
 15 16  2  0
 16 17  1  0
 17 18  1  0
 18 19  2  0
 19 20  1  0
 20 21  2  0
 21 22  1  0
 22 23  1  0
 21 24  1  0
 24 25  2  0
 17 26  2  0
 26 27  1  0
 27 28  1  0
 28 29  2  0
 29 30  1  0
 30 31  2  0
 31 32  1  0
 32 33  1  0
 31 34  1  0
 34 35  2  0
 27 36  2  0
 36 37  1  0
 37 38  1  0
  9 39  1  0
 39 40  2  0
 40  6  1  0
 37 13  2  0
 36 15  1  0
 25 18  1  0
 35 28  1  0
M  END
>  <Binding energies>  (36) 
[-3.25]

>  <Ligand effiencies>  (36) 
[-0.0755813953488372]

>  <Interactions>  (36) 
["V-B:GLU:543:CD:9880, V-A:TYR:484:CZ:4347, V-A:TYR:484:CE2:4346, V-B:TYR:539:CE2:9848, V-A:HIS:456:CE1:4070, V-A:SER:385:CB:3409, V-B:ASP:366:CG:8185, V-A:LEU:475:CD2:4259, H-A:TYR:484:OH:4348, V-B:TYR:539:CD2:9846, V-A:GLU:543:C:4902, V-B:HIS:456:CE1:9042, V-A:GLY:544:CA:4914, V-A:GLU:543:CB:4906, H-B:TYR:484:OH:9320, V-A:GLU:543:CD:4908, V-A:GLY:544:C:4912, V-A:GLU:543:CG:4907, V-A:HIS:456:CD2:4068, V-A:ILE:369:CG2:3237, H-B:GLU:543:OE2:9882, V-B:ASP:366:CB:8184, V-A:SER:385:CA:3407, V-B:ASP:366:CA:8182, V-B:HIS:456:CD2:9040, H-B:LYS:547:NZ:9923, H-A:LYS:547:NZ:4951, V-A:LYS:547:CE:4950, V-B:HIS:456:CG:9038, H-A:HIS:456:NE2:4071, V-B:HIS:456:CB:9037"]

$$$$
8c_Ghoteimi_2023
     RDKit          3D

 34 38  0  0  0  0  0  0  0  0999 V2000
  133.3650  119.4170   58.9130 C   0  0  0  0  0  0  0  0  0  0  0  0
  132.8460  119.8680   60.1580 O   0  0  0  0  0  0  0  0  0  0  0  0
  132.2020  121.0890   60.2180 C   0  0  0  0  0  0  0  0  0  0  0  0
  133.0040  122.2230   60.1080 C   0  0  0  0  0  0  0  0  0  0  0  0
  132.4410  123.4950   60.1600 C   0  0  0  0  0  0  0  0  0  0  0  0
  131.0590  123.6650   60.3230 C   0  0  0  0  0  0  0  0  0  0  0  0
  130.4480  125.0300   60.3830 C   0  0  0  0  0  0  0  0  0  0  0  0
  131.0260  126.1250   59.7350 C   0  0  0  0  0  0  0  0  0  0  0  0
  130.4330  127.3900   59.8050 C   0  0  0  0  0  0  0  0  0  0  0  0
  131.0750  128.5320   59.1140 C   0  0  0  0  0  0  0  0  0  0  0  0
  131.4930  128.4060   57.7870 C   0  0  0  0  0  0  0  0  0  0  0  0
  132.0880  129.4820   57.1360 C   0  0  0  0  0  0  0  0  0  0  0  0
  132.2760  130.6960   57.7980 C   0  0  0  0  0  0  0  0  0  0  0  0
  132.8720  131.7100   57.0730 O   0  0  0  0  0  0  0  0  0  0  0  0
  132.0570  132.5830   56.3010 C   0  0  0  0  0  0  0  0  0  0  0  0
  131.8590  130.8200   59.1330 C   0  0  0  0  0  0  0  0  0  0  0  0
  131.2640  129.7420   59.7830 C   0  0  0  0  0  0  0  0  0  0  0  0
  129.2290  127.5240   60.5460 C   0  0  0  0  0  0  0  0  0  0  0  0
  128.3700  128.6460   60.8190 C   0  0  0  0  0  0  0  0  0  0  0  0
  128.6300  129.9040   60.3370 N   0  0  0  0  0  0  0  0  0  0  0  0
  127.2570  128.3310   61.6150 C   0  0  0  0  0  0  0  0  0  0  0  0
  126.1870  129.2160   62.0780 C   0  0  0  0  0  0  0  0  0  0  0  0
  125.3940  128.8460   62.9460 O   0  0  0  0  0  0  0  0  0  0  0  0
  126.1450  130.4360   61.4870 N   0  0  0  0  0  0  0  0  0  0  0  0
  125.2400  131.4560   61.7420 C   0  0  0  0  0  0  0  0  0  0  0  0
  124.8170  132.3880   60.9140 N   0  0  0  0  0  0  0  0  0  0  0  0
  123.9530  133.1950   61.4950 C   0  0  0  0  0  0  0  0  0  0  0  0
  123.6570  132.9270   62.8270 C   0  0  0  0  0  0  0  0  0  0  0  0
  124.5680  131.5370   63.3390 S   0  0  0  0  0  0  0  0  0  0  0  0
  127.2460  126.6190   62.0450 S   0  0  0  0  0  0  0  0  0  0  0  0
  128.7280  126.3390   61.1610 C   0  0  0  0  0  0  0  0  0  0  0  0
  129.2940  125.1340   61.0960 N   0  0  0  0  0  0  0  0  0  0  0  0
  130.2580  122.5200   60.4290 C   0  0  0  0  0  0  0  0  0  0  0  0
  130.8180  121.2470   60.3790 C   0  0  0  0  0  0  0  0  0  0  0  0
  1  2  1  0
  2  3  1  0
  3  4  2  0
  4  5  1  0
  5  6  2  0
  6  7  1  0
  7  8  2  0
  8  9  1  0
  9 10  1  0
 10 11  2  0
 11 12  1  0
 12 13  2  0
 13 14  1  0
 14 15  1  0
 13 16  1  0
 16 17  2  0
  9 18  2  0
 18 19  1  0
 19 20  1  0
 19 21  2  0
 21 22  1  0
 22 23  2  0
 22 24  1  0
 24 25  1  0
 25 26  2  0
 26 27  1  0
 27 28  2  0
 28 29  1  0
 21 30  1  0
 30 31  1  0
 31 32  2  0
  6 33  1  0
 33 34  2  0
 34  3  1  0
 32  7  1  0
 17 10  1  0
 31 18  1  0
 29 25  1  0
M  END
>  <Binding energies>  (37) 
[-3.47]

>  <Ligand effiencies>  (37) 
[-0.09378378378378378]

>  <Interactions>  (37) 
["V-B:GLU:543:CD:9880, V-B:TYR:539:CE2:9848, V-A:SER:385:CB:3409, V-A:LEU:475:CD2:4259, V-B:TYR:539:CD2:9846, V-A:LEU:373:CD1:3280, V-B:GLY:453:C:9014, V-B:ILE:369:CD1:8211, V-B:LEU:475:CD2:9231, V-B:GLY:454:CA:9021, H-A:GLU:543:OE1:4909, V-A:ILE:369:CG2:3237, V-A:ASP:366:CG:3213, V-A:ASP:366:CB:3212, H-B:ARG:545:NH2:9900, V-A:PRO:540:CA:4883, V-A:PRO:540:CB:4885, V-A:PRO:540:N:4884, V-A:LEU:363:CD1:3189, V-A:PRO:540:CG:4886, H-A:TYR:531:OH:4795, V-A:SER:385:CA:3407, V-A:SER:385:C:3405, V-A:PRO:540:CD:4887"]

$$$$
8d_Ghoteimi_2023
     RDKit          3D

 30 33  0  0  0  0  0  0  0  0999 V2000
  123.6170  123.5060   58.1210 C   0  0  0  0  0  0  0  0  0  0  0  0
  124.4420  123.4490   56.9660 O   0  0  0  0  0  0  0  0  0  0  0  0
  125.7010  122.9430   57.0340 C   0  0  0  0  0  0  0  0  0  0  0  0
  126.1050  122.0020   56.3470 O   0  0  0  0  0  0  0  0  0  0  0  0
  126.5490  123.6410   58.0250 C   0  0  0  0  0  0  0  0  0  0  0  0
  127.9550  122.8250   58.7100 S   0  0  0  0  0  0  0  0  0  0  0  0
  128.3390  124.2230   59.6870 C   0  0  0  0  0  0  0  0  0  0  0  0
  129.3900  124.2410   60.5070 N   0  0  0  0  0  0  0  0  0  0  0  0
  129.5990  125.3800   61.2210 C   0  0  0  0  0  0  0  0  0  0  0  0
  130.7830  125.3720   62.1360 C   0  0  0  0  0  0  0  0  0  0  0  0
  132.0500  124.9860   61.6780 C   0  0  0  0  0  0  0  0  0  0  0  0
  133.1480  124.9800   62.5330 C   0  0  0  0  0  0  0  0  0  0  0  0
  133.0090  125.3590   63.8680 C   0  0  0  0  0  0  0  0  0  0  0  0
  134.1510  125.3230   64.6430 O   0  0  0  0  0  0  0  0  0  0  0  0
  134.0400  125.0280   66.0320 C   0  0  0  0  0  0  0  0  0  0  0  0
  131.7460  125.7490   64.3360 C   0  0  0  0  0  0  0  0  0  0  0  0
  130.6500  125.7540   63.4770 C   0  0  0  0  0  0  0  0  0  0  0  0
  128.7550  126.4900   61.1190 C   0  0  0  0  0  0  0  0  0  0  0  0
  127.6540  126.4720   60.2570 C   0  0  0  0  0  0  0  0  0  0  0  0
  126.7840  127.6670   60.1650 C   0  0  0  0  0  0  0  0  0  0  0  0
  126.0490  128.0880   61.2760 C   0  0  0  0  0  0  0  0  0  0  0  0
  125.2240  129.2050   61.1860 C   0  0  0  0  0  0  0  0  0  0  0  0
  125.1240  129.9200   59.9920 C   0  0  0  0  0  0  0  0  0  0  0  0
  124.2810  131.0130   59.9960 O   0  0  0  0  0  0  0  0  0  0  0  0
  123.5700  131.3470   58.8100 C   0  0  0  0  0  0  0  0  0  0  0  0
  125.8670  129.4970   58.8770 C   0  0  0  0  0  0  0  0  0  0  0  0
  126.6910  128.3780   58.9680 C   0  0  0  0  0  0  0  0  0  0  0  0
  127.4190  125.2940   59.5000 C   0  0  0  0  0  0  0  0  0  0  0  0
  126.4070  124.9330   58.5450 C   0  0  0  0  0  0  0  0  0  0  0  0
  125.3930  125.7840   58.1860 N   0  0  0  0  0  0  0  0  0  0  0  0
  1  2  1  0
  2  3  1  0
  3  4  2  0
  3  5  1  0
  5  6  1  0
  6  7  1  0
  7  8  2  0
  8  9  1  0
  9 10  1  0
 10 11  2  0
 11 12  1  0
 12 13  2  0
 13 14  1  0
 14 15  1  0
 13 16  1  0
 16 17  2  0
  9 18  2  0
 18 19  1  0
 19 20  1  0
 20 21  2  0
 21 22  1  0
 22 23  2  0
 23 24  1  0
 24 25  1  0
 23 26  1  0
 26 27  2  0
 19 28  2  0
 28 29  1  0
 29 30  1  0
 29  5  2  0
 28  7  1  0
 17 10  1  0
 27 20  1  0
M  END
>  <Binding energies>  (38) 
[-7.0]

>  <Ligand effiencies>  (38) 
[-0.21875]

>  <Interactions>  (38) 
["V-B:PRO:540:CD:9859, V-B:LEU:363:CD1:8161, V-A:ARG:545:CD:4923, V-B:PRO:540:CB:9857, V-A:ARG:545:CZ:4926, V-B:TYR:539:C:9839, V-B:PRO:540:CA:9855, V-B:PRO:540:CG:9858, V-B:PRO:540:N:9856, V-A:TYR:484:CZ:4347, V-A:TYR:484:CE2:4346, V-B:TYR:539:CE2:9848, V-A:ARG:545:CG:4922, V-B:ASP:366:CG:8185, H-A:TYR:484:OH:4348, V-B:TYR:539:CD2:9846, V-A:GLU:543:CD:4908, V-B:ILE:369:CD1:8211, H-A:ARG:545:NH1:4927, V-A:GLY:454:CA:4049, H-A:GLY:454:N:4050, H-A:ARG:545:NH2:4928, H-A:ARG:545:NE:4924, V-A:GLY:453:C:4042, H-B:ASP:366:OD2:8187, V-B:TYR:531:CZ:9766, V-B:ASP:366:CB:8184, H-B:TYR:531:OH:9767, H-B:TYR:539:N:9842, V-A:TYR:539:CE1:4875, V-B:ILE:369:CB:8208, V-B:ASP:366:CA:8182, V-B:ILE:369:CG2:8209, V-A:ILE:455:C:4052, V-B:LEU:363:CA:8157, V-B:LEU:363:CB:8159, V-B:LEU:363:CG:8160"]

$$$$
9a_Ghoteimi_2023
     RDKit          3D

 48 54  0  0  0  0  0  0  0  0999 V2000
  130.6620  117.6810   59.2610 C   0  0  0  0  0  0  0  0  0  0  0  0
  131.7100  118.2840   60.2020 C   0  0  0  0  0  0  0  0  0  0  0  0
  132.8950  118.5700   59.4700 O   0  0  0  0  0  0  0  0  0  0  0  0
  133.2830  119.8500   59.2370 C   0  0  0  0  0  0  0  0  0  0  0  0
  134.0860  120.1680   58.3530 O   0  0  0  0  0  0  0  0  0  0  0  0
  132.6440  120.8430   60.1640 C   0  0  0  0  0  0  0  0  0  0  0  0
  132.3310  122.1230   59.6890 C   0  0  0  0  0  0  0  0  0  0  0  0
  131.7400  123.0660   60.5240 C   0  0  0  0  0  0  0  0  0  0  0  0
  131.4460  122.7500   61.8510 C   0  0  0  0  0  0  0  0  0  0  0  0
  130.8500  123.7810   62.6030 N   0  0  0  0  0  0  0  0  0  0  0  0
  129.5630  123.9470   62.9990 C   0  0  0  0  0  0  0  0  0  0  0  0
  128.6520  123.1600   62.7420 O   0  0  0  0  0  0  0  0  0  0  0  0
  129.3030  125.1560   63.7860 C   0  0  0  0  0  0  0  0  0  0  0  0
  129.7180  125.2100   65.5000 S   0  0  0  0  0  0  0  0  0  0  0  0
  129.1410  126.8540   65.6350 C   0  0  0  0  0  0  0  0  0  0  0  0
  129.2070  127.5260   66.7840 N   0  0  0  0  0  0  0  0  0  0  0  0
  128.7430  128.8040   66.7790 C   0  0  0  0  0  0  0  0  0  0  0  0
  128.8370  129.5410   68.0760 C   0  0  0  0  0  0  0  0  0  0  0  0
  129.8040  129.1910   69.0240 C   0  0  0  0  0  0  0  0  0  0  0  0
  129.9000  129.8740   70.2340 C   0  0  0  0  0  0  0  0  0  0  0  0
  129.0390  130.9410   70.5350 C   0  0  0  0  0  0  0  0  0  0  0  0
  129.1100  131.6230   71.7540 N   0  0  0  0  0  0  0  0  0  0  0  0
  129.9520  132.8250   71.9180 C   0  0  0  0  0  0  0  0  0  0  0  0
  130.1910  133.2220   73.3900 C   0  0  0  0  0  0  0  0  0  0  0  0
  128.9510  133.3750   74.0600 O   0  0  0  0  0  0  0  0  0  0  0  0
  128.2020  132.1690   74.0500 C   0  0  0  0  0  0  0  0  0  0  0  0
  127.9020  131.7480   72.5970 C   0  0  0  0  0  0  0  0  0  0  0  0
  128.0610  131.2770   69.5870 C   0  0  0  0  0  0  0  0  0  0  0  0
  127.9650  130.5930   68.3800 C   0  0  0  0  0  0  0  0  0  0  0  0
  128.1920  129.3930   65.6390 C   0  0  0  0  0  0  0  0  0  0  0  0
  128.1030  128.6840   64.4360 C   0  0  0  0  0  0  0  0  0  0  0  0
  127.4750  129.3450   63.2630 C   0  0  0  0  0  0  0  0  0  0  0  0
  126.3200  128.8160   62.6810 C   0  0  0  0  0  0  0  0  0  0  0  0
  125.7260  129.4440   61.5920 C   0  0  0  0  0  0  0  0  0  0  0  0
  126.2590  130.6320   61.0650 C   0  0  0  0  0  0  0  0  0  0  0  0
  125.6870  131.2740   59.9650 N   0  0  0  0  0  0  0  0  0  0  0  0
  124.2910  131.7470   60.0540 C   0  0  0  0  0  0  0  0  0  0  0  0
  123.9150  132.7540   58.9470 C   0  0  0  0  0  0  0  0  0  0  0  0
  124.1780  132.1930   57.6700 O   0  0  0  0  0  0  0  0  0  0  0  0
  125.5500  131.8640   57.5140 C   0  0  0  0  0  0  0  0  0  0  0  0
  125.9700  130.8340   58.5840 C   0  0  0  0  0  0  0  0  0  0  0  0
  127.4170  131.1560   61.6590 C   0  0  0  0  0  0  0  0  0  0  0  0
  128.0140  130.5250   62.7460 C   0  0  0  0  0  0  0  0  0  0  0  0
  128.6160  127.3560   64.4080 C   0  0  0  0  0  0  0  0  0  0  0  0
  128.7430  126.3710   63.3620 C   0  0  0  0  0  0  0  0  0  0  0  0
  128.3620  126.6170   62.0680 N   0  0  0  0  0  0  0  0  0  0  0  0
  131.7520  121.4690   62.3360 C   0  0  0  0  0  0  0  0  0  0  0  0
  132.3450  120.5270   61.4990 C   0  0  0  0  0  0  0  0  0  0  0  0
  1  2  1  0
  2  3  1  0
  3  4  1  0
  4  5  2  0
  4  6  1  0
  6  7  2  0
  7  8  1  0
  8  9  2  0
  9 10  1  0
 10 11  1  0
 11 12  2  0
 11 13  1  0
 13 14  1  0
 14 15  1  0
 15 16  2  0
 16 17  1  0
 17 18  1  0
 18 19  2  0
 19 20  1  0
 20 21  2  0
 21 22  1  0
 22 23  1  0
 23 24  1  0
 24 25  1  0
 25 26  1  0
 26 27  1  0
 21 28  1  0
 28 29  2  0
 17 30  2  0
 30 31  1  0
 31 32  1  0
 32 33  2  0
 33 34  1  0
 34 35  2  0
 35 36  1  0
 36 37  1  0
 37 38  1  0
 38 39  1  0
 39 40  1  0
 40 41  1  0
 35 42  1  0
 42 43  2  0
 31 44  2  0
 44 45  1  0
 45 46  1  0
  9 47  1  0
 47 48  2  0
 48  6  1  0
 45 13  2  0
 44 15  1  0
 29 18  1  0
 43 32  1  0
 27 22  1  0
 41 36  1  0
M  END
>  <Binding energies>  (39) 
[279.49]

>  <Ligand effiencies>  (39) 
[5.480196078431373]

>  <Interactions>  (39) 
["V-B:TYR:539:C:9839, V-B:GLU:543:CD:9880, V-A:TYR:484:CZ:4347, V-A:TYR:484:CE2:4346, V-B:TYR:539:CE2:9848, V-A:SER:385:CB:3409, V-B:TYR:539:CB:9843, V-A:LEU:475:CD2:4259, H-A:TYR:484:OH:4348, V-B:TYR:539:CA:9841, V-B:TYR:539:CD2:9846, V-A:LEU:475:CG:4257, V-A:LEU:373:CD1:3280, V-A:GLU:543:C:4902, V-B:HIS:456:CE1:9042, V-A:GLY:544:CA:4914, V-A:GLU:543:CB:4906, V-A:GLU:543:CD:4908, V-A:GLU:543:CA:4904, V-A:GLY:544:C:4912, V-B:ILE:369:CD1:8211, V-A:GLU:543:CG:4907, V-B:TYR:484:CZ:9319, V-A:ILE:369:CG2:3237, H-B:GLU:543:OE1:9881, V-B:GLU:543:CG:9879, V-B:TYR:539:CG:9844, V-A:TYR:484:CE1:4345, V-A:TYR:539:CD1:4873, V-A:TYR:539:CE1:4875, V-A:TYR:539:CZ:4877, V-A:SER:385:CA:3407, V-B:TYR:484:CE1:9317, V-B:ILE:369:CB:8208, V-B:ILE:369:CG2:8209, V-B:GLU:543:CB:9878, V-B:HIS:456:CD2:9040, H-A:LYS:547:NZ:4951, V-A:TYR:539:CE2:4876, V-B:TYR:484:CE2:9318, V-A:SER:385:C:3405, V-A:LYS:547:CE:4950, H-A:SER:385:OG:3410, H-A:TYR:539:OH:4878, V-B:HIS:456:CG:9038, V-B:TYR:484:CD2:9316, V-B:TYR:484:CB:9313, V-B:HIS:456:CB:9037, V-B:TYR:484:CG:9314, V-B:TYR:484:CD1:9315"]

$$$$
9b_Ghoteimi_2023
     RDKit          3D

 42 48  0  0  0  0  0  0  0  0999 V2000
  127.4400  128.4790   61.3020 N   0  0  0  0  0  0  0  0  0  0  0  0
  126.9320  128.8280   62.5280 C   0  0  0  0  0  0  0  0  0  0  0  0
  125.7590  129.5810   62.6930 C   0  0  0  0  0  0  0  0  0  0  0  0
  124.8590  130.1070   61.6640 C   0  0  0  0  0  0  0  0  0  0  0  0
  123.7220  130.4850   61.9560 O   0  0  0  0  0  0  0  0  0  0  0  0
  125.3650  130.1360   60.4060 N   0  0  0  0  0  0  0  0  0  0  0  0
  124.7330  130.5700   59.2480 C   0  0  0  0  0  0  0  0  0  0  0  0
  124.7980  129.8780   58.0400 C   0  0  0  0  0  0  0  0  0  0  0  0
  124.0500  130.6240   57.1590 C   0  0  0  0  0  0  0  0  0  0  0  0
  123.5590  131.7090   57.8040 O   0  0  0  0  0  0  0  0  0  0  0  0
  123.9990  131.6640   59.1270 N   0  0  0  0  0  0  0  0  0  0  0  0
  125.4220  129.8690   64.4000 S   0  0  0  0  0  0  0  0  0  0  0  0
  126.8590  128.9980   64.8780 C   0  0  0  0  0  0  0  0  0  0  0  0
  127.2060  128.8740   66.1580 N   0  0  0  0  0  0  0  0  0  0  0  0
  128.3520  128.1930   66.4220 C   0  0  0  0  0  0  0  0  0  0  0  0
  128.7300  128.0860   67.8640 C   0  0  0  0  0  0  0  0  0  0  0  0
  129.5940  129.0160   68.4570 C   0  0  0  0  0  0  0  0  0  0  0  0
  129.9540  128.9030   69.7960 C   0  0  0  0  0  0  0  0  0  0  0  0
  129.4750  127.8490   70.5890 C   0  0  0  0  0  0  0  0  0  0  0  0
  129.8260  127.7240   71.9380 N   0  0  0  0  0  0  0  0  0  0  0  0
  129.2030  128.5700   72.9760 C   0  0  0  0  0  0  0  0  0  0  0  0
  129.4440  128.0690   74.4150 C   0  0  0  0  0  0  0  0  0  0  0  0
  130.8340  127.9190   74.6510 O   0  0  0  0  0  0  0  0  0  0  0  0
  131.4120  126.9750   73.7640 C   0  0  0  0  0  0  0  0  0  0  0  0
  131.2300  127.4380   72.3020 C   0  0  0  0  0  0  0  0  0  0  0  0
  128.5950  126.9330   69.9960 C   0  0  0  0  0  0  0  0  0  0  0  0
  128.2310  127.0470   68.6570 C   0  0  0  0  0  0  0  0  0  0  0  0
  129.1280  127.6170   65.4130 C   0  0  0  0  0  0  0  0  0  0  0  0
  128.7550  127.7270   64.0690 C   0  0  0  0  0  0  0  0  0  0  0  0
  129.5980  127.0720   63.0370 C   0  0  0  0  0  0  0  0  0  0  0  0
  130.1870  125.8330   63.2910 C   0  0  0  0  0  0  0  0  0  0  0  0
  130.9620  125.2070   62.3190 C   0  0  0  0  0  0  0  0  0  0  0  0
  131.1690  125.8040   61.0650 C   0  0  0  0  0  0  0  0  0  0  0  0
  131.9300  125.1860   60.0700 N   0  0  0  0  0  0  0  0  0  0  0  0
  132.0990  125.8600   58.7680 C   0  0  0  0  0  0  0  0  0  0  0  0
  132.6040  124.9150   57.6560 C   0  0  0  0  0  0  0  0  0  0  0  0
  133.8140  124.2930   58.0590 O   0  0  0  0  0  0  0  0  0  0  0  0
  133.6420  123.5270   59.2430 C   0  0  0  0  0  0  0  0  0  0  0  0
  133.1590  124.4340   60.3940 C   0  0  0  0  0  0  0  0  0  0  0  0
  130.5570  127.0410   60.8150 C   0  0  0  0  0  0  0  0  0  0  0  0
  129.7820  127.6670   61.7870 C   0  0  0  0  0  0  0  0  0  0  0  0
  127.5770  128.4670   63.7660 C   0  0  0  0  0  0  0  0  0  0  0  0
  1  2  1  0
  2  3  2  0
  3  4  1  0
  4  5  2  0
  4  6  1  0
  6  7  1  0
  7  8  1  0
  8  9  2  0
  9 10  1  0
 10 11  1  0
  3 12  1  0
 12 13  1  0
 13 14  2  0
 14 15  1  0
 15 16  1  0
 16 17  2  0
 17 18  1  0
 18 19  2  0
 19 20  1  0
 20 21  1  0
 21 22  1  0
 22 23  1  0
 23 24  1  0
 24 25  1  0
 19 26  1  0
 26 27  2  0
 15 28  2  0
 28 29  1  0
 29 30  1  0
 30 31  2  0
 31 32  1  0
 32 33  2  0
 33 34  1  0
 34 35  1  0
 35 36  1  0
 36 37  1  0
 37 38  1  0
 38 39  1  0
 33 40  1  0
 40 41  2  0
 29 42  2  0
 42  2  1  0
 11  7  2  0
 42 13  1  0
 27 16  1  0
 41 30  1  0
 25 20  1  0
 39 34  1  0
M  END
>  <Binding energies>  (40) 
[-4.03]

>  <Ligand effiencies>  (40) 
[-0.08955555555555555]

>  <Interactions>  (40) 
["V-B:GLU:543:CD:9880, V-A:ILE:369:CD1:3239, V-B:TYR:539:CE2:9848, V-A:HIS:456:CE1:4070, V-A:GLU:543:C:4902, V-B:HIS:456:CE1:9042, V-A:GLY:544:CA:4914, V-A:GLU:543:CB:4906, H-B:TYR:484:OH:9320, V-A:GLU:543:CD:4908, V-A:GLU:543:CA:4904, V-A:GLY:544:C:4912, V-A:GLU:543:CG:4907, V-B:TYR:484:CZ:9319, V-A:HIS:456:CG:4066, V-A:HIS:456:CD2:4068, V-A:ILE:369:CG2:3237, V-A:ASP:366:CG:3213, V-A:ASP:366:CB:3212, V-A:ILE:369:CB:3236, V-A:ASP:366:CA:3210, V-B:ASP:366:CB:8184, V-B:TYR:539:CZ:9849, V-A:TYR:539:CE1:4875, V-A:TYR:539:CZ:4877, V-B:ASP:366:C:8180, V-B:ASP:366:CA:8182, V-B:GLU:543:CB:9878, V-B:HIS:456:CD2:9040, H-A:LYS:547:NZ:4951, H-B:TYR:539:OH:9850, H-A:TYR:539:OH:4878, V-A:HIS:456:CB:4065"]

$$$$
9c_Ghoteimi_2023
     RDKit          3D

 42 48  0  0  0  0  0  0  0  0999 V2000
  127.5170  128.5530   61.3370 N   0  0  0  0  0  0  0  0  0  0  0  0
  126.9990  128.8780   62.5650 C   0  0  0  0  0  0  0  0  0  0  0  0
  125.8220  129.6240   62.7340 C   0  0  0  0  0  0  0  0  0  0  0  0
  124.9300  130.1690   61.7060 C   0  0  0  0  0  0  0  0  0  0  0  0
  123.8440  130.6650   62.0120 O   0  0  0  0  0  0  0  0  0  0  0  0
  125.3860  130.0780   60.4320 N   0  0  0  0  0  0  0  0  0  0  0  0
  124.7370  130.5010   59.2810 C   0  0  0  0  0  0  0  0  0  0  0  0
  124.0150  131.5870   59.1130 N   0  0  0  0  0  0  0  0  0  0  0  0
  123.5410  131.6690   57.8840 C   0  0  0  0  0  0  0  0  0  0  0  0
  123.8790  130.6280   57.0230 C   0  0  0  0  0  0  0  0  0  0  0  0
  124.8720  129.4870   57.8800 S   0  0  0  0  0  0  0  0  0  0  0  0
  125.4690  129.8790   64.4420 S   0  0  0  0  0  0  0  0  0  0  0  0
  126.9050  129.0040   64.9170 C   0  0  0  0  0  0  0  0  0  0  0  0
  127.2410  128.8560   66.1970 N   0  0  0  0  0  0  0  0  0  0  0  0
  128.3860  128.1740   66.4590 C   0  0  0  0  0  0  0  0  0  0  0  0
  128.7510  128.0410   67.9020 C   0  0  0  0  0  0  0  0  0  0  0  0
  129.6900  128.8940   68.4940 C   0  0  0  0  0  0  0  0  0  0  0  0
  130.0330  128.7610   69.8350 C   0  0  0  0  0  0  0  0  0  0  0  0
  129.4580  127.7590   70.6340 C   0  0  0  0  0  0  0  0  0  0  0  0
  129.7880  127.6160   71.9860 N   0  0  0  0  0  0  0  0  0  0  0  0
  128.9580  128.2230   73.0480 C   0  0  0  0  0  0  0  0  0  0  0  0
  129.2590  127.6800   74.4610 C   0  0  0  0  0  0  0  0  0  0  0  0
  130.6400  127.8260   74.7510 O   0  0  0  0  0  0  0  0  0  0  0  0
  131.4420  127.1030   73.8320 C   0  0  0  0  0  0  0  0  0  0  0  0
  131.2070  127.6230   72.3970 C   0  0  0  0  0  0  0  0  0  0  0  0
  128.5040  126.9190   70.0410 C   0  0  0  0  0  0  0  0  0  0  0  0
  128.1590  127.0560   68.6990 C   0  0  0  0  0  0  0  0  0  0  0  0
  129.1730  127.6190   65.4460 C   0  0  0  0  0  0  0  0  0  0  0  0
  128.8110  127.7530   64.1010 C   0  0  0  0  0  0  0  0  0  0  0  0
  129.6630  127.1190   63.0640 C   0  0  0  0  0  0  0  0  0  0  0  0
  130.1620  125.8290   63.2540 C   0  0  0  0  0  0  0  0  0  0  0  0
  130.9470  125.2240   62.2760 C   0  0  0  0  0  0  0  0  0  0  0  0
  131.2550  125.8950   61.0830 C   0  0  0  0  0  0  0  0  0  0  0  0
  132.0320  125.3030   60.0820 N   0  0  0  0  0  0  0  0  0  0  0  0
  132.9680  124.2200   60.4440 C   0  0  0  0  0  0  0  0  0  0  0  0
  134.0220  123.9350   59.3510 C   0  0  0  0  0  0  0  0  0  0  0  0
  133.3780  123.6510   58.1180 O   0  0  0  0  0  0  0  0  0  0  0  0
  132.5760  124.7380   57.6830 C   0  0  0  0  0  0  0  0  0  0  0  0
  131.4880  125.0490   58.7340 C   0  0  0  0  0  0  0  0  0  0  0  0
  130.7310  127.1820   60.8940 C   0  0  0  0  0  0  0  0  0  0  0  0
  129.9460  127.7870   61.8710 C   0  0  0  0  0  0  0  0  0  0  0  0
  127.6330  128.4950   63.8010 C   0  0  0  0  0  0  0  0  0  0  0  0
  1  2  1  0
  2  3  2  0
  3  4  1  0
  4  5  2  0
  4  6  1  0
  6  7  1  0
  7  8  2  0
  8  9  1  0
  9 10  2  0
 10 11  1  0
  3 12  1  0
 12 13  1  0
 13 14  2  0
 14 15  1  0
 15 16  1  0
 16 17  2  0
 17 18  1  0
 18 19  2  0
 19 20  1  0
 20 21  1  0
 21 22  1  0
 22 23  1  0
 23 24  1  0
 24 25  1  0
 19 26  1  0
 26 27  2  0
 15 28  2  0
 28 29  1  0
 29 30  1  0
 30 31  2  0
 31 32  1  0
 32 33  2  0
 33 34  1  0
 34 35  1  0
 35 36  1  0
 36 37  1  0
 37 38  1  0
 38 39  1  0
 33 40  1  0
 40 41  2  0
 29 42  2  0
 42  2  1  0
 11  7  1  0
 42 13  1  0
 27 16  1  0
 41 30  1  0
 25 20  1  0
 39 34  1  0
M  END
>  <Binding energies>  (41) 
[-3.49]

>  <Ligand effiencies>  (41) 
[-0.07755555555555556]

>  <Interactions>  (41) 
["V-B:GLU:543:CD:9880, V-A:ILE:369:CD1:3239, V-B:TYR:539:CE2:9848, V-A:HIS:456:CE1:4070, V-B:ASP:366:CG:8185, V-A:GLU:543:C:4902, V-B:HIS:456:CE1:9042, V-A:GLY:544:CA:4914, V-A:GLU:543:CB:4906, H-B:TYR:484:OH:9320, V-A:GLU:543:CD:4908, V-A:GLU:543:CA:4904, V-A:GLY:544:C:4912, V-A:GLU:543:CG:4907, V-B:TYR:484:CZ:9319, V-A:HIS:456:CG:4066, V-A:HIS:456:CD2:4068, V-A:ILE:369:CG2:3237, V-A:ASP:366:CG:3213, V-A:ASP:366:CB:3212, V-A:ILE:369:CB:3236, V-A:ASP:366:CA:3210, V-B:ASP:366:CB:8184, V-A:ILE:369:CG1:3238, V-B:TYR:539:CZ:9849, V-A:TYR:539:CE1:4875, V-A:TYR:539:CZ:4877, V-B:ILE:369:CB:8208, V-B:ASP:366:C:8180, V-B:ASP:366:CA:8182, V-B:ILE:369:CG2:8209, V-B:GLU:543:CB:9878, V-B:HIS:456:CD2:9040, H-A:LYS:547:NZ:4951, H-B:TYR:539:OH:9850"]

$$$$
RR11_Rahimova_2017
     RDKit          3D

 33 38  0  0  0  0  0  0  0  0999 V2000
  133.8690  123.9570   56.9920 N   0  0  0  0  0  0  0  0  0  0  0  0
  133.0230  125.0230   57.2920 C   0  0  0  0  0  0  0  0  0  0  0  0
  132.8670  126.0630   56.3780 C   0  0  0  0  0  0  0  0  0  0  0  0
  132.0200  127.1260   56.6780 C   0  0  0  0  0  0  0  0  0  0  0  0
  131.3220  127.1600   57.8920 C   0  0  0  0  0  0  0  0  0  0  0  0
  130.4050  128.3030   58.2110 C   0  0  0  0  0  0  0  0  0  0  0  0
  129.4590  128.2650   59.1240 N   0  0  0  0  0  0  0  0  0  0  0  0
  128.8790  129.5060   59.0960 C   0  0  0  0  0  0  0  0  0  0  0  0
  127.8250  130.0090   59.8710 C   0  0  0  0  0  0  0  0  0  0  0  0
  127.4200  131.3330   59.6660 C   0  0  0  0  0  0  0  0  0  0  0  0
  126.2730  131.9040   60.4890 C   0  0  0  0  0  0  0  0  0  0  0  0
  125.9900  131.1020   61.7510 C   0  0  0  0  0  0  0  0  0  0  0  0
  124.6700  130.7700   62.0750 C   0  0  0  0  0  0  0  0  0  0  0  0
  124.3610  130.0280   63.2170 C   0  0  0  0  0  0  0  0  0  0  0  0
  125.4160  129.6110   64.0390 C   0  0  0  0  0  0  0  0  0  0  0  0
  125.3770  128.8880   65.2030 N   0  0  0  0  0  0  0  0  0  0  0  0
  126.6310  128.7690   65.5810 C   0  0  0  0  0  0  0  0  0  0  0  0
  127.0790  128.0600   66.8260 C   0  0  0  0  0  0  0  0  0  0  0  0
  126.2120  127.1900   67.4990 C   0  0  0  0  0  0  0  0  0  0  0  0
  126.6240  126.5400   68.6600 C   0  0  0  0  0  0  0  0  0  0  0  0
  127.9070  126.7560   69.1560 C   0  0  0  0  0  0  0  0  0  0  0  0
  128.3190  126.1090   70.3210 N   0  0  0  0  0  0  0  0  0  0  0  0
  128.7810  127.6150   68.4950 C   0  0  0  0  0  0  0  0  0  0  0  0
  128.3690  128.2640   67.3350 C   0  0  0  0  0  0  0  0  0  0  0  0
  127.4960  129.3840   64.7000 N   0  0  0  0  0  0  0  0  0  0  0  0
  126.7470  129.9420   63.6910 C   0  0  0  0  0  0  0  0  0  0  0  0
  127.0630  130.6800   62.5470 C   0  0  0  0  0  0  0  0  0  0  0  0
  128.0370  132.1240   58.6900 C   0  0  0  0  0  0  0  0  0  0  0  0
  129.0860  131.6510   57.8990 C   0  0  0  0  0  0  0  0  0  0  0  0
  129.4920  130.3340   58.1260 C   0  0  0  0  0  0  0  0  0  0  0  0
  130.4620  129.5280   57.5780 N   0  0  0  0  0  0  0  0  0  0  0  0
  131.4890  126.1070   58.8020 C   0  0  0  0  0  0  0  0  0  0  0  0
  132.3360  125.0420   58.5050 C   0  0  0  0  0  0  0  0  0  0  0  0
  1  2  1  0
  2  3  2  0
  3  4  1  0
  4  5  2  0
  5  6  1  0
  6  7  2  0
  7  8  1  0
  8  9  2  0
  9 10  1  0
 10 11  1  0
 11 12  1  0
 12 13  2  0
 13 14  1  0
 14 15  2  0
 15 16  1  0
 16 17  2  0
 17 18  1  0
 18 19  2  0
 19 20  1  0
 20 21  2  0
 21 22  1  0
 21 23  1  0
 23 24  2  0
 17 25  1  0
 25 26  1  0
 26 27  2  0
 10 28  2  0
 28 29  1  0
 29 30  2  0
 30 31  1  0
  5 32  1  0
 32 33  2  0
 33  2  1  0
 31  6  1  0
 30  8  1  0
 27 12  1  0
 26 15  1  0
 24 18  1  0
M  END
>  <Binding energies>  (42) 
[-6.66]

>  <Ligand effiencies>  (42) 
[-0.17076923076923078]

>  <Interactions>  (42) 
["V-B:GLU:543:CD:9880, V-B:TYR:539:CE2:9848, V-A:HIS:456:CE1:4070, V-B:HIS:456:CE1:9042, V-B:ARG:545:CZ:9898, V-A:GLU:543:CB:4906, H-B:TYR:484:OH:9320, V-A:GLU:543:CD:4908, V-A:GLU:543:CG:4907, H-B:ARG:545:NE:9896, V-A:HIS:456:CD2:4068, H-A:GLU:543:OE1:4909, V-A:ILE:369:CG2:3237, H-A:GLU:543:OE2:4910, V-A:ASP:366:CG:3213, V-A:ASP:366:CB:3212, V-A:ILE:369:CB:3236, V-A:ASP:366:C:3208, V-A:ASP:366:CA:3210, V-B:TYR:539:CZ:9849, H-B:ARG:545:NH2:9900, V-B:ARG:545:CG:9894, V-B:ARG:545:CD:9895, H-A:TYR:531:OH:4795, V-A:TYR:539:CD1:4873, V-A:TYR:539:CE1:4875, V-B:GLU:543:CB:9878, V-B:GLU:543:C:9874, H-B:TYR:539:OH:9850, H-B:HIS:456:NE2:9043, V-A:ASN:370:CB:3245, H-A:ASP:366:O:3209, V-B:ARG:545:CA:9891, H-A:HIS:456:NE2:4071, H-B:GLU:543:O:9875, V-A:ASN:370:CA:3243, V-A:ILE:369:C:3232"]

$$$$
RR16_Rahimova_2017
     RDKit          3D

 44 49  0  0  0  0  0  0  0  0999 V2000
  128.9320  131.9280   63.6230 O   0  0  0  0  0  0  0  0  0  0  0  0
  128.0140  132.1130   62.4930 S   0  0  0  0  0  0  0  0  0  0  0  0
  127.4880  133.4420   62.1610 O   0  0  0  0  0  0  0  0  0  0  0  0
  126.6450  131.0270   62.7380 N   0  0  0  0  0  0  0  0  0  0  0  0
  126.7990  129.7680   63.5050 C   0  0  0  0  0  0  0  0  0  0  0  0
  127.5630  130.0640   64.8220 C   0  0  0  0  0  0  0  0  0  0  0  0
  127.7860  128.8860   65.7900 C   0  0  0  0  0  0  0  0  0  0  0  0
  126.4910  128.1720   66.2130 C   0  0  0  0  0  0  0  0  0  0  0  0
  125.2310  129.0530   66.2870 C   0  0  0  0  0  0  0  0  0  0  0  0
  124.6460  129.5390   64.9460 C   0  0  0  0  0  0  0  0  0  0  0  0
  125.4040  129.1210   63.6710 C   0  0  0  0  0  0  0  0  0  0  0  0
  128.8390  131.4690   61.0430 C   0  0  0  0  0  0  0  0  0  0  0  0
  128.1370  130.6930   60.1180 C   0  0  0  0  0  0  0  0  0  0  0  0
  128.8180  130.0970   59.0600 C   0  0  0  0  0  0  0  0  0  0  0  0
  130.1960  130.2800   58.9310 C   0  0  0  0  0  0  0  0  0  0  0  0
  131.0970  129.4020   57.6560 S   0  0  0  0  0  0  0  0  0  0  0  0
  132.4480  129.9750   57.5990 O   0  0  0  0  0  0  0  0  0  0  0  0
  130.2500  129.3790   56.4560 O   0  0  0  0  0  0  0  0  0  0  0  0
  131.2210  127.7440   58.2760 N   0  0  0  0  0  0  0  0  0  0  0  0
  132.0990  126.8520   57.4750 C   0  0  0  0  0  0  0  0  0  0  0  0
  131.9020  125.3810   57.8960 C   0  0  0  0  0  0  0  0  0  0  0  0
  132.0780  125.1910   59.4230 C   0  0  0  0  0  0  0  0  0  0  0  0
  131.8400  123.7460   59.8670 C   0  0  0  0  0  0  0  0  0  0  0  0
  132.8780  122.8080   59.7700 C   0  0  0  0  0  0  0  0  0  0  0  0
  132.7080  121.4820   60.1710 C   0  0  0  0  0  0  0  0  0  0  0  0
  133.7360  120.5800   60.0720 O   0  0  0  0  0  0  0  0  0  0  0  0
  131.4590  121.1000   60.6830 C   0  0  0  0  0  0  0  0  0  0  0  0
  131.0150  119.9010   61.1610 N   0  0  0  0  0  0  0  0  0  0  0  0
  129.7110  120.0760   61.5710 N   0  0  0  0  0  0  0  0  0  0  0  0
  129.3490  121.3470   61.3080 N   0  0  0  0  0  0  0  0  0  0  0  0
  128.0390  121.8360   61.7200 C   0  0  0  0  0  0  0  0  0  0  0  0
  127.5230  122.9550   60.8270 C   0  0  0  0  0  0  0  0  0  0  0  0
  127.1530  124.1840   61.3850 C   0  0  0  0  0  0  0  0  0  0  0  0
  126.7010  125.2190   60.5660 C   0  0  0  0  0  0  0  0  0  0  0  0
  126.6170  125.0320   59.1850 C   0  0  0  0  0  0  0  0  0  0  0  0
  126.9870  123.8100   58.6230 C   0  0  0  0  0  0  0  0  0  0  0  0
  126.8940  123.5790   56.9150 Cl  0  0  0  0  0  0  0  0  0  0  0  0
  127.4360  122.7720   59.4430 C   0  0  0  0  0  0  0  0  0  0  0  0
  130.4140  122.0500   60.7710 C   0  0  0  0  0  0  0  0  0  0  0  0
  130.5820  123.3780   60.3660 C   0  0  0  0  0  0  0  0  0  0  0  0
  131.2500  126.2160   60.2420 C   0  0  0  0  0  0  0  0  0  0  0  0
  131.4600  127.6580   59.7400 C   0  0  0  0  0  0  0  0  0  0  0  0
  130.8900  131.0900   59.8330 C   0  0  0  0  0  0  0  0  0  0  0  0
  130.2100  131.6830   60.8920 C   0  0  0  0  0  0  0  0  0  0  0  0
  1  2  2  0
  2  3  2  0
  2  4  1  0
  4  5  1  0
  5  6  1  0
  6  7  1  0
  7  8  1  0
  8  9  1  0
  9 10  1  0
 10 11  1  0
  2 12  1  0
 12 13  2  0
 13 14  1  0
 14 15  2  0
 15 16  1  0
 16 17  2  0
 16 18  2  0
 16 19  1  0
 19 20  1  0
 20 21  1  0
 21 22  1  0
 22 23  1  0
 23 24  2  0
 24 25  1  0
 25 26  1  0
 25 27  2  0
 27 28  1  0
 28 29  2  0
 29 30  1  0
 30 31  1  0
 31 32  1  0
 32 33  2  0
 33 34  1  0
 34 35  2  0
 35 36  1  0
 36 37  1  0
 36 38  2  0
 30 39  1  0
 39 40  2  0
 22 41  1  0
 41 42  1  0
 15 43  1  0
 43 44  2  0
 11  5  1  0
 44 12  1  0
 42 19  1  0
 40 23  1  0
 39 27  1  0
 38 32  1  0
M  END
>  <Binding energies>  (43) 
[-7.32]

>  <Ligand effiencies>  (43) 
[-0.1525]

>  <Interactions>  (43) 
["V-B:PRO:540:CB:9857, V-B:TYR:539:C:9839, V-B:PRO:540:CA:9855, V-B:PRO:540:N:9856, V-B:GLU:543:CD:9880, V-B:TYR:539:CE2:9848, V-B:PRO:540:C:9853, V-A:LEU:475:CD2:4259, V-B:ALA:541:CA:9862, V-B:TYR:539:CD2:9846, V-B:ALA:541:CB:9864, V-B:HIS:456:CE1:9042, V-B:ARG:545:CZ:9898, V-A:GLU:543:CB:4906, H-B:TYR:484:OH:9320, V-A:GLU:543:CD:4908, V-A:GLU:543:CG:4907, V-B:TYR:484:CZ:9319, V-A:ILE:369:CG2:3237, V-A:ASP:366:CG:3213, V-A:ASP:366:CB:3212, V-B:TYR:539:CZ:9849, V-B:MET:535:CE:9807, V-A:PRO:540:CA:4883, V-B:ARG:545:CG:9894, V-A:ALA:541:CB:4892, V-B:ARG:545:CD:9895, H-A:TYR:531:OH:4795, H-A:SER:385:O:3406, V-B:TYR:484:CE2:9318"]

$$$$
RR18_Rahimova_2017
     RDKit          3D

 36 41  0  0  0  0  0  0  0  0999 V2000
  127.2980  122.7700   58.1050 C   0  0  0  0  0  0  0  0  0  0  0  0
  127.8530  123.5370   59.2790 C   0  0  0  0  0  0  0  0  0  0  0  0
  127.3280  123.9690   60.4860 C   0  0  0  0  0  0  0  0  0  0  0  0
  128.3530  124.6370   61.1550 C   0  0  0  0  0  0  0  0  0  0  0  0
  129.4680  124.5880   60.3340 C   0  0  0  0  0  0  0  0  0  0  0  0
  130.8980  125.1070   60.4590 C   0  0  1  0  0  0  0  0  0  0  0  0
  131.9180  124.1350   59.7950 C   0  0  0  0  0  0  0  0  0  0  0  0
  132.1190  122.7940   60.3350 C   0  0  0  0  0  0  0  0  0  0  0  0
  133.1500  122.4820   60.9340 O   0  0  0  0  0  0  0  0  0  0  0  0
  131.0800  121.9520   60.1300 N   0  0  0  0  0  0  0  0  0  0  0  0
  130.9210  120.5950   60.4830 C   0  0  0  0  0  0  0  0  0  0  0  0
  131.7540  119.5670   60.0070 C   0  0  0  0  0  0  0  0  0  0  0  0
  131.5390  118.2440   60.3890 C   0  0  0  0  0  0  0  0  0  0  0  0
  130.4880  117.9270   61.2440 C   0  0  0  0  0  0  0  0  0  0  0  0
  129.6470  118.9330   61.7140 C   0  0  0  0  0  0  0  0  0  0  0  0
  129.8510  120.2650   61.3400 C   0  0  0  0  0  0  0  0  0  0  0  0
  128.8990  121.3280   61.8790 C   0  0  0  0  0  0  0  0  0  0  0  0
  132.5350  124.5280   58.6500 C   0  0  0  0  0  0  0  0  0  0  0  0
  132.4210  125.7640   58.0910 N   0  0  0  0  0  0  0  0  0  0  0  0
  131.7550  126.6740   58.7010 C   0  0  0  0  0  0  0  0  0  0  0  0
  131.6460  128.3400   58.1850 S   0  0  0  0  0  0  0  0  0  0  0  0
  130.6230  128.7640   59.5930 C   0  0  0  0  0  0  0  0  0  0  0  0
  130.1000  130.0020   59.8990 C   0  0  0  0  0  0  0  0  0  0  0  0
  130.4310  131.1730   59.0740 C   0  0  0  0  0  0  0  0  0  0  0  0
  131.1270  131.2570   58.0620 O   0  0  0  0  0  0  0  0  0  0  0  0
  129.8370  132.2340   59.6290 N   0  0  0  0  0  0  0  0  0  0  0  0
  129.1020  131.9150   60.7300 C   0  0  0  0  0  0  0  0  0  0  0  0
  128.3490  132.7710   61.5330 C   0  0  0  0  0  0  0  0  0  0  0  0
  127.6380  132.2370   62.6040 C   0  0  0  0  0  0  0  0  0  0  0  0
  127.6840  130.8650   62.8470 C   0  0  0  0  0  0  0  0  0  0  0  0
  128.4460  130.0280   62.0280 C   0  0  0  0  0  0  0  0  0  0  0  0
  129.1910  130.5520   60.9550 C   0  0  0  0  0  0  0  0  0  0  0  0
  130.4370  127.5560   60.3970 C   0  0  0  0  0  0  0  0  0  0  0  0
  129.8350  127.4750   61.4630 O   0  0  0  0  0  0  0  0  0  0  0  0
  131.0420  126.4720   59.8390 N   0  0  0  0  0  0  0  0  0  0  0  0
  129.1550  123.9170   59.1930 O   0  0  0  0  0  0  0  0  0  0  0  0
  1  2  1  0
  2  3  2  0
  3  4  1  0
  4  5  2  0
  6  5  1  6
  6  7  1  0
  7  8  1  0
  8  9  2  0
  8 10  1  0
 10 11  1  0
 11 12  2  0
 12 13  1  0
 13 14  2  0
 14 15  1  0
 15 16  2  0
 16 17  1  0
  7 18  2  0
 18 19  1  0
 19 20  2  0
 20 21  1  0
 21 22  1  0
 22 23  2  0
 23 24  1  0
 24 25  2  0
 24 26  1  0
 26 27  1  0
 27 28  2  0
 28 29  1  0
 29 30  2  0
 30 31  1  0
 31 32  2  0
 22 33  1  0
 33 34  2  0
 33 35  1  0
  5 36  1  0
 36  2  1  0
 35  6  1  0
 16 11  1  0
 35 20  1  0
 32 23  1  0
 32 27  1  0
M  END
>  <Binding energies>  (44) 
[-7.9]

>  <Ligand effiencies>  (44) 
[-0.20789473684210527]

>  <Interactions>  (44) 
["V-B:TYR:539:C:9839, V-B:PRO:540:CA:9855, V-B:PRO:540:N:9856, V-B:TYR:539:CE2:9848, V-B:PRO:540:C:9853, H-B:TYR:539:O:9840, V-A:SER:385:CB:3409, V-A:PRO:482:CG:4327, V-A:PRO:482:CB:4326, V-A:LEU:475:CD2:4259, V-B:ALA:541:CA:9862, V-B:TYR:539:CD2:9846, V-A:LEU:475:CD1:4258, V-A:LEU:475:CG:4257, V-B:ALA:541:CB:9864, V-A:GLU:543:CD:4908, V-A:ASP:366:CG:3213, V-A:ASP:366:CB:3212, V-A:PRO:540:CA:4883, V-A:PRO:540:N:4884, V-A:PRO:540:C:4881, V-A:ALA:541:CB:4892, V-A:TYR:539:C:4867, H-A:TYR:539:O:4868, H-B:TYR:539:OH:9850"]

$$$$
RR20_Rahimova_2017
     RDKit          3D

 38 43  0  0  0  0  0  0  0  0999 V2000
  128.8730  127.3060   68.7230 C   0  0  0  0  0  0  0  0  0  0  0  0
  127.9520  127.8130   67.6280 C   0  0  0  0  0  0  0  0  0  0  0  0
  126.6620  127.2960   67.5120 C   0  0  0  0  0  0  0  0  0  0  0  0
  125.8120  127.7660   66.5140 C   0  0  0  0  0  0  0  0  0  0  0  0
  126.2500  128.7460   65.6160 C   0  0  0  0  0  0  0  0  0  0  0  0
  125.3040  129.2580   64.5520 C   0  0  0  0  0  0  0  0  0  0  0  0
  124.3780  129.9880   64.9140 O   0  0  0  0  0  0  0  0  0  0  0  0
  125.5140  128.9110   63.2480 N   0  0  0  0  0  0  0  0  0  0  0  0
  124.7510  129.5320   62.1520 C   0  0  0  0  0  0  0  0  0  0  0  0
  125.3600  129.0160   60.8600 C   0  0  0  0  0  0  0  0  0  0  0  0
  126.6650  128.4350   61.3150 C   0  0  0  0  0  0  0  0  0  0  0  0
  127.6970  127.8890   60.5520 C   0  0  0  0  0  0  0  0  0  0  0  0
  128.7760  127.2430   61.1690 C   0  0  0  0  0  0  0  0  0  0  0  0
  129.8930  126.6620   60.3480 C   0  0  0  0  0  0  0  0  0  0  0  0
  130.3700  125.4740   60.6860 N   0  0  0  0  0  0  0  0  0  0  0  0
  131.3240  125.0580   59.8930 C   0  0  0  0  0  0  0  0  0  0  0  0
  132.0300  123.8670   59.9570 N   0  0  0  0  0  0  0  0  0  0  0  0
  132.8730  123.4720   60.9430 C   0  0  0  0  0  0  0  0  0  0  0  0
  133.1120  124.1370   61.9530 O   0  0  0  0  0  0  0  0  0  0  0  0
  133.5580  122.0920   60.8040 C   0  0  0  0  0  0  0  0  0  0  0  0
  132.6190  120.9650   60.9550 N   0  0  0  0  0  0  0  0  0  0  0  0
  131.2290  121.4120   61.1290 C   0  0  0  0  0  0  0  0  0  0  0  0
  130.3360  120.2220   61.5470 C   0  0  0  0  0  0  0  0  0  0  0  0
  130.5820  118.9670   60.7080 C   0  0  0  0  0  0  0  0  0  0  0  0
  129.6960  117.8850   60.7540 C   0  0  0  0  0  0  0  0  0  0  0  0
  129.9400  116.7270   60.0200 C   0  0  0  0  0  0  0  0  0  0  0  0
  131.0790  116.6390   59.2250 C   0  0  0  0  0  0  0  0  0  0  0  0
  131.9640  117.7130   59.1630 C   0  0  0  0  0  0  0  0  0  0  0  0
  131.7310  118.8810   59.8970 C   0  0  0  0  0  0  0  0  0  0  0  0
  132.6720  120.0810   59.7840 C   0  0  0  0  0  0  0  0  0  0  0  0
  131.7260  126.1540   58.6290 S   0  0  0  0  0  0  0  0  0  0  0  0
  130.5130  127.2590   59.2300 C   0  0  0  0  0  0  0  0  0  0  0  0
  130.3060  128.6040   58.5680 C   0  0  0  0  0  0  0  0  0  0  0  0
  128.7650  127.1090   62.5660 C   0  0  0  0  0  0  0  0  0  0  0  0
  127.7240  127.6370   63.3300 C   0  0  0  0  0  0  0  0  0  0  0  0
  126.6950  128.3550   62.7070 C   0  0  0  0  0  0  0  0  0  0  0  0
  127.5370  129.2810   65.7570 C   0  0  0  0  0  0  0  0  0  0  0  0
  128.3870  128.8130   66.7560 C   0  0  0  0  0  0  0  0  0  0  0  0
  1  2  1  0
  2  3  2  0
  3  4  1  0
  4  5  2  0
  5  6  1  0
  6  7  2  0
  6  8  1  0
  8  9  1  0
  9 10  1  0
 10 11  1  0
 11 12  2  0
 12 13  1  0
 13 14  1  0
 14 15  1  0
 15 16  2  0
 16 17  1  0
 17 18  1  0
 18 19  2  0
 18 20  1  0
 20 21  1  0
 21 22  1  0
 22 23  1  0
 23 24  1  0
 24 25  2  0
 25 26  1  0
 26 27  2  0
 27 28  1  0
 28 29  2  0
 29 30  1  0
 16 31  1  0
 31 32  1  0
 32 33  1  0
 13 34  2  0
 34 35  1  0
 35 36  2  0
  5 37  1  0
 37 38  2  0
 38  2  1  0
 36  8  1  0
 36 11  1  0
 32 14  2  0
 30 21  1  0
 29 24  1  0
M  END
>  <Binding energies>  (45) 
[-9.19]

>  <Ligand effiencies>  (45) 
[-0.23564102564102563]

>  <Interactions>  (45) 
["V-B:TYR:539:C:9839, V-B:GLU:543:CD:9880, V-A:ILE:369:CD1:3239, V-B:TYR:539:CE2:9848, V-A:HIS:456:CE1:4070, V-A:SER:385:CB:3409, V-B:ASP:366:CG:8185, V-A:HIS:383:CE1:3394, V-A:PRO:482:CG:4327, V-A:PRO:482:CB:4326, V-B:TYR:539:CB:9843, V-A:LEU:475:CD2:4259, H-A:TYR:484:OH:4348, V-B:TYR:539:CD2:9846, V-A:LEU:475:CD1:4258, V-B:ALA:541:CB:9864, V-A:LEU:373:CD1:3280, V-B:HIS:456:CE1:9042, V-B:ARG:545:CZ:9898, V-A:GLU:543:CB:4906, H-B:TYR:484:OH:9320, V-A:GLU:543:CD:4908, V-A:GLU:543:CG:4907, V-B:TYR:484:CZ:9319, H-B:GLY:454:N:9022, H-A:GLY:454:N:4050, V-A:ILE:369:CG2:3237, V-A:ASP:366:CG:3213, V-A:ASP:366:CB:3212, V-B:ARG:545:CG:9894, V-B:ARG:545:CD:9895, V-B:GLU:543:CB:9878"]

$$$$
RR21_Rahimova_2017
     RDKit          3D

 40 45  0  0  0  0  0  0  0  0999 V2000
  132.4610  125.3970   57.0280 C   0  0  0  0  0  0  0  0  0  0  0  0
  131.3710  126.1370   56.4870 O   0  0  0  0  0  0  0  0  0  0  0  0
  130.4080  126.6430   57.3390 C   0  0  0  0  0  0  0  0  0  0  0  0
  130.5890  127.7730   58.1540 C   0  0  0  0  0  0  0  0  0  0  0  0
  129.5640  128.2210   58.9860 C   0  0  0  0  0  0  0  0  0  0  0  0
  128.3320  127.5570   59.0230 C   0  0  0  0  0  0  0  0  0  0  0  0
  127.2310  128.0430   59.9130 C   0  0  0  0  0  0  0  0  0  0  0  0
  126.9060  129.3210   59.9170 N   0  0  0  0  0  0  0  0  0  0  0  0
  125.9020  129.4620   60.7950 N   0  0  0  0  0  0  0  0  0  0  0  0
  125.2950  130.7220   61.0320 C   0  0  0  0  0  0  0  0  0  0  0  0
  125.5000  131.4030   62.2420 C   0  0  0  0  0  0  0  0  0  0  0  0
  124.9030  132.6410   62.4600 C   0  0  0  0  0  0  0  0  0  0  0  0
  124.0980  133.2030   61.4710 C   0  0  0  0  0  0  0  0  0  0  0  0
  123.8830  132.5370   60.2670 C   0  0  0  0  0  0  0  0  0  0  0  0
  124.4790  131.2980   60.0460 C   0  0  0  0  0  0  0  0  0  0  0  0
  125.5780  128.2460   61.3430 C   0  0  0  0  0  0  0  0  0  0  0  0
  126.4310  127.2930   60.8060 C   0  0  0  0  0  0  0  0  0  0  0  0
  126.4410  125.8580   61.0470 C   0  0  0  0  0  0  0  0  0  0  0  0
  127.5100  125.0380   61.1750 C   0  0  0  0  0  0  0  0  0  0  0  0
  129.2320  125.4660   61.0780 S   0  0  0  0  0  0  0  0  0  0  0  0
  129.6520  123.7890   61.3960 C   0  0  0  0  0  0  0  0  0  0  0  0
  130.8370  123.2720   61.5040 N   0  0  0  0  0  0  0  0  0  0  0  0
  131.0400  121.8920   61.7770 C   0  0  0  0  0  0  0  0  0  0  0  0
  132.1260  121.3300   61.9150 O   0  0  0  0  0  0  0  0  0  0  0  0
  129.7650  121.1040   61.9070 C   0  0  0  0  0  0  0  0  0  0  0  0
  129.8590  119.5980   62.1820 C   0  0  0  0  0  0  0  0  0  0  0  0
  130.3810  118.7750   61.0060 C   0  0  0  0  0  0  0  0  0  0  0  0
  131.4700  119.2330   60.2600 C   0  0  0  0  0  0  0  0  0  0  0  0
  131.9570  118.4740   59.1990 C   0  0  0  0  0  0  0  0  0  0  0  0
  131.3580  117.2540   58.8820 C   0  0  0  0  0  0  0  0  0  0  0  0
  131.9000  116.4250   57.7320 C   0  0  0  0  0  0  0  0  0  0  0  0
  130.2760  116.7880   59.6330 C   0  0  0  0  0  0  0  0  0  0  0  0
  129.7890  117.5470   60.6940 C   0  0  0  0  0  0  0  0  0  0  0  0
  128.5900  121.6320   61.7900 N   0  0  0  0  0  0  0  0  0  0  0  0
  128.5350  123.0070   61.5320 N   0  0  0  0  0  0  0  0  0  0  0  0
  127.3280  123.6140   61.4200 C   0  0  0  0  0  0  0  0  0  0  0  0
  126.2380  123.0380   61.5180 O   0  0  0  0  0  0  0  0  0  0  0  0
  128.1530  126.4280   58.2170 C   0  0  0  0  0  0  0  0  0  0  0  0
  129.1780  125.9780   57.3840 C   0  0  0  0  0  0  0  0  0  0  0  0
  128.9720  124.8830   56.6160 F   0  0  0  0  0  0  0  0  0  0  0  0
  1  2  1  0
  2  3  1  0
  3  4  2  0
  4  5  1  0
  5  6  2  0
  6  7  1  0
  7  8  2  0
  8  9  1  0
  9 10  1  0
 10 11  2  0
 11 12  1  0
 12 13  2  0
 13 14  1  0
 14 15  2  0
  9 16  1  0
 16 17  2  0
 17 18  1  0
 18 19  2  0
 19 20  1  0
 20 21  1  0
 21 22  2  0
 22 23  1  0
 23 24  2  0
 23 25  1  0
 25 26  1  0
 26 27  1  0
 27 28  2  0
 28 29  1  0
 29 30  2  0
 30 31  1  0
 30 32  1  0
 32 33  2  0
 25 34  2  0
 34 35  1  0
 35 36  1  0
 36 37  2  0
  6 38  1  0
 38 39  2  0
 39 40  1  0
 39  3  1  0
 17  7  1  0
 36 19  1  0
 15 10  1  0
 35 21  1  0
 33 27  1  0
M  END
>  <Binding energies>  (46) 
[-7.88]

>  <Ligand effiencies>  (46) 
[-0.197]

>  <Interactions>  (46) 
["V-B:TYR:539:C:9839, V-B:GLU:543:CD:9880, V-B:TYR:539:CE2:9848, H-B:ALA:541:N:9863, V-A:SER:385:CB:3409, V-B:ASP:366:CG:8185, V-A:HIS:383:CE1:3394, V-A:PRO:482:CG:4327, V-A:PRO:482:CB:4326, V-B:TYR:539:CB:9843, V-A:LEU:475:CD2:4259, H-A:TYR:484:OH:4348, V-B:TYR:539:CD2:9846, V-A:LEU:475:CD1:4258, V-A:LEU:475:CG:4257, V-B:ALA:541:CB:9864, V-A:LEU:373:CD1:3280, V-A:LEU:373:CD2:3281, V-B:ILE:369:CD1:8211, V-B:LEU:475:CD2:9231, V-B:GLY:454:CA:9021, V-A:ASP:366:CB:3212, V-B:TYR:539:CG:9844, V-A:TYR:484:CE1:4345, V-B:TYR:539:CZ:9849, V-B:MET:535:CE:9807, V-B:ILE:369:CB:8208, V-B:ILE:369:CG2:8209, H-B:TYR:539:OH:9850, V-A:LEU:373:CG:3279, V-B:ILE:343:CG2:7964"]

$$$$
RR23_Rahimova_2017
     RDKit          3D

 39 44  0  0  0  0  0  0  0  0999 V2000
  124.6160  129.3700   65.6100 C   0  0  0  0  0  0  0  0  0  0  0  0
  124.9960  129.7420   64.1890 C   0  0  0  0  0  0  0  0  0  0  0  0
  124.0020  129.9750   63.2380 C   0  0  0  0  0  0  0  0  0  0  0  0
  124.3510  130.3250   61.9360 C   0  0  0  0  0  0  0  0  0  0  0  0
  125.6980  130.4350   61.5720 C   0  0  0  0  0  0  0  0  0  0  0  0
  126.0560  130.8370   60.1590 C   0  0  0  0  0  0  0  0  0  0  0  0
  126.4720  131.9840   59.9800 O   0  0  0  0  0  0  0  0  0  0  0  0
  125.9240  129.9260   59.1490 N   0  0  0  0  0  0  0  0  0  0  0  0
  125.9860  130.3310   57.7350 C   0  0  0  0  0  0  0  0  0  0  0  0
  125.9490  129.0470   56.9220 C   0  0  0  0  0  0  0  0  0  0  0  0
  126.2500  127.9950   57.9460 C   0  0  0  0  0  0  0  0  0  0  0  0
  126.4360  126.6230   57.7680 C   0  0  0  0  0  0  0  0  0  0  0  0
  126.5500  125.7730   58.8780 C   0  0  0  0  0  0  0  0  0  0  0  0
  126.7560  124.2580   58.7280 C   0  0  2  0  0  0  0  0  0  0  0  0
  127.2840  123.6560   59.9330 N   0  0  0  0  0  0  0  0  0  0  0  0
  128.0350  122.6620   59.6760 C   0  0  0  0  0  0  0  0  0  0  0  0
  128.7190  121.8790   60.5530 N   0  0  0  0  0  0  0  0  0  0  0  0
  128.8770  122.0490   61.8880 C   0  0  0  0  0  0  0  0  0  0  0  0
  128.3750  122.9540   62.5590 O   0  0  0  0  0  0  0  0  0  0  0  0
  129.7670  121.0090   62.5880 C   0  0  0  0  0  0  0  0  0  0  0  0
  129.9860  119.8660   61.6740 N   0  0  0  0  0  0  0  0  0  0  0  0
  129.1120  118.7980   61.8340 N   0  0  0  0  0  0  0  0  0  0  0  0
  129.1990  117.7370   61.0980 N   0  0  0  0  0  0  0  0  0  0  0  0
  130.1890  117.6520   60.1150 C   0  0  0  0  0  0  0  0  0  0  0  0
  130.2560  116.4930   59.3390 C   0  0  0  0  0  0  0  0  0  0  0  0
  131.2340  116.3790   58.3490 C   0  0  0  0  0  0  0  0  0  0  0  0
  132.1420  117.4180   58.1360 C   0  0  0  0  0  0  0  0  0  0  0  0
  132.0770  118.5780   58.9110 C   0  0  0  0  0  0  0  0  0  0  0  0
  131.0950  118.6930   59.9020 C   0  0  0  0  0  0  0  0  0  0  0  0
  131.0090  119.9370   60.7540 C   0  0  0  0  0  0  0  0  0  0  0  0
  131.7760  120.8990   60.6440 O   0  0  0  0  0  0  0  0  0  0  0  0
  128.2490  122.2310   57.9550 S   0  0  0  0  0  0  0  0  0  0  0  0
  127.6010  123.8500   57.4990 C   0  0  2  0  0  0  0  0  0  0  0  0
  128.7790  124.7760   57.1300 C   0  0  0  0  0  0  0  0  0  0  0  0
  126.4270  126.3180   60.1620 C   0  0  0  0  0  0  0  0  0  0  0  0
  126.2200  127.6870   60.3400 C   0  0  0  0  0  0  0  0  0  0  0  0
  126.1870  128.5400   59.2290 C   0  0  0  0  0  0  0  0  0  0  0  0
  126.6910  130.2270   62.5390 C   0  0  0  0  0  0  0  0  0  0  0  0
  126.3410  129.8780   63.8400 C   0  0  0  0  0  0  0  0  0  0  0  0
  1  2  1  0
  2  3  2  0
  3  4  1  0
  4  5  2  0
  5  6  1  0
  6  7  2  0
  6  8  1  0
  8  9  1  0
  9 10  1  0
 10 11  1  0
 11 12  2  0
 12 13  1  0
 14 13  1  1
 14 15  1  0
 15 16  2  0
 16 17  1  0
 17 18  1  0
 18 19  2  0
 18 20  1  0
 20 21  1  0
 21 22  1  0
 22 23  2  0
 23 24  1  0
 24 25  2  0
 25 26  1  0
 26 27  2  0
 27 28  1  0
 28 29  2  0
 29 30  1  0
 30 31  2  0
 16 32  1  0
 32 33  1  0
 33 34  1  1
 13 35  2  0
 35 36  1  0
 36 37  2  0
  5 38  1  0
 38 39  2  0
 39  2  1  0
 37  8  1  0
 37 11  1  0
 33 14  1  0
 30 21  1  0
 29 24  1  0
M  END
>  <Binding energies>  (47) 
[-9.11]

>  <Ligand effiencies>  (47) 
[-0.22774999999999998]

>  <Interactions>  (47) 
["V-B:TYR:539:C:9839, V-B:PRO:540:CA:9855, V-B:PRO:540:N:9856, V-A:TYR:484:CZ:4347, V-B:TYR:539:CE2:9848, H-B:ALA:541:N:9863, H-B:TYR:539:O:9840, V-A:SER:385:CB:3409, V-B:VAL:344:CG1:7973, V-B:ASP:366:CG:8185, V-A:HIS:383:CE1:3394, V-A:PRO:482:CG:4327, V-A:PRO:482:CB:4326, V-B:TYR:539:CB:9843, V-A:LEU:475:CD2:4259, H-A:TYR:484:OH:4348, V-B:TYR:539:CD2:9846, V-A:LEU:475:CD1:4258, V-B:ALA:541:CB:9864, V-A:LEU:373:CD1:3280, V-A:LEU:373:CD2:3281, V-B:ARG:545:CZ:9898, V-B:GLY:453:C:9014, V-B:TYR:484:CZ:9319, V-B:TYR:531:CZ:9766, V-B:TYR:539:CG:9844, V-A:TYR:484:CE1:4345, V-B:TYR:539:CZ:9849, V-B:MET:535:CE:9807, V-B:ARG:545:CD:9895, V-A:TYR:539:CE1:4875, V-B:TYR:531:CE1:9764, V-B:GLY:453:CA:9016, V-A:LEU:373:CG:3279, V-B:ILE:343:CG2:7964"]

$$$$
RR26_Rahimova_2017
     RDKit          3D

 38 44  0  0  0  0  0  0  0  0999 V2000
  128.8090  118.4830   61.8760 C   0  0  0  0  0  0  0  0  0  0  0  0
  130.0000  118.2230   60.9630 C   0  0  0  0  0  0  0  0  0  0  0  0
  130.3810  116.8970   60.7310 C   0  0  0  0  0  0  0  0  0  0  0  0
  131.4370  116.5990   59.8730 C   0  0  0  0  0  0  0  0  0  0  0  0
  132.1210  117.6280   59.2330 C   0  0  0  0  0  0  0  0  0  0  0  0
  131.7510  118.9530   59.4550 C   0  0  0  0  0  0  0  0  0  0  0  0
  130.6950  119.2720   60.3220 C   0  0  0  0  0  0  0  0  0  0  0  0
  130.3720  120.7250   60.5180 C   0  0  0  0  0  0  0  0  0  0  0  0
  131.2590  121.6890   60.2850 N   0  0  0  0  0  0  0  0  0  0  0  0
  130.5710  122.7630   60.5640 C   0  0  0  0  0  0  0  0  0  0  0  0
  130.8740  124.4610   60.5660 S   0  0  0  0  0  0  0  0  0  0  0  0
  129.1770  124.7400   61.1100 C   0  0  0  0  0  0  0  0  0  0  0  0
  128.5760  125.9220   61.3720 C   0  0  0  0  0  0  0  0  0  0  0  0
  129.1430  127.2570   61.2730 C   0  0  0  0  0  0  0  0  0  0  0  0
  130.3010  127.6500   60.6210 C   0  0  0  0  0  0  0  0  0  0  0  0
  130.4220  129.0100   60.7560 N   0  0  0  0  0  0  0  0  0  0  0  0
  131.4430  129.8560   60.2510 C   0  0  0  0  0  0  0  0  0  0  0  0
  132.2010  130.6610   61.1130 C   0  0  0  0  0  0  0  0  0  0  0  0
  133.1980  131.4890   60.6040 C   0  0  0  0  0  0  0  0  0  0  0  0
  133.4430  131.5120   59.2330 C   0  0  0  0  0  0  0  0  0  0  0  0
  132.6990  130.7140   58.3660 C   0  0  0  0  0  0  0  0  0  0  0  0
  131.7000  129.8880   58.8720 C   0  0  0  0  0  0  0  0  0  0  0  0
  129.3790  129.5040   61.4410 N   0  0  0  0  0  0  0  0  0  0  0  0
  128.6160  128.4760   61.7580 C   0  0  0  0  0  0  0  0  0  0  0  0
  127.3600  128.6940   62.5440 C   0  0  0  0  0  0  0  0  0  0  0  0
  126.1500  128.9680   61.8880 C   0  0  0  0  0  0  0  0  0  0  0  0
  124.9750  129.1760   62.6110 C   0  0  0  0  0  0  0  0  0  0  0  0
  125.0010  129.1130   64.0030 C   0  0  0  0  0  0  0  0  0  0  0  0
  126.2010  128.8220   64.6700 C   0  0  0  0  0  0  0  0  0  0  0  0
  127.3740  128.6210   63.9450 C   0  0  0  0  0  0  0  0  0  0  0  0
  126.2830  128.7940   66.0480 O   0  0  0  0  0  0  0  0  0  0  0  0
  125.0220  128.6400   66.7070 C   0  0  0  0  0  0  0  0  0  0  0  0
  123.9600  129.5690   66.0710 C   0  0  0  0  0  0  0  0  0  0  0  0
  123.8080  129.2770   64.6770 O   0  0  0  0  0  0  0  0  0  0  0  0
  128.4360  123.4940   61.2770 C   0  0  0  0  0  0  0  0  0  0  0  0
  127.2700  123.3250   61.6370 O   0  0  0  0  0  0  0  0  0  0  0  0
  129.3170  122.4540   60.9410 N   0  0  0  0  0  0  0  0  0  0  0  0
  129.1730  121.1270   60.9100 N   0  0  0  0  0  0  0  0  0  0  0  0
  1  2  1  0
  2  3  2  0
  3  4  1  0
  4  5  2  0
  5  6  1  0
  6  7  2  0
  7  8  1  0
  8  9  1  0
  9 10  2  0
 10 11  1  0
 11 12  1  0
 12 13  2  0
 13 14  1  0
 14 15  2  0
 15 16  1  0
 16 17  1  0
 17 18  2  0
 18 19  1  0
 19 20  2  0
 20 21  1  0
 21 22  2  0
 16 23  1  0
 23 24  2  0
 24 25  1  0
 25 26  2  0
 26 27  1  0
 27 28  2  0
 28 29  1  0
 29 30  2  0
 29 31  1  0
 31 32  1  0
 32 33  1  0
 33 34  1  0
 12 35  1  0
 35 36  2  0
 35 37  1  0
 37 38  1  0
  7  2  1  0
 38  8  2  0
 37 10  1  0
 24 14  1  0
 30 25  1  0
 22 17  1  0
 34 28  1  0
M  END
>  <Binding energies>  (48) 
[-7.35]

>  <Ligand effiencies>  (48) 
[-0.19342105263157894]

>  <Interactions>  (48) 
["V-B:TYR:539:C:9839, V-B:GLU:543:CD:9880, V-B:TYR:539:CE2:9848, V-B:PRO:540:C:9853, V-A:SER:385:CB:3409, V-B:ASP:366:CG:8185, V-A:HIS:383:CE1:3394, V-A:PRO:482:CG:4327, V-A:PRO:482:CB:4326, V-B:TYR:539:CB:9843, V-A:LEU:475:CD2:4259, V-B:ALA:541:CA:9862, V-B:TYR:539:CD2:9846, V-A:LEU:475:CD1:4258, V-B:ALA:541:CB:9864, V-A:LEU:373:CD1:3280, V-B:HIS:456:CE1:9042, V-B:ARG:545:CZ:9898, H-B:TYR:484:OH:9320, V-A:GLU:543:CD:4908, V-B:GLY:453:C:9014, H-B:ARG:545:NE:9896, V-B:TYR:484:CZ:9319, H-B:GLY:454:N:9022, V-B:GLY:454:CA:9021, V-A:ASP:366:CG:3213, V-A:ASP:366:CB:3212, V-B:TYR:539:CG:9844, H-B:ARG:545:NH2:9900, V-A:PRO:540:CA:4883, V-A:PRO:540:CB:4885, V-B:ARG:545:CG:9894, V-A:ASN:362:CB:3176, V-B:ARG:545:CD:9895, V-A:LEU:363:CA:3185, H-B:ARG:545:NH1:9899, V-B:GLY:453:CA:9016"]

$$$$
RR2_Rahimova_2017
     RDKit          3D

 46 50  0  0  0  0  0  0  0  0999 V2000
  129.8680  120.8020   61.4080 C   0  0  0  0  0  0  0  0  0  0  0  0
  129.8430  121.8280   62.3940 O   0  0  0  0  0  0  0  0  0  0  0  0
  129.1730  123.0070   62.1250 C   0  0  0  0  0  0  0  0  0  0  0  0
  129.6660  124.2840   62.4270 C   0  0  0  0  0  0  0  0  0  0  0  0
  128.9170  125.4160   62.1210 C   0  0  0  0  0  0  0  0  0  0  0  0
  127.6600  125.3010   61.5100 C   0  0  0  0  0  0  0  0  0  0  0  0
  126.8610  126.5500   61.1940 C   0  0  0  0  0  0  0  0  0  0  0  0
  126.1280  127.0550   62.0510 O   0  0  0  0  0  0  0  0  0  0  0  0
  127.0010  127.0380   59.9390 N   0  0  0  0  0  0  0  0  0  0  0  0
  126.2210  128.1270   59.5670 N   0  0  0  0  0  0  0  0  0  0  0  0
  126.1790  128.4660   58.2630 C   0  0  0  0  0  0  0  0  0  0  0  0
  126.9180  128.0020   57.3890 O   0  0  0  0  0  0  0  0  0  0  0  0
  125.1050  129.4930   57.8810 C   0  0  0  0  0  0  0  0  0  0  0  0
  125.1320  131.0420   58.8550 S   0  0  0  0  0  0  0  0  0  0  0  0
  125.0660  130.3940   60.4980 C   0  0  0  0  0  0  0  0  0  0  0  0
  123.9700  129.9220   61.0360 N   0  0  0  0  0  0  0  0  0  0  0  0
  124.2650  129.5710   62.3450 N   0  0  0  0  0  0  0  0  0  0  0  0
  125.5390  129.8170   62.5420 C   0  0  0  0  0  0  0  0  0  0  0  0
  126.2370  129.5520   63.8360 C   0  0  0  0  0  0  0  0  0  0  0  0
  127.4910  130.1190   64.0780 C   0  0  0  0  0  0  0  0  0  0  0  0
  128.1520  129.8710   65.2770 C   0  0  0  0  0  0  0  0  0  0  0  0
  127.5570  129.0650   66.2550 C   0  0  0  0  0  0  0  0  0  0  0  0
  128.1810  128.7730   67.4770 N   0  0  0  0  0  0  0  0  0  0  0  0
  128.3950  127.1370   68.1380 S   0  0  0  0  0  0  0  0  0  0  0  0
  129.4800  126.5260   67.3620 O   0  0  0  0  0  0  0  0  0  0  0  0
  127.0740  126.5010   68.2150 O   0  0  0  0  0  0  0  0  0  0  0  0
  129.0220  127.3810   69.7980 C   0  0  0  0  0  0  0  0  0  0  0  0
  130.1360  128.1930   70.0260 C   0  0  0  0  0  0  0  0  0  0  0  0
  130.6170  128.3570   71.3220 C   0  0  0  0  0  0  0  0  0  0  0  0
  129.9830  127.7160   72.3880 C   0  0  0  0  0  0  0  0  0  0  0  0
  130.5190  127.8840   73.7990 C   0  0  0  0  0  0  0  0  0  0  0  0
  128.8720  126.9020   72.1570 C   0  0  0  0  0  0  0  0  0  0  0  0
  128.3900  126.7360   70.8620 C   0  0  0  0  0  0  0  0  0  0  0  0
  126.3030  128.5020   66.0130 C   0  0  0  0  0  0  0  0  0  0  0  0
  125.6440  128.7440   64.8120 C   0  0  0  0  0  0  0  0  0  0  0  0
  126.1130  130.3510   61.4000 N   0  0  0  0  0  0  0  0  0  0  0  0
  127.4400  130.7900   61.2090 C   0  0  0  0  0  0  0  0  0  0  0  0
  128.4660  129.8580   61.0470 C   0  0  0  0  0  0  0  0  0  0  0  0
  129.7720  130.2980   60.8540 C   0  0  0  0  0  0  0  0  0  0  0  0
  130.0650  131.6630   60.8230 C   0  0  0  0  0  0  0  0  0  0  0  0
  131.3900  132.0020   60.6280 O   0  0  0  0  0  0  0  0  0  0  0  0
  132.4090  131.1290   61.1060 C   0  0  0  0  0  0  0  0  0  0  0  0
  129.0260  132.5930   60.9880 C   0  0  0  0  0  0  0  0  0  0  0  0
  127.7180  132.1580   61.1780 C   0  0  0  0  0  0  0  0  0  0  0  0
  127.1760  124.0190   61.2060 C   0  0  0  0  0  0  0  0  0  0  0  0
  127.9280  122.8880   61.5110 C   0  0  0  0  0  0  0  0  0  0  0  0
  1  2  1  0
  2  3  1  0
  3  4  2  0
  4  5  1  0
  5  6  2  0
  6  7  1  0
  7  8  2  0
  7  9  1  0
  9 10  1  0
 10 11  1  0
 11 12  2  0
 11 13  1  0
 13 14  1  0
 14 15  1  0
 15 16  2  0
 16 17  1  0
 17 18  2  0
 18 19  1  0
 19 20  2  0
 20 21  1  0
 21 22  2  0
 22 23  1  0
 23 24  1  0
 24 25  2  0
 24 26  2  0
 24 27  1  0
 27 28  2  0
 28 29  1  0
 29 30  2  0
 30 31  1  0
 30 32  1  0
 32 33  2  0
 22 34  1  0
 34 35  2  0
 18 36  1  0
 36 37  1  0
 37 38  2  0
 38 39  1  0
 39 40  2  0
 40 41  1  0
 41 42  1  0
 40 43  1  0
 43 44  2  0
  6 45  1  0
 45 46  2  0
 46  3  1  0
 36 15  1  0
 44 37  1  0
 35 19  1  0
 33 27  1  0
M  END
>  <Binding energies>  (49) 
[-9.29]

>  <Ligand effiencies>  (49) 
[-0.18959183673469385]

>  <Interactions>  (49) 
["V-B:PRO:540:CA:9855, V-B:GLU:543:CD:9880, V-A:HIS:456:CE1:4070, V-B:ASP:366:CG:8185, V-A:LEU:475:CD2:4259, H-A:TYR:484:OH:4348, V-B:ALA:541:CB:9864, V-A:GLU:543:C:4902, V-B:HIS:456:CE1:9042, V-A:GLY:544:CA:4914, V-B:ARG:545:CZ:9898, V-A:GLU:543:CB:4906, V-A:GLU:543:CD:4908, V-A:GLY:544:C:4912, V-A:GLU:543:CG:4907, V-B:TYR:484:CZ:9319, V-A:HIS:456:CD2:4068, H-B:ASP:366:OD2:8187, V-B:ASP:366:CB:8184, H-B:TYR:531:OH:9767, H-B:ARG:545:NH2:9900, V-A:PRO:540:CA:4883, V-A:PRO:540:CB:4885, V-A:PRO:540:C:4881, H-A:ALA:541:N:4891, V-A:ALA:541:CB:4892, V-B:GLU:543:CB:9878, V-B:HIS:456:CD2:9040, V-B:TYR:484:CE2:9318, V-A:LYS:547:CE:4950, H-A:GLU:543:O:4903, H-B:HIS:456:NE2:9043, H-B:ASP:366:OD1:8186"]

$$$$
RR33_Rahimova_2017
     RDKit          3D

 18 19  0  0  0  0  0  0  0  0999 V2000
  133.6260  123.7820   61.9700 C   0  0  0  0  0  0  0  0  0  0  0  0
  133.8550  122.5920   61.0340 C   0  0  0  0  0  0  0  0  0  0  0  0
  132.8890  121.5860   61.3280 O   0  0  0  0  0  0  0  0  0  0  0  0
  131.5460  121.8670   61.1650 C   0  0  0  0  0  0  0  0  0  0  0  0
  131.2220  122.8100   60.1900 C   0  0  0  0  0  0  0  0  0  0  0  0
  129.8950  123.1610   59.9560 C   0  0  0  0  0  0  0  0  0  0  0  0
  128.8680  122.5690   60.6980 C   0  0  0  0  0  0  0  0  0  0  0  0
  127.4430  122.9460   60.4460 C   0  0  0  0  0  0  0  0  0  0  0  0
  126.8820  123.2390   59.2950 N   0  0  0  0  0  0  0  0  0  0  0  0
  125.6160  123.5030   59.5800 C   0  0  0  0  0  0  0  0  0  0  0  0
  124.6350  123.8760   58.4890 C   0  0  0  0  0  0  0  0  0  0  0  0
  125.2070  123.6250   57.1750 N   0  0  0  0  0  0  0  0  0  0  0  0
  124.6860  122.3880   56.6160 C   0  0  0  0  0  0  0  0  0  0  0  0
  125.4080  123.3670   60.9460 C   0  0  0  0  0  0  0  0  0  0  0  0
  124.2250  123.5190   61.8720 C   0  0  0  0  0  0  0  0  0  0  0  0
  126.5890  123.0090   61.5010 O   0  0  0  0  0  0  0  0  0  0  0  0
  129.1880  121.6200   61.6730 C   0  0  0  0  0  0  0  0  0  0  0  0
  130.5160  121.2700   61.9080 C   0  0  0  0  0  0  0  0  0  0  0  0
  1  2  1  0
  2  3  1  0
  3  4  1  0
  4  5  2  0
  5  6  1  0
  6  7  2  0
  7  8  1  0
  8  9  2  0
  9 10  1  0
 10 11  1  0
 11 12  1  0
 12 13  1  0
 10 14  2  0
 14 15  1  0
 14 16  1  0
  7 17  1  0
 17 18  2  0
 18  4  1  0
 16  8  1  0
M  END
>  <Binding energies>  (50) 
[-4.48]

>  <Ligand effiencies>  (50) 
[-0.23578947368421055]

>  <Interactions>  (50) 
["V-B:PRO:540:CD:9859, V-B:LEU:363:CD1:8161, V-B:ILE:538:CD1:9837, V-B:PRO:540:CB:9857, V-B:PRO:540:CA:9855, V-B:PRO:540:CG:9858, V-B:PRO:540:N:9856, V-A:ILE:369:CD1:3239, V-B:TYR:539:CE2:9848, V-B:ILE:538:CG2:9835, V-B:PRO:540:C:9853, H-B:ALA:541:N:9863, V-B:ASP:366:CG:8185, V-A:LEU:475:CD2:4259, V-B:TYR:539:CD2:9846, V-B:ALA:541:CB:9864, V-B:ARG:545:CZ:9898, V-A:GLY:454:CA:4049, V-A:ILE:369:CG2:3237, V-A:TYR:484:CE1:4345, H-B:TYR:531:OH:9767, V-B:ASN:362:CB:8148"]

$$$$
RR3_Rahimova_2017
     RDKit          3D

 38 44  0  0  0  0  0  0  0  0999 V2000
  130.9930  120.3550   60.8970 C   0  0  0  0  0  0  0  0  0  0  0  0
  131.5570  121.5180   60.3830 C   0  0  0  0  0  0  0  0  0  0  0  0
  130.9250  122.7410   60.5910 C   0  0  0  0  0  0  0  0  0  0  0  0
  129.7250  122.8170   61.3150 C   0  0  0  0  0  0  0  0  0  0  0  0
  129.0470  124.1330   61.5390 C   0  0  0  0  0  0  0  0  0  0  0  0
  129.5380  125.0440   62.4840 C   0  0  0  0  0  0  0  0  0  0  0  0
  128.9050  126.2660   62.6940 C   0  0  0  0  0  0  0  0  0  0  0  0
  127.7590  126.6020   61.9670 C   0  0  0  0  0  0  0  0  0  0  0  0
  127.0710  127.9120   62.1930 C   0  0  0  0  0  0  0  0  0  0  0  0
  126.5200  128.5570   61.1710 N   0  0  0  0  0  0  0  0  0  0  0  0
  125.9600  129.6340   61.6660 C   0  0  0  0  0  0  0  0  0  0  0  0
  125.2350  130.6380   60.8910 C   0  0  0  0  0  0  0  0  0  0  0  0
  124.9000  131.9100   61.3250 C   0  0  0  0  0  0  0  0  0  0  0  0
  124.2310  132.5850   60.3380 N   0  0  0  0  0  0  0  0  0  0  0  0
  124.1030  131.7840   59.2250 C   0  0  0  0  0  0  0  0  0  0  0  0
  123.5040  132.0310   57.9850 C   0  0  0  0  0  0  0  0  0  0  0  0
  123.5380  130.9990   57.0490 C   0  0  0  0  0  0  0  0  0  0  0  0
  124.1380  129.7750   57.3270 C   0  0  0  0  0  0  0  0  0  0  0  0
  124.7350  129.5290   58.5610 C   0  0  0  0  0  0  0  0  0  0  0  0
  124.7290  130.5370   59.5420 C   0  0  0  0  0  0  0  0  0  0  0  0
  126.1460  129.7050   63.0190 N   0  0  0  0  0  0  0  0  0  0  0  0
  126.8860  128.6130   63.3960 C   0  0  0  0  0  0  0  0  0  0  0  0
  127.3360  128.3860   64.8020 C   0  0  0  0  0  0  0  0  0  0  0  0
  128.6980  128.3780   65.1080 C   0  0  0  0  0  0  0  0  0  0  0  0
  129.1220  128.1540   66.4130 C   0  0  0  0  0  0  0  0  0  0  0  0
  128.1970  127.9370   67.4450 C   0  0  0  0  0  0  0  0  0  0  0  0
  128.6570  127.6770   68.8440 C   0  0  0  0  0  0  0  0  0  0  0  0
  129.8350  128.2620   69.3350 C   0  0  0  0  0  0  0  0  0  0  0  0
  130.2610  128.0230   70.6400 C   0  0  0  0  0  0  0  0  0  0  0  0
  129.5120  127.1950   71.4690 C   0  0  0  0  0  0  0  0  0  0  0  0
  128.3410  126.6060   71.0040 C   0  0  0  0  0  0  0  0  0  0  0  0
  127.9190  126.8450   69.7000 C   0  0  0  0  0  0  0  0  0  0  0  0
  126.8320  127.9650   67.1270 C   0  0  0  0  0  0  0  0  0  0  0  0
  126.4040  128.1890   65.8220 C   0  0  0  0  0  0  0  0  0  0  0  0
  127.2710  125.7070   61.0140 C   0  0  0  0  0  0  0  0  0  0  0  0
  127.9060  124.4850   60.8060 C   0  0  0  0  0  0  0  0  0  0  0  0
  129.1750  121.6310   61.8230 C   0  0  0  0  0  0  0  0  0  0  0  0
  129.8040  120.4060   61.6170 C   0  0  0  0  0  0  0  0  0  0  0  0
  1  2  2  0
  2  3  1  0
  3  4  2  0
  4  5  1  0
  5  6  2  0
  6  7  1  0
  7  8  2  0
  8  9  1  0
  9 10  1  0
 10 11  2  0
 11 12  1  0
 12 13  2  0
 13 14  1  0
 14 15  1  0
 15 16  2  0
 16 17  1  0
 17 18  2  0
 18 19  1  0
 19 20  2  0
 11 21  1  0
 21 22  1  0
 22 23  1  0
 23 24  2  0
 24 25  1  0
 25 26  2  0
 26 27  1  0
 27 28  2  0
 28 29  1  0
 29 30  2  0
 30 31  1  0
 31 32  2  0
 26 33  1  0
 33 34  2  0
  8 35  1  0
 35 36  2  0
  4 37  1  0
 37 38  2  0
 38  1  1  0
 36  5  1  0
 22  9  2  0
 34 23  1  0
 20 12  1  0
 32 27  1  0
 20 15  1  0
M  END
>  <Binding energies>  (51) 
[-7.28]

>  <Ligand effiencies>  (51) 
[-0.182]

>  <Interactions>  (51) 
["V-B:GLU:543:CD:9880, V-B:TYR:539:CE2:9848, V-A:HIS:456:CE1:4070, V-B:ASP:366:CG:8185, V-A:LEU:475:CD2:4259, V-B:TYR:539:CD2:9846, V-B:ALA:541:CB:9864, V-A:GLU:543:C:4902, V-B:HIS:456:CE1:9042, V-A:GLU:543:CB:4906, H-B:TYR:484:OH:9320, V-A:GLU:543:CD:4908, V-A:GLY:544:C:4912, V-B:ILE:369:CD1:8211, V-A:GLU:543:CG:4907, V-A:HIS:456:CD2:4068, V-B:ASP:366:CB:8184, V-B:ARG:545:CG:9894, V-A:TYR:539:CE1:4875, V-B:TYR:531:CE1:9764, V-A:TYR:539:CZ:4877, V-B:ILE:369:CB:8208, V-B:ASP:366:C:8180, V-B:ASP:366:CA:8182, V-B:ILE:369:CG2:8209, V-B:HIS:456:CD2:9040, H-B:SER:385:O:8378"]

$$$$
RR4_Rahimova_2017
     RDKit          3D

 40 44  0  0  0  0  0  0  0  0999 V2000
  123.9210  133.0090   61.8240 C   0  0  0  0  0  0  0  0  0  0  0  0
  123.8800  131.9390   62.7620 O   0  0  0  0  0  0  0  0  0  0  0  0
  124.5630  130.7710   62.4820 C   0  0  0  0  0  0  0  0  0  0  0  0
  125.1580  130.1210   63.5610 C   0  0  0  0  0  0  0  0  0  0  0  0
  125.8650  128.9370   63.3750 C   0  0  0  0  0  0  0  0  0  0  0  0
  126.0010  128.3680   62.1000 C   0  0  0  0  0  0  0  0  0  0  0  0
  126.7660  127.0910   61.9020 C   0  0  0  0  0  0  0  0  0  0  0  0
  128.0810  126.9180   62.3470 C   0  0  0  0  0  0  0  0  0  0  0  0
  128.7500  125.7050   62.1420 C   0  0  0  0  0  0  0  0  0  0  0  0
  130.1430  125.5850   62.6700 C   0  0  0  0  0  0  0  0  0  0  0  0
  130.4010  125.8080   64.0260 C   0  0  0  0  0  0  0  0  0  0  0  0
  131.6940  125.6870   64.5280 C   0  0  0  0  0  0  0  0  0  0  0  0
  132.7510  125.3340   63.6890 C   0  0  0  0  0  0  0  0  0  0  0  0
  133.9980  125.2370   64.2760 O   0  0  0  0  0  0  0  0  0  0  0  0
  134.0900  124.9970   65.6760 C   0  0  0  0  0  0  0  0  0  0  0  0
  132.4950  125.1040   62.3290 C   0  0  0  0  0  0  0  0  0  0  0  0
  131.2010  125.2260   61.8290 C   0  0  0  0  0  0  0  0  0  0  0  0
  128.0750  124.6700   61.4500 C   0  0  0  0  0  0  0  0  0  0  0  0
  128.7300  123.3810   61.2090 C   0  0  0  0  0  0  0  0  0  0  0  0
  129.2460  122.3630   61.0190 N   0  0  0  0  0  0  0  0  0  0  0  0
  126.7580  124.9230   61.0020 C   0  0  0  0  0  0  0  0  0  0  0  0
  125.7670  123.7460   60.1070 S   0  0  0  0  0  0  0  0  0  0  0  0
  125.6930  124.2890   58.3680 C   0  0  0  0  0  0  0  0  0  0  0  0
  126.6840  125.4040   58.0050 C   0  0  0  0  0  0  0  0  0  0  0  0
  127.6250  125.1800   57.2400 O   0  0  0  0  0  0  0  0  0  0  0  0
  126.4370  126.5950   58.5980 N   0  0  0  0  0  0  0  0  0  0  0  0
  127.1480  127.7920   58.4700 C   0  0  0  0  0  0  0  0  0  0  0  0
  128.8030  127.9720   58.9860 S   0  0  0  0  0  0  0  0  0  0  0  0
  128.8370  129.6350   58.4880 C   0  0  0  0  0  0  0  0  0  0  0  0
  127.6060  130.0360   57.9460 C   0  0  0  0  0  0  0  0  0  0  0  0
  126.6560  128.9860   57.9220 C   0  0  0  0  0  0  0  0  0  0  0  0
  125.3050  129.1370   57.3900 C   0  0  0  0  0  0  0  0  0  0  0  0
  124.2330  129.2570   56.9690 N   0  0  0  0  0  0  0  0  0  0  0  0
  127.3940  131.4520   57.3980 C   0  0  0  0  0  0  0  0  0  0  0  0
  128.7500  132.1570   57.1680 C   0  0  0  0  0  0  0  0  0  0  0  0
  129.7060  131.9780   58.3600 C   0  0  0  0  0  0  0  0  0  0  0  0
  130.0880  130.4990   58.5790 C   0  0  0  0  0  0  0  0  0  0  0  0
  126.1230  126.0940   61.2420 N   0  0  0  0  0  0  0  0  0  0  0  0
  125.3950  129.0280   61.0200 C   0  0  0  0  0  0  0  0  0  0  0  0
  124.6870  130.2130   61.2020 C   0  0  0  0  0  0  0  0  0  0  0  0
  1  2  1  0
  2  3  1  0
  3  4  2  0
  4  5  1  0
  5  6  2  0
  6  7  1  0
  7  8  2  0
  8  9  1  0
  9 10  1  0
 10 11  2  0
 11 12  1  0
 12 13  2  0
 13 14  1  0
 14 15  1  0
 13 16  1  0
 16 17  2  0
  9 18  2  0
 18 19  1  0
 19 20  3  0
 18 21  1  0
 21 22  1  0
 22 23  1  0
 23 24  1  0
 24 25  2  0
 24 26  1  0
 26 27  1  0
 27 28  1  0
 28 29  1  0
 29 30  2  0
 30 31  1  0
 31 32  1  0
 32 33  3  0
 30 34  1  0
 34 35  1  0
 35 36  1  0
 36 37  1  0
 21 38  2  0
  6 39  1  0
 39 40  2  0
 40  3  1  0
 38  7  1  0
 17 10  1  0
 31 27  2  0
 37 29  1  0
M  END
>  <Binding energies>  (52) 
[-8.14]

>  <Ligand effiencies>  (52) 
[-0.19853658536585367]

>  <Interactions>  (52) 
["V-A:ARG:545:CD:4923, V-A:ARG:545:CZ:4926, V-B:GLU:543:CD:9880, V-A:TYR:484:CZ:4347, V-A:TYR:484:CE2:4346, V-A:ARG:545:CG:4922, V-B:ASP:366:CG:8185, H-A:TYR:484:OH:4348, V-B:ARG:545:CZ:9898, V-A:GLU:543:CD:4908, V-B:ILE:369:CD1:8211, H-B:GLY:454:N:9022, V-B:LEU:475:CD2:9231, V-B:GLY:454:CA:9021, H-A:ARG:545:NH1:4927, V-A:GLY:454:CA:4049, H-A:GLY:454:N:4050, H-A:ARG:545:NH2:4928, H-A:ARG:545:NE:4924, V-A:GLY:453:CA:4044, V-A:GLY:453:C:4042, H-B:ASP:366:OD2:8187, V-B:ASP:366:CB:8184, H-B:TYR:531:OH:9767, H-B:ARG:545:NH2:9900, V-A:PRO:540:CA:4883, V-A:PRO:540:N:4884, V-A:TYR:539:CD1:4873, V-A:TYR:539:C:4867, V-A:TYR:539:CE1:4875, V-B:TYR:531:CE1:9764, V-A:TYR:539:CZ:4877"]

$$$$
RR6_Rahimova_2017
     RDKit          3D

 38 41  0  0  0  0  0  0  0  0999 V2000
  132.9950  125.3710   64.6180 C   0  0  0  0  0  0  0  0  0  0  0  0
  133.2650  124.4730   63.5500 O   0  0  0  0  0  0  0  0  0  0  0  0
  133.8480  124.9080   62.4030 C   0  0  0  0  0  0  0  0  0  0  0  0
  135.0710  124.9880   62.2510 O   0  0  0  0  0  0  0  0  0  0  0  0
  132.8580  125.2790   61.3370 C   0  0  0  0  0  0  0  0  0  0  0  0
  132.9530  124.7840   60.0290 C   0  0  0  0  0  0  0  0  0  0  0  0
  132.0230  125.1540   59.0600 C   0  0  0  0  0  0  0  0  0  0  0  0
  130.9790  126.0330   59.3860 C   0  0  0  0  0  0  0  0  0  0  0  0
  130.0050  126.4920   58.4810 N   0  0  0  0  0  0  0  0  0  0  0  0
  129.3210  125.8070   57.5380 C   0  0  0  0  0  0  0  0  0  0  0  0
  129.4330  124.6020   57.3090 O   0  0  0  0  0  0  0  0  0  0  0  0
  128.3820  126.6440   56.6630 C   0  0  0  0  0  0  0  0  0  0  0  0
  127.5590  128.0010   57.5600 S   0  0  0  0  0  0  0  0  0  0  0  0
  127.2750  127.4230   59.2200 C   0  0  0  0  0  0  0  0  0  0  0  0
  127.7390  126.1730   59.4610 N   0  0  0  0  0  0  0  0  0  0  0  0
  127.6080  125.6340   60.7000 C   0  0  0  0  0  0  0  0  0  0  0  0
  128.2030  124.2720   60.9010 C   0  0  0  0  0  0  0  0  0  0  0  0
  128.3890  123.3970   59.8190 C   0  0  0  0  0  0  0  0  0  0  0  0
  128.9290  122.1280   60.0070 C   0  0  0  0  0  0  0  0  0  0  0  0
  129.2990  121.7100   61.2850 C   0  0  0  0  0  0  0  0  0  0  0  0
  129.8790  120.3220   61.4870 C   0  0  0  0  0  0  0  0  0  0  0  0
  129.1250  122.5630   62.3720 C   0  0  0  0  0  0  0  0  0  0  0  0
  128.5850  123.8310   62.1780 C   0  0  0  0  0  0  0  0  0  0  0  0
  126.9850  126.3490   61.7280 C   0  0  0  0  0  0  0  0  0  0  0  0
  126.4930  127.6420   61.5020 C   0  0  0  0  0  0  0  0  0  0  0  0
  125.8560  128.3550   62.6490 C   0  0  0  0  0  0  0  0  0  0  0  0
  124.7050  129.1220   62.4480 C   0  0  0  0  0  0  0  0  0  0  0  0
  124.0960  129.7780   63.5150 C   0  0  0  0  0  0  0  0  0  0  0  0
  124.6210  129.6750   64.8020 C   0  0  0  0  0  0  0  0  0  0  0  0
  123.9500  130.3570   65.7990 O   0  0  0  0  0  0  0  0  0  0  0  0
  123.7690  129.7320   67.0650 C   0  0  0  0  0  0  0  0  0  0  0  0
  125.7740  128.9020   65.0100 C   0  0  0  0  0  0  0  0  0  0  0  0
  126.3800  128.2480   63.9410 C   0  0  0  0  0  0  0  0  0  0  0  0
  126.6340  128.1990   60.2070 C   0  0  0  0  0  0  0  0  0  0  0  0
  126.1160  129.5340   59.8940 C   0  0  0  0  0  0  0  0  0  0  0  0
  125.7080  130.5890   59.6480 N   0  0  0  0  0  0  0  0  0  0  0  0
  130.8710  126.5140   60.6910 C   0  0  0  0  0  0  0  0  0  0  0  0
  131.8040  126.1450   61.6570 C   0  0  0  0  0  0  0  0  0  0  0  0
  1  2  1  0
  2  3  1  0
  3  4  2  0
  3  5  1  0
  5  6  2  0
  6  7  1  0
  7  8  2  0
  8  9  1  0
  9 10  1  0
 10 11  2  0
 10 12  1  0
 12 13  1  0
 13 14  1  0
 14 15  2  0
 15 16  1  0
 16 17  1  0
 17 18  2  0
 18 19  1  0
 19 20  2  0
 20 21  1  0
 20 22  1  0
 22 23  2  0
 16 24  2  0
 24 25  1  0
 25 26  1  0
 26 27  2  0
 27 28  1  0
 28 29  2  0
 29 30  1  0
 30 31  1  0
 29 32  1  0
 32 33  2  0
 25 34  2  0
 34 35  1  0
 35 36  3  0
  8 37  1  0
 37 38  2  0
 38  5  1  0
 34 14  1  0
 23 17  1  0
 33 26  1  0
M  END
>  <Binding energies>  (53) 
[-7.41]

>  <Ligand effiencies>  (53) 
[-0.19]

>  <Interactions>  (53) 
["V-A:ARG:545:CD:4923, V-A:ARG:545:CZ:4926, V-B:TYR:539:C:9839, V-B:PRO:540:CA:9855, V-B:GLU:543:CD:9880, V-A:TYR:484:CZ:4347, V-A:TYR:484:CE2:4346, V-B:TYR:539:CE2:9848, V-B:ASP:366:CG:8185, V-A:LEU:475:CD2:4259, H-A:TYR:484:OH:4348, V-B:TYR:539:CD2:9846, V-B:ALA:541:CB:9864, V-B:HIS:456:CE1:9042, V-B:ARG:545:CZ:9898, H-B:TYR:484:OH:9320, V-B:TYR:484:CZ:9319, H-B:GLY:454:N:9022, V-B:GLY:454:CA:9021, H-A:ARG:545:NH1:4927, H-A:GLY:454:N:4050, H-A:ARG:545:NH2:4928, V-A:ASP:366:CG:3213, V-A:ASP:366:CB:3212, V-A:GLY:453:CA:4044, V-A:GLY:453:C:4042, V-A:TYR:484:CE1:4345, V-B:MET:535:CE:9807, V-B:ARG:545:CG:9894, V-B:ARG:545:CD:9895, V-B:TYR:484:CE1:9317, V-B:GLY:453:CA:9016, H-B:TYR:539:OH:9850, V-B:ILE:455:C:9024, H-B:ILE:455:N:9027"]

$$$$
RR7_Rahimova_2017
     RDKit          3D

 47 53  0  0  0  0  0  0  0  0999 V2000
  125.7260  122.3670   56.7900 C   0  0  0  0  0  0  0  0  0  0  0  0
  126.3200  122.5720   58.0680 O   0  0  0  0  0  0  0  0  0  0  0  0
  126.5280  123.8630   58.5140 C   0  0  0  0  0  0  0  0  0  0  0  0
  127.0220  124.7730   57.5810 C   0  0  0  0  0  0  0  0  0  0  0  0
  127.2580  126.0970   57.9370 C   0  0  0  0  0  0  0  0  0  0  0  0
  127.0150  126.5420   59.2440 C   0  0  0  0  0  0  0  0  0  0  0  0
  127.2390  128.0280   59.6630 C   0  0  0  0  0  0  0  0  0  0  0  0
  128.5780  128.3720   59.2430 O   0  0  0  0  0  0  0  0  0  0  0  0
  129.0180  129.7330   59.2900 C   0  0  0  0  0  0  0  0  0  0  0  0
  130.5120  129.7900   58.9350 C   0  0  1  0  0  0  0  0  0  0  0  0
  131.1060  128.6050   59.4600 O   0  0  0  0  0  0  0  0  0  0  0  0
  131.7150  127.8380   58.4610 C   0  0  1  0  0  0  0  0  0  0  0  0
  131.6080  126.4270   58.7810 N   0  0  0  0  0  0  0  0  0  0  0  0
  132.0090  125.3470   58.0140 C   0  0  0  0  0  0  0  0  0  0  0  0
  131.7500  124.1690   58.5260 N   0  0  0  0  0  0  0  0  0  0  0  0
  131.0930  124.4570   59.6920 C   0  0  0  0  0  0  0  0  0  0  0  0
  130.5400  123.6320   60.6900 C   0  0  0  0  0  0  0  0  0  0  0  0
  130.6490  122.2350   60.5490 N   0  0  0  0  0  0  0  0  0  0  0  0
  130.3910  121.2640   61.4570 C   0  0  0  0  0  0  0  0  0  0  0  0
  130.0180  121.4760   62.6130 O   0  0  0  0  0  0  0  0  0  0  0  0
  130.6200  119.8450   60.9820 C   0  0  0  0  0  0  0  0  0  0  0  0
  129.8190  118.8080   61.4830 C   0  0  0  0  0  0  0  0  0  0  0  0
  130.0090  117.4970   61.0550 C   0  0  0  0  0  0  0  0  0  0  0  0
  130.9990  117.2120   60.1200 C   0  0  0  0  0  0  0  0  0  0  0  0
  131.8010  118.2280   59.6070 C   0  0  0  0  0  0  0  0  0  0  0  0
  131.6130  119.5400   60.0350 C   0  0  0  0  0  0  0  0  0  0  0  0
  129.9130  124.2070   61.7600 N   0  0  0  0  0  0  0  0  0  0  0  0
  129.8540  125.5640   61.8050 C   0  0  0  0  0  0  0  0  0  0  0  0
  130.3540  126.4500   60.9040 N   0  0  0  0  0  0  0  0  0  0  0  0
  130.9680  125.8580   59.8710 C   0  0  0  0  0  0  0  0  0  0  0  0
  131.0340  128.2570   57.1630 C   0  0  0  0  0  0  0  0  0  0  0  0
  130.8250  129.7370   57.4330 C   0  0  2  0  0  0  0  0  0  0  0  0
  131.9660  130.5060   57.0910 O   0  0  0  0  0  0  0  0  0  0  0  0
  126.2730  128.9990   58.9330 C   0  0  0  0  0  0  0  0  0  0  0  0
  126.0620  130.2960   59.4300 C   0  0  0  0  0  0  0  0  0  0  0  0
  125.1880  131.1690   58.7910 C   0  0  0  0  0  0  0  0  0  0  0  0
  124.5130  130.7550   57.6480 C   0  0  0  0  0  0  0  0  0  0  0  0
  124.7060  129.4750   57.1380 C   0  0  0  0  0  0  0  0  0  0  0  0
  125.5800  128.6010   57.7770 C   0  0  0  0  0  0  0  0  0  0  0  0
  127.0740  128.3370   61.1780 C   0  0  0  0  0  0  0  0  0  0  0  0
  125.7950  128.4680   61.7420 C   0  0  0  0  0  0  0  0  0  0  0  0
  125.6380  128.7540   63.0940 C   0  0  0  0  0  0  0  0  0  0  0  0
  126.7620  128.9210   63.8990 C   0  0  0  0  0  0  0  0  0  0  0  0
  128.0390  128.8090   63.3580 C   0  0  0  0  0  0  0  0  0  0  0  0
  128.1940  128.5230   62.0050 C   0  0  0  0  0  0  0  0  0  0  0  0
  126.5040  125.6260   60.1760 C   0  0  0  0  0  0  0  0  0  0  0  0
  126.2680  124.3010   59.8200 C   0  0  0  0  0  0  0  0  0  0  0  0
  1  2  1  0
  2  3  1  0
  3  4  2  0
  4  5  1  0
  5  6  2  0
  6  7  1  0
  7  8  1  0
  8  9  1  0
 10  9  1  6
 10 11  1  0
 11 12  1  0
 12 13  1  1
 13 14  1  0
 14 15  2  0
 15 16  1  0
 16 17  2  0
 17 18  1  0
 18 19  1  0
 19 20  2  0
 19 21  1  0
 21 22  2  0
 22 23  1  0
 23 24  2  0
 24 25  1  0
 25 26  2  0
 17 27  1  0
 27 28  2  0
 28 29  1  0
 29 30  2  0
 12 31  1  0
 31 32  1  0
 32 33  1  1
  7 34  1  0
 34 35  2  0
 35 36  1  0
 36 37  2  0
 37 38  1  0
 38 39  2  0
  7 40  1  0
 40 41  2  0
 41 42  1  0
 42 43  2  0
 43 44  1  0
 44 45  2  0
  6 46  1  0
 46 47  2  0
 47  3  1  0
 32 10  1  0
 39 34  1  0
 45 40  1  0
 30 13  1  0
 30 16  1  0
 26 21  1  0
M  END
>  <Binding energies>  (54) 
[-8.11]

>  <Ligand effiencies>  (54) 
[-0.16551020408163264]

>  <Interactions>  (54) 
["V-B:PRO:540:CD:9859, V-B:PRO:540:CB:9857, V-B:TYR:539:C:9839, V-B:PRO:540:CA:9855, V-B:PRO:540:N:9856, V-B:TYR:539:CE2:9848, V-A:SER:385:CB:3409, V-B:ASP:366:CG:8185, V-A:PRO:482:CG:4327, V-A:PRO:482:CB:4326, V-B:TYR:539:CB:9843, V-A:LEU:475:CD2:4259, H-A:TYR:484:OH:4348, V-B:TYR:539:CD2:9846, V-A:LEU:475:CD1:4258, V-A:LEU:475:CG:4257, V-B:ALA:541:CB:9864, V-B:ARG:545:CZ:9898, V-A:GLU:543:CD:4908, V-A:ASP:366:CG:3213, V-A:ASP:366:CB:3212, V-B:TYR:531:CZ:9766, V-B:ASP:366:CB:8184, H-A:TYR:531:OH:4795, V-A:TYR:539:CE1:4875, V-B:TYR:531:CE1:9764, V-A:TYR:539:CZ:4877, V-B:ASP:366:C:8180, V-B:ASP:366:CA:8182, H-B:TYR:539:OH:9850"]

$$$$
RR8_A_Rahimova_2017
     RDKit          3D

 42 46  0  0  0  0  0  0  0  0999 V2000
  125.3660  123.1070   62.2610 O   0  0  0  0  0  0  0  0  0  0  0  0
  126.2000  123.4940   61.4360 C   0  0  0  0  0  0  0  0  0  0  0  0
  126.0300  124.5740   60.6120 O   0  0  0  0  0  0  0  0  0  0  0  0
  126.8330  125.6990   60.8430 C   0  0  1  0  0  0  0  0  0  0  0  0
  127.6650  125.5190   61.9520 O   0  0  0  0  0  0  0  0  0  0  0  0
  128.9540  126.0900   61.7460 C   0  0  2  0  0  0  0  0  0  0  0  0
  129.2390  127.0830   62.8850 C   0  0  0  0  0  0  0  0  0  0  0  0
  128.0190  127.3800   63.5500 O   0  0  0  0  0  0  0  0  0  0  0  0
  127.9390  128.7100   64.0450 C   0  0  0  0  0  0  0  0  0  0  0  0
  126.5450  128.9720   64.5960 C   0  0  0  0  0  0  0  0  0  0  0  0
  126.2840  128.7750   65.9540 C   0  0  0  0  0  0  0  0  0  0  0  0
  125.0100  129.0200   66.4620 C   0  0  0  0  0  0  0  0  0  0  0  0
  124.0020  129.4660   65.6100 C   0  0  0  0  0  0  0  0  0  0  0  0
  124.2550  129.6720   64.2550 C   0  0  0  0  0  0  0  0  0  0  0  0
  125.5290  129.4280   63.7480 C   0  0  0  0  0  0  0  0  0  0  0  0
  128.8610  126.7030   60.3420 C   0  0  1  0  0  0  0  0  0  0  0  0
  130.0570  126.5460   59.5810 O   0  0  0  0  0  0  0  0  0  0  0  0
  130.3920  125.2090   59.2270 C   0  0  0  0  0  0  0  0  0  0  0  0
  131.6740  124.7910   59.9340 C   0  0  0  0  0  0  0  0  0  0  0  0
  131.7420  124.8330   61.3300 C   0  0  0  0  0  0  0  0  0  0  0  0
  132.9130  124.4610   61.9830 C   0  0  0  0  0  0  0  0  0  0  0  0
  134.0180  124.0510   61.2380 C   0  0  0  0  0  0  0  0  0  0  0  0
  133.9620  124.0130   59.8470 C   0  0  0  0  0  0  0  0  0  0  0  0
  132.7900  124.3860   59.1940 C   0  0  0  0  0  0  0  0  0  0  0  0
  127.7850  125.8720   59.6680 C   0  0  2  0  0  0  0  0  0  0  0  0
  127.2170  126.5810   58.5700 O   0  0  0  0  0  0  0  0  0  0  0  0
  127.5050  126.0540   57.2800 C   0  0  0  0  0  0  0  0  0  0  0  0
  126.9210  124.6560   57.1490 C   0  0  0  0  0  0  0  0  0  0  0  0
  127.6240  123.6610   56.4610 C   0  0  0  0  0  0  0  0  0  0  0  0
  127.0890  122.3800   56.3520 C   0  0  0  0  0  0  0  0  0  0  0  0
  125.8560  122.0950   56.9340 C   0  0  0  0  0  0  0  0  0  0  0  0
  125.1520  123.0780   57.6250 C   0  0  0  0  0  0  0  0  0  0  0  0
  125.6860  124.3600   57.7350 C   0  0  0  0  0  0  0  0  0  0  0  0
  127.5290  122.8220   61.2410 C   0  0  0  0  0  0  0  0  0  0  0  0
  128.0870  122.6370   59.9660 C   0  0  0  0  0  0  0  0  0  0  0  0
  129.3200  122.0090   59.8190 C   0  0  0  0  0  0  0  0  0  0  0  0
  130.0260  121.5480   60.9380 C   0  0  0  0  0  0  0  0  0  0  0  0
  131.3410  120.8800   60.7790 N   0  0  0  0  0  0  0  0  0  0  0  0
  132.3570  121.5060   61.0660 O   0  0  0  0  0  0  0  0  0  0  0  0
  131.3670  119.7240   60.3670 O   0  0  0  0  0  0  0  0  0  0  0  0
  129.4670  121.7300   62.2090 C   0  0  0  0  0  0  0  0  0  0  0  0
  128.2340  122.3580   62.3590 C   0  0  0  0  0  0  0  0  0  0  0  0
  1  2  2  0
  2  3  1  0
  4  3  1  6
  4  5  1  0
  5  6  1  0
  6  7  1  1
  7  8  1  0
  8  9  1  0
  9 10  1  0
 10 11  2  0
 11 12  1  0
 12 13  2  0
 13 14  1  0
 14 15  2  0
  6 16  1  0
 16 17  1  6
 17 18  1  0
 18 19  1  0
 19 20  2  0
 20 21  1  0
 21 22  2  0
 22 23  1  0
 23 24  2  0
 16 25  1  0
 25 26  1  6
 26 27  1  0
 27 28  1  0
 28 29  2  0
 29 30  1  0
 30 31  2  0
 31 32  1  0
 32 33  2  0
  2 34  1  0
 34 35  2  0
 35 36  1  0
 36 37  2  0
 37 38  1  0
 38 39  2  0
 38 40  1  0
 37 41  1  0
 41 42  2  0
 25  4  1  0
 33 28  1  0
 42 34  1  0
 15 10  1  0
 24 19  1  0
M  CHG  2  38   1  40  -1
M  END
>  <Binding energies>  (55) 
[-8.38]

>  <Ligand effiencies>  (55) 
[-0.19952380952380955]

>  <Interactions>  (55) 
["V-B:PRO:540:CD:9859, V-B:PRO:540:CB:9857, V-B:TYR:539:C:9839, V-B:PRO:540:CA:9855, V-B:PRO:540:CG:9858, V-B:PRO:540:N:9856, V-B:GLU:543:CD:9880, V-A:ILE:369:CD1:3239, V-B:TYR:539:CE2:9848, V-B:PRO:540:C:9853, H-B:ALA:541:N:9863, V-A:LEU:475:CD2:4259, V-B:TYR:539:CA:9841, V-B:TYR:539:CD2:9846, V-B:ALA:541:CB:9864, V-B:HIS:456:CE1:9042, V-B:ARG:545:CZ:9898, V-A:GLU:543:CD:4908, V-B:GLY:453:C:9014, V-A:GLU:543:CG:4907, V-B:TYR:484:CZ:9319, V-A:ILE:369:CG2:3237, V-A:ASP:366:CG:3213, V-A:ILE:369:CB:3236, V-A:ASP:366:CA:3210, V-B:GLU:543:CG:9879, V-B:TYR:531:CZ:9766, V-B:TYR:539:CG:9844, V-A:TYR:484:CE1:4345, V-B:TYR:539:CZ:9849, V-B:TYR:539:CE1:9847, V-B:TYR:539:CD1:9845, V-B:MET:535:CE:9807, H-B:ARG:545:NH2:9900, V-B:ARG:545:CG:9894, V-B:ARG:545:CD:9895, V-B:GLY:453:CA:9016"]

$$$$
RR8_B_Rahimova_2017
     RDKit          3D

 42 46  0  0  0  0  0  0  0  0999 V2000
  129.8960  127.2820   61.4980 O   0  0  0  0  0  0  0  0  0  0  0  0
  130.0480  126.1780   62.0300 C   0  0  0  0  0  0  0  0  0  0  0  0
  129.3180  125.0640   61.7180 O   0  0  0  0  0  0  0  0  0  0  0  0
  129.3660  123.9700   62.6010 C   0  0  2  0  0  0  0  0  0  0  0  0
  130.6170  123.3440   62.5900 O   0  0  0  0  0  0  0  0  0  0  0  0
  130.6610  122.2830   61.6370 C   0  0  2  0  0  0  0  0  0  0  0  0
  131.7910  122.5460   60.6260 C   0  0  0  0  0  0  0  0  0  0  0  0
  132.2320  123.8920   60.7580 O   0  0  0  0  0  0  0  0  0  0  0  0
  133.2920  124.2620   59.8880 C   0  0  0  0  0  0  0  0  0  0  0  0
  132.7420  125.1350   58.7710 C   0  0  0  0  0  0  0  0  0  0  0  0
  131.7030  126.0320   59.0380 C   0  0  0  0  0  0  0  0  0  0  0  0
  131.1780  126.8160   58.0140 C   0  0  0  0  0  0  0  0  0  0  0  0
  131.6960  126.7020   56.7250 C   0  0  0  0  0  0  0  0  0  0  0  0
  132.7340  125.8150   56.4520 C   0  0  0  0  0  0  0  0  0  0  0  0
  133.2570  125.0280   57.4760 C   0  0  0  0  0  0  0  0  0  0  0  0
  129.2460  122.2420   61.0490 C   0  0  1  0  0  0  0  0  0  0  0  0
  128.8740  120.8900   60.7690 O   0  0  0  0  0  0  0  0  0  0  0  0
  129.4690  119.8710   61.5770 C   0  0  0  0  0  0  0  0  0  0  0  0
  130.2520  118.8580   60.7480 C   0  0  0  0  0  0  0  0  0  0  0  0
  131.3760  119.2650   60.0220 C   0  0  0  0  0  0  0  0  0  0  0  0
  132.1070  118.3320   59.2920 C   0  0  0  0  0  0  0  0  0  0  0  0
  131.7100  116.9960   59.2870 C   0  0  0  0  0  0  0  0  0  0  0  0
  130.5890  116.5850   60.0040 C   0  0  0  0  0  0  0  0  0  0  0  0
  129.8590  117.5170   60.7370 C   0  0  0  0  0  0  0  0  0  0  0  0
  128.3910  122.8920   62.1310 C   0  0  2  0  0  0  0  0  0  0  0  0
  127.1880  123.4110   61.5680 O   0  0  0  0  0  0  0  0  0  0  0  0
  127.3550  124.3120   60.4850 C   0  0  0  0  0  0  0  0  0  0  0  0
  126.8300  123.6450   59.2260 C   0  0  0  0  0  0  0  0  0  0  0  0
  127.7030  122.9680   58.3700 C   0  0  0  0  0  0  0  0  0  0  0  0
  127.2130  122.3760   57.2080 C   0  0  0  0  0  0  0  0  0  0  0  0
  125.8560  122.4650   56.9060 C   0  0  0  0  0  0  0  0  0  0  0  0
  124.9800  123.1380   57.7560 C   0  0  0  0  0  0  0  0  0  0  0  0
  125.4690  123.7280   58.9180 C   0  0  0  0  0  0  0  0  0  0  0  0
  131.0410  125.9240   63.1270 C   0  0  0  0  0  0  0  0  0  0  0  0
  130.6680  125.9400   64.4800 C   0  0  0  0  0  0  0  0  0  0  0  0
  131.6110  125.7100   65.4750 C   0  0  0  0  0  0  0  0  0  0  0  0
  132.9510  125.4690   65.1470 C   0  0  0  0  0  0  0  0  0  0  0  0
  133.9600  125.2500   66.2120 N   0  0  0  0  0  0  0  0  0  0  0  0
  135.0200  124.7040   65.9160 O   0  0  0  0  0  0  0  0  0  0  0  0
  133.7030  125.6260   67.3530 O   0  0  0  0  0  0  0  0  0  0  0  0
  133.3210  125.4460   63.7960 C   0  0  0  0  0  0  0  0  0  0  0  0
  132.3770  125.6690   62.7990 C   0  0  0  0  0  0  0  0  0  0  0  0
  1  2  2  0
  2  3  1  0
  4  3  1  6
  4  5  1  0
  5  6  1  0
  6  7  1  6
  7  8  1  0
  8  9  1  0
  9 10  1  0
 10 11  2  0
 11 12  1  0
 12 13  2  0
 13 14  1  0
 14 15  2  0
  6 16  1  0
 16 17  1  1
 17 18  1  0
 18 19  1  0
 19 20  2  0
 20 21  1  0
 21 22  2  0
 22 23  1  0
 23 24  2  0
 16 25  1  0
 25 26  1  6
 26 27  1  0
 27 28  1  0
 28 29  2  0
 29 30  1  0
 30 31  2  0
 31 32  1  0
 32 33  2  0
  2 34  1  0
 34 35  2  0
 35 36  1  0
 36 37  2  0
 37 38  1  0
 38 39  2  0
 38 40  1  0
 37 41  1  0
 41 42  2  0
 25  4  1  0
 33 28  1  0
 42 34  1  0
 15 10  1  0
 24 19  1  0
M  CHG  2  38   1  40  -1
M  END
>  <Binding energies>  (56) 
[-8.58]

>  <Ligand effiencies>  (56) 
[-0.2042857142857143]

>  <Interactions>  (56) 
["V-B:PRO:540:CD:9859, V-B:LEU:363:CD1:8161, V-A:ARG:545:CD:4923, V-B:PRO:540:CB:9857, V-A:ARG:545:CZ:4926, V-B:TYR:539:C:9839, V-B:PRO:540:CA:9855, V-B:PRO:540:CG:9858, V-B:PRO:540:N:9856, V-B:GLU:543:CD:9880, V-A:ILE:369:CD1:3239, V-A:TYR:484:CZ:4347, V-A:TYR:484:CE2:4346, V-B:TYR:539:CE2:9848, V-A:ARG:545:CG:4922, V-B:PRO:540:C:9853, V-A:HIS:456:CE1:4070, V-A:SER:385:CB:3409, V-A:HIS:383:CE1:3394, V-A:PRO:482:CG:4327, V-A:PRO:482:CB:4326, V-B:TYR:539:CB:9843, V-A:LEU:475:CD2:4259, H-A:TYR:484:OH:4348, V-B:TYR:539:CA:9841, V-B:TYR:539:CD2:9846, V-B:ALA:541:CB:9864, V-A:LEU:373:CD1:3280, V-A:GLU:543:CD:4908, H-A:GLY:454:N:4050, V-A:ILE:369:CG2:3237, V-A:ASP:366:CG:3213, V-A:ASP:366:CB:3212, V-A:ASP:366:C:3208, H-A:ARG:545:NE:4924, V-A:ASP:366:CA:3210, V-B:TYR:539:CG:9844, V-B:TYR:539:CZ:9849, V-B:TYR:539:CD1:9845, V-A:ILE:455:C:4052, H-A:ILE:455:N:4055, H-A:HIS:456:ND1:4067"]

$$$$
RR9_Rahimova_2017
     RDKit          3D

 36 40  0  0  0  0  0  0  0  0999 V2000
  127.6350  133.1020   61.9440 C   0  0  0  0  0  0  0  0  0  0  0  0
  127.9330  133.3020   60.4550 C   0  0  0  0  0  0  0  0  0  0  0  0
  129.2970  132.9710   60.2120 O   0  0  0  0  0  0  0  0  0  0  0  0
  129.7050  131.6550   60.3180 C   0  0  0  0  0  0  0  0  0  0  0  0
  128.7390  130.6810   60.0740 C   0  0  0  0  0  0  0  0  0  0  0  0
  129.0570  129.3300   60.1590 C   0  0  0  0  0  0  0  0  0  0  0  0
  130.3540  128.9130   60.4930 C   0  0  0  0  0  0  0  0  0  0  0  0
  130.7020  127.4570   60.5910 C   0  0  0  0  0  0  0  0  0  0  0  0
  130.0610  126.4920   59.7990 C   0  0  0  0  0  0  0  0  0  0  0  0
  130.4000  125.1300   59.8850 C   0  0  0  0  0  0  0  0  0  0  0  0
  129.7490  124.1590   58.9380 C   0  0  0  0  0  0  0  0  0  0  0  0
  129.5880  122.9830   59.2650 O   0  0  0  0  0  0  0  0  0  0  0  0
  129.3940  124.6600   57.7380 N   0  0  0  0  0  0  0  0  0  0  0  0
  128.8680  123.8890   56.6070 C   0  0  0  0  0  0  0  0  0  0  0  0
  128.0330  122.6640   57.0450 C   0  0  0  0  0  0  0  0  0  0  0  0
  126.5920  122.9800   57.4310 C   0  0  0  0  0  0  0  0  0  0  0  0
  126.3020  123.5010   58.6960 C   0  0  0  0  0  0  0  0  0  0  0  0
  124.9890  123.8200   59.0320 C   0  0  0  0  0  0  0  0  0  0  0  0
  123.9700  123.6140   58.1050 C   0  0  0  0  0  0  0  0  0  0  0  0
  124.2510  123.0910   56.8440 C   0  0  0  0  0  0  0  0  0  0  0  0
  125.5640  122.7720   56.5070 C   0  0  0  0  0  0  0  0  0  0  0  0
  131.3930  124.7900   60.8370 C   0  0  0  0  0  0  0  0  0  0  0  0
  132.0570  123.6110   61.3410 C   0  0  0  0  0  0  0  0  0  0  0  0
  131.8150  122.1740   61.0160 C   0  0  0  0  0  0  0  0  0  0  0  0
  132.7720  121.4420   60.3060 C   0  0  0  0  0  0  0  0  0  0  0  0
  132.5370  120.1060   59.9900 C   0  0  0  0  0  0  0  0  0  0  0  0
  131.3450  119.4960   60.3860 C   0  0  0  0  0  0  0  0  0  0  0  0
  131.0810  118.0450   60.0260 C   0  0  0  0  0  0  0  0  0  0  0  0
  130.3870  120.2240   61.0930 C   0  0  0  0  0  0  0  0  0  0  0  0
  130.6240  121.5580   61.4100 C   0  0  0  0  0  0  0  0  0  0  0  0
  132.9750  123.9400   62.2220 N   0  0  0  0  0  0  0  0  0  0  0  0
  132.9320  125.2710   62.3860 N   0  0  0  0  0  0  0  0  0  0  0  0
  131.9790  125.8440   61.5780 C   0  0  0  0  0  0  0  0  0  0  0  0
  131.6710  127.1380   61.4940 N   0  0  0  0  0  0  0  0  0  0  0  0
  131.3200  129.8980   60.7390 C   0  0  0  0  0  0  0  0  0  0  0  0
  131.0050  131.2530   60.6530 C   0  0  0  0  0  0  0  0  0  0  0  0
  1  2  1  0
  2  3  1  0
  3  4  1  0
  4  5  2  0
  5  6  1  0
  6  7  2  0
  7  8  1  0
  8  9  2  0
  9 10  1  0
 10 11  1  0
 11 12  2  0
 11 13  1  0
 13 14  1  0
 14 15  1  0
 15 16  1  0
 16 17  2  0
 17 18  1  0
 18 19  2  0
 19 20  1  0
 20 21  2  0
 10 22  2  0
 22 23  1  0
 23 24  1  0
 24 25  2  0
 25 26  1  0
 26 27  2  0
 27 28  1  0
 27 29  1  0
 29 30  2  0
 23 31  2  0
 31 32  1  0
 32 33  1  0
 33 34  2  0
  7 35  1  0
 35 36  2  0
 36  4  1  0
 34  8  1  0
 21 16  1  0
 33 22  1  0
 30 24  1  0
M  END
>  <Binding energies>  (57) 
[-8.09]

>  <Ligand effiencies>  (57) 
[-0.21289473684210525]

>  <Interactions>  (57) 
["V-B:PRO:540:CD:9859, V-B:LEU:363:CD1:8161, V-B:PRO:540:CB:9857, V-A:ARG:545:CZ:4926, V-B:TYR:539:C:9839, V-B:PRO:540:CA:9855, V-B:PRO:540:N:9856, V-B:TYR:539:CE2:9848, V-A:SER:385:CB:3409, V-B:ASP:366:CG:8185, V-B:TYR:539:CB:9843, V-A:LEU:475:CD2:4259, H-A:TYR:484:OH:4348, V-B:TYR:539:CD2:9846, V-A:GLU:543:CD:4908, V-B:LEU:475:CD2:9231, H-A:GLY:454:N:4050, V-A:ILE:369:CG2:3237, H-A:ARG:545:NH2:4928, V-A:ASP:366:CG:3213, H-A:ASP:366:OD2:3215, V-B:TYR:531:CE2:9765, V-B:TYR:531:CZ:9766, V-B:TYR:539:CG:9844, V-B:TYR:539:CZ:9849, V-B:TYR:539:CE1:9847, V-B:TYR:539:CD1:9845, V-B:MET:535:CE:9807, V-A:PRO:540:CA:4883, H-A:ALA:541:N:4891, V-A:ALA:541:CB:4892, V-B:LEU:363:CA:8157, V-B:LEU:363:CB:8159"]

$$$$
