1a_Grossjean_2025
     RDKit          3D

 26 27  0  0  0  0  0  0  0  0999 V2000
  123.9410  123.5100   57.7300 C   0  0  0  0  0  0  0  0  0  0  0  0
  124.6870  122.9150   56.5320 C   0  0  0  0  0  0  0  0  0  0  0  0
  125.7200  122.0560   56.9970 O   0  0  0  0  0  0  0  0  0  0  0  0
  126.9740  122.5270   57.2260 C   0  0  0  0  0  0  0  0  0  0  0  0
  127.9690  122.1400   56.6070 O   0  0  0  0  0  0  0  0  0  0  0  0
  127.0310  123.5550   58.3200 C   0  0  0  0  0  0  0  0  0  0  0  0
  126.8150  123.1560   59.6450 C   0  0  0  0  0  0  0  0  0  0  0  0
  126.8560  124.0850   60.6800 C   0  0  0  0  0  0  0  0  0  0  0  0
  127.1130  125.4300   60.4140 C   0  0  0  0  0  0  0  0  0  0  0  0
  127.1290  126.2820   61.5350 N   0  0  0  0  0  0  0  0  0  0  0  0
  127.8610  127.3910   61.7720 C   0  0  0  0  0  0  0  0  0  0  0  0
  128.6890  127.8800   61.0030 O   0  0  0  0  0  0  0  0  0  0  0  0
  127.6100  128.0670   63.1220 C   0  0  0  0  0  0  0  0  0  0  0  0
  128.0070  129.8400   63.0860 S   0  0  0  0  0  0  0  0  0  0  0  0
  127.5900  130.4480   61.4670 C   0  0  0  0  0  0  0  0  0  0  0  0
  126.3110  130.1870   61.0960 N   0  0  0  0  0  0  0  0  0  0  0  0
  125.8890  130.6010   59.8780 C   0  0  0  0  0  0  0  0  0  0  0  0
  124.4520  130.2620   59.5280 C   0  0  0  0  0  0  0  0  0  0  0  0
  126.7110  131.2940   58.9930 C   0  0  0  0  0  0  0  0  0  0  0  0
  128.0250  131.5880   59.3740 C   0  0  0  0  0  0  0  0  0  0  0  0
  128.9040  132.3620   58.3940 C   0  0  0  0  0  0  0  0  0  0  0  0
  128.4880  131.1680   60.6430 C   0  0  0  0  0  0  0  0  0  0  0  0
  129.8440  131.5060   61.0830 C   0  0  0  0  0  0  0  0  0  0  0  0
  130.9150  131.7740   61.4280 N   0  0  0  0  0  0  0  0  0  0  0  0
  127.3380  125.8380   59.0900 C   0  0  0  0  0  0  0  0  0  0  0  0
  127.2960  124.9080   58.0560 C   0  0  0  0  0  0  0  0  0  0  0  0
  1  2  1  0
  2  3  1  0
  3  4  1  0
  4  5  2  0
  4  6  1  0
  6  7  2  0
  7  8  1  0
  8  9  2  0
  9 10  1  0
 10 11  1  0
 11 12  2  0
 11 13  1  0
 13 14  1  0
 14 15  1  0
 15 16  2  0
 16 17  1  0
 17 18  1  0
 17 19  2  0
 19 20  1  0
 20 21  1  0
 20 22  2  0
 22 23  1  0
 23 24  3  0
  9 25  1  0
 25 26  2  0
 26  6  1  0
 22 15  1  0
M  END
>  <Binding energies>  (1) 
[-6.51]

>  <Ligand effiencies>  (1) 
[-0.2411111111111111]

>  <Interactions>  (1) 
["V-B:PRO:540:CD:9859, V-B:LEU:363:CD1:8161, V-B:ILE:538:CD1:9837, V-B:PRO:540:CB:9857, V-B:TYR:539:C:9839, V-B:PRO:540:CA:9855, V-B:PRO:540:N:9856, V-B:GLU:543:CD:9880, V-B:ASP:366:CG:8185, V-B:TYR:539:CA:9841, H-B:GLU:543:OE2:9882, H-B:GLU:543:OE1:9881, V-B:TYR:531:CE2:9765, H-B:ASP:366:OD2:8187, V-B:TYR:531:CZ:9766, V-B:ASP:366:CB:8184, V-A:PRO:540:CA:4883, V-A:PRO:540:N:4884, H-B:TYR:539:N:9842, H-A:ALA:541:N:4891, V-A:TYR:539:CD1:4873, V-A:TYR:539:C:4867, V-A:TYR:539:CE1:4875, V-B:ASP:366:CA:8182, V-B:LEU:363:CA:8157, V-B:LEU:363:CB:8159"]

$$$$
1aa_Ghoteimi_2023
     RDKit          3D

 40 43  0  0  0  0  0  0  0  0999 V2000
  130.6210  118.2070   60.2960 C   0  0  0  0  0  0  0  0  0  0  0  0
  129.8750  118.4450   61.6120 C   0  0  0  0  0  0  0  0  0  0  0  0
  129.0900  119.6260   61.5050 O   0  0  0  0  0  0  0  0  0  0  0  0
  129.5510  120.8180   61.9640 C   0  0  0  0  0  0  0  0  0  0  0  0
  130.2900  120.9290   62.9470 O   0  0  0  0  0  0  0  0  0  0  0  0
  129.0730  121.9900   61.1560 C   0  0  0  0  0  0  0  0  0  0  0  0
  129.6940  122.3690   59.9560 C   0  0  0  0  0  0  0  0  0  0  0  0
  129.2290  123.4610   59.2280 C   0  0  0  0  0  0  0  0  0  0  0  0
  128.1260  124.1950   59.6880 C   0  0  0  0  0  0  0  0  0  0  0  0
  127.5700  125.3130   59.0400 N   0  0  0  0  0  0  0  0  0  0  0  0
  127.6680  125.7190   57.7530 C   0  0  0  0  0  0  0  0  0  0  0  0
  128.3010  125.1300   56.8760 O   0  0  0  0  0  0  0  0  0  0  0  0
  126.9310  127.0100   57.3630 C   0  0  0  0  0  0  0  0  0  0  0  0
  127.4170  128.1170   58.1330 O   0  0  0  0  0  0  0  0  0  0  0  0
  127.6740  127.9700   59.4890 C   0  0  0  0  0  0  0  0  0  0  0  0
  128.8030  127.3030   59.8580 N   0  0  0  0  0  0  0  0  0  0  0  0
  129.0830  127.1260   61.1760 C   0  0  0  0  0  0  0  0  0  0  0  0
  130.3470  126.3830   61.5000 C   0  0  0  0  0  0  0  0  0  0  0  0
  130.6810  126.0690   62.8250 C   0  0  0  0  0  0  0  0  0  0  0  0
  131.8530  125.3830   63.1280 C   0  0  0  0  0  0  0  0  0  0  0  0
  132.7270  124.9870   62.1180 C   0  0  0  0  0  0  0  0  0  0  0  0
  133.8660  124.3120   62.5120 O   0  0  0  0  0  0  0  0  0  0  0  0
  134.2320  123.1140   61.8350 C   0  0  0  0  0  0  0  0  0  0  0  0
  132.4050  125.2890   60.7880 C   0  0  0  0  0  0  0  0  0  0  0  0
  131.2310  125.9750   60.4880 C   0  0  0  0  0  0  0  0  0  0  0  0
  128.2310  127.6400   62.1610 C   0  0  0  0  0  0  0  0  0  0  0  0
  127.0680  128.3390   61.8090 C   0  0  0  0  0  0  0  0  0  0  0  0
  126.2070  128.8700   62.9060 C   0  0  0  0  0  0  0  0  0  0  0  0
  126.2240  128.2670   64.1680 C   0  0  0  0  0  0  0  0  0  0  0  0
  125.4310  128.7630   65.1990 C   0  0  0  0  0  0  0  0  0  0  0  0
  124.6110  129.8720   64.9940 C   0  0  0  0  0  0  0  0  0  0  0  0
  123.8600  130.2930   66.0740 O   0  0  0  0  0  0  0  0  0  0  0  0
  123.8390  129.5020   67.2560 C   0  0  0  0  0  0  0  0  0  0  0  0
  124.5970  130.4850   63.7320 C   0  0  0  0  0  0  0  0  0  0  0  0
  125.3900  129.9870   62.7010 C   0  0  0  0  0  0  0  0  0  0  0  0
  126.7790  128.4990   60.4330 C   0  0  0  0  0  0  0  0  0  0  0  0
  125.5670  129.1760   59.9700 C   0  0  0  0  0  0  0  0  0  0  0  0
  124.6090  129.7110   59.6010 N   0  0  0  0  0  0  0  0  0  0  0  0
  127.5070  123.8230   60.8820 C   0  0  0  0  0  0  0  0  0  0  0  0
  127.9740  122.7320   61.6090 C   0  0  0  0  0  0  0  0  0  0  0  0
  1  2  1  0
  2  3  1  0
  3  4  1  0
  4  5  2  0
  4  6  1  0
  6  7  2  0
  7  8  1  0
  8  9  2  0
  9 10  1  0
 10 11  1  0
 11 12  2  0
 11 13  1  0
 13 14  1  0
 14 15  1  0
 15 16  2  0
 16 17  1  0
 17 18  1  0
 18 19  2  0
 19 20  1  0
 20 21  2  0
 21 22  1  0
 22 23  1  0
 21 24  1  0
 24 25  2  0
 17 26  2  0
 26 27  1  0
 27 28  1  0
 28 29  2  0
 29 30  1  0
 30 31  2  0
 31 32  1  0
 32 33  1  0
 31 34  1  0
 34 35  2  0
 27 36  2  0
 36 37  1  0
 37 38  3  0
  9 39  1  0
 39 40  2  0
 40  6  1  0
 36 15  1  0
 25 18  1  0
 35 28  1  0
M  END
>  <Binding energies>  (2) 
[-6.87]

>  <Ligand effiencies>  (2) 
[-0.1675609756097561]

>  <Interactions>  (2) 
["V-A:ARG:545:CZ:4926, V-B:PRO:540:CA:9855, V-B:GLU:543:CD:9880, V-A:ILE:369:CD1:3239, V-B:TYR:539:CE2:9848, H-B:ALA:541:N:9863, V-B:ASP:366:CG:8185, V-A:PRO:482:CG:4327, V-A:PRO:482:CB:4326, V-B:TYR:539:CB:9843, V-A:LEU:475:CD2:4259, H-A:TYR:484:OH:4348, V-B:TYR:539:CD2:9846, V-A:LEU:475:CD1:4258, V-A:LEU:475:CG:4257, V-B:ALA:541:CB:9864, V-B:HIS:456:CE1:9042, V-B:ARG:545:CZ:9898, H-B:TYR:484:OH:9320, V-A:GLU:543:CD:4908, V-B:TYR:484:CZ:9319, H-B:GLY:454:N:9022, V-B:GLY:454:CA:9021, V-A:GLY:454:CA:4049, H-A:GLY:454:N:4050, V-A:ASP:366:CG:3213, V-A:GLY:453:C:4042, H-B:ASP:366:OD2:8187, V-A:TYR:484:CE1:4345, V-B:ASP:366:CB:8184, V-B:MET:535:CE:9807, V-B:ARG:545:CG:9894, V-B:ARG:545:CD:9895, V-B:TYR:484:CE1:9317, V-B:ILE:455:C:9024, V-B:ARG:545:CB:9893, H-B:ILE:455:N:9027"]

$$$$
1b_Grossjean_2025
     RDKit          3D

 25 26  0  0  0  0  0  0  0  0999 V2000
  132.4540  125.6610   64.2830 C   0  0  0  0  0  0  0  0  0  0  0  0
  133.4880  124.7910   63.8410 O   0  0  0  0  0  0  0  0  0  0  0  0
  133.9380  124.8350   62.5610 C   0  0  0  0  0  0  0  0  0  0  0  0
  135.1270  124.9800   62.2620 O   0  0  0  0  0  0  0  0  0  0  0  0
  132.8440  124.6830   61.5430 C   0  0  0  0  0  0  0  0  0  0  0  0
  131.9720  125.7350   61.2270 C   0  0  0  0  0  0  0  0  0  0  0  0
  130.9690  125.5610   60.2780 C   0  0  0  0  0  0  0  0  0  0  0  0
  130.8140  124.3370   59.6270 C   0  0  0  0  0  0  0  0  0  0  0  0
  129.7660  124.2740   58.6890 N   0  0  0  0  0  0  0  0  0  0  0  0
  129.3450  125.1910   57.7910 C   0  0  0  0  0  0  0  0  0  0  0  0
  129.8390  126.3060   57.6230 O   0  0  0  0  0  0  0  0  0  0  0  0
  128.1610  124.7630   56.9240 C   0  0  0  0  0  0  0  0  0  0  0  0
  127.5600  123.1020   57.3540 S   0  0  0  0  0  0  0  0  0  0  0  0
  127.0820  123.1390   59.0680 C   0  0  0  0  0  0  0  0  0  0  0  0
  128.0630  122.7460   59.9180 N   0  0  0  0  0  0  0  0  0  0  0  0
  127.8070  122.7370   61.2470 C   0  0  0  0  0  0  0  0  0  0  0  0
  128.9560  122.3000   62.1380 C   0  0  0  0  0  0  0  0  0  0  0  0
  126.5720  123.1050   61.7780 C   0  0  0  0  0  0  0  0  0  0  0  0
  125.5470  123.4900   60.9080 C   0  0  0  0  0  0  0  0  0  0  0  0
  124.1970  123.8740   61.5110 C   0  0  0  0  0  0  0  0  0  0  0  0
  125.7910  123.5070   59.5160 C   0  0  0  0  0  0  0  0  0  0  0  0
  124.7200  123.8650   58.5830 C   0  0  0  0  0  0  0  0  0  0  0  0
  123.8720  124.1480   57.8490 N   0  0  0  0  0  0  0  0  0  0  0  0
  131.6830  123.2790   59.9370 C   0  0  0  0  0  0  0  0  0  0  0  0
  132.6860  123.4550   60.8850 C   0  0  0  0  0  0  0  0  0  0  0  0
  1  2  1  0
  2  3  1  0
  3  4  2  0
  3  5  1  0
  5  6  2  0
  6  7  1  0
  7  8  2  0
  8  9  1  0
  9 10  1  0
 10 11  2  0
 10 12  1  0
 12 13  1  0
 13 14  1  0
 14 15  2  0
 15 16  1  0
 16 17  1  0
 16 18  2  0
 18 19  1  0
 19 20  1  0
 19 21  2  0
 21 22  1  0
 22 23  3  0
  8 24  1  0
 24 25  2  0
 25  5  1  0
 21 14  1  0
M  END
>  <Binding energies>  (3) 
[-6.45]

>  <Ligand effiencies>  (3) 
[-0.24807692307692308]

>  <Interactions>  (3) 
["V-B:PRO:540:CB:9857, V-A:ARG:545:CZ:4926, V-B:TYR:539:C:9839, V-B:PRO:540:CA:9855, V-B:PRO:540:N:9856, V-B:GLU:543:CD:9880, V-A:TYR:484:CZ:4347, V-B:TYR:539:CE2:9848, V-B:PRO:540:C:9853, V-B:ASP:366:CG:8185, H-A:TYR:484:OH:4348, V-B:TYR:539:CD2:9846, V-B:ALA:541:CB:9864, V-B:ARG:545:CZ:9898, V-A:GLU:543:CD:4908, H-A:ARG:545:NH1:4927, H-A:GLY:454:N:4050, H-A:ARG:545:NH2:4928, V-A:ASP:366:CG:3213, H-A:ARG:545:NE:4924, V-A:GLY:453:CA:4044, V-A:GLY:453:C:4042, H-B:TYR:531:OH:9767, V-B:TYR:539:CZ:9849, V-B:MET:535:CE:9807, V-B:ASN:362:CB:8148, V-B:ASN:362:C:8144"]

$$$$
1c_Grossjean_2025
     RDKit          3D

 23 24  0  0  0  0  0  0  0  0999 V2000
  133.5280  125.0040   65.1360 C   0  0  0  0  0  0  0  0  0  0  0  0
  133.9670  125.0000   63.7820 O   0  0  0  0  0  0  0  0  0  0  0  0
  133.0280  124.9740   62.7690 C   0  0  0  0  0  0  0  0  0  0  0  0
  133.4270  124.3950   61.5650 C   0  0  0  0  0  0  0  0  0  0  0  0
  132.5510  124.3210   60.4860 C   0  0  0  0  0  0  0  0  0  0  0  0
  131.2480  124.8260   60.6050 C   0  0  0  0  0  0  0  0  0  0  0  0
  130.2860  124.8120   59.5760 N   0  0  0  0  0  0  0  0  0  0  0  0
  130.4580  124.9190   58.2410 C   0  0  0  0  0  0  0  0  0  0  0  0
  131.5400  125.0360   57.6670 O   0  0  0  0  0  0  0  0  0  0  0  0
  129.1740  124.8810   57.4100 C   0  0  0  0  0  0  0  0  0  0  0  0
  128.3130  123.2880   57.5670 S   0  0  0  0  0  0  0  0  0  0  0  0
  127.7550  123.1140   59.2500 C   0  0  0  0  0  0  0  0  0  0  0  0
  128.7020  122.6140   60.0830 N   0  0  0  0  0  0  0  0  0  0  0  0
  128.3920  122.4360   61.3890 C   0  0  0  0  0  0  0  0  0  0  0  0
  129.5040  121.8840   62.2610 C   0  0  0  0  0  0  0  0  0  0  0  0
  127.1370  122.7370   61.9110 C   0  0  0  0  0  0  0  0  0  0  0  0
  126.1450  123.2290   61.0570 C   0  0  0  0  0  0  0  0  0  0  0  0
  124.7710  123.5350   61.6490 C   0  0  0  0  0  0  0  0  0  0  0  0
  126.4450  123.4210   59.6880 C   0  0  0  0  0  0  0  0  0  0  0  0
  125.4040  123.8840   58.7670 C   0  0  0  0  0  0  0  0  0  0  0  0
  124.5810  124.2500   58.0410 N   0  0  0  0  0  0  0  0  0  0  0  0
  130.8480  125.4160   61.8050 C   0  0  0  0  0  0  0  0  0  0  0  0
  131.7270  125.4890   62.8820 C   0  0  0  0  0  0  0  0  0  0  0  0
  1  2  1  0
  2  3  1  0
  3  4  2  0
  4  5  1  0
  5  6  2  0
  6  7  1  0
  7  8  1  0
  8  9  2  0
  8 10  1  0
 10 11  1  0
 11 12  1  0
 12 13  2  0
 13 14  1  0
 14 15  1  0
 14 16  2  0
 16 17  1  0
 17 18  1  0
 17 19  2  0
 19 20  1  0
 20 21  3  0
  6 22  1  0
 22 23  2  0
 23  3  1  0
 19 12  1  0
M  END
>  <Binding energies>  (4) 
[-6.4]

>  <Ligand effiencies>  (4) 
[-0.26666666666666666]

>  <Interactions>  (4) 
["V-A:ARG:545:CD:4923, V-B:PRO:540:CB:9857, V-A:ARG:545:CZ:4926, V-B:TYR:539:C:9839, V-B:PRO:540:CA:9855, V-B:PRO:540:N:9856, V-B:GLU:543:CD:9880, V-A:TYR:484:CZ:4347, V-A:TYR:484:CE2:4346, V-B:TYR:539:CE2:9848, V-B:PRO:540:C:9853, H-A:TYR:484:OH:4348, V-B:ALA:541:CB:9864, H-A:ARG:545:NH1:4927, V-A:GLY:454:CA:4049, H-A:GLY:454:N:4050, H-A:ARG:545:NH2:4928, H-A:ARG:545:NE:4924, V-A:TYR:484:CE1:4345, H-B:TYR:531:OH:9767, V-B:TYR:539:CZ:9849, V-B:ASN:362:CB:8148, H-B:TYR:539:OH:9850"]

$$$$
1d_Grossjean_2025
     RDKit          3D

 21 22  0  0  0  0  0  0  0  0999 V2000
  128.1070  123.9570   59.5260 C   0  0  0  0  0  0  0  0  0  0  0  0
  129.3290  124.2330   60.3790 C   0  0  0  0  0  0  0  0  0  0  0  0
  129.2270  124.8560   61.6210 C   0  0  0  0  0  0  0  0  0  0  0  0
  130.3880  125.0770   62.3690 C   0  0  0  0  0  0  0  0  0  0  0  0
  130.2490  125.7480   63.7350 C   0  0  0  0  0  0  0  0  0  0  0  0
  131.6370  124.6690   61.8450 C   0  0  0  0  0  0  0  0  0  0  0  0
  132.8590  124.8460   62.6310 C   0  0  0  0  0  0  0  0  0  0  0  0
  133.8240  124.9870   63.2550 N   0  0  0  0  0  0  0  0  0  0  0  0
  131.6490  124.0660   60.5650 C   0  0  0  0  0  0  0  0  0  0  0  0
  133.1260  123.4960   59.7540 S   0  0  0  0  0  0  0  0  0  0  0  0
  133.5720  121.8980   60.5000 C   0  0  0  0  0  0  0  0  0  0  0  0
  132.4330  120.8810   60.4090 C   0  0  0  0  0  0  0  0  0  0  0  0
  131.3230  121.1820   60.8490 O   0  0  0  0  0  0  0  0  0  0  0  0
  132.7480  119.7120   59.8110 N   0  0  0  0  0  0  0  0  0  0  0  0
  131.9530  118.5730   59.5830 C   0  0  0  0  0  0  0  0  0  0  0  0
  130.9140  118.3670   60.4940 C   0  0  0  0  0  0  0  0  0  0  0  0
  130.0650  117.2720   60.3570 C   0  0  0  0  0  0  0  0  0  0  0  0
  130.2500  116.3840   59.3010 C   0  0  0  0  0  0  0  0  0  0  0  0
  131.2770  116.5820   58.3810 C   0  0  0  0  0  0  0  0  0  0  0  0
  132.1280  117.6750   58.5160 C   0  0  0  0  0  0  0  0  0  0  0  0
  130.5140  123.8380   59.8560 N   0  0  0  0  0  0  0  0  0  0  0  0
  1  2  1  0
  2  3  2  0
  3  4  1  0
  4  5  1  0
  4  6  2  0
  6  7  1  0
  7  8  3  0
  6  9  1  0
  9 10  1  0
 10 11  1  0
 11 12  1  0
 12 13  2  0
 12 14  1  0
 14 15  1  0
 15 16  2  0
 16 17  1  0
 17 18  2  0
 18 19  1  0
 19 20  2  0
  9 21  2  0
 21  2  1  0
 20 15  1  0
M  END
>  <Binding energies>  (5) 
[-6.83]

>  <Ligand effiencies>  (5) 
[-0.3104545454545455]

>  <Interactions>  (5) 
["V-A:ARG:545:CZ:4926, V-B:TYR:539:C:9839, V-B:GLU:543:CD:9880, V-A:ILE:369:CD1:3239, V-B:TYR:539:CE2:9848, V-A:SER:385:CB:3409, V-B:VAL:344:CG1:7973, V-A:HIS:383:CE1:3394, V-A:PRO:482:CG:4327, V-A:PRO:482:CB:4326, V-B:TYR:539:CB:9843, V-A:LEU:475:CD2:4259, H-A:TYR:484:OH:4348, V-B:TYR:539:CD2:9846, V-A:LEU:373:CD1:3280, V-A:LEU:373:CD2:3281, V-A:GLU:543:CD:4908, H-A:ARG:545:NH1:4927, H-A:GLY:454:N:4050, V-A:ILE:369:CG2:3237, H-A:ARG:545:NH2:4928, H-A:ARG:545:NE:4924, V-B:TYR:539:CG:9844, V-A:SER:385:CA:3407, H-A:SER:385:O:3406"]

$$$$
1e_Grossjean_2025
     RDKit          3D

 22 23  0  0  0  0  0  0  0  0999 V2000
  126.4810  123.0620   57.6290 C   0  0  0  0  0  0  0  0  0  0  0  0
  127.1900  123.0910   58.9700 C   0  0  0  0  0  0  0  0  0  0  0  0
  126.5410  123.5200   60.1310 C   0  0  0  0  0  0  0  0  0  0  0  0
  127.2580  123.5220   61.3280 C   0  0  0  0  0  0  0  0  0  0  0  0
  128.5900  123.1020   61.3370 C   0  0  0  0  0  0  0  0  0  0  0  0
  129.1780  122.6800   60.1380 C   0  0  0  0  0  0  0  0  0  0  0  0
  130.5240  122.2810   60.2070 N   0  0  0  0  0  0  0  0  0  0  0  0
  131.1580  121.6330   61.2090 C   0  0  0  0  0  0  0  0  0  0  0  0
  130.6350  121.2850   62.2690 O   0  0  0  0  0  0  0  0  0  0  0  0
  132.6460  121.3530   60.9840 C   0  0  0  0  0  0  0  0  0  0  0  0
  133.5960  122.8830   60.7350 S   0  0  0  0  0  0  0  0  0  0  0  0
  132.8230  124.1920   61.6640 C   0  0  0  0  0  0  0  0  0  0  0  0
  133.2440  124.2590   62.9530 N   0  0  0  0  0  0  0  0  0  0  0  0
  132.7240  125.2140   63.7600 C   0  0  0  0  0  0  0  0  0  0  0  0
  133.2480  125.2330   65.1830 C   0  0  0  0  0  0  0  0  0  0  0  0
  131.7640  126.1250   63.3240 C   0  0  0  0  0  0  0  0  0  0  0  0
  131.3050  126.0490   62.0050 C   0  0  0  0  0  0  0  0  0  0  0  0
  130.2390  127.0480   61.5580 C   0  0  0  0  0  0  0  0  0  0  0  0
  131.8310  125.0580   61.1450 C   0  0  0  0  0  0  0  0  0  0  0  0
  131.3190  124.9280   59.7790 C   0  0  0  0  0  0  0  0  0  0  0  0
  130.9120  124.8270   58.7000 N   0  0  0  0  0  0  0  0  0  0  0  0
  128.4830  122.6800   58.9620 N   0  0  0  0  0  0  0  0  0  0  0  0
  1  2  1  0
  2  3  2  0
  3  4  1  0
  4  5  2  0
  5  6  1  0
  6  7  1  0
  7  8  1  0
  8  9  2  0
  8 10  1  0
 10 11  1  0
 11 12  1  0
 12 13  2  0
 13 14  1  0
 14 15  1  0
 14 16  2  0
 16 17  1  0
 17 18  1  0
 17 19  2  0
 19 20  1  0
 20 21  3  0
  6 22  2  0
 22  2  1  0
 19 12  1  0
M  END
>  <Binding energies>  (6) 
[-6.65]

>  <Ligand effiencies>  (6) 
[-0.2891304347826087]

>  <Interactions>  (6) 
["V-A:ARG:545:CD:4923, V-B:PRO:540:CB:9857, V-A:ARG:545:CZ:4926, V-B:TYR:539:C:9839, V-B:PRO:540:CA:9855, V-B:PRO:540:N:9856, V-A:TYR:484:CZ:4347, V-A:TYR:484:CE2:4346, V-B:TYR:539:CE2:9848, V-A:LEU:475:CD2:4259, H-A:TYR:484:OH:4348, V-B:TYR:539:CD2:9846, V-A:GLU:543:CD:4908, H-A:GLY:454:N:4050"]

$$$$
1f_Grossjean_2025
     RDKit          3D

 21 22  0  0  0  0  0  0  0  0999 V2000
  129.8230  124.9960   57.0530 C   0  0  0  0  0  0  0  0  0  0  0  0
  130.6350  124.8270   58.3230 C   0  0  0  0  0  0  0  0  0  0  0  0
  132.0140  124.6370   58.2880 C   0  0  0  0  0  0  0  0  0  0  0  0
  132.7080  124.4750   59.4920 C   0  0  0  0  0  0  0  0  0  0  0  0
  134.2170  124.2500   59.4260 C   0  0  0  0  0  0  0  0  0  0  0  0
  131.9960  124.5160   60.7120 C   0  0  0  0  0  0  0  0  0  0  0  0
  132.6970  124.2920   61.9790 C   0  0  0  0  0  0  0  0  0  0  0  0
  133.2520  124.1160   62.9790 N   0  0  0  0  0  0  0  0  0  0  0  0
  130.6000  124.7420   60.6550 C   0  0  0  0  0  0  0  0  0  0  0  0
  129.5400  124.8250   62.0840 S   0  0  0  0  0  0  0  0  0  0  0  0
  128.6770  123.2260   62.2560 C   0  0  0  0  0  0  0  0  0  0  0  0
  127.4640  123.0430   61.3320 C   0  0  0  0  0  0  0  0  0  0  0  0
  126.3630  122.7450   61.7980 O   0  0  0  0  0  0  0  0  0  0  0  0
  127.7290  123.2080   60.0180 N   0  0  0  0  0  0  0  0  0  0  0  0
  126.8650  123.1230   58.9100 C   0  0  0  0  0  0  0  0  0  0  0  0
  125.5500  123.6210   58.8560 C   0  0  0  0  0  0  0  0  0  0  0  0
  124.8020  123.4710   57.6850 C   0  0  0  0  0  0  0  0  0  0  0  0
  125.3890  122.8290   56.5940 C   0  0  0  0  0  0  0  0  0  0  0  0
  126.6560  122.3450   56.6190 N   0  0  0  0  0  0  0  0  0  0  0  0
  127.3700  122.4990   57.7640 C   0  0  0  0  0  0  0  0  0  0  0  0
  129.9330  124.8730   59.4800 N   0  0  0  0  0  0  0  0  0  0  0  0
  1  2  1  0
  2  3  2  0
  3  4  1  0
  4  5  1  0
  4  6  2  0
  6  7  1  0
  7  8  3  0
  6  9  1  0
  9 10  1  0
 10 11  1  0
 11 12  1  0
 12 13  2  0
 12 14  1  0
 14 15  1  0
 15 16  2  0
 16 17  1  0
 17 18  2  0
 18 19  1  0
 19 20  2  0
  9 21  2  0
 21  2  1  0
 20 15  1  0
M  END
>  <Binding energies>  (7) 
[-6.92]

>  <Ligand effiencies>  (7) 
[-0.3145454545454545]

>  <Interactions>  (7) 
["V-B:PRO:540:CD:9859, V-B:LEU:363:CD1:8161, V-B:PRO:540:CB:9857, V-B:TYR:539:C:9839, V-B:PRO:540:CA:9855, V-B:PRO:540:N:9856, V-B:GLU:543:CD:9880, V-A:ILE:369:CD1:3239, V-B:TYR:539:CE2:9848, H-B:ALA:541:N:9863, H-A:TYR:484:OH:4348, V-B:TYR:539:CA:9841, V-B:TYR:539:CD2:9846, H-A:GLY:454:N:4050, V-A:ILE:369:CG2:3237, V-A:ASP:366:CG:3213, V-A:ASP:366:CB:3212, V-A:ILE:369:CB:3236, V-A:ASP:366:CA:3210, V-B:TYR:539:CG:9844, V-A:ILE:369:CG1:3238, V-B:TYR:539:CZ:9849, V-B:MET:535:CE:9807, H-B:TYR:539:N:9842"]

$$$$
1g_Grossjean_2025
     RDKit          3D

 22 23  0  0  0  0  0  0  0  0999 V2000
  133.6080  124.9990   64.9130 C   0  0  0  0  0  0  0  0  0  0  0  0
  132.8650  125.0130   63.5900 C   0  0  0  0  0  0  0  0  0  0  0  0
  131.8540  125.9370   63.3310 C   0  0  0  0  0  0  0  0  0  0  0  0
  131.1930  125.8930   62.0990 C   0  0  0  0  0  0  0  0  0  0  0  0
  130.0780  126.9060   61.8430 C   0  0  0  0  0  0  0  0  0  0  0  0
  131.5700  124.9200   61.1460 C   0  0  0  0  0  0  0  0  0  0  0  0
  130.8570  124.8200   59.8700 C   0  0  0  0  0  0  0  0  0  0  0  0
  130.2910  124.7440   58.8640 N   0  0  0  0  0  0  0  0  0  0  0  0
  132.6240  124.0380   61.4850 C   0  0  0  0  0  0  0  0  0  0  0  0
  133.2320  122.7630   60.4040 S   0  0  0  0  0  0  0  0  0  0  0  0
  132.2660  121.2610   60.7430 C   0  0  0  0  0  0  0  0  0  0  0  0
  130.8850  121.5860   61.3160 C   0  0  0  0  0  0  0  0  0  0  0  0
  130.6000  121.2510   62.4660 O   0  0  0  0  0  0  0  0  0  0  0  0
  130.0390  122.2340   60.4970 N   0  0  0  0  0  0  0  0  0  0  0  0
  128.6960  122.6920   60.8540 C   0  0  0  0  0  0  0  0  0  0  0  0
  127.7600  122.8810   59.6650 C   0  0  0  0  0  0  0  0  0  0  0  0
  128.1260  122.3960   58.4050 C   0  0  0  0  0  0  0  0  0  0  0  0
  127.2710  122.5680   57.3190 C   0  0  0  0  0  0  0  0  0  0  0  0
  126.0510  123.2180   57.4980 C   0  0  0  0  0  0  0  0  0  0  0  0
  125.6780  123.6980   58.7510 C   0  0  0  0  0  0  0  0  0  0  0  0
  126.5330  123.5290   59.8370 C   0  0  0  0  0  0  0  0  0  0  0  0
  133.2450  124.0750   62.6910 N   0  0  0  0  0  0  0  0  0  0  0  0
  1  2  1  0
  2  3  2  0
  3  4  1  0
  4  5  1  0
  4  6  2  0
  6  7  1  0
  7  8  3  0
  6  9  1  0
  9 10  1  0
 10 11  1  0
 11 12  1  0
 12 13  2  0
 12 14  1  0
 14 15  1  0
 15 16  1  0
 16 17  2  0
 17 18  1  0
 18 19  2  0
 19 20  1  0
 20 21  2  0
  9 22  2  0
 22  2  1  0
 21 16  1  0
M  END
>  <Binding energies>  (8) 
[-6.72]

>  <Ligand effiencies>  (8) 
[-0.29217391304347823]

>  <Interactions>  (8) 
["V-A:ARG:545:CD:4923, V-B:PRO:540:CB:9857, V-A:ARG:545:CZ:4926, V-B:TYR:539:C:9839, V-B:PRO:540:CA:9855, V-B:PRO:540:N:9856, V-A:TYR:484:CZ:4347, V-A:TYR:484:CE2:4346, V-B:TYR:539:CE2:9848, V-A:LEU:475:CD2:4259, H-A:TYR:484:OH:4348, V-B:TYR:539:CA:9841, V-B:TYR:539:CD2:9846, V-A:GLU:543:CD:4908, V-A:GLY:454:CA:4049, H-A:GLY:454:N:4050, V-A:GLY:453:C:4042, V-B:TYR:539:CG:9844"]

$$$$
1h_Grossjean_2025
     RDKit          3D

 28 29  0  0  0  0  0  0  0  0999 V2000
  132.1250  125.3060   61.6800 C   0  0  0  0  0  0  0  0  0  0  0  0
  131.7210  124.4230   60.6390 O   0  0  0  0  0  0  0  0  0  0  0  0
  130.9330  123.3290   60.9460 C   0  0  0  0  0  0  0  0  0  0  0  0
  129.7010  123.4120   61.6140 C   0  0  0  0  0  0  0  0  0  0  0  0
  128.9650  122.2620   61.9030 C   0  0  0  0  0  0  0  0  0  0  0  0
  127.6180  122.3690   62.6100 C   0  0  0  0  0  0  0  0  0  0  0  0
  126.5710  122.9980   61.8040 N   0  0  0  0  0  0  0  0  0  0  0  0
  125.2820  123.1250   62.1670 C   0  0  0  0  0  0  0  0  0  0  0  0
  124.8360  122.7430   63.2480 O   0  0  0  0  0  0  0  0  0  0  0  0
  124.3500  123.7810   61.1480 C   0  0  0  0  0  0  0  0  0  0  0  0
  124.9050  123.5030   59.4390 S   0  0  0  0  0  0  0  0  0  0  0  0
  126.4400  124.3840   59.2050 C   0  0  0  0  0  0  0  0  0  0  0  0
  126.7270  125.3260   60.1400 N   0  0  0  0  0  0  0  0  0  0  0  0
  127.8780  126.0290   60.0250 C   0  0  0  0  0  0  0  0  0  0  0  0
  128.1310  127.0600   61.1100 C   0  0  0  0  0  0  0  0  0  0  0  0
  128.7820  125.8270   58.9850 C   0  0  0  0  0  0  0  0  0  0  0  0
  128.4970  124.8610   58.0140 C   0  0  0  0  0  0  0  0  0  0  0  0
  129.5020  124.6550   56.8830 C   0  0  0  0  0  0  0  0  0  0  0  0
  127.3000  124.1150   58.1150 C   0  0  0  0  0  0  0  0  0  0  0  0
  126.9740  123.0990   57.1110 C   0  0  0  0  0  0  0  0  0  0  0  0
  126.7160  122.2960   56.3180 N   0  0  0  0  0  0  0  0  0  0  0  0
  129.4420  121.0180   61.4900 C   0  0  0  0  0  0  0  0  0  0  0  0
  130.6680  120.9050   60.8140 C   0  0  0  0  0  0  0  0  0  0  0  0
  131.2020  119.7060   60.3780 O   0  0  0  0  0  0  0  0  0  0  0  0
  130.5330  118.4880   60.6890 C   0  0  0  0  0  0  0  0  0  0  0  0
  131.4090  122.0680   60.5580 C   0  0  0  0  0  0  0  0  0  0  0  0
  132.6070  121.9740   59.8930 O   0  0  0  0  0  0  0  0  0  0  0  0
  133.7350  121.8390   60.7470 C   0  0  0  0  0  0  0  0  0  0  0  0
  1  2  1  0
  2  3  1  0
  3  4  2  0
  4  5  1  0
  5  6  1  0
  6  7  1  0
  7  8  1  0
  8  9  2  0
  8 10  1  0
 10 11  1  0
 11 12  1  0
 12 13  2  0
 13 14  1  0
 14 15  1  0
 14 16  2  0
 16 17  1  0
 17 18  1  0
 17 19  2  0
 19 20  1  0
 20 21  3  0
  5 22  2  0
 22 23  1  0
 23 24  1  0
 24 25  1  0
 23 26  2  0
 26 27  1  0
 27 28  1  0
 26  3  1  0
 19 12  1  0
M  END
>  <Binding energies>  (9) 
[-6.29]

>  <Ligand effiencies>  (9) 
[-0.21689655172413794]

>  <Interactions>  (9) 
["V-B:PRO:540:CB:9857, V-B:PRO:540:CA:9855, V-B:PRO:540:N:9856, V-B:GLU:543:CD:9880, V-A:ILE:369:CD1:3239, V-B:TYR:539:CE2:9848, V-B:PRO:540:C:9853, H-B:ALA:541:N:9863, V-B:ASP:366:CG:8185, V-A:LEU:475:CD2:4259, V-B:ALA:541:CA:9862, V-B:TYR:539:CD2:9846, V-B:ALA:541:CB:9864, V-A:ILE:369:CG2:3237, V-B:GLU:543:CG:9879, V-B:TYR:539:CZ:9849, V-B:TYR:539:CE1:9847, V-B:MET:535:CE:9807, H-B:ARG:545:NH2:9900, V-B:ASN:362:CB:8148, H-B:TYR:539:N:9842, H-B:ASN:362:ND2:8151"]

$$$$
1i_Grossjean_2025
     RDKit          3D

 20 21  0  0  0  0  0  0  0  0999 V2000
  128.7730  128.1060   67.1440 C   0  0  0  0  0  0  0  0  0  0  0  0
  127.6280  128.5510   66.2540 C   0  0  0  0  0  0  0  0  0  0  0  0
  126.3330  128.6940   66.7480 C   0  0  0  0  0  0  0  0  0  0  0  0
  125.3180  129.1180   65.8830 C   0  0  0  0  0  0  0  0  0  0  0  0
  123.9100  129.2830   66.4520 C   0  0  0  0  0  0  0  0  0  0  0  0
  125.6300  129.3840   64.5300 C   0  0  0  0  0  0  0  0  0  0  0  0
  124.5930  129.8770   63.6190 C   0  0  0  0  0  0  0  0  0  0  0  0
  123.7730  130.2670   62.9020 N   0  0  0  0  0  0  0  0  0  0  0  0
  126.9670  129.1880   64.1100 C   0  0  0  0  0  0  0  0  0  0  0  0
  127.5330  129.4740   62.4480 S   0  0  0  0  0  0  0  0  0  0  0  0
  127.4430  131.2620   62.1350 C   0  0  0  0  0  0  0  0  0  0  0  0
  128.7870  131.8350   61.6790 C   0  0  0  0  0  0  0  0  0  0  0  0
  128.8370  132.9880   61.2480 O   0  0  0  0  0  0  0  0  0  0  0  0
  129.8450  131.0020   61.7940 N   0  0  0  0  0  0  0  0  0  0  0  0
  131.1630  131.2650   61.4520 C   0  0  0  0  0  0  0  0  0  0  0  0
  131.6900  130.9970   60.1900 C   0  0  0  0  0  0  0  0  0  0  0  0
  133.0050  131.3940   60.2580 C   0  0  0  0  0  0  0  0  0  0  0  0
  133.2580  131.8750   61.4980 O   0  0  0  0  0  0  0  0  0  0  0  0
  132.0830  131.7860   62.2470 N   0  0  0  0  0  0  0  0  0  0  0  0
  127.9480  128.7960   64.9620 N   0  0  0  0  0  0  0  0  0  0  0  0
  1  2  1  0
  2  3  2  0
  3  4  1  0
  4  5  1  0
  4  6  2  0
  6  7  1  0
  7  8  3  0
  6  9  1  0
  9 10  1  0
 10 11  1  0
 11 12  1  0
 12 13  2  0
 12 14  1  0
 14 15  1  0
 15 16  1  0
 16 17  2  0
 17 18  1  0
 18 19  1  0
  9 20  2  0
 20  2  1  0
 19 15  2  0
M  END
>  <Binding energies>  (10) 
[-6.34]

>  <Ligand effiencies>  (10) 
[-0.3019047619047619]

>  <Interactions>  (10) 
["V-B:GLU:543:CD:9880, V-B:HIS:456:CE1:9042, V-B:ARG:545:CZ:9898, V-A:GLU:543:CB:4906, V-A:GLU:543:CD:4908, V-A:GLU:543:CG:4907, V-B:TYR:484:CZ:9319, H-B:GLY:454:N:9022, H-A:GLU:543:OE1:4909, V-A:PRO:540:CA:4883, V-A:PRO:540:CB:4885, V-B:ARG:545:CG:9894, H-A:ALA:541:N:4891, V-A:ASN:362:CB:3176, V-A:ALA:541:CB:4892, V-B:ARG:545:CD:9895"]

$$$$
1k_Grossjean_2025
     RDKit          3D

 25 25  0  0  0  0  0  0  0  0999 V2000
  132.5900  124.9590   62.5320 C   0  0  0  0  0  0  0  0  0  0  0  0
  133.5620  123.9340   62.6640 O   0  0  0  0  0  0  0  0  0  0  0  0
  133.2010  122.7230   62.0130 C   0  0  0  0  0  0  0  0  0  0  0  0
  132.5680  123.0430   60.6520 C   0  0  0  0  0  0  0  0  0  0  0  0
  131.8890  121.8930   60.1640 O   0  0  0  0  0  0  0  0  0  0  0  0
  131.0700  121.2570   61.1370 C   0  0  0  0  0  0  0  0  0  0  0  0
  129.7010  121.9480   61.1800 C   0  0  0  0  0  0  0  0  0  0  0  0
  129.8560  123.2780   61.6590 O   0  0  0  0  0  0  0  0  0  0  0  0
  128.9000  123.6450   62.6450 C   0  0  0  0  0  0  0  0  0  0  0  0
  127.7190  122.6570   62.6120 C   0  0  0  0  0  0  0  0  0  0  0  0
  126.5860  123.1100   61.8040 N   0  0  0  0  0  0  0  0  0  0  0  0
  125.3030  123.1250   62.2070 C   0  0  0  0  0  0  0  0  0  0  0  0
  124.9460  122.7560   63.3270 O   0  0  0  0  0  0  0  0  0  0  0  0
  124.2890  123.6340   61.1710 C   0  0  0  0  0  0  0  0  0  0  0  0
  124.8100  123.5040   59.4250 S   0  0  0  0  0  0  0  0  0  0  0  0
  126.3250  124.4240   59.1950 C   0  0  0  0  0  0  0  0  0  0  0  0
  126.5640  125.4090   60.0990 N   0  0  0  0  0  0  0  0  0  0  0  0
  127.6880  126.1500   59.9760 C   0  0  0  0  0  0  0  0  0  0  0  0
  127.8790  127.2360   61.0180 C   0  0  0  0  0  0  0  0  0  0  0  0
  128.6210  125.9390   58.9630 C   0  0  0  0  0  0  0  0  0  0  0  0
  128.3910  124.9230   58.0290 C   0  0  0  0  0  0  0  0  0  0  0  0
  129.4240  124.7090   56.9260 C   0  0  0  0  0  0  0  0  0  0  0  0
  127.2190  124.1400   58.1370 C   0  0  0  0  0  0  0  0  0  0  0  0
  126.9510  123.0710   57.1710 C   0  0  0  0  0  0  0  0  0  0  0  0
  126.7390  122.2270   56.4080 N   0  0  0  0  0  0  0  0  0  0  0  0
  1  2  1  0
  2  3  1  0
  3  4  1  0
  4  5  1  0
  5  6  1  0
  6  7  1  0
  7  8  1  0
  8  9  1  0
  9 10  1  0
 10 11  1  0
 11 12  1  0
 12 13  2  0
 12 14  1  0
 14 15  1  0
 15 16  1  0
 16 17  2  0
 17 18  1  0
 18 19  1  0
 18 20  2  0
 20 21  1  0
 21 22  1  0
 21 23  2  0
 23 24  1  0
 24 25  3  0
 23 16  1  0
M  END
>  <Binding energies>  (11) 
[-5.23]

>  <Ligand effiencies>  (11) 
[-0.20115384615384618]

>  <Interactions>  (11) 
["V-B:PRO:540:CB:9857, V-A:ARG:545:CZ:4926, V-B:PRO:540:CA:9855, V-B:PRO:540:N:9856, V-B:GLU:543:CD:9880, V-B:TYR:539:CE2:9848, V-B:PRO:540:C:9853, H-B:ALA:541:N:9863, V-B:ASP:366:CG:8185, V-A:LEU:475:CD2:4259, H-A:TYR:484:OH:4348, V-B:ALA:541:CA:9862, V-B:TYR:539:CD2:9846, V-B:ALA:541:CB:9864, V-A:GLY:454:CA:4049, H-A:GLY:454:N:4050, H-B:GLU:543:OE1:9881, V-B:GLU:543:CG:9879, V-B:TYR:539:CZ:9849, V-B:MET:535:CE:9807, H-B:ARG:545:NH2:9900, V-B:ASN:362:CB:8148, H-B:TYR:539:N:9842, H-B:ASN:362:ND2:8151"]

$$$$
1l_Grossjean_2025
     RDKit          3D

 17 17  0  0  0  0  0  0  0  0999 V2000
  133.5390  125.3350   66.3440 C   0  0  0  0  0  0  0  0  0  0  0  0
  134.1750  125.0650   65.1030 O   0  0  0  0  0  0  0  0  0  0  0  0
  133.2160  124.8260   64.1190 N   0  0  0  0  0  0  0  0  0  0  0  0
  133.5650  124.9480   62.8240 C   0  0  0  0  0  0  0  0  0  0  0  0
  134.7330  125.0370   62.4350 O   0  0  0  0  0  0  0  0  0  0  0  0
  132.3930  124.9560   61.8320 C   0  0  0  0  0  0  0  0  0  0  0  0
  132.4260  123.6190   60.5890 S   0  0  0  0  0  0  0  0  0  0  0  0
  131.1610  122.4340   61.0130 C   0  0  0  0  0  0  0  0  0  0  0  0
  130.0490  122.9450   61.6040 N   0  0  0  0  0  0  0  0  0  0  0  0
  129.0500  122.1010   61.9540 C   0  0  0  0  0  0  0  0  0  0  0  0
  127.8420  122.7450   62.6080 C   0  0  0  0  0  0  0  0  0  0  0  0
  129.1130  120.7270   61.7320 C   0  0  0  0  0  0  0  0  0  0  0  0
  130.2520  120.1900   61.1230 C   0  0  0  0  0  0  0  0  0  0  0  0
  130.3000  118.6810   60.8870 C   0  0  0  0  0  0  0  0  0  0  0  0
  131.3070  121.0530   60.7510 C   0  0  0  0  0  0  0  0  0  0  0  0
  132.5130  120.5170   60.1100 C   0  0  0  0  0  0  0  0  0  0  0  0
  133.4630  120.0930   59.6060 N   0  0  0  0  0  0  0  0  0  0  0  0
  1  2  1  0
  2  3  1  0
  3  4  1  0
  4  5  2  0
  4  6  1  0
  6  7  1  0
  7  8  1  0
  8  9  2  0
  9 10  1  0
 10 11  1  0
 10 12  2  0
 12 13  1  0
 13 14  1  0
 13 15  2  0
 15 16  1  0
 16 17  3  0
 15  8  1  0
M  END
>  <Binding energies>  (12) 
[-6.28]

>  <Ligand effiencies>  (12) 
[-0.3488888888888889]

>  <Interactions>  (12) 
["V-A:ARG:545:CD:4923, V-A:ARG:545:CZ:4926, V-B:TYR:539:C:9839, V-B:GLU:543:CD:9880, V-A:TYR:484:CZ:4347, V-A:TYR:484:CE2:4346, V-B:TYR:539:CE2:9848, V-A:ARG:545:CG:4922, V-B:PRO:540:C:9853, V-A:HIS:456:CE1:4070, V-A:SER:385:CB:3409, V-A:LEU:475:CD2:4259, H-A:TYR:484:OH:4348, V-B:ALA:541:CA:9862, V-B:TYR:539:CD2:9846, V-A:LEU:475:CD1:4258, V-B:ALA:541:CB:9864, H-A:ARG:545:NH1:4927, V-A:GLY:454:CA:4049, H-A:GLY:454:N:4050, V-A:ILE:369:CG2:3237, H-A:ARG:545:NH2:4928, H-A:GLU:543:OE2:4910, H-A:ARG:545:NE:4924, V-A:GLY:453:CA:4044, V-B:GLU:543:CG:9879"]

$$$$
1m_Grossjean_2025
     RDKit          3D

 20 20  0  0  0  0  0  0  0  0999 V2000
  128.2520  125.0650   56.9830 C   0  0  0  0  0  0  0  0  0  0  0  0
  127.2060  124.1970   56.5720 O   0  0  0  0  0  0  0  0  0  0  0  0
  127.1560  122.9240   57.0160 C   0  0  0  0  0  0  0  0  0  0  0  0
  126.3460  122.0670   56.6510 O   0  0  0  0  0  0  0  0  0  0  0  0
  128.2620  122.6440   58.0550 C   0  0  0  0  0  0  0  0  0  0  0  0
  127.7390  122.5220   59.4250 N   0  0  0  0  0  0  0  0  0  0  0  0
  127.2210  123.5240   60.1600 C   0  0  0  0  0  0  0  0  0  0  0  0
  127.1450  124.6850   59.7540 O   0  0  0  0  0  0  0  0  0  0  0  0
  126.7320  123.1320   61.5600 C   0  0  0  0  0  0  0  0  0  0  0  0
  128.0060  122.3830   62.6320 S   0  0  0  0  0  0  0  0  0  0  0  0
  129.5750  122.5270   61.8040 C   0  0  0  0  0  0  0  0  0  0  0  0
  129.9710  123.8110   61.6130 N   0  0  0  0  0  0  0  0  0  0  0  0
  131.1540  124.0430   60.9980 C   0  0  0  0  0  0  0  0  0  0  0  0
  131.5390  125.5020   60.8380 C   0  0  0  0  0  0  0  0  0  0  0  0
  131.9790  123.0170   60.5420 C   0  0  0  0  0  0  0  0  0  0  0  0
  131.5680  121.6900   60.7100 C   0  0  0  0  0  0  0  0  0  0  0  0
  132.4810  120.5820   60.1880 C   0  0  0  0  0  0  0  0  0  0  0  0
  130.3360  121.4230   61.3490 C   0  0  0  0  0  0  0  0  0  0  0  0
  129.8640  120.0440   61.4900 C   0  0  0  0  0  0  0  0  0  0  0  0
  129.4920  118.9540   61.6030 N   0  0  0  0  0  0  0  0  0  0  0  0
  1  2  1  0
  2  3  1  0
  3  4  2  0
  3  5  1  0
  5  6  1  0
  6  7  1  0
  7  8  2  0
  7  9  1  0
  9 10  1  0
 10 11  1  0
 11 12  2  0
 12 13  1  0
 13 14  1  0
 13 15  2  0
 15 16  1  0
 16 17  1  0
 16 18  2  0
 18 19  1  0
 19 20  3  0
 18 11  1  0
M  END
>  <Binding energies>  (13) 
[-5.28]

>  <Ligand effiencies>  (13) 
[-0.25142857142857145]

>  <Interactions>  (13) 
["V-B:PRO:540:CB:9857, V-B:TYR:539:C:9839, V-B:PRO:540:CA:9855, V-B:PRO:540:N:9856, V-B:GLU:543:CD:9880, V-B:TYR:539:CE2:9848, V-B:PRO:540:C:9853, H-B:ALA:541:N:9863, H-B:TYR:539:O:9840, V-A:SER:385:CB:3409, V-A:LEU:475:CD2:4259, H-A:TYR:484:OH:4348, V-B:TYR:539:CD2:9846, V-B:ALA:541:CB:9864, V-A:ILE:369:CG2:3237, V-B:TYR:539:CG:9844, H-B:TYR:531:OH:9767, V-B:TYR:539:CZ:9849, V-B:MET:535:CE:9807, H-B:TYR:539:N:9842"]

$$$$
1n_Grossjean_2025
     RDKit          3D

 27 28  0  0  0  0  0  0  0  0999 V2000
  133.4460  126.0090   74.6980 C   0  0  0  0  0  0  0  0  0  0  0  0
  132.9570  127.2290   73.9120 C   0  0  0  0  0  0  0  0  0  0  0  0
  131.8490  126.8570   73.1020 O   0  0  0  0  0  0  0  0  0  0  0  0
  130.7410  127.6390   73.0260 C   0  0  0  0  0  0  0  0  0  0  0  0
  130.3040  128.2930   73.9780 O   0  0  0  0  0  0  0  0  0  0  0  0
  130.1080  127.6390   71.6650 C   0  0  0  0  0  0  0  0  0  0  0  0
  130.6380  128.3820   70.5990 C   0  0  0  0  0  0  0  0  0  0  0  0
  130.0250  128.3630   69.3500 C   0  0  0  0  0  0  0  0  0  0  0  0
  128.8680  127.6100   69.1410 C   0  0  0  0  0  0  0  0  0  0  0  0
  128.3280  127.6670   67.8410 N   0  0  0  0  0  0  0  0  0  0  0  0
  128.1100  128.7330   67.0420 C   0  0  0  0  0  0  0  0  0  0  0  0
  128.3680  129.9030   67.3270 O   0  0  0  0  0  0  0  0  0  0  0  0
  127.4920  128.4210   65.6730 C   0  0  0  0  0  0  0  0  0  0  0  0
  128.2750  129.0470   64.4990 C   0  0  0  0  0  0  0  0  0  0  0  0
  127.4680  128.8770   62.8790 S   0  0  0  0  0  0  0  0  0  0  0  0
  126.8670  130.4830   62.4040 C   0  0  0  0  0  0  0  0  0  0  0  0
  127.7830  131.2310   61.7390 N   0  0  0  0  0  0  0  0  0  0  0  0
  127.4290  132.4660   61.3140 C   0  0  0  0  0  0  0  0  0  0  0  0
  128.5000  133.2390   60.5680 C   0  0  0  0  0  0  0  0  0  0  0  0
  126.1640  133.0060   61.5380 C   0  0  0  0  0  0  0  0  0  0  0  0
  125.2190  132.2500   62.2410 C   0  0  0  0  0  0  0  0  0  0  0  0
  123.8430  132.8670   62.4860 C   0  0  0  0  0  0  0  0  0  0  0  0
  125.5680  130.9590   62.6990 C   0  0  0  0  0  0  0  0  0  0  0  0
  124.6120  130.1730   63.4810 C   0  0  0  0  0  0  0  0  0  0  0  0
  123.8560  129.5530   64.1000 N   0  0  0  0  0  0  0  0  0  0  0  0
  128.3380  126.8570   70.1980 C   0  0  0  0  0  0  0  0  0  0  0  0
  128.9550  126.8740   71.4460 C   0  0  0  0  0  0  0  0  0  0  0  0
  1  2  1  0
  2  3  1  0
  3  4  1  0
  4  5  2  0
  4  6  1  0
  6  7  2  0
  7  8  1  0
  8  9  2  0
  9 10  1  0
 10 11  1  0
 11 12  2  0
 11 13  1  0
 13 14  1  0
 14 15  1  0
 15 16  1  0
 16 17  2  0
 17 18  1  0
 18 19  1  0
 18 20  2  0
 20 21  1  0
 21 22  1  0
 21 23  2  0
 23 24  1  0
 24 25  3  0
  9 26  1  0
 26 27  2  0
 27  6  1  0
 23 16  1  0
M  END
>  <Binding energies>  (14) 
[-7.12]

>  <Ligand effiencies>  (14) 
[-0.2542857142857143]

>  <Interactions>  (14) 
["V-B:GLU:543:CD:9880, V-A:HIS:456:CE1:4070, V-A:GLU:543:C:4902, V-B:HIS:456:CE1:9042, V-A:GLY:544:CA:4914, V-A:GLU:543:CB:4906, H-B:TYR:484:OH:9320, V-A:GLU:543:CD:4908, V-A:GLY:544:C:4912, V-B:ILE:369:CD1:8211, V-A:GLU:543:CG:4907, H-B:ARG:545:NE:9896, V-A:HIS:456:CG:4066, H-B:GLY:454:N:9022, V-B:LEU:475:CD2:9231, V-B:GLY:454:CA:9021, V-A:HIS:456:CD2:4068, H-B:GLU:543:OE2:9882, H-B:ARG:545:NH2:9900, V-A:PRO:540:CA:4883, V-A:PRO:540:C:4881, V-A:ALA:541:CB:4892, V-A:TYR:539:C:4867, H-B:ARG:545:NH1:9899, V-B:HIS:456:CD2:9040, H-A:LYS:547:NZ:4951, V-A:HIS:456:C:4061, V-A:HIS:456:CB:4065, V-A:VAL:458:CG2:4087"]

$$$$
1q_Grossjean_2025
     RDKit          3D

 21 21  0  0  0  0  0  0  0  0999 V2000
  127.7140  123.7160   62.1040 C   0  0  0  0  0  0  0  0  0  0  0  0
  126.6770  122.7480   62.0400 O   0  0  0  0  0  0  0  0  0  0  0  0
  125.3770  123.1270   62.1020 C   0  0  0  0  0  0  0  0  0  0  0  0
  124.6150  122.9210   63.0480 O   0  0  0  0  0  0  0  0  0  0  0  0
  124.8700  123.8440   60.8320 C   0  0  0  0  0  0  0  0  0  0  0  0
  125.7240  123.6060   59.6590 N   0  0  0  0  0  0  0  0  0  0  0  0
  125.3170  123.5990   58.3750 C   0  0  0  0  0  0  0  0  0  0  0  0
  124.1490  123.8010   58.0370 O   0  0  0  0  0  0  0  0  0  0  0  0
  126.4070  123.3390   57.3250 C   0  0  0  0  0  0  0  0  0  0  0  0
  127.8050  123.8540   57.7220 C   0  0  0  0  0  0  0  0  0  0  0  0
  128.5990  122.8700   59.0280 S   0  0  0  0  0  0  0  0  0  0  0  0
  130.2360  123.5150   59.3080 C   0  0  0  0  0  0  0  0  0  0  0  0
  130.6150  124.4400   58.3900 N   0  0  0  0  0  0  0  0  0  0  0  0
  131.8420  125.0010   58.4970 C   0  0  0  0  0  0  0  0  0  0  0  0
  132.2000  126.0130   57.4250 C   0  0  0  0  0  0  0  0  0  0  0  0
  132.7300  124.6760   59.5200 C   0  0  0  0  0  0  0  0  0  0  0  0
  132.3410  123.7430   60.4860 C   0  0  0  0  0  0  0  0  0  0  0  0
  133.3270  123.4160   61.6080 C   0  0  0  0  0  0  0  0  0  0  0  0
  131.0630  123.1450   60.3970 C   0  0  0  0  0  0  0  0  0  0  0  0
  130.6180  122.2100   61.4310 C   0  0  0  0  0  0  0  0  0  0  0  0
  130.2690  121.4710   62.2510 N   0  0  0  0  0  0  0  0  0  0  0  0
  1  2  1  0
  2  3  1  0
  3  4  2  0
  3  5  1  0
  5  6  1  0
  6  7  1  0
  7  8  2  0
  7  9  1  0
  9 10  1  0
 10 11  1  0
 11 12  1  0
 12 13  2  0
 13 14  1  0
 14 15  1  0
 14 16  2  0
 16 17  1  0
 17 18  1  0
 17 19  2  0
 19 20  1  0
 20 21  3  0
 19 12  1  0
M  END
>  <Binding energies>  (15) 
[-6.0]

>  <Ligand effiencies>  (15) 
[-0.2727272727272727]

>  <Interactions>  (15) 
["V-B:PRO:540:CB:9857, V-B:PRO:540:CA:9855, V-B:GLU:543:CD:9880, V-A:ILE:369:CD1:3239, V-B:TYR:539:CE2:9848, V-B:PRO:540:C:9853, H-B:ALA:541:N:9863, V-B:ASP:366:CG:8185, H-A:TYR:484:OH:4348, V-B:TYR:539:CD2:9846, V-A:ASP:366:CG:3213, V-A:ASP:366:CB:3212, V-B:GLU:543:CG:9879, H-B:TYR:531:OH:9767, V-B:TYR:539:CZ:9849, H-B:ARG:545:NH2:9900, H-B:ASN:362:ND2:8151, H-B:TYR:539:OH:9850"]

$$$$
2a_Grossjean_2025
     RDKit          3D

 29 30  0  0  0  0  0  0  0  0999 V2000
  124.0600  123.8380   58.1900 C   0  0  0  0  0  0  0  0  0  0  0  0
  125.4130  123.5190   58.8310 C   0  0  0  0  0  0  0  0  0  0  0  0
  125.4440  124.0470   60.1520 O   0  0  0  0  0  0  0  0  0  0  0  0
  125.7460  123.2580   61.2150 C   0  0  0  0  0  0  0  0  0  0  0  0
  124.8960  122.7700   61.9650 O   0  0  0  0  0  0  0  0  0  0  0  0
  127.2210  123.0210   61.3740 C   0  0  0  0  0  0  0  0  0  0  0  0
  128.1160  123.1710   60.3040 C   0  0  0  0  0  0  0  0  0  0  0  0
  129.4770  122.9420   60.4840 C   0  0  0  0  0  0  0  0  0  0  0  0
  129.9710  122.5520   61.7290 C   0  0  0  0  0  0  0  0  0  0  0  0
  131.3590  122.3340   61.7920 N   0  0  0  0  0  0  0  0  0  0  0  0
  132.1580  121.5910   60.9960 C   0  0  0  0  0  0  0  0  0  0  0  0
  131.7840  120.9150   60.0370 O   0  0  0  0  0  0  0  0  0  0  0  0
  133.6490  121.6130   61.3520 C   0  0  0  0  0  0  0  0  0  0  0  0
  134.3560  123.2930   61.3920 S   0  0  0  0  0  0  0  0  0  0  0  0
  133.1800  124.4260   62.1240 C   0  0  0  0  0  0  0  0  0  0  0  0
  133.2510  124.5570   63.4730 N   0  0  0  0  0  0  0  0  0  0  0  0
  132.3840  125.3870   64.0950 C   0  0  0  0  0  0  0  0  0  0  0  0
  132.5060  125.4590   65.6060 C   0  0  0  0  0  0  0  0  0  0  0  0
  131.4240  126.1230   63.4070 C   0  0  0  0  0  0  0  0  0  0  0  0
  131.3390  126.0100   62.0100 C   0  0  0  0  0  0  0  0  0  0  0  0
  130.2710  126.8330   61.2630 C   0  0  0  0  0  0  0  0  0  0  0  0
  130.8570  127.7260   60.4660 F   0  0  0  0  0  0  0  0  0  0  0  0
  129.5090  126.0250   60.5240 F   0  0  0  0  0  0  0  0  0  0  0  0
  129.4630  127.5010   62.0900 F   0  0  0  0  0  0  0  0  0  0  0  0
  132.2400  125.1400   61.3460 C   0  0  0  0  0  0  0  0  0  0  0  0
  132.1930  124.9820   59.8880 C   0  0  0  0  0  0  0  0  0  0  0  0
  132.1570  124.8570   58.7380 N   0  0  0  0  0  0  0  0  0  0  0  0
  129.0840  122.4070   62.8050 C   0  0  0  0  0  0  0  0  0  0  0  0
  127.7230  122.6410   62.6250 C   0  0  0  0  0  0  0  0  0  0  0  0
  1  2  1  0
  2  3  1  0
  3  4  1  0
  4  5  2  0
  4  6  1  0
  6  7  2  0
  7  8  1  0
  8  9  2  0
  9 10  1  0
 10 11  1  0
 11 12  2  0
 11 13  1  0
 13 14  1  0
 14 15  1  0
 15 16  2  0
 16 17  1  0
 17 18  1  0
 17 19  2  0
 19 20  1  0
 20 21  1  0
 21 22  1  0
 21 23  1  0
 21 24  1  0
 20 25  2  0
 25 26  1  0
 26 27  3  0
  9 28  1  0
 28 29  2  0
 29  6  1  0
 25 15  1  0
M  END
>  <Binding energies>  (16) 
[-6.41]

>  <Ligand effiencies>  (16) 
[-0.21366666666666667]

>  <Interactions>  (16) 
["V-B:LEU:363:CD1:8161, V-A:ARG:545:CD:4923, V-B:PRO:540:CB:9857, V-A:ARG:545:CZ:4926, V-B:PRO:540:CA:9855, V-B:PRO:540:N:9856, V-B:GLU:543:CD:9880, V-A:ILE:369:CD1:3239, V-A:TYR:484:CZ:4347, V-A:TYR:484:CE2:4346, V-A:ARG:545:CG:4922, V-B:PRO:540:C:9853, H-B:ALA:541:N:9863, V-A:HIS:456:CE1:4070, V-B:ASP:366:CG:8185, V-A:LEU:475:CD2:4259, H-A:TYR:484:OH:4348, V-B:ALA:541:CA:9862, V-B:ALA:541:CB:9864, V-A:GLU:543:CD:4908, V-A:GLY:454:CA:4049, H-A:GLY:454:N:4050, V-A:ILE:369:CG2:3237, H-A:ARG:545:NH2:4928, V-A:ASP:366:CG:3213, V-B:GLU:543:CG:9879, V-A:TYR:484:CE1:4345, H-B:TYR:539:OH:9850, V-B:LEU:363:CA:8157"]

$$$$
2b_Grossjean_2025
     RDKit          3D

 28 29  0  0  0  0  0  0  0  0999 V2000
  132.3210  126.8530   73.8330 C   0  0  0  0  0  0  0  0  0  0  0  0
  131.0110  126.5630   73.3660 O   0  0  0  0  0  0  0  0  0  0  0  0
  130.1460  127.5590   73.0460 C   0  0  0  0  0  0  0  0  0  0  0  0
  129.6820  128.3490   73.8750 O   0  0  0  0  0  0  0  0  0  0  0  0
  129.8060  127.6040   71.5850 C   0  0  0  0  0  0  0  0  0  0  0  0
  130.5420  128.3780   70.6750 C   0  0  0  0  0  0  0  0  0  0  0  0
  130.1990  128.3990   69.3260 C   0  0  0  0  0  0  0  0  0  0  0  0
  129.1240  127.6450   68.8570 C   0  0  0  0  0  0  0  0  0  0  0  0
  128.8610  127.7430   67.4780 N   0  0  0  0  0  0  0  0  0  0  0  0
  128.5200  128.8210   66.7400 C   0  0  0  0  0  0  0  0  0  0  0  0
  128.3470  129.9590   67.1780 O   0  0  0  0  0  0  0  0  0  0  0  0
  128.3270  128.5540   65.2440 C   0  0  0  0  0  0  0  0  0  0  0  0
  126.6690  129.0140   64.6410 S   0  0  0  0  0  0  0  0  0  0  0  0
  126.7790  129.6320   62.9670 C   0  0  0  0  0  0  0  0  0  0  0  0
  126.1360  128.8970   62.0240 N   0  0  0  0  0  0  0  0  0  0  0  0
  126.1810  129.3030   60.7360 C   0  0  0  0  0  0  0  0  0  0  0  0
  125.4480  128.4200   59.7440 C   0  0  0  0  0  0  0  0  0  0  0  0
  126.8540  130.4530   60.3340 C   0  0  0  0  0  0  0  0  0  0  0  0
  127.5200  131.2320   61.2920 C   0  0  0  0  0  0  0  0  0  0  0  0
  128.2570  132.5040   60.8310 C   0  0  0  0  0  0  0  0  0  0  0  0
  127.6740  133.5840   61.3550 F   0  0  0  0  0  0  0  0  0  0  0  0
  129.5300  132.4650   61.2260 F   0  0  0  0  0  0  0  0  0  0  0  0
  128.2540  132.6510   59.5040 F   0  0  0  0  0  0  0  0  0  0  0  0
  127.4870  130.8150   62.6470 C   0  0  0  0  0  0  0  0  0  0  0  0
  128.1700  131.5880   63.6890 C   0  0  0  0  0  0  0  0  0  0  0  0
  128.7090  132.1980   64.5110 N   0  0  0  0  0  0  0  0  0  0  0  0
  128.3780  126.8740   69.7610 C   0  0  0  0  0  0  0  0  0  0  0  0
  128.7210  126.8550   71.1100 C   0  0  0  0  0  0  0  0  0  0  0  0
  1  2  1  0
  2  3  1  0
  3  4  2  0
  3  5  1  0
  5  6  2  0
  6  7  1  0
  7  8  2  0
  8  9  1  0
  9 10  1  0
 10 11  2  0
 10 12  1  0
 12 13  1  0
 13 14  1  0
 14 15  2  0
 15 16  1  0
 16 17  1  0
 16 18  2  0
 18 19  1  0
 19 20  1  0
 20 21  1  0
 20 22  1  0
 20 23  1  0
 19 24  2  0
 24 25  1  0
 25 26  3  0
  8 27  1  0
 27 28  2  0
 28  5  1  0
 24 14  1  0
M  END
>  <Binding energies>  (17) 
[-5.82]

>  <Ligand effiencies>  (17) 
[-0.2006896551724138]

>  <Interactions>  (17) 
["V-B:GLU:543:CD:9880, V-A:HIS:456:CE1:4070, V-B:ASP:366:CG:8185, V-A:GLU:543:C:4902, V-B:HIS:456:CE1:9042, V-A:GLY:544:CA:4914, V-A:GLU:543:CB:4906, H-B:TYR:484:OH:9320, V-A:GLU:543:CD:4908, V-A:GLY:544:C:4912, V-A:GLU:543:CG:4907, V-A:HIS:456:CG:4066, V-B:LEU:475:CD2:9231, V-A:HIS:456:CD2:4068, H-A:GLU:543:OE2:4910, H-B:GLU:543:OE2:9882, V-B:ASP:366:CB:8184, H-B:ARG:545:NH2:9900, V-A:PRO:540:CA:4883, V-A:PRO:540:C:4881, V-A:ALA:541:CB:4892, V-A:TYR:539:CD1:4873, V-A:TYR:539:C:4867, V-B:HIS:456:CD2:9040, H-A:LYS:547:NZ:4951, V-B:TYR:484:CE2:9318, V-A:ALA:541:CA:4890, V-A:HIS:456:CB:4065"]

$$$$
2c_Grossjean_2025
     RDKit          3D

 26 27  0  0  0  0  0  0  0  0999 V2000
  124.2700  123.4750   61.9050 C   0  0  0  0  0  0  0  0  0  0  0  0
  124.9150  123.6470   60.6470 O   0  0  0  0  0  0  0  0  0  0  0  0
  126.2510  123.3180   60.5240 C   0  0  0  0  0  0  0  0  0  0  0  0
  126.9490  123.0960   61.7110 C   0  0  0  0  0  0  0  0  0  0  0  0
  128.3000  122.7600   61.6890 C   0  0  0  0  0  0  0  0  0  0  0  0
  128.9750  122.6540   60.4640 C   0  0  0  0  0  0  0  0  0  0  0  0
  130.3320  122.3030   60.3410 N   0  0  0  0  0  0  0  0  0  0  0  0
  131.1120  121.6350   61.2180 C   0  0  0  0  0  0  0  0  0  0  0  0
  130.7500  121.2600   62.3350 O   0  0  0  0  0  0  0  0  0  0  0  0
  132.5530  121.3890   60.7440 C   0  0  0  0  0  0  0  0  0  0  0  0
  133.6560  122.8450   60.7970 S   0  0  0  0  0  0  0  0  0  0  0  0
  132.8660  124.1560   61.7220 C   0  0  0  0  0  0  0  0  0  0  0  0
  133.2880  124.3070   63.0040 N   0  0  0  0  0  0  0  0  0  0  0  0
  132.7290  125.2720   63.7660 C   0  0  0  0  0  0  0  0  0  0  0  0
  133.2420  125.3660   65.1900 C   0  0  0  0  0  0  0  0  0  0  0  0
  131.7400  126.1280   63.2880 C   0  0  0  0  0  0  0  0  0  0  0  0
  131.2940  125.9960   61.9660 C   0  0  0  0  0  0  0  0  0  0  0  0
  130.2000  126.9520   61.4500 C   0  0  0  0  0  0  0  0  0  0  0  0
  129.5050  127.4450   62.4760 F   0  0  0  0  0  0  0  0  0  0  0  0
  130.7540  127.9610   60.7780 F   0  0  0  0  0  0  0  0  0  0  0  0
  129.3350  126.3500   60.6310 F   0  0  0  0  0  0  0  0  0  0  0  0
  131.8690  124.9830   61.1560 C   0  0  0  0  0  0  0  0  0  0  0  0
  131.4390  124.7980   59.7650 C   0  0  0  0  0  0  0  0  0  0  0  0
  131.1000  124.6520   58.6680 N   0  0  0  0  0  0  0  0  0  0  0  0
  128.2770  122.8600   59.2730 C   0  0  0  0  0  0  0  0  0  0  0  0
  126.9270  123.1940   59.3000 C   0  0  0  0  0  0  0  0  0  0  0  0
  1  2  1  0
  2  3  1  0
  3  4  2  0
  4  5  1  0
  5  6  2  0
  6  7  1  0
  7  8  1  0
  8  9  2  0
  8 10  1  0
 10 11  1  0
 11 12  1  0
 12 13  2  0
 13 14  1  0
 14 15  1  0
 14 16  2  0
 16 17  1  0
 17 18  1  0
 18 19  1  0
 18 20  1  0
 18 21  1  0
 17 22  2  0
 22 23  1  0
 23 24  3  0
  6 25  1  0
 25 26  2  0
 26  3  1  0
 22 12  1  0
M  END
>  <Binding energies>  (18) 
[-5.99]

>  <Ligand effiencies>  (18) 
[-0.22185185185185186]

>  <Interactions>  (18) 
["V-A:ARG:545:CD:4923, V-B:PRO:540:CB:9857, V-A:ARG:545:CZ:4926, V-B:TYR:539:C:9839, V-B:PRO:540:CA:9855, V-B:PRO:540:N:9856, V-B:GLU:543:CD:9880, V-A:TYR:484:CZ:4347, V-A:TYR:484:CE2:4346, V-B:TYR:539:CE2:9848, V-A:ARG:545:CG:4922, V-B:PRO:540:C:9853, V-A:LEU:475:CD2:4259, H-A:TYR:484:OH:4348, V-B:TYR:539:CD2:9846, V-B:ARG:545:CZ:9898, V-A:GLU:543:CD:4908, H-A:GLY:454:N:4050, V-A:ILE:369:CG2:3237, V-B:ASN:362:CB:8148, H-B:TYR:539:OH:9850"]

$$$$
2d_Ghoteimi_2023
     RDKit          3D

 38 42  0  0  0  0  0  0  0  0999 V2000
  127.1840  133.0830   59.8380 C   0  0  0  0  0  0  0  0  0  0  0  0
  126.1800  133.5270   60.7390 O   0  0  0  0  0  0  0  0  0  0  0  0
  124.8790  133.2620   60.5000 C   0  0  0  0  0  0  0  0  0  0  0  0
  124.2490  133.6130   59.4980 O   0  0  0  0  0  0  0  0  0  0  0  0
  124.2570  132.4470   61.6430 C   0  0  0  0  0  0  0  0  0  0  0  0
  125.4460  132.2060   63.0070 S   0  0  0  0  0  0  0  0  0  0  0  0
  125.9340  130.4930   63.0280 C   0  0  0  0  0  0  0  0  0  0  0  0
  126.4070  130.0860   64.2310 N   0  0  0  0  0  0  0  0  0  0  0  0
  126.8220  128.8050   64.3900 C   0  0  0  0  0  0  0  0  0  0  0  0
  127.3470  128.4340   65.7400 C   0  0  0  0  0  0  0  0  0  0  0  0
  126.5710  127.6740   66.6220 C   0  0  0  0  0  0  0  0  0  0  0  0
  127.0530  127.3250   67.8810 C   0  0  0  0  0  0  0  0  0  0  0  0
  128.3350  127.7140   68.2990 C   0  0  0  0  0  0  0  0  0  0  0  0
  128.8280  127.3870   69.5670 N   0  0  0  0  0  0  0  0  0  0  0  0
  129.8180  128.2400   70.2540 C   0  0  0  0  0  0  0  0  0  0  0  0
  130.5120  127.5460   71.4440 C   0  0  0  0  0  0  0  0  0  0  0  0
  129.5400  127.0640   72.3580 O   0  0  0  0  0  0  0  0  0  0  0  0
  128.6750  126.1200   71.7490 C   0  0  0  0  0  0  0  0  0  0  0  0
  127.9300  126.7690   70.5640 C   0  0  0  0  0  0  0  0  0  0  0  0
  129.1040  128.4870   67.4170 C   0  0  0  0  0  0  0  0  0  0  0  0
  128.6210  128.8380   66.1590 C   0  0  0  0  0  0  0  0  0  0  0  0
  126.7680  127.8930   63.3330 C   0  0  0  0  0  0  0  0  0  0  0  0
  126.2530  128.2780   62.0890 C   0  0  0  0  0  0  0  0  0  0  0  0
  126.1980  127.2430   61.0140 C   0  0  0  0  0  0  0  0  0  0  0  0
  126.2050  127.6240   59.6710 C   0  0  0  0  0  0  0  0  0  0  0  0
  126.1670  126.6680   58.6610 C   0  0  0  0  0  0  0  0  0  0  0  0
  126.1190  125.2980   58.9670 C   0  0  0  0  0  0  0  0  0  0  0  0
  126.0930  124.3190   57.9700 N   0  0  0  0  0  0  0  0  0  0  0  0
  124.8710  123.5410   57.6860 C   0  0  0  0  0  0  0  0  0  0  0  0
  124.9230  122.7820   56.3430 C   0  0  0  0  0  0  0  0  0  0  0  0
  126.0740  121.9540   56.2970 O   0  0  0  0  0  0  0  0  0  0  0  0
  127.2690  122.7090   56.4230 C   0  0  0  0  0  0  0  0  0  0  0  0
  127.2790  123.4630   57.7700 C   0  0  0  0  0  0  0  0  0  0  0  0
  126.1300  124.9230   60.3180 C   0  0  0  0  0  0  0  0  0  0  0  0
  126.1690  125.8810   61.3270 C   0  0  0  0  0  0  0  0  0  0  0  0
  125.8150  129.6160   61.9250 C   0  0  0  0  0  0  0  0  0  0  0  0
  125.2510  130.0630   60.6480 C   0  0  0  0  0  0  0  0  0  0  0  0
  124.8060  130.4110   59.6370 N   0  0  0  0  0  0  0  0  0  0  0  0
  1  2  1  0
  2  3  1  0
  3  4  2  0
  3  5  1  0
  5  6  1  0
  6  7  1  0
  7  8  2  0
  8  9  1  0
  9 10  1  0
 10 11  2  0
 11 12  1  0
 12 13  2  0
 13 14  1  0
 14 15  1  0
 15 16  1  0
 16 17  1  0
 17 18  1  0
 18 19  1  0
 13 20  1  0
 20 21  2  0
  9 22  2  0
 22 23  1  0
 23 24  1  0
 24 25  2  0
 25 26  1  0
 26 27  2  0
 27 28  1  0
 28 29  1  0
 29 30  1  0
 30 31  1  0
 31 32  1  0
 32 33  1  0
 27 34  1  0
 34 35  2  0
 23 36  2  0
 36 37  1  0
 37 38  3  0
 36  7  1  0
 21 10  1  0
 35 24  1  0
 19 14  1  0
 33 28  1  0
M  END
>  <Binding energies>  (19) 
[-5.94]

>  <Ligand effiencies>  (19) 
[-0.1563157894736842]

>  <Interactions>  (19) 
["V-B:PRO:540:CD:9859, V-B:LEU:363:CD1:8161, V-B:ILE:538:CD1:9837, V-B:PRO:540:CB:9857, V-B:GLU:543:CD:9880, V-B:ILE:538:CG2:9835, V-A:HIS:456:CE1:4070, V-B:ASP:366:CG:8185, V-A:GLU:543:C:4902, V-B:HIS:456:CE1:9042, V-B:ARG:545:CZ:9898, V-A:GLU:543:CB:4906, H-B:TYR:484:OH:9320, V-A:GLU:543:CD:4908, V-A:GLY:544:C:4912, V-B:ILE:369:CD1:8211, V-A:GLU:543:CG:4907, V-A:HIS:456:CG:4066, V-A:HIS:456:CD2:4068, V-B:TYR:531:CE2:9765, V-B:TYR:539:CG:9844, V-B:ASP:366:CB:8184, V-B:TYR:539:CZ:9849, V-B:TYR:539:CE1:9847, V-B:TYR:539:CD1:9845, H-B:TYR:539:N:9842, V-B:ARG:545:CG:9894, V-A:TYR:539:CD1:4873, V-A:TYR:539:CE1:4875, V-B:GLU:543:CB:9878, V-B:HIS:456:CD2:9040, H-B:LYS:547:NZ:9923"]

$$$$
2d_Grossjean_2025
     RDKit          3D

 24 25  0  0  0  0  0  0  0  0999 V2000
  133.1990  125.3600   65.1030 C   0  0  0  0  0  0  0  0  0  0  0  0
  132.6990  125.1660   63.6840 C   0  0  0  0  0  0  0  0  0  0  0  0
  131.7320  126.0030   63.1310 C   0  0  0  0  0  0  0  0  0  0  0  0
  131.3050  125.7860   61.8120 C   0  0  0  0  0  0  0  0  0  0  0  0
  130.2420  126.7270   61.2140 C   0  0  0  0  0  0  0  0  0  0  0  0
  129.3630  126.0260   60.4980 F   0  0  0  0  0  0  0  0  0  0  0  0
  129.5940  127.3640   62.1900 F   0  0  0  0  0  0  0  0  0  0  0  0
  130.7670  127.6540   60.4100 F   0  0  0  0  0  0  0  0  0  0  0  0
  131.8730  124.7090   61.0840 C   0  0  0  0  0  0  0  0  0  0  0  0
  131.4950  124.4680   59.6890 C   0  0  0  0  0  0  0  0  0  0  0  0
  131.1970  124.2810   58.5870 N   0  0  0  0  0  0  0  0  0  0  0  0
  132.8310  123.8960   61.7360 C   0  0  0  0  0  0  0  0  0  0  0  0
  133.6190  122.4860   60.9830 S   0  0  0  0  0  0  0  0  0  0  0  0
  132.3360  121.2800   60.5120 C   0  0  0  0  0  0  0  0  0  0  0  0
  130.9620  121.6040   61.1070 C   0  0  0  0  0  0  0  0  0  0  0  0
  130.7250  121.2890   62.2740 O   0  0  0  0  0  0  0  0  0  0  0  0
  130.0880  122.1990   60.2680 N   0  0  0  0  0  0  0  0  0  0  0  0
  128.7680  122.6210   60.5120 C   0  0  0  0  0  0  0  0  0  0  0  0
  128.0520  123.0690   59.4000 C   0  0  0  0  0  0  0  0  0  0  0  0
  126.7400  123.5120   59.5410 C   0  0  0  0  0  0  0  0  0  0  0  0
  126.1450  123.5160   60.8010 C   0  0  0  0  0  0  0  0  0  0  0  0
  126.8530  123.0840   61.9190 C   0  0  0  0  0  0  0  0  0  0  0  0
  128.1650  122.6390   61.7810 C   0  0  0  0  0  0  0  0  0  0  0  0
  133.2470  124.1330   63.0040 N   0  0  0  0  0  0  0  0  0  0  0  0
  1  2  1  0
  2  3  2  0
  3  4  1  0
  4  5  1  0
  5  6  1  0
  5  7  1  0
  5  8  1  0
  4  9  2  0
  9 10  1  0
 10 11  3  0
  9 12  1  0
 12 13  1  0
 13 14  1  0
 14 15  1  0
 15 16  2  0
 15 17  1  0
 17 18  1  0
 18 19  2  0
 19 20  1  0
 20 21  2  0
 21 22  1  0
 22 23  2  0
 12 24  2  0
 24  2  1  0
 23 18  1  0
M  END
>  <Binding energies>  (20) 
[-6.09]

>  <Ligand effiencies>  (20) 
[-0.24359999999999998]

>  <Interactions>  (20) 
["V-A:ARG:545:CD:4923, V-B:PRO:540:CB:9857, V-A:ARG:545:CZ:4926, V-B:PRO:540:CA:9855, V-B:GLU:543:CD:9880, V-A:TYR:484:CZ:4347, V-A:TYR:484:CE2:4346, V-B:TYR:539:CE2:9848, V-A:ARG:545:CG:4922, V-B:PRO:540:C:9853, H-B:TYR:539:O:9840, V-A:LEU:475:CD2:4259, H-A:TYR:484:OH:4348, V-B:TYR:539:CD2:9846, V-B:ALA:541:CB:9864, V-A:GLU:543:CD:4908, H-A:GLY:454:N:4050, V-A:ILE:369:CG2:3237, V-A:ASP:366:CG:3213, V-B:GLU:543:CG:9879, H-B:TYR:539:OH:9850"]

$$$$
2e_Grossjean_2025
     RDKit          3D

 25 26  0  0  0  0  0  0  0  0999 V2000
  132.2490  116.6560   58.1350 C   0  0  0  0  0  0  0  0  0  0  0  0
  131.4930  117.4170   59.2080 C   0  0  0  0  0  0  0  0  0  0  0  0
  130.5250  116.7950   60.0010 C   0  0  0  0  0  0  0  0  0  0  0  0
  129.8780  117.5560   60.9770 C   0  0  0  0  0  0  0  0  0  0  0  0
  130.2090  118.9040   61.1330 C   0  0  0  0  0  0  0  0  0  0  0  0
  131.1810  119.4660   60.2970 C   0  0  0  0  0  0  0  0  0  0  0  0
  131.5060  120.8140   60.5260 N   0  0  0  0  0  0  0  0  0  0  0  0
  131.0270  121.6360   61.4860 C   0  0  0  0  0  0  0  0  0  0  0  0
  130.2560  121.2970   62.3850 O   0  0  0  0  0  0  0  0  0  0  0  0
  131.4630  123.1010   61.3880 C   0  0  0  0  0  0  0  0  0  0  0  0
  131.0990  123.8150   59.7530 S   0  0  0  0  0  0  0  0  0  0  0  0
  129.3610  123.5380   59.4890 C   0  0  0  0  0  0  0  0  0  0  0  0
  129.0380  123.1270   58.2380 N   0  0  0  0  0  0  0  0  0  0  0  0
  127.7330  122.9350   57.9390 C   0  0  0  0  0  0  0  0  0  0  0  0
  127.4420  122.4750   56.5230 C   0  0  0  0  0  0  0  0  0  0  0  0
  126.7100  123.1500   58.8610 C   0  0  0  0  0  0  0  0  0  0  0  0
  127.0280  123.5840   60.1570 C   0  0  0  0  0  0  0  0  0  0  0  0
  125.8850  123.8370   61.1580 C   0  0  0  0  0  0  0  0  0  0  0  0
  125.8550  125.1240   61.5040 F   0  0  0  0  0  0  0  0  0  0  0  0
  124.7160  123.5100   60.6060 F   0  0  0  0  0  0  0  0  0  0  0  0
  126.0140  123.1230   62.2780 F   0  0  0  0  0  0  0  0  0  0  0  0
  128.3910  123.7840   60.4870 C   0  0  0  0  0  0  0  0  0  0  0  0
  128.7860  124.2650   61.8150 C   0  0  0  0  0  0  0  0  0  0  0  0
  129.0970  124.6460   62.8630 N   0  0  0  0  0  0  0  0  0  0  0  0
  131.8240  118.7260   59.3470 N   0  0  0  0  0  0  0  0  0  0  0  0
  1  2  1  0
  2  3  2  0
  3  4  1  0
  4  5  2  0
  5  6  1  0
  6  7  1  0
  7  8  1  0
  8  9  2  0
  8 10  1  0
 10 11  1  0
 11 12  1  0
 12 13  2  0
 13 14  1  0
 14 15  1  0
 14 16  2  0
 16 17  1  0
 17 18  1  0
 18 19  1  0
 18 20  1  0
 18 21  1  0
 17 22  2  0
 22 23  1  0
 23 24  3  0
  6 25  2  0
 25  2  1  0
 22 12  1  0
M  END
>  <Binding energies>  (21) 
[-6.54]

>  <Ligand effiencies>  (21) 
[-0.25153846153846154]

>  <Interactions>  (21) 
["V-B:PRO:540:CB:9857, V-B:TYR:539:C:9839, V-B:PRO:540:CA:9855, V-B:PRO:540:N:9856, V-B:GLU:543:CD:9880, V-B:TYR:539:CE2:9848, V-B:PRO:540:C:9853, V-A:SER:385:CB:3409, V-B:ASP:366:CG:8185, V-A:HIS:383:CE1:3394, V-A:PRO:482:CG:4327, V-A:PRO:482:CB:4326, V-B:TYR:539:CB:9843, V-A:LEU:475:CD2:4259, H-A:TYR:484:OH:4348, V-B:TYR:539:CA:9841, V-B:TYR:539:CD2:9846, V-A:LEU:475:CD1:4258, V-A:LEU:475:CG:4257, V-A:LEU:373:CD1:3280, V-A:LEU:373:CD2:3281, V-B:GLU:543:CG:9879, V-B:TYR:539:CG:9844, V-B:TYR:539:CZ:9849, V-B:TYR:539:CE1:9847, V-B:TYR:539:CD1:9845, V-A:LEU:373:CG:3279"]

$$$$
2f_Grossjean_2025
     RDKit          3D

 24 25  0  0  0  0  0  0  0  0999 V2000
  133.2730  125.3440   65.1140 C   0  0  0  0  0  0  0  0  0  0  0  0
  132.7160  125.1820   63.7120 C   0  0  0  0  0  0  0  0  0  0  0  0
  131.7660  126.0620   63.1980 C   0  0  0  0  0  0  0  0  0  0  0  0
  131.2760  125.8650   61.8970 C   0  0  0  0  0  0  0  0  0  0  0  0
  130.2170  126.8420   61.3510 C   0  0  0  0  0  0  0  0  0  0  0  0
  129.5400  127.3950   62.3600 F   0  0  0  0  0  0  0  0  0  0  0  0
  130.8090  127.8080   60.6480 F   0  0  0  0  0  0  0  0  0  0  0  0
  129.3290  126.2480   60.5520 F   0  0  0  0  0  0  0  0  0  0  0  0
  131.7750  124.7730   61.1420 C   0  0  0  0  0  0  0  0  0  0  0  0
  131.2530  124.4920   59.8020 C   0  0  0  0  0  0  0  0  0  0  0  0
  130.8410  124.2720   58.7430 N   0  0  0  0  0  0  0  0  0  0  0  0
  132.7590  123.9460   61.7370 C   0  0  0  0  0  0  0  0  0  0  0  0
  133.5020  122.5410   60.9330 S   0  0  0  0  0  0  0  0  0  0  0  0
  132.2070  121.2780   60.6910 C   0  0  0  0  0  0  0  0  0  0  0  0
  130.8500  121.6050   61.3290 C   0  0  0  0  0  0  0  0  0  0  0  0
  130.6290  121.3340   62.5100 O   0  0  0  0  0  0  0  0  0  0  0  0
  129.9600  122.1780   60.4900 N   0  0  0  0  0  0  0  0  0  0  0  0
  128.6450  122.6120   60.7400 C   0  0  0  0  0  0  0  0  0  0  0  0
  127.8050  123.2540   59.8110 C   0  0  0  0  0  0  0  0  0  0  0  0
  126.5150  123.6290   60.1890 C   0  0  0  0  0  0  0  0  0  0  0  0
  126.0920  123.3500   61.4890 C   0  0  0  0  0  0  0  0  0  0  0  0
  126.8790  122.7260   62.4010 N   0  0  0  0  0  0  0  0  0  0  0  0
  128.1300  122.3660   62.0190 C   0  0  0  0  0  0  0  0  0  0  0  0
  133.2030  124.1390   63.0030 N   0  0  0  0  0  0  0  0  0  0  0  0
  1  2  1  0
  2  3  2  0
  3  4  1  0
  4  5  1  0
  5  6  1  0
  5  7  1  0
  5  8  1  0
  4  9  2  0
  9 10  1  0
 10 11  3  0
  9 12  1  0
 12 13  1  0
 13 14  1  0
 14 15  1  0
 15 16  2  0
 15 17  1  0
 17 18  1  0
 18 19  2  0
 19 20  1  0
 20 21  2  0
 21 22  1  0
 22 23  2  0
 12 24  2  0
 24  2  1  0
 23 18  1  0
M  END
>  <Binding energies>  (22) 
[-6.04]

>  <Ligand effiencies>  (22) 
[-0.2416]

>  <Interactions>  (22) 
["V-A:ARG:545:CD:4923, V-B:PRO:540:CB:9857, V-A:ARG:545:CZ:4926, V-B:PRO:540:CA:9855, V-A:TYR:484:CZ:4347, V-A:TYR:484:CE2:4346, V-B:TYR:539:CE2:9848, V-A:ARG:545:CG:4922, V-B:PRO:540:C:9853, H-B:ALA:541:N:9863, H-B:TYR:539:O:9840, V-A:LEU:475:CD2:4259, H-A:TYR:484:OH:4348, V-B:TYR:539:CD2:9846, V-B:ALA:541:CB:9864, V-A:GLU:543:CD:4908, H-A:GLY:454:N:4050, V-A:ASP:366:CG:3213, H-B:TYR:539:OH:9850"]

$$$$
2g_Grossjean_2025
     RDKit          3D

 25 26  0  0  0  0  0  0  0  0999 V2000
  133.4520  125.0830   65.0700 C   0  0  0  0  0  0  0  0  0  0  0  0
  132.7960  125.0140   63.7040 C   0  0  0  0  0  0  0  0  0  0  0  0
  131.8050  125.9150   63.3250 C   0  0  0  0  0  0  0  0  0  0  0  0
  131.2230  125.8050   62.0530 C   0  0  0  0  0  0  0  0  0  0  0  0
  130.1200  126.8060   61.6540 C   0  0  0  0  0  0  0  0  0  0  0  0
  129.5150  127.2840   62.7420 F   0  0  0  0  0  0  0  0  0  0  0  0
  130.6560  127.8220   60.9760 F   0  0  0  0  0  0  0  0  0  0  0  0
  129.1790  126.2580   60.8830 F   0  0  0  0  0  0  0  0  0  0  0  0
  131.6740  124.7770   61.1870 C   0  0  0  0  0  0  0  0  0  0  0  0
  131.0600  124.5830   59.8700 C   0  0  0  0  0  0  0  0  0  0  0  0
  130.5750  124.4300   58.8310 N   0  0  0  0  0  0  0  0  0  0  0  0
  132.7080  123.9260   61.6470 C   0  0  0  0  0  0  0  0  0  0  0  0
  133.4080  122.6030   60.6830 S   0  0  0  0  0  0  0  0  0  0  0  0
  132.2040  121.2320   60.6780 C   0  0  0  0  0  0  0  0  0  0  0  0
  130.8550  121.5600   61.3340 C   0  0  0  0  0  0  0  0  0  0  0  0
  130.6300  121.2800   62.5130 O   0  0  0  0  0  0  0  0  0  0  0  0
  129.9540  122.1590   60.5340 N   0  0  0  0  0  0  0  0  0  0  0  0
  128.6080  122.5740   60.9320 C   0  0  0  0  0  0  0  0  0  0  0  0
  127.6680  122.8620   59.7660 C   0  0  0  0  0  0  0  0  0  0  0  0
  126.4860  123.5750   59.9850 C   0  0  0  0  0  0  0  0  0  0  0  0
  125.6450  123.8730   58.9160 C   0  0  0  0  0  0  0  0  0  0  0  0
  125.9930  123.4650   57.6300 C   0  0  0  0  0  0  0  0  0  0  0  0
  127.1770  122.7660   57.4030 C   0  0  0  0  0  0  0  0  0  0  0  0
  128.0180  122.4690   58.4720 C   0  0  0  0  0  0  0  0  0  0  0  0
  133.2430  124.0320   62.8880 N   0  0  0  0  0  0  0  0  0  0  0  0
  1  2  1  0
  2  3  2  0
  3  4  1  0
  4  5  1  0
  5  6  1  0
  5  7  1  0
  5  8  1  0
  4  9  2  0
  9 10  1  0
 10 11  3  0
  9 12  1  0
 12 13  1  0
 13 14  1  0
 14 15  1  0
 15 16  2  0
 15 17  1  0
 17 18  1  0
 18 19  1  0
 19 20  2  0
 20 21  1  0
 21 22  2  0
 22 23  1  0
 23 24  2  0
 12 25  2  0
 25  2  1  0
 24 19  1  0
M  END
>  <Binding energies>  (23) 
[-6.39]

>  <Ligand effiencies>  (23) 
[-0.24576923076923077]

>  <Interactions>  (23) 
["V-A:ARG:545:CD:4923, V-B:PRO:540:CB:9857, V-A:ARG:545:CZ:4926, V-B:TYR:539:C:9839, V-B:PRO:540:CA:9855, V-B:PRO:540:N:9856, V-A:TYR:484:CZ:4347, V-A:TYR:484:CE2:4346, V-B:TYR:539:CE2:9848, H-B:TYR:539:O:9840, V-A:LEU:475:CD2:4259, H-A:TYR:484:OH:4348, V-B:TYR:539:CD2:9846, V-A:GLU:543:CD:4908, V-A:GLY:454:CA:4049, H-A:GLY:454:N:4050, V-B:TYR:539:CG:9844"]

$$$$
2h_Grossjean_2025
     RDKit          3D

 31 32  0  0  0  0  0  0  0  0999 V2000
  124.0500  129.5010   66.8120 C   0  0  0  0  0  0  0  0  0  0  0  0
  124.1890  130.0490   65.5060 O   0  0  0  0  0  0  0  0  0  0  0  0
  124.9880  129.4030   64.5800 C   0  0  0  0  0  0  0  0  0  0  0  0
  126.1220  128.6470   64.9150 C   0  0  0  0  0  0  0  0  0  0  0  0
  126.8740  128.0170   63.9270 C   0  0  0  0  0  0  0  0  0  0  0  0
  126.5110  128.1270   62.5830 C   0  0  0  0  0  0  0  0  0  0  0  0
  127.3390  127.4100   61.5180 C   0  0  0  0  0  0  0  0  0  0  0  0
  127.1820  125.9550   61.5330 N   0  0  0  0  0  0  0  0  0  0  0  0
  126.7470  125.2160   60.4970 C   0  0  0  0  0  0  0  0  0  0  0  0
  126.3520  125.7060   59.4380 O   0  0  0  0  0  0  0  0  0  0  0  0
  126.7780  123.6960   60.7080 C   0  0  0  0  0  0  0  0  0  0  0  0
  127.5840  123.1480   62.2510 S   0  0  0  0  0  0  0  0  0  0  0  0
  129.3190  122.9840   61.8940 C   0  0  0  0  0  0  0  0  0  0  0  0
  129.6510  121.7940   61.3340 N   0  0  0  0  0  0  0  0  0  0  0  0
  130.9480  121.5560   61.0390 C   0  0  0  0  0  0  0  0  0  0  0  0
  131.2450  120.2020   60.4220 C   0  0  0  0  0  0  0  0  0  0  0  0
  131.9580  122.4850   61.2810 C   0  0  0  0  0  0  0  0  0  0  0  0
  131.6310  123.7290   61.8410 C   0  0  0  0  0  0  0  0  0  0  0  0
  132.7600  124.7470   62.0940 C   0  0  0  0  0  0  0  0  0  0  0  0
  132.8450  125.0180   63.3970 F   0  0  0  0  0  0  0  0  0  0  0  0
  133.9550  124.3010   61.7010 F   0  0  0  0  0  0  0  0  0  0  0  0
  132.5150  125.8780   61.4310 F   0  0  0  0  0  0  0  0  0  0  0  0
  130.2730  123.9980   62.1500 C   0  0  0  0  0  0  0  0  0  0  0  0
  129.8720  125.3030   62.6810 C   0  0  0  0  0  0  0  0  0  0  0  0
  129.5580  126.3360   63.0980 N   0  0  0  0  0  0  0  0  0  0  0  0
  125.3940  128.8980   62.2310 C   0  0  0  0  0  0  0  0  0  0  0  0
  125.0320  129.0140   60.9090 O   0  0  0  0  0  0  0  0  0  0  0  0
  125.6780  130.0740   60.2150 C   0  0  0  0  0  0  0  0  0  0  0  0
  124.6250  129.5170   63.2310 C   0  0  0  0  0  0  0  0  0  0  0  0
  123.5190  130.2590   62.8910 O   0  0  0  0  0  0  0  0  0  0  0  0
  123.8050  131.6120   62.5640 C   0  0  0  0  0  0  0  0  0  0  0  0
  1  2  1  0
  2  3  1  0
  3  4  2  0
  4  5  1  0
  5  6  2  0
  6  7  1  0
  7  8  1  0
  8  9  1  0
  9 10  2  0
  9 11  1  0
 11 12  1  0
 12 13  1  0
 13 14  2  0
 14 15  1  0
 15 16  1  0
 15 17  2  0
 17 18  1  0
 18 19  1  0
 19 20  1  0
 19 21  1  0
 19 22  1  0
 18 23  2  0
 23 24  1  0
 24 25  3  0
  6 26  1  0
 26 27  1  0
 27 28  1  0
 26 29  2  0
 29 30  1  0
 30 31  1  0
 29  3  1  0
 23 13  1  0
M  END
>  <Binding energies>  (24) 
[-5.17]

>  <Ligand effiencies>  (24) 
[-0.1615625]

>  <Interactions>  (24) 
["V-A:ARG:545:CZ:4926, V-B:PRO:540:CA:9855, V-B:GLU:543:CD:9880, V-A:ILE:369:CD1:3239, V-B:TYR:539:CE2:9848, H-B:ALA:541:N:9863, V-B:ASP:366:CG:8185, V-A:LEU:475:CD2:4259, V-B:TYR:539:CD2:9846, V-B:HIS:456:CE1:9042, V-B:ARG:545:CZ:9898, H-B:TYR:484:OH:9320, V-B:GLY:453:C:9014, V-B:ILE:369:CD1:8211, V-B:TYR:484:CZ:9319, H-B:GLY:454:N:9022, V-B:GLY:454:CA:9021, V-A:ASP:366:CG:3213, H-B:GLU:543:OE2:9882, H-B:GLU:543:OE1:9881, V-B:ARG:545:CG:9894, V-B:ARG:545:CD:9895, V-B:TYR:484:CE1:9317"]

$$$$
2i_Grossjean_2025
     RDKit          3D

 23 24  0  0  0  0  0  0  0  0999 V2000
  131.7460  125.7770   60.5060 C   0  0  0  0  0  0  0  0  0  0  0  0
  130.4580  125.0460   60.8360 C   0  0  0  0  0  0  0  0  0  0  0  0
  130.4400  123.6770   61.0920 C   0  0  0  0  0  0  0  0  0  0  0  0
  129.2230  123.0480   61.3950 C   0  0  0  0  0  0  0  0  0  0  0  0
  129.2220  121.5330   61.6750 C   0  0  0  0  0  0  0  0  0  0  0  0
  129.4660  121.3080   62.9670 F   0  0  0  0  0  0  0  0  0  0  0  0
  128.0360  121.0110   61.3620 F   0  0  0  0  0  0  0  0  0  0  0  0
  130.1470  120.8770   60.9720 F   0  0  0  0  0  0  0  0  0  0  0  0
  128.0440  123.8350   61.4290 C   0  0  0  0  0  0  0  0  0  0  0  0
  126.7460  123.2290   61.7410 C   0  0  0  0  0  0  0  0  0  0  0  0
  125.7210  122.7520   61.9870 N   0  0  0  0  0  0  0  0  0  0  0  0
  128.1530  125.2180   61.1530 C   0  0  0  0  0  0  0  0  0  0  0  0
  126.7360  126.3050   61.1590 S   0  0  0  0  0  0  0  0  0  0  0  0
  126.5100  126.9470   59.4730 C   0  0  0  0  0  0  0  0  0  0  0  0
  126.6560  125.8540   58.4120 C   0  0  0  0  0  0  0  0  0  0  0  0
  127.5170  125.9790   57.5390 O   0  0  0  0  0  0  0  0  0  0  0  0
  125.7890  124.8240   58.5060 N   0  0  0  0  0  0  0  0  0  0  0  0
  125.7100  123.7300   57.6600 C   0  0  0  0  0  0  0  0  0  0  0  0
  124.6140  123.2100   56.9550 C   0  0  0  0  0  0  0  0  0  0  0  0
  125.1180  122.1240   56.2780 C   0  0  0  0  0  0  0  0  0  0  0  0
  126.4390  122.0020   56.5540 O   0  0  0  0  0  0  0  0  0  0  0  0
  126.7990  123.0310   57.4270 N   0  0  0  0  0  0  0  0  0  0  0  0
  129.3410  125.8080   60.8640 N   0  0  0  0  0  0  0  0  0  0  0  0
  1  2  1  0
  2  3  2  0
  3  4  1  0
  4  5  1  0
  5  6  1  0
  5  7  1  0
  5  8  1  0
  4  9  2  0
  9 10  1  0
 10 11  3  0
  9 12  1  0
 12 13  1  0
 13 14  1  0
 14 15  1  0
 15 16  2  0
 15 17  1  0
 17 18  1  0
 18 19  1  0
 19 20  2  0
 20 21  1  0
 21 22  1  0
 12 23  2  0
 23  2  1  0
 22 18  2  0
M  END
>  <Binding energies>  (25) 
[-6.18]

>  <Ligand effiencies>  (25) 
[-0.2575]

>  <Interactions>  (25) 
["V-B:PRO:540:CD:9859, V-B:LEU:363:CD1:8161, V-B:ILE:538:CD1:9837, V-B:PRO:540:CB:9857, V-B:TYR:539:C:9839, V-B:PRO:540:CA:9855, V-B:PRO:540:CG:9858, V-B:PRO:540:N:9856, V-B:GLU:543:CD:9880, V-A:TYR:484:CZ:4347, V-B:ILE:538:CG2:9835, V-B:PRO:540:C:9853, H-B:ALA:541:N:9863, V-B:ASP:366:CG:8185, V-A:LEU:475:CD2:4259, V-B:ALA:541:CA:9862, V-B:TYR:539:CD2:9846, V-B:ALA:541:CB:9864, V-A:ASP:366:CG:3213, V-B:TYR:531:CE2:9765, H-B:ASP:366:OD2:8187, V-B:TYR:531:CZ:9766, V-A:TYR:484:CE1:4345, H-B:TYR:531:OH:9767, H-B:ARG:545:NH2:9900, V-B:ILE:538:CA:9832, H-B:TYR:539:N:9842"]

$$$$
2k_Grossjean_2025
     RDKit          3D

 28 28  0  0  0  0  0  0  0  0999 V2000
  127.5950  122.4280   56.9780 C   0  0  0  0  0  0  0  0  0  0  0  0
  126.2370  122.0190   56.9400 O   0  0  0  0  0  0  0  0  0  0  0  0
  125.3250  123.0980   56.7800 C   0  0  0  0  0  0  0  0  0  0  0  0
  124.7670  123.5120   58.1480 C   0  0  0  0  0  0  0  0  0  0  0  0
  125.8240  123.5180   59.0960 O   0  0  0  0  0  0  0  0  0  0  0  0
  125.4110  123.7920   60.4300 C   0  0  0  0  0  0  0  0  0  0  0  0
  126.3830  123.0940   61.3910 C   0  0  0  0  0  0  0  0  0  0  0  0
  127.3140  124.0630   61.8470 O   0  0  0  0  0  0  0  0  0  0  0  0
  128.6760  123.7670   61.5770 C   0  0  0  0  0  0  0  0  0  0  0  0
  128.7440  122.7110   60.4580 C   0  0  0  0  0  0  0  0  0  0  0  0
  130.1050  122.2250   60.2120 N   0  0  0  0  0  0  0  0  0  0  0  0
  130.9070  121.6480   61.1270 C   0  0  0  0  0  0  0  0  0  0  0  0
  130.5640  121.4340   62.2910 O   0  0  0  0  0  0  0  0  0  0  0  0
  132.3160  121.2790   60.6390 C   0  0  0  0  0  0  0  0  0  0  0  0
  133.6170  122.5080   61.0010 S   0  0  0  0  0  0  0  0  0  0  0  0
  132.8840  123.9320   61.7960 C   0  0  0  0  0  0  0  0  0  0  0  0
  133.2620  124.1490   63.0820 N   0  0  0  0  0  0  0  0  0  0  0  0
  132.7440  125.2050   63.7460 C   0  0  0  0  0  0  0  0  0  0  0  0
  133.2070  125.3720   65.1800 C   0  0  0  0  0  0  0  0  0  0  0  0
  131.8440  126.0920   63.1620 C   0  0  0  0  0  0  0  0  0  0  0  0
  131.4450  125.8930   61.8310 C   0  0  0  0  0  0  0  0  0  0  0  0
  130.4520  126.8860   61.1980 C   0  0  0  0  0  0  0  0  0  0  0  0
  131.0580  127.8610   60.5190 F   0  0  0  0  0  0  0  0  0  0  0  0
  129.6460  126.2480   60.3480 F   0  0  0  0  0  0  0  0  0  0  0  0
  129.7110  127.4590   62.1470 F   0  0  0  0  0  0  0  0  0  0  0  0
  131.9750  124.7830   61.1240 C   0  0  0  0  0  0  0  0  0  0  0  0
  131.5900  124.5250   59.7330 C   0  0  0  0  0  0  0  0  0  0  0  0
  131.2860  124.3220   58.6340 N   0  0  0  0  0  0  0  0  0  0  0  0
  1  2  1  0
  2  3  1  0
  3  4  1  0
  4  5  1  0
  5  6  1  0
  6  7  1  0
  7  8  1  0
  8  9  1  0
  9 10  1  0
 10 11  1  0
 11 12  1  0
 12 13  2  0
 12 14  1  0
 14 15  1  0
 15 16  1  0
 16 17  2  0
 17 18  1  0
 18 19  1  0
 18 20  2  0
 20 21  1  0
 21 22  1  0
 22 23  1  0
 22 24  1  0
 22 25  1  0
 21 26  2  0
 26 27  1  0
 27 28  3  0
 26 16  1  0
M  END
>  <Binding energies>  (26) 
[-5.27]

>  <Ligand effiencies>  (26) 
[-0.18172413793103448]

>  <Interactions>  (26) 
["V-B:PRO:540:CD:9859, V-A:ARG:545:CD:4923, V-B:PRO:540:CB:9857, V-A:ARG:545:CZ:4926, V-B:TYR:539:C:9839, V-B:PRO:540:CA:9855, V-B:PRO:540:N:9856, V-A:TYR:484:CZ:4347, V-A:TYR:484:CE2:4346, V-B:TYR:539:CE2:9848, V-A:ARG:545:CG:4922, V-B:PRO:540:C:9853, V-A:LEU:475:CD2:4259, H-A:TYR:484:OH:4348, V-B:TYR:539:CA:9841, V-B:TYR:539:CD2:9846, V-A:GLU:543:CD:4908, H-A:GLY:454:N:4050, V-A:ASP:366:CG:3213, V-B:TYR:539:CG:9844, V-B:TYR:539:CZ:9849, V-B:TYR:539:CE1:9847, V-B:TYR:539:CD1:9845, H-B:TYR:539:N:9842, H-B:TYR:539:OH:9850"]

$$$$
3aa_Grossjean_2025
     RDKit          3D

 34 36  0  0  0  0  0  0  0  0999 V2000
  133.0340  126.1900   74.5700 C   0  0  0  0  0  0  0  0  0  0  0  0
  132.1890  127.1870   73.7710 C   0  0  0  0  0  0  0  0  0  0  0  0
  131.0600  126.5190   73.2220 O   0  0  0  0  0  0  0  0  0  0  0  0
  129.8880  127.1750   73.0230 C   0  0  0  0  0  0  0  0  0  0  0  0
  129.1790  127.5960   73.9430 O   0  0  0  0  0  0  0  0  0  0  0  0
  129.5300  127.3240   71.5720 C   0  0  0  0  0  0  0  0  0  0  0  0
  130.2340  128.1860   70.7180 C   0  0  0  0  0  0  0  0  0  0  0  0
  129.8780  128.2980   69.3760 C   0  0  0  0  0  0  0  0  0  0  0  0
  128.8210  127.5470   68.8600 C   0  0  0  0  0  0  0  0  0  0  0  0
  128.5470  127.7310   67.4900 N   0  0  0  0  0  0  0  0  0  0  0  0
  128.3590  128.8750   66.7960 C   0  0  0  0  0  0  0  0  0  0  0  0
  128.3750  130.0100   67.2720 O   0  0  0  0  0  0  0  0  0  0  0  0
  128.0970  128.7020   65.3000 C   0  0  0  0  0  0  0  0  0  0  0  0
  126.3320  128.4350   64.9500 S   0  0  0  0  0  0  0  0  0  0  0  0
  126.1590  128.3430   63.1820 C   0  0  0  0  0  0  0  0  0  0  0  0
  126.7050  127.2280   62.6400 N   0  0  0  0  0  0  0  0  0  0  0  0
  126.6450  127.0340   61.2970 C   0  0  0  0  0  0  0  0  0  0  0  0
  127.2590  125.7700   60.7760 C   0  0  0  0  0  0  0  0  0  0  0  0
  126.4880  124.6050   60.6350 C   0  0  0  0  0  0  0  0  0  0  0  0
  127.0510  123.4270   60.1510 C   0  0  0  0  0  0  0  0  0  0  0  0
  128.3960  123.3990   59.8000 C   0  0  0  0  0  0  0  0  0  0  0  0
  129.1820  124.5400   59.9270 C   0  0  0  0  0  0  0  0  0  0  0  0
  128.6150  125.7170   60.4100 C   0  0  0  0  0  0  0  0  0  0  0  0
  126.0180  127.9660   60.4640 C   0  0  0  0  0  0  0  0  0  0  0  0
  125.4610  129.1370   61.0000 C   0  0  0  0  0  0  0  0  0  0  0  0
  124.7890  130.1440   60.0480 C   0  0  0  0  0  0  0  0  0  0  0  0
  123.5360  130.4370   60.4030 F   0  0  0  0  0  0  0  0  0  0  0  0
  125.4750  131.2880   60.0300 F   0  0  0  0  0  0  0  0  0  0  0  0
  124.7510  129.6440   58.8120 F   0  0  0  0  0  0  0  0  0  0  0  0
  125.5410  129.3430   62.3990 C   0  0  0  0  0  0  0  0  0  0  0  0
  125.0270  130.5730   63.0080 C   0  0  0  0  0  0  0  0  0  0  0  0
  124.6220  131.5460   63.4880 N   0  0  0  0  0  0  0  0  0  0  0  0
  128.1040  126.6920   69.7110 C   0  0  0  0  0  0  0  0  0  0  0  0
  128.4600  126.5840   71.0520 C   0  0  0  0  0  0  0  0  0  0  0  0
  1  2  1  0
  2  3  1  0
  3  4  1  0
  4  5  2  0
  4  6  1  0
  6  7  2  0
  7  8  1  0
  8  9  2  0
  9 10  1  0
 10 11  1  0
 11 12  2  0
 11 13  1  0
 13 14  1  0
 14 15  1  0
 15 16  2  0
 16 17  1  0
 17 18  1  0
 18 19  2  0
 19 20  1  0
 20 21  2  0
 21 22  1  0
 22 23  2  0
 17 24  2  0
 24 25  1  0
 25 26  1  0
 26 27  1  0
 26 28  1  0
 26 29  1  0
 25 30  2  0
 30 31  1  0
 31 32  3  0
  9 33  1  0
 33 34  2  0
 34  6  1  0
 30 15  1  0
 23 18  1  0
M  END
>  <Binding energies>  (27) 
[-7.13]

>  <Ligand effiencies>  (27) 
[-0.2037142857142857]

>  <Interactions>  (27) 
["V-B:PRO:540:CA:9855, V-B:GLU:543:CD:9880, V-A:HIS:456:CE1:4070, V-B:ASP:366:CG:8185, V-A:GLU:543:C:4902, V-B:HIS:456:CE1:9042, V-B:ARG:545:CZ:9898, V-A:GLU:543:CB:4906, H-B:TYR:484:OH:9320, V-A:GLU:543:CD:4908, V-A:GLY:544:C:4912, V-B:ILE:369:CD1:8211, V-A:GLU:543:CG:4907, H-B:ARG:545:NE:9896, V-A:HIS:456:CG:4066, H-B:GLY:454:N:9022, V-A:HIS:456:CD2:4068, H-B:GLU:543:OE2:9882, V-B:ASP:366:CB:8184, H-B:ARG:545:NH2:9900, V-B:ASP:366:CA:8182, V-B:GLU:543:CB:9878, V-B:HIS:456:CD2:9040, H-B:LYS:547:NZ:9923, V-A:HIS:456:CB:4065, V-A:VAL:458:CG2:4087"]

$$$$
3ad_Grossjean_2025
     RDKit          3D

 29 31  0  0  0  0  0  0  0  0999 V2000
  133.6330  124.9360   63.0860 N   0  0  0  0  0  0  0  0  0  0  0  0
  132.7010  124.7610   62.4230 C   0  0  0  0  0  0  0  0  0  0  0  0
  131.5170  124.5420   61.5850 C   0  0  0  0  0  0  0  0  0  0  0  0
  130.2270  124.8990   62.0470 C   0  0  0  0  0  0  0  0  0  0  0  0
  129.9880  125.5700   63.4130 C   0  0  0  0  0  0  0  0  0  0  0  0
  131.0480  126.2550   63.8460 F   0  0  0  0  0  0  0  0  0  0  0  0
  128.9650  126.4220   63.3280 F   0  0  0  0  0  0  0  0  0  0  0  0
  129.7060  124.6470   64.3350 F   0  0  0  0  0  0  0  0  0  0  0  0
  129.1220  124.6240   61.2270 C   0  0  0  0  0  0  0  0  0  0  0  0
  129.3000  124.0090   59.9830 C   0  0  0  0  0  0  0  0  0  0  0  0
  128.1530  123.6790   59.0730 C   0  0  0  0  0  0  0  0  0  0  0  0
  128.2860  122.6970   58.0790 C   0  0  0  0  0  0  0  0  0  0  0  0
  127.2260  122.3860   57.2330 C   0  0  0  0  0  0  0  0  0  0  0  0
  126.0130  123.0560   57.3700 C   0  0  0  0  0  0  0  0  0  0  0  0
  125.8560  124.0310   58.3480 C   0  0  0  0  0  0  0  0  0  0  0  0
  126.9190  124.3380   59.1940 C   0  0  0  0  0  0  0  0  0  0  0  0
  130.5380  123.6630   59.5480 N   0  0  0  0  0  0  0  0  0  0  0  0
  131.6210  123.9360   60.3130 C   0  0  0  0  0  0  0  0  0  0  0  0
  133.1590  123.4260   59.5800 S   0  0  0  0  0  0  0  0  0  0  0  0
  133.6490  121.8690   60.3810 C   0  0  0  0  0  0  0  0  0  0  0  0
  132.4740  120.8990   60.5250 C   0  0  0  0  0  0  0  0  0  0  0  0
  131.4960  121.2380   61.1920 O   0  0  0  0  0  0  0  0  0  0  0  0
  132.6170  119.7170   59.8870 N   0  0  0  0  0  0  0  0  0  0  0  0
  131.7340  118.6250   59.8060 C   0  0  0  0  0  0  0  0  0  0  0  0
  131.9790  117.7250   58.7640 C   0  0  0  0  0  0  0  0  0  0  0  0
  131.1620  116.6110   58.5900 C   0  0  0  0  0  0  0  0  0  0  0  0
  130.0940  116.3970   59.4570 C   0  0  0  0  0  0  0  0  0  0  0  0
  129.8350  117.2880   60.4940 C   0  0  0  0  0  0  0  0  0  0  0  0
  130.6490  118.4040   60.6720 C   0  0  0  0  0  0  0  0  0  0  0  0
  1  2  3  0
  2  3  1  0
  3  4  2  0
  4  5  1  0
  5  6  1  0
  5  7  1  0
  5  8  1  0
  4  9  1  0
  9 10  2  0
 10 11  1  0
 11 12  2  0
 12 13  1  0
 13 14  2  0
 14 15  1  0
 15 16  2  0
 10 17  1  0
 17 18  2  0
 18 19  1  0
 19 20  1  0
 20 21  1  0
 21 22  2  0
 21 23  1  0
 23 24  1  0
 24 25  2  0
 25 26  1  0
 26 27  2  0
 27 28  1  0
 28 29  2  0
 18  3  1  0
 29 24  1  0
 16 11  1  0
M  END
>  <Binding energies>  (28) 
[-7.82]

>  <Ligand effiencies>  (28) 
[-0.26066666666666666]

>  <Interactions>  (28) 
["V-B:PRO:540:CD:9859, V-B:PRO:540:CB:9857, V-B:TYR:539:C:9839, V-B:PRO:540:CA:9855, V-B:PRO:540:N:9856, V-B:GLU:543:CD:9880, V-A:ILE:369:CD1:3239, V-A:TYR:484:CZ:4347, V-A:TYR:484:CE2:4346, V-B:TYR:539:CE2:9848, V-A:SER:385:CB:3409, V-B:VAL:344:CG1:7973, V-A:HIS:383:CE1:3394, V-A:PRO:482:CG:4327, V-A:PRO:482:CB:4326, V-B:TYR:539:CB:9843, V-A:LEU:475:CD2:4259, H-A:TYR:484:OH:4348, V-B:TYR:539:CA:9841, V-B:TYR:539:CD2:9846, V-A:LEU:373:CD1:3280, V-A:GLU:543:CD:4908, H-A:GLY:454:N:4050, V-A:ILE:369:CG2:3237, H-A:ARG:545:NH2:4928, V-A:ILE:369:CB:3236, V-B:GLU:543:CG:9879, V-B:TYR:539:CG:9844, V-A:TYR:484:CE1:4345, V-B:TYR:539:CZ:9849, V-B:TYR:539:CD1:9845, H-A:SER:385:O:3406"]

$$$$
3ai_Grossjean_2025
     RDKit          3D

 28 30  0  0  0  0  0  0  0  0999 V2000
  132.6580  123.0160   61.9880 N   0  0  0  0  0  0  0  0  0  0  0  0
  131.6420  123.0400   61.4340 C   0  0  0  0  0  0  0  0  0  0  0  0
  130.3540  123.0700   60.7340 C   0  0  0  0  0  0  0  0  0  0  0  0
  129.4990  121.9410   60.7420 C   0  0  0  0  0  0  0  0  0  0  0  0
  129.8370  120.6480   61.5100 C   0  0  0  0  0  0  0  0  0  0  0  0
  128.8140  119.7910   61.5560 F   0  0  0  0  0  0  0  0  0  0  0  0
  130.8580  120.0230   60.9220 F   0  0  0  0  0  0  0  0  0  0  0  0
  130.1720  120.9350   62.7680 F   0  0  0  0  0  0  0  0  0  0  0  0
  128.3000  122.0020   60.0170 C   0  0  0  0  0  0  0  0  0  0  0  0
  127.9630  123.1560   59.3020 C   0  0  0  0  0  0  0  0  0  0  0  0
  126.7010  123.2730   58.5030 C   0  0  0  0  0  0  0  0  0  0  0  0
  126.6400  122.7890   57.1860 C   0  0  0  0  0  0  0  0  0  0  0  0
  125.4700  122.8900   56.4390 C   0  0  0  0  0  0  0  0  0  0  0  0
  124.3400  123.4770   57.0010 C   0  0  0  0  0  0  0  0  0  0  0  0
  124.3740  123.9630   58.3040 C   0  0  0  0  0  0  0  0  0  0  0  0
  125.5460  123.8600   59.0480 C   0  0  0  0  0  0  0  0  0  0  0  0
  128.7900  124.2330   59.2900 N   0  0  0  0  0  0  0  0  0  0  0  0
  129.9420  124.2070   60.0020 C   0  0  0  0  0  0  0  0  0  0  0  0
  130.8830  125.7140   59.8850 S   0  0  0  0  0  0  0  0  0  0  0  0
  131.0010  126.4320   61.5590 C   0  0  0  0  0  0  0  0  0  0  0  0
  132.1710  125.9120   62.4070 C   0  0  0  0  0  0  0  0  0  0  0  0
  133.2020  125.4960   61.8720 O   0  0  0  0  0  0  0  0  0  0  0  0
  131.9620  125.9530   63.7420 N   0  0  0  0  0  0  0  0  0  0  0  0
  132.8390  125.5570   64.7430 C   0  0  0  0  0  0  0  0  0  0  0  0
  132.5680  125.7160   66.1020 C   0  0  0  0  0  0  0  0  0  0  0  0
  133.6690  125.2090   66.7500 C   0  0  0  0  0  0  0  0  0  0  0  0
  134.5600  124.7660   65.8300 O   0  0  0  0  0  0  0  0  0  0  0  0
  134.0220  124.9920   64.5620 N   0  0  0  0  0  0  0  0  0  0  0  0
  1  2  3  0
  2  3  1  0
  3  4  2  0
  4  5  1  0
  5  6  1  0
  5  7  1  0
  5  8  1  0
  4  9  1  0
  9 10  2  0
 10 11  1  0
 11 12  2  0
 12 13  1  0
 13 14  2  0
 14 15  1  0
 15 16  2  0
 10 17  1  0
 17 18  2  0
 18 19  1  0
 19 20  1  0
 20 21  1  0
 21 22  2  0
 21 23  1  0
 23 24  1  0
 24 25  1  0
 25 26  2  0
 26 27  1  0
 27 28  1  0
 18  3  1  0
 28 24  2  0
 16 11  1  0
M  END
>  <Binding energies>  (29) 
[-7.69]

>  <Ligand effiencies>  (29) 
[-0.26517241379310347]

>  <Interactions>  (29) 
["V-B:PRO:540:CD:9859, V-B:LEU:363:CD1:8161, V-A:ARG:545:CD:4923, V-B:PRO:540:CB:9857, V-A:ARG:545:CZ:4926, V-B:TYR:539:C:9839, V-B:PRO:540:CA:9855, V-B:PRO:540:N:9856, V-A:TYR:484:CZ:4347, V-A:TYR:484:CE2:4346, V-B:TYR:539:CE2:9848, V-A:ARG:545:CG:4922, V-B:PRO:540:C:9853, V-A:HIS:456:CE1:4070, V-B:ASP:366:CG:8185, V-A:LEU:475:CD2:4259, H-A:TYR:484:OH:4348, V-B:ALA:541:CA:9862, V-B:TYR:539:CD2:9846, V-A:LEU:475:CD1:4258, V-B:ALA:541:CB:9864, V-A:GLU:543:CD:4908, H-A:GLU:543:OE1:4909, H-A:ARG:545:NH1:4927, H-A:GLY:454:N:4050, H-A:ARG:545:NH2:4928, H-A:GLU:543:OE2:4910, H-A:ARG:545:NE:4924, H-B:GLU:543:OE2:9882, V-B:TYR:531:CE2:9765, V-B:TYR:531:CZ:9766, V-A:TYR:484:CE1:4345, V-A:ILE:455:C:4052, H-A:ILE:455:N:4055"]

$$$$
3aj_Grossjean_2025
     RDKit          3D

 28 30  0  0  0  0  0  0  0  0999 V2000
  131.3430  126.5840   61.5520 N   0  0  0  0  0  0  0  0  0  0  0  0
  131.3220  125.4380   61.3940 C   0  0  0  0  0  0  0  0  0  0  0  0
  131.2990  123.9860   61.1930 C   0  0  0  0  0  0  0  0  0  0  0  0
  132.2180  123.3630   60.3130 C   0  0  0  0  0  0  0  0  0  0  0  0
  133.3090  124.1470   59.5580 C   0  0  0  0  0  0  0  0  0  0  0  0
  134.4220  124.3080   60.2780 F   0  0  0  0  0  0  0  0  0  0  0  0
  133.6430  123.5020   58.4390 F   0  0  0  0  0  0  0  0  0  0  0  0
  132.8610  125.3620   59.2400 F   0  0  0  0  0  0  0  0  0  0  0  0
  132.1240  121.9760   60.1180 C   0  0  0  0  0  0  0  0  0  0  0  0
  131.1390  121.2350   60.7790 C   0  0  0  0  0  0  0  0  0  0  0  0
  130.9880  119.7550   60.6000 C   0  0  0  0  0  0  0  0  0  0  0  0
  129.9990  119.0460   61.2990 C   0  0  0  0  0  0  0  0  0  0  0  0
  129.8500  117.6710   61.1340 C   0  0  0  0  0  0  0  0  0  0  0  0
  130.6930  116.9850   60.2650 C   0  0  0  0  0  0  0  0  0  0  0  0
  131.6800  117.6650   59.5590 C   0  0  0  0  0  0  0  0  0  0  0  0
  131.8240  119.0390   59.7260 C   0  0  0  0  0  0  0  0  0  0  0  0
  130.2560  121.8380   61.6150 N   0  0  0  0  0  0  0  0  0  0  0  0
  130.3420  123.1710   61.8380 C   0  0  0  0  0  0  0  0  0  0  0  0
  129.1190  123.7800   62.9790 S   0  0  0  0  0  0  0  0  0  0  0  0
  127.6620  122.6850   62.8750 C   0  0  0  0  0  0  0  0  0  0  0  0
  126.8670  122.7850   61.5650 C   0  0  0  0  0  0  0  0  0  0  0  0
  125.6360  122.8490   61.5770 O   0  0  0  0  0  0  0  0  0  0  0  0
  127.6240  122.7960   60.4450 N   0  0  0  0  0  0  0  0  0  0  0  0
  127.1670  122.8850   59.1360 C   0  0  0  0  0  0  0  0  0  0  0  0
  127.7130  122.3730   58.0540 N   0  0  0  0  0  0  0  0  0  0  0  0
  127.0060  122.6510   56.9760 C   0  0  0  0  0  0  0  0  0  0  0  0
  125.8540  123.4070   57.1740 C   0  0  0  0  0  0  0  0  0  0  0  0
  125.7000  123.7700   58.8670 S   0  0  0  0  0  0  0  0  0  0  0  0
  1  2  3  0
  2  3  1  0
  3  4  2  0
  4  5  1  0
  5  6  1  0
  5  7  1  0
  5  8  1  0
  4  9  1  0
  9 10  2  0
 10 11  1  0
 11 12  2  0
 12 13  1  0
 13 14  2  0
 14 15  1  0
 15 16  2  0
 10 17  1  0
 17 18  2  0
 18 19  1  0
 19 20  1  0
 20 21  1  0
 21 22  2  0
 21 23  1  0
 23 24  1  0
 24 25  2  0
 25 26  1  0
 26 27  2  0
 27 28  1  0
 18  3  1  0
 28 24  1  0
 16 11  1  0
M  END
>  <Binding energies>  (30) 
[-7.29]

>  <Ligand effiencies>  (30) 
[-0.2513793103448276]

>  <Interactions>  (30) 
["V-B:PRO:540:CB:9857, V-B:TYR:539:C:9839, V-B:PRO:540:CA:9855, V-B:PRO:540:N:9856, V-B:GLU:543:CD:9880, V-A:ILE:369:CD1:3239, V-B:TYR:539:CE2:9848, V-B:PRO:540:C:9853, H-B:ALA:541:N:9863, H-B:TYR:539:O:9840, V-A:SER:385:CB:3409, V-A:PRO:482:CG:4327, V-A:PRO:482:CB:4326, V-B:TYR:539:CB:9843, V-A:LEU:475:CD2:4259, H-A:TYR:484:OH:4348, V-B:ALA:541:CA:9862, V-B:TYR:539:CD2:9846, V-A:LEU:475:CD1:4258, V-A:LEU:475:CG:4257, V-B:ALA:541:CB:9864, V-A:ILE:369:CG2:3237, H-A:ARG:545:NH2:4928, V-A:ASP:366:CG:3213, V-A:ASP:366:CB:3212, V-A:ILE:369:CB:3236, V-A:ASP:366:CA:3210, V-B:GLU:543:CG:9879, V-B:TYR:539:CG:9844, V-A:ILE:369:CG1:3238, V-B:TYR:539:CZ:9849"]

$$$$
3ak_Grossjean_2025
     RDKit          3D

 33 34  0  0  0  0  0  0  0  0999 V2000
  132.9870  121.2300   60.6870 C   0  0  0  0  0  0  0  0  0  0  0  0
  131.5890  121.3710   60.4950 O   0  0  0  0  0  0  0  0  0  0  0  0
  130.8610  120.1760   60.7440 C   0  0  0  0  0  0  0  0  0  0  0  0
  129.9010  120.4110   61.9170 C   0  0  0  0  0  0  0  0  0  0  0  0
  129.7370  121.8120   62.1080 O   0  0  0  0  0  0  0  0  0  0  0  0
  128.5400  122.3690   61.5730 C   0  0  0  0  0  0  0  0  0  0  0  0
  127.6310  123.0190   62.6330 C   0  0  0  0  0  0  0  0  0  0  0  0
  126.2740  122.8670   62.2400 O   0  0  0  0  0  0  0  0  0  0  0  0
  125.7820  123.9350   61.4410 C   0  0  0  0  0  0  0  0  0  0  0  0
  125.7480  123.5170   59.9590 C   0  0  0  0  0  0  0  0  0  0  0  0
  127.0090  123.7540   59.2540 N   0  0  0  0  0  0  0  0  0  0  0  0
  127.4110  123.1380   58.1260 C   0  0  0  0  0  0  0  0  0  0  0  0
  126.7250  122.2960   57.5450 O   0  0  0  0  0  0  0  0  0  0  0  0
  128.7840  123.4990   57.5340 C   0  0  0  0  0  0  0  0  0  0  0  0
  129.3210  125.2400   57.7170 S   0  0  0  0  0  0  0  0  0  0  0  0
  129.6460  125.5610   59.4440 C   0  0  0  0  0  0  0  0  0  0  0  0
  128.7030  126.2880   60.0930 N   0  0  0  0  0  0  0  0  0  0  0  0
  128.8640  126.5890   61.4070 C   0  0  0  0  0  0  0  0  0  0  0  0
  127.7720  127.3950   62.0450 C   0  0  0  0  0  0  0  0  0  0  0  0
  127.8880  127.8360   63.3720 C   0  0  0  0  0  0  0  0  0  0  0  0
  126.8790  128.5880   63.9690 C   0  0  0  0  0  0  0  0  0  0  0  0
  125.7380  128.9110   63.2420 C   0  0  0  0  0  0  0  0  0  0  0  0
  125.5990  128.4900   61.9250 C   0  0  0  0  0  0  0  0  0  0  0  0
  126.6100  127.7380   61.3310 C   0  0  0  0  0  0  0  0  0  0  0  0
  129.9870  126.1440   62.1120 C   0  0  0  0  0  0  0  0  0  0  0  0
  130.9770  125.3900   61.4650 C   0  0  0  0  0  0  0  0  0  0  0  0
  132.2010  124.9200   62.2750 C   0  0  0  0  0  0  0  0  0  0  0  0
  132.2570  123.5890   62.2880 F   0  0  0  0  0  0  0  0  0  0  0  0
  133.3210  125.3950   61.7270 F   0  0  0  0  0  0  0  0  0  0  0  0
  132.1720  125.3330   63.5440 F   0  0  0  0  0  0  0  0  0  0  0  0
  130.8080  125.0880   60.0920 C   0  0  0  0  0  0  0  0  0  0  0  0
  131.8100  124.3030   59.3650 C   0  0  0  0  0  0  0  0  0  0  0  0
  132.6020  123.6840   58.7890 N   0  0  0  0  0  0  0  0  0  0  0  0
  1  2  1  0
  2  3  1  0
  3  4  1  0
  4  5  1  0
  5  6  1  0
  6  7  1  0
  7  8  1  0
  8  9  1  0
  9 10  1  0
 10 11  1  0
 11 12  1  0
 12 13  2  0
 12 14  1  0
 14 15  1  0
 15 16  1  0
 16 17  2  0
 17 18  1  0
 18 19  1  0
 19 20  2  0
 20 21  1  0
 21 22  2  0
 22 23  1  0
 23 24  2  0
 18 25  2  0
 25 26  1  0
 26 27  1  0
 27 28  1  0
 27 29  1  0
 27 30  1  0
 26 31  2  0
 31 32  1  0
 32 33  3  0
 31 16  1  0
 24 19  1  0
M  END
>  <Binding energies>  (31) 
[-4.45]

>  <Ligand effiencies>  (31) 
[-0.13088235294117648]

>  <Interactions>  (31) 
["V-B:PRO:540:CB:9857, V-A:ARG:545:CZ:4926, V-B:TYR:539:C:9839, V-B:PRO:540:CA:9855, V-B:PRO:540:N:9856, V-B:GLU:543:CD:9880, V-A:TYR:484:CZ:4347, V-B:TYR:539:CE2:9848, H-B:ALA:541:N:9863, V-B:ASP:366:CG:8185, V-A:LEU:475:CD2:4259, H-A:TYR:484:OH:4348, V-B:TYR:539:CD2:9846, V-A:LEU:475:CD1:4258, V-B:ALA:541:CB:9864, V-B:ARG:545:CZ:9898, V-A:GLU:543:CD:4908, V-A:ILE:369:CG2:3237, V-A:ASP:366:CG:3213, V-B:GLU:543:CG:9879, V-B:TYR:539:CZ:9849, V-B:TYR:539:CE1:9847, H-B:TYR:539:N:9842, H-B:TYR:539:OH:9850"]

$$$$
3bk_Grossjean_2025
     RDKit          3D

 30 31  0  0  0  0  0  0  0  0999 V2000
  125.2430  129.3310   56.5740 C   0  0  0  0  0  0  0  0  0  0  0  0
  126.3000  128.3840   56.5610 O   0  0  0  0  0  0  0  0  0  0  0  0
  126.6680  127.9290   57.8570 C   0  0  0  0  0  0  0  0  0  0  0  0
  127.1160  126.4620   57.7790 C   0  0  0  0  0  0  0  0  0  0  0  0
  126.3160  125.6790   58.6540 O   0  0  0  0  0  0  0  0  0  0  0  0
  125.4840  124.7400   57.9860 C   0  0  0  0  0  0  0  0  0  0  0  0
  125.2790  123.5150   58.8860 C   0  0  0  0  0  0  0  0  0  0  0  0
  126.1350  122.4650   58.4540 O   0  0  0  0  0  0  0  0  0  0  0  0
  126.9450  122.8060   57.3360 C   0  0  0  0  0  0  0  0  0  0  0  0
  128.2590  123.4290   57.8280 C   0  0  0  0  0  0  0  0  0  0  0  0
  128.1670  123.9070   59.2080 N   0  0  0  0  0  0  0  0  0  0  0  0
  128.0770  123.1280   60.3000 C   0  0  0  0  0  0  0  0  0  0  0  0
  128.0800  121.8960   60.2630 O   0  0  0  0  0  0  0  0  0  0  0  0
  127.9940  123.8480   61.6470 C   0  0  0  0  0  0  0  0  0  0  0  0
  129.4980  123.6020   62.6440 S   0  0  0  0  0  0  0  0  0  0  0  0
  130.7580  122.8590   61.6220 C   0  0  0  0  0  0  0  0  0  0  0  0
  130.6160  121.5320   61.3770 N   0  0  0  0  0  0  0  0  0  0  0  0
  131.5300  120.8800   60.6100 C   0  0  0  0  0  0  0  0  0  0  0  0
  131.2870  119.4200   60.3720 C   0  0  0  0  0  0  0  0  0  0  0  0
  130.2980  118.7300   61.0920 C   0  0  0  0  0  0  0  0  0  0  0  0
  130.0720  117.3730   60.8780 C   0  0  0  0  0  0  0  0  0  0  0  0
  130.8330  116.6850   59.9380 C   0  0  0  0  0  0  0  0  0  0  0  0
  131.8160  117.3460   59.2090 C   0  0  0  0  0  0  0  0  0  0  0  0
  132.0380  118.7040   59.4240 C   0  0  0  0  0  0  0  0  0  0  0  0
  132.6220  121.5620   60.0600 C   0  0  0  0  0  0  0  0  0  0  0  0
  132.7840  122.9300   60.3030 C   0  0  0  0  0  0  0  0  0  0  0  0
  133.9890  123.6360   59.6840 C   0  0  0  0  0  0  0  0  0  0  0  0
  131.8370  123.6060   61.1010 C   0  0  0  0  0  0  0  0  0  0  0  0
  131.9800  125.0390   61.3710 C   0  0  0  0  0  0  0  0  0  0  0  0
  132.0940  126.1710   61.5850 N   0  0  0  0  0  0  0  0  0  0  0  0
  1  2  1  0
  2  3  1  0
  3  4  1  0
  4  5  1  0
  5  6  1  0
  6  7  1  0
  7  8  1  0
  8  9  1  0
  9 10  1  0
 10 11  1  0
 11 12  1  0
 12 13  2  0
 12 14  1  0
 14 15  1  0
 15 16  1  0
 16 17  2  0
 17 18  1  0
 18 19  1  0
 19 20  2  0
 20 21  1  0
 21 22  2  0
 22 23  1  0
 23 24  2  0
 18 25  2  0
 25 26  1  0
 26 27  1  0
 26 28  2  0
 28 29  1  0
 29 30  3  0
 28 16  1  0
 24 19  1  0
M  END
>  <Binding energies>  (32) 
[-5.23]

>  <Ligand effiencies>  (32) 
[-0.16870967741935486]

>  <Interactions>  (32) 
["V-B:PRO:540:CB:9857, V-B:TYR:539:C:9839, V-B:PRO:540:CA:9855, V-B:PRO:540:N:9856, V-B:GLU:543:CD:9880, V-A:ILE:369:CD1:3239, V-B:TYR:539:CE2:9848, V-A:SER:385:CB:3409, V-A:HIS:383:CE1:3394, V-A:PRO:482:CG:4327, V-A:PRO:482:CB:4326, V-B:TYR:539:CB:9843, V-A:LEU:475:CD2:4259, H-A:TYR:484:OH:4348, V-B:TYR:539:CD2:9846, V-A:LEU:475:CD1:4258, V-A:LEU:475:CG:4257, V-A:LEU:373:CD1:3280, V-A:ILE:369:CG2:3237, H-A:ARG:545:NH2:4928, V-A:ILE:369:CB:3236, V-B:TYR:531:CZ:9766, V-B:TYR:539:CG:9844, H-B:TYR:531:OH:9767, V-A:ILE:369:CG1:3238, V-B:TYR:539:CZ:9849, V-B:TYR:531:CE1:9764"]

$$$$
3cb_Grossjean_2025
     RDKit          3D

 30 32  0  0  0  0  0  0  0  0999 V2000
  128.3600  132.8480   60.2590 C   0  0  0  0  0  0  0  0  0  0  0  0
  129.1250  132.7480   61.4510 O   0  0  0  0  0  0  0  0  0  0  0  0
  129.9120  131.6670   61.6890 C   0  0  0  0  0  0  0  0  0  0  0  0
  131.1330  131.7390   61.8550 O   0  0  0  0  0  0  0  0  0  0  0  0
  129.1490  130.3740   61.7260 C   0  0  0  0  0  0  0  0  0  0  0  0
  128.0960  130.1580   62.6280 C   0  0  0  0  0  0  0  0  0  0  0  0
  127.4070  128.9490   62.6340 C   0  0  0  0  0  0  0  0  0  0  0  0
  127.7560  127.9290   61.7470 C   0  0  0  0  0  0  0  0  0  0  0  0
  126.9910  126.7490   61.8390 N   0  0  0  0  0  0  0  0  0  0  0  0
  126.5130  125.9480   60.8630 C   0  0  0  0  0  0  0  0  0  0  0  0
  126.6950  126.1190   59.6560 O   0  0  0  0  0  0  0  0  0  0  0  0
  125.7060  124.7420   61.3680 C   0  0  0  0  0  0  0  0  0  0  0  0
  126.4130  123.1120   60.9470 S   0  0  0  0  0  0  0  0  0  0  0  0
  128.0010  123.3860   60.1900 C   0  0  0  0  0  0  0  0  0  0  0  0
  127.9230  123.9800   58.9740 N   0  0  0  0  0  0  0  0  0  0  0  0
  129.0680  124.2380   58.3030 C   0  0  0  0  0  0  0  0  0  0  0  0
  128.9050  124.9140   56.9560 C   0  0  0  0  0  0  0  0  0  0  0  0
  130.3230  123.9130   58.8100 C   0  0  0  0  0  0  0  0  0  0  0  0
  130.4270  123.2840   60.0580 C   0  0  0  0  0  0  0  0  0  0  0  0
  131.7960  122.9510   60.5560 C   0  0  0  0  0  0  0  0  0  0  0  0
  132.3040  121.6540   60.4050 C   0  0  0  0  0  0  0  0  0  0  0  0
  133.5820  121.3360   60.8550 C   0  0  0  0  0  0  0  0  0  0  0  0
  134.3630  122.3180   61.4580 C   0  0  0  0  0  0  0  0  0  0  0  0
  133.8780  123.6140   61.6100 C   0  0  0  0  0  0  0  0  0  0  0  0
  132.6000  123.9290   61.1570 C   0  0  0  0  0  0  0  0  0  0  0  0
  129.2330  122.9940   60.7680 C   0  0  0  0  0  0  0  0  0  0  0  0
  129.2770  122.2550   62.0340 C   0  0  0  0  0  0  0  0  0  0  0  0
  129.3110  121.6720   63.0320 N   0  0  0  0  0  0  0  0  0  0  0  0
  128.8060  128.1390   60.8400 C   0  0  0  0  0  0  0  0  0  0  0  0
  129.4940  129.3500   60.8330 C   0  0  0  0  0  0  0  0  0  0  0  0
  1  2  1  0
  2  3  1  0
  3  4  2  0
  3  5  1  0
  5  6  2  0
  6  7  1  0
  7  8  2  0
  8  9  1  0
  9 10  1  0
 10 11  2  0
 10 12  1  0
 12 13  1  0
 13 14  1  0
 14 15  2  0
 15 16  1  0
 16 17  1  0
 16 18  2  0
 18 19  1  0
 19 20  1  0
 20 21  2  0
 21 22  1  0
 22 23  2  0
 23 24  1  0
 24 25  2  0
 19 26  2  0
 26 27  1  0
 27 28  3  0
  8 29  1  0
 29 30  2  0
 30  5  1  0
 26 14  1  0
 25 20  1  0
M  END
>  <Binding energies>  (33) 
[-6.35]

>  <Ligand effiencies>  (33) 
[-0.20483870967741935]

>  <Interactions>  (33) 
["V-B:PRO:540:CA:9855, V-B:GLU:543:CD:9880, V-A:ILE:369:CD1:3239, V-B:TYR:539:CE2:9848, H-B:ALA:541:N:9863, V-B:ASP:366:CG:8185, V-A:LEU:475:CD2:4259, H-A:TYR:484:OH:4348, V-B:TYR:539:CD2:9846, V-B:ALA:541:CB:9864, V-A:GLU:543:CD:4908, V-A:GLU:543:CG:4907, V-A:GLY:454:CA:4049, V-A:ILE:369:CG2:3237, V-A:GLY:453:C:4042, H-B:GLU:543:OE2:9882, H-B:GLU:543:OE1:9881, V-A:ILE:369:CG1:3238, V-B:TYR:539:CZ:9849, V-B:MET:535:CE:9807, H-A:ALA:541:N:4891, V-A:ALA:541:CB:4892, V-A:SER:385:C:3405"]

$$$$
3ch_Grossjean_2025
     RDKit          3D

 32 34  0  0  0  0  0  0  0  0999 V2000
  125.2700  129.2390   59.0470 C   0  0  0  0  0  0  0  0  0  0  0  0
  124.9080  129.9420   60.2310 O   0  0  0  0  0  0  0  0  0  0  0  0
  125.3220  129.4640   61.4620 C   0  0  0  0  0  0  0  0  0  0  0  0
  126.4140  128.6000   61.6420 C   0  0  0  0  0  0  0  0  0  0  0  0
  126.7820  128.1640   62.9230 C   0  0  0  0  0  0  0  0  0  0  0  0
  127.8610  127.3040   63.2030 N   0  0  0  0  0  0  0  0  0  0  0  0
  128.9270  126.9800   62.4390 C   0  0  0  0  0  0  0  0  0  0  0  0
  129.1560  127.4160   61.3100 O   0  0  0  0  0  0  0  0  0  0  0  0
  129.9310  126.0230   63.0800 C   0  0  0  0  0  0  0  0  0  0  0  0
  129.6330  124.2940   62.6030 S   0  0  0  0  0  0  0  0  0  0  0  0
  129.2860  124.3160   60.8580 C   0  0  0  0  0  0  0  0  0  0  0  0
  130.3080  124.7850   60.1000 N   0  0  0  0  0  0  0  0  0  0  0  0
  130.1420  124.8490   58.7600 C   0  0  0  0  0  0  0  0  0  0  0  0
  131.3210  125.3880   57.9740 C   0  0  0  0  0  0  0  0  0  0  0  0
  128.9650  124.4550   58.1290 C   0  0  0  0  0  0  0  0  0  0  0  0
  127.8990  123.9600   58.8950 C   0  0  0  0  0  0  0  0  0  0  0  0
  126.6520  123.5580   58.1760 C   0  0  0  0  0  0  0  0  0  0  0  0
  126.7250  122.7310   57.0490 C   0  0  0  0  0  0  0  0  0  0  0  0
  125.5680  122.3590   56.3700 C   0  0  0  0  0  0  0  0  0  0  0  0
  124.3300  122.8170   56.8140 C   0  0  0  0  0  0  0  0  0  0  0  0
  124.2410  123.6460   57.9290 C   0  0  0  0  0  0  0  0  0  0  0  0
  125.4010  124.0170   58.6050 C   0  0  0  0  0  0  0  0  0  0  0  0
  128.0650  123.8680   60.3010 C   0  0  0  0  0  0  0  0  0  0  0  0
  127.0220  123.2710   61.1400 C   0  0  0  0  0  0  0  0  0  0  0  0
  126.1980  122.8010   61.8030 N   0  0  0  0  0  0  0  0  0  0  0  0
  126.0350  128.5840   64.0250 C   0  0  0  0  0  0  0  0  0  0  0  0
  124.9390  129.4460   63.8700 C   0  0  0  0  0  0  0  0  0  0  0  0
  124.1630  129.9060   64.9210 O   0  0  0  0  0  0  0  0  0  0  0  0
  124.3290  129.3380   66.2160 C   0  0  0  0  0  0  0  0  0  0  0  0
  124.5910  129.8770   62.5840 C   0  0  0  0  0  0  0  0  0  0  0  0
  123.5300  130.7360   62.4210 O   0  0  0  0  0  0  0  0  0  0  0  0
  123.9060  132.0970   62.2580 C   0  0  0  0  0  0  0  0  0  0  0  0
  1  2  1  0
  2  3  1  0
  3  4  2  0
  4  5  1  0
  5  6  1  0
  6  7  1  0
  7  8  2  0
  7  9  1  0
  9 10  1  0
 10 11  1  0
 11 12  2  0
 12 13  1  0
 13 14  1  0
 13 15  2  0
 15 16  1  0
 16 17  1  0
 17 18  2  0
 18 19  1  0
 19 20  2  0
 20 21  1  0
 21 22  2  0
 16 23  2  0
 23 24  1  0
 24 25  3  0
  5 26  2  0
 26 27  1  0
 27 28  1  0
 28 29  1  0
 27 30  2  0
 30 31  1  0
 31 32  1  0
 30  3  1  0
 23 11  1  0
 22 17  1  0
M  END
>  <Binding energies>  (34) 
[-8.14]

>  <Ligand effiencies>  (34) 
[-0.24666666666666667]

>  <Interactions>  (34) 
["V-B:PRO:540:CD:9859, V-B:LEU:363:CD1:8161, V-B:ILE:538:CD1:9837, V-B:PRO:540:CB:9857, V-B:TYR:539:C:9839, V-B:PRO:540:CA:9855, V-B:PRO:540:CG:9858, V-B:PRO:540:N:9856, V-B:GLU:543:CD:9880, V-B:TYR:539:CE2:9848, V-B:ILE:538:CG2:9835, H-B:ALA:541:N:9863, V-B:ASP:366:CG:8185, H-A:TYR:484:OH:4348, V-B:HIS:456:CE1:9042, V-B:ARG:545:CZ:9898, H-B:TYR:484:OH:9320, V-A:GLU:543:CD:4908, V-B:ILE:369:CD1:8211, V-B:TYR:484:CZ:9319, H-B:GLY:454:N:9022, V-B:GLY:454:CA:9021, H-B:GLU:543:OE2:9882, H-B:GLU:543:OE1:9881, V-B:TYR:531:CE2:9765, V-B:ASP:366:CB:8184, V-B:TYR:539:CZ:9849, V-B:ILE:538:CA:9832, V-B:ARG:545:CG:9894, V-B:ARG:545:CD:9895, V-B:LEU:363:CA:8157"]

$$$$
3ci_Grossjean_2025
     RDKit          3D

 25 27  0  0  0  0  0  0  0  0999 V2000
  129.8780  120.7830   62.1500 C   0  0  0  0  0  0  0  0  0  0  0  0
  129.2940  122.0600   61.5740 C   0  0  0  0  0  0  0  0  0  0  0  0
  128.5000  122.0490   60.4310 C   0  0  0  0  0  0  0  0  0  0  0  0
  127.9690  123.2530   59.9460 C   0  0  0  0  0  0  0  0  0  0  0  0
  127.1100  123.1920   58.7260 C   0  0  0  0  0  0  0  0  0  0  0  0
  125.7440  123.4980   58.7940 C   0  0  0  0  0  0  0  0  0  0  0  0
  124.9460  123.4310   57.6550 C   0  0  0  0  0  0  0  0  0  0  0  0
  125.5100  123.0510   56.4410 C   0  0  0  0  0  0  0  0  0  0  0  0
  126.8640  122.7350   56.3570 C   0  0  0  0  0  0  0  0  0  0  0  0
  127.6590  122.8030   57.4980 C   0  0  0  0  0  0  0  0  0  0  0  0
  128.2730  124.4520   60.6400 C   0  0  0  0  0  0  0  0  0  0  0  0
  127.7810  125.7460   60.1550 C   0  0  0  0  0  0  0  0  0  0  0  0
  127.3920  126.7670   59.7720 N   0  0  0  0  0  0  0  0  0  0  0  0
  129.0850  124.3710   61.7970 C   0  0  0  0  0  0  0  0  0  0  0  0
  129.5130  125.8160   62.7600 S   0  0  0  0  0  0  0  0  0  0  0  0
  131.1370  125.5630   63.5480 C   0  0  0  0  0  0  0  0  0  0  0  0
  132.2110  125.0560   62.5780 C   0  0  0  0  0  0  0  0  0  0  0  0
  133.2720  124.6210   63.0280 O   0  0  0  0  0  0  0  0  0  0  0  0
  131.9040  125.1450   61.2640 N   0  0  0  0  0  0  0  0  0  0  0  0
  132.6800  124.7340   60.1900 C   0  0  0  0  0  0  0  0  0  0  0  0
  132.2250  124.7510   58.8720 C   0  0  0  0  0  0  0  0  0  0  0  0
  133.2770  124.2720   58.1230 C   0  0  0  0  0  0  0  0  0  0  0  0
  134.3110  123.9840   58.9490 O   0  0  0  0  0  0  0  0  0  0  0  0
  133.9210  124.2800   60.2560 N   0  0  0  0  0  0  0  0  0  0  0  0
  129.5880  123.1940   62.2470 N   0  0  0  0  0  0  0  0  0  0  0  0
  1  2  1  0
  2  3  2  0
  3  4  1  0
  4  5  1  0
  5  6  2  0
  6  7  1  0
  7  8  2  0
  8  9  1  0
  9 10  2  0
  4 11  2  0
 11 12  1  0
 12 13  3  0
 11 14  1  0
 14 15  1  0
 15 16  1  0
 16 17  1  0
 17 18  2  0
 17 19  1  0
 19 20  1  0
 20 21  1  0
 21 22  2  0
 22 23  1  0
 23 24  1  0
 14 25  2  0
 25  2  1  0
 10  5  1  0
 24 20  2  0
M  END
>  <Binding energies>  (35) 
[-7.48]

>  <Ligand effiencies>  (35) 
[-0.2876923076923077]

>  <Interactions>  (35) 
["V-B:LEU:363:CD1:8161, V-B:PRO:540:CB:9857, V-B:TYR:539:C:9839, V-B:PRO:540:CA:9855, V-B:PRO:540:N:9856, V-B:GLU:543:CD:9880, V-A:TYR:484:CZ:4347, V-B:TYR:539:CE2:9848, V-A:LEU:475:CD2:4259, H-A:TYR:484:OH:4348, V-B:TYR:539:CD2:9846, V-B:ALA:541:CB:9864, V-A:GLU:543:CD:4908, H-A:GLY:454:N:4050, V-A:ILE:369:CG2:3237, H-A:ARG:545:NH2:4928, V-A:ASP:366:CG:3213, V-A:ASP:366:CB:3212, V-A:ILE:369:CB:3236, V-A:ASP:366:CA:3210, V-B:TYR:531:CE2:9765, V-B:TYR:539:CG:9844, V-A:TYR:484:CE1:4345, V-B:TYR:539:CZ:9849"]

$$$$
3ck_Grossjean_2025
     RDKit          3D

 30 31  0  0  0  0  0  0  0  0999 V2000
  133.9970  124.9860   66.1800 C   0  0  0  0  0  0  0  0  0  0  0  0
  134.0100  125.1870   64.7760 O   0  0  0  0  0  0  0  0  0  0  0  0
  132.7220  125.4310   64.2270 C   0  0  0  0  0  0  0  0  0  0  0  0
  132.7080  125.0220   62.7480 C   0  0  0  0  0  0  0  0  0  0  0  0
  133.6230  123.9520   62.5480 O   0  0  0  0  0  0  0  0  0  0  0  0
  134.0620  123.8140   61.2030 C   0  0  0  0  0  0  0  0  0  0  0  0
  133.0760  124.5370   60.2770 C   0  0  0  0  0  0  0  0  0  0  0  0
  132.1570  123.5820   59.7690 O   0  0  0  0  0  0  0  0  0  0  0  0
  132.4240  122.2390   60.1450 C   0  0  0  0  0  0  0  0  0  0  0  0
  131.0970  121.4970   60.3890 C   0  0  0  0  0  0  0  0  0  0  0  0
  130.0550  122.3350   60.9910 N   0  0  0  0  0  0  0  0  0  0  0  0
  129.4840  122.1350   62.1920 C   0  0  0  0  0  0  0  0  0  0  0  0
  129.8030  121.2140   62.9470 O   0  0  0  0  0  0  0  0  0  0  0  0
  128.3910  123.1430   62.5820 C   0  0  0  0  0  0  0  0  0  0  0  0
  126.9400  123.1920   61.4750 S   0  0  0  0  0  0  0  0  0  0  0  0
  127.4770  123.6150   59.8240 C   0  0  0  0  0  0  0  0  0  0  0  0
  126.8700  122.9340   58.8190 N   0  0  0  0  0  0  0  0  0  0  0  0
  127.2310  123.2000   57.5440 C   0  0  0  0  0  0  0  0  0  0  0  0
  126.5130  122.3990   56.4750 C   0  0  0  0  0  0  0  0  0  0  0  0
  128.2020  124.1450   57.2200 C   0  0  0  0  0  0  0  0  0  0  0  0
  128.8450  124.8550   58.2410 C   0  0  0  0  0  0  0  0  0  0  0  0
  129.8960  125.8410   57.8480 C   0  0  0  0  0  0  0  0  0  0  0  0
  131.1470  125.3960   57.4040 C   0  0  0  0  0  0  0  0  0  0  0  0
  132.1350  126.3110   57.0460 C   0  0  0  0  0  0  0  0  0  0  0  0
  131.8760  127.6750   57.1360 C   0  0  0  0  0  0  0  0  0  0  0  0
  130.6390  128.1340   57.5840 C   0  0  0  0  0  0  0  0  0  0  0  0
  129.6540  127.2180   57.9410 C   0  0  0  0  0  0  0  0  0  0  0  0
  128.4670  124.5950   59.5840 C   0  0  0  0  0  0  0  0  0  0  0  0
  129.0780  125.3380   60.6920 C   0  0  0  0  0  0  0  0  0  0  0  0
  129.5590  125.9250   61.5660 N   0  0  0  0  0  0  0  0  0  0  0  0
  1  2  1  0
  2  3  1  0
  3  4  1  0
  4  5  1  0
  5  6  1  0
  6  7  1  0
  7  8  1  0
  8  9  1  0
  9 10  1  0
 10 11  1  0
 11 12  1  0
 12 13  2  0
 12 14  1  0
 14 15  1  0
 15 16  1  0
 16 17  2  0
 17 18  1  0
 18 19  1  0
 18 20  2  0
 20 21  1  0
 21 22  1  0
 22 23  2  0
 23 24  1  0
 24 25  2  0
 25 26  1  0
 26 27  2  0
 21 28  2  0
 28 29  1  0
 29 30  3  0
 28 16  1  0
 27 22  1  0
M  END
>  <Binding energies>  (36) 
[-6.06]

>  <Ligand effiencies>  (36) 
[-0.19548387096774192]

>  <Interactions>  (36) 
["V-B:PRO:540:CD:9859, V-A:ARG:545:CD:4923, V-A:ARG:545:CZ:4926, V-B:TYR:539:C:9839, V-B:PRO:540:CA:9855, V-B:PRO:540:N:9856, V-B:GLU:543:CD:9880, V-A:ILE:369:CD1:3239, V-A:TYR:484:CZ:4347, V-A:TYR:484:CE2:4346, V-B:TYR:539:CE2:9848, V-A:ARG:545:CG:4922, H-B:ALA:541:N:9863, V-A:HIS:456:CE1:4070, V-A:LEU:475:CD2:4259, H-A:TYR:484:OH:4348, V-B:TYR:539:CA:9841, V-B:TYR:539:CD2:9846, V-B:ALA:541:CB:9864, H-A:ARG:545:NH1:4927, V-A:GLY:454:CA:4049, H-A:GLY:454:N:4050, V-A:ILE:369:CG2:3237, H-A:ARG:545:NH2:4928, V-A:ASP:366:CG:3213, V-A:ASP:366:CB:3212, H-A:ARG:545:NE:4924, V-B:GLU:543:CG:9879, V-A:TYR:484:CE1:4345, V-B:TYR:539:CZ:9849, V-B:MET:535:CE:9807, V-A:ILE:455:C:4052"]

$$$$
4aa_Grossjean_2025
     RDKit          3D

 26 28  0  0  0  0  0  0  0  0999 V2000
  130.2510  129.3380   71.9970 C   0  0  0  0  0  0  0  0  0  0  0  0
  130.2670  127.9240   72.5840 C   0  0  0  0  0  0  0  0  0  0  0  0
  128.9660  127.3580   72.4900 O   0  0  0  0  0  0  0  0  0  0  0  0
  128.7030  126.3450   71.6250 C   0  0  0  0  0  0  0  0  0  0  0  0
  128.7340  125.1520   71.9440 O   0  0  0  0  0  0  0  0  0  0  0  0
  128.3740  126.8200   70.2390 C   0  0  0  0  0  0  0  0  0  0  0  0
  127.1600  126.4350   69.6540 C   0  0  0  0  0  0  0  0  0  0  0  0
  126.8280  126.8540   68.3690 C   0  0  0  0  0  0  0  0  0  0  0  0
  127.6970  127.6730   67.6460 C   0  0  0  0  0  0  0  0  0  0  0  0
  127.2660  128.0300   66.3540 N   0  0  0  0  0  0  0  0  0  0  0  0
  126.1350  128.6590   65.9530 C   0  0  0  0  0  0  0  0  0  0  0  0
  125.2260  128.9990   66.7110 O   0  0  0  0  0  0  0  0  0  0  0  0
  126.0310  128.9000   64.5120 C   0  0  0  0  0  0  0  0  0  0  0  0
  124.5550  129.5850   63.8280 S   0  0  0  0  0  0  0  0  0  0  0  0
  125.2090  129.4990   62.2090 C   0  0  0  0  0  0  0  0  0  0  0  0
  124.5160  129.9060   61.1450 N   0  0  0  0  0  0  0  0  0  0  0  0
  125.1370  129.7810   59.9470 C   0  0  0  0  0  0  0  0  0  0  0  0
  124.3290  130.2450   58.7480 C   0  0  0  0  0  0  0  0  0  0  0  0
  126.4230  129.2670   59.7900 C   0  0  0  0  0  0  0  0  0  0  0  0
  127.1480  128.8430   60.9080 C   0  0  0  0  0  0  0  0  0  0  0  0
  128.5480  128.2900   60.6870 C   0  0  0  0  0  0  0  0  0  0  0  0
  126.5280  128.9540   62.1820 C   0  0  0  0  0  0  0  0  0  0  0  0
  126.9710  128.6170   63.5090 C   0  0  0  0  0  0  0  0  0  0  0  0
  128.2070  128.0720   63.7510 N   0  0  0  0  0  0  0  0  0  0  0  0
  128.9160  128.0590   68.2210 C   0  0  0  0  0  0  0  0  0  0  0  0
  129.2480  127.6360   69.5060 C   0  0  0  0  0  0  0  0  0  0  0  0
  1  2  1  0
  2  3  1  0
  3  4  1  0
  4  5  2  0
  4  6  1  0
  6  7  2  0
  7  8  1  0
  8  9  2  0
  9 10  1  0
 10 11  1  0
 11 12  2  0
 11 13  1  0
 13 14  1  0
 14 15  1  0
 15 16  2  0
 16 17  1  0
 17 18  1  0
 17 19  2  0
 19 20  1  0
 20 21  1  0
 20 22  2  0
 22 23  1  0
 23 24  1  0
  9 25  1  0
 25 26  2  0
 26  6  1  0
 23 13  2  0
 22 15  1  0
M  END
>  <Binding energies>  (37) 
[-5.98]

>  <Ligand effiencies>  (37) 
[-0.20620689655172414]

>  <Interactions>  (37) 
["V-B:GLU:543:CD:9880, V-A:HIS:456:CE1:4070, V-B:ASP:366:CG:8185, V-A:GLU:543:C:4902, V-B:HIS:456:CE1:9042, V-A:GLY:544:CA:4914, V-B:ARG:545:CZ:9898, V-A:GLU:543:CB:4906, H-B:TYR:484:OH:9320, V-A:GLU:543:CD:4908, V-A:GLY:544:C:4912, H-B:ARG:545:NE:9896, V-A:HIS:456:CD2:4068, H-A:GLU:543:OE1:4909, H-A:GLU:543:OE2:4910, H-B:GLU:543:OE2:9882, H-B:GLU:543:OE1:9881, V-B:ASP:366:CB:8184, V-B:ARG:545:CG:9894, V-B:ASP:366:CA:8182, V-B:GLU:543:CB:9878, V-B:GLU:543:C:9874, V-B:HIS:456:CD2:9040, V-B:GLY:544:C:9884, H-B:LYS:547:NZ:9923, V-A:LYS:547:CE:4950, H-B:HIS:456:ND1:9039, V-B:ARG:545:CA:9891"]

$$$$
4ab_Grossjean_2025
     RDKit          3D

 25 27  0  0  0  0  0  0  0  0999 V2000
  130.4160  127.7790   72.5970 C   0  0  0  0  0  0  0  0  0  0  0  0
  129.0690  127.3430   72.4770 O   0  0  0  0  0  0  0  0  0  0  0  0
  128.7340  126.3350   71.6320 C   0  0  0  0  0  0  0  0  0  0  0  0
  128.7100  125.1460   71.9670 O   0  0  0  0  0  0  0  0  0  0  0  0
  128.4000  126.8090   70.2470 C   0  0  0  0  0  0  0  0  0  0  0  0
  127.1820  126.4260   69.6690 C   0  0  0  0  0  0  0  0  0  0  0  0
  126.8450  126.8480   68.3850 C   0  0  0  0  0  0  0  0  0  0  0  0
  127.7110  127.6650   67.6580 C   0  0  0  0  0  0  0  0  0  0  0  0
  127.2730  128.0240   66.3700 N   0  0  0  0  0  0  0  0  0  0  0  0
  126.1490  128.6720   65.9780 C   0  0  0  0  0  0  0  0  0  0  0  0
  125.2560  129.0360   66.7450 O   0  0  0  0  0  0  0  0  0  0  0  0
  126.0330  128.9060   64.5380 C   0  0  0  0  0  0  0  0  0  0  0  0
  124.5620  129.6160   63.8660 S   0  0  0  0  0  0  0  0  0  0  0  0
  125.1950  129.5080   62.2400 C   0  0  0  0  0  0  0  0  0  0  0  0
  124.4970  129.9200   61.1810 N   0  0  0  0  0  0  0  0  0  0  0  0
  125.1020  129.7780   59.9770 C   0  0  0  0  0  0  0  0  0  0  0  0
  124.2880  130.2480   58.7850 C   0  0  0  0  0  0  0  0  0  0  0  0
  126.3770  129.2430   59.8080 C   0  0  0  0  0  0  0  0  0  0  0  0
  127.1070  128.8100   60.9210 C   0  0  0  0  0  0  0  0  0  0  0  0
  128.4940  128.2310   60.6850 C   0  0  0  0  0  0  0  0  0  0  0  0
  126.5040  128.9390   62.2020 C   0  0  0  0  0  0  0  0  0  0  0  0
  126.9540  128.6000   63.5240 C   0  0  0  0  0  0  0  0  0  0  0  0
  128.1820  128.0310   63.7560 N   0  0  0  0  0  0  0  0  0  0  0  0
  128.9350  128.0490   68.2270 C   0  0  0  0  0  0  0  0  0  0  0  0
  129.2720  127.6240   69.5090 C   0  0  0  0  0  0  0  0  0  0  0  0
  1  2  1  0
  2  3  1  0
  3  4  2  0
  3  5  1  0
  5  6  2  0
  6  7  1  0
  7  8  2  0
  8  9  1  0
  9 10  1  0
 10 11  2  0
 10 12  1  0
 12 13  1  0
 13 14  1  0
 14 15  2  0
 15 16  1  0
 16 17  1  0
 16 18  2  0
 18 19  1  0
 19 20  1  0
 19 21  2  0
 21 22  1  0
 22 23  1  0
  8 24  1  0
 24 25  2  0
 25  5  1  0
 22 12  2  0
 21 14  1  0
M  END
>  <Binding energies>  (38) 
[-5.88]

>  <Ligand effiencies>  (38) 
[-0.21]

>  <Interactions>  (38) 
["V-B:GLU:543:CD:9880, V-A:HIS:456:CE1:4070, V-B:ASP:366:CG:8185, V-B:HIS:456:CE1:9042, V-B:ARG:545:CZ:9898, V-A:GLU:543:CB:4906, H-B:TYR:484:OH:9320, V-A:GLU:543:CD:4908, H-B:ARG:545:NE:9896, V-A:HIS:456:CD2:4068, H-A:GLU:543:OE1:4909, H-A:GLU:543:OE2:4910, H-B:GLU:543:OE2:9882, H-B:GLU:543:OE1:9881, V-B:ASP:366:CB:8184, V-B:ARG:545:CG:9894, V-B:ASP:366:CA:8182, V-B:GLU:543:CB:9878, V-B:GLU:543:C:9874, V-B:HIS:456:CD2:9040, V-B:GLY:544:C:9884, H-B:LYS:547:NZ:9923, H-B:HIS:456:ND1:9039, V-B:ARG:545:CA:9891"]

$$$$
4ac_Grossjean_2025
     RDKit          3D

 23 25  0  0  0  0  0  0  0  0999 V2000
  124.3000  132.0780   62.9880 C   0  0  0  0  0  0  0  0  0  0  0  0
  124.2390  130.8920   63.7730 O   0  0  0  0  0  0  0  0  0  0  0  0
  125.2090  129.9220   63.6050 C   0  0  0  0  0  0  0  0  0  0  0  0
  125.4430  129.4960   62.2980 C   0  0  0  0  0  0  0  0  0  0  0  0
  126.4020  128.5220   62.0310 C   0  0  0  0  0  0  0  0  0  0  0  0
  127.1470  127.9670   63.0720 C   0  0  0  0  0  0  0  0  0  0  0  0
  128.0830  126.9810   62.7090 N   0  0  0  0  0  0  0  0  0  0  0  0
  128.1380  126.2220   61.5880 C   0  0  0  0  0  0  0  0  0  0  0  0
  127.3010  126.2670   60.6840 O   0  0  0  0  0  0  0  0  0  0  0  0
  129.2770  125.3050   61.5050 C   0  0  0  0  0  0  0  0  0  0  0  0
  129.1410  123.7920   60.6090 S   0  0  0  0  0  0  0  0  0  0  0  0
  130.7910  123.3590   60.9950 C   0  0  0  0  0  0  0  0  0  0  0  0
  131.3420  122.2220   60.5680 N   0  0  0  0  0  0  0  0  0  0  0  0
  132.6270  122.0070   60.9380 C   0  0  0  0  0  0  0  0  0  0  0  0
  133.2350  120.7080   60.4420 C   0  0  0  0  0  0  0  0  0  0  0  0
  133.3670  122.8930   61.7190 C   0  0  0  0  0  0  0  0  0  0  0  0
  132.7870  124.0850   62.1660 C   0  0  0  0  0  0  0  0  0  0  0  0
  133.6350  125.0190   63.0150 C   0  0  0  0  0  0  0  0  0  0  0  0
  131.4400  124.3460   61.7950 C   0  0  0  0  0  0  0  0  0  0  0  0
  130.5550  125.4460   62.0700 C   0  0  0  0  0  0  0  0  0  0  0  0
  130.9420  126.5270   62.8210 N   0  0  0  0  0  0  0  0  0  0  0  0
  126.9090  128.3800   64.3910 C   0  0  0  0  0  0  0  0  0  0  0  0
  125.9480  129.3540   64.6540 C   0  0  0  0  0  0  0  0  0  0  0  0
  1  2  1  0
  2  3  1  0
  3  4  2  0
  4  5  1  0
  5  6  2  0
  6  7  1  0
  7  8  1  0
  8  9  2  0
  8 10  1  0
 10 11  1  0
 11 12  1  0
 12 13  2  0
 13 14  1  0
 14 15  1  0
 14 16  2  0
 16 17  1  0
 17 18  1  0
 17 19  2  0
 19 20  1  0
 20 21  1  0
  6 22  1  0
 22 23  2  0
 23  3  1  0
 20 10  2  0
 19 12  1  0
M  END
>  <Binding energies>  (39) 
[-5.87]

>  <Ligand effiencies>  (39) 
[-0.22576923076923078]

>  <Interactions>  (39) 
["V-A:ARG:545:CZ:4926, V-B:GLU:543:CD:9880, V-A:ILE:369:CD1:3239, V-A:SER:385:CB:3409, V-A:LEU:475:CD2:4259, H-A:TYR:484:OH:4348, H-B:TYR:484:OH:9320, V-A:GLU:543:CD:4908, H-B:GLY:454:N:9022, V-B:LEU:475:CD2:9231, V-B:GLY:454:CA:9021, H-A:GLU:543:OE1:4909, V-A:GLY:454:CA:4049, V-A:ILE:369:CG2:3237, H-A:GLU:543:OE2:4910, V-A:GLY:453:CA:4044, V-A:GLY:453:C:4042, H-B:GLU:543:OE2:9882, H-B:GLU:543:OE1:9881, V-A:SER:385:C:3405"]

$$$$
4ad_Grossjean_2025
     RDKit          3D

 21 23  0  0  0  0  0  0  0  0999 V2000
  133.2770  121.2030   60.7380 C   0  0  0  0  0  0  0  0  0  0  0  0
  132.8690  122.6650   60.7310 C   0  0  0  0  0  0  0  0  0  0  0  0
  132.8480  123.4090   61.9080 C   0  0  0  0  0  0  0  0  0  0  0  0
  132.4670  124.7560   61.8780 C   0  0  0  0  0  0  0  0  0  0  0  0
  132.4570  125.5280   63.1890 C   0  0  0  0  0  0  0  0  0  0  0  0
  132.1100  125.3160   60.6220 C   0  0  0  0  0  0  0  0  0  0  0  0
  131.6800  126.6320   60.2330 C   0  0  0  0  0  0  0  0  0  0  0  0
  131.5460  127.6550   61.1390 N   0  0  0  0  0  0  0  0  0  0  0  0
  131.4180  126.7660   58.8600 C   0  0  0  0  0  0  0  0  0  0  0  0
  130.9530  127.9480   58.1320 C   0  0  0  0  0  0  0  0  0  0  0  0
  129.8620  127.9420   57.5580 O   0  0  0  0  0  0  0  0  0  0  0  0
  131.7930  129.0110   58.1540 N   0  0  0  0  0  0  0  0  0  0  0  0
  131.6660  130.2660   57.5270 C   0  0  0  0  0  0  0  0  0  0  0  0
  130.4060  130.8660   57.6100 C   0  0  0  0  0  0  0  0  0  0  0  0
  130.1830  132.1120   57.0310 C   0  0  0  0  0  0  0  0  0  0  0  0
  131.2230  132.7640   56.3730 C   0  0  0  0  0  0  0  0  0  0  0  0
  132.4860  132.1830   56.2950 C   0  0  0  0  0  0  0  0  0  0  0  0
  132.7120  130.9370   56.8720 C   0  0  0  0  0  0  0  0  0  0  0  0
  131.7060  125.2480   58.0080 S   0  0  0  0  0  0  0  0  0  0  0  0
  132.1720  124.4470   59.4910 C   0  0  0  0  0  0  0  0  0  0  0  0
  132.5360  123.1640   59.5170 N   0  0  0  0  0  0  0  0  0  0  0  0
  1  2  1  0
  2  3  2  0
  3  4  1  0
  4  5  1  0
  4  6  2  0
  6  7  1  0
  7  8  1  0
  7  9  2  0
  9 10  1  0
 10 11  2  0
 10 12  1  0
 12 13  1  0
 13 14  2  0
 14 15  1  0
 15 16  2  0
 16 17  1  0
 17 18  2  0
  9 19  1  0
 19 20  1  0
 20 21  2  0
 21  2  1  0
 20  6  1  0
 18 13  1  0
M  END
>  <Binding energies>  (40) 
[-6.54]

>  <Ligand effiencies>  (40) 
[-0.2725]

>  <Interactions>  (40) 
["V-A:ARG:545:CZ:4926, V-B:TYR:539:CE2:9848, V-A:LEU:475:CD2:4259, V-A:GLU:543:CD:4908, H-A:GLU:543:OE1:4909, V-A:ILE:369:CG2:3237, H-A:GLU:543:OE2:4910, V-A:ASP:366:CG:3213, V-A:ASP:366:CB:3212, H-A:ASP:366:OD2:3215, H-A:ASP:366:OD1:3214, V-B:TYR:539:CZ:9849, V-A:PRO:540:CA:4883, V-A:PRO:540:CB:4885, V-A:PRO:540:N:4884, V-A:LEU:363:CD1:3189, V-A:PRO:540:CG:4886, V-A:TYR:539:C:4867, V-A:PRO:540:CD:4887"]

$$$$
4ae_Grossjean_2025
     RDKit          3D

 22 24  0  0  0  0  0  0  0  0999 V2000
  128.7830  132.5470   56.7170 C   0  0  0  0  0  0  0  0  0  0  0  0
  130.1920  131.9960   56.8050 C   0  0  0  0  0  0  0  0  0  0  0  0
  131.2820  132.6860   56.2680 C   0  0  0  0  0  0  0  0  0  0  0  0
  132.5500  132.1140   56.3800 C   0  0  0  0  0  0  0  0  0  0  0  0
  132.6960  130.8800   57.0170 C   0  0  0  0  0  0  0  0  0  0  0  0
  131.5640  130.2470   57.5400 C   0  0  0  0  0  0  0  0  0  0  0  0
  131.7720  128.9980   58.1520 N   0  0  0  0  0  0  0  0  0  0  0  0
  130.9990  127.8850   58.0910 C   0  0  0  0  0  0  0  0  0  0  0  0
  129.9440  127.8160   57.4580 O   0  0  0  0  0  0  0  0  0  0  0  0
  131.4990  126.7330   58.8450 C   0  0  0  0  0  0  0  0  0  0  0  0
  131.8360  125.2090   58.0230 S   0  0  0  0  0  0  0  0  0  0  0  0
  132.3020  124.4460   59.5250 C   0  0  0  0  0  0  0  0  0  0  0  0
  132.6940  123.1730   59.5780 N   0  0  0  0  0  0  0  0  0  0  0  0
  133.0230  122.7010   60.8040 C   0  0  0  0  0  0  0  0  0  0  0  0
  133.4590  121.2480   60.8430 C   0  0  0  0  0  0  0  0  0  0  0  0
  132.9720  123.4670   61.9690 C   0  0  0  0  0  0  0  0  0  0  0  0
  132.5600  124.8030   61.9090 C   0  0  0  0  0  0  0  0  0  0  0  0
  132.5170  125.5970   63.2060 C   0  0  0  0  0  0  0  0  0  0  0  0
  132.2060  125.3330   60.6390 C   0  0  0  0  0  0  0  0  0  0  0  0
  131.7470  126.6310   60.2230 C   0  0  0  0  0  0  0  0  0  0  0  0
  131.5720  127.6650   61.1080 N   0  0  0  0  0  0  0  0  0  0  0  0
  130.3190  130.7970   57.4290 N   0  0  0  0  0  0  0  0  0  0  0  0
  1  2  1  0
  2  3  2  0
  3  4  1  0
  4  5  2  0
  5  6  1  0
  6  7  1  0
  7  8  1  0
  8  9  2  0
  8 10  1  0
 10 11  1  0
 11 12  1  0
 12 13  2  0
 13 14  1  0
 14 15  1  0
 14 16  2  0
 16 17  1  0
 17 18  1  0
 17 19  2  0
 19 20  1  0
 20 21  1  0
  6 22  2  0
 22  2  1  0
 20 10  2  0
 19 12  1  0
M  END
>  <Binding energies>  (41) 
[-6.74]

>  <Ligand effiencies>  (41) 
[-0.2696]

>  <Interactions>  (41) 
["V-A:ARG:545:CZ:4926, V-A:ILE:369:CD1:3239, V-B:TYR:539:CE2:9848, V-A:LEU:475:CD2:4259, V-A:GLU:543:CD:4908, H-A:GLU:543:OE1:4909, V-A:ILE:369:CG2:3237, H-A:GLU:543:OE2:4910, V-A:ASP:366:CG:3213, V-A:ASP:366:CB:3212, H-A:ASP:366:OD2:3215, H-A:ASP:366:OD1:3214, V-B:TYR:539:CZ:9849, V-A:PRO:540:CA:4883, V-A:PRO:540:CB:4885, V-A:PRO:540:N:4884, V-A:LEU:363:CD1:3189, V-A:PRO:540:CG:4886, V-A:TYR:539:CD1:4873, V-A:TYR:539:C:4867, V-A:TYR:539:CE1:4875, V-A:TYR:539:CG:4872, V-A:TYR:539:CD2:4874, V-A:SER:385:C:3405, V-A:PRO:540:CD:4887"]

$$$$
4af_Grossjean_2025
     RDKit          3D

 21 23  0  0  0  0  0  0  0  0999 V2000
  133.1630  121.2020   60.7610 C   0  0  0  0  0  0  0  0  0  0  0  0
  132.7810  122.6710   60.7400 C   0  0  0  0  0  0  0  0  0  0  0  0
  132.7860  123.4310   61.9080 C   0  0  0  0  0  0  0  0  0  0  0  0
  132.4270  124.7830   61.8650 C   0  0  0  0  0  0  0  0  0  0  0  0
  132.4460  125.5700   63.1660 C   0  0  0  0  0  0  0  0  0  0  0  0
  132.0650  125.3340   60.6060 C   0  0  0  0  0  0  0  0  0  0  0  0
  131.6510  126.6530   60.2070 C   0  0  0  0  0  0  0  0  0  0  0  0
  131.5380  127.6860   61.1030 N   0  0  0  0  0  0  0  0  0  0  0  0
  131.3810  126.7750   58.8350 C   0  0  0  0  0  0  0  0  0  0  0  0
  130.9130  127.9520   58.1000 C   0  0  0  0  0  0  0  0  0  0  0  0
  129.8110  127.9510   57.5510 O   0  0  0  0  0  0  0  0  0  0  0  0
  131.7640  129.0070   58.0930 N   0  0  0  0  0  0  0  0  0  0  0  0
  131.6410  130.2520   57.4480 C   0  0  0  0  0  0  0  0  0  0  0  0
  132.6930  130.9670   56.8470 C   0  0  0  0  0  0  0  0  0  0  0  0
  132.4380  132.2050   56.2550 C   0  0  0  0  0  0  0  0  0  0  0  0
  131.1340  132.7030   56.2820 C   0  0  0  0  0  0  0  0  0  0  0  0
  130.1040  132.0370   56.8620 N   0  0  0  0  0  0  0  0  0  0  0  0
  130.3680  130.8350   57.4330 C   0  0  0  0  0  0  0  0  0  0  0  0
  131.6320  125.2420   57.9970 S   0  0  0  0  0  0  0  0  0  0  0  0
  132.1010  124.4510   59.4850 C   0  0  0  0  0  0  0  0  0  0  0  0
  132.4430  123.1630   59.5220 N   0  0  0  0  0  0  0  0  0  0  0  0
  1  2  1  0
  2  3  2  0
  3  4  1  0
  4  5  1  0
  4  6  2  0
  6  7  1  0
  7  8  1  0
  7  9  2  0
  9 10  1  0
 10 11  2  0
 10 12  1  0
 12 13  1  0
 13 14  2  0
 14 15  1  0
 15 16  2  0
 16 17  1  0
 17 18  2  0
  9 19  1  0
 19 20  1  0
 20 21  2  0
 21  2  1  0
 20  6  1  0
 18 13  1  0
M  END
>  <Binding energies>  (42) 
[-6.19]

>  <Ligand effiencies>  (42) 
[-0.2579166666666667]

>  <Interactions>  (42) 
["V-A:ARG:545:CZ:4926, V-B:TYR:539:CE2:9848, V-A:LEU:475:CD2:4259, V-A:GLU:543:CD:4908, H-A:GLU:543:OE1:4909, V-A:ILE:369:CG2:3237, H-A:GLU:543:OE2:4910, V-A:ASP:366:CG:3213, V-A:ASP:366:CB:3212, H-A:ASP:366:OD2:3215, H-A:ASP:366:OD1:3214, V-B:TYR:539:CZ:9849, V-A:PRO:540:CA:4883, V-A:PRO:540:CB:4885, V-A:PRO:540:N:4884, V-A:LEU:363:CD1:3189, V-A:PRO:540:CG:4886, V-A:TYR:539:C:4867, V-A:PRO:540:CD:4887"]

$$$$
4ag_Grossjean_2025
     RDKit          3D

 22 24  0  0  0  0  0  0  0  0999 V2000
  131.9980  120.3910   60.3770 C   0  0  0  0  0  0  0  0  0  0  0  0
  131.7160  121.7780   60.9250 C   0  0  0  0  0  0  0  0  0  0  0  0
  132.7300  122.5400   61.5030 C   0  0  0  0  0  0  0  0  0  0  0  0
  132.4490  123.8170   62.0010 C   0  0  0  0  0  0  0  0  0  0  0  0
  133.5880  124.6110   62.6220 C   0  0  0  0  0  0  0  0  0  0  0  0
  131.1140  124.2910   61.8940 C   0  0  0  0  0  0  0  0  0  0  0  0
  130.4880  125.5240   62.2910 C   0  0  0  0  0  0  0  0  0  0  0  0
  131.1850  126.5360   62.9020 N   0  0  0  0  0  0  0  0  0  0  0  0
  129.1180  125.5860   61.9980 C   0  0  0  0  0  0  0  0  0  0  0  0
  128.1840  126.6840   62.2510 C   0  0  0  0  0  0  0  0  0  0  0  0
  126.9640  126.5050   62.2340 O   0  0  0  0  0  0  0  0  0  0  0  0
  128.7370  127.8930   62.4830 N   0  0  0  0  0  0  0  0  0  0  0  0
  127.9990  129.1190   62.7840 C   0  0  0  0  0  0  0  0  0  0  0  0
  127.0790  129.0060   63.9940 C   0  0  0  0  0  0  0  0  0  0  0  0
  127.6220  128.7850   65.2630 C   0  0  0  0  0  0  0  0  0  0  0  0
  126.7850  128.7070   66.3730 C   0  0  0  0  0  0  0  0  0  0  0  0
  125.4100  128.8610   66.2130 C   0  0  0  0  0  0  0  0  0  0  0  0
  124.8630  129.0960   64.9540 C   0  0  0  0  0  0  0  0  0  0  0  0
  125.6990  129.1760   63.8440 C   0  0  0  0  0  0  0  0  0  0  0  0
  128.5650  124.1110   61.2070 S   0  0  0  0  0  0  0  0  0  0  0  0
  130.1680  123.4150   61.2810 C   0  0  0  0  0  0  0  0  0  0  0  0
  130.4340  122.1980   60.8040 N   0  0  0  0  0  0  0  0  0  0  0  0
  1  2  1  0
  2  3  2  0
  3  4  1  0
  4  5  1  0
  4  6  2  0
  6  7  1  0
  7  8  1  0
  7  9  2  0
  9 10  1  0
 10 11  2  0
 10 12  1  0
 12 13  1  0
 13 14  1  0
 14 15  2  0
 15 16  1  0
 16 17  2  0
 17 18  1  0
 18 19  2  0
  9 20  1  0
 20 21  1  0
 21 22  2  0
 22  2  1  0
 21  6  1  0
 19 14  1  0
M  END
>  <Binding energies>  (43) 
[-6.23]

>  <Ligand effiencies>  (43) 
[-0.2492]

>  <Interactions>  (43) 
["V-A:ARG:545:CZ:4926, V-B:GLU:543:CD:9880, V-B:TYR:539:CE2:9848, V-A:LEU:475:CD2:4259, H-A:TYR:484:OH:4348, V-B:TYR:539:CD2:9846, V-B:HIS:456:CE1:9042, V-B:ARG:545:CZ:9898, V-A:GLU:543:CD:4908, V-B:TYR:484:CZ:9319, H-A:GLU:543:OE1:4909, H-A:GLU:543:OE2:4910, H-A:ASP:366:OD1:3214, H-B:ARG:545:NH2:9900, V-B:ARG:545:CG:9894, V-B:ARG:545:CD:9895"]

$$$$
4ah_Grossjean_2025
     RDKit          3D

 28 30  0  0  0  0  0  0  0  0999 V2000
  131.0210  131.1300   61.1330 C   0  0  0  0  0  0  0  0  0  0  0  0
  130.1360  132.0640   61.7410 O   0  0  0  0  0  0  0  0  0  0  0  0
  128.9140  131.6260   62.2220 C   0  0  0  0  0  0  0  0  0  0  0  0
  128.7410  130.4530   62.9730 C   0  0  0  0  0  0  0  0  0  0  0  0
  127.4770  130.0730   63.4250 C   0  0  0  0  0  0  0  0  0  0  0  0
  127.3160  128.8200   64.2790 C   0  0  0  0  0  0  0  0  0  0  0  0
  128.0290  127.6560   63.7510 N   0  0  0  0  0  0  0  0  0  0  0  0
  127.9110  127.1700   62.4980 C   0  0  0  0  0  0  0  0  0  0  0  0
  127.1400  127.6520   61.6670 O   0  0  0  0  0  0  0  0  0  0  0  0
  128.7270  125.9970   62.1870 C   0  0  0  0  0  0  0  0  0  0  0  0
  127.9580  124.4880   61.6920 S   0  0  0  0  0  0  0  0  0  0  0  0
  129.5080  123.6840   61.5770 C   0  0  0  0  0  0  0  0  0  0  0  0
  129.6150  122.4070   61.2100 N   0  0  0  0  0  0  0  0  0  0  0  0
  130.8730  121.9050   61.1590 C   0  0  0  0  0  0  0  0  0  0  0  0
  130.9720  120.4490   60.7420 C   0  0  0  0  0  0  0  0  0  0  0  0
  132.0140  122.6440   61.4620 C   0  0  0  0  0  0  0  0  0  0  0  0
  131.8990  123.9840   61.8490 C   0  0  0  0  0  0  0  0  0  0  0  0
  133.1740  124.7490   62.1710 C   0  0  0  0  0  0  0  0  0  0  0  0
  130.5950  124.5450   61.9160 C   0  0  0  0  0  0  0  0  0  0  0  0
  130.1200  125.8550   62.2720 C   0  0  0  0  0  0  0  0  0  0  0  0
  130.9670  126.8660   62.6490 N   0  0  0  0  0  0  0  0  0  0  0  0
  126.3750  130.8840   63.1500 C   0  0  0  0  0  0  0  0  0  0  0  0
  126.5170  132.0590   62.3960 C   0  0  0  0  0  0  0  0  0  0  0  0
  125.4670  132.9010   62.0740 O   0  0  0  0  0  0  0  0  0  0  0  0
  124.1370  132.3920   62.0820 C   0  0  0  0  0  0  0  0  0  0  0  0
  127.7910  132.4160   61.9330 C   0  0  0  0  0  0  0  0  0  0  0  0
  127.9470  133.5740   61.2100 O   0  0  0  0  0  0  0  0  0  0  0  0
  127.2770  133.5690   59.9560 C   0  0  0  0  0  0  0  0  0  0  0  0
  1  2  1  0
  2  3  1  0
  3  4  2  0
  4  5  1  0
  5  6  1  0
  6  7  1  0
  7  8  1  0
  8  9  2  0
  8 10  1  0
 10 11  1  0
 11 12  1  0
 12 13  2  0
 13 14  1  0
 14 15  1  0
 14 16  2  0
 16 17  1  0
 17 18  1  0
 17 19  2  0
 19 20  1  0
 20 21  1  0
  5 22  2  0
 22 23  1  0
 23 24  1  0
 24 25  1  0
 23 26  2  0
 26 27  1  0
 27 28  1  0
 26  3  1  0
 20 10  2  0
 19 12  1  0
M  END
>  <Binding energies>  (44) 
[-5.64]

>  <Ligand effiencies>  (44) 
[-0.18193548387096772]

>  <Interactions>  (44) 
["V-A:ARG:545:CZ:4926, V-B:GLU:543:CD:9880, V-B:TYR:539:CE2:9848, V-A:LEU:475:CD2:4259, V-B:TYR:539:CD2:9846, V-A:GLU:543:CD:4908, V-B:ILE:369:CD1:8211, V-A:GLU:543:CG:4907, V-B:LEU:475:CD2:9231, V-B:GLY:454:CA:9021, H-A:GLU:543:OE1:4909, H-A:GLU:543:OE2:4910, H-A:ASP:366:OD1:3214, H-B:GLU:543:OE2:9882, H-B:GLU:543:OE1:9881, H-A:ALA:541:N:4891, V-A:ALA:541:CB:4892, V-A:TYR:539:CD1:4873, V-A:TYR:539:CE1:4875"]

$$$$
4ai_Grossjean_2025
     RDKit          3D

 20 22  0  0  0  0  0  0  0  0999 V2000
  123.9280  132.4680   62.0220 C   0  0  0  0  0  0  0  0  0  0  0  0
  124.5790  131.1070   61.8570 C   0  0  0  0  0  0  0  0  0  0  0  0
  125.0590  130.4030   62.9600 C   0  0  0  0  0  0  0  0  0  0  0  0
  125.6510  129.1470   62.7850 C   0  0  0  0  0  0  0  0  0  0  0  0
  126.1560  128.4160   64.0190 C   0  0  0  0  0  0  0  0  0  0  0  0
  125.7380  128.6330   61.4620 C   0  0  0  0  0  0  0  0  0  0  0  0
  126.2710  127.4080   60.9320 C   0  0  0  0  0  0  0  0  0  0  0  0
  126.8440  126.4510   61.7320 N   0  0  0  0  0  0  0  0  0  0  0  0
  126.1440  127.2850   59.5390 C   0  0  0  0  0  0  0  0  0  0  0  0
  126.5820  126.1860   58.6770 C   0  0  0  0  0  0  0  0  0  0  0  0
  127.7290  126.1570   58.2280 O   0  0  0  0  0  0  0  0  0  0  0  0
  125.6510  125.2270   58.4400 N   0  0  0  0  0  0  0  0  0  0  0  0
  125.7990  124.0780   57.6740 C   0  0  0  0  0  0  0  0  0  0  0  0
  124.7330  123.4510   57.0290 C   0  0  0  0  0  0  0  0  0  0  0  0
  125.2880  122.3650   56.3920 C   0  0  0  0  0  0  0  0  0  0  0  0
  126.6190  122.3400   56.6390 O   0  0  0  0  0  0  0  0  0  0  0  0
  126.9320  123.4310   57.4520 N   0  0  0  0  0  0  0  0  0  0  0  0
  125.3760  128.7130   58.8420 S   0  0  0  0  0  0  0  0  0  0  0  0
  125.2110  129.4530   60.4190 C   0  0  0  0  0  0  0  0  0  0  0  0
  124.6470  130.6510   60.5820 N   0  0  0  0  0  0  0  0  0  0  0  0
  1  2  1  0
  2  3  2  0
  3  4  1  0
  4  5  1  0
  4  6  2  0
  6  7  1  0
  7  8  1  0
  7  9  2  0
  9 10  1  0
 10 11  2  0
 10 12  1  0
 12 13  1  0
 13 14  1  0
 14 15  2  0
 15 16  1  0
 16 17  1  0
  9 18  1  0
 18 19  1  0
 19 20  2  0
 20  2  1  0
 19  6  1  0
 17 13  2  0
M  END
>  <Binding energies>  (45) 
[-6.07]

>  <Ligand effiencies>  (45) 
[-0.2639130434782609]

>  <Interactions>  (45) 
["V-B:PRO:540:CD:9859, V-B:LEU:363:CD1:8161, V-B:ILE:538:CD1:9837, V-B:PRO:540:CB:9857, V-B:PRO:540:N:9856, V-B:GLU:543:CD:9880, V-B:ILE:538:CG2:9835, V-B:ASP:366:CG:8185, V-B:ARG:545:CZ:9898, V-B:ILE:369:CD1:8211, V-B:LEU:475:CD2:9231, V-B:GLY:454:CA:9021, H-B:GLU:543:OE2:9882, H-B:GLU:543:OE1:9881, V-B:TYR:531:CE2:9765, H-B:ASP:366:OD2:8187, V-B:TYR:531:CZ:9766, V-B:ASP:366:CB:8184, H-B:TYR:531:OH:9767, V-B:ILE:538:CA:9832, H-B:TYR:539:N:9842"]

$$$$
4aj_Grossjean_2025
     RDKit          3D

 20 22  0  0  0  0  0  0  0  0999 V2000
  133.6120  121.4820   61.0030 C   0  0  0  0  0  0  0  0  0  0  0  0
  133.1090  122.9120   60.9170 C   0  0  0  0  0  0  0  0  0  0  0  0
  132.8800  123.6610   62.0690 C   0  0  0  0  0  0  0  0  0  0  0  0
  132.4110  124.9760   61.9670 C   0  0  0  0  0  0  0  0  0  0  0  0
  132.1750  125.7520   63.2530 C   0  0  0  0  0  0  0  0  0  0  0  0
  132.1860  125.5010   60.6660 C   0  0  0  0  0  0  0  0  0  0  0  0
  131.7170  126.7800   60.2050 C   0  0  0  0  0  0  0  0  0  0  0  0
  131.3790  127.7910   61.0670 N   0  0  0  0  0  0  0  0  0  0  0  0
  131.6470  126.8900   58.8070 C   0  0  0  0  0  0  0  0  0  0  0  0
  131.2080  128.0340   58.0050 C   0  0  0  0  0  0  0  0  0  0  0  0
  130.2010  127.9570   57.2970 O   0  0  0  0  0  0  0  0  0  0  0  0
  131.9700  129.1500   58.1160 N   0  0  0  0  0  0  0  0  0  0  0  0
  131.7670  130.3650   57.4760 C   0  0  0  0  0  0  0  0  0  0  0  0
  130.6220  130.9570   57.2110 N   0  0  0  0  0  0  0  0  0  0  0  0
  130.8030  132.1080   56.5940 C   0  0  0  0  0  0  0  0  0  0  0  0
  132.1240  132.4720   56.3440 C   0  0  0  0  0  0  0  0  0  0  0  0
  133.1770  131.2310   56.9570 S   0  0  0  0  0  0  0  0  0  0  0  0
  132.1490  125.3910   58.0230 S   0  0  0  0  0  0  0  0  0  0  0  0
  132.4620  124.6320   59.5670 C   0  0  0  0  0  0  0  0  0  0  0  0
  132.9080  123.3790   59.6610 N   0  0  0  0  0  0  0  0  0  0  0  0
  1  2  1  0
  2  3  2  0
  3  4  1  0
  4  5  1  0
  4  6  2  0
  6  7  1  0
  7  8  1  0
  7  9  2  0
  9 10  1  0
 10 11  2  0
 10 12  1  0
 12 13  1  0
 13 14  2  0
 14 15  1  0
 15 16  2  0
 16 17  1  0
  9 18  1  0
 18 19  1  0
 19 20  2  0
 20  2  1  0
 19  6  1  0
 17 13  1  0
M  END
>  <Binding energies>  (46) 
[-5.96]

>  <Ligand effiencies>  (46) 
[-0.2591304347826087]

>  <Interactions>  (46) 
["V-A:ARG:545:CZ:4926, V-A:ILE:369:CD1:3239, V-B:TYR:539:CE2:9848, V-A:LEU:475:CD2:4259, V-A:GLU:543:CD:4908, H-A:GLU:543:OE1:4909, V-A:ILE:369:CG2:3237, H-A:GLU:543:OE2:4910, V-A:ASP:366:CG:3213, V-A:ASP:366:CB:3212, H-A:ASP:366:OD1:3214, V-A:PRO:540:CA:4883, V-A:PRO:540:CB:4885, V-A:PRO:540:N:4884, V-A:LEU:363:CD1:3189, V-A:PRO:540:CG:4886, V-A:TYR:539:C:4867, V-A:PRO:540:CD:4887"]

$$$$
4ak_Grossjean_2025
     RDKit          3D

 25 26  0  0  0  0  0  0  0  0999 V2000
  132.9020  131.2460   61.8840 C   0  0  0  0  0  0  0  0  0  0  0  0
  131.6200  131.7510   61.5460 O   0  0  0  0  0  0  0  0  0  0  0  0
  130.9260  130.9490   60.5990 C   0  0  0  0  0  0  0  0  0  0  0  0
  129.7820  131.7620   59.9800 C   0  0  0  0  0  0  0  0  0  0  0  0
  129.4820  132.8680   60.8200 O   0  0  0  0  0  0  0  0  0  0  0  0
  128.1990  132.7970   61.4270 C   0  0  0  0  0  0  0  0  0  0  0  0
  127.5940  131.4110   61.1710 C   0  0  0  0  0  0  0  0  0  0  0  0
  127.3190  130.7820   62.4160 O   0  0  0  0  0  0  0  0  0  0  0  0
  128.3930  129.9930   62.9100 C   0  0  0  0  0  0  0  0  0  0  0  0
  127.8660  128.5970   63.2920 C   0  0  0  0  0  0  0  0  0  0  0  0
  128.7520  127.5060   62.8890 N   0  0  0  0  0  0  0  0  0  0  0  0
  128.3700  126.3940   62.2270 C   0  0  0  0  0  0  0  0  0  0  0  0
  127.2060  126.2040   61.8730 O   0  0  0  0  0  0  0  0  0  0  0  0
  129.4240  125.4220   61.9420 C   0  0  0  0  0  0  0  0  0  0  0  0
  129.0440  123.9200   61.1000 S   0  0  0  0  0  0  0  0  0  0  0  0
  130.7160  123.4100   61.1590 C   0  0  0  0  0  0  0  0  0  0  0  0
  131.1170  122.2460   60.6460 N   0  0  0  0  0  0  0  0  0  0  0  0
  132.4400  121.9700   60.7600 C   0  0  0  0  0  0  0  0  0  0  0  0
  132.8770  120.6420   60.1700 C   0  0  0  0  0  0  0  0  0  0  0  0
  133.3600  122.8230   61.3670 C   0  0  0  0  0  0  0  0  0  0  0  0
  132.9360  124.0440   61.9030 C   0  0  0  0  0  0  0  0  0  0  0  0
  133.9760  124.9380   62.5590 C   0  0  0  0  0  0  0  0  0  0  0  0
  131.5560  124.3670   61.8040 C   0  0  0  0  0  0  0  0  0  0  0  0
  130.7940  125.5080   62.2360 C   0  0  0  0  0  0  0  0  0  0  0  0
  131.3700  126.5740   62.8780 N   0  0  0  0  0  0  0  0  0  0  0  0
  1  2  1  0
  2  3  1  0
  3  4  1  0
  4  5  1  0
  5  6  1  0
  6  7  1  0
  7  8  1  0
  8  9  1  0
  9 10  1  0
 10 11  1  0
 11 12  1  0
 12 13  2  0
 12 14  1  0
 14 15  1  0
 15 16  1  0
 16 17  2  0
 17 18  1  0
 18 19  1  0
 18 20  2  0
 20 21  1  0
 21 22  1  0
 21 23  2  0
 23 24  1  0
 24 25  1  0
 24 14  2  0
 23 16  1  0
M  END
>  <Binding energies>  (47) 
[-4.93]

>  <Ligand effiencies>  (47) 
[-0.17607142857142857]

>  <Interactions>  (47) 
["V-A:ARG:545:CZ:4926, V-B:GLU:543:CD:9880, V-A:ILE:369:CD1:3239, V-B:TYR:539:CE2:9848, V-A:SER:385:CB:3409, V-A:LEU:475:CD2:4259, V-B:TYR:539:CD2:9846, V-A:GLU:543:CD:4908, V-A:GLU:543:CG:4907, H-A:GLU:543:OE1:4909, V-A:ILE:369:CG2:3237, H-A:GLU:543:OE2:4910, H-A:ASP:366:OD1:3214, V-A:GLY:453:CA:4044, V-A:GLY:453:C:4042, H-B:GLU:543:OE2:9882, H-B:ARG:545:NH2:9900, V-A:PRO:540:CA:4883, H-A:ALA:541:N:4891, V-A:ASN:362:CB:3176, V-A:ALA:541:CB:4892, V-A:ASN:362:CG:3177"]

$$$$
4al_Grossjean_2025
     RDKit          3D

 16 17  0  0  0  0  0  0  0  0999 V2000
  126.1670  123.5130   59.5080 C   0  0  0  0  0  0  0  0  0  0  0  0
  125.4040  123.5270   60.7050 O   0  0  0  0  0  0  0  0  0  0  0  0
  125.9470  123.1260   61.8830 C   0  0  0  0  0  0  0  0  0  0  0  0
  125.2860  122.7630   62.8590 O   0  0  0  0  0  0  0  0  0  0  0  0
  127.4250  123.1700   61.8800 C   0  0  0  0  0  0  0  0  0  0  0  0
  128.3520  121.6670   61.8830 S   0  0  0  0  0  0  0  0  0  0  0  0
  129.8610  122.5490   61.8770 C   0  0  0  0  0  0  0  0  0  0  0  0
  131.0410  121.9280   61.8770 N   0  0  0  0  0  0  0  0  0  0  0  0
  132.1360  122.7280   61.8720 C   0  0  0  0  0  0  0  0  0  0  0  0
  133.4680  122.0000   61.8720 C   0  0  0  0  0  0  0  0  0  0  0  0
  132.0780  124.1200   61.8680 C   0  0  0  0  0  0  0  0  0  0  0  0
  130.8390  124.7690   61.8680 C   0  0  0  0  0  0  0  0  0  0  0  0
  130.8270  126.2890   61.8630 C   0  0  0  0  0  0  0  0  0  0  0  0
  129.6690  123.9630   61.8730 C   0  0  0  0  0  0  0  0  0  0  0  0
  128.2690  124.2870   61.8750 C   0  0  0  0  0  0  0  0  0  0  0  0
  127.8100  125.5790   61.8710 N   0  0  0  0  0  0  0  0  0  0  0  0
  1  2  1  0
  2  3  1  0
  3  4  2  0
  3  5  1  0
  5  6  1  0
  6  7  1  0
  7  8  2  0
  8  9  1  0
  9 10  1  0
  9 11  2  0
 11 12  1  0
 12 13  1  0
 12 14  2  0
 14 15  1  0
 15 16  1  0
 15  5  2  0
 14  7  1  0
M  END
>  <Binding energies>  (48) 
[-4.98]

>  <Ligand effiencies>  (48) 
[-0.27666666666666667]

>  <Interactions>  (48) 
["V-B:PRO:540:CB:9857, V-B:PRO:540:CA:9855, V-B:PRO:540:N:9856, V-B:GLU:543:CD:9880, V-A:ILE:369:CD1:3239, V-B:PRO:540:C:9853, H-B:ALA:541:N:9863, V-A:LEU:475:CD2:4259, H-A:TYR:484:OH:4348, V-B:ALA:541:CA:9862, V-B:ALA:541:CB:9864, V-A:GLY:454:CA:4049, H-B:GLU:543:OE2:9882, H-B:GLU:543:OE1:9881, H-B:ASN:362:ND2:8151"]

$$$$
4bc_Grossjean_2025
     RDKit          3D

 26 28  0  0  0  0  0  0  0  0999 V2000
  123.8420  132.2620   62.3560 C   0  0  0  0  0  0  0  0  0  0  0  0
  123.8670  131.2630   63.3700 O   0  0  0  0  0  0  0  0  0  0  0  0
  124.7350  130.1950   63.2420 C   0  0  0  0  0  0  0  0  0  0  0  0
  125.0810  129.8270   61.9430 C   0  0  0  0  0  0  0  0  0  0  0  0
  125.9490  128.7620   61.7140 C   0  0  0  0  0  0  0  0  0  0  0  0
  126.4920  128.0550   62.7890 C   0  0  0  0  0  0  0  0  0  0  0  0
  127.3470  126.9870   62.4610 N   0  0  0  0  0  0  0  0  0  0  0  0
  128.6040  127.0190   61.9550 C   0  0  0  0  0  0  0  0  0  0  0  0
  129.2000  128.0560   61.6590 O   0  0  0  0  0  0  0  0  0  0  0  0
  129.2390  125.7110   61.7630 C   0  0  0  0  0  0  0  0  0  0  0  0
  128.2520  124.2820   61.4640 S   0  0  0  0  0  0  0  0  0  0  0  0
  129.6710  123.2670   61.3670 C   0  0  0  0  0  0  0  0  0  0  0  0
  129.5750  121.9580   61.1340 N   0  0  0  0  0  0  0  0  0  0  0  0
  130.7430  121.2760   61.0830 C   0  0  0  0  0  0  0  0  0  0  0  0
  130.6120  119.7890   60.8120 C   0  0  0  0  0  0  0  0  0  0  0  0
  131.9930  121.8660   61.2570 C   0  0  0  0  0  0  0  0  0  0  0  0
  132.1000  123.2440   61.5020 C   0  0  0  0  0  0  0  0  0  0  0  0
  133.4970  123.8470   61.6900 C   0  0  0  0  0  0  0  0  0  0  0  0
  134.4520  122.9230   61.8090 F   0  0  0  0  0  0  0  0  0  0  0  0
  133.8030  124.6070   60.6390 F   0  0  0  0  0  0  0  0  0  0  0  0
  133.5220  124.5920   62.7950 F   0  0  0  0  0  0  0  0  0  0  0  0
  130.8870  123.9930   61.5610 C   0  0  0  0  0  0  0  0  0  0  0  0
  130.6050  125.3910   61.7830 C   0  0  0  0  0  0  0  0  0  0  0  0
  131.5920  126.3200   61.9940 N   0  0  0  0  0  0  0  0  0  0  0  0
  126.1380  128.4110   64.0990 C   0  0  0  0  0  0  0  0  0  0  0  0
  125.2700  129.4750   64.3230 C   0  0  0  0  0  0  0  0  0  0  0  0
  1  2  1  0
  2  3  1  0
  3  4  2  0
  4  5  1  0
  5  6  2  0
  6  7  1  0
  7  8  1  0
  8  9  2  0
  8 10  1  0
 10 11  1  0
 11 12  1  0
 12 13  2  0
 13 14  1  0
 14 15  1  0
 14 16  2  0
 16 17  1  0
 17 18  1  0
 18 19  1  0
 18 20  1  0
 18 21  1  0
 17 22  2  0
 22 23  1  0
 23 24  1  0
  6 25  1  0
 25 26  2  0
 26  3  1  0
 23 10  2  0
 22 12  1  0
M  END
>  <Binding energies>  (49) 
[-5.5]

>  <Ligand effiencies>  (49) 
[-0.1896551724137931]

>  <Interactions>  (49) 
["V-A:ARG:545:CZ:4926, V-B:GLU:543:CD:9880, V-A:ILE:369:CD1:3239, V-B:ASP:366:CG:8185, V-A:LEU:475:CD2:4259, V-B:TYR:539:CD2:9846, V-B:ARG:545:CZ:9898, H-B:TYR:484:OH:9320, V-A:GLU:543:CD:4908, V-B:ILE:369:CD1:8211, H-B:GLY:454:N:9022, V-B:LEU:475:CD2:9231, V-B:GLY:454:CA:9021, H-A:GLU:543:OE1:4909, V-A:GLY:454:CA:4049, H-A:GLU:543:OE2:4910, V-A:ASP:366:CG:3213, V-A:ASP:366:CB:3212, H-A:ASP:366:OD2:3215, H-A:ASP:366:OD1:3214, V-A:GLY:453:CA:4044, V-A:GLY:453:C:4042, H-B:GLU:543:OE2:9882, H-B:GLU:543:OE1:9881"]

$$$$
4bf_Grossjean_2025
     RDKit          3D

 24 26  0  0  0  0  0  0  0  0999 V2000
  130.2770  119.9600   61.1930 C   0  0  0  0  0  0  0  0  0  0  0  0
  130.4360  121.4570   61.3930 C   0  0  0  0  0  0  0  0  0  0  0  0
  131.6970  122.0350   61.5070 C   0  0  0  0  0  0  0  0  0  0  0  0
  131.8300  123.4190   61.6960 C   0  0  0  0  0  0  0  0  0  0  0  0
  133.2390  124.0100   61.8190 C   0  0  0  0  0  0  0  0  0  0  0  0
  133.4180  124.7010   62.9480 F   0  0  0  0  0  0  0  0  0  0  0  0
  134.1430  123.0310   61.8030 F   0  0  0  0  0  0  0  0  0  0  0  0
  133.4700  124.8410   60.8020 F   0  0  0  0  0  0  0  0  0  0  0  0
  130.6290  124.1870   61.7620 C   0  0  0  0  0  0  0  0  0  0  0  0
  130.3730  125.5940   61.9440 C   0  0  0  0  0  0  0  0  0  0  0  0
  131.3790  126.5160   62.0930 N   0  0  0  0  0  0  0  0  0  0  0  0
  129.0110  125.9350   61.9490 C   0  0  0  0  0  0  0  0  0  0  0  0
  128.3990  127.2540   62.1400 C   0  0  0  0  0  0  0  0  0  0  0  0
  129.0440  128.2810   61.9270 O   0  0  0  0  0  0  0  0  0  0  0  0
  127.1040  127.2400   62.5410 N   0  0  0  0  0  0  0  0  0  0  0  0
  126.2520  128.3160   62.8570 C   0  0  0  0  0  0  0  0  0  0  0  0
  125.7180  129.2310   61.9330 C   0  0  0  0  0  0  0  0  0  0  0  0
  124.8950  130.2660   62.3820 C   0  0  0  0  0  0  0  0  0  0  0  0
  124.6300  130.3640   63.7490 C   0  0  0  0  0  0  0  0  0  0  0  0
  125.1380  129.4980   64.6610 N   0  0  0  0  0  0  0  0  0  0  0  0
  125.9370  128.4970   64.2090 C   0  0  0  0  0  0  0  0  0  0  0  0
  127.9980  124.5090   61.7330 S   0  0  0  0  0  0  0  0  0  0  0  0
  129.4000  123.4710   61.6300 C   0  0  0  0  0  0  0  0  0  0  0  0
  129.2790  122.1560   61.4510 N   0  0  0  0  0  0  0  0  0  0  0  0
  1  2  1  0
  2  3  2  0
  3  4  1  0
  4  5  1  0
  5  6  1  0
  5  7  1  0
  5  8  1  0
  4  9  2  0
  9 10  1  0
 10 11  1  0
 10 12  2  0
 12 13  1  0
 13 14  2  0
 13 15  1  0
 15 16  1  0
 16 17  2  0
 17 18  1  0
 18 19  2  0
 19 20  1  0
 20 21  2  0
 12 22  1  0
 22 23  1  0
 23 24  2  0
 24  2  1  0
 23  9  1  0
 21 16  1  0
M  END
>  <Binding energies>  (50) 
[-5.11]

>  <Ligand effiencies>  (50) 
[-0.18925925925925927]

>  <Interactions>  (50) 
["V-A:ARG:545:CZ:4926, V-B:GLU:543:CD:9880, V-A:ILE:369:CD1:3239, V-A:LEU:475:CD2:4259, V-B:TYR:539:CD2:9846, V-B:ARG:545:CZ:9898, H-B:TYR:484:OH:9320, V-A:GLU:543:CD:4908, V-B:GLY:454:CA:9021, H-A:GLU:543:OE1:4909, V-A:GLY:454:CA:4049, H-A:GLU:543:OE2:4910, V-A:ASP:366:CG:3213, H-A:ASP:366:OD2:3215, H-A:ASP:366:OD1:3214, V-A:GLY:453:C:4042, H-B:GLU:543:OE2:9882, H-B:GLU:543:OE1:9881"]

$$$$
4bh_Grossjean_2025
     RDKit          3D

 31 33  0  0  0  0  0  0  0  0999 V2000
  124.1520  132.6740   62.2450 C   0  0  0  0  0  0  0  0  0  0  0  0
  125.4350  132.7700   61.6360 O   0  0  0  0  0  0  0  0  0  0  0  0
  126.4760  131.9980   62.1200 C   0  0  0  0  0  0  0  0  0  0  0  0
  126.3020  130.8690   62.9360 C   0  0  0  0  0  0  0  0  0  0  0  0
  127.3990  130.1380   63.3910 C   0  0  0  0  0  0  0  0  0  0  0  0
  127.1880  128.8890   64.2380 C   0  0  0  0  0  0  0  0  0  0  0  0
  127.8780  127.7070   63.7180 N   0  0  0  0  0  0  0  0  0  0  0  0
  127.7770  127.2340   62.4590 C   0  0  0  0  0  0  0  0  0  0  0  0
  127.0400  127.7470   61.6150 O   0  0  0  0  0  0  0  0  0  0  0  0
  128.5640  126.0370   62.1570 C   0  0  0  0  0  0  0  0  0  0  0  0
  127.7560  124.5530   61.6610 S   0  0  0  0  0  0  0  0  0  0  0  0
  129.2820  123.7050   61.5630 C   0  0  0  0  0  0  0  0  0  0  0  0
  129.3430  122.4250   61.2000 N   0  0  0  0  0  0  0  0  0  0  0  0
  130.5800  121.8780   61.1580 C   0  0  0  0  0  0  0  0  0  0  0  0
  130.6270  120.4180   60.7450 C   0  0  0  0  0  0  0  0  0  0  0  0
  131.7460  122.5740   61.4650 C   0  0  0  0  0  0  0  0  0  0  0  0
  131.6880  123.9230   61.8500 C   0  0  0  0  0  0  0  0  0  0  0  0
  132.9970  124.6490   62.1750 C   0  0  0  0  0  0  0  0  0  0  0  0
  133.0910  125.0100   63.4570 F   0  0  0  0  0  0  0  0  0  0  0  0
  134.0320  123.8540   61.9090 F   0  0  0  0  0  0  0  0  0  0  0  0
  133.0930  125.7570   61.4400 F   0  0  0  0  0  0  0  0  0  0  0  0
  130.3980  124.5300   61.9070 C   0  0  0  0  0  0  0  0  0  0  0  0
  129.9520  125.8560   62.2560 C   0  0  0  0  0  0  0  0  0  0  0  0
  130.8120  126.8520   62.6410 N   0  0  0  0  0  0  0  0  0  0  0  0
  128.6860  130.5180   63.0050 C   0  0  0  0  0  0  0  0  0  0  0  0
  128.8910  131.6470   62.1960 C   0  0  0  0  0  0  0  0  0  0  0  0
  130.1370  132.0880   61.7880 O   0  0  0  0  0  0  0  0  0  0  0  0
  131.0090  131.1880   61.1130 C   0  0  0  0  0  0  0  0  0  0  0  0
  127.7770  132.3820   61.7650 C   0  0  0  0  0  0  0  0  0  0  0  0
  127.9620  133.4790   60.9570 O   0  0  0  0  0  0  0  0  0  0  0  0
  127.6150  133.2600   59.5970 C   0  0  0  0  0  0  0  0  0  0  0  0
  1  2  1  0
  2  3  1  0
  3  4  2  0
  4  5  1  0
  5  6  1  0
  6  7  1  0
  7  8  1  0
  8  9  2  0
  8 10  1  0
 10 11  1  0
 11 12  1  0
 12 13  2  0
 13 14  1  0
 14 15  1  0
 14 16  2  0
 16 17  1  0
 17 18  1  0
 18 19  1  0
 18 20  1  0
 18 21  1  0
 17 22  2  0
 22 23  1  0
 23 24  1  0
  5 25  2  0
 25 26  1  0
 26 27  1  0
 27 28  1  0
 26 29  2  0
 29 30  1  0
 30 31  1  0
 29  3  1  0
 23 10  2  0
 22 12  1  0
M  END
>  <Binding energies>  (51) 
[-5.34]

>  <Ligand effiencies>  (51) 
[-0.15705882352941175]

>  <Interactions>  (51) 
["V-A:ARG:545:CZ:4926, V-B:GLU:543:CD:9880, V-A:ILE:369:CD1:3239, V-B:TYR:539:CE2:9848, V-A:LEU:475:CD2:4259, V-B:TYR:539:CD2:9846, V-A:GLU:543:CD:4908, V-B:ILE:369:CD1:8211, V-A:GLU:543:CG:4907, V-B:LEU:475:CD2:9231, V-B:GLY:454:CA:9021, H-A:GLU:543:OE1:4909, V-A:GLY:454:CA:4049, H-A:GLU:543:OE2:4910, V-A:ASP:366:CG:3213, H-A:ASP:366:OD1:3214, V-A:GLY:453:CA:4044, V-A:GLY:453:C:4042, H-B:GLU:543:OE2:9882, H-B:GLU:543:OE1:9881, H-A:ALA:541:N:4891, V-A:ALA:541:CB:4892, V-A:TYR:539:CD1:4873, V-A:TYR:539:C:4867, V-A:TYR:539:CE1:4875"]

$$$$
4bi_Grossjean_2025
     RDKit          3D

 23 25  0  0  0  0  0  0  0  0999 V2000
  132.4790  124.7750   59.7470 C   0  0  0  0  0  0  0  0  0  0  0  0
  131.0360  124.9740   60.1760 C   0  0  0  0  0  0  0  0  0  0  0  0
  130.0820  123.9830   59.9640 C   0  0  0  0  0  0  0  0  0  0  0  0
  128.7510  124.1790   60.3710 C   0  0  0  0  0  0  0  0  0  0  0  0
  127.7380  123.0560   60.1240 C   0  0  0  0  0  0  0  0  0  0  0  0
  127.2270  122.5570   61.2510 F   0  0  0  0  0  0  0  0  0  0  0  0
  126.7220  123.5170   59.3950 F   0  0  0  0  0  0  0  0  0  0  0  0
  128.3270  122.0510   59.4740 F   0  0  0  0  0  0  0  0  0  0  0  0
  128.4370  125.4230   60.9940 C   0  0  0  0  0  0  0  0  0  0  0  0
  127.2130  125.9710   61.5260 C   0  0  0  0  0  0  0  0  0  0  0  0
  126.0220  125.2920   61.4980 N   0  0  0  0  0  0  0  0  0  0  0  0
  127.3520  127.2560   62.0780 C   0  0  0  0  0  0  0  0  0  0  0  0
  126.3240  128.1050   62.6860 C   0  0  0  0  0  0  0  0  0  0  0  0
  125.5410  128.7470   61.9830 O   0  0  0  0  0  0  0  0  0  0  0  0
  126.2980  128.1070   64.0420 N   0  0  0  0  0  0  0  0  0  0  0  0
  125.4290  128.8060   64.8700 C   0  0  0  0  0  0  0  0  0  0  0  0
  125.4020  128.6460   66.2550 C   0  0  0  0  0  0  0  0  0  0  0  0
  124.4180  129.5010   66.6960 C   0  0  0  0  0  0  0  0  0  0  0  0
  123.8810  130.1430   65.6310 O   0  0  0  0  0  0  0  0  0  0  0  0
  124.5300  129.6930   64.4790 N   0  0  0  0  0  0  0  0  0  0  0  0
  129.0090  127.8360   61.9310 S   0  0  0  0  0  0  0  0  0  0  0  0
  129.5080  126.3540   61.1520 C   0  0  0  0  0  0  0  0  0  0  0  0
  130.7700  126.1620   60.7660 N   0  0  0  0  0  0  0  0  0  0  0  0
  1  2  1  0
  2  3  2  0
  3  4  1  0
  4  5  1  0
  5  6  1  0
  5  7  1  0
  5  8  1  0
  4  9  2  0
  9 10  1  0
 10 11  1  0
 10 12  2  0
 12 13  1  0
 13 14  2  0
 13 15  1  0
 15 16  1  0
 16 17  1  0
 17 18  2  0
 18 19  1  0
 19 20  1  0
 12 21  1  0
 21 22  1  0
 22 23  2  0
 23  2  1  0
 22  9  1  0
 20 16  2  0
M  END
>  <Binding energies>  (52) 
[-5.77]

>  <Ligand effiencies>  (52) 
[-0.22192307692307692]

>  <Interactions>  (52) 
["V-B:PRO:540:CB:9857, V-B:TYR:539:C:9839, V-B:PRO:540:CA:9855, V-B:PRO:540:N:9856, V-B:GLU:543:CD:9880, V-B:TYR:539:CE2:9848, V-B:PRO:540:C:9853, V-B:ASP:366:CG:8185, V-B:TYR:539:CD2:9846, V-B:HIS:456:CE1:9042, V-B:ARG:545:CZ:9898, H-B:TYR:484:OH:9320, V-A:GLU:543:CD:4908, V-B:TYR:484:CZ:9319, H-B:GLY:454:N:9022, V-A:ASP:366:CG:3213, H-B:GLU:543:OE2:9882, H-B:GLU:543:OE1:9881, H-B:ASP:366:OD2:8187, H-B:ARG:545:NH2:9900, V-B:ARG:545:CG:9894, V-B:ARG:545:CD:9895, V-B:TYR:484:CE1:9317, H-B:ASP:366:OD1:8186"]

$$$$
4bj_Grossjean_2025
     RDKit          3D

 23 25  0  0  0  0  0  0  0  0999 V2000
  130.2500  119.9690   61.1240 C   0  0  0  0  0  0  0  0  0  0  0  0
  130.4020  121.4600   61.3660 C   0  0  0  0  0  0  0  0  0  0  0  0
  131.6610  122.0450   61.4760 C   0  0  0  0  0  0  0  0  0  0  0  0
  131.7860  123.4240   61.7070 C   0  0  0  0  0  0  0  0  0  0  0  0
  133.1930  124.0220   61.8240 C   0  0  0  0  0  0  0  0  0  0  0  0
  133.3830  124.6870   62.9650 F   0  0  0  0  0  0  0  0  0  0  0  0
  134.1020  123.0490   61.7710 F   0  0  0  0  0  0  0  0  0  0  0  0
  133.4020  124.8770   60.8230 F   0  0  0  0  0  0  0  0  0  0  0  0
  130.5800  124.1790   61.8170 C   0  0  0  0  0  0  0  0  0  0  0  0
  130.3160  125.5780   62.0510 C   0  0  0  0  0  0  0  0  0  0  0  0
  131.3150  126.5010   62.2270 N   0  0  0  0  0  0  0  0  0  0  0  0
  128.9520  125.9080   62.0740 C   0  0  0  0  0  0  0  0  0  0  0  0
  128.3330  127.2170   62.2940 C   0  0  0  0  0  0  0  0  0  0  0  0
  128.9960  128.2530   62.1990 O   0  0  0  0  0  0  0  0  0  0  0  0
  127.0090  127.1950   62.5860 N   0  0  0  0  0  0  0  0  0  0  0  0
  126.1890  128.2890   62.8260 C   0  0  0  0  0  0  0  0  0  0  0  0
  125.5650  129.0390   61.9440 N   0  0  0  0  0  0  0  0  0  0  0  0
  124.8650  129.9920   62.5270 C   0  0  0  0  0  0  0  0  0  0  0  0
  124.9140  130.0290   63.9170 C   0  0  0  0  0  0  0  0  0  0  0  0
  125.9380  128.7420   64.4810 S   0  0  0  0  0  0  0  0  0  0  0  0
  127.9460  124.4820   61.8280 S   0  0  0  0  0  0  0  0  0  0  0  0
  129.3550  123.4580   61.6800 C   0  0  0  0  0  0  0  0  0  0  0  0
  129.2410  122.1480   61.4640 N   0  0  0  0  0  0  0  0  0  0  0  0
  1  2  1  0
  2  3  2  0
  3  4  1  0
  4  5  1  0
  5  6  1  0
  5  7  1  0
  5  8  1  0
  4  9  2  0
  9 10  1  0
 10 11  1  0
 10 12  2  0
 12 13  1  0
 13 14  2  0
 13 15  1  0
 15 16  1  0
 16 17  2  0
 17 18  1  0
 18 19  2  0
 19 20  1  0
 12 21  1  0
 21 22  1  0
 22 23  2  0
 23  2  1  0
 22  9  1  0
 20 16  1  0
M  END
>  <Binding energies>  (53) 
[-4.82]

>  <Ligand effiencies>  (53) 
[-0.1853846153846154]

>  <Interactions>  (53) 
["V-A:ARG:545:CZ:4926, V-B:GLU:543:CD:9880, V-A:ILE:369:CD1:3239, V-A:LEU:475:CD2:4259, V-B:TYR:539:CD2:9846, V-B:ARG:545:CZ:9898, V-A:GLU:543:CD:4908, H-A:GLU:543:OE1:4909, V-A:GLY:454:CA:4049, H-A:GLU:543:OE2:4910, V-A:ASP:366:CG:3213, H-A:ASP:366:OD2:3215, H-A:ASP:366:OD1:3214, V-A:GLY:453:C:4042, H-B:GLU:543:OE2:9882, H-B:GLU:543:OE1:9881, H-B:ARG:545:NH2:9900"]

$$$$
4bk_Grossjean_2025
     RDKit          3D

 28 29  0  0  0  0  0  0  0  0999 V2000
  133.3150  131.6090   61.0750 C   0  0  0  0  0  0  0  0  0  0  0  0
  131.9520  131.7480   61.4460 O   0  0  0  0  0  0  0  0  0  0  0  0
  131.0690  130.9540   60.6640 C   0  0  0  0  0  0  0  0  0  0  0  0
  129.7860  131.7460   60.3770 C   0  0  0  0  0  0  0  0  0  0  0  0
  129.3680  132.4110   61.5610 O   0  0  0  0  0  0  0  0  0  0  0  0
  129.2220  131.5500   62.6830 C   0  0  0  0  0  0  0  0  0  0  0  0
  127.9070  131.8710   63.4050 C   0  0  0  0  0  0  0  0  0  0  0  0
  126.9240  130.9140   63.0390 O   0  0  0  0  0  0  0  0  0  0  0  0
  127.1010  129.6430   63.6530 C   0  0  0  0  0  0  0  0  0  0  0  0
  126.3720  128.5700   62.8260 C   0  0  0  0  0  0  0  0  0  0  0  0
  127.1690  127.3640   62.5950 N   0  0  0  0  0  0  0  0  0  0  0  0
  128.4320  127.3440   62.1190 C   0  0  0  0  0  0  0  0  0  0  0  0
  129.0510  128.3730   61.8460 O   0  0  0  0  0  0  0  0  0  0  0  0
  129.0350  126.0210   61.9500 C   0  0  0  0  0  0  0  0  0  0  0  0
  128.0110  124.5940   61.8130 S   0  0  0  0  0  0  0  0  0  0  0  0
  129.4060  123.5570   61.6270 C   0  0  0  0  0  0  0  0  0  0  0  0
  129.2780  122.2400   61.4700 N   0  0  0  0  0  0  0  0  0  0  0  0
  130.4290  121.5430   61.3340 C   0  0  0  0  0  0  0  0  0  0  0  0
  130.2590  120.0450   61.1540 C   0  0  0  0  0  0  0  0  0  0  0  0
  131.6940  122.1260   61.3530 C   0  0  0  0  0  0  0  0  0  0  0  0
  131.8360  123.5120   61.5200 C   0  0  0  0  0  0  0  0  0  0  0  0
  133.2480  124.1070   61.5380 C   0  0  0  0  0  0  0  0  0  0  0  0
  133.4950  124.8330   62.6300 F   0  0  0  0  0  0  0  0  0  0  0  0
  134.1510  123.1270   61.4960 F   0  0  0  0  0  0  0  0  0  0  0  0
  133.4150  124.9040   60.4840 F   0  0  0  0  0  0  0  0  0  0  0  0
  130.6410  124.2780   61.6640 C   0  0  0  0  0  0  0  0  0  0  0  0
  130.3930  125.6860   61.8460 C   0  0  0  0  0  0  0  0  0  0  0  0
  131.4010  126.6140   61.9140 N   0  0  0  0  0  0  0  0  0  0  0  0
  1  2  1  0
  2  3  1  0
  3  4  1  0
  4  5  1  0
  5  6  1  0
  6  7  1  0
  7  8  1  0
  8  9  1  0
  9 10  1  0
 10 11  1  0
 11 12  1  0
 12 13  2  0
 12 14  1  0
 14 15  1  0
 15 16  1  0
 16 17  2  0
 17 18  1  0
 18 19  1  0
 18 20  2  0
 20 21  1  0
 21 22  1  0
 22 23  1  0
 22 24  1  0
 22 25  1  0
 21 26  2  0
 26 27  1  0
 27 28  1  0
 27 14  2  0
 26 16  1  0
M  END
>  <Binding energies>  (54) 
[-4.63]

>  <Ligand effiencies>  (54) 
[-0.14935483870967742]

>  <Interactions>  (54) 
["V-A:ARG:545:CZ:4926, V-B:GLU:543:CD:9880, V-A:ILE:369:CD1:3239, V-A:LEU:475:CD2:4259, V-B:TYR:539:CD2:9846, H-B:TYR:484:OH:9320, V-A:GLU:543:CD:4908, V-A:GLU:543:CG:4907, H-A:GLU:543:OE1:4909, V-A:GLY:454:CA:4049, H-A:GLU:543:OE2:4910, V-A:ASP:366:CG:3213, V-A:ASP:366:CB:3212, H-A:ASP:366:OD2:3215, H-A:ASP:366:OD1:3214, V-A:GLY:453:C:4042, H-B:GLU:543:OE2:9882, H-B:GLU:543:OE1:9881, V-A:PRO:540:CA:4883, V-A:PRO:540:CB:4885, H-A:ALA:541:N:4891, V-A:ASN:362:CB:3176, V-A:ALA:541:CB:4892, V-A:ASN:362:C:3172"]

$$$$
4cd_Grossjean_2025
     RDKit          3D

 29 32  0  0  0  0  0  0  0  0999 V2000
  131.3670  126.6720   61.8310 N   0  0  0  0  0  0  0  0  0  0  0  0
  130.4360  125.6800   61.6550 C   0  0  0  0  0  0  0  0  0  0  0  0
  129.0520  125.9170   61.6410 C   0  0  0  0  0  0  0  0  0  0  0  0
  128.3410  127.1860   61.8210 C   0  0  0  0  0  0  0  0  0  0  0  0
  128.8150  128.2380   61.3910 O   0  0  0  0  0  0  0  0  0  0  0  0
  127.1540  127.1000   62.4700 N   0  0  0  0  0  0  0  0  0  0  0  0
  126.2610  128.1210   62.8450 C   0  0  0  0  0  0  0  0  0  0  0  0
  125.6080  128.7790   61.7980 C   0  0  0  0  0  0  0  0  0  0  0  0
  124.6960  129.7940   62.0670 C   0  0  0  0  0  0  0  0  0  0  0  0
  124.4290  130.1500   63.3860 C   0  0  0  0  0  0  0  0  0  0  0  0
  125.0610  129.4950   64.4390 C   0  0  0  0  0  0  0  0  0  0  0  0
  125.9750  128.4780   64.1740 C   0  0  0  0  0  0  0  0  0  0  0  0
  128.1540  124.4230   61.3820 S   0  0  0  0  0  0  0  0  0  0  0  0
  129.6320  123.4950   61.3020 C   0  0  0  0  0  0  0  0  0  0  0  0
  129.6160  122.1780   61.1090 N   0  0  0  0  0  0  0  0  0  0  0  0
  130.8160  121.5410   61.0750 C   0  0  0  0  0  0  0  0  0  0  0  0
  130.7650  120.0560   60.8580 C   0  0  0  0  0  0  0  0  0  0  0  0
  129.7980  119.2680   61.5020 C   0  0  0  0  0  0  0  0  0  0  0  0
  129.7450  117.8910   61.3050 C   0  0  0  0  0  0  0  0  0  0  0  0
  130.6630  117.2800   60.4570 C   0  0  0  0  0  0  0  0  0  0  0  0
  131.6290  118.0370   59.8050 C   0  0  0  0  0  0  0  0  0  0  0  0
  131.6770  119.4140   60.0030 C   0  0  0  0  0  0  0  0  0  0  0  0
  132.0230  122.2300   61.2160 C   0  0  0  0  0  0  0  0  0  0  0  0
  132.0510  123.6200   61.4170 C   0  0  0  0  0  0  0  0  0  0  0  0
  133.4110  124.3120   61.5680 C   0  0  0  0  0  0  0  0  0  0  0  0
  133.4330  125.2160   62.5510 F   0  0  0  0  0  0  0  0  0  0  0  0
  134.3510  123.4060   61.8380 F   0  0  0  0  0  0  0  0  0  0  0  0
  133.7220  124.9460   60.4370 F   0  0  0  0  0  0  0  0  0  0  0  0
  130.8000  124.2970   61.4660 C   0  0  0  0  0  0  0  0  0  0  0  0
  1  2  1  0
  2  3  2  0
  3  4  1  0
  4  5  2  0
  4  6  1  0
  6  7  1  0
  7  8  2  0
  8  9  1  0
  9 10  2  0
 10 11  1  0
 11 12  2  0
  3 13  1  0
 13 14  1  0
 14 15  2  0
 15 16  1  0
 16 17  1  0
 17 18  2  0
 18 19  1  0
 19 20  2  0
 20 21  1  0
 21 22  2  0
 16 23  2  0
 23 24  1  0
 24 25  1  0
 25 26  1  0
 25 27  1  0
 25 28  1  0
 24 29  2  0
 29  2  1  0
 12  7  1  0
 29 14  1  0
 22 17  1  0
M  END
>  <Binding energies>  (55) 
[-7.26]

>  <Ligand effiencies>  (55) 
[-0.226875]

>  <Interactions>  (55) 
["V-A:ARG:545:CZ:4926, V-B:TYR:539:C:9839, V-B:GLU:543:CD:9880, V-A:ILE:369:CD1:3239, V-B:TYR:539:CE2:9848, V-A:SER:385:CB:3409, V-B:ASP:366:CG:8185, V-A:PRO:482:CG:4327, V-A:PRO:482:CB:4326, V-B:TYR:539:CB:9843, V-A:LEU:475:CD2:4259, V-B:TYR:539:CD2:9846, V-A:LEU:475:CD1:4258, V-B:ALA:541:CB:9864, V-B:ARG:545:CZ:9898, V-A:GLU:543:CD:4908, H-A:GLU:543:OE1:4909, V-A:GLY:454:CA:4049, H-A:GLU:543:OE2:4910, V-A:ASP:366:CG:3213, V-A:ASP:366:CB:3212, H-A:ASP:366:OD2:3215, H-A:ASP:366:OD1:3214, V-A:ASP:366:CA:3210, V-A:GLY:453:CA:4044, V-A:GLY:453:C:4042, H-B:GLU:543:OE2:9882, H-B:GLU:543:OE1:9881"]

$$$$
4cg_Grossjean_2025
     RDKit          3D

 30 33  0  0  0  0  0  0  0  0999 V2000
  130.9850  126.6920   62.5490 N   0  0  0  0  0  0  0  0  0  0  0  0
  130.1160  125.6710   62.2600 C   0  0  0  0  0  0  0  0  0  0  0  0
  128.7230  125.8290   62.2440 C   0  0  0  0  0  0  0  0  0  0  0  0
  127.9410  127.0450   62.4640 C   0  0  0  0  0  0  0  0  0  0  0  0
  126.7470  127.1040   62.1620 O   0  0  0  0  0  0  0  0  0  0  0  0
  128.6130  128.0970   62.9760 N   0  0  0  0  0  0  0  0  0  0  0  0
  128.0320  129.3990   63.2980 C   0  0  0  0  0  0  0  0  0  0  0  0
  126.8310  129.3130   64.2320 C   0  0  0  0  0  0  0  0  0  0  0  0
  125.5590  129.6540   63.7620 C   0  0  0  0  0  0  0  0  0  0  0  0
  124.4550  129.5460   64.6030 C   0  0  0  0  0  0  0  0  0  0  0  0
  124.6240  129.0880   65.9080 C   0  0  0  0  0  0  0  0  0  0  0  0
  125.8860  128.7310   66.3770 C   0  0  0  0  0  0  0  0  0  0  0  0
  126.9900  128.8370   65.5360 C   0  0  0  0  0  0  0  0  0  0  0  0
  127.9110  124.3260   61.8170 S   0  0  0  0  0  0  0  0  0  0  0  0
  129.4400  123.4890   61.6860 C   0  0  0  0  0  0  0  0  0  0  0  0
  129.5010  122.2000   61.3640 N   0  0  0  0  0  0  0  0  0  0  0  0
  130.7340  121.6360   61.2820 C   0  0  0  0  0  0  0  0  0  0  0  0
  130.7680  120.1780   60.9170 C   0  0  0  0  0  0  0  0  0  0  0  0
  129.8510  119.2740   61.4770 C   0  0  0  0  0  0  0  0  0  0  0  0
  129.8790  117.9230   61.1440 C   0  0  0  0  0  0  0  0  0  0  0  0
  130.8300  117.4530   60.2430 C   0  0  0  0  0  0  0  0  0  0  0  0
  131.7520  118.3270   59.6760 C   0  0  0  0  0  0  0  0  0  0  0  0
  131.7200  119.6770   60.0130 C   0  0  0  0  0  0  0  0  0  0  0  0
  131.8990  122.3660   61.5420 C   0  0  0  0  0  0  0  0  0  0  0  0
  131.8470  123.7260   61.8840 C   0  0  0  0  0  0  0  0  0  0  0  0
  133.1610  124.4660   62.1570 C   0  0  0  0  0  0  0  0  0  0  0  0
  133.3180  124.7990   63.4400 F   0  0  0  0  0  0  0  0  0  0  0  0
  134.1930  123.6930   61.8160 F   0  0  0  0  0  0  0  0  0  0  0  0
  133.2010  125.5920   61.4450 F   0  0  0  0  0  0  0  0  0  0  0  0
  130.5580  124.3320   61.9580 C   0  0  0  0  0  0  0  0  0  0  0  0
  1  2  1  0
  2  3  2  0
  3  4  1  0
  4  5  2  0
  4  6  1  0
  6  7  1  0
  7  8  1  0
  8  9  2  0
  9 10  1  0
 10 11  2  0
 11 12  1  0
 12 13  2  0
  3 14  1  0
 14 15  1  0
 15 16  2  0
 16 17  1  0
 17 18  1  0
 18 19  2  0
 19 20  1  0
 20 21  2  0
 21 22  1  0
 22 23  2  0
 17 24  2  0
 24 25  1  0
 25 26  1  0
 26 27  1  0
 26 28  1  0
 26 29  1  0
 25 30  2  0
 30  2  1  0
 13  8  1  0
 30 15  1  0
 23 18  1  0
M  END
>  <Binding energies>  (56) 
[-7.82]

>  <Ligand effiencies>  (56) 
[-0.23696969696969697]

>  <Interactions>  (56) 
["V-A:ARG:545:CZ:4926, V-B:GLU:543:CD:9880, V-A:ILE:369:CD1:3239, V-B:TYR:539:CE2:9848, V-A:SER:385:CB:3409, V-A:PRO:482:CG:4327, V-A:PRO:482:CB:4326, V-B:TYR:539:CB:9843, V-A:LEU:475:CD2:4259, V-B:TYR:539:CD2:9846, V-A:LEU:475:CD1:4258, V-B:ALA:541:CB:9864, V-B:HIS:456:CE1:9042, V-B:ARG:545:CZ:9898, V-A:GLU:543:CD:4908, V-A:GLU:543:CG:4907, V-B:TYR:484:CZ:9319, H-A:GLU:543:OE1:4909, V-A:GLY:454:CA:4049, H-A:GLU:543:OE2:4910, V-A:ASP:366:CG:3213, H-A:ASP:366:OD1:3214, V-A:GLY:453:CA:4044, V-A:GLY:453:C:4042, H-B:GLU:543:OE2:9882, H-B:ARG:545:NH2:9900, V-B:ARG:545:CG:9894, V-B:ARG:545:CD:9895"]

$$$$
4ch_Grossjean_2025
     RDKit          3D

 36 39  0  0  0  0  0  0  0  0999 V2000
  126.4780  127.6090   67.1800 C   0  0  0  0  0  0  0  0  0  0  0  0
  125.4660  127.8080   66.1980 O   0  0  0  0  0  0  0  0  0  0  0  0
  125.7320  128.6090   65.1030 C   0  0  0  0  0  0  0  0  0  0  0  0
  126.9400  128.5830   64.3870 C   0  0  0  0  0  0  0  0  0  0  0  0
  127.1390  129.4210   63.2880 C   0  0  0  0  0  0  0  0  0  0  0  0
  128.4670  129.3980   62.5410 C   0  0  0  0  0  0  0  0  0  0  0  0
  128.9930  128.0550   62.2920 N   0  0  0  0  0  0  0  0  0  0  0  0
  128.3660  127.0840   61.5970 C   0  0  0  0  0  0  0  0  0  0  0  0
  127.2660  127.2520   61.0660 O   0  0  0  0  0  0  0  0  0  0  0  0
  129.0870  125.8160   61.4740 C   0  0  0  0  0  0  0  0  0  0  0  0
  128.1970  124.3120   61.2570 S   0  0  0  0  0  0  0  0  0  0  0  0
  129.6810  123.3940   61.1780 C   0  0  0  0  0  0  0  0  0  0  0  0
  129.6740  122.0740   61.0160 N   0  0  0  0  0  0  0  0  0  0  0  0
  130.8780  121.4460   60.9610 C   0  0  0  0  0  0  0  0  0  0  0  0
  130.8340  119.9560   60.7830 C   0  0  0  0  0  0  0  0  0  0  0  0
  131.7580  119.3040   59.9500 C   0  0  0  0  0  0  0  0  0  0  0  0
  131.7230  117.9220   59.7800 C   0  0  0  0  0  0  0  0  0  0  0  0
  130.7590  117.1700   60.4420 C   0  0  0  0  0  0  0  0  0  0  0  0
  129.8280  117.7900   61.2700 C   0  0  0  0  0  0  0  0  0  0  0  0
  129.8660  119.1720   61.4350 C   0  0  0  0  0  0  0  0  0  0  0  0
  132.0820  122.1460   61.0860 C   0  0  0  0  0  0  0  0  0  0  0  0
  132.1020  123.5400   61.2590 C   0  0  0  0  0  0  0  0  0  0  0  0
  133.4570  124.2440   61.3900 C   0  0  0  0  0  0  0  0  0  0  0  0
  133.9050  124.7380   60.2340 F   0  0  0  0  0  0  0  0  0  0  0  0
  133.3560  125.2600   62.2460 F   0  0  0  0  0  0  0  0  0  0  0  0
  134.3710  123.3830   61.8360 F   0  0  0  0  0  0  0  0  0  0  0  0
  130.8450  124.2090   61.3060 C   0  0  0  0  0  0  0  0  0  0  0  0
  130.4730  125.5940   61.4620 C   0  0  0  0  0  0  0  0  0  0  0  0
  131.3950  126.6010   61.5980 N   0  0  0  0  0  0  0  0  0  0  0  0
  126.1310  130.3070   62.9070 C   0  0  0  0  0  0  0  0  0  0  0  0
  124.9130  130.3560   63.6060 C   0  0  0  0  0  0  0  0  0  0  0  0
  123.8720  131.2070   63.2820 O   0  0  0  0  0  0  0  0  0  0  0  0
  123.8680  131.8570   62.0160 C   0  0  0  0  0  0  0  0  0  0  0  0
  124.7240  129.4970   64.6980 C   0  0  0  0  0  0  0  0  0  0  0  0
  123.5440  129.5440   65.3990 O   0  0  0  0  0  0  0  0  0  0  0  0
  123.6990  129.8820   66.7710 C   0  0  0  0  0  0  0  0  0  0  0  0
  1  2  1  0
  2  3  1  0
  3  4  2  0
  4  5  1  0
  5  6  1  0
  6  7  1  0
  7  8  1  0
  8  9  2  0
  8 10  1  0
 10 11  1  0
 11 12  1  0
 12 13  2  0
 13 14  1  0
 14 15  1  0
 15 16  2  0
 16 17  1  0
 17 18  2  0
 18 19  1  0
 19 20  2  0
 14 21  2  0
 21 22  1  0
 22 23  1  0
 23 24  1  0
 23 25  1  0
 23 26  1  0
 22 27  2  0
 27 28  1  0
 28 29  1  0
  5 30  2  0
 30 31  1  0
 31 32  1  0
 32 33  1  0
 31 34  2  0
 34 35  1  0
 35 36  1  0
 34  3  1  0
 28 10  2  0
 27 12  1  0
 20 15  1  0
M  END
>  <Binding energies>  (57) 
[-7.77]

>  <Ligand effiencies>  (57) 
[-0.1992307692307692]

>  <Interactions>  (57) 
["V-A:ARG:545:CZ:4926, V-B:TYR:539:C:9839, V-B:GLU:543:CD:9880, V-A:ILE:369:CD1:3239, V-B:TYR:539:CE2:9848, V-A:SER:385:CB:3409, V-A:PRO:482:CG:4327, V-A:PRO:482:CB:4326, V-A:LEU:475:CD2:4259, V-B:TYR:539:CD2:9846, V-A:LEU:475:CD1:4258, V-A:LEU:475:CG:4257, V-B:ALA:541:CB:9864, V-B:HIS:456:CE1:9042, V-B:ARG:545:CZ:9898, H-B:TYR:484:OH:9320, V-A:GLU:543:CD:4908, V-B:GLY:453:C:9014, V-B:ILE:369:CD1:8211, H-B:ARG:545:NE:9896, V-B:TYR:484:CZ:9319, H-B:GLY:454:N:9022, V-B:GLY:454:CA:9021, H-A:GLU:543:OE1:4909, V-A:GLY:454:CA:4049, H-A:GLU:543:OE2:4910, V-A:ASP:366:CG:3213, V-A:ASP:366:CB:3212, H-A:ASP:366:OD2:3215, H-A:ASP:366:OD1:3214, V-A:ASP:366:CA:3210, V-A:GLY:453:CA:4044, V-A:GLY:453:C:4042, H-B:ARG:545:NH2:9900, V-B:ARG:545:CG:9894, V-B:ARG:545:CD:9895, V-B:TYR:484:CE1:9317, H-B:ARG:545:NH1:9899, V-B:GLY:453:CA:9016, V-B:GLU:543:CB:9878, V-B:ILE:455:C:9024, V-B:GLY:454:C:9019"]

$$$$
4cj_Grossjean_2025
     RDKit          3D

 28 31  0  0  0  0  0  0  0  0999 V2000
  131.4810  126.6540   61.8410 N   0  0  0  0  0  0  0  0  0  0  0  0
  130.5360  125.6620   61.7690 C   0  0  0  0  0  0  0  0  0  0  0  0
  129.1590  125.9000   61.9090 C   0  0  0  0  0  0  0  0  0  0  0  0
  128.4710  127.1730   62.1400 C   0  0  0  0  0  0  0  0  0  0  0  0
  129.0380  128.2460   61.9200 O   0  0  0  0  0  0  0  0  0  0  0  0
  127.2030  127.0720   62.6110 N   0  0  0  0  0  0  0  0  0  0  0  0
  126.3390  128.1170   62.9110 C   0  0  0  0  0  0  0  0  0  0  0  0
  125.6370  128.8490   62.0730 N   0  0  0  0  0  0  0  0  0  0  0  0
  124.9190  129.7560   62.7050 C   0  0  0  0  0  0  0  0  0  0  0  0
  125.0300  129.7710   64.0930 C   0  0  0  0  0  0  0  0  0  0  0  0
  126.1390  128.5250   64.5850 S   0  0  0  0  0  0  0  0  0  0  0  0
  128.2350  124.4080   61.7490 S   0  0  0  0  0  0  0  0  0  0  0  0
  129.6950  123.4800   61.4980 C   0  0  0  0  0  0  0  0  0  0  0  0
  129.6540  122.1660   61.2940 N   0  0  0  0  0  0  0  0  0  0  0  0
  130.8380  121.5300   61.1010 C   0  0  0  0  0  0  0  0  0  0  0  0
  130.7570  120.0490   60.8600 C   0  0  0  0  0  0  0  0  0  0  0  0
  129.7800  119.2700   61.5010 C   0  0  0  0  0  0  0  0  0  0  0  0
  129.7020  117.8960   61.2870 C   0  0  0  0  0  0  0  0  0  0  0  0
  130.6060  117.2800   60.4270 C   0  0  0  0  0  0  0  0  0  0  0  0
  131.5840  118.0280   59.7810 C   0  0  0  0  0  0  0  0  0  0  0  0
  131.6570  119.4010   59.9980 C   0  0  0  0  0  0  0  0  0  0  0  0
  132.0580  122.2130   61.1380 C   0  0  0  0  0  0  0  0  0  0  0  0
  132.1130  123.5990   61.3550 C   0  0  0  0  0  0  0  0  0  0  0  0
  133.4830  124.2850   61.3800 C   0  0  0  0  0  0  0  0  0  0  0  0
  133.6270  125.1300   62.4030 F   0  0  0  0  0  0  0  0  0  0  0  0
  134.4440  123.3670   61.4830 F   0  0  0  0  0  0  0  0  0  0  0  0
  133.6600  124.9830   60.2580 F   0  0  0  0  0  0  0  0  0  0  0  0
  130.8750  124.2790   61.5390 C   0  0  0  0  0  0  0  0  0  0  0  0
  1  2  1  0
  2  3  2  0
  3  4  1  0
  4  5  2  0
  4  6  1  0
  6  7  1  0
  7  8  2  0
  8  9  1  0
  9 10  2  0
 10 11  1  0
  3 12  1  0
 12 13  1  0
 13 14  2  0
 14 15  1  0
 15 16  1  0
 16 17  2  0
 17 18  1  0
 18 19  2  0
 19 20  1  0
 20 21  2  0
 15 22  2  0
 22 23  1  0
 23 24  1  0
 24 25  1  0
 24 26  1  0
 24 27  1  0
 23 28  2  0
 28  2  1  0
 11  7  1  0
 28 13  1  0
 21 16  1  0
M  END
>  <Binding energies>  (58) 
[-6.7]

>  <Ligand effiencies>  (58) 
[-0.2161290322580645]

>  <Interactions>  (58) 
["V-A:ARG:545:CZ:4926, V-B:TYR:539:C:9839, V-B:GLU:543:CD:9880, V-A:ILE:369:CD1:3239, V-B:TYR:539:CE2:9848, V-A:SER:385:CB:3409, V-A:PRO:482:CG:4327, V-A:PRO:482:CB:4326, V-B:TYR:539:CB:9843, V-A:LEU:475:CD2:4259, V-B:TYR:539:CD2:9846, V-A:LEU:475:CD1:4258, V-B:ALA:541:CB:9864, V-B:ARG:545:CZ:9898, V-A:GLU:543:CD:4908, H-A:GLU:543:OE1:4909, V-A:GLY:454:CA:4049, H-A:GLU:543:OE2:4910, V-A:ASP:366:CG:3213, V-A:ASP:366:CB:3212, H-A:ASP:366:OD2:3215, H-A:ASP:366:OD1:3214, V-A:ASP:366:CA:3210, V-A:GLY:453:CA:4044, V-A:GLY:453:C:4042, H-B:GLU:543:OE2:9882, H-B:GLU:543:OE1:9881, H-B:ARG:545:NH2:9900"]

$$$$
4ck_Grossjean_2025
     RDKit          3D

 33 35  0  0  0  0  0  0  0  0999 V2000
  132.8780  131.3740   62.0470 C   0  0  0  0  0  0  0  0  0  0  0  0
  132.0430  132.0420   61.1140 O   0  0  0  0  0  0  0  0  0  0  0  0
  131.6930  131.2410   59.9950 C   0  0  0  0  0  0  0  0  0  0  0  0
  130.5960  130.2520   60.4110 C   0  0  0  0  0  0  0  0  0  0  0  0
  129.3270  130.8620   60.2250 O   0  0  0  0  0  0  0  0  0  0  0  0
  129.1080  131.9850   61.0690 C   0  0  0  0  0  0  0  0  0  0  0  0
  128.7670  131.4930   62.4810 C   0  0  0  0  0  0  0  0  0  0  0  0
  128.3300  130.1440   62.4030 O   0  0  0  0  0  0  0  0  0  0  0  0
  126.9600  129.9630   62.7350 C   0  0  0  0  0  0  0  0  0  0  0  0
  126.8230  128.8230   63.7560 C   0  0  0  0  0  0  0  0  0  0  0  0
  127.6020  127.6450   63.3730 N   0  0  0  0  0  0  0  0  0  0  0  0
  127.8120  127.2130   62.1120 C   0  0  0  0  0  0  0  0  0  0  0  0
  127.3760  127.8050   61.1240 O   0  0  0  0  0  0  0  0  0  0  0  0
  128.6080  125.9920   61.9790 C   0  0  0  0  0  0  0  0  0  0  0  0
  127.8290  124.4720   61.5460 S   0  0  0  0  0  0  0  0  0  0  0  0
  129.3640  123.6360   61.5440 C   0  0  0  0  0  0  0  0  0  0  0  0
  129.4480  122.3380   61.2630 N   0  0  0  0  0  0  0  0  0  0  0  0
  130.6840  121.7750   61.2870 C   0  0  0  0  0  0  0  0  0  0  0  0
  130.7470  120.3130   60.9480 C   0  0  0  0  0  0  0  0  0  0  0  0
  131.7230  119.8210   60.0670 C   0  0  0  0  0  0  0  0  0  0  0  0
  131.7850  118.4670   59.7460 C   0  0  0  0  0  0  0  0  0  0  0  0
  130.8680  117.5830   60.3050 C   0  0  0  0  0  0  0  0  0  0  0  0
  129.8940  118.0430   61.1850 C   0  0  0  0  0  0  0  0  0  0  0  0
  129.8360  119.3980   61.5030 C   0  0  0  0  0  0  0  0  0  0  0  0
  131.8300  122.5200   61.5840 C   0  0  0  0  0  0  0  0  0  0  0  0
  131.7520  123.8890   61.8830 C   0  0  0  0  0  0  0  0  0  0  0  0
  133.0480  124.6440   62.2040 C   0  0  0  0  0  0  0  0  0  0  0  0
  133.1260  125.0310   63.4780 F   0  0  0  0  0  0  0  0  0  0  0  0
  134.0980  123.8620   61.9590 F   0  0  0  0  0  0  0  0  0  0  0  0
  133.1290  125.7400   61.4480 F   0  0  0  0  0  0  0  0  0  0  0  0
  130.4610  124.4900   61.8630 C   0  0  0  0  0  0  0  0  0  0  0  0
  129.9970  125.8360   62.1000 C   0  0  0  0  0  0  0  0  0  0  0  0
  130.8430  126.8670   62.4190 N   0  0  0  0  0  0  0  0  0  0  0  0
  1  2  1  0
  2  3  1  0
  3  4  1  0
  4  5  1  0
  5  6  1  0
  6  7  1  0
  7  8  1  0
  8  9  1  0
  9 10  1  0
 10 11  1  0
 11 12  1  0
 12 13  2  0
 12 14  1  0
 14 15  1  0
 15 16  1  0
 16 17  2  0
 17 18  1  0
 18 19  1  0
 19 20  2  0
 20 21  1  0
 21 22  2  0
 22 23  1  0
 23 24  2  0
 18 25  2  0
 25 26  1  0
 26 27  1  0
 27 28  1  0
 27 29  1  0
 27 30  1  0
 26 31  2  0
 31 32  1  0
 32 33  1  0
 32 14  2  0
 31 16  1  0
 24 19  1  0
M  END
>  <Binding energies>  (59) 
[-6.23]

>  <Ligand effiencies>  (59) 
[-0.17305555555555557]

>  <Interactions>  (59) 
["V-A:ARG:545:CZ:4926, V-B:GLU:543:CD:9880, V-A:ILE:369:CD1:3239, V-B:TYR:539:CE2:9848, V-A:SER:385:CB:3409, V-A:PRO:482:CG:4327, V-A:PRO:482:CB:4326, V-A:LEU:475:CD2:4259, V-B:TYR:539:CD2:9846, V-A:LEU:475:CD1:4258, V-A:LEU:475:CG:4257, V-B:ALA:541:CB:9864, V-A:GLU:543:CD:4908, V-A:GLU:543:CG:4907, H-A:GLU:543:OE1:4909, V-A:GLY:454:CA:4049, H-A:GLU:543:OE2:4910, V-A:ASP:366:CG:3213, H-A:ASP:366:OD1:3214, V-A:GLY:453:CA:4044, V-A:GLY:453:C:4042, H-B:GLU:543:OE2:9882, H-B:GLU:543:OE1:9881, V-A:PRO:540:CA:4883, V-A:PRO:540:CB:4885, H-A:ALA:541:N:4891, V-A:ASN:362:CB:3176, V-A:ALA:541:CB:4892, V-A:ALA:541:C:4888, V-A:ASN:362:CG:3177"]

$$$$
4dd_Grossjean_2025
     RDKit          3D

 26 29  0  0  0  0  0  0  0  0999 V2000
  133.5210  124.3250   61.1860 C   0  0  0  0  0  0  0  0  0  0  0  0
  132.1680  123.6310   61.2310 C   0  0  0  0  0  0  0  0  0  0  0  0
  132.1310  122.2450   61.0350 C   0  0  0  0  0  0  0  0  0  0  0  0
  130.9170  121.5470   61.0650 C   0  0  0  0  0  0  0  0  0  0  0  0
  130.8460  120.0640   60.8530 C   0  0  0  0  0  0  0  0  0  0  0  0
  129.8680  119.2900   61.4990 C   0  0  0  0  0  0  0  0  0  0  0  0
  129.7950  117.9130   61.3040 C   0  0  0  0  0  0  0  0  0  0  0  0
  130.7030  117.2880   60.4580 C   0  0  0  0  0  0  0  0  0  0  0  0
  131.6810  118.0290   59.8040 C   0  0  0  0  0  0  0  0  0  0  0  0
  131.7500  119.4060   60.0000 C   0  0  0  0  0  0  0  0  0  0  0  0
  129.7290  122.1790   61.2710 N   0  0  0  0  0  0  0  0  0  0  0  0
  129.7640  123.4970   61.4640 C   0  0  0  0  0  0  0  0  0  0  0  0
  128.3150  124.4310   61.7580 S   0  0  0  0  0  0  0  0  0  0  0  0
  129.2470  125.9240   61.8870 C   0  0  0  0  0  0  0  0  0  0  0  0
  128.5760  127.1950   62.1670 C   0  0  0  0  0  0  0  0  0  0  0  0
  129.1440  128.2660   61.9500 O   0  0  0  0  0  0  0  0  0  0  0  0
  127.3180  127.0900   62.6610 N   0  0  0  0  0  0  0  0  0  0  0  0
  126.4320  128.1000   63.0790 C   0  0  0  0  0  0  0  0  0  0  0  0
  125.8090  128.8270   62.0610 C   0  0  0  0  0  0  0  0  0  0  0  0
  124.9040  129.8380   62.3720 C   0  0  0  0  0  0  0  0  0  0  0  0
  124.6150  130.1190   63.7050 C   0  0  0  0  0  0  0  0  0  0  0  0
  125.2190  129.3950   64.7290 C   0  0  0  0  0  0  0  0  0  0  0  0
  126.1250  128.3830   64.4210 C   0  0  0  0  0  0  0  0  0  0  0  0
  130.6170  125.6820   61.7010 C   0  0  0  0  0  0  0  0  0  0  0  0
  131.5780  126.6620   61.7430 N   0  0  0  0  0  0  0  0  0  0  0  0
  130.9390  124.3010   61.4600 C   0  0  0  0  0  0  0  0  0  0  0  0
  1  2  1  0
  2  3  2  0
  3  4  1  0
  4  5  1  0
  5  6  2  0
  6  7  1  0
  7  8  2  0
  8  9  1  0
  9 10  2  0
  4 11  2  0
 11 12  1  0
 12 13  1  0
 13 14  1  0
 14 15  1  0
 15 16  2  0
 15 17  1  0
 17 18  1  0
 18 19  2  0
 19 20  1  0
 20 21  2  0
 21 22  1  0
 22 23  2  0
 14 24  2  0
 24 25  1  0
 24 26  1  0
 26  2  1  0
 10  5  1  0
 26 12  2  0
 23 18  1  0
M  END
>  <Binding energies>  (60) 
[-7.56]

>  <Ligand effiencies>  (60) 
[-0.26068965517241377]

>  <Interactions>  (60) 
["V-A:ARG:545:CZ:4926, V-B:GLU:543:CD:9880, V-A:ILE:369:CD1:3239, V-B:TYR:539:CE2:9848, V-A:SER:385:CB:3409, V-B:ASP:366:CG:8185, V-A:PRO:482:CG:4327, V-A:PRO:482:CB:4326, V-A:LEU:475:CD2:4259, V-B:TYR:539:CD2:9846, V-A:LEU:475:CD1:4258, V-A:LEU:475:CG:4257, V-B:ALA:541:CB:9864, V-B:ARG:545:CZ:9898, V-A:GLU:543:CD:4908, H-A:GLU:543:OE1:4909, H-A:GLU:543:OE2:4910, V-A:ASP:366:CG:3213, H-A:ASP:366:OD2:3215, H-A:ASP:366:OD1:3214, H-B:GLU:543:OE2:9882, H-B:GLU:543:OE1:9881"]

$$$$
4dg_Grossjean_2025
     RDKit          3D

 27 30  0  0  0  0  0  0  0  0999 V2000
  133.2000  124.3460   61.7020 C   0  0  0  0  0  0  0  0  0  0  0  0
  131.8850  123.5890   61.5910 C   0  0  0  0  0  0  0  0  0  0  0  0
  131.9350  122.2200   61.3020 C   0  0  0  0  0  0  0  0  0  0  0  0
  130.7610  121.4660   61.1860 C   0  0  0  0  0  0  0  0  0  0  0  0
  130.7820  119.9950   60.8780 C   0  0  0  0  0  0  0  0  0  0  0  0
  129.8580  119.1210   61.4730 C   0  0  0  0  0  0  0  0  0  0  0  0
  129.8760  117.7560   61.1940 C   0  0  0  0  0  0  0  0  0  0  0  0
  130.8220  117.2440   60.3130 C   0  0  0  0  0  0  0  0  0  0  0  0
  131.7520  118.0870   59.7120 C   0  0  0  0  0  0  0  0  0  0  0  0
  131.7310  119.4500   59.9950 C   0  0  0  0  0  0  0  0  0  0  0  0
  129.5310  122.0200   61.3660 N   0  0  0  0  0  0  0  0  0  0  0  0
  129.4820  123.3230   61.6400 C   0  0  0  0  0  0  0  0  0  0  0  0
  127.9680  124.1610   61.8870 S   0  0  0  0  0  0  0  0  0  0  0  0
  128.8080  125.6850   62.1710 C   0  0  0  0  0  0  0  0  0  0  0  0
  128.0460  126.9080   62.4200 C   0  0  0  0  0  0  0  0  0  0  0  0
  126.8490  126.9880   62.1360 O   0  0  0  0  0  0  0  0  0  0  0  0
  128.7430  127.9410   62.9380 N   0  0  0  0  0  0  0  0  0  0  0  0
  128.1860  129.2480   63.2870 C   0  0  0  0  0  0  0  0  0  0  0  0
  126.9540  129.1610   64.1810 C   0  0  0  0  0  0  0  0  0  0  0  0
  127.0890  128.7530   65.5110 C   0  0  0  0  0  0  0  0  0  0  0  0
  125.9710  128.7030   66.3390 C   0  0  0  0  0  0  0  0  0  0  0  0
  124.7240  129.0720   65.8380 C   0  0  0  0  0  0  0  0  0  0  0  0
  124.5850  129.4960   64.5180 C   0  0  0  0  0  0  0  0  0  0  0  0
  125.7040  129.5470   63.6900 C   0  0  0  0  0  0  0  0  0  0  0  0
  130.1970  125.5310   62.0580 C   0  0  0  0  0  0  0  0  0  0  0  0
  131.0950  126.5560   62.2160 N   0  0  0  0  0  0  0  0  0  0  0  0
  130.6100  124.1830   61.7670 C   0  0  0  0  0  0  0  0  0  0  0  0
  1  2  1  0
  2  3  2  0
  3  4  1  0
  4  5  1  0
  5  6  2  0
  6  7  1  0
  7  8  2  0
  8  9  1  0
  9 10  2  0
  4 11  2  0
 11 12  1  0
 12 13  1  0
 13 14  1  0
 14 15  1  0
 15 16  2  0
 15 17  1  0
 17 18  1  0
 18 19  1  0
 19 20  2  0
 20 21  1  0
 21 22  2  0
 22 23  1  0
 23 24  2  0
 14 25  2  0
 25 26  1  0
 25 27  1  0
 27  2  1  0
 10  5  1  0
 27 12  2  0
 24 19  1  0
M  END
>  <Binding energies>  (61) 
[-8.01]

>  <Ligand effiencies>  (61) 
[-0.267]

>  <Interactions>  (61) 
["V-B:GLU:543:CD:9880, V-B:TYR:539:CE2:9848, V-A:SER:385:CB:3409, V-A:PRO:482:CG:4327, V-A:PRO:482:CB:4326, V-B:TYR:539:CB:9843, V-A:LEU:475:CD2:4259, V-B:TYR:539:CD2:9846, V-A:LEU:475:CD1:4258, V-A:LEU:475:CG:4257, V-B:ALA:541:CB:9864, V-B:HIS:456:CE1:9042, V-B:ARG:545:CZ:9898, V-A:GLU:543:CD:4908, V-A:GLU:543:CG:4907, V-B:TYR:484:CZ:9319, H-A:GLU:543:OE1:4909, H-A:GLU:543:OE2:4910, H-A:ASP:366:OD2:3215, H-A:ASP:366:OD1:3214, H-B:GLU:543:OE2:9882, H-B:ARG:545:NH2:9900, V-B:ARG:545:CG:9894, V-B:ARG:545:CD:9895"]

$$$$
4dj_Grossjean_2025
     RDKit          3D

 25 28  0  0  0  0  0  0  0  0999 V2000
  133.5200  124.3260   61.2590 C   0  0  0  0  0  0  0  0  0  0  0  0
  132.1660  123.6320   61.2640 C   0  0  0  0  0  0  0  0  0  0  0  0
  132.1340  122.2470   61.0610 C   0  0  0  0  0  0  0  0  0  0  0  0
  130.9200  121.5490   61.0520 C   0  0  0  0  0  0  0  0  0  0  0  0
  130.8560  120.0630   60.8420 C   0  0  0  0  0  0  0  0  0  0  0  0
  131.7660  119.4150   59.9900 C   0  0  0  0  0  0  0  0  0  0  0  0
  131.7110  118.0380   59.7910 C   0  0  0  0  0  0  0  0  0  0  0  0
  130.7380  117.2850   60.4410 C   0  0  0  0  0  0  0  0  0  0  0  0
  129.8220  117.9010   61.2870 C   0  0  0  0  0  0  0  0  0  0  0  0
  129.8810  119.2770   61.4840 C   0  0  0  0  0  0  0  0  0  0  0  0
  129.7300  122.1750   61.2550 N   0  0  0  0  0  0  0  0  0  0  0  0
  129.7580  123.4930   61.4470 C   0  0  0  0  0  0  0  0  0  0  0  0
  128.3010  124.4250   61.7120 S   0  0  0  0  0  0  0  0  0  0  0  0
  129.2270  125.9210   61.8550 C   0  0  0  0  0  0  0  0  0  0  0  0
  128.5450  127.1930   62.0940 C   0  0  0  0  0  0  0  0  0  0  0  0
  129.1170  128.2650   61.8800 O   0  0  0  0  0  0  0  0  0  0  0  0
  127.2770  127.0960   62.5640 N   0  0  0  0  0  0  0  0  0  0  0  0
  126.4190  128.1420   62.8730 C   0  0  0  0  0  0  0  0  0  0  0  0
  125.7890  128.9430   62.0400 N   0  0  0  0  0  0  0  0  0  0  0  0
  125.0520  129.8280   62.6830 C   0  0  0  0  0  0  0  0  0  0  0  0
  125.0750  129.7560   64.0720 C   0  0  0  0  0  0  0  0  0  0  0  0
  126.1210  128.4540   64.5530 S   0  0  0  0  0  0  0  0  0  0  0  0
  130.6010  125.6810   61.6980 C   0  0  0  0  0  0  0  0  0  0  0  0
  131.5590  126.6630   61.7570 N   0  0  0  0  0  0  0  0  0  0  0  0
  130.9310  124.3010   61.4660 C   0  0  0  0  0  0  0  0  0  0  0  0
  1  2  1  0
  2  3  2  0
  3  4  1  0
  4  5  1  0
  5  6  2  0
  6  7  1  0
  7  8  2  0
  8  9  1  0
  9 10  2  0
  4 11  2  0
 11 12  1  0
 12 13  1  0
 13 14  1  0
 14 15  1  0
 15 16  2  0
 15 17  1  0
 17 18  1  0
 18 19  2  0
 19 20  1  0
 20 21  2  0
 21 22  1  0
 14 23  2  0
 23 24  1  0
 23 25  1  0
 25  2  1  0
 10  5  1  0
 25 12  2  0
 22 18  1  0
M  END
>  <Binding energies>  (62) 
[-7.0]

>  <Ligand effiencies>  (62) 
[-0.25]

>  <Interactions>  (62) 
["V-A:ARG:545:CZ:4926, V-B:GLU:543:CD:9880, V-A:ILE:369:CD1:3239, V-B:TYR:539:CE2:9848, V-A:SER:385:CB:3409, V-A:PRO:482:CG:4327, V-A:PRO:482:CB:4326, V-A:LEU:475:CD2:4259, V-B:TYR:539:CD2:9846, V-A:LEU:475:CD1:4258, V-A:LEU:475:CG:4257, V-B:ALA:541:CB:9864, V-B:ARG:545:CZ:9898, V-A:GLU:543:CD:4908, H-A:GLU:543:OE1:4909, H-A:GLU:543:OE2:4910, V-A:ASP:366:CG:3213, H-A:ASP:366:OD2:3215, H-A:ASP:366:OD1:3214, H-B:GLU:543:OE2:9882, H-B:GLU:543:OE1:9881, H-B:ARG:545:NH2:9900"]

$$$$
4ea_Grossjean_2025
     RDKit          3D

 31 34  0  0  0  0  0  0  0  0999 V2000
  131.3830  116.6710   60.4480 C   0  0  0  0  0  0  0  0  0  0  0  0
  131.2560  117.9120   59.5600 C   0  0  0  0  0  0  0  0  0  0  0  0
  131.2700  119.0780   60.3730 O   0  0  0  0  0  0  0  0  0  0  0  0
  130.2390  119.3640   61.2090 C   0  0  0  0  0  0  0  0  0  0  0  0
  129.6170  118.5030   61.8400 O   0  0  0  0  0  0  0  0  0  0  0  0
  129.9300  120.8310   61.2900 C   0  0  0  0  0  0  0  0  0  0  0  0
  130.9620  121.7580   61.0960 C   0  0  0  0  0  0  0  0  0  0  0  0
  130.7090  123.1250   61.1640 C   0  0  0  0  0  0  0  0  0  0  0  0
  129.4210  123.5940   61.4270 C   0  0  0  0  0  0  0  0  0  0  0  0
  129.2830  124.9940   61.4730 N   0  0  0  0  0  0  0  0  0  0  0  0
  130.1130  125.9740   61.0370 C   0  0  0  0  0  0  0  0  0  0  0  0
  131.1990  125.7710   60.4930 O   0  0  0  0  0  0  0  0  0  0  0  0
  129.6340  127.3410   61.2550 C   0  0  0  0  0  0  0  0  0  0  0  0
  130.1750  128.6550   60.2070 S   0  0  0  0  0  0  0  0  0  0  0  0
  129.2130  129.8190   61.0890 C   0  0  0  0  0  0  0  0  0  0  0  0
  129.1890  131.1110   60.7560 N   0  0  0  0  0  0  0  0  0  0  0  0
  128.4030  131.9090   61.5200 C   0  0  0  0  0  0  0  0  0  0  0  0
  128.3910  133.3730   61.1230 C   0  0  0  0  0  0  0  0  0  0  0  0
  127.6490  131.4500   62.5970 C   0  0  0  0  0  0  0  0  0  0  0  0
  127.6760  130.0950   62.9430 C   0  0  0  0  0  0  0  0  0  0  0  0
  126.8690  129.6240   64.0900 C   0  0  0  0  0  0  0  0  0  0  0  0
  125.4730  129.6050   64.0070 C   0  0  0  0  0  0  0  0  0  0  0  0
  124.7130  129.1590   65.0850 C   0  0  0  0  0  0  0  0  0  0  0  0
  125.3500  128.7350   66.2490 C   0  0  0  0  0  0  0  0  0  0  0  0
  126.7390  128.7540   66.3450 C   0  0  0  0  0  0  0  0  0  0  0  0
  127.4980  129.2000   65.2660 C   0  0  0  0  0  0  0  0  0  0  0  0
  128.4890  129.2240   62.1660 C   0  0  0  0  0  0  0  0  0  0  0  0
  128.7480  127.8090   62.2380 C   0  0  0  0  0  0  0  0  0  0  0  0
  128.1700  127.0080   63.1890 N   0  0  0  0  0  0  0  0  0  0  0  0
  128.3800  122.6720   61.6220 C   0  0  0  0  0  0  0  0  0  0  0  0
  128.6360  121.3050   61.5540 C   0  0  0  0  0  0  0  0  0  0  0  0
  1  2  1  0
  2  3  1  0
  3  4  1  0
  4  5  2  0
  4  6  1  0
  6  7  2  0
  7  8  1  0
  8  9  2  0
  9 10  1  0
 10 11  1  0
 11 12  2  0
 11 13  1  0
 13 14  1  0
 14 15  1  0
 15 16  2  0
 16 17  1  0
 17 18  1  0
 17 19  2  0
 19 20  1  0
 20 21  1  0
 21 22  2  0
 22 23  1  0
 23 24  2  0
 24 25  1  0
 25 26  2  0
 20 27  2  0
 27 28  1  0
 28 29  1  0
  9 30  1  0
 30 31  2  0
 31  6  1  0
 28 13  2  0
 27 15  1  0
 26 21  1  0
M  END
>  <Binding energies>  (63) 
[-7.35]

>  <Ligand effiencies>  (63) 
[-0.21617647058823528]

>  <Interactions>  (63) 
["V-B:TYR:539:C:9839, V-B:PRO:540:CA:9855, V-B:GLU:543:CD:9880, V-B:TYR:539:CE2:9848, V-B:PRO:540:C:9853, V-A:SER:385:CB:3409, V-A:HIS:383:CE1:3394, V-B:TYR:539:CB:9843, V-A:LEU:475:CD2:4259, V-B:ALA:541:CA:9862, V-B:TYR:539:CD2:9846, V-A:LEU:475:CD1:4258, V-A:LEU:475:CG:4257, V-B:ALA:541:CB:9864, V-B:HIS:456:CE1:9042, V-B:ARG:545:CZ:9898, V-A:GLU:543:CD:4908, V-A:GLU:543:CG:4907, V-B:TYR:484:CZ:9319, H-A:GLU:543:OE1:4909, H-A:GLU:543:OE2:4910, H-B:GLU:543:OE2:9882, H-B:GLU:543:OE1:9881, V-B:TYR:539:CG:9844, V-A:PRO:540:C:4881, V-B:ARG:545:CG:9894, V-A:ALA:541:CB:4892, V-B:ARG:545:CD:9895"]

$$$$
4eb_Grossjean_2025
     RDKit          3D

 30 33  0  0  0  0  0  0  0  0999 V2000
  131.3460  117.9090   59.7420 C   0  0  0  0  0  0  0  0  0  0  0  0
  131.2380  119.1870   60.3520 O   0  0  0  0  0  0  0  0  0  0  0  0
  130.2250  119.4680   61.2120 C   0  0  0  0  0  0  0  0  0  0  0  0
  129.6260  118.6050   61.8610 O   0  0  0  0  0  0  0  0  0  0  0  0
  129.9060  120.9330   61.2950 C   0  0  0  0  0  0  0  0  0  0  0  0
  130.9480  121.8650   61.2040 C   0  0  0  0  0  0  0  0  0  0  0  0
  130.6850  123.2300   61.2780 C   0  0  0  0  0  0  0  0  0  0  0  0
  129.3780  123.6910   61.4430 C   0  0  0  0  0  0  0  0  0  0  0  0
  129.2310  125.0910   61.5040 N   0  0  0  0  0  0  0  0  0  0  0  0
  130.1220  126.0790   61.2430 C   0  0  0  0  0  0  0  0  0  0  0  0
  131.2850  125.8890   60.8860 O   0  0  0  0  0  0  0  0  0  0  0  0
  129.6120  127.4420   61.4150 C   0  0  0  0  0  0  0  0  0  0  0  0
  130.1900  128.7480   60.3790 S   0  0  0  0  0  0  0  0  0  0  0  0
  129.1640  129.9100   61.1890 C   0  0  0  0  0  0  0  0  0  0  0  0
  129.1400  131.1970   60.8360 N   0  0  0  0  0  0  0  0  0  0  0  0
  128.3030  131.9930   61.5430 C   0  0  0  0  0  0  0  0  0  0  0  0
  128.2920  133.4520   61.1250 C   0  0  0  0  0  0  0  0  0  0  0  0
  127.4960  131.5390   62.5850 C   0  0  0  0  0  0  0  0  0  0  0  0
  127.5250  130.1890   62.9520 C   0  0  0  0  0  0  0  0  0  0  0  0
  126.6610  129.7210   64.0610 C   0  0  0  0  0  0  0  0  0  0  0  0
  127.2340  129.1770   65.2140 C   0  0  0  0  0  0  0  0  0  0  0  0
  126.4230  128.7380   66.2590 C   0  0  0  0  0  0  0  0  0  0  0  0
  125.0380  128.8420   66.1460 C   0  0  0  0  0  0  0  0  0  0  0  0
  124.4590  129.3800   64.9990 C   0  0  0  0  0  0  0  0  0  0  0  0
  125.2710  129.8180   63.9570 C   0  0  0  0  0  0  0  0  0  0  0  0
  128.3910  129.3200   62.2340 C   0  0  0  0  0  0  0  0  0  0  0  0
  128.6660  127.9110   62.3400 C   0  0  0  0  0  0  0  0  0  0  0  0
  128.0490  127.1130   63.2700 N   0  0  0  0  0  0  0  0  0  0  0  0
  128.3280  122.7650   61.5350 C   0  0  0  0  0  0  0  0  0  0  0  0
  128.5930  121.4000   61.4620 C   0  0  0  0  0  0  0  0  0  0  0  0
  1  2  1  0
  2  3  1  0
  3  4  2  0
  3  5  1  0
  5  6  2  0
  6  7  1  0
  7  8  2  0
  8  9  1  0
  9 10  1  0
 10 11  2  0
 10 12  1  0
 12 13  1  0
 13 14  1  0
 14 15  2  0
 15 16  1  0
 16 17  1  0
 16 18  2  0
 18 19  1  0
 19 20  1  0
 20 21  2  0
 21 22  1  0
 22 23  2  0
 23 24  1  0
 24 25  2  0
 19 26  2  0
 26 27  1  0
 27 28  1  0
  8 29  1  0
 29 30  2  0
 30  5  1  0
 27 12  2  0
 26 14  1  0
 25 20  1  0
M  END
>  <Binding energies>  (64) 
[-6.99]

>  <Ligand effiencies>  (64) 
[-0.21181818181818182]

>  <Interactions>  (64) 
["V-B:TYR:539:C:9839, V-B:PRO:540:CA:9855, V-B:GLU:543:CD:9880, V-B:PRO:540:C:9853, V-A:SER:385:CB:3409, V-B:TYR:539:CB:9843, V-A:LEU:475:CD2:4259, V-B:TYR:539:CD2:9846, V-A:LEU:475:CD1:4258, V-B:ALA:541:CB:9864, V-B:HIS:456:CE1:9042, V-B:ARG:545:CZ:9898, V-A:GLU:543:CD:4908, V-B:TYR:484:CZ:9319, H-A:GLU:543:OE1:4909, H-A:GLU:543:OE2:4910, H-B:GLU:543:OE2:9882, H-B:GLU:543:OE1:9881, V-B:ARG:545:CG:9894, V-A:ALA:541:CB:4892, V-B:ARG:545:CD:9895"]

$$$$
8b_Ghoteimi_2023
     RDKit          3D

 34 38  0  0  0  0  0  0  0  0999 V2000
  130.7810  127.2260   73.0050 C   0  0  0  0  0  0  0  0  0  0  0  0
  129.5570  127.5460   72.3520 O   0  0  0  0  0  0  0  0  0  0  0  0
  129.5250  127.6060   70.9720 C   0  0  0  0  0  0  0  0  0  0  0  0
  128.5330  126.8600   70.3390 C   0  0  0  0  0  0  0  0  0  0  0  0
  128.4250  126.8590   68.9520 C   0  0  0  0  0  0  0  0  0  0  0  0
  129.3080  127.6060   68.1600 C   0  0  0  0  0  0  0  0  0  0  0  0
  129.1980  127.6070   66.6680 C   0  0  0  0  0  0  0  0  0  0  0  0
  128.3670  128.5070   65.9920 C   0  0  0  0  0  0  0  0  0  0  0  0
  128.2820  128.4880   64.5960 C   0  0  0  0  0  0  0  0  0  0  0  0
  127.3860  129.4470   63.9110 C   0  0  0  0  0  0  0  0  0  0  0  0
  126.0490  129.1190   63.6810 C   0  0  0  0  0  0  0  0  0  0  0  0
  125.2050  130.0260   63.0450 C   0  0  0  0  0  0  0  0  0  0  0  0
  125.6840  131.2700   62.6300 C   0  0  0  0  0  0  0  0  0  0  0  0
  124.7750  132.1060   62.0100 O   0  0  0  0  0  0  0  0  0  0  0  0
  125.2540  133.1620   61.1840 C   0  0  0  0  0  0  0  0  0  0  0  0
  127.0300  131.5950   62.8590 C   0  0  0  0  0  0  0  0  0  0  0  0
  127.8720  130.6880   63.4950 C   0  0  0  0  0  0  0  0  0  0  0  0
  129.0680  127.5360   63.8920 C   0  0  0  0  0  0  0  0  0  0  0  0
  129.2270  127.2480   62.4900 C   0  0  0  0  0  0  0  0  0  0  0  0
  128.5550  127.9420   61.5170 N   0  0  0  0  0  0  0  0  0  0  0  0
  130.1250  126.2030   62.2230 C   0  0  0  0  0  0  0  0  0  0  0  0
  130.5250  125.6540   60.9260 C   0  0  0  0  0  0  0  0  0  0  0  0
  129.6790  125.2340   60.1320 O   0  0  0  0  0  0  0  0  0  0  0  0
  131.8600  125.6450   60.6850 N   0  0  0  0  0  0  0  0  0  0  0  0
  132.5100  125.1900   59.5460 C   0  0  0  0  0  0  0  0  0  0  0  0
  132.1930  125.6290   58.2610 C   0  0  0  0  0  0  0  0  0  0  0  0
  133.0490  124.9460   57.4280 C   0  0  0  0  0  0  0  0  0  0  0  0
  133.8420  124.1400   58.1710 O   0  0  0  0  0  0  0  0  0  0  0  0
  133.4930  124.3040   59.5130 N   0  0  0  0  0  0  0  0  0  0  0  0
  130.8020  125.5480   63.7160 S   0  0  0  0  0  0  0  0  0  0  0  0
  129.8790  126.6750   64.6840 C   0  0  0  0  0  0  0  0  0  0  0  0
  129.9590  126.6900   66.0140 N   0  0  0  0  0  0  0  0  0  0  0  0
  130.3020  128.3570   68.8030 C   0  0  0  0  0  0  0  0  0  0  0  0
  130.4130  128.3590   70.1910 C   0  0  0  0  0  0  0  0  0  0  0  0
  1  2  1  0
  2  3  1  0
  3  4  2  0
  4  5  1  0
  5  6  2  0
  6  7  1  0
  7  8  2  0
  8  9  1  0
  9 10  1  0
 10 11  2  0
 11 12  1  0
 12 13  2  0
 13 14  1  0
 14 15  1  0
 13 16  1  0
 16 17  2  0
  9 18  2  0
 18 19  1  0
 19 20  1  0
 19 21  2  0
 21 22  1  0
 22 23  2  0
 22 24  1  0
 24 25  1  0
 25 26  1  0
 26 27  2  0
 27 28  1  0
 28 29  1  0
 21 30  1  0
 30 31  1  0
 31 32  2  0
  6 33  1  0
 33 34  2  0
 34  3  1  0
 32  7  1  0
 17 10  1  0
 31 18  1  0
 29 25  2  0
M  END
>  <Binding energies>  (65) 
[-2.89]

>  <Ligand effiencies>  (65) 
[-0.07810810810810812]

>  <Interactions>  (65) 
["V-B:GLU:543:CD:9880, V-A:TYR:484:CZ:4347, V-B:TYR:539:CE2:9848, V-A:HIS:456:CE1:4070, V-A:GLU:543:C:4902, V-B:HIS:456:CE1:9042, V-A:GLY:544:CA:4914, V-B:ARG:545:CZ:9898, V-A:GLU:543:CB:4906, V-A:GLU:543:CD:4908, V-A:GLU:543:CA:4904, V-A:GLY:544:C:4912, V-A:GLU:543:CG:4907, V-A:HIS:456:CG:4066, V-B:LEU:475:CD2:9231, V-A:HIS:456:CD2:4068, H-A:GLU:543:OE1:4909, V-A:ASP:366:CG:3213, V-A:ASP:366:CB:3212, H-A:ASP:366:OD2:3215, V-A:ASP:366:C:3208, H-A:ASP:366:OD1:3214, V-A:ASP:366:CA:3210, V-B:TYR:539:CZ:9849, V-B:GLU:543:CB:9878, V-B:HIS:456:CD2:9040, H-B:TYR:539:OH:9850"]

$$$$
9d_Ghoteimi_2023
     RDKit          3D

 38 43  0  0  0  0  0  0  0  0999 V2000
  123.5140  131.6790   58.1560 C   0  0  0  0  0  0  0  0  0  0  0  0
  124.5270  132.2640   58.9610 O   0  0  0  0  0  0  0  0  0  0  0  0
  124.3090  132.5210   60.2770 C   0  0  0  0  0  0  0  0  0  0  0  0
  123.6620  133.4860   60.6930 O   0  0  0  0  0  0  0  0  0  0  0  0
  124.9340  131.5220   61.1720 C   0  0  0  0  0  0  0  0  0  0  0  0
  125.4170  131.9840   62.8030 S   0  0  0  0  0  0  0  0  0  0  0  0
  125.9770  130.3630   63.1390 C   0  0  0  0  0  0  0  0  0  0  0  0
  126.4720  130.0290   64.3300 N   0  0  0  0  0  0  0  0  0  0  0  0
  126.8640  128.7390   64.4960 C   0  0  0  0  0  0  0  0  0  0  0  0
  127.3920  128.3810   65.8480 C   0  0  0  0  0  0  0  0  0  0  0  0
  126.6150  127.6340   66.7390 C   0  0  0  0  0  0  0  0  0  0  0  0
  127.0960  127.2970   68.0010 C   0  0  0  0  0  0  0  0  0  0  0  0
  128.3810  127.6850   68.4140 C   0  0  0  0  0  0  0  0  0  0  0  0
  128.8720  127.3690   69.6860 N   0  0  0  0  0  0  0  0  0  0  0  0
  129.8580  128.2350   70.3650 C   0  0  0  0  0  0  0  0  0  0  0  0
  130.5400  127.5690   71.5790 C   0  0  0  0  0  0  0  0  0  0  0  0
  129.5610  127.1010   72.4900 O   0  0  0  0  0  0  0  0  0  0  0  0
  128.7120  126.1370   71.8900 C   0  0  0  0  0  0  0  0  0  0  0  0
  127.9730  126.7550   70.6850 C   0  0  0  0  0  0  0  0  0  0  0  0
  129.1500  128.4470   67.5230 C   0  0  0  0  0  0  0  0  0  0  0  0
  128.6660  128.7860   66.2620 C   0  0  0  0  0  0  0  0  0  0  0  0
  126.7910  127.7990   63.4650 C   0  0  0  0  0  0  0  0  0  0  0  0
  126.2890  128.1500   62.2060 C   0  0  0  0  0  0  0  0  0  0  0  0
  126.2590  127.1180   61.1360 C   0  0  0  0  0  0  0  0  0  0  0  0
  126.4120  127.4770   59.7950 C   0  0  0  0  0  0  0  0  0  0  0  0
  126.4020  126.5050   58.7980 C   0  0  0  0  0  0  0  0  0  0  0  0
  126.2560  125.1460   59.1180 C   0  0  0  0  0  0  0  0  0  0  0  0
  126.2330  124.1540   58.1360 N   0  0  0  0  0  0  0  0  0  0  0  0
  124.9500  123.5060   57.7990 C   0  0  0  0  0  0  0  0  0  0  0  0
  124.9900  122.7340   56.4630 C   0  0  0  0  0  0  0  0  0  0  0  0
  126.0470  121.7870   56.4790 O   0  0  0  0  0  0  0  0  0  0  0  0
  127.3090  122.4110   56.6650 C   0  0  0  0  0  0  0  0  0  0  0  0
  127.3260  123.1710   58.0090 C   0  0  0  0  0  0  0  0  0  0  0  0
  126.1020  124.7980   60.4680 C   0  0  0  0  0  0  0  0  0  0  0  0
  126.1100  125.7700   61.4640 C   0  0  0  0  0  0  0  0  0  0  0  0
  125.8340  129.4860   62.0240 C   0  0  0  0  0  0  0  0  0  0  0  0
  125.2170  130.1740   60.9200 C   0  0  0  0  0  0  0  0  0  0  0  0
  124.9120  129.5560   59.7340 N   0  0  0  0  0  0  0  0  0  0  0  0
  1  2  1  0
  2  3  1  0
  3  4  2  0
  3  5  1  0
  5  6  1  0
  6  7  1  0
  7  8  2  0
  8  9  1  0
  9 10  1  0
 10 11  2  0
 11 12  1  0
 12 13  2  0
 13 14  1  0
 14 15  1  0
 15 16  1  0
 16 17  1  0
 17 18  1  0
 18 19  1  0
 13 20  1  0
 20 21  2  0
  9 22  2  0
 22 23  1  0
 23 24  1  0
 24 25  2  0
 25 26  1  0
 26 27  2  0
 27 28  1  0
 28 29  1  0
 29 30  1  0
 30 31  1  0
 31 32  1  0
 32 33  1  0
 27 34  1  0
 34 35  2  0
 23 36  2  0
 36 37  1  0
 37 38  1  0
 37  5  2  0
 36  7  1  0
 21 10  1  0
 35 24  1  0
 19 14  1  0
 33 28  1  0
M  END
>  <Binding energies>  (66) 
[-5.71]

>  <Ligand effiencies>  (66) 
[-0.14275]

>  <Interactions>  (66) 
["V-B:PRO:540:CD:9859, V-B:LEU:363:CD1:8161, V-B:ILE:538:CD1:9837, V-B:PRO:540:CB:9857, V-B:TYR:539:C:9839, V-B:PRO:540:CA:9855, V-B:PRO:540:N:9856, V-B:GLU:543:CD:9880, V-B:TYR:539:CE2:9848, V-B:ILE:538:CG2:9835, V-A:HIS:456:CE1:4070, V-B:ASP:366:CG:8185, V-B:TYR:539:CA:9841, V-B:TYR:539:CD2:9846, V-B:HIS:456:CE1:9042, V-B:ARG:545:CZ:9898, V-A:GLU:543:CB:4906, H-B:TYR:484:OH:9320, V-A:GLU:543:CD:4908, V-A:GLY:544:C:4912, V-B:ILE:369:CD1:8211, V-A:GLU:543:CG:4907, V-A:HIS:456:CG:4066, V-B:LEU:475:CD2:9231, V-A:HIS:456:CD2:4068, V-B:TYR:531:CE2:9765, H-B:ASP:366:OD2:8187, V-B:TYR:539:CG:9844, V-B:ASP:366:CB:8184, V-B:TYR:539:CZ:9849, V-B:TYR:539:CE1:9847, V-B:TYR:539:CD1:9845, H-B:TYR:539:N:9842, V-B:ARG:545:CG:9894, V-A:TYR:539:CE1:4875, V-A:TYR:539:CZ:4877, V-B:ILE:369:CB:8208, V-B:ASP:366:CA:8182, V-B:ILE:369:CG2:8209, V-B:GLU:543:CB:9878, V-B:HIS:456:CD2:9040, H-B:LYS:547:NZ:9923, H-B:ASP:366:OD1:8186"]

$$$$
RR10_Rahimova_2017
     RDKit          3D

 34 38  0  0  0  0  0  0  0  0999 V2000
  133.5390  124.6610   57.9930 C   0  0  0  0  0  0  0  0  0  0  0  0
  133.4480  124.1220   59.4300 C   0  0  1  0  0  0  0  0  0  0  0  0
  132.5880  125.0330   60.3360 C   0  0  0  0  0  0  0  0  0  0  0  0
  132.5400  124.4910   61.7820 C   0  0  0  0  0  0  0  0  0  0  0  0
  131.9870  123.0440   61.8460 C   0  0  1  0  0  0  0  0  0  0  0  0
  130.5620  123.0150   61.4920 N   0  0  0  0  0  0  0  0  0  0  0  0
  129.6760  122.0860   61.8960 C   0  0  0  0  0  0  0  0  0  0  0  0
  129.9770  121.1520   62.6440 O   0  0  0  0  0  0  0  0  0  0  0  0
  128.2340  122.2250   61.3670 C   0  0  1  0  0  0  0  0  0  0  0  0
  127.3520  122.9040   62.4470 C   0  0  0  0  0  0  0  0  0  0  0  0
  125.9280  123.1290   61.8860 C   0  0  0  0  0  0  0  0  0  0  0  0
  125.9360  123.8660   60.5270 C   0  0  0  0  0  0  0  0  0  0  0  0
  126.8530  123.1910   59.5690 N   0  0  0  0  0  0  0  0  0  0  0  0
  126.7190  123.7640   57.8980 S   0  0  0  0  0  0  0  0  0  0  0  0
  125.2930  123.8780   57.5670 O   0  0  0  0  0  0  0  0  0  0  0  0
  127.6070  122.9410   57.0660 O   0  0  0  0  0  0  0  0  0  0  0  0
  127.3770  125.4310   57.9230 C   0  0  0  0  0  0  0  0  0  0  0  0
  126.5040  126.5140   57.7800 C   0  0  0  0  0  0  0  0  0  0  0  0
  126.9540  127.8380   57.7890 C   0  0  0  0  0  0  0  0  0  0  0  0
  128.3280  128.0290   57.9510 C   0  0  0  0  0  0  0  0  0  0  0  0
  129.1350  129.1400   58.0050 N   0  0  0  0  0  0  0  0  0  0  0  0
  130.4350  128.7130   58.1810 C   0  0  0  0  0  0  0  0  0  0  0  0
  131.6100  129.6440   58.2780 C   0  0  0  0  0  0  0  0  0  0  0  0
  131.7360  130.5160   59.3680 C   0  0  0  0  0  0  0  0  0  0  0  0
  132.8260  131.3770   59.4610 C   0  0  0  0  0  0  0  0  0  0  0  0
  133.7970  131.3710   58.4630 C   0  0  0  0  0  0  0  0  0  0  0  0
  133.6870  130.5110   57.3740 C   0  0  0  0  0  0  0  0  0  0  0  0
  132.5960  129.6510   57.2820 C   0  0  0  0  0  0  0  0  0  0  0  0
  130.5180  127.4030   58.2490 N   0  0  0  0  0  0  0  0  0  0  0  0
  129.2320  126.9510   58.1070 C   0  0  0  0  0  0  0  0  0  0  0  0
  128.7520  125.6340   58.0970 C   0  0  0  0  0  0  0  0  0  0  0  0
  128.2460  123.0680   60.0680 C   0  0  0  0  0  0  0  0  0  0  0  0
  132.8500  122.1440   60.9200 C   0  0  0  0  0  0  0  0  0  0  0  0
  132.8940  122.6780   59.4710 C   0  0  0  0  0  0  0  0  0  0  0  0
  2  1  1  6
  2  3  1  0
  3  4  1  0
  4  5  1  0
  5  6  1  6
  6  7  1  0
  7  8  2  0
  9  7  1  1
  9 10  1  0
 10 11  1  0
 11 12  1  0
 12 13  1  0
 13 14  1  0
 14 15  2  0
 14 16  2  0
 14 17  1  0
 17 18  2  0
 18 19  1  0
 19 20  2  0
 20 21  1  0
 21 22  1  0
 22 23  1  0
 23 24  2  0
 24 25  1  0
 25 26  2  0
 26 27  1  0
 27 28  2  0
 22 29  2  0
 29 30  1  0
 30 31  2  0
 13 32  1  0
  5 33  1  0
 33 34  1  0
 34  2  1  0
 32  9  1  0
 31 17  1  0
 30 20  1  0
 28 23  1  0
M  END
>  <Binding energies>  (67) 
[-8.97]

>  <Ligand effiencies>  (67) 
[-0.24916666666666668]

>  <Interactions>  (67) 
["V-B:PRO:540:CB:9857, V-B:PRO:540:CA:9855, V-B:GLU:543:CD:9880, V-A:ILE:369:CD1:3239, V-B:TYR:539:CE2:9848, V-B:PRO:540:C:9853, V-A:LEU:475:CD2:4259, H-A:TYR:484:OH:4348, V-B:TYR:539:CD2:9846, V-B:ALA:541:CB:9864, V-A:ILE:369:CG2:3237, V-A:ASP:366:CG:3213, V-A:ASP:366:CB:3212, V-A:ILE:369:CB:3236, V-A:ASP:366:C:3208, V-A:ASP:366:CA:3210, V-B:GLU:543:CG:9879, H-B:TYR:531:OH:9767, V-A:PRO:540:CA:4883, V-A:PRO:540:CB:4885, V-A:LEU:363:CD1:3189, V-A:LEU:363:CA:3185, V-A:LEU:363:CB:3187"]

$$$$
RR12_Rahimova_2017
     RDKit          3D

 26 28  0  0  0  0  0  0  0  0999 V2000
  133.2280  124.6160   62.5100 C   0  0  0  0  0  0  0  0  0  0  0  0
  134.1440  124.2290   61.3420 C   0  0  0  0  0  0  0  0  0  0  0  0
  133.5320  123.1350   60.4470 C   0  0  0  0  0  0  0  0  0  0  0  0
  132.2940  123.6040   59.8300 N   0  0  0  0  0  0  0  0  0  0  0  0
  130.9970  123.3830   60.2670 C   0  0  0  0  0  0  0  0  0  0  0  0
  130.6440  122.5450   61.4830 C   0  0  0  0  0  0  0  0  0  0  0  0
  129.7630  121.3340   61.1250 C   0  0  0  0  0  0  0  0  0  0  0  0
  128.2830  121.5430   61.4980 C   0  0  0  0  0  0  0  0  0  0  0  0
  127.7200  122.7970   60.9980 N   0  0  0  0  0  0  0  0  0  0  0  0
  126.5410  123.3200   61.3820 C   0  0  0  0  0  0  0  0  0  0  0  0
  125.7990  122.7830   62.2070 O   0  0  0  0  0  0  0  0  0  0  0  0
  126.1620  124.6540   60.7250 C   0  0  0  0  0  0  0  0  0  0  0  0
  126.8910  124.8090   59.5070 O   0  0  0  0  0  0  0  0  0  0  0  0
  126.5790  124.0080   58.4250 C   0  0  0  0  0  0  0  0  0  0  0  0
  125.2270  123.9260   58.0830 C   0  0  0  0  0  0  0  0  0  0  0  0
  124.8160  123.1460   57.0060 C   0  0  0  0  0  0  0  0  0  0  0  0
  125.7610  122.4440   56.2630 C   0  0  0  0  0  0  0  0  0  0  0  0
  127.1130  122.5130   56.5910 C   0  0  0  0  0  0  0  0  0  0  0  0
  127.5230  123.2920   57.6700 C   0  0  0  0  0  0  0  0  0  0  0  0
  130.0910  123.9570   59.5140 N   0  0  0  0  0  0  0  0  0  0  0  0
  130.8010  124.6120   58.5470 C   0  0  0  0  0  0  0  0  0  0  0  0
  130.3290  125.4000   57.4860 C   0  0  0  0  0  0  0  0  0  0  0  0
  131.2650  125.9730   56.6260 C   0  0  0  0  0  0  0  0  0  0  0  0
  132.6340  125.7740   56.8090 C   0  0  0  0  0  0  0  0  0  0  0  0
  133.1350  124.9950   57.8530 C   0  0  0  0  0  0  0  0  0  0  0  0
  132.1950  124.4180   58.7160 C   0  0  0  0  0  0  0  0  0  0  0  0
  1  2  1  0
  2  3  1  0
  3  4  1  0
  4  5  1  0
  5  6  1  0
  6  7  1  0
  7  8  1  0
  8  9  1  0
  9 10  1  0
 10 11  2  0
 10 12  1  0
 12 13  1  0
 13 14  1  0
 14 15  2  0
 15 16  1  0
 16 17  2  0
 17 18  1  0
 18 19  2  0
  5 20  2  0
 20 21  1  0
 21 22  2  0
 22 23  1  0
 23 24  2  0
 24 25  1  0
 25 26  2  0
 26  4  1  0
 19 14  1  0
 26 21  1  0
M  END
>  <Binding energies>  (68) 
[-6.79]

>  <Ligand effiencies>  (68) 
[-0.2514814814814815]

>  <Interactions>  (68) 
["V-B:PRO:540:CD:9859, V-B:LEU:363:CD1:8161, V-B:ILE:538:CD1:9837, V-B:PRO:540:CB:9857, V-A:ARG:545:CZ:4926, V-B:TYR:539:C:9839, V-B:PRO:540:CA:9855, V-B:PRO:540:N:9856, V-A:ILE:369:CD1:3239, V-B:TYR:539:CE2:9848, V-B:ILE:538:CG2:9835, V-B:PRO:540:C:9853, H-B:ALA:541:N:9863, V-B:ALA:541:CA:9862, V-B:TYR:539:CA:9841, V-B:TYR:539:CD2:9846, V-B:ALA:541:CB:9864, V-A:ILE:369:CG2:3237, V-A:ASP:366:CG:3213, V-A:ASP:366:CB:3212, V-A:ASP:366:C:3208, V-A:ASP:366:CA:3210, V-B:TYR:531:CE2:9765, V-B:TYR:531:CZ:9766, V-B:TYR:539:CG:9844, V-B:TYR:539:CZ:9849, V-B:TYR:539:CE1:9847, V-B:TYR:539:CD1:9845, V-B:ILE:538:CA:9832"]

$$$$
RR13_Rahimova_2017
     RDKit          3D

 48 54  0  0  0  0  0  0  0  0999 V2000
  125.7180  123.5790   60.7790 Cl  0  0  0  0  0  0  0  0  0  0  0  0
  126.5180  123.2880   59.2720 C   0  0  0  0  0  0  0  0  0  0  0  0
  125.7330  122.9070   58.1810 C   0  0  0  0  0  0  0  0  0  0  0  0
  126.3180  122.6380   56.9480 C   0  0  0  0  0  0  0  0  0  0  0  0
  127.6980  122.7450   56.7960 C   0  0  0  0  0  0  0  0  0  0  0  0
  128.4890  123.1240   57.8790 C   0  0  0  0  0  0  0  0  0  0  0  0
  127.9150  123.4110   59.1290 C   0  0  0  0  0  0  0  0  0  0  0  0
  128.8160  123.8050   60.3200 C   0  0  1  0  0  0  0  0  0  0  0  0
  130.3010  123.7580   59.9280 C   0  0  0  0  0  0  0  0  0  0  0  0
  130.8620  124.3600   58.9040 N   0  0  0  0  0  0  0  0  0  0  0  0
  132.2070  124.0050   58.9420 N   0  0  0  0  0  0  0  0  0  0  0  0
  132.4430  123.1560   60.0060 N   0  0  0  0  0  0  0  0  0  0  0  0
  131.2470  122.9990   60.5840 N   0  0  0  0  0  0  0  0  0  0  0  0
  131.1100  122.1830   61.7840 C   0  0  0  0  0  0  0  0  0  0  0  0
  129.9010  121.2380   61.6520 C   0  0  0  0  0  0  0  0  0  0  0  0
  130.2990  119.8650   61.1330 C   0  0  0  0  0  0  0  0  0  0  0  0
  129.5790  118.7340   61.5280 C   0  0  0  0  0  0  0  0  0  0  0  0
  129.9490  117.4760   61.0590 C   0  0  0  0  0  0  0  0  0  0  0  0
  131.0370  117.3540   60.1960 C   0  0  0  0  0  0  0  0  0  0  0  0
  131.7590  118.4780   59.8000 C   0  0  0  0  0  0  0  0  0  0  0  0
  131.3900  119.7360   60.2690 C   0  0  0  0  0  0  0  0  0  0  0  0
  128.4380  125.0950   60.9450 N   0  0  0  0  0  0  0  0  0  0  0  0
  127.8930  126.0200   59.9340 C   0  0  0  0  0  0  0  0  0  0  0  0
  127.3730  127.3160   60.5990 C   0  0  0  0  0  0  0  0  0  0  0  0
  128.4670  128.0180   61.2910 N   0  0  0  0  0  0  0  0  0  0  0  0
  128.0310  129.3090   61.8740 C   0  0  1  0  0  0  0  0  0  0  0  0
  127.3980  129.2250   63.2800 C   0  0  0  0  0  0  0  0  0  0  0  0
  128.2730  129.1430   64.3720 C   0  0  0  0  0  0  0  0  0  0  0  0
  127.7900  129.0810   65.6790 C   0  0  0  0  0  0  0  0  0  0  0  0
  126.4180  129.0930   65.9130 C   0  0  0  0  0  0  0  0  0  0  0  0
  125.5320  129.1570   64.8420 C   0  0  0  0  0  0  0  0  0  0  0  0
  126.0050  129.2160   63.5280 C   0  0  0  0  0  0  0  0  0  0  0  0
  124.8230  129.2230   62.2630 Cl  0  0  0  0  0  0  0  0  0  0  0  0
  129.1260  130.3780   61.8540 C   0  0  0  0  0  0  0  0  0  0  0  0
  129.1470  131.4610   62.5950 N   0  0  0  0  0  0  0  0  0  0  0  0
  130.3220  132.1280   62.2640 N   0  0  0  0  0  0  0  0  0  0  0  0
  131.0210  131.4130   61.3140 N   0  0  0  0  0  0  0  0  0  0  0  0
  130.2740  130.3250   61.0910 N   0  0  0  0  0  0  0  0  0  0  0  0
  130.7010  129.3340   60.1090 C   0  0  0  0  0  0  0  0  0  0  0  0
  130.0020  129.5780   58.7600 C   0  0  0  0  0  0  0  0  0  0  0  0
  130.7570  130.5740   57.8930 C   0  0  0  0  0  0  0  0  0  0  0  0
  132.1460  130.4790   57.7710 C   0  0  0  0  0  0  0  0  0  0  0  0
  132.8370  131.3860   56.9720 C   0  0  0  0  0  0  0  0  0  0  0  0
  132.1370  132.3850   56.2980 C   0  0  0  0  0  0  0  0  0  0  0  0
  130.7510  132.4840   56.4160 C   0  0  0  0  0  0  0  0  0  0  0  0
  130.0600  131.5770   57.2140 C   0  0  0  0  0  0  0  0  0  0  0  0
  129.0050  127.0930   62.3040 C   0  0  0  0  0  0  0  0  0  0  0  0
  129.5320  125.8030   61.6330 C   0  0  0  0  0  0  0  0  0  0  0  0
  1  2  1  0
  2  3  2  0
  3  4  1  0
  4  5  2  0
  5  6  1  0
  6  7  2  0
  7  8  1  0
  8  9  1  0
  9 10  2  0
 10 11  1  0
 11 12  2  0
 12 13  1  0
 13 14  1  0
 14 15  1  0
 15 16  1  0
 16 17  2  0
 17 18  1  0
 18 19  2  0
 19 20  1  0
 20 21  2  0
  8 22  1  6
 22 23  1  0
 23 24  1  0
 24 25  1  0
 26 25  1  1
 26 27  1  0
 27 28  2  0
 28 29  1  0
 29 30  2  0
 30 31  1  0
 31 32  2  0
 32 33  1  0
 26 34  1  0
 34 35  2  0
 35 36  1  0
 36 37  2  0
 37 38  1  0
 38 39  1  0
 39 40  1  0
 40 41  1  0
 41 42  2  0
 42 43  1  0
 43 44  2  0
 44 45  1  0
 45 46  2  0
 25 47  1  0
 47 48  1  0
  7  2  1  0
 13  9  1  0
 21 16  1  0
 48 22  1  0
 32 27  1  0
 38 34  1  0
 46 41  1  0
M  END
>  <Binding energies>  (69) 
[-12.01]

>  <Ligand effiencies>  (69) 
[-0.2502083333333333]

>  <Interactions>  (69) 
["V-B:PRO:540:CD:9859, V-B:PRO:540:CB:9857, V-B:TYR:539:C:9839, V-B:PRO:540:CA:9855, V-B:PRO:540:N:9856, V-B:TYR:539:CE2:9848, V-A:SER:385:CB:3409, V-B:ASP:366:CG:8185, V-A:PRO:482:CG:4327, V-A:PRO:482:CB:4326, V-A:LEU:475:CD2:4259, V-B:TYR:539:CD2:9846, V-A:LEU:475:CD1:4258, V-B:ALA:541:CB:9864, V-B:HIS:456:CE1:9042, V-B:ARG:545:CZ:9898, V-A:GLU:543:CB:4906, V-A:GLU:543:CD:4908, V-A:GLU:543:CG:4907, V-B:TYR:484:CZ:9319, V-B:TYR:539:CG:9844, V-B:TYR:539:CZ:9849, V-B:TYR:539:CE1:9847, V-B:TYR:539:CD1:9845, V-A:PRO:540:CA:4883, V-A:PRO:540:CB:4885, V-A:PRO:540:N:4884, H-A:ALA:541:N:4891, V-A:LEU:363:CD1:3189, V-A:PRO:540:CG:4886, V-A:TYR:539:C:4867, H-B:TYR:539:OH:9850, V-A:PRO:540:CD:4887"]

$$$$
RR14_Rahimova_2017
     RDKit          3D

 39 43  0  0  0  0  0  0  0  0999 V2000
  131.1620  117.1220   59.5690 C   0  0  0  0  0  0  0  0  0  0  0  0
  130.9540  117.8680   60.7630 O   0  0  0  0  0  0  0  0  0  0  0  0
  130.9910  119.2480   60.7090 C   0  0  0  0  0  0  0  0  0  0  0  0
  132.1220  119.8190   60.1240 C   0  0  0  0  0  0  0  0  0  0  0  0
  132.2580  121.2010   60.0470 C   0  0  0  0  0  0  0  0  0  0  0  0
  131.2590  122.0310   60.5620 C   0  0  0  0  0  0  0  0  0  0  0  0
  131.4350  123.5450   60.5390 C   0  0  0  0  0  0  0  0  0  0  0  0
  132.5090  124.0160   61.4130 N   0  0  0  0  0  0  0  0  0  0  0  0
  133.7620  123.5810   61.2400 N   0  0  0  0  0  0  0  0  0  0  0  0
  134.4890  124.1980   62.2400 N   0  0  0  0  0  0  0  0  0  0  0  0
  133.6540  124.9980   63.0130 N   0  0  0  0  0  0  0  0  0  0  0  0
  132.4550  124.8660   62.4970 C   0  0  0  0  0  0  0  0  0  0  0  0
  131.1950  125.5380   63.0230 C   0  0  0  0  0  0  0  0  0  0  0  0
  130.0840  125.4850   62.0590 N   0  0  0  0  0  0  0  0  0  0  0  0
  129.1780  124.3600   62.3260 C   0  0  0  0  0  0  0  0  0  0  0  0
  127.8090  124.4960   61.6250 C   0  0  0  0  0  0  0  0  0  0  0  0
  127.4630  123.3080   60.7030 C   0  0  0  0  0  0  0  0  0  0  0  0
  127.4910  123.6520   59.2780 N   0  0  0  0  0  0  0  0  0  0  0  0
  127.5870  122.4350   58.4610 C   0  0  0  0  0  0  0  0  0  0  0  0
  127.6700  122.7650   56.9560 C   0  0  0  0  0  0  0  0  0  0  0  0
  128.7450  123.6660   56.7110 O   0  0  0  0  0  0  0  0  0  0  0  0
  128.5930  124.8920   57.4170 C   0  0  0  0  0  0  0  0  0  0  0  0
  128.5390  124.6260   58.9370 C   0  0  0  0  0  0  0  0  0  0  0  0
  129.3440  126.7550   62.0690 C   0  0  0  0  0  0  0  0  0  0  0  0
  129.8400  127.8290   61.1030 C   0  0  0  0  0  0  0  0  0  0  0  0
  129.1890  129.0110   60.9770 C   0  0  0  0  0  0  0  0  0  0  0  0
  129.6240  130.0500   60.0220 C   0  0  0  0  0  0  0  0  0  0  0  0
  128.9860  131.2940   59.8800 C   0  0  0  0  0  0  0  0  0  0  0  0
  127.7730  131.6690   60.7200 C   0  0  0  0  0  0  0  0  0  0  0  0
  129.4800  132.2090   58.9460 C   0  0  0  0  0  0  0  0  0  0  0  0
  130.5910  131.8980   58.1630 C   0  0  0  0  0  0  0  0  0  0  0  0
  131.2340  130.6640   58.2990 C   0  0  0  0  0  0  0  0  0  0  0  0
  132.4470  130.3540   57.4310 C   0  0  0  0  0  0  0  0  0  0  0  0
  130.7470  129.7370   59.2340 C   0  0  0  0  0  0  0  0  0  0  0  0
  131.3610  128.4790   59.4030 N   0  0  0  0  0  0  0  0  0  0  0  0
  130.9970  127.4970   60.2660 C   0  0  0  0  0  0  0  0  0  0  0  0
  131.6170  126.4350   60.2990 O   0  0  0  0  0  0  0  0  0  0  0  0
  130.1100  121.4700   61.1220 C   0  0  0  0  0  0  0  0  0  0  0  0
  129.9760  120.0870   61.1990 C   0  0  0  0  0  0  0  0  0  0  0  0
  1  2  1  0
  2  3  1  0
  3  4  2  0
  4  5  1  0
  5  6  2  0
  6  7  1  0
  7  8  1  0
  8  9  1  0
  9 10  2  0
 10 11  1  0
 11 12  2  0
 12 13  1  0
 13 14  1  0
 14 15  1  0
 15 16  1  0
 16 17  1  0
 17 18  1  0
 18 19  1  0
 19 20  1  0
 20 21  1  0
 21 22  1  0
 22 23  1  0
 14 24  1  0
 24 25  1  0
 25 26  2  0
 26 27  1  0
 27 28  2  0
 28 29  1  0
 28 30  1  0
 30 31  2  0
 31 32  1  0
 32 33  1  0
 32 34  2  0
 34 35  1  0
 35 36  1  0
 36 37  2  0
  6 38  1  0
 38 39  2  0
 39  3  1  0
 12  8  1  0
 23 18  1  0
 36 25  1  0
 34 27  1  0
M  END
>  <Binding energies>  (70) 
[-8.08]

>  <Ligand effiencies>  (70) 
[-0.202]

>  <Interactions>  (70) 
["V-B:TYR:539:C:9839, V-B:PRO:540:CA:9855, V-B:PRO:540:N:9856, V-B:GLU:543:CD:9880, V-B:TYR:539:CE2:9848, V-A:SER:385:CB:3409, V-B:TYR:539:CB:9843, V-A:LEU:475:CD2:4259, H-A:TYR:484:OH:4348, V-B:TYR:539:CD2:9846, V-A:LEU:475:CG:4257, V-B:ALA:541:CB:9864, H-A:ARG:545:NH1:4927, H-A:GLY:454:N:4050, V-A:ILE:369:CG2:3237, H-A:ARG:545:NH2:4928, V-A:ASP:366:CG:3213, V-A:ASP:366:CB:3212, H-A:ASP:366:OD1:3214, V-B:TYR:539:CG:9844, V-B:TYR:539:CZ:9849, V-B:TYR:539:CE1:9847, V-B:TYR:539:CD1:9845, V-B:MET:535:CE:9807, V-A:PRO:540:CA:4883, V-A:PRO:540:CB:4885, V-A:PRO:540:N:4884, V-A:TYR:539:C:4867, H-B:TYR:539:OH:9850"]

$$$$
RR15_Rahimova_2017
     RDKit          3D

 45 49  0  0  0  0  0  0  0  0999 V2000
  132.5110  132.1810   56.4910 C   0  0  0  0  0  0  0  0  0  0  0  0
  132.3690  131.5420   57.7560 O   0  0  0  0  0  0  0  0  0  0  0  0
  131.4610  130.5070   57.8980 C   0  0  0  0  0  0  0  0  0  0  0  0
  131.3440  129.4450   56.9880 C   0  0  0  0  0  0  0  0  0  0  0  0
  130.4060  128.4350   57.1890 C   0  0  0  0  0  0  0  0  0  0  0  0
  129.5580  128.4570   58.3010 C   0  0  0  0  0  0  0  0  0  0  0  0
  128.5410  127.3700   58.5150 C   0  0  0  0  0  0  0  0  0  0  0  0
  127.2490  127.5330   58.2670 N   0  0  0  0  0  0  0  0  0  0  0  0
  126.6440  126.3360   58.5900 N   0  0  0  0  0  0  0  0  0  0  0  0
  127.6620  125.5600   58.9640 N   0  0  0  0  0  0  0  0  0  0  0  0
  127.4530  124.2370   59.5490 C   0  0  0  0  0  0  0  0  0  0  0  0
  127.2180  124.2340   61.0800 C   0  0  0  0  0  0  0  0  0  0  0  0
  126.0550  124.2620   61.4910 O   0  0  0  0  0  0  0  0  0  0  0  0
  128.2890  124.1690   61.9300 N   0  0  0  0  0  0  0  0  0  0  0  0
  128.9490  122.8840   62.2360 C   0  0  0  0  0  0  0  0  0  0  0  0
  129.4340  122.1250   60.9820 C   0  0  0  0  0  0  0  0  0  0  0  0
  130.6620  121.2120   61.2110 C   0  0  0  0  0  0  0  0  0  0  0  0
  130.5690  119.9170   60.5310 N   0  0  0  0  0  0  0  0  0  0  0  0
  131.8570  119.4290   60.0160 C   0  0  0  0  0  0  0  0  0  0  0  0
  131.7200  118.0260   59.3870 C   0  0  0  0  0  0  0  0  0  0  0  0
  131.1370  117.1240   60.3210 O   0  0  0  0  0  0  0  0  0  0  0  0
  129.8430  117.5410   60.7430 C   0  0  0  0  0  0  0  0  0  0  0  0
  129.9300  118.9300   61.4120 C   0  0  0  0  0  0  0  0  0  0  0  0
  128.9940  125.3770   62.4580 C   0  0  2  0  0  0  0  0  0  0  0  0
  128.3630  126.7310   62.0060 C   0  0  0  0  0  0  0  0  0  0  0  0
  129.0500  127.6120   61.4900 O   0  0  0  0  0  0  0  0  0  0  0  0
  127.0340  126.8410   62.1830 N   0  0  0  0  0  0  0  0  0  0  0  0
  126.2150  127.9650   61.7450 C   0  0  0  0  0  0  0  0  0  0  0  0
  126.4170  129.1890   62.6580 C   0  0  2  0  0  0  0  0  0  0  0  0
  125.9100  129.0260   64.1020 C   0  0  0  0  0  0  0  0  0  0  0  0
  124.5900  129.7590   64.1250 C   0  0  0  0  0  0  0  0  0  0  0  0
  124.8560  130.8860   63.1420 C   0  0  0  0  0  0  0  0  0  0  0  0
  125.5930  130.2310   62.1160 O   0  0  0  0  0  0  0  0  0  0  0  0
  130.5040  125.2240   62.3140 C   0  0  0  0  0  0  0  0  0  0  0  0
  131.3010  125.4550   63.4420 C   0  0  0  0  0  0  0  0  0  0  0  0
  132.6850  125.3310   63.3690 C   0  0  0  0  0  0  0  0  0  0  0  0
  133.2840  124.9720   62.1650 C   0  0  0  0  0  0  0  0  0  0  0  0
  134.6290  124.8500   62.0950 F   0  0  0  0  0  0  0  0  0  0  0  0
  132.5080  124.7370   61.0340 C   0  0  0  0  0  0  0  0  0  0  0  0
  131.1240  124.8620   61.1070 C   0  0  0  0  0  0  0  0  0  0  0  0
  128.8530  126.1720   58.9730 N   0  0  0  0  0  0  0  0  0  0  0  0
  129.6790  129.5170   59.2090 C   0  0  0  0  0  0  0  0  0  0  0  0
  130.6220  130.5420   59.0220 C   0  0  0  0  0  0  0  0  0  0  0  0
  130.7810  131.6070   59.8910 O   0  0  0  0  0  0  0  0  0  0  0  0
  130.7080  131.3850   61.2950 C   0  0  0  0  0  0  0  0  0  0  0  0
  1  2  1  0
  2  3  1  0
  3  4  2  0
  4  5  1  0
  5  6  2  0
  6  7  1  0
  7  8  1  0
  8  9  2  0
  9 10  1  0
 10 11  1  0
 11 12  1  0
 12 13  2  0
 12 14  1  0
 14 15  1  0
 15 16  1  0
 16 17  1  0
 17 18  1  0
 18 19  1  0
 19 20  1  0
 20 21  1  0
 21 22  1  0
 22 23  1  0
 24 14  1  6
 24 25  1  0
 25 26  2  0
 25 27  1  0
 27 28  1  0
 29 28  1  6
 29 30  1  0
 30 31  1  0
 31 32  1  0
 32 33  1  0
 24 34  1  0
 34 35  2  0
 35 36  1  0
 36 37  2  0
 37 38  1  0
 37 39  1  0
 39 40  2  0
 10 41  1  0
  6 42  1  0
 42 43  2  0
 43 44  1  0
 44 45  1  0
 43  3  1  0
 41  7  2  0
 23 18  1  0
 33 29  1  0
 40 34  1  0
M  END
>  <Binding energies>  (71) 
[-6.35]

>  <Ligand effiencies>  (71) 
[-0.13804347826086955]

>  <Interactions>  (71) 
["V-A:ARG:545:CZ:4926, V-B:TYR:539:C:9839, V-B:GLU:543:CD:9880, V-A:ILE:369:CD1:3239, V-A:TYR:484:CZ:4347, V-B:TYR:539:CE2:9848, V-A:SER:385:CB:3409, V-B:ASP:366:CG:8185, V-A:PRO:482:CG:4327, V-A:PRO:482:CB:4326, V-B:TYR:539:CB:9843, V-A:LEU:475:CD2:4259, V-B:TYR:539:CD2:9846, V-A:LEU:475:CD1:4258, V-A:LEU:475:CG:4257, V-B:ALA:541:CB:9864, V-B:ARG:545:CZ:9898, V-A:GLU:543:CD:4908, V-A:ASP:366:CG:3213, V-A:GLY:453:CA:4044, V-A:GLY:453:C:4042, H-B:GLU:543:OE2:9882, H-B:GLU:543:OE1:9881, V-B:TYR:539:CG:9844, H-B:TYR:531:OH:9767, H-B:ARG:545:NH2:9900, V-A:PRO:540:CA:4883, V-A:PRO:540:CB:4885, V-A:PRO:540:N:4884, H-A:ALA:541:N:4891, V-A:LEU:363:CD1:3189, V-A:PRO:540:CG:4886, V-A:PRO:540:CD:4887, H-A:SER:385:OG:3410"]

$$$$
RR17_Rahimova_2017
     RDKit          3D

 38 41  0  0  0  0  0  0  0  0999 V2000
  130.6440  119.1750   60.6930 C   0  0  0  0  0  0  0  0  0  0  0  0
  131.6010  120.3410   60.4270 C   0  0  0  0  0  0  0  0  0  0  0  0
  131.2700  121.4140   61.3040 O   0  0  0  0  0  0  0  0  0  0  0  0
  129.9530  121.8230   61.4070 C   0  0  0  0  0  0  0  0  0  0  0  0
  129.3010  122.1290   60.2140 C   0  0  0  0  0  0  0  0  0  0  0  0
  127.9750  122.5500   60.2180 C   0  0  0  0  0  0  0  0  0  0  0  0
  127.2710  122.6770   61.4240 C   0  0  0  0  0  0  0  0  0  0  0  0
  125.8410  123.1330   61.3980 C   0  0  0  0  0  0  0  0  0  0  0  0
  124.9830  122.6660   62.1530 O   0  0  0  0  0  0  0  0  0  0  0  0
  125.4690  124.2170   60.3610 C   0  0  0  0  0  0  0  0  0  0  0  0
  124.9030  123.4930   58.7800 S   0  0  0  0  0  0  0  0  0  0  0  0
  126.4290  123.4920   57.8820 C   0  0  0  0  0  0  0  0  0  0  0  0
  126.8820  122.4980   57.1550 N   0  0  0  0  0  0  0  0  0  0  0  0
  128.0990  122.8890   56.6100 N   0  0  0  0  0  0  0  0  0  0  0  0
  128.3330  124.1080   57.0260 C   0  0  0  0  0  0  0  0  0  0  0  0
  129.5610  124.9270   56.6540 C   0  0  0  0  0  0  0  0  0  0  0  0
  130.1050  125.7100   57.7600 N   0  0  0  0  0  0  0  0  0  0  0  0
  130.9800  125.1880   58.7300 C   0  0  0  0  0  0  0  0  0  0  0  0
  132.1310  124.5440   58.2760 C   0  0  0  0  0  0  0  0  0  0  0  0
  133.0370  124.0000   59.1820 C   0  0  0  0  0  0  0  0  0  0  0  0
  132.8030  124.0980   60.5570 C   0  0  0  0  0  0  0  0  0  0  0  0
  133.8050  123.4900   61.5380 C   0  0  0  0  0  0  0  0  0  0  0  0
  134.8440  124.2960   61.7640 F   0  0  0  0  0  0  0  0  0  0  0  0
  133.2160  123.2400   62.7080 F   0  0  0  0  0  0  0  0  0  0  0  0
  134.2660  122.3440   61.0370 F   0  0  0  0  0  0  0  0  0  0  0  0
  131.6540  124.7510   61.0140 C   0  0  0  0  0  0  0  0  0  0  0  0
  130.7490  125.2950   60.1080 C   0  0  0  0  0  0  0  0  0  0  0  0
  127.3170  124.5480   57.8480 N   0  0  0  0  0  0  0  0  0  0  0  0
  127.1990  125.7960   58.4780 C   0  0  0  0  0  0  0  0  0  0  0  0
  126.5080  126.8260   57.8400 C   0  0  0  0  0  0  0  0  0  0  0  0
  126.3950  128.0650   58.4630 C   0  0  0  0  0  0  0  0  0  0  0  0
  126.9710  128.2780   59.7260 C   0  0  0  0  0  0  0  0  0  0  0  0
  126.9090  129.4720   60.4190 O   0  0  0  0  0  0  0  0  0  0  0  0
  125.8780  129.6630   61.3830 C   0  0  0  0  0  0  0  0  0  0  0  0
  127.6610  127.2350   60.3490 C   0  0  0  0  0  0  0  0  0  0  0  0
  127.7770  125.9930   59.7320 C   0  0  0  0  0  0  0  0  0  0  0  0
  127.9280  122.3690   62.6240 C   0  0  0  0  0  0  0  0  0  0  0  0
  129.2550  121.9460   62.6170 C   0  0  0  0  0  0  0  0  0  0  0  0
  1  2  1  0
  2  3  1  0
  3  4  1  0
  4  5  2  0
  5  6  1  0
  6  7  2  0
  7  8  1  0
  8  9  2  0
  8 10  1  0
 10 11  1  0
 11 12  1  0
 12 13  2  0
 13 14  1  0
 14 15  2  0
 15 16  1  0
 16 17  1  0
 17 18  1  0
 18 19  2  0
 19 20  1  0
 20 21  2  0
 21 22  1  0
 22 23  1  0
 22 24  1  0
 22 25  1  0
 21 26  1  0
 26 27  2  0
 15 28  1  0
 28 29  1  0
 29 30  2  0
 30 31  1  0
 31 32  2  0
 32 33  1  0
 33 34  1  0
 32 35  1  0
 35 36  2  0
  7 37  1  0
 37 38  2  0
 38  4  1  0
 28 12  1  0
 36 29  1  0
 27 18  1  0
M  END
>  <Binding energies>  (72) 
[-6.59]

>  <Ligand effiencies>  (72) 
[-0.16897435897435897]

>  <Interactions>  (72) 
["V-B:PRO:540:CB:9857, V-B:TYR:539:C:9839, V-B:PRO:540:CA:9855, V-B:PRO:540:N:9856, V-B:GLU:543:CD:9880, V-A:ILE:369:CD1:3239, V-A:TYR:484:CZ:4347, V-B:TYR:539:CE2:9848, V-B:PRO:540:C:9853, H-B:ALA:541:N:9863, V-B:ASP:366:CG:8185, V-A:LEU:475:CD2:4259, H-A:TYR:484:OH:4348, V-B:ALA:541:CA:9862, V-B:TYR:539:CD2:9846, V-B:ALA:541:CB:9864, V-A:GLY:454:CA:4049, V-A:ILE:369:CG2:3237, V-A:ASP:366:CG:3213, V-A:ILE:369:CB:3236, V-A:GLY:453:CA:4044, V-A:GLY:453:C:4042, V-B:GLU:543:CG:9879, V-A:TYR:484:CE1:4345, V-A:ILE:369:CG1:3238, V-B:TYR:539:CZ:9849, V-B:MET:535:CE:9807, H-B:TYR:539:N:9842"]

$$$$
RR19_Rahimova_2017
     RDKit          3D

 46 51  0  0  0  0  0  0  0  0999 V2000
  129.0490  124.9280   59.0590 O   0  0  0  0  0  0  0  0  0  0  0  0
  129.7310  125.7920   59.6170 C   0  0  0  0  0  0  0  0  0  0  0  0
  129.3030  127.0250   59.9920 N   0  0  0  0  0  0  0  0  0  0  0  0
  128.0580  127.5950   60.0860 C   0  0  0  0  0  0  0  0  0  0  0  0
  126.5850  126.7680   59.9690 S   0  0  0  0  0  0  0  0  0  0  0  0
  128.2060  128.9440   60.2920 N   0  0  0  0  0  0  0  0  0  0  0  0
  127.3290  129.9350   60.5900 C   0  0  0  0  0  0  0  0  0  0  0  0
  126.1520  129.7930   60.9330 O   0  0  0  0  0  0  0  0  0  0  0  0
  127.9180  131.3610   60.4460 C   0  0  2  0  0  0  0  0  0  0  0  0
  127.2040  132.2590   59.3950 C   0  0  0  0  0  0  0  0  0  0  0  0
  126.1090  131.5740   58.5940 C   0  0  0  0  0  0  0  0  0  0  0  0
  124.7520  131.7050   58.9620 C   0  0  0  0  0  0  0  0  0  0  0  0
  123.7600  131.1380   58.1740 C   0  0  0  0  0  0  0  0  0  0  0  0
  124.0950  130.4540   57.0110 C   0  0  0  0  0  0  0  0  0  0  0  0
  125.4230  130.3420   56.6210 C   0  0  0  0  0  0  0  0  0  0  0  0
  126.4300  130.9040   57.3940 C   0  0  0  0  0  0  0  0  0  0  0  0
  129.3890  131.3170   60.2180 N   0  0  0  0  0  0  0  0  0  0  0  0
  129.9090  130.9690   59.0070 C   0  0  0  0  0  0  0  0  0  0  0  0
  129.2880  130.6330   57.9960 O   0  0  0  0  0  0  0  0  0  0  0  0
  131.3800  131.0850   59.1590 C   0  0  0  0  0  0  0  0  0  0  0  0
  132.4150  130.8490   58.2520 C   0  0  0  0  0  0  0  0  0  0  0  0
  133.7340  131.0500   58.6740 C   0  0  0  0  0  0  0  0  0  0  0  0
  133.9990  131.4810   59.9810 C   0  0  0  0  0  0  0  0  0  0  0  0
  132.9470  131.7120   60.8750 C   0  0  0  0  0  0  0  0  0  0  0  0
  131.6400  131.5040   60.4350 C   0  0  0  0  0  0  0  0  0  0  0  0
  130.3410  131.6700   61.1330 C   0  0  0  0  0  0  0  0  0  0  0  0
  130.1630  132.0540   62.2900 O   0  0  0  0  0  0  0  0  0  0  0  0
  131.2230  125.5060   59.9320 C   0  0  2  0  0  0  0  0  0  0  0  0
  131.7940  124.2580   59.1990 C   0  0  0  0  0  0  0  0  0  0  0  0
  131.5140  122.9450   59.9080 C   0  0  0  0  0  0  0  0  0  0  0  0
  130.2140  122.6570   60.3760 C   0  0  0  0  0  0  0  0  0  0  0  0
  129.9370  121.4140   60.9330 C   0  0  0  0  0  0  0  0  0  0  0  0
  130.9260  120.4430   61.0070 C   0  0  0  0  0  0  0  0  0  0  0  0
  132.2000  120.6990   60.5140 C   0  0  0  0  0  0  0  0  0  0  0  0
  132.4980  121.9350   59.9540 C   0  0  0  0  0  0  0  0  0  0  0  0
  131.5220  125.4660   61.3920 N   0  0  0  0  0  0  0  0  0  0  0  0
  132.7740  125.2010   61.8610 C   0  0  0  0  0  0  0  0  0  0  0  0
  133.7820  124.9520   61.1980 O   0  0  0  0  0  0  0  0  0  0  0  0
  132.6650  125.2770   63.3390 C   0  0  0  0  0  0  0  0  0  0  0  0
  133.6220  125.0900   64.3370 C   0  0  0  0  0  0  0  0  0  0  0  0
  133.2320  125.2290   65.6740 C   0  0  0  0  0  0  0  0  0  0  0  0
  131.9060  125.5520   65.9930 C   0  0  0  0  0  0  0  0  0  0  0  0
  130.9610  125.7370   64.9770 C   0  0  0  0  0  0  0  0  0  0  0  0
  131.3700  125.5920   63.6500 C   0  0  0  0  0  0  0  0  0  0  0  0
  130.6160  125.7260   62.3810 C   0  0  0  0  0  0  0  0  0  0  0  0
  129.4260  126.0120   62.2470 O   0  0  0  0  0  0  0  0  0  0  0  0
  1  2  2  0
  2  3  1  0
  3  4  1  0
  4  5  2  0
  4  6  1  0
  6  7  1  0
  7  8  2  0
  7  9  1  0
  9 10  1  6
 10 11  1  0
 11 12  2  0
 12 13  1  0
 13 14  2  0
 14 15  1  0
 15 16  2  0
  9 17  1  0
 17 18  1  0
 18 19  2  0
 18 20  1  0
 20 21  2  0
 21 22  1  0
 22 23  2  0
 23 24  1  0
 24 25  2  0
 25 26  1  0
 26 27  2  0
  2 28  1  0
 28 29  1  1
 29 30  1  0
 30 31  2  0
 31 32  1  0
 32 33  2  0
 33 34  1  0
 34 35  2  0
 28 36  1  0
 36 37  1  0
 37 38  2  0
 37 39  1  0
 39 40  2  0
 40 41  1  0
 41 42  2  0
 42 43  1  0
 43 44  2  0
 44 45  1  0
 45 46  2  0
 16 11  1  0
 26 17  1  0
 35 30  1  0
 45 36  1  0
 25 20  1  0
 44 39  1  0
M  END
>  <Binding energies>  (73) 
[-9.17]

>  <Ligand effiencies>  (73) 
[-0.19104166666666667]

>  <Interactions>  (73) 
["V-A:ARG:545:CD:4923, V-A:ARG:545:CZ:4926, V-A:TYR:484:CZ:4347, V-A:TYR:484:CE2:4346, V-B:TYR:539:CE2:9848, V-A:ARG:545:CG:4922, V-A:HIS:456:CE1:4070, V-B:ASP:366:CG:8185, V-A:LEU:475:CD2:4259, V-B:TYR:539:CD2:9846, V-A:GLU:543:CD:4908, H-A:GLU:543:OE1:4909, V-A:GLY:454:CA:4049, V-A:ILE:369:CG2:3237, H-A:ARG:545:NH2:4928, V-A:ASP:366:CG:3213, V-A:ASP:366:CB:3212, V-A:GLY:453:CA:4044, V-A:GLY:453:C:4042, V-B:ASP:366:CB:8184, V-A:PRO:540:CA:4883, V-A:PRO:540:CB:4885, V-A:PRO:540:C:4881, H-A:ALA:541:N:4891, V-A:ASN:362:CB:3176, V-A:ALA:541:CB:4892, V-A:LEU:363:CD1:3189, V-A:LEU:363:CA:3185, V-A:TYR:539:CD1:4873, V-A:TYR:539:CE1:4875, V-A:LEU:363:CB:3187, V-B:TYR:531:CE1:9764, V-A:TYR:539:CZ:4877, V-B:ILE:369:CB:8208, V-B:ASP:366:C:8180, V-B:ASP:366:CA:8182, V-B:ILE:369:CG2:8209, V-A:ASN:362:C:3172, V-A:ASN:362:CA:3174"]

$$$$
RR1_Rahimova_2017
     RDKit          3D

 41 44  0  0  0  0  0  0  0  0999 V2000
  133.9680  130.1230   56.9630 C   0  0  0  0  0  0  0  0  0  0  0  0
  133.9340  131.1830   57.9110 O   0  0  0  0  0  0  0  0  0  0  0  0
  132.9380  131.2010   58.8670 C   0  0  0  0  0  0  0  0  0  0  0  0
  133.1670  131.3230   60.2470 C   0  0  0  0  0  0  0  0  0  0  0  0
  132.0980  131.3230   61.1390 C   0  0  0  0  0  0  0  0  0  0  0  0
  130.7880  131.2090   60.6710 C   0  0  0  0  0  0  0  0  0  0  0  0
  129.7800  131.1730   61.6540 N   0  0  0  0  0  0  0  0  0  0  0  0
  128.8730  132.1170   61.9830 C   0  0  0  0  0  0  0  0  0  0  0  0
  128.8260  133.2450   61.4940 O   0  0  0  0  0  0  0  0  0  0  0  0
  127.8600  131.6840   63.0560 C   0  0  0  0  0  0  0  0  0  0  0  0
  126.7090  130.3560   62.5570 S   0  0  0  0  0  0  0  0  0  0  0  0
  127.7330  128.9830   62.9690 C   0  0  0  0  0  0  0  0  0  0  0  0
  128.5780  128.4210   62.1430 N   0  0  0  0  0  0  0  0  0  0  0  0
  129.1330  127.4530   62.8650 C   0  0  0  0  0  0  0  0  0  0  0  0
  130.1920  126.5430   62.3110 C   0  0  0  0  0  0  0  0  0  0  0  0
  131.0300  126.9460   61.2590 C   0  0  0  0  0  0  0  0  0  0  0  0
  132.0040  126.0770   60.7630 C   0  0  0  0  0  0  0  0  0  0  0  0
  132.1190  124.8120   61.3360 C   0  0  0  0  0  0  0  0  0  0  0  0
  131.3260  124.3890   62.3540 N   0  0  0  0  0  0  0  0  0  0  0  0
  130.3860  125.2500   62.8220 C   0  0  0  0  0  0  0  0  0  0  0  0
  128.6920  127.3490   64.1050 N   0  0  0  0  0  0  0  0  0  0  0  0
  127.7900  128.3320   64.1740 N   0  0  0  0  0  0  0  0  0  0  0  0
  127.0620  128.5870   65.4180 C   0  0  0  0  0  0  0  0  0  0  0  0
  127.9490  128.7880   66.6590 C   0  0  0  0  0  0  0  0  0  0  0  0
  128.2610  129.9230   67.0370 O   0  0  0  0  0  0  0  0  0  0  0  0
  128.3390  127.6520   67.2680 N   0  0  0  0  0  0  0  0  0  0  0  0
  129.0150  127.7570   68.4760 N   0  0  0  0  0  0  0  0  0  0  0  0
  128.4440  127.2050   69.5690 C   0  0  0  0  0  0  0  0  0  0  0  0
  127.4120  126.5260   69.5420 O   0  0  0  0  0  0  0  0  0  0  0  0
  129.1700  127.4410   70.8780 C   0  0  0  0  0  0  0  0  0  0  0  0
  129.9240  128.6060   71.0580 C   0  0  0  0  0  0  0  0  0  0  0  0
  130.6070  128.8380   72.2470 C   0  0  0  0  0  0  0  0  0  0  0  0
  130.5640  127.9030   73.2940 C   0  0  0  0  0  0  0  0  0  0  0  0
  131.2310  128.0660   74.4950 O   0  0  0  0  0  0  0  0  0  0  0  0
  132.5650  127.5890   74.6260 C   0  0  0  0  0  0  0  0  0  0  0  0
  129.8200  126.7270   73.1310 C   0  0  0  0  0  0  0  0  0  0  0  0
  129.8260  125.8290   74.1850 O   0  0  0  0  0  0  0  0  0  0  0  0
  130.8820  124.8820   74.2980 C   0  0  0  0  0  0  0  0  0  0  0  0
  129.1280  126.5080   71.9260 C   0  0  0  0  0  0  0  0  0  0  0  0
  130.5550  131.0870   59.2930 C   0  0  0  0  0  0  0  0  0  0  0  0
  131.6260  131.0880   58.4040 C   0  0  0  0  0  0  0  0  0  0  0  0
  1  2  1  0
  2  3  1  0
  3  4  2  0
  4  5  1  0
  5  6  2  0
  6  7  1  0
  7  8  1  0
  8  9  2  0
  8 10  1  0
 10 11  1  0
 11 12  1  0
 12 13  2  0
 13 14  1  0
 14 15  1  0
 15 16  2  0
 16 17  1  0
 17 18  2  0
 18 19  1  0
 19 20  2  0
 14 21  2  0
 21 22  1  0
 22 23  1  0
 23 24  1  0
 24 25  2  0
 24 26  1  0
 26 27  1  0
 27 28  1  0
 28 29  2  0
 28 30  1  0
 30 31  2  0
 31 32  1  0
 32 33  2  0
 33 34  1  0
 34 35  1  0
 33 36  1  0
 36 37  1  0
 37 38  1  0
 36 39  2  0
  6 40  1  0
 40 41  2  0
 41  3  1  0
 22 12  1  0
 39 30  1  0
 20 15  1  0
M  END
>  <Binding energies>  (74) 
[-6.57]

>  <Ligand effiencies>  (74) 
[-0.14931818181818182]

>  <Interactions>  (74) 
["V-B:GLU:543:CD:9880, V-A:HIS:456:CE1:4070, H-A:TYR:484:OH:4348, V-A:GLU:543:C:4902, V-B:HIS:456:CE1:9042, V-A:GLY:544:CA:4914, V-A:GLU:543:CB:4906, H-B:TYR:484:OH:9320, V-A:GLU:543:CD:4908, V-A:GLY:544:C:4912, V-A:GLU:543:CG:4907, V-A:HIS:456:CG:4066, V-A:HIS:456:CD2:4068, H-A:GLU:543:OE1:4909, V-A:ASP:366:CG:3213, V-A:ASP:366:CB:3212, H-B:GLU:543:OE2:9882, V-A:PRO:540:CA:4883, V-A:PRO:540:CB:4885, H-A:ALA:541:N:4891, V-A:ASN:362:CB:3176, V-A:ALA:541:CB:4892, V-A:LEU:363:CD1:3189, V-A:TYR:531:CZ:4794, V-A:TYR:531:CE2:4793, V-A:LEU:363:CA:3185, V-B:HIS:456:CD2:9040, H-B:LYS:547:NZ:9923, H-A:LYS:547:NZ:4951, V-B:LYS:547:CE:9922, V-A:LYS:547:CE:4950, H-A:GLU:543:O:4903, H-B:HIS:456:NE2:9043, V-A:HIS:456:CB:4065, V-A:LYS:547:CD:4949"]

$$$$
RR22_Rahimova_2017
     RDKit          3D

 31 36  0  0  0  0  0  0  0  0999 V2000
  129.6540  129.1130   56.4030 O   0  0  0  0  0  0  0  0  0  0  0  0
  129.5320  128.0890   57.0710 C   0  0  0  0  0  0  0  0  0  0  0  0
  130.4100  127.5870   58.0160 N   0  0  0  0  0  0  0  0  0  0  0  0
  130.0870  126.4040   58.7540 C   0  0  1  0  0  0  0  0  0  0  0  0
  131.1810  125.5110   58.5280 O   0  0  0  0  0  0  0  0  0  0  0  0
  131.9120  125.0660   59.6300 C   0  0  0  0  0  0  0  0  0  0  0  0
  133.1650  124.5140   59.3640 C   0  0  0  0  0  0  0  0  0  0  0  0
  133.9370  124.0100   60.4110 C   0  0  0  0  0  0  0  0  0  0  0  0
  133.4530  124.0510   61.7190 C   0  0  0  0  0  0  0  0  0  0  0  0
  132.1980  124.6030   61.9850 C   0  0  0  0  0  0  0  0  0  0  0  0
  131.4240  125.1340   60.9490 C   0  0  0  0  0  0  0  0  0  0  0  0
  130.0380  125.7130   61.1270 C   0  0  1  0  0  0  0  0  0  0  0  0
  129.6110  126.4310   62.3910 C   0  0  0  0  0  0  0  0  0  0  0  0
  128.5880  127.4080   61.8040 C   0  0  0  0  0  0  0  0  0  0  0  0
  127.5750  128.0950   62.6300 C   0  0  0  0  0  0  0  0  0  0  0  0
  126.3400  128.4670   62.0800 C   0  0  0  0  0  0  0  0  0  0  0  0
  125.3880  129.1130   62.8640 C   0  0  0  0  0  0  0  0  0  0  0  0
  125.6640  129.3910   64.1990 C   0  0  0  0  0  0  0  0  0  0  0  0
  126.8850  129.0270   64.7600 C   0  0  0  0  0  0  0  0  0  0  0  0
  127.8380  128.3800   63.9790 C   0  0  0  0  0  0  0  0  0  0  0  0
  128.7570  127.5510   60.5430 N   0  0  0  0  0  0  0  0  0  0  0  0
  129.8500  126.7550   60.1630 N   0  0  0  0  0  0  0  0  0  0  0  0
  128.8660  125.7930   58.0840 C   0  0  0  0  0  0  0  0  0  0  0  0
  128.4800  124.5100   58.2830 C   0  0  0  0  0  0  0  0  0  0  0  0
  127.3160  123.8010   57.7170 C   0  0  0  0  0  0  0  0  0  0  0  0
  125.9900  124.1320   58.0310 C   0  0  0  0  0  0  0  0  0  0  0  0
  124.9380  123.4160   57.4570 C   0  0  0  0  0  0  0  0  0  0  0  0
  125.2430  122.3740   56.5810 C   0  0  0  0  0  0  0  0  0  0  0  0
  126.5150  122.0270   56.2660 N   0  0  0  0  0  0  0  0  0  0  0  0
  127.5250  122.7360   56.8330 C   0  0  0  0  0  0  0  0  0  0  0  0
  128.1200  126.9470   56.9690 S   0  0  0  0  0  0  0  0  0  0  0  0
  1  2  2  0
  2  3  1  0
  4  3  1  6
  4  5  1  0
  5  6  1  0
  6  7  2  0
  7  8  1  0
  8  9  2  0
  9 10  1  0
 10 11  2  0
 11 12  1  0
 12 13  1  1
 13 14  1  0
 14 15  1  0
 15 16  2  0
 16 17  1  0
 17 18  2  0
 18 19  1  0
 19 20  2  0
 14 21  2  0
 21 22  1  0
  4 23  1  0
 23 24  2  0
 24 25  1  0
 25 26  2  0
 26 27  1  0
 27 28  2  0
 28 29  1  0
 29 30  2  0
 23 31  1  0
 31  2  1  0
 22  4  1  0
 30 25  1  0
 11  6  1  0
 22 12  1  0
 20 15  1  0
M  END
>  <Binding energies>  (75) 
[-8.26]

>  <Ligand effiencies>  (75) 
[-0.258125]

>  <Interactions>  (75) 
["V-B:PRO:540:CD:9859, V-B:LEU:363:CD1:8161, V-B:PRO:540:CB:9857, V-B:TYR:539:C:9839, V-B:PRO:540:CG:9858, V-B:PRO:540:N:9856, V-B:GLU:543:CD:9880, V-A:ILE:369:CD1:3239, V-B:TYR:539:CE2:9848, V-B:ILE:538:CG2:9835, V-B:TYR:539:CD2:9846, V-B:ARG:545:CZ:9898, V-A:GLU:543:CD:4908, V-A:ILE:369:CG2:3237, V-A:ASP:366:CG:3213, V-A:ASP:366:CB:3212, H-A:ASP:366:OD1:3214, V-A:ASP:366:CA:3210, V-B:TYR:539:CG:9844, H-B:TYR:531:OH:9767, V-B:TYR:539:CZ:9849, V-B:TYR:539:CE1:9847, V-B:TYR:539:CD1:9845, H-B:TYR:539:N:9842, H-A:TYR:531:OH:4795"]

$$$$
RR24_Rahimova_2017
     RDKit          3D

 43 49  0  0  0  0  0  0  0  0999 V2000
  127.1050  132.7240   60.2650 C   0  0  0  0  0  0  0  0  0  0  0  0
  127.3360  132.1490   58.8600 C   0  0  2  0  0  0  0  0  0  0  0  0
  126.4520  130.9040   58.5530 C   0  0  0  0  0  0  0  0  0  0  0  0
  125.3650  130.7190   59.1100 O   0  0  0  0  0  0  0  0  0  0  0  0
  127.0290  130.0640   57.6440 O   0  0  0  0  0  0  0  0  0  0  0  0
  127.3210  128.7690   58.0060 C   0  0  0  0  0  0  0  0  0  0  0  0
  126.5960  127.7200   57.4370 C   0  0  0  0  0  0  0  0  0  0  0  0
  126.8890  126.4050   57.7880 C   0  0  0  0  0  0  0  0  0  0  0  0
  127.9110  126.1320   58.7010 C   0  0  0  0  0  0  0  0  0  0  0  0
  128.2160  124.6830   59.0980 C   0  0  1  0  0  0  0  0  0  0  0  0
  129.6810  124.5070   59.5640 C   0  0  0  0  0  0  0  0  0  0  0  0
  130.0090  123.9070   60.7220 C   0  0  0  0  0  0  0  0  0  0  0  0
  129.0620  123.4060   61.5810 N   0  0  0  0  0  0  0  0  0  0  0  0
  127.7200  123.4950   61.2970 C   0  0  0  0  0  0  0  0  0  0  0  0
  126.9170  122.9440   62.2430 N   0  0  0  0  0  0  0  0  0  0  0  0
  125.5590  123.0070   62.1710 C   0  0  0  0  0  0  0  0  0  0  0  0
  124.8920  122.7850   63.1830 O   0  0  0  0  0  0  0  0  0  0  0  0
  125.0780  123.4900   60.9640 N   0  0  0  0  0  0  0  0  0  0  0  0
  123.6100  123.4940   60.8000 C   0  0  0  0  0  0  0  0  0  0  0  0
  125.8030  124.0720   59.9380 C   0  0  0  0  0  0  0  0  0  0  0  0
  125.3000  124.5300   58.9080 O   0  0  0  0  0  0  0  0  0  0  0  0
  127.2520  124.0820   60.1640 C   0  0  0  0  0  0  0  0  0  0  0  0
  131.4510  123.8830   60.9020 C   0  0  0  0  0  0  0  0  0  0  0  0
  132.2760  123.3910   61.9140 C   0  0  0  0  0  0  0  0  0  0  0  0
  133.6610  123.5240   61.7900 C   0  0  0  0  0  0  0  0  0  0  0  0
  134.2110  124.1420   60.6630 C   0  0  0  0  0  0  0  0  0  0  0  0
  133.3800  124.6330   59.6520 C   0  0  0  0  0  0  0  0  0  0  0  0
  131.9960  124.4980   59.7830 C   0  0  0  0  0  0  0  0  0  0  0  0
  130.9030  124.9170   58.8800 C   0  0  0  0  0  0  0  0  0  0  0  0
  130.9560  125.4840   57.7900 O   0  0  0  0  0  0  0  0  0  0  0  0
  128.6480  127.1850   59.2550 C   0  0  0  0  0  0  0  0  0  0  0  0
  128.3580  128.5000   58.9030 C   0  0  0  0  0  0  0  0  0  0  0  0
  128.7830  131.9000   58.5860 N   0  0  0  0  0  0  0  0  0  0  0  0
  129.3270  132.1330   57.3590 C   0  0  0  0  0  0  0  0  0  0  0  0
  128.7500  132.5470   56.3520 O   0  0  0  0  0  0  0  0  0  0  0  0
  130.7620  131.7810   57.4900 C   0  0  0  0  0  0  0  0  0  0  0  0
  131.8010  131.8190   56.5580 C   0  0  0  0  0  0  0  0  0  0  0  0
  133.0810  131.4260   56.9670 C   0  0  0  0  0  0  0  0  0  0  0  0
  133.3040  131.0080   58.2850 C   0  0  0  0  0  0  0  0  0  0  0  0
  132.2500  130.9780   59.2040 C   0  0  0  0  0  0  0  0  0  0  0  0
  130.9810  131.3720   58.7780 C   0  0  0  0  0  0  0  0  0  0  0  0
  129.6900  131.4500   59.5060 C   0  0  0  0  0  0  0  0  0  0  0  0
  129.4830  131.1720   60.6880 O   0  0  0  0  0  0  0  0  0  0  0  0
  2  1  1  1
  2  3  1  0
  3  4  2  0
  3  5  1  0
  5  6  1  0
  6  7  2  0
  7  8  1  0
  8  9  2  0
 10  9  1  1
 10 11  1  0
 11 12  2  0
 12 13  1  0
 13 14  1  0
 14 15  1  0
 15 16  1  0
 16 17  2  0
 16 18  1  0
 18 19  1  0
 18 20  1  0
 20 21  2  0
 20 22  1  0
 12 23  1  0
 23 24  2  0
 24 25  1  0
 25 26  2  0
 26 27  1  0
 27 28  2  0
 28 29  1  0
 29 30  2  0
  9 31  1  0
 31 32  2  0
  2 33  1  0
 33 34  1  0
 34 35  2  0
 34 36  1  0
 36 37  2  0
 37 38  1  0
 38 39  2  0
 39 40  1  0
 40 41  2  0
 41 42  1  0
 42 43  2  0
 32  6  1  0
 42 33  1  0
 22 10  1  0
 28 23  1  0
 41 36  1  0
 29 11  1  0
 22 14  2  0
M  END
>  <Binding energies>  (76) 
[-9.03]

>  <Ligand effiencies>  (76) 
[-0.20066666666666666]

>  <Interactions>  (76) 
["V-B:PRO:540:CB:9857, V-B:PRO:540:CA:9855, V-B:GLU:543:CD:9880, V-A:ILE:369:CD1:3239, V-B:TYR:539:CE2:9848, V-B:PRO:540:C:9853, H-B:ALA:541:N:9863, V-B:ASP:366:CG:8185, H-A:TYR:484:OH:4348, V-B:ALA:541:CB:9864, V-A:GLY:454:CA:4049, V-A:ILE:369:CG2:3237, V-A:ASP:366:CG:3213, V-A:ASP:366:CB:3212, V-A:ASP:366:CA:3210, H-B:GLU:543:OE1:9881, V-B:GLU:543:CG:9879, H-B:TYR:531:OH:9767, H-B:ARG:545:NH2:9900, V-A:PRO:540:CA:4883, V-A:PRO:540:CB:4885, V-A:PRO:540:N:4884, V-B:ASN:362:CB:8148, V-A:LEU:363:CD1:3189, V-A:LEU:363:CA:3185, V-A:TYR:539:CD1:4873, V-A:TYR:539:C:4867, H-A:TYR:539:N:4870, V-A:TYR:539:CE1:4875, H-B:ASN:362:ND2:8151, H-B:TYR:539:OH:9850, V-B:LEU:363:CA:8157, V-B:ASN:362:C:8144"]

$$$$
RR25_Rahimova_2017
     RDKit          3D

 39 44  0  0  0  0  0  0  0  0999 V2000
  132.7120  123.8000   60.9510 O   0  0  0  0  0  0  0  0  0  0  0  0
  131.4930  123.8600   60.7850 C   0  0  0  0  0  0  0  0  0  0  0  0
  130.7470  122.8970   61.4180 O   0  0  0  0  0  0  0  0  0  0  0  0
  129.3710  122.9980   61.5170 C   0  0  0  0  0  0  0  0  0  0  0  0
  128.7690  122.3390   62.5870 C   0  0  0  0  0  0  0  0  0  0  0  0
  127.3860  122.3930   62.7430 C   0  0  0  0  0  0  0  0  0  0  0  0
  126.5860  123.1000   61.8330 C   0  0  0  0  0  0  0  0  0  0  0  0
  125.1140  123.1620   62.0060 N   0  0  0  0  0  0  0  0  0  0  0  0
  124.6280  122.7560   63.0590 O   0  0  0  0  0  0  0  0  0  0  0  0
  124.4340  123.6160   61.0910 O   0  0  0  0  0  0  0  0  0  0  0  0
  127.2110  123.7470   60.7540 C   0  0  0  0  0  0  0  0  0  0  0  0
  128.5970  123.6960   60.5790 C   0  0  0  0  0  0  0  0  0  0  0  0
  129.3200  124.3870   59.4370 C   0  0  0  0  0  0  0  0  0  0  0  0
  130.7070  124.8920   59.9250 C   0  0  2  0  0  0  0  0  0  0  0  0
  131.5190  125.5190   58.7550 C   0  0  0  0  0  0  0  0  0  0  0  0
  132.1260  124.7260   58.0300 O   0  0  0  0  0  0  0  0  0  0  0  0
  131.4650  126.8540   58.4640 N   0  0  0  0  0  0  0  0  0  0  0  0
  131.0280  127.8700   59.4460 C   0  0  0  0  0  0  0  0  0  0  0  0
  130.2280  128.9660   58.7110 C   0  0  0  0  0  0  0  0  0  0  0  0
  130.9990  129.5400   57.6040 N   0  0  0  0  0  0  0  0  0  0  0  0
  130.2950  130.6720   56.9880 C   0  0  0  0  0  0  0  0  0  0  0  0
  130.3290  131.9520   57.8650 C   0  0  0  0  0  0  0  0  0  0  0  0
  129.3010  132.0360   58.9440 N   0  0  0  0  0  0  0  0  0  0  0  0
  127.9950  132.0970   58.5090 C   0  0  0  0  0  0  0  0  0  0  0  0
  127.6800  132.1190   57.3130 O   0  0  0  0  0  0  0  0  0  0  0  0
  126.9600  132.1150   59.6170 C   0  0  0  0  0  0  0  0  0  0  0  0
  125.5990  132.1500   59.2870 C   0  0  0  0  0  0  0  0  0  0  0  0
  124.6210  132.1600   60.2810 C   0  0  0  0  0  0  0  0  0  0  0  0
  124.9700  132.1320   61.6300 C   0  0  0  0  0  0  0  0  0  0  0  0
  126.3330  132.0960   62.0110 C   0  0  0  0  0  0  0  0  0  0  0  0
  126.7560  132.0650   63.3610 C   0  0  0  0  0  0  0  0  0  0  0  0
  128.1160  132.0280   63.6660 C   0  0  0  0  0  0  0  0  0  0  0  0
  129.0760  132.0220   62.6580 C   0  0  0  0  0  0  0  0  0  0  0  0
  128.7040  132.0520   61.3080 C   0  0  0  0  0  0  0  0  0  0  0  0
  127.3220  132.0890   60.9880 C   0  0  0  0  0  0  0  0  0  0  0  0
  129.7790  132.0350   60.2380 C   0  0  0  0  0  0  0  0  0  0  0  0
  130.9820  132.0060   60.5190 O   0  0  0  0  0  0  0  0  0  0  0  0
  131.3100  128.4980   56.6230 C   0  0  0  0  0  0  0  0  0  0  0  0
  132.1450  127.3550   57.2480 C   0  0  0  0  0  0  0  0  0  0  0  0
  1  2  2  0
  2  3  1  0
  3  4  1  0
  4  5  2  0
  5  6  1  0
  6  7  2  0
  7  8  1  0
  8  9  2  0
  8 10  1  0
  7 11  1  0
 11 12  2  0
 12 13  1  0
 13 14  1  0
 14 15  1  6
 15 16  2  0
 15 17  1  0
 17 18  1  0
 18 19  1  0
 19 20  1  0
 20 21  1  0
 21 22  1  0
 22 23  1  0
 23 24  1  0
 24 25  2  0
 24 26  1  0
 26 27  2  0
 27 28  1  0
 28 29  2  0
 29 30  1  0
 30 31  2  0
 31 32  1  0
 32 33  2  0
 33 34  1  0
 34 35  2  0
 34 36  1  0
 36 37  2  0
 20 38  1  0
 38 39  1  0
 14  2  1  0
 39 17  1  0
 12  4  1  0
 36 23  1  0
 35 26  1  0
 35 30  1  0
M  CHG  2   8   1  10  -1
M  END
>  <Binding energies>  (77) 
[-9.23]

>  <Ligand effiencies>  (77) 
[-0.23666666666666666]

>  <Interactions>  (77) 
["V-B:PRO:540:CB:9857, V-B:PRO:540:CA:9855, V-B:GLU:543:CD:9880, V-B:PRO:540:C:9853, H-B:ALA:541:N:9863, H-A:TYR:484:OH:4348, V-B:ALA:541:CA:9862, V-B:ALA:541:CB:9864, V-A:GLU:543:CG:4907, V-B:TYR:484:CZ:9319, V-B:LEU:475:CD2:9231, V-A:ASP:366:CG:3213, V-A:ASP:366:CB:3212, V-B:GLU:543:CG:9879, V-A:TYR:484:CE1:4345, H-B:ARG:545:NH2:9900, V-A:PRO:540:CA:4883, V-A:PRO:540:CB:4885, V-A:PRO:540:N:4884, V-A:PRO:540:C:4881, V-B:ASN:362:CB:8148, H-A:ALA:541:N:4891, V-A:ALA:541:CB:4892, H-A:TYR:531:OH:4795, V-A:TYR:539:CD1:4873, V-A:TYR:539:C:4867, V-A:TYR:539:CE1:4875, H-B:ASN:362:ND2:8151, V-B:TYR:484:CE2:9318, H-B:TYR:539:OH:9850, V-A:ALA:541:CA:4890"]

$$$$
RR27_Rahimova_2017
     RDKit          3D

 39 44  0  0  0  0  0  0  0  0999 V2000
  128.8330  130.6650   62.3660 O   0  0  0  0  0  0  0  0  0  0  0  0
  128.1470  129.8980   61.6840 C   0  0  0  0  0  0  0  0  0  0  0  0
  126.6980  129.5850   62.1580 C   0  0  0  0  0  0  0  0  0  0  0  0
  125.6750  130.6510   61.7220 C   0  0  0  0  0  0  0  0  0  0  0  0
  125.7440  131.9750   62.1830 C   0  0  0  0  0  0  0  0  0  0  0  0
  124.8050  132.9140   61.7670 C   0  0  0  0  0  0  0  0  0  0  0  0
  123.7920  132.5350   60.8900 C   0  0  0  0  0  0  0  0  0  0  0  0
  123.7100  131.2250   60.4270 C   0  0  0  0  0  0  0  0  0  0  0  0
  124.6490  130.2860   60.8430 C   0  0  0  0  0  0  0  0  0  0  0  0
  126.6520  129.2140   63.6530 C   0  0  0  0  0  0  0  0  0  0  0  0
  125.4390  129.0380   64.3320 C   0  0  0  0  0  0  0  0  0  0  0  0
  125.4340  128.7150   65.6870 C   0  0  0  0  0  0  0  0  0  0  0  0
  126.6400  128.5720   66.3670 C   0  0  0  0  0  0  0  0  0  0  0  0
  127.8530  128.7550   65.7070 C   0  0  0  0  0  0  0  0  0  0  0  0
  127.8570  129.0790   64.3550 C   0  0  0  0  0  0  0  0  0  0  0  0
  128.5710  129.4480   60.4690 N   0  0  0  0  0  0  0  0  0  0  0  0
  127.9220  128.3490   59.7390 C   0  0  0  0  0  0  0  0  0  0  0  0
  128.5680  127.0370   60.2390 C   0  0  0  0  0  0  0  0  0  0  0  0
  130.1230  127.0380   60.0950 C   0  0  0  0  0  0  0  0  0  0  0  0
  130.8260  125.7990   60.6810 C   0  0  0  0  0  0  0  0  0  0  0  0
  132.0800  125.9940   61.1840 N   0  0  0  0  0  0  0  0  0  0  0  0
  132.7350  124.9370   61.7390 C   0  0  0  0  0  0  0  0  0  0  0  0
  133.9920  125.0090   62.2780 O   0  0  0  0  0  0  0  0  0  0  0  0
  132.0920  123.6850   61.7690 C   0  0  0  0  0  0  0  0  0  0  0  0
  132.4490  122.4550   62.2410 N   0  0  0  0  0  0  0  0  0  0  0  0
  131.3980  121.5950   61.9810 N   0  0  0  0  0  0  0  0  0  0  0  0
  130.4120  122.2840   61.3690 N   0  0  0  0  0  0  0  0  0  0  0  0
  129.1840  121.6110   60.9550 C   0  0  0  0  0  0  0  0  0  0  0  0
  128.1750  122.5340   60.2860 C   0  0  0  0  0  0  0  0  0  0  0  0
  127.3580  123.3640   61.0600 C   0  0  0  0  0  0  0  0  0  0  0  0
  126.4410  124.2180   60.4450 C   0  0  0  0  0  0  0  0  0  0  0  0
  126.3400  124.2510   59.0550 C   0  0  0  0  0  0  0  0  0  0  0  0
  127.1590  123.4320   58.2760 C   0  0  0  0  0  0  0  0  0  0  0  0
  127.0550  123.4910   56.5530 Cl  0  0  0  0  0  0  0  0  0  0  0  0
  128.0700  122.5730   58.8900 C   0  0  0  0  0  0  0  0  0  0  0  0
  130.8000  123.6040   61.2070 C   0  0  0  0  0  0  0  0  0  0  0  0
  130.1390  124.6220   60.6510 N   0  0  0  0  0  0  0  0  0  0  0  0
  130.7510  128.3860   60.5650 C   0  0  0  0  0  0  0  0  0  0  0  0
  129.9740  129.6290   60.0620 C   0  0  0  0  0  0  0  0  0  0  0  0
  1  2  2  0
  2  3  1  0
  3  4  1  0
  4  5  2  0
  5  6  1  0
  6  7  2  0
  7  8  1  0
  8  9  2  0
  3 10  1  0
 10 11  2  0
 11 12  1  0
 12 13  2  0
 13 14  1  0
 14 15  2  0
  2 16  1  0
 16 17  1  0
 17 18  1  0
 18 19  1  0
 19 20  1  0
 20 21  2  0
 21 22  1  0
 22 23  1  0
 22 24  2  0
 24 25  1  0
 25 26  2  0
 26 27  1  0
 27 28  1  0
 28 29  1  0
 29 30  2  0
 30 31  1  0
 31 32  2  0
 32 33  1  0
 33 34  1  0
 33 35  2  0
 27 36  1  0
 36 37  2  0
 19 38  1  0
 38 39  1  0
  9  4  1  0
 15 10  1  0
 39 16  1  0
 37 20  1  0
 36 24  1  0
 35 29  1  0
M  END
>  <Binding energies>  (78) 
[-9.17]

>  <Ligand effiencies>  (78) 
[-0.22925]

>  <Interactions>  (78) 
["V-B:TYR:539:C:9839, V-B:PRO:540:CA:9855, V-B:PRO:540:N:9856, V-B:GLU:543:CD:9880, V-B:TYR:539:CE2:9848, V-B:ASP:366:CG:8185, H-A:TYR:484:OH:4348, V-B:TYR:539:CD2:9846, V-B:HIS:456:CE1:9042, V-B:ARG:545:CZ:9898, V-A:GLU:543:CD:4908, V-B:ILE:369:CD1:8211, V-A:GLU:543:CG:4907, V-B:LEU:475:CD2:9231, H-A:ARG:545:NH1:4927, H-A:GLY:454:N:4050, H-A:ARG:545:NH2:4928, V-A:ASP:366:CG:3213, H-A:ASP:366:OD2:3215, H-A:ASP:366:OD1:3214, V-B:MET:535:CE:9807, V-B:ARG:545:CG:9894, V-B:ARG:545:CD:9895, V-B:ILE:369:CG2:8209"]

$$$$
RR28_Rahimova_2017
     RDKit          3D

 46 49  0  0  0  0  0  0  0  0999 V2000
  132.8560  131.5930   61.9640 C   0  0  0  0  0  0  0  0  0  0  0  0
  132.2500  131.0800   60.6620 C   0  0  0  0  0  0  0  0  0  0  0  0
  132.6750  131.5000   59.5880 O   0  0  0  0  0  0  0  0  0  0  0  0
  131.2600  130.1720   60.7810 N   0  0  0  0  0  0  0  0  0  0  0  0
  130.4890  129.5120   59.7030 C   0  0  0  0  0  0  0  0  0  0  0  0
  131.0900  128.0960   59.4720 C   0  0  0  0  0  0  0  0  0  0  0  0
  131.2420  127.2260   60.5630 C   0  0  0  0  0  0  0  0  0  0  0  0
  131.7800  125.9540   60.3940 C   0  0  0  0  0  0  0  0  0  0  0  0
  132.1800  125.5220   59.1290 C   0  0  0  0  0  0  0  0  0  0  0  0
  132.7730  124.1240   58.9630 C   0  0  0  0  0  0  0  0  0  0  0  0
  133.1630  123.8830   57.7100 F   0  0  0  0  0  0  0  0  0  0  0  0
  133.8320  123.9720   59.7600 F   0  0  0  0  0  0  0  0  0  0  0  0
  131.8540  123.2160   59.2940 F   0  0  0  0  0  0  0  0  0  0  0  0
  132.0360  126.3790   58.0340 C   0  0  0  0  0  0  0  0  0  0  0  0
  131.4970  127.6520   58.2050 C   0  0  0  0  0  0  0  0  0  0  0  0
  130.4670  130.4080   58.4140 C   0  0  0  0  0  0  0  0  0  0  0  0
  129.6990  131.7400   58.6050 C   0  0  0  0  0  0  0  0  0  0  0  0
  128.3270  131.3770   58.9970 N   0  0  0  0  0  0  0  0  0  0  0  0
  127.3520  131.2590   58.0560 C   0  0  0  0  0  0  0  0  0  0  0  0
  127.5260  131.6070   56.8860 O   0  0  0  0  0  0  0  0  0  0  0  0
  125.9320  130.8280   58.5000 C   0  0  0  0  0  0  0  0  0  0  0  0
  125.5330  129.3640   58.1700 C   0  0  0  0  0  0  0  0  0  0  0  0
  126.6220  128.5320   57.4540 C   0  0  0  0  0  0  0  0  0  0  0  0
  126.8380  128.7650   56.2610 O   0  0  0  0  0  0  0  0  0  0  0  0
  127.4000  127.6750   58.1740 N   0  0  0  0  0  0  0  0  0  0  0  0
  127.0060  127.1290   59.4780 C   0  0  0  0  0  0  0  0  0  0  0  0
  126.1430  125.8810   59.1920 C   0  0  0  0  0  0  0  0  0  0  0  0
  126.8430  124.7890   58.3100 C   0  0  0  0  0  0  0  0  0  0  0  0
  125.8180  123.8650   57.7800 N   0  0  0  0  0  0  0  0  0  0  0  0
  125.9750  122.8820   56.8700 C   0  0  0  0  0  0  0  0  0  0  0  0
  124.7200  122.0970   56.5000 C   0  0  0  0  0  0  0  0  0  0  0  0
  127.0480  122.5990   56.3390 O   0  0  0  0  0  0  0  0  0  0  0  0
  127.7830  123.9620   59.2460 C   0  0  0  0  0  0  0  0  0  0  0  0
  128.0440  124.3270   60.5780 C   0  0  0  0  0  0  0  0  0  0  0  0
  128.8870  123.5630   61.3790 C   0  0  0  0  0  0  0  0  0  0  0  0
  129.4960  122.4140   60.8680 C   0  0  0  0  0  0  0  0  0  0  0  0
  130.4210  121.5620   61.7360 C   0  0  0  0  0  0  0  0  0  0  0  0
  130.6740  120.3920   61.1470 F   0  0  0  0  0  0  0  0  0  0  0  0
  131.5730  122.2090   61.9110 F   0  0  0  0  0  0  0  0  0  0  0  0
  129.8950  121.3120   62.9370 F   0  0  0  0  0  0  0  0  0  0  0  0
  129.2540  122.0430   59.5450 C   0  0  0  0  0  0  0  0  0  0  0  0
  128.4100  122.8090   58.7470 C   0  0  0  0  0  0  0  0  0  0  0  0
  127.6100  125.4970   57.1270 C   0  0  0  0  0  0  0  0  0  0  0  0
  128.3650  126.8040   57.4900 C   0  0  0  0  0  0  0  0  0  0  0  0
  128.2530  130.7100   60.3050 C   0  0  0  0  0  0  0  0  0  0  0  0
  129.0030  129.3600   60.1690 C   0  0  0  0  0  0  0  0  0  0  0  0
  1  2  1  0
  2  3  2  0
  2  4  1  0
  4  5  1  0
  5  6  1  0
  6  7  2  0
  7  8  1  0
  8  9  2  0
  9 10  1  0
 10 11  1  0
 10 12  1  0
 10 13  1  0
  9 14  1  0
 14 15  2  0
  5 16  1  0
 16 17  1  0
 17 18  1  0
 18 19  1  0
 19 20  2  0
 19 21  1  0
 21 22  1  0
 22 23  1  0
 23 24  2  0
 23 25  1  0
 25 26  1  0
 26 27  1  0
 27 28  1  0
 28 29  1  0
 29 30  1  0
 30 31  1  0
 30 32  2  0
 28 33  1  0
 33 34  2  0
 34 35  1  0
 35 36  2  0
 36 37  1  0
 37 38  1  0
 37 39  1  0
 37 40  1  0
 36 41  1  0
 41 42  2  0
 28 43  1  0
 43 44  1  0
 18 45  1  0
 45 46  1  0
 46  5  1  0
 15  6  1  0
 44 25  1  0
 42 33  1  0
M  END
>  <Binding energies>  (79) 
[-8.48]

>  <Ligand effiencies>  (79) 
[-0.17666666666666667]

>  <Interactions>  (79) 
["V-B:PRO:540:CD:9859, V-B:LEU:363:CD1:8161, V-B:ILE:538:CD1:9837, V-B:PRO:540:CB:9857, V-B:TYR:539:C:9839, V-B:PRO:540:CG:9858, V-B:PRO:540:N:9856, V-A:ILE:369:CD1:3239, V-A:TYR:484:CZ:4347, V-B:TYR:539:CE2:9848, V-B:ILE:538:CG2:9835, V-B:ASP:366:CG:8185, V-A:LEU:475:CD2:4259, V-B:TYR:539:CD2:9846, V-B:ALA:541:CB:9864, V-A:GLU:543:CD:4908, V-A:GLU:543:CG:4907, H-A:GLU:543:OE1:4909, V-A:ILE:369:CG2:3237, V-A:ASP:366:CG:3213, V-A:ASP:366:CB:3212, V-A:ILE:369:CB:3236, H-A:ASP:366:OD1:3214, V-A:ASP:366:CA:3210, H-B:ASP:366:OD2:8187, V-B:TYR:539:CG:9844, V-A:TYR:484:CE1:4345, V-B:ASP:366:CB:8184, H-B:TYR:531:OH:9767, V-B:TYR:539:CZ:9849, V-B:MET:535:CE:9807, V-A:PRO:540:CA:4883, V-A:PRO:540:CB:4885, H-B:TYR:539:N:9842, V-A:ASN:362:CB:3176, V-A:TYR:539:CE1:4875, V-A:ALA:541:C:4888, V-A:ASN:362:CG:3177"]

$$$$
RR29_Rahimova_2017
     RDKit          3D

 18 19  0  0  0  0  0  0  0  0999 V2000
  132.5910  121.6260   61.1880 C   0  0  0  0  0  0  0  0  0  0  0  0
  131.7280  122.8720   61.0480 C   0  0  0  0  0  0  0  0  0  0  0  0
  130.5270  122.6690   60.0980 C   0  0  0  0  0  0  0  0  0  0  0  0
  129.1910  122.6200   60.8690 C   0  0  0  0  0  0  0  0  0  0  0  0
  127.9930  122.8640   59.9650 C   0  0  0  0  0  0  0  0  0  0  0  0
  126.8810  123.5820   60.4490 C   0  0  0  0  0  0  0  0  0  0  0  0
  125.7670  123.8200   59.6310 C   0  0  0  0  0  0  0  0  0  0  0  0
  125.7990  123.3120   58.3380 C   0  0  0  0  0  0  0  0  0  0  0  0
  126.8730  122.6140   57.8640 C   0  0  0  0  0  0  0  0  0  0  0  0
  127.9960  122.3720   58.6480 C   0  0  0  0  0  0  0  0  0  0  0  0
  126.6490  122.2700   56.5680 O   0  0  0  0  0  0  0  0  0  0  0  0
  125.3080  122.5920   56.3170 C   0  0  0  0  0  0  0  0  0  0  0  0
  124.8680  123.4290   57.3540 O   0  0  0  0  0  0  0  0  0  0  0  0
  132.0640  123.9280   61.6910 N   0  0  0  0  0  0  0  0  0  0  0  0
  131.3350  125.0810   61.4990 N   0  0  0  0  0  0  0  0  0  0  0  0
  130.9570  125.9050   62.4900 C   0  0  0  0  0  0  0  0  0  0  0  0
  131.2510  125.7310   63.7800 N   0  0  0  0  0  0  0  0  0  0  0  0
  130.2410  126.9710   62.1660 N   0  0  0  0  0  0  0  0  0  0  0  0
  1  2  1  0
  2  3  1  0
  3  4  1  0
  4  5  1  0
  5  6  2  0
  6  7  1  0
  7  8  2  0
  8  9  1  0
  9 10  2  0
  9 11  1  0
 11 12  1  0
 12 13  1  0
  2 14  2  0
 14 15  1  0
 15 16  1  0
 16 17  1  0
 16 18  2  0
 10  5  1  0
 13  8  1  0
M  CHG  1  18   1
M  END
>  <Binding energies>  (80) 
[-7.33]

>  <Ligand effiencies>  (80) 
[-0.31869565217391305]

>  <Interactions>  (80) 
["V-B:PRO:540:CD:9859, V-B:LEU:363:CD1:8161, V-B:ILE:538:CD1:9837, V-B:PRO:540:CB:9857, V-B:TYR:539:C:9839, V-B:PRO:540:CA:9855, V-B:PRO:540:N:9856, V-A:TYR:484:CZ:4347, V-B:TYR:539:CE2:9848, V-B:ILE:538:CG2:9835, V-A:LEU:475:CD2:4259, H-A:TYR:484:OH:4348, V-B:TYR:539:CD2:9846, V-A:GLU:543:CD:4908, H-A:GLU:543:OE1:4909, H-A:GLU:543:OE2:4910, V-B:TYR:539:CG:9844, H-B:TYR:531:OH:9767, H-B:TYR:539:N:9842"]

$$$$
RR30_Rahimova_2017
     RDKit          3D

 18 19  0  0  0  0  0  0  0  0999 V2000
  130.0190  125.6760   63.3510 C   0  0  0  0  0  0  0  0  0  0  0  0
  131.5000  125.7610   63.7490 C   0  0  0  0  0  0  0  0  0  0  0  0
  132.4020  125.0630   62.7540 C   0  0  0  0  0  0  0  0  0  0  0  0
  133.6260  124.6330   62.9340 N   0  0  0  0  0  0  0  0  0  0  0  0
  134.0170  124.0770   61.7180 N   0  0  0  0  0  0  0  0  0  0  0  0
  133.0010  124.2270   60.9080 C   0  0  0  0  0  0  0  0  0  0  0  0
  132.8810  123.7110   59.2250 S   0  0  0  0  0  0  0  0  0  0  0  0
  131.6490  124.9060   58.6180 C   0  0  0  0  0  0  0  0  0  0  0  0
  130.2250  124.3460   58.6710 C   0  0  0  0  0  0  0  0  0  0  0  0
  129.7020  124.1310   59.7670 O   0  0  0  0  0  0  0  0  0  0  0  0
  129.6460  124.0910   57.4760 N   0  0  0  0  0  0  0  0  0  0  0  0
  128.3730  123.5810   57.2700 C   0  0  0  0  0  0  0  0  0  0  0  0
  128.0280  122.4910   56.6230 N   0  0  0  0  0  0  0  0  0  0  0  0
  126.6530  122.2930   56.6180 N   0  0  0  0  0  0  0  0  0  0  0  0
  125.9890  123.2290   57.2550 C   0  0  0  0  0  0  0  0  0  0  0  0
  124.4830  123.2360   57.3840 C   0  0  0  0  0  0  0  0  0  0  0  0
  127.0270  124.4560   57.9310 S   0  0  0  0  0  0  0  0  0  0  0  0
  131.9420  124.8400   61.4980 O   0  0  0  0  0  0  0  0  0  0  0  0
  1  2  1  0
  2  3  1  0
  3  4  2  0
  4  5  1  0
  5  6  2  0
  6  7  1  0
  7  8  1  0
  8  9  1  0
  9 10  2  0
  9 11  1  0
 11 12  1  0
 12 13  2  0
 13 14  1  0
 14 15  2  0
 15 16  1  0
 15 17  1  0
  6 18  1  0
 18  3  1  0
 17 12  1  0
M  END
>  <Binding energies>  (81) 
[-6.21]

>  <Ligand effiencies>  (81) 
[-0.3268421052631579]

>  <Interactions>  (81) 
["V-B:PRO:540:CD:9859, V-B:LEU:363:CD1:8161, V-B:PRO:540:CB:9857, V-A:ARG:545:CZ:4926, V-B:PRO:540:N:9856, V-B:GLU:543:CD:9880, V-B:TYR:539:CE2:9848, H-A:TYR:484:OH:4348, V-B:TYR:539:CD2:9846, V-A:GLU:543:CD:4908, H-A:GLY:454:N:4050, H-A:ARG:545:NH2:4928, V-B:TYR:531:CE2:9765, V-B:TYR:539:CZ:9849, V-B:TYR:539:CE1:9847, H-B:TYR:539:N:9842, H-B:TYR:539:OH:9850"]

$$$$
RR31_Rahimova_2017
     RDKit          3D

 18 19  0  0  0  0  0  0  0  0999 V2000
  134.1230  124.6540   62.2180 C   0  0  0  0  0  0  0  0  0  0  0  0
  132.9020  124.4040   61.3430 C   0  0  0  0  0  0  0  0  0  0  0  0
  132.0560  125.4690   61.0340 C   0  0  0  0  0  0  0  0  0  0  0  0
  130.9330  125.2740   60.2320 C   0  0  0  0  0  0  0  0  0  0  0  0
  130.6270  124.0070   59.7090 C   0  0  0  0  0  0  0  0  0  0  0  0
  129.5000  123.7930   58.9120 N   0  0  0  0  0  0  0  0  0  0  0  0
  128.1810  123.4730   59.4940 C   0  0  0  0  0  0  0  0  0  0  0  0
  127.1750  122.8740   58.4830 C   0  0  0  0  0  0  0  0  0  0  0  0
  127.0000  123.7610   57.3300 N   0  0  0  0  0  0  0  0  0  0  0  0
  126.0240  123.2360   56.3700 C   0  0  0  0  0  0  0  0  0  0  0  0
  124.8740  122.4610   57.0430 C   0  0  0  0  0  0  0  0  0  0  0  0
  123.8670  123.3950   57.7330 C   0  0  0  0  0  0  0  0  0  0  0  0
  124.5500  124.7140   58.1110 N   0  0  0  0  0  0  0  0  0  0  0  0
  128.3040  123.8980   56.6820 C   0  0  0  0  0  0  0  0  0  0  0  0
  129.3320  124.5330   57.6460 C   0  0  0  0  0  0  0  0  0  0  0  0
  131.4810  122.9430   60.0340 C   0  0  0  0  0  0  0  0  0  0  0  0
  132.6120  123.1260   60.8390 C   0  0  0  0  0  0  0  0  0  0  0  0
  133.4980  121.9290   61.1590 C   0  0  0  0  0  0  0  0  0  0  0  0
  1  2  1  0
  2  3  2  0
  3  4  1  0
  4  5  2  0
  5  6  1  0
  6  7  1  0
  7  8  1  0
  8  9  1  0
  9 10  1  0
 10 11  1  0
 11 12  1  0
 12 13  1  0
  9 14  1  0
 14 15  1  0
  5 16  1  0
 16 17  2  0
 17 18  1  0
 17  2  1  0
 15  6  1  0
M  CHG  1  13   1
M  END
>  <Binding energies>  (82) 
[-6.25]

>  <Ligand effiencies>  (82) 
[-0.2976190476190476]

>  <Interactions>  (82) 
["V-B:PRO:540:CD:9859, V-B:LEU:363:CD1:8161, V-B:PRO:540:CB:9857, V-A:ARG:545:CZ:4926, V-B:TYR:539:C:9839, V-B:PRO:540:CA:9855, V-B:PRO:540:CG:9858, V-B:PRO:540:N:9856, V-A:ILE:369:CD1:3239, V-B:TYR:539:CE2:9848, V-B:ASP:366:CG:8185, V-A:LEU:475:CD2:4259, V-B:TYR:539:CD2:9846, V-A:ILE:369:CG2:3237, V-A:ASP:366:CG:3213, V-A:GLY:453:CA:4044, V-A:GLY:453:C:4042, V-B:TYR:531:CE2:9765, H-B:ASP:366:OD2:8187, V-B:TYR:531:CZ:9766, V-B:ASP:366:CB:8184, H-B:TYR:531:OH:9767, V-B:TYR:539:CZ:9849, V-B:TYR:539:CE1:9847, V-B:MET:535:CE:9807, V-B:LEU:363:CA:8157, V-B:LEU:363:CB:8159, V-B:LEU:363:CG:8160"]

$$$$
RR32_Rahimova_2017
     RDKit          3D

 18 20  0  0  0  0  0  0  0  0999 V2000
  125.5350  123.9340   61.4440 C   0  0  0  0  0  0  0  0  0  0  0  0
  126.4530  123.5020   60.3050 C   0  0  0  0  0  0  0  0  0  0  0  0
  127.7990  123.2750   60.5910 C   0  0  0  0  0  0  0  0  0  0  0  0
  128.6650  122.8770   59.5770 C   0  0  0  0  0  0  0  0  0  0  0  0
  130.0010  122.6530   59.8660 N   0  0  0  0  0  0  0  0  0  0  0  0
  130.7520  123.7600   60.4860 C   0  0  0  0  0  0  0  0  0  0  0  0
  132.2690  123.4790   60.6010 C   0  0  0  0  0  0  0  0  0  0  0  0
  132.4990  122.2630   61.3820 N   0  0  0  0  0  0  0  0  0  0  0  0
  133.9310  122.0160   61.5180 C   0  0  0  0  0  0  0  0  0  0  0  0
  131.8570  121.1510   60.6850 C   0  0  0  0  0  0  0  0  0  0  0  0
  130.3340  121.3990   60.5670 C   0  0  0  0  0  0  0  0  0  0  0  0
  128.2570  122.6960   58.2950 N   0  0  0  0  0  0  0  0  0  0  0  0
  126.9500  122.9120   57.9830 C   0  0  0  0  0  0  0  0  0  0  0  0
  126.5530  122.7180   56.6380 C   0  0  0  0  0  0  0  0  0  0  0  0
  125.2300  122.9230   56.2610 C   0  0  0  0  0  0  0  0  0  0  0  0
  124.2840  123.3200   57.1990 C   0  0  0  0  0  0  0  0  0  0  0  0
  124.6420  123.5200   58.5290 C   0  0  0  0  0  0  0  0  0  0  0  0
  125.9860  123.3210   58.9600 C   0  0  0  0  0  0  0  0  0  0  0  0
  1  2  1  0
  2  3  2  0
  3  4  1  0
  4  5  1  0
  5  6  1  0
  6  7  1  0
  7  8  1  0
  8  9  1  0
  8 10  1  0
 10 11  1  0
  4 12  2  0
 12 13  1  0
 13 14  2  0
 14 15  1  0
 15 16  2  0
 16 17  1  0
 17 18  2  0
 18  2  1  0
 11  5  1  0
 18 13  1  0
M  END
>  <Binding energies>  (83) 
[-6.52]

>  <Ligand effiencies>  (83) 
[-0.3622222222222222]

>  <Interactions>  (83) 
["V-B:LEU:363:CD1:8161, V-B:ILE:538:CD1:9837, V-B:PRO:540:CB:9857, V-B:TYR:539:C:9839, V-B:PRO:540:CA:9855, V-B:PRO:540:N:9856, V-A:ILE:369:CD1:3239, V-B:TYR:539:CE2:9848, V-A:LEU:475:CD2:4259, H-A:TYR:484:OH:4348, V-B:TYR:539:CD2:9846, V-A:GLY:454:CA:4049, V-A:ILE:369:CG2:3237, V-B:TYR:531:CE2:9765, V-B:TYR:531:CZ:9766"]

$$$$
RR5_Rahimova_2017
     RDKit          3D

 45 50  0  0  0  0  0  0  0  0999 V2000
  129.4490  121.8230   63.0760 O   0  0  0  0  0  0  0  0  0  0  0  0
  128.8710  122.6580   62.3810 C   0  0  0  0  0  0  0  0  0  0  0  0
  127.4340  123.0830   62.7370 C   0  0  0  0  0  0  0  0  0  0  0  0
  126.5150  123.3380   61.4890 C   0  0  2  0  0  0  0  0  0  0  0  0
  126.6890  124.6570   60.8470 N   0  0  0  0  0  0  0  0  0  0  0  0
  127.5980  125.5870   61.3300 C   0  0  0  0  0  0  0  0  0  0  0  0
  128.3750  125.4350   62.2760 O   0  0  0  0  0  0  0  0  0  0  0  0
  127.4850  126.7100   60.5990 O   0  0  0  0  0  0  0  0  0  0  0  0
  128.5160  127.1210   59.7050 C   0  0  0  0  0  0  0  0  0  0  0  0
  129.6170  127.8990   60.4580 C   0  0  0  0  0  0  0  0  0  0  0  0
  130.4760  128.7660   59.5560 C   0  0  0  0  0  0  0  0  0  0  0  0
  131.2530  128.4040   58.4510 C   0  0  0  0  0  0  0  0  0  0  0  0
  131.9540  129.3830   57.7440 C   0  0  0  0  0  0  0  0  0  0  0  0
  131.8810  130.7200   58.1370 C   0  0  0  0  0  0  0  0  0  0  0  0
  131.1070  131.0840   59.2410 C   0  0  0  0  0  0  0  0  0  0  0  0
  130.4080  130.1040   59.9480 C   0  0  0  0  0  0  0  0  0  0  0  0
  129.5400  130.1980   61.1320 C   0  0  0  0  0  0  0  0  0  0  0  0
  129.1600  131.2950   61.9080 C   0  0  0  0  0  0  0  0  0  0  0  0
  128.3290  131.1050   63.0130 C   0  0  0  0  0  0  0  0  0  0  0  0
  127.8760  129.8230   63.3370 C   0  0  0  0  0  0  0  0  0  0  0  0
  128.2540  128.7310   62.5560 C   0  0  0  0  0  0  0  0  0  0  0  0
  129.0840  128.9180   61.4480 C   0  0  0  0  0  0  0  0  0  0  0  0
  125.0240  123.1270   61.8510 C   0  0  0  0  0  0  0  0  0  0  0  0
  124.6270  122.6500   62.8950 O   0  0  0  0  0  0  0  0  0  0  0  0
  124.2360  123.5750   60.8310 O   0  0  0  0  0  0  0  0  0  0  0  0
  129.4140  123.2810   61.3120 N   0  0  0  0  0  0  0  0  0  0  0  0
  130.7410  123.1860   60.6310 C   0  0  0  0  0  0  0  0  0  0  0  0
  130.4590  123.8960   59.2640 C   0  0  0  0  0  0  0  0  0  0  0  0
  131.4230  124.7110   58.6490 C   0  0  0  0  0  0  0  0  0  0  0  0
  131.1620  125.3360   57.4330 C   0  0  0  0  0  0  0  0  0  0  0  0
  129.9270  125.1660   56.8160 C   0  0  0  0  0  0  0  0  0  0  0  0
  128.9540  124.3640   57.4020 C   0  0  0  0  0  0  0  0  0  0  0  0
  129.2200  123.7310   58.6130 C   0  0  0  0  0  0  0  0  0  0  0  0
  131.7740  123.9650   61.5120 C   0  0  0  0  0  0  0  0  0  0  0  0
  131.3650  124.8390   62.5310 C   0  0  0  0  0  0  0  0  0  0  0  0
  132.3020  125.5370   63.2900 C   0  0  0  0  0  0  0  0  0  0  0  0
  133.6600  125.3710   63.0370 C   0  0  0  0  0  0  0  0  0  0  0  0
  134.0900  124.5080   62.0350 C   0  0  0  0  0  0  0  0  0  0  0  0
  133.1530  123.8050   61.2850 C   0  0  0  0  0  0  0  0  0  0  0  0
  131.0390  121.6570   60.4730 C   0  0  0  0  0  0  0  0  0  0  0  0
  132.2940  121.2070   60.0230 C   0  0  0  0  0  0  0  0  0  0  0  0
  132.5630  119.8500   59.8720 C   0  0  0  0  0  0  0  0  0  0  0  0
  131.5800  118.9140   60.1750 C   0  0  0  0  0  0  0  0  0  0  0  0
  130.3350  119.3270   60.6350 C   0  0  0  0  0  0  0  0  0  0  0  0
  130.0710  120.6860   60.7840 C   0  0  0  0  0  0  0  0  0  0  0  0
  1  2  2  0
  2  3  1  0
  4  3  1  1
  4  5  1  0
  5  6  1  0
  6  7  2  0
  6  8  1  0
  8  9  1  0
  9 10  1  0
 10 11  1  0
 11 12  2  0
 12 13  1  0
 13 14  2  0
 14 15  1  0
 15 16  2  0
 16 17  1  0
 17 18  2  0
 18 19  1  0
 19 20  2  0
 20 21  1  0
 21 22  2  0
  4 23  1  0
 23 24  2  0
 23 25  1  0
  2 26  1  0
 26 27  1  0
 27 28  1  0
 28 29  2  0
 29 30  1  0
 30 31  2  0
 31 32  1  0
 32 33  2  0
 27 34  1  0
 34 35  2  0
 35 36  1  0
 36 37  2  0
 37 38  1  0
 38 39  2  0
 27 40  1  0
 40 41  2  0
 41 42  1  0
 42 43  2  0
 43 44  1  0
 44 45  2  0
 22 10  1  0
 33 28  1  0
 39 34  1  0
 45 40  1  0
 16 11  1  0
 22 17  1  0
M  END
>  <Binding energies>  (84) 
[-8.88]

>  <Ligand effiencies>  (84) 
[-0.18500000000000003]

>  <Interactions>  (84) 
["V-B:PRO:540:CB:9857, V-A:ARG:545:CZ:4926, V-B:TYR:539:C:9839, V-B:PRO:540:CA:9855, V-B:GLU:543:CD:9880, V-A:ILE:369:CD1:3239, V-B:TYR:539:CE2:9848, V-B:PRO:540:C:9853, H-B:ALA:541:N:9863, V-A:SER:385:CB:3409, V-A:LEU:475:CD2:4259, H-A:TYR:484:OH:4348, V-B:TYR:539:CD2:9846, V-B:ALA:541:CB:9864, V-A:GLU:543:CD:4908, V-A:GLU:543:CG:4907, V-A:ILE:369:CG2:3237, V-A:ASP:366:CG:3213, V-A:ASP:366:CB:3212, V-A:GLY:453:CA:4044, V-A:GLY:453:C:4042, V-B:GLU:543:CG:9879, H-B:ASP:366:OD2:8187, V-A:TYR:484:CE1:4345, V-B:TYR:539:CZ:9849, V-B:MET:535:CE:9807, H-B:ARG:545:NH2:9900, V-A:PRO:540:CA:4883, V-A:PRO:540:CB:4885, V-B:ASN:362:CB:8148, V-A:ALA:541:CB:4892, H-B:ASN:362:ND2:8151, H-B:ASP:366:OD1:8186"]

$$$$
