1a_Ghoteimi_2023
     RDKit          3D

 67 70  0  0  0  0  0  0  0  0999 V2000
  130.5920  132.1180   55.5340 C   0  0  0  0  0  0  0  0  0  0  0  0
  129.8370  131.5870   56.7560 C   0  0  0  0  0  0  0  0  0  0  0  0
  128.4370  131.6930   56.5270 O   0  0  0  0  0  0  0  0  0  0  0  0
  127.7730  130.7590   55.7990 C   0  0  0  0  0  0  0  0  0  0  0  0
  127.5630  130.8640   54.5860 O   0  0  0  0  0  0  0  0  0  0  0  0
  127.3220  129.5820   56.6150 C   0  0  0  0  0  0  0  0  0  0  0  0
  128.2060  128.5600   56.9940 C   0  0  0  0  0  0  0  0  0  0  0  0
  127.7580  127.4790   57.7490 C   0  0  0  0  0  0  0  0  0  0  0  0
  126.4140  127.4030   58.1420 C   0  0  0  0  0  0  0  0  0  0  0  0
  125.8540  126.3560   58.9000 N   0  0  0  0  0  0  0  0  0  0  0  0
  125.5620  125.0870   58.5390 C   0  0  0  0  0  0  0  0  0  0  0  0
  125.7600  124.5950   57.4290 O   0  0  0  0  0  0  0  0  0  0  0  0
  124.9400  124.2200   59.6340 C   0  0  0  0  0  0  0  0  0  0  0  0
  126.2080  123.3530   60.6060 S   0  0  0  0  0  0  0  0  0  0  0  0
  127.1010  124.6120   61.4880 C   0  0  0  0  0  0  0  0  0  0  0  0
  126.4560  125.8010   61.5530 N   0  0  0  0  0  0  0  0  0  0  0  0
  127.0300  126.8460   62.2050 C   0  0  0  0  0  0  0  0  0  0  0  0
  126.2420  128.1240   62.2520 C   0  0  0  0  0  0  0  0  0  0  0  0
  125.9250  128.7420   63.4730 C   0  0  0  0  0  0  0  0  0  0  0  0
  125.1960  129.9260   63.5120 C   0  0  0  0  0  0  0  0  0  0  0  0
  124.7590  130.5300   62.3360 C   0  0  0  0  0  0  0  0  0  0  0  0
  124.0440  131.7050   62.4700 O   0  0  0  0  0  0  0  0  0  0  0  0
  124.5580  132.9000   61.8930 C   0  0  0  0  0  0  0  0  0  0  0  0
  125.0640  129.9240   61.1090 C   0  0  0  0  0  0  0  0  0  0  0  0
  125.7930  128.7390   61.0730 C   0  0  0  0  0  0  0  0  0  0  0  0
  128.2850  126.7060   62.8090 C   0  0  0  0  0  0  0  0  0  0  0  0
  128.9830  125.4940   62.7340 C   0  0  0  0  0  0  0  0  0  0  0  0
  130.3320  125.4270   63.3740 C   0  0  0  0  0  0  0  0  0  0  0  0
  130.4780  125.5890   64.7560 C   0  0  0  0  0  0  0  0  0  0  0  0
  131.7360  125.5110   65.3470 C   0  0  0  0  0  0  0  0  0  0  0  0
  132.8690  125.2610   64.5730 C   0  0  0  0  0  0  0  0  0  0  0  0
  134.0730  125.2000   65.2460 O   0  0  0  0  0  0  0  0  0  0  0  0
  134.0880  125.3620   66.6600 C   0  0  0  0  0  0  0  0  0  0  0  0
  132.7250  125.0890   63.1870 C   0  0  0  0  0  0  0  0  0  0  0  0
  131.4660  125.1690   62.5980 C   0  0  0  0  0  0  0  0  0  0  0  0
  128.3770  124.4080   62.0570 C   0  0  0  0  0  0  0  0  0  0  0  0
  129.0520  123.1100   61.9580 C   0  0  0  0  0  0  0  0  0  0  0  0
  129.5850  122.0860   61.8810 N   0  0  0  0  0  0  0  0  0  0  0  0
  125.5320  128.4150   57.7630 C   0  0  0  0  0  0  0  0  0  0  0  0
  125.9810  129.4960   57.0090 C   0  0  0  0  0  0  0  0  0  0  0  0
  131.4497  132.7212   55.8665 H   0  0  0  0  0  0  0  0  0  0  0  0
  130.9510  131.2725   54.9289 H   0  0  0  0  0  0  0  0  0  0  0  0
  129.9176  132.7417   54.9289 H   0  0  0  0  0  0  0  0  0  0  0  0
  130.1032  130.5328   56.9227 H   0  0  0  0  0  0  0  0  0  0  0  0
  130.1107  132.1771   57.6430 H   0  0  0  0  0  0  0  0  0  0  0  0
  129.2624  128.6133   56.6919 H   0  0  0  0  0  0  0  0  0  0  0  0
  128.4600  126.6829   58.0378 H   0  0  0  0  0  0  0  0  0  0  0  0
  125.6780  126.5950   59.8640 H   0  0  0  0  0  0  0  0  0  0  0  0
  124.3524  124.8622   60.3066 H   0  0  0  0  0  0  0  0  0  0  0  0
  124.3012  123.4650   59.1524 H   0  0  0  0  0  0  0  0  0  0  0  0
  126.2590  128.2817   64.4145 H   0  0  0  0  0  0  0  0  0  0  0  0
  124.9624  130.3898   64.4817 H   0  0  0  0  0  0  0  0  0  0  0  0
  124.8566  133.5942   62.6924 H   0  0  0  0  0  0  0  0  0  0  0  0
  125.4324  132.6599   61.2703 H   0  0  0  0  0  0  0  0  0  0  0  0
  123.7823  133.3696   61.2703 H   0  0  0  0  0  0  0  0  0  0  0  0
  124.7255  130.3873   60.1705 H   0  0  0  0  0  0  0  0  0  0  0  0
  126.0217  128.2756   60.1020 H   0  0  0  0  0  0  0  0  0  0  0  0
  128.7276  127.5566   63.3481 H   0  0  0  0  0  0  0  0  0  0  0  0
  129.5924  125.7794   65.3800 H   0  0  0  0  0  0  0  0  0  0  0  0
  131.8373  125.6477   66.4338 H   0  0  0  0  0  0  0  0  0  0  0  0
  133.9969  124.3778   67.1428 H   0  0  0  0  0  0  0  0  0  0  0  0
  135.0337  125.8339   66.9650 H   0  0  0  0  0  0  0  0  0  0  0  0
  133.2450  125.9995   66.9650 H   0  0  0  0  0  0  0  0  0  0  0  0
  133.6098  124.8904   62.5644 H   0  0  0  0  0  0  0  0  0  0  0  0
  131.3625  125.0279   61.5120 H   0  0  0  0  0  0  0  0  0  0  0  0
  124.4748  128.3587   58.0617 H   0  0  0  0  0  0  0  0  0  0  0  0
  125.2761  130.2895   56.7203 H   0  0  0  0  0  0  0  0  0  0  0  0
  1  2  1  0
  2  3  1  0
  3  4  1  0
  4  5  2  0
  4  6  1  0
  6  7  2  0
  7  8  1  0
  8  9  2  0
  9 10  1  0
 10 11  1  0
 11 12  2  0
 11 13  1  0
 13 14  1  0
 14 15  1  0
 15 16  2  0
 16 17  1  0
 17 18  1  0
 18 19  2  0
 19 20  1  0
 20 21  2  0
 21 22  1  0
 22 23  1  0
 21 24  1  0
 24 25  2  0
 17 26  2  0
 26 27  1  0
 27 28  1  0
 28 29  2  0
 29 30  1  0
 30 31  2  0
 31 32  1  0
 32 33  1  0
 31 34  1  0
 34 35  2  0
 27 36  2  0
 36 37  1  0
 37 38  3  0
  9 39  1  0
 39 40  2  0
 40  6  1  0
 36 15  1  0
 25 18  1  0
 35 28  1  0
  1 41  1  0
  1 42  1  0
  1 43  1  0
  2 44  1  0
  2 45  1  0
  7 46  1  0
  8 47  1  0
 10 48  1  0
 13 49  1  0
 13 50  1  0
 19 51  1  0
 20 52  1  0
 23 53  1  0
 23 54  1  0
 23 55  1  0
 24 56  1  0
 25 57  1  0
 26 58  1  0
 29 59  1  0
 30 60  1  0
 33 61  1  0
 33 62  1  0
 33 63  1  0
 34 64  1  0
 35 65  1  0
 39 66  1  0
 40 67  1  0
M  END
>  <Binding energies>  (1) 
[-9.26]

>  <Ligand effiencies>  (1) 
[-0.22585365853658537]

>  <Interactions>  (1) 
["H-B:ALA:541:N:9863, V-B:PRO:540:CB:9857, H-B:TYR:531:OH:9767, V-B:TYR:531:CZ:9766, H-A:TYR:484:OH:4347, H-A:GLY:454:N:4049, V-A:ILE:538:CA:4860, V-A:ILE:538:CG2:4863, V-A:TYR:539:CZ:4877, V-A:TYR:539:CE1:4875, V-A:ILE:538:CB:4862, V-B:ASP:366:CG:8184, V-B:TYR:531:CE1:9764, H-B:LYS:534:NZ:9795, H-B:GLY:454:N:9021, V-B:ASP:366:CB:8183, V-B:ARG:545:CZ:9898, V-B:ILE:369:CD1:8210, H-B:ARG:545:NH2:9900, H-A:TYR:539:OH:4878, H-A:ARG:545:NH2:4928, V-A:TYR:484:CZ:4346, V-A:ARG:545:CD:4923, V-B:GLU:543:CD:9880, H-A:ARG:545:NE:4924, V-A:ARG:545:CG:4922, V-A:ARG:545:CZ:4926, H-A:ARG:545:NH1:4927, V-B:LEU:475:CD1:9229, V-B:ILE:369:CG2:8208, H-B:ASP:366:OD1:8185"]

$$$$
1a_Grossjean_2025
     RDKit          3D

 45 46  0  0  0  0  0  0  0  0999 V2000
  124.3760  123.7520   58.9120 C   0  0  0  0  0  0  0  0  0  0  0  0
  125.4830  124.5450   58.2120 C   0  0  0  0  0  0  0  0  0  0  0  0
  125.8390  123.8920   56.9990 O   0  0  0  0  0  0  0  0  0  0  0  0
  126.6450  122.7990   57.0020 C   0  0  0  0  0  0  0  0  0  0  0  0
  126.3190  121.7120   56.5150 O   0  0  0  0  0  0  0  0  0  0  0  0
  127.9680  123.0380   57.6720 C   0  0  0  0  0  0  0  0  0  0  0  0
  128.3440  122.2290   58.7510 C   0  0  0  0  0  0  0  0  0  0  0  0
  129.5620  122.4290   59.3950 C   0  0  0  0  0  0  0  0  0  0  0  0
  130.4260  123.4410   58.9770 C   0  0  0  0  0  0  0  0  0  0  0  0
  131.6290  123.5550   59.7020 N   0  0  0  0  0  0  0  0  0  0  0  0
  132.9080  123.4700   59.2800 C   0  0  0  0  0  0  0  0  0  0  0  0
  133.2660  123.2680   58.1200 O   0  0  0  0  0  0  0  0  0  0  0  0
  133.9700  123.6450   60.3680 C   0  0  0  0  0  0  0  0  0  0  0  0
  134.2070  122.1310   61.3440 S   0  0  0  0  0  0  0  0  0  0  0  0
  132.6200  121.3440   61.5050 C   0  0  0  0  0  0  0  0  0  0  0  0
  131.6820  122.1210   62.1040 N   0  0  0  0  0  0  0  0  0  0  0  0
  130.4380  121.6180   62.2820 C   0  0  0  0  0  0  0  0  0  0  0  0
  129.4470  122.5390   62.9700 C   0  0  0  0  0  0  0  0  0  0  0  0
  130.0770  120.3390   61.8660 C   0  0  0  0  0  0  0  0  0  0  0  0
  131.0300  119.5370   61.2280 C   0  0  0  0  0  0  0  0  0  0  0  0
  130.6080  118.1440   60.7670 C   0  0  0  0  0  0  0  0  0  0  0  0
  132.3360  120.0430   61.0280 C   0  0  0  0  0  0  0  0  0  0  0  0
  133.3370  119.2400   60.3200 C   0  0  0  0  0  0  0  0  0  0  0  0
  134.1250  118.6050   59.7600 N   0  0  0  0  0  0  0  0  0  0  0  0
  130.0610  124.2520   57.8920 C   0  0  0  0  0  0  0  0  0  0  0  0
  128.8430  124.0510   57.2490 C   0  0  0  0  0  0  0  0  0  0  0  0
  124.4963  123.8382   60.0020 H   0  0  0  0  0  0  0  0  0  0  0  0
  123.3951  124.1542   58.6185 H   0  0  0  0  0  0  0  0  0  0  0  0
  124.4412  122.6939   58.6185 H   0  0  0  0  0  0  0  0  0  0  0  0
  125.1226  125.5603   57.9899 H   0  0  0  0  0  0  0  0  0  0  0  0
  126.3634  124.6043   58.8688 H   0  0  0  0  0  0  0  0  0  0  0  0
  127.6714  121.4286   59.0928 H   0  0  0  0  0  0  0  0  0  0  0  0
  129.8451  121.7840   60.2399 H   0  0  0  0  0  0  0  0  0  0  0  0
  131.4980  123.7620   60.6810 H   0  0  0  0  0  0  0  0  0  0  0  0
  134.9247  123.9127   59.8916 H   0  0  0  0  0  0  0  0  0  0  0  0
  133.6277  124.4370   61.0503 H   0  0  0  0  0  0  0  0  0  0  0  0
  129.5520  122.4415   64.0606 H   0  0  0  0  0  0  0  0  0  0  0  0
  129.6468  123.5794   62.6740 H   0  0  0  0  0  0  0  0  0  0  0  0
  128.4240  122.2636   62.6740 H   0  0  0  0  0  0  0  0  0  0  0  0
  129.0569  119.9643   62.0365 H   0  0  0  0  0  0  0  0  0  0  0  0
  130.4159  117.5098   61.6450 H   0  0  0  0  0  0  0  0  0  0  0  0
  129.6925  118.2197   60.1619 H   0  0  0  0  0  0  0  0  0  0  0  0
  131.4116  117.6989   60.1619 H   0  0  0  0  0  0  0  0  0  0  0  0
  130.7384  125.0479   57.5489 H   0  0  0  0  0  0  0  0  0  0  0  0
  128.5631  124.6926   56.4005 H   0  0  0  0  0  0  0  0  0  0  0  0
  1  2  1  0
  2  3  1  0
  3  4  1  0
  4  5  2  0
  4  6  1  0
  6  7  2  0
  7  8  1  0
  8  9  2  0
  9 10  1  0
 10 11  1  0
 11 12  2  0
 11 13  1  0
 13 14  1  0
 14 15  1  0
 15 16  2  0
 16 17  1  0
 17 18  1  0
 17 19  2  0
 19 20  1  0
 20 21  1  0
 20 22  2  0
 22 23  1  0
 23 24  3  0
  9 25  1  0
 25 26  2  0
 26  6  1  0
 22 15  1  0
  1 27  1  0
  1 28  1  0
  1 29  1  0
  2 30  1  0
  2 31  1  0
  7 32  1  0
  8 33  1  0
 10 34  1  0
 13 35  1  0
 13 36  1  0
 18 37  1  0
 18 38  1  0
 18 39  1  0
 19 40  1  0
 21 41  1  0
 21 42  1  0
 21 43  1  0
 25 44  1  0
 26 45  1  0
M  END
>  <Binding energies>  (1) 
[-8.1]

>  <Ligand effiencies>  (1) 
[-0.3]

>  <Interactions>  (1) 
["V-B:PRO:540:CB:9857, H-B:TYR:531:OH:9767, V-B:MET:535:CE:9807, V-A:ILE:369:CG2:3236, V-B:TYR:539:CD2:9846, V-B:PRO:540:N:9856, V-A:LEU:475:CD1:4257, V-B:PRO:540:CA:9855, H-A:SER:385:OG:3409, H-A:HIS:383:NE2:3393, H-B:TYR:539:N:9842, V-B:ALA:541:CB:9864, V-B:TYR:539:CE2:9848, V-B:TYR:539:C:9839, V-B:TYR:531:CE2:9765, V-A:PRO:482:CG:4326, V-A:PRO:482:CB:4325, V-B:LEU:363:CD1:8160, V-A:ASP:366:CG:3212, V-A:ASP:366:CA:3209, H-B:TYR:539:OH:9850, V-A:ILE:369:CD1:3238, V-B:TYR:539:CZ:9849, V-B:LEU:363:CA:8156, V-A:ILE:369:CB:3235, V-B:ALA:541:CA:9862, V-B:LEU:363:CB:8158"]

$$$$
1aa_Ghoteimi_2023
     RDKit          3D

 67 70  0  0  0  0  0  0  0  0999 V2000
  129.1660  124.3310   72.8860 C   0  0  0  0  0  0  0  0  0  0  0  0
  129.4800  125.8150   73.0970 C   0  0  0  0  0  0  0  0  0  0  0  0
  128.6140  126.6020   72.2870 O   0  0  0  0  0  0  0  0  0  0  0  0
  129.0990  127.6070   71.5140 C   0  0  0  0  0  0  0  0  0  0  0  0
  129.4460  128.7040   71.9640 O   0  0  0  0  0  0  0  0  0  0  0  0
  129.1720  127.2540   70.0570 C   0  0  0  0  0  0  0  0  0  0  0  0
  129.3320  128.2320   69.0630 C   0  0  0  0  0  0  0  0  0  0  0  0
  129.3970  127.8750   67.7180 C   0  0  0  0  0  0  0  0  0  0  0  0
  129.3050  126.5260   67.3430 C   0  0  0  0  0  0  0  0  0  0  0  0
  129.3570  126.0490   66.0200 N   0  0  0  0  0  0  0  0  0  0  0  0
  130.4170  125.6980   65.2560 C   0  0  0  0  0  0  0  0  0  0  0  0
  131.5920  125.7360   65.6220 O   0  0  0  0  0  0  0  0  0  0  0  0
  130.1240  125.2130   63.8270 C   0  0  0  0  0  0  0  0  0  0  0  0
  128.7510  124.8210   63.7010 O   0  0  0  0  0  0  0  0  0  0  0  0
  127.9990  125.2390   62.6130 C   0  0  0  0  0  0  0  0  0  0  0  0
  127.4970  126.5050   62.6300 N   0  0  0  0  0  0  0  0  0  0  0  0
  126.7430  126.9470   61.5890 C   0  0  0  0  0  0  0  0  0  0  0  0
  126.2300  128.3550   61.6820 C   0  0  0  0  0  0  0  0  0  0  0  0
  125.8620  128.9090   62.9170 C   0  0  0  0  0  0  0  0  0  0  0  0
  125.3840  130.2140   63.0060 C   0  0  0  0  0  0  0  0  0  0  0  0
  125.2600  131.0040   61.8660 C   0  0  0  0  0  0  0  0  0  0  0  0
  124.7760  132.2850   62.0510 O   0  0  0  0  0  0  0  0  0  0  0  0
  125.0250  133.2710   61.0540 C   0  0  0  0  0  0  0  0  0  0  0  0
  125.6280  130.4670   60.6260 C   0  0  0  0  0  0  0  0  0  0  0  0
  126.1070  129.1630   60.5400 C   0  0  0  0  0  0  0  0  0  0  0  0
  126.4920  126.1200   60.4880 C   0  0  0  0  0  0  0  0  0  0  0  0
  127.0060  124.8160   60.4400 C   0  0  0  0  0  0  0  0  0  0  0  0
  126.7120  123.9870   59.2340 C   0  0  0  0  0  0  0  0  0  0  0  0
  127.7530  123.3660   58.5370 C   0  0  0  0  0  0  0  0  0  0  0  0
  127.4850  122.5840   57.4170 C   0  0  0  0  0  0  0  0  0  0  0  0
  126.1760  122.4010   56.9740 C   0  0  0  0  0  0  0  0  0  0  0  0
  126.0060  121.6100   55.8550 O   0  0  0  0  0  0  0  0  0  0  0  0
  125.0160  121.9650   54.8960 C   0  0  0  0  0  0  0  0  0  0  0  0
  125.1280  123.0160   57.6760 C   0  0  0  0  0  0  0  0  0  0  0  0
  125.3970  123.7990   58.7950 C   0  0  0  0  0  0  0  0  0  0  0  0
  127.7730  124.3620   61.5390 C   0  0  0  0  0  0  0  0  0  0  0  0
  128.3130  123.0030   61.5990 C   0  0  0  0  0  0  0  0  0  0  0  0
  128.7410  121.9290   61.6480 N   0  0  0  0  0  0  0  0  0  0  0  0
  129.1440  125.5520   68.3290 C   0  0  0  0  0  0  0  0  0  0  0  0
  129.0790  125.9100   69.6720 C   0  0  0  0  0  0  0  0  0  0  0  0
  129.0612  123.8359   73.8627 H   0  0  0  0  0  0  0  0  0  0  0  0
  128.2269  124.2315   72.3219 H   0  0  0  0  0  0  0  0  0  0  0  0
  129.9843  123.8597   72.3219 H   0  0  0  0  0  0  0  0  0  0  0  0
  129.3294  126.0750   74.1552 H   0  0  0  0  0  0  0  0  0  0  0  0
  130.5251  126.0126   72.8165 H   0  0  0  0  0  0  0  0  0  0  0  0
  129.4069  129.2915   69.3491 H   0  0  0  0  0  0  0  0  0  0  0  0
  129.5206  128.6517   66.9489 H   0  0  0  0  0  0  0  0  0  0  0  0
  128.4510  125.9510   65.5830 H   0  0  0  0  0  0  0  0  0  0  0  0
  130.3344  126.0274   63.1181 H   0  0  0  0  0  0  0  0  0  0  0  0
  130.7631  124.3449   63.6081 H   0  0  0  0  0  0  0  0  0  0  0  0
  125.9525  128.3026   63.8303 H   0  0  0  0  0  0  0  0  0  0  0  0
  125.1016  130.6248   63.9866 H   0  0  0  0  0  0  0  0  0  0  0  0
  125.2669  134.2288   61.5379 H   0  0  0  0  0  0  0  0  0  0  0  0
  125.8710  132.9530   60.4270 H   0  0  0  0  0  0  0  0  0  0  0  0
  124.1294  133.3928   60.4270 H   0  0  0  0  0  0  0  0  0  0  0  0
  125.5381  131.0785   59.7160 H   0  0  0  0  0  0  0  0  0  0  0  0
  126.3947  128.7576   59.5588 H   0  0  0  0  0  0  0  0  0  0  0  0
  125.8852  126.4968   59.6515 H   0  0  0  0  0  0  0  0  0  0  0  0
  128.7913  123.4964   58.8762 H   0  0  0  0  0  0  0  0  0  0  0  0
  128.3147  122.1055   56.8760 H   0  0  0  0  0  0  0  0  0  0  0  0
  124.1032  122.2923   55.4153 H   0  0  0  0  0  0  0  0  0  0  0  0
  125.3930  122.7840   54.2658 H   0  0  0  0  0  0  0  0  0  0  0  0
  124.7867  121.0931   54.2658 H   0  0  0  0  0  0  0  0  0  0  0  0
  124.0894  122.8787   57.3405 H   0  0  0  0  0  0  0  0  0  0  0  0
  124.5677  124.2745   59.3393 H   0  0  0  0  0  0  0  0  0  0  0  0
  129.0679  124.4927   68.0424 H   0  0  0  0  0  0  0  0  0  0  0  0
  128.9535  125.1309   70.4383 H   0  0  0  0  0  0  0  0  0  0  0  0
  1  2  1  0
  2  3  1  0
  3  4  1  0
  4  5  2  0
  4  6  1  0
  6  7  2  0
  7  8  1  0
  8  9  2  0
  9 10  1  0
 10 11  1  0
 11 12  2  0
 11 13  1  0
 13 14  1  0
 14 15  1  0
 15 16  2  0
 16 17  1  0
 17 18  1  0
 18 19  2  0
 19 20  1  0
 20 21  2  0
 21 22  1  0
 22 23  1  0
 21 24  1  0
 24 25  2  0
 17 26  2  0
 26 27  1  0
 27 28  1  0
 28 29  2  0
 29 30  1  0
 30 31  2  0
 31 32  1  0
 32 33  1  0
 31 34  1  0
 34 35  2  0
 27 36  2  0
 36 37  1  0
 37 38  3  0
  9 39  1  0
 39 40  2  0
 40  6  1  0
 36 15  1  0
 25 18  1  0
 35 28  1  0
  1 41  1  0
  1 42  1  0
  1 43  1  0
  2 44  1  0
  2 45  1  0
  7 46  1  0
  8 47  1  0
 10 48  1  0
 13 49  1  0
 13 50  1  0
 19 51  1  0
 20 52  1  0
 23 53  1  0
 23 54  1  0
 23 55  1  0
 24 56  1  0
 25 57  1  0
 26 58  1  0
 29 59  1  0
 30 60  1  0
 33 61  1  0
 33 62  1  0
 33 63  1  0
 34 64  1  0
 35 65  1  0
 39 66  1  0
 40 67  1  0
M  END
>  <Binding energies>  (1) 
[-8.8]

>  <Ligand effiencies>  (1) 
[-0.21463414634146344]

>  <Interactions>  (1) 
["H-B:ALA:541:N:9863, V-B:PRO:540:CB:9857, V-B:MET:535:CE:9807, V-B:PRO:540:N:9856, V-B:PRO:540:CA:9855, H-B:TYR:539:N:9842, V-B:MET:535:CG:9805, V-B:TYR:539:C:9839, V-B:LEU:363:CD1:8160, H-A:TYR:484:OH:4347, V-B:PRO:540:CD:9859, V-B:ASP:366:CG:8184, V-B:ARG:545:CZ:9898, V-A:GLU:543:CD:4908, H-B:ARG:545:NH2:9900, V-A:GLU:543:C:4902, V-B:HIS:456:CE1:9041, V-A:HIS:456:CE1:4069, V-B:GLU:543:CB:9878, V-B:GLU:543:CG:9879, V-B:GLU:543:CD:9880, H-B:GLU:543:OE2:9882, V-A:GLU:543:CB:4906, V-A:TYR:484:CE2:4345, V-B:ILE:369:CG2:8208, V-B:ILE:538:CA:9832, V-B:ILE:538:CG1:9836, V-B:ILE:538:CG2:9835, V-B:ILE:538:CB:9834, V-B:GLU:543:CA:9876, V-B:GLU:543:C:9874, H-A:GLU:543:OE1:4909, V-B:MET:535:CB:9804, V-B:HIS:456:CD2:9039, V-A:HIS:456:CD2:4067"]

$$$$
1b_Ghoteimi_2023
     RDKit          3D

 54 57  0  0  0  0  0  0  0  0999 V2000
  133.9240  125.4220   66.2800 C   0  0  0  0  0  0  0  0  0  0  0  0
  133.9680  125.0010   64.9220 O   0  0  0  0  0  0  0  0  0  0  0  0
  132.9310  125.3460   64.0770 C   0  0  0  0  0  0  0  0  0  0  0  0
  133.0980  125.0410   62.7270 C   0  0  0  0  0  0  0  0  0  0  0  0
  132.1070  125.3530   61.8010 C   0  0  0  0  0  0  0  0  0  0  0  0
  130.9150  125.9760   62.1970 C   0  0  0  0  0  0  0  0  0  0  0  0
  129.8470  126.3130   61.1940 C   0  0  0  0  0  0  0  0  0  0  0  0
  129.2240  125.3500   60.3930 C   0  0  0  0  0  0  0  0  0  0  0  0
  128.2320  125.7160   59.4750 C   0  0  0  0  0  0  0  0  0  0  0  0
  127.6130  124.6360   58.6500 C   0  0  0  0  0  0  0  0  0  0  0  0
  128.4190  123.7410   57.9410 C   0  0  0  0  0  0  0  0  0  0  0  0
  127.8480  122.7380   57.1630 C   0  0  0  0  0  0  0  0  0  0  0  0
  126.4610  122.6110   57.0760 C   0  0  0  0  0  0  0  0  0  0  0  0
  125.9830  121.5870   56.2810 O   0  0  0  0  0  0  0  0  0  0  0  0
  125.1220  121.8990   55.1920 C   0  0  0  0  0  0  0  0  0  0  0  0
  125.6480  123.5120   57.7800 C   0  0  0  0  0  0  0  0  0  0  0  0
  126.2230  124.5150   58.5560 C   0  0  0  0  0  0  0  0  0  0  0  0
  127.8660  127.0820   59.3870 C   0  0  0  0  0  0  0  0  0  0  0  0
  126.7670  127.5030   58.5120 C   0  0  0  0  0  0  0  0  0  0  0  0
  125.9000  127.8340   57.8210 N   0  0  0  0  0  0  0  0  0  0  0  0
  128.5490  128.0060   60.2090 C   0  0  0  0  0  0  0  0  0  0  0  0
  128.2290  129.7580   60.2260 S   0  0  0  0  0  0  0  0  0  0  0  0
  129.5950  130.5860   59.3440 C   0  0  0  0  0  0  0  0  0  0  0  0
  129.3880  130.7490   57.8320 C   0  0  0  0  0  0  0  0  0  0  0  0
  130.0060  131.6090   57.2000 O   0  0  0  0  0  0  0  0  0  0  0  0
  128.4960  129.8900   57.2900 N   0  0  0  0  0  0  0  0  0  0  0  0
  128.1130  129.8050   55.9560 C   0  0  0  0  0  0  0  0  0  0  0  0
  128.5330  128.7830   55.1070 C   0  0  0  0  0  0  0  0  0  0  0  0
  127.9430  129.0590   53.8950 C   0  0  0  0  0  0  0  0  0  0  0  0
  127.2030  130.1880   54.0100 O   0  0  0  0  0  0  0  0  0  0  0  0
  127.3190  130.6520   55.3210 N   0  0  0  0  0  0  0  0  0  0  0  0
  129.4960  127.6220   61.0990 N   0  0  0  0  0  0  0  0  0  0  0  0
  130.7580  126.2800   63.5590 C   0  0  0  0  0  0  0  0  0  0  0  0
  131.7470  125.9710   64.4880 C   0  0  0  0  0  0  0  0  0  0  0  0
  134.0156  124.5458   66.9387 H   0  0  0  0  0  0  0  0  0  0  0  0
  134.7545  126.1163   66.4757 H   0  0  0  0  0  0  0  0  0  0  0  0
  132.9679  125.9295   66.4757 H   0  0  0  0  0  0  0  0  0  0  0  0
  134.0223  124.5488   62.3903 H   0  0  0  0  0  0  0  0  0  0  0  0
  132.2616  125.1066   60.7402 H   0  0  0  0  0  0  0  0  0  0  0  0
  129.5166  124.2937   60.4853 H   0  0  0  0  0  0  0  0  0  0  0  0
  129.5139  123.8300   57.9983 H   0  0  0  0  0  0  0  0  0  0  0  0
  128.4953  122.0397   56.6122 H   0  0  0  0  0  0  0  0  0  0  0  0
  124.1539  122.2498   55.5789 H   0  0  0  0  0  0  0  0  0  0  0  0
  125.5792  122.6886   54.5776 H   0  0  0  0  0  0  0  0  0  0  0  0
  124.9673  120.9998   54.5776 H   0  0  0  0  0  0  0  0  0  0  0  0
  124.5531  123.4258   57.7187 H   0  0  0  0  0  0  0  0  0  0  0  0
  125.5772  125.2194   59.1007 H   0  0  0  0  0  0  0  0  0  0  0  0
  129.7252  131.5874   59.7803 H   0  0  0  0  0  0  0  0  0  0  0  0
  130.4757  129.9382   59.4651 H   0  0  0  0  0  0  0  0  0  0  0  0
  128.0610  129.2220   57.9090 H   0  0  0  0  0  0  0  0  0  0  0  0
  129.1934  127.9383   55.3526 H   0  0  0  0  0  0  0  0  0  0  0  0
  128.0543  128.4592   52.9796 H   0  0  0  0  0  0  0  0  0  0  0  0
  129.8347  126.7723   63.8984 H   0  0  0  0  0  0  0  0  0  0  0  0
  131.5982  126.2186   65.5494 H   0  0  0  0  0  0  0  0  0  0  0  0
  1  2  1  0
  2  3  1  0
  3  4  2  0
  4  5  1  0
  5  6  2  0
  6  7  1  0
  7  8  2  0
  8  9  1  0
  9 10  1  0
 10 11  2  0
 11 12  1  0
 12 13  2  0
 13 14  1  0
 14 15  1  0
 13 16  1  0
 16 17  2  0
  9 18  2  0
 18 19  1  0
 19 20  3  0
 18 21  1  0
 21 22  1  0
 22 23  1  0
 23 24  1  0
 24 25  2  0
 24 26  1  0
 26 27  1  0
 27 28  1  0
 28 29  2  0
 29 30  1  0
 30 31  1  0
 21 32  2  0
  6 33  1  0
 33 34  2  0
 34  3  1  0
 32  7  1  0
 17 10  1  0
 31 27  2  0
  1 35  1  0
  1 36  1  0
  1 37  1  0
  4 38  1  0
  5 39  1  0
  8 40  1  0
 11 41  1  0
 12 42  1  0
 15 43  1  0
 15 44  1  0
 15 45  1  0
 16 46  1  0
 17 47  1  0
 23 48  1  0
 23 49  1  0
 26 50  1  0
 28 51  1  0
 29 52  1  0
 33 53  1  0
 34 54  1  0
M  END
>  <Binding energies>  (1) 
[-8.21]

>  <Ligand effiencies>  (1) 
[-0.2345714285714286]

>  <Interactions>  (1) 
["V-B:PRO:540:CB:9857, H-B:TYR:531:OH:9767, V-B:MET:535:CE:9807, V-B:PRO:540:N:9856, V-B:PRO:540:CA:9855, H-B:TYR:539:N:9842, V-B:MET:535:CG:9805, V-B:TYR:539:C:9839, V-B:TYR:531:CZ:9766, V-B:LEU:363:CD1:8160, H-A:TYR:484:OH:4347, V-A:ASP:366:CG:3212, H-A:GLY:454:N:4049, V-B:TYR:531:CE1:9764, H-B:LYS:534:NZ:9795, V-A:GLU:543:CD:4908, H-A:TYR:539:OH:4878, H-A:ARG:545:NH2:4928, V-A:ARG:545:CD:4923, H-A:ARG:545:NE:4924, V-A:ARG:545:CG:4922, V-A:ARG:545:CZ:4926, H-A:ARG:545:NH1:4927, V-B:LYS:534:CE:9794, V-B:LYS:534:CD:9793, V-B:ILE:538:CA:9832, V-B:ILE:538:CG1:9836, V-B:ILE:538:CG2:9835, V-B:ILE:538:CB:9834"]

$$$$
1b_Grossjean_2025
     RDKit          3D

 42 43  0  0  0  0  0  0  0  0999 V2000
  125.0140  124.2240   58.0920 C   0  0  0  0  0  0  0  0  0  0  0  0
  125.8550  123.9150   56.9900 O   0  0  0  0  0  0  0  0  0  0  0  0
  126.6340  122.8030   56.9960 C   0  0  0  0  0  0  0  0  0  0  0  0
  126.3020  121.7360   56.4690 O   0  0  0  0  0  0  0  0  0  0  0  0
  127.9450  123.0000   57.7030 C   0  0  0  0  0  0  0  0  0  0  0  0
  128.2660  122.3060   58.8790 C   0  0  0  0  0  0  0  0  0  0  0  0
  129.4890  122.5130   59.5100 C   0  0  0  0  0  0  0  0  0  0  0  0
  130.4150  123.4120   58.9820 C   0  0  0  0  0  0  0  0  0  0  0  0
  131.6170  123.5420   59.7030 N   0  0  0  0  0  0  0  0  0  0  0  0
  132.8980  123.5040   59.2750 C   0  0  0  0  0  0  0  0  0  0  0  0
  133.2580  123.3450   58.1090 O   0  0  0  0  0  0  0  0  0  0  0  0
  133.9580  123.6890   60.3620 C   0  0  0  0  0  0  0  0  0  0  0  0
  134.2200  122.1710   61.3290 S   0  0  0  0  0  0  0  0  0  0  0  0
  132.6410  121.3660   61.4920 C   0  0  0  0  0  0  0  0  0  0  0  0
  131.7180  122.1020   62.1590 N   0  0  0  0  0  0  0  0  0  0  0  0
  130.4800  121.5850   62.3390 C   0  0  0  0  0  0  0  0  0  0  0  0
  129.4960  122.4710   63.0810 C   0  0  0  0  0  0  0  0  0  0  0  0
  130.1190  120.3220   61.8750 C   0  0  0  0  0  0  0  0  0  0  0  0
  131.0700  119.5460   61.2060 C   0  0  0  0  0  0  0  0  0  0  0  0
  130.6560  118.1580   60.7210 C   0  0  0  0  0  0  0  0  0  0  0  0
  132.3690  120.0650   61.0060 C   0  0  0  0  0  0  0  0  0  0  0  0
  133.3950  119.2540   60.3460 C   0  0  0  0  0  0  0  0  0  0  0  0
  134.2030  118.6100   59.8240 N   0  0  0  0  0  0  0  0  0  0  0  0
  130.1020  124.1100   57.8060 C   0  0  0  0  0  0  0  0  0  0  0  0
  128.8780  123.9020   57.1750 C   0  0  0  0  0  0  0  0  0  0  0  0
  125.5522  124.0263   59.0307 H   0  0  0  0  0  0  0  0  0  0  0  0
  124.7290  125.2856   58.0494 H   0  0  0  0  0  0  0  0  0  0  0  0
  124.1095  123.5995   58.0494 H   0  0  0  0  0  0  0  0  0  0  0  0
  127.5455  121.5927   59.3057 H   0  0  0  0  0  0  0  0  0  0  0  0
  129.7271  121.9631   60.4325 H   0  0  0  0  0  0  0  0  0  0  0  0
  131.4860  123.6720   60.6960 H   0  0  0  0  0  0  0  0  0  0  0  0
  134.9077  123.9746   59.8861 H   0  0  0  0  0  0  0  0  0  0  0  0
  133.6045  124.4714   61.0496 H   0  0  0  0  0  0  0  0  0  0  0  0
  129.6351  122.3458   64.1650 H   0  0  0  0  0  0  0  0  0  0  0  0
  129.6709  123.5221   62.8079 H   0  0  0  0  0  0  0  0  0  0  0  0
  128.4689  122.1872   62.8079 H   0  0  0  0  0  0  0  0  0  0  0  0
  129.0994  119.9405   62.0329 H   0  0  0  0  0  0  0  0  0  0  0  0
  130.4625  117.5093   61.5880 H   0  0  0  0  0  0  0  0  0  0  0  0
  129.7430  118.2393   60.1129 H   0  0  0  0  0  0  0  0  0  0  0  0
  131.4644  117.7259   60.1129 H   0  0  0  0  0  0  0  0  0  0  0  0
  130.8245  124.8227   57.3816 H   0  0  0  0  0  0  0  0  0  0  0  0
  128.6412  124.4518   56.2522 H   0  0  0  0  0  0  0  0  0  0  0  0
  1  2  1  0
  2  3  1  0
  3  4  2  0
  3  5  1  0
  5  6  2  0
  6  7  1  0
  7  8  2  0
  8  9  1  0
  9 10  1  0
 10 11  2  0
 10 12  1  0
 12 13  1  0
 13 14  1  0
 14 15  2  0
 15 16  1  0
 16 17  1  0
 16 18  2  0
 18 19  1  0
 19 20  1  0
 19 21  2  0
 21 22  1  0
 22 23  3  0
  8 24  1  0
 24 25  2  0
 25  5  1  0
 21 14  1  0
  1 26  1  0
  1 27  1  0
  1 28  1  0
  6 29  1  0
  7 30  1  0
  9 31  1  0
 12 32  1  0
 12 33  1  0
 17 34  1  0
 17 35  1  0
 17 36  1  0
 18 37  1  0
 20 38  1  0
 20 39  1  0
 20 40  1  0
 24 41  1  0
 25 42  1  0
M  END
>  <Binding energies>  (1) 
[-7.85]

>  <Ligand effiencies>  (1) 
[-0.3019230769230769]

>  <Interactions>  (1) 
["H-B:TYR:531:OH:9767, V-B:MET:535:CE:9807, V-A:ILE:369:CG2:3236, V-B:TYR:539:CD2:9846, V-B:PRO:540:N:9856, V-A:LEU:475:CD1:4257, V-B:PRO:540:CA:9855, H-A:SER:385:OG:3409, H-A:HIS:383:NE2:3393, H-B:TYR:539:N:9842, V-B:ALA:541:CB:9864, V-B:TYR:539:CE2:9848, V-B:TYR:539:C:9839, V-B:TYR:531:CE2:9765, V-A:PRO:482:CG:4326, V-B:LEU:363:CD1:8160, V-A:ASP:366:CG:3212, V-A:ASP:366:CA:3209, H-B:TYR:539:OH:9850, V-A:ILE:369:CD1:3238, V-B:TYR:539:CZ:9849, V-B:ALA:541:CA:9862"]

$$$$
1c_Ghoteimi_2023
     RDKit          3D

 54 57  0  0  0  0  0  0  0  0999 V2000
  133.9980  125.3720   66.6220 C   0  0  0  0  0  0  0  0  0  0  0  0
  133.9760  124.9020   65.2790 O   0  0  0  0  0  0  0  0  0  0  0  0
  132.8910  125.2020   64.4760 C   0  0  0  0  0  0  0  0  0  0  0  0
  133.1000  125.1590   63.1010 C   0  0  0  0  0  0  0  0  0  0  0  0
  132.0640  125.4490   62.2170 C   0  0  0  0  0  0  0  0  0  0  0  0
  130.7860  125.7920   62.6850 C   0  0  0  0  0  0  0  0  0  0  0  0
  129.6670  126.1110   61.7360 C   0  0  0  0  0  0  0  0  0  0  0  0
  129.1990  125.1980   60.7850 C   0  0  0  0  0  0  0  0  0  0  0  0
  128.1340  125.5310   59.9390 C   0  0  0  0  0  0  0  0  0  0  0  0
  127.6420  124.4840   58.9950 C   0  0  0  0  0  0  0  0  0  0  0  0
  126.2770  124.2050   58.8910 C   0  0  0  0  0  0  0  0  0  0  0  0
  125.8220  123.2140   58.0260 C   0  0  0  0  0  0  0  0  0  0  0  0
  126.7230  122.4820   57.2520 C   0  0  0  0  0  0  0  0  0  0  0  0
  126.1820  121.5190   56.4220 O   0  0  0  0  0  0  0  0  0  0  0  0
  125.3410  121.9220   55.3460 C   0  0  0  0  0  0  0  0  0  0  0  0
  128.0950  122.7550   57.3590 C   0  0  0  0  0  0  0  0  0  0  0  0
  128.5470  123.7470   58.2250 C   0  0  0  0  0  0  0  0  0  0  0  0
  127.5640  126.8210   60.0500 C   0  0  0  0  0  0  0  0  0  0  0  0
  126.4680  127.2430   59.1700 C   0  0  0  0  0  0  0  0  0  0  0  0
  125.6040  127.5740   58.4760 N   0  0  0  0  0  0  0  0  0  0  0  0
  128.0730  127.6850   61.0420 C   0  0  0  0  0  0  0  0  0  0  0  0
  127.3430  129.2670   61.4050 S   0  0  0  0  0  0  0  0  0  0  0  0
  128.5460  130.0970   62.4930 C   0  0  0  0  0  0  0  0  0  0  0  0
  129.6720  130.7710   61.7020 C   0  0  0  0  0  0  0  0  0  0  0  0
  129.8580  131.9830   61.8220 O   0  0  0  0  0  0  0  0  0  0  0  0
  130.4210  129.9410   60.9440 N   0  0  0  0  0  0  0  0  0  0  0  0
  131.5810  130.2650   60.2590 C   0  0  0  0  0  0  0  0  0  0  0  0
  131.7960  130.2100   58.9620 N   0  0  0  0  0  0  0  0  0  0  0  0
  133.0070  130.6320   58.6540 C   0  0  0  0  0  0  0  0  0  0  0  0
  133.8040  131.0440   59.7170 C   0  0  0  0  0  0  0  0  0  0  0  0
  132.9110  130.8620   61.1980 S   0  0  0  0  0  0  0  0  0  0  0  0
  129.0890  127.3340   61.8650 N   0  0  0  0  0  0  0  0  0  0  0  0
  130.5850  125.8260   64.0730 C   0  0  0  0  0  0  0  0  0  0  0  0
  131.6180  125.5380   64.9590 C   0  0  0  0  0  0  0  0  0  0  0  0
  133.9579  124.5154   67.3109 H   0  0  0  0  0  0  0  0  0  0  0  0
  134.9237  125.9400   66.7966 H   0  0  0  0  0  0  0  0  0  0  0  0
  133.1294  126.0239   66.7966 H   0  0  0  0  0  0  0  0  0  0  0  0
  134.0928  124.8935   62.7087 H   0  0  0  0  0  0  0  0  0  0  0  0
  132.2503  125.4086   61.1336 H   0  0  0  0  0  0  0  0  0  0  0  0
  129.6723  124.2086   60.7009 H   0  0  0  0  0  0  0  0  0  0  0  0
  125.5562  124.7730   59.4975 H   0  0  0  0  0  0  0  0  0  0  0  0
  124.7443  123.0064   57.9521 H   0  0  0  0  0  0  0  0  0  0  0  0
  124.4177  122.3644   55.7482 H   0  0  0  0  0  0  0  0  0  0  0  0
  125.8659  122.6664   54.7293 H   0  0  0  0  0  0  0  0  0  0  0  0
  125.0897  121.0465   54.7293 H   0  0  0  0  0  0  0  0  0  0  0  0
  128.8162  122.1832   56.7565 H   0  0  0  0  0  0  0  0  0  0  0  0
  129.6247  123.9526   58.3041 H   0  0  0  0  0  0  0  0  0  0  0  0
  128.0207  130.8620   63.0836 H   0  0  0  0  0  0  0  0  0  0  0  0
  128.9991  129.3325   63.1412 H   0  0  0  0  0  0  0  0  0  0  0  0
  130.1590  128.9670   60.9250 H   0  0  0  0  0  0  0  0  0  0  0  0
  133.3666  130.6568   57.6147 H   0  0  0  0  0  0  0  0  0  0  0  0
  134.8331  131.4237   59.6341 H   0  0  0  0  0  0  0  0  0  0  0  0
  129.5917  126.0853   64.4682 H   0  0  0  0  0  0  0  0  0  0  0  0
  131.4356  125.5740   66.0432 H   0  0  0  0  0  0  0  0  0  0  0  0
  1  2  1  0
  2  3  1  0
  3  4  2  0
  4  5  1  0
  5  6  2  0
  6  7  1  0
  7  8  2  0
  8  9  1  0
  9 10  1  0
 10 11  2  0
 11 12  1  0
 12 13  2  0
 13 14  1  0
 14 15  1  0
 13 16  1  0
 16 17  2  0
  9 18  2  0
 18 19  1  0
 19 20  3  0
 18 21  1  0
 21 22  1  0
 22 23  1  0
 23 24  1  0
 24 25  2  0
 24 26  1  0
 26 27  1  0
 27 28  2  0
 28 29  1  0
 29 30  2  0
 30 31  1  0
 21 32  2  0
  6 33  1  0
 33 34  2  0
 34  3  1  0
 32  7  1  0
 17 10  1  0
 31 27  1  0
  1 35  1  0
  1 36  1  0
  1 37  1  0
  4 38  1  0
  5 39  1  0
  8 40  1  0
 11 41  1  0
 12 42  1  0
 15 43  1  0
 15 44  1  0
 15 45  1  0
 16 46  1  0
 17 47  1  0
 23 48  1  0
 23 49  1  0
 26 50  1  0
 29 51  1  0
 30 52  1  0
 33 53  1  0
 34 54  1  0
M  END
>  <Binding energies>  (1) 
[-8.53]

>  <Ligand effiencies>  (1) 
[-0.2437142857142857]

>  <Interactions>  (1) 
["V-B:PRO:540:CB:9857, H-B:TYR:531:OH:9767, V-B:MET:535:CE:9807, V-B:PRO:540:N:9856, V-B:PRO:540:CA:9855, H-B:TYR:539:N:9842, V-B:TYR:539:CE2:9848, V-B:MET:535:CG:9805, V-B:TYR:539:C:9839, V-B:LEU:363:CD1:8160, H-A:TYR:484:OH:4347, V-A:ASP:366:CG:3212, H-A:GLY:454:N:4049, V-A:ASP:366:CB:3211, V-A:PRO:540:CA:4883, V-A:PRO:540:CB:4885, V-B:ASP:366:CG:8184, V-B:ASP:366:CB:8183, V-A:LEU:363:CD1:3188, V-A:GLU:543:CD:4908, H-A:ASP:366:OD2:3214, V-B:TYR:539:CZ:9849, V-A:TYR:484:CZ:4346, V-A:ARG:545:CD:4923, H-A:ARG:545:NE:4924, V-A:ARG:545:CG:4922, V-A:ARG:545:CZ:4926, H-A:ALA:541:N:4891, V-A:LEU:363:CA:3184, V-A:LEU:363:CB:3186, V-B:ILE:538:CA:9832, V-B:ILE:538:CG1:9836, V-B:ILE:538:CG2:9835, V-B:ILE:538:CB:9834, H-A:GLU:543:OE2:4910, V-A:ASN:362:CB:3175, V-A:ASN:362:C:3171"]

$$$$
1c_Grossjean_2025
     RDKit          3D

 40 41  0  0  0  0  0  0  0  0999 V2000
  124.0710  130.3330   62.9680 C   0  0  0  0  0  0  0  0  0  0  0  0
  124.3190  130.5340   64.3560 O   0  0  0  0  0  0  0  0  0  0  0  0
  125.3030  129.7900   64.9780 C   0  0  0  0  0  0  0  0  0  0  0  0
  126.5590  129.7880   64.3710 C   0  0  0  0  0  0  0  0  0  0  0  0
  127.6150  129.0690   64.9230 C   0  0  0  0  0  0  0  0  0  0  0  0
  127.4250  128.3420   66.1080 C   0  0  0  0  0  0  0  0  0  0  0  0
  128.4190  127.5740   66.7450 N   0  0  0  0  0  0  0  0  0  0  0  0
  128.3130  126.7420   67.8030 C   0  0  0  0  0  0  0  0  0  0  0  0
  127.2730  126.4870   68.4090 O   0  0  0  0  0  0  0  0  0  0  0  0
  129.6170  126.0760   68.2470 C   0  0  0  0  0  0  0  0  0  0  0  0
  131.0650  126.8120   67.4320 S   0  0  0  0  0  0  0  0  0  0  0  0
  131.2260  126.0900   65.8120 C   0  0  0  0  0  0  0  0  0  0  0  0
  130.0720  126.1080   65.0960 N   0  0  0  0  0  0  0  0  0  0  0  0
  130.0720  125.5850   63.8480 C   0  0  0  0  0  0  0  0  0  0  0  0
  128.7500  125.6500   63.1060 C   0  0  0  0  0  0  0  0  0  0  0  0
  131.2060  125.0200   63.2690 C   0  0  0  0  0  0  0  0  0  0  0  0
  132.3940  124.9740   64.0060 C   0  0  0  0  0  0  0  0  0  0  0  0
  133.6190  124.3330   63.3570 C   0  0  0  0  0  0  0  0  0  0  0  0
  132.4170  125.5120   65.3140 C   0  0  0  0  0  0  0  0  0  0  0  0
  133.6370  125.4240   66.1210 C   0  0  0  0  0  0  0  0  0  0  0  0
  134.6000  125.3550   66.7580 N   0  0  0  0  0  0  0  0  0  0  0  0
  126.1670  128.3330   66.7120 C   0  0  0  0  0  0  0  0  0  0  0  0
  125.1130  129.0530   66.1570 C   0  0  0  0  0  0  0  0  0  0  0  0
  123.2220  129.6449   62.8431 H   0  0  0  0  0  0  0  0  0  0  0  0
  123.8342  131.2972   62.4944 H   0  0  0  0  0  0  0  0  0  0  0  0
  124.9653  129.9017   62.4944 H   0  0  0  0  0  0  0  0  0  0  0  0
  126.7165  130.3613   63.4455 H   0  0  0  0  0  0  0  0  0  0  0  0
  128.5985  129.0706   64.4304 H   0  0  0  0  0  0  0  0  0  0  0  0
  129.3280  127.6260   66.3090 H   0  0  0  0  0  0  0  0  0  0  0  0
  129.7236  126.1933   69.3355 H   0  0  0  0  0  0  0  0  0  0  0  0
  129.5705  125.0136   67.9655 H   0  0  0  0  0  0  0  0  0  0  0  0
  127.9240  125.6906   63.8313 H   0  0  0  0  0  0  0  0  0  0  0  0
  128.7279  126.5503   62.4744 H   0  0  0  0  0  0  0  0  0  0  0  0
  128.6397  124.7562   62.4744 H   0  0  0  0  0  0  0  0  0  0  0  0
  131.1678  124.6157   62.2467 H   0  0  0  0  0  0  0  0  0  0  0  0
  134.3035  123.9748   64.1400 H   0  0  0  0  0  0  0  0  0  0  0  0
  133.3015  123.4855   62.7318 H   0  0  0  0  0  0  0  0  0  0  0  0
  134.1343  125.0771   62.7318 H   0  0  0  0  0  0  0  0  0  0  0  0
  126.0073  127.7530   67.6329 H   0  0  0  0  0  0  0  0  0  0  0  0
  124.1270  129.0443   66.6446 H   0  0  0  0  0  0  0  0  0  0  0  0
  1  2  1  0
  2  3  1  0
  3  4  2  0
  4  5  1  0
  5  6  2  0
  6  7  1  0
  7  8  1  0
  8  9  2  0
  8 10  1  0
 10 11  1  0
 11 12  1  0
 12 13  2  0
 13 14  1  0
 14 15  1  0
 14 16  2  0
 16 17  1  0
 17 18  1  0
 17 19  2  0
 19 20  1  0
 20 21  3  0
  6 22  1  0
 22 23  2  0
 23  3  1  0
 19 12  1  0
  1 24  1  0
  1 25  1  0
  1 26  1  0
  4 27  1  0
  5 28  1  0
  7 29  1  0
 10 30  1  0
 10 31  1  0
 15 32  1  0
 15 33  1  0
 15 34  1  0
 16 35  1  0
 18 36  1  0
 18 37  1  0
 18 38  1  0
 22 39  1  0
 23 40  1  0
M  END
>  <Binding energies>  (1) 
[-6.93]

>  <Ligand effiencies>  (1) 
[-0.28875]

>  <Interactions>  (1) 
["H-A:TYR:484:OH:4347, H-A:GLY:454:N:4049, H-B:GLY:454:N:9021, V-B:ARG:545:CZ:9898, V-A:GLU:543:CD:4908, H-B:TYR:484:OH:9319, V-B:HIS:456:CE1:9041, V-A:HIS:456:CE1:4069, V-B:GLU:543:CB:9878, V-A:ARG:545:CD:4923, V-B:GLU:543:CD:9880, H-B:GLU:543:OE2:9882, H-A:ARG:545:NE:4924, V-A:ARG:545:CG:4922, V-A:ARG:545:CZ:4926, V-B:ARG:545:CG:9894, H-A:GLU:543:OE1:4909, V-A:GLY:454:CA:4048, V-A:GLY:453:C:4041, H-A:ILE:455:N:4054, V-B:ARG:545:CD:9895"]

$$$$
1d_Ghoteimi_2023
     RDKit          3D

 50 52  0  0  0  0  0  0  0  0999 V2000
  124.9100  122.0010   54.7200 C   0  0  0  0  0  0  0  0  0  0  0  0
  125.7680  121.3110   55.6160 O   0  0  0  0  0  0  0  0  0  0  0  0
  126.4030  121.9750   56.6040 C   0  0  0  0  0  0  0  0  0  0  0  0
  127.4830  121.6680   57.1110 O   0  0  0  0  0  0  0  0  0  0  0  0
  125.6260  123.2030   57.0700 C   0  0  0  0  0  0  0  0  0  0  0  0
  125.9240  123.3950   58.8530 S   0  0  0  0  0  0  0  0  0  0  0  0
  127.3340  124.4670   59.0320 C   0  0  0  0  0  0  0  0  0  0  0  0
  127.3590  125.4880   58.1430 N   0  0  0  0  0  0  0  0  0  0  0  0
  128.3820  126.3800   58.1660 C   0  0  0  0  0  0  0  0  0  0  0  0
  128.3330  127.4850   57.1510 C   0  0  0  0  0  0  0  0  0  0  0  0
  127.5430  128.6280   57.3560 C   0  0  0  0  0  0  0  0  0  0  0  0
  127.4930  129.6480   56.4120 C   0  0  0  0  0  0  0  0  0  0  0  0
  128.2290  129.5600   55.2330 C   0  0  0  0  0  0  0  0  0  0  0  0
  128.1160  130.6180   54.3510 O   0  0  0  0  0  0  0  0  0  0  0  0
  129.0710  131.6720   54.4070 C   0  0  0  0  0  0  0  0  0  0  0  0
  129.0220  128.4250   55.0130 C   0  0  0  0  0  0  0  0  0  0  0  0
  129.0700  127.4070   55.9610 C   0  0  0  0  0  0  0  0  0  0  0  0
  129.4110  126.2610   59.1090 C   0  0  0  0  0  0  0  0  0  0  0  0
  129.4170  125.2060   60.0300 C   0  0  0  0  0  0  0  0  0  0  0  0
  130.5490  125.1360   61.0030 C   0  0  0  0  0  0  0  0  0  0  0  0
  130.4010  125.6530   62.2940 C   0  0  0  0  0  0  0  0  0  0  0  0
  131.4510  125.5910   63.2060 C   0  0  0  0  0  0  0  0  0  0  0  0
  132.6660  125.0070   62.8490 C   0  0  0  0  0  0  0  0  0  0  0  0
  133.6530  124.9960   63.8160 O   0  0  0  0  0  0  0  0  0  0  0  0
  133.3180  125.3370   65.1560 C   0  0  0  0  0  0  0  0  0  0  0  0
  132.8150  124.4750   61.5590 C   0  0  0  0  0  0  0  0  0  0  0  0
  131.7630  124.5380   60.6500 C   0  0  0  0  0  0  0  0  0  0  0  0
  128.3600  124.2640   59.9830 C   0  0  0  0  0  0  0  0  0  0  0  0
  128.3700  123.0840   60.8530 C   0  0  0  0  0  0  0  0  0  0  0  0
  128.3800  122.1530   61.5390 N   0  0  0  0  0  0  0  0  0  0  0  0
  124.1783  122.5895   55.2930 H   0  0  0  0  0  0  0  0  0  0  0  0
  125.5063  122.6740   54.0864 H   0  0  0  0  0  0  0  0  0  0  0  0
  124.3806  121.2742   54.0864 H   0  0  0  0  0  0  0  0  0  0  0  0
  125.9774  124.0960   56.5323 H   0  0  0  0  0  0  0  0  0  0  0  0
  124.5516  123.0810   56.8680 H   0  0  0  0  0  0  0  0  0  0  0  0
  126.9531  128.7181   58.2801 H   0  0  0  0  0  0  0  0  0  0  0  0
  126.8663  130.5326   56.5983 H   0  0  0  0  0  0  0  0  0  0  0  0
  129.2896  131.9133   55.4577 H   0  0  0  0  0  0  0  0  0  0  0  0
  129.9963  131.3556   53.9033 H   0  0  0  0  0  0  0  0  0  0  0  0
  128.6651  132.5617   53.9033 H   0  0  0  0  0  0  0  0  0  0  0  0
  129.6091  128.3386   54.0868 H   0  0  0  0  0  0  0  0  0  0  0  0
  129.6985  126.5241   55.7728 H   0  0  0  0  0  0  0  0  0  0  0  0
  130.2224  127.0036   59.1263 H   0  0  0  0  0  0  0  0  0  0  0  0
  129.4468  126.1125   62.5913 H   0  0  0  0  0  0  0  0  0  0  0  0
  131.3212  126.0060   64.2164 H   0  0  0  0  0  0  0  0  0  0  0  0
  133.9162  124.7281   65.8498 H   0  0  0  0  0  0  0  0  0  0  0  0
  133.5301  126.4027   65.3271 H   0  0  0  0  0  0  0  0  0  0  0  0
  132.2487  125.1439   65.3271 H   0  0  0  0  0  0  0  0  0  0  0  0
  133.7661  124.0068   61.2654 H   0  0  0  0  0  0  0  0  0  0  0  0
  131.8877  124.1129   59.6431 H   0  0  0  0  0  0  0  0  0  0  0  0
  1  2  1  0
  2  3  1  0
  3  4  2  0
  3  5  1  0
  5  6  1  0
  6  7  1  0
  7  8  2  0
  8  9  1  0
  9 10  1  0
 10 11  2  0
 11 12  1  0
 12 13  2  0
 13 14  1  0
 14 15  1  0
 13 16  1  0
 16 17  2  0
  9 18  2  0
 18 19  1  0
 19 20  1  0
 20 21  2  0
 21 22  1  0
 22 23  2  0
 23 24  1  0
 24 25  1  0
 23 26  1  0
 26 27  2  0
 19 28  2  0
 28 29  1  0
 29 30  3  0
 28  7  1  0
 17 10  1  0
 27 20  1  0
  1 31  1  0
  1 32  1  0
  1 33  1  0
  5 34  1  0
  5 35  1  0
 11 36  1  0
 12 37  1  0
 15 38  1  0
 15 39  1  0
 15 40  1  0
 16 41  1  0
 17 42  1  0
 18 43  1  0
 21 44  1  0
 22 45  1  0
 25 46  1  0
 25 47  1  0
 25 48  1  0
 26 49  1  0
 27 50  1  0
M  END
>  <Binding energies>  (1) 
[-7.88]

>  <Ligand effiencies>  (1) 
[-0.26266666666666666]

>  <Interactions>  (1) 
["H-B:ALA:541:N:9863, V-B:PRO:540:CB:9857, H-B:TYR:531:OH:9767, V-B:MET:535:CE:9807, V-B:PRO:540:N:9856, V-B:PRO:540:CA:9855, H-B:TYR:539:N:9842, V-B:MET:535:CG:9805, V-B:TYR:539:C:9839, V-B:TYR:531:CE2:9765, V-B:LEU:363:CD1:8160, V-A:ASP:366:CG:3212, H-A:GLY:454:N:4049, V-B:PRO:540:CD:9859, V-A:ILE:538:CA:4860, V-A:ILE:538:CG2:4863, V-A:TYR:539:CE1:4875, V-A:ILE:538:CB:4862, H-B:LYS:534:NZ:9795, H-A:ARG:545:NH2:4928, V-A:ARG:545:CZ:4926, H-A:ARG:545:NH1:4927, V-B:ILE:538:CA:9832, V-B:ILE:538:CG1:9836, V-B:ILE:538:CG2:9835, V-B:ILE:538:CB:9834, V-B:MET:535:CB:9804"]

$$$$
1d_Grossjean_2025
     RDKit          3D

 36 37  0  0  0  0  0  0  0  0999 V2000
  125.6070  130.1170   57.5460 C   0  0  0  0  0  0  0  0  0  0  0  0
  126.7670  129.2990   57.0110 C   0  0  0  0  0  0  0  0  0  0  0  0
  127.3120  128.2430   57.7380 C   0  0  0  0  0  0  0  0  0  0  0  0
  128.3740  127.5170   57.1900 C   0  0  0  0  0  0  0  0  0  0  0  0
  128.9450  126.3540   57.9990 C   0  0  0  0  0  0  0  0  0  0  0  0
  128.8750  127.8770   55.9180 C   0  0  0  0  0  0  0  0  0  0  0  0
  129.9540  127.1010   55.3040 C   0  0  0  0  0  0  0  0  0  0  0  0
  130.8070  126.4860   54.8210 N   0  0  0  0  0  0  0  0  0  0  0  0
  128.2770  128.9790   55.2620 C   0  0  0  0  0  0  0  0  0  0  0  0
  128.7790  129.5690   53.6600 S   0  0  0  0  0  0  0  0  0  0  0  0
  129.3000  131.3000   53.8590 C   0  0  0  0  0  0  0  0  0  0  0  0
  129.7580  131.6040   55.2860 C   0  0  0  0  0  0  0  0  0  0  0  0
  129.2050  132.5060   55.9150 O   0  0  0  0  0  0  0  0  0  0  0  0
  130.7470  130.8130   55.7560 N   0  0  0  0  0  0  0  0  0  0  0  0
  131.4030  130.8340   57.0010 C   0  0  0  0  0  0  0  0  0  0  0  0
  132.7110  130.3410   57.0050 C   0  0  0  0  0  0  0  0  0  0  0  0
  133.4520  130.3210   58.1830 C   0  0  0  0  0  0  0  0  0  0  0  0
  132.8870  130.8020   59.3620 C   0  0  0  0  0  0  0  0  0  0  0  0
  131.5880  131.3040   59.3710 C   0  0  0  0  0  0  0  0  0  0  0  0
  130.8440  131.3240   58.1940 C   0  0  0  0  0  0  0  0  0  0  0  0
  127.2320  129.6640   55.7930 N   0  0  0  0  0  0  0  0  0  0  0  0
  125.6255  130.1039   58.6458 H   0  0  0  0  0  0  0  0  0  0  0  0
  125.6947  131.1541   57.1901 H   0  0  0  0  0  0  0  0  0  0  0  0
  124.6595  129.6861   57.1901 H   0  0  0  0  0  0  0  0  0  0  0  0
  126.9124  127.9839   58.7295 H   0  0  0  0  0  0  0  0  0  0  0  0
  128.8400  126.5679   59.0729 H   0  0  0  0  0  0  0  0  0  0  0  0
  128.3969  125.4325   57.7534 H   0  0  0  0  0  0  0  0  0  0  0  0
  130.0093  126.2241   57.7534 H   0  0  0  0  0  0  0  0  0  0  0  0
  130.1328  131.5010   53.1691 H   0  0  0  0  0  0  0  0  0  0  0  0
  128.4340  131.9413   53.6380 H   0  0  0  0  0  0  0  0  0  0  0  0
  131.0660  130.0830   55.1360 H   0  0  0  0  0  0  0  0  0  0  0  0
  133.1572  129.9667   56.0718 H   0  0  0  0  0  0  0  0  0  0  0  0
  134.4791  129.9272   58.1830 H   0  0  0  0  0  0  0  0  0  0  0  0
  133.4717  130.7852   60.2936 H   0  0  0  0  0  0  0  0  0  0  0  0
  131.1505  131.6840   60.3060 H   0  0  0  0  0  0  0  0  0  0  0  0
  129.8190  131.7232   58.1979 H   0  0  0  0  0  0  0  0  0  0  0  0
  1  2  1  0
  2  3  2  0
  3  4  1  0
  4  5  1  0
  4  6  2  0
  6  7  1  0
  7  8  3  0
  6  9  1  0
  9 10  1  0
 10 11  1  0
 11 12  1  0
 12 13  2  0
 12 14  1  0
 14 15  1  0
 15 16  2  0
 16 17  1  0
 17 18  2  0
 18 19  1  0
 19 20  2  0
  9 21  2  0
 21  2  1  0
 20 15  1  0
  1 22  1  0
  1 23  1  0
  1 24  1  0
  3 25  1  0
  5 26  1  0
  5 27  1  0
  5 28  1  0
 11 29  1  0
 11 30  1  0
 14 31  1  0
 16 32  1  0
 17 33  1  0
 18 34  1  0
 19 35  1  0
 20 36  1  0
M  END
>  <Binding energies>  (1) 
[-7.2]

>  <Ligand effiencies>  (1) 
[-0.32727272727272727]

>  <Interactions>  (1) 
["H-B:TYR:531:OH:9767, V-B:TYR:531:CZ:9766, V-A:ASP:366:CG:3212, V-A:PRO:540:N:4884, V-A:ILE:538:CA:4860, V-A:ASP:366:CB:3211, V-A:ILE:538:CG2:4863, V-A:PRO:540:CA:4883, H-A:TYR:531:OH:4795, H-A:TYR:539:N:4870, V-A:TYR:539:CZ:4877, V-A:PRO:540:CB:4885, V-A:TYR:539:CE1:4875, V-A:TYR:531:CZ:4794, V-A:ILE:538:CB:4862, V-B:TYR:531:CE1:9764, H-B:LYS:534:NZ:9795, V-A:LEU:363:CD1:3188, H-A:TYR:539:OH:4878, V-B:LYS:534:CE:9794, V-A:LEU:363:CA:3184"]

$$$$
1e_Grossjean_2025
     RDKit          3D

 38 39  0  0  0  0  0  0  0  0999 V2000
  125.3630  122.3290   55.4970 C   0  0  0  0  0  0  0  0  0  0  0  0
  126.0370  122.8990   56.7310 C   0  0  0  0  0  0  0  0  0  0  0  0
  127.0020  122.1760   57.4380 C   0  0  0  0  0  0  0  0  0  0  0  0
  127.5770  122.7640   58.5650 C   0  0  0  0  0  0  0  0  0  0  0  0
  127.1790  124.0450   58.9560 C   0  0  0  0  0  0  0  0  0  0  0  0
  126.2100  124.7160   58.1990 C   0  0  0  0  0  0  0  0  0  0  0  0
  125.8410  125.9960   58.6480 N   0  0  0  0  0  0  0  0  0  0  0  0
  126.4790  127.1710   58.4540 C   0  0  0  0  0  0  0  0  0  0  0  0
  127.5350  127.3080   57.8350 O   0  0  0  0  0  0  0  0  0  0  0  0
  125.8230  128.3980   59.0910 C   0  0  0  0  0  0  0  0  0  0  0  0
  125.7910  129.8190   57.9570 S   0  0  0  0  0  0  0  0  0  0  0  0
  127.4080  130.5660   57.9330 C   0  0  0  0  0  0  0  0  0  0  0  0
  127.8530  130.9280   59.1630 N   0  0  0  0  0  0  0  0  0  0  0  0
  129.0710  131.5100   59.2710 C   0  0  0  0  0  0  0  0  0  0  0  0
  129.5040  131.8800   60.6770 C   0  0  0  0  0  0  0  0  0  0  0  0
  129.8830  131.7630   58.1680 C   0  0  0  0  0  0  0  0  0  0  0  0
  129.4240  131.4170   56.8930 C   0  0  0  0  0  0  0  0  0  0  0  0
  130.3260  131.7220   55.6980 C   0  0  0  0  0  0  0  0  0  0  0  0
  128.1540  130.8110   56.7550 C   0  0  0  0  0  0  0  0  0  0  0  0
  127.6350  130.4960   55.4230 C   0  0  0  0  0  0  0  0  0  0  0  0
  127.2260  130.2470   54.3680 N   0  0  0  0  0  0  0  0  0  0  0  0
  125.6400  124.1440   57.0970 N   0  0  0  0  0  0  0  0  0  0  0  0
  124.5561  121.6466   55.8022 H   0  0  0  0  0  0  0  0  0  0  0  0
  124.9422  123.1494   54.8971 H   0  0  0  0  0  0  0  0  0  0  0  0
  126.1021  121.7778   54.8971 H   0  0  0  0  0  0  0  0  0  0  0  0
  127.3007  121.1682   57.1138 H   0  0  0  0  0  0  0  0  0  0  0  0
  128.3399  122.2218   59.1429 H   0  0  0  0  0  0  0  0  0  0  0  0
  127.6200  124.5195   59.8450 H   0  0  0  0  0  0  0  0  0  0  0  0
  125.0190  126.0180   59.2340 H   0  0  0  0  0  0  0  0  0  0  0  0
  124.7900  128.1435   59.3707 H   0  0  0  0  0  0  0  0  0  0  0  0
  126.4159  128.6807   59.9733 H   0  0  0  0  0  0  0  0  0  0  0  0
  128.8779  131.3450   61.4062 H   0  0  0  0  0  0  0  0  0  0  0  0
  130.5575  131.5988   60.8222 H   0  0  0  0  0  0  0  0  0  0  0  0
  129.3906  132.9645   60.8222 H   0  0  0  0  0  0  0  0  0  0  0  0
  130.8712  132.2283   58.2978 H   0  0  0  0  0  0  0  0  0  0  0  0
  131.3108  132.0550   56.0575 H   0  0  0  0  0  0  0  0  0  0  0  0
  130.4460  130.8145   55.0881 H   0  0  0  0  0  0  0  0  0  0  0  0
  129.8706  132.5161   55.0881 H   0  0  0  0  0  0  0  0  0  0  0  0
  1  2  1  0
  2  3  2  0
  3  4  1  0
  4  5  2  0
  5  6  1  0
  6  7  1  0
  7  8  1  0
  8  9  2  0
  8 10  1  0
 10 11  1  0
 11 12  1  0
 12 13  2  0
 13 14  1  0
 14 15  1  0
 14 16  2  0
 16 17  1  0
 17 18  1  0
 17 19  2  0
 19 20  1  0
 20 21  3  0
  6 22  2  0
 22  2  1  0
 19 12  1  0
  1 23  1  0
  1 24  1  0
  1 25  1  0
  3 26  1  0
  4 27  1  0
  5 28  1  0
  7 29  1  0
 10 30  1  0
 10 31  1  0
 15 32  1  0
 15 33  1  0
 15 34  1  0
 16 35  1  0
 18 36  1  0
 18 37  1  0
 18 38  1  0
M  END
>  <Binding energies>  (1) 
[-7.81]

>  <Ligand effiencies>  (1) 
[-0.33956521739130435]

>  <Interactions>  (1) 
["V-B:PRO:540:CB:9857, H-B:TYR:531:OH:9767, V-B:MET:535:CE:9807, V-B:PRO:540:N:9856, V-B:PRO:540:CA:9855, V-B:MET:535:CG:9805, V-B:TYR:539:C:9839, V-B:TYR:531:CE2:9765, V-B:LEU:363:CD1:8160, V-B:PRO:540:CD:9859, V-A:PRO:540:N:4884, V-A:ILE:538:CG2:4863, V-A:TYR:539:CD1:4873, V-A:PRO:540:CA:4883, V-A:TYR:539:CZ:4877, V-A:TYR:539:CE1:4875, V-A:ILE:538:CB:4862, V-B:ASP:366:CG:8184, H-B:LYS:534:NZ:9795, V-B:ASP:366:CB:8183, V-A:PRO:540:C:4881, V-A:TYR:539:C:4867, H-A:TYR:539:OH:4878, V-B:ILE:538:CG2:9835, H-B:ASP:366:OD1:8185"]

$$$$
1f_Grossjean_2025
     RDKit          3D

 35 36  0  0  0  0  0  0  0  0999 V2000
  126.1730  129.9820   57.7230 C   0  0  0  0  0  0  0  0  0  0  0  0
  127.2200  129.0790   57.0990 C   0  0  0  0  0  0  0  0  0  0  0  0
  127.6610  127.9230   57.7370 C   0  0  0  0  0  0  0  0  0  0  0  0
  128.6380  127.1360   57.1180 C   0  0  0  0  0  0  0  0  0  0  0  0
  129.1190  125.8820   57.8470 C   0  0  0  0  0  0  0  0  0  0  0  0
  129.1450  127.5270   55.8580 C   0  0  0  0  0  0  0  0  0  0  0  0
  130.2080  126.7460   55.2200 C   0  0  0  0  0  0  0  0  0  0  0  0
  131.0470  126.1270   54.7170 N   0  0  0  0  0  0  0  0  0  0  0  0
  128.6190  128.7010   55.2700 C   0  0  0  0  0  0  0  0  0  0  0  0
  129.1340  129.3480   53.6920 S   0  0  0  0  0  0  0  0  0  0  0  0
  129.5230  131.1200   53.8950 C   0  0  0  0  0  0  0  0  0  0  0  0
  129.9590  131.5280   55.3100 C   0  0  0  0  0  0  0  0  0  0  0  0
  129.4950  132.5390   55.8390 O   0  0  0  0  0  0  0  0  0  0  0  0
  130.8790  130.7140   55.8700 N   0  0  0  0  0  0  0  0  0  0  0  0
  131.4870  130.7840   57.1380 C   0  0  0  0  0  0  0  0  0  0  0  0
  130.8120  130.9470   58.3630 C   0  0  0  0  0  0  0  0  0  0  0  0
  131.5430  130.9960   59.5530 C   0  0  0  0  0  0  0  0  0  0  0  0
  132.9310  130.8770   59.4910 C   0  0  0  0  0  0  0  0  0  0  0  0
  133.6050  130.7140   58.3250 N   0  0  0  0  0  0  0  0  0  0  0  0
  132.8810  130.6680   57.1760 C   0  0  0  0  0  0  0  0  0  0  0  0
  127.6890  129.4700   55.8900 N   0  0  0  0  0  0  0  0  0  0  0  0
  126.2430  129.9216   58.8191 H   0  0  0  0  0  0  0  0  0  0  0  0
  126.3450  131.0197   57.4012 H   0  0  0  0  0  0  0  0  0  0  0  0
  125.1718  129.6595   57.4012 H   0  0  0  0  0  0  0  0  0  0  0  0
  127.2472  127.6325   58.7139 H   0  0  0  0  0  0  0  0  0  0  0  0
  129.0572  126.0430   58.9334 H   0  0  0  0  0  0  0  0  0  0  0  0
  128.4844  125.0285   57.5662 H   0  0  0  0  0  0  0  0  0  0  0  0
  130.1616  125.6718   57.5662 H   0  0  0  0  0  0  0  0  0  0  0  0
  130.3374  131.3729   53.2002 H   0  0  0  0  0  0  0  0  0  0  0  0
  128.5905  131.6662   53.6898 H   0  0  0  0  0  0  0  0  0  0  0  0
  131.1990  129.9460   55.2990 H   0  0  0  0  0  0  0  0  0  0  0  0
  129.7157  131.0352   58.3831 H   0  0  0  0  0  0  0  0  0  0  0  0
  131.0337  131.1258   60.5193 H   0  0  0  0  0  0  0  0  0  0  0  0
  133.5046  130.9171   60.4288 H   0  0  0  0  0  0  0  0  0  0  0  0
  133.4189  130.5325   56.2261 H   0  0  0  0  0  0  0  0  0  0  0  0
  1  2  1  0
  2  3  2  0
  3  4  1  0
  4  5  1  0
  4  6  2  0
  6  7  1  0
  7  8  3  0
  6  9  1  0
  9 10  1  0
 10 11  1  0
 11 12  1  0
 12 13  2  0
 12 14  1  0
 14 15  1  0
 15 16  2  0
 16 17  1  0
 17 18  2  0
 18 19  1  0
 19 20  2  0
  9 21  2  0
 21  2  1  0
 20 15  1  0
  1 22  1  0
  1 23  1  0
  1 24  1  0
  3 25  1  0
  5 26  1  0
  5 27  1  0
  5 28  1  0
 11 29  1  0
 11 30  1  0
 14 31  1  0
 16 32  1  0
 17 33  1  0
 18 34  1  0
 20 35  1  0
M  END
>  <Binding energies>  (1) 
[-6.93]

>  <Ligand effiencies>  (1) 
[-0.315]

>  <Interactions>  (1) 
["H-B:TYR:531:OH:9767, V-A:ASP:366:CG:3212, V-A:ILE:538:CG2:4863, H-B:TYR:539:OH:9850, V-A:PRO:540:CA:4883, H-A:TYR:531:OH:4795, H-A:TYR:539:N:4870, V-A:TYR:539:CZ:4877, V-A:PRO:540:CB:4885, V-A:TYR:539:CE1:4875, V-A:ILE:538:CB:4862, V-A:LEU:363:CD1:3188"]

$$$$
1g_Grossjean_2025
     RDKit          3D

 39 40  0  0  0  0  0  0  0  0999 V2000
  128.9450  132.4340   59.9150 C   0  0  0  0  0  0  0  0  0  0  0  0
  128.5080  131.7730   58.6210 C   0  0  0  0  0  0  0  0  0  0  0  0
  127.5270  130.7830   58.6020 C   0  0  0  0  0  0  0  0  0  0  0  0
  127.1760  130.1980   57.3810 C   0  0  0  0  0  0  0  0  0  0  0  0
  126.1090  129.1040   57.3870 C   0  0  0  0  0  0  0  0  0  0  0  0
  127.8160  130.6300   56.1970 C   0  0  0  0  0  0  0  0  0  0  0  0
  127.5030  129.9950   54.9140 C   0  0  0  0  0  0  0  0  0  0  0  0
  127.2540  129.4910   53.9030 N   0  0  0  0  0  0  0  0  0  0  0  0
  128.7820  131.6580   56.3080 C   0  0  0  0  0  0  0  0  0  0  0  0
  129.6750  132.3270   54.9220 S   0  0  0  0  0  0  0  0  0  0  0  0
  131.2670  131.4540   54.8340 C   0  0  0  0  0  0  0  0  0  0  0  0
  132.1190  131.6890   56.0820 C   0  0  0  0  0  0  0  0  0  0  0  0
  132.2420  132.8260   56.5410 O   0  0  0  0  0  0  0  0  0  0  0  0
  132.7060  130.6030   56.6160 N   0  0  0  0  0  0  0  0  0  0  0  0
  133.5120  130.5880   57.8360 C   0  0  0  0  0  0  0  0  0  0  0  0
  132.6990  130.6160   59.1270 C   0  0  0  0  0  0  0  0  0  0  0  0
  133.1890  131.2950   60.2460 C   0  0  0  0  0  0  0  0  0  0  0  0
  132.4470  131.3220   61.4240 C   0  0  0  0  0  0  0  0  0  0  0  0
  131.2140  130.6730   61.4770 C   0  0  0  0  0  0  0  0  0  0  0  0
  130.7180  129.9990   60.3640 C   0  0  0  0  0  0  0  0  0  0  0  0
  131.4600  129.9710   59.1860 C   0  0  0  0  0  0  0  0  0  0  0  0
  129.1320  132.2040   57.5000 N   0  0  0  0  0  0  0  0  0  0  0  0
  128.5628  131.8559   60.7693 H   0  0  0  0  0  0  0  0  0  0  0  0
  130.0437  132.4673   59.9569 H   0  0  0  0  0  0  0  0  0  0  0  0
  128.5453  133.4579   59.9569 H   0  0  0  0  0  0  0  0  0  0  0  0
  127.0359  130.4663   59.5339 H   0  0  0  0  0  0  0  0  0  0  0  0
  125.8558  128.8444   58.4255 H   0  0  0  0  0  0  0  0  0  0  0  0
  125.2086  129.4672   56.8699 H   0  0  0  0  0  0  0  0  0  0  0  0
  126.4945  128.2130   56.8699 H   0  0  0  0  0  0  0  0  0  0  0  0
  131.0755  130.3755   54.7326 H   0  0  0  0  0  0  0  0  0  0  0  0
  131.8204  131.8431   53.9666 H   0  0  0  0  0  0  0  0  0  0  0  0
  132.5350  129.7050   56.1860 H   0  0  0  0  0  0  0  0  0  0  0  0
  134.1232  129.6734   57.8337 H   0  0  0  0  0  0  0  0  0  0  0  0
  134.1167  131.5068   57.8250 H   0  0  0  0  0  0  0  0  0  0  0  0
  134.1607  131.8081   60.1961 H   0  0  0  0  0  0  0  0  0  0  0  0
  132.8314  131.8523   62.3078 H   0  0  0  0  0  0  0  0  0  0  0  0
  130.6273  130.6936   62.4072 H   0  0  0  0  0  0  0  0  0  0  0  0
  129.7438  129.4907   60.4152 H   0  0  0  0  0  0  0  0  0  0  0  0
  131.0718  129.4421   58.3030 H   0  0  0  0  0  0  0  0  0  0  0  0
  1  2  1  0
  2  3  2  0
  3  4  1  0
  4  5  1  0
  4  6  2  0
  6  7  1  0
  7  8  3  0
  6  9  1  0
  9 10  1  0
 10 11  1  0
 11 12  1  0
 12 13  2  0
 12 14  1  0
 14 15  1  0
 15 16  1  0
 16 17  2  0
 17 18  1  0
 18 19  2  0
 19 20  1  0
 20 21  2  0
  9 22  2  0
 22  2  1  0
 21 16  1  0
  1 23  1  0
  1 24  1  0
  1 25  1  0
  3 26  1  0
  5 27  1  0
  5 28  1  0
  5 29  1  0
 11 30  1  0
 11 31  1  0
 14 32  1  0
 15 33  1  0
 15 34  1  0
 17 35  1  0
 18 36  1  0
 19 37  1  0
 20 38  1  0
 21 39  1  0
M  END
>  <Binding energies>  (1) 
[-7.34]

>  <Ligand effiencies>  (1) 
[-0.31913043478260866]

>  <Interactions>  (1) 
["H-B:TYR:531:OH:9767, V-B:TYR:531:CZ:9766, V-A:ASP:366:CG:3212, V-A:PRO:540:N:4884, V-A:ASP:366:CB:3211, V-A:ILE:538:CG2:4863, V-A:TYR:539:CD1:4873, V-A:PRO:540:CA:4883, H-A:TYR:531:OH:4795, H-A:TYR:539:N:4870, V-A:TYR:539:CZ:4877, V-A:PRO:540:CB:4885, V-A:TYR:539:CE1:4875, V-A:TYR:531:CZ:4794, V-A:ILE:538:CB:4862, V-B:TYR:531:CE1:9764, H-B:LYS:534:NZ:9795, V-A:PRO:540:C:4881, V-A:TYR:539:C:4867, V-A:LEU:363:CD1:3188, V-A:GLU:543:CD:4908, V-A:TYR:531:CE2:4793, V-A:LEU:363:CA:3184, V-A:LEU:363:CB:3186, V-A:ASN:362:CB:3175"]

$$$$
1h_Grossjean_2025
     RDKit          3D

 51 52  0  0  0  0  0  0  0  0999 V2000
  133.2450  131.3680   61.5540 C   0  0  0  0  0  0  0  0  0  0  0  0
  131.8740  131.7460   61.4960 O   0  0  0  0  0  0  0  0  0  0  0  0
  131.1470  131.4870   60.3480 C   0  0  0  0  0  0  0  0  0  0  0  0
  131.7130  131.0260   59.1490 C   0  0  0  0  0  0  0  0  0  0  0  0
  130.9180  130.7990   58.0250 C   0  0  0  0  0  0  0  0  0  0  0  0
  131.5430  130.2760   56.7350 C   0  0  0  0  0  0  0  0  0  0  0  0
  130.6670  130.3750   55.5670 N   0  0  0  0  0  0  0  0  0  0  0  0
  129.9640  131.4660   55.2140 C   0  0  0  0  0  0  0  0  0  0  0  0
  129.9990  132.5310   55.8300 O   0  0  0  0  0  0  0  0  0  0  0  0
  129.0780  131.3340   53.9750 C   0  0  0  0  0  0  0  0  0  0  0  0
  128.3650  129.6680   53.8220 S   0  0  0  0  0  0  0  0  0  0  0  0
  127.7330  129.1870   55.4220 C   0  0  0  0  0  0  0  0  0  0  0  0
  126.5820  129.7980   55.8080 N   0  0  0  0  0  0  0  0  0  0  0  0
  126.0460  129.4770   57.0090 C   0  0  0  0  0  0  0  0  0  0  0  0
  124.7590  130.1970   57.3680 C   0  0  0  0  0  0  0  0  0  0  0  0
  126.6260  128.5460   57.8670 C   0  0  0  0  0  0  0  0  0  0  0  0
  127.8110  127.9120   57.4810 C   0  0  0  0  0  0  0  0  0  0  0  0
  128.4290  126.8930   58.4360 C   0  0  0  0  0  0  0  0  0  0  0  0
  128.3890  128.2320   56.2310 C   0  0  0  0  0  0  0  0  0  0  0  0
  129.6320  127.5860   55.8020 C   0  0  0  0  0  0  0  0  0  0  0  0
  130.6140  127.0750   55.4640 N   0  0  0  0  0  0  0  0  0  0  0  0
  129.5390  130.9980   58.1040 C   0  0  0  0  0  0  0  0  0  0  0  0
  128.9460  131.4530   59.2920 C   0  0  0  0  0  0  0  0  0  0  0  0
  127.5890  131.6740   59.4420 O   0  0  0  0  0  0  0  0  0  0  0  0
  126.8120  130.7610   60.2100 C   0  0  0  0  0  0  0  0  0  0  0  0
  129.7620  131.7050   60.4040 C   0  0  0  0  0  0  0  0  0  0  0  0
  129.1950  132.1450   61.5750 O   0  0  0  0  0  0  0  0  0  0  0  0
  129.1460  131.1620   62.6000 C   0  0  0  0  0  0  0  0  0  0  0  0
  133.5574  131.2819   62.6052 H   0  0  0  0  0  0  0  0  0  0  0  0
  133.3798  130.3992   61.0508 H   0  0  0  0  0  0  0  0  0  0  0  0
  133.8573  132.1308   61.0508 H   0  0  0  0  0  0  0  0  0  0  0  0
  132.7961  130.8415   59.0949 H   0  0  0  0  0  0  0  0  0  0  0  0
  132.4558  130.8556   56.5330 H   0  0  0  0  0  0  0  0  0  0  0  0
  131.7466  129.2063   56.8906 H   0  0  0  0  0  0  0  0  0  0  0  0
  130.5690  129.5380   55.0120 H   0  0  0  0  0  0  0  0  0  0  0  0
  128.2595  132.0657   54.0441 H   0  0  0  0  0  0  0  0  0  0  0  0
  129.7031  131.5188   53.0889 H   0  0  0  0  0  0  0  0  0  0  0  0
  124.6622  130.2512   58.4624 H   0  0  0  0  0  0  0  0  0  0  0  0
  124.7795  131.2146   56.9509 H   0  0  0  0  0  0  0  0  0  0  0  0
  123.9025  129.6470   56.9509 H   0  0  0  0  0  0  0  0  0  0  0  0
  126.1584  128.3126   58.8349 H   0  0  0  0  0  0  0  0  0  0  0  0
  128.2411  127.2029   59.4746 H   0  0  0  0  0  0  0  0  0  0  0  0
  127.9776  125.9053   58.2606 H   0  0  0  0  0  0  0  0  0  0  0  0
  129.5135  126.8368   58.2606 H   0  0  0  0  0  0  0  0  0  0  0  0
  128.9094  130.7959   57.2249 H   0  0  0  0  0  0  0  0  0  0  0  0
  126.9745  130.9519   61.2811 H   0  0  0  0  0  0  0  0  0  0  0  0
  125.7466  130.8950   59.9711 H   0  0  0  0  0  0  0  0  0  0  0  0
  127.1146  129.7308   59.9711 H   0  0  0  0  0  0  0  0  0  0  0  0
  129.1706  131.6555   63.5828 H   0  0  0  0  0  0  0  0  0  0  0  0
  128.2177  130.5795   62.5053 H   0  0  0  0  0  0  0  0  0  0  0  0
  130.0118  130.4901   62.5053 H   0  0  0  0  0  0  0  0  0  0  0  0
  1  2  1  0
  2  3  1  0
  3  4  2  0
  4  5  1  0
  5  6  1  0
  6  7  1  0
  7  8  1  0
  8  9  2  0
  8 10  1  0
 10 11  1  0
 11 12  1  0
 12 13  2  0
 13 14  1  0
 14 15  1  0
 14 16  2  0
 16 17  1  0
 17 18  1  0
 17 19  2  0
 19 20  1  0
 20 21  3  0
  5 22  2  0
 22 23  1  0
 23 24  1  0
 24 25  1  0
 23 26  2  0
 26 27  1  0
 27 28  1  0
 26  3  1  0
 19 12  1  0
  1 29  1  0
  1 30  1  0
  1 31  1  0
  4 32  1  0
  6 33  1  0
  6 34  1  0
  7 35  1  0
 10 36  1  0
 10 37  1  0
 15 38  1  0
 15 39  1  0
 15 40  1  0
 16 41  1  0
 18 42  1  0
 18 43  1  0
 18 44  1  0
 22 45  1  0
 25 46  1  0
 25 47  1  0
 25 48  1  0
 28 49  1  0
 28 50  1  0
 28 51  1  0
M  END
>  <Binding energies>  (1) 
[-7.02]

>  <Ligand effiencies>  (1) 
[-0.24206896551724136]

>  <Interactions>  (1) 
["H-B:TYR:531:OH:9767, V-B:TYR:531:CZ:9766, V-A:ILE:538:CA:4860, V-A:ILE:538:CG2:4863, V-A:PRO:540:CA:4883, H-A:TYR:531:OH:4795, H-A:TYR:539:N:4870, V-A:TYR:539:CZ:4877, V-A:PRO:540:CB:4885, V-A:TYR:539:CE1:4875, V-A:TYR:531:CZ:4794, V-A:ILE:538:CB:4862, V-B:TYR:531:CE1:9764, H-B:LYS:534:NZ:9795, V-B:ASP:366:CB:8183, V-A:ALA:541:CB:4892, V-A:PRO:540:C:4881, V-A:GLU:543:CG:4907, V-A:GLU:543:CD:4908, V-B:ASP:366:C:8179, H-A:TYR:539:OH:4878, V-B:LYS:534:CE:9794, H-A:ALA:541:N:4891, V-A:ASN:362:CB:3175"]

$$$$
1i_Grossjean_2025
     RDKit          3D

 32 33  0  0  0  0  0  0  0  0999 V2000
  132.2460  131.7470   61.7740 C   0  0  0  0  0  0  0  0  0  0  0  0
  131.7710  130.8460   60.6510 C   0  0  0  0  0  0  0  0  0  0  0  0
  130.7740  129.8940   60.8510 C   0  0  0  0  0  0  0  0  0  0  0  0
  130.3690  129.0970   59.7750 C   0  0  0  0  0  0  0  0  0  0  0  0
  129.2610  128.0720   60.0150 C   0  0  0  0  0  0  0  0  0  0  0  0
  130.9850  129.2720   58.5140 C   0  0  0  0  0  0  0  0  0  0  0  0
  130.5410  128.4830   57.3620 C   0  0  0  0  0  0  0  0  0  0  0  0
  130.1880  127.8600   56.4530 N   0  0  0  0  0  0  0  0  0  0  0  0
  132.0060  130.2460   58.4090 C   0  0  0  0  0  0  0  0  0  0  0  0
  132.8870  130.5970   56.9030 S   0  0  0  0  0  0  0  0  0  0  0  0
  132.1460  132.0850   56.1670 C   0  0  0  0  0  0  0  0  0  0  0  0
  130.6230  131.9780   56.0630 C   0  0  0  0  0  0  0  0  0  0  0  0
  129.9200  132.8460   56.5840 O   0  0  0  0  0  0  0  0  0  0  0  0
  130.1590  130.9070   55.3840 N   0  0  0  0  0  0  0  0  0  0  0  0
  128.8340  130.5700   55.1470 C   0  0  0  0  0  0  0  0  0  0  0  0
  127.9750  130.1120   56.1450 C   0  0  0  0  0  0  0  0  0  0  0  0
  126.7740  129.8940   55.5120 C   0  0  0  0  0  0  0  0  0  0  0  0
  126.9020  130.2030   54.2000 O   0  0  0  0  0  0  0  0  0  0  0  0
  128.2130  130.6300   53.9800 N   0  0  0  0  0  0  0  0  0  0  0  0
  132.3780  131.0270   59.4540 N   0  0  0  0  0  0  0  0  0  0  0  0
  132.0026  131.2854   62.7423 H   0  0  0  0  0  0  0  0  0  0  0  0
  133.3345  131.8858   61.6972 H   0  0  0  0  0  0  0  0  0  0  0  0
  131.7455  132.7235   61.6972 H   0  0  0  0  0  0  0  0  0  0  0  0
  130.3115  129.7706   61.8414 H   0  0  0  0  0  0  0  0  0  0  0  0
  129.1147  127.9367   61.0968 H   0  0  0  0  0  0  0  0  0  0  0  0
  128.3255  128.4301   59.5605 H   0  0  0  0  0  0  0  0  0  0  0  0
  129.5453  127.1115   59.5605 H   0  0  0  0  0  0  0  0  0  0  0  0
  132.3987  132.9537   56.7927 H   0  0  0  0  0  0  0  0  0  0  0  0
  132.5482  132.1959   55.1492 H   0  0  0  0  0  0  0  0  0  0  0  0
  130.8420  130.2510   55.0300 H   0  0  0  0  0  0  0  0  0  0  0  0
  128.2078  129.9582   57.2090 H   0  0  0  0  0  0  0  0  0  0  0  0
  125.8560  129.5272   55.9944 H   0  0  0  0  0  0  0  0  0  0  0  0
  1  2  1  0
  2  3  2  0
  3  4  1  0
  4  5  1  0
  4  6  2  0
  6  7  1  0
  7  8  3  0
  6  9  1  0
  9 10  1  0
 10 11  1  0
 11 12  1  0
 12 13  2  0
 12 14  1  0
 14 15  1  0
 15 16  1  0
 16 17  2  0
 17 18  1  0
 18 19  1  0
  9 20  2  0
 20  2  1  0
 19 15  2  0
  1 21  1  0
  1 22  1  0
  1 23  1  0
  3 24  1  0
  5 25  1  0
  5 26  1  0
  5 27  1  0
 11 28  1  0
 11 29  1  0
 14 30  1  0
 16 31  1  0
 17 32  1  0
M  END
>  <Binding energies>  (1) 
[-7.23]

>  <Ligand effiencies>  (1) 
[-0.3442857142857143]

>  <Interactions>  (1) 
["V-B:TYR:531:CZ:9766, V-A:PRO:540:N:4884, V-A:PRO:540:CA:4883, H-A:TYR:531:OH:4795, H-A:TYR:539:N:4870, V-A:TYR:539:CZ:4877, V-A:PRO:540:CB:4885, V-A:TYR:539:CE1:4875, V-A:ILE:538:CB:4862, V-B:TYR:531:CE1:9764, H-B:LYS:534:NZ:9795, V-A:PRO:540:CD:4887, V-A:PRO:540:C:4881, V-A:LEU:363:CD1:3188, V-A:GLU:543:CD:4908, H-A:TYR:539:OH:4878, V-A:ALA:541:CA:4890, V-A:ALA:541:C:4888"]

$$$$
1j_Grossjean_2025
     RDKit          3D

 32 33  0  0  0  0  0  0  0  0999 V2000
  125.9930  129.9320   57.6470 C   0  0  0  0  0  0  0  0  0  0  0  0
  127.1130  129.0830   57.0730 C   0  0  0  0  0  0  0  0  0  0  0  0
  127.5920  127.9590   57.7420 C   0  0  0  0  0  0  0  0  0  0  0  0
  128.6160  127.2070   57.1590 C   0  0  0  0  0  0  0  0  0  0  0  0
  129.1140  125.9690   57.9040 C   0  0  0  0  0  0  0  0  0  0  0  0
  129.1440  127.6090   55.9110 C   0  0  0  0  0  0  0  0  0  0  0  0
  130.1810  126.8060   55.2570 C   0  0  0  0  0  0  0  0  0  0  0  0
  130.9980  126.1690   54.7420 N   0  0  0  0  0  0  0  0  0  0  0  0
  128.6150  128.7780   55.3160 C   0  0  0  0  0  0  0  0  0  0  0  0
  129.1610  129.4290   53.7520 S   0  0  0  0  0  0  0  0  0  0  0  0
  129.4860  131.2030   53.9750 C   0  0  0  0  0  0  0  0  0  0  0  0
  130.0600  131.5120   55.3590 C   0  0  0  0  0  0  0  0  0  0  0  0
  129.6550  132.4990   55.9750 O   0  0  0  0  0  0  0  0  0  0  0  0
  130.9940  130.6460   55.8090 N   0  0  0  0  0  0  0  0  0  0  0  0
  131.6670  130.7100   57.0220 C   0  0  0  0  0  0  0  0  0  0  0  0
  132.9520  130.5290   57.2420 N   0  0  0  0  0  0  0  0  0  0  0  0
  133.2460  130.6650   58.5200 C   0  0  0  0  0  0  0  0  0  0  0  0
  132.1850  130.9650   59.3690 C   0  0  0  0  0  0  0  0  0  0  0  0
  130.7250  131.0740   58.4320 S   0  0  0  0  0  0  0  0  0  0  0  0
  127.6060  129.4890   55.8790 N   0  0  0  0  0  0  0  0  0  0  0  0
  126.0350  129.9002   58.7457 H   0  0  0  0  0  0  0  0  0  0  0  0
  126.1088  130.9712   57.3056 H   0  0  0  0  0  0  0  0  0  0  0  0
  125.0237  129.5398   57.3056 H   0  0  0  0  0  0  0  0  0  0  0  0
  127.1704  127.6673   58.7152 H   0  0  0  0  0  0  0  0  0  0  0  0
  129.0448  126.1410   58.9883 H   0  0  0  0  0  0  0  0  0  0  0  0
  128.4946  125.1023   57.6300 H   0  0  0  0  0  0  0  0  0  0  0  0
  130.1611  125.7727   57.6300 H   0  0  0  0  0  0  0  0  0  0  0  0
  130.2061  131.5307   53.2108 H   0  0  0  0  0  0  0  0  0  0  0  0
  128.5299  131.7381   53.8770 H   0  0  0  0  0  0  0  0  0  0  0  0
  131.2610  129.8880   55.1990 H   0  0  0  0  0  0  0  0  0  0  0  0
  134.2736  130.5478   58.8946 H   0  0  0  0  0  0  0  0  0  0  0  0
  132.2584  131.1097   60.4570 H   0  0  0  0  0  0  0  0  0  0  0  0
  1  2  1  0
  2  3  2  0
  3  4  1  0
  4  5  1  0
  4  6  2  0
  6  7  1  0
  7  8  3  0
  6  9  1  0
  9 10  1  0
 10 11  1  0
 11 12  1  0
 12 13  2  0
 12 14  1  0
 14 15  1  0
 15 16  2  0
 16 17  1  0
 17 18  2  0
 18 19  1  0
  9 20  2  0
 20  2  1  0
 19 15  1  0
  1 21  1  0
  1 22  1  0
  1 23  1  0
  3 24  1  0
  5 25  1  0
  5 26  1  0
  5 27  1  0
 11 28  1  0
 11 29  1  0
 14 30  1  0
 17 31  1  0
 18 32  1  0
M  END
>  <Binding energies>  (1) 
[-6.71]

>  <Ligand effiencies>  (1) 
[-0.31952380952380954]

>  <Interactions>  (1) 
["H-B:TYR:531:OH:9767, V-B:TYR:531:CZ:9766, V-A:ASP:366:CG:3212, V-A:ILE:538:CA:4860, V-A:ASP:366:CB:3211, V-A:ILE:538:CG2:4863, H-B:TYR:539:OH:9850, V-A:PRO:540:CA:4883, H-A:TYR:531:OH:4795, H-A:TYR:539:N:4870, V-A:TYR:539:CZ:4877, V-A:PRO:540:CB:4885, V-A:TYR:539:CE1:4875, V-A:TYR:531:CZ:4794, V-A:ILE:538:CB:4862, V-A:LEU:363:CD1:3188, V-A:LEU:363:CA:3184"]

$$$$
1k_Grossjean_2025
     RDKit          3D

 50 50  0  0  0  0  0  0  0  0999 V2000
  125.3450  121.9860   55.4500 C   0  0  0  0  0  0  0  0  0  0  0  0
  126.4580  121.6290   56.2540 O   0  0  0  0  0  0  0  0  0  0  0  0
  126.6570  122.4960   57.3630 C   0  0  0  0  0  0  0  0  0  0  0  0
  125.5410  123.5490   57.3960 C   0  0  0  0  0  0  0  0  0  0  0  0
  126.1180  124.8490   57.3770 O   0  0  0  0  0  0  0  0  0  0  0  0
  125.4260  125.7930   58.1850 C   0  0  0  0  0  0  0  0  0  0  0  0
  126.4420  126.6910   58.9010 C   0  0  0  0  0  0  0  0  0  0  0  0
  126.6200  127.8910   58.1590 O   0  0  0  0  0  0  0  0  0  0  0  0
  125.4010  128.5370   57.8170 C   0  0  0  0  0  0  0  0  0  0  0  0
  125.6590  129.5670   56.7010 C   0  0  0  0  0  0  0  0  0  0  0  0
  127.0760  129.7880   56.4100 N   0  0  0  0  0  0  0  0  0  0  0  0
  127.5800  130.0990   55.2030 C   0  0  0  0  0  0  0  0  0  0  0  0
  126.8810  130.2380   54.1970 O   0  0  0  0  0  0  0  0  0  0  0  0
  129.1060  130.2680   55.1460 C   0  0  0  0  0  0  0  0  0  0  0  0
  129.7700  131.7400   56.0000 S   0  0  0  0  0  0  0  0  0  0  0  0
  129.5750  131.5330   57.7640 C   0  0  0  0  0  0  0  0  0  0  0  0
  128.2970  131.5370   58.2240 N   0  0  0  0  0  0  0  0  0  0  0  0
  128.0790  131.3950   59.5510 C   0  0  0  0  0  0  0  0  0  0  0  0
  126.6270  131.4190   59.9870 C   0  0  0  0  0  0  0  0  0  0  0  0
  129.1140  131.2350   60.4700 C   0  0  0  0  0  0  0  0  0  0  0  0
  130.4340  131.2210   60.0090 C   0  0  0  0  0  0  0  0  0  0  0  0
  131.5540  131.0450   61.0320 C   0  0  0  0  0  0  0  0  0  0  0  0
  130.6840  131.3730   58.6270 C   0  0  0  0  0  0  0  0  0  0  0  0
  132.0580  131.3660   58.1160 C   0  0  0  0  0  0  0  0  0  0  0  0
  133.1430  131.3610   57.7130 N   0  0  0  0  0  0  0  0  0  0  0  0
  124.4977  122.2578   56.0967 H   0  0  0  0  0  0  0  0  0  0  0  0
  125.6115  122.8437   54.8150 H   0  0  0  0  0  0  0  0  0  0  0  0
  125.0628  121.1333   54.8150 H   0  0  0  0  0  0  0  0  0  0  0  0
  126.6366  121.9108   58.2942 H   0  0  0  0  0  0  0  0  0  0  0  0
  127.6313  122.9973   57.2662 H   0  0  0  0  0  0  0  0  0  0  0  0
  124.8912  123.4229   56.5174 H   0  0  0  0  0  0  0  0  0  0  0  0
  124.9451  123.4246   58.3122 H   0  0  0  0  0  0  0  0  0  0  0  0
  124.7731  126.4105   57.5506 H   0  0  0  0  0  0  0  0  0  0  0  0
  124.8154  125.2618   58.9300 H   0  0  0  0  0  0  0  0  0  0  0  0
  126.0711  126.9340   59.9077 H   0  0  0  0  0  0  0  0  0  0  0  0
  127.4041  126.1639   58.9819 H   0  0  0  0  0  0  0  0  0  0  0  0
  124.6762  127.7885   57.4643 H   0  0  0  0  0  0  0  0  0  0  0  0
  124.9979  129.0502   58.7025 H   0  0  0  0  0  0  0  0  0  0  0  0
  125.1687  129.2118   55.7826 H   0  0  0  0  0  0  0  0  0  0  0  0
  125.2535  130.5266   57.0541 H   0  0  0  0  0  0  0  0  0  0  0  0
  127.7120  129.6880   57.1880 H   0  0  0  0  0  0  0  0  0  0  0  0
  129.5623  129.3773   55.6026 H   0  0  0  0  0  0  0  0  0  0  0  0
  129.3545  130.3997   54.0826 H   0  0  0  0  0  0  0  0  0  0  0  0
  126.5741  131.4199   61.0857 H   0  0  0  0  0  0  0  0  0  0  0  0
  126.1416  132.3253   59.5958 H   0  0  0  0  0  0  0  0  0  0  0  0
  126.1119  130.5292   59.5958 H   0  0  0  0  0  0  0  0  0  0  0  0
  128.8959  131.1214   61.5422 H   0  0  0  0  0  0  0  0  0  0  0  0
  131.1366  131.1106   62.0476 H   0  0  0  0  0  0  0  0  0  0  0  0
  132.0267  130.0616   60.8926 H   0  0  0  0  0  0  0  0  0  0  0  0
  132.3055  131.8361   60.8926 H   0  0  0  0  0  0  0  0  0  0  0  0
  1  2  1  0
  2  3  1  0
  3  4  1  0
  4  5  1  0
  5  6  1  0
  6  7  1  0
  7  8  1  0
  8  9  1  0
  9 10  1  0
 10 11  1  0
 11 12  1  0
 12 13  2  0
 12 14  1  0
 14 15  1  0
 15 16  1  0
 16 17  2  0
 17 18  1  0
 18 19  1  0
 18 20  2  0
 20 21  1  0
 21 22  1  0
 21 23  2  0
 23 24  1  0
 24 25  3  0
 23 16  1  0
  1 26  1  0
  1 27  1  0
  1 28  1  0
  3 29  1  0
  3 30  1  0
  4 31  1  0
  4 32  1  0
  6 33  1  0
  6 34  1  0
  7 35  1  0
  7 36  1  0
  9 37  1  0
  9 38  1  0
 10 39  1  0
 10 40  1  0
 11 41  1  0
 14 42  1  0
 14 43  1  0
 19 44  1  0
 19 45  1  0
 19 46  1  0
 20 47  1  0
 22 48  1  0
 22 49  1  0
 22 50  1  0
M  END
>  <Binding energies>  (1) 
[-6.76]

>  <Ligand effiencies>  (1) 
[-0.26]

>  <Interactions>  (1) 
["V-B:PRO:540:CB:9857, H-B:TYR:531:OH:9767, V-B:MET:535:CE:9807, V-B:PRO:540:N:9856, V-B:PRO:540:CA:9855, H-B:TYR:539:N:9842, V-B:MET:535:CG:9805, V-B:TYR:539:C:9839, V-B:TYR:531:CE2:9765, V-B:TYR:531:CZ:9766, V-B:LEU:363:CD1:8160, V-B:PRO:540:CD:9859, V-A:PRO:540:N:4884, V-A:TYR:539:CD1:4873, V-A:PRO:540:CA:4883, V-A:TYR:539:CZ:4877, V-A:PRO:540:CB:4885, V-A:TYR:539:CE1:4875, V-B:ASP:366:CG:8184, V-B:TYR:531:CE1:9764, H-B:LYS:534:NZ:9795, V-B:ASP:366:CB:8183, V-A:TYR:539:C:4867, H-A:TYR:539:OH:4878, V-B:ILE:538:CA:9832, V-B:ILE:538:CG1:9836, V-B:ILE:538:CG2:9835, V-B:ILE:538:CB:9834"]

$$$$
1l_Grossjean_2025
     RDKit          3D

 30 30  0  0  0  0  0  0  0  0999 V2000
  129.4880  127.6460   54.0050 C   0  0  0  0  0  0  0  0  0  0  0  0
  129.8840  128.9900   53.7710 O   0  0  0  0  0  0  0  0  0  0  0  0
  129.7540  129.7350   54.9420 N   0  0  0  0  0  0  0  0  0  0  0  0
  128.7950  130.6780   55.0130 C   0  0  0  0  0  0  0  0  0  0  0  0
  127.8730  130.7780   54.1990 O   0  0  0  0  0  0  0  0  0  0  0  0
  128.9100  131.6360   56.2070 C   0  0  0  0  0  0  0  0  0  0  0  0
  128.9850  130.8260   57.8420 S   0  0  0  0  0  0  0  0  0  0  0  0
  130.6980  130.7160   58.3290 C   0  0  0  0  0  0  0  0  0  0  0  0
  131.5440  130.2020   57.3990 N   0  0  0  0  0  0  0  0  0  0  0  0
  132.8590  130.0890   57.7030 C   0  0  0  0  0  0  0  0  0  0  0  0
  133.7390  129.5070   56.6130 C   0  0  0  0  0  0  0  0  0  0  0  0
  133.3820  130.4790   58.9330 C   0  0  0  0  0  0  0  0  0  0  0  0
  132.5210  131.0110   59.8990 C   0  0  0  0  0  0  0  0  0  0  0  0
  133.1170  131.4340   61.2410 C   0  0  0  0  0  0  0  0  0  0  0  0
  131.1460  131.1380   59.6030 C   0  0  0  0  0  0  0  0  0  0  0  0
  130.2200  131.6920   60.5960 C   0  0  0  0  0  0  0  0  0  0  0  0
  129.4920  132.1290   61.3810 N   0  0  0  0  0  0  0  0  0  0  0  0
  129.4341  127.4630   55.0883 H   0  0  0  0  0  0  0  0  0  0  0  0
  128.5001  127.4710   53.5539 H   0  0  0  0  0  0  0  0  0  0  0  0
  130.2232  126.9633   53.5539 H   0  0  0  0  0  0  0  0  0  0  0  0
  130.6140  129.7680   55.4710 H   0  0  0  0  0  0  0  0  0  0  0  0
  129.8256  132.2321   56.0792 H   0  0  0  0  0  0  0  0  0  0  0  0
  127.9912  132.2408   56.2054 H   0  0  0  0  0  0  0  0  0  0  0  0
  134.5732  128.9553   57.0708 H   0  0  0  0  0  0  0  0  0  0  0  0
  133.1455  128.8227   55.9889 H   0  0  0  0  0  0  0  0  0  0  0  0
  134.1364  130.3210   55.9889 H   0  0  0  0  0  0  0  0  0  0  0  0
  134.4564  130.3704   59.1422 H   0  0  0  0  0  0  0  0  0  0  0  0
  132.5173  131.0084   62.0590 H   0  0  0  0  0  0  0  0  0  0  0  0
  134.1512  131.0666   61.3150 H   0  0  0  0  0  0  0  0  0  0  0  0
  133.1116  132.5315   61.3150 H   0  0  0  0  0  0  0  0  0  0  0  0
  1  2  1  0
  2  3  1  0
  3  4  1  0
  4  5  2  0
  4  6  1  0
  6  7  1  0
  7  8  1  0
  8  9  2  0
  9 10  1  0
 10 11  1  0
 10 12  2  0
 12 13  1  0
 13 14  1  0
 13 15  2  0
 15 16  1  0
 16 17  3  0
 15  8  1  0
  1 18  1  0
  1 19  1  0
  1 20  1  0
  3 21  1  0
  6 22  1  0
  6 23  1  0
 11 24  1  0
 11 25  1  0
 11 26  1  0
 12 27  1  0
 14 28  1  0
 14 29  1  0
 14 30  1  0
M  END
>  <Binding energies>  (1) 
[-5.94]

>  <Ligand effiencies>  (1) 
[-0.33]

>  <Interactions>  (1) 
["V-A:ASP:366:CG:3212, V-A:ASP:366:CB:3211, V-A:TYR:539:CD1:4873, V-A:PRO:540:CA:4883, H-A:TYR:531:OH:4795, V-A:TYR:539:CZ:4877, V-A:PRO:540:CB:4885, V-A:TYR:539:CE1:4875, V-A:TYR:531:CZ:4794, H-B:LYS:534:NZ:9795, V-A:PRO:540:C:4881, V-A:LEU:363:CD1:3188, H-A:TYR:539:OH:4878, H-A:ALA:541:N:4891, V-A:TYR:531:CE2:4793, V-A:LEU:363:CA:3184, V-A:ASN:362:CB:3175, V-A:MET:535:CE:4835"]

$$$$
1m_Grossjean_2025
     RDKit          3D

 35 35  0  0  0  0  0  0  0  0999 V2000
  131.6810  125.7880   55.7680 C   0  0  0  0  0  0  0  0  0  0  0  0
  130.9740  126.4990   54.7620 O   0  0  0  0  0  0  0  0  0  0  0  0
  129.6950  126.8800   54.9620 C   0  0  0  0  0  0  0  0  0  0  0  0
  128.9280  126.4040   55.8050 O   0  0  0  0  0  0  0  0  0  0  0  0
  129.2860  128.0160   54.0020 C   0  0  0  0  0  0  0  0  0  0  0  0
  129.5260  129.3530   54.5660 N   0  0  0  0  0  0  0  0  0  0  0  0
  128.6260  130.3530   54.6260 C   0  0  0  0  0  0  0  0  0  0  0  0
  127.4790  130.2510   54.1860 O   0  0  0  0  0  0  0  0  0  0  0  0
  129.1220  131.6510   55.2770 C   0  0  0  0  0  0  0  0  0  0  0  0
  130.8010  131.5540   55.9870 S   0  0  0  0  0  0  0  0  0  0  0  0
  130.6480  131.5180   57.7600 C   0  0  0  0  0  0  0  0  0  0  0  0
  129.4580  131.9900   58.2110 N   0  0  0  0  0  0  0  0  0  0  0  0
  129.2260  132.0040   59.5440 C   0  0  0  0  0  0  0  0  0  0  0  0
  127.8680  132.5270   59.9720 C   0  0  0  0  0  0  0  0  0  0  0  0
  130.1650  131.5650   60.4760 C   0  0  0  0  0  0  0  0  0  0  0  0
  131.4050  131.1010   60.0230 C   0  0  0  0  0  0  0  0  0  0  0  0
  132.4240  130.6390   61.0630 C   0  0  0  0  0  0  0  0  0  0  0  0
  131.6700  131.0770   58.6350 C   0  0  0  0  0  0  0  0  0  0  0  0
  132.9790  130.6430   58.1430 C   0  0  0  0  0  0  0  0  0  0  0  0
  134.0130  130.2990   57.7550 N   0  0  0  0  0  0  0  0  0  0  0  0
  131.3456  126.1253   56.7598 H   0  0  0  0  0  0  0  0  0  0  0  0
  131.4856  124.7107   55.6616 H   0  0  0  0  0  0  0  0  0  0  0  0
  132.7594  125.9773   55.6616 H   0  0  0  0  0  0  0  0  0  0  0  0
  129.8665  127.9171   53.0729 H   0  0  0  0  0  0  0  0  0  0  0  0
  128.2052  127.9226   53.8198 H   0  0  0  0  0  0  0  0  0  0  0  0
  130.4550  129.5230   54.9230 H   0  0  0  0  0  0  0  0  0  0  0  0
  129.1185  132.4413   54.5119 H   0  0  0  0  0  0  0  0  0  0  0  0
  128.4411  131.8582   56.1157 H   0  0  0  0  0  0  0  0  0  0  0  0
  127.8128  132.5483   61.0704 H   0  0  0  0  0  0  0  0  0  0  0  0
  127.7260  133.5441   59.5780 H   0  0  0  0  0  0  0  0  0  0  0  0
  127.0804  131.8679   59.5780 H   0  0  0  0  0  0  0  0  0  0  0  0
  129.9347  131.5830   61.5515 H   0  0  0  0  0  0  0  0  0  0  0  0
  132.0255  130.8197   62.0722 H   0  0  0  0  0  0  0  0  0  0  0  0
  132.6193  129.5643   60.9328 H   0  0  0  0  0  0  0  0  0  0  0  0
  133.3610  131.2003   60.9328 H   0  0  0  0  0  0  0  0  0  0  0  0
  1  2  1  0
  2  3  1  0
  3  4  2  0
  3  5  1  0
  5  6  1  0
  6  7  1  0
  7  8  2  0
  7  9  1  0
  9 10  1  0
 10 11  1  0
 11 12  2  0
 12 13  1  0
 13 14  1  0
 13 15  2  0
 15 16  1  0
 16 17  1  0
 16 18  2  0
 18 19  1  0
 19 20  3  0
 18 11  1  0
  1 21  1  0
  1 22  1  0
  1 23  1  0
  5 24  1  0
  5 25  1  0
  6 26  1  0
  9 27  1  0
  9 28  1  0
 14 29  1  0
 14 30  1  0
 14 31  1  0
 15 32  1  0
 17 33  1  0
 17 34  1  0
 17 35  1  0
M  END
>  <Binding energies>  (1) 
[-6.83]

>  <Ligand effiencies>  (1) 
[-0.3252380952380952]

>  <Interactions>  (1) 
["H-B:TYR:531:OH:9767, V-A:ASP:366:CG:3212, V-A:PRO:540:N:4884, V-A:TYR:531:CE1:4792, V-A:ILE:538:CA:4860, V-A:ASP:366:CB:3211, V-A:TYR:539:CD1:4873, V-A:PRO:540:CA:4883, H-A:TYR:531:OH:4795, V-A:PRO:540:CB:4885, V-A:TYR:539:CE1:4875, H-B:LYS:534:NZ:9795, V-A:PRO:540:C:4881, V-A:TYR:539:C:4867, V-A:LEU:363:CD1:3188, H-A:TYR:539:OH:4878, V-A:LEU:363:CA:3184, V-A:MET:535:CE:4835"]

$$$$
1n_Grossjean_2025
     RDKit          3D

 48 49  0  0  0  0  0  0  0  0999 V2000
  125.3270  123.7990   59.3150 C   0  0  0  0  0  0  0  0  0  0  0  0
  124.8270  123.9990   57.8810 C   0  0  0  0  0  0  0  0  0  0  0  0
  125.9200  123.8790   56.9790 O   0  0  0  0  0  0  0  0  0  0  0  0
  126.7670  122.8190   57.0400 C   0  0  0  0  0  0  0  0  0  0  0  0
  126.4780  121.6930   56.6270 O   0  0  0  0  0  0  0  0  0  0  0  0
  128.0970  123.1580   57.6490 C   0  0  0  0  0  0  0  0  0  0  0  0
  128.7170  122.3230   58.5910 C   0  0  0  0  0  0  0  0  0  0  0  0
  129.9490  122.6680   59.1380 C   0  0  0  0  0  0  0  0  0  0  0  0
  130.5830  123.8540   58.7650 C   0  0  0  0  0  0  0  0  0  0  0  0
  131.8220  124.1070   59.3840 N   0  0  0  0  0  0  0  0  0  0  0  0
  133.0410  123.5870   59.1210 C   0  0  0  0  0  0  0  0  0  0  0  0
  133.2910  122.7640   58.2410 O   0  0  0  0  0  0  0  0  0  0  0  0
  134.1830  124.0940   60.0120 C   0  0  0  0  0  0  0  0  0  0  0  0
  133.9740  123.7710   61.5070 C   0  0  0  0  0  0  0  0  0  0  0  0
  134.1500  122.0120   61.9310 S   0  0  0  0  0  0  0  0  0  0  0  0
  132.5530  121.2490   61.7450 C   0  0  0  0  0  0  0  0  0  0  0  0
  131.5360  121.9870   62.2580 N   0  0  0  0  0  0  0  0  0  0  0  0
  130.2730  121.5120   62.1580 C   0  0  0  0  0  0  0  0  0  0  0  0
  129.1880  122.3950   62.7440 C   0  0  0  0  0  0  0  0  0  0  0  0
  129.9730  120.2920   61.5550 C   0  0  0  0  0  0  0  0  0  0  0  0
  131.0170  119.5140   61.0410 C   0  0  0  0  0  0  0  0  0  0  0  0
  130.6660  118.1750   60.3970 C   0  0  0  0  0  0  0  0  0  0  0  0
  132.3450  119.9880   61.1390 C   0  0  0  0  0  0  0  0  0  0  0  0
  133.4570  119.1680   60.6540 C   0  0  0  0  0  0  0  0  0  0  0  0
  134.3340  118.5170   60.2720 N   0  0  0  0  0  0  0  0  0  0  0  0
  129.9750  124.6890   57.8160 C   0  0  0  0  0  0  0  0  0  0  0  0
  128.7440  124.3400   57.2670 C   0  0  0  0  0  0  0  0  0  0  0  0
  124.5452  124.1117   60.0229 H   0  0  0  0  0  0  0  0  0  0  0  0
  125.5638  122.7369   59.4760 H   0  0  0  0  0  0  0  0  0  0  0  0
  126.2310  124.4047   59.4760 H   0  0  0  0  0  0  0  0  0  0  0  0
  124.0714  123.2350   57.6458 H   0  0  0  0  0  0  0  0  0  0  0  0
  124.3785  124.9987   57.7841 H   0  0  0  0  0  0  0  0  0  0  0  0
  128.2253  121.3886   58.8994 H   0  0  0  0  0  0  0  0  0  0  0  0
  130.4270  122.0007   59.8702 H   0  0  0  0  0  0  0  0  0  0  0  0
  131.7860  124.8110   60.1060 H   0  0  0  0  0  0  0  0  0  0  0  0
  135.1208  123.6244   59.6802 H   0  0  0  0  0  0  0  0  0  0  0  0
  134.2136  125.1892   59.9143 H   0  0  0  0  0  0  0  0  0  0  0  0
  134.7146  124.3401   62.0881 H   0  0  0  0  0  0  0  0  0  0  0  0
  132.9360  124.0473   61.7442 H   0  0  0  0  0  0  0  0  0  0  0  0
  129.2365  122.3555   63.8422 H   0  0  0  0  0  0  0  0  0  0  0  0
  129.3372  123.4315   62.4074 H   0  0  0  0  0  0  0  0  0  0  0  0
  128.2034  122.0383   62.4074 H   0  0  0  0  0  0  0  0  0  0  0  0
  128.9314  119.9456   61.4840 H   0  0  0  0  0  0  0  0  0  0  0  0
  130.4708  117.4303   61.1826 H   0  0  0  0  0  0  0  0  0  0  0  0
  129.7684  118.2927   59.7722 H   0  0  0  0  0  0  0  0  0  0  0  0
  131.5060  117.8373   59.7722 H   0  0  0  0  0  0  0  0  0  0  0  0
  130.4711  125.6203   57.5053 H   0  0  0  0  0  0  0  0  0  0  0  0
  128.2737  125.0009   56.5240 H   0  0  0  0  0  0  0  0  0  0  0  0
  1  2  1  0
  2  3  1  0
  3  4  1  0
  4  5  2  0
  4  6  1  0
  6  7  2  0
  7  8  1  0
  8  9  2  0
  9 10  1  0
 10 11  1  0
 11 12  2  0
 11 13  1  0
 13 14  1  0
 14 15  1  0
 15 16  1  0
 16 17  2  0
 17 18  1  0
 18 19  1  0
 18 20  2  0
 20 21  1  0
 21 22  1  0
 21 23  2  0
 23 24  1  0
 24 25  3  0
  9 26  1  0
 26 27  2  0
 27  6  1  0
 23 16  1  0
  1 28  1  0
  1 29  1  0
  1 30  1  0
  2 31  1  0
  2 32  1  0
  7 33  1  0
  8 34  1  0
 10 35  1  0
 13 36  1  0
 13 37  1  0
 14 38  1  0
 14 39  1  0
 19 40  1  0
 19 41  1  0
 19 42  1  0
 20 43  1  0
 22 44  1  0
 22 45  1  0
 22 46  1  0
 26 47  1  0
 27 48  1  0
M  END
>  <Binding energies>  (1) 
[-8.1]

>  <Ligand effiencies>  (1) 
[-0.28928571428571426]

>  <Interactions>  (1) 
["V-B:PRO:540:CB:9857, H-B:TYR:531:OH:9767, V-B:MET:535:CE:9807, V-A:ILE:369:CG2:3236, V-B:TYR:539:CD2:9846, V-B:PRO:540:N:9856, V-A:LEU:475:CD1:4257, V-B:PRO:540:CA:9855, V-B:PRO:540:C:9853, H-A:SER:385:OG:3409, H-A:HIS:383:NE2:3393, H-B:TYR:539:N:9842, V-B:ALA:541:CB:9864, V-B:TYR:539:CE2:9848, V-B:TYR:539:C:9839, V-B:TYR:531:CE2:9765, V-A:PRO:482:CG:4326, V-B:LEU:363:CD1:8160, V-A:ASP:366:CG:3212, H-A:GLY:454:N:4049, V-A:ASP:366:CA:3209, V-A:ASP:366:CB:3211, H-B:TYR:539:OH:9850, V-A:ILE:369:CD1:3238, H-A:ASP:366:OD2:3214, V-B:TYR:539:CZ:9849, V-A:SER:385:CA:3406, V-A:ILE:369:CB:3235, V-B:ALA:541:CA:9862"]

$$$$
1o_Grossjean_2025
     RDKit          3D

 45 46  0  0  0  0  0  0  0  0999 V2000
  125.0100  121.9950   54.9240 C   0  0  0  0  0  0  0  0  0  0  0  0
  125.5640  121.4820   56.1270 O   0  0  0  0  0  0  0  0  0  0  0  0
  126.6800  122.0300   56.6730 C   0  0  0  0  0  0  0  0  0  0  0  0
  127.7880  121.4860   56.6470 O   0  0  0  0  0  0  0  0  0  0  0  0
  126.4330  123.3670   57.3100 C   0  0  0  0  0  0  0  0  0  0  0  0
  127.4690  124.2890   57.5260 C   0  0  0  0  0  0  0  0  0  0  0  0
  127.2060  125.5220   58.1180 C   0  0  0  0  0  0  0  0  0  0  0  0
  125.9090  125.8570   58.5090 C   0  0  0  0  0  0  0  0  0  0  0  0
  125.7550  127.1320   59.0880 N   0  0  0  0  0  0  0  0  0  0  0  0
  126.0720  128.3500   58.5970 C   0  0  0  0  0  0  0  0  0  0  0  0
  126.5360  128.5650   57.4770 O   0  0  0  0  0  0  0  0  0  0  0  0
  125.7870  129.5350   59.5310 C   0  0  0  0  0  0  0  0  0  0  0  0
  127.0550  130.1080   60.1960 C   0  0  0  0  0  0  0  0  0  0  0  0
  127.5030  131.7720   59.6170 S   0  0  0  0  0  0  0  0  0  0  0  0
  128.8800  131.6280   58.4960 C   0  0  0  0  0  0  0  0  0  0  0  0
  128.5130  131.6190   57.1890 N   0  0  0  0  0  0  0  0  0  0  0  0
  129.4770  131.5220   56.2430 C   0  0  0  0  0  0  0  0  0  0  0  0
  128.9930  131.5330   54.8050 C   0  0  0  0  0  0  0  0  0  0  0  0
  130.8300  131.4180   56.5570 C   0  0  0  0  0  0  0  0  0  0  0  0
  131.2170  131.4000   57.9010 C   0  0  0  0  0  0  0  0  0  0  0  0
  132.7050  131.2700   58.2200 C   0  0  0  0  0  0  0  0  0  0  0  0
  130.2280  131.4960   58.9070 C   0  0  0  0  0  0  0  0  0  0  0  0
  130.6090  131.4190   60.3190 C   0  0  0  0  0  0  0  0  0  0  0  0
  130.9120  131.3590   61.4350 N   0  0  0  0  0  0  0  0  0  0  0  0
  124.8680  124.9430   58.2910 C   0  0  0  0  0  0  0  0  0  0  0  0
  125.1320  123.7110   57.6990 C   0  0  0  0  0  0  0  0  0  0  0  0
  124.2225  122.7243   55.1648 H   0  0  0  0  0  0  0  0  0  0  0  0
  125.7995  122.4880   54.3378 H   0  0  0  0  0  0  0  0  0  0  0  0
  124.5790  121.1700   54.3378 H   0  0  0  0  0  0  0  0  0  0  0  0
  128.4964  124.0359   57.2255 H   0  0  0  0  0  0  0  0  0  0  0  0
  128.0265  126.2368   58.2785 H   0  0  0  0  0  0  0  0  0  0  0  0
  125.3200  127.1210   59.9990 H   0  0  0  0  0  0  0  0  0  0  0  0
  125.3089  130.3339   58.9451 H   0  0  0  0  0  0  0  0  0  0  0  0
  125.1362  129.1648   60.3368 H   0  0  0  0  0  0  0  0  0  0  0  0
  126.8863  130.1530   61.2820 H   0  0  0  0  0  0  0  0  0  0  0  0
  127.8867  129.4411   59.9250 H   0  0  0  0  0  0  0  0  0  0  0  0
  127.8934  131.5580   54.7884 H   0  0  0  0  0  0  0  0  0  0  0  0
  129.3878  132.4224   54.2920 H   0  0  0  0  0  0  0  0  0  0  0  0
  129.3469  130.6266   54.2920 H   0  0  0  0  0  0  0  0  0  0  0  0
  131.5840  131.3509   55.7588 H   0  0  0  0  0  0  0  0  0  0  0  0
  132.8464  131.2576   59.3108 H   0  0  0  0  0  0  0  0  0  0  0  0
  133.0919  130.3346   57.7895 H   0  0  0  0  0  0  0  0  0  0  0  0
  133.2483  132.1241   57.7895 H   0  0  0  0  0  0  0  0  0  0  0  0
  123.8407  125.2001   58.5884 H   0  0  0  0  0  0  0  0  0  0  0  0
  124.3094  122.9994   57.5348 H   0  0  0  0  0  0  0  0  0  0  0  0
  1  2  1  0
  2  3  1  0
  3  4  2  0
  3  5  1  0
  5  6  2  0
  6  7  1  0
  7  8  2  0
  8  9  1  0
  9 10  1  0
 10 11  2  0
 10 12  1  0
 12 13  1  0
 13 14  1  0
 14 15  1  0
 15 16  2  0
 16 17  1  0
 17 18  1  0
 17 19  2  0
 19 20  1  0
 20 21  1  0
 20 22  2  0
 22 23  1  0
 23 24  3  0
  8 25  1  0
 25 26  2  0
 26  5  1  0
 22 15  1  0
  1 27  1  0
  1 28  1  0
  1 29  1  0
  6 30  1  0
  7 31  1  0
  9 32  1  0
 12 33  1  0
 12 34  1  0
 13 35  1  0
 13 36  1  0
 18 37  1  0
 18 38  1  0
 18 39  1  0
 19 40  1  0
 21 41  1  0
 21 42  1  0
 21 43  1  0
 25 44  1  0
 26 45  1  0
M  END
>  <Binding energies>  (1) 
[-7.95]

>  <Ligand effiencies>  (1) 
[-0.29444444444444445]

>  <Interactions>  (1) 
["V-B:PRO:540:CB:9857, H-B:TYR:531:OH:9767, V-B:MET:535:CE:9807, V-B:PRO:540:N:9856, V-B:PRO:540:CA:9855, H-B:TYR:539:N:9842, V-B:MET:535:CG:9805, V-B:TYR:539:C:9839, V-B:TYR:531:CE2:9765, V-B:TYR:531:CZ:9766, V-B:LEU:363:CD1:8160, V-B:PRO:540:CD:9859, V-A:PRO:540:N:4884, V-A:ILE:538:CA:4860, V-A:TYR:539:CD1:4873, V-A:PRO:540:CA:4883, V-A:TYR:539:CZ:4877, V-A:PRO:540:CB:4885, V-A:TYR:539:CE1:4875, V-B:ASP:366:CG:8184, V-B:ASP:366:CB:8183, V-A:PRO:540:C:4881, V-A:TYR:539:C:4867, V-A:LEU:363:CD1:3188, H-A:ALA:541:N:4891, H-B:ASP:366:OD2:8186, V-B:ILE:538:CA:9832, V-B:ILE:538:CG1:9836, V-B:ILE:538:CG2:9835, H-B:ASP:366:OD1:8185, V-B:ILE:538:CB:9834, V-B:MET:535:CB:9804"]

$$$$
1p_Grossjean_2025
     RDKit          3D

 35 36  0  0  0  0  0  0  0  0999 V2000
  130.7090  118.2580   60.6330 C   0  0  0  0  0  0  0  0  0  0  0  0
  131.3390  119.4810   61.2730 C   0  0  0  0  0  0  0  0  0  0  0  0
  132.7120  119.7130   61.2050 C   0  0  0  0  0  0  0  0  0  0  0  0
  133.2410  120.8500   61.8250 C   0  0  0  0  0  0  0  0  0  0  0  0
  134.7490  121.0770   61.7500 C   0  0  0  0  0  0  0  0  0  0  0  0
  132.3710  121.7380   62.4970 C   0  0  0  0  0  0  0  0  0  0  0  0
  132.9050  122.9090   63.1940 C   0  0  0  0  0  0  0  0  0  0  0  0
  133.3290  123.8350   63.7450 N   0  0  0  0  0  0  0  0  0  0  0  0
  130.9880  121.4350   62.4960 C   0  0  0  0  0  0  0  0  0  0  0  0
  129.7580  122.4490   63.2840 S   0  0  0  0  0  0  0  0  0  0  0  0
  129.2500  123.7000   62.0690 C   0  0  0  0  0  0  0  0  0  0  0  0
  129.5280  123.2970   60.6080 C   0  0  0  0  0  0  0  0  0  0  0  0
  128.2790  122.8090   59.8580 C   0  0  0  0  0  0  0  0  0  0  0  0
  127.3200  122.3710   60.4960 O   0  0  0  0  0  0  0  0  0  0  0  0
  128.3280  122.9160   58.5110 N   0  0  0  0  0  0  0  0  0  0  0  0
  127.3420  122.5520   57.6030 C   0  0  0  0  0  0  0  0  0  0  0  0
  126.0760  123.1370   57.5780 C   0  0  0  0  0  0  0  0  0  0  0  0
  125.4110  122.5090   56.5500 C   0  0  0  0  0  0  0  0  0  0  0  0
  126.2320  121.5920   55.9870 O   0  0  0  0  0  0  0  0  0  0  0  0
  127.4530  121.6280   56.6640 N   0  0  0  0  0  0  0  0  0  0  0  0
  130.4880  120.3180   61.9100 N   0  0  0  0  0  0  0  0  0  0  0  0
  130.3564  117.5736   61.4187 H   0  0  0  0  0  0  0  0  0  0  0  0
  129.8585  118.5682   60.0082 H   0  0  0  0  0  0  0  0  0  0  0  0
  131.4554  117.7456   60.0082 H   0  0  0  0  0  0  0  0  0  0  0  0
  133.3703  119.0117   60.6712 H   0  0  0  0  0  0  0  0  0  0  0  0
  135.1615  121.1391   62.7678 H   0  0  0  0  0  0  0  0  0  0  0  0
  135.2197  120.2396   61.2141 H   0  0  0  0  0  0  0  0  0  0  0  0
  134.9523  122.0159   61.2141 H   0  0  0  0  0  0  0  0  0  0  0  0
  128.1696  123.8738   62.1812 H   0  0  0  0  0  0  0  0  0  0  0  0
  129.8450  124.6029   62.2710 H   0  0  0  0  0  0  0  0  0  0  0  0
  129.9336  124.1708   60.0770 H   0  0  0  0  0  0  0  0  0  0  0  0
  130.2383  122.4574   60.6338 H   0  0  0  0  0  0  0  0  0  0  0  0
  129.1730  123.2910   58.1070 H   0  0  0  0  0  0  0  0  0  0  0  0
  125.6922  123.9292   58.2376 H   0  0  0  0  0  0  0  0  0  0  0  0
  124.3778  122.7186   56.2361 H   0  0  0  0  0  0  0  0  0  0  0  0
  1  2  1  0
  2  3  2  0
  3  4  1  0
  4  5  1  0
  4  6  2  0
  6  7  1  0
  7  8  3  0
  6  9  1  0
  9 10  1  0
 10 11  1  0
 11 12  1  0
 12 13  1  0
 13 14  2  0
 13 15  1  0
 15 16  1  0
 16 17  1  0
 17 18  2  0
 18 19  1  0
 19 20  1  0
  9 21  2  0
 21  2  1  0
 20 16  2  0
  1 22  1  0
  1 23  1  0
  1 24  1  0
  3 25  1  0
  5 26  1  0
  5 27  1  0
  5 28  1  0
 11 29  1  0
 11 30  1  0
 12 31  1  0
 12 32  1  0
 15 33  1  0
 17 34  1  0
 18 35  1  0
M  END
>  <Binding energies>  (1) 
[-7.39]

>  <Ligand effiencies>  (1) 
[-0.3359090909090909]

>  <Interactions>  (1) 
["H-B:ALA:541:N:9863, V-B:PRO:540:CB:9857, V-B:MET:535:CE:9807, V-A:ILE:369:CG2:3236, V-B:TYR:539:CD2:9846, V-B:PRO:540:N:9856, V-A:LEU:475:CD1:4257, V-B:PRO:540:CA:9855, H-B:TYR:539:N:9842, V-B:ALA:541:CB:9864, V-B:TYR:539:C:9839, V-A:PRO:482:CG:4326, V-B:LEU:363:CD1:8160, H-A:TYR:484:OH:4347, H-A:GLY:454:N:4049, V-B:PRO:540:CD:9859, V-A:ILE:369:CD1:3238, V-A:SER:385:C:3404, V-A:GLY:454:CA:4048"]

$$$$
1q_Grossjean_2025
     RDKit          3D

 38 38  0  0  0  0  0  0  0  0999 V2000
  131.7430  131.7440   56.2260 C   0  0  0  0  0  0  0  0  0  0  0  0
  130.5700  132.5400   56.1500 O   0  0  0  0  0  0  0  0  0  0  0  0
  129.6720  132.3490   55.1520 C   0  0  0  0  0  0  0  0  0  0  0  0
  128.5540  132.8640   55.0870 O   0  0  0  0  0  0  0  0  0  0  0  0
  130.1470  131.3700   54.0570 C   0  0  0  0  0  0  0  0  0  0  0  0
  129.7660  129.9760   54.3290 N   0  0  0  0  0  0  0  0  0  0  0  0
  128.5120  129.4850   54.3200 C   0  0  0  0  0  0  0  0  0  0  0  0
  127.5200  130.1740   54.0740 O   0  0  0  0  0  0  0  0  0  0  0  0
  128.3750  127.9860   54.6230 C   0  0  0  0  0  0  0  0  0  0  0  0
  128.9910  127.5520   55.9680 C   0  0  0  0  0  0  0  0  0  0  0  0
  129.9570  126.0160   55.8650 S   0  0  0  0  0  0  0  0  0  0  0  0
  129.1960  124.7950   56.9150 C   0  0  0  0  0  0  0  0  0  0  0  0
  127.8810  124.5960   56.6440 N   0  0  0  0  0  0  0  0  0  0  0  0
  127.1940  123.6920   57.3800 C   0  0  0  0  0  0  0  0  0  0  0  0
  125.7250  123.5370   57.0290 C   0  0  0  0  0  0  0  0  0  0  0  0
  127.7830  122.9470   58.3980 C   0  0  0  0  0  0  0  0  0  0  0  0
  129.1430  123.1250   58.6700 C   0  0  0  0  0  0  0  0  0  0  0  0
  129.7710  122.2830   59.7800 C   0  0  0  0  0  0  0  0  0  0  0  0
  129.8830  124.0620   57.9130 C   0  0  0  0  0  0  0  0  0  0  0  0
  131.3200  124.2200   58.1450 C   0  0  0  0  0  0  0  0  0  0  0  0
  132.4560  124.3420   58.3310 N   0  0  0  0  0  0  0  0  0  0  0  0
  132.0000  131.5696   57.2812 H   0  0  0  0  0  0  0  0  0  0  0  0
  131.5646  130.7796   55.7278 H   0  0  0  0  0  0  0  0  0  0  0  0
  132.5733  132.2660   55.7278 H   0  0  0  0  0  0  0  0  0  0  0  0
  129.7026  131.6742   53.0979 H   0  0  0  0  0  0  0  0  0  0  0  0
  131.2459  131.4121   54.0317 H   0  0  0  0  0  0  0  0  0  0  0  0
  130.5210  129.3490   54.5660 H   0  0  0  0  0  0  0  0  0  0  0  0
  127.3044  127.7337   54.6370 H   0  0  0  0  0  0  0  0  0  0  0  0
  128.9293  127.4535   53.8361 H   0  0  0  0  0  0  0  0  0  0  0  0
  129.6529  128.3558   56.3227 H   0  0  0  0  0  0  0  0  0  0  0  0
  128.1560  127.3619   56.6584 H   0  0  0  0  0  0  0  0  0  0  0  0
  125.1318  123.4744   57.9532 H   0  0  0  0  0  0  0  0  0  0  0  0
  125.3952  124.4053   56.4397 H   0  0  0  0  0  0  0  0  0  0  0  0
  125.5837  122.6190   56.4397 H   0  0  0  0  0  0  0  0  0  0  0  0
  127.1870  122.2286   58.9800 H   0  0  0  0  0  0  0  0  0  0  0  0
  129.4713  122.6848   60.7592 H   0  0  0  0  0  0  0  0  0  0  0  0
  129.4269  121.2421   59.6899 H   0  0  0  0  0  0  0  0  0  0  0  0
  130.8668  122.3160   59.6899 H   0  0  0  0  0  0  0  0  0  0  0  0
  1  2  1  0
  2  3  1  0
  3  4  2  0
  3  5  1  0
  5  6  1  0
  6  7  1  0
  7  8  2  0
  7  9  1  0
  9 10  1  0
 10 11  1  0
 11 12  1  0
 12 13  2  0
 13 14  1  0
 14 15  1  0
 14 16  2  0
 16 17  1  0
 17 18  1  0
 17 19  2  0
 19 20  1  0
 20 21  3  0
 19 12  1  0
  1 22  1  0
  1 23  1  0
  1 24  1  0
  5 25  1  0
  5 26  1  0
  6 27  1  0
  9 28  1  0
  9 29  1  0
 10 30  1  0
 10 31  1  0
 15 32  1  0
 15 33  1  0
 15 34  1  0
 16 35  1  0
 18 36  1  0
 18 37  1  0
 18 38  1  0
M  END
>  <Binding energies>  (1) 
[-6.79]

>  <Ligand effiencies>  (1) 
[-0.30863636363636365]

>  <Interactions>  (1) 
["H-B:TYR:531:OH:9767, V-B:MET:535:CE:9807, V-B:TYR:539:CD2:9846, V-B:PRO:540:CA:9855, V-B:TYR:539:CE2:9848, V-B:TYR:539:C:9839, V-B:TYR:531:CE2:9765, V-B:TYR:531:CZ:9766, V-B:LEU:363:CD1:8160, V-A:ILE:538:CA:4860, V-A:ILE:538:CG2:4863, H-B:TYR:539:OH:9850, H-A:TYR:531:OH:4795, H-A:TYR:539:N:4870, V-A:TYR:531:CZ:4794, V-A:ILE:538:CB:4862, V-B:TYR:531:CE1:9764, H-B:LYS:534:NZ:9795, V-A:LEU:363:CD1:3188, V-B:TYR:539:CZ:9849, H-A:TYR:539:OH:4878, V-A:ILE:538:C:4858"]

$$$$
2a_Ghoteimi_2023
     RDKit          3D

 85 90  0  0  0  0  0  0  0  0999 V2000
  125.2680  121.7640   56.3660 C   0  0  0  0  0  0  0  0  0  0  0  0
  125.3490  123.2140   55.8780 C   0  0  0  0  0  0  0  0  0  0  0  0
  125.5450  124.0760   56.9910 O   0  0  0  0  0  0  0  0  0  0  0  0
  125.5610  123.5920   58.2600 C   0  0  0  0  0  0  0  0  0  0  0  0
  124.5530  123.5040   58.9670 O   0  0  0  0  0  0  0  0  0  0  0  0
  126.9280  123.1670   58.7150 C   0  0  0  0  0  0  0  0  0  0  0  0
  127.2830  123.1370   60.0710 C   0  0  0  0  0  0  0  0  0  0  0  0
  128.5580  122.7370   60.4590 C   0  0  0  0  0  0  0  0  0  0  0  0
  129.5030  122.3550   59.5040 C   0  0  0  0  0  0  0  0  0  0  0  0
  130.7610  121.9740   60.0080 N   0  0  0  0  0  0  0  0  0  0  0  0
  131.0730  121.2940   61.1330 C   0  0  0  0  0  0  0  0  0  0  0  0
  130.2630  120.9150   61.9790 O   0  0  0  0  0  0  0  0  0  0  0  0
  132.5710  121.0370   61.3450 C   0  0  0  0  0  0  0  0  0  0  0  0
  133.5920  122.5440   61.4130 S   0  0  0  0  0  0  0  0  0  0  0  0
  132.4440  123.9010   61.4500 C   0  0  0  0  0  0  0  0  0  0  0  0
  132.0850  124.2810   62.6980 N   0  0  0  0  0  0  0  0  0  0  0  0
  131.2050  125.3020   62.8570 C   0  0  0  0  0  0  0  0  0  0  0  0
  130.8470  125.6600   64.2640 C   0  0  0  0  0  0  0  0  0  0  0  0
  131.8340  125.8320   65.2420 C   0  0  0  0  0  0  0  0  0  0  0  0
  131.4950  126.1540   66.5530 C   0  0  0  0  0  0  0  0  0  0  0  0
  130.1560  126.3250   66.9340 C   0  0  0  0  0  0  0  0  0  0  0  0
  129.8280  126.6190   68.2620 N   0  0  0  0  0  0  0  0  0  0  0  0
  128.7280  125.9210   68.9560 C   0  0  0  0  0  0  0  0  0  0  0  0
  128.7430  126.1020   70.4890 C   0  0  0  0  0  0  0  0  0  0  0  0
  128.7540  127.4830   70.8140 O   0  0  0  0  0  0  0  0  0  0  0  0
  129.9030  128.1290   70.2910 C   0  0  0  0  0  0  0  0  0  0  0  0
  129.9250  128.0100   68.7520 C   0  0  0  0  0  0  0  0  0  0  0  0
  129.1700  126.1390   65.9520 C   0  0  0  0  0  0  0  0  0  0  0  0
  129.5100  125.8200   64.6410 C   0  0  0  0  0  0  0  0  0  0  0  0
  130.6740  125.9760   61.7550 C   0  0  0  0  0  0  0  0  0  0  0  0
  131.0310  125.6000   60.4530 C   0  0  0  0  0  0  0  0  0  0  0  0
  130.4210  126.3600   59.3200 C   0  0  0  0  0  0  0  0  0  0  0  0
  130.5490  127.7500   59.2550 C   0  0  0  0  0  0  0  0  0  0  0  0
  129.9680  128.4680   58.2150 C   0  0  0  0  0  0  0  0  0  0  0  0
  129.2420  127.8180   57.2050 C   0  0  0  0  0  0  0  0  0  0  0  0
  128.6350  128.5230   56.1620 N   0  0  0  0  0  0  0  0  0  0  0  0
  129.4310  128.8790   54.9700 C   0  0  0  0  0  0  0  0  0  0  0  0
  128.5650  129.2920   53.7600 C   0  0  0  0  0  0  0  0  0  0  0  0
  127.6980  130.3540   54.1230 O   0  0  0  0  0  0  0  0  0  0  0  0
  126.8250  129.9830   55.1790 C   0  0  0  0  0  0  0  0  0  0  0  0
  127.6430  129.5840   56.4250 C   0  0  0  0  0  0  0  0  0  0  0  0
  129.1080  126.4250   57.2840 C   0  0  0  0  0  0  0  0  0  0  0  0
  129.6880  125.7060   58.3250 C   0  0  0  0  0  0  0  0  0  0  0  0
  131.9490  124.5340   60.2880 C   0  0  0  0  0  0  0  0  0  0  0  0
  132.4030  124.1330   58.9530 C   0  0  0  0  0  0  0  0  0  0  0  0
  132.7600  123.8170   57.8980 N   0  0  0  0  0  0  0  0  0  0  0  0
  129.1580  122.3910   58.1450 C   0  0  0  0  0  0  0  0  0  0  0  0
  127.8810  122.7900   57.7580 C   0  0  0  0  0  0  0  0  0  0  0  0
  125.2670  121.7468   57.4659 H   0  0  0  0  0  0  0  0  0  0  0  0
  124.3427  121.3022   55.9913 H   0  0  0  0  0  0  0  0  0  0  0  0
  126.1361  121.2020   55.9913 H   0  0  0  0  0  0  0  0  0  0  0  0
  126.1918  123.3195   55.1791 H   0  0  0  0  0  0  0  0  0  0  0  0
  124.4133  123.4822   55.3656 H   0  0  0  0  0  0  0  0  0  0  0  0
  126.5478  123.4320   60.8342 H   0  0  0  0  0  0  0  0  0  0  0  0
  128.8238  122.7215   61.5263 H   0  0  0  0  0  0  0  0  0  0  0  0
  131.5400  122.2810   59.4450 H   0  0  0  0  0  0  0  0  0  0  0  0
  132.6959  120.4940   62.2934 H   0  0  0  0  0  0  0  0  0  0  0  0
  132.9171  120.4630   60.4728 H   0  0  0  0  0  0  0  0  0  0  0  0
  132.8930  125.7109   64.9703 H   0  0  0  0  0  0  0  0  0  0  0  0
  132.2905  126.2764   67.3028 H   0  0  0  0  0  0  0  0  0  0  0  0
  127.7735  126.3088   68.5705 H   0  0  0  0  0  0  0  0  0  0  0  0
  128.8565  124.8464   68.7594 H   0  0  0  0  0  0  0  0  0  0  0  0
  127.8460  125.6334   70.9200 H   0  0  0  0  0  0  0  0  0  0  0  0
  129.6459  125.6269   70.9001 H   0  0  0  0  0  0  0  0  0  0  0  0
  129.8828  129.1920   70.5733 H   0  0  0  0  0  0  0  0  0  0  0  0
  130.8037  127.6493   70.7018 H   0  0  0  0  0  0  0  0  0  0  0  0
  129.0761  128.5807   68.3474 H   0  0  0  0  0  0  0  0  0  0  0  0
  130.8948  128.4032   68.4131 H   0  0  0  0  0  0  0  0  0  0  0  0
  128.1097  126.2474   66.2239 H   0  0  0  0  0  0  0  0  0  0  0  0
  128.7159  125.6919   63.8907 H   0  0  0  0  0  0  0  0  0  0  0  0
  129.9708  126.8076   61.9101 H   0  0  0  0  0  0  0  0  0  0  0  0
  131.1149  128.2817   60.0341 H   0  0  0  0  0  0  0  0  0  0  0  0
  130.0792  129.5619   58.1837 H   0  0  0  0  0  0  0  0  0  0  0  0
  130.0921  129.7190   55.2295 H   0  0  0  0  0  0  0  0  0  0  0  0
  129.9968  127.9827   54.6757 H   0  0  0  0  0  0  0  0  0  0  0  0
  129.2194  129.6205   52.9391 H   0  0  0  0  0  0  0  0  0  0  0  0
  127.9635  128.4300   53.4359 H   0  0  0  0  0  0  0  0  0  0  0  0
  126.1730  130.8332   55.4283 H   0  0  0  0  0  0  0  0  0  0  0  0
  126.2146  129.1259   54.8584 H   0  0  0  0  0  0  0  0  0  0  0  0
  128.1743  130.4743   56.7927 H   0  0  0  0  0  0  0  0  0  0  0  0
  126.9328  129.1872   57.1654 H   0  0  0  0  0  0  0  0  0  0  0  0
  128.5354  125.8916   56.5110 H   0  0  0  0  0  0  0  0  0  0  0  0
  129.5687  124.6132   58.3654 H   0  0  0  0  0  0  0  0  0  0  0  0
  129.8976  122.1035   57.3832 H   0  0  0  0  0  0  0  0  0  0  0  0
  127.6172  122.8096   56.6903 H   0  0  0  0  0  0  0  0  0  0  0  0
  1  2  1  0
  2  3  1  0
  3  4  1  0
  4  5  2  0
  4  6  1  0
  6  7  2  0
  7  8  1  0
  8  9  2  0
  9 10  1  0
 10 11  1  0
 11 12  2  0
 11 13  1  0
 13 14  1  0
 14 15  1  0
 15 16  2  0
 16 17  1  0
 17 18  1  0
 18 19  2  0
 19 20  1  0
 20 21  2  0
 21 22  1  0
 22 23  1  0
 23 24  1  0
 24 25  1  0
 25 26  1  0
 26 27  1  0
 21 28  1  0
 28 29  2  0
 17 30  2  0
 30 31  1  0
 31 32  1  0
 32 33  2  0
 33 34  1  0
 34 35  2  0
 35 36  1  0
 36 37  1  0
 37 38  1  0
 38 39  1  0
 39 40  1  0
 40 41  1  0
 35 42  1  0
 42 43  2  0
 31 44  2  0
 44 45  1  0
 45 46  3  0
  9 47  1  0
 47 48  2  0
 48  6  1  0
 44 15  1  0
 29 18  1  0
 43 32  1  0
 27 22  1  0
 41 36  1  0
  1 49  1  0
  1 50  1  0
  1 51  1  0
  2 52  1  0
  2 53  1  0
  7 54  1  0
  8 55  1  0
 10 56  1  0
 13 57  1  0
 13 58  1  0
 19 59  1  0
 20 60  1  0
 23 61  1  0
 23 62  1  0
 24 63  1  0
 24 64  1  0
 26 65  1  0
 26 66  1  0
 27 67  1  0
 27 68  1  0
 28 69  1  0
 29 70  1  0
 30 71  1  0
 33 72  1  0
 34 73  1  0
 37 74  1  0
 37 75  1  0
 38 76  1  0
 38 77  1  0
 40 78  1  0
 40 79  1  0
 41 80  1  0
 41 81  1  0
 42 82  1  0
 43 83  1  0
 47 84  1  0
 48 85  1  0
M  END
>  <Binding energies>  (1) 
[-10.34]

>  <Ligand effiencies>  (1) 
[-0.2110204081632653]

>  <Interactions>  (1) 
["V-B:PRO:540:CB:9857, H-B:TYR:531:OH:9767, V-B:MET:535:CE:9807, V-B:TYR:539:CD2:9846, V-B:PRO:540:N:9856, V-A:LEU:475:CD1:4257, V-B:PRO:540:CA:9855, V-B:TYR:539:CE2:9848, V-B:MET:535:CG:9805, V-B:TYR:539:C:9839, V-B:TYR:531:CE2:9765, V-B:TYR:531:CZ:9766, V-B:LEU:363:CD1:8160, V-A:ASP:366:CG:3212, V-B:PRO:540:CD:9859, V-A:ASP:366:CB:3211, H-B:TYR:539:OH:9850, V-A:TYR:539:CZ:4877, V-A:TYR:539:CE1:4875, V-B:TYR:531:CE1:9764, H-B:LYS:534:NZ:9795, V-B:TYR:539:CZ:9849, H-A:TYR:539:OH:4878, V-A:GLU:543:C:4902, V-B:TYR:539:CG:9844, V-A:HIS:456:CE1:4069, V-B:GLU:543:CB:9878, V-B:GLU:543:CG:9879, V-B:GLU:543:CD:9880, V-A:ARG:545:CZ:4926, V-A:GLU:543:CB:4906, V-B:LYS:534:CE:9794, V-B:ILE:538:CG2:9835, V-B:PRO:540:CG:9858, V-B:GLU:543:C:9874"]

$$$$
2a_Grossjean_2025
     RDKit          3D

 45 46  0  0  0  0  0  0  0  0999 V2000
  125.6000  123.6620   61.1060 C   0  0  0  0  0  0  0  0  0  0  0  0
  127.0980  123.5420   61.4040 C   0  0  0  0  0  0  0  0  0  0  0  0
  127.6140  122.3830   60.7600 O   0  0  0  0  0  0  0  0  0  0  0  0
  128.7900  122.4240   60.0820 C   0  0  0  0  0  0  0  0  0  0  0  0
  129.7610  121.7140   60.3590 O   0  0  0  0  0  0  0  0  0  0  0  0
  128.7830  123.4060   58.9450 C   0  0  0  0  0  0  0  0  0  0  0  0
  129.8480  124.2920   58.7230 C   0  0  0  0  0  0  0  0  0  0  0  0
  129.8090  125.1910   57.6610 C   0  0  0  0  0  0  0  0  0  0  0  0
  128.7070  125.2290   56.8060 C   0  0  0  0  0  0  0  0  0  0  0  0
  128.7690  126.1860   55.7760 N   0  0  0  0  0  0  0  0  0  0  0  0
  129.8350  126.6620   55.0970 C   0  0  0  0  0  0  0  0  0  0  0  0
  131.0080  126.3400   55.2890 O   0  0  0  0  0  0  0  0  0  0  0  0
  129.5170  127.6900   54.0050 C   0  0  0  0  0  0  0  0  0  0  0  0
  128.2980  128.9420   54.5260 S   0  0  0  0  0  0  0  0  0  0  0  0
  129.0590  130.0820   55.6760 C   0  0  0  0  0  0  0  0  0  0  0  0
  130.1860  130.6970   55.2370 N   0  0  0  0  0  0  0  0  0  0  0  0
  130.8210  131.5630   56.0600 C   0  0  0  0  0  0  0  0  0  0  0  0
  132.0890  132.1890   55.5090 C   0  0  0  0  0  0  0  0  0  0  0  0
  130.3600  131.8580   57.3390 C   0  0  0  0  0  0  0  0  0  0  0  0
  129.1910  131.2410   57.8110 C   0  0  0  0  0  0  0  0  0  0  0  0
  128.6940  131.5790   59.2290 C   0  0  0  0  0  0  0  0  0  0  0  0
  128.6800  130.4800   59.9840 F   0  0  0  0  0  0  0  0  0  0  0  0
  129.5000  132.4810   59.7920 F   0  0  0  0  0  0  0  0  0  0  0  0
  127.4590  132.0860   59.2350 F   0  0  0  0  0  0  0  0  0  0  0  0
  128.5180  130.3280   56.9600 C   0  0  0  0  0  0  0  0  0  0  0  0
  127.2940  129.6520   57.4030 C   0  0  0  0  0  0  0  0  0  0  0  0
  126.3280  129.1190   57.7520 N   0  0  0  0  0  0  0  0  0  0  0  0
  127.6420  124.3420   57.0160 C   0  0  0  0  0  0  0  0  0  0  0  0
  127.6840  123.4400   58.0770 C   0  0  0  0  0  0  0  0  0  0  0  0
  125.0404  123.7068   62.0520 H   0  0  0  0  0  0  0  0  0  0  0  0
  125.4137  124.5779   60.5260 H   0  0  0  0  0  0  0  0  0  0  0  0
  125.2703  122.7874   60.5260 H   0  0  0  0  0  0  0  0  0  0  0  0
  127.6201  124.4343   61.0282 H   0  0  0  0  0  0  0  0  0  0  0  0
  127.2523  123.4597   62.4900 H   0  0  0  0  0  0  0  0  0  0  0  0
  130.7202  124.2761   59.3931 H   0  0  0  0  0  0  0  0  0  0  0  0
  130.6531  125.8765   57.4946 H   0  0  0  0  0  0  0  0  0  0  0  0
  127.8690  126.5300   55.4790 H   0  0  0  0  0  0  0  0  0  0  0  0
  130.4490  128.2043   53.7276 H   0  0  0  0  0  0  0  0  0  0  0  0
  129.0787  127.1411   53.1585 H   0  0  0  0  0  0  0  0  0  0  0  0
  132.7330  132.5069   56.3422 H   0  0  0  0  0  0  0  0  0  0  0  0
  132.6241  131.4516   54.8927 H   0  0  0  0  0  0  0  0  0  0  0  0
  131.8289  133.0622   54.8927 H   0  0  0  0  0  0  0  0  0  0  0  0
  130.9073  132.5691   57.9753 H   0  0  0  0  0  0  0  0  0  0  0  0
  126.7724  124.3581   56.3425 H   0  0  0  0  0  0  0  0  0  0  0  0
  126.8447  122.7467   58.2349 H   0  0  0  0  0  0  0  0  0  0  0  0
  1  2  1  0
  2  3  1  0
  3  4  1  0
  4  5  2  0
  4  6  1  0
  6  7  2  0
  7  8  1  0
  8  9  2  0
  9 10  1  0
 10 11  1  0
 11 12  2  0
 11 13  1  0
 13 14  1  0
 14 15  1  0
 15 16  2  0
 16 17  1  0
 17 18  1  0
 17 19  2  0
 19 20  1  0
 20 21  1  0
 21 22  1  0
 21 23  1  0
 21 24  1  0
 20 25  2  0
 25 26  1  0
 26 27  3  0
  9 28  1  0
 28 29  2  0
 29  6  1  0
 25 15  1  0
  1 30  1  0
  1 31  1  0
  1 32  1  0
  2 33  1  0
  2 34  1  0
  7 35  1  0
  8 36  1  0
 10 37  1  0
 13 38  1  0
 13 39  1  0
 18 40  1  0
 18 41  1  0
 18 42  1  0
 19 43  1  0
 28 44  1  0
 29 45  1  0
M  END
>  <Binding energies>  (1) 
[-6.95]

>  <Ligand effiencies>  (1) 
[-0.23166666666666666]

>  <Interactions>  (1) 
["H-B:ALA:541:N:9863, V-B:PRO:540:CB:9857, H-B:TYR:531:OH:9767, V-B:MET:535:CE:9807, V-B:PRO:540:CA:9855, V-A:PRO:540:N:4884, V-A:ILE:538:CG2:4863, H-B:TYR:539:OH:9850, V-A:TYR:539:CD1:4873, V-A:PRO:540:CA:4883, H-A:TYR:531:OH:4795, V-A:TYR:539:CE1:4875, V-A:ILE:538:CB:4862, V-A:PRO:540:CD:4887, V-A:PRO:540:C:4881, V-A:TYR:539:C:4867, V-A:LEU:363:CD1:3188, V-B:GLU:543:CD:9880, H-B:MET:535:SD:9806, V-A:TYR:531:CE2:4793, V-A:MET:535:CE:4835"]

$$$$
2aa_Ghoteimi_2023
     RDKit          3D

 85 90  0  0  0  0  0  0  0  0999 V2000
  132.1670  131.7520   56.9020 C   0  0  0  0  0  0  0  0  0  0  0  0
  131.5790  132.1100   55.5340 C   0  0  0  0  0  0  0  0  0  0  0  0
  130.3430  132.7890   55.7160 O   0  0  0  0  0  0  0  0  0  0  0  0
  129.1580  132.1520   55.5300 C   0  0  0  0  0  0  0  0  0  0  0  0
  128.5240  132.1900   54.4700 O   0  0  0  0  0  0  0  0  0  0  0  0
  128.7010  131.3840   56.7370 C   0  0  0  0  0  0  0  0  0  0  0  0
  127.9370  130.2130   56.6240 C   0  0  0  0  0  0  0  0  0  0  0  0
  127.5330  129.5210   57.7620 C   0  0  0  0  0  0  0  0  0  0  0  0
  127.8740  129.9880   59.0330 C   0  0  0  0  0  0  0  0  0  0  0  0
  127.4160  129.2090   60.1130 N   0  0  0  0  0  0  0  0  0  0  0  0
  126.6170  128.1200   60.1170 C   0  0  0  0  0  0  0  0  0  0  0  0
  126.1500  127.5800   59.1120 O   0  0  0  0  0  0  0  0  0  0  0  0
  126.3240  127.5480   61.5100 C   0  0  0  0  0  0  0  0  0  0  0  0
  127.2130  128.1340   62.4680 O   0  0  0  0  0  0  0  0  0  0  0  0
  127.9140  127.3270   63.3530 C   0  0  0  0  0  0  0  0  0  0  0  0
  128.4560  126.1720   62.8740 N   0  0  0  0  0  0  0  0  0  0  0  0
  129.1520  125.3620   63.7110 C   0  0  0  0  0  0  0  0  0  0  0  0
  129.7140  124.1090   63.1160 C   0  0  0  0  0  0  0  0  0  0  0  0
  129.0210  123.4200   62.1160 C   0  0  0  0  0  0  0  0  0  0  0  0
  129.5420  122.2580   61.5540 C   0  0  0  0  0  0  0  0  0  0  0  0
  130.7840  121.7480   61.9630 C   0  0  0  0  0  0  0  0  0  0  0  0
  131.3170  120.5740   61.4190 N   0  0  0  0  0  0  0  0  0  0  0  0
  132.7720  120.3160   61.4190 C   0  0  0  0  0  0  0  0  0  0  0  0
  133.2010  119.1700   60.4790 C   0  0  0  0  0  0  0  0  0  0  0  0
  132.4770  117.9910   60.7870 O   0  0  0  0  0  0  0  0  0  0  0  0
  131.0800  118.1830   60.6270 C   0  0  0  0  0  0  0  0  0  0  0  0
  130.5870  119.2990   61.5730 C   0  0  0  0  0  0  0  0  0  0  0  0
  131.4650  122.4300   62.9820 C   0  0  0  0  0  0  0  0  0  0  0  0
  130.9410  123.5910   63.5450 C   0  0  0  0  0  0  0  0  0  0  0  0
  129.3080  125.6830   65.0630 C   0  0  0  0  0  0  0  0  0  0  0  0
  128.7510  126.8580   65.5830 C   0  0  0  0  0  0  0  0  0  0  0  0
  128.9300  127.1350   67.0410 C   0  0  0  0  0  0  0  0  0  0  0  0
  128.8890  126.0900   67.9670 C   0  0  0  0  0  0  0  0  0  0  0  0
  129.0350  126.3430   69.3280 C   0  0  0  0  0  0  0  0  0  0  0  0
  129.2130  127.6520   69.8040 C   0  0  0  0  0  0  0  0  0  0  0  0
  129.3650  127.9290   71.1650 N   0  0  0  0  0  0  0  0  0  0  0  0
  129.1670  126.8860   72.1890 C   0  0  0  0  0  0  0  0  0  0  0  0
  129.7170  127.2750   73.5780 C   0  0  0  0  0  0  0  0  0  0  0  0
  129.1490  128.5080   73.9960 O   0  0  0  0  0  0  0  0  0  0  0  0
  129.4560  129.5570   73.0910 C   0  0  0  0  0  0  0  0  0  0  0  0
  128.8990  129.2290   71.6910 C   0  0  0  0  0  0  0  0  0  0  0  0
  129.2600  128.6930   68.8660 C   0  0  0  0  0  0  0  0  0  0  0  0
  129.1140  128.4400   67.5050 C   0  0  0  0  0  0  0  0  0  0  0  0
  128.0480  127.7100   64.6990 C   0  0  0  0  0  0  0  0  0  0  0  0
  127.4750  128.9830   65.1430 C   0  0  0  0  0  0  0  0  0  0  0  0
  127.0240  129.9880   65.4950 N   0  0  0  0  0  0  0  0  0  0  0  0
  128.6440  131.1530   59.1530 C   0  0  0  0  0  0  0  0  0  0  0  0
  129.0510  131.8420   58.0140 C   0  0  0  0  0  0  0  0  0  0  0  0
  131.5165  132.1481   57.6957 H   0  0  0  0  0  0  0  0  0  0  0  0
  132.2364  130.6583   56.9964 H   0  0  0  0  0  0  0  0  0  0  0  0
  133.1705  132.1925   56.9964 H   0  0  0  0  0  0  0  0  0  0  0  0
  132.2799  132.7620   54.9922 H   0  0  0  0  0  0  0  0  0  0  0  0
  131.4121  131.1909   54.9531 H   0  0  0  0  0  0  0  0  0  0  0  0
  127.6551  129.8389   55.6287 H   0  0  0  0  0  0  0  0  0  0  0  0
  126.9409  128.5997   57.6594 H   0  0  0  0  0  0  0  0  0  0  0  0
  127.7780  129.4960   61.0110 H   0  0  0  0  0  0  0  0  0  0  0  0
  125.2845  127.7763   61.7880 H   0  0  0  0  0  0  0  0  0  0  0  0
  126.4709  126.4580   61.4950 H   0  0  0  0  0  0  0  0  0  0  0  0
  128.0498  123.8018   61.7683 H   0  0  0  0  0  0  0  0  0  0  0  0
  128.9706  121.7304   60.7761 H   0  0  0  0  0  0  0  0  0  0  0  0
  133.2872  121.2351   61.1030 H   0  0  0  0  0  0  0  0  0  0  0  0
  133.0435  120.0113   62.4405 H   0  0  0  0  0  0  0  0  0  0  0  0
  132.9993  119.4592   59.4370 H   0  0  0  0  0  0  0  0  0  0  0  0
  134.2758  118.9779   60.6125 H   0  0  0  0  0  0  0  0  0  0  0  0
  130.8687  118.4686   59.5859 H   0  0  0  0  0  0  0  0  0  0  0  0
  130.5572  117.2465   60.8712 H   0  0  0  0  0  0  0  0  0  0  0  0
  129.5217  119.4819   61.3686 H   0  0  0  0  0  0  0  0  0  0  0  0
  130.7634  118.9499   62.6011 H   0  0  0  0  0  0  0  0  0  0  0  0
  132.4289  122.0414   63.3424 H   0  0  0  0  0  0  0  0  0  0  0  0
  131.4999  124.1084   64.3386 H   0  0  0  0  0  0  0  0  0  0  0  0
  129.8723  125.0077   65.7229 H   0  0  0  0  0  0  0  0  0  0  0  0
  128.7400  125.0577   67.6175 H   0  0  0  0  0  0  0  0  0  0  0  0
  129.0106  125.5055   70.0408 H   0  0  0  0  0  0  0  0  0  0  0  0
  128.0885  126.6911   72.2836 H   0  0  0  0  0  0  0  0  0  0  0  0
  129.7239  125.9971   71.8576 H   0  0  0  0  0  0  0  0  0  0  0  0
  129.4599  126.4903   74.3047 H   0  0  0  0  0  0  0  0  0  0  0  0
  130.8100  127.3825   73.5171 H   0  0  0  0  0  0  0  0  0  0  0  0
  129.0045  130.4928   73.4521 H   0  0  0  0  0  0  0  0  0  0  0  0
  130.5484  129.6689   73.0267 H   0  0  0  0  0  0  0  0  0  0  0  0
  127.8007  129.2087   71.7484 H   0  0  0  0  0  0  0  0  0  0  0  0
  129.2645  130.0073   71.0050 H   0  0  0  0  0  0  0  0  0  0  0  0
  129.4147  129.7260   69.2110 H   0  0  0  0  0  0  0  0  0  0  0  0
  129.1437  129.2744   66.7888 H   0  0  0  0  0  0  0  0  0  0  0  0
  128.9272  131.5236   60.1492 H   0  0  0  0  0  0  0  0  0  0  0  0
  129.6540  132.7561   58.1177 H   0  0  0  0  0  0  0  0  0  0  0  0
  1  2  1  0
  2  3  1  0
  3  4  1  0
  4  5  2  0
  4  6  1  0
  6  7  2  0
  7  8  1  0
  8  9  2  0
  9 10  1  0
 10 11  1  0
 11 12  2  0
 11 13  1  0
 13 14  1  0
 14 15  1  0
 15 16  2  0
 16 17  1  0
 17 18  1  0
 18 19  2  0
 19 20  1  0
 20 21  2  0
 21 22  1  0
 22 23  1  0
 23 24  1  0
 24 25  1  0
 25 26  1  0
 26 27  1  0
 21 28  1  0
 28 29  2  0
 17 30  2  0
 30 31  1  0
 31 32  1  0
 32 33  2  0
 33 34  1  0
 34 35  2  0
 35 36  1  0
 36 37  1  0
 37 38  1  0
 38 39  1  0
 39 40  1  0
 40 41  1  0
 35 42  1  0
 42 43  2  0
 31 44  2  0
 44 45  1  0
 45 46  3  0
  9 47  1  0
 47 48  2  0
 48  6  1  0
 44 15  1  0
 29 18  1  0
 43 32  1  0
 27 22  1  0
 41 36  1  0
  1 49  1  0
  1 50  1  0
  1 51  1  0
  2 52  1  0
  2 53  1  0
  7 54  1  0
  8 55  1  0
 10 56  1  0
 13 57  1  0
 13 58  1  0
 19 59  1  0
 20 60  1  0
 23 61  1  0
 23 62  1  0
 24 63  1  0
 24 64  1  0
 26 65  1  0
 26 66  1  0
 27 67  1  0
 27 68  1  0
 28 69  1  0
 29 70  1  0
 30 71  1  0
 33 72  1  0
 34 73  1  0
 37 74  1  0
 37 75  1  0
 38 76  1  0
 38 77  1  0
 40 78  1  0
 40 79  1  0
 41 80  1  0
 41 81  1  0
 42 82  1  0
 43 83  1  0
 47 84  1  0
 48 85  1  0
M  END
>  <Binding energies>  (1) 
[-10.36]

>  <Ligand effiencies>  (1) 
[-0.2114285714285714]

>  <Interactions>  (1) 
["V-A:ILE:369:CG2:3236, V-B:TYR:539:CD2:9846, V-A:LEU:475:CD1:4257, H-A:SER:385:OG:3409, H-A:HIS:383:NE2:3393, V-B:ALA:541:CB:9864, V-A:PRO:482:CG:4326, V-A:PRO:540:N:4884, V-A:ILE:538:CA:4860, V-A:TYR:539:CG:4872, V-A:ILE:538:CG2:4863, V-A:TYR:539:CD1:4873, V-A:PRO:540:CA:4883, H-A:TYR:539:N:4870, V-A:TYR:539:CZ:4877, V-A:PRO:540:CB:4885, V-A:TYR:539:CE1:4875, V-A:ILE:538:CB:4862, V-B:ASP:366:CG:8184, H-B:LYS:534:NZ:9795, V-A:PRO:540:CD:4887, V-A:TYR:539:C:4867, V-A:LEU:363:CD1:3188, V-A:GLU:543:CG:4907, V-A:GLU:543:CD:4908, H-B:TYR:484:OH:9319, V-A:GLU:543:C:4902, V-B:HIS:456:CE1:9041, V-A:HIS:456:CE1:4069, V-B:GLU:543:CB:9878, V-B:GLU:543:CG:9879, V-B:GLU:543:CD:9880, V-A:GLU:543:CA:4904, V-A:GLU:543:CB:4906, V-B:HIS:456:CD2:9039, H-A:LYS:547:NZ:4951, V-A:LYS:547:CE:4950"]

$$$$
2b_Ghoteimi_2023
     RDKit          3D

 72 77  0  0  0  0  0  0  0  0999 V2000
  127.5860  132.2040   65.6910 N   0  0  0  0  0  0  0  0  0  0  0  0
  127.5030  131.3230   64.9450 C   0  0  0  0  0  0  0  0  0  0  0  0
  127.3990  130.2030   64.0050 C   0  0  0  0  0  0  0  0  0  0  0  0
  127.6270  128.8730   64.4410 C   0  0  0  0  0  0  0  0  0  0  0  0
  127.9780  128.5090   65.8460 C   0  0  0  0  0  0  0  0  0  0  0  0
  127.9380  129.4730   66.8550 C   0  0  0  0  0  0  0  0  0  0  0  0
  128.2650  129.1390   68.1660 C   0  0  0  0  0  0  0  0  0  0  0  0
  128.6580  127.8340   68.5010 C   0  0  0  0  0  0  0  0  0  0  0  0
  128.9780  127.4710   69.8100 N   0  0  0  0  0  0  0  0  0  0  0  0
  129.1550  128.5290   70.8260 C   0  0  0  0  0  0  0  0  0  0  0  0
  129.8650  128.0350   72.1050 C   0  0  0  0  0  0  0  0  0  0  0  0
  129.1780  126.9170   72.6450 O   0  0  0  0  0  0  0  0  0  0  0  0
  129.1280  125.8370   71.7250 C   0  0  0  0  0  0  0  0  0  0  0  0
  128.3910  126.2740   70.4430 C   0  0  0  0  0  0  0  0  0  0  0  0
  128.6980  126.8730   67.4810 C   0  0  0  0  0  0  0  0  0  0  0  0
  128.3670  127.2060   66.1700 C   0  0  0  0  0  0  0  0  0  0  0  0
  127.5110  127.8360   63.5080 C   0  0  0  0  0  0  0  0  0  0  0  0
  127.1480  128.1100   62.1860 C   0  0  0  0  0  0  0  0  0  0  0  0
  126.9820  127.0360   61.1580 C   0  0  0  0  0  0  0  0  0  0  0  0
  126.7490  127.3610   59.8170 C   0  0  0  0  0  0  0  0  0  0  0  0
  126.6100  126.3670   58.8530 C   0  0  0  0  0  0  0  0  0  0  0  0
  126.6840  125.0080   59.1950 C   0  0  0  0  0  0  0  0  0  0  0  0
  126.5760  123.9980   58.2320 N   0  0  0  0  0  0  0  0  0  0  0  0
  127.4780  122.8290   58.2870 C   0  0  0  0  0  0  0  0  0  0  0  0
  127.5150  122.0150   56.9760 C   0  0  0  0  0  0  0  0  0  0  0  0
  126.2000  121.6270   56.6080 O   0  0  0  0  0  0  0  0  0  0  0  0
  125.3670  122.7540   56.3920 C   0  0  0  0  0  0  0  0  0  0  0  0
  125.2670  123.5940   57.6840 C   0  0  0  0  0  0  0  0  0  0  0  0
  126.9250  124.6870   60.5390 C   0  0  0  0  0  0  0  0  0  0  0  0
  127.0670  125.6820   61.5020 C   0  0  0  0  0  0  0  0  0  0  0  0
  126.9300  129.3840   61.7710 N   0  0  0  0  0  0  0  0  0  0  0  0
  127.0680  130.4070   62.6470 C   0  0  0  0  0  0  0  0  0  0  0  0
  126.7500  132.0050   61.9320 S   0  0  0  0  0  0  0  0  0  0  0  0
  128.2500  132.5180   61.0420 C   0  0  0  0  0  0  0  0  0  0  0  0
  128.2860  131.9730   59.6140 C   0  0  0  0  0  0  0  0  0  0  0  0
  127.4730  131.1100   59.2760 O   0  0  0  0  0  0  0  0  0  0  0  0
  129.2410  132.4970   58.8150 N   0  0  0  0  0  0  0  0  0  0  0  0
  129.4860  132.1910   57.4840 C   0  0  0  0  0  0  0  0  0  0  0  0
  128.8830  131.1210   56.8260 C   0  0  0  0  0  0  0  0  0  0  0  0
  129.3820  131.1610   55.5450 C   0  0  0  0  0  0  0  0  0  0  0  0
  130.2410  132.2030   55.4370 O   0  0  0  0  0  0  0  0  0  0  0  0
  130.2970  132.8500   56.6730 N   0  0  0  0  0  0  0  0  0  0  0  0
  127.6456  130.5052   66.6119 H   0  0  0  0  0  0  0  0  0  0  0  0
  128.2147  129.9085   68.9504 H   0  0  0  0  0  0  0  0  0  0  0  0
  129.7538  129.3396   70.3852 H   0  0  0  0  0  0  0  0  0  0  0  0
  128.1512  128.8685   71.1211 H   0  0  0  0  0  0  0  0  0  0  0  0
  130.8966  127.7434   71.8586 H   0  0  0  0  0  0  0  0  0  0  0  0
  129.8718  128.8459   72.8482 H   0  0  0  0  0  0  0  0  0  0  0  0
  130.1522  125.5277   71.4695 H   0  0  0  0  0  0  0  0  0  0  0  0
  128.5890  124.9949   72.1837 H   0  0  0  0  0  0  0  0  0  0  0  0
  128.4256  125.4450   69.7209 H   0  0  0  0  0  0  0  0  0  0  0  0
  127.3610  126.5306   70.7314 H   0  0  0  0  0  0  0  0  0  0  0  0
  128.9951  125.8411   67.7197 H   0  0  0  0  0  0  0  0  0  0  0  0
  128.4120  126.4381   65.3836 H   0  0  0  0  0  0  0  0  0  0  0  0
  127.7068  126.7986   63.8170 H   0  0  0  0  0  0  0  0  0  0  0  0
  126.6746  128.4177   59.5205 H   0  0  0  0  0  0  0  0  0  0  0  0
  126.4391  126.6516   57.8043 H   0  0  0  0  0  0  0  0  0  0  0  0
  128.4959  123.1850   58.5042 H   0  0  0  0  0  0  0  0  0  0  0  0
  127.0925  122.1606   59.0710 H   0  0  0  0  0  0  0  0  0  0  0  0
  127.9499  122.6323   56.1761 H   0  0  0  0  0  0  0  0  0  0  0  0
  128.1281  121.1143   57.1274 H   0  0  0  0  0  0  0  0  0  0  0  0
  125.7924  123.3723   55.5878 H   0  0  0  0  0  0  0  0  0  0  0  0
  124.3618  122.4100   56.1070 H   0  0  0  0  0  0  0  0  0  0  0  0
  124.6876  124.5026   57.4634 H   0  0  0  0  0  0  0  0  0  0  0  0
  124.7828  122.9609   58.4422 H   0  0  0  0  0  0  0  0  0  0  0  0
  127.0031  123.6310   60.8370 H   0  0  0  0  0  0  0  0  0  0  0  0
  127.2488  125.3998   62.5495 H   0  0  0  0  0  0  0  0  0  0  0  0
  128.2811  133.6169   61.0032 H   0  0  0  0  0  0  0  0  0  0  0  0
  129.1191  132.1130   61.5812 H   0  0  0  0  0  0  0  0  0  0  0  0
  129.8360  133.2100   59.2120 H   0  0  0  0  0  0  0  0  0  0  0  0
  128.1634  130.4001   57.2413 H   0  0  0  0  0  0  0  0  0  0  0  0
  129.1249  130.4595   54.7377 H   0  0  0  0  0  0  0  0  0  0  0  0
  1  2  3  0
  2  3  1  0
  3  4  2  0
  4  5  1  0
  5  6  2  0
  6  7  1  0
  7  8  2  0
  8  9  1  0
  9 10  1  0
 10 11  1  0
 11 12  1  0
 12 13  1  0
 13 14  1  0
  8 15  1  0
 15 16  2  0
  4 17  1  0
 17 18  2  0
 18 19  1  0
 19 20  2  0
 20 21  1  0
 21 22  2  0
 22 23  1  0
 23 24  1  0
 24 25  1  0
 25 26  1  0
 26 27  1  0
 27 28  1  0
 22 29  1  0
 29 30  2  0
 18 31  1  0
 31 32  2  0
 32 33  1  0
 33 34  1  0
 34 35  1  0
 35 36  2  0
 35 37  1  0
 37 38  1  0
 38 39  1  0
 39 40  2  0
 40 41  1  0
 41 42  1  0
 32  3  1  0
 42 38  2  0
 16  5  1  0
 30 19  1  0
 14  9  1  0
 28 23  1  0
  6 43  1  0
  7 44  1  0
 10 45  1  0
 10 46  1  0
 11 47  1  0
 11 48  1  0
 13 49  1  0
 13 50  1  0
 14 51  1  0
 14 52  1  0
 15 53  1  0
 16 54  1  0
 17 55  1  0
 20 56  1  0
 21 57  1  0
 24 58  1  0
 24 59  1  0
 25 60  1  0
 25 61  1  0
 27 62  1  0
 27 63  1  0
 28 64  1  0
 28 65  1  0
 29 66  1  0
 30 67  1  0
 34 68  1  0
 34 69  1  0
 37 70  1  0
 39 71  1  0
 40 72  1  0
M  END
>  <Binding energies>  (1) 
[-10.57]

>  <Ligand effiencies>  (1) 
[-0.2458139534883721]

>  <Interactions>  (1) 
["V-B:PRO:540:CB:9857, V-B:MET:535:CE:9807, V-B:PRO:540:N:9856, V-B:PRO:540:CA:9855, H-B:TYR:539:N:9842, V-B:TYR:539:C:9839, V-B:TYR:531:CE2:9765, V-B:LEU:363:CD1:8160, V-B:TYR:539:CA:9841, V-A:PRO:540:N:4884, V-A:TYR:539:CD1:4873, V-A:PRO:540:CA:4883, H-A:TYR:539:N:4870, V-A:TYR:539:CE1:4875, V-B:ASP:366:CG:8184, V-A:ALA:541:CB:4892, V-A:TYR:539:C:4867, V-A:GLU:543:CG:4907, V-A:GLU:543:CD:4908, H-B:TYR:484:OH:9319, V-A:GLU:543:C:4902, V-B:TYR:539:CG:9844, V-B:HIS:456:CE1:9041, V-A:HIS:456:CE1:4069, V-B:GLU:543:CB:9878, V-B:GLU:543:CD:9880, V-B:TYR:539:CD1:9845, V-A:GLU:543:CB:4906, H-A:TYR:539:O:4868, V-A:TYR:539:CA:4869, V-B:TYR:484:CE2:9317, V-B:GLU:543:C:9874, V-B:HIS:456:CD2:9039, V-A:HIS:456:CD2:4067"]

$$$$
2b_Grossjean_2025
     RDKit          3D

 42 43  0  0  0  0  0  0  0  0999 V2000
  125.3590  121.6620   55.5900 C   0  0  0  0  0  0  0  0  0  0  0  0
  126.4890  121.9100   56.4150 O   0  0  0  0  0  0  0  0  0  0  0  0
  126.6900  123.1290   56.9770 C   0  0  0  0  0  0  0  0  0  0  0  0
  125.8710  124.0510   56.9140 O   0  0  0  0  0  0  0  0  0  0  0  0
  128.0110  123.2460   57.6810 C   0  0  0  0  0  0  0  0  0  0  0  0
  128.4400  122.2950   58.6190 C   0  0  0  0  0  0  0  0  0  0  0  0
  129.6700  122.4350   59.2550 C   0  0  0  0  0  0  0  0  0  0  0  0
  130.4980  123.5190   58.9650 C   0  0  0  0  0  0  0  0  0  0  0  0
  131.7160  123.5650   59.6700 N   0  0  0  0  0  0  0  0  0  0  0  0
  132.9800  123.4180   59.2170 C   0  0  0  0  0  0  0  0  0  0  0  0
  133.2960  123.1790   58.0510 O   0  0  0  0  0  0  0  0  0  0  0  0
  134.0730  123.5490   60.2820 C   0  0  0  0  0  0  0  0  0  0  0  0
  134.1680  122.1080   61.3950 S   0  0  0  0  0  0  0  0  0  0  0  0
  132.5720  121.3090   61.4950 C   0  0  0  0  0  0  0  0  0  0  0  0
  131.5790  122.0440   62.0570 N   0  0  0  0  0  0  0  0  0  0  0  0
  130.3460  121.5000   62.1700 C   0  0  0  0  0  0  0  0  0  0  0  0
  129.2970  122.3810   62.8200 C   0  0  0  0  0  0  0  0  0  0  0  0
  130.0490  120.2160   61.7240 C   0  0  0  0  0  0  0  0  0  0  0  0
  131.0570  119.4400   61.1330 C   0  0  0  0  0  0  0  0  0  0  0  0
  130.7100  118.0220   60.6410 C   0  0  0  0  0  0  0  0  0  0  0  0
  131.3970  117.1160   61.3390 F   0  0  0  0  0  0  0  0  0  0  0  0
  129.4060  117.7890   60.7970 F   0  0  0  0  0  0  0  0  0  0  0  0
  130.9980  117.8380   59.3510 F   0  0  0  0  0  0  0  0  0  0  0  0
  132.3570  119.9950   61.0140 C   0  0  0  0  0  0  0  0  0  0  0  0
  133.4510  119.2280   60.4110 C   0  0  0  0  0  0  0  0  0  0  0  0
  134.3130  118.6220   59.9330 N   0  0  0  0  0  0  0  0  0  0  0  0
  130.0740  124.4780   58.0340 C   0  0  0  0  0  0  0  0  0  0  0  0
  128.8430  124.3390   57.4000 C   0  0  0  0  0  0  0  0  0  0  0  0
  124.4793  121.4689   56.2215 H   0  0  0  0  0  0  0  0  0  0  0  0
  125.1689  122.5398   54.9549 H   0  0  0  0  0  0  0  0  0  0  0  0
  125.5540  120.7853   54.9549 H   0  0  0  0  0  0  0  0  0  0  0  0
  127.7993  121.4321   58.8536 H   0  0  0  0  0  0  0  0  0  0  0  0
  129.9916  121.6847   59.9923 H   0  0  0  0  0  0  0  0  0  0  0  0
  131.6130  123.6800   60.6670 H   0  0  0  0  0  0  0  0  0  0  0  0
  135.0426  123.6640   59.7755 H   0  0  0  0  0  0  0  0  0  0  0  0
  133.8235  124.4238   60.9005 H   0  0  0  0  0  0  0  0  0  0  0  0
  129.3838  122.3081   63.9141 H   0  0  0  0  0  0  0  0  0  0  0  0
  129.4507  123.4248   62.5087 H   0  0  0  0  0  0  0  0  0  0  0  0
  128.2955  122.0492   62.5087 H   0  0  0  0  0  0  0  0  0  0  0  0
  129.0316  119.8125   61.8340 H   0  0  0  0  0  0  0  0  0  0  0  0
  130.7155  125.3416   57.8044 H   0  0  0  0  0  0  0  0  0  0  0  0
  128.5190  125.0954   56.6700 H   0  0  0  0  0  0  0  0  0  0  0  0
  1  2  1  0
  2  3  1  0
  3  4  2  0
  3  5  1  0
  5  6  2  0
  6  7  1  0
  7  8  2  0
  8  9  1  0
  9 10  1  0
 10 11  2  0
 10 12  1  0
 12 13  1  0
 13 14  1  0
 14 15  2  0
 15 16  1  0
 16 17  1  0
 16 18  2  0
 18 19  1  0
 19 20  1  0
 20 21  1  0
 20 22  1  0
 20 23  1  0
 19 24  2  0
 24 25  1  0
 25 26  3  0
  8 27  1  0
 27 28  2  0
 28  5  1  0
 24 14  1  0
  1 29  1  0
  1 30  1  0
  1 31  1  0
  6 32  1  0
  7 33  1  0
  9 34  1  0
 12 35  1  0
 12 36  1  0
 17 37  1  0
 17 38  1  0
 17 39  1  0
 18 40  1  0
 27 41  1  0
 28 42  1  0
M  END
>  <Binding energies>  (1) 
[-7.63]

>  <Ligand effiencies>  (1) 
[-0.2631034482758621]

>  <Interactions>  (1) 
["H-B:TYR:531:OH:9767, V-B:MET:535:CE:9807, V-A:ILE:369:CG2:3236, V-B:TYR:539:CD2:9846, V-B:PRO:540:N:9856, V-A:LEU:475:CD1:4257, V-B:PRO:540:CA:9855, V-B:PRO:540:C:9853, H-A:SER:385:OG:3409, H-A:HIS:383:NE2:3393, H-B:TYR:539:N:9842, V-B:ALA:541:CB:9864, V-B:TYR:539:CE2:9848, V-B:TYR:539:C:9839, V-A:PRO:482:CG:4326, V-A:PRO:482:CB:4325, V-B:LEU:363:CD1:8160, V-A:ASP:366:CG:3212, V-B:PRO:540:CD:9859, V-A:ASP:366:CA:3209, H-B:TYR:539:OH:9850, V-A:ILE:369:CD1:3238, V-B:TYR:539:CZ:9849, V-A:SER:385:CA:3406, V-A:ILE:369:CB:3235, V-B:TYR:539:CG:9844, V-B:ILE:538:CA:9832, V-B:ILE:538:CG1:9836, V-B:ILE:538:CG2:9835, V-B:ILE:538:C:9830, V-B:ILE:538:CB:9834, V-B:TYR:539:CB:9843, V-B:ALA:541:CA:9862, V-A:HIS:383:CE1:3392, V-A:PRO:482:CD:4327"]

$$$$
2c_Ghoteimi_2023
     RDKit          3D

 72 77  0  0  0  0  0  0  0  0999 V2000
  129.5230  122.1000   65.3030 N   0  0  0  0  0  0  0  0  0  0  0  0
  129.6110  122.9870   64.5670 C   0  0  0  0  0  0  0  0  0  0  0  0
  129.7230  124.1160   63.6380 C   0  0  0  0  0  0  0  0  0  0  0  0
  129.7480  125.4480   64.1210 C   0  0  0  0  0  0  0  0  0  0  0  0
  129.6610  125.8100   65.5670 C   0  0  0  0  0  0  0  0  0  0  0  0
  128.8220  126.8460   65.9830 C   0  0  0  0  0  0  0  0  0  0  0  0
  128.7320  127.1860   67.3300 C   0  0  0  0  0  0  0  0  0  0  0  0
  129.4890  126.5100   68.2980 C   0  0  0  0  0  0  0  0  0  0  0  0
  129.4000  126.8210   69.6570 N   0  0  0  0  0  0  0  0  0  0  0  0
  129.5270  128.2280   70.0850 C   0  0  0  0  0  0  0  0  0  0  0  0
  129.7970  128.3830   71.5970 C   0  0  0  0  0  0  0  0  0  0  0  0
  128.7890  127.7160   72.3420 O   0  0  0  0  0  0  0  0  0  0  0  0
  128.7480  126.3290   72.0450 C   0  0  0  0  0  0  0  0  0  0  0  0
  128.4520  126.1200   70.5450 C   0  0  0  0  0  0  0  0  0  0  0  0
  130.3320  125.4740   67.8700 C   0  0  0  0  0  0  0  0  0  0  0  0
  130.4200  125.1320   66.5240 C   0  0  0  0  0  0  0  0  0  0  0  0
  129.8600  126.4910   63.1930 C   0  0  0  0  0  0  0  0  0  0  0  0
  129.9720  126.2160   61.8270 C   0  0  0  0  0  0  0  0  0  0  0  0
  130.1110  127.2920   60.7990 C   0  0  0  0  0  0  0  0  0  0  0  0
  130.0250  126.9940   59.4350 C   0  0  0  0  0  0  0  0  0  0  0  0
  130.1480  127.9930   58.4730 C   0  0  0  0  0  0  0  0  0  0  0  0
  130.3740  129.3290   58.8400 C   0  0  0  0  0  0  0  0  0  0  0  0
  130.4750  130.3490   57.8880 N   0  0  0  0  0  0  0  0  0  0  0  0
  129.2940  131.1770   57.5690 C   0  0  0  0  0  0  0  0  0  0  0  0
  129.4370  131.9800   56.2590 C   0  0  0  0  0  0  0  0  0  0  0  0
  130.6120  132.7730   56.3000 O   0  0  0  0  0  0  0  0  0  0  0  0
  131.7740  131.9720   56.4440 C   0  0  0  0  0  0  0  0  0  0  0  0
  131.7010  131.1630   57.7570 C   0  0  0  0  0  0  0  0  0  0  0  0
  130.4460  129.6260   60.2090 C   0  0  0  0  0  0  0  0  0  0  0  0
  130.3210  128.6260   61.1700 C   0  0  0  0  0  0  0  0  0  0  0  0
  129.9510  124.9390   61.3670 N   0  0  0  0  0  0  0  0  0  0  0  0
  129.8110  123.9140   62.2410 C   0  0  0  0  0  0  0  0  0  0  0  0
  129.7920  122.3140   61.4660 S   0  0  0  0  0  0  0  0  0  0  0  0
  130.5400  122.4960   59.8190 C   0  0  0  0  0  0  0  0  0  0  0  0
  129.5210  122.9500   58.7730 C   0  0  0  0  0  0  0  0  0  0  0  0
  129.7680  123.9340   58.0740 O   0  0  0  0  0  0  0  0  0  0  0  0
  128.3920  122.2120   58.7010 N   0  0  0  0  0  0  0  0  0  0  0  0
  127.3290  122.4040   57.8310 C   0  0  0  0  0  0  0  0  0  0  0  0
  126.9740  121.6540   56.8110 N   0  0  0  0  0  0  0  0  0  0  0  0
  125.9070  122.1330   56.2040 C   0  0  0  0  0  0  0  0  0  0  0  0
  125.3710  123.3030   56.7350 C   0  0  0  0  0  0  0  0  0  0  0  0
  126.3250  123.7920   58.1030 S   0  0  0  0  0  0  0  0  0  0  0  0
  128.2273  127.3979   65.2402 H   0  0  0  0  0  0  0  0  0  0  0  0
  128.0568  127.9973   67.6399 H   0  0  0  0  0  0  0  0  0  0  0  0
  130.3598  128.6874   69.5325 H   0  0  0  0  0  0  0  0  0  0  0  0
  128.5672  128.7216   69.8726 H   0  0  0  0  0  0  0  0  0  0  0  0
  130.7773  127.9463   71.8385 H   0  0  0  0  0  0  0  0  0  0  0  0
  129.7900  129.4518   71.8570 H   0  0  0  0  0  0  0  0  0  0  0  0
  129.7189  125.8746   72.2916 H   0  0  0  0  0  0  0  0  0  0  0  0
  127.9531  125.8553   72.6398 H   0  0  0  0  0  0  0  0  0  0  0  0
  128.5011  125.0430   70.3267 H   0  0  0  0  0  0  0  0  0  0  0  0
  127.4538  126.5389   70.3496 H   0  0  0  0  0  0  0  0  0  0  0  0
  130.9325  124.9237   68.6093 H   0  0  0  0  0  0  0  0  0  0  0  0
  131.0933  124.3205   66.2107 H   0  0  0  0  0  0  0  0  0  0  0  0
  129.8598  127.5343   63.5416 H   0  0  0  0  0  0  0  0  0  0  0  0
  129.8576  125.9542   59.1175 H   0  0  0  0  0  0  0  0  0  0  0  0
  130.0667  127.7310   57.4077 H   0  0  0  0  0  0  0  0  0  0  0  0
  128.4201  130.5153   57.4775 H   0  0  0  0  0  0  0  0  0  0  0  0
  129.1829  131.9073   58.3841 H   0  0  0  0  0  0  0  0  0  0  0  0
  129.4975  131.2834   55.4099 H   0  0  0  0  0  0  0  0  0  0  0  0
  128.5627  132.6372   56.1420 H   0  0  0  0  0  0  0  0  0  0  0  0
  131.8458  131.2788   55.5930 H   0  0  0  0  0  0  0  0  0  0  0  0
  132.6596  132.6238   56.4714 H   0  0  0  0  0  0  0  0  0  0  0  0
  132.5702  130.4902   57.7987 H   0  0  0  0  0  0  0  0  0  0  0  0
  131.6923  131.8907   58.5818 H   0  0  0  0  0  0  0  0  0  0  0  0
  130.6039  130.6665   60.5289 H   0  0  0  0  0  0  0  0  0  0  0  0
  130.3882  128.8877   62.2363 H   0  0  0  0  0  0  0  0  0  0  0  0
  131.3466  123.2418   59.8759 H   0  0  0  0  0  0  0  0  0  0  0  0
  130.9270  121.5133   59.5116 H   0  0  0  0  0  0  0  0  0  0  0  0
  128.3110  121.4200   59.3230 H   0  0  0  0  0  0  0  0  0  0  0  0
  125.4649  121.6366   55.3275 H   0  0  0  0  0  0  0  0  0  0  0  0
  124.4866  123.8324   56.3508 H   0  0  0  0  0  0  0  0  0  0  0  0
  1  2  3  0
  2  3  1  0
  3  4  2  0
  4  5  1  0
  5  6  2  0
  6  7  1  0
  7  8  2  0
  8  9  1  0
  9 10  1  0
 10 11  1  0
 11 12  1  0
 12 13  1  0
 13 14  1  0
  8 15  1  0
 15 16  2  0
  4 17  1  0
 17 18  2  0
 18 19  1  0
 19 20  2  0
 20 21  1  0
 21 22  2  0
 22 23  1  0
 23 24  1  0
 24 25  1  0
 25 26  1  0
 26 27  1  0
 27 28  1  0
 22 29  1  0
 29 30  2  0
 18 31  1  0
 31 32  2  0
 32 33  1  0
 33 34  1  0
 34 35  1  0
 35 36  2  0
 35 37  1  0
 37 38  1  0
 38 39  2  0
 39 40  1  0
 40 41  2  0
 41 42  1  0
 32  3  1  0
 42 38  1  0
 16  5  1  0
 30 19  1  0
 14  9  1  0
 28 23  1  0
  6 43  1  0
  7 44  1  0
 10 45  1  0
 10 46  1  0
 11 47  1  0
 11 48  1  0
 13 49  1  0
 13 50  1  0
 14 51  1  0
 14 52  1  0
 15 53  1  0
 16 54  1  0
 17 55  1  0
 20 56  1  0
 21 57  1  0
 24 58  1  0
 24 59  1  0
 25 60  1  0
 25 61  1  0
 27 62  1  0
 27 63  1  0
 28 64  1  0
 28 65  1  0
 29 66  1  0
 30 67  1  0
 34 68  1  0
 34 69  1  0
 37 70  1  0
 40 71  1  0
 41 72  1  0
M  END
>  <Binding energies>  (1) 
[-10.19]

>  <Ligand effiencies>  (1) 
[-0.2369767441860465]

>  <Interactions>  (1) 
["V-B:PRO:540:CB:9857, V-B:MET:535:CE:9807, V-B:TYR:539:CD2:9846, V-B:PRO:540:N:9856, V-B:PRO:540:CA:9855, H-B:TYR:539:N:9842, V-B:ALA:541:CB:9864, V-B:TYR:539:CE2:9848, V-B:TYR:539:C:9839, V-B:TYR:531:CE2:9765, V-B:LEU:363:CD1:8160, H-A:TYR:484:OH:4347, V-B:PRO:540:CD:9859, V-A:PRO:540:N:4884, H-B:TYR:539:OH:9850, V-A:TYR:539:CD1:4873, V-A:PRO:540:CA:4883, H-A:TYR:539:N:4870, V-A:PRO:540:CB:4885, V-A:TYR:539:CE1:4875, V-A:PRO:540:CD:4887, V-A:LEU:363:CD1:3188, V-A:GLU:543:CD:4908, V-B:TYR:539:CZ:9849, H-B:TYR:539:O:9840, V-A:GLU:543:C:4902, V-B:HIS:456:CE1:9041, V-A:TYR:484:CZ:4346, V-A:HIS:456:CE1:4069, V-B:GLU:543:CG:9879, V-B:GLU:543:CD:9880, V-A:TYR:484:CE2:4345, V-B:GLU:543:C:9874, V-B:HIS:456:CD2:9039"]

$$$$
2c_Grossjean_2025
     RDKit          3D

 40 41  0  0  0  0  0  0  0  0999 V2000
  125.1460  122.0210   55.2980 C   0  0  0  0  0  0  0  0  0  0  0  0
  126.3850  121.6270   55.8770 O   0  0  0  0  0  0  0  0  0  0  0  0
  126.7930  122.2130   57.0600 C   0  0  0  0  0  0  0  0  0  0  0  0
  128.1400  122.0720   57.3920 C   0  0  0  0  0  0  0  0  0  0  0  0
  128.6460  122.6270   58.5650 C   0  0  0  0  0  0  0  0  0  0  0  0
  127.7930  123.3270   59.4310 C   0  0  0  0  0  0  0  0  0  0  0  0
  128.2150  123.9360   60.6270 N   0  0  0  0  0  0  0  0  0  0  0  0
  128.1300  123.4640   61.8890 C   0  0  0  0  0  0  0  0  0  0  0  0
  127.5960  122.3990   62.2040 O   0  0  0  0  0  0  0  0  0  0  0  0
  128.7250  124.3840   62.9660 C   0  0  0  0  0  0  0  0  0  0  0  0
  130.0540  123.6480   63.9800 S   0  0  0  0  0  0  0  0  0  0  0  0
  130.9110  122.4020   63.0250 C   0  0  0  0  0  0  0  0  0  0  0  0
  130.1550  121.3490   62.6210 N   0  0  0  0  0  0  0  0  0  0  0  0
  130.7380  120.3650   61.9030 C   0  0  0  0  0  0  0  0  0  0  0  0
  129.8330  119.2150   61.5040 C   0  0  0  0  0  0  0  0  0  0  0  0
  132.0860  120.3890   61.5500 C   0  0  0  0  0  0  0  0  0  0  0  0
  132.8840  121.4710   61.9490 C   0  0  0  0  0  0  0  0  0  0  0  0
  134.3720  121.4850   61.5490 C   0  0  0  0  0  0  0  0  0  0  0  0
  135.1320  121.6840   62.6270 F   0  0  0  0  0  0  0  0  0  0  0  0
  134.7070  120.3210   60.9920 F   0  0  0  0  0  0  0  0  0  0  0  0
  134.6600  122.4480   60.6710 F   0  0  0  0  0  0  0  0  0  0  0  0
  132.2860  122.5090   62.7080 C   0  0  0  0  0  0  0  0  0  0  0  0
  133.0730  123.6630   63.1550 C   0  0  0  0  0  0  0  0  0  0  0  0
  133.6940  124.5740   63.5070 N   0  0  0  0  0  0  0  0  0  0  0  0
  126.4480  123.4840   59.0960 C   0  0  0  0  0  0  0  0  0  0  0  0
  125.9470  122.9280   57.9220 C   0  0  0  0  0  0  0  0  0  0  0  0
  124.4247  122.2504   56.0962 H   0  0  0  0  0  0  0  0  0  0  0  0
  125.3000  122.9145   54.6751 H   0  0  0  0  0  0  0  0  0  0  0  0
  124.7557  121.2027   54.6751 H   0  0  0  0  0  0  0  0  0  0  0  0
  128.8105  121.5162   56.7200 H   0  0  0  0  0  0  0  0  0  0  0  0
  129.7123  122.5166   58.8117 H   0  0  0  0  0  0  0  0  0  0  0  0
  128.5700  124.8750   60.5200 H   0  0  0  0  0  0  0  0  0  0  0  0
  129.1342  125.2732   62.4641 H   0  0  0  0  0  0  0  0  0  0  0  0
  127.9024  124.6074   63.6613 H   0  0  0  0  0  0  0  0  0  0  0  0
  129.4455  118.7226   62.4081 H   0  0  0  0  0  0  0  0  0  0  0  0
  128.9928  119.5996   60.9073 H   0  0  0  0  0  0  0  0  0  0  0  0
  130.4044  118.4888   60.9073 H   0  0  0  0  0  0  0  0  0  0  0  0
  132.5204  119.5661   60.9633 H   0  0  0  0  0  0  0  0  0  0  0  0
  125.7802  124.0496   59.7624 H   0  0  0  0  0  0  0  0  0  0  0  0
  124.8834  123.0496   57.6689 H   0  0  0  0  0  0  0  0  0  0  0  0
  1  2  1  0
  2  3  1  0
  3  4  2  0
  4  5  1  0
  5  6  2  0
  6  7  1  0
  7  8  1  0
  8  9  2  0
  8 10  1  0
 10 11  1  0
 11 12  1  0
 12 13  2  0
 13 14  1  0
 14 15  1  0
 14 16  2  0
 16 17  1  0
 17 18  1  0
 18 19  1  0
 18 20  1  0
 18 21  1  0
 17 22  2  0
 22 23  1  0
 23 24  3  0
  6 25  1  0
 25 26  2  0
 26  3  1  0
 22 12  1  0
  1 27  1  0
  1 28  1  0
  1 29  1  0
  4 30  1  0
  5 31  1  0
  7 32  1  0
 10 33  1  0
 10 34  1  0
 15 35  1  0
 15 36  1  0
 15 37  1  0
 16 38  1  0
 25 39  1  0
 26 40  1  0
M  END
>  <Binding energies>  (1) 
[-7.33]

>  <Ligand effiencies>  (1) 
[-0.2714814814814815]

>  <Interactions>  (1) 
["H-B:ALA:541:N:9863, V-B:PRO:540:CB:9857, V-B:MET:535:CE:9807, V-A:ILE:369:CG2:3236, V-B:TYR:539:CD2:9846, V-B:PRO:540:N:9856, V-A:LEU:475:CD1:4257, V-B:PRO:540:CA:9855, V-B:PRO:540:C:9853, H-B:TYR:539:N:9842, V-B:ALA:541:CB:9864, V-B:TYR:539:CE2:9848, V-B:MET:535:CG:9805, V-B:TYR:539:C:9839, V-A:PRO:482:CG:4326, V-A:PRO:482:CB:4325, V-B:LEU:363:CD1:8160, V-B:TYR:539:CA:9841, H-A:GLY:454:N:4049, V-B:PRO:540:CD:9859, V-A:ILE:369:CD1:3238, V-B:TYR:539:CZ:9849, V-A:SER:385:CA:3406, V-A:ILE:369:CB:3235, V-A:SER:385:C:3404, H-A:ARG:545:NH2:4928, V-B:TYR:539:CG:9844, V-B:GLU:543:CG:9879, V-B:TYR:539:CE1:9847, V-B:GLU:543:CD:9880, V-B:TYR:539:CD1:9845, V-B:ILE:538:CA:9832, V-B:ILE:538:CG1:9836, V-B:ILE:538:CG2:9835, V-B:ILE:538:CB:9834, V-A:GLY:454:CA:4048, V-A:GLY:453:C:4041, V-B:ALA:541:CA:9862, V-A:ILE:369:CG1:3237"]

$$$$
2d_Ghoteimi_2023
     RDKit          3D

 68 72  0  0  0  0  0  0  0  0999 V2000
  124.0820  130.2020   63.0960 C   0  0  0  0  0  0  0  0  0  0  0  0
  124.1740  129.8560   64.4690 O   0  0  0  0  0  0  0  0  0  0  0  0
  125.3360  129.4040   64.9860 C   0  0  0  0  0  0  0  0  0  0  0  0
  125.4410  128.6160   65.9300 O   0  0  0  0  0  0  0  0  0  0  0  0
  126.5440  129.9930   64.2420 C   0  0  0  0  0  0  0  0  0  0  0  0
  127.1810  128.8260   62.9910 S   0  0  0  0  0  0  0  0  0  0  0  0
  128.0670  127.5310   63.8330 C   0  0  0  0  0  0  0  0  0  0  0  0
  128.1780  127.7390   65.1680 N   0  0  0  0  0  0  0  0  0  0  0  0
  128.8360  126.8330   65.9350 C   0  0  0  0  0  0  0  0  0  0  0  0
  128.9340  127.1390   67.3950 C   0  0  0  0  0  0  0  0  0  0  0  0
  128.9490  126.1070   68.3390 C   0  0  0  0  0  0  0  0  0  0  0  0
  129.0400  126.3840   69.7010 C   0  0  0  0  0  0  0  0  0  0  0  0
  129.1300  127.7050   70.1660 C   0  0  0  0  0  0  0  0  0  0  0  0
  129.2040  128.0020   71.5320 N   0  0  0  0  0  0  0  0  0  0  0  0
  130.2700  127.4430   72.3870 C   0  0  0  0  0  0  0  0  0  0  0  0
  129.9800  127.5690   73.8980 C   0  0  0  0  0  0  0  0  0  0  0  0
  129.7240  128.9250   74.2300 O   0  0  0  0  0  0  0  0  0  0  0  0
  128.6000  129.4300   73.5290 C   0  0  0  0  0  0  0  0  0  0  0  0
  128.8450  129.3540   72.0070 C   0  0  0  0  0  0  0  0  0  0  0  0
  129.1000  128.7360   69.2170 C   0  0  0  0  0  0  0  0  0  0  0  0
  129.0070  128.4590   67.8570 C   0  0  0  0  0  0  0  0  0  0  0  0
  129.3990  125.6850   65.3720 C   0  0  0  0  0  0  0  0  0  0  0  0
  129.2690  125.4290   64.0020 C   0  0  0  0  0  0  0  0  0  0  0  0
  129.8710  124.1680   63.4750 C   0  0  0  0  0  0  0  0  0  0  0  0
  131.2310  123.9110   63.6540 C   0  0  0  0  0  0  0  0  0  0  0  0
  131.8000  122.7330   63.1780 C   0  0  0  0  0  0  0  0  0  0  0  0
  131.0210  121.7770   62.5040 C   0  0  0  0  0  0  0  0  0  0  0  0
  131.5680  120.5820   62.0290 N   0  0  0  0  0  0  0  0  0  0  0  0
  132.7910  120.5710   61.2020 C   0  0  0  0  0  0  0  0  0  0  0  0
  133.4370  119.1740   61.0780 C   0  0  0  0  0  0  0  0  0  0  0  0
  132.4860  118.2410   60.5900 O   0  0  0  0  0  0  0  0  0  0  0  0
  131.3650  118.1330   61.4550 C   0  0  0  0  0  0  0  0  0  0  0  0
  130.6650  119.5030   61.5850 C   0  0  0  0  0  0  0  0  0  0  0  0
  129.6530  122.0360   62.3440 C   0  0  0  0  0  0  0  0  0  0  0  0
  129.0850  123.2140   62.8220 C   0  0  0  0  0  0  0  0  0  0  0  0
  128.5780  126.3730   63.2010 C   0  0  0  0  0  0  0  0  0  0  0  0
  128.4000  126.1410   61.7650 C   0  0  0  0  0  0  0  0  0  0  0  0
  128.2610  125.9540   60.6310 N   0  0  0  0  0  0  0  0  0  0  0  0
  123.8004  131.2612   63.0029 H   0  0  0  0  0  0  0  0  0  0  0  0
  125.0551  130.0373   62.6104 H   0  0  0  0  0  0  0  0  0  0  0  0
  123.3192  129.5757   62.6104 H   0  0  0  0  0  0  0  0  0  0  0  0
  126.2385  130.9239   63.7419 H   0  0  0  0  0  0  0  0  0  0  0  0
  127.3418  130.1898   64.9733 H   0  0  0  0  0  0  0  0  0  0  0  0
  128.8881  125.0620   68.0010 H   0  0  0  0  0  0  0  0  0  0  0  0
  129.0413  125.5544   70.4234 H   0  0  0  0  0  0  0  0  0  0  0  0
  130.3881  126.3769   72.1433 H   0  0  0  0  0  0  0  0  0  0  0  0
  131.1830  128.0221   72.1843 H   0  0  0  0  0  0  0  0  0  0  0  0
  129.1007  126.9590   74.1526 H   0  0  0  0  0  0  0  0  0  0  0  0
  130.8543  127.2165   74.4649 H   0  0  0  0  0  0  0  0  0  0  0  0
  127.7130  128.8319   73.7849 H   0  0  0  0  0  0  0  0  0  0  0  0
  128.4394  130.4798   73.8155 H   0  0  0  0  0  0  0  0  0  0  0  0
  127.9270  129.6715   71.4908 H   0  0  0  0  0  0  0  0  0  0  0  0
  129.6988  130.0110   71.7848 H   0  0  0  0  0  0  0  0  0  0  0  0
  129.1509  129.7821   69.5534 H   0  0  0  0  0  0  0  0  0  0  0  0
  128.9906  129.2882   67.1344 H   0  0  0  0  0  0  0  0  0  0  0  0
  129.9484  124.9771   66.0100 H   0  0  0  0  0  0  0  0  0  0  0  0
  131.8598  124.6468   64.1766 H   0  0  0  0  0  0  0  0  0  0  0  0
  132.8734  122.5480   63.3314 H   0  0  0  0  0  0  0  0  0  0  0  0
  132.5327  120.9261   60.1934 H   0  0  0  0  0  0  0  0  0  0  0  0
  133.5238  121.2239   61.6987 H   0  0  0  0  0  0  0  0  0  0  0  0
  134.2867  119.2262   60.3814 H   0  0  0  0  0  0  0  0  0  0  0  0
  133.7863  118.8486   62.0690 H   0  0  0  0  0  0  0  0  0  0  0  0
  130.6563  117.3994   61.0432 H   0  0  0  0  0  0  0  0  0  0  0  0
  131.7054  117.8055   62.4484 H   0  0  0  0  0  0  0  0  0  0  0  0
  130.2500  119.7771   60.6039 H   0  0  0  0  0  0  0  0  0  0  0  0
  129.8835  119.3971   62.3518 H   0  0  0  0  0  0  0  0  0  0  0  0
  129.0182  121.2972   61.8329 H   0  0  0  0  0  0  0  0  0  0  0  0
  128.0088  123.3955   62.6847 H   0  0  0  0  0  0  0  0  0  0  0  0
  1  2  1  0
  2  3  1  0
  3  4  2  0
  3  5  1  0
  5  6  1  0
  6  7  1  0
  7  8  2  0
  8  9  1  0
  9 10  1  0
 10 11  2  0
 11 12  1  0
 12 13  2  0
 13 14  1  0
 14 15  1  0
 15 16  1  0
 16 17  1  0
 17 18  1  0
 18 19  1  0
 13 20  1  0
 20 21  2  0
  9 22  2  0
 22 23  1  0
 23 24  1  0
 24 25  2  0
 25 26  1  0
 26 27  2  0
 27 28  1  0
 28 29  1  0
 29 30  1  0
 30 31  1  0
 31 32  1  0
 32 33  1  0
 27 34  1  0
 34 35  2  0
 23 36  2  0
 36 37  1  0
 37 38  3  0
 36  7  1  0
 21 10  1  0
 35 24  1  0
 19 14  1  0
 33 28  1  0
  1 39  1  0
  1 40  1  0
  1 41  1  0
  5 42  1  0
  5 43  1  0
 11 44  1  0
 12 45  1  0
 15 46  1  0
 15 47  1  0
 16 48  1  0
 16 49  1  0
 18 50  1  0
 18 51  1  0
 19 52  1  0
 19 53  1  0
 20 54  1  0
 21 55  1  0
 22 56  1  0
 25 57  1  0
 26 58  1  0
 29 59  1  0
 29 60  1  0
 30 61  1  0
 30 62  1  0
 32 63  1  0
 32 64  1  0
 33 65  1  0
 33 66  1  0
 34 67  1  0
 35 68  1  0
M  END
>  <Binding energies>  (1) 
[-8.37]

>  <Ligand effiencies>  (1) 
[-0.22026315789473683]

>  <Interactions>  (1) 
["V-A:ILE:369:CG2:3236, V-A:LEU:475:CD1:4257, H-A:SER:385:OG:3409, H-A:HIS:383:NE2:3393, V-B:ALA:541:CB:9864, V-A:PRO:482:CG:4326, V-A:PRO:482:CB:4325, V-B:ASP:366:CG:8184, H-B:GLY:454:N:9021, H-B:ARG:545:NH1:9899, V-B:ARG:545:CZ:9898, V-A:GLU:543:CG:4907, V-A:GLU:543:CD:4908, H-B:ARG:545:NH2:9900, H-B:ARG:545:NE:9896, H-B:TYR:484:OH:9319, V-A:SER:385:CA:3406, V-A:SER:385:C:3404, V-A:GLU:543:C:4902, V-B:HIS:456:CE1:9041, V-A:HIS:456:CE1:4069, V-B:GLU:543:CB:9878, V-B:GLU:543:CG:9879, V-B:GLU:543:CD:9880, V-A:GLU:543:CB:4906, V-B:HIS:456:CD2:9039, H-A:LYS:547:NZ:4951"]

$$$$
2d_Grossjean_2025
     RDKit          3D

 36 37  0  0  0  0  0  0  0  0999 V2000
  129.8370  131.7080   60.3870 C   0  0  0  0  0  0  0  0  0  0  0  0
  129.2340  131.3800   59.0340 C   0  0  0  0  0  0  0  0  0  0  0  0
  129.8770  131.7210   57.8470 C   0  0  0  0  0  0  0  0  0  0  0  0
  129.2800  131.3910   56.6210 C   0  0  0  0  0  0  0  0  0  0  0  0
  130.0110  131.7680   55.3170 C   0  0  0  0  0  0  0  0  0  0  0  0
  129.1970  132.4610   54.5210 F   0  0  0  0  0  0  0  0  0  0  0  0
  131.0830  132.5140   55.5930 F   0  0  0  0  0  0  0  0  0  0  0  0
  130.4300  130.7020   54.6330 F   0  0  0  0  0  0  0  0  0  0  0  0
  128.0290  130.7230   56.6330 C   0  0  0  0  0  0  0  0  0  0  0  0
  127.3880  130.3160   55.3800 C   0  0  0  0  0  0  0  0  0  0  0  0
  126.8820  129.9940   54.3900 N   0  0  0  0  0  0  0  0  0  0  0  0
  127.4390  130.4390   57.8870 C   0  0  0  0  0  0  0  0  0  0  0  0
  125.8600  129.6360   58.0850 S   0  0  0  0  0  0  0  0  0  0  0  0
  126.0660  128.2040   59.1940 C   0  0  0  0  0  0  0  0  0  0  0  0
  126.5800  126.9550   58.4720 C   0  0  0  0  0  0  0  0  0  0  0  0
  127.5780  127.0470   57.7550 O   0  0  0  0  0  0  0  0  0  0  0  0
  125.8590  125.8310   58.6630 N   0  0  0  0  0  0  0  0  0  0  0  0
  126.0730  124.5390   58.1470 C   0  0  0  0  0  0  0  0  0  0  0  0
  127.3740  124.0430   58.2590 C   0  0  0  0  0  0  0  0  0  0  0  0
  127.6860  122.7760   57.7720 C   0  0  0  0  0  0  0  0  0  0  0  0
  126.6960  122.0070   57.1650 C   0  0  0  0  0  0  0  0  0  0  0  0
  125.3990  122.4970   57.0360 C   0  0  0  0  0  0  0  0  0  0  0  0
  125.0830  123.7620   57.5220 C   0  0  0  0  0  0  0  0  0  0  0  0
  128.0390  130.7460   59.0630 N   0  0  0  0  0  0  0  0  0  0  0  0
  129.1703  131.3453   61.1832 H   0  0  0  0  0  0  0  0  0  0  0  0
  130.8181  131.2193   60.4794 H   0  0  0  0  0  0  0  0  0  0  0  0
  129.9598  132.7972   60.4794 H   0  0  0  0  0  0  0  0  0  0  0  0
  130.8442  132.2444   57.8703 H   0  0  0  0  0  0  0  0  0  0  0  0
  126.7837  128.4726   59.9832 H   0  0  0  0  0  0  0  0  0  0  0  0
  125.0747  127.9614   59.6045 H   0  0  0  0  0  0  0  0  0  0  0  0
  125.0130  125.9290   59.2060 H   0  0  0  0  0  0  0  0  0  0  0  0
  128.1550  124.6553   58.7336 H   0  0  0  0  0  0  0  0  0  0  0  0
  128.7096  122.3845   57.8663 H   0  0  0  0  0  0  0  0  0  0  0  0
  126.9407  121.0044   56.7844 H   0  0  0  0  0  0  0  0  0  0  0  0
  124.6249  121.8847   56.5504 H   0  0  0  0  0  0  0  0  0  0  0  0
  124.0602  124.1530   57.4171 H   0  0  0  0  0  0  0  0  0  0  0  0
  1  2  1  0
  2  3  2  0
  3  4  1  0
  4  5  1  0
  5  6  1  0
  5  7  1  0
  5  8  1  0
  4  9  2  0
  9 10  1  0
 10 11  3  0
  9 12  1  0
 12 13  1  0
 13 14  1  0
 14 15  1  0
 15 16  2  0
 15 17  1  0
 17 18  1  0
 18 19  2  0
 19 20  1  0
 20 21  2  0
 21 22  1  0
 22 23  2  0
 12 24  2  0
 24  2  1  0
 23 18  1  0
  1 25  1  0
  1 26  1  0
  1 27  1  0
  3 28  1  0
 14 29  1  0
 14 30  1  0
 17 31  1  0
 19 32  1  0
 20 33  1  0
 21 34  1  0
 22 35  1  0
 23 36  1  0
M  END
>  <Binding energies>  (1) 
[-7.06]

>  <Ligand effiencies>  (1) 
[-0.2824]

>  <Interactions>  (1) 
["V-B:PRO:540:CB:9857, H-B:TYR:531:OH:9767, V-B:MET:535:CE:9807, V-B:PRO:540:N:9856, V-B:PRO:540:CA:9855, V-B:TYR:539:C:9839, V-B:TYR:531:CE2:9765, V-B:LEU:363:CD1:8160, V-B:TYR:539:CA:9841, V-B:PRO:540:CD:9859, V-A:PRO:540:N:4884, V-A:ILE:538:CA:4860, V-A:ILE:538:CG2:4863, V-A:TYR:539:CD1:4873, V-A:TYR:539:CE2:4876, V-A:PRO:540:CA:4883, V-A:TYR:539:CZ:4877, V-A:TYR:539:CD2:4874, V-A:TYR:539:CE1:4875, V-A:TYR:531:CZ:4794, V-A:ILE:538:CB:4862, V-B:ASP:366:CG:8184, V-B:TYR:531:CE1:9764, H-B:LYS:534:NZ:9795, V-B:ASP:366:CB:8183, V-A:PRO:540:CD:4887, V-A:PRO:540:C:4881, V-A:TYR:539:C:4867, H-A:TYR:539:OH:4878, V-A:ILE:538:C:4858, H-B:ASP:366:OD1:8185"]

$$$$
2e_Grossjean_2025
     RDKit          3D

 38 39  0  0  0  0  0  0  0  0999 V2000
  125.3570  122.1240   55.4810 C   0  0  0  0  0  0  0  0  0  0  0  0
  126.0340  122.7350   56.6930 C   0  0  0  0  0  0  0  0  0  0  0  0
  127.0340  122.0550   57.3920 C   0  0  0  0  0  0  0  0  0  0  0  0
  127.6210  122.6840   58.4920 C   0  0  0  0  0  0  0  0  0  0  0  0
  127.1980  123.9630   58.8620 C   0  0  0  0  0  0  0  0  0  0  0  0
  126.1840  124.5830   58.1230 C   0  0  0  0  0  0  0  0  0  0  0  0
  125.8270  125.8860   58.5120 N   0  0  0  0  0  0  0  0  0  0  0  0
  126.5660  127.0140   58.4230 C   0  0  0  0  0  0  0  0  0  0  0  0
  127.6800  127.0900   57.9020 O   0  0  0  0  0  0  0  0  0  0  0  0
  125.9560  128.2620   59.0690 C   0  0  0  0  0  0  0  0  0  0  0  0
  125.7340  129.6140   57.8690 S   0  0  0  0  0  0  0  0  0  0  0  0
  127.2930  130.4710   57.8240 C   0  0  0  0  0  0  0  0  0  0  0  0
  127.7410  130.8930   59.0330 N   0  0  0  0  0  0  0  0  0  0  0  0
  128.8970  131.5920   59.0840 C   0  0  0  0  0  0  0  0  0  0  0  0
  129.3400  132.0330   60.4660 C   0  0  0  0  0  0  0  0  0  0  0  0
  129.6410  131.9010   57.9460 C   0  0  0  0  0  0  0  0  0  0  0  0
  129.1860  131.4800   56.6880 C   0  0  0  0  0  0  0  0  0  0  0  0
  130.0080  131.8480   55.4390 C   0  0  0  0  0  0  0  0  0  0  0  0
  130.4830  130.7430   54.8610 F   0  0  0  0  0  0  0  0  0  0  0  0
  129.2410  132.4980   54.5640 F   0  0  0  0  0  0  0  0  0  0  0  0
  131.0510  132.6330   55.7200 F   0  0  0  0  0  0  0  0  0  0  0  0
  127.9790  130.7410   56.6180 C   0  0  0  0  0  0  0  0  0  0  0  0
  127.4360  130.2980   55.3300 C   0  0  0  0  0  0  0  0  0  0  0  0
  127.0060  129.9490   54.3140 N   0  0  0  0  0  0  0  0  0  0  0  0
  125.6110  123.9770   57.0420 N   0  0  0  0  0  0  0  0  0  0  0  0
  124.5781  121.4211   55.8116 H   0  0  0  0  0  0  0  0  0  0  0  0
  124.8992  122.9207   54.8762 H   0  0  0  0  0  0  0  0  0  0  0  0
  126.1027  121.5872   54.8762 H   0  0  0  0  0  0  0  0  0  0  0  0
  127.3516  121.0481   57.0834 H   0  0  0  0  0  0  0  0  0  0  0  0
  128.4115  122.1756   59.0635 H   0  0  0  0  0  0  0  0  0  0  0  0
  127.6552  124.4752   59.7215 H   0  0  0  0  0  0  0  0  0  0  0  0
  124.8870  125.9820   58.8650 H   0  0  0  0  0  0  0  0  0  0  0  0
  124.9756  127.9991   59.4928 H   0  0  0  0  0  0  0  0  0  0  0  0
  126.6470  128.6118   59.8501 H   0  0  0  0  0  0  0  0  0  0  0  0
  128.7774  131.4730   61.2275 H   0  0  0  0  0  0  0  0  0  0  0  0
  130.4156  131.8364   60.5864 H   0  0  0  0  0  0  0  0  0  0  0  0
  129.1483  133.1095   60.5864 H   0  0  0  0  0  0  0  0  0  0  0  0
  130.5778  132.4707   58.0342 H   0  0  0  0  0  0  0  0  0  0  0  0
  1  2  1  0
  2  3  2  0
  3  4  1  0
  4  5  2  0
  5  6  1  0
  6  7  1  0
  7  8  1  0
  8  9  2  0
  8 10  1  0
 10 11  1  0
 11 12  1  0
 12 13  2  0
 13 14  1  0
 14 15  1  0
 14 16  2  0
 16 17  1  0
 17 18  1  0
 18 19  1  0
 18 20  1  0
 18 21  1  0
 17 22  2  0
 22 23  1  0
 23 24  3  0
  6 25  2  0
 25  2  1  0
 22 12  1  0
  1 26  1  0
  1 27  1  0
  1 28  1  0
  3 29  1  0
  4 30  1  0
  5 31  1  0
  7 32  1  0
 10 33  1  0
 10 34  1  0
 15 35  1  0
 15 36  1  0
 15 37  1  0
 16 38  1  0
M  END
>  <Binding energies>  (1) 
[-7.68]

>  <Ligand effiencies>  (1) 
[-0.29538461538461536]

>  <Interactions>  (1) 
["V-B:PRO:540:CB:9857, H-B:TYR:531:OH:9767, V-B:MET:535:CE:9807, V-B:PRO:540:N:9856, V-B:PRO:540:CA:9855, V-B:MET:535:CG:9805, V-B:TYR:539:C:9839, V-B:TYR:531:CZ:9766, V-B:LEU:363:CD1:8160, V-B:TYR:539:CA:9841, V-B:PRO:540:CD:9859, V-A:PRO:540:N:4884, V-A:ILE:538:CA:4860, V-A:ILE:538:CG2:4863, V-A:TYR:539:CD1:4873, V-A:TYR:539:CE2:4876, V-A:PRO:540:CA:4883, V-A:TYR:539:CZ:4877, V-A:TYR:539:CD2:4874, V-A:TYR:539:CE1:4875, V-A:TYR:531:CZ:4794, V-A:ILE:538:CB:4862, V-B:ASP:366:CG:8184, V-B:TYR:531:CE1:9764, H-B:LYS:534:NZ:9795, V-B:ASP:366:CB:8183, V-A:PRO:540:CD:4887, V-A:PRO:540:C:4881, V-A:TYR:539:C:4867, H-A:TYR:539:OH:4878, V-A:ILE:538:C:4858, V-B:ILE:538:CA:9832, V-B:ILE:538:CG1:9836, V-B:ILE:538:CG2:9835, H-B:ASP:366:OD1:8185"]

$$$$
2f_Grossjean_2025
     RDKit          3D

 35 36  0  0  0  0  0  0  0  0999 V2000
  126.3310  130.2390   58.1880 C   0  0  0  0  0  0  0  0  0  0  0  0
  127.2530  129.3540   57.3710 C   0  0  0  0  0  0  0  0  0  0  0  0
  127.6870  128.1180   57.8440 C   0  0  0  0  0  0  0  0  0  0  0  0
  128.5470  127.3390   57.0550 C   0  0  0  0  0  0  0  0  0  0  0  0
  129.0250  125.9810   57.6010 C   0  0  0  0  0  0  0  0  0  0  0  0
  128.7240  125.0080   56.7390 F   0  0  0  0  0  0  0  0  0  0  0  0
  130.3460  126.0040   57.7830 F   0  0  0  0  0  0  0  0  0  0  0  0
  128.4640  125.6670   58.7710 F   0  0  0  0  0  0  0  0  0  0  0  0
  128.9410  127.8390   55.7870 C   0  0  0  0  0  0  0  0  0  0  0  0
  129.8820  127.0890   54.9500 C   0  0  0  0  0  0  0  0  0  0  0  0
  130.6240  126.4960   54.2890 N   0  0  0  0  0  0  0  0  0  0  0  0
  128.4290  129.0930   55.3770 C   0  0  0  0  0  0  0  0  0  0  0  0
  128.8090  129.8650   53.8170 S   0  0  0  0  0  0  0  0  0  0  0  0
  130.2180  130.9970   54.0730 C   0  0  0  0  0  0  0  0  0  0  0  0
  130.4200  131.4670   55.5200 C   0  0  0  0  0  0  0  0  0  0  0  0
  129.8790  132.4960   55.9280 O   0  0  0  0  0  0  0  0  0  0  0  0
  131.2330  130.6800   56.2570 N   0  0  0  0  0  0  0  0  0  0  0  0
  131.6230  130.8070   57.6040 C   0  0  0  0  0  0  0  0  0  0  0  0
  130.7480  130.9040   58.7010 C   0  0  0  0  0  0  0  0  0  0  0  0
  131.2680  131.0210   59.9920 C   0  0  0  0  0  0  0  0  0  0  0  0
  132.6530  131.0350   60.1540 C   0  0  0  0  0  0  0  0  0  0  0  0
  133.5190  130.9350   59.1140 N   0  0  0  0  0  0  0  0  0  0  0  0
  132.9980  130.8200   57.8660 C   0  0  0  0  0  0  0  0  0  0  0  0
  127.6180  129.8410   56.1630 N   0  0  0  0  0  0  0  0  0  0  0  0
  126.5111  130.0661   59.2593 H   0  0  0  0  0  0  0  0  0  0  0  0
  126.5286  131.2943   57.9486 H   0  0  0  0  0  0  0  0  0  0  0  0
  125.2847  129.9984   57.9486 H   0  0  0  0  0  0  0  0  0  0  0  0
  127.3580  127.7551   58.8289 H   0  0  0  0  0  0  0  0  0  0  0  0
  131.1339  130.4794   53.7517 H   0  0  0  0  0  0  0  0  0  0  0  0
  129.9965  131.9001   53.4853 H   0  0  0  0  0  0  0  0  0  0  0  0
  131.6560  129.8990   55.7750 H   0  0  0  0  0  0  0  0  0  0  0  0
  129.6595  130.8878   58.5429 H   0  0  0  0  0  0  0  0  0  0  0  0
  130.5996  131.1004   60.8620 H   0  0  0  0  0  0  0  0  0  0  0  0
  133.0619  131.1314   61.1706 H   0  0  0  0  0  0  0  0  0  0  0  0
  133.6918  130.7325   57.0169 H   0  0  0  0  0  0  0  0  0  0  0  0
  1  2  1  0
  2  3  2  0
  3  4  1  0
  4  5  1  0
  5  6  1  0
  5  7  1  0
  5  8  1  0
  4  9  2  0
  9 10  1  0
 10 11  3  0
  9 12  1  0
 12 13  1  0
 13 14  1  0
 14 15  1  0
 15 16  2  0
 15 17  1  0
 17 18  1  0
 18 19  2  0
 19 20  1  0
 20 21  2  0
 21 22  1  0
 22 23  2  0
 12 24  2  0
 24  2  1  0
 23 18  1  0
  1 25  1  0
  1 26  1  0
  1 27  1  0
  3 28  1  0
 14 29  1  0
 14 30  1  0
 17 31  1  0
 19 32  1  0
 20 33  1  0
 21 34  1  0
 23 35  1  0
M  END
>  <Binding energies>  (1) 
[-6.52]

>  <Ligand effiencies>  (1) 
[-0.2608]

>  <Interactions>  (1) 
["H-B:TYR:531:OH:9767, V-B:MET:535:CE:9807, V-A:ILE:538:CG2:4863, V-A:PRO:540:CA:4883, H-A:TYR:531:OH:4795, H-A:TYR:539:N:4870, V-A:TYR:539:CZ:4877, V-A:PRO:540:CB:4885, V-A:TYR:539:CE1:4875, V-A:ILE:538:CB:4862, H-B:LYS:534:NZ:9795, V-A:LEU:363:CD1:3188, V-A:LEU:363:CA:3184, H-A:LEU:363:N:3185"]

$$$$
2g_Grossjean_2025
     RDKit          3D

 39 40  0  0  0  0  0  0  0  0999 V2000
  126.3090  130.1010   57.7910 C   0  0  0  0  0  0  0  0  0  0  0  0
  127.3300  129.1690   57.1670 C   0  0  0  0  0  0  0  0  0  0  0  0
  127.7350  127.9980   57.8040 C   0  0  0  0  0  0  0  0  0  0  0  0
  128.6890  127.1730   57.1880 C   0  0  0  0  0  0  0  0  0  0  0  0
  129.1310  125.8860   57.9120 C   0  0  0  0  0  0  0  0  0  0  0  0
  128.5190  125.7870   59.0940 F   0  0  0  0  0  0  0  0  0  0  0  0
  128.8170  124.8210   57.1730 F   0  0  0  0  0  0  0  0  0  0  0  0
  130.4450  125.8470   58.1390 F   0  0  0  0  0  0  0  0  0  0  0  0
  129.2060  127.5580   55.9250 C   0  0  0  0  0  0  0  0  0  0  0  0
  130.2450  126.7620   55.2660 C   0  0  0  0  0  0  0  0  0  0  0  0
  131.0650  126.1330   54.7470 N   0  0  0  0  0  0  0  0  0  0  0  0
  128.7130  128.7500   55.3400 C   0  0  0  0  0  0  0  0  0  0  0  0
  129.2330  129.3660   53.7530 S   0  0  0  0  0  0  0  0  0  0  0  0
  129.0970  131.1850   53.8000 C   0  0  0  0  0  0  0  0  0  0  0  0
  129.9420  131.8640   54.8870 C   0  0  0  0  0  0  0  0  0  0  0  0
  129.5330  132.8570   55.4910 O   0  0  0  0  0  0  0  0  0  0  0  0
  131.1440  131.3050   55.1180 N   0  0  0  0  0  0  0  0  0  0  0  0
  132.1190  131.7660   56.1070 C   0  0  0  0  0  0  0  0  0  0  0  0
  131.7510  131.4430   57.5520 C   0  0  0  0  0  0  0  0  0  0  0  0
  132.7390  131.0130   58.4420 C   0  0  0  0  0  0  0  0  0  0  0  0
  132.4110  130.7540   59.7710 C   0  0  0  0  0  0  0  0  0  0  0  0
  131.1020  130.9360   60.2070 C   0  0  0  0  0  0  0  0  0  0  0  0
  130.1150  131.3770   59.3270 C   0  0  0  0  0  0  0  0  0  0  0  0
  130.4410  131.6370   57.9990 C   0  0  0  0  0  0  0  0  0  0  0  0
  127.8080  129.5470   55.9590 N   0  0  0  0  0  0  0  0  0  0  0  0
  126.3773  130.0387   58.8871 H   0  0  0  0  0  0  0  0  0  0  0  0
  126.5101  131.1335   57.4692 H   0  0  0  0  0  0  0  0  0  0  0  0
  125.2991  129.8068   57.4692 H   0  0  0  0  0  0  0  0  0  0  0  0
  127.3110  127.7225   58.7809 H   0  0  0  0  0  0  0  0  0  0  0  0
  129.4157  131.5777   52.8232 H   0  0  0  0  0  0  0  0  0  0  0  0
  128.0469  131.4118   54.0362 H   0  0  0  0  0  0  0  0  0  0  0  0
  131.3970  130.4770   54.5980 H   0  0  0  0  0  0  0  0  0  0  0  0
  133.0861  131.2917   55.8839 H   0  0  0  0  0  0  0  0  0  0  0  0
  132.1514  132.8627   56.0287 H   0  0  0  0  0  0  0  0  0  0  0  0
  133.7738  130.8793   58.0938 H   0  0  0  0  0  0  0  0  0  0  0  0
  133.1836  130.4070   60.4729 H   0  0  0  0  0  0  0  0  0  0  0  0
  130.8437  130.7299   61.2562 H   0  0  0  0  0  0  0  0  0  0  0  0
  129.0831  131.5189   59.6805 H   0  0  0  0  0  0  0  0  0  0  0  0
  129.6686  131.9947   57.3022 H   0  0  0  0  0  0  0  0  0  0  0  0
  1  2  1  0
  2  3  2  0
  3  4  1  0
  4  5  1  0
  5  6  1  0
  5  7  1  0
  5  8  1  0
  4  9  2  0
  9 10  1  0
 10 11  3  0
  9 12  1  0
 12 13  1  0
 13 14  1  0
 14 15  1  0
 15 16  2  0
 15 17  1  0
 17 18  1  0
 18 19  1  0
 19 20  2  0
 20 21  1  0
 21 22  2  0
 22 23  1  0
 23 24  2  0
 12 25  2  0
 25  2  1  0
 24 19  1  0
  1 26  1  0
  1 27  1  0
  1 28  1  0
  3 29  1  0
 14 30  1  0
 14 31  1  0
 17 32  1  0
 18 33  1  0
 18 34  1  0
 20 35  1  0
 21 36  1  0
 22 37  1  0
 23 38  1  0
 24 39  1  0
M  END
>  <Binding energies>  (1) 
[-7.04]

>  <Ligand effiencies>  (1) 
[-0.27076923076923076]

>  <Interactions>  (1) 
["H-B:TYR:531:OH:9767, V-B:MET:535:CE:9807, V-A:ASP:366:CG:3212, V-A:PRO:540:N:4884, V-A:ILE:538:CA:4860, V-A:ILE:538:CG2:4863, H-B:TYR:539:OH:9850, V-A:PRO:540:CA:4883, H-A:TYR:531:OH:4795, H-A:TYR:539:N:4870, V-A:TYR:539:CZ:4877, V-A:PRO:540:CB:4885, V-A:TYR:539:CE1:4875, V-A:TYR:531:CZ:4794, V-A:ILE:538:CB:4862, V-A:TYR:539:C:4867, V-A:LEU:363:CD1:3188, V-B:LYS:534:CE:9794, V-A:TYR:531:CE2:4793"]

$$$$
2h_Grossjean_2025
     RDKit          3D

 51 52  0  0  0  0  0  0  0  0999 V2000
  125.5710  121.8570   55.6930 C   0  0  0  0  0  0  0  0  0  0  0  0
  126.1320  121.7050   56.9920 O   0  0  0  0  0  0  0  0  0  0  0  0
  127.1960  122.5040   57.3710 C   0  0  0  0  0  0  0  0  0  0  0  0
  128.4530  122.0070   57.7480 C   0  0  0  0  0  0  0  0  0  0  0  0
  129.4810  122.8750   58.1090 C   0  0  0  0  0  0  0  0  0  0  0  0
  129.2770  124.2560   58.1020 C   0  0  0  0  0  0  0  0  0  0  0  0
  130.4250  125.1890   58.4830 C   0  0  0  0  0  0  0  0  0  0  0  0
  131.7200  124.5150   58.5840 N   0  0  0  0  0  0  0  0  0  0  0  0
  132.4250  124.3680   59.7200 C   0  0  0  0  0  0  0  0  0  0  0  0
  132.0850  124.8650   60.7950 O   0  0  0  0  0  0  0  0  0  0  0  0
  133.7000  123.5210   59.6030 C   0  0  0  0  0  0  0  0  0  0  0  0
  133.9050  122.2540   60.8990 S   0  0  0  0  0  0  0  0  0  0  0  0
  132.3730  121.3510   60.9820 C   0  0  0  0  0  0  0  0  0  0  0  0
  131.3090  122.1140   61.3360 N   0  0  0  0  0  0  0  0  0  0  0  0
  130.0980  121.5240   61.4470 C   0  0  0  0  0  0  0  0  0  0  0  0
  128.9560  122.4360   61.8540 C   0  0  0  0  0  0  0  0  0  0  0  0
  129.8980  120.1660   61.2090 C   0  0  0  0  0  0  0  0  0  0  0  0
  130.9830  119.3650   60.8220 C   0  0  0  0  0  0  0  0  0  0  0  0
  130.7400  117.8670   60.5530 C   0  0  0  0  0  0  0  0  0  0  0  0
  131.0840  117.5680   59.3010 F   0  0  0  0  0  0  0  0  0  0  0  0
  131.4480  117.0760   61.3630 F   0  0  0  0  0  0  0  0  0  0  0  0
  129.4510  117.5730   60.7300 F   0  0  0  0  0  0  0  0  0  0  0  0
  132.2590  119.9700   60.6930 C   0  0  0  0  0  0  0  0  0  0  0  0
  133.4120  119.1910   60.2350 C   0  0  0  0  0  0  0  0  0  0  0  0
  134.3200  118.5740   59.8700 N   0  0  0  0  0  0  0  0  0  0  0  0
  128.0180  124.7660   57.7500 C   0  0  0  0  0  0  0  0  0  0  0  0
  127.8080  126.1250   57.7440 O   0  0  0  0  0  0  0  0  0  0  0  0
  128.5220  126.8230   56.7320 C   0  0  0  0  0  0  0  0  0  0  0  0
  126.9890  123.8890   57.3670 C   0  0  0  0  0  0  0  0  0  0  0  0
  125.7600  124.3870   57.0040 O   0  0  0  0  0  0  0  0  0  0  0  0
  124.8660  124.5780   58.0920 C   0  0  0  0  0  0  0  0  0  0  0  0
  124.5128  122.1437   55.7819 H   0  0  0  0  0  0  0  0  0  0  0  0
  126.1182  122.6393   55.1465 H   0  0  0  0  0  0  0  0  0  0  0  0
  125.6484  120.9055   55.1465 H   0  0  0  0  0  0  0  0  0  0  0  0
  128.6283  120.9211   57.7586 H   0  0  0  0  0  0  0  0  0  0  0  0
  130.4606  122.4693   58.4017 H   0  0  0  0  0  0  0  0  0  0  0  0
  130.5015  125.9761   57.7184 H   0  0  0  0  0  0  0  0  0  0  0  0
  130.1940  125.5939   59.4793 H   0  0  0  0  0  0  0  0  0  0  0  0
  132.0460  124.0510   57.7490 H   0  0  0  0  0  0  0  0  0  0  0  0
  133.6834  123.0122   58.6279 H   0  0  0  0  0  0  0  0  0  0  0  0
  134.5436  124.2176   59.7177 H   0  0  0  0  0  0  0  0  0  0  0  0
  128.8974  122.4828   62.9514 H   0  0  0  0  0  0  0  0  0  0  0  0
  129.1318  123.4450   61.4528 H   0  0  0  0  0  0  0  0  0  0  0  0
  128.0108  122.0414   61.4528 H   0  0  0  0  0  0  0  0  0  0  0  0
  128.8968  119.7250   61.3236 H   0  0  0  0  0  0  0  0  0  0  0  0
  129.2340  127.5191   57.1994 H   0  0  0  0  0  0  0  0  0  0  0  0
  129.0700  126.1028   56.1068 H   0  0  0  0  0  0  0  0  0  0  0  0
  127.8144  127.3872   56.1068 H   0  0  0  0  0  0  0  0  0  0  0  0
  125.4118  124.4614   59.0399 H   0  0  0  0  0  0  0  0  0  0  0  0
  124.4347  125.5886   58.0391 H   0  0  0  0  0  0  0  0  0  0  0  0
  124.0594  123.8319   58.0391 H   0  0  0  0  0  0  0  0  0  0  0  0
  1  2  1  0
  2  3  1  0
  3  4  2  0
  4  5  1  0
  5  6  2  0
  6  7  1  0
  7  8  1  0
  8  9  1  0
  9 10  2  0
  9 11  1  0
 11 12  1  0
 12 13  1  0
 13 14  2  0
 14 15  1  0
 15 16  1  0
 15 17  2  0
 17 18  1  0
 18 19  1  0
 19 20  1  0
 19 21  1  0
 19 22  1  0
 18 23  2  0
 23 24  1  0
 24 25  3  0
  6 26  1  0
 26 27  1  0
 27 28  1  0
 26 29  2  0
 29 30  1  0
 30 31  1  0
 29  3  1  0
 23 13  1  0
  1 32  1  0
  1 33  1  0
  1 34  1  0
  4 35  1  0
  5 36  1  0
  7 37  1  0
  7 38  1  0
  8 39  1  0
 11 40  1  0
 11 41  1  0
 16 42  1  0
 16 43  1  0
 16 44  1  0
 17 45  1  0
 28 46  1  0
 28 47  1  0
 28 48  1  0
 31 49  1  0
 31 50  1  0
 31 51  1  0
M  END
>  <Binding energies>  (1) 
[-6.69]

>  <Ligand effiencies>  (1) 
[-0.2090625]

>  <Interactions>  (1) 
["H-B:TYR:531:OH:9767, V-B:MET:535:CE:9807, V-A:ILE:369:CG2:3236, V-B:TYR:539:CD2:9846, V-B:PRO:540:N:9856, V-A:LEU:475:CD1:4257, V-B:PRO:540:CA:9855, V-B:PRO:540:C:9853, H-A:SER:385:OG:3409, H-A:HIS:383:NE2:3393, H-B:TYR:539:N:9842, V-B:ALA:541:CB:9864, V-B:TYR:539:CE2:9848, V-B:TYR:539:C:9839, V-B:TYR:531:CE2:9765, V-A:PRO:482:CG:4326, V-B:TYR:531:CZ:9766, V-A:PRO:482:CB:4325, V-B:LEU:363:CD1:8160, V-B:TYR:539:CA:9841, V-A:ASP:366:CG:3212, V-B:PRO:540:CD:9859, V-A:ASP:366:CA:3209, V-A:ASP:366:CB:3211, H-B:TYR:539:OH:9850, V-B:ASP:366:CB:8183, V-B:TYR:539:CZ:9849, V-A:ILE:369:CB:3235, V-B:TYR:539:CG:9844, V-B:TYR:539:CE1:9847, V-B:TYR:539:CD1:9845, V-B:ILE:538:CA:9832, V-B:ILE:538:CG2:9835, V-B:TYR:539:CB:9843, V-B:ALA:541:CA:9862, V-A:HIS:383:CE1:3392, V-A:HIS:383:CD2:3391, V-A:PRO:482:CD:4327"]

$$$$
2i_Grossjean_2025
     RDKit          3D

 32 33  0  0  0  0  0  0  0  0999 V2000
  132.6040  131.7610   61.6020 C   0  0  0  0  0  0  0  0  0  0  0  0
  132.0120  130.8810   60.5170 C   0  0  0  0  0  0  0  0  0  0  0  0
  130.9600  130.0070   60.7790 C   0  0  0  0  0  0  0  0  0  0  0  0
  130.4460  129.2160   59.7420 C   0  0  0  0  0  0  0  0  0  0  0  0
  129.2820  128.2540   60.0500 C   0  0  0  0  0  0  0  0  0  0  0  0
  128.9900  128.2930   61.3510 F   0  0  0  0  0  0  0  0  0  0  0  0
  128.2010  128.6050   59.3530 F   0  0  0  0  0  0  0  0  0  0  0  0
  129.5640  126.9860   59.7400 F   0  0  0  0  0  0  0  0  0  0  0  0
  131.0200  129.3350   58.4510 C   0  0  0  0  0  0  0  0  0  0  0  0
  130.5210  128.5320   57.3290 C   0  0  0  0  0  0  0  0  0  0  0  0
  130.1270  127.9000   56.4440 N   0  0  0  0  0  0  0  0  0  0  0  0
  132.0870  130.2450   58.2740 C   0  0  0  0  0  0  0  0  0  0  0  0
  132.8930  130.4740   56.6970 S   0  0  0  0  0  0  0  0  0  0  0  0
  132.1300  131.9040   55.8740 C   0  0  0  0  0  0  0  0  0  0  0  0
  130.6020  131.8310   55.8830 C   0  0  0  0  0  0  0  0  0  0  0  0
  129.9620  132.7380   56.4180 O   0  0  0  0  0  0  0  0  0  0  0  0
  130.0620  130.7340   55.3090 N   0  0  0  0  0  0  0  0  0  0  0  0
  128.7140  130.4310   55.2080 C   0  0  0  0  0  0  0  0  0  0  0  0
  127.7990  130.0440   56.1980 C   0  0  0  0  0  0  0  0  0  0  0  0
  126.6080  129.8800   55.5280 C   0  0  0  0  0  0  0  0  0  0  0  0
  126.7960  130.1590   54.2160 O   0  0  0  0  0  0  0  0  0  0  0  0
  128.1340  130.5120   54.0310 N   0  0  0  0  0  0  0  0  0  0  0  0
  132.5690  131.0030   59.2920 N   0  0  0  0  0  0  0  0  0  0  0  0
  132.3331  131.3583   62.5891 H   0  0  0  0  0  0  0  0  0  0  0  0
  133.6993  131.7800   61.5017 H   0  0  0  0  0  0  0  0  0  0  0  0
  132.2088  132.7827   61.5017 H   0  0  0  0  0  0  0  0  0  0  0  0
  130.5357  129.9378   61.7915 H   0  0  0  0  0  0  0  0  0  0  0  0
  132.4435  132.8208   56.3947 H   0  0  0  0  0  0  0  0  0  0  0  0
  132.4610  131.9050   54.8250 H   0  0  0  0  0  0  0  0  0  0  0  0
  130.6940  130.0390   54.9390 H   0  0  0  0  0  0  0  0  0  0  0  0
  127.9908  129.9028   57.2719 H   0  0  0  0  0  0  0  0  0  0  0  0
  125.6560  129.5717   55.9848 H   0  0  0  0  0  0  0  0  0  0  0  0
  1  2  1  0
  2  3  2  0
  3  4  1  0
  4  5  1  0
  5  6  1  0
  5  7  1  0
  5  8  1  0
  4  9  2  0
  9 10  1  0
 10 11  3  0
  9 12  1  0
 12 13  1  0
 13 14  1  0
 14 15  1  0
 15 16  2  0
 15 17  1  0
 17 18  1  0
 18 19  1  0
 19 20  2  0
 20 21  1  0
 21 22  1  0
 12 23  2  0
 23  2  1  0
 22 18  2  0
  1 24  1  0
  1 25  1  0
  1 26  1  0
  3 27  1  0
 14 28  1  0
 14 29  1  0
 17 30  1  0
 19 31  1  0
 20 32  1  0
M  END
>  <Binding energies>  (1) 
[-6.81]

>  <Ligand effiencies>  (1) 
[-0.28375]

>  <Interactions>  (1) 
["V-B:TYR:531:CZ:9766, V-A:ILE:538:CG2:4863, V-A:PRO:540:CA:4883, H-A:TYR:531:OH:4795, H-A:TYR:539:N:4870, V-A:TYR:539:CZ:4877, V-A:PRO:540:CB:4885, V-A:TYR:539:CE1:4875, V-A:ILE:538:CB:4862, V-B:TYR:531:CE1:9764, H-B:LYS:534:NZ:9795, V-A:PRO:540:C:4881, V-A:LEU:363:CD1:3188, H-A:TYR:539:OH:4878, V-A:ASN:362:CB:3175, V-A:ALA:541:C:4888"]

$$$$
2j_Grossjean_2025
     RDKit          3D

 32 33  0  0  0  0  0  0  0  0999 V2000
  126.2430  129.8640   57.8760 C   0  0  0  0  0  0  0  0  0  0  0  0
  127.2860  129.0000   57.1920 C   0  0  0  0  0  0  0  0  0  0  0  0
  127.7060  127.7910   57.7410 C   0  0  0  0  0  0  0  0  0  0  0  0
  128.6700  127.0250   57.0690 C   0  0  0  0  0  0  0  0  0  0  0  0
  129.1240  125.6910   57.6910 C   0  0  0  0  0  0  0  0  0  0  0  0
  128.5170  125.5050   58.8630 F   0  0  0  0  0  0  0  0  0  0  0  0
  128.8140  124.6790   56.8780 F   0  0  0  0  0  0  0  0  0  0  0  0
  130.4400  125.6430   57.9070 F   0  0  0  0  0  0  0  0  0  0  0  0
  129.1880  127.5140   55.8430 C   0  0  0  0  0  0  0  0  0  0  0  0
  130.1980  126.7560   55.0980 C   0  0  0  0  0  0  0  0  0  0  0  0
  130.9940  126.1560   54.5100 N   0  0  0  0  0  0  0  0  0  0  0  0
  128.7040  128.7530   55.3580 C   0  0  0  0  0  0  0  0  0  0  0  0
  129.2840  129.4640   53.8250 S   0  0  0  0  0  0  0  0  0  0  0  0
  129.6400  131.2310   54.1090 C   0  0  0  0  0  0  0  0  0  0  0  0
  130.2300  131.5570   55.4890 C   0  0  0  0  0  0  0  0  0  0  0  0
  129.8760  132.5660   56.1030 O   0  0  0  0  0  0  0  0  0  0  0  0
  131.1460  130.6710   55.9370 N   0  0  0  0  0  0  0  0  0  0  0  0
  131.8300  130.7230   57.1440 C   0  0  0  0  0  0  0  0  0  0  0  0
  133.1200  130.5660   57.3480 N   0  0  0  0  0  0  0  0  0  0  0  0
  133.4280  130.6820   58.6250 C   0  0  0  0  0  0  0  0  0  0  0  0
  132.3700  130.9400   59.4920 C   0  0  0  0  0  0  0  0  0  0  0  0
  130.8970  131.0330   58.5730 S   0  0  0  0  0  0  0  0  0  0  0  0
  127.7690  129.4780   56.0230 N   0  0  0  0  0  0  0  0  0  0  0  0
  126.3510  129.7745   58.9670 H   0  0  0  0  0  0  0  0  0  0  0  0
  126.3839  130.9136   57.5784 H   0  0  0  0  0  0  0  0  0  0  0  0
  125.2380  129.5303   57.5784 H   0  0  0  0  0  0  0  0  0  0  0  0
  127.2849  127.4394   58.6945 H   0  0  0  0  0  0  0  0  0  0  0  0
  130.3570  131.5626   53.3436 H   0  0  0  0  0  0  0  0  0  0  0  0
  128.6735  131.7535   54.0549 H   0  0  0  0  0  0  0  0  0  0  0  0
  131.3660  129.8860   55.3410 H   0  0  0  0  0  0  0  0  0  0  0  0
  134.4626  130.5806   58.9847 H   0  0  0  0  0  0  0  0  0  0  0  0
  132.4525  131.0648   60.5818 H   0  0  0  0  0  0  0  0  0  0  0  0
  1  2  1  0
  2  3  2  0
  3  4  1  0
  4  5  1  0
  5  6  1  0
  5  7  1  0
  5  8  1  0
  4  9  2  0
  9 10  1  0
 10 11  3  0
  9 12  1  0
 12 13  1  0
 13 14  1  0
 14 15  1  0
 15 16  2  0
 15 17  1  0
 17 18  1  0
 18 19  2  0
 19 20  1  0
 20 21  2  0
 21 22  1  0
 12 23  2  0
 23  2  1  0
 22 18  1  0
  1 24  1  0
  1 25  1  0
  1 26  1  0
  3 27  1  0
 14 28  1  0
 14 29  1  0
 17 30  1  0
 20 31  1  0
 21 32  1  0
M  END
>  <Binding energies>  (1) 
[-6.31]

>  <Ligand effiencies>  (1) 
[-0.26291666666666663]

>  <Interactions>  (1) 
["H-B:TYR:531:OH:9767, V-B:MET:535:CE:9807, V-A:ASP:366:CG:3212, V-A:ILE:538:CA:4860, V-A:ASP:366:CB:3211, V-A:ILE:538:CG2:4863, H-B:TYR:539:OH:9850, V-A:PRO:540:CA:4883, H-A:TYR:531:OH:4795, H-A:TYR:539:N:4870, V-A:PRO:540:CB:4885, V-A:TYR:539:CE1:4875, V-A:TYR:531:CZ:4794, V-A:ILE:538:CB:4862, V-A:LEU:363:CD1:3188, V-A:LEU:363:CA:3184, V-A:LEU:363:CB:3186"]

$$$$
2k_Grossjean_2025
     RDKit          3D

 50 50  0  0  0  0  0  0  0  0999 V2000
  125.4180  121.9700   55.7770 C   0  0  0  0  0  0  0  0  0  0  0  0
  126.5620  121.6280   56.5440 O   0  0  0  0  0  0  0  0  0  0  0  0
  127.1040  122.7220   57.2720 C   0  0  0  0  0  0  0  0  0  0  0  0
  125.9730  123.6520   57.7290 C   0  0  0  0  0  0  0  0  0  0  0  0
  126.4490  124.9900   57.7390 O   0  0  0  0  0  0  0  0  0  0  0  0
  126.9970  125.4050   58.9850 C   0  0  0  0  0  0  0  0  0  0  0  0
  127.1740  126.9290   58.9520 C   0  0  0  0  0  0  0  0  0  0  0  0
  128.5620  127.2030   58.8360 O   0  0  0  0  0  0  0  0  0  0  0  0
  129.2210  127.5110   60.0550 C   0  0  0  0  0  0  0  0  0  0  0  0
  129.3620  129.0400   60.1740 C   0  0  0  0  0  0  0  0  0  0  0  0
  130.7380  129.5040   59.9800 N   0  0  0  0  0  0  0  0  0  0  0  0
  131.1880  130.7480   60.2330 C   0  0  0  0  0  0  0  0  0  0  0  0
  130.4780  131.6450   60.6930 O   0  0  0  0  0  0  0  0  0  0  0  0
  132.6620  131.0060   59.8900 C   0  0  0  0  0  0  0  0  0  0  0  0
  133.1270  130.6960   58.1510 S   0  0  0  0  0  0  0  0  0  0  0  0
  131.8700  129.6930   57.3700 C   0  0  0  0  0  0  0  0  0  0  0  0
  131.9780  128.3540   57.5690 N   0  0  0  0  0  0  0  0  0  0  0  0
  131.0640  127.5340   57.0040 C   0  0  0  0  0  0  0  0  0  0  0  0
  131.2590  126.0530   57.2620 C   0  0  0  0  0  0  0  0  0  0  0  0
  130.0050  128.0070   56.2330 C   0  0  0  0  0  0  0  0  0  0  0  0
  129.8690  129.3880   56.0210 C   0  0  0  0  0  0  0  0  0  0  0  0
  128.6890  129.8950   55.1700 C   0  0  0  0  0  0  0  0  0  0  0  0
  129.0820  130.6090   54.1150 F   0  0  0  0  0  0  0  0  0  0  0  0
  127.9790  128.8620   54.7130 F   0  0  0  0  0  0  0  0  0  0  0  0
  127.8950  130.6720   55.9070 F   0  0  0  0  0  0  0  0  0  0  0  0
  130.8260  130.2590   56.6020 C   0  0  0  0  0  0  0  0  0  0  0  0
  130.7350  131.7100   56.4100 C   0  0  0  0  0  0  0  0  0  0  0  0
  130.6620  132.8560   56.2580 N   0  0  0  0  0  0  0  0  0  0  0  0
  124.5854  122.2189   56.4514 H   0  0  0  0  0  0  0  0  0  0  0  0
  125.6482  122.8386   55.1425 H   0  0  0  0  0  0  0  0  0  0  0  0
  125.1337  121.1176   55.1425 H   0  0  0  0  0  0  0  0  0  0  0  0
  127.6439  122.3434   58.1524 H   0  0  0  0  0  0  0  0  0  0  0  0
  127.7962  123.2816   56.6257 H   0  0  0  0  0  0  0  0  0  0  0  0
  125.1236  123.5681   57.0351 H   0  0  0  0  0  0  0  0  0  0  0  0
  125.6438  123.3675   58.7393 H   0  0  0  0  0  0  0  0  0  0  0  0
  126.3145  125.1277   59.8019 H   0  0  0  0  0  0  0  0  0  0  0  0
  127.9674  124.9151   59.1534 H   0  0  0  0  0  0  0  0  0  0  0  0
  126.6364  127.3494   58.0893 H   0  0  0  0  0  0  0  0  0  0  0  0
  126.7685  127.3825   59.8684 H   0  0  0  0  0  0  0  0  0  0  0  0
  128.6311  127.1278   60.9006 H   0  0  0  0  0  0  0  0  0  0  0  0
  130.2164  127.0430   60.0689 H   0  0  0  0  0  0  0  0  0  0  0  0
  128.7224  129.5114   59.4133 H   0  0  0  0  0  0  0  0  0  0  0  0
  129.0606  129.3202   61.1941 H   0  0  0  0  0  0  0  0  0  0  0  0
  131.3900  128.8240   59.6180 H   0  0  0  0  0  0  0  0  0  0  0  0
  132.8844  132.0588   60.1184 H   0  0  0  0  0  0  0  0  0  0  0  0
  133.2429  130.2912   60.4913 H   0  0  0  0  0  0  0  0  0  0  0  0
  131.2831  125.8698   58.3464 H   0  0  0  0  0  0  0  0  0  0  0  0
  130.4272  125.4900   56.8134 H   0  0  0  0  0  0  0  0  0  0  0  0
  132.2081  125.7245   56.8134 H   0  0  0  0  0  0  0  0  0  0  0  0
  129.2814  127.3045   55.7939 H   0  0  0  0  0  0  0  0  0  0  0  0
  1  2  1  0
  2  3  1  0
  3  4  1  0
  4  5  1  0
  5  6  1  0
  6  7  1  0
  7  8  1  0
  8  9  1  0
  9 10  1  0
 10 11  1  0
 11 12  1  0
 12 13  2  0
 12 14  1  0
 14 15  1  0
 15 16  1  0
 16 17  2  0
 17 18  1  0
 18 19  1  0
 18 20  2  0
 20 21  1  0
 21 22  1  0
 22 23  1  0
 22 24  1  0
 22 25  1  0
 21 26  2  0
 26 27  1  0
 27 28  3  0
 26 16  1  0
  1 29  1  0
  1 30  1  0
  1 31  1  0
  3 32  1  0
  3 33  1  0
  4 34  1  0
  4 35  1  0
  6 36  1  0
  6 37  1  0
  7 38  1  0
  7 39  1  0
  9 40  1  0
  9 41  1  0
 10 42  1  0
 10 43  1  0
 11 44  1  0
 14 45  1  0
 14 46  1  0
 19 47  1  0
 19 48  1  0
 19 49  1  0
 20 50  1  0
M  END
>  <Binding energies>  (1) 
[-6.03]

>  <Ligand effiencies>  (1) 
[-0.20793103448275863]

>  <Interactions>  (1) 
["H-B:TYR:531:OH:9767, V-B:MET:535:CE:9807, V-B:PRO:540:N:9856, V-B:PRO:540:CA:9855, H-B:TYR:539:N:9842, V-B:TYR:539:C:9839, V-B:TYR:531:CZ:9766, V-B:LEU:363:CD1:8160, V-A:ASP:366:CG:3212, V-B:PRO:540:CD:9859, V-A:PRO:540:CA:4883, H-A:TYR:531:OH:4795, H-A:TYR:539:N:4870, V-A:TYR:539:CZ:4877, V-A:PRO:540:CB:4885, V-A:TYR:539:CE1:4875, V-B:TYR:531:CE1:9764, H-A:ASP:366:OD2:3214, H-A:ALA:541:N:4891, V-B:ILE:538:CA:9832, V-B:ILE:538:CG2:9835"]

$$$$
3aa_Grossjean_2025
     RDKit          3D

 52 54  0  0  0  0  0  0  0  0999 V2000
  130.4420  131.8350   55.1450 C   0  0  0  0  0  0  0  0  0  0  0  0
  129.8590  131.0180   53.9870 C   0  0  0  0  0  0  0  0  0  0  0  0
  128.4380  131.0490   54.0540 O   0  0  0  0  0  0  0  0  0  0  0  0
  127.7360  129.9740   54.4950 C   0  0  0  0  0  0  0  0  0  0  0  0
  126.5090  129.8760   54.3970 O   0  0  0  0  0  0  0  0  0  0  0  0
  128.5990  128.9210   55.1310 C   0  0  0  0  0  0  0  0  0  0  0  0
  129.0290  127.7880   54.4250 C   0  0  0  0  0  0  0  0  0  0  0  0
  129.8330  126.8330   55.0430 C   0  0  0  0  0  0  0  0  0  0  0  0
  130.2260  126.9940   56.3730 C   0  0  0  0  0  0  0  0  0  0  0  0
  131.0410  125.9730   56.9010 N   0  0  0  0  0  0  0  0  0  0  0  0
  132.2970  125.6090   56.5590 C   0  0  0  0  0  0  0  0  0  0  0  0
  132.9690  126.1220   55.6640 O   0  0  0  0  0  0  0  0  0  0  0  0
  132.8910  124.4540   57.3650 C   0  0  0  0  0  0  0  0  0  0  0  0
  132.5560  124.6290   59.1430 S   0  0  0  0  0  0  0  0  0  0  0  0
  131.3200  123.4200   59.5620 C   0  0  0  0  0  0  0  0  0  0  0  0
  130.1380  123.6100   58.9270 N   0  0  0  0  0  0  0  0  0  0  0  0
  129.1060  122.7580   59.1580 C   0  0  0  0  0  0  0  0  0  0  0  0
  127.8360  123.0260   58.4080 C   0  0  0  0  0  0  0  0  0  0  0  0
  127.3920  122.1370   57.4160 C   0  0  0  0  0  0  0  0  0  0  0  0
  126.2130  122.3790   56.7140 C   0  0  0  0  0  0  0  0  0  0  0  0
  125.4620  123.5150   56.9970 C   0  0  0  0  0  0  0  0  0  0  0  0
  125.8800  124.4090   57.9770 C   0  0  0  0  0  0  0  0  0  0  0  0
  127.0570  124.1640   58.6780 C   0  0  0  0  0  0  0  0  0  0  0  0
  129.2470  121.6800   60.0380 C   0  0  0  0  0  0  0  0  0  0  0  0
  130.4560  121.4730   60.7200 C   0  0  0  0  0  0  0  0  0  0  0  0
  130.5680  120.2810   61.6890 C   0  0  0  0  0  0  0  0  0  0  0  0
  130.6220  120.6570   62.9680 F   0  0  0  0  0  0  0  0  0  0  0  0
  129.5130  119.4780   61.5540 F   0  0  0  0  0  0  0  0  0  0  0  0
  131.6760  119.5860   61.4270 F   0  0  0  0  0  0  0  0  0  0  0  0
  131.5240  122.3740   60.4880 C   0  0  0  0  0  0  0  0  0  0  0  0
  132.7900  122.2410   61.2160 C   0  0  0  0  0  0  0  0  0  0  0  0
  133.7890  122.1370   61.7910 N   0  0  0  0  0  0  0  0  0  0  0  0
  129.7880  128.1180   57.0890 C   0  0  0  0  0  0  0  0  0  0  0  0
  128.9840  129.0700   56.4700 C   0  0  0  0  0  0  0  0  0  0  0  0
  130.1263  131.3926   56.1013 H   0  0  0  0  0  0  0  0  0  0  0  0
  131.5402  131.8278   55.0825 H   0  0  0  0  0  0  0  0  0  0  0  0
  130.0780  132.8711   55.0825 H   0  0  0  0  0  0  0  0  0  0  0  0
  130.1906  131.4487   53.0307 H   0  0  0  0  0  0  0  0  0  0  0  0
  130.2073  129.9772   54.0602 H   0  0  0  0  0  0  0  0  0  0  0  0
  128.7291  127.6525   53.3754 H   0  0  0  0  0  0  0  0  0  0  0  0
  130.1603  125.9466   54.4797 H   0  0  0  0  0  0  0  0  0  0  0  0
  130.5910  125.4080   57.6070 H   0  0  0  0  0  0  0  0  0  0  0  0
  132.4514  123.5098   57.0111 H   0  0  0  0  0  0  0  0  0  0  0  0
  133.9814  124.4613   57.2202 H   0  0  0  0  0  0  0  0  0  0  0  0
  127.9830  121.2372   57.1900 H   0  0  0  0  0  0  0  0  0  0  0  0
  125.8774  121.6743   55.9389 H   0  0  0  0  0  0  0  0  0  0  0  0
  124.5318  123.7075   56.4423 H   0  0  0  0  0  0  0  0  0  0  0  0
  125.2827  125.3061   58.1971 H   0  0  0  0  0  0  0  0  0  0  0  0
  127.3823  124.8716   59.4549 H   0  0  0  0  0  0  0  0  0  0  0  0
  128.4050  120.9901   60.1965 H   0  0  0  0  0  0  0  0  0  0  0  0
  130.0806  128.2469   58.1415 H   0  0  0  0  0  0  0  0  0  0  0  0
  128.6468  129.9495   57.0382 H   0  0  0  0  0  0  0  0  0  0  0  0
  1  2  1  0
  2  3  1  0
  3  4  1  0
  4  5  2  0
  4  6  1  0
  6  7  2  0
  7  8  1  0
  8  9  2  0
  9 10  1  0
 10 11  1  0
 11 12  2  0
 11 13  1  0
 13 14  1  0
 14 15  1  0
 15 16  2  0
 16 17  1  0
 17 18  1  0
 18 19  2  0
 19 20  1  0
 20 21  2  0
 21 22  1  0
 22 23  2  0
 17 24  2  0
 24 25  1  0
 25 26  1  0
 26 27  1  0
 26 28  1  0
 26 29  1  0
 25 30  2  0
 30 31  1  0
 31 32  3  0
  9 33  1  0
 33 34  2  0
 34  6  1  0
 30 15  1  0
 23 18  1  0
  1 35  1  0
  1 36  1  0
  1 37  1  0
  2 38  1  0
  2 39  1  0
  7 40  1  0
  8 41  1  0
 10 42  1  0
 13 43  1  0
 13 44  1  0
 19 45  1  0
 20 46  1  0
 21 47  1  0
 22 48  1  0
 23 49  1  0
 24 50  1  0
 33 51  1  0
 34 52  1  0
M  END
>  <Binding energies>  (1) 
[-8.82]

>  <Ligand effiencies>  (1) 
[-0.252]

>  <Interactions>  (1) 
["V-B:PRO:540:CB:9857, H-B:TYR:531:OH:9767, V-B:MET:535:CE:9807, V-B:TYR:539:CD2:9846, V-B:PRO:540:N:9856, V-A:LEU:475:CD1:4257, V-B:PRO:540:CA:9855, V-B:PRO:540:C:9853, V-B:ALA:541:CB:9864, V-B:TYR:539:CE2:9848, V-B:TYR:539:C:9839, V-B:TYR:531:CE2:9765, V-A:PRO:482:CG:4326, V-B:LEU:363:CD1:8160, V-B:TYR:539:CA:9841, V-B:PRO:540:CD:9859, V-A:ILE:538:CA:4860, V-A:ASP:366:CA:3209, V-A:ASP:366:CB:3211, V-A:ILE:538:CG2:4863, V-A:ASP:366:C:3207, H-B:TYR:539:OH:9850, H-A:TYR:531:OH:4795, V-A:ILE:538:CB:4862, V-B:TYR:531:CE1:9764, H-B:LYS:534:NZ:9795, V-B:TYR:539:CZ:9849, H-A:TYR:539:OH:4878, V-B:LYS:534:CE:9794, V-B:ALA:541:CA:9862"]

$$$$
3ab_Grossjean_2025
     RDKit          3D

 49 51  0  0  0  0  0  0  0  0999 V2000
  128.8930  131.2610   54.3970 C   0  0  0  0  0  0  0  0  0  0  0  0
  127.6900  130.5190   54.2530 O   0  0  0  0  0  0  0  0  0  0  0  0
  127.2010  129.7760   55.2790 C   0  0  0  0  0  0  0  0  0  0  0  0
  126.0450  129.8740   55.7000 O   0  0  0  0  0  0  0  0  0  0  0  0
  128.2070  128.8190   55.8500 C   0  0  0  0  0  0  0  0  0  0  0  0
  128.5530  128.8280   57.2100 C   0  0  0  0  0  0  0  0  0  0  0  0
  129.4880  127.9270   57.7120 C   0  0  0  0  0  0  0  0  0  0  0  0
  130.0990  126.9970   56.8570 C   0  0  0  0  0  0  0  0  0  0  0  0
  131.0510  126.0390   57.2550 N   0  0  0  0  0  0  0  0  0  0  0  0
  132.1330  125.5680   56.6000 C   0  0  0  0  0  0  0  0  0  0  0  0
  132.4870  125.9030   55.4700 O   0  0  0  0  0  0  0  0  0  0  0  0
  132.9590  124.5290   57.3610 C   0  0  0  0  0  0  0  0  0  0  0  0
  132.6920  124.6230   59.1570 S   0  0  0  0  0  0  0  0  0  0  0  0
  131.4230  123.4440   59.5710 C   0  0  0  0  0  0  0  0  0  0  0  0
  130.2390  123.6870   58.9610 N   0  0  0  0  0  0  0  0  0  0  0  0
  129.1820  122.8630   59.1830 C   0  0  0  0  0  0  0  0  0  0  0  0
  127.9070  123.2000   58.4680 C   0  0  0  0  0  0  0  0  0  0  0  0
  127.1860  124.3590   58.7940 C   0  0  0  0  0  0  0  0  0  0  0  0
  126.0020  124.6770   58.1330 C   0  0  0  0  0  0  0  0  0  0  0  0
  125.5220  123.8360   57.1340 C   0  0  0  0  0  0  0  0  0  0  0  0
  126.2150  122.6800   56.7940 C   0  0  0  0  0  0  0  0  0  0  0  0
  127.3980  122.3660   57.4580 C   0  0  0  0  0  0  0  0  0  0  0  0
  129.2950  121.7730   60.0530 C   0  0  0  0  0  0  0  0  0  0  0  0
  130.5060  121.5110   60.7110 C   0  0  0  0  0  0  0  0  0  0  0  0
  130.5870  120.3040   61.6650 C   0  0  0  0  0  0  0  0  0  0  0  0
  131.6690  119.5510   61.4560 F   0  0  0  0  0  0  0  0  0  0  0  0
  130.6290  120.7200   62.9310 F   0  0  0  0  0  0  0  0  0  0  0  0
  129.5170  119.5240   61.5030 F   0  0  0  0  0  0  0  0  0  0  0  0
  131.6050  122.3730   60.4740 C   0  0  0  0  0  0  0  0  0  0  0  0
  132.8750  122.1790   61.1790 C   0  0  0  0  0  0  0  0  0  0  0  0
  133.8770  122.0230   61.7370 N   0  0  0  0  0  0  0  0  0  0  0  0
  129.7530  126.9820   55.5050 C   0  0  0  0  0  0  0  0  0  0  0  0
  128.8190  127.8840   55.0050 C   0  0  0  0  0  0  0  0  0  0  0  0
  129.1140  131.3973   55.4659 H   0  0  0  0  0  0  0  0  0  0  0  0
  129.7197  130.7157   53.9183 H   0  0  0  0  0  0  0  0  0  0  0  0
  128.7767  132.2445   53.9183 H   0  0  0  0  0  0  0  0  0  0  0  0
  128.0802  129.5550   57.8868 H   0  0  0  0  0  0  0  0  0  0  0  0
  129.7483  127.9441   58.7806 H   0  0  0  0  0  0  0  0  0  0  0  0
  130.8640  125.6270   58.1580 H   0  0  0  0  0  0  0  0  0  0  0  0
  132.6743  123.5253   57.0124 H   0  0  0  0  0  0  0  0  0  0  0  0
  134.0221  124.7333   57.1660 H   0  0  0  0  0  0  0  0  0  0  0  0
  127.5616  125.0265   59.5836 H   0  0  0  0  0  0  0  0  0  0  0  0
  125.4486  125.5895   58.3997 H   0  0  0  0  0  0  0  0  0  0  0  0
  124.5882  124.0875   56.6099 H   0  0  0  0  0  0  0  0  0  0  0  0
  125.8310  122.0169   56.0048 H   0  0  0  0  0  0  0  0  0  0  0  0
  127.9432  121.4498   57.1874 H   0  0  0  0  0  0  0  0  0  0  0  0
  128.4284  121.1170   60.2222 H   0  0  0  0  0  0  0  0  0  0  0  0
  130.2223  126.2515   54.8296 H   0  0  0  0  0  0  0  0  0  0  0  0
  128.5587  127.8628   53.9364 H   0  0  0  0  0  0  0  0  0  0  0  0
  1  2  1  0
  2  3  1  0
  3  4  2  0
  3  5  1  0
  5  6  2  0
  6  7  1  0
  7  8  2  0
  8  9  1  0
  9 10  1  0
 10 11  2  0
 10 12  1  0
 12 13  1  0
 13 14  1  0
 14 15  2  0
 15 16  1  0
 16 17  1  0
 17 18  2  0
 18 19  1  0
 19 20  2  0
 20 21  1  0
 21 22  2  0
 16 23  2  0
 23 24  1  0
 24 25  1  0
 25 26  1  0
 25 27  1  0
 25 28  1  0
 24 29  2  0
 29 30  1  0
 30 31  3  0
  8 32  1  0
 32 33  2  0
 33  5  1  0
 29 14  1  0
 22 17  1  0
  1 34  1  0
  1 35  1  0
  1 36  1  0
  6 37  1  0
  7 38  1  0
  9 39  1  0
 12 40  1  0
 12 41  1  0
 18 42  1  0
 19 43  1  0
 20 44  1  0
 21 45  1  0
 22 46  1  0
 23 47  1  0
 32 48  1  0
 33 49  1  0
M  END
>  <Binding energies>  (1) 
[-7.87]

>  <Ligand effiencies>  (1) 
[-0.23147058823529412]

>  <Interactions>  (1) 
["H-B:TYR:531:OH:9767, V-B:MET:535:CE:9807, V-B:TYR:539:CD2:9846, V-B:PRO:540:N:9856, V-A:LEU:475:CD1:4257, V-B:PRO:540:CA:9855, V-B:PRO:540:C:9853, V-B:ALA:541:CB:9864, V-B:TYR:539:CE2:9848, V-B:TYR:539:C:9839, V-B:TYR:531:CE2:9765, V-A:PRO:482:CG:4326, V-B:TYR:531:CZ:9766, V-B:LEU:363:CD1:8160, V-A:ASP:366:CA:3209, V-A:ASP:366:CB:3211, V-A:ASP:366:C:3207, H-B:TYR:539:OH:9850, H-A:TYR:531:OH:4795, V-A:TYR:539:CZ:4877, V-B:TYR:531:CE1:9764, H-B:LYS:534:NZ:9795, V-B:TYR:539:CZ:9849, H-A:TYR:539:OH:4878, V-B:ALA:541:CA:9862"]

$$$$
3ac_Grossjean_2025
     RDKit          3D

 47 49  0  0  0  0  0  0  0  0999 V2000
  133.2420  131.3270   61.6990 C   0  0  0  0  0  0  0  0  0  0  0  0
  133.7600  130.9560   60.4250 O   0  0  0  0  0  0  0  0  0  0  0  0
  132.9180  130.9500   59.3300 C   0  0  0  0  0  0  0  0  0  0  0  0
  133.4910  130.6040   58.1060 C   0  0  0  0  0  0  0  0  0  0  0  0
  132.7200  130.5670   56.9480 C   0  0  0  0  0  0  0  0  0  0  0  0
  131.3620  130.8850   56.9960 C   0  0  0  0  0  0  0  0  0  0  0  0
  130.6620  130.7990   55.7780 N   0  0  0  0  0  0  0  0  0  0  0  0
  129.6590  131.5770   55.3160 C   0  0  0  0  0  0  0  0  0  0  0  0
  129.1990  132.5630   55.8930 O   0  0  0  0  0  0  0  0  0  0  0  0
  129.0790  131.1680   53.9610 C   0  0  0  0  0  0  0  0  0  0  0  0
  129.0230  129.3620   53.7530 S   0  0  0  0  0  0  0  0  0  0  0  0
  128.6700  128.6150   55.3330 C   0  0  0  0  0  0  0  0  0  0  0  0
  127.8090  129.3410   56.0860 N   0  0  0  0  0  0  0  0  0  0  0  0
  127.4410  128.8940   57.3140 C   0  0  0  0  0  0  0  0  0  0  0  0
  126.4900  129.7610   58.0850 C   0  0  0  0  0  0  0  0  0  0  0  0
  125.1270  129.8090   57.7470 C   0  0  0  0  0  0  0  0  0  0  0  0
  124.2380  130.6070   58.4620 C   0  0  0  0  0  0  0  0  0  0  0  0
  124.7020  131.3720   59.5280 C   0  0  0  0  0  0  0  0  0  0  0  0
  126.0470  131.3470   59.8800 C   0  0  0  0  0  0  0  0  0  0  0  0
  126.9320  130.5470   59.1620 C   0  0  0  0  0  0  0  0  0  0  0  0
  127.9540  127.6980   57.8240 C   0  0  0  0  0  0  0  0  0  0  0  0
  128.8640  126.9380   57.0750 C   0  0  0  0  0  0  0  0  0  0  0  0
  129.4090  125.6290   57.6780 C   0  0  0  0  0  0  0  0  0  0  0  0
  129.1200  124.5570   56.9360 F   0  0  0  0  0  0  0  0  0  0  0  0
  130.7380  125.6880   57.7870 F   0  0  0  0  0  0  0  0  0  0  0  0
  128.8840  125.4350   58.8890 F   0  0  0  0  0  0  0  0  0  0  0  0
  129.2500  127.4110   55.7960 C   0  0  0  0  0  0  0  0  0  0  0  0
  130.2560  126.6930   55.0100 C   0  0  0  0  0  0  0  0  0  0  0  0
  131.0520  126.1260   54.3900 N   0  0  0  0  0  0  0  0  0  0  0  0
  130.7760  131.2270   58.2250 C   0  0  0  0  0  0  0  0  0  0  0  0
  131.5500  131.2630   59.3810 C   0  0  0  0  0  0  0  0  0  0  0  0
  133.8628  130.8824   62.4908 H   0  0  0  0  0  0  0  0  0  0  0  0
  133.2546  132.4227   61.7950 H   0  0  0  0  0  0  0  0  0  0  0  0
  132.2086  130.9624   61.7950 H   0  0  0  0  0  0  0  0  0  0  0  0
  134.5620  130.3582   58.0557 H   0  0  0  0  0  0  0  0  0  0  0  0
  133.1830  130.2859   55.9906 H   0  0  0  0  0  0  0  0  0  0  0  0
  130.9980  130.0820   55.1530 H   0  0  0  0  0  0  0  0  0  0  0  0
  128.0567  131.5657   53.8789 H   0  0  0  0  0  0  0  0  0  0  0  0
  129.7327  131.5776   53.1769 H   0  0  0  0  0  0  0  0  0  0  0  0
  124.7566  129.2067   56.9044 H   0  0  0  0  0  0  0  0  0  0  0  0
  123.1736  130.6327   58.1856 H   0  0  0  0  0  0  0  0  0  0  0  0
  124.0002  132.0005   60.0958 H   0  0  0  0  0  0  0  0  0  0  0  0
  126.4099  131.9559   60.7211 H   0  0  0  0  0  0  0  0  0  0  0  0
  127.9954  130.5302   59.4430 H   0  0  0  0  0  0  0  0  0  0  0  0
  127.6417  127.3505   58.8198 H   0  0  0  0  0  0  0  0  0  0  0  0
  129.7036  131.4668   58.2743 H   0  0  0  0  0  0  0  0  0  0  0  0
  131.0875  131.5383   60.3403 H   0  0  0  0  0  0  0  0  0  0  0  0
  1  2  1  0
  2  3  1  0
  3  4  2  0
  4  5  1  0
  5  6  2  0
  6  7  1  0
  7  8  1  0
  8  9  2  0
  8 10  1  0
 10 11  1  0
 11 12  1  0
 12 13  2  0
 13 14  1  0
 14 15  1  0
 15 16  2  0
 16 17  1  0
 17 18  2  0
 18 19  1  0
 19 20  2  0
 14 21  2  0
 21 22  1  0
 22 23  1  0
 23 24  1  0
 23 25  1  0
 23 26  1  0
 22 27  2  0
 27 28  1  0
 28 29  3  0
  6 30  1  0
 30 31  2  0
 31  3  1  0
 27 12  1  0
 20 15  1  0
  1 32  1  0
  1 33  1  0
  1 34  1  0
  4 35  1  0
  5 36  1  0
  7 37  1  0
 10 38  1  0
 10 39  1  0
 16 40  1  0
 17 41  1  0
 18 42  1  0
 19 43  1  0
 20 44  1  0
 21 45  1  0
 30 46  1  0
 31 47  1  0
M  END
>  <Binding energies>  (1) 
[-8.36]

>  <Ligand effiencies>  (1) 
[-0.26125]

>  <Interactions>  (1) 
["H-B:TYR:531:OH:9767, V-B:MET:535:CE:9807, V-A:ASP:366:CG:3212, V-A:PRO:540:N:4884, V-A:ILE:538:CA:4860, V-A:ASP:366:CB:3211, V-A:ILE:538:CG2:4863, H-B:TYR:539:OH:9850, V-A:TYR:539:CD1:4873, V-A:PRO:540:CA:4883, H-A:TYR:531:OH:4795, H-A:TYR:539:N:4870, V-A:TYR:539:CZ:4877, V-A:PRO:540:CB:4885, V-A:TYR:539:CE1:4875, V-A:TYR:531:CZ:4794, V-B:ASP:366:CB:8183, V-B:ASP:366:CA:8181, V-A:LEU:363:CD1:3188, V-B:ASP:366:C:8179, V-B:TYR:539:CZ:9849, V-B:LYS:534:CE:9794, V-A:LEU:363:CA:3184, V-A:LEU:363:CB:3186, V-B:ILE:369:CG2:8208, V-A:ASN:362:CB:3175, H-A:LEU:363:N:3185"]

$$$$
3ad_Grossjean_2025
     RDKit          3D

 43 45  0  0  0  0  0  0  0  0999 V2000
  130.5680  126.7070   53.9840 N   0  0  0  0  0  0  0  0  0  0  0  0
  129.8760  127.2440   54.7400 C   0  0  0  0  0  0  0  0  0  0  0  0
  128.9990  127.9220   55.7000 C   0  0  0  0  0  0  0  0  0  0  0  0
  128.6940  127.3250   56.9470 C   0  0  0  0  0  0  0  0  0  0  0  0
  129.2850  125.9730   57.3900 C   0  0  0  0  0  0  0  0  0  0  0  0
  130.6170  125.9420   57.3210 F   0  0  0  0  0  0  0  0  0  0  0  0
  128.9420  125.7190   58.6550 F   0  0  0  0  0  0  0  0  0  0  0  0
  128.8220  124.9930   56.6120 F   0  0  0  0  0  0  0  0  0  0  0  0
  127.8120  127.9930   57.8110 C   0  0  0  0  0  0  0  0  0  0  0  0
  127.2500  129.2190   57.4400 C   0  0  0  0  0  0  0  0  0  0  0  0
  126.2920  129.9670   58.3180 C   0  0  0  0  0  0  0  0  0  0  0  0
  126.7570  130.7300   59.4010 C   0  0  0  0  0  0  0  0  0  0  0  0
  125.8730  131.4270   60.2190 C   0  0  0  0  0  0  0  0  0  0  0  0
  124.5060  131.3720   59.9630 C   0  0  0  0  0  0  0  0  0  0  0  0
  124.0200  130.6270   58.8950 C   0  0  0  0  0  0  0  0  0  0  0  0
  124.9080  129.9310   58.0780 C   0  0  0  0  0  0  0  0  0  0  0  0
  127.5420  129.7830   56.2410 N   0  0  0  0  0  0  0  0  0  0  0  0
  128.4050  129.1680   55.3990 C   0  0  0  0  0  0  0  0  0  0  0  0
  128.6790  130.0560   53.8820 S   0  0  0  0  0  0  0  0  0  0  0  0
  130.2290  130.9860   54.0730 C   0  0  0  0  0  0  0  0  0  0  0  0
  130.4480  131.4550   55.5130 C   0  0  0  0  0  0  0  0  0  0  0  0
  129.8960  132.4860   55.8970 O   0  0  0  0  0  0  0  0  0  0  0  0
  131.2550  130.6720   56.2610 N   0  0  0  0  0  0  0  0  0  0  0  0
  131.6480  130.8070   57.6060 C   0  0  0  0  0  0  0  0  0  0  0  0
  130.6070  130.9350   58.5300 C   0  0  0  0  0  0  0  0  0  0  0  0
  130.8850  131.0790   59.8870 C   0  0  0  0  0  0  0  0  0  0  0  0
  132.2070  131.0990   60.3220 C   0  0  0  0  0  0  0  0  0  0  0  0
  133.2530  130.9800   59.4110 C   0  0  0  0  0  0  0  0  0  0  0  0
  132.9800  130.8370   58.0530 C   0  0  0  0  0  0  0  0  0  0  0  0
  127.5613  127.5495   58.7859 H   0  0  0  0  0  0  0  0  0  0  0  0
  127.8367  130.7775   59.6060 H   0  0  0  0  0  0  0  0  0  0  0  0
  126.2531  132.0191   61.0646 H   0  0  0  0  0  0  0  0  0  0  0  0
  123.8061  131.9214   60.6098 H   0  0  0  0  0  0  0  0  0  0  0  0
  122.9389  130.5872   58.6958 H   0  0  0  0  0  0  0  0  0  0  0  0
  124.5199  129.3444   57.2323 H   0  0  0  0  0  0  0  0  0  0  0  0
  131.0688  130.3390   53.7796 H   0  0  0  0  0  0  0  0  0  0  0  0
  130.1685  131.8784   53.4327 H   0  0  0  0  0  0  0  0  0  0  0  0
  131.6770  129.8880   55.7860 H   0  0  0  0  0  0  0  0  0  0  0  0
  129.5631  130.9219   58.1836 H   0  0  0  0  0  0  0  0  0  0  0  0
  130.0634  131.1765   60.6119 H   0  0  0  0  0  0  0  0  0  0  0  0
  132.4271  131.2097   61.3941 H   0  0  0  0  0  0  0  0  0  0  0  0
  134.2947  130.9989   59.7638 H   0  0  0  0  0  0  0  0  0  0  0  0
  133.8055  130.7477   57.3315 H   0  0  0  0  0  0  0  0  0  0  0  0
  1  2  3  0
  2  3  1  0
  3  4  2  0
  4  5  1  0
  5  6  1  0
  5  7  1  0
  5  8  1  0
  4  9  1  0
  9 10  2  0
 10 11  1  0
 11 12  2  0
 12 13  1  0
 13 14  2  0
 14 15  1  0
 15 16  2  0
 10 17  1  0
 17 18  2  0
 18 19  1  0
 19 20  1  0
 20 21  1  0
 21 22  2  0
 21 23  1  0
 23 24  1  0
 24 25  2  0
 25 26  1  0
 26 27  2  0
 27 28  1  0
 28 29  2  0
 18  3  1  0
 29 24  1  0
 16 11  1  0
  9 30  1  0
 12 31  1  0
 13 32  1  0
 14 33  1  0
 15 34  1  0
 16 35  1  0
 20 36  1  0
 20 37  1  0
 23 38  1  0
 25 39  1  0
 26 40  1  0
 27 41  1  0
 28 42  1  0
 29 43  1  0
M  END
>  <Binding energies>  (1) 
[-8.2]

>  <Ligand effiencies>  (1) 
[-0.2733333333333333]

>  <Interactions>  (1) 
["H-B:TYR:531:OH:9767, V-B:MET:535:CE:9807, V-A:ASP:366:CG:3212, V-A:ILE:538:CG2:4863, V-A:PRO:540:CA:4883, H-A:TYR:531:OH:4795, H-A:TYR:539:N:4870, V-A:PRO:540:CB:4885, V-A:TYR:539:CE1:4875, V-A:TYR:531:CZ:4794, V-A:ILE:538:CB:4862, V-B:ASP:366:CG:8184, H-B:LYS:534:NZ:9795, V-B:ASP:366:CB:8183, V-B:ASP:366:CA:8181, V-A:LEU:363:CD1:3188, V-B:ASP:366:C:8179, V-A:LEU:363:CA:3184, V-B:ILE:369:CG2:8208, V-B:ILE:369:CB:8207"]

$$$$
3af_Grossjean_2025
     RDKit          3D

 42 44  0  0  0  0  0  0  0  0999 V2000
  126.7010  130.1180   54.3590 N   0  0  0  0  0  0  0  0  0  0  0  0
  127.4970  130.3160   55.1750 C   0  0  0  0  0  0  0  0  0  0  0  0
  128.5070  130.5670   56.2070 C   0  0  0  0  0  0  0  0  0  0  0  0
  129.8140  130.9810   55.8530 C   0  0  0  0  0  0  0  0  0  0  0  0
  130.2390  131.2390   54.3930 C   0  0  0  0  0  0  0  0  0  0  0  0
  131.5150  131.6160   54.2840 F   0  0  0  0  0  0  0  0  0  0  0  0
  130.0850  130.1280   53.6720 F   0  0  0  0  0  0  0  0  0  0  0  0
  129.4920  132.2080   53.8630 F   0  0  0  0  0  0  0  0  0  0  0  0
  130.7620  131.1560   56.8730 C   0  0  0  0  0  0  0  0  0  0  0  0
  130.4150  130.9220   58.2070 C   0  0  0  0  0  0  0  0  0  0  0  0
  131.3930  131.0750   59.3340 C   0  0  0  0  0  0  0  0  0  0  0  0
  132.7680  130.8870   59.1210 C   0  0  0  0  0  0  0  0  0  0  0  0
  133.6810  131.0300   60.1630 C   0  0  0  0  0  0  0  0  0  0  0  0
  133.2290  131.3640   61.4350 C   0  0  0  0  0  0  0  0  0  0  0  0
  131.8720  131.5590   61.6720 C   0  0  0  0  0  0  0  0  0  0  0  0
  130.9630  131.4160   60.6270 C   0  0  0  0  0  0  0  0  0  0  0  0
  129.1620  130.5210   58.5420 N   0  0  0  0  0  0  0  0  0  0  0  0
  128.2230  130.3680   57.5770 C   0  0  0  0  0  0  0  0  0  0  0  0
  126.6390  129.8530   58.2090 S   0  0  0  0  0  0  0  0  0  0  0  0
  126.5160  128.0490   58.0170 C   0  0  0  0  0  0  0  0  0  0  0  0
  127.8910  127.3820   58.0180 C   0  0  0  0  0  0  0  0  0  0  0  0
  128.3560  126.9680   59.0790 O   0  0  0  0  0  0  0  0  0  0  0  0
  128.5000  127.3100   56.8140 N   0  0  0  0  0  0  0  0  0  0  0  0
  129.7560  126.7730   56.4730 C   0  0  0  0  0  0  0  0  0  0  0  0
  130.7720  126.4210   57.3810 C   0  0  0  0  0  0  0  0  0  0  0  0
  131.9760  125.8980   56.9020 C   0  0  0  0  0  0  0  0  0  0  0  0
  132.1350  125.7400   55.5250 C   0  0  0  0  0  0  0  0  0  0  0  0
  131.1720  126.0710   54.6300 N   0  0  0  0  0  0  0  0  0  0  0  0
  130.0080  126.5780   55.1110 C   0  0  0  0  0  0  0  0  0  0  0  0
  131.7831  131.4789   56.6216 H   0  0  0  0  0  0  0  0  0  0  0  0
  133.1295  130.6229   58.1162 H   0  0  0  0  0  0  0  0  0  0  0  0
  134.7553  130.8794   59.9805 H   0  0  0  0  0  0  0  0  0  0  0  0
  133.9491  131.4747   62.2592 H   0  0  0  0  0  0  0  0  0  0  0  0
  131.5191  131.8247   62.6794 H   0  0  0  0  0  0  0  0  0  0  0  0
  129.8909  131.5726   60.8171 H   0  0  0  0  0  0  0  0  0  0  0  0
  125.9226  127.6422   58.8491 H   0  0  0  0  0  0  0  0  0  0  0  0
  126.0361  127.8405   57.0494 H   0  0  0  0  0  0  0  0  0  0  0  0
  127.9860  127.6890   56.0330 H   0  0  0  0  0  0  0  0  0  0  0  0
  130.6192  126.5568   58.4618 H   0  0  0  0  0  0  0  0  0  0  0  0
  132.7816  125.6167   57.5962 H   0  0  0  0  0  0  0  0  0  0  0  0
  133.0834  125.3288   55.1489 H   0  0  0  0  0  0  0  0  0  0  0  0
  129.2215  126.8498   54.3916 H   0  0  0  0  0  0  0  0  0  0  0  0
  1  2  3  0
  2  3  1  0
  3  4  2  0
  4  5  1  0
  5  6  1  0
  5  7  1  0
  5  8  1  0
  4  9  1  0
  9 10  2  0
 10 11  1  0
 11 12  2  0
 12 13  1  0
 13 14  2  0
 14 15  1  0
 15 16  2  0
 10 17  1  0
 17 18  2  0
 18 19  1  0
 19 20  1  0
 20 21  1  0
 21 22  2  0
 21 23  1  0
 23 24  1  0
 24 25  2  0
 25 26  1  0
 26 27  2  0
 27 28  1  0
 28 29  2  0
 18  3  1  0
 29 24  1  0
 16 11  1  0
  9 30  1  0
 12 31  1  0
 13 32  1  0
 14 33  1  0
 15 34  1  0
 16 35  1  0
 20 36  1  0
 20 37  1  0
 23 38  1  0
 25 39  1  0
 26 40  1  0
 27 41  1  0
 29 42  1  0
M  END
>  <Binding energies>  (1) 
[-7.92]

>  <Ligand effiencies>  (1) 
[-0.264]

>  <Interactions>  (1) 
["H-B:TYR:531:OH:9767, V-B:TYR:531:CZ:9766, V-A:ASP:366:CG:3212, V-A:TYR:531:CE1:4792, V-A:ILE:538:CA:4860, V-A:MET:535:CB:4832, V-A:ASP:366:CB:3211, V-A:ILE:538:CG2:4863, V-A:ASN:370:CB:3244, H-B:TYR:539:OH:9850, V-A:PRO:540:CA:4883, H-A:TYR:531:OH:4795, V-A:TYR:539:CZ:4877, V-A:PRO:540:CB:4885, V-A:TYR:539:CE1:4875, V-A:TYR:531:CZ:4794, V-A:ILE:538:CB:4862, V-A:MET:535:CG:4833, V-B:TYR:531:CE1:9764, H-B:LYS:534:NZ:9795, V-A:PRO:540:C:4881, V-A:GLU:543:CD:4908, H-A:TYR:539:OH:4878, V-A:ILE:538:C:4858, V-A:TYR:531:CE2:4793, V-A:LEU:363:CA:3184, V-A:ASN:362:CB:3175, V-A:ASN:362:C:3171, V-A:ALA:541:CA:4890, V-A:VAL:537:C:4850"]

$$$$
3ag_Grossjean_2025
     RDKit          3D

 46 48  0  0  0  0  0  0  0  0999 V2000
  127.0050  126.2300   58.6230 N   0  0  0  0  0  0  0  0  0  0  0  0
  127.6060  125.2920   58.9390 C   0  0  0  0  0  0  0  0  0  0  0  0
  128.3620  124.1030   59.3410 C   0  0  0  0  0  0  0  0  0  0  0  0
  127.8240  123.1830   60.2730 C   0  0  0  0  0  0  0  0  0  0  0  0
  126.4110  123.3350   60.8710 C   0  0  0  0  0  0  0  0  0  0  0  0
  125.4470  123.2290   59.9540 F   0  0  0  0  0  0  0  0  0  0  0  0
  126.2020  122.3890   61.7860 F   0  0  0  0  0  0  0  0  0  0  0  0
  126.2820  124.5310   61.4480 F   0  0  0  0  0  0  0  0  0  0  0  0
  128.6090  122.0890   60.6670 C   0  0  0  0  0  0  0  0  0  0  0  0
  129.9000  121.9250   60.1540 C   0  0  0  0  0  0  0  0  0  0  0  0
  130.7830  120.7770   60.5410 C   0  0  0  0  0  0  0  0  0  0  0  0
  130.2430  119.6280   61.1410 C   0  0  0  0  0  0  0  0  0  0  0  0
  131.0570  118.5590   61.5040 C   0  0  0  0  0  0  0  0  0  0  0  0
  132.4270  118.6240   61.2700 C   0  0  0  0  0  0  0  0  0  0  0  0
  132.9880  119.7520   60.6790 C   0  0  0  0  0  0  0  0  0  0  0  0
  132.1710  120.8200   60.3200 C   0  0  0  0  0  0  0  0  0  0  0  0
  130.4080  122.8020   59.2500 N   0  0  0  0  0  0  0  0  0  0  0  0
  129.6600  123.8550   58.8410 C   0  0  0  0  0  0  0  0  0  0  0  0
  130.4840  124.8940   57.6550 S   0  0  0  0  0  0  0  0  0  0  0  0
  129.3680  125.0830   56.2330 C   0  0  0  0  0  0  0  0  0  0  0  0
  129.8600  126.1470   55.2500 C   0  0  0  0  0  0  0  0  0  0  0  0
  131.0380  126.1480   54.8850 O   0  0  0  0  0  0  0  0  0  0  0  0
  128.9470  127.0380   54.8270 N   0  0  0  0  0  0  0  0  0  0  0  0
  129.1910  128.1120   53.8640 C   0  0  0  0  0  0  0  0  0  0  0  0
  129.1590  129.5100   54.4710 C   0  0  0  0  0  0  0  0  0  0  0  0
  129.1420  130.6290   53.6340 C   0  0  0  0  0  0  0  0  0  0  0  0
  129.0820  131.9080   54.1840 C   0  0  0  0  0  0  0  0  0  0  0  0
  129.0300  132.0610   55.5680 C   0  0  0  0  0  0  0  0  0  0  0  0
  129.0310  130.9500   56.4070 C   0  0  0  0  0  0  0  0  0  0  0  0
  129.0900  129.6710   55.8580 C   0  0  0  0  0  0  0  0  0  0  0  0
  128.2073  121.3567   61.3828 H   0  0  0  0  0  0  0  0  0  0  0  0
  129.1603  119.5719   61.3269 H   0  0  0  0  0  0  0  0  0  0  0  0
  130.6189  117.6662   61.9741 H   0  0  0  0  0  0  0  0  0  0  0  0
  133.0707  117.7784   61.5540 H   0  0  0  0  0  0  0  0  0  0  0  0
  134.0717  119.7993   60.4965 H   0  0  0  0  0  0  0  0  0  0  0  0
  132.6180  121.7116   59.8562 H   0  0  0  0  0  0  0  0  0  0  0  0
  129.2984  124.1196   55.7067 H   0  0  0  0  0  0  0  0  0  0  0  0
  128.3868  125.4028   56.6138 H   0  0  0  0  0  0  0  0  0  0  0  0
  128.0010  126.9570   55.1700 H   0  0  0  0  0  0  0  0  0  0  0  0
  130.1818  127.9535   53.4132 H   0  0  0  0  0  0  0  0  0  0  0  0
  128.3769  128.0676   53.1256 H   0  0  0  0  0  0  0  0  0  0  0  0
  129.1759  130.5003   52.5421 H   0  0  0  0  0  0  0  0  0  0  0  0
  129.0757  132.7919   53.5292 H   0  0  0  0  0  0  0  0  0  0  0  0
  128.9877  133.0707   56.0024 H   0  0  0  0  0  0  0  0  0  0  0  0
  128.9854  131.0815   57.4982 H   0  0  0  0  0  0  0  0  0  0  0  0
  129.0823  128.7888   56.5151 H   0  0  0  0  0  0  0  0  0  0  0  0
  1  2  3  0
  2  3  1  0
  3  4  2  0
  4  5  1  0
  5  6  1  0
  5  7  1  0
  5  8  1  0
  4  9  1  0
  9 10  2  0
 10 11  1  0
 11 12  2  0
 12 13  1  0
 13 14  2  0
 14 15  1  0
 15 16  2  0
 10 17  1  0
 17 18  2  0
 18 19  1  0
 19 20  1  0
 20 21  1  0
 21 22  2  0
 21 23  1  0
 23 24  1  0
 24 25  1  0
 25 26  2  0
 26 27  1  0
 27 28  2  0
 28 29  1  0
 29 30  2  0
 18  3  1  0
 30 25  1  0
 16 11  1  0
  9 31  1  0
 12 32  1  0
 13 33  1  0
 14 34  1  0
 15 35  1  0
 16 36  1  0
 20 37  1  0
 20 38  1  0
 23 39  1  0
 24 40  1  0
 24 41  1  0
 26 42  1  0
 27 43  1  0
 28 44  1  0
 29 45  1  0
 30 46  1  0
M  END
>  <Binding energies>  (1) 
[-8.12]

>  <Ligand effiencies>  (1) 
[-0.2619354838709677]

>  <Interactions>  (1) 
["V-B:PRO:540:CB:9857, H-B:TYR:531:OH:9767, V-B:MET:535:CE:9807, V-A:ILE:369:CG2:3236, V-B:TYR:539:CD2:9846, V-A:LEU:475:CD1:4257, V-B:PRO:540:CA:9855, V-B:PRO:540:C:9853, V-B:ALA:541:CB:9864, V-B:TYR:539:CE2:9848, V-B:TYR:539:C:9839, V-A:PRO:482:CG:4326, V-A:PRO:482:CB:4325, V-A:ILE:538:CA:4860, V-A:TYR:539:CG:4872, V-A:ILE:538:CG2:4863, H-B:TYR:539:OH:9850, V-A:TYR:539:CD1:4873, H-A:TYR:531:OH:4795, V-A:TYR:539:CZ:4877, V-A:TYR:539:CE1:4875, V-A:ILE:538:CB:4862, V-A:MET:535:CG:4833, V-B:GLU:543:CD:9880, H-B:MET:535:SD:9806, V-B:LYS:534:CE:9794, V-B:ALA:541:CA:9862, V-A:MET:535:CE:4835, V-B:ALA:541:C:9860"]

$$$$
3ai_Grossjean_2025
     RDKit          3D

 39 41  0  0  0  0  0  0  0  0999 V2000
  127.2090  126.5470   62.6950 N   0  0  0  0  0  0  0  0  0  0  0  0
  127.7970  125.5660   62.5200 C   0  0  0  0  0  0  0  0  0  0  0  0
  128.5430  124.3230   62.2990 C   0  0  0  0  0  0  0  0  0  0  0  0
  129.9130  124.2290   62.6450 C   0  0  0  0  0  0  0  0  0  0  0  0
  130.6850  125.3880   63.3060 C   0  0  0  0  0  0  0  0  0  0  0  0
  131.9710  125.0990   63.5180 F   0  0  0  0  0  0  0  0  0  0  0  0
  130.6390  126.4690   62.5250 F   0  0  0  0  0  0  0  0  0  0  0  0
  130.1440  125.6850   64.4870 F   0  0  0  0  0  0  0  0  0  0  0  0
  130.5940  123.0340   62.3690 C   0  0  0  0  0  0  0  0  0  0  0  0
  129.9290  121.9640   61.7630 C   0  0  0  0  0  0  0  0  0  0  0  0
  130.6090  120.6690   61.4360 C   0  0  0  0  0  0  0  0  0  0  0  0
  131.9690  120.6420   61.0870 C   0  0  0  0  0  0  0  0  0  0  0  0
  132.6080  119.4430   60.7870 C   0  0  0  0  0  0  0  0  0  0  0  0
  131.8950  118.2500   60.8330 C   0  0  0  0  0  0  0  0  0  0  0  0
  130.5480  118.2480   61.1790 C   0  0  0  0  0  0  0  0  0  0  0  0
  129.9110  119.4490   61.4790 C   0  0  0  0  0  0  0  0  0  0  0  0
  128.6170  122.0610   61.4260 N   0  0  0  0  0  0  0  0  0  0  0  0
  127.9320  123.1960   61.7040 C   0  0  0  0  0  0  0  0  0  0  0  0
  126.2220  123.1310   61.2100 S   0  0  0  0  0  0  0  0  0  0  0  0
  125.9010  124.5550   60.1150 C   0  0  0  0  0  0  0  0  0  0  0  0
  125.6200  124.1950   58.6480 C   0  0  0  0  0  0  0  0  0  0  0  0
  124.9520  124.9440   57.9320 O   0  0  0  0  0  0  0  0  0  0  0  0
  126.1560  123.0220   58.2430 N   0  0  0  0  0  0  0  0  0  0  0  0
  126.0710  122.4500   56.9800 C   0  0  0  0  0  0  0  0  0  0  0  0
  125.0670  122.7660   56.0660 C   0  0  0  0  0  0  0  0  0  0  0  0
  125.3340  121.9960   54.9580 C   0  0  0  0  0  0  0  0  0  0  0  0
  126.4430  121.2550   55.1920 O   0  0  0  0  0  0  0  0  0  0  0  0
  126.9010  121.5520   56.4760 N   0  0  0  0  0  0  0  0  0  0  0  0
  131.6580  122.9383   62.6311 H   0  0  0  0  0  0  0  0  0  0  0  0
  132.5376  121.5829   61.0503 H   0  0  0  0  0  0  0  0  0  0  0  0
  133.6737  119.4388   60.5143 H   0  0  0  0  0  0  0  0  0  0  0  0
  132.3995  117.3021   60.5943 H   0  0  0  0  0  0  0  0  0  0  0  0
  129.9884  117.3017   61.2155 H   0  0  0  0  0  0  0  0  0  0  0  0
  128.8459  119.4435   61.7538 H   0  0  0  0  0  0  0  0  0  0  0  0
  125.0276  125.0968   60.5068 H   0  0  0  0  0  0  0  0  0  0  0  0
  126.8225  125.1557   60.1133 H   0  0  0  0  0  0  0  0  0  0  0  0
  126.6830  122.4940   58.9230 H   0  0  0  0  0  0  0  0  0  0  0  0
  124.2394  123.4779   56.2017 H   0  0  0  0  0  0  0  0  0  0  0  0
  124.7420  121.9841   54.0310 H   0  0  0  0  0  0  0  0  0  0  0  0
  1  2  3  0
  2  3  1  0
  3  4  2  0
  4  5  1  0
  5  6  1  0
  5  7  1  0
  5  8  1  0
  4  9  1  0
  9 10  2  0
 10 11  1  0
 11 12  2  0
 12 13  1  0
 13 14  2  0
 14 15  1  0
 15 16  2  0
 10 17  1  0
 17 18  2  0
 18 19  1  0
 19 20  1  0
 20 21  1  0
 21 22  2  0
 21 23  1  0
 23 24  1  0
 24 25  1  0
 25 26  2  0
 26 27  1  0
 27 28  1  0
 18  3  1  0
 28 24  2  0
 16 11  1  0
  9 29  1  0
 12 30  1  0
 13 31  1  0
 14 32  1  0
 15 33  1  0
 16 34  1  0
 20 35  1  0
 20 36  1  0
 23 37  1  0
 25 38  1  0
 26 39  1  0
M  END
>  <Binding energies>  (1) 
[-8.03]

>  <Ligand effiencies>  (1) 
[-0.2768965517241379]

>  <Interactions>  (1) 
["H-B:ALA:541:N:9863, V-B:PRO:540:CB:9857, H-B:TYR:531:OH:9767, V-B:MET:535:CE:9807, V-B:PRO:540:N:9856, V-A:LEU:475:CD1:4257, V-B:PRO:540:CA:9855, V-B:PRO:540:C:9853, H-B:TYR:539:N:9842, V-B:ALA:541:CB:9864, V-B:MET:535:CG:9805, V-B:TYR:531:CE2:9765, V-A:PRO:482:CG:4326, V-A:PRO:482:CB:4325, V-B:LEU:363:CD1:8160, V-B:PRO:540:CD:9859, H-B:ARG:545:NH2:9900, H-B:TYR:539:O:9840, V-B:GLU:543:CD:9880, V-B:ILE:538:CA:9832, V-B:ILE:538:CG1:9836, V-B:ILE:538:CG2:9835, V-B:ILE:538:CB:9834, V-B:ALA:541:CA:9862, V-B:MET:535:CB:9804"]

$$$$
3aj_Grossjean_2025
     RDKit          3D

 39 41  0  0  0  0  0  0  0  0999 V2000
  131.0150  126.1280   54.3490 N   0  0  0  0  0  0  0  0  0  0  0  0
  130.2470  126.6950   55.0030 C   0  0  0  0  0  0  0  0  0  0  0  0
  129.2760  127.4120   55.8340 C   0  0  0  0  0  0  0  0  0  0  0  0
  128.7930  126.8420   57.0380 C   0  0  0  0  0  0  0  0  0  0  0  0
  129.2790  125.4780   57.5660 C   0  0  0  0  0  0  0  0  0  0  0  0
  129.0240  124.4760   56.7210 F   0  0  0  0  0  0  0  0  0  0  0  0
  130.5970  125.5100   57.7670 F   0  0  0  0  0  0  0  0  0  0  0  0
  128.6720  125.1930   58.7180 F   0  0  0  0  0  0  0  0  0  0  0  0
  127.8280  127.5470   57.7730 C   0  0  0  0  0  0  0  0  0  0  0  0
  127.3560  128.7830   57.3180 C   0  0  0  0  0  0  0  0  0  0  0  0
  126.3200  129.5720   58.0590 C   0  0  0  0  0  0  0  0  0  0  0  0
  125.0880  129.8770   57.4600 C   0  0  0  0  0  0  0  0  0  0  0  0
  124.1190  130.6070   58.1440 C   0  0  0  0  0  0  0  0  0  0  0  0
  124.3710  131.0440   59.4400 C   0  0  0  0  0  0  0  0  0  0  0  0
  125.5840  130.7540   60.0570 C   0  0  0  0  0  0  0  0  0  0  0  0
  126.5490  130.0230   59.3700 C   0  0  0  0  0  0  0  0  0  0  0  0
  127.8160  129.3210   56.1600 N   0  0  0  0  0  0  0  0  0  0  0  0
  128.7650  128.6720   55.4450 C   0  0  0  0  0  0  0  0  0  0  0  0
  129.2620  129.5380   53.9720 S   0  0  0  0  0  0  0  0  0  0  0  0
  129.3480  131.3170   54.3720 C   0  0  0  0  0  0  0  0  0  0  0  0
  130.0940  131.6550   55.6710 C   0  0  0  0  0  0  0  0  0  0  0  0
  129.8770  132.7140   56.2660 O   0  0  0  0  0  0  0  0  0  0  0  0
  130.9740  130.7140   56.0770 N   0  0  0  0  0  0  0  0  0  0  0  0
  131.7720  130.7600   57.2130 C   0  0  0  0  0  0  0  0  0  0  0  0
  133.0740  130.5910   57.2930 N   0  0  0  0  0  0  0  0  0  0  0  0
  133.5040  130.7070   58.5340 C   0  0  0  0  0  0  0  0  0  0  0  0
  132.5350  130.9760   59.4980 C   0  0  0  0  0  0  0  0  0  0  0  0
  130.9820  131.0800   58.7250 S   0  0  0  0  0  0  0  0  0  0  0  0
  127.4403  127.1256   58.7122 H   0  0  0  0  0  0  0  0  0  0  0  0
  124.8846  129.5343   56.4347 H   0  0  0  0  0  0  0  0  0  0  0  0
  123.1579  130.8371   57.6609 H   0  0  0  0  0  0  0  0  0  0  0  0
  123.6070  131.6222   59.9804 H   0  0  0  0  0  0  0  0  0  0  0  0
  125.7793  131.1007   61.0825 H   0  0  0  0  0  0  0  0  0  0  0  0
  127.5063  129.7947   59.8613 H   0  0  0  0  0  0  0  0  0  0  0  0
  129.8579  131.8289   53.5426 H   0  0  0  0  0  0  0  0  0  0  0  0
  128.3098  131.6496   54.5184 H   0  0  0  0  0  0  0  0  0  0  0  0
  131.0630  129.8830   55.5110 H   0  0  0  0  0  0  0  0  0  0  0  0
  134.5674  130.5976   58.7934 H   0  0  0  0  0  0  0  0  0  0  0  0
  132.7225  131.1022   60.5745 H   0  0  0  0  0  0  0  0  0  0  0  0
  1  2  3  0
  2  3  1  0
  3  4  2  0
  4  5  1  0
  5  6  1  0
  5  7  1  0
  5  8  1  0
  4  9  1  0
  9 10  2  0
 10 11  1  0
 11 12  2  0
 12 13  1  0
 13 14  2  0
 14 15  1  0
 15 16  2  0
 10 17  1  0
 17 18  2  0
 18 19  1  0
 19 20  1  0
 20 21  1  0
 21 22  2  0
 21 23  1  0
 23 24  1  0
 24 25  2  0
 25 26  1  0
 26 27  2  0
 27 28  1  0
 18  3  1  0
 28 24  1  0
 16 11  1  0
  9 29  1  0
 12 30  1  0
 13 31  1  0
 14 32  1  0
 15 33  1  0
 16 34  1  0
 20 35  1  0
 20 36  1  0
 23 37  1  0
 26 38  1  0
 27 39  1  0
M  END
>  <Binding energies>  (1) 
[-7.72]

>  <Ligand effiencies>  (1) 
[-0.26620689655172414]

>  <Interactions>  (1) 
["H-B:TYR:531:OH:9767, V-B:MET:535:CE:9807, V-A:ASP:366:CG:3212, V-A:ILE:538:CA:4860, V-A:ASP:366:CB:3211, V-A:ILE:538:CG2:4863, H-B:TYR:539:OH:9850, V-A:PRO:540:CA:4883, H-A:TYR:531:OH:4795, H-A:TYR:539:N:4870, V-A:TYR:539:CZ:4877, V-A:PRO:540:CB:4885, V-A:TYR:539:CE1:4875, V-A:TYR:531:CZ:4794, V-B:ASP:366:CB:8183, V-B:ASP:366:CA:8181, V-A:LEU:363:CD1:3188, V-B:ASP:366:C:8179, V-B:TYR:539:CZ:9849, V-A:LEU:363:CA:3184, V-A:LEU:363:CB:3186, V-B:ILE:369:CG2:8208, V-B:ILE:369:CB:8207"]

$$$$
3ak_Grossjean_2025
     RDKit          3D

 57 58  0  0  0  0  0  0  0  0999 V2000
  131.4620  132.0230   55.8670 C   0  0  0  0  0  0  0  0  0  0  0  0
  130.2790  132.7730   56.0930 O   0  0  0  0  0  0  0  0  0  0  0  0
  129.0910  132.0020   55.9780 C   0  0  0  0  0  0  0  0  0  0  0  0
  128.7560  131.8200   54.4930 C   0  0  0  0  0  0  0  0  0  0  0  0
  127.6460  130.9360   54.3740 O   0  0  0  0  0  0  0  0  0  0  0  0
  127.8650  129.6080   54.8400 C   0  0  0  0  0  0  0  0  0  0  0  0
  129.0720  128.9120   54.1850 C   0  0  0  0  0  0  0  0  0  0  0  0
  128.8250  127.5140   54.1170 O   0  0  0  0  0  0  0  0  0  0  0  0
  129.8550  126.7180   54.6890 C   0  0  0  0  0  0  0  0  0  0  0  0
  129.7410  126.7260   56.2240 C   0  0  0  0  0  0  0  0  0  0  0  0
  130.7050  125.8460   56.8880 N   0  0  0  0  0  0  0  0  0  0  0  0
  131.9670  125.6090   56.4830 C   0  0  0  0  0  0  0  0  0  0  0  0
  132.4590  126.1420   55.4870 O   0  0  0  0  0  0  0  0  0  0  0  0
  132.8350  124.6320   57.2940 C   0  0  0  0  0  0  0  0  0  0  0  0
  132.5820  124.6270   59.1070 S   0  0  0  0  0  0  0  0  0  0  0  0
  131.3260  123.4210   59.5080 C   0  0  0  0  0  0  0  0  0  0  0  0
  130.1420  123.5720   58.8640 N   0  0  0  0  0  0  0  0  0  0  0  0
  129.1240  122.7090   59.1070 C   0  0  0  0  0  0  0  0  0  0  0  0
  127.8510  122.9490   58.3510 C   0  0  0  0  0  0  0  0  0  0  0  0
  127.0300  124.0460   58.6570 C   0  0  0  0  0  0  0  0  0  0  0  0
  125.8490  124.2760   57.9560 C   0  0  0  0  0  0  0  0  0  0  0  0
  125.4730  123.4100   56.9350 C   0  0  0  0  0  0  0  0  0  0  0  0
  126.2690  122.3180   56.6090 C   0  0  0  0  0  0  0  0  0  0  0  0
  127.4500  122.0910   57.3110 C   0  0  0  0  0  0  0  0  0  0  0  0
  129.2810  121.6470   60.0040 C   0  0  0  0  0  0  0  0  0  0  0  0
  130.4960  121.4680   60.6820 C   0  0  0  0  0  0  0  0  0  0  0  0
  130.6310  120.2880   61.6650 C   0  0  0  0  0  0  0  0  0  0  0  0
  130.6290  120.7380   62.9200 F   0  0  0  0  0  0  0  0  0  0  0  0
  129.6120  119.4420   61.5070 F   0  0  0  0  0  0  0  0  0  0  0  0
  131.7580  119.5940   61.4890 F   0  0  0  0  0  0  0  0  0  0  0  0
  131.5510  122.3780   60.4320 C   0  0  0  0  0  0  0  0  0  0  0  0
  132.8430  122.2390   61.1120 C   0  0  0  0  0  0  0  0  0  0  0  0
  133.8630  122.1310   61.6500 N   0  0  0  0  0  0  0  0  0  0  0  0
  131.9072  131.7407   56.8324 H   0  0  0  0  0  0  0  0  0  0  0  0
  131.2171  131.1149   55.2967 H   0  0  0  0  0  0  0  0  0  0  0  0
  132.1789  132.6320   55.2967 H   0  0  0  0  0  0  0  0  0  0  0  0
  129.2434  131.0178   56.4450 H   0  0  0  0  0  0  0  0  0  0  0  0
  128.2625  132.5179   56.4854 H   0  0  0  0  0  0  0  0  0  0  0  0
  128.5010  132.7941   54.0502 H   0  0  0  0  0  0  0  0  0  0  0  0
  129.6245  131.3999   53.9645 H   0  0  0  0  0  0  0  0  0  0  0  0
  128.0331  129.6448   55.9265 H   0  0  0  0  0  0  0  0  0  0  0  0
  126.9729  129.0228   54.5722 H   0  0  0  0  0  0  0  0  0  0  0  0
  129.2196  129.3093   53.1699 H   0  0  0  0  0  0  0  0  0  0  0  0
  129.9759  129.0989   54.7833 H   0  0  0  0  0  0  0  0  0  0  0  0
  129.7618  125.6849   54.3229 H   0  0  0  0  0  0  0  0  0  0  0  0
  130.8320  127.1319   54.3990 H   0  0  0  0  0  0  0  0  0  0  0  0
  129.9060  127.7538   56.5796 H   0  0  0  0  0  0  0  0  0  0  0  0
  128.7372  126.3526   56.4749 H   0  0  0  0  0  0  0  0  0  0  0  0
  130.3810  125.3860   57.7260 H   0  0  0  0  0  0  0  0  0  0  0  0
  132.6290  123.6164   56.9250 H   0  0  0  0  0  0  0  0  0  0  0  0
  133.8710  124.9705   57.1454 H   0  0  0  0  0  0  0  0  0  0  0  0
  127.3242  124.7344   59.4629 H   0  0  0  0  0  0  0  0  0  0  0  0
  125.2160  125.1393   58.2089 H   0  0  0  0  0  0  0  0  0  0  0  0
  124.5395  123.5903   56.3817 H   0  0  0  0  0  0  0  0  0  0  0  0
  125.9673  121.6363   55.8001 H   0  0  0  0  0  0  0  0  0  0  0  0
  128.0789  121.2276   57.0482 H   0  0  0  0  0  0  0  0  0  0  0  0
  128.4484  120.9495   60.1784 H   0  0  0  0  0  0  0  0  0  0  0  0
  1  2  1  0
  2  3  1  0
  3  4  1  0
  4  5  1  0
  5  6  1  0
  6  7  1  0
  7  8  1  0
  8  9  1  0
  9 10  1  0
 10 11  1  0
 11 12  1  0
 12 13  2  0
 12 14  1  0
 14 15  1  0
 15 16  1  0
 16 17  2  0
 17 18  1  0
 18 19  1  0
 19 20  2  0
 20 21  1  0
 21 22  2  0
 22 23  1  0
 23 24  2  0
 18 25  2  0
 25 26  1  0
 26 27  1  0
 27 28  1  0
 27 29  1  0
 27 30  1  0
 26 31  2  0
 31 32  1  0
 32 33  3  0
 31 16  1  0
 24 19  1  0
  1 34  1  0
  1 35  1  0
  1 36  1  0
  3 37  1  0
  3 38  1  0
  4 39  1  0
  4 40  1  0
  6 41  1  0
  6 42  1  0
  7 43  1  0
  7 44  1  0
  9 45  1  0
  9 46  1  0
 10 47  1  0
 10 48  1  0
 11 49  1  0
 14 50  1  0
 14 51  1  0
 20 52  1  0
 21 53  1  0
 22 54  1  0
 23 55  1  0
 24 56  1  0
 25 57  1  0
M  END
>  <Binding energies>  (1) 
[-7.9]

>  <Ligand effiencies>  (1) 
[-0.2323529411764706]

>  <Interactions>  (1) 
["H-B:TYR:531:OH:9767, V-B:MET:535:CE:9807, V-B:TYR:539:CD2:9846, V-B:PRO:540:N:9856, V-A:LEU:475:CD1:4257, V-B:PRO:540:CA:9855, V-B:PRO:540:C:9853, V-B:ALA:541:CB:9864, V-B:TYR:539:CE2:9848, V-B:TYR:539:C:9839, V-B:TYR:531:CE2:9765, V-A:PRO:482:CG:4326, V-B:LEU:363:CD1:8160, V-B:TYR:539:CA:9841, V-B:PRO:540:CD:9859, V-A:ILE:538:CA:4860, V-A:ASP:366:CA:3209, V-A:ASP:366:CB:3211, V-A:TYR:539:CG:4872, V-A:ILE:538:CG2:4863, V-A:ASP:366:C:3207, H-B:TYR:539:OH:9850, V-A:TYR:539:CD1:4873, V-A:TYR:539:CE2:4876, H-A:TYR:531:OH:4795, H-A:TYR:539:N:4870, V-A:TYR:539:CZ:4877, V-A:TYR:539:CE1:4875, V-A:ILE:538:CB:4862, V-B:TYR:531:CE1:9764, H-B:LYS:534:NZ:9795, V-A:PRO:540:CD:4887, V-A:LEU:363:CD1:3188, V-B:TYR:539:CZ:9849, H-A:TYR:539:OH:4878, V-B:ALA:541:CA:9862, V-A:MET:535:CE:4835"]

$$$$
3bc_Grossjean_2025
     RDKit          3D

 47 49  0  0  0  0  0  0  0  0999 V2000
  132.6530  131.7500   61.6690 C   0  0  0  0  0  0  0  0  0  0  0  0
  133.4000  131.1180   60.6360 O   0  0  0  0  0  0  0  0  0  0  0  0
  132.8330  130.9820   59.3820 C   0  0  0  0  0  0  0  0  0  0  0  0
  131.4750  131.2840   59.2780 C   0  0  0  0  0  0  0  0  0  0  0  0
  130.8160  131.1760   58.0560 C   0  0  0  0  0  0  0  0  0  0  0  0
  131.5090  130.7560   56.9190 C   0  0  0  0  0  0  0  0  0  0  0  0
  130.7620  130.6900   55.7280 N   0  0  0  0  0  0  0  0  0  0  0  0
  129.7880  131.5130   55.2860 C   0  0  0  0  0  0  0  0  0  0  0  0
  129.4070  132.5280   55.8730 O   0  0  0  0  0  0  0  0  0  0  0  0
  129.1820  131.1210   53.9310 C   0  0  0  0  0  0  0  0  0  0  0  0
  128.7920  129.3490   53.7390 S   0  0  0  0  0  0  0  0  0  0  0  0
  128.5550  128.6660   55.3640 C   0  0  0  0  0  0  0  0  0  0  0  0
  127.6190  129.3160   56.0990 N   0  0  0  0  0  0  0  0  0  0  0  0
  127.3370  128.8970   57.3600 C   0  0  0  0  0  0  0  0  0  0  0  0
  126.3050  129.6840   58.1120 C   0  0  0  0  0  0  0  0  0  0  0  0
  126.6010  130.2370   59.3670 C   0  0  0  0  0  0  0  0  0  0  0  0
  125.6480  130.9690   60.0720 C   0  0  0  0  0  0  0  0  0  0  0  0
  124.3820  131.1550   59.5280 C   0  0  0  0  0  0  0  0  0  0  0  0
  124.0610  130.6150   58.2880 C   0  0  0  0  0  0  0  0  0  0  0  0
  125.0170  129.8830   57.5870 C   0  0  0  0  0  0  0  0  0  0  0  0
  127.9990  127.7980   57.9170 C   0  0  0  0  0  0  0  0  0  0  0  0
  128.9510  127.1010   57.1640 C   0  0  0  0  0  0  0  0  0  0  0  0
  129.6370  125.8970   57.8070 C   0  0  0  0  0  0  0  0  0  0  0  0
  129.2390  127.5280   55.8490 C   0  0  0  0  0  0  0  0  0  0  0  0
  130.1950  126.7850   55.0260 C   0  0  0  0  0  0  0  0  0  0  0  0
  130.9510  126.1960   54.3780 N   0  0  0  0  0  0  0  0  0  0  0  0
  132.8770  130.4630   57.0120 C   0  0  0  0  0  0  0  0  0  0  0  0
  133.5330  130.5720   58.2360 C   0  0  0  0  0  0  0  0  0  0  0  0
  133.0353  131.4265   62.6484 H   0  0  0  0  0  0  0  0  0  0  0  0
  132.7532  132.8417   61.5786 H   0  0  0  0  0  0  0  0  0  0  0  0
  131.5930  131.4704   61.5786 H   0  0  0  0  0  0  0  0  0  0  0  0
  130.9196  131.6105   60.1696 H   0  0  0  0  0  0  0  0  0  0  0  0
  129.7462  131.4223   57.9863 H   0  0  0  0  0  0  0  0  0  0  0  0
  131.0450  129.9520   55.0990 H   0  0  0  0  0  0  0  0  0  0  0  0
  128.2508  131.6910   53.7968 H   0  0  0  0  0  0  0  0  0  0  0  0
  129.9488  131.3487   53.1759 H   0  0  0  0  0  0  0  0  0  0  0  0
  127.6010  130.0903   59.8011 H   0  0  0  0  0  0  0  0  0  0  0  0
  125.8959  131.3977   61.0542 H   0  0  0  0  0  0  0  0  0  0  0  0
  123.6289  131.7337   60.0830 H   0  0  0  0  0  0  0  0  0  0  0  0
  123.0577  130.7648   57.8625 H   0  0  0  0  0  0  0  0  0  0  0  0
  124.7594  129.4542   56.6073 H   0  0  0  0  0  0  0  0  0  0  0  0
  127.7717  127.4818   58.9458 H   0  0  0  0  0  0  0  0  0  0  0  0
  129.5856  125.9873   58.9021 H   0  0  0  0  0  0  0  0  0  0  0  0
  129.1293  124.9737   57.4910 H   0  0  0  0  0  0  0  0  0  0  0  0
  130.6901  125.8630   57.4910 H   0  0  0  0  0  0  0  0  0  0  0  0
  133.4330  130.1466   56.1171 H   0  0  0  0  0  0  0  0  0  0  0  0
  134.6051  130.3356   58.3051 H   0  0  0  0  0  0  0  0  0  0  0  0
  1  2  1  0
  2  3  1  0
  3  4  2  0
  4  5  1  0
  5  6  2  0
  6  7  1  0
  7  8  1  0
  8  9  2  0
  8 10  1  0
 10 11  1  0
 11 12  1  0
 12 13  2  0
 13 14  1  0
 14 15  1  0
 15 16  2  0
 16 17  1  0
 17 18  2  0
 18 19  1  0
 19 20  2  0
 14 21  2  0
 21 22  1  0
 22 23  1  0
 22 24  2  0
 24 25  1  0
 25 26  3  0
  6 27  1  0
 27 28  2  0
 28  3  1  0
 24 12  1  0
 20 15  1  0
  1 29  1  0
  1 30  1  0
  1 31  1  0
  4 32  1  0
  5 33  1  0
  7 34  1  0
 10 35  1  0
 10 36  1  0
 16 37  1  0
 17 38  1  0
 18 39  1  0
 19 40  1  0
 20 41  1  0
 21 42  1  0
 23 43  1  0
 23 44  1  0
 23 45  1  0
 27 46  1  0
 28 47  1  0
M  END
>  <Binding energies>  (1) 
[-8.74]

>  <Ligand effiencies>  (1) 
[-0.30137931034482757]

>  <Interactions>  (1) 
["H-B:TYR:531:OH:9767, V-A:ASP:366:CG:3212, V-A:PRO:540:N:4884, V-A:ASP:366:CB:3211, V-A:ILE:538:CG2:4863, H-B:TYR:539:OH:9850, V-A:PRO:540:CA:4883, H-A:TYR:531:OH:4795, H-A:TYR:539:N:4870, V-A:TYR:539:CZ:4877, V-A:PRO:540:CB:4885, V-A:TYR:539:CE1:4875, V-A:TYR:531:CZ:4794, V-B:ASP:366:CB:8183, V-A:PRO:540:C:4881, V-B:ASP:366:CA:8181, V-A:LEU:363:CD1:3188, V-B:ASP:366:C:8179, V-B:LYS:534:CE:9794, V-A:LEU:363:CA:3184, V-A:LEU:363:CB:3186, V-B:ILE:369:CG2:8208, V-A:ASN:362:CB:3175, V-B:ILE:369:CB:8207, V-A:ALA:541:C:4888"]

$$$$
3bd_Grossjean_2025
     RDKit          3D

 43 45  0  0  0  0  0  0  0  0999 V2000
  129.4560  125.7200   57.7170 C   0  0  0  0  0  0  0  0  0  0  0  0
  128.8980  127.0090   57.1180 C   0  0  0  0  0  0  0  0  0  0  0  0
  127.9870  127.7520   57.8770 C   0  0  0  0  0  0  0  0  0  0  0  0
  127.4490  128.9370   57.3620 C   0  0  0  0  0  0  0  0  0  0  0  0
  126.4730  129.7830   58.1240 C   0  0  0  0  0  0  0  0  0  0  0  0
  126.8940  130.5580   59.2160 C   0  0  0  0  0  0  0  0  0  0  0  0
  125.9920  131.3440   59.9290 C   0  0  0  0  0  0  0  0  0  0  0  0
  124.6510  131.3640   59.5590 C   0  0  0  0  0  0  0  0  0  0  0  0
  124.2070  130.6030   58.4830 C   0  0  0  0  0  0  0  0  0  0  0  0
  125.1120  129.8190   57.7730 C   0  0  0  0  0  0  0  0  0  0  0  0
  127.8120  129.3880   56.1320 N   0  0  0  0  0  0  0  0  0  0  0  0
  128.6930  128.6800   55.3820 C   0  0  0  0  0  0  0  0  0  0  0  0
  129.0770  129.3720   53.7810 S   0  0  0  0  0  0  0  0  0  0  0  0
  129.3170  131.1630   53.9850 C   0  0  0  0  0  0  0  0  0  0  0  0
  129.8610  131.5140   55.3710 C   0  0  0  0  0  0  0  0  0  0  0  0
  129.4190  132.5050   55.9530 O   0  0  0  0  0  0  0  0  0  0  0  0
  130.8190  130.6910   55.8490 N   0  0  0  0  0  0  0  0  0  0  0  0
  131.4870  130.7360   57.0880 C   0  0  0  0  0  0  0  0  0  0  0  0
  130.6880  130.9730   58.2090 C   0  0  0  0  0  0  0  0  0  0  0  0
  131.2610  131.0420   59.4760 C   0  0  0  0  0  0  0  0  0  0  0  0
  132.6360  130.8850   59.6220 C   0  0  0  0  0  0  0  0  0  0  0  0
  133.4450  130.6630   58.5100 C   0  0  0  0  0  0  0  0  0  0  0  0
  132.8750  130.5910   57.2420 C   0  0  0  0  0  0  0  0  0  0  0  0
  129.2660  127.4730   55.8370 C   0  0  0  0  0  0  0  0  0  0  0  0
  130.2190  126.7180   55.0170 C   0  0  0  0  0  0  0  0  0  0  0  0
  130.9720  126.1230   54.3710 N   0  0  0  0  0  0  0  0  0  0  0  0
  129.4284  125.7838   58.8148 H   0  0  0  0  0  0  0  0  0  0  0  0
  128.8466  124.8670   57.3839 H   0  0  0  0  0  0  0  0  0  0  0  0
  130.4950  125.5806   57.3839 H   0  0  0  0  0  0  0  0  0  0  0  0
  127.6936  127.4047   58.8786 H   0  0  0  0  0  0  0  0  0  0  0  0
  127.9530  130.5443   59.5133 H   0  0  0  0  0  0  0  0  0  0  0  0
  126.3386  131.9467   60.7814 H   0  0  0  0  0  0  0  0  0  0  0  0
  123.9379  131.9853   60.1207 H   0  0  0  0  0  0  0  0  0  0  0  0
  123.1457  130.6205   58.1943 H   0  0  0  0  0  0  0  0  0  0  0  0
  124.7565  129.2177   56.9233 H   0  0  0  0  0  0  0  0  0  0  0  0
  130.0294  131.5148   53.2243 H   0  0  0  0  0  0  0  0  0  0  0  0
  128.3385  131.6522   53.8701 H   0  0  0  0  0  0  0  0  0  0  0  0
  131.1480  129.9730   55.2210 H   0  0  0  0  0  0  0  0  0  0  0  0
  129.6025  131.1056   58.0903 H   0  0  0  0  0  0  0  0  0  0  0  0
  130.6290  131.2200   60.3586 H   0  0  0  0  0  0  0  0  0  0  0  0
  133.0877  130.9366   60.6237 H   0  0  0  0  0  0  0  0  0  0  0  0
  134.5316  130.5449   58.6335 H   0  0  0  0  0  0  0  0  0  0  0  0
  133.5116  130.4206   56.3613 H   0  0  0  0  0  0  0  0  0  0  0  0
  1  2  1  0
  2  3  2  0
  3  4  1  0
  4  5  1  0
  5  6  2  0
  6  7  1  0
  7  8  2  0
  8  9  1  0
  9 10  2  0
  4 11  2  0
 11 12  1  0
 12 13  1  0
 13 14  1  0
 14 15  1  0
 15 16  2  0
 15 17  1  0
 17 18  1  0
 18 19  2  0
 19 20  1  0
 20 21  2  0
 21 22  1  0
 22 23  2  0
 12 24  2  0
 24 25  1  0
 25 26  3  0
 24  2  1  0
 10  5  1  0
 23 18  1  0
  1 27  1  0
  1 28  1  0
  1 29  1  0
  3 30  1  0
  6 31  1  0
  7 32  1  0
  8 33  1  0
  9 34  1  0
 10 35  1  0
 14 36  1  0
 14 37  1  0
 17 38  1  0
 19 39  1  0
 20 40  1  0
 21 41  1  0
 22 42  1  0
 23 43  1  0
M  END
>  <Binding energies>  (1) 
[-8.6]

>  <Ligand effiencies>  (1) 
[-0.3185185185185185]

>  <Interactions>  (1) 
["H-B:TYR:531:OH:9767, V-A:ASP:366:CG:3212, V-A:ASP:366:CB:3211, V-A:ILE:538:CG2:4863, H-B:TYR:539:OH:9850, V-A:TYR:539:CD1:4873, V-A:PRO:540:CA:4883, H-A:TYR:531:OH:4795, H-A:TYR:539:N:4870, V-A:TYR:539:CZ:4877, V-A:PRO:540:CB:4885, V-A:TYR:539:CE1:4875, V-B:ASP:366:CB:8183, V-B:ASP:366:CA:8181, V-A:LEU:363:CD1:3188, V-B:ASP:366:C:8179, V-A:LEU:363:CA:3184, V-A:LEU:363:CB:3186, V-B:ILE:369:CG2:8208"]

$$$$
3be_Grossjean_2025
     RDKit          3D

 45 47  0  0  0  0  0  0  0  0999 V2000
  130.7480  131.3270   60.6530 C   0  0  0  0  0  0  0  0  0  0  0  0
  131.5370  131.0560   59.3870 C   0  0  0  0  0  0  0  0  0  0  0  0
  132.9230  130.8820   59.4120 C   0  0  0  0  0  0  0  0  0  0  0  0
  133.5840  130.6390   58.2080 C   0  0  0  0  0  0  0  0  0  0  0  0
  132.8520  130.5740   57.0200 C   0  0  0  0  0  0  0  0  0  0  0  0
  131.4650  130.7530   57.0660 C   0  0  0  0  0  0  0  0  0  0  0  0
  130.7850  130.6860   55.8350 N   0  0  0  0  0  0  0  0  0  0  0  0
  129.8650  131.5360   55.3310 C   0  0  0  0  0  0  0  0  0  0  0  0
  129.4560  132.5470   55.9050 O   0  0  0  0  0  0  0  0  0  0  0  0
  129.3340  131.1570   53.9390 C   0  0  0  0  0  0  0  0  0  0  0  0
  128.8810  129.4010   53.7330 S   0  0  0  0  0  0  0  0  0  0  0  0
  128.6270  128.7030   55.3500 C   0  0  0  0  0  0  0  0  0  0  0  0
  127.6990  129.3620   56.0870 N   0  0  0  0  0  0  0  0  0  0  0  0
  127.4010  128.9340   57.3420 C   0  0  0  0  0  0  0  0  0  0  0  0
  126.3730  129.7270   58.0950 C   0  0  0  0  0  0  0  0  0  0  0  0
  125.0800  129.9010   57.5770 C   0  0  0  0  0  0  0  0  0  0  0  0
  124.1230  130.6370   58.2690 C   0  0  0  0  0  0  0  0  0  0  0  0
  124.4470  131.2130   59.4920 C   0  0  0  0  0  0  0  0  0  0  0  0
  125.7210  131.0580   60.0270 C   0  0  0  0  0  0  0  0  0  0  0  0
  126.6760  130.3210   59.3310 C   0  0  0  0  0  0  0  0  0  0  0  0
  128.0430  127.8190   57.8910 C   0  0  0  0  0  0  0  0  0  0  0  0
  128.9850  127.1130   57.1360 C   0  0  0  0  0  0  0  0  0  0  0  0
  129.6490  125.8920   57.7700 C   0  0  0  0  0  0  0  0  0  0  0  0
  129.2870  127.5470   55.8270 C   0  0  0  0  0  0  0  0  0  0  0  0
  130.2290  126.7920   54.9990 C   0  0  0  0  0  0  0  0  0  0  0  0
  130.9740  126.1930   54.3470 N   0  0  0  0  0  0  0  0  0  0  0  0
  130.8130  130.9950   58.2410 N   0  0  0  0  0  0  0  0  0  0  0  0
  131.3762  131.1112   61.5298 H   0  0  0  0  0  0  0  0  0  0  0  0
  130.4394  132.3826   60.6738 H   0  0  0  0  0  0  0  0  0  0  0  0
  129.8559  130.6838   60.6738 H   0  0  0  0  0  0  0  0  0  0  0  0
  133.4800  130.9354   60.3591 H   0  0  0  0  0  0  0  0  0  0  0  0
  134.6750  130.4994   58.1941 H   0  0  0  0  0  0  0  0  0  0  0  0
  133.3587  130.3848   56.0621 H   0  0  0  0  0  0  0  0  0  0  0  0
  131.0070  129.8750   55.2760 H   0  0  0  0  0  0  0  0  0  0  0  0
  128.4396  131.7651   53.7386 H   0  0  0  0  0  0  0  0  0  0  0  0
  130.1588  131.3445   53.2357 H   0  0  0  0  0  0  0  0  0  0  0  0
  124.8192  129.4485   56.6089 H   0  0  0  0  0  0  0  0  0  0  0  0
  123.1138  130.7626   57.8498 H   0  0  0  0  0  0  0  0  0  0  0  0
  123.6910  131.7948   60.0397 H   0  0  0  0  0  0  0  0  0  0  0  0
  125.9733  131.5152   60.9951 H   0  0  0  0  0  0  0  0  0  0  0  0
  127.6836  130.2023   59.7561 H   0  0  0  0  0  0  0  0  0  0  0  0
  127.8070  127.4976   58.9162 H   0  0  0  0  0  0  0  0  0  0  0  0
  129.6027  125.9771   58.8657 H   0  0  0  0  0  0  0  0  0  0  0  0
  129.1222  124.9808   57.4504 H   0  0  0  0  0  0  0  0  0  0  0  0
  130.7002  125.8390   57.4504 H   0  0  0  0  0  0  0  0  0  0  0  0
  1  2  1  0
  2  3  2  0
  3  4  1  0
  4  5  2  0
  5  6  1  0
  6  7  1  0
  7  8  1  0
  8  9  2  0
  8 10  1  0
 10 11  1  0
 11 12  1  0
 12 13  2  0
 13 14  1  0
 14 15  1  0
 15 16  2  0
 16 17  1  0
 17 18  2  0
 18 19  1  0
 19 20  2  0
 14 21  2  0
 21 22  1  0
 22 23  1  0
 22 24  2  0
 24 25  1  0
 25 26  3  0
  6 27  2  0
 27  2  1  0
 24 12  1  0
 20 15  1  0
  1 28  1  0
  1 29  1  0
  1 30  1  0
  3 31  1  0
  4 32  1  0
  5 33  1  0
  7 34  1  0
 10 35  1  0
 10 36  1  0
 16 37  1  0
 17 38  1  0
 18 39  1  0
 19 40  1  0
 20 41  1  0
 21 42  1  0
 23 43  1  0
 23 44  1  0
 23 45  1  0
M  END
>  <Binding energies>  (1) 
[-8.72]

>  <Ligand effiencies>  (1) 
[-0.31142857142857144]

>  <Interactions>  (1) 
["H-B:TYR:531:OH:9767, V-A:ASP:366:CG:3212, V-A:ASP:366:CB:3211, V-A:ILE:538:CG2:4863, H-B:TYR:539:OH:9850, V-A:PRO:540:CA:4883, H-A:TYR:531:OH:4795, H-A:TYR:539:N:4870, V-A:TYR:539:CZ:4877, V-A:PRO:540:CB:4885, V-A:TYR:539:CE1:4875, V-A:TYR:531:CZ:4794, V-A:ILE:538:CB:4862, V-B:ASP:366:CB:8183, V-B:ASP:366:CA:8181, V-A:LEU:363:CD1:3188, V-B:ASP:366:C:8179, V-A:LEU:363:CA:3184, V-A:LEU:363:CB:3186, V-B:ILE:369:CG2:8208, V-B:ILE:369:CB:8207"]

$$$$
3bf_Grossjean_2025
     RDKit          3D

 42 44  0  0  0  0  0  0  0  0999 V2000
  130.2430  131.1020   54.1450 C   0  0  0  0  0  0  0  0  0  0  0  0
  129.8130  130.8320   55.5850 C   0  0  0  0  0  0  0  0  0  0  0  0
  130.7640  130.9920   56.5980 C   0  0  0  0  0  0  0  0  0  0  0  0
  130.4080  130.7690   57.9330 C   0  0  0  0  0  0  0  0  0  0  0  0
  131.3740  130.9450   59.0660 C   0  0  0  0  0  0  0  0  0  0  0  0
  132.7560  130.8240   58.8550 C   0  0  0  0  0  0  0  0  0  0  0  0
  133.6590  130.9860   59.9020 C   0  0  0  0  0  0  0  0  0  0  0  0
  133.1890  131.2710   61.1800 C   0  0  0  0  0  0  0  0  0  0  0  0
  131.8240  131.3950   61.4160 C   0  0  0  0  0  0  0  0  0  0  0  0
  130.9240  131.2310   60.3660 C   0  0  0  0  0  0  0  0  0  0  0  0
  129.1440  130.3950   58.2640 N   0  0  0  0  0  0  0  0  0  0  0  0
  128.2180  130.2110   57.2910 C   0  0  0  0  0  0  0  0  0  0  0  0
  126.6230  129.7160   57.9100 S   0  0  0  0  0  0  0  0  0  0  0  0
  126.6440  127.9070   58.1460 C   0  0  0  0  0  0  0  0  0  0  0  0
  128.0300  127.2530   58.0540 C   0  0  0  0  0  0  0  0  0  0  0  0
  128.5580  126.7540   59.0500 O   0  0  0  0  0  0  0  0  0  0  0  0
  128.5730  127.2540   56.8170 N   0  0  0  0  0  0  0  0  0  0  0  0
  129.8190  126.7510   56.3990 C   0  0  0  0  0  0  0  0  0  0  0  0
  130.8320  126.6740   57.3600 C   0  0  0  0  0  0  0  0  0  0  0  0
  132.0870  126.1720   57.0110 C   0  0  0  0  0  0  0  0  0  0  0  0
  132.2930  125.7510   55.6970 C   0  0  0  0  0  0  0  0  0  0  0  0
  131.3270  125.8040   54.7460 N   0  0  0  0  0  0  0  0  0  0  0  0
  130.1110  126.2950   55.1010 C   0  0  0  0  0  0  0  0  0  0  0  0
  128.5010  130.4370   55.9260 C   0  0  0  0  0  0  0  0  0  0  0  0
  127.4770  130.3110   54.8860 C   0  0  0  0  0  0  0  0  0  0  0  0
  126.6690  130.2110   54.0630 N   0  0  0  0  0  0  0  0  0  0  0  0
  131.1746  131.6869   54.1441 H   0  0  0  0  0  0  0  0  0  0  0  0
  130.4097  130.1462   53.6268 H   0  0  0  0  0  0  0  0  0  0  0  0
  129.4545  131.6674   53.6268 H   0  0  0  0  0  0  0  0  0  0  0  0
  131.7914  131.2930   56.3455 H   0  0  0  0  0  0  0  0  0  0  0  0
  133.1318  130.5975   57.8463 H   0  0  0  0  0  0  0  0  0  0  0  0
  134.7394  130.8891   59.7196 H   0  0  0  0  0  0  0  0  0  0  0  0
  133.9011  131.3990   62.0086 H   0  0  0  0  0  0  0  0  0  0  0  0
  131.4568  131.6217   62.4278 H   0  0  0  0  0  0  0  0  0  0  0  0
  129.8450  131.3268   60.5572 H   0  0  0  0  0  0  0  0  0  0  0  0
  126.2298  127.6886   59.1414 H   0  0  0  0  0  0  0  0  0  0  0  0
  126.0510  127.4842   57.3216 H   0  0  0  0  0  0  0  0  0  0  0  0
  127.9980  127.6220   56.0730 H   0  0  0  0  0  0  0  0  0  0  0  0
  130.6401  127.0087   58.3901 H   0  0  0  0  0  0  0  0  0  0  0  0
  132.8949  126.1098   57.7549 H   0  0  0  0  0  0  0  0  0  0  0  0
  133.2826  125.3587   55.4198 H   0  0  0  0  0  0  0  0  0  0  0  0
  129.3190  126.3378   54.3388 H   0  0  0  0  0  0  0  0  0  0  0  0
  1  2  1  0
  2  3  2  0
  3  4  1  0
  4  5  1  0
  5  6  2  0
  6  7  1  0
  7  8  2  0
  8  9  1  0
  9 10  2  0
  4 11  2  0
 11 12  1  0
 12 13  1  0
 13 14  1  0
 14 15  1  0
 15 16  2  0
 15 17  1  0
 17 18  1  0
 18 19  2  0
 19 20  1  0
 20 21  2  0
 21 22  1  0
 22 23  2  0
 12 24  2  0
 24 25  1  0
 25 26  3  0
 24  2  1  0
 10  5  1  0
 23 18  1  0
  1 27  1  0
  1 28  1  0
  1 29  1  0
  3 30  1  0
  6 31  1  0
  7 32  1  0
  8 33  1  0
  9 34  1  0
 10 35  1  0
 14 36  1  0
 14 37  1  0
 17 38  1  0
 19 39  1  0
 20 40  1  0
 21 41  1  0
 23 42  1  0
M  END
>  <Binding energies>  (1) 
[-8.29]

>  <Ligand effiencies>  (1) 
[-0.307037037037037]

>  <Interactions>  (1) 
["H-B:TYR:531:OH:9767, V-B:MET:535:CE:9807, V-B:TYR:531:CZ:9766, V-A:ASP:366:CG:3212, V-A:TYR:531:CE1:4792, V-A:ASP:366:CB:3211, V-A:ILE:538:CG2:4863, V-A:ASN:370:CB:3244, H-B:TYR:539:OH:9850, V-A:PRO:540:CA:4883, H-A:TYR:531:OH:4795, V-A:TYR:539:CZ:4877, V-A:PRO:540:CB:4885, V-A:TYR:539:CE1:4875, V-A:TYR:531:CZ:4794, V-A:ILE:538:CB:4862, V-B:TYR:531:CE1:9764, H-B:LYS:534:NZ:9795, V-A:PRO:540:C:4881, V-A:GLU:543:CD:4908, H-A:TYR:539:OH:4878, V-A:LEU:363:CA:3184, V-A:ASN:362:CB:3175, V-A:ASN:362:C:3171"]

$$$$
3bg_Grossjean_2025
     RDKit          3D

 46 48  0  0  0  0  0  0  0  0999 V2000
  129.5260  125.7500   57.8160 C   0  0  0  0  0  0  0  0  0  0  0  0
  128.9340  127.0150   57.1980 C   0  0  0  0  0  0  0  0  0  0  0  0
  128.0180  127.7540   57.9530 C   0  0  0  0  0  0  0  0  0  0  0  0
  127.4570  128.9250   57.4270 C   0  0  0  0  0  0  0  0  0  0  0  0
  126.4760  129.7710   58.1910 C   0  0  0  0  0  0  0  0  0  0  0  0
  126.8840  130.5310   59.3000 C   0  0  0  0  0  0  0  0  0  0  0  0
  125.9830  131.3300   59.9980 C   0  0  0  0  0  0  0  0  0  0  0  0
  124.6520  131.3800   59.5990 C   0  0  0  0  0  0  0  0  0  0  0  0
  124.2160  130.6290   58.5130 C   0  0  0  0  0  0  0  0  0  0  0  0
  125.1210  129.8310   57.8190 C   0  0  0  0  0  0  0  0  0  0  0  0
  127.8090  129.3640   56.1890 N   0  0  0  0  0  0  0  0  0  0  0  0
  128.6990  128.6600   55.4440 C   0  0  0  0  0  0  0  0  0  0  0  0
  129.1010  129.3620   53.8520 S   0  0  0  0  0  0  0  0  0  0  0  0
  128.9240  131.1730   53.9650 C   0  0  0  0  0  0  0  0  0  0  0  0
  129.8650  131.7740   55.0130 C   0  0  0  0  0  0  0  0  0  0  0  0
  129.5720  132.8360   55.5640 O   0  0  0  0  0  0  0  0  0  0  0  0
  130.9990  131.0950   55.2590 N   0  0  0  0  0  0  0  0  0  0  0  0
  132.1140  131.5710   56.0770 C   0  0  0  0  0  0  0  0  0  0  0  0
  131.8540  131.3640   57.5640 C   0  0  0  0  0  0  0  0  0  0  0  0
  130.5620  131.5180   58.0780 C   0  0  0  0  0  0  0  0  0  0  0  0
  130.3250  131.3390   59.4370 C   0  0  0  0  0  0  0  0  0  0  0  0
  131.3800  130.9920   60.2800 C   0  0  0  0  0  0  0  0  0  0  0  0
  132.6660  130.8170   59.7740 C   0  0  0  0  0  0  0  0  0  0  0  0
  132.9020  130.9970   58.4130 C   0  0  0  0  0  0  0  0  0  0  0  0
  129.2860  127.4650   55.9080 C   0  0  0  0  0  0  0  0  0  0  0  0
  130.2490  126.7160   55.0950 C   0  0  0  0  0  0  0  0  0  0  0  0
  131.0090  126.1240   54.4550 N   0  0  0  0  0  0  0  0  0  0  0  0
  129.4903  125.8264   58.9128 H   0  0  0  0  0  0  0  0  0  0  0  0
  128.9436  124.8756   57.4902 H   0  0  0  0  0  0  0  0  0  0  0  0
  130.5705  125.6370   57.4902 H   0  0  0  0  0  0  0  0  0  0  0  0
  127.7375  127.4154   58.9613 H   0  0  0  0  0  0  0  0  0  0  0  0
  127.9350  130.4939   59.6226 H   0  0  0  0  0  0  0  0  0  0  0  0
  126.3227  131.9198   60.8622 H   0  0  0  0  0  0  0  0  0  0  0  0
  123.9405  132.0168   60.1451 H   0  0  0  0  0  0  0  0  0  0  0  0
  123.1610  130.6654   58.2038 H   0  0  0  0  0  0  0  0  0  0  0  0
  124.7697  129.2359   56.9632 H   0  0  0  0  0  0  0  0  0  0  0  0
  129.1550  131.6148   52.9845 H   0  0  0  0  0  0  0  0  0  0  0  0
  127.8901  131.3965   54.2668 H   0  0  0  0  0  0  0  0  0  0  0  0
  131.1570  130.2340   54.7550 H   0  0  0  0  0  0  0  0  0  0  0  0
  133.0233  131.0202   55.7945 H   0  0  0  0  0  0  0  0  0  0  0  0
  132.2333  132.6497   55.8978 H   0  0  0  0  0  0  0  0  0  0  0  0
  129.7318  131.7812   57.4061 H   0  0  0  0  0  0  0  0  0  0  0  0
  129.3116  131.4704   59.8440 H   0  0  0  0  0  0  0  0  0  0  0  0
  131.1949  130.8550   61.3556 H   0  0  0  0  0  0  0  0  0  0  0  0
  133.4911  130.5380   60.4459 H   0  0  0  0  0  0  0  0  0  0  0  0
  133.9134  130.8503   58.0062 H   0  0  0  0  0  0  0  0  0  0  0  0
  1  2  1  0
  2  3  2  0
  3  4  1  0
  4  5  1  0
  5  6  2  0
  6  7  1  0
  7  8  2  0
  8  9  1  0
  9 10  2  0
  4 11  2  0
 11 12  1  0
 12 13  1  0
 13 14  1  0
 14 15  1  0
 15 16  2  0
 15 17  1  0
 17 18  1  0
 18 19  1  0
 19 20  2  0
 20 21  1  0
 21 22  2  0
 22 23  1  0
 23 24  2  0
 12 25  2  0
 25 26  1  0
 26 27  3  0
 25  2  1  0
 10  5  1  0
 24 19  1  0
  1 28  1  0
  1 29  1  0
  1 30  1  0
  3 31  1  0
  6 32  1  0
  7 33  1  0
  8 34  1  0
  9 35  1  0
 10 36  1  0
 14 37  1  0
 14 38  1  0
 17 39  1  0
 18 40  1  0
 18 41  1  0
 20 42  1  0
 21 43  1  0
 22 44  1  0
 23 45  1  0
 24 46  1  0
M  END
>  <Binding energies>  (1) 
[-8.8]

>  <Ligand effiencies>  (1) 
[-0.31428571428571433]

>  <Interactions>  (1) 
["H-B:TYR:531:OH:9767, V-A:ASP:366:CG:3212, V-A:PRO:540:N:4884, V-A:ILE:538:CA:4860, V-A:ILE:538:CG2:4863, H-B:TYR:539:OH:9850, V-A:TYR:539:CD1:4873, V-A:PRO:540:CA:4883, H-A:TYR:531:OH:4795, H-A:TYR:539:N:4870, V-A:PRO:540:CB:4885, V-A:TYR:539:CE1:4875, V-A:TYR:531:CZ:4794, V-A:ILE:538:CB:4862, V-B:ASP:366:CB:8183, V-B:ASP:366:CA:8181, V-A:TYR:539:C:4867, V-A:LEU:363:CD1:3188, V-B:ASP:366:C:8179, V-B:LYS:534:CE:9794, V-A:TYR:531:CE2:4793, V-A:LEU:363:CA:3184, V-B:ILE:369:CG2:8208"]

$$$$
3bk_Grossjean_2025
     RDKit          3D

 57 58  0  0  0  0  0  0  0  0999 V2000
  125.3950  121.6390   55.9060 C   0  0  0  0  0  0  0  0  0  0  0  0
  126.6000  121.6660   56.6550 O   0  0  0  0  0  0  0  0  0  0  0  0
  126.8000  122.8820   57.3630 C   0  0  0  0  0  0  0  0  0  0  0  0
  125.4800  123.6640   57.4260 C   0  0  0  0  0  0  0  0  0  0  0  0
  125.7490  125.0150   57.7730 O   0  0  0  0  0  0  0  0  0  0  0  0
  127.1220  125.2790   58.0320 C   0  0  0  0  0  0  0  0  0  0  0  0
  127.2360  126.4760   58.9850 C   0  0  0  0  0  0  0  0  0  0  0  0
  127.1990  127.6820   58.2340 O   0  0  0  0  0  0  0  0  0  0  0  0
  125.8960  128.2340   58.0950 C   0  0  0  0  0  0  0  0  0  0  0  0
  125.9270  129.3610   57.0520 C   0  0  0  0  0  0  0  0  0  0  0  0
  127.2920  129.7460   56.6890 N   0  0  0  0  0  0  0  0  0  0  0  0
  127.6660  130.2760   55.5120 C   0  0  0  0  0  0  0  0  0  0  0  0
  126.8840  130.5190   54.5910 O   0  0  0  0  0  0  0  0  0  0  0  0
  129.1520  130.6070   55.3540 C   0  0  0  0  0  0  0  0  0  0  0  0
  130.2080  129.4610   56.2960 S   0  0  0  0  0  0  0  0  0  0  0  0
  130.5870  130.1900   57.8810 C   0  0  0  0  0  0  0  0  0  0  0  0
  129.5230  130.6100   58.6100 N   0  0  0  0  0  0  0  0  0  0  0  0
  129.7150  131.1810   59.8290 C   0  0  0  0  0  0  0  0  0  0  0  0
  128.4850  131.5970   60.5770 C   0  0  0  0  0  0  0  0  0  0  0  0
  127.2770  131.8290   59.9000 C   0  0  0  0  0  0  0  0  0  0  0  0
  126.1320  132.2210   60.5890 C   0  0  0  0  0  0  0  0  0  0  0  0
  126.1800  132.3860   61.9690 C   0  0  0  0  0  0  0  0  0  0  0  0
  127.3630  132.1580   62.6650 C   0  0  0  0  0  0  0  0  0  0  0  0
  128.5050  131.7650   61.9720 C   0  0  0  0  0  0  0  0  0  0  0  0
  131.0040  131.3390   60.3510 C   0  0  0  0  0  0  0  0  0  0  0  0
  132.1140  130.9130   59.6120 C   0  0  0  0  0  0  0  0  0  0  0  0
  133.5020  131.1050   60.2190 C   0  0  0  0  0  0  0  0  0  0  0  0
  131.9130  130.3240   58.3460 C   0  0  0  0  0  0  0  0  0  0  0  0
  133.0560  129.8660   57.5500 C   0  0  0  0  0  0  0  0  0  0  0  0
  133.9590  129.5050   56.9220 N   0  0  0  0  0  0  0  0  0  0  0  0
  124.5364  121.6198   56.5933 H   0  0  0  0  0  0  0  0  0  0  0  0
  125.3371  122.5361   55.2720 H   0  0  0  0  0  0  0  0  0  0  0  0
  125.3774  120.7402   55.2720 H   0  0  0  0  0  0  0  0  0  0  0  0
  127.1426  122.6590   58.3842 H   0  0  0  0  0  0  0  0  0  0  0  0
  127.5585  123.4865   56.8441 H   0  0  0  0  0  0  0  0  0  0  0  0
  124.9851  123.6286   56.4443 H   0  0  0  0  0  0  0  0  0  0  0  0
  124.8216  123.2138   58.1835 H   0  0  0  0  0  0  0  0  0  0  0  0
  127.5854  124.3952   58.4947 H   0  0  0  0  0  0  0  0  0  0  0  0
  127.6381  125.5084   57.0881 H   0  0  0  0  0  0  0  0  0  0  0  0
  126.3968  126.4604   59.6959 H   0  0  0  0  0  0  0  0  0  0  0  0
  128.1849  126.4164   59.5382 H   0  0  0  0  0  0  0  0  0  0  0  0
  125.1984  127.4495   57.7667 H   0  0  0  0  0  0  0  0  0  0  0  0
  125.5635  128.6383   59.0625 H   0  0  0  0  0  0  0  0  0  0  0  0
  125.4034  129.0196   56.1469 H   0  0  0  0  0  0  0  0  0  0  0  0
  125.4357  130.2408   57.4932 H   0  0  0  0  0  0  0  0  0  0  0  0
  127.9880  129.6350   57.4110 H   0  0  0  0  0  0  0  0  0  0  0  0
  129.4192  130.5425   54.2889 H   0  0  0  0  0  0  0  0  0  0  0  0
  129.3181  131.6219   55.7443 H   0  0  0  0  0  0  0  0  0  0  0  0
  127.2344  131.6991   58.8085 H   0  0  0  0  0  0  0  0  0  0  0  0
  125.1934  132.3994   60.0438 H   0  0  0  0  0  0  0  0  0  0  0  0
  125.2770  132.6987   62.5138 H   0  0  0  0  0  0  0  0  0  0  0  0
  127.3959  132.2875   63.7569 H   0  0  0  0  0  0  0  0  0  0  0  0
  129.4380  131.5831   62.5255 H   0  0  0  0  0  0  0  0  0  0  0  0
  131.1447  131.7975   61.3410 H   0  0  0  0  0  0  0  0  0  0  0  0
  133.4269  131.0946   61.3164 H   0  0  0  0  0  0  0  0  0  0  0  0
  134.1625  130.2897   59.8889 H   0  0  0  0  0  0  0  0  0  0  0  0
  133.9164  132.0690   59.8889 H   0  0  0  0  0  0  0  0  0  0  0  0
  1  2  1  0
  2  3  1  0
  3  4  1  0
  4  5  1  0
  5  6  1  0
  6  7  1  0
  7  8  1  0
  8  9  1  0
  9 10  1  0
 10 11  1  0
 11 12  1  0
 12 13  2  0
 12 14  1  0
 14 15  1  0
 15 16  1  0
 16 17  2  0
 17 18  1  0
 18 19  1  0
 19 20  2  0
 20 21  1  0
 21 22  2  0
 22 23  1  0
 23 24  2  0
 18 25  2  0
 25 26  1  0
 26 27  1  0
 26 28  2  0
 28 29  1  0
 29 30  3  0
 28 16  1  0
 24 19  1  0
  1 31  1  0
  1 32  1  0
  1 33  1  0
  3 34  1  0
  3 35  1  0
  4 36  1  0
  4 37  1  0
  6 38  1  0
  6 39  1  0
  7 40  1  0
  7 41  1  0
  9 42  1  0
  9 43  1  0
 10 44  1  0
 10 45  1  0
 11 46  1  0
 14 47  1  0
 14 48  1  0
 20 49  1  0
 21 50  1  0
 22 51  1  0
 23 52  1  0
 24 53  1  0
 25 54  1  0
 27 55  1  0
 27 56  1  0
 27 57  1  0
M  END
>  <Binding energies>  (1) 
[-6.92]

>  <Ligand effiencies>  (1) 
[-0.2232258064516129]

>  <Interactions>  (1) 
["H-B:TYR:531:OH:9767, V-B:MET:535:CE:9807, V-B:PRO:540:N:9856, V-B:PRO:540:CA:9855, H-B:TYR:539:N:9842, V-B:TYR:531:CE2:9765, V-B:TYR:531:CZ:9766, V-B:LEU:363:CD1:8160, V-A:ASP:366:CG:3212, V-B:PRO:540:CD:9859, V-A:ASP:366:CB:3211, V-A:TYR:539:CD1:4873, V-A:PRO:540:CA:4883, H-A:TYR:531:OH:4795, V-A:TYR:539:CZ:4877, V-A:PRO:540:CB:4885, V-A:TYR:539:CE1:4875, V-B:TYR:531:CE1:9764, H-B:LYS:534:NZ:9795, V-B:ASP:366:CB:8183, V-A:ALA:541:CB:4892, V-A:PRO:540:C:4881, V-A:LEU:363:CD1:3188, H-A:TYR:539:OH:4878, V-A:LEU:363:CA:3184, V-B:ILE:538:CA:9832, V-B:ILE:538:CG2:9835, V-B:ILE:538:C:9830, V-B:ILE:538:CB:9834, V-A:ASN:362:CB:3175, V-A:ASN:362:C:3171"]

$$$$
3ca_Grossjean_2025
     RDKit          3D

 52 54  0  0  0  0  0  0  0  0999 V2000
  127.3970  128.0770   67.1140 C   0  0  0  0  0  0  0  0  0  0  0  0
  128.7500  128.6730   67.5130 C   0  0  0  0  0  0  0  0  0  0  0  0
  129.2760  127.9540   68.6220 O   0  0  0  0  0  0  0  0  0  0  0  0
  129.4260  126.6070   68.5770 C   0  0  0  0  0  0  0  0  0  0  0  0
  129.1240  125.8560   69.5100 O   0  0  0  0  0  0  0  0  0  0  0  0
  129.9920  126.1160   67.2750 C   0  0  0  0  0  0  0  0  0  0  0  0
  131.3220  126.4110   66.9520 C   0  0  0  0  0  0  0  0  0  0  0  0
  131.8750  125.9700   65.7530 C   0  0  0  0  0  0  0  0  0  0  0  0
  131.1070  125.2330   64.8490 C   0  0  0  0  0  0  0  0  0  0  0  0
  131.7640  124.8360   63.6680 N   0  0  0  0  0  0  0  0  0  0  0  0
  133.0850  124.7480   63.4050 C   0  0  0  0  0  0  0  0  0  0  0  0
  133.9890  124.9940   64.2030 O   0  0  0  0  0  0  0  0  0  0  0  0
  133.4410  124.2770   61.9900 C   0  0  0  0  0  0  0  0  0  0  0  0
  132.3650  122.9330   61.3900 S   0  0  0  0  0  0  0  0  0  0  0  0
  131.5050  123.4570   59.9130 C   0  0  0  0  0  0  0  0  0  0  0  0
  132.2420  124.1740   59.0270 N   0  0  0  0  0  0  0  0  0  0  0  0
  131.6630  124.5860   57.8780 C   0  0  0  0  0  0  0  0  0  0  0  0
  132.5560  125.3640   56.9330 C   0  0  0  0  0  0  0  0  0  0  0  0
  130.3310  124.3170   57.5720 C   0  0  0  0  0  0  0  0  0  0  0  0
  129.5440  123.5950   58.4790 C   0  0  0  0  0  0  0  0  0  0  0  0
  128.1170  123.3420   58.1140 C   0  0  0  0  0  0  0  0  0  0  0  0
  127.1050  124.1660   58.6230 C   0  0  0  0  0  0  0  0  0  0  0  0
  125.7720  123.9330   58.2960 C   0  0  0  0  0  0  0  0  0  0  0  0
  125.4440  122.8680   57.4600 C   0  0  0  0  0  0  0  0  0  0  0  0
  126.4370  122.0350   56.9520 C   0  0  0  0  0  0  0  0  0  0  0  0
  127.7690  122.2710   57.2810 C   0  0  0  0  0  0  0  0  0  0  0  0
  130.1450  123.1410   59.6810 C   0  0  0  0  0  0  0  0  0  0  0  0
  129.3850  122.3370   60.6440 C   0  0  0  0  0  0  0  0  0  0  0  0
  128.7850  121.7020   61.4030 N   0  0  0  0  0  0  0  0  0  0  0  0
  129.7760  124.9260   65.1680 C   0  0  0  0  0  0  0  0  0  0  0  0
  129.2260  125.3660   66.3690 C   0  0  0  0  0  0  0  0  0  0  0  0
  126.8258  127.8254   68.0197 H   0  0  0  0  0  0  0  0  0  0  0  0
  126.8346  128.8107   66.5178 H   0  0  0  0  0  0  0  0  0  0  0  0
  127.5587  127.1668   66.5178 H   0  0  0  0  0  0  0  0  0  0  0  0
  129.4470  128.6006   66.6651 H   0  0  0  0  0  0  0  0  0  0  0  0
  128.6182  129.7294   67.7899 H   0  0  0  0  0  0  0  0  0  0  0  0
  131.9357  126.9967   67.6522 H   0  0  0  0  0  0  0  0  0  0  0  0
  132.9235  126.2035   65.5161 H   0  0  0  0  0  0  0  0  0  0  0  0
  131.1430  124.5300   62.9340 H   0  0  0  0  0  0  0  0  0  0  0  0
  133.3493  125.1315   61.3034 H   0  0  0  0  0  0  0  0  0  0  0  0
  134.4677  123.8838   62.0244 H   0  0  0  0  0  0  0  0  0  0  0  0
  133.2598  125.9772   57.5150 H   0  0  0  0  0  0  0  0  0  0  0  0
  133.1182  124.6626   56.2990 H   0  0  0  0  0  0  0  0  0  0  0  0
  131.9383  126.0170   56.2990 H   0  0  0  0  0  0  0  0  0  0  0  0
  129.8993  124.6694   56.6236 H   0  0  0  0  0  0  0  0  0  0  0  0
  127.3656  125.0039   59.2864 H   0  0  0  0  0  0  0  0  0  0  0  0
  124.9822  124.5862   58.6955 H   0  0  0  0  0  0  0  0  0  0  0  0
  124.3914  122.6837   57.1991 H   0  0  0  0  0  0  0  0  0  0  0  0
  126.1706  121.1947   56.2941 H   0  0  0  0  0  0  0  0  0  0  0  0
  128.5544  121.6112   56.8837 H   0  0  0  0  0  0  0  0  0  0  0  0
  129.1656  124.3365   64.4680 H   0  0  0  0  0  0  0  0  0  0  0  0
  128.1806  125.1234   66.6103 H   0  0  0  0  0  0  0  0  0  0  0  0
  1  2  1  0
  2  3  1  0
  3  4  1  0
  4  5  2  0
  4  6  1  0
  6  7  2  0
  7  8  1  0
  8  9  2  0
  9 10  1  0
 10 11  1  0
 11 12  2  0
 11 13  1  0
 13 14  1  0
 14 15  1  0
 15 16  2  0
 16 17  1  0
 17 18  1  0
 17 19  2  0
 19 20  1  0
 20 21  1  0
 21 22  2  0
 22 23  1  0
 23 24  2  0
 24 25  1  0
 25 26  2  0
 20 27  2  0
 27 28  1  0
 28 29  3  0
  9 30  1  0
 30 31  2  0
 31  6  1  0
 27 15  1  0
 26 21  1  0
  1 32  1  0
  1 33  1  0
  1 34  1  0
  2 35  1  0
  2 36  1  0
  7 37  1  0
  8 38  1  0
 10 39  1  0
 13 40  1  0
 13 41  1  0
 18 42  1  0
 18 43  1  0
 18 44  1  0
 19 45  1  0
 22 46  1  0
 23 47  1  0
 24 48  1  0
 25 49  1  0
 26 50  1  0
 30 51  1  0
 31 52  1  0
M  END
>  <Binding energies>  (1) 
[-8.8]

>  <Ligand effiencies>  (1) 
[-0.275]

>  <Interactions>  (1) 
["H-B:ALA:541:N:9863, V-B:PRO:540:CB:9857, V-B:MET:535:CE:9807, V-B:TYR:539:CD2:9846, V-B:PRO:540:N:9856, V-B:PRO:540:CA:9855, V-B:TYR:539:CE2:9848, V-B:TYR:539:C:9839, V-B:LEU:363:CD1:8160, V-A:ASP:366:CG:3212, H-A:GLY:454:N:4049, V-B:PRO:540:CD:9859, V-A:ASP:366:CA:3209, V-A:ASP:366:CB:3211, V-A:ASP:366:C:3207, V-A:GLU:543:CG:4907, V-A:GLU:543:CD:4908, V-B:TYR:539:CZ:9849, H-A:ARG:545:NH2:4928, V-B:TYR:539:CG:9844, V-B:HIS:456:CE1:9041, V-A:HIS:456:CE1:4069, V-B:GLU:543:CB:9878, V-B:GLU:543:CG:9879, V-B:GLU:543:CD:9880, H-A:ARG:545:NE:4924, V-A:ARG:545:CZ:4926, H-A:ARG:545:NH1:4927, V-A:GLU:543:CB:4906"]

$$$$
3cb_Grossjean_2025
     RDKit          3D

 49 51  0  0  0  0  0  0  0  0999 V2000
  130.0570  120.8220   61.1990 C   0  0  0  0  0  0  0  0  0  0  0  0
  129.8420  121.7120   60.1140 O   0  0  0  0  0  0  0  0  0  0  0  0
  128.7250  122.4820   60.0520 C   0  0  0  0  0  0  0  0  0  0  0  0
  127.7760  122.3690   60.8330 O   0  0  0  0  0  0  0  0  0  0  0  0
  128.7570  123.4850   58.9340 C   0  0  0  0  0  0  0  0  0  0  0  0
  127.6500  123.7070   58.1020 C   0  0  0  0  0  0  0  0  0  0  0  0
  127.7120  124.6460   57.0760 C   0  0  0  0  0  0  0  0  0  0  0  0
  128.8800  125.3780   56.8560 C   0  0  0  0  0  0  0  0  0  0  0  0
  128.8310  126.3030   55.7940 N   0  0  0  0  0  0  0  0  0  0  0  0
  129.8200  126.7600   54.9950 C   0  0  0  0  0  0  0  0  0  0  0  0
  130.9980  126.4050   55.0570 O   0  0  0  0  0  0  0  0  0  0  0  0
  129.3660  127.7820   53.9410 C   0  0  0  0  0  0  0  0  0  0  0  0
  128.1950  129.0440   54.5480 S   0  0  0  0  0  0  0  0  0  0  0  0
  129.0700  130.0970   55.6870 C   0  0  0  0  0  0  0  0  0  0  0  0
  130.1700  130.6770   55.1490 N   0  0  0  0  0  0  0  0  0  0  0  0
  130.9140  131.4980   55.9230 C   0  0  0  0  0  0  0  0  0  0  0  0
  132.1230  132.1220   55.2510 C   0  0  0  0  0  0  0  0  0  0  0  0
  130.5980  131.7670   57.2510 C   0  0  0  0  0  0  0  0  0  0  0  0
  129.4740  131.1660   57.8340 C   0  0  0  0  0  0  0  0  0  0  0  0
  129.1810  131.4810   59.2650 C   0  0  0  0  0  0  0  0  0  0  0  0
  130.0680  131.0790   60.2710 C   0  0  0  0  0  0  0  0  0  0  0  0
  129.8090  131.3780   61.6070 C   0  0  0  0  0  0  0  0  0  0  0  0
  128.6580  132.0860   61.9420 C   0  0  0  0  0  0  0  0  0  0  0  0
  127.7690  132.5010   60.9550 C   0  0  0  0  0  0  0  0  0  0  0  0
  128.0320  132.2020   59.6200 C   0  0  0  0  0  0  0  0  0  0  0  0
  128.6900  130.2900   57.0390 C   0  0  0  0  0  0  0  0  0  0  0  0
  127.5600  129.5620   57.6220 C   0  0  0  0  0  0  0  0  0  0  0  0
  126.6670  128.9870   58.0810 N   0  0  0  0  0  0  0  0  0  0  0  0
  129.9900  125.1650   57.6860 C   0  0  0  0  0  0  0  0  0  0  0  0
  129.9270  124.2260   58.7130 C   0  0  0  0  0  0  0  0  0  0  0  0
  129.9264  121.3626   62.1481 H   0  0  0  0  0  0  0  0  0  0  0  0
  129.3326  119.9960   61.1448 H   0  0  0  0  0  0  0  0  0  0  0  0
  131.0786  120.4178   61.1448 H   0  0  0  0  0  0  0  0  0  0  0  0
  126.7246  123.1341   58.2615 H   0  0  0  0  0  0  0  0  0  0  0  0
  126.8343  124.8123   56.4341 H   0  0  0  0  0  0  0  0  0  0  0  0
  127.9040  126.6510   55.5950 H   0  0  0  0  0  0  0  0  0  0  0  0
  130.2588  128.2995   53.5601 H   0  0  0  0  0  0  0  0  0  0  0  0
  128.8306  127.2109   53.1682 H   0  0  0  0  0  0  0  0  0  0  0  0
  132.8233  132.4834   56.0185 H   0  0  0  0  0  0  0  0  0  0  0  0
  132.6230  131.3693   54.6237 H   0  0  0  0  0  0  0  0  0  0  0  0
  131.7991  132.9656   54.6237 H   0  0  0  0  0  0  0  0  0  0  0  0
  131.2280  132.4488   57.8412 H   0  0  0  0  0  0  0  0  0  0  0  0
  130.9781  130.5218   60.0040 H   0  0  0  0  0  0  0  0  0  0  0  0
  130.5094  131.0567   62.3920 H   0  0  0  0  0  0  0  0  0  0  0  0
  128.4494  132.3195   62.9965 H   0  0  0  0  0  0  0  0  0  0  0  0
  126.8631  133.0623   61.2276 H   0  0  0  0  0  0  0  0  0  0  0  0
  127.3329  132.5341   58.8384 H   0  0  0  0  0  0  0  0  0  0  0  0
  130.9132  125.7411   57.5256 H   0  0  0  0  0  0  0  0  0  0  0  0
  130.8038  124.0641   59.3572 H   0  0  0  0  0  0  0  0  0  0  0  0
  1  2  1  0
  2  3  1  0
  3  4  2  0
  3  5  1  0
  5  6  2  0
  6  7  1  0
  7  8  2  0
  8  9  1  0
  9 10  1  0
 10 11  2  0
 10 12  1  0
 12 13  1  0
 13 14  1  0
 14 15  2  0
 15 16  1  0
 16 17  1  0
 16 18  2  0
 18 19  1  0
 19 20  1  0
 20 21  2  0
 21 22  1  0
 22 23  2  0
 23 24  1  0
 24 25  2  0
 19 26  2  0
 26 27  1  0
 27 28  3  0
  8 29  1  0
 29 30  2  0
 30  5  1  0
 26 14  1  0
 25 20  1  0
  1 31  1  0
  1 32  1  0
  1 33  1  0
  6 34  1  0
  7 35  1  0
  9 36  1  0
 12 37  1  0
 12 38  1  0
 17 39  1  0
 17 40  1  0
 17 41  1  0
 18 42  1  0
 21 43  1  0
 22 44  1  0
 23 45  1  0
 24 46  1  0
 25 47  1  0
 29 48  1  0
 30 49  1  0
M  END
>  <Binding energies>  (1) 
[-8.08]

>  <Ligand effiencies>  (1) 
[-0.26064516129032256]

>  <Interactions>  (1) 
["H-B:ALA:541:N:9863, H-B:TYR:531:OH:9767, V-B:MET:535:CE:9807, V-B:PRO:540:CA:9855, V-B:ALA:541:CB:9864, V-A:PRO:540:N:4884, V-A:ILE:538:CG2:4863, H-B:TYR:539:OH:9850, V-A:TYR:539:CD1:4873, V-A:PRO:540:CA:4883, H-A:TYR:531:OH:4795, V-A:TYR:539:CE1:4875, V-A:ILE:538:CB:4862, V-A:ALA:541:CB:4892, V-A:TYR:539:C:4867, V-A:LEU:363:CD1:3188, V-A:GLU:543:CD:4908, H-B:MET:535:SD:9806, V-A:TYR:531:CE2:4793, V-A:MET:535:CE:4835, V-A:ALA:541:CA:4890"]

$$$$
3ce_Grossjean_2025
     RDKit          3D

 45 47  0  0  0  0  0  0  0  0999 V2000
  130.8000  131.2870   60.7570 C   0  0  0  0  0  0  0  0  0  0  0  0
  131.5810  131.0460   59.4790 C   0  0  0  0  0  0  0  0  0  0  0  0
  132.9650  130.8570   59.4920 C   0  0  0  0  0  0  0  0  0  0  0  0
  133.6160  130.6300   58.2800 C   0  0  0  0  0  0  0  0  0  0  0  0
  132.8760  130.5990   57.0950 C   0  0  0  0  0  0  0  0  0  0  0  0
  131.4940  130.8060   57.1510 C   0  0  0  0  0  0  0  0  0  0  0  0
  130.7990  130.7430   55.9310 N   0  0  0  0  0  0  0  0  0  0  0  0
  129.9210  131.6370   55.4230 C   0  0  0  0  0  0  0  0  0  0  0  0
  129.5860  132.6880   55.9710 O   0  0  0  0  0  0  0  0  0  0  0  0
  129.3290  131.2820   54.0600 C   0  0  0  0  0  0  0  0  0  0  0  0
  129.3560  129.4910   53.7530 S   0  0  0  0  0  0  0  0  0  0  0  0
  128.7920  128.7330   55.2600 C   0  0  0  0  0  0  0  0  0  0  0  0
  127.8940  129.4790   55.9480 N   0  0  0  0  0  0  0  0  0  0  0  0
  127.3900  128.9830   57.1020 C   0  0  0  0  0  0  0  0  0  0  0  0
  126.3810  129.8630   57.8140 C   0  0  0  0  0  0  0  0  0  0  0  0
  127.7690  127.7450   57.6140 C   0  0  0  0  0  0  0  0  0  0  0  0
  128.7160  126.9710   56.9300 C   0  0  0  0  0  0  0  0  0  0  0  0
  129.1090  125.6610   57.5310 C   0  0  0  0  0  0  0  0  0  0  0  0
  130.3190  125.5410   58.2250 C   0  0  0  0  0  0  0  0  0  0  0  0
  130.6950  124.3220   58.7830 C   0  0  0  0  0  0  0  0  0  0  0  0
  129.8640  123.2140   58.6430 C   0  0  0  0  0  0  0  0  0  0  0  0
  128.6620  123.3140   57.9470 C   0  0  0  0  0  0  0  0  0  0  0  0
  128.2890  124.5340   57.3910 C   0  0  0  0  0  0  0  0  0  0  0  0
  129.2440  127.4710   55.7130 C   0  0  0  0  0  0  0  0  0  0  0  0
  130.2270  126.7000   54.9460 C   0  0  0  0  0  0  0  0  0  0  0  0
  131.0020  126.0890   54.3410 N   0  0  0  0  0  0  0  0  0  0  0  0
  130.8490  131.0210   58.3360 N   0  0  0  0  0  0  0  0  0  0  0  0
  131.4461  131.0876   61.6247 H   0  0  0  0  0  0  0  0  0  0  0  0
  130.4586  132.3323   60.7865 H   0  0  0  0  0  0  0  0  0  0  0  0
  129.9290  130.6158   60.7865 H   0  0  0  0  0  0  0  0  0  0  0  0
  133.5282  130.8866   60.4364 H   0  0  0  0  0  0  0  0  0  0  0  0
  134.7050  130.4763   58.2568 H   0  0  0  0  0  0  0  0  0  0  0  0
  133.3736  130.4143   56.1315 H   0  0  0  0  0  0  0  0  0  0  0  0
  131.0620  129.9760   55.3310 H   0  0  0  0  0  0  0  0  0  0  0  0
  128.2873  131.6332   54.0227 H   0  0  0  0  0  0  0  0  0  0  0  0
  129.9405  131.7691   53.2862 H   0  0  0  0  0  0  0  0  0  0  0  0
  126.5040  129.7557   58.9018 H   0  0  0  0  0  0  0  0  0  0  0  0
  126.5439  130.9127   57.5283 H   0  0  0  0  0  0  0  0  0  0  0  0
  125.3632  129.5589   57.5283 H   0  0  0  0  0  0  0  0  0  0  0  0
  127.3270  127.3761   58.5513 H   0  0  0  0  0  0  0  0  0  0  0  0
  130.9773  126.4160   58.3302 H   0  0  0  0  0  0  0  0  0  0  0  0
  131.6443  124.2349   59.3319 H   0  0  0  0  0  0  0  0  0  0  0  0
  130.1593  122.2514   59.0859 H   0  0  0  0  0  0  0  0  0  0  0  0
  128.0113  122.4339   57.8374 H   0  0  0  0  0  0  0  0  0  0  0  0
  127.3422  124.6140   56.8369 H   0  0  0  0  0  0  0  0  0  0  0  0
  1  2  1  0
  2  3  2  0
  3  4  1  0
  4  5  2  0
  5  6  1  0
  6  7  1  0
  7  8  1  0
  8  9  2  0
  8 10  1  0
 10 11  1  0
 11 12  1  0
 12 13  2  0
 13 14  1  0
 14 15  1  0
 14 16  2  0
 16 17  1  0
 17 18  1  0
 18 19  2  0
 19 20  1  0
 20 21  2  0
 21 22  1  0
 22 23  2  0
 17 24  2  0
 24 25  1  0
 25 26  3  0
  6 27  2  0
 27  2  1  0
 24 12  1  0
 23 18  1  0
  1 28  1  0
  1 29  1  0
  1 30  1  0
  3 31  1  0
  4 32  1  0
  5 33  1  0
  7 34  1  0
 10 35  1  0
 10 36  1  0
 15 37  1  0
 15 38  1  0
 15 39  1  0
 16 40  1  0
 19 41  1  0
 20 42  1  0
 21 43  1  0
 22 44  1  0
 23 45  1  0
M  END
>  <Binding energies>  (1) 
[-8.41]

>  <Ligand effiencies>  (1) 
[-0.3003571428571429]

>  <Interactions>  (1) 
["H-B:TYR:531:OH:9767, V-B:MET:535:CE:9807, V-B:TYR:539:CD2:9846, V-B:TYR:539:CE2:9848, V-A:ASP:366:CG:3212, V-A:ILE:538:CA:4860, V-A:ASP:366:CB:3211, V-A:ILE:538:CG2:4863, H-B:TYR:539:OH:9850, V-A:PRO:540:CA:4883, H-A:TYR:531:OH:4795, H-A:TYR:539:N:4870, V-A:PRO:540:CB:4885, V-A:TYR:539:CE1:4875, V-A:TYR:531:CZ:4794, V-A:ILE:538:CB:4862, V-A:LEU:363:CD1:3188, V-B:TYR:539:CZ:9849, V-A:LEU:363:CA:3184, V-A:LEU:363:CB:3186"]

$$$$
3ch_Grossjean_2025
     RDKit          3D

 55 57  0  0  0  0  0  0  0  0999 V2000
  134.0120  123.9350   59.8170 C   0  0  0  0  0  0  0  0  0  0  0  0
  132.7210  123.8520   60.4110 O   0  0  0  0  0  0  0  0  0  0  0  0
  132.4320  124.6160   61.5270 C   0  0  0  0  0  0  0  0  0  0  0  0
  131.5010  125.6670   61.5400 C   0  0  0  0  0  0  0  0  0  0  0  0
  131.2530  126.3940   62.7140 C   0  0  0  0  0  0  0  0  0  0  0  0
  130.3370  127.4570   62.8250 N   0  0  0  0  0  0  0  0  0  0  0  0
  129.8040  128.2410   61.8630 C   0  0  0  0  0  0  0  0  0  0  0  0
  130.0320  128.1460   60.6570 O   0  0  0  0  0  0  0  0  0  0  0  0
  128.8100  129.2960   62.3470 C   0  0  0  0  0  0  0  0  0  0  0  0
  129.4700  130.9820   62.1980 S   0  0  0  0  0  0  0  0  0  0  0  0
  130.3710  131.0260   60.6640 C   0  0  0  0  0  0  0  0  0  0  0  0
  131.7170  130.9670   60.8150 N   0  0  0  0  0  0  0  0  0  0  0  0
  132.4930  131.0020   59.7080 C   0  0  0  0  0  0  0  0  0  0  0  0
  133.9890  130.9380   59.9490 C   0  0  0  0  0  0  0  0  0  0  0  0
  131.9650  131.0970   58.4230 C   0  0  0  0  0  0  0  0  0  0  0  0
  130.5750  131.1520   58.2460 C   0  0  0  0  0  0  0  0  0  0  0  0
  130.0540  131.2640   56.8490 C   0  0  0  0  0  0  0  0  0  0  0  0
  130.3230  130.2560   55.9150 C   0  0  0  0  0  0  0  0  0  0  0  0
  129.8480  130.3570   54.6100 C   0  0  0  0  0  0  0  0  0  0  0  0
  129.1030  131.4720   54.2330 C   0  0  0  0  0  0  0  0  0  0  0  0
  128.8320  132.4860   55.1480 C   0  0  0  0  0  0  0  0  0  0  0  0
  129.3100  132.3810   56.4520 C   0  0  0  0  0  0  0  0  0  0  0  0
  129.7470  131.0970   59.3960 C   0  0  0  0  0  0  0  0  0  0  0  0
  128.2870  131.0550   59.2650 C   0  0  0  0  0  0  0  0  0  0  0  0
  127.1350  131.0230   59.1630 N   0  0  0  0  0  0  0  0  0  0  0  0
  131.9600  126.0730   63.8740 C   0  0  0  0  0  0  0  0  0  0  0  0
  132.8980  125.0290   63.8850 C   0  0  0  0  0  0  0  0  0  0  0  0
  133.6250  124.6560   65.0030 O   0  0  0  0  0  0  0  0  0  0  0  0
  133.5580  125.4530   66.1800 C   0  0  0  0  0  0  0  0  0  0  0  0
  133.1260  124.3100   62.7050 C   0  0  0  0  0  0  0  0  0  0  0  0
  134.0290  123.2730   62.7080 O   0  0  0  0  0  0  0  0  0  0  0  0
  133.4310  121.9850   62.6560 C   0  0  0  0  0  0  0  0  0  0  0  0
  134.7764  123.9841   60.6065 H   0  0  0  0  0  0  0  0  0  0  0  0
  134.1862  123.0462   59.1928 H   0  0  0  0  0  0  0  0  0  0  0  0
  134.0710  124.8388   59.1928 H   0  0  0  0  0  0  0  0  0  0  0  0
  130.9591  125.9237   60.6178 H   0  0  0  0  0  0  0  0  0  0  0  0
  130.0070  127.6220   63.7650 H   0  0  0  0  0  0  0  0  0  0  0  0
  127.8924  129.2205   61.7450 H   0  0  0  0  0  0  0  0  0  0  0  0
  128.6079  129.1058   63.4114 H   0  0  0  0  0  0  0  0  0  0  0  0
  134.1860  130.9296   61.0312 H   0  0  0  0  0  0  0  0  0  0  0  0
  134.3946  130.0217   59.4953 H   0  0  0  0  0  0  0  0  0  0  0  0
  134.4714  131.8163   59.4953 H   0  0  0  0  0  0  0  0  0  0  0  0
  132.6349  131.1287   57.5511 H   0  0  0  0  0  0  0  0  0  0  0  0
  130.9139  129.3779   56.2144 H   0  0  0  0  0  0  0  0  0  0  0  0
  130.0598  129.5609   53.8810 H   0  0  0  0  0  0  0  0  0  0  0  0
  128.7253  131.5522   53.2030 H   0  0  0  0  0  0  0  0  0  0  0  0
  128.2442  133.3643   54.8429 H   0  0  0  0  0  0  0  0  0  0  0  0
  129.1011  133.1826   57.1758 H   0  0  0  0  0  0  0  0  0  0  0  0
  131.7791  126.6476   64.7944 H   0  0  0  0  0  0  0  0  0  0  0  0
  133.6126  124.8036   67.0662 H   0  0  0  0  0  0  0  0  0  0  0  0
  134.3998  126.1610   66.1918 H   0  0  0  0  0  0  0  0  0  0  0  0
  132.6098  126.0105   66.1918 H   0  0  0  0  0  0  0  0  0  0  0  0
  133.2607  121.6182   63.6790 H   0  0  0  0  0  0  0  0  0  0  0  0
  132.4701  122.0481   62.1244 H   0  0  0  0  0  0  0  0  0  0  0  0
  134.0993  121.2916   62.1244 H   0  0  0  0  0  0  0  0  0  0  0  0
  1  2  1  0
  2  3  1  0
  3  4  2  0
  4  5  1  0
  5  6  1  0
  6  7  1  0
  7  8  2  0
  7  9  1  0
  9 10  1  0
 10 11  1  0
 11 12  2  0
 12 13  1  0
 13 14  1  0
 13 15  2  0
 15 16  1  0
 16 17  1  0
 17 18  2  0
 18 19  1  0
 19 20  2  0
 20 21  1  0
 21 22  2  0
 16 23  2  0
 23 24  1  0
 24 25  3  0
  5 26  2  0
 26 27  1  0
 27 28  1  0
 28 29  1  0
 27 30  2  0
 30 31  1  0
 31 32  1  0
 30  3  1  0
 23 11  1  0
 22 17  1  0
  1 33  1  0
  1 34  1  0
  1 35  1  0
  4 36  1  0
  6 37  1  0
  9 38  1  0
  9 39  1  0
 14 40  1  0
 14 41  1  0
 14 42  1  0
 15 43  1  0
 18 44  1  0
 19 45  1  0
 20 46  1  0
 21 47  1  0
 22 48  1  0
 26 49  1  0
 29 50  1  0
 29 51  1  0
 29 52  1  0
 32 53  1  0
 32 54  1  0
 32 55  1  0
M  END
>  <Binding energies>  (1) 
[-7.67]

>  <Ligand effiencies>  (1) 
[-0.23242424242424242]

>  <Interactions>  (1) 
["V-A:ILE:369:CG2:3236, V-A:LEU:475:CD1:4257, H-A:TYR:484:OH:4347, V-A:ASP:366:CG:3212, H-A:GLY:454:N:4049, V-A:PRO:540:N:4884, V-A:ILE:538:CA:4860, V-A:ASP:366:CA:3209, V-A:ASP:366:CB:3211, V-A:TYR:539:CG:4872, V-A:ILE:538:CG2:4863, V-A:TYR:539:CD1:4873, V-A:TYR:539:CE2:4876, V-A:PRO:540:CA:4883, V-A:TYR:539:CZ:4877, V-A:TYR:539:CD2:4874, V-A:PRO:540:CB:4885, V-A:TYR:539:CE1:4875, V-A:ILE:538:CB:4862, V-A:TYR:539:C:4867, V-A:GLU:543:CD:4908, V-A:ILE:369:CD1:3238, V-A:ILE:369:CB:3235, V-A:ARG:545:CD:4923, V-A:ARG:545:CG:4922, V-A:ARG:545:CZ:4926, V-A:ILE:538:C:4858, V-A:LEU:363:CA:3184, V-A:LEU:363:CB:3186, V-A:TYR:539:CA:4869, H-A:GLU:543:OE1:4909, H-A:GLU:543:OE2:4910, V-A:GLY:454:CA:4048, V-A:ASN:362:CB:3175, V-A:ASN:362:C:3171"]

$$$$
3ci_Grossjean_2025
     RDKit          3D

 39 41  0  0  0  0  0  0  0  0999 V2000
  129.8720  123.4890   65.1130 C   0  0  0  0  0  0  0  0  0  0  0  0
  129.7030  123.1380   63.6470 C   0  0  0  0  0  0  0  0  0  0  0  0
  130.3390  122.0360   63.0810 C   0  0  0  0  0  0  0  0  0  0  0  0
  130.1380  121.7430   61.7250 C   0  0  0  0  0  0  0  0  0  0  0  0
  130.8280  120.5420   61.1640 C   0  0  0  0  0  0  0  0  0  0  0  0
  130.2670  119.2660   61.2980 C   0  0  0  0  0  0  0  0  0  0  0  0
  130.9180  118.1490   60.7810 C   0  0  0  0  0  0  0  0  0  0  0  0
  132.1390  118.3030   60.1320 C   0  0  0  0  0  0  0  0  0  0  0  0
  132.7150  119.5640   59.9980 C   0  0  0  0  0  0  0  0  0  0  0  0
  132.0610  120.6790   60.5150 C   0  0  0  0  0  0  0  0  0  0  0  0
  129.2950  122.5960   60.9680 C   0  0  0  0  0  0  0  0  0  0  0  0
  129.0830  122.3640   59.5350 C   0  0  0  0  0  0  0  0  0  0  0  0
  128.9150  122.1790   58.4040 N   0  0  0  0  0  0  0  0  0  0  0  0
  128.6840  123.6920   61.6240 C   0  0  0  0  0  0  0  0  0  0  0  0
  127.5870  124.8180   60.7720 S   0  0  0  0  0  0  0  0  0  0  0  0
  125.8730  124.2130   60.9040 C   0  0  0  0  0  0  0  0  0  0  0  0
  125.3600  123.5530   59.6190 C   0  0  0  0  0  0  0  0  0  0  0  0
  124.1670  123.2600   59.5270 O   0  0  0  0  0  0  0  0  0  0  0  0
  126.2910  123.3240   58.6660 N   0  0  0  0  0  0  0  0  0  0  0  0
  126.0890  122.7690   57.4090 C   0  0  0  0  0  0  0  0  0  0  0  0
  125.3120  123.3790   56.4250 C   0  0  0  0  0  0  0  0  0  0  0  0
  125.3610  122.5220   55.3480 C   0  0  0  0  0  0  0  0  0  0  0  0
  126.1280  121.4530   55.6690 O   0  0  0  0  0  0  0  0  0  0  0  0
  126.5820  121.6200   56.9780 N   0  0  0  0  0  0  0  0  0  0  0  0
  128.8950  123.9560   62.9380 N   0  0  0  0  0  0  0  0  0  0  0  0
  129.4780  122.6708   65.7337 H   0  0  0  0  0  0  0  0  0  0  0  0
  130.9395  123.6358   65.3342 H   0  0  0  0  0  0  0  0  0  0  0  0
  129.3210  124.4150   65.3342 H   0  0  0  0  0  0  0  0  0  0  0  0
  130.9946  121.3998   63.6938 H   0  0  0  0  0  0  0  0  0  0  0  0
  129.3041  119.1451   61.8159 H   0  0  0  0  0  0  0  0  0  0  0  0
  130.4693  117.1501   60.8851 H   0  0  0  0  0  0  0  0  0  0  0  0
  132.6536  117.4217   59.7214 H   0  0  0  0  0  0  0  0  0  0  0  0
  133.6819  119.6784   59.4862 H   0  0  0  0  0  0  0  0  0  0  0  0
  132.5164  121.6751   60.4128 H   0  0  0  0  0  0  0  0  0  0  0  0
  125.8255  123.4748   61.7181 H   0  0  0  0  0  0  0  0  0  0  0  0
  125.2340  125.0871   61.0977 H   0  0  0  0  0  0  0  0  0  0  0  0
  127.2380  123.6060   58.8680 H   0  0  0  0  0  0  0  0  0  0  0  0
  124.7760  124.3371   56.4940 H   0  0  0  0  0  0  0  0  0  0  0  0
  124.8581  122.6803   54.3826 H   0  0  0  0  0  0  0  0  0  0  0  0
  1  2  1  0
  2  3  2  0
  3  4  1  0
  4  5  1  0
  5  6  2  0
  6  7  1  0
  7  8  2  0
  8  9  1  0
  9 10  2  0
  4 11  2  0
 11 12  1  0
 12 13  3  0
 11 14  1  0
 14 15  1  0
 15 16  1  0
 16 17  1  0
 17 18  2  0
 17 19  1  0
 19 20  1  0
 20 21  1  0
 21 22  2  0
 22 23  1  0
 23 24  1  0
 14 25  2  0
 25  2  1  0
 10  5  1  0
 24 20  2  0
  1 26  1  0
  1 27  1  0
  1 28  1  0
  3 29  1  0
  6 30  1  0
  7 31  1  0
  8 32  1  0
  9 33  1  0
 10 34  1  0
 16 35  1  0
 16 36  1  0
 19 37  1  0
 21 38  1  0
 22 39  1  0
M  END
>  <Binding energies>  (1) 
[-8.16]

>  <Ligand effiencies>  (1) 
[-0.31384615384615383]

>  <Interactions>  (1) 
["V-B:PRO:540:CB:9857, V-B:MET:535:CE:9807, V-A:ILE:369:CG2:3236, V-B:TYR:539:CD2:9846, V-B:PRO:540:N:9856, V-A:LEU:475:CD1:4257, V-B:PRO:540:CA:9855, H-B:TYR:539:N:9842, V-B:ALA:541:CB:9864, V-B:TYR:539:CE2:9848, V-B:MET:535:CG:9805, V-B:TYR:539:C:9839, V-B:TYR:531:CE2:9765, V-A:PRO:482:CG:4326, V-B:TYR:531:CZ:9766, V-B:LEU:363:CD1:8160, V-A:TYR:484:CZ:4346, V-B:GLU:543:CG:9879, V-B:GLU:543:CD:9880, V-A:TYR:484:CE2:4345, H-B:LEU:363:N:8157, V-A:HIS:383:CD2:3391"]

$$$$
3cj_Grossjean_2025
     RDKit          3D

 39 41  0  0  0  0  0  0  0  0999 V2000
  126.3560  129.9300   57.9660 C   0  0  0  0  0  0  0  0  0  0  0  0
  127.3640  129.0410   57.2630 C   0  0  0  0  0  0  0  0  0  0  0  0
  127.6450  127.7550   57.7200 C   0  0  0  0  0  0  0  0  0  0  0  0
  128.5670  126.9600   57.0250 C   0  0  0  0  0  0  0  0  0  0  0  0
  128.7880  125.5670   57.5120 C   0  0  0  0  0  0  0  0  0  0  0  0
  130.0080  125.2030   58.0950 C   0  0  0  0  0  0  0  0  0  0  0  0
  130.2180  123.8990   58.5370 C   0  0  0  0  0  0  0  0  0  0  0  0
  129.2090  122.9520   58.3910 C   0  0  0  0  0  0  0  0  0  0  0  0
  127.9940  123.2960   57.8050 C   0  0  0  0  0  0  0  0  0  0  0  0
  127.7860  124.6010   57.3640 C   0  0  0  0  0  0  0  0  0  0  0  0
  129.2110  127.5100   55.8900 C   0  0  0  0  0  0  0  0  0  0  0  0
  130.2070  126.7380   55.1390 C   0  0  0  0  0  0  0  0  0  0  0  0
  130.9910  126.1280   54.5450 N   0  0  0  0  0  0  0  0  0  0  0  0
  128.8620  128.8210   55.4960 C   0  0  0  0  0  0  0  0  0  0  0  0
  129.4950  129.5810   54.0150 S   0  0  0  0  0  0  0  0  0  0  0  0
  129.4910  131.3680   54.3690 C   0  0  0  0  0  0  0  0  0  0  0  0
  130.2360  131.6940   55.6670 C   0  0  0  0  0  0  0  0  0  0  0  0
  129.9210  132.6960   56.3130 O   0  0  0  0  0  0  0  0  0  0  0  0
  131.1850  130.8040   56.0290 N   0  0  0  0  0  0  0  0  0  0  0  0
  131.9020  130.7950   57.2150 C   0  0  0  0  0  0  0  0  0  0  0  0
  133.1940  130.6090   57.3770 N   0  0  0  0  0  0  0  0  0  0  0  0
  133.5390  130.6980   58.6460 C   0  0  0  0  0  0  0  0  0  0  0  0
  132.5120  130.9600   59.5480 C   0  0  0  0  0  0  0  0  0  0  0  0
  131.0150  131.0960   58.6750 S   0  0  0  0  0  0  0  0  0  0  0  0
  127.9480  129.5680   56.1640 N   0  0  0  0  0  0  0  0  0  0  0  0
  126.4728  129.8270   59.0549 H   0  0  0  0  0  0  0  0  0  0  0  0
  126.5261  130.9775   57.6765 H   0  0  0  0  0  0  0  0  0  0  0  0
  125.3380  129.6303   57.6765 H   0  0  0  0  0  0  0  0  0  0  0  0
  127.1466  127.3662   58.6202 H   0  0  0  0  0  0  0  0  0  0  0  0
  130.8060  125.9521   58.2047 H   0  0  0  0  0  0  0  0  0  0  0  0
  131.1763  123.6193   58.9990 H   0  0  0  0  0  0  0  0  0  0  0  0
  129.3729  121.9224   58.7417 H   0  0  0  0  0  0  0  0  0  0  0  0
  127.2021  122.5411   57.6907 H   0  0  0  0  0  0  0  0  0  0  0  0
  126.8284  124.8739   56.8966 H   0  0  0  0  0  0  0  0  0  0  0  0
  129.9785  131.8967   53.5366 H   0  0  0  0  0  0  0  0  0  0  0  0
  128.4458  131.6905   54.4852 H   0  0  0  0  0  0  0  0  0  0  0  0
  131.3360  130.0130   55.4200 H   0  0  0  0  0  0  0  0  0  0  0  0
  134.5814  130.5721   58.9741 H   0  0  0  0  0  0  0  0  0  0  0  0
  132.6287  131.0641   60.6368 H   0  0  0  0  0  0  0  0  0  0  0  0
  1  2  1  0
  2  3  2  0
  3  4  1  0
  4  5  1  0
  5  6  2  0
  6  7  1  0
  7  8  2  0
  8  9  1  0
  9 10  2  0
  4 11  2  0
 11 12  1  0
 12 13  3  0
 11 14  1  0
 14 15  1  0
 15 16  1  0
 16 17  1  0
 17 18  2  0
 17 19  1  0
 19 20  1  0
 20 21  2  0
 21 22  1  0
 22 23  2  0
 23 24  1  0
 14 25  2  0
 25  2  1  0
 10  5  1  0
 24 20  1  0
  1 26  1  0
  1 27  1  0
  1 28  1  0
  3 29  1  0
  6 30  1  0
  7 31  1  0
  8 32  1  0
  9 33  1  0
 10 34  1  0
 16 35  1  0
 16 36  1  0
 19 37  1  0
 22 38  1  0
 23 39  1  0
M  END
>  <Binding energies>  (1) 
[-7.84]

>  <Ligand effiencies>  (1) 
[-0.30153846153846153]

>  <Interactions>  (1) 
["H-B:TYR:531:OH:9767, V-B:MET:535:CE:9807, V-B:TYR:539:CD2:9846, V-B:TYR:539:CE2:9848, V-A:ASP:366:CG:3212, V-A:ILE:538:CA:4860, V-A:ASP:366:CB:3211, V-A:ILE:538:CG2:4863, H-B:TYR:539:OH:9850, V-A:PRO:540:CA:4883, H-A:TYR:531:OH:4795, H-A:TYR:539:N:4870, V-A:PRO:540:CB:4885, V-A:TYR:539:CE1:4875, V-A:ILE:538:CB:4862, V-A:LEU:363:CD1:3188, V-B:TYR:539:CZ:9849, V-A:LEU:363:CA:3184, V-A:LEU:363:CB:3186"]

$$$$
3ck_Grossjean_2025
     RDKit          3D

 57 58  0  0  0  0  0  0  0  0999 V2000
  127.6430  129.2630   54.5640 C   0  0  0  0  0  0  0  0  0  0  0  0
  127.7810  130.5790   54.0510 O   0  0  0  0  0  0  0  0  0  0  0  0
  129.0580  131.1500   54.2940 C   0  0  0  0  0  0  0  0  0  0  0  0
  128.8930  132.4780   55.0440 C   0  0  0  0  0  0  0  0  0  0  0  0
  129.7740  132.5010   56.1600 O   0  0  0  0  0  0  0  0  0  0  0  0
  129.1400  132.2240   57.4010 C   0  0  0  0  0  0  0  0  0  0  0  0
  130.1920  131.7300   58.4020 C   0  0  0  0  0  0  0  0  0  0  0  0
  129.8730  130.3950   58.7640 O   0  0  0  0  0  0  0  0  0  0  0  0
  130.8880  129.7150   59.4880 C   0  0  0  0  0  0  0  0  0  0  0  0
  130.4050  129.4490   60.9260 C   0  0  0  0  0  0  0  0  0  0  0  0
  131.0460  128.2930   61.5590 N   0  0  0  0  0  0  0  0  0  0  0  0
  130.4660  127.1000   61.7830 C   0  0  0  0  0  0  0  0  0  0  0  0
  129.3090  126.8370   61.4470 O   0  0  0  0  0  0  0  0  0  0  0  0
  131.3470  126.0580   62.4920 C   0  0  0  0  0  0  0  0  0  0  0  0
  131.0700  124.3250   61.9880 S   0  0  0  0  0  0  0  0  0  0  0  0
  130.5770  124.2860   60.2710 C   0  0  0  0  0  0  0  0  0  0  0  0
  131.4770  124.7950   59.3920 N   0  0  0  0  0  0  0  0  0  0  0  0
  131.1680  124.8020   58.0760 C   0  0  0  0  0  0  0  0  0  0  0  0
  132.2200  125.3880   57.1550 C   0  0  0  0  0  0  0  0  0  0  0  0
  129.9620  124.3070   57.5860 C   0  0  0  0  0  0  0  0  0  0  0  0
  129.0150  123.7830   58.4760 C   0  0  0  0  0  0  0  0  0  0  0  0
  127.7270  123.2850   57.9080 C   0  0  0  0  0  0  0  0  0  0  0  0
  127.7020  122.1150   57.1390 C   0  0  0  0  0  0  0  0  0  0  0  0
  126.5050  121.6510   56.5980 C   0  0  0  0  0  0  0  0  0  0  0  0
  125.3280  122.3610   56.8190 C   0  0  0  0  0  0  0  0  0  0  0  0
  125.3380  123.5310   57.5740 C   0  0  0  0  0  0  0  0  0  0  0  0
  126.5350  123.9920   58.1140 C   0  0  0  0  0  0  0  0  0  0  0  0
  129.3320  123.7580   59.8590 C   0  0  0  0  0  0  0  0  0  0  0  0
  128.3970  123.1830   60.8320 C   0  0  0  0  0  0  0  0  0  0  0  0
  127.6590  122.7280   61.5990 N   0  0  0  0  0  0  0  0  0  0  0  0
  127.6464  129.2958   55.6635 H   0  0  0  0  0  0  0  0  0  0  0  0
  126.6945  128.8302   54.2131 H   0  0  0  0  0  0  0  0  0  0  0  0
  128.4810  128.6429   54.2131 H   0  0  0  0  0  0  0  0  0  0  0  0
  129.6588  130.4580   54.9025 H   0  0  0  0  0  0  0  0  0  0  0  0
  129.5654  131.3323   53.3352 H   0  0  0  0  0  0  0  0  0  0  0  0
  129.1329  133.3131   54.3694 H   0  0  0  0  0  0  0  0  0  0  0  0
  127.8545  132.5773   55.3927 H   0  0  0  0  0  0  0  0  0  0  0  0
  128.6668  133.1396   57.7855 H   0  0  0  0  0  0  0  0  0  0  0  0
  128.3704  131.4508   57.2599 H   0  0  0  0  0  0  0  0  0  0  0  0
  131.1892  131.7613   57.9388 H   0  0  0  0  0  0  0  0  0  0  0  0
  130.1963  132.3731   59.2944 H   0  0  0  0  0  0  0  0  0  0  0  0
  131.1119  128.7581   58.9939 H   0  0  0  0  0  0  0  0  0  0  0  0
  131.7958  130.3356   59.5159 H   0  0  0  0  0  0  0  0  0  0  0  0
  130.6181  130.3404   61.5343 H   0  0  0  0  0  0  0  0  0  0  0  0
  129.3291  129.2277   60.8677 H   0  0  0  0  0  0  0  0  0  0  0  0
  132.0030  128.4220   61.8520 H   0  0  0  0  0  0  0  0  0  0  0  0
  132.3987  126.3070   62.2872 H   0  0  0  0  0  0  0  0  0  0  0  0
  131.0798  126.1101   63.5578 H   0  0  0  0  0  0  0  0  0  0  0  0
  133.0248  125.8363   57.7560 H   0  0  0  0  0  0  0  0  0  0  0  0
  132.6363  124.5918   56.5204 H   0  0  0  0  0  0  0  0  0  0  0  0
  131.7622  126.1611   56.5204 H   0  0  0  0  0  0  0  0  0  0  0  0
  129.7540  124.3273   56.5060 H   0  0  0  0  0  0  0  0  0  0  0  0
  128.6339  121.5584   56.9609 H   0  0  0  0  0  0  0  0  0  0  0  0
  126.4899  120.7283   55.9993 H   0  0  0  0  0  0  0  0  0  0  0  0
  124.3821  121.9946   56.3936 H   0  0  0  0  0  0  0  0  0  0  0  0
  124.4046  124.0880   57.7427 H   0  0  0  0  0  0  0  0  0  0  0  0
  126.5453  124.9184   58.7070 H   0  0  0  0  0  0  0  0  0  0  0  0
  1  2  1  0
  2  3  1  0
  3  4  1  0
  4  5  1  0
  5  6  1  0
  6  7  1  0
  7  8  1  0
  8  9  1  0
  9 10  1  0
 10 11  1  0
 11 12  1  0
 12 13  2  0
 12 14  1  0
 14 15  1  0
 15 16  1  0
 16 17  2  0
 17 18  1  0
 18 19  1  0
 18 20  2  0
 20 21  1  0
 21 22  1  0
 22 23  2  0
 23 24  1  0
 24 25  2  0
 25 26  1  0
 26 27  2  0
 21 28  2  0
 28 29  1  0
 29 30  3  0
 28 16  1  0
 27 22  1  0
  1 31  1  0
  1 32  1  0
  1 33  1  0
  3 34  1  0
  3 35  1  0
  4 36  1  0
  4 37  1  0
  6 38  1  0
  6 39  1  0
  7 40  1  0
  7 41  1  0
  9 42  1  0
  9 43  1  0
 10 44  1  0
 10 45  1  0
 11 46  1  0
 14 47  1  0
 14 48  1  0
 19 49  1  0
 19 50  1  0
 19 51  1  0
 20 52  1  0
 23 53  1  0
 24 54  1  0
 25 55  1  0
 26 56  1  0
 27 57  1  0
M  END
>  <Binding energies>  (1) 
[-7.13]

>  <Ligand effiencies>  (1) 
[-0.23]

>  <Interactions>  (1) 
["H-B:ALA:541:N:9863, V-B:PRO:540:CB:9857, V-B:MET:535:CE:9807, V-B:TYR:539:CD2:9846, V-B:PRO:540:N:9856, V-B:PRO:540:CA:9855, V-B:TYR:539:CE2:9848, V-B:TYR:539:C:9839, V-B:TYR:531:CE2:9765, V-B:TYR:531:CZ:9766, V-B:LEU:363:CD1:8160, V-B:TYR:539:CA:9841, V-A:ASP:366:CG:3212, V-B:PRO:540:CD:9859, V-A:PRO:540:N:4884, V-A:ILE:538:CA:4860, V-A:ASP:366:CB:3211, V-A:TYR:539:CG:4872, V-A:ILE:538:CG2:4863, V-A:TYR:539:CD1:4873, V-A:TYR:539:CE2:4876, V-A:PRO:540:CA:4883, H-A:TYR:539:N:4870, V-A:TYR:539:CZ:4877, V-A:TYR:539:CD2:4874, V-A:TYR:539:CE1:4875, V-A:ILE:538:CB:4862, V-B:TYR:531:CE1:9764, H-B:LYS:534:NZ:9795, V-A:TYR:539:C:4867, V-A:GLU:543:CD:4908, H-A:ASP:366:OD2:3214, V-B:TYR:539:CZ:9849, H-A:TYR:539:OH:4878, V-B:TYR:539:CG:9844, V-B:TYR:539:CD1:9845, V-A:ILE:538:C:4858, V-A:TYR:539:CA:4869, H-A:GLU:543:OE1:4909, H-A:GLU:543:OE2:4910, H-A:ASP:366:OD1:3213"]

$$$$
4aa_Grossjean_2025
     RDKit          3D

 45 47  0  0  0  0  0  0  0  0999 V2000
  130.8220  126.2520   67.4130 C   0  0  0  0  0  0  0  0  0  0  0  0
  132.2440  126.7410   67.1200 C   0  0  0  0  0  0  0  0  0  0  0  0
  133.0960  125.6200   66.9160 O   0  0  0  0  0  0  0  0  0  0  0  0
  133.6310  125.3590   65.6960 C   0  0  0  0  0  0  0  0  0  0  0  0
  134.8450  125.3640   65.4700 O   0  0  0  0  0  0  0  0  0  0  0  0
  132.5980  125.0660   64.6460 C   0  0  0  0  0  0  0  0  0  0  0  0
  132.4810  123.7610   64.1480 C   0  0  0  0  0  0  0  0  0  0  0  0
  131.5370  123.4590   63.1700 C   0  0  0  0  0  0  0  0  0  0  0  0
  130.6860  124.4500   62.6780 C   0  0  0  0  0  0  0  0  0  0  0  0
  129.7750  124.0360   61.6870 N   0  0  0  0  0  0  0  0  0  0  0  0
  128.7510  123.1520   61.7550 C   0  0  0  0  0  0  0  0  0  0  0  0
  128.4690  122.4960   62.7590 O   0  0  0  0  0  0  0  0  0  0  0  0
  127.9830  122.9890   60.5200 C   0  0  0  0  0  0  0  0  0  0  0  0
  128.6100  121.9910   59.2050 S   0  0  0  0  0  0  0  0  0  0  0  0
  127.2220  122.3530   58.2050 C   0  0  0  0  0  0  0  0  0  0  0  0
  127.0880  121.8520   56.9760 N   0  0  0  0  0  0  0  0  0  0  0  0
  125.9670  122.2150   56.3050 C   0  0  0  0  0  0  0  0  0  0  0  0
  125.8360  121.6380   54.9070 C   0  0  0  0  0  0  0  0  0  0  0  0
  124.9870  123.0550   56.8300 C   0  0  0  0  0  0  0  0  0  0  0  0
  125.1310  123.5770   58.1190 C   0  0  0  0  0  0  0  0  0  0  0  0
  124.0340  124.4890   58.6490 C   0  0  0  0  0  0  0  0  0  0  0  0
  126.2950  123.2230   58.8530 C   0  0  0  0  0  0  0  0  0  0  0  0
  126.7550  123.5740   60.1700 C   0  0  0  0  0  0  0  0  0  0  0  0
  126.0420  124.4050   60.9970 N   0  0  0  0  0  0  0  0  0  0  0  0
  130.7990  125.7590   63.1670 C   0  0  0  0  0  0  0  0  0  0  0  0
  131.7470  126.0610   64.1430 C   0  0  0  0  0  0  0  0  0  0  0  0
  130.6692  126.1995   68.5011 H   0  0  0  0  0  0  0  0  0  0  0  0
  130.0958  126.9520   66.9742 H   0  0  0  0  0  0  0  0  0  0  0  0
  130.6799  125.2534   66.9742 H   0  0  0  0  0  0  0  0  0  0  0  0
  132.2379  127.3669   66.2154 H   0  0  0  0  0  0  0  0  0  0  0  0
  132.6121  127.3325   67.9713 H   0  0  0  0  0  0  0  0  0  0  0  0
  133.1403  122.9690   64.5329 H   0  0  0  0  0  0  0  0  0  0  0  0
  131.4614  122.4323   62.7824 H   0  0  0  0  0  0  0  0  0  0  0  0
  129.9270  124.4630   60.7840 H   0  0  0  0  0  0  0  0  0  0  0  0
  125.5929  120.5673   54.9736 H   0  0  0  0  0  0  0  0  0  0  0  0
  125.0342  122.1632   54.3672 H   0  0  0  0  0  0  0  0  0  0  0  0
  126.7859  121.7655   54.3672 H   0  0  0  0  0  0  0  0  0  0  0  0
  124.1001  123.3074   56.2303 H   0  0  0  0  0  0  0  0  0  0  0  0
  124.0474  124.4778   59.7489 H   0  0  0  0  0  0  0  0  0  0  0  0
  124.2050  125.5148   58.2906 H   0  0  0  0  0  0  0  0  0  0  0  0
  123.0567  124.1335   58.2906 H   0  0  0  0  0  0  0  0  0  0  0  0
  125.6860  125.2950   60.6800 H   0  0  0  0  0  0  0  0  0  0  0  0
  125.8500  124.1530   61.9570 H   0  0  0  0  0  0  0  0  0  0  0  0
  130.1385  126.5489   62.7798 H   0  0  0  0  0  0  0  0  0  0  0  0
  131.8286  127.0902   64.5227 H   0  0  0  0  0  0  0  0  0  0  0  0
  1  2  1  0
  2  3  1  0
  3  4  1  0
  4  5  2  0
  4  6  1  0
  6  7  2  0
  7  8  1  0
  8  9  2  0
  9 10  1  0
 10 11  1  0
 11 12  2  0
 11 13  1  0
 13 14  1  0
 14 15  1  0
 15 16  2  0
 16 17  1  0
 17 18  1  0
 17 19  2  0
 19 20  1  0
 20 21  1  0
 20 22  2  0
 22 23  1  0
 23 24  1  0
  9 25  1  0
 25 26  2  0
 26  6  1  0
 23 13  2  0
 22 15  1  0
  1 27  1  0
  1 28  1  0
  1 29  1  0
  2 30  1  0
  2 31  1  0
  7 32  1  0
  8 33  1  0
 10 34  1  0
 18 35  1  0
 18 36  1  0
 18 37  1  0
 19 38  1  0
 21 39  1  0
 21 40  1  0
 21 41  1  0
 24 42  1  0
 24 43  1  0
 25 44  1  0
 26 45  1  0
M  END
>  <Binding energies>  (1) 
[-7.36]

>  <Ligand effiencies>  (1) 
[-0.2537931034482759]

>  <Interactions>  (1) 
["H-B:ALA:541:N:9863, V-B:PRO:540:CB:9857, V-B:MET:535:CE:9807, V-B:TYR:539:CD2:9846, V-B:PRO:540:N:9856, V-B:PRO:540:CA:9855, H-B:TYR:539:N:9842, V-B:TYR:539:CE2:9848, V-B:MET:535:CG:9805, V-B:TYR:539:C:9839, V-B:TYR:531:CE2:9765, V-B:LEU:363:CD1:8160, H-A:TYR:484:OH:4347, H-A:GLY:454:N:4049, V-B:PRO:540:CD:9859, V-B:ASP:366:CG:8184, V-B:ASP:366:CB:8183, V-A:GLU:543:CD:4908, V-B:LEU:363:CA:8156, V-A:HIS:456:CE1:4069, V-A:ARG:545:CD:4923, H-B:GLU:543:OE1:9881, H-B:GLU:543:OE2:9882, H-A:ARG:545:NE:4924, V-A:ARG:545:CG:4922, V-A:ARG:545:CZ:4926, H-A:ARG:545:NH1:4927, V-B:ILE:538:CA:9832, V-B:ILE:538:CG1:9836, V-B:ILE:538:CG2:9835, H-B:ASP:366:OD1:8185, V-B:ILE:538:C:9830, V-B:ILE:538:CB:9834, V-A:GLY:454:CA:4048, V-B:MET:535:CB:9804, V-B:LEU:363:CB:8158"]

$$$$
4ab_Grossjean_2025
     RDKit          3D

 42 44  0  0  0  0  0  0  0  0999 V2000
  124.6610  124.5560   57.6960 C   0  0  0  0  0  0  0  0  0  0  0  0
  125.3370  123.7940   56.7060 O   0  0  0  0  0  0  0  0  0  0  0  0
  126.1430  122.7580   57.0510 C   0  0  0  0  0  0  0  0  0  0  0  0
  126.0910  121.6460   56.5140 O   0  0  0  0  0  0  0  0  0  0  0  0
  127.1020  123.0950   58.1560 C   0  0  0  0  0  0  0  0  0  0  0  0
  126.6150  123.2370   59.4630 C   0  0  0  0  0  0  0  0  0  0  0  0
  127.4790  123.5510   60.5090 C   0  0  0  0  0  0  0  0  0  0  0  0
  128.8430  123.7210   60.2740 C   0  0  0  0  0  0  0  0  0  0  0  0
  129.6210  124.0440   61.4020 N   0  0  0  0  0  0  0  0  0  0  0  0
  129.4120  123.7740   62.7140 C   0  0  0  0  0  0  0  0  0  0  0  0
  128.4170  123.1960   63.1520 O   0  0  0  0  0  0  0  0  0  0  0  0
  130.4610  124.2430   63.6220 C   0  0  0  0  0  0  0  0  0  0  0  0
  132.1340  123.7290   63.3910 S   0  0  0  0  0  0  0  0  0  0  0  0
  132.6540  124.6250   64.8000 C   0  0  0  0  0  0  0  0  0  0  0  0
  133.9270  124.6420   65.1970 N   0  0  0  0  0  0  0  0  0  0  0  0
  134.1960  125.3730   66.3050 C   0  0  0  0  0  0  0  0  0  0  0  0
  135.6490  125.3740   66.7430 C   0  0  0  0  0  0  0  0  0  0  0  0
  133.2320  126.0840   67.0180 C   0  0  0  0  0  0  0  0  0  0  0  0
  131.8970  126.0640   66.5990 C   0  0  0  0  0  0  0  0  0  0  0  0
  130.8820  126.8550   67.4100 C   0  0  0  0  0  0  0  0  0  0  0  0
  131.5750  125.3050   65.4420 C   0  0  0  0  0  0  0  0  0  0  0  0
  130.3360  125.0640   64.7530 C   0  0  0  0  0  0  0  0  0  0  0  0
  129.1460  125.6020   65.1770 N   0  0  0  0  0  0  0  0  0  0  0  0
  129.3390  123.5860   58.9680 C   0  0  0  0  0  0  0  0  0  0  0  0
  128.4740  123.2740   57.9230 C   0  0  0  0  0  0  0  0  0  0  0  0
  124.9662  124.2120   58.6953 H   0  0  0  0  0  0  0  0  0  0  0  0
  124.9185  125.6191   57.5797 H   0  0  0  0  0  0  0  0  0  0  0  0
  123.5748  124.4270   57.5797 H   0  0  0  0  0  0  0  0  0  0  0  0
  125.5423  123.0993   59.6637 H   0  0  0  0  0  0  0  0  0  0  0  0
  127.0824  123.6658   61.5286 H   0  0  0  0  0  0  0  0  0  0  0  0
  130.4550  124.5700   61.1900 H   0  0  0  0  0  0  0  0  0  0  0  0
  135.7007  125.3740   67.8418 H   0  0  0  0  0  0  0  0  0  0  0  0
  136.1503  124.4762   66.3523 H   0  0  0  0  0  0  0  0  0  0  0  0
  136.1491  126.2725   66.3523 H   0  0  0  0  0  0  0  0  0  0  0  0
  133.5205  126.6604   67.9094 H   0  0  0  0  0  0  0  0  0  0  0  0
  131.0735  126.7058   68.4829 H   0  0  0  0  0  0  0  0  0  0  0  0
  130.9713  127.9241   67.1668 H   0  0  0  0  0  0  0  0  0  0  0  0
  129.8672  126.5072   67.1668 H   0  0  0  0  0  0  0  0  0  0  0  0
  128.3670  125.0240   65.4520 H   0  0  0  0  0  0  0  0  0  0  0  0
  129.0110  126.6030   65.2230 H   0  0  0  0  0  0  0  0  0  0  0  0
  130.4119  123.7268   58.7701 H   0  0  0  0  0  0  0  0  0  0  0  0
  128.8707  123.1665   56.9027 H   0  0  0  0  0  0  0  0  0  0  0  0
  1  2  1  0
  2  3  1  0
  3  4  2  0
  3  5  1  0
  5  6  2  0
  6  7  1  0
  7  8  2  0
  8  9  1  0
  9 10  1  0
 10 11  2  0
 10 12  1  0
 12 13  1  0
 13 14  1  0
 14 15  2  0
 15 16  1  0
 16 17  1  0
 16 18  2  0
 18 19  1  0
 19 20  1  0
 19 21  2  0
 21 22  1  0
 22 23  1  0
  8 24  1  0
 24 25  2  0
 25  5  1  0
 22 12  2  0
 21 14  1  0
  1 26  1  0
  1 27  1  0
  1 28  1  0
  6 29  1  0
  7 30  1  0
  9 31  1  0
 17 32  1  0
 17 33  1  0
 17 34  1  0
 18 35  1  0
 20 36  1  0
 20 37  1  0
 20 38  1  0
 23 39  1  0
 23 40  1  0
 24 41  1  0
 25 42  1  0
M  END
>  <Binding energies>  (1) 
[-7.46]

>  <Ligand effiencies>  (1) 
[-0.2664285714285714]

>  <Interactions>  (1) 
["V-B:PRO:540:CB:9857, H-B:TYR:531:OH:9767, V-B:MET:535:CE:9807, V-B:PRO:540:N:9856, V-B:PRO:540:CA:9855, H-B:TYR:539:N:9842, V-B:TYR:539:CE2:9848, V-B:TYR:531:CE2:9765, V-B:TYR:531:CZ:9766, V-B:LEU:363:CD1:8160, H-A:TYR:484:OH:4347, H-A:GLY:454:N:4049, V-B:ASP:366:CB:8183, V-A:GLU:543:CD:4908, V-A:HIS:456:CE1:4069, V-B:GLU:543:CB:9878, V-A:ARG:545:CD:4923, V-A:ILE:455:C:4051, V-B:GLU:543:CG:9879, H-B:GLU:543:OE1:9881, V-B:GLU:543:CD:9880, H-B:GLU:543:OE2:9882, V-A:ARG:545:CG:4922, V-A:ARG:545:CZ:4926, V-A:GLU:543:CB:4906, H-A:GLU:543:OE1:4909, V-A:GLY:454:CA:4048, V-A:GLY:453:CA:4043, V-A:GLY:453:C:4041, V-A:GLY:454:C:4046, V-A:ILE:455:CA:4053, V-A:ARG:545:CB:4921, V-A:VAL:452:CG2:4039"]

$$$$
4ac_Grossjean_2025
     RDKit          3D

 40 42  0  0  0  0  0  0  0  0999 V2000
  133.8330  125.3830   66.6950 C   0  0  0  0  0  0  0  0  0  0  0  0
  134.0460  125.3270   65.2890 O   0  0  0  0  0  0  0  0  0  0  0  0
  132.9900  125.0060   64.4590 C   0  0  0  0  0  0  0  0  0  0  0  0
  133.3170  124.4760   63.2110 C   0  0  0  0  0  0  0  0  0  0  0  0
  132.3190  124.1230   62.3070 C   0  0  0  0  0  0  0  0  0  0  0  0
  130.9750  124.2860   62.6450 C   0  0  0  0  0  0  0  0  0  0  0  0
  130.0370  123.9140   61.6640 N   0  0  0  0  0  0  0  0  0  0  0  0
  128.9580  123.1040   61.7740 C   0  0  0  0  0  0  0  0  0  0  0  0
  128.6420  122.5130   62.8090 O   0  0  0  0  0  0  0  0  0  0  0  0
  128.1590  122.9520   60.5550 C   0  0  0  0  0  0  0  0  0  0  0  0
  128.7880  122.0360   59.1850 S   0  0  0  0  0  0  0  0  0  0  0  0
  127.3370  122.3390   58.2560 C   0  0  0  0  0  0  0  0  0  0  0  0
  127.1800  121.8670   57.0180 N   0  0  0  0  0  0  0  0  0  0  0  0
  126.0090  122.1740   56.4090 C   0  0  0  0  0  0  0  0  0  0  0  0
  125.8500  121.6280   55.0020 C   0  0  0  0  0  0  0  0  0  0  0  0
  125.0030  122.9360   57.0010 C   0  0  0  0  0  0  0  0  0  0  0  0
  125.1720  123.4300   58.2990 C   0  0  0  0  0  0  0  0  0  0  0  0
  124.0460  124.2560   58.9020 C   0  0  0  0  0  0  0  0  0  0  0  0
  126.3860  123.1260   58.9710 C   0  0  0  0  0  0  0  0  0  0  0  0
  126.8790  123.4600   60.2800 C   0  0  0  0  0  0  0  0  0  0  0  0
  126.1500  124.2120   61.1670 N   0  0  0  0  0  0  0  0  0  0  0  0
  130.6370  124.8300   63.8930 C   0  0  0  0  0  0  0  0  0  0  0  0
  131.6390  125.1830   64.7940 C   0  0  0  0  0  0  0  0  0  0  0  0
  134.7690  125.1369   67.2177 H   0  0  0  0  0  0  0  0  0  0  0  0
  133.5110  126.3963   66.9770 H   0  0  0  0  0  0  0  0  0  0  0  0
  133.0543  124.6591   66.9770 H   0  0  0  0  0  0  0  0  0  0  0  0
  134.3734  124.3356   62.9385 H   0  0  0  0  0  0  0  0  0  0  0  0
  132.5908  123.7141   61.3227 H   0  0  0  0  0  0  0  0  0  0  0  0
  130.2250  124.2850   60.7430 H   0  0  0  0  0  0  0  0  0  0  0  0
  125.5427  120.5729   55.0507 H   0  0  0  0  0  0  0  0  0  0  0  0
  125.0837  122.2088   54.4677 H   0  0  0  0  0  0  0  0  0  0  0  0
  126.8083  121.7065   54.4677 H   0  0  0  0  0  0  0  0  0  0  0  0
  124.0764  123.1489   56.4477 H   0  0  0  0  0  0  0  0  0  0  0  0
  124.1061  124.2119   59.9995 H   0  0  0  0  0  0  0  0  0  0  0  0
  124.1401  125.3009   58.5713 H   0  0  0  0  0  0  0  0  0  0  0  0
  123.0776  123.8525   58.5713 H   0  0  0  0  0  0  0  0  0  0  0  0
  125.4760  124.8960   60.8580 H   0  0  0  0  0  0  0  0  0  0  0  0
  126.2630  124.1020   62.1650 H   0  0  0  0  0  0  0  0  0  0  0  0
  129.5803  124.9779   64.1603 H   0  0  0  0  0  0  0  0  0  0  0  0
  131.3694  125.6031   65.7742 H   0  0  0  0  0  0  0  0  0  0  0  0
  1  2  1  0
  2  3  1  0
  3  4  2  0
  4  5  1  0
  5  6  2  0
  6  7  1  0
  7  8  1  0
  8  9  2  0
  8 10  1  0
 10 11  1  0
 11 12  1  0
 12 13  2  0
 13 14  1  0
 14 15  1  0
 14 16  2  0
 16 17  1  0
 17 18  1  0
 17 19  2  0
 19 20  1  0
 20 21  1  0
  6 22  1  0
 22 23  2  0
 23  3  1  0
 20 10  2  0
 19 12  1  0
  1 24  1  0
  1 25  1  0
  1 26  1  0
  4 27  1  0
  5 28  1  0
  7 29  1  0
 15 30  1  0
 15 31  1  0
 15 32  1  0
 16 33  1  0
 18 34  1  0
 18 35  1  0
 18 36  1  0
 21 37  1  0
 21 38  1  0
 22 39  1  0
 23 40  1  0
M  END
>  <Binding energies>  (1) 
[-7.29]

>  <Ligand effiencies>  (1) 
[-0.2803846153846154]

>  <Interactions>  (1) 
["H-B:ALA:541:N:9863, V-B:PRO:540:CB:9857, V-B:MET:535:CE:9807, V-B:TYR:539:CD2:9846, V-B:PRO:540:N:9856, V-B:PRO:540:CA:9855, H-B:TYR:539:N:9842, V-B:TYR:539:CE2:9848, V-B:MET:535:CG:9805, V-B:TYR:539:C:9839, V-B:TYR:531:CE2:9765, V-B:LEU:363:CD1:8160, H-A:TYR:484:OH:4347, H-A:GLY:454:N:4049, V-B:PRO:540:CD:9859, V-B:ASP:366:CG:8184, V-B:ASP:366:CB:8183, V-B:LEU:363:CA:8156, H-A:ARG:545:NH2:4928, V-A:TYR:484:CZ:4346, V-A:ARG:545:CD:4923, H-B:GLU:543:OE1:9881, V-B:GLU:543:CD:9880, H-B:GLU:543:OE2:9882, H-A:ARG:545:NE:4924, V-A:ARG:545:CG:4922, V-A:ARG:545:CZ:4926, H-A:ARG:545:NH1:4927, V-B:ILE:538:CA:9832, V-B:ILE:538:CG1:9836, V-B:ILE:538:CG2:9835, H-B:ASP:366:OD1:8185, V-B:ILE:538:C:9830, V-B:ILE:538:CB:9834, V-B:LEU:363:CB:8158"]

$$$$
4ad_Grossjean_2025
     RDKit          3D

 36 38  0  0  0  0  0  0  0  0999 V2000
  130.2550  132.1250   54.7640 C   0  0  0  0  0  0  0  0  0  0  0  0
  130.5050  131.7860   56.2210 C   0  0  0  0  0  0  0  0  0  0  0  0
  131.7430  131.3080   56.6450 C   0  0  0  0  0  0  0  0  0  0  0  0
  131.9510  131.0000   57.9950 C   0  0  0  0  0  0  0  0  0  0  0  0
  133.3180  130.4780   58.4080 C   0  0  0  0  0  0  0  0  0  0  0  0
  130.8660  131.1920   58.8930 C   0  0  0  0  0  0  0  0  0  0  0  0
  130.7310  130.9840   60.3090 C   0  0  0  0  0  0  0  0  0  0  0  0
  131.7660  130.5170   61.0810 N   0  0  0  0  0  0  0  0  0  0  0  0
  129.4610  131.3020   60.8150 C   0  0  0  0  0  0  0  0  0  0  0  0
  128.9750  131.1960   62.1920 C   0  0  0  0  0  0  0  0  0  0  0  0
  129.5830  131.7400   63.1160 O   0  0  0  0  0  0  0  0  0  0  0  0
  127.8330  130.4820   62.3520 N   0  0  0  0  0  0  0  0  0  0  0  0
  127.1370  130.1600   63.5330 C   0  0  0  0  0  0  0  0  0  0  0  0
  125.7820  129.8520   63.3780 C   0  0  0  0  0  0  0  0  0  0  0  0
  125.0090  129.5100   64.4850 C   0  0  0  0  0  0  0  0  0  0  0  0
  125.5940  129.4670   65.7480 C   0  0  0  0  0  0  0  0  0  0  0  0
  126.9460  129.7580   65.9130 C   0  0  0  0  0  0  0  0  0  0  0  0
  127.7210  130.1020   64.8080 C   0  0  0  0  0  0  0  0  0  0  0  0
  128.3920  131.8770   59.5340 S   0  0  0  0  0  0  0  0  0  0  0  0
  129.6490  131.6870   58.3340 C   0  0  0  0  0  0  0  0  0  0  0  0
  129.4500  131.9820   57.0480 N   0  0  0  0  0  0  0  0  0  0  0  0
  129.6032  133.0088   54.6998 H   0  0  0  0  0  0  0  0  0  0  0  0
  131.2131  132.3391   54.2677 H   0  0  0  0  0  0  0  0  0  0  0  0
  129.7674  131.2730   54.2677 H   0  0  0  0  0  0  0  0  0  0  0  0
  132.5578  131.1724   55.9186 H   0  0  0  0  0  0  0  0  0  0  0  0
  133.3845  130.4526   59.5057 H   0  0  0  0  0  0  0  0  0  0  0  0
  133.4589  129.4628   58.0085 H   0  0  0  0  0  0  0  0  0  0  0  0
  134.0996  131.1409   58.0085 H   0  0  0  0  0  0  0  0  0  0  0  0
  132.4660  129.8900   60.7140 H   0  0  0  0  0  0  0  0  0  0  0  0
  131.8630  130.7920   62.0500 H   0  0  0  0  0  0  0  0  0  0  0  0
  127.4010  130.1410   61.5060 H   0  0  0  0  0  0  0  0  0  0  0  0
  125.3247  129.8799   62.3779 H   0  0  0  0  0  0  0  0  0  0  0  0
  123.9414  129.2750   64.3622 H   0  0  0  0  0  0  0  0  0  0  0  0
  124.9829  129.2009   66.6231 H   0  0  0  0  0  0  0  0  0  0  0  0
  127.4007  129.7162   66.9137 H   0  0  0  0  0  0  0  0  0  0  0  0
  128.7901  130.3281   64.9345 H   0  0  0  0  0  0  0  0  0  0  0  0
  1  2  1  0
  2  3  2  0
  3  4  1  0
  4  5  1  0
  4  6  2  0
  6  7  1  0
  7  8  1  0
  7  9  2  0
  9 10  1  0
 10 11  2  0
 10 12  1  0
 12 13  1  0
 13 14  2  0
 14 15  1  0
 15 16  2  0
 16 17  1  0
 17 18  2  0
  9 19  1  0
 19 20  1  0
 20 21  2  0
 21  2  1  0
 20  6  1  0
 18 13  1  0
  1 22  1  0
  1 23  1  0
  1 24  1  0
  3 25  1  0
  5 26  1  0
  5 27  1  0
  5 28  1  0
  8 29  1  0
  8 30  1  0
 12 31  1  0
 14 32  1  0
 15 33  1  0
 16 34  1  0
 17 35  1  0
 18 36  1  0
M  END
>  <Binding energies>  (1) 
[-6.81]

>  <Ligand effiencies>  (1) 
[-0.28375]

>  <Interactions>  (1) 
["V-A:ASP:366:CG:3212, V-A:PRO:540:N:4884, V-A:ILE:538:CA:4860, V-A:ASP:366:CB:3211, V-A:ILE:538:CG2:4863, V-A:TYR:539:CD1:4873, V-A:PRO:540:CA:4883, H-A:TYR:539:N:4870, V-A:PRO:540:CB:4885, V-A:TYR:539:CE1:4875, V-A:ILE:538:CB:4862, V-B:ARG:545:CZ:9898, V-A:ALA:541:CB:4892, V-A:TYR:539:C:4867, V-A:LEU:363:CD1:3188, V-A:GLU:543:CG:4907, V-A:GLU:543:CD:4908, H-A:ASP:366:OD2:3214, V-A:ILE:538:C:4858, H-A:ALA:541:N:4891, V-A:LEU:363:CA:3184, V-B:TYR:484:CZ:9318, V-B:TYR:484:CE2:9317, H-A:GLU:543:OE2:4910"]

$$$$
4ae_Grossjean_2025
     RDKit          3D

 38 40  0  0  0  0  0  0  0  0999 V2000
  128.0130  129.4900   67.1770 C   0  0  0  0  0  0  0  0  0  0  0  0
  127.2180  129.6540   65.8970 C   0  0  0  0  0  0  0  0  0  0  0  0
  125.8310  129.4830   65.8700 C   0  0  0  0  0  0  0  0  0  0  0  0
  125.1670  129.6430   64.6540 C   0  0  0  0  0  0  0  0  0  0  0  0
  125.8950  129.9640   63.5060 C   0  0  0  0  0  0  0  0  0  0  0  0
  127.2810  130.1290   63.6050 C   0  0  0  0  0  0  0  0  0  0  0  0
  127.9620  130.4320   62.4130 N   0  0  0  0  0  0  0  0  0  0  0  0
  129.0750  131.1880   62.2410 C   0  0  0  0  0  0  0  0  0  0  0  0
  129.6710  131.7500   63.1610 O   0  0  0  0  0  0  0  0  0  0  0  0
  129.5430  131.3080   60.8580 C   0  0  0  0  0  0  0  0  0  0  0  0
  128.4560  131.8900   59.5970 S   0  0  0  0  0  0  0  0  0  0  0  0
  129.6910  131.6970   58.3750 C   0  0  0  0  0  0  0  0  0  0  0  0
  129.4690  131.9910   57.0940 N   0  0  0  0  0  0  0  0  0  0  0  0
  130.5080  131.7910   56.2480 C   0  0  0  0  0  0  0  0  0  0  0  0
  130.2310  132.1260   54.7940 C   0  0  0  0  0  0  0  0  0  0  0  0
  131.7530  131.3110   56.6500 C   0  0  0  0  0  0  0  0  0  0  0  0
  131.9830  131.0040   57.9960 C   0  0  0  0  0  0  0  0  0  0  0  0
  133.3570  130.4800   58.3850 C   0  0  0  0  0  0  0  0  0  0  0  0
  130.9160  131.1990   58.9130 C   0  0  0  0  0  0  0  0  0  0  0  0
  130.8050  130.9880   60.3320 C   0  0  0  0  0  0  0  0  0  0  0  0
  131.8490  130.5140   61.0860 N   0  0  0  0  0  0  0  0  0  0  0  0
  127.9390  129.9680   64.7910 N   0  0  0  0  0  0  0  0  0  0  0  0
  127.3476  129.6273   68.0421 H   0  0  0  0  0  0  0  0  0  0  0  0
  128.4527  128.4822   67.2089 H   0  0  0  0  0  0  0  0  0  0  0  0
  128.8157  130.2415   67.2089 H   0  0  0  0  0  0  0  0  0  0  0  0
  125.2767  129.2285   66.7854 H   0  0  0  0  0  0  0  0  0  0  0  0
  124.0756  129.5170   64.5993 H   0  0  0  0  0  0  0  0  0  0  0  0
  125.3863  130.0853   62.5383 H   0  0  0  0  0  0  0  0  0  0  0  0
  127.5270  130.0750   61.5760 H   0  0  0  0  0  0  0  0  0  0  0  0
  129.5309  132.9727   54.7398 H   0  0  0  0  0  0  0  0  0  0  0  0
  131.1728  132.3964   54.2942 H   0  0  0  0  0  0  0  0  0  0  0  0
  129.7885  131.2517   54.2942 H   0  0  0  0  0  0  0  0  0  0  0  0
  132.5548  131.1734   55.9096 H   0  0  0  0  0  0  0  0  0  0  0  0
  133.4404  130.4482   59.4814 H   0  0  0  0  0  0  0  0  0  0  0  0
  133.4921  129.4672   57.9775 H   0  0  0  0  0  0  0  0  0  0  0  0
  134.1322  131.1456   57.9775 H   0  0  0  0  0  0  0  0  0  0  0  0
  131.9800  130.7900   62.0490 H   0  0  0  0  0  0  0  0  0  0  0  0
  132.5240  129.8680   60.7010 H   0  0  0  0  0  0  0  0  0  0  0  0
  1  2  1  0
  2  3  2  0
  3  4  1  0
  4  5  2  0
  5  6  1  0
  6  7  1  0
  7  8  1  0
  8  9  2  0
  8 10  1  0
 10 11  1  0
 11 12  1  0
 12 13  2  0
 13 14  1  0
 14 15  1  0
 14 16  2  0
 16 17  1  0
 17 18  1  0
 17 19  2  0
 19 20  1  0
 20 21  1  0
  6 22  2  0
 22  2  1  0
 20 10  2  0
 19 12  1  0
  1 23  1  0
  1 24  1  0
  1 25  1  0
  3 26  1  0
  4 27  1  0
  5 28  1  0
  7 29  1  0
 15 30  1  0
 15 31  1  0
 15 32  1  0
 16 33  1  0
 18 34  1  0
 18 35  1  0
 18 36  1  0
 21 37  1  0
 21 38  1  0
M  END
>  <Binding energies>  (1) 
[-6.99]

>  <Ligand effiencies>  (1) 
[-0.2796]

>  <Interactions>  (1) 
["V-A:ASP:366:CG:3212, V-A:PRO:540:N:4884, V-A:ILE:538:CA:4860, V-A:ASP:366:CB:3211, V-A:ILE:538:CG2:4863, V-A:TYR:539:CD1:4873, V-A:PRO:540:CA:4883, H-A:TYR:539:N:4870, V-A:PRO:540:CB:4885, V-A:TYR:539:CE1:4875, V-A:ILE:538:CB:4862, V-B:ARG:545:CZ:9898, V-A:ALA:541:CB:4892, V-A:TYR:539:C:4867, V-A:LEU:363:CD1:3188, V-A:GLU:543:CG:4907, V-A:GLU:543:CD:4908, H-A:ASP:366:OD2:3214, V-B:HIS:456:CE1:9041, V-A:GLU:543:CB:4906, V-A:ILE:538:C:4858, H-A:ALA:541:N:4891, V-A:LEU:363:CA:3184, V-B:TYR:484:CE2:9317, H-A:GLU:543:OE2:4910, H-A:ALA:541:O:4889"]

$$$$
4af_Grossjean_2025
     RDKit          3D

 35 37  0  0  0  0  0  0  0  0999 V2000
  130.2370  132.1210   54.8400 C   0  0  0  0  0  0  0  0  0  0  0  0
  130.4600  131.7920   56.3050 C   0  0  0  0  0  0  0  0  0  0  0  0
  131.7090  131.3800   56.7650 C   0  0  0  0  0  0  0  0  0  0  0  0
  131.8910  131.0790   58.1210 C   0  0  0  0  0  0  0  0  0  0  0  0
  133.2710  130.6320   58.5750 C   0  0  0  0  0  0  0  0  0  0  0  0
  130.7700  131.2080   58.9850 C   0  0  0  0  0  0  0  0  0  0  0  0
  130.6020  130.9840   60.3960 C   0  0  0  0  0  0  0  0  0  0  0  0
  131.6340  130.5650   61.1980 N   0  0  0  0  0  0  0  0  0  0  0  0
  129.3020  131.2330   60.8630 C   0  0  0  0  0  0  0  0  0  0  0  0
  128.7770  131.0810   62.2210 C   0  0  0  0  0  0  0  0  0  0  0  0
  129.4130  131.4980   63.1900 O   0  0  0  0  0  0  0  0  0  0  0  0
  127.5670  130.4770   62.3100 N   0  0  0  0  0  0  0  0  0  0  0  0
  126.8160  130.1400   63.4520 C   0  0  0  0  0  0  0  0  0  0  0  0
  127.3020  129.4340   64.5680 C   0  0  0  0  0  0  0  0  0  0  0  0
  126.4440  129.1480   65.6320 C   0  0  0  0  0  0  0  0  0  0  0  0
  125.1160  129.5710   65.5520 C   0  0  0  0  0  0  0  0  0  0  0  0
  124.6210  130.2460   64.4840 N   0  0  0  0  0  0  0  0  0  0  0  0
  125.4670  130.5160   63.4580 C   0  0  0  0  0  0  0  0  0  0  0  0
  128.2430  131.7540   59.5500 S   0  0  0  0  0  0  0  0  0  0  0  0
  129.5460  131.6380   58.3890 C   0  0  0  0  0  0  0  0  0  0  0  0
  129.3700  131.9270   57.0990 N   0  0  0  0  0  0  0  0  0  0  0  0
  129.6216  133.0290   54.7577 H   0  0  0  0  0  0  0  0  0  0  0  0
  131.2074  132.2901   54.3504 H   0  0  0  0  0  0  0  0  0  0  0  0
  129.7205  131.2823   54.3504 H   0  0  0  0  0  0  0  0  0  0  0  0
  132.5518  131.2911   56.0637 H   0  0  0  0  0  0  0  0  0  0  0  0
  133.3092  130.6196   59.6743 H   0  0  0  0  0  0  0  0  0  0  0  0
  133.4745  129.6220   58.1896 H   0  0  0  0  0  0  0  0  0  0  0  0
  134.0280  131.3309   58.1896 H   0  0  0  0  0  0  0  0  0  0  0  0
  132.3370  129.9180   60.8690 H   0  0  0  0  0  0  0  0  0  0  0  0
  131.7270  130.8960   62.1480 H   0  0  0  0  0  0  0  0  0  0  0  0
  127.1260  130.2340   61.4350 H   0  0  0  0  0  0  0  0  0  0  0  0
  128.3524  129.1091   64.6021 H   0  0  0  0  0  0  0  0  0  0  0  0
  126.8069  128.6009   66.5146 H   0  0  0  0  0  0  0  0  0  0  0  0
  124.4413  129.3473   66.3915 H   0  0  0  0  0  0  0  0  0  0  0  0
  125.0728  131.0583   62.5859 H   0  0  0  0  0  0  0  0  0  0  0  0
  1  2  1  0
  2  3  2  0
  3  4  1  0
  4  5  1  0
  4  6  2  0
  6  7  1  0
  7  8  1  0
  7  9  2  0
  9 10  1  0
 10 11  2  0
 10 12  1  0
 12 13  1  0
 13 14  2  0
 14 15  1  0
 15 16  2  0
 16 17  1  0
 17 18  2  0
  9 19  1  0
 19 20  1  0
 20 21  2  0
 21  2  1  0
 20  6  1  0
 18 13  1  0
  1 22  1  0
  1 23  1  0
  1 24  1  0
  3 25  1  0
  5 26  1  0
  5 27  1  0
  5 28  1  0
  8 29  1  0
  8 30  1  0
 12 31  1  0
 14 32  1  0
 15 33  1  0
 16 34  1  0
 18 35  1  0
M  END
>  <Binding energies>  (1) 
[-6.8]

>  <Ligand effiencies>  (1) 
[-0.2833333333333333]

>  <Interactions>  (1) 
["V-A:ASP:366:CG:3212, V-A:PRO:540:N:4884, V-A:ILE:538:CA:4860, V-A:ASP:366:CB:3211, V-A:ILE:538:CG2:4863, V-A:TYR:539:CD1:4873, V-A:PRO:540:CA:4883, V-A:PRO:540:CB:4885, V-A:TYR:539:CE1:4875, V-A:ILE:538:CB:4862, H-B:GLY:454:N:9021, V-B:ARG:545:CZ:9898, V-A:ALA:541:CB:4892, V-A:TYR:539:C:4867, V-A:LEU:363:CD1:3188, V-A:GLU:543:CD:4908, H-B:TYR:484:OH:9319, H-A:ASP:366:OD2:3214, V-A:ILE:538:C:4858, H-A:ALA:541:N:4891, V-A:LEU:363:CA:3184, H-A:GLU:543:OE2:4910, H-A:ALA:541:O:4889"]

$$$$
4ag_Grossjean_2025
     RDKit          3D

 39 41  0  0  0  0  0  0  0  0999 V2000
  129.8650  131.7490   54.4340 C   0  0  0  0  0  0  0  0  0  0  0  0
  130.1710  131.5200   55.9020 C   0  0  0  0  0  0  0  0  0  0  0  0
  131.3310  130.8560   56.2980 C   0  0  0  0  0  0  0  0  0  0  0  0
  131.5950  130.6570   57.6570 C   0  0  0  0  0  0  0  0  0  0  0  0
  132.8740  129.9270   58.0390 C   0  0  0  0  0  0  0  0  0  0  0  0
  130.6490  131.1510   58.5950 C   0  0  0  0  0  0  0  0  0  0  0  0
  130.6030  131.1220   60.0320 C   0  0  0  0  0  0  0  0  0  0  0  0
  131.5930  130.5420   60.7860 N   0  0  0  0  0  0  0  0  0  0  0  0
  129.4650  131.7330   60.5780 C   0  0  0  0  0  0  0  0  0  0  0  0
  129.1060  131.8920   61.9870 C   0  0  0  0  0  0  0  0  0  0  0  0
  129.9360  131.7260   62.8840 O   0  0  0  0  0  0  0  0  0  0  0  0
  127.8190  132.2100   62.2400 N   0  0  0  0  0  0  0  0  0  0  0  0
  127.2480  132.4410   63.5660 C   0  0  0  0  0  0  0  0  0  0  0  0
  126.7210  131.1810   64.2420 C   0  0  0  0  0  0  0  0  0  0  0  0
  127.4500  130.5900   65.2780 C   0  0  0  0  0  0  0  0  0  0  0  0
  126.9590  129.4530   65.9140 C   0  0  0  0  0  0  0  0  0  0  0  0
  125.7340  128.9160   65.5190 C   0  0  0  0  0  0  0  0  0  0  0  0
  124.9950  129.5090   64.4990 C   0  0  0  0  0  0  0  0  0  0  0  0
  125.4860  130.6460   63.8630 C   0  0  0  0  0  0  0  0  0  0  0  0
  128.4160  132.3760   59.3140 S   0  0  0  0  0  0  0  0  0  0  0  0
  129.5020  131.8140   58.0630 C   0  0  0  0  0  0  0  0  0  0  0  0
  129.2490  132.0060   56.7680 N   0  0  0  0  0  0  0  0  0  0  0  0
  128.9875  132.4057   54.3405 H   0  0  0  0  0  0  0  0  0  0  0  0
  130.7309  132.2228   53.9485 H   0  0  0  0  0  0  0  0  0  0  0  0
  129.6547  130.7846   53.9485 H   0  0  0  0  0  0  0  0  0  0  0  0
  132.0393  130.4882   55.5410 H   0  0  0  0  0  0  0  0  0  0  0  0
  132.9561  129.8801   59.1349 H   0  0  0  0  0  0  0  0  0  0  0  0
  132.8501  128.9065   57.6291 H   0  0  0  0  0  0  0  0  0  0  0  0
  133.7405  130.4666   57.6291 H   0  0  0  0  0  0  0  0  0  0  0  0
  131.7030  130.7470   61.7690 H   0  0  0  0  0  0  0  0  0  0  0  0
  132.2440  129.8830   60.3810 H   0  0  0  0  0  0  0  0  0  0  0  0
  127.2080  132.3870   61.4560 H   0  0  0  0  0  0  0  0  0  0  0  0
  128.0281  132.8772   64.2073 H   0  0  0  0  0  0  0  0  0  0  0  0
  126.3875  133.1125   63.4294 H   0  0  0  0  0  0  0  0  0  0  0  0
  128.4115  131.0232   65.5907 H   0  0  0  0  0  0  0  0  0  0  0  0
  127.5343  128.9806   66.7239 H   0  0  0  0  0  0  0  0  0  0  0  0
  125.3479  128.0151   66.0183 H   0  0  0  0  0  0  0  0  0  0  0  0
  124.0277  129.0812   64.1970 H   0  0  0  0  0  0  0  0  0  0  0  0
  124.9023  131.1235   63.0622 H   0  0  0  0  0  0  0  0  0  0  0  0
  1  2  1  0
  2  3  2  0
  3  4  1  0
  4  5  1  0
  4  6  2  0
  6  7  1  0
  7  8  1  0
  7  9  2  0
  9 10  1  0
 10 11  2  0
 10 12  1  0
 12 13  1  0
 13 14  1  0
 14 15  2  0
 15 16  1  0
 16 17  2  0
 17 18  1  0
 18 19  2  0
  9 20  1  0
 20 21  1  0
 21 22  2  0
 22  2  1  0
 21  6  1  0
 19 14  1  0
  1 23  1  0
  1 24  1  0
  1 25  1  0
  3 26  1  0
  5 27  1  0
  5 28  1  0
  5 29  1  0
  8 30  1  0
  8 31  1  0
 12 32  1  0
 13 33  1  0
 13 34  1  0
 15 35  1  0
 16 36  1  0
 17 37  1  0
 18 38  1  0
 19 39  1  0
M  END
>  <Binding energies>  (1) 
[-6.84]

>  <Ligand effiencies>  (1) 
[-0.2736]

>  <Interactions>  (1) 
["V-A:ASP:366:CG:3212, V-A:PRO:540:N:4884, V-A:ILE:538:CA:4860, V-A:ASP:366:CB:3211, V-A:ILE:538:CG2:4863, V-A:TYR:539:CD1:4873, V-A:PRO:540:CA:4883, H-A:TYR:539:N:4870, V-A:TYR:539:CE1:4875, V-A:ILE:538:CB:4862, V-B:ARG:545:CZ:9898, V-A:ALA:541:CB:4892, V-A:TYR:539:C:4867, V-A:LEU:363:CD1:3188, V-A:GLU:543:CG:4907, V-A:GLU:543:CD:4908, H-A:ASP:366:OD2:3214, H-A:ALA:541:N:4891, V-B:LEU:475:CD1:9229, V-B:TYR:484:CE2:9317, H-A:GLU:543:OE2:4910, V-A:ALA:541:CA:4890"]

$$$$
4ah_Grossjean_2025
     RDKit          3D

 51 53  0  0  0  0  0  0  0  0999 V2000
  128.8460  132.0390   54.8800 C   0  0  0  0  0  0  0  0  0  0  0  0
  129.4950  132.7760   55.9100 O   0  0  0  0  0  0  0  0  0  0  0  0
  129.9150  132.1190   57.0530 C   0  0  0  0  0  0  0  0  0  0  0  0
  129.0430  131.5500   57.9950 C   0  0  0  0  0  0  0  0  0  0  0  0
  129.5380  130.9030   59.1280 C   0  0  0  0  0  0  0  0  0  0  0  0
  128.5780  130.2510   60.1160 C   0  0  0  0  0  0  0  0  0  0  0  0
  128.0250  128.9810   59.6440 N   0  0  0  0  0  0  0  0  0  0  0  0
  128.5010  127.7580   59.9570 C   0  0  0  0  0  0  0  0  0  0  0  0
  129.4990  127.5920   60.6600 O   0  0  0  0  0  0  0  0  0  0  0  0
  127.7850  126.6240   59.3730 C   0  0  0  0  0  0  0  0  0  0  0  0
  128.0430  126.1860   57.6840 S   0  0  0  0  0  0  0  0  0  0  0  0
  126.8770  124.8870   57.7960 C   0  0  0  0  0  0  0  0  0  0  0  0
  126.5960  124.1000   56.7570 N   0  0  0  0  0  0  0  0  0  0  0  0
  125.6760  123.1300   56.9770 C   0  0  0  0  0  0  0  0  0  0  0  0
  125.3680  122.2470   55.7820 C   0  0  0  0  0  0  0  0  0  0  0  0
  125.0380  122.9300   58.1990 C   0  0  0  0  0  0  0  0  0  0  0  0
  125.3340  123.7590   59.2880 C   0  0  0  0  0  0  0  0  0  0  0  0
  124.6110  123.5010   60.6020 C   0  0  0  0  0  0  0  0  0  0  0  0
  126.2930  124.7890   59.0950 C   0  0  0  0  0  0  0  0  0  0  0  0
  126.8200  125.8000   59.9720 C   0  0  0  0  0  0  0  0  0  0  0  0
  126.4110  125.9270   61.2750 N   0  0  0  0  0  0  0  0  0  0  0  0
  130.9180  130.7960   59.3110 C   0  0  0  0  0  0  0  0  0  0  0  0
  131.8130  131.3590   58.3890 C   0  0  0  0  0  0  0  0  0  0  0  0
  133.1890  131.3040   58.5160 O   0  0  0  0  0  0  0  0  0  0  0  0
  133.7610  130.9860   59.7800 C   0  0  0  0  0  0  0  0  0  0  0  0
  131.2980  132.0240   57.2670 C   0  0  0  0  0  0  0  0  0  0  0  0
  132.1630  132.5640   56.3450 O   0  0  0  0  0  0  0  0  0  0  0  0
  132.2890  131.8020   55.1530 C   0  0  0  0  0  0  0  0  0  0  0  0
  128.1827  131.2858   55.3303 H   0  0  0  0  0  0  0  0  0  0  0  0
  128.2528  132.7243   54.2568 H   0  0  0  0  0  0  0  0  0  0  0  0
  129.6009  131.5372   54.2568 H   0  0  0  0  0  0  0  0  0  0  0  0
  127.9562  131.6150   57.8379 H   0  0  0  0  0  0  0  0  0  0  0  0
  129.1185  130.0670   61.0562 H   0  0  0  0  0  0  0  0  0  0  0  0
  127.7323  130.9420   60.2480 H   0  0  0  0  0  0  0  0  0  0  0  0
  127.1570  129.0390   59.1320 H   0  0  0  0  0  0  0  0  0  0  0  0
  125.0246  121.2625   56.1324 H   0  0  0  0  0  0  0  0  0  0  0  0
  124.5800  122.7150   55.1737 H   0  0  0  0  0  0  0  0  0  0  0  0
  126.2761  122.1234   55.1737 H   0  0  0  0  0  0  0  0  0  0  0  0
  124.3013  122.1205   58.3086 H   0  0  0  0  0  0  0  0  0  0  0  0
  125.2802  123.7398   61.4417 H   0  0  0  0  0  0  0  0  0  0  0  0
  123.7132  124.1343   60.6570 H   0  0  0  0  0  0  0  0  0  0  0  0
  124.3170  122.4425   60.6570 H   0  0  0  0  0  0  0  0  0  0  0  0
  127.0600  126.1330   62.0200 H   0  0  0  0  0  0  0  0  0  0  0  0
  125.4410  125.8120   61.5330 H   0  0  0  0  0  0  0  0  0  0  0  0
  131.3089  130.2629   60.1902 H   0  0  0  0  0  0  0  0  0  0  0  0
  133.1034  131.3516   60.5824 H   0  0  0  0  0  0  0  0  0  0  0  0
  133.8744  129.8953   59.8672 H   0  0  0  0  0  0  0  0  0  0  0  0
  134.7472  131.4653   59.8672 H   0  0  0  0  0  0  0  0  0  0  0  0
  132.4635  130.7466   55.4092 H   0  0  0  0  0  0  0  0  0  0  0  0
  131.3644  131.8881   54.5633 H   0  0  0  0  0  0  0  0  0  0  0  0
  133.1366  132.1812   54.5633 H   0  0  0  0  0  0  0  0  0  0  0  0
  1  2  1  0
  2  3  1  0
  3  4  2  0
  4  5  1  0
  5  6  1  0
  6  7  1  0
  7  8  1  0
  8  9  2  0
  8 10  1  0
 10 11  1  0
 11 12  1  0
 12 13  2  0
 13 14  1  0
 14 15  1  0
 14 16  2  0
 16 17  1  0
 17 18  1  0
 17 19  2  0
 19 20  1  0
 20 21  1  0
  5 22  2  0
 22 23  1  0
 23 24  1  0
 24 25  1  0
 23 26  2  0
 26 27  1  0
 27 28  1  0
 26  3  1  0
 20 10  2  0
 19 12  1  0
  1 29  1  0
  1 30  1  0
  1 31  1  0
  4 32  1  0
  6 33  1  0
  6 34  1  0
  7 35  1  0
 15 36  1  0
 15 37  1  0
 15 38  1  0
 16 39  1  0
 18 40  1  0
 18 41  1  0
 18 42  1  0
 21 43  1  0
 21 44  1  0
 22 45  1  0
 25 46  1  0
 25 47  1  0
 25 48  1  0
 28 49  1  0
 28 50  1  0
 28 51  1  0
M  END
>  <Binding energies>  (1) 
[-6.71]

>  <Ligand effiencies>  (1) 
[-0.21645161290322582]

>  <Interactions>  (1) 
["V-B:PRO:540:CB:9857, H-B:TYR:531:OH:9767, V-B:MET:535:CE:9807, V-B:PRO:540:N:9856, V-B:PRO:540:CA:9855, V-B:MET:535:CG:9805, V-B:TYR:531:CE2:9765, V-B:LEU:363:CD1:8160, V-A:ASP:366:CG:3212, V-A:PRO:540:N:4884, V-A:ILE:538:CA:4860, V-A:ILE:538:CG2:4863, V-A:TYR:539:CD1:4873, V-A:TYR:539:CE2:4876, V-A:PRO:540:CA:4883, H-A:TYR:539:N:4870, V-A:TYR:539:CZ:4877, V-A:TYR:539:CD2:4874, V-A:PRO:540:CB:4885, V-A:TYR:539:CE1:4875, V-A:TYR:531:CZ:4794, V-A:ILE:538:CB:4862, V-B:ASP:366:CG:8184, V-A:PRO:540:CD:4887, V-A:TYR:539:C:4867, V-A:LEU:363:CD1:3188, H-B:GLU:543:OE1:9881, H-B:GLU:543:OE2:9882, V-A:TYR:531:CE2:4793, V-A:LEU:363:CA:3184, V-A:LEU:363:CB:3186, H-B:ASP:366:OD2:8186, V-B:ILE:538:CG2:9835, V-B:PRO:540:CG:9858, H-B:ASP:366:OD1:8185, V-A:ASN:362:CB:3175, V-A:ASN:362:C:3171"]

$$$$
4ai_Grossjean_2025
     RDKit          3D

 32 34  0  0  0  0  0  0  0  0999 V2000
  135.5300  124.3080   61.9170 C   0  0  0  0  0  0  0  0  0  0  0  0
  134.3450  123.4390   61.5370 C   0  0  0  0  0  0  0  0  0  0  0  0
  134.3960  122.0540   61.6820 C   0  0  0  0  0  0  0  0  0  0  0  0
  133.2890  121.2720   61.3320 C   0  0  0  0  0  0  0  0  0  0  0  0
  133.3920  119.7650   61.5110 C   0  0  0  0  0  0  0  0  0  0  0  0
  132.1370  121.9390   60.8320 C   0  0  0  0  0  0  0  0  0  0  0  0
  130.8560  121.4600   60.3880 C   0  0  0  0  0  0  0  0  0  0  0  0
  130.5360  120.1260   60.3810 N   0  0  0  0  0  0  0  0  0  0  0  0
  129.9790  122.4760   59.9760 C   0  0  0  0  0  0  0  0  0  0  0  0
  128.6140  122.3470   59.4610 C   0  0  0  0  0  0  0  0  0  0  0  0
  127.6580  122.2460   60.2320 O   0  0  0  0  0  0  0  0  0  0  0  0
  128.4990  122.3660   58.1090 N   0  0  0  0  0  0  0  0  0  0  0  0
  127.3340  122.2730   57.3600 C   0  0  0  0  0  0  0  0  0  0  0  0
  126.3440  123.2560   57.3650 C   0  0  0  0  0  0  0  0  0  0  0  0
  125.3720  122.7900   56.5100 C   0  0  0  0  0  0  0  0  0  0  0  0
  125.7560  121.5900   56.0150 O   0  0  0  0  0  0  0  0  0  0  0  0
  127.0010  121.2730   56.5590 N   0  0  0  0  0  0  0  0  0  0  0  0
  130.7370  124.0640   60.1070 S   0  0  0  0  0  0  0  0  0  0  0  0
  132.2130  123.3610   60.7310 C   0  0  0  0  0  0  0  0  0  0  0  0
  133.2660  124.1090   61.0630 N   0  0  0  0  0  0  0  0  0  0  0  0
  135.6069  124.3644   63.0129 H   0  0  0  0  0  0  0  0  0  0  0  0
  136.4521  123.8704   61.5068 H   0  0  0  0  0  0  0  0  0  0  0  0
  135.3898  125.3190   61.5068 H   0  0  0  0  0  0  0  0  0  0  0  0
  135.3064  121.5751   62.0716 H   0  0  0  0  0  0  0  0  0  0  0  0
  133.4085  119.5235   62.5840 H   0  0  0  0  0  0  0  0  0  0  0  0
  132.5249  119.2796   61.0392 H   0  0  0  0  0  0  0  0  0  0  0  0
  134.3170  119.4021   61.0392 H   0  0  0  0  0  0  0  0  0  0  0  0
  131.2450  119.4080   60.3500 H   0  0  0  0  0  0  0  0  0  0  0  0
  129.5740  119.8170   60.4010 H   0  0  0  0  0  0  0  0  0  0  0  0
  129.3500  122.4670   57.5770 H   0  0  0  0  0  0  0  0  0  0  0  0
  126.3412  124.1996   57.9303 H   0  0  0  0  0  0  0  0  0  0  0  0
  124.4332  123.3094   56.2675 H   0  0  0  0  0  0  0  0  0  0  0  0
  1  2  1  0
  2  3  2  0
  3  4  1  0
  4  5  1  0
  4  6  2  0
  6  7  1  0
  7  8  1  0
  7  9  2  0
  9 10  1  0
 10 11  2  0
 10 12  1  0
 12 13  1  0
 13 14  1  0
 14 15  2  0
 15 16  1  0
 16 17  1  0
  9 18  1  0
 18 19  1  0
 19 20  2  0
 20  2  1  0
 19  6  1  0
 17 13  2  0
  1 21  1  0
  1 22  1  0
  1 23  1  0
  3 24  1  0
  5 25  1  0
  5 26  1  0
  5 27  1  0
  8 28  1  0
  8 29  1  0
 12 30  1  0
 14 31  1  0
 15 32  1  0
M  END
>  <Binding energies>  (1) 
[-6.79]

>  <Ligand effiencies>  (1) 
[-0.2952173913043478]

>  <Interactions>  (1) 
["H-B:ALA:541:N:9863, V-B:MET:535:CE:9807, V-A:ILE:369:CG2:3236, V-B:TYR:539:CD2:9846, V-B:PRO:540:N:9856, V-A:LEU:475:CD1:4257, V-B:PRO:540:CA:9855, H-B:TYR:539:N:9842, V-B:TYR:539:CE2:9848, V-B:TYR:539:C:9839, V-B:TYR:531:CE2:9765, V-B:LEU:363:CD1:8160, V-A:ASP:366:CG:3212, H-B:TYR:539:OH:9850, V-A:ILE:369:CD1:3238, V-B:TYR:539:CZ:9849, H-B:TYR:539:O:9840, V-A:SER:385:C:3404, V-B:TYR:539:CG:9844, V-A:GLY:454:CA:4048, V-A:GLY:453:CA:4043, V-A:GLY:453:C:4041"]

$$$$
4aj_Grossjean_2025
     RDKit          3D

 32 34  0  0  0  0  0  0  0  0999 V2000
  129.5080  132.1220   54.2910 C   0  0  0  0  0  0  0  0  0  0  0  0
  129.9730  131.7850   55.6960 C   0  0  0  0  0  0  0  0  0  0  0  0
  131.2200  131.2050   55.9180 C   0  0  0  0  0  0  0  0  0  0  0  0
  131.6260  130.8980   57.2220 C   0  0  0  0  0  0  0  0  0  0  0  0
  132.9960  130.2660   57.4130 C   0  0  0  0  0  0  0  0  0  0  0  0
  130.7320  131.1990   58.2840 C   0  0  0  0  0  0  0  0  0  0  0  0
  130.8240  131.0210   59.7080 C   0  0  0  0  0  0  0  0  0  0  0  0
  131.9240  130.4640   60.3070 N   0  0  0  0  0  0  0  0  0  0  0  0
  129.6960  131.4720   60.4120 C   0  0  0  0  0  0  0  0  0  0  0  0
  129.4490  131.4360   61.8550 C   0  0  0  0  0  0  0  0  0  0  0  0
  130.3340  131.7500   62.6540 O   0  0  0  0  0  0  0  0  0  0  0  0
  128.2010  131.0530   62.2220 N   0  0  0  0  0  0  0  0  0  0  0  0
  127.7080  130.9470   63.5160 C   0  0  0  0  0  0  0  0  0  0  0  0
  127.9150  131.7620   64.5280 N   0  0  0  0  0  0  0  0  0  0  0  0
  127.2860  131.3560   65.6140 C   0  0  0  0  0  0  0  0  0  0  0  0
  126.5470  130.1810   65.4940 C   0  0  0  0  0  0  0  0  0  0  0  0
  126.6910  129.5870   63.8670 S   0  0  0  0  0  0  0  0  0  0  0  0
  128.4760  132.1190   59.3150 S   0  0  0  0  0  0  0  0  0  0  0  0
  129.4860  131.7950   57.9240 C   0  0  0  0  0  0  0  0  0  0  0  0
  129.0950  132.0880   56.6830 N   0  0  0  0  0  0  0  0  0  0  0  0
  128.6183  132.7668   54.3440 H   0  0  0  0  0  0  0  0  0  0  0  0
  130.3114  132.6490   53.7554 H   0  0  0  0  0  0  0  0  0  0  0  0
  129.2573  131.1945   53.7554 H   0  0  0  0  0  0  0  0  0  0  0  0
  131.8852  130.9884   55.0691 H   0  0  0  0  0  0  0  0  0  0  0  0
  133.2080  130.1682   58.4879 H   0  0  0  0  0  0  0  0  0  0  0  0
  133.0092  129.2708   56.9446 H   0  0  0  0  0  0  0  0  0  0  0  0
  133.7617  130.9019   56.9446 H   0  0  0  0  0  0  0  0  0  0  0  0
  132.5560  129.8570   59.8040 H   0  0  0  0  0  0  0  0  0  0  0  0
  132.1400  130.6410   61.2790 H   0  0  0  0  0  0  0  0  0  0  0  0
  127.5520  130.8220   61.4850 H   0  0  0  0  0  0  0  0  0  0  0  0
  127.3417  131.9135   66.5606 H   0  0  0  0  0  0  0  0  0  0  0  0
  125.9664  129.7062   66.2987 H   0  0  0  0  0  0  0  0  0  0  0  0
  1  2  1  0
  2  3  2  0
  3  4  1  0
  4  5  1  0
  4  6  2  0
  6  7  1  0
  7  8  1  0
  7  9  2  0
  9 10  1  0
 10 11  2  0
 10 12  1  0
 12 13  1  0
 13 14  2  0
 14 15  1  0
 15 16  2  0
 16 17  1  0
  9 18  1  0
 18 19  1  0
 19 20  2  0
 20  2  1  0
 19  6  1  0
 17 13  1  0
  1 21  1  0
  1 22  1  0
  1 23  1  0
  3 24  1  0
  5 25  1  0
  5 26  1  0
  5 27  1  0
  8 28  1  0
  8 29  1  0
 12 30  1  0
 15 31  1  0
 16 32  1  0
M  END
>  <Binding energies>  (1) 
[-6.31]

>  <Ligand effiencies>  (1) 
[-0.2743478260869565]

>  <Interactions>  (1) 
["V-A:ASP:366:CG:3212, V-A:PRO:540:N:4884, V-A:ILE:538:CA:4860, V-A:ASP:366:CB:3211, V-A:ILE:538:CG2:4863, V-A:TYR:539:CD1:4873, V-A:PRO:540:CA:4883, H-A:TYR:539:N:4870, V-A:TYR:539:CE1:4875, V-A:ILE:538:CB:4862, V-A:ALA:541:CB:4892, V-A:TYR:539:C:4867, V-A:LEU:363:CD1:3188, V-A:GLU:543:CG:4907, V-A:GLU:543:CD:4908, H-A:ASP:366:OD2:3214, V-A:ILE:538:C:4858, H-A:ALA:541:N:4891, V-B:TYR:484:CZ:9318, V-B:TYR:484:CE2:9317, H-A:GLU:543:OE2:4910"]

$$$$
4ak_Grossjean_2025
     RDKit          3D

 50 51  0  0  0  0  0  0  0  0999 V2000
  127.7530  122.3860   57.3590 C   0  0  0  0  0  0  0  0  0  0  0  0
  126.9110  121.5860   56.5420 O   0  0  0  0  0  0  0  0  0  0  0  0
  125.7910  122.2910   56.0230 C   0  0  0  0  0  0  0  0  0  0  0  0
  125.0230  122.9520   57.1760 C   0  0  0  0  0  0  0  0  0  0  0  0
  125.5330  124.2610   57.3920 O   0  0  0  0  0  0  0  0  0  0  0  0
  125.1230  124.8390   58.6240 C   0  0  0  0  0  0  0  0  0  0  0  0
  124.2270  123.8490   59.3770 C   0  0  0  0  0  0  0  0  0  0  0  0
  124.5510  123.8790   60.7600 O   0  0  0  0  0  0  0  0  0  0  0  0
  125.6770  123.0830   61.1050 C   0  0  0  0  0  0  0  0  0  0  0  0
  126.9240  123.9790   61.2000 C   0  0  0  0  0  0  0  0  0  0  0  0
  126.6280  125.3560   61.5960 N   0  0  0  0  0  0  0  0  0  0  0  0
  127.4760  126.1830   62.2400 C   0  0  0  0  0  0  0  0  0  0  0  0
  128.6220  125.8480   62.5430 O   0  0  0  0  0  0  0  0  0  0  0  0
  126.9620  127.5150   62.5540 C   0  0  0  0  0  0  0  0  0  0  0  0
  125.9040  128.3510   61.4170 S   0  0  0  0  0  0  0  0  0  0  0  0
  125.7670  129.7280   62.4880 C   0  0  0  0  0  0  0  0  0  0  0  0
  125.0390  130.7990   62.1690 N   0  0  0  0  0  0  0  0  0  0  0  0
  125.0180  131.7980   63.0860 C   0  0  0  0  0  0  0  0  0  0  0  0
  124.1840  133.0080   62.7050 C   0  0  0  0  0  0  0  0  0  0  0  0
  125.6990  131.7500   64.3000 C   0  0  0  0  0  0  0  0  0  0  0  0
  126.4610  130.6230   64.6320 C   0  0  0  0  0  0  0  0  0  0  0  0
  127.1900  130.6190   65.9670 C   0  0  0  0  0  0  0  0  0  0  0  0
  126.5080  129.5560   63.6950 C   0  0  0  0  0  0  0  0  0  0  0  0
  127.1760  128.2830   63.7090 C   0  0  0  0  0  0  0  0  0  0  0  0
  127.9510  127.8720   64.7640 N   0  0  0  0  0  0  0  0  0  0  0  0
  127.5378  122.1816   58.4182 H   0  0  0  0  0  0  0  0  0  0  0  0
  128.8053  122.1470   57.1458 H   0  0  0  0  0  0  0  0  0  0  0  0
  127.5681  123.4492   57.1458 H   0  0  0  0  0  0  0  0  0  0  0  0
  126.1375  123.0648   55.3221 H   0  0  0  0  0  0  0  0  0  0  0  0
  125.1281  121.5890   55.4959 H   0  0  0  0  0  0  0  0  0  0  0  0
  123.9550  123.0117   56.9193 H   0  0  0  0  0  0  0  0  0  0  0  0
  125.1458  122.3536   58.0908 H   0  0  0  0  0  0  0  0  0  0  0  0
  126.0088  125.0697   59.2340 H   0  0  0  0  0  0  0  0  0  0  0  0
  124.5633  125.7653   58.4273 H   0  0  0  0  0  0  0  0  0  0  0  0
  123.1725  124.1310   59.2406 H   0  0  0  0  0  0  0  0  0  0  0  0
  124.3875  122.8345   58.9833 H   0  0  0  0  0  0  0  0  0  0  0  0
  125.4994  122.5965   62.0755 H   0  0  0  0  0  0  0  0  0  0  0  0
  125.8341  122.3138   60.3345 H   0  0  0  0  0  0  0  0  0  0  0  0
  127.6092  123.5435   61.9422 H   0  0  0  0  0  0  0  0  0  0  0  0
  127.3678  124.0212   60.1944 H   0  0  0  0  0  0  0  0  0  0  0  0
  125.7030  125.6960   61.3700 H   0  0  0  0  0  0  0  0  0  0  0  0
  123.8349  133.5145   63.6169 H   0  0  0  0  0  0  0  0  0  0  0  0
  124.7959  133.7028   62.1110 H   0  0  0  0  0  0  0  0  0  0  0  0
  123.3169  132.6834   62.1110 H   0  0  0  0  0  0  0  0  0  0  0  0
  125.6383  132.5977   64.9983 H   0  0  0  0  0  0  0  0  0  0  0  0
  126.4555  130.6230   66.7859 H   0  0  0  0  0  0  0  0  0  0  0  0
  127.8159  129.7174   66.0403 H   0  0  0  0  0  0  0  0  0  0  0  0
  127.8258  131.5137   66.0403 H   0  0  0  0  0  0  0  0  0  0  0  0
  128.8830  128.2340   64.9140 H   0  0  0  0  0  0  0  0  0  0  0  0
  127.6120  127.1940   65.4310 H   0  0  0  0  0  0  0  0  0  0  0  0
  1  2  1  0
  2  3  1  0
  3  4  1  0
  4  5  1  0
  5  6  1  0
  6  7  1  0
  7  8  1  0
  8  9  1  0
  9 10  1  0
 10 11  1  0
 11 12  1  0
 12 13  2  0
 12 14  1  0
 14 15  1  0
 15 16  1  0
 16 17  2  0
 17 18  1  0
 18 19  1  0
 18 20  2  0
 20 21  1  0
 21 22  1  0
 21 23  2  0
 23 24  1  0
 24 25  1  0
 24 14  2  0
 23 16  1  0
  1 26  1  0
  1 27  1  0
  1 28  1  0
  3 29  1  0
  3 30  1  0
  4 31  1  0
  4 32  1  0
  6 33  1  0
  6 34  1  0
  7 35  1  0
  7 36  1  0
  9 37  1  0
  9 38  1  0
 10 39  1  0
 10 40  1  0
 11 41  1  0
 19 42  1  0
 19 43  1  0
 19 44  1  0
 20 45  1  0
 22 46  1  0
 22 47  1  0
 22 48  1  0
 25 49  1  0
 25 50  1  0
M  END
>  <Binding energies>  (1) 
[-5.82]

>  <Ligand effiencies>  (1) 
[-0.20785714285714288]

>  <Interactions>  (1) 
["V-B:PRO:540:CB:9857, H-B:TYR:531:OH:9767, V-B:MET:535:CE:9807, V-B:PRO:540:N:9856, V-B:PRO:540:CA:9855, V-B:PRO:540:C:9853, H-B:TYR:539:N:9842, V-B:TYR:539:C:9839, V-B:TYR:531:CE2:9765, V-B:LEU:363:CD1:8160, V-B:PRO:540:CD:9859, V-B:ASP:366:CG:8184, V-B:ASP:366:CB:8183, V-B:ILE:369:CD1:8210, V-A:GLU:543:CG:4907, V-B:GLY:454:CA:9020, V-A:GLU:543:CD:4908, V-B:LEU:363:CA:8156, H-B:GLU:543:OE1:9881, V-B:GLU:543:CD:9880, H-B:GLU:543:OE2:9882, V-B:TYR:484:CZ:9318, V-B:LEU:475:CD1:9229, V-B:TYR:484:CE2:9317, H-B:ASP:366:OD1:8185, H-A:GLU:543:OE1:4909, H-A:GLU:543:OE2:4910, V-B:LEU:363:CB:8158"]

$$$$
4al_Grossjean_2025
     RDKit          3D

 28 29  0  0  0  0  0  0  0  0999 V2000
  127.2660  129.8300   54.7030 C   0  0  0  0  0  0  0  0  0  0  0  0
  127.9730  131.0220   54.3970 O   0  0  0  0  0  0  0  0  0  0  0  0
  129.3150  131.1070   54.5940 C   0  0  0  0  0  0  0  0  0  0  0  0
  130.1440  131.1620   53.6830 O   0  0  0  0  0  0  0  0  0  0  0  0
  129.6860  131.1290   56.0260 C   0  0  0  0  0  0  0  0  0  0  0  0
  128.4370  131.3290   57.2570 S   0  0  0  0  0  0  0  0  0  0  0  0
  129.6270  131.2500   58.5360 C   0  0  0  0  0  0  0  0  0  0  0  0
  129.2870  131.3470   59.8220 N   0  0  0  0  0  0  0  0  0  0  0  0
  130.3060  131.2700   60.7140 C   0  0  0  0  0  0  0  0  0  0  0  0
  129.8980  131.3830   62.1710 C   0  0  0  0  0  0  0  0  0  0  0  0
  131.6410  131.0990   60.3530 C   0  0  0  0  0  0  0  0  0  0  0  0
  131.9940  130.9970   59.0030 C   0  0  0  0  0  0  0  0  0  0  0  0
  133.4630  130.8120   58.6590 C   0  0  0  0  0  0  0  0  0  0  0  0
  130.9520  131.0740   58.0390 C   0  0  0  0  0  0  0  0  0  0  0  0
  130.9550  131.0090   56.6040 C   0  0  0  0  0  0  0  0  0  0  0  0
  132.1040  130.8430   55.8740 N   0  0  0  0  0  0  0  0  0  0  0  0
  127.1974  129.7144   55.7948 H   0  0  0  0  0  0  0  0  0  0  0  0
  126.2538  129.8841   54.2757 H   0  0  0  0  0  0  0  0  0  0  0  0
  127.7988  128.9677   54.2757 H   0  0  0  0  0  0  0  0  0  0  0  0
  130.7592  131.1445   62.8125 H   0  0  0  0  0  0  0  0  0  0  0  0
  129.5592  132.4088   62.3784 H   0  0  0  0  0  0  0  0  0  0  0  0
  129.0798  130.6777   62.3784 H   0  0  0  0  0  0  0  0  0  0  0  0
  132.4178  131.0442   61.1299 H   0  0  0  0  0  0  0  0  0  0  0  0
  134.0502  130.7380   59.5862 H   0  0  0  0  0  0  0  0  0  0  0  0
  133.5887  129.8909   58.0709 H   0  0  0  0  0  0  0  0  0  0  0  0
  133.8131  131.6731   58.0709 H   0  0  0  0  0  0  0  0  0  0  0  0
  133.0190  130.8900   56.2990 H   0  0  0  0  0  0  0  0  0  0  0  0
  132.0730  130.6670   54.8780 H   0  0  0  0  0  0  0  0  0  0  0  0
  1  2  1  0
  2  3  1  0
  3  4  2  0
  3  5  1  0
  5  6  1  0
  6  7  1  0
  7  8  2  0
  8  9  1  0
  9 10  1  0
  9 11  2  0
 11 12  1  0
 12 13  1  0
 12 14  2  0
 14 15  1  0
 15 16  1  0
 15  5  2  0
 14  7  1  0
  1 17  1  0
  1 18  1  0
  1 19  1  0
 10 20  1  0
 10 21  1  0
 10 22  1  0
 11 23  1  0
 13 24  1  0
 13 25  1  0
 13 26  1  0
 16 27  1  0
 16 28  1  0
M  END
>  <Binding energies>  (1) 
[-5.35]

>  <Ligand effiencies>  (1) 
[-0.2972222222222222]

>  <Interactions>  (1) 
["V-B:TYR:531:CZ:9766, V-A:ASP:366:CG:3212, V-A:ASP:366:CB:3211, V-A:ILE:538:CG2:4863, V-A:TYR:539:CD1:4873, V-A:PRO:540:CA:4883, H-A:TYR:531:OH:4795, V-A:TYR:539:CZ:4877, V-A:PRO:540:CB:4885, V-A:TYR:539:CE1:4875, V-A:TYR:531:CZ:4794, V-B:TYR:531:CE1:9764, H-B:LYS:534:NZ:9795, V-A:ALA:541:CB:4892, V-A:LEU:363:CD1:3188, V-A:GLU:543:CG:4907, V-A:GLU:543:CD:4908, H-A:TYR:539:OH:4878, V-A:TYR:531:CE2:4793, V-A:LEU:363:CA:3184, V-A:LEU:363:CB:3186, V-A:ALA:541:CA:4890"]

$$$$
4ba_Grossjean_2025
     RDKit          3D

 44 46  0  0  0  0  0  0  0  0999 V2000
  124.9430  122.0200   54.9910 C   0  0  0  0  0  0  0  0  0  0  0  0
  125.4480  122.3060   56.4180 C   0  0  0  0  0  0  0  0  0  0  0  0
  126.9280  121.9530   56.6720 C   0  0  0  0  0  0  0  0  0  0  0  0
  127.5340  121.2540   55.8560 O   0  0  0  0  0  0  0  0  0  0  0  0
  127.5700  122.4900   57.9170 C   0  0  0  0  0  0  0  0  0  0  0  0
  128.9670  122.5460   58.0020 C   0  0  0  0  0  0  0  0  0  0  0  0
  129.5890  123.0380   59.1450 C   0  0  0  0  0  0  0  0  0  0  0  0
  128.8290  123.4880   60.2260 C   0  0  0  0  0  0  0  0  0  0  0  0
  129.5600  123.9570   61.3350 N   0  0  0  0  0  0  0  0  0  0  0  0
  129.1940  124.8110   62.3220 C   0  0  0  0  0  0  0  0  0  0  0  0
  128.1020  125.3780   62.3770 O   0  0  0  0  0  0  0  0  0  0  0  0
  130.2120  125.0550   63.3460 C   0  0  0  0  0  0  0  0  0  0  0  0
  131.8860  124.5860   63.0610 S   0  0  0  0  0  0  0  0  0  0  0  0
  132.3600  125.1330   64.6520 C   0  0  0  0  0  0  0  0  0  0  0  0
  133.6200  125.0350   65.0730 N   0  0  0  0  0  0  0  0  0  0  0  0
  133.8650  125.4910   66.3230 C   0  0  0  0  0  0  0  0  0  0  0  0
  135.3050  125.3620   66.7860 C   0  0  0  0  0  0  0  0  0  0  0  0
  132.8910  126.0420   67.1510 C   0  0  0  0  0  0  0  0  0  0  0  0
  131.5610  126.1480   66.7130 C   0  0  0  0  0  0  0  0  0  0  0  0
  130.5250  126.7630   67.6590 C   0  0  0  0  0  0  0  0  0  0  0  0
  129.5720  127.4430   67.0190 F   0  0  0  0  0  0  0  0  0  0  0  0
  129.9260  125.8000   68.3610 F   0  0  0  0  0  0  0  0  0  0  0  0
  131.1250  127.6090   68.4960 F   0  0  0  0  0  0  0  0  0  0  0  0
  131.2680  125.6700   65.4000 C   0  0  0  0  0  0  0  0  0  0  0  0
  130.0500  125.6030   64.6300 C   0  0  0  0  0  0  0  0  0  0  0  0
  128.8430  126.0400   65.1140 N   0  0  0  0  0  0  0  0  0  0  0  0
  127.4290  123.4290   60.1530 C   0  0  0  0  0  0  0  0  0  0  0  0
  126.8090  122.9360   59.0080 C   0  0  0  0  0  0  0  0  0  0  0  0
  123.9869  121.4785   55.0421 H   0  0  0  0  0  0  0  0  0  0  0  0
  124.7982  122.9702   54.4560 H   0  0  0  0  0  0  0  0  0  0  0  0
  125.6834  121.4071   54.4560 H   0  0  0  0  0  0  0  0  0  0  0  0
  125.3147  123.3795   56.6178 H   0  0  0  0  0  0  0  0  0  0  0  0
  124.8601  121.6594   57.0861 H   0  0  0  0  0  0  0  0  0  0  0  0
  129.5784  122.1975   57.1566 H   0  0  0  0  0  0  0  0  0  0  0  0
  130.6872  123.0727   59.1973 H   0  0  0  0  0  0  0  0  0  0  0  0
  130.5040  123.6060   61.3830 H   0  0  0  0  0  0  0  0  0  0  0  0
  135.3378  125.3591   67.8855 H   0  0  0  0  0  0  0  0  0  0  0  0
  135.7302  124.4222   66.4040 H   0  0  0  0  0  0  0  0  0  0  0  0
  135.8905  126.2113   66.4040 H   0  0  0  0  0  0  0  0  0  0  0  0
  133.1651  126.3969   68.1555 H   0  0  0  0  0  0  0  0  0  0  0  0
  128.1100  126.3700   64.5030 H   0  0  0  0  0  0  0  0  0  0  0  0
  128.6480  126.0530   66.1050 H   0  0  0  0  0  0  0  0  0  0  0  0
  126.8201  123.7729   61.0021 H   0  0  0  0  0  0  0  0  0  0  0  0
  125.7109  122.8958   58.9582 H   0  0  0  0  0  0  0  0  0  0  0  0
  1  2  1  0
  2  3  1  0
  3  4  2  0
  3  5  1  0
  5  6  2  0
  6  7  1  0
  7  8  2  0
  8  9  1  0
  9 10  1  0
 10 11  2  0
 10 12  1  0
 12 13  1  0
 13 14  1  0
 14 15  2  0
 15 16  1  0
 16 17  1  0
 16 18  2  0
 18 19  1  0
 19 20  1  0
 20 21  1  0
 20 22  1  0
 20 23  1  0
 19 24  2  0
 24 25  1  0
 25 26  1  0
  8 27  1  0
 27 28  2  0
 28  5  1  0
 25 12  2  0
 24 14  1  0
  1 29  1  0
  1 30  1  0
  1 31  1  0
  2 32  1  0
  2 33  1  0
  6 34  1  0
  7 35  1  0
  9 36  1  0
 17 37  1  0
 17 38  1  0
 17 39  1  0
 18 40  1  0
 26 41  1  0
 26 42  1  0
 27 43  1  0
 28 44  1  0
M  END
>  <Binding energies>  (1) 
[-7.08]

>  <Ligand effiencies>  (1) 
[-0.22838709677419355]

>  <Interactions>  (1) 
["V-B:PRO:540:CB:9857, V-B:MET:535:CE:9807, V-B:TYR:539:CD2:9846, V-B:PRO:540:N:9856, V-B:PRO:540:CA:9855, H-B:TYR:539:N:9842, V-B:TYR:539:CE2:9848, V-B:MET:535:CG:9805, V-B:TYR:539:C:9839, V-B:TYR:531:CE2:9765, V-B:LEU:363:CD1:8160, V-B:TYR:539:CA:9841, H-A:TYR:484:OH:4347, H-A:GLY:454:N:4049, V-B:PRO:540:CD:9859, V-A:GLU:543:CD:4908, V-B:TYR:539:CZ:9849, H-A:ARG:545:NH2:4928, V-B:TYR:539:CG:9844, V-A:TYR:484:CZ:4346, V-A:HIS:456:CE1:4069, V-A:ARG:545:CD:4923, V-A:ILE:455:C:4051, V-B:GLU:543:CG:9879, H-B:GLU:543:OE1:9881, V-B:GLU:543:CD:9880, H-B:GLU:543:OE2:9882, H-A:ARG:545:NE:4924, V-A:ARG:545:CG:4922, V-A:ARG:545:CZ:4926, V-A:GLU:543:CB:4906, V-A:TYR:484:CE2:4345, V-B:ILE:538:CA:9832, V-B:ILE:538:CG1:9836, V-B:ILE:538:CG2:9835, V-B:ILE:538:CB:9834, H-A:GLU:543:OE1:4909, V-A:GLY:454:CA:4048, V-A:GLY:453:CA:4043, V-A:GLY:453:C:4041, V-A:GLY:454:C:4046, V-A:ILE:455:CA:4053"]

$$$$
4bb_Grossjean_2025
     RDKit          3D

 41 43  0  0  0  0  0  0  0  0999 V2000
  125.4040  123.3820   56.2970 C   0  0  0  0  0  0  0  0  0  0  0  0
  126.3530  122.4200   57.0150 C   0  0  0  0  0  0  0  0  0  0  0  0
  126.4640  121.2750   56.5720 O   0  0  0  0  0  0  0  0  0  0  0  0
  127.0880  122.9170   58.2240 C   0  0  0  0  0  0  0  0  0  0  0  0
  128.4850  122.8270   58.2640 C   0  0  0  0  0  0  0  0  0  0  0  0
  129.1910  123.2800   59.3750 C   0  0  0  0  0  0  0  0  0  0  0  0
  128.5160  123.8380   60.4620 C   0  0  0  0  0  0  0  0  0  0  0  0
  129.3280  124.2610   61.5340 N   0  0  0  0  0  0  0  0  0  0  0  0
  129.1850  125.3180   62.3700 C   0  0  0  0  0  0  0  0  0  0  0  0
  128.2730  126.1410   62.2950 O   0  0  0  0  0  0  0  0  0  0  0  0
  130.2290  125.4530   63.3890 C   0  0  0  0  0  0  0  0  0  0  0  0
  131.8720  124.9120   63.0530 S   0  0  0  0  0  0  0  0  0  0  0  0
  132.3980  125.3570   64.6600 C   0  0  0  0  0  0  0  0  0  0  0  0
  133.6590  125.1820   65.0520 N   0  0  0  0  0  0  0  0  0  0  0  0
  133.9450  125.5640   66.3180 C   0  0  0  0  0  0  0  0  0  0  0  0
  135.3870  125.3570   66.7440 C   0  0  0  0  0  0  0  0  0  0  0  0
  133.0100  126.1120   67.1920 C   0  0  0  0  0  0  0  0  0  0  0  0
  131.6810  126.3000   66.7840 C   0  0  0  0  0  0  0  0  0  0  0  0
  130.6880  126.9060   67.7810 C   0  0  0  0  0  0  0  0  0  0  0  0
  131.2660  127.7320   68.6570 F   0  0  0  0  0  0  0  0  0  0  0  0
  129.7610  127.6050   67.1250 F   0  0  0  0  0  0  0  0  0  0  0  0
  130.0970  125.9360   68.4770 F   0  0  0  0  0  0  0  0  0  0  0  0
  131.3440  125.9070   65.4530 C   0  0  0  0  0  0  0  0  0  0  0  0
  130.1160  125.9440   64.7010 C   0  0  0  0  0  0  0  0  0  0  0  0
  128.9420  126.4240   65.2220 N   0  0  0  0  0  0  0  0  0  0  0  0
  127.1160  123.9240   60.4320 C   0  0  0  0  0  0  0  0  0  0  0  0
  126.4120  123.4690   59.3210 C   0  0  0  0  0  0  0  0  0  0  0  0
  124.8349  123.9589   57.0408 H   0  0  0  0  0  0  0  0  0  0  0  0
  125.9869  124.0701   55.6670 H   0  0  0  0  0  0  0  0  0  0  0  0
  124.7081  122.8086   55.6670 H   0  0  0  0  0  0  0  0  0  0  0  0
  129.0287  122.3950   57.4109 H   0  0  0  0  0  0  0  0  0  0  0  0
  130.2877  123.1977   59.3964 H   0  0  0  0  0  0  0  0  0  0  0  0
  130.1500  123.6940   61.6760 H   0  0  0  0  0  0  0  0  0  0  0  0
  135.4472  125.3484   67.8423 H   0  0  0  0  0  0  0  0  0  0  0  0
  135.7518  124.3973   66.3492 H   0  0  0  0  0  0  0  0  0  0  0  0
  136.0070  126.1753   66.3492 H   0  0  0  0  0  0  0  0  0  0  0  0
  133.3153  126.3994   68.2090 H   0  0  0  0  0  0  0  0  0  0  0  0
  128.7460  127.4140   65.2770 H   0  0  0  0  0  0  0  0  0  0  0  0
  128.2270  125.8000   65.5730 H   0  0  0  0  0  0  0  0  0  0  0  0
  126.5738  124.3518   61.2881 H   0  0  0  0  0  0  0  0  0  0  0  0
  125.3146  123.5432   59.3035 H   0  0  0  0  0  0  0  0  0  0  0  0
  1  2  1  0
  2  3  2  0
  2  4  1  0
  4  5  2  0
  5  6  1  0
  6  7  2  0
  7  8  1  0
  8  9  1  0
  9 10  2  0
  9 11  1  0
 11 12  1  0
 12 13  1  0
 13 14  2  0
 14 15  1  0
 15 16  1  0
 15 17  2  0
 17 18  1  0
 18 19  1  0
 19 20  1  0
 19 21  1  0
 19 22  1  0
 18 23  2  0
 23 24  1  0
 24 25  1  0
  7 26  1  0
 26 27  2  0
 27  4  1  0
 24 11  2  0
 23 13  1  0
  1 28  1  0
  1 29  1  0
  1 30  1  0
  5 31  1  0
  6 32  1  0
  8 33  1  0
 16 34  1  0
 16 35  1  0
 16 36  1  0
 17 37  1  0
 25 38  1  0
 25 39  1  0
 26 40  1  0
 27 41  1  0
M  END
>  <Binding energies>  (1) 
[-7.2]

>  <Ligand effiencies>  (1) 
[-0.24000000000000002]

>  <Interactions>  (1) 
["V-B:PRO:540:CB:9857, V-B:MET:535:CE:9807, V-B:PRO:540:N:9856, V-B:PRO:540:CA:9855, H-B:TYR:539:N:9842, V-B:TYR:539:CE2:9848, V-B:MET:535:CG:9805, V-B:TYR:539:C:9839, V-B:TYR:531:CE2:9765, V-B:TYR:531:CZ:9766, V-B:LEU:363:CD1:8160, H-A:TYR:484:OH:4347, H-A:GLY:454:N:4049, V-B:PRO:540:CD:9859, V-A:GLU:543:CG:4907, V-A:GLU:543:CD:4908, H-A:ARG:545:NH2:4928, V-A:GLU:543:C:4902, V-A:HIS:456:CE1:4069, V-A:ARG:545:CD:4923, V-A:ILE:455:C:4051, V-B:GLU:543:CG:9879, H-B:GLU:543:OE1:9881, V-B:GLU:543:CD:9880, H-B:GLU:543:OE2:9882, H-A:ARG:545:NE:4924, V-A:ARG:545:CG:4922, V-A:ARG:545:CZ:4926, V-A:GLU:543:CB:4906, V-A:TYR:484:CE2:4345, H-A:GLU:543:OE1:4909, V-A:GLY:454:CA:4048, V-A:GLY:453:CA:4043, V-A:GLY:453:C:4041, V-A:GLY:454:C:4046, V-A:ILE:455:CA:4053"]

$$$$
4bc_Grossjean_2025
     RDKit          3D

 40 42  0  0  0  0  0  0  0  0999 V2000
  125.3860  122.0360   56.3000 C   0  0  0  0  0  0  0  0  0  0  0  0
  126.7810  121.8500   56.5160 O   0  0  0  0  0  0  0  0  0  0  0  0
  127.3610  122.3710   57.6580 C   0  0  0  0  0  0  0  0  0  0  0  0
  128.7480  122.2670   57.7540 C   0  0  0  0  0  0  0  0  0  0  0  0
  129.4210  122.7630   58.8680 C   0  0  0  0  0  0  0  0  0  0  0  0
  128.7120  123.3780   59.9010 C   0  0  0  0  0  0  0  0  0  0  0  0
  129.4740  123.8340   60.9920 N   0  0  0  0  0  0  0  0  0  0  0  0
  129.5200  125.0690   61.5490 C   0  0  0  0  0  0  0  0  0  0  0  0
  128.8840  126.0360   61.1290 O   0  0  0  0  0  0  0  0  0  0  0  0
  130.4010  125.2010   62.7140 C   0  0  0  0  0  0  0  0  0  0  0  0
  132.1230  124.8610   62.5660 S   0  0  0  0  0  0  0  0  0  0  0  0
  132.3870  125.2290   64.2550 C   0  0  0  0  0  0  0  0  0  0  0  0
  133.6000  125.1510   64.8020 N   0  0  0  0  0  0  0  0  0  0  0  0
  133.6790  125.4580   66.1170 C   0  0  0  0  0  0  0  0  0  0  0  0
  135.0690  125.3690   66.7190 C   0  0  0  0  0  0  0  0  0  0  0  0
  132.5840  125.8350   66.8910 C   0  0  0  0  0  0  0  0  0  0  0  0
  131.3050  125.9180   66.3200 C   0  0  0  0  0  0  0  0  0  0  0  0
  130.1310  126.3360   67.2140 C   0  0  0  0  0  0  0  0  0  0  0  0
  129.4260  125.2970   67.6670 F   0  0  0  0  0  0  0  0  0  0  0  0
  130.5870  127.0020   68.2730 F   0  0  0  0  0  0  0  0  0  0  0  0
  129.2960  127.1160   66.5280 F   0  0  0  0  0  0  0  0  0  0  0  0
  131.1870  125.6030   64.9340 C   0  0  0  0  0  0  0  0  0  0  0  0
  130.0680  125.5800   64.0240 C   0  0  0  0  0  0  0  0  0  0  0  0
  128.7920  125.9020   64.4120 N   0  0  0  0  0  0  0  0  0  0  0  0
  127.3140  123.4740   59.8180 C   0  0  0  0  0  0  0  0  0  0  0  0
  126.6450  122.9770   58.7030 C   0  0  0  0  0  0  0  0  0  0  0  0
  124.8708  122.1047   57.2695 H   0  0  0  0  0  0  0  0  0  0  0  0
  125.2234  122.9638   55.7318 H   0  0  0  0  0  0  0  0  0  0  0  0
  124.9860  121.1832   55.7318 H   0  0  0  0  0  0  0  0  0  0  0  0
  129.3161  121.7888   56.9424 H   0  0  0  0  0  0  0  0  0  0  0  0
  130.5151  122.6697   58.9339 H   0  0  0  0  0  0  0  0  0  0  0  0
  130.0930  123.1420   61.3880 H   0  0  0  0  0  0  0  0  0  0  0  0
  134.9943  125.3738   67.8164 H   0  0  0  0  0  0  0  0  0  0  0  0
  135.5528  124.4380   66.3885 H   0  0  0  0  0  0  0  0  0  0  0  0
  135.6676  126.2307   66.3885 H   0  0  0  0  0  0  0  0  0  0  0  0
  132.7229  126.0692   67.9568 H   0  0  0  0  0  0  0  0  0  0  0  0
  128.4780  125.7900   65.3640 H   0  0  0  0  0  0  0  0  0  0  0  0
  128.1210  126.2700   63.7510 H   0  0  0  0  0  0  0  0  0  0  0  0
  126.7463  123.9427   60.6353 H   0  0  0  0  0  0  0  0  0  0  0  0
  125.5499  123.0594   58.6402 H   0  0  0  0  0  0  0  0  0  0  0  0
  1  2  1  0
  2  3  1  0
  3  4  2  0
  4  5  1  0
  5  6  2  0
  6  7  1  0
  7  8  1  0
  8  9  2  0
  8 10  1  0
 10 11  1  0
 11 12  1  0
 12 13  2  0
 13 14  1  0
 14 15  1  0
 14 16  2  0
 16 17  1  0
 17 18  1  0
 18 19  1  0
 18 20  1  0
 18 21  1  0
 17 22  2  0
 22 23  1  0
 23 24  1  0
  6 25  1  0
 25 26  2  0
 26  3  1  0
 23 10  2  0
 22 12  1  0
  1 27  1  0
  1 28  1  0
  1 29  1  0
  4 30  1  0
  5 31  1  0
  7 32  1  0
 15 33  1  0
 15 34  1  0
 15 35  1  0
 16 36  1  0
 24 37  1  0
 24 38  1  0
 25 39  1  0
 26 40  1  0
M  END
>  <Binding energies>  (1) 
[-6.44]

>  <Ligand effiencies>  (1) 
[-0.2220689655172414]

>  <Interactions>  (1) 
["V-B:PRO:540:CB:9857, V-B:MET:535:CE:9807, V-B:TYR:539:CD2:9846, V-B:PRO:540:N:9856, V-B:PRO:540:CA:9855, H-B:TYR:539:N:9842, V-B:TYR:539:CE2:9848, V-B:TYR:539:C:9839, V-B:LEU:363:CD1:8160, H-A:TYR:484:OH:4347, H-A:GLY:454:N:4049, V-B:PRO:540:CD:9859, V-A:GLU:543:CD:4908, V-B:TYR:539:CZ:9849, H-A:ARG:545:NH2:4928, V-B:TYR:539:CG:9844, V-A:TYR:484:CZ:4346, V-A:HIS:456:CE1:4069, V-B:GLU:543:CB:9878, V-A:ARG:545:CD:4923, V-A:ILE:455:C:4051, V-B:GLU:543:CG:9879, V-B:TYR:539:CE1:9847, H-B:GLU:543:OE1:9881, V-B:GLU:543:CD:9880, H-B:GLU:543:OE2:9882, V-B:TYR:539:CD1:9845, H-A:ARG:545:NE:4924, V-A:ARG:545:CG:4922, V-A:ARG:545:CZ:4926, V-A:GLU:543:CB:4906, V-A:TYR:484:CE2:4345, V-B:ILE:538:CG2:9835, H-A:GLU:543:OE1:4909, V-A:GLY:454:CA:4048, V-A:GLY:453:CA:4043, V-A:GLY:453:C:4041"]

$$$$
4bd_Grossjean_2025
     RDKit          3D

 36 38  0  0  0  0  0  0  0  0999 V2000
  129.4970  132.1330   54.3070 C   0  0  0  0  0  0  0  0  0  0  0  0
  129.9530  131.7380   55.7000 C   0  0  0  0  0  0  0  0  0  0  0  0
  131.1660  131.0860   55.9010 C   0  0  0  0  0  0  0  0  0  0  0  0
  131.5740  130.7240   57.1940 C   0  0  0  0  0  0  0  0  0  0  0  0
  132.9160  130.0050   57.3660 C   0  0  0  0  0  0  0  0  0  0  0  0
  133.6190  129.9340   56.2330 F   0  0  0  0  0  0  0  0  0  0  0  0
  133.6650  130.6520   58.2590 F   0  0  0  0  0  0  0  0  0  0  0  0
  132.7090  128.7570   57.7840 F   0  0  0  0  0  0  0  0  0  0  0  0
  130.6980  131.0550   58.2710 C   0  0  0  0  0  0  0  0  0  0  0  0
  130.7740  130.8500   59.6970 C   0  0  0  0  0  0  0  0  0  0  0  0
  131.8410  130.2350   60.2990 N   0  0  0  0  0  0  0  0  0  0  0  0
  129.6630  131.3350   60.4070 C   0  0  0  0  0  0  0  0  0  0  0  0
  129.4060  131.2810   61.8490 C   0  0  0  0  0  0  0  0  0  0  0  0
  130.2150  131.7520   62.6500 O   0  0  0  0  0  0  0  0  0  0  0  0
  128.2350  130.6980   62.2090 N   0  0  0  0  0  0  0  0  0  0  0  0
  127.7160  130.4530   63.4940 C   0  0  0  0  0  0  0  0  0  0  0  0
  127.0690  129.2260   63.6690 C   0  0  0  0  0  0  0  0  0  0  0  0
  126.5300  128.8860   64.9070 C   0  0  0  0  0  0  0  0  0  0  0  0
  126.6450  129.7710   65.9760 C   0  0  0  0  0  0  0  0  0  0  0  0
  127.2980  130.9910   65.8180 C   0  0  0  0  0  0  0  0  0  0  0  0
  127.8380  131.3350   64.5810 C   0  0  0  0  0  0  0  0  0  0  0  0
  128.4850  132.0700   59.3220 S   0  0  0  0  0  0  0  0  0  0  0  0
  129.4820  131.7230   57.9290 C   0  0  0  0  0  0  0  0  0  0  0  0
  129.1010  132.0640   56.6990 N   0  0  0  0  0  0  0  0  0  0  0  0
  128.6675  132.8515   54.3827 H   0  0  0  0  0  0  0  0  0  0  0  0
  130.3346  132.5957   53.7645 H   0  0  0  0  0  0  0  0  0  0  0  0
  129.1585  131.2380   53.7645 H   0  0  0  0  0  0  0  0  0  0  0  0
  131.8097  130.8527   55.0400 H   0  0  0  0  0  0  0  0  0  0  0  0
  132.0550  130.3710   61.2780 H   0  0  0  0  0  0  0  0  0  0  0  0
  132.4500  129.6150   59.7840 H   0  0  0  0  0  0  0  0  0  0  0  0
  127.6320  130.4080   61.4530 H   0  0  0  0  0  0  0  0  0  0  0  0
  126.9854  128.5259   62.8247 H   0  0  0  0  0  0  0  0  0  0  0  0
  126.0157  127.9228   65.0400 H   0  0  0  0  0  0  0  0  0  0  0  0
  126.2165  129.5043   66.9534 H   0  0  0  0  0  0  0  0  0  0  0  0
  127.3872  131.6821   66.6691 H   0  0  0  0  0  0  0  0  0  0  0  0
  128.3591  132.2955   64.4553 H   0  0  0  0  0  0  0  0  0  0  0  0
  1  2  1  0
  2  3  2  0
  3  4  1  0
  4  5  1  0
  5  6  1  0
  5  7  1  0
  5  8  1  0
  4  9  2  0
  9 10  1  0
 10 11  1  0
 10 12  2  0
 12 13  1  0
 13 14  2  0
 13 15  1  0
 15 16  1  0
 16 17  2  0
 17 18  1  0
 18 19  2  0
 19 20  1  0
 20 21  2  0
 12 22  1  0
 22 23  1  0
 23 24  2  0
 24  2  1  0
 23  9  1  0
 21 16  1  0
  1 25  1  0
  1 26  1  0
  1 27  1  0
  3 28  1  0
 11 29  1  0
 11 30  1  0
 15 31  1  0
 17 32  1  0
 18 33  1  0
 19 34  1  0
 20 35  1  0
 21 36  1  0
M  END
>  <Binding energies>  (1) 
[-6.33]

>  <Ligand effiencies>  (1) 
[-0.23444444444444446]

>  <Interactions>  (1) 
["V-A:ASP:366:CG:3212, V-A:PRO:540:N:4884, V-A:ILE:538:CA:4860, V-A:ASP:366:CB:3211, V-A:ILE:538:CG2:4863, V-A:TYR:539:CD1:4873, V-A:PRO:540:CA:4883, H-A:TYR:539:N:4870, V-A:PRO:540:CB:4885, V-A:TYR:539:CE1:4875, V-A:TYR:531:CZ:4794, V-A:ILE:538:CB:4862, V-A:ALA:541:CB:4892, V-A:TYR:539:C:4867, V-A:LEU:363:CD1:3188, V-A:GLU:543:CG:4907, V-A:GLU:543:CD:4908, H-A:ASP:366:OD2:3214, V-A:ILE:538:C:4858, H-A:ALA:541:N:4891, V-A:TYR:531:CE2:4793, V-A:LEU:363:CA:3184, V-A:LEU:363:CB:3186, V-B:TYR:484:CZ:9318, V-B:TYR:484:CE2:9317, H-A:GLU:543:OE2:4910"]

$$$$
4be_Grossjean_2025
     RDKit          3D

 38 40  0  0  0  0  0  0  0  0999 V2000
  128.0250  129.5110   67.2230 C   0  0  0  0  0  0  0  0  0  0  0  0
  127.1690  129.6510   65.9780 C   0  0  0  0  0  0  0  0  0  0  0  0
  125.7820  129.4910   66.0230 C   0  0  0  0  0  0  0  0  0  0  0  0
  125.0590  129.6310   64.8370 C   0  0  0  0  0  0  0  0  0  0  0  0
  125.7330  129.9240   63.6490 C   0  0  0  0  0  0  0  0  0  0  0  0
  127.1240  130.0770   63.6760 C   0  0  0  0  0  0  0  0  0  0  0  0
  127.7420  130.3640   62.4460 N   0  0  0  0  0  0  0  0  0  0  0  0
  128.8270  131.1400   62.1980 C   0  0  0  0  0  0  0  0  0  0  0  0
  129.4620  131.7310   63.0740 O   0  0  0  0  0  0  0  0  0  0  0  0
  129.2050  131.2600   60.7870 C   0  0  0  0  0  0  0  0  0  0  0  0
  128.1120  132.0340   59.6410 S   0  0  0  0  0  0  0  0  0  0  0  0
  129.2200  131.7440   58.3200 C   0  0  0  0  0  0  0  0  0  0  0  0
  128.9380  132.1360   57.0790 N   0  0  0  0  0  0  0  0  0  0  0  0
  129.8740  131.8570   56.1410 C   0  0  0  0  0  0  0  0  0  0  0  0
  129.5330  132.3090   54.7330 C   0  0  0  0  0  0  0  0  0  0  0  0
  131.0730  131.2050   56.4150 C   0  0  0  0  0  0  0  0  0  0  0  0
  131.3760  130.7910   57.7210 C   0  0  0  0  0  0  0  0  0  0  0  0
  132.7100  130.0800   57.9740 C   0  0  0  0  0  0  0  0  0  0  0  0
  133.3270  130.5060   59.0790 F   0  0  0  0  0  0  0  0  0  0  0  0
  132.5040  128.7710   58.1130 F   0  0  0  0  0  0  0  0  0  0  0  0
  133.5350  130.2900   56.9490 F   0  0  0  0  0  0  0  0  0  0  0  0
  130.4080  131.0650   58.7330 C   0  0  0  0  0  0  0  0  0  0  0  0
  130.3650  130.7930   60.1490 C   0  0  0  0  0  0  0  0  0  0  0  0
  131.3740  130.1400   60.8090 N   0  0  0  0  0  0  0  0  0  0  0  0
  127.8380  129.9360   64.8310 N   0  0  0  0  0  0  0  0  0  0  0  0
  127.3921  129.6145   68.1167 H   0  0  0  0  0  0  0  0  0  0  0  0
  128.5068  128.5221   67.2274 H   0  0  0  0  0  0  0  0  0  0  0  0
  128.7967  130.2949   67.2274 H   0  0  0  0  0  0  0  0  0  0  0  0
  125.2719  129.2603   66.9699 H   0  0  0  0  0  0  0  0  0  0  0  0
  123.9655  129.5114   64.8380 H   0  0  0  0  0  0  0  0  0  0  0  0
  125.1782  130.0330   62.7054 H   0  0  0  0  0  0  0  0  0  0  0  0
  127.2830  129.9640   61.6410 H   0  0  0  0  0  0  0  0  0  0  0  0
  128.8711  133.1863   54.7797 H   0  0  0  0  0  0  0  0  0  0  0  0
  130.4573  132.5751   54.1993 H   0  0  0  0  0  0  0  0  0  0  0  0
  129.0234  131.4932   54.1993 H   0  0  0  0  0  0  0  0  0  0  0  0
  131.7882  131.0129   55.6016 H   0  0  0  0  0  0  0  0  0  0  0  0
  131.5750  130.3120   61.7840 H   0  0  0  0  0  0  0  0  0  0  0  0
  131.9600  129.4660   60.3370 H   0  0  0  0  0  0  0  0  0  0  0  0
  1  2  1  0
  2  3  2  0
  3  4  1  0
  4  5  2  0
  5  6  1  0
  6  7  1  0
  7  8  1  0
  8  9  2  0
  8 10  1  0
 10 11  1  0
 11 12  1  0
 12 13  2  0
 13 14  1  0
 14 15  1  0
 14 16  2  0
 16 17  1  0
 17 18  1  0
 18 19  1  0
 18 20  1  0
 18 21  1  0
 17 22  2  0
 22 23  1  0
 23 24  1  0
  6 25  2  0
 25  2  1  0
 23 10  2  0
 22 12  1  0
  1 26  1  0
  1 27  1  0
  1 28  1  0
  3 29  1  0
  4 30  1  0
  5 31  1  0
  7 32  1  0
 15 33  1  0
 15 34  1  0
 15 35  1  0
 16 36  1  0
 24 37  1  0
 24 38  1  0
M  END
>  <Binding energies>  (1) 
[-6.25]

>  <Ligand effiencies>  (1) 
[-0.22321428571428573]

>  <Interactions>  (1) 
["V-A:ASP:366:CG:3212, V-A:PRO:540:N:4884, V-A:ILE:538:CA:4860, V-A:ASP:366:CB:3211, V-A:ILE:538:CG2:4863, V-A:TYR:539:CD1:4873, V-A:PRO:540:CA:4883, H-A:TYR:539:N:4870, V-A:PRO:540:CB:4885, V-A:TYR:539:CE1:4875, V-A:TYR:531:CZ:4794, V-A:ILE:538:CB:4862, V-B:ARG:545:CZ:9898, V-A:ALA:541:CB:4892, V-A:TYR:539:C:4867, V-A:LEU:363:CD1:3188, V-A:GLU:543:CG:4907, V-A:GLU:543:CD:4908, H-A:ASP:366:OD2:3214, V-B:HIS:456:CE1:9041, V-A:GLU:543:CB:4906, V-A:ILE:538:C:4858, H-A:ALA:541:N:4891, V-A:TYR:531:CE2:4793, V-A:LEU:363:CA:3184, V-A:LEU:363:CG:3187, V-B:TYR:484:CZ:9318, V-B:TYR:484:CE2:9317, H-A:GLU:543:OE2:4910"]

$$$$
4bf_Grossjean_2025
     RDKit          3D

 35 37  0  0  0  0  0  0  0  0999 V2000
  129.5010  132.3710   54.7940 C   0  0  0  0  0  0  0  0  0  0  0  0
  129.7930  131.8980   56.2080 C   0  0  0  0  0  0  0  0  0  0  0  0
  131.0100  131.3030   56.5280 C   0  0  0  0  0  0  0  0  0  0  0  0
  131.2650  130.8680   57.8370 C   0  0  0  0  0  0  0  0  0  0  0  0
  132.6190  130.2160   58.1420 C   0  0  0  0  0  0  0  0  0  0  0  0
  133.1090  130.5640   59.3350 F   0  0  0  0  0  0  0  0  0  0  0  0
  132.4940  128.8890   58.1340 F   0  0  0  0  0  0  0  0  0  0  0  0
  133.5130  130.5810   57.2220 F   0  0  0  0  0  0  0  0  0  0  0  0
  130.2330  131.0620   58.8030 C   0  0  0  0  0  0  0  0  0  0  0  0
  130.1320  130.7510   60.2070 C   0  0  0  0  0  0  0  0  0  0  0  0
  131.1480  130.1500   60.9070 N   0  0  0  0  0  0  0  0  0  0  0  0
  128.9090  131.1210   60.7910 C   0  0  0  0  0  0  0  0  0  0  0  0
  128.4610  130.9280   62.1740 C   0  0  0  0  0  0  0  0  0  0  0  0
  129.2170  131.1640   63.1170 O   0  0  0  0  0  0  0  0  0  0  0  0
  127.1830  130.4970   62.3150 N   0  0  0  0  0  0  0  0  0  0  0  0
  126.4720  130.1710   63.4850 C   0  0  0  0  0  0  0  0  0  0  0  0
  127.0460  129.7560   64.6990 C   0  0  0  0  0  0  0  0  0  0  0  0
  126.2220  129.4470   65.7840 C   0  0  0  0  0  0  0  0  0  0  0  0
  124.8400  129.5560   65.6250 C   0  0  0  0  0  0  0  0  0  0  0  0
  124.2610  129.9470   64.4620 N   0  0  0  0  0  0  0  0  0  0  0  0
  125.0750  130.2440   63.4170 C   0  0  0  0  0  0  0  0  0  0  0  0
  127.8380  131.8670   59.6070 S   0  0  0  0  0  0  0  0  0  0  0  0
  129.0320  131.6850   58.3430 C   0  0  0  0  0  0  0  0  0  0  0  0
  128.7950  132.0980   57.0990 N   0  0  0  0  0  0  0  0  0  0  0  0
  128.9235  133.3064   54.8322 H   0  0  0  0  0  0  0  0  0  0  0  0
  130.4483  132.5463   54.2630 H   0  0  0  0  0  0  0  0  0  0  0  0
  128.9198  131.6027   54.2630 H   0  0  0  0  0  0  0  0  0  0  0  0
  131.7764  131.1731   55.7497 H   0  0  0  0  0  0  0  0  0  0  0  0
  131.2930  130.3230   61.8910 H   0  0  0  0  0  0  0  0  0  0  0  0
  131.7870  129.5100   60.4580 H   0  0  0  0  0  0  0  0  0  0  0  0
  126.6510  130.3990   61.4630 H   0  0  0  0  0  0  0  0  0  0  0  0
  128.1389  129.6749   64.7943 H   0  0  0  0  0  0  0  0  0  0  0  0
  126.6534  129.1247   66.7432 H   0  0  0  0  0  0  0  0  0  0  0  0
  124.1916  129.3143   66.4801 H   0  0  0  0  0  0  0  0  0  0  0  0
  124.6141  130.5579   62.4688 H   0  0  0  0  0  0  0  0  0  0  0  0
  1  2  1  0
  2  3  2  0
  3  4  1  0
  4  5  1  0
  5  6  1  0
  5  7  1  0
  5  8  1  0
  4  9  2  0
  9 10  1  0
 10 11  1  0
 10 12  2  0
 12 13  1  0
 13 14  2  0
 13 15  1  0
 15 16  1  0
 16 17  2  0
 17 18  1  0
 18 19  2  0
 19 20  1  0
 20 21  2  0
 12 22  1  0
 22 23  1  0
 23 24  2  0
 24  2  1  0
 23  9  1  0
 21 16  1  0
  1 25  1  0
  1 26  1  0
  1 27  1  0
  3 28  1  0
 11 29  1  0
 11 30  1  0
 15 31  1  0
 17 32  1  0
 18 33  1  0
 19 34  1  0
 21 35  1  0
M  END
>  <Binding energies>  (1) 
[-6.11]

>  <Ligand effiencies>  (1) 
[-0.2262962962962963]

>  <Interactions>  (1) 
["V-A:ASP:366:CG:3212, V-A:ILE:538:CA:4860, V-A:ASP:366:CB:3211, V-A:ILE:538:CG2:4863, V-A:TYR:539:CD1:4873, V-A:PRO:540:CA:4883, H-A:TYR:539:N:4870, V-A:PRO:540:CB:4885, V-A:TYR:539:CE1:4875, V-A:ILE:538:CB:4862, H-B:GLY:454:N:9021, V-B:ARG:545:CZ:9898, V-A:TYR:539:C:4867, V-A:LEU:363:CD1:3188, H-B:ARG:545:NH2:9900, H-A:ASP:366:OD2:3214, V-A:ILE:538:C:4858, V-A:LEU:363:CA:3184, V-A:LEU:363:CG:3187, V-A:LEU:363:CB:3186, H-A:GLU:543:OE2:4910"]

$$$$
4bg_Grossjean_2025
     RDKit          3D

 39 41  0  0  0  0  0  0  0  0999 V2000
  128.9320  121.7210   61.1090 C   0  0  0  0  0  0  0  0  0  0  0  0
  129.6480  122.5610   60.0670 C   0  0  0  0  0  0  0  0  0  0  0  0
  131.0370  122.6590   60.0560 C   0  0  0  0  0  0  0  0  0  0  0  0
  131.6870  123.4440   59.0890 C   0  0  0  0  0  0  0  0  0  0  0  0
  133.2170  123.5210   59.1170 C   0  0  0  0  0  0  0  0  0  0  0  0
  133.7750  123.2400   57.9370 F   0  0  0  0  0  0  0  0  0  0  0  0
  133.5990  124.7520   59.4560 F   0  0  0  0  0  0  0  0  0  0  0  0
  133.6980  122.6500   60.0030 F   0  0  0  0  0  0  0  0  0  0  0  0
  130.8650  124.1200   58.1390 C   0  0  0  0  0  0  0  0  0  0  0  0
  131.1620  124.9970   57.0330 C   0  0  0  0  0  0  0  0  0  0  0  0
  132.4410  125.3640   56.6980 N   0  0  0  0  0  0  0  0  0  0  0  0
  130.0290  125.4320   56.3280 C   0  0  0  0  0  0  0  0  0  0  0  0
  129.9600  126.3420   55.1850 C   0  0  0  0  0  0  0  0  0  0  0  0
  130.9080  126.4730   54.4090 O   0  0  0  0  0  0  0  0  0  0  0  0
  128.7880  126.9900   55.0160 N   0  0  0  0  0  0  0  0  0  0  0  0
  128.4970  127.9550   53.9560 C   0  0  0  0  0  0  0  0  0  0  0  0
  128.8490  129.3900   54.3250 C   0  0  0  0  0  0  0  0  0  0  0  0
  128.1630  130.0380   55.3560 C   0  0  0  0  0  0  0  0  0  0  0  0
  128.5130  131.3370   55.7160 C   0  0  0  0  0  0  0  0  0  0  0  0
  129.5580  131.9790   55.0550 C   0  0  0  0  0  0  0  0  0  0  0  0
  130.2580  131.3330   54.0390 C   0  0  0  0  0  0  0  0  0  0  0  0
  129.9070  130.0350   53.6770 C   0  0  0  0  0  0  0  0  0  0  0  0
  128.5480  124.7960   57.0380 S   0  0  0  0  0  0  0  0  0  0  0  0
  129.4540  123.9290   58.2570 C   0  0  0  0  0  0  0  0  0  0  0  0
  128.8420  123.1850   59.1780 N   0  0  0  0  0  0  0  0  0  0  0  0
  129.2209  122.0599   62.1148 H   0  0  0  0  0  0  0  0  0  0  0  0
  127.8446  121.8298   60.9836 H   0  0  0  0  0  0  0  0  0  0  0  0
  129.2117  120.6646   60.9836 H   0  0  0  0  0  0  0  0  0  0  0  0
  131.6290  122.1184   60.8092 H   0  0  0  0  0  0  0  0  0  0  0  0
  132.8190  126.2680   56.9430 H   0  0  0  0  0  0  0  0  0  0  0  0
  133.0490  124.7410   56.1840 H   0  0  0  0  0  0  0  0  0  0  0  0
  128.0840  126.8950   55.7340 H   0  0  0  0  0  0  0  0  0  0  0  0
  129.0735  127.6743   53.0622 H   0  0  0  0  0  0  0  0  0  0  0  0
  127.4116  127.9239   53.7803 H   0  0  0  0  0  0  0  0  0  0  0  0
  127.3468  129.5221   55.8830 H   0  0  0  0  0  0  0  0  0  0  0  0
  127.9668  131.8539   56.5188 H   0  0  0  0  0  0  0  0  0  0  0  0
  129.8328  133.0058   55.3383 H   0  0  0  0  0  0  0  0  0  0  0  0
  131.0843  131.8457   53.5249 H   0  0  0  0  0  0  0  0  0  0  0  0
  130.4621  129.5169   52.8811 H   0  0  0  0  0  0  0  0  0  0  0  0
  1  2  1  0
  2  3  2  0
  3  4  1  0
  4  5  1  0
  5  6  1  0
  5  7  1  0
  5  8  1  0
  4  9  2  0
  9 10  1  0
 10 11  1  0
 10 12  2  0
 12 13  1  0
 13 14  2  0
 13 15  1  0
 15 16  1  0
 16 17  1  0
 17 18  2  0
 18 19  1  0
 19 20  2  0
 20 21  1  0
 21 22  2  0
 12 23  1  0
 23 24  1  0
 24 25  2  0
 25  2  1  0
 24  9  1  0
 22 17  1  0
  1 26  1  0
  1 27  1  0
  1 28  1  0
  3 29  1  0
 11 30  1  0
 11 31  1  0
 15 32  1  0
 16 33  1  0
 16 34  1  0
 18 35  1  0
 19 36  1  0
 20 37  1  0
 21 38  1  0
 22 39  1  0
M  END
>  <Binding energies>  (1) 
[-6.51]

>  <Ligand effiencies>  (1) 
[-0.23249999999999998]

>  <Interactions>  (1) 
["H-B:TYR:531:OH:9767, V-B:MET:535:CE:9807, V-A:ILE:369:CG2:3236, V-B:PRO:540:CA:9855, V-B:PRO:540:C:9853, V-B:ALA:541:CB:9864, V-B:TYR:539:CE2:9848, V-B:TYR:531:CZ:9766, V-A:ASP:366:CG:3212, V-A:ILE:538:CA:4860, V-A:ASP:366:CA:3209, V-A:MET:535:CB:4832, V-A:ASP:366:CB:3211, V-A:ILE:538:CG2:4863, V-A:ASP:366:C:3207, H-B:TYR:539:OH:9850, V-A:TYR:539:CD1:4873, H-A:TYR:531:OH:4795, V-A:TYR:539:CZ:4877, V-A:TYR:539:CE1:4875, V-A:TYR:531:CZ:4794, V-A:ILE:538:CB:4862, V-A:MET:535:CG:4833, V-B:TYR:531:CE1:9764, V-A:ILE:369:CD1:3238, V-B:TYR:539:CZ:9849, V-A:ILE:369:CB:3235, H-B:MET:535:SD:9806, H-A:ASP:366:O:3208, V-A:ILE:369:C:3231"]

$$$$
4bh_Grossjean_2025
     RDKit          3D

 51 53  0  0  0  0  0  0  0  0999 V2000
  131.6030  120.6350   61.2500 C   0  0  0  0  0  0  0  0  0  0  0  0
  131.1260  121.9740   61.3300 O   0  0  0  0  0  0  0  0  0  0  0  0
  130.0060  122.3400   60.6060 C   0  0  0  0  0  0  0  0  0  0  0  0
  130.0310  122.6890   59.2470 C   0  0  0  0  0  0  0  0  0  0  0  0
  128.8610  123.0520   58.5790 C   0  0  0  0  0  0  0  0  0  0  0  0
  128.9010  123.3830   57.0920 C   0  0  0  0  0  0  0  0  0  0  0  0
  129.0240  124.8150   56.8150 N   0  0  0  0  0  0  0  0  0  0  0  0
  130.0830  125.5850   57.1400 C   0  0  0  0  0  0  0  0  0  0  0  0
  131.0570  125.1480   57.7540 O   0  0  0  0  0  0  0  0  0  0  0  0
  129.9920  126.9950   56.7590 C   0  0  0  0  0  0  0  0  0  0  0  0
  128.8180  127.5090   55.5510 S   0  0  0  0  0  0  0  0  0  0  0  0
  129.3700  129.1640   55.6570 C   0  0  0  0  0  0  0  0  0  0  0  0
  128.8190  130.1290   54.9210 N   0  0  0  0  0  0  0  0  0  0  0  0
  129.3290  131.3700   55.0910 C   0  0  0  0  0  0  0  0  0  0  0  0
  128.6890  132.4540   54.2410 C   0  0  0  0  0  0  0  0  0  0  0  0
  130.3640  131.6690   55.9730 C   0  0  0  0  0  0  0  0  0  0  0  0
  130.9500  130.6570   56.7500 C   0  0  0  0  0  0  0  0  0  0  0  0
  132.0850  131.0330   57.7080 C   0  0  0  0  0  0  0  0  0  0  0  0
  131.7200  130.9960   58.9920 F   0  0  0  0  0  0  0  0  0  0  0  0
  133.1010  130.1850   57.5590 F   0  0  0  0  0  0  0  0  0  0  0  0
  132.5030  132.2720   57.4470 F   0  0  0  0  0  0  0  0  0  0  0  0
  130.4380  129.3350   56.5920 C   0  0  0  0  0  0  0  0  0  0  0  0
  130.7800  128.0710   57.1970 C   0  0  0  0  0  0  0  0  0  0  0  0
  131.7820  127.9380   58.1240 N   0  0  0  0  0  0  0  0  0  0  0  0
  127.6460  123.0400   59.2660 C   0  0  0  0  0  0  0  0  0  0  0  0
  127.5920  122.7030   60.6270 C   0  0  0  0  0  0  0  0  0  0  0  0
  126.4260  122.6840   61.3720 O   0  0  0  0  0  0  0  0  0  0  0  0
  125.4370  123.6830   61.1460 C   0  0  0  0  0  0  0  0  0  0  0  0
  128.7810  122.3610   61.2870 C   0  0  0  0  0  0  0  0  0  0  0  0
  128.7400  122.0110   62.6160 O   0  0  0  0  0  0  0  0  0  0  0  0
  129.1030  123.0620   63.5010 C   0  0  0  0  0  0  0  0  0  0  0  0
  131.7454  120.2352   62.2648 H   0  0  0  0  0  0  0  0  0  0  0  0
  130.8700  120.0162   60.7117 H   0  0  0  0  0  0  0  0  0  0  0  0
  132.5621  120.6190   60.7117 H   0  0  0  0  0  0  0  0  0  0  0  0
  130.9858  122.6762   58.7010 H   0  0  0  0  0  0  0  0  0  0  0  0
  129.7625  122.8665   56.6435 H   0  0  0  0  0  0  0  0  0  0  0  0
  127.9447  123.0514   56.6612 H   0  0  0  0  0  0  0  0  0  0  0  0
  128.2990  125.2190   56.2400 H   0  0  0  0  0  0  0  0  0  0  0  0
  128.2394  133.2154   54.8953 H   0  0  0  0  0  0  0  0  0  0  0  0
  129.4554  132.9224   53.6061 H   0  0  0  0  0  0  0  0  0  0  0  0
  127.9086  132.0092   53.6061 H   0  0  0  0  0  0  0  0  0  0  0  0
  130.7248  132.7044   56.0616 H   0  0  0  0  0  0  0  0  0  0  0  0
  132.1110  127.0320   58.4290 H   0  0  0  0  0  0  0  0  0  0  0  0
  132.2210  128.7460   58.5420 H   0  0  0  0  0  0  0  0  0  0  0  0
  126.7187  123.2981   58.7335 H   0  0  0  0  0  0  0  0  0  0  0  0
  125.0665  124.0573   62.1117 H   0  0  0  0  0  0  0  0  0  0  0  0
  125.8785  124.5137   60.5758 H   0  0  0  0  0  0  0  0  0  0  0  0
  124.6019  123.2499   60.5758 H   0  0  0  0  0  0  0  0  0  0  0  0
  128.9858  122.7227   64.5408 H   0  0  0  0  0  0  0  0  0  0  0  0
  130.1510  123.3452   63.3236 H   0  0  0  0  0  0  0  0  0  0  0  0
  128.4531  123.9316   63.3236 H   0  0  0  0  0  0  0  0  0  0  0  0
  1  2  1  0
  2  3  1  0
  3  4  2  0
  4  5  1  0
  5  6  1  0
  6  7  1  0
  7  8  1  0
  8  9  2  0
  8 10  1  0
 10 11  1  0
 11 12  1  0
 12 13  2  0
 13 14  1  0
 14 15  1  0
 14 16  2  0
 16 17  1  0
 17 18  1  0
 18 19  1  0
 18 20  1  0
 18 21  1  0
 17 22  2  0
 22 23  1  0
 23 24  1  0
  5 25  2  0
 25 26  1  0
 26 27  1  0
 27 28  1  0
 26 29  2  0
 29 30  1  0
 30 31  1  0
 29  3  1  0
 23 10  2  0
 22 12  1  0
  1 32  1  0
  1 33  1  0
  1 34  1  0
  4 35  1  0
  6 36  1  0
  6 37  1  0
  7 38  1  0
 15 39  1  0
 15 40  1  0
 15 41  1  0
 16 42  1  0
 24 43  1  0
 24 44  1  0
 25 45  1  0
 28 46  1  0
 28 47  1  0
 28 48  1  0
 31 49  1  0
 31 50  1  0
 31 51  1  0
M  END
>  <Binding energies>  (1) 
[-5.88]

>  <Ligand effiencies>  (1) 
[-0.17294117647058824]

>  <Interactions>  (1) 
["H-B:ALA:541:N:9863, V-B:PRO:540:CB:9857, H-B:TYR:531:OH:9767, V-B:MET:535:CE:9807, V-B:TYR:539:CD2:9846, V-A:LEU:475:CD1:4257, V-B:PRO:540:CA:9855, V-B:PRO:540:C:9853, V-B:ALA:541:CB:9864, V-B:TYR:539:CE2:9848, V-A:ASP:366:CG:3212, V-A:PRO:540:N:4884, V-A:ILE:538:CA:4860, V-A:ASP:366:CB:3211, V-A:ILE:538:CG2:4863, H-B:TYR:539:OH:9850, V-A:TYR:539:CE2:4876, V-A:PRO:540:CA:4883, V-A:TYR:539:CZ:4877, V-A:TYR:539:CD2:4874, V-A:PRO:540:CB:4885, V-A:TYR:539:CE1:4875, V-A:ILE:538:CB:4862, V-A:PRO:540:CD:4887, V-A:LEU:363:CD1:3188, H-A:ASP:366:OD2:3214, V-B:TYR:539:CZ:9849, V-B:GLU:543:CG:9879, V-B:TYR:539:CE1:9847, V-B:GLU:543:CD:9880, H-B:MET:535:SD:9806, V-A:ILE:538:C:4858, V-A:LEU:363:CA:3184, V-A:PRO:540:CG:4886, V-A:VAL:537:C:4850"]

$$$$
4bi_Grossjean_2025
     RDKit          3D

 32 34  0  0  0  0  0  0  0  0999 V2000
  133.2670  125.1180   64.9960 C   0  0  0  0  0  0  0  0  0  0  0  0
  132.5910  124.2620   63.9400 C   0  0  0  0  0  0  0  0  0  0  0  0
  133.2480  123.1760   63.3680 C   0  0  0  0  0  0  0  0  0  0  0  0
  132.6090  122.3910   62.3950 C   0  0  0  0  0  0  0  0  0  0  0  0
  133.3690  121.2010   61.8000 C   0  0  0  0  0  0  0  0  0  0  0  0
  132.6860  120.0550   61.8740 F   0  0  0  0  0  0  0  0  0  0  0  0
  133.6270  121.4270   60.5130 F   0  0  0  0  0  0  0  0  0  0  0  0
  134.5160  121.0240   62.4560 F   0  0  0  0  0  0  0  0  0  0  0  0
  131.2800  122.7600   62.0280 C   0  0  0  0  0  0  0  0  0  0  0  0
  130.3330  122.2110   61.0890 C   0  0  0  0  0  0  0  0  0  0  0  0
  130.6120  121.1190   60.3080 N   0  0  0  0  0  0  0  0  0  0  0  0
  129.1030  122.8890   61.0510 C   0  0  0  0  0  0  0  0  0  0  0  0
  127.9330  122.6120   60.2130 C   0  0  0  0  0  0  0  0  0  0  0  0
  126.8280  122.4080   60.7220 O   0  0  0  0  0  0  0  0  0  0  0  0
  128.1590  122.6180   58.8760 N   0  0  0  0  0  0  0  0  0  0  0  0
  127.2370  122.4010   57.8610 C   0  0  0  0  0  0  0  0  0  0  0  0
  125.9780  122.9990   57.8360 C   0  0  0  0  0  0  0  0  0  0  0  0
  125.3830  122.5320   56.6860 C   0  0  0  0  0  0  0  0  0  0  0  0
  126.2400  121.6970   56.0510 O   0  0  0  0  0  0  0  0  0  0  0  0
  127.4120  121.6220   56.8070 N   0  0  0  0  0  0  0  0  0  0  0  0
  129.0920  124.2510   62.1680 S   0  0  0  0  0  0  0  0  0  0  0  0
  130.7210  123.8960   62.6910 C   0  0  0  0  0  0  0  0  0  0  0  0
  131.3320  124.6370   63.6150 N   0  0  0  0  0  0  0  0  0  0  0  0
  132.9832  124.7586   65.9961 H   0  0  0  0  0  0  0  0  0  0  0  0
  134.3587  125.0512   64.8785 H   0  0  0  0  0  0  0  0  0  0  0  0
  132.9490  126.1644   64.8785 H   0  0  0  0  0  0  0  0  0  0  0  0
  134.2740  122.9315   63.6803 H   0  0  0  0  0  0  0  0  0  0  0  0
  129.8880  120.4830   60.0010 H   0  0  0  0  0  0  0  0  0  0  0  0
  131.5550  120.9070   60.0160 H   0  0  0  0  0  0  0  0  0  0  0  0
  129.1030  122.8110   58.5710 H   0  0  0  0  0  0  0  0  0  0  0  0
  125.5523  123.6936   58.5751 H   0  0  0  0  0  0  0  0  0  0  0  0
  124.3731  122.7948   56.3382 H   0  0  0  0  0  0  0  0  0  0  0  0
  1  2  1  0
  2  3  2  0
  3  4  1  0
  4  5  1  0
  5  6  1  0
  5  7  1  0
  5  8  1  0
  4  9  2  0
  9 10  1  0
 10 11  1  0
 10 12  2  0
 12 13  1  0
 13 14  2  0
 13 15  1  0
 15 16  1  0
 16 17  1  0
 17 18  2  0
 18 19  1  0
 19 20  1  0
 12 21  1  0
 21 22  1  0
 22 23  2  0
 23  2  1  0
 22  9  1  0
 20 16  2  0
  1 24  1  0
  1 25  1  0
  1 26  1  0
  3 27  1  0
 11 28  1  0
 11 29  1  0
 15 30  1  0
 17 31  1  0
 18 32  1  0
M  END
>  <Binding energies>  (1) 
[-6.27]

>  <Ligand effiencies>  (1) 
[-0.24115384615384614]

>  <Interactions>  (1) 
["H-B:ALA:541:N:9863, V-B:PRO:540:CB:9857, V-B:MET:535:CE:9807, V-A:ILE:369:CG2:3236, V-B:TYR:539:CD2:9846, V-B:PRO:540:N:9856, V-A:LEU:475:CD1:4257, V-B:PRO:540:CA:9855, H-B:TYR:539:N:9842, V-B:TYR:539:CE2:9848, V-B:TYR:539:C:9839, V-B:LEU:363:CD1:8160, V-B:PRO:540:CD:9859, V-A:ILE:369:CD1:3238, H-B:TYR:539:O:9840, V-A:SER:385:C:3404, V-A:ARG:545:CZ:4926, V-A:GLY:454:CA:4048"]

$$$$
4bj_Grossjean_2025
     RDKit          3D

 32 34  0  0  0  0  0  0  0  0999 V2000
  129.4750  132.1030   54.3150 C   0  0  0  0  0  0  0  0  0  0  0  0
  129.9330  131.7290   55.7130 C   0  0  0  0  0  0  0  0  0  0  0  0
  131.1410  131.0680   55.9200 C   0  0  0  0  0  0  0  0  0  0  0  0
  131.5490  130.7220   57.2170 C   0  0  0  0  0  0  0  0  0  0  0  0
  132.8860  129.9920   57.3950 C   0  0  0  0  0  0  0  0  0  0  0  0
  133.6090  129.9490   56.2740 F   0  0  0  0  0  0  0  0  0  0  0  0
  133.6180  130.6110   58.3200 F   0  0  0  0  0  0  0  0  0  0  0  0
  132.6640  128.7340   57.7760 F   0  0  0  0  0  0  0  0  0  0  0  0
  130.6800  131.0790   58.2910 C   0  0  0  0  0  0  0  0  0  0  0  0
  130.7570  130.8910   59.7200 C   0  0  0  0  0  0  0  0  0  0  0  0
  131.8110  130.2580   60.3290 N   0  0  0  0  0  0  0  0  0  0  0  0
  129.6650  131.4200   60.4270 C   0  0  0  0  0  0  0  0  0  0  0  0
  129.4160  131.3980   61.8700 C   0  0  0  0  0  0  0  0  0  0  0  0
  130.2920  131.7410   62.6670 O   0  0  0  0  0  0  0  0  0  0  0  0
  128.1750  130.9970   62.2420 N   0  0  0  0  0  0  0  0  0  0  0  0
  127.6830  130.8990   63.5360 C   0  0  0  0  0  0  0  0  0  0  0  0
  127.8980  131.7130   64.5460 N   0  0  0  0  0  0  0  0  0  0  0  0
  127.2660  131.3160   65.6320 C   0  0  0  0  0  0  0  0  0  0  0  0
  126.5140  130.1510   65.5160 C   0  0  0  0  0  0  0  0  0  0  0  0
  126.6530  129.5490   63.8910 S   0  0  0  0  0  0  0  0  0  0  0  0
  128.4900  132.1490   59.3360 S   0  0  0  0  0  0  0  0  0  0  0  0
  129.4730  131.7590   57.9440 C   0  0  0  0  0  0  0  0  0  0  0  0
  129.0880  132.0820   56.7100 N   0  0  0  0  0  0  0  0  0  0  0  0
  128.6245  132.7975   54.3813 H   0  0  0  0  0  0  0  0  0  0  0  0
  130.3024  132.5869   53.7753 H   0  0  0  0  0  0  0  0  0  0  0  0
  129.1662  131.1956   53.7753 H   0  0  0  0  0  0  0  0  0  0  0  0
  131.7797  130.8154   55.0608 H   0  0  0  0  0  0  0  0  0  0  0  0
  132.0240  130.3930   61.3070 H   0  0  0  0  0  0  0  0  0  0  0  0
  132.4180  129.6360   59.8130 H   0  0  0  0  0  0  0  0  0  0  0  0
  127.5300  130.7460   61.5070 H   0  0  0  0  0  0  0  0  0  0  0  0
  127.3294  131.8745   66.5776 H   0  0  0  0  0  0  0  0  0  0  0  0
  125.9268  129.6863   66.3218 H   0  0  0  0  0  0  0  0  0  0  0  0
  1  2  1  0
  2  3  2  0
  3  4  1  0
  4  5  1  0
  5  6  1  0
  5  7  1  0
  5  8  1  0
  4  9  2  0
  9 10  1  0
 10 11  1  0
 10 12  2  0
 12 13  1  0
 13 14  2  0
 13 15  1  0
 15 16  1  0
 16 17  2  0
 17 18  1  0
 18 19  2  0
 19 20  1  0
 12 21  1  0
 21 22  1  0
 22 23  2  0
 23  2  1  0
 22  9  1  0
 20 16  1  0
  1 24  1  0
  1 25  1  0
  1 26  1  0
  3 27  1  0
 11 28  1  0
 11 29  1  0
 15 30  1  0
 18 31  1  0
 19 32  1  0
M  END
>  <Binding energies>  (1) 
[-5.89]

>  <Ligand effiencies>  (1) 
[-0.22653846153846152]

>  <Interactions>  (1) 
["V-A:ASP:366:CG:3212, V-A:PRO:540:N:4884, V-A:ILE:538:CA:4860, V-A:ASP:366:CB:3211, V-A:ILE:538:CG2:4863, V-A:TYR:539:CD1:4873, V-A:PRO:540:CA:4883, H-A:TYR:539:N:4870, V-A:PRO:540:CB:4885, V-A:TYR:539:CE1:4875, V-A:TYR:531:CZ:4794, V-A:ILE:538:CB:4862, V-A:ALA:541:CB:4892, V-A:TYR:539:C:4867, V-A:LEU:363:CD1:3188, V-A:GLU:543:CG:4907, V-A:GLU:543:CD:4908, H-A:ASP:366:OD2:3214, V-A:ILE:538:C:4858, H-A:ALA:541:N:4891, V-A:TYR:531:CE2:4793, V-A:LEU:363:CA:3184, V-A:LEU:363:CB:3186, V-B:TYR:484:CZ:9318, V-B:TYR:484:CE2:9317, H-A:GLU:543:OE2:4910"]

$$$$
4bk_Grossjean_2025
     RDKit          3D

 50 51  0  0  0  0  0  0  0  0999 V2000
  129.9150  132.1160   57.5700 C   0  0  0  0  0  0  0  0  0  0  0  0
  129.9740  132.4950   56.2040 O   0  0  0  0  0  0  0  0  0  0  0  0
  130.0940  131.3910   55.3150 C   0  0  0  0  0  0  0  0  0  0  0  0
  129.4200  131.7340   53.9810 C   0  0  0  0  0  0  0  0  0  0  0  0
  128.0740  131.2780   54.0010 O   0  0  0  0  0  0  0  0  0  0  0  0
  127.5980  130.9520   55.2990 C   0  0  0  0  0  0  0  0  0  0  0  0
  127.3540  129.4390   55.3890 C   0  0  0  0  0  0  0  0  0  0  0  0
  128.5980  128.7580   55.3010 O   0  0  0  0  0  0  0  0  0  0  0  0
  128.8730  128.2280   54.0100 C   0  0  0  0  0  0  0  0  0  0  0  0
  129.8270  127.0280   54.1430 C   0  0  0  0  0  0  0  0  0  0  0  0
  130.1790  126.7090   55.5280 N   0  0  0  0  0  0  0  0  0  0  0  0
  131.3040  126.0750   55.9200 C   0  0  0  0  0  0  0  0  0  0  0  0
  132.1710  125.7150   55.1210 O   0  0  0  0  0  0  0  0  0  0  0  0
  131.4450  125.8440   57.3580 C   0  0  0  0  0  0  0  0  0  0  0  0
  130.3890  126.6790   58.4950 S   0  0  0  0  0  0  0  0  0  0  0  0
  131.1460  125.8790   59.8520 C   0  0  0  0  0  0  0  0  0  0  0  0
  130.7550  126.1140   61.1040 N   0  0  0  0  0  0  0  0  0  0  0  0
  131.4150  125.4340   62.0700 C   0  0  0  0  0  0  0  0  0  0  0  0
  130.9510  125.7160   63.4880 C   0  0  0  0  0  0  0  0  0  0  0  0
  132.4460  124.5340   61.8170 C   0  0  0  0  0  0  0  0  0  0  0  0
  132.8640  124.2830   60.5010 C   0  0  0  0  0  0  0  0  0  0  0  0
  134.0060  123.2870   60.2720 C   0  0  0  0  0  0  0  0  0  0  0  0
  134.5690  122.8680   61.4070 F   0  0  0  0  0  0  0  0  0  0  0  0
  133.5450  122.2120   59.6330 F   0  0  0  0  0  0  0  0  0  0  0  0
  134.9620  123.8570   59.5400 F   0  0  0  0  0  0  0  0  0  0  0  0
  132.1880  124.9830   59.4570 C   0  0  0  0  0  0  0  0  0  0  0  0
  132.3310  124.9830   58.0220 C   0  0  0  0  0  0  0  0  0  0  0  0
  133.2560  124.2090   57.3690 N   0  0  0  0  0  0  0  0  0  0  0  0
  130.0533  133.0046   58.2034 H   0  0  0  0  0  0  0  0  0  0  0  0
  128.9355  131.6629   57.7828 H   0  0  0  0  0  0  0  0  0  0  0  0
  130.7104  131.3866   57.7828 H   0  0  0  0  0  0  0  0  0  0  0  0
  131.1583  131.1728   55.1428 H   0  0  0  0  0  0  0  0  0  0  0  0
  129.6061  130.5096   55.7566 H   0  0  0  0  0  0  0  0  0  0  0  0
  129.4361  132.8236   53.8312 H   0  0  0  0  0  0  0  0  0  0  0  0
  129.9618  131.2436   53.1589 H   0  0  0  0  0  0  0  0  0  0  0  0
  128.3461  131.2481   56.0491 H   0  0  0  0  0  0  0  0  0  0  0  0
  126.6562  131.4875   55.4896 H   0  0  0  0  0  0  0  0  0  0  0  0
  126.8715  129.2008   56.3484 H   0  0  0  0  0  0  0  0  0  0  0  0
  126.6999  129.1209   54.5638 H   0  0  0  0  0  0  0  0  0  0  0  0
  127.9340  127.9001   53.5402 H   0  0  0  0  0  0  0  0  0  0  0  0
  129.3424  129.0034   53.3867 H   0  0  0  0  0  0  0  0  0  0  0  0
  129.3425  126.1475   53.6958 H   0  0  0  0  0  0  0  0  0  0  0  0
  130.7601  127.2994   53.6276 H   0  0  0  0  0  0  0  0  0  0  0  0
  129.5080  126.9780   56.2310 H   0  0  0  0  0  0  0  0  0  0  0  0
  131.6666  125.2811   64.2013 H   0  0  0  0  0  0  0  0  0  0  0  0
  130.8916  126.8031   63.6450 H   0  0  0  0  0  0  0  0  0  0  0  0
  129.9587  125.2681   63.6450 H   0  0  0  0  0  0  0  0  0  0  0  0
  132.9366  124.0159   62.6542 H   0  0  0  0  0  0  0  0  0  0  0  0
  134.2280  124.1900   57.6440 H   0  0  0  0  0  0  0  0  0  0  0  0
  132.9930  123.6230   56.5880 H   0  0  0  0  0  0  0  0  0  0  0  0
  1  2  1  0
  2  3  1  0
  3  4  1  0
  4  5  1  0
  5  6  1  0
  6  7  1  0
  7  8  1  0
  8  9  1  0
  9 10  1  0
 10 11  1  0
 11 12  1  0
 12 13  2  0
 12 14  1  0
 14 15  1  0
 15 16  1  0
 16 17  2  0
 17 18  1  0
 18 19  1  0
 18 20  2  0
 20 21  1  0
 21 22  1  0
 22 23  1  0
 22 24  1  0
 22 25  1  0
 21 26  2  0
 26 27  1  0
 27 28  1  0
 27 14  2  0
 26 16  1  0
  1 29  1  0
  1 30  1  0
  1 31  1  0
  3 32  1  0
  3 33  1  0
  4 34  1  0
  4 35  1  0
  6 36  1  0
  6 37  1  0
  7 38  1  0
  7 39  1  0
  9 40  1  0
  9 41  1  0
 10 42  1  0
 10 43  1  0
 11 44  1  0
 19 45  1  0
 19 46  1  0
 19 47  1  0
 20 48  1  0
 28 49  1  0
 28 50  1  0
M  END
>  <Binding energies>  (1) 
[-5.85]

>  <Ligand effiencies>  (1) 
[-0.18870967741935482]

>  <Interactions>  (1) 
["H-B:TYR:531:OH:9767, V-A:ILE:369:CG2:3236, V-B:TYR:539:CE2:9848, V-B:TYR:531:CZ:9766, V-A:ASP:366:CG:3212, V-A:PRO:540:N:4884, V-A:ILE:538:CA:4860, V-A:ASP:366:CA:3209, V-A:ASP:366:CB:3211, V-A:ILE:538:CG2:4863, V-A:ASP:366:C:3207, H-B:TYR:539:OH:9850, V-A:TYR:539:CD1:4873, V-A:TYR:539:CE2:4876, V-A:PRO:540:CA:4883, H-A:TYR:531:OH:4795, H-A:TYR:539:N:4870, V-A:TYR:539:CZ:4877, V-A:TYR:539:CE1:4875, V-A:TYR:531:CZ:4794, V-A:ILE:538:CB:4862, V-B:TYR:531:CE1:9764, H-B:LYS:534:NZ:9795, V-A:TYR:539:C:4867, V-A:ILE:369:CD1:3238, V-B:TYR:539:CZ:9849, H-A:TYR:539:OH:4878, V-A:ILE:369:CB:3235, V-A:ILE:369:CG1:3237, V-A:MET:535:CE:4835, H-A:ASP:366:O:3208"]

$$$$
4ca_Grossjean_2025
     RDKit          3D

 52 55  0  0  0  0  0  0  0  0999 V2000
  127.8170  131.4140   72.4610 C   0  0  0  0  0  0  0  0  0  0  0  0
  128.8120  130.2620   72.6350 C   0  0  0  0  0  0  0  0  0  0  0  0
  128.7440  129.4050   71.5030 O   0  0  0  0  0  0  0  0  0  0  0  0
  129.4900  128.2720   71.4350 C   0  0  0  0  0  0  0  0  0  0  0  0
  130.1090  127.8070   72.3980 O   0  0  0  0  0  0  0  0  0  0  0  0
  129.4850  127.6390   70.0740 C   0  0  0  0  0  0  0  0  0  0  0  0
  128.7660  126.4530   69.8740 C   0  0  0  0  0  0  0  0  0  0  0  0
  128.7390  125.8450   68.6220 C   0  0  0  0  0  0  0  0  0  0  0  0
  129.4330  126.4030   67.5490 C   0  0  0  0  0  0  0  0  0  0  0  0
  129.3290  125.7110   66.3260 N   0  0  0  0  0  0  0  0  0  0  0  0
  130.2990  125.2590   65.4940 C   0  0  0  0  0  0  0  0  0  0  0  0
  131.5060  125.3540   65.7230 O   0  0  0  0  0  0  0  0  0  0  0  0
  129.8220  124.6120   64.2700 C   0  0  0  0  0  0  0  0  0  0  0  0
  128.5370  125.3530   63.3190 S   0  0  0  0  0  0  0  0  0  0  0  0
  128.6180  124.0740   62.1300 C   0  0  0  0  0  0  0  0  0  0  0  0
  127.8240  124.0680   61.0630 N   0  0  0  0  0  0  0  0  0  0  0  0
  127.9690  123.0410   60.1860 C   0  0  0  0  0  0  0  0  0  0  0  0
  127.0650  123.0680   58.9870 C   0  0  0  0  0  0  0  0  0  0  0  0
  127.3790  122.3320   57.8330 C   0  0  0  0  0  0  0  0  0  0  0  0
  126.5480  122.3570   56.7160 C   0  0  0  0  0  0  0  0  0  0  0  0
  125.3870  123.1220   56.7370 C   0  0  0  0  0  0  0  0  0  0  0  0
  125.0520  123.8630   57.8660 C   0  0  0  0  0  0  0  0  0  0  0  0
  125.8860  123.8350   58.9810 C   0  0  0  0  0  0  0  0  0  0  0  0
  128.8940  122.0140   60.3980 C   0  0  0  0  0  0  0  0  0  0  0  0
  129.7340  122.0090   61.5220 C   0  0  0  0  0  0  0  0  0  0  0  0
  130.7280  120.8540   61.6900 C   0  0  0  0  0  0  0  0  0  0  0  0
  130.5690  119.8900   60.7810 F   0  0  0  0  0  0  0  0  0  0  0  0
  131.9740  121.3100   61.5740 F   0  0  0  0  0  0  0  0  0  0  0  0
  130.5730  120.2970   62.8920 F   0  0  0  0  0  0  0  0  0  0  0  0
  129.6020  123.0910   62.4390 C   0  0  0  0  0  0  0  0  0  0  0  0
  130.2770  123.4260   63.6690 C   0  0  0  0  0  0  0  0  0  0  0  0
  131.2750  122.6490   64.2020 N   0  0  0  0  0  0  0  0  0  0  0  0
  130.1500  127.5930   67.7370 C   0  0  0  0  0  0  0  0  0  0  0  0
  130.1750  128.2020   68.9900 C   0  0  0  0  0  0  0  0  0  0  0  0
  127.5019  131.7788   73.4497 H   0  0  0  0  0  0  0  0  0  0  0  0
  128.2971  132.2322   71.9042 H   0  0  0  0  0  0  0  0  0  0  0  0
  126.9377  131.0581   71.9042 H   0  0  0  0  0  0  0  0  0  0  0  0
  129.8304  130.6674   72.7279 H   0  0  0  0  0  0  0  0  0  0  0  0
  128.5608  129.6932   73.5424 H   0  0  0  0  0  0  0  0  0  0  0  0
  128.2185  125.9988   70.7130 H   0  0  0  0  0  0  0  0  0  0  0  0
  128.1658  124.9173   68.4780 H   0  0  0  0  0  0  0  0  0  0  0  0
  128.3810  125.5160   66.0420 H   0  0  0  0  0  0  0  0  0  0  0  0
  128.2966  121.7257   57.8111 H   0  0  0  0  0  0  0  0  0  0  0  0
  126.8089  121.7739   55.8205 H   0  0  0  0  0  0  0  0  0  0  0  0
  124.7293  123.1415   55.8555 H   0  0  0  0  0  0  0  0  0  0  0  0
  124.1332  124.4678   57.8778 H   0  0  0  0  0  0  0  0  0  0  0  0
  125.6183  124.4224   59.8717 H   0  0  0  0  0  0  0  0  0  0  0  0
  128.9646  121.1934   59.6689 H   0  0  0  0  0  0  0  0  0  0  0  0
  131.5710  121.7870   63.7660 H   0  0  0  0  0  0  0  0  0  0  0  0
  131.7520  122.9150   65.0530 H   0  0  0  0  0  0  0  0  0  0  0  0
  130.6932  128.0462   66.8947 H   0  0  0  0  0  0  0  0  0  0  0  0
  130.7418  129.1342   69.1307 H   0  0  0  0  0  0  0  0  0  0  0  0
  1  2  1  0
  2  3  1  0
  3  4  1  0
  4  5  2  0
  4  6  1  0
  6  7  2  0
  7  8  1  0
  8  9  2  0
  9 10  1  0
 10 11  1  0
 11 12  2  0
 11 13  1  0
 13 14  1  0
 14 15  1  0
 15 16  2  0
 16 17  1  0
 17 18  1  0
 18 19  2  0
 19 20  1  0
 20 21  2  0
 21 22  1  0
 22 23  2  0
 17 24  2  0
 24 25  1  0
 25 26  1  0
 26 27  1  0
 26 28  1  0
 26 29  1  0
 25 30  2  0
 30 31  1  0
 31 32  1  0
  9 33  1  0
 33 34  2  0
 34  6  1  0
 31 13  2  0
 30 15  1  0
 23 18  1  0
  1 35  1  0
  1 36  1  0
  1 37  1  0
  2 38  1  0
  2 39  1  0
  7 40  1  0
  8 41  1  0
 10 42  1  0
 19 43  1  0
 20 44  1  0
 21 45  1  0
 22 46  1  0
 23 47  1  0
 24 48  1  0
 32 49  1  0
 32 50  1  0
 33 51  1  0
 34 52  1  0
M  END
>  <Binding energies>  (1) 
[-7.8]

>  <Ligand effiencies>  (1) 
[-0.2108108108108108]

>  <Interactions>  (1) 
["V-B:PRO:540:CB:9857, V-B:MET:535:CE:9807, V-B:TYR:539:CD2:9846, V-B:PRO:540:N:9856, V-A:LEU:475:CD1:4257, V-B:PRO:540:CA:9855, V-B:ALA:541:CB:9864, V-B:TYR:539:C:9839, V-B:TYR:531:CE2:9765, V-B:LEU:363:CD1:8160, H-A:TYR:484:OH:4347, V-B:PRO:540:CD:9859, V-A:GLU:543:CD:4908, V-A:GLU:543:C:4902, V-B:HIS:456:CE1:9041, V-A:TYR:484:CZ:4346, V-A:HIS:456:CE1:4069, V-B:GLU:543:CB:9878, V-B:GLU:543:CG:9879, V-B:GLU:543:CD:9880, H-B:GLU:543:OE2:9882, V-A:GLU:543:CA:4904, V-A:GLU:543:CB:4906, V-B:GLU:543:CA:9876, V-B:GLU:543:C:9874, V-B:ALA:541:CA:9862, V-B:HIS:456:CD2:9039, V-B:TYR:484:CD1:9314, V-B:HIS:456:CG:9037, V-B:TYR:484:CB:9312, V-B:TYR:484:CG:9313, V-B:TYR:484:CD2:9315"]

$$$$
4cb_Grossjean_2025
     RDKit          3D

 49 52  0  0  0  0  0  0  0  0999 V2000
  129.3910  126.3390   73.0950 C   0  0  0  0  0  0  0  0  0  0  0  0
  130.1030  127.3430   72.3860 O   0  0  0  0  0  0  0  0  0  0  0  0
  129.4870  128.1060   71.4480 C   0  0  0  0  0  0  0  0  0  0  0  0
  128.9680  129.2000   71.6920 O   0  0  0  0  0  0  0  0  0  0  0  0
  129.4980  127.4870   70.0790 C   0  0  0  0  0  0  0  0  0  0  0  0
  128.7350  126.3360   69.8420 C   0  0  0  0  0  0  0  0  0  0  0  0
  128.7180  125.7440   68.5820 C   0  0  0  0  0  0  0  0  0  0  0  0
  129.4680  126.2850   67.5370 C   0  0  0  0  0  0  0  0  0  0  0  0
  129.3660  125.6140   66.3030 N   0  0  0  0  0  0  0  0  0  0  0  0
  130.3360  125.2140   65.4440 C   0  0  0  0  0  0  0  0  0  0  0  0
  131.5430  125.3470   65.6530 O   0  0  0  0  0  0  0  0  0  0  0  0
  129.8590  124.5740   64.2150 C   0  0  0  0  0  0  0  0  0  0  0  0
  128.5750  125.3220   63.2670 S   0  0  0  0  0  0  0  0  0  0  0  0
  128.6550  124.0500   62.0710 C   0  0  0  0  0  0  0  0  0  0  0  0
  127.8610  124.0480   61.0040 N   0  0  0  0  0  0  0  0  0  0  0  0
  128.0030  123.0230   60.1230 C   0  0  0  0  0  0  0  0  0  0  0  0
  127.0970  123.0520   58.9270 C   0  0  0  0  0  0  0  0  0  0  0  0
  127.4060  122.3120   57.7750 C   0  0  0  0  0  0  0  0  0  0  0  0
  126.5720  122.3370   56.6590 C   0  0  0  0  0  0  0  0  0  0  0  0
  125.4130  123.1060   56.6820 C   0  0  0  0  0  0  0  0  0  0  0  0
  125.0850  123.8510   57.8100 C   0  0  0  0  0  0  0  0  0  0  0  0
  125.9220  123.8240   58.9210 C   0  0  0  0  0  0  0  0  0  0  0  0
  128.9280  121.9940   60.3320 C   0  0  0  0  0  0  0  0  0  0  0  0
  129.7680  121.9850   61.4560 C   0  0  0  0  0  0  0  0  0  0  0  0
  130.7600  120.8270   61.6210 C   0  0  0  0  0  0  0  0  0  0  0  0
  132.0340  121.2090   61.4970 F   0  0  0  0  0  0  0  0  0  0  0  0
  130.6230  120.2860   62.8310 F   0  0  0  0  0  0  0  0  0  0  0  0
  130.5300  119.8980   60.6940 F   0  0  0  0  0  0  0  0  0  0  0  0
  129.6380  123.0640   62.3770 C   0  0  0  0  0  0  0  0  0  0  0  0
  130.3150  123.3930   63.6080 C   0  0  0  0  0  0  0  0  0  0  0  0
  131.3150  122.6150   64.1340 N   0  0  0  0  0  0  0  0  0  0  0  0
  130.2330  127.4390   67.7640 C   0  0  0  0  0  0  0  0  0  0  0  0
  130.2470  128.0300   69.0240 C   0  0  0  0  0  0  0  0  0  0  0  0
  129.5067  126.5021   74.1767 H   0  0  0  0  0  0  0  0  0  0  0  0
  128.3249  126.3883   72.8287 H   0  0  0  0  0  0  0  0  0  0  0  0
  129.7901  125.3492   72.8287 H   0  0  0  0  0  0  0  0  0  0  0  0
  128.1440  125.8961   70.6589 H   0  0  0  0  0  0  0  0  0  0  0  0
  128.1095  124.8441   68.4092 H   0  0  0  0  0  0  0  0  0  0  0  0
  128.4200  125.3950   66.0300 H   0  0  0  0  0  0  0  0  0  0  0  0
  128.3214  121.7024   57.7528 H   0  0  0  0  0  0  0  0  0  0  0  0
  126.8289  121.7514   55.7640 H   0  0  0  0  0  0  0  0  0  0  0  0
  124.7520  123.1251   55.8030 H   0  0  0  0  0  0  0  0  0  0  0  0
  124.1682  124.4586   57.8235 H   0  0  0  0  0  0  0  0  0  0  0  0
  125.6600  124.4167   59.8098 H   0  0  0  0  0  0  0  0  0  0  0  0
  128.9981  121.1756   59.6004 H   0  0  0  0  0  0  0  0  0  0  0  0
  131.7630  122.8420   65.0110 H   0  0  0  0  0  0  0  0  0  0  0  0
  131.6370  121.7820   63.6620 H   0  0  0  0  0  0  0  0  0  0  0  0
  130.8224  127.8772   66.9451 H   0  0  0  0  0  0  0  0  0  0  0  0
  130.8519  128.9327   69.1947 H   0  0  0  0  0  0  0  0  0  0  0  0
  1  2  1  0
  2  3  1  0
  3  4  2  0
  3  5  1  0
  5  6  2  0
  6  7  1  0
  7  8  2  0
  8  9  1  0
  9 10  1  0
 10 11  2  0
 10 12  1  0
 12 13  1  0
 13 14  1  0
 14 15  2  0
 15 16  1  0
 16 17  1  0
 17 18  2  0
 18 19  1  0
 19 20  2  0
 20 21  1  0
 21 22  2  0
 16 23  2  0
 23 24  1  0
 24 25  1  0
 25 26  1  0
 25 27  1  0
 25 28  1  0
 24 29  2  0
 29 30  1  0
 30 31  1  0
  8 32  1  0
 32 33  2  0
 33  5  1  0
 30 12  2  0
 29 14  1  0
 22 17  1  0
  1 34  1  0
  1 35  1  0
  1 36  1  0
  6 37  1  0
  7 38  1  0
  9 39  1  0
 18 40  1  0
 19 41  1  0
 20 42  1  0
 21 43  1  0
 22 44  1  0
 23 45  1  0
 31 46  1  0
 31 47  1  0
 32 48  1  0
 33 49  1  0
M  END
>  <Binding energies>  (1) 
[-7.63]

>  <Ligand effiencies>  (1) 
[-0.21194444444444444]

>  <Interactions>  (1) 
["V-B:PRO:540:CB:9857, V-B:MET:535:CE:9807, V-B:TYR:539:CD2:9846, V-B:PRO:540:N:9856, V-A:LEU:475:CD1:4257, V-B:PRO:540:CA:9855, V-B:ALA:541:CB:9864, V-B:TYR:539:C:9839, V-B:TYR:531:CE2:9765, V-B:LEU:363:CD1:8160, H-A:TYR:484:OH:4347, V-B:PRO:540:CD:9859, V-A:GLU:543:CD:4908, V-A:GLU:543:C:4902, V-B:HIS:456:CE1:9041, V-A:TYR:484:CZ:4346, V-A:HIS:456:CE1:4069, V-B:GLU:543:CB:9878, V-B:GLU:543:CG:9879, V-B:GLU:543:CD:9880, H-B:GLU:543:OE2:9882, V-A:GLU:543:CB:4906, V-B:GLU:543:CA:9876, V-B:GLU:543:C:9874, V-B:HIS:456:CD2:9039, H-A:HIS:456:ND1:4066"]

$$$$
4cc_Grossjean_2025
     RDKit          3D

 47 50  0  0  0  0  0  0  0  0999 V2000
  130.6890  128.3900   72.0250 C   0  0  0  0  0  0  0  0  0  0  0  0
  129.4660  128.0150   71.4010 O   0  0  0  0  0  0  0  0  0  0  0  0
  129.4930  127.4990   70.1200 C   0  0  0  0  0  0  0  0  0  0  0  0
  128.7440  126.3430   69.8990 C   0  0  0  0  0  0  0  0  0  0  0  0
  128.7090  125.7500   68.6400 C   0  0  0  0  0  0  0  0  0  0  0  0
  129.4340  126.3030   67.5820 C   0  0  0  0  0  0  0  0  0  0  0  0
  129.3250  125.6440   66.3430 N   0  0  0  0  0  0  0  0  0  0  0  0
  130.2990  125.2980   65.4680 C   0  0  0  0  0  0  0  0  0  0  0  0
  131.5000  125.4900   65.6640 O   0  0  0  0  0  0  0  0  0  0  0  0
  129.8380  124.6590   64.2320 C   0  0  0  0  0  0  0  0  0  0  0  0
  128.5680  125.4080   63.2660 S   0  0  0  0  0  0  0  0  0  0  0  0
  128.6390  124.1170   62.0900 C   0  0  0  0  0  0  0  0  0  0  0  0
  127.8490  124.1080   61.0190 N   0  0  0  0  0  0  0  0  0  0  0  0
  127.9830  123.0680   60.1570 C   0  0  0  0  0  0  0  0  0  0  0  0
  127.0770  123.0840   58.9600 C   0  0  0  0  0  0  0  0  0  0  0  0
  127.3990  122.3510   57.8060 C   0  0  0  0  0  0  0  0  0  0  0  0
  126.5650  122.3620   56.6910 C   0  0  0  0  0  0  0  0  0  0  0  0
  125.3930  123.1100   56.7140 C   0  0  0  0  0  0  0  0  0  0  0  0
  125.0520  123.8480   57.8430 C   0  0  0  0  0  0  0  0  0  0  0  0
  125.8890  123.8350   58.9550 C   0  0  0  0  0  0  0  0  0  0  0  0
  128.8970  122.0340   60.3820 C   0  0  0  0  0  0  0  0  0  0  0  0
  129.7340  122.0320   61.5100 C   0  0  0  0  0  0  0  0  0  0  0  0
  130.7160  120.8700   61.6910 C   0  0  0  0  0  0  0  0  0  0  0  0
  130.5910  120.2560   62.8710 F   0  0  0  0  0  0  0  0  0  0  0  0
  130.5140  119.9550   60.7440 F   0  0  0  0  0  0  0  0  0  0  0  0
  131.9680  121.3200   61.6070 F   0  0  0  0  0  0  0  0  0  0  0  0
  129.6080  123.1230   62.4170 C   0  0  0  0  0  0  0  0  0  0  0  0
  130.2750  123.4590   63.6510 C   0  0  0  0  0  0  0  0  0  0  0  0
  131.2540  122.6710   64.2020 N   0  0  0  0  0  0  0  0  0  0  0  0
  130.1800  127.4730   67.7930 C   0  0  0  0  0  0  0  0  0  0  0  0
  130.2110  128.0620   69.0540 C   0  0  0  0  0  0  0  0  0  0  0  0
  130.5694  128.3533   73.1179 H   0  0  0  0  0  0  0  0  0  0  0  0
  131.4847  127.6946   71.7197 H   0  0  0  0  0  0  0  0  0  0  0  0
  130.9581  129.4119   71.7197 H   0  0  0  0  0  0  0  0  0  0  0  0
  128.1755  125.8957   70.7277 H   0  0  0  0  0  0  0  0  0  0  0  0
  128.1083  124.8429   68.4779 H   0  0  0  0  0  0  0  0  0  0  0  0
  128.3850  125.3720   66.0960 H   0  0  0  0  0  0  0  0  0  0  0  0
  128.3254  121.7584   57.7826 H   0  0  0  0  0  0  0  0  0  0  0  0
  126.8322  121.7814   55.7957 H   0  0  0  0  0  0  0  0  0  0  0  0
  124.7320  123.1182   55.8348 H   0  0  0  0  0  0  0  0  0  0  0  0
  124.1246  124.4394   57.8568 H   0  0  0  0  0  0  0  0  0  0  0  0
  125.6163  124.4220   59.8444 H   0  0  0  0  0  0  0  0  0  0  0  0
  128.9618  121.2056   59.6612 H   0  0  0  0  0  0  0  0  0  0  0  0
  131.5410  121.8000   63.7770 H   0  0  0  0  0  0  0  0  0  0  0  0
  131.7220  122.9350   65.0570 H   0  0  0  0  0  0  0  0  0  0  0  0
  130.7406  127.9249   66.9614 H   0  0  0  0  0  0  0  0  0  0  0  0
  130.8025  128.9752   69.2158 H   0  0  0  0  0  0  0  0  0  0  0  0
  1  2  1  0
  2  3  1  0
  3  4  2  0
  4  5  1  0
  5  6  2  0
  6  7  1  0
  7  8  1  0
  8  9  2  0
  8 10  1  0
 10 11  1  0
 11 12  1  0
 12 13  2  0
 13 14  1  0
 14 15  1  0
 15 16  2  0
 16 17  1  0
 17 18  2  0
 18 19  1  0
 19 20  2  0
 14 21  2  0
 21 22  1  0
 22 23  1  0
 23 24  1  0
 23 25  1  0
 23 26  1  0
 22 27  2  0
 27 28  1  0
 28 29  1  0
  6 30  1  0
 30 31  2  0
 31  3  1  0
 28 10  2  0
 27 12  1  0
 20 15  1  0
  1 32  1  0
  1 33  1  0
  1 34  1  0
  4 35  1  0
  5 36  1  0
  7 37  1  0
 16 38  1  0
 17 39  1  0
 18 40  1  0
 19 41  1  0
 20 42  1  0
 21 43  1  0
 29 44  1  0
 29 45  1  0
 30 46  1  0
 31 47  1  0
M  END
>  <Binding energies>  (1) 
[-7.36]

>  <Ligand effiencies>  (1) 
[-0.21647058823529414]

>  <Interactions>  (1) 
["V-B:PRO:540:CB:9857, V-B:MET:535:CE:9807, V-B:TYR:539:CD2:9846, V-B:PRO:540:N:9856, V-A:LEU:475:CD1:4257, V-B:PRO:540:CA:9855, V-B:ALA:541:CB:9864, V-B:TYR:539:C:9839, V-B:TYR:531:CE2:9765, V-B:LEU:363:CD1:8160, H-A:TYR:484:OH:4347, V-B:PRO:540:CD:9859, V-A:GLU:543:CD:4908, V-A:GLU:543:C:4902, V-B:HIS:456:CE1:9041, V-A:TYR:484:CZ:4346, V-A:HIS:456:CE1:4069, V-A:GLY:544:C:4912, V-B:GLU:543:CB:9878, V-B:GLU:543:CG:9879, V-B:GLU:543:CD:9880, H-B:GLU:543:OE2:9882, V-A:GLU:543:CB:4906, V-B:GLU:543:CA:9876, V-B:GLU:543:C:9874, V-B:ALA:541:CA:9862, V-A:GLY:544:CA:4914"]

$$$$
4cd_Grossjean_2025
     RDKit          3D

 43 46  0  0  0  0  0  0  0  0999 V2000
  131.1440  122.6740   64.2230 N   0  0  0  0  0  0  0  0  0  0  0  0
  130.1980  123.4800   63.6420 C   0  0  0  0  0  0  0  0  0  0  0  0
  129.7860  124.7040   64.1940 C   0  0  0  0  0  0  0  0  0  0  0  0
  130.2310  125.3410   65.4380 C   0  0  0  0  0  0  0  0  0  0  0  0
  131.4300  125.4340   65.7010 O   0  0  0  0  0  0  0  0  0  0  0  0
  129.2400  125.8070   66.2370 N   0  0  0  0  0  0  0  0  0  0  0  0
  129.3220  126.4140   67.5040 C   0  0  0  0  0  0  0  0  0  0  0  0
  128.7270  125.7150   68.5580 C   0  0  0  0  0  0  0  0  0  0  0  0
  128.7660  126.2270   69.8510 C   0  0  0  0  0  0  0  0  0  0  0  0
  129.4090  127.4380   70.0950 C   0  0  0  0  0  0  0  0  0  0  0  0
  130.0180  128.1380   69.0570 C   0  0  0  0  0  0  0  0  0  0  0  0
  129.9800  127.6290   67.7610 C   0  0  0  0  0  0  0  0  0  0  0  0
  128.5680  125.4790   63.1840 S   0  0  0  0  0  0  0  0  0  0  0  0
  128.6120  124.1600   62.0390 C   0  0  0  0  0  0  0  0  0  0  0  0
  127.8410  124.1550   60.9540 N   0  0  0  0  0  0  0  0  0  0  0  0
  127.9350  123.0790   60.1300 C   0  0  0  0  0  0  0  0  0  0  0  0
  127.0510  123.1010   58.9170 C   0  0  0  0  0  0  0  0  0  0  0  0
  125.8830  123.8810   58.8920 C   0  0  0  0  0  0  0  0  0  0  0  0
  125.0600  123.9060   57.7700 C   0  0  0  0  0  0  0  0  0  0  0  0
  125.3940  123.1500   56.6520 C   0  0  0  0  0  0  0  0  0  0  0  0
  126.5460  122.3710   56.6480 C   0  0  0  0  0  0  0  0  0  0  0  0
  127.3680  122.3500   57.7710 C   0  0  0  0  0  0  0  0  0  0  0  0
  128.8150  122.0240   60.3880 C   0  0  0  0  0  0  0  0  0  0  0  0
  129.6360  122.0220   61.5280 C   0  0  0  0  0  0  0  0  0  0  0  0
  130.5760  120.8310   61.7530 C   0  0  0  0  0  0  0  0  0  0  0  0
  130.6020  120.4160   63.0210 F   0  0  0  0  0  0  0  0  0  0  0  0
  130.1850  119.8000   61.0040 F   0  0  0  0  0  0  0  0  0  0  0  0
  131.8210  121.1710   61.4190 F   0  0  0  0  0  0  0  0  0  0  0  0
  129.5370  123.1380   62.4060 C   0  0  0  0  0  0  0  0  0  0  0  0
  131.5770  121.9120   63.7200 H   0  0  0  0  0  0  0  0  0  0  0  0
  131.4430  122.8180   65.1770 H   0  0  0  0  0  0  0  0  0  0  0  0
  128.3010  125.7250   65.8760 H   0  0  0  0  0  0  0  0  0  0  0  0
  128.2254  124.7554   68.3642 H   0  0  0  0  0  0  0  0  0  0  0  0
  128.2910  125.6776   70.6771 H   0  0  0  0  0  0  0  0  0  0  0  0
  129.4359  127.8449   71.1166 H   0  0  0  0  0  0  0  0  0  0  0  0
  130.5282  129.0912   69.2600 H   0  0  0  0  0  0  0  0  0  0  0  0
  130.4644  128.1773   66.9396 H   0  0  0  0  0  0  0  0  0  0  0  0
  125.6145  124.4817   59.7735 H   0  0  0  0  0  0  0  0  0  0  0  0
  124.1485  124.5217   57.7677 H   0  0  0  0  0  0  0  0  0  0  0  0
  124.7432  123.1682   55.7654 H   0  0  0  0  0  0  0  0  0  0  0  0
  126.8064  121.7742   55.7614 H   0  0  0  0  0  0  0  0  0  0  0  0
  128.2806  121.7359   57.7620 H   0  0  0  0  0  0  0  0  0  0  0  0
  128.8656  121.1794   59.6851 H   0  0  0  0  0  0  0  0  0  0  0  0
  1  2  1  0
  2  3  2  0
  3  4  1  0
  4  5  2  0
  4  6  1  0
  6  7  1  0
  7  8  2  0
  8  9  1  0
  9 10  2  0
 10 11  1  0
 11 12  2  0
  3 13  1  0
 13 14  1  0
 14 15  2  0
 15 16  1  0
 16 17  1  0
 17 18  2  0
 18 19  1  0
 19 20  2  0
 20 21  1  0
 21 22  2  0
 16 23  2  0
 23 24  1  0
 24 25  1  0
 25 26  1  0
 25 27  1  0
 25 28  1  0
 24 29  2  0
 29  2  1  0
 12  7  1  0
 29 14  1  0
 22 17  1  0
  1 30  1  0
  1 31  1  0
  6 32  1  0
  8 33  1  0
  9 34  1  0
 10 35  1  0
 11 36  1  0
 12 37  1  0
 18 38  1  0
 19 39  1  0
 20 40  1  0
 21 41  1  0
 22 42  1  0
 23 43  1  0
M  END
>  <Binding energies>  (1) 
[-7.53]

>  <Ligand effiencies>  (1) 
[-0.2353125]

>  <Interactions>  (1) 
["V-B:PRO:540:CB:9857, V-B:MET:535:CE:9807, V-B:TYR:539:CD2:9846, V-B:PRO:540:N:9856, V-A:LEU:475:CD1:4257, V-B:PRO:540:CA:9855, V-B:ALA:541:CB:9864, V-B:TYR:539:C:9839, V-B:TYR:531:CE2:9765, V-B:LEU:363:CD1:8160, H-A:TYR:484:OH:4347, V-A:GLU:543:CD:4908, V-A:GLU:543:C:4902, V-B:HIS:456:CE1:9041, V-A:TYR:484:CZ:4346, V-A:HIS:456:CE1:4069, V-B:GLU:543:CB:9878, V-B:GLU:543:CG:9879, V-B:GLU:543:CD:9880, H-B:GLU:543:OE2:9882, V-A:GLU:543:CB:4906, V-A:LEU:475:CD2:4258, V-B:GLU:543:CA:9876, V-B:GLU:543:C:9874, V-B:ALA:541:CA:9862, V-A:LEU:475:CG:4256"]

$$$$
4ce_Grossjean_2025
     RDKit          3D

 45 48  0  0  0  0  0  0  0  0999 V2000
  128.7690  125.7750   71.2120 C   0  0  0  0  0  0  0  0  0  0  0  0
  128.9500  126.5370   69.9130 C   0  0  0  0  0  0  0  0  0  0  0  0
  129.1800  127.9150   69.9000 C   0  0  0  0  0  0  0  0  0  0  0  0
  129.3450  128.5490   68.6670 C   0  0  0  0  0  0  0  0  0  0  0  0
  129.2780  127.7990   67.4920 C   0  0  0  0  0  0  0  0  0  0  0  0
  129.0390  126.4220   67.5760 C   0  0  0  0  0  0  0  0  0  0  0  0
  129.0070  125.7170   66.3590 N   0  0  0  0  0  0  0  0  0  0  0  0
  130.0440  125.2440   65.6250 C   0  0  0  0  0  0  0  0  0  0  0  0
  131.2260  125.3610   65.9540 O   0  0  0  0  0  0  0  0  0  0  0  0
  129.6760  124.5630   64.3810 C   0  0  0  0  0  0  0  0  0  0  0  0
  128.4090  125.2240   63.3500 S   0  0  0  0  0  0  0  0  0  0  0  0
  128.6310  123.9450   62.1820 C   0  0  0  0  0  0  0  0  0  0  0  0
  127.9020  123.8860   61.0700 N   0  0  0  0  0  0  0  0  0  0  0  0
  128.1570  122.8630   60.2130 C   0  0  0  0  0  0  0  0  0  0  0  0
  127.3220  122.8290   58.9670 C   0  0  0  0  0  0  0  0  0  0  0  0
  126.1420  123.5840   58.8750 C   0  0  0  0  0  0  0  0  0  0  0  0
  125.3580  123.5520   57.7240 C   0  0  0  0  0  0  0  0  0  0  0  0
  125.7460  122.7640   56.6460 C   0  0  0  0  0  0  0  0  0  0  0  0
  126.9100  122.0060   56.7120 C   0  0  0  0  0  0  0  0  0  0  0  0
  127.6900  122.0380   57.8650 C   0  0  0  0  0  0  0  0  0  0  0  0
  129.1260  121.8920   60.4870 C   0  0  0  0  0  0  0  0  0  0  0  0
  129.8970  121.9410   61.6600 C   0  0  0  0  0  0  0  0  0  0  0  0
  130.9430  120.8470   61.8960 C   0  0  0  0  0  0  0  0  0  0  0  0
  132.1720  121.3300   62.0890 F   0  0  0  0  0  0  0  0  0  0  0  0
  130.6180  120.1390   62.9790 F   0  0  0  0  0  0  0  0  0  0  0  0
  130.9940  120.0360   60.8400 F   0  0  0  0  0  0  0  0  0  0  0  0
  129.6490  123.0190   62.5580 C   0  0  0  0  0  0  0  0  0  0  0  0
  130.2290  123.3980   63.8230 C   0  0  0  0  0  0  0  0  0  0  0  0
  131.2320  122.6820   64.4230 N   0  0  0  0  0  0  0  0  0  0  0  0
  128.8810  125.7940   68.7780 N   0  0  0  0  0  0  0  0  0  0  0  0
  128.9305  126.4549   72.0615 H   0  0  0  0  0  0  0  0  0  0  0  0
  127.7488  125.3663   71.2583 H   0  0  0  0  0  0  0  0  0  0  0  0
  129.4965  124.9512   71.2583 H   0  0  0  0  0  0  0  0  0  0  0  0
  129.2299  128.4866   70.8385 H   0  0  0  0  0  0  0  0  0  0  0  0
  129.5267  129.6330   68.6220 H   0  0  0  0  0  0  0  0  0  0  0  0
  129.4111  128.2831   66.5132 H   0  0  0  0  0  0  0  0  0  0  0  0
  128.0810  125.5090   66.0160 H   0  0  0  0  0  0  0  0  0  0  0  0
  125.8319  124.2102   59.7245 H   0  0  0  0  0  0  0  0  0  0  0  0
  124.4352  124.1480   57.6681 H   0  0  0  0  0  0  0  0  0  0  0  0
  125.1287  122.7401   55.7359 H   0  0  0  0  0  0  0  0  0  0  0  0
  127.2132  121.3838   55.8570 H   0  0  0  0  0  0  0  0  0  0  0  0
  128.6085  121.4348   57.9142 H   0  0  0  0  0  0  0  0  0  0  0  0
  129.2873  121.0739   59.7696 H   0  0  0  0  0  0  0  0  0  0  0  0
  131.5080  121.7680   64.0930 H   0  0  0  0  0  0  0  0  0  0  0  0
  131.7310  123.0460   65.2230 H   0  0  0  0  0  0  0  0  0  0  0  0
  1  2  1  0
  2  3  2  0
  3  4  1  0
  4  5  2  0
  5  6  1  0
  6  7  1  0
  7  8  1  0
  8  9  2  0
  8 10  1  0
 10 11  1  0
 11 12  1  0
 12 13  2  0
 13 14  1  0
 14 15  1  0
 15 16  2  0
 16 17  1  0
 17 18  2  0
 18 19  1  0
 19 20  2  0
 14 21  2  0
 21 22  1  0
 22 23  1  0
 23 24  1  0
 23 25  1  0
 23 26  1  0
 22 27  2  0
 27 28  1  0
 28 29  1  0
  6 30  2  0
 30  2  1  0
 28 10  2  0
 27 12  1  0
 20 15  1  0
  1 31  1  0
  1 32  1  0
  1 33  1  0
  3 34  1  0
  4 35  1  0
  5 36  1  0
  7 37  1  0
 16 38  1  0
 17 39  1  0
 18 40  1  0
 19 41  1  0
 20 42  1  0
 21 43  1  0
 29 44  1  0
 29 45  1  0
M  END
>  <Binding energies>  (1) 
[-7.25]

>  <Ligand effiencies>  (1) 
[-0.2196969696969697]

>  <Interactions>  (1) 
["V-B:PRO:540:CB:9857, V-B:MET:535:CE:9807, V-B:TYR:539:CD2:9846, V-B:PRO:540:N:9856, V-A:LEU:475:CD1:4257, V-B:PRO:540:CA:9855, V-B:ALA:541:CB:9864, V-B:TYR:539:C:9839, V-B:TYR:531:CE2:9765, V-B:LEU:363:CD1:8160, V-B:TYR:539:CA:9841, H-A:TYR:484:OH:4347, V-B:PRO:540:CD:9859, V-A:GLU:543:CD:4908, V-A:GLU:543:C:4902, V-B:HIS:456:CE1:9041, V-A:TYR:484:CZ:4346, V-A:HIS:456:CE1:4069, V-B:GLU:543:CB:9878, V-B:GLU:543:CG:9879, H-B:GLU:543:OE1:9881, V-B:GLU:543:CD:9880, H-B:GLU:543:OE2:9882, V-A:GLU:543:CA:4904, V-A:GLU:543:CB:4906, V-A:TYR:484:CE2:4345, V-A:LEU:475:CD2:4258, V-B:GLU:543:C:9874, V-B:ALA:541:CA:9862, V-A:LEU:475:CG:4256"]

$$$$
4cf_Grossjean_2025
     RDKit          3D

 42 45  0  0  0  0  0  0  0  0999 V2000
  131.2680  122.7240   64.3060 N   0  0  0  0  0  0  0  0  0  0  0  0
  130.2840  123.5050   63.7560 C   0  0  0  0  0  0  0  0  0  0  0  0
  129.8280  124.6960   64.3440 C   0  0  0  0  0  0  0  0  0  0  0  0
  130.2450  125.3090   65.6080 C   0  0  0  0  0  0  0  0  0  0  0  0
  131.4380  125.3910   65.9010 O   0  0  0  0  0  0  0  0  0  0  0  0
  129.2380  125.7710   66.3890 N   0  0  0  0  0  0  0  0  0  0  0  0
  129.2910  126.3590   67.6670 C   0  0  0  0  0  0  0  0  0  0  0  0
  128.7430  125.8100   68.8420 C   0  0  0  0  0  0  0  0  0  0  0  0
  128.8530  126.5070   70.0470 C   0  0  0  0  0  0  0  0  0  0  0  0
  129.5070  127.7390   70.0490 C   0  0  0  0  0  0  0  0  0  0  0  0
  130.0380  128.2940   68.9300 N   0  0  0  0  0  0  0  0  0  0  0  0
  129.9210  127.6040   67.7650 C   0  0  0  0  0  0  0  0  0  0  0  0
  128.5650  125.4440   63.3680 S   0  0  0  0  0  0  0  0  0  0  0  0
  128.6520  124.1570   62.1890 C   0  0  0  0  0  0  0  0  0  0  0  0
  127.8650  124.1440   61.1140 N   0  0  0  0  0  0  0  0  0  0  0  0
  127.9940  123.0930   60.2630 C   0  0  0  0  0  0  0  0  0  0  0  0
  127.0900  123.1020   59.0650 C   0  0  0  0  0  0  0  0  0  0  0  0
  127.4220  122.3780   57.9100 C   0  0  0  0  0  0  0  0  0  0  0  0
  126.5880  122.3800   56.7950 C   0  0  0  0  0  0  0  0  0  0  0  0
  125.4040  123.1090   56.8210 C   0  0  0  0  0  0  0  0  0  0  0  0
  125.0480  123.8340   57.9540 C   0  0  0  0  0  0  0  0  0  0  0  0
  125.8850  123.8280   59.0670 C   0  0  0  0  0  0  0  0  0  0  0  0
  128.9270  122.0750   60.4810 C   0  0  0  0  0  0  0  0  0  0  0  0
  129.7640  122.0810   61.6080 C   0  0  0  0  0  0  0  0  0  0  0  0
  130.7610  120.9300   61.7880 C   0  0  0  0  0  0  0  0  0  0  0  0
  130.5980  119.9510   60.8950 F   0  0  0  0  0  0  0  0  0  0  0  0
  132.0060  121.3870   61.6560 F   0  0  0  0  0  0  0  0  0  0  0  0
  130.6160  120.3920   62.9990 F   0  0  0  0  0  0  0  0  0  0  0  0
  129.6250  123.1690   62.5180 C   0  0  0  0  0  0  0  0  0  0  0  0
  131.5600  121.8550   63.8820 H   0  0  0  0  0  0  0  0  0  0  0  0
  131.7390  122.9950   65.1590 H   0  0  0  0  0  0  0  0  0  0  0  0
  128.3070  125.6900   66.0070 H   0  0  0  0  0  0  0  0  0  0  0  0
  128.2308  124.8370   68.8109 H   0  0  0  0  0  0  0  0  0  0  0  0
  128.4326  126.0931   70.9754 H   0  0  0  0  0  0  0  0  0  0  0  0
  129.5964  128.2850   70.9997 H   0  0  0  0  0  0  0  0  0  0  0  0
  130.3438  128.0477   66.8516 H   0  0  0  0  0  0  0  0  0  0  0  0
  128.3569  121.7990   57.8849 H   0  0  0  0  0  0  0  0  0  0  0  0
  126.8645  121.8074   55.8974 H   0  0  0  0  0  0  0  0  0  0  0  0
  124.7448  123.1125   55.9404 H   0  0  0  0  0  0  0  0  0  0  0  0
  124.1103  124.4089   57.9705 H   0  0  0  0  0  0  0  0  0  0  0  0
  125.5993  124.4001   59.9620 H   0  0  0  0  0  0  0  0  0  0  0  0
  129.0069  121.2527   59.7548 H   0  0  0  0  0  0  0  0  0  0  0  0
  1  2  1  0
  2  3  2  0
  3  4  1  0
  4  5  2  0
  4  6  1  0
  6  7  1  0
  7  8  2  0
  8  9  1  0
  9 10  2  0
 10 11  1  0
 11 12  2  0
  3 13  1  0
 13 14  1  0
 14 15  2  0
 15 16  1  0
 16 17  1  0
 17 18  2  0
 18 19  1  0
 19 20  2  0
 20 21  1  0
 21 22  2  0
 16 23  2  0
 23 24  1  0
 24 25  1  0
 25 26  1  0
 25 27  1  0
 25 28  1  0
 24 29  2  0
 29  2  1  0
 12  7  1  0
 29 14  1  0
 22 17  1  0
  1 30  1  0
  1 31  1  0
  6 32  1  0
  8 33  1  0
  9 34  1  0
 10 35  1  0
 12 36  1  0
 18 37  1  0
 19 38  1  0
 20 39  1  0
 21 40  1  0
 22 41  1  0
 23 42  1  0
M  END
>  <Binding energies>  (1) 
[-7.2]

>  <Ligand effiencies>  (1) 
[-0.225]

>  <Interactions>  (1) 
["V-B:PRO:540:CB:9857, V-B:MET:535:CE:9807, V-B:TYR:539:CD2:9846, V-B:PRO:540:N:9856, V-A:LEU:475:CD1:4257, V-B:PRO:540:CA:9855, V-B:ALA:541:CB:9864, V-B:TYR:539:C:9839, V-B:TYR:531:CE2:9765, V-B:LEU:363:CD1:8160, H-A:TYR:484:OH:4347, V-B:PRO:540:CD:9859, V-A:GLU:543:CD:4908, V-B:HIS:456:CE1:9041, V-A:TYR:484:CZ:4346, V-A:HIS:456:CE1:4069, V-B:GLU:543:CB:9878, V-B:GLU:543:CG:9879, V-B:GLU:543:CD:9880, H-B:GLU:543:OE2:9882, V-A:GLU:543:CB:4906, V-A:LEU:475:CD2:4258, V-B:GLU:543:CA:9876, V-B:GLU:543:C:9874, V-B:ALA:541:CA:9862, V-A:LEU:475:CG:4256"]

$$$$
4cg_Grossjean_2025
     RDKit          3D

 46 49  0  0  0  0  0  0  0  0999 V2000
  131.9310  126.0840   64.7930 N   0  0  0  0  0  0  0  0  0  0  0  0
  131.2370  124.9020   64.7640 C   0  0  0  0  0  0  0  0  0  0  0  0
  130.2080  124.5940   65.6640 C   0  0  0  0  0  0  0  0  0  0  0  0
  129.6480  125.4250   66.7290 C   0  0  0  0  0  0  0  0  0  0  0  0
  129.5660  125.0150   67.8890 O   0  0  0  0  0  0  0  0  0  0  0  0
  129.1960  126.6410   66.3550 N   0  0  0  0  0  0  0  0  0  0  0  0
  128.6200  127.6430   67.2500 C   0  0  0  0  0  0  0  0  0  0  0  0
  127.4990  128.4540   66.6110 C   0  0  0  0  0  0  0  0  0  0  0  0
  127.8080  129.5660   65.8240 C   0  0  0  0  0  0  0  0  0  0  0  0
  126.7880  130.2910   65.2130 C   0  0  0  0  0  0  0  0  0  0  0  0
  125.4640  129.8950   65.3830 C   0  0  0  0  0  0  0  0  0  0  0  0
  125.1500  128.7780   66.1540 C   0  0  0  0  0  0  0  0  0  0  0  0
  126.1690  128.0520   66.7630 C   0  0  0  0  0  0  0  0  0  0  0  0
  129.5180  123.0070   65.3330 S   0  0  0  0  0  0  0  0  0  0  0  0
  130.6280  122.7570   64.0060 C   0  0  0  0  0  0  0  0  0  0  0  0
  130.6090  121.6380   63.2870 N   0  0  0  0  0  0  0  0  0  0  0  0
  131.5050  121.5340   62.2720 C   0  0  0  0  0  0  0  0  0  0  0  0
  131.4600  120.2580   61.4800 C   0  0  0  0  0  0  0  0  0  0  0  0
  132.5410  119.8720   60.6710 C   0  0  0  0  0  0  0  0  0  0  0  0
  132.5030  118.6920   59.9350 C   0  0  0  0  0  0  0  0  0  0  0  0
  131.3770  117.8760   59.9960 C   0  0  0  0  0  0  0  0  0  0  0  0
  130.2910  118.2350   60.7860 C   0  0  0  0  0  0  0  0  0  0  0  0
  130.3340  119.4160   61.5210 C   0  0  0  0  0  0  0  0  0  0  0  0
  132.4290  122.5490   61.9960 C   0  0  0  0  0  0  0  0  0  0  0  0
  132.4580  123.7330   62.7490 C   0  0  0  0  0  0  0  0  0  0  0  0
  133.4970  124.8040   62.3940 C   0  0  0  0  0  0  0  0  0  0  0  0
  134.2810  124.4540   61.3720 F   0  0  0  0  0  0  0  0  0  0  0  0
  132.8790  125.9360   62.0550 F   0  0  0  0  0  0  0  0  0  0  0  0
  134.2860  125.0310   63.4420 F   0  0  0  0  0  0  0  0  0  0  0  0
  131.5120  123.8580   63.8070 C   0  0  0  0  0  0  0  0  0  0  0  0
  131.4630  126.9780   64.8370 H   0  0  0  0  0  0  0  0  0  0  0  0
  132.9420  126.1000   64.7800 H   0  0  0  0  0  0  0  0  0  0  0  0
  129.3630  126.9380   65.4050 H   0  0  0  0  0  0  0  0  0  0  0  0
  128.2173  127.1291   68.1353 H   0  0  0  0  0  0  0  0  0  0  0  0
  129.4240  128.3481   67.5076 H   0  0  0  0  0  0  0  0  0  0  0  0
  128.8566  129.8688   65.6870 H   0  0  0  0  0  0  0  0  0  0  0  0
  127.0271  131.1720   64.5992 H   0  0  0  0  0  0  0  0  0  0  0  0
  124.6579  130.4699   64.9037 H   0  0  0  0  0  0  0  0  0  0  0  0
  124.1013  128.4713   66.2808 H   0  0  0  0  0  0  0  0  0  0  0  0
  125.9280  127.1625   67.3635 H   0  0  0  0  0  0  0  0  0  0  0  0
  133.4330  120.5135   60.6183 H   0  0  0  0  0  0  0  0  0  0  0  0
  133.3595  118.4050   59.3073 H   0  0  0  0  0  0  0  0  0  0  0  0
  131.3463  116.9419   59.4159 H   0  0  0  0  0  0  0  0  0  0  0  0
  129.4019  117.5887   60.8300 H   0  0  0  0  0  0  0  0  0  0  0  0
  129.4724  119.6959   62.1449 H   0  0  0  0  0  0  0  0  0  0  0  0
  133.1463  122.4159   61.1728 H   0  0  0  0  0  0  0  0  0  0  0  0
  1  2  1  0
  2  3  2  0
  3  4  1  0
  4  5  2  0
  4  6  1  0
  6  7  1  0
  7  8  1  0
  8  9  2  0
  9 10  1  0
 10 11  2  0
 11 12  1  0
 12 13  2  0
  3 14  1  0
 14 15  1  0
 15 16  2  0
 16 17  1  0
 17 18  1  0
 18 19  2  0
 19 20  1  0
 20 21  2  0
 21 22  1  0
 22 23  2  0
 17 24  2  0
 24 25  1  0
 25 26  1  0
 26 27  1  0
 26 28  1  0
 26 29  1  0
 25 30  2  0
 30  2  1  0
 13  8  1  0
 30 15  1  0
 23 18  1  0
  1 31  1  0
  1 32  1  0
  6 33  1  0
  7 34  1  0
  7 35  1  0
  9 36  1  0
 10 37  1  0
 11 38  1  0
 12 39  1  0
 13 40  1  0
 19 41  1  0
 20 42  1  0
 21 43  1  0
 22 44  1  0
 23 45  1  0
 24 46  1  0
M  END
>  <Binding energies>  (1) 
[-7.8]

>  <Ligand effiencies>  (1) 
[-0.23636363636363636]

>  <Interactions>  (1) 
["V-A:ILE:369:CG2:3236, V-B:TYR:539:CD2:9846, V-A:LEU:475:CD1:4257, V-B:ALA:541:CB:9864, V-B:TYR:539:C:9839, V-A:PRO:482:CG:4326, V-A:PRO:482:CB:4325, H-A:TYR:484:OH:4347, V-A:ASP:366:CG:3212, V-A:ASP:366:CA:3209, V-A:ASP:366:CB:3211, V-B:ARG:545:CZ:9898, V-A:GLU:543:CG:4907, V-A:GLU:543:CD:4908, V-A:ILE:369:CD1:3238, V-B:HIS:456:CE1:9041, V-A:TYR:484:CZ:4346, V-B:GLU:543:CB:9878, V-B:GLU:543:CG:9879, V-B:GLU:543:CD:9880, H-B:GLU:543:OE2:9882, V-A:ARG:545:CZ:4926, V-A:TYR:484:CE2:4345, V-B:ARG:545:CG:9894, H-A:GLU:543:OE1:4909, H-A:GLU:543:OE2:4910, V-A:GLY:453:CA:4043, V-A:GLY:453:C:4041, V-B:TYR:539:CB:9843, V-A:HIS:383:CE1:3392, V-A:HIS:383:CD2:3391, V-B:ARG:545:CD:9895"]

$$$$
4ch_Grossjean_2025
     RDKit          3D

 58 61  0  0  0  0  0  0  0  0999 V2000
  131.8090  132.3320   56.3530 C   0  0  0  0  0  0  0  0  0  0  0  0
  130.4530  132.7610   56.4170 O   0  0  0  0  0  0  0  0  0  0  0  0
  129.4530  131.8220   56.5950 C   0  0  0  0  0  0  0  0  0  0  0  0
  129.0210  131.3640   57.8510 C   0  0  0  0  0  0  0  0  0  0  0  0
  128.0040  130.4140   57.9550 C   0  0  0  0  0  0  0  0  0  0  0  0
  127.5680  129.9090   59.3260 C   0  0  0  0  0  0  0  0  0  0  0  0
  128.2780  128.7120   59.7780 N   0  0  0  0  0  0  0  0  0  0  0  0
  129.6120  128.5210   59.7170 C   0  0  0  0  0  0  0  0  0  0  0  0
  130.3850  129.3780   59.2830 O   0  0  0  0  0  0  0  0  0  0  0  0
  130.1010  127.2420   60.2320 C   0  0  0  0  0  0  0  0  0  0  0  0
  130.2080  125.8440   59.1670 S   0  0  0  0  0  0  0  0  0  0  0  0
  130.8510  124.8560   60.4560 C   0  0  0  0  0  0  0  0  0  0  0  0
  131.1580  123.5760   60.2630 N   0  0  0  0  0  0  0  0  0  0  0  0
  131.6580  122.8890   61.3230 C   0  0  0  0  0  0  0  0  0  0  0  0
  131.9880  121.4450   61.0740 C   0  0  0  0  0  0  0  0  0  0  0  0
  130.9750  120.5130   60.7960 C   0  0  0  0  0  0  0  0  0  0  0  0
  131.2740  119.1730   60.5650 C   0  0  0  0  0  0  0  0  0  0  0  0
  132.5960  118.7440   60.6090 C   0  0  0  0  0  0  0  0  0  0  0  0
  133.6190  119.6450   60.8860 C   0  0  0  0  0  0  0  0  0  0  0  0
  133.3150  120.9830   61.1180 C   0  0  0  0  0  0  0  0  0  0  0  0
  131.8310  123.4870   62.5750 C   0  0  0  0  0  0  0  0  0  0  0  0
  131.5090  124.8370   62.7910 C   0  0  0  0  0  0  0  0  0  0  0  0
  131.7230  125.4280   64.1880 C   0  0  0  0  0  0  0  0  0  0  0  0
  130.6200  125.4070   64.9410 F   0  0  0  0  0  0  0  0  0  0  0  0
  132.6590  124.7350   64.8340 F   0  0  0  0  0  0  0  0  0  0  0  0
  132.1100  126.7000   64.0850 F   0  0  0  0  0  0  0  0  0  0  0  0
  130.9960  125.5690   61.6830 C   0  0  0  0  0  0  0  0  0  0  0  0
  130.5690  126.9380   61.5200 C   0  0  0  0  0  0  0  0  0  0  0  0
  130.6080  127.8550   62.5390 N   0  0  0  0  0  0  0  0  0  0  0  0
  127.4200  129.9010   56.7970 C   0  0  0  0  0  0  0  0  0  0  0  0
  127.8330  130.3390   55.5280 C   0  0  0  0  0  0  0  0  0  0  0  0
  127.2990  129.8750   54.3400 O   0  0  0  0  0  0  0  0  0  0  0  0
  127.9000  128.7590   53.6910 C   0  0  0  0  0  0  0  0  0  0  0  0
  128.8470  131.3050   55.4410 C   0  0  0  0  0  0  0  0  0  0  0  0
  129.2710  131.7310   54.2060 O   0  0  0  0  0  0  0  0  0  0  0  0
  130.2770  130.9120   53.6250 C   0  0  0  0  0  0  0  0  0  0  0  0
  132.2027  132.2075   57.3726 H   0  0  0  0  0  0  0  0  0  0  0  0
  131.8651  131.3722   55.8185 H   0  0  0  0  0  0  0  0  0  0  0  0
  132.4069  133.0849   55.8185 H   0  0  0  0  0  0  0  0  0  0  0  0
  129.4903  131.7592   58.7640 H   0  0  0  0  0  0  0  0  0  0  0  0
  127.7407  130.7102   60.0597 H   0  0  0  0  0  0  0  0  0  0  0  0
  126.5068  129.6329   59.2383 H   0  0  0  0  0  0  0  0  0  0  0  0
  127.7000  127.9470   60.0950 H   0  0  0  0  0  0  0  0  0  0  0  0
  129.9276  120.8473   60.7601 H   0  0  0  0  0  0  0  0  0  0  0  0
  130.4678  118.4566   60.3486 H   0  0  0  0  0  0  0  0  0  0  0  0
  132.8342  117.6862   60.4237 H   0  0  0  0  0  0  0  0  0  0  0  0
  134.6634  119.3014   60.9215 H   0  0  0  0  0  0  0  0  0  0  0  0
  134.1269  121.6913   61.3396 H   0  0  0  0  0  0  0  0  0  0  0  0
  132.2274  122.8878   63.4080 H   0  0  0  0  0  0  0  0  0  0  0  0
  131.0050  128.7760   62.4140 H   0  0  0  0  0  0  0  0  0  0  0  0
  130.2350  127.6410   63.4530 H   0  0  0  0  0  0  0  0  0  0  0  0
  126.6261  129.1440   56.8785 H   0  0  0  0  0  0  0  0  0  0  0  0
  128.2789  128.0555   54.4470 H   0  0  0  0  0  0  0  0  0  0  0  0
  127.1519  128.2539   53.0623 H   0  0  0  0  0  0  0  0  0  0  0  0
  128.7335  129.1056   53.0623 H   0  0  0  0  0  0  0  0  0  0  0  0
  130.8653  130.4331   54.4216 H   0  0  0  0  0  0  0  0  0  0  0  0
  129.8051  130.1380   53.0019 H   0  0  0  0  0  0  0  0  0  0  0  0
  130.9392  131.5311   53.0019 H   0  0  0  0  0  0  0  0  0  0  0  0
  1  2  1  0
  2  3  1  0
  3  4  2  0
  4  5  1  0
  5  6  1  0
  6  7  1  0
  7  8  1  0
  8  9  2  0
  8 10  1  0
 10 11  1  0
 11 12  1  0
 12 13  2  0
 13 14  1  0
 14 15  1  0
 15 16  2  0
 16 17  1  0
 17 18  2  0
 18 19  1  0
 19 20  2  0
 14 21  2  0
 21 22  1  0
 22 23  1  0
 23 24  1  0
 23 25  1  0
 23 26  1  0
 22 27  2  0
 27 28  1  0
 28 29  1  0
  5 30  2  0
 30 31  1  0
 31 32  1  0
 32 33  1  0
 31 34  2  0
 34 35  1  0
 35 36  1  0
 34  3  1  0
 28 10  2  0
 27 12  1  0
 20 15  1  0
  1 37  1  0
  1 38  1  0
  1 39  1  0
  4 40  1  0
  6 41  1  0
  6 42  1  0
  7 43  1  0
 16 44  1  0
 17 45  1  0
 18 46  1  0
 19 47  1  0
 20 48  1  0
 21 49  1  0
 29 50  1  0
 29 51  1  0
 30 52  1  0
 33 53  1  0
 33 54  1  0
 33 55  1  0
 36 56  1  0
 36 57  1  0
 36 58  1  0
M  END
>  <Binding energies>  (1) 
[-7.62]

>  <Ligand effiencies>  (1) 
[-0.19538461538461538]

>  <Interactions>  (1) 
["H-B:TYR:531:OH:9767, V-A:ILE:369:CG2:3236, V-B:TYR:539:CD2:9846, V-A:LEU:475:CD1:4257, V-B:TYR:531:CZ:9766, V-A:PRO:540:N:4884, V-A:MET:535:CB:4832, V-A:ILE:538:CG2:4863, V-A:TYR:539:CD1:4873, V-A:PRO:540:CA:4883, H-A:TYR:539:N:4870, V-A:TYR:539:CZ:4877, V-A:PRO:540:CB:4885, V-A:TYR:539:CE1:4875, V-A:TYR:531:CZ:4794, V-A:ILE:538:CB:4862, V-A:MET:535:CG:4833, V-B:TYR:531:CE1:9764, H-B:LYS:534:NZ:9795, V-A:PRO:540:CD:4887, V-A:LEU:363:CD1:3188, V-A:GLU:543:CD:4908, H-A:ASP:366:OD2:3214, V-A:SER:385:CA:3406, H-A:TYR:539:OH:4878, V-A:SER:385:C:3404, V-A:ARG:545:CZ:4926, V-B:LYS:534:CE:9794, V-A:TYR:531:CE2:4793, V-B:LYS:534:CD:9793, H-A:GLU:543:OE1:4909, H-A:GLU:543:OE2:4910"]

$$$$
4ci_Grossjean_2025
     RDKit          3D

 39 42  0  0  0  0  0  0  0  0999 V2000
  132.2430  123.5000   58.3420 N   0  0  0  0  0  0  0  0  0  0  0  0
  131.4350  123.9250   59.3650 C   0  0  0  0  0  0  0  0  0  0  0  0
  130.0470  124.0940   59.2300 C   0  0  0  0  0  0  0  0  0  0  0  0
  129.2090  123.8570   58.0510 C   0  0  0  0  0  0  0  0  0  0  0  0
  129.5020  124.3540   56.9610 O   0  0  0  0  0  0  0  0  0  0  0  0
  128.1160  123.0820   58.2580 N   0  0  0  0  0  0  0  0  0  0  0  0
  127.1580  122.7040   57.3260 C   0  0  0  0  0  0  0  0  0  0  0  0
  126.0250  123.4670   57.0450 C   0  0  0  0  0  0  0  0  0  0  0  0
  125.3440  122.7570   56.0840 C   0  0  0  0  0  0  0  0  0  0  0  0
  126.0310  121.6240   55.8000 O   0  0  0  0  0  0  0  0  0  0  0  0
  127.1790  121.6020   56.5940 N   0  0  0  0  0  0  0  0  0  0  0  0
  129.3220  124.6390   60.7390 S   0  0  0  0  0  0  0  0  0  0  0  0
  130.8780  124.6470   61.5370 C   0  0  0  0  0  0  0  0  0  0  0  0
  131.0040  125.0020   62.8130 N   0  0  0  0  0  0  0  0  0  0  0  0
  132.2520  124.9740   63.3470 C   0  0  0  0  0  0  0  0  0  0  0  0
  132.3620  125.3850   64.7880 C   0  0  0  0  0  0  0  0  0  0  0  0
  133.6020  125.3700   65.4480 C   0  0  0  0  0  0  0  0  0  0  0  0
  133.7110  125.7500   66.7830 C   0  0  0  0  0  0  0  0  0  0  0  0
  132.5760  126.1520   67.4810 C   0  0  0  0  0  0  0  0  0  0  0  0
  131.3360  126.1710   66.8540 C   0  0  0  0  0  0  0  0  0  0  0  0
  131.2310  125.7890   65.5190 C   0  0  0  0  0  0  0  0  0  0  0  0
  133.3700  124.6060   62.5910 C   0  0  0  0  0  0  0  0  0  0  0  0
  133.2490  124.2290   61.2440 C   0  0  0  0  0  0  0  0  0  0  0  0
  134.5160  123.8370   60.4750 C   0  0  0  0  0  0  0  0  0  0  0  0
  134.7140  122.5180   60.4290 F   0  0  0  0  0  0  0  0  0  0  0  0
  134.4310  124.2720   59.2180 F   0  0  0  0  0  0  0  0  0  0  0  0
  135.5840  124.3820   61.0580 F   0  0  0  0  0  0  0  0  0  0  0  0
  131.9420  124.2430   60.6780 C   0  0  0  0  0  0  0  0  0  0  0  0
  131.9840  123.6140   57.3720 H   0  0  0  0  0  0  0  0  0  0  0  0
  133.1360  123.0620   58.5260 H   0  0  0  0  0  0  0  0  0  0  0  0
  127.9690  122.7350   59.1940 H   0  0  0  0  0  0  0  0  0  0  0  0
  125.7380  124.4289   57.4948 H   0  0  0  0  0  0  0  0  0  0  0  0
  124.3938  123.0603   55.6202 H   0  0  0  0  0  0  0  0  0  0  0  0
  134.5020  125.0527   64.9009 H   0  0  0  0  0  0  0  0  0  0  0  0
  134.6901  125.7326   67.2840 H   0  0  0  0  0  0  0  0  0  0  0  0
  132.6610  126.4563   68.5346 H   0  0  0  0  0  0  0  0  0  0  0  0
  130.4409  126.4866   67.4101 H   0  0  0  0  0  0  0  0  0  0  0  0
  130.2467  125.8036   65.0282 H   0  0  0  0  0  0  0  0  0  0  0  0
  134.3643  124.6121   63.0615 H   0  0  0  0  0  0  0  0  0  0  0  0
  1  2  1  0
  2  3  2  0
  3  4  1  0
  4  5  2  0
  4  6  1  0
  6  7  1  0
  7  8  1  0
  8  9  2  0
  9 10  1  0
 10 11  1  0
  3 12  1  0
 12 13  1  0
 13 14  2  0
 14 15  1  0
 15 16  1  0
 16 17  2  0
 17 18  1  0
 18 19  2  0
 19 20  1  0
 20 21  2  0
 15 22  2  0
 22 23  1  0
 23 24  1  0
 24 25  1  0
 24 26  1  0
 24 27  1  0
 23 28  2  0
 28  2  1  0
 11  7  2  0
 28 13  1  0
 21 16  1  0
  1 29  1  0
  1 30  1  0
  6 31  1  0
  8 32  1  0
  9 33  1  0
 17 34  1  0
 18 35  1  0
 19 36  1  0
 20 37  1  0
 21 38  1  0
 22 39  1  0
M  END
>  <Binding energies>  (1) 
[-7.55]

>  <Ligand effiencies>  (1) 
[-0.24354838709677418]

>  <Interactions>  (1) 
["V-B:MET:535:CE:9807, V-A:ILE:369:CG2:3236, V-B:PRO:540:N:9856, V-B:PRO:540:CA:9855, H-B:TYR:539:N:9842, V-B:TYR:539:CE2:9848, V-B:MET:535:CG:9805, V-B:TYR:539:C:9839, V-B:TYR:531:CE2:9765, V-B:LEU:363:CD1:8160, V-A:ASP:366:CG:3212, V-A:ASP:366:CA:3209, V-A:ASP:366:CB:3211, V-A:ASP:366:C:3207, H-B:TYR:539:OH:9850, V-A:ILE:369:CD1:3238, V-B:TYR:539:CZ:9849, H-B:TYR:539:O:9840, V-A:ILE:369:CB:3235, V-A:TYR:484:CZ:4346, V-A:HIS:456:CE1:4069, V-A:ARG:545:CD:4923, V-A:ARG:545:CG:4922, V-A:ARG:545:CZ:4926, V-A:GLY:453:CA:4043, V-A:ILE:369:CG1:3237, V-A:CYS:365:C:3203"]

$$$$
4cj_Grossjean_2025
     RDKit          3D

 39 42  0  0  0  0  0  0  0  0999 V2000
  131.2390  122.7380   64.1300 N   0  0  0  0  0  0  0  0  0  0  0  0
  130.2420  123.5030   63.5800 C   0  0  0  0  0  0  0  0  0  0  0  0
  129.7870  124.7010   64.1550 C   0  0  0  0  0  0  0  0  0  0  0  0
  130.2470  125.3590   65.3810 C   0  0  0  0  0  0  0  0  0  0  0  0
  131.4340  125.3150   65.7130 O   0  0  0  0  0  0  0  0  0  0  0  0
  129.2850  125.9910   66.0990 N   0  0  0  0  0  0  0  0  0  0  0  0
  129.4550  126.6860   67.2880 C   0  0  0  0  0  0  0  0  0  0  0  0
  130.4460  127.4840   67.6230 N   0  0  0  0  0  0  0  0  0  0  0  0
  130.2820  127.9800   68.8330 C   0  0  0  0  0  0  0  0  0  0  0  0
  129.1320  127.5840   69.5100 C   0  0  0  0  0  0  0  0  0  0  0  0
  128.2230  126.5030   68.4960 S   0  0  0  0  0  0  0  0  0  0  0  0
  128.5110  125.4300   63.1820 S   0  0  0  0  0  0  0  0  0  0  0  0
  128.5960  124.1290   62.0180 C   0  0  0  0  0  0  0  0  0  0  0  0
  127.8100  124.1060   60.9440 N   0  0  0  0  0  0  0  0  0  0  0  0
  127.9520  123.0590   60.0910 C   0  0  0  0  0  0  0  0  0  0  0  0
  127.0590  123.0710   58.8840 C   0  0  0  0  0  0  0  0  0  0  0  0
  125.8990  123.8610   58.8560 C   0  0  0  0  0  0  0  0  0  0  0  0
  125.0630  123.8720   57.7410 C   0  0  0  0  0  0  0  0  0  0  0  0
  125.3770  123.0870   56.6360 C   0  0  0  0  0  0  0  0  0  0  0  0
  126.5180  122.2940   56.6390 C   0  0  0  0  0  0  0  0  0  0  0  0
  127.3510  122.2870   57.7540 C   0  0  0  0  0  0  0  0  0  0  0  0
  128.8660  122.0280   60.3330 C   0  0  0  0  0  0  0  0  0  0  0  0
  129.6980  122.0410   61.4640 C   0  0  0  0  0  0  0  0  0  0  0  0
  130.6800  120.8800   61.6660 C   0  0  0  0  0  0  0  0  0  0  0  0
  130.5750  120.3090   62.8670 F   0  0  0  0  0  0  0  0  0  0  0  0
  130.4530  119.9360   60.7530 F   0  0  0  0  0  0  0  0  0  0  0  0
  131.9320  121.3210   61.5410 F   0  0  0  0  0  0  0  0  0  0  0  0
  129.5710  123.1440   62.3550 C   0  0  0  0  0  0  0  0  0  0  0  0
  131.5180  121.8530   63.7280 H   0  0  0  0  0  0  0  0  0  0  0  0
  131.7340  123.0370   64.9590 H   0  0  0  0  0  0  0  0  0  0  0  0
  128.3410  125.9500   65.7450 H   0  0  0  0  0  0  0  0  0  0  0  0
  131.0128  128.6682   69.2827 H   0  0  0  0  0  0  0  0  0  0  0  0
  128.8448  127.9033   70.5227 H   0  0  0  0  0  0  0  0  0  0  0  0
  125.6457  124.4815   59.7283 H   0  0  0  0  0  0  0  0  0  0  0  0
  124.1589  124.4985   57.7346 H   0  0  0  0  0  0  0  0  0  0  0  0
  124.7183  123.0942   55.7551 H   0  0  0  0  0  0  0  0  0  0  0  0
  126.7620  121.6742   55.7636 H   0  0  0  0  0  0  0  0  0  0  0  0
  128.2530  121.6575   57.7511 H   0  0  0  0  0  0  0  0  0  0  0  0
  128.9343  121.1905   59.6232 H   0  0  0  0  0  0  0  0  0  0  0  0
  1  2  1  0
  2  3  2  0
  3  4  1  0
  4  5  2  0
  4  6  1  0
  6  7  1  0
  7  8  2  0
  8  9  1  0
  9 10  2  0
 10 11  1  0
  3 12  1  0
 12 13  1  0
 13 14  2  0
 14 15  1  0
 15 16  1  0
 16 17  2  0
 17 18  1  0
 18 19  2  0
 19 20  1  0
 20 21  2  0
 15 22  2  0
 22 23  1  0
 23 24  1  0
 24 25  1  0
 24 26  1  0
 24 27  1  0
 23 28  2  0
 28  2  1  0
 11  7  1  0
 28 13  1  0
 21 16  1  0
  1 29  1  0
  1 30  1  0
  6 31  1  0
  9 32  1  0
 10 33  1  0
 17 34  1  0
 18 35  1  0
 19 36  1  0
 20 37  1  0
 21 38  1  0
 22 39  1  0
M  END
>  <Binding energies>  (1) 
[-6.85]

>  <Ligand effiencies>  (1) 
[-0.22096774193548385]

>  <Interactions>  (1) 
["V-B:PRO:540:CB:9857, V-B:MET:535:CE:9807, V-B:TYR:539:CD2:9846, V-B:PRO:540:N:9856, V-A:LEU:475:CD1:4257, V-B:PRO:540:CA:9855, V-B:ALA:541:CB:9864, V-B:TYR:539:C:9839, V-B:TYR:531:CE2:9765, V-B:LEU:363:CD1:8160, H-A:TYR:484:OH:4347, V-B:PRO:540:CD:9859, V-A:GLU:543:C:4902, V-B:HIS:456:CE1:9041, V-A:TYR:484:CZ:4346, V-A:HIS:456:CE1:4069, V-B:GLU:543:CB:9878, V-B:GLU:543:CG:9879, V-B:GLU:543:CD:9880, H-B:GLU:543:OE2:9882, V-A:GLU:543:CB:4906, H-A:GLU:543:OE1:4909, V-B:ALA:541:CA:9862"]

$$$$
4ck_Grossjean_2025
     RDKit          3D

 57 59  0  0  0  0  0  0  0  0999 V2000
  132.1850  129.4840   57.3850 C   0  0  0  0  0  0  0  0  0  0  0  0
  130.7730  129.5530   57.2600 O   0  0  0  0  0  0  0  0  0  0  0  0
  130.2320  130.8090   57.6450 C   0  0  0  0  0  0  0  0  0  0  0  0
  130.9350  131.9200   56.8550 C   0  0  0  0  0  0  0  0  0  0  0  0
  129.9800  132.5860   56.0410 O   0  0  0  0  0  0  0  0  0  0  0  0
  129.7360  131.9330   54.8020 C   0  0  0  0  0  0  0  0  0  0  0  0
  128.2660  131.4960   54.7450 C   0  0  0  0  0  0  0  0  0  0  0  0
  128.2150  130.0910   54.5380 O   0  0  0  0  0  0  0  0  0  0  0  0
  129.4920  129.4860   54.3810 C   0  0  0  0  0  0  0  0  0  0  0  0
  129.3590  127.9610   54.5090 C   0  0  0  0  0  0  0  0  0  0  0  0
  129.8480  127.4720   55.7980 N   0  0  0  0  0  0  0  0  0  0  0  0
  130.8160  126.5490   55.9770 C   0  0  0  0  0  0  0  0  0  0  0  0
  131.4230  126.0300   55.0380 O   0  0  0  0  0  0  0  0  0  0  0  0
  131.1190  126.2010   57.3660 C   0  0  0  0  0  0  0  0  0  0  0  0
  130.2010  126.9320   58.6800 S   0  0  0  0  0  0  0  0  0  0  0  0
  131.0850  126.0060   59.8690 C   0  0  0  0  0  0  0  0  0  0  0  0
  130.8310  126.1220   61.1700 N   0  0  0  0  0  0  0  0  0  0  0  0
  131.5700  125.3620   62.0200 C   0  0  0  0  0  0  0  0  0  0  0  0
  131.2460  125.5030   63.4790 C   0  0  0  0  0  0  0  0  0  0  0  0
  132.2670  125.6520   64.4320 C   0  0  0  0  0  0  0  0  0  0  0  0
  131.9730  125.7810   65.7870 C   0  0  0  0  0  0  0  0  0  0  0  0
  130.6480  125.7630   66.2100 C   0  0  0  0  0  0  0  0  0  0  0  0
  129.6170  125.6220   65.2880 C   0  0  0  0  0  0  0  0  0  0  0  0
  129.9150  125.4950   63.9330 C   0  0  0  0  0  0  0  0  0  0  0  0
  132.5550  124.4830   61.5580 C   0  0  0  0  0  0  0  0  0  0  0  0
  132.8320  124.3530   60.1880 C   0  0  0  0  0  0  0  0  0  0  0  0
  133.9280  123.3730   59.7510 C   0  0  0  0  0  0  0  0  0  0  0  0
  134.7770  123.8970   58.8660 F   0  0  0  0  0  0  0  0  0  0  0  0
  134.6410  122.9920   60.8110 F   0  0  0  0  0  0  0  0  0  0  0  0
  133.3730  122.3010   59.1860 F   0  0  0  0  0  0  0  0  0  0  0  0
  132.0650  125.1470   59.2890 C   0  0  0  0  0  0  0  0  0  0  0  0
  132.0550  125.2750   57.8510 C   0  0  0  0  0  0  0  0  0  0  0  0
  132.8920  124.5570   57.0360 N   0  0  0  0  0  0  0  0  0  0  0  0
  132.4586  129.4706   58.4504 H   0  0  0  0  0  0  0  0  0  0  0  0
  132.5516  128.5669   56.9008 H   0  0  0  0  0  0  0  0  0  0  0  0
  132.6393  130.3610   56.9008 H   0  0  0  0  0  0  0  0  0  0  0  0
  129.1538  130.8280   57.4280 H   0  0  0  0  0  0  0  0  0  0  0  0
  130.3866  130.9651   58.7228 H   0  0  0  0  0  0  0  0  0  0  0  0
  131.3888  132.6384   57.5536 H   0  0  0  0  0  0  0  0  0  0  0  0
  131.7222  131.4842   56.2223 H   0  0  0  0  0  0  0  0  0  0  0  0
  129.9469  132.6249   53.9733 H   0  0  0  0  0  0  0  0  0  0  0  0
  130.3881  131.0516   54.7132 H   0  0  0  0  0  0  0  0  0  0  0  0
  127.7679  131.7486   55.6927 H   0  0  0  0  0  0  0  0  0  0  0  0
  127.7530  132.0146   53.9216 H   0  0  0  0  0  0  0  0  0  0  0  0
  129.8962  129.7362   53.3890 H   0  0  0  0  0  0  0  0  0  0  0  0
  130.1718  129.8601   55.1607 H   0  0  0  0  0  0  0  0  0  0  0  0
  128.2986  127.6875   54.4051 H   0  0  0  0  0  0  0  0  0  0  0  0
  129.9695  127.5003   53.7184 H   0  0  0  0  0  0  0  0  0  0  0  0
  129.4600  127.9170   56.6160 H   0  0  0  0  0  0  0  0  0  0  0  0
  133.3164  125.6670   64.1025 H   0  0  0  0  0  0  0  0  0  0  0  0
  132.7852  125.8967   66.5198 H   0  0  0  0  0  0  0  0  0  0  0  0
  130.4145  125.8609   67.2805 H   0  0  0  0  0  0  0  0  0  0  0  0
  128.5706  125.6108   65.6269 H   0  0  0  0  0  0  0  0  0  0  0  0
  129.0961  125.3867   63.2066 H   0  0  0  0  0  0  0  0  0  0  0  0
  133.1238  123.8817   62.2825 H   0  0  0  0  0  0  0  0  0  0  0  0
  133.8000  124.2410   57.3440 H   0  0  0  0  0  0  0  0  0  0  0  0
  132.6230  124.3140   56.0910 H   0  0  0  0  0  0  0  0  0  0  0  0
  1  2  1  0
  2  3  1  0
  3  4  1  0
  4  5  1  0
  5  6  1  0
  6  7  1  0
  7  8  1  0
  8  9  1  0
  9 10  1  0
 10 11  1  0
 11 12  1  0
 12 13  2  0
 12 14  1  0
 14 15  1  0
 15 16  1  0
 16 17  2  0
 17 18  1  0
 18 19  1  0
 19 20  2  0
 20 21  1  0
 21 22  2  0
 22 23  1  0
 23 24  2  0
 18 25  2  0
 25 26  1  0
 26 27  1  0
 27 28  1  0
 27 29  1  0
 27 30  1  0
 26 31  2  0
 31 32  1  0
 32 33  1  0
 32 14  2  0
 31 16  1  0
 24 19  1  0
  1 34  1  0
  1 35  1  0
  1 36  1  0
  3 37  1  0
  3 38  1  0
  4 39  1  0
  4 40  1  0
  6 41  1  0
  6 42  1  0
  7 43  1  0
  7 44  1  0
  9 45  1  0
  9 46  1  0
 10 47  1  0
 10 48  1  0
 11 49  1  0
 20 50  1  0
 21 51  1  0
 22 52  1  0
 23 53  1  0
 24 54  1  0
 25 55  1  0
 33 56  1  0
 33 57  1  0
M  END
>  <Binding energies>  (1) 
[-6.27]

>  <Ligand effiencies>  (1) 
[-0.17416666666666666]

>  <Interactions>  (1) 
["V-A:ILE:369:CG2:3236, V-B:TYR:539:CE2:9848, V-A:ASP:366:CG:3212, V-A:PRO:540:N:4884, V-A:ILE:538:CA:4860, V-A:ASP:366:CA:3209, V-A:ASP:366:CB:3211, V-A:ILE:538:CG2:4863, V-A:ASP:366:C:3207, H-B:TYR:539:OH:9850, V-A:TYR:539:CE2:4876, V-A:PRO:540:CA:4883, H-A:TYR:531:OH:4795, H-A:TYR:539:N:4870, V-A:TYR:539:CZ:4877, V-A:TYR:539:CE1:4875, V-A:ILE:538:CB:4862, H-B:LYS:534:NZ:9795, V-A:PRO:540:CD:4887, V-A:TYR:539:C:4867, V-A:ILE:369:CD1:3238, V-B:TYR:539:CZ:9849, V-A:ILE:369:CB:3235, V-B:GLU:543:CG:9879, V-B:GLU:543:CD:9880, V-A:ARG:545:CZ:4926, V-A:ILE:369:CG1:3237, H-A:ASP:366:O:3208"]

$$$$
4dd_Grossjean_2025
     RDKit          3D

 43 46  0  0  0  0  0  0  0  0999 V2000
  130.3290  120.8080   61.9720 C   0  0  0  0  0  0  0  0  0  0  0  0
  129.4540  122.0220   61.6990 C   0  0  0  0  0  0  0  0  0  0  0  0
  128.6620  122.0200   60.5440 C   0  0  0  0  0  0  0  0  0  0  0  0
  127.8350  123.1070   60.2360 C   0  0  0  0  0  0  0  0  0  0  0  0
  126.9810  123.1340   59.0030 C   0  0  0  0  0  0  0  0  0  0  0  0
  127.3240  122.3730   57.8730 C   0  0  0  0  0  0  0  0  0  0  0  0
  126.5340  122.3910   56.7260 C   0  0  0  0  0  0  0  0  0  0  0  0
  125.3870  123.1760   56.6920 C   0  0  0  0  0  0  0  0  0  0  0  0
  125.0220  123.9380   57.7960 C   0  0  0  0  0  0  0  0  0  0  0  0
  125.8140  123.9150   58.9420 C   0  0  0  0  0  0  0  0  0  0  0  0
  127.7710  124.2100   61.0310 N   0  0  0  0  0  0  0  0  0  0  0  0
  128.5190  124.2100   62.1340 C   0  0  0  0  0  0  0  0  0  0  0  0
  128.5190  125.5540   63.2540 S   0  0  0  0  0  0  0  0  0  0  0  0
  129.6820  124.7400   64.3030 C   0  0  0  0  0  0  0  0  0  0  0  0
  130.1360  125.3780   65.5410 C   0  0  0  0  0  0  0  0  0  0  0  0
  131.3380  125.4650   65.7980 O   0  0  0  0  0  0  0  0  0  0  0  0
  129.1530  125.8520   66.3450 N   0  0  0  0  0  0  0  0  0  0  0  0
  129.2450  126.4610   67.6090 C   0  0  0  0  0  0  0  0  0  0  0  0
  128.6850  125.7470   68.6730 C   0  0  0  0  0  0  0  0  0  0  0  0
  128.7370  126.2580   69.9670 C   0  0  0  0  0  0  0  0  0  0  0  0
  129.3580  127.4830   70.2000 C   0  0  0  0  0  0  0  0  0  0  0  0
  129.9300  128.1980   69.1520 C   0  0  0  0  0  0  0  0  0  0  0  0
  129.8790  127.6900   67.8570 C   0  0  0  0  0  0  0  0  0  0  0  0
  130.0420  123.4870   63.7830 C   0  0  0  0  0  0  0  0  0  0  0  0
  130.9340  122.6370   64.3880 N   0  0  0  0  0  0  0  0  0  0  0  0
  129.3870  123.1600   62.5440 C   0  0  0  0  0  0  0  0  0  0  0  0
  130.4311  120.6664   63.0581 H   0  0  0  0  0  0  0  0  0  0  0  0
  129.8657  119.9147   61.5277 H   0  0  0  0  0  0  0  0  0  0  0  0
  131.3229  120.9650   61.5277 H   0  0  0  0  0  0  0  0  0  0  0  0
  128.6901  121.1519   59.8690 H   0  0  0  0  0  0  0  0  0  0  0  0
  128.2319  121.7524   57.8944 H   0  0  0  0  0  0  0  0  0  0  0  0
  126.8163  121.7869   55.8511 H   0  0  0  0  0  0  0  0  0  0  0  0
  124.7642  123.1943   55.7855 H   0  0  0  0  0  0  0  0  0  0  0  0
  124.1125  124.5559   57.7649 H   0  0  0  0  0  0  0  0  0  0  0  0
  125.5210  124.5183   59.8139 H   0  0  0  0  0  0  0  0  0  0  0  0
  128.2120  125.7740   65.9880 H   0  0  0  0  0  0  0  0  0  0  0  0
  128.2011  124.7769   68.4867 H   0  0  0  0  0  0  0  0  0  0  0  0
  128.2900  125.6973   70.8012 H   0  0  0  0  0  0  0  0  0  0  0  0
  129.3966  127.8889   71.2217 H   0  0  0  0  0  0  0  0  0  0  0  0
  130.4215  129.1627   69.3466 H   0  0  0  0  0  0  0  0  0  0  0  0
  130.3351  128.2508   67.0278 H   0  0  0  0  0  0  0  0  0  0  0  0
  131.4170  122.8870   65.2390 H   0  0  0  0  0  0  0  0  0  0  0  0
  131.1340  121.7260   64.0000 H   0  0  0  0  0  0  0  0  0  0  0  0
  1  2  1  0
  2  3  2  0
  3  4  1  0
  4  5  1  0
  5  6  2  0
  6  7  1  0
  7  8  2  0
  8  9  1  0
  9 10  2  0
  4 11  2  0
 11 12  1  0
 12 13  1  0
 13 14  1  0
 14 15  1  0
 15 16  2  0
 15 17  1  0
 17 18  1  0
 18 19  2  0
 19 20  1  0
 20 21  2  0
 21 22  1  0
 22 23  2  0
 14 24  2  0
 24 25  1  0
 24 26  1  0
 26  2  1  0
 10  5  1  0
 26 12  2  0
 23 18  1  0
  1 27  1  0
  1 28  1  0
  1 29  1  0
  3 30  1  0
  6 31  1  0
  7 32  1  0
  8 33  1  0
  9 34  1  0
 10 35  1  0
 17 36  1  0
 19 37  1  0
 20 38  1  0
 21 39  1  0
 22 40  1  0
 23 41  1  0
 25 42  1  0
 25 43  1  0
M  END
>  <Binding energies>  (1) 
[-7.92]

>  <Ligand effiencies>  (1) 
[-0.2731034482758621]

>  <Interactions>  (1) 
["V-B:PRO:540:CB:9857, V-B:MET:535:CE:9807, V-B:PRO:540:N:9856, V-A:LEU:475:CD1:4257, V-B:PRO:540:CA:9855, V-B:PRO:540:C:9853, V-B:ALA:541:CB:9864, V-B:TYR:539:C:9839, V-B:TYR:531:CE2:9765, V-B:LEU:363:CD1:8160, H-A:TYR:484:OH:4347, V-B:PRO:540:CD:9859, V-A:GLU:543:CD:4908, V-A:GLU:543:C:4902, V-B:HIS:456:CE1:9041, V-A:TYR:484:CZ:4346, V-A:HIS:456:CE1:4069, V-B:GLU:543:CB:9878, V-B:GLU:543:CG:9879, V-B:GLU:543:CD:9880, H-B:GLU:543:OE2:9882, V-A:GLU:543:CB:4906, V-A:TYR:484:CE2:4345, V-B:GLU:543:CA:9876, V-B:GLU:543:C:9874"]

$$$$
4dg_Grossjean_2025
     RDKit          3D

 46 49  0  0  0  0  0  0  0  0999 V2000
  132.8600  124.2790   58.7890 C   0  0  0  0  0  0  0  0  0  0  0  0
  131.5180  124.1350   59.4910 C   0  0  0  0  0  0  0  0  0  0  0  0
  130.4030  123.7890   58.7190 C   0  0  0  0  0  0  0  0  0  0  0  0
  129.1400  123.6400   59.3040 C   0  0  0  0  0  0  0  0  0  0  0  0
  127.9260  123.2680   58.5020 C   0  0  0  0  0  0  0  0  0  0  0  0
  126.6690  123.8210   58.7970 C   0  0  0  0  0  0  0  0  0  0  0  0
  125.5390  123.4750   58.0590 C   0  0  0  0  0  0  0  0  0  0  0  0
  125.6500  122.5690   57.0110 C   0  0  0  0  0  0  0  0  0  0  0  0
  126.8820  122.0020   56.6980 C   0  0  0  0  0  0  0  0  0  0  0  0
  128.0080  122.3500   57.4390 C   0  0  0  0  0  0  0  0  0  0  0  0
  128.9450  123.8070   60.6410 N   0  0  0  0  0  0  0  0  0  0  0  0
  130.0050  124.1380   61.3770 C   0  0  0  0  0  0  0  0  0  0  0  0
  129.8920  124.3880   63.1030 S   0  0  0  0  0  0  0  0  0  0  0  0
  131.6150  124.7470   63.2080 C   0  0  0  0  0  0  0  0  0  0  0  0
  132.2120  125.1140   64.4910 C   0  0  0  0  0  0  0  0  0  0  0  0
  133.2520  124.5870   64.8900 O   0  0  0  0  0  0  0  0  0  0  0  0
  131.5340  126.0280   65.2170 N   0  0  0  0  0  0  0  0  0  0  0  0
  131.9520  126.5590   66.5140 C   0  0  0  0  0  0  0  0  0  0  0  0
  130.7990  126.7410   67.4940 C   0  0  0  0  0  0  0  0  0  0  0  0
  129.8990  125.6930   67.7100 C   0  0  0  0  0  0  0  0  0  0  0  0
  128.8640  125.8450   68.6280 C   0  0  0  0  0  0  0  0  0  0  0  0
  128.7370  127.0390   69.3340 C   0  0  0  0  0  0  0  0  0  0  0  0
  129.6390  128.0810   69.1360 C   0  0  0  0  0  0  0  0  0  0  0  0
  130.6760  127.9300   68.2190 C   0  0  0  0  0  0  0  0  0  0  0  0
  132.2260  124.6860   61.9470 C   0  0  0  0  0  0  0  0  0  0  0  0
  133.5580  124.9340   61.7320 N   0  0  0  0  0  0  0  0  0  0  0  0
  131.3270  124.3260   60.8830 C   0  0  0  0  0  0  0  0  0  0  0  0
  133.6593  124.3648   59.5399 H   0  0  0  0  0  0  0  0  0  0  0  0
  133.0414  123.3952   58.1598 H   0  0  0  0  0  0  0  0  0  0  0  0
  132.8497  125.1812   58.1598 H   0  0  0  0  0  0  0  0  0  0  0  0
  130.5209  123.6318   57.6367 H   0  0  0  0  0  0  0  0  0  0  0  0
  126.5751  124.5394   59.6247 H   0  0  0  0  0  0  0  0  0  0  0  0
  124.5624  123.9174   58.3050 H   0  0  0  0  0  0  0  0  0  0  0  0
  124.7590  122.2984   56.4254 H   0  0  0  0  0  0  0  0  0  0  0  0
  126.9655  121.2829   55.8698 H   0  0  0  0  0  0  0  0  0  0  0  0
  128.9796  121.8990   57.1888 H   0  0  0  0  0  0  0  0  0  0  0  0
  130.7330  126.4730   64.7930 H   0  0  0  0  0  0  0  0  0  0  0  0
  132.6798  125.8635   66.9573 H   0  0  0  0  0  0  0  0  0  0  0  0
  132.3845  127.5541   66.3332 H   0  0  0  0  0  0  0  0  0  0  0  0
  130.0088  124.7496   67.1551 H   0  0  0  0  0  0  0  0  0  0  0  0
  128.1493  125.0257   68.7953 H   0  0  0  0  0  0  0  0  0  0  0  0
  127.9155  127.1600   70.0555 H   0  0  0  0  0  0  0  0  0  0  0  0
  129.5330  129.0188   69.7011 H   0  0  0  0  0  0  0  0  0  0  0  0
  131.3979  128.7456   68.0652 H   0  0  0  0  0  0  0  0  0  0  0  0
  134.0240  125.7340   62.1340 H   0  0  0  0  0  0  0  0  0  0  0  0
  134.1210  124.3150   61.1640 H   0  0  0  0  0  0  0  0  0  0  0  0
  1  2  1  0
  2  3  2  0
  3  4  1  0
  4  5  1  0
  5  6  2  0
  6  7  1  0
  7  8  2  0
  8  9  1  0
  9 10  2  0
  4 11  2  0
 11 12  1  0
 12 13  1  0
 13 14  1  0
 14 15  1  0
 15 16  2  0
 15 17  1  0
 17 18  1  0
 18 19  1  0
 19 20  2  0
 20 21  1  0
 21 22  2  0
 22 23  1  0
 23 24  2  0
 14 25  2  0
 25 26  1  0
 25 27  1  0
 27  2  1  0
 10  5  1  0
 27 12  2  0
 24 19  1  0
  1 28  1  0
  1 29  1  0
  1 30  1  0
  3 31  1  0
  6 32  1  0
  7 33  1  0
  8 34  1  0
  9 35  1  0
 10 36  1  0
 17 37  1  0
 18 38  1  0
 18 39  1  0
 20 40  1  0
 21 41  1  0
 22 42  1  0
 23 43  1  0
 24 44  1  0
 26 45  1  0
 26 46  1  0
M  END
>  <Binding energies>  (1) 
[-8.09]

>  <Ligand effiencies>  (1) 
[-0.26966666666666667]

>  <Interactions>  (1) 
["V-B:PRO:540:CB:9857, V-B:MET:535:CE:9807, V-B:TYR:539:CD2:9846, V-B:PRO:540:N:9856, V-B:PRO:540:CA:9855, V-B:TYR:539:CE2:9848, V-B:TYR:539:C:9839, V-B:LEU:363:CD1:8160, V-B:TYR:539:CA:9841, H-A:TYR:484:OH:4347, V-A:ASP:366:CG:3212, H-A:GLY:454:N:4049, V-B:PRO:540:CD:9859, V-A:ASP:366:CA:3209, V-A:ASP:366:CB:3211, V-A:GLU:543:CG:4907, V-A:GLU:543:CD:4908, H-A:ASP:366:OD2:3214, V-B:TYR:539:CZ:9849, V-A:GLU:543:C:4902, V-B:TYR:539:CG:9844, V-B:HIS:456:CE1:9041, V-A:HIS:456:CE1:4069, V-B:GLU:543:CB:9878, V-A:ARG:545:CG:4922, V-A:GLU:543:CB:4906, V-A:TYR:484:CE2:4345, V-B:GLU:543:C:9874, H-A:GLU:543:OE1:4909, H-A:ASP:366:OD1:3213"]

$$$$
4dj_Grossjean_2025
     RDKit          3D

 39 42  0  0  0  0  0  0  0  0999 V2000
  130.3680  120.8030   62.0200 C   0  0  0  0  0  0  0  0  0  0  0  0
  129.4930  122.0170   61.7430 C   0  0  0  0  0  0  0  0  0  0  0  0
  128.7040  122.0110   60.5870 C   0  0  0  0  0  0  0  0  0  0  0  0
  127.8790  123.0980   60.2730 C   0  0  0  0  0  0  0  0  0  0  0  0
  127.0160  123.1170   59.0430 C   0  0  0  0  0  0  0  0  0  0  0  0
  127.3680  122.3740   57.9050 C   0  0  0  0  0  0  0  0  0  0  0  0
  126.5740  122.3870   56.7620 C   0  0  0  0  0  0  0  0  0  0  0  0
  125.4120  123.1510   56.7390 C   0  0  0  0  0  0  0  0  0  0  0  0
  125.0410  123.9000   57.8500 C   0  0  0  0  0  0  0  0  0  0  0  0
  125.8380  123.8830   58.9910 C   0  0  0  0  0  0  0  0  0  0  0  0
  127.7950  124.1920   61.0780 N   0  0  0  0  0  0  0  0  0  0  0  0
  128.5470  124.2000   62.1780 C   0  0  0  0  0  0  0  0  0  0  0  0
  128.5420  125.5450   63.2970 S   0  0  0  0  0  0  0  0  0  0  0  0
  129.7170  124.7420   64.3410 C   0  0  0  0  0  0  0  0  0  0  0  0
  130.1910  125.3970   65.5610 C   0  0  0  0  0  0  0  0  0  0  0  0
  131.3850  125.3600   65.8730 O   0  0  0  0  0  0  0  0  0  0  0  0
  129.2380  126.0180   66.2980 N   0  0  0  0  0  0  0  0  0  0  0  0
  129.4210  126.7050   67.4900 C   0  0  0  0  0  0  0  0  0  0  0  0
  130.3970  127.5300   67.8050 N   0  0  0  0  0  0  0  0  0  0  0  0
  130.2520  128.0060   69.0270 C   0  0  0  0  0  0  0  0  0  0  0  0
  129.1360  127.5670   69.7310 C   0  0  0  0  0  0  0  0  0  0  0  0
  128.2320  126.4700   68.7300 S   0  0  0  0  0  0  0  0  0  0  0  0
  130.0830  123.4910   63.8210 C   0  0  0  0  0  0  0  0  0  0  0  0
  130.9830  122.6480   64.4230 N   0  0  0  0  0  0  0  0  0  0  0  0
  129.4250  123.1560   62.5870 C   0  0  0  0  0  0  0  0  0  0  0  0
  130.4684  120.6636   63.1065 H   0  0  0  0  0  0  0  0  0  0  0  0
  129.9054  119.9088   61.5769 H   0  0  0  0  0  0  0  0  0  0  0  0
  131.3626  120.9591   61.5769 H   0  0  0  0  0  0  0  0  0  0  0  0
  128.7324  121.1401   59.9156 H   0  0  0  0  0  0  0  0  0  0  0  0
  128.2878  121.7708   57.9169 H   0  0  0  0  0  0  0  0  0  0  0  0
  126.8641  121.7958   55.8809 H   0  0  0  0  0  0  0  0  0  0  0  0
  124.7830  123.1627   55.8367 H   0  0  0  0  0  0  0  0  0  0  0  0
  124.1216  124.5034   57.8274 H   0  0  0  0  0  0  0  0  0  0  0  0
  125.5413  124.4788   59.8668 H   0  0  0  0  0  0  0  0  0  0  0  0
  128.2890  125.9790   65.9550 H   0  0  0  0  0  0  0  0  0  0  0  0
  130.9740  128.7111   69.4647 H   0  0  0  0  0  0  0  0  0  0  0  0
  128.8685  127.8655   70.7554 H   0  0  0  0  0  0  0  0  0  0  0  0
  131.1620  121.7190   64.0730 H   0  0  0  0  0  0  0  0  0  0  0  0
  131.5000  122.9340   65.2430 H   0  0  0  0  0  0  0  0  0  0  0  0
  1  2  1  0
  2  3  2  0
  3  4  1  0
  4  5  1  0
  5  6  2  0
  6  7  1  0
  7  8  2  0
  8  9  1  0
  9 10  2  0
  4 11  2  0
 11 12  1  0
 12 13  1  0
 13 14  1  0
 14 15  1  0
 15 16  2  0
 15 17  1  0
 17 18  1  0
 18 19  2  0
 19 20  1  0
 20 21  2  0
 21 22  1  0
 14 23  2  0
 23 24  1  0
 23 25  1  0
 25  2  1  0
 10  5  1  0
 25 12  2  0
 22 18  1  0
  1 26  1  0
  1 27  1  0
  1 28  1  0
  3 29  1  0
  6 30  1  0
  7 31  1  0
  8 32  1  0
  9 33  1  0
 10 34  1  0
 17 35  1  0
 20 36  1  0
 21 37  1  0
 24 38  1  0
 24 39  1  0
M  END
>  <Binding energies>  (1) 
[-7.32]

>  <Ligand effiencies>  (1) 
[-0.26142857142857145]

>  <Interactions>  (1) 
["V-B:PRO:540:CB:9857, V-B:MET:535:CE:9807, V-B:PRO:540:N:9856, V-A:LEU:475:CD1:4257, V-B:PRO:540:CA:9855, V-B:PRO:540:C:9853, V-B:ALA:541:CB:9864, V-B:TYR:539:C:9839, V-B:TYR:531:CE2:9765, V-B:LEU:363:CD1:8160, H-A:TYR:484:OH:4347, V-B:PRO:540:CD:9859, V-A:GLU:543:C:4902, V-B:HIS:456:CE1:9041, V-A:TYR:484:CZ:4346, V-A:HIS:456:CE1:4069, V-B:GLU:543:CB:9878, V-B:GLU:543:CG:9879, V-B:GLU:543:CD:9880, H-B:GLU:543:OE2:9882, V-A:GLU:543:CB:4906, V-A:TYR:484:CE2:4345"]

$$$$
4ea_Grossjean_2025
     RDKit          3D

 52 55  0  0  0  0  0  0  0  0999 V2000
  124.9760  125.6500   58.1190 C   0  0  0  0  0  0  0  0  0  0  0  0
  124.4160  124.2750   57.7400 C   0  0  0  0  0  0  0  0  0  0  0  0
  125.2340  123.6940   56.7340 O   0  0  0  0  0  0  0  0  0  0  0  0
  126.1500  122.7390   57.0390 C   0  0  0  0  0  0  0  0  0  0  0  0
  126.1920  121.6350   56.4850 O   0  0  0  0  0  0  0  0  0  0  0  0
  127.1080  123.1580   58.1170 C   0  0  0  0  0  0  0  0  0  0  0  0
  126.6410  123.2920   59.4310 C   0  0  0  0  0  0  0  0  0  0  0  0
  127.5030  123.6790   60.4520 C   0  0  0  0  0  0  0  0  0  0  0  0
  128.8470  123.9400   60.1840 C   0  0  0  0  0  0  0  0  0  0  0  0
  129.6240  124.3240   61.2940 N   0  0  0  0  0  0  0  0  0  0  0  0
  129.5600  125.4350   62.0690 C   0  0  0  0  0  0  0  0  0  0  0  0
  128.7500  126.3470   61.9080 O   0  0  0  0  0  0  0  0  0  0  0  0
  130.5450  125.4960   63.1530 C   0  0  0  0  0  0  0  0  0  0  0  0
  132.2370  125.0960   62.8470 S   0  0  0  0  0  0  0  0  0  0  0  0
  132.6610  125.4030   64.5150 C   0  0  0  0  0  0  0  0  0  0  0  0
  133.9110  125.2640   64.9620 N   0  0  0  0  0  0  0  0  0  0  0  0
  134.1070  125.5330   66.2760 C   0  0  0  0  0  0  0  0  0  0  0  0
  135.5350  125.3690   66.7620 C   0  0  0  0  0  0  0  0  0  0  0  0
  133.0950  125.9330   67.1450 C   0  0  0  0  0  0  0  0  0  0  0  0
  131.7860  126.0770   66.6730 C   0  0  0  0  0  0  0  0  0  0  0  0
  130.7210  126.5020   67.6090 C   0  0  0  0  0  0  0  0  0  0  0  0
  129.6840  125.6240   67.9390 C   0  0  0  0  0  0  0  0  0  0  0  0
  128.6830  126.0230   68.8210 C   0  0  0  0  0  0  0  0  0  0  0  0
  128.7170  127.3030   69.3700 C   0  0  0  0  0  0  0  0  0  0  0  0
  129.7420  128.1870   69.0440 C   0  0  0  0  0  0  0  0  0  0  0  0
  130.7420  127.7870   68.1620 C   0  0  0  0  0  0  0  0  0  0  0  0
  131.5380  125.8040   65.2990 C   0  0  0  0  0  0  0  0  0  0  0  0
  130.3430  125.8490   64.4970 C   0  0  0  0  0  0  0  0  0  0  0  0
  129.1250  126.2070   65.0170 N   0  0  0  0  0  0  0  0  0  0  0  0
  129.3240  123.8090   58.8700 C   0  0  0  0  0  0  0  0  0  0  0  0
  128.4600  123.4210   57.8490 C   0  0  0  0  0  0  0  0  0  0  0  0
  125.0132  125.7415   59.2146 H   0  0  0  0  0  0  0  0  0  0  0  0
  125.9902  125.7590   57.7073 H   0  0  0  0  0  0  0  0  0  0  0  0
  124.3266  126.4366   57.7073 H   0  0  0  0  0  0  0  0  0  0  0  0
  124.4076  123.6248   58.6272 H   0  0  0  0  0  0  0  0  0  0  0  0
  123.3900  124.3879   57.3599 H   0  0  0  0  0  0  0  0  0  0  0  0
  125.5838  123.0895   59.6573 H   0  0  0  0  0  0  0  0  0  0  0  0
  127.1218  123.7800   61.4789 H   0  0  0  0  0  0  0  0  0  0  0  0
  130.3400  123.6570   61.5420 H   0  0  0  0  0  0  0  0  0  0  0  0
  135.5501  125.3673   67.8619 H   0  0  0  0  0  0  0  0  0  0  0  0
  135.9426  124.4181   66.3882 H   0  0  0  0  0  0  0  0  0  0  0  0
  136.1476  126.2027   66.3882 H   0  0  0  0  0  0  0  0  0  0  0  0
  133.3247  126.1355   68.2015 H   0  0  0  0  0  0  0  0  0  0  0  0
  129.6589  124.6154   67.5007 H   0  0  0  0  0  0  0  0  0  0  0  0
  127.8692  125.3308   69.0830 H   0  0  0  0  0  0  0  0  0  0  0  0
  127.9268  127.6181   70.0674 H   0  0  0  0  0  0  0  0  0  0  0  0
  129.7616  129.1962   69.4811 H   0  0  0  0  0  0  0  0  0  0  0  0
  131.5516  128.4837   67.8989 H   0  0  0  0  0  0  0  0  0  0  0  0
  128.3800  125.5360   65.1410 H   0  0  0  0  0  0  0  0  0  0  0  0
  128.9310  127.1600   65.2960 H   0  0  0  0  0  0  0  0  0  0  0  0
  130.3816  124.0131   58.6467 H   0  0  0  0  0  0  0  0  0  0  0  0
  128.8413  123.3197   56.8222 H   0  0  0  0  0  0  0  0  0  0  0  0
  1  2  1  0
  2  3  1  0
  3  4  1  0
  4  5  2  0
  4  6  1  0
  6  7  2  0
  7  8  1  0
  8  9  2  0
  9 10  1  0
 10 11  1  0
 11 12  2  0
 11 13  1  0
 13 14  1  0
 14 15  1  0
 15 16  2  0
 16 17  1  0
 17 18  1  0
 17 19  2  0
 19 20  1  0
 20 21  1  0
 21 22  2  0
 22 23  1  0
 23 24  2  0
 24 25  1  0
 25 26  2  0
 20 27  2  0
 27 28  1  0
 28 29  1  0
  9 30  1  0
 30 31  2  0
 31  6  1  0
 28 13  2  0
 27 15  1  0
 26 21  1  0
  1 32  1  0
  1 33  1  0
  1 34  1  0
  2 35  1  0
  2 36  1  0
  7 37  1  0
  8 38  1  0
 10 39  1  0
 18 40  1  0
 18 41  1  0
 18 42  1  0
 19 43  1  0
 22 44  1  0
 23 45  1  0
 24 46  1  0
 25 47  1  0
 26 48  1  0
 29 49  1  0
 29 50  1  0
 30 51  1  0
 31 52  1  0
M  END
>  <Binding energies>  (1) 
[-9.08]

>  <Ligand effiencies>  (1) 
[-0.2670588235294118]

>  <Interactions>  (1) 
["V-B:PRO:540:CB:9857, H-B:TYR:531:OH:9767, V-B:MET:535:CE:9807, V-B:PRO:540:N:9856, V-B:PRO:540:CA:9855, H-B:TYR:539:N:9842, V-B:TYR:531:CE2:9765, V-B:TYR:531:CZ:9766, V-B:LEU:363:CD1:8160, H-A:TYR:484:OH:4347, H-A:GLY:454:N:4049, V-B:ASP:366:CG:8184, V-B:ASP:366:CB:8183, V-A:GLU:543:CG:4907, V-A:GLU:543:CD:4908, V-B:LEU:363:CA:8156, H-A:ARG:545:NH2:4928, V-A:GLU:543:C:4902, V-B:HIS:456:CE1:9041, V-A:TYR:484:CZ:4346, V-A:HIS:456:CE1:4069, V-B:GLU:543:CB:9878, V-A:ARG:545:CD:4923, V-A:ILE:455:C:4051, V-B:GLU:543:CG:9879, H-B:GLU:543:OE1:9881, V-B:GLU:543:CD:9880, H-B:GLU:543:OE2:9882, H-A:ARG:545:NE:4924, V-A:ARG:545:CG:4922, V-A:ARG:545:CZ:4926, H-A:ARG:545:NH1:4927, V-A:GLU:543:CB:4906, V-A:TYR:484:CE2:4345, V-B:GLU:543:C:9874, H-A:GLU:543:OE1:4909, V-A:GLY:454:CA:4048, V-A:GLY:453:CA:4043, V-A:GLY:453:C:4041, V-A:GLY:454:C:4046, V-A:ILE:455:CA:4053, V-A:ARG:545:CB:4921"]

$$$$
4eb_Grossjean_2025
     RDKit          3D

 49 52  0  0  0  0  0  0  0  0999 V2000
  124.7290  124.3980   57.4310 C   0  0  0  0  0  0  0  0  0  0  0  0
  125.4620  123.6080   56.5050 O   0  0  0  0  0  0  0  0  0  0  0  0
  126.3380  122.6620   56.9340 C   0  0  0  0  0  0  0  0  0  0  0  0
  126.4930  121.5750   56.3710 O   0  0  0  0  0  0  0  0  0  0  0  0
  127.0980  123.0710   58.1630 C   0  0  0  0  0  0  0  0  0  0  0  0
  128.4530  123.4080   58.0480 C   0  0  0  0  0  0  0  0  0  0  0  0
  129.1850  123.7910   59.1680 C   0  0  0  0  0  0  0  0  0  0  0  0
  128.5800  123.8460   60.4240 C   0  0  0  0  0  0  0  0  0  0  0  0
  129.4170  124.2460   61.4840 N   0  0  0  0  0  0  0  0  0  0  0  0
  129.5240  125.4420   62.1150 C   0  0  0  0  0  0  0  0  0  0  0  0
  128.8540  126.4360   61.8350 O   0  0  0  0  0  0  0  0  0  0  0  0
  130.5170  125.4940   63.1900 C   0  0  0  0  0  0  0  0  0  0  0  0
  132.2140  125.1410   62.8560 S   0  0  0  0  0  0  0  0  0  0  0  0
  132.6500  125.4090   64.5280 C   0  0  0  0  0  0  0  0  0  0  0  0
  133.9070  125.2850   64.9580 N   0  0  0  0  0  0  0  0  0  0  0  0
  134.1110  125.5190   66.2760 C   0  0  0  0  0  0  0  0  0  0  0  0
  135.5490  125.3730   66.7430 C   0  0  0  0  0  0  0  0  0  0  0  0
  133.1000  125.8710   67.1670 C   0  0  0  0  0  0  0  0  0  0  0  0
  131.7830  126.0000   66.7120 C   0  0  0  0  0  0  0  0  0  0  0  0
  130.7180  126.3740   67.6710 C   0  0  0  0  0  0  0  0  0  0  0  0
  129.7840  125.4230   68.0900 C   0  0  0  0  0  0  0  0  0  0  0  0
  128.7830  125.7740   68.9940 C   0  0  0  0  0  0  0  0  0  0  0  0
  128.7170  127.0790   69.4760 C   0  0  0  0  0  0  0  0  0  0  0  0
  129.6420  128.0350   69.0620 C   0  0  0  0  0  0  0  0  0  0  0  0
  130.6410  127.6830   68.1590 C   0  0  0  0  0  0  0  0  0  0  0  0
  131.5260  125.7620   65.3340 C   0  0  0  0  0  0  0  0  0  0  0  0
  130.3230  125.8030   64.5460 C   0  0  0  0  0  0  0  0  0  0  0  0
  129.1030  126.1190   65.0880 N   0  0  0  0  0  0  0  0  0  0  0  0
  127.2230  123.5100   60.5500 C   0  0  0  0  0  0  0  0  0  0  0  0
  126.4930  123.1270   59.4280 C   0  0  0  0  0  0  0  0  0  0  0  0
  124.9996  124.1064   58.4566 H   0  0  0  0  0  0  0  0  0  0  0  0
  124.9684  125.4605   57.2767 H   0  0  0  0  0  0  0  0  0  0  0  0
  123.6516  124.2387   57.2767 H   0  0  0  0  0  0  0  0  0  0  0  0
  128.9427  123.3695   57.0637 H   0  0  0  0  0  0  0  0  0  0  0  0
  130.2483  124.0523   59.0622 H   0  0  0  0  0  0  0  0  0  0  0  0
  130.0300  123.5190   61.8190 H   0  0  0  0  0  0  0  0  0  0  0  0
  135.5789  125.3700   67.8426 H   0  0  0  0  0  0  0  0  0  0  0  0
  135.9640  124.4281   66.3623 H   0  0  0  0  0  0  0  0  0  0  0  0
  136.1455  126.2152   66.3623 H   0  0  0  0  0  0  0  0  0  0  0  0
  133.3364  126.0473   68.2267 H   0  0  0  0  0  0  0  0  0  0  0  0
  129.8389  124.3940   67.7051 H   0  0  0  0  0  0  0  0  0  0  0  0
  128.0491  125.0244   69.3250 H   0  0  0  0  0  0  0  0  0  0  0  0
  127.9277  127.3573   70.1898 H   0  0  0  0  0  0  0  0  0  0  0  0
  129.5831  129.0637   69.4471 H   0  0  0  0  0  0  0  0  0  0  0  0
  131.3717  128.4358   67.8282 H   0  0  0  0  0  0  0  0  0  0  0  0
  128.7870  125.7130   65.9570 H   0  0  0  0  0  0  0  0  0  0  0  0
  128.4770  126.7700   64.6340 H   0  0  0  0  0  0  0  0  0  0  0  0
  126.7361  123.5493   61.5356 H   0  0  0  0  0  0  0  0  0  0  0  0
  125.4299  122.8653   59.5343 H   0  0  0  0  0  0  0  0  0  0  0  0
  1  2  1  0
  2  3  1  0
  3  4  2  0
  3  5  1  0
  5  6  2  0
  6  7  1  0
  7  8  2  0
  8  9  1  0
  9 10  1  0
 10 11  2  0
 10 12  1  0
 12 13  1  0
 13 14  1  0
 14 15  2  0
 15 16  1  0
 16 17  1  0
 16 18  2  0
 18 19  1  0
 19 20  1  0
 20 21  2  0
 21 22  1  0
 22 23  2  0
 23 24  1  0
 24 25  2  0
 19 26  2  0
 26 27  1  0
 27 28  1  0
  8 29  1  0
 29 30  2  0
 30  5  1  0
 27 12  2  0
 26 14  1  0
 25 20  1  0
  1 31  1  0
  1 32  1  0
  1 33  1  0
  6 34  1  0
  7 35  1  0
  9 36  1  0
 17 37  1  0
 17 38  1  0
 17 39  1  0
 18 40  1  0
 21 41  1  0
 22 42  1  0
 23 43  1  0
 24 44  1  0
 25 45  1  0
 28 46  1  0
 28 47  1  0
 29 48  1  0
 30 49  1  0
M  END
>  <Binding energies>  (1) 
[-8.76]

>  <Ligand effiencies>  (1) 
[-0.26545454545454544]

>  <Interactions>  (1) 
["V-B:PRO:540:CB:9857, H-B:TYR:531:OH:9767, V-B:MET:535:CE:9807, V-B:PRO:540:N:9856, V-B:PRO:540:CA:9855, H-B:TYR:539:N:9842, V-B:TYR:531:CE2:9765, V-B:TYR:531:CZ:9766, V-B:LEU:363:CD1:8160, H-A:TYR:484:OH:4347, H-A:GLY:454:N:4049, V-A:GLU:543:CD:4908, H-A:ARG:545:NH2:4928, V-A:GLU:543:C:4902, V-B:HIS:456:CE1:9041, V-A:TYR:484:CZ:4346, V-A:HIS:456:CE1:4069, V-B:GLU:543:CB:9878, V-A:ARG:545:CD:4923, V-A:ILE:455:C:4051, V-B:GLU:543:CG:9879, V-B:GLU:543:CD:9880, H-B:GLU:543:OE2:9882, H-A:ARG:545:NE:4924, V-A:ARG:545:CG:4922, V-A:ARG:545:CZ:4926, H-A:ARG:545:NH1:4927, V-A:GLU:543:CB:4906, V-A:TYR:484:CE2:4345, V-B:GLU:543:CA:9876, V-B:GLU:543:C:9874, H-A:GLU:543:OE1:4909, V-A:GLY:454:CA:4048, V-A:GLY:453:CA:4043, V-A:GLY:453:C:4041, V-A:GLY:454:C:4046, V-A:ILE:455:CA:4053, V-A:ARG:545:CB:4921"]

$$$$
8a_Ghoteimi_2023
     RDKit          3D

 67 71  0  0  0  0  0  0  0  0999 V2000
  130.6400  117.4220   60.0340 C   0  0  0  0  0  0  0  0  0  0  0  0
  131.7810  117.8880   60.9430 C   0  0  0  0  0  0  0  0  0  0  0  0
  132.6880  118.6850   60.1930 O   0  0  0  0  0  0  0  0  0  0  0  0
  133.5490  119.5370   60.8100 C   0  0  0  0  0  0  0  0  0  0  0  0
  134.7760  119.4680   60.6910 O   0  0  0  0  0  0  0  0  0  0  0  0
  132.8590  120.5670   61.6560 C   0  0  0  0  0  0  0  0  0  0  0  0
  133.6200  121.3590   62.5250 C   0  0  0  0  0  0  0  0  0  0  0  0
  133.0090  122.3220   63.3240 C   0  0  0  0  0  0  0  0  0  0  0  0
  131.6280  122.5130   63.2730 C   0  0  0  0  0  0  0  0  0  0  0  0
  131.1210  123.5110   64.1290 N   0  0  0  0  0  0  0  0  0  0  0  0
  130.7190  124.7780   63.8570 C   0  0  0  0  0  0  0  0  0  0  0  0
  130.7400  125.2870   62.7370 O   0  0  0  0  0  0  0  0  0  0  0  0
  130.2320  125.5390   65.0110 C   0  0  0  0  0  0  0  0  0  0  0  0
  130.9980  125.3540   66.5890 S   0  0  0  0  0  0  0  0  0  0  0  0
  129.8910  126.4970   67.3130 C   0  0  0  0  0  0  0  0  0  0  0  0
  129.9440  126.7980   68.6100 N   0  0  0  0  0  0  0  0  0  0  0  0
  129.0340  127.6950   69.0730 C   0  0  0  0  0  0  0  0  0  0  0  0
  129.0990  128.0020   70.5350 C   0  0  0  0  0  0  0  0  0  0  0  0
  128.7710  129.2750   71.0230 C   0  0  0  0  0  0  0  0  0  0  0  0
  128.8450  129.5580   72.3840 C   0  0  0  0  0  0  0  0  0  0  0  0
  129.2450  128.5780   73.2900 C   0  0  0  0  0  0  0  0  0  0  0  0
  129.2910  128.9500   74.6210 O   0  0  0  0  0  0  0  0  0  0  0  0
  128.1400  128.7530   75.4350 C   0  0  0  0  0  0  0  0  0  0  0  0
  129.5690  127.3000   72.8140 C   0  0  0  0  0  0  0  0  0  0  0  0
  129.4970  127.0200   71.4520 C   0  0  0  0  0  0  0  0  0  0  0  0
  128.0830  128.2900   68.2420 C   0  0  0  0  0  0  0  0  0  0  0  0
  128.0340  127.9900   66.8760 C   0  0  0  0  0  0  0  0  0  0  0  0
  127.0240  128.6760   66.0300 C   0  0  0  0  0  0  0  0  0  0  0  0
  125.6620  128.5270   66.3020 C   0  0  0  0  0  0  0  0  0  0  0  0
  124.7130  129.1840   65.5240 C   0  0  0  0  0  0  0  0  0  0  0  0
  125.1070  130.0060   64.4680 C   0  0  0  0  0  0  0  0  0  0  0  0
  124.0970  130.6180   63.7520 O   0  0  0  0  0  0  0  0  0  0  0  0
  124.0730  130.4890   62.3350 C   0  0  0  0  0  0  0  0  0  0  0  0
  126.4760  130.1630   64.1980 C   0  0  0  0  0  0  0  0  0  0  0  0
  127.4230  129.5050   64.9790 C   0  0  0  0  0  0  0  0  0  0  0  0
  128.9640  127.0360   66.3730 C   0  0  0  0  0  0  0  0  0  0  0  0
  129.1700  126.4570   65.0690 C   0  0  0  0  0  0  0  0  0  0  0  0
  128.3810  126.7690   63.9900 N   0  0  0  0  0  0  0  0  0  0  0  0
  130.8580  121.7280   62.4020 C   0  0  0  0  0  0  0  0  0  0  0  0
  131.4700  120.7650   61.6040 C   0  0  0  0  0  0  0  0  0  0  0  0
  129.7969  117.0777   60.6510 H   0  0  0  0  0  0  0  0  0  0  0  0
  130.3122  118.2583   59.3990 H   0  0  0  0  0  0  0  0  0  0  0  0
  130.9913  116.5953   59.3990 H   0  0  0  0  0  0  0  0  0  0  0  0
  131.3699  118.4822   61.7724 H   0  0  0  0  0  0  0  0  0  0  0  0
  132.3096  117.0119   61.3468 H   0  0  0  0  0  0  0  0  0  0  0  0
  134.7098  121.2191   62.5768 H   0  0  0  0  0  0  0  0  0  0  0  0
  133.6202  122.9371   64.0008 H   0  0  0  0  0  0  0  0  0  0  0  0
  131.0390  123.2230   65.0920 H   0  0  0  0  0  0  0  0  0  0  0  0
  128.4512  130.0598   70.3216 H   0  0  0  0  0  0  0  0  0  0  0  0
  128.5856  130.5634   72.7471 H   0  0  0  0  0  0  0  0  0  0  0  0
  128.4281  128.8023   76.4955 H   0  0  0  0  0  0  0  0  0  0  0  0
  127.3997  129.5375   75.2193 H   0  0  0  0  0  0  0  0  0  0  0  0
  127.7028  127.7670   75.2193 H   0  0  0  0  0  0  0  0  0  0  0  0
  129.8813  126.5155   73.5190 H   0  0  0  0  0  0  0  0  0  0  0  0
  129.7562  126.0139   71.0908 H   0  0  0  0  0  0  0  0  0  0  0  0
  127.3624  129.0044   68.6667 H   0  0  0  0  0  0  0  0  0  0  0  0
  125.3376  127.8869   67.1357 H   0  0  0  0  0  0  0  0  0  0  0  0
  123.6431  129.0539   65.7438 H   0  0  0  0  0  0  0  0  0  0  0  0
  123.8779  129.4405   62.0655 H   0  0  0  0  0  0  0  0  0  0  0  0
  123.2783  131.1277   61.9221 H   0  0  0  0  0  0  0  0  0  0  0  0
  125.0443  130.7991   61.9221 H   0  0  0  0  0  0  0  0  0  0  0  0
  126.8012  130.8071   63.3678 H   0  0  0  0  0  0  0  0  0  0  0  0
  128.4939  129.6392   64.7664 H   0  0  0  0  0  0  0  0  0  0  0  0
  128.7410  126.7300   63.0470 H   0  0  0  0  0  0  0  0  0  0  0  0
  127.4150  127.0420   64.1000 H   0  0  0  0  0  0  0  0  0  0  0  0
  129.7689  121.8735   62.3493 H   0  0  0  0  0  0  0  0  0  0  0  0
  130.8584  120.1525   60.9252 H   0  0  0  0  0  0  0  0  0  0  0  0
  1  2  1  0
  2  3  1  0
  3  4  1  0
  4  5  2  0
  4  6  1  0
  6  7  2  0
  7  8  1  0
  8  9  2  0
  9 10  1  0
 10 11  1  0
 11 12  2  0
 11 13  1  0
 13 14  1  0
 14 15  1  0
 15 16  2  0
 16 17  1  0
 17 18  1  0
 18 19  2  0
 19 20  1  0
 20 21  2  0
 21 22  1  0
 22 23  1  0
 21 24  1  0
 24 25  2  0
 17 26  2  0
 26 27  1  0
 27 28  1  0
 28 29  2  0
 29 30  1  0
 30 31  2  0
 31 32  1  0
 32 33  1  0
 31 34  1  0
 34 35  2  0
 27 36  2  0
 36 37  1  0
 37 38  1  0
  9 39  1  0
 39 40  2  0
 40  6  1  0
 37 13  2  0
 36 15  1  0
 25 18  1  0
 35 28  1  0
  1 41  1  0
  1 42  1  0
  1 43  1  0
  2 44  1  0
  2 45  1  0
  7 46  1  0
  8 47  1  0
 10 48  1  0
 19 49  1  0
 20 50  1  0
 23 51  1  0
 23 52  1  0
 23 53  1  0
 24 54  1  0
 25 55  1  0
 26 56  1  0
 29 57  1  0
 30 58  1  0
 33 59  1  0
 33 60  1  0
 33 61  1  0
 34 62  1  0
 35 63  1  0
 38 64  1  0
 38 65  1  0
 39 66  1  0
 40 67  1  0
M  END
>  <Binding energies>  (1) 
[-8.63]

>  <Ligand effiencies>  (1) 
[-0.20069767441860467]

>  <Interactions>  (1) 
["V-A:ILE:369:CG2:3236, V-B:TYR:539:CD2:9846, V-A:LEU:475:CD1:4257, H-A:SER:385:OG:3409, H-A:HIS:383:NE2:3393, V-B:ALA:541:CB:9864, V-B:TYR:539:C:9839, V-A:PRO:482:CG:4326, H-A:TYR:484:OH:4347, V-B:ASP:366:CG:8184, H-B:GLY:454:N:9021, V-B:ARG:545:CZ:9898, V-B:ILE:369:CD1:8210, V-A:GLU:543:CG:4907, V-A:GLU:543:CD:4908, V-A:SER:385:CA:3406, V-A:GLU:543:C:4902, V-B:HIS:456:CE1:9041, V-A:TYR:484:CZ:4346, V-A:HIS:456:CE1:4069, H-B:GLU:543:OE1:9881, V-B:GLU:543:CD:9880, H-B:GLU:543:OE2:9882, V-A:TYR:484:CE2:4345, V-B:ARG:545:CG:9894, H-A:GLU:543:OE1:4909, V-A:GLY:454:CA:4048, V-B:TYR:539:CB:9843, V-A:HIS:383:CE1:3392, V-B:HIS:456:CD2:9039, H-A:LYS:547:NZ:4951, V-B:ARG:545:CD:9895"]

$$$$
8b_Ghoteimi_2023
     RDKit          3D

 54 58  0  0  0  0  0  0  0  0999 V2000
  130.0980  128.0100   69.5280 C   0  0  0  0  0  0  0  0  0  0  0  0
  131.1630  127.7030   68.6340 O   0  0  0  0  0  0  0  0  0  0  0  0
  130.8980  126.9600   67.5000 C   0  0  0  0  0  0  0  0  0  0  0  0
  129.5550  126.7510   67.1910 C   0  0  0  0  0  0  0  0  0  0  0  0
  129.1930  126.0140   66.0690 C   0  0  0  0  0  0  0  0  0  0  0  0
  130.1680  125.4630   65.2230 C   0  0  0  0  0  0  0  0  0  0  0  0
  129.7840  124.6680   64.0160 C   0  0  0  0  0  0  0  0  0  0  0  0
  130.5460  123.5790   63.5790 C   0  0  0  0  0  0  0  0  0  0  0  0
  130.1660  122.8510   62.4470 C   0  0  0  0  0  0  0  0  0  0  0  0
  131.0000  121.7100   62.0050 C   0  0  0  0  0  0  0  0  0  0  0  0
  130.4590  120.4240   61.9490 C   0  0  0  0  0  0  0  0  0  0  0  0
  131.2410  119.3540   61.5240 C   0  0  0  0  0  0  0  0  0  0  0  0
  132.5720  119.5510   61.1520 C   0  0  0  0  0  0  0  0  0  0  0  0
  133.2710  118.4320   60.7420 O   0  0  0  0  0  0  0  0  0  0  0  0
  134.3620  118.5860   59.8400 C   0  0  0  0  0  0  0  0  0  0  0  0
  133.1140  120.8440   61.2140 C   0  0  0  0  0  0  0  0  0  0  0  0
  132.3310  121.9140   61.6380 C   0  0  0  0  0  0  0  0  0  0  0  0
  128.9840  123.2460   61.7650 C   0  0  0  0  0  0  0  0  0  0  0  0
  128.3120  122.7320   60.5990 C   0  0  0  0  0  0  0  0  0  0  0  0
  128.7810  121.6510   59.8980 N   0  0  0  0  0  0  0  0  0  0  0  0
  127.1460  123.4360   60.2600 C   0  0  0  0  0  0  0  0  0  0  0  0
  126.2230  123.1890   59.1500 C   0  0  0  0  0  0  0  0  0  0  0  0
  125.0110  123.3770   59.2850 O   0  0  0  0  0  0  0  0  0  0  0  0
  126.7980  122.7480   58.0020 N   0  0  0  0  0  0  0  0  0  0  0  0
  126.1660  122.4410   56.8040 C   0  0  0  0  0  0  0  0  0  0  0  0
  125.4570  123.3790   56.0560 C   0  0  0  0  0  0  0  0  0  0  0  0
  124.9900  122.6850   54.9620 C   0  0  0  0  0  0  0  0  0  0  0  0
  125.4010  121.3980   55.0460 O   0  0  0  0  0  0  0  0  0  0  0  0
  126.1470  121.2550   56.2170 N   0  0  0  0  0  0  0  0  0  0  0  0
  126.8500  124.7610   61.3870 S   0  0  0  0  0  0  0  0  0  0  0  0
  128.2860  124.3650   62.3020 C   0  0  0  0  0  0  0  0  0  0  0  0
  128.6490  125.0610   63.3790 N   0  0  0  0  0  0  0  0  0  0  0  0
  131.5160  125.6790   65.5380 C   0  0  0  0  0  0  0  0  0  0  0  0
  131.8820  126.4160   66.6610 C   0  0  0  0  0  0  0  0  0  0  0  0
  130.4494  127.9087   70.5654 H   0  0  0  0  0  0  0  0  0  0  0  0
  129.7597  129.0422   69.3546 H   0  0  0  0  0  0  0  0  0  0  0  0
  129.2622  127.3162   69.3546 H   0  0  0  0  0  0  0  0  0  0  0  0
  128.7743  127.1731   67.8409 H   0  0  0  0  0  0  0  0  0  0  0  0
  128.1278  125.8606   65.8412 H   0  0  0  0  0  0  0  0  0  0  0  0
  131.4531  123.2926   64.1314 H   0  0  0  0  0  0  0  0  0  0  0  0
  129.4120  120.2561   62.2416 H   0  0  0  0  0  0  0  0  0  0  0  0
  130.8065  118.3444   61.4809 H   0  0  0  0  0  0  0  0  0  0  0  0
  135.2934  118.7175   60.4102 H   0  0  0  0  0  0  0  0  0  0  0  0
  134.4432  117.6904   59.2065 H   0  0  0  0  0  0  0  0  0  0  0  0
  134.1922  119.4691   59.2065 H   0  0  0  0  0  0  0  0  0  0  0  0
  134.1622  121.0127   60.9263 H   0  0  0  0  0  0  0  0  0  0  0  0
  132.7631  122.9245   61.6840 H   0  0  0  0  0  0  0  0  0  0  0  0
  129.1790  121.7560   58.9750 H   0  0  0  0  0  0  0  0  0  0  0  0
  128.7440  120.7150   60.2770 H   0  0  0  0  0  0  0  0  0  0  0  0
  127.8000  122.6300   58.0080 H   0  0  0  0  0  0  0  0  0  0  0  0
  125.3036  124.4431   56.2889 H   0  0  0  0  0  0  0  0  0  0  0  0
  124.3807  123.1086   54.1501 H   0  0  0  0  0  0  0  0  0  0  0  0
  132.2977  125.2596   64.8876 H   0  0  0  0  0  0  0  0  0  0  0  0
  132.9462  126.5723   66.8912 H   0  0  0  0  0  0  0  0  0  0  0  0
  1  2  1  0
  2  3  1  0
  3  4  2  0
  4  5  1  0
  5  6  2  0
  6  7  1  0
  7  8  2  0
  8  9  1  0
  9 10  1  0
 10 11  2  0
 11 12  1  0
 12 13  2  0
 13 14  1  0
 14 15  1  0
 13 16  1  0
 16 17  2  0
  9 18  2  0
 18 19  1  0
 19 20  1  0
 19 21  2  0
 21 22  1  0
 22 23  2  0
 22 24  1  0
 24 25  1  0
 25 26  1  0
 26 27  2  0
 27 28  1  0
 28 29  1  0
 21 30  1  0
 30 31  1  0
 31 32  2  0
  6 33  1  0
 33 34  2  0
 34  3  1  0
 32  7  1  0
 17 10  1  0
 31 18  1  0
 29 25  2  0
  1 35  1  0
  1 36  1  0
  1 37  1  0
  4 38  1  0
  5 39  1  0
  8 40  1  0
 11 41  1  0
 12 42  1  0
 15 43  1  0
 15 44  1  0
 15 45  1  0
 16 46  1  0
 17 47  1  0
 20 48  1  0
 20 49  1  0
 24 50  1  0
 26 51  1  0
 27 52  1  0
 33 53  1  0
 34 54  1  0
M  END
>  <Binding energies>  (1) 
[-9.12]

>  <Ligand effiencies>  (1) 
[-0.24648648648648647]

>  <Interactions>  (1) 
["V-B:PRO:540:CB:9857, V-B:MET:535:CE:9807, V-A:ILE:369:CG2:3236, V-B:TYR:539:CD2:9846, V-B:PRO:540:N:9856, V-A:LEU:475:CD1:4257, V-B:PRO:540:CA:9855, V-B:PRO:540:C:9853, H-A:SER:385:OG:3409, H-A:HIS:383:NE2:3393, H-B:TYR:539:N:9842, V-B:ALA:541:CB:9864, V-B:MET:535:CG:9805, V-B:TYR:539:C:9839, V-B:TYR:531:CE2:9765, V-B:TYR:531:CZ:9766, V-B:LEU:363:CD1:8160, V-B:PRO:540:CD:9859, V-A:GLU:543:CD:4908, V-A:SER:385:CA:3406, H-B:TYR:539:O:9840, V-A:SER:385:C:3404, V-A:SER:385:CB:3408, V-A:GLU:543:C:4902, V-A:HIS:456:CE1:4069, V-B:GLU:543:CB:9878, V-B:GLU:543:CG:9879, V-B:GLU:543:CD:9880, V-A:ARG:545:CG:4922, V-A:GLU:543:CB:4906, V-B:ILE:538:CG1:9836, V-A:HIS:383:CD2:3391, V-B:MET:535:CB:9804, H-A:HIS:456:ND1:4066"]

$$$$
8c_Ghoteimi_2023
     RDKit          3D

 54 58  0  0  0  0  0  0  0  0999 V2000
  130.6140  116.5000   59.9560 C   0  0  0  0  0  0  0  0  0  0  0  0
  131.5870  117.1320   60.7800 O   0  0  0  0  0  0  0  0  0  0  0  0
  131.5370  118.5030   60.9500 C   0  0  0  0  0  0  0  0  0  0  0  0
  130.3030  119.0430   61.3050 C   0  0  0  0  0  0  0  0  0  0  0  0
  130.1590  120.4150   61.4940 C   0  0  0  0  0  0  0  0  0  0  0  0
  131.2480  121.2830   61.3330 C   0  0  0  0  0  0  0  0  0  0  0  0
  131.0990  122.7580   61.5310 C   0  0  0  0  0  0  0  0  0  0  0  0
  131.1270  123.3380   62.8030 C   0  0  0  0  0  0  0  0  0  0  0  0
  130.9870  124.7210   62.9600 C   0  0  0  0  0  0  0  0  0  0  0  0
  131.0120  125.3020   64.3220 C   0  0  0  0  0  0  0  0  0  0  0  0
  129.8200  125.5070   65.0220 C   0  0  0  0  0  0  0  0  0  0  0  0
  129.8460  126.0440   66.3050 C   0  0  0  0  0  0  0  0  0  0  0  0
  131.0580  126.3870   66.9070 C   0  0  0  0  0  0  0  0  0  0  0  0
  130.9870  126.9110   68.1830 O   0  0  0  0  0  0  0  0  0  0  0  0
  129.8490  127.6800   68.5560 C   0  0  0  0  0  0  0  0  0  0  0  0
  132.2540  126.1840   66.2010 C   0  0  0  0  0  0  0  0  0  0  0  0
  132.2280  125.6450   64.9170 C   0  0  0  0  0  0  0  0  0  0  0  0
  130.8240  125.5130   61.7930 C   0  0  0  0  0  0  0  0  0  0  0  0
  130.6600  126.9280   61.5890 C   0  0  0  0  0  0  0  0  0  0  0  0
  130.6370  127.8230   62.6300 N   0  0  0  0  0  0  0  0  0  0  0  0
  130.5300  127.2980   60.2410 C   0  0  0  0  0  0  0  0  0  0  0  0
  130.3540  128.6370   59.6750 C   0  0  0  0  0  0  0  0  0  0  0  0
  129.4260  129.3600   60.0440 O   0  0  0  0  0  0  0  0  0  0  0  0
  131.2670  128.9970   58.7400 N   0  0  0  0  0  0  0  0  0  0  0  0
  131.3290  130.2030   58.0560 C   0  0  0  0  0  0  0  0  0  0  0  0
  130.3570  131.0660   57.8500 N   0  0  0  0  0  0  0  0  0  0  0  0
  130.7740  132.1090   57.1600 C   0  0  0  0  0  0  0  0  0  0  0  0
  132.1140  132.1060   56.7880 C   0  0  0  0  0  0  0  0  0  0  0  0
  132.8610  130.6510   57.3790 S   0  0  0  0  0  0  0  0  0  0  0  0
  130.6110  125.8870   59.1830 S   0  0  0  0  0  0  0  0  0  0  0  0
  130.8170  124.8160   60.5500 C   0  0  0  0  0  0  0  0  0  0  0  0
  130.9470  123.4980   60.3990 N   0  0  0  0  0  0  0  0  0  0  0  0
  132.4870  120.7320   60.9780 C   0  0  0  0  0  0  0  0  0  0  0  0
  132.6340  119.3610   60.7870 C   0  0  0  0  0  0  0  0  0  0  0  0
  129.8597  116.0101   60.5892 H   0  0  0  0  0  0  0  0  0  0  0  0
  130.1259  117.2539   59.3209 H   0  0  0  0  0  0  0  0  0  0  0  0
  131.1043  115.7475   59.3209 H   0  0  0  0  0  0  0  0  0  0  0  0
  129.4352  118.3801   61.4371 H   0  0  0  0  0  0  0  0  0  0  0  0
  129.1767  120.8236   61.7736 H   0  0  0  0  0  0  0  0  0  0  0  0
  131.2605  122.7003   63.6893 H   0  0  0  0  0  0  0  0  0  0  0  0
  128.8586  125.2430   64.5572 H   0  0  0  0  0  0  0  0  0  0  0  0
  128.9033  126.1997   66.8500 H   0  0  0  0  0  0  0  0  0  0  0  0
  129.7810  127.7259   69.6529 H   0  0  0  0  0  0  0  0  0  0  0  0
  129.9461  128.6984   68.1517 H   0  0  0  0  0  0  0  0  0  0  0  0
  128.9403  127.2100   68.1517 H   0  0  0  0  0  0  0  0  0  0  0  0
  133.2155  126.4516   66.6635 H   0  0  0  0  0  0  0  0  0  0  0  0
  133.1691  125.4888   64.3693 H   0  0  0  0  0  0  0  0  0  0  0  0
  131.0140  128.7550   62.5310 H   0  0  0  0  0  0  0  0  0  0  0  0
  130.2460  127.5810   63.5280 H   0  0  0  0  0  0  0  0  0  0  0  0
  131.9870  128.3270   58.5140 H   0  0  0  0  0  0  0  0  0  0  0  0
  130.0994  132.9359   56.8933 H   0  0  0  0  0  0  0  0  0  0  0  0
  132.6195  132.8959   56.2131 H   0  0  0  0  0  0  0  0  0  0  0  0
  133.3565  121.3931   60.8483 H   0  0  0  0  0  0  0  0  0  0  0  0
  133.6148  118.9490   60.5071 H   0  0  0  0  0  0  0  0  0  0  0  0
  1  2  1  0
  2  3  1  0
  3  4  2  0
  4  5  1  0
  5  6  2  0
  6  7  1  0
  7  8  2  0
  8  9  1  0
  9 10  1  0
 10 11  2  0
 11 12  1  0
 12 13  2  0
 13 14  1  0
 14 15  1  0
 13 16  1  0
 16 17  2  0
  9 18  2  0
 18 19  1  0
 19 20  1  0
 19 21  2  0
 21 22  1  0
 22 23  2  0
 22 24  1  0
 24 25  1  0
 25 26  2  0
 26 27  1  0
 27 28  2  0
 28 29  1  0
 21 30  1  0
 30 31  1  0
 31 32  2  0
  6 33  1  0
 33 34  2  0
 34  3  1  0
 32  7  1  0
 17 10  1  0
 31 18  1  0
 29 25  1  0
  1 35  1  0
  1 36  1  0
  1 37  1  0
  4 38  1  0
  5 39  1  0
  8 40  1  0
 11 41  1  0
 12 42  1  0
 15 43  1  0
 15 44  1  0
 15 45  1  0
 16 46  1  0
 17 47  1  0
 20 48  1  0
 20 49  1  0
 24 50  1  0
 27 51  1  0
 28 52  1  0
 33 53  1  0
 34 54  1  0
M  END
>  <Binding energies>  (1) 
[-7.92]

>  <Ligand effiencies>  (1) 
[-0.21405405405405406]

>  <Interactions>  (1) 
["V-A:LEU:475:CD1:4257, H-A:SER:385:OG:3409, H-A:HIS:383:NE2:3393, V-B:ALA:541:CB:9864, V-A:PRO:482:CG:4326, V-A:ASP:366:CG:3212, V-A:PRO:540:N:4884, V-A:ASP:366:CB:3211, V-A:PRO:540:CA:4883, V-A:PRO:540:CB:4885, V-A:PRO:540:CD:4887, V-A:TYR:539:C:4867, V-A:LEU:363:CD1:3188, V-A:GLU:543:CD:4908, H-A:ASP:366:OD2:3214, V-A:HIS:456:CE1:4069, V-B:GLU:543:CG:9879, V-B:GLU:543:CD:9880, V-A:ARG:545:CG:4922, V-A:ARG:545:CZ:4926, V-A:GLU:543:CB:4906, V-A:PRO:540:CG:4886, H-A:GLU:543:OE1:4909, H-A:GLU:543:OE2:4910, V-B:TYR:539:CB:9843, V-A:HIS:383:CE1:3392, V-B:VAL:344:CG1:7972"]

$$$$
8d_Ghoteimi_2023
     RDKit          3D

 50 53  0  0  0  0  0  0  0  0999 V2000
  132.1900  131.5860   61.4750 C   0  0  0  0  0  0  0  0  0  0  0  0
  130.7810  131.4150   61.5390 O   0  0  0  0  0  0  0  0  0  0  0  0
  130.0570  131.1820   60.4130 C   0  0  0  0  0  0  0  0  0  0  0  0
  129.6450  132.0690   59.6620 O   0  0  0  0  0  0  0  0  0  0  0  0
  129.8080  129.7430   60.1760 C   0  0  0  0  0  0  0  0  0  0  0  0
  128.6520  129.2420   58.9410 S   0  0  0  0  0  0  0  0  0  0  0  0
  128.9450  127.5550   59.2960 C   0  0  0  0  0  0  0  0  0  0  0  0
  128.3160  126.5780   58.6420 N   0  0  0  0  0  0  0  0  0  0  0  0
  128.6180  125.3010   58.9960 C   0  0  0  0  0  0  0  0  0  0  0  0
  127.8960  124.2250   58.2490 C   0  0  0  0  0  0  0  0  0  0  0  0
  126.5540  124.3800   57.8710 C   0  0  0  0  0  0  0  0  0  0  0  0
  125.8860  123.3760   57.1770 C   0  0  0  0  0  0  0  0  0  0  0  0
  126.5390  122.1900   56.8430 C   0  0  0  0  0  0  0  0  0  0  0  0
  125.7990  121.2500   56.1530 O   0  0  0  0  0  0  0  0  0  0  0  0
  125.0150  121.6640   55.0390 C   0  0  0  0  0  0  0  0  0  0  0  0
  127.8820  122.0250   57.2130 C   0  0  0  0  0  0  0  0  0  0  0  0
  128.5470  123.0330   57.9070 C   0  0  0  0  0  0  0  0  0  0  0  0
  129.5400  125.0040   60.0050 C   0  0  0  0  0  0  0  0  0  0  0  0
  130.2010  126.0280   60.6890 C   0  0  0  0  0  0  0  0  0  0  0  0
  131.1780  125.6820   61.7470 C   0  0  0  0  0  0  0  0  0  0  0  0
  130.9100  125.9970   63.0810 C   0  0  0  0  0  0  0  0  0  0  0  0
  131.8320  125.6790   64.0750 C   0  0  0  0  0  0  0  0  0  0  0  0
  133.0300  125.0410   63.7520 C   0  0  0  0  0  0  0  0  0  0  0  0
  133.8850  124.7660   64.8020 O   0  0  0  0  0  0  0  0  0  0  0  0
  133.6510  125.3760   66.0660 C   0  0  0  0  0  0  0  0  0  0  0  0
  133.2960  124.7210   62.4100 C   0  0  0  0  0  0  0  0  0  0  0  0
  132.3730  125.0400   61.4180 C   0  0  0  0  0  0  0  0  0  0  0  0
  129.9030  127.3700   60.3340 C   0  0  0  0  0  0  0  0  0  0  0  0
  130.3780  128.6370   60.8170 C   0  0  0  0  0  0  0  0  0  0  0  0
  131.3050  128.7430   61.8230 N   0  0  0  0  0  0  0  0  0  0  0  0
  132.6000  131.6358   62.4945 H   0  0  0  0  0  0  0  0  0  0  0  0
  132.6386  130.7357   60.9405 H   0  0  0  0  0  0  0  0  0  0  0  0
  132.4222  132.5189   60.9405 H   0  0  0  0  0  0  0  0  0  0  0  0
  126.0223  125.3084   58.1269 H   0  0  0  0  0  0  0  0  0  0  0  0
  124.8339  123.5190   56.8894 H   0  0  0  0  0  0  0  0  0  0  0  0
  124.0955  122.1495   55.3979 H   0  0  0  0  0  0  0  0  0  0  0  0
  125.5913  122.3754   54.4292 H   0  0  0  0  0  0  0  0  0  0  0  0
  124.7525  120.7869   54.4292 H   0  0  0  0  0  0  0  0  0  0  0  0
  128.4117  121.0964   56.9542 H   0  0  0  0  0  0  0  0  0  0  0  0
  129.6001  122.8907   58.1910 H   0  0  0  0  0  0  0  0  0  0  0  0
  129.7468  123.9548   60.2626 H   0  0  0  0  0  0  0  0  0  0  0  0
  129.9676  126.4979   63.3474 H   0  0  0  0  0  0  0  0  0  0  0  0
  131.6141  125.9328   65.1229 H   0  0  0  0  0  0  0  0  0  0  0  0
  133.9207  124.6730   66.8679 H   0  0  0  0  0  0  0  0  0  0  0  0
  134.2643  126.2850   66.1536 H   0  0  0  0  0  0  0  0  0  0  0  0
  132.5872  125.6416   66.1536 H   0  0  0  0  0  0  0  0  0  0  0  0
  134.2364  124.2169   62.1425 H   0  0  0  0  0  0  0  0  0  0  0  0
  132.5864  124.7849   60.3695 H   0  0  0  0  0  0  0  0  0  0  0  0
  132.0840  128.1030   61.8930 H   0  0  0  0  0  0  0  0  0  0  0  0
  131.2460  129.4670   62.5250 H   0  0  0  0  0  0  0  0  0  0  0  0
  1  2  1  0
  2  3  1  0
  3  4  2  0
  3  5  1  0
  5  6  1  0
  6  7  1  0
  7  8  2  0
  8  9  1  0
  9 10  1  0
 10 11  2  0
 11 12  1  0
 12 13  2  0
 13 14  1  0
 14 15  1  0
 13 16  1  0
 16 17  2  0
  9 18  2  0
 18 19  1  0
 19 20  1  0
 20 21  2  0
 21 22  1  0
 22 23  2  0
 23 24  1  0
 24 25  1  0
 23 26  1  0
 26 27  2  0
 19 28  2  0
 28 29  1  0
 29 30  1  0
 29  5  2  0
 28  7  1  0
 17 10  1  0
 27 20  1  0
  1 31  1  0
  1 32  1  0
  1 33  1  0
 11 34  1  0
 12 35  1  0
 15 36  1  0
 15 37  1  0
 15 38  1  0
 16 39  1  0
 17 40  1  0
 18 41  1  0
 21 42  1  0
 22 43  1  0
 25 44  1  0
 25 45  1  0
 25 46  1  0
 26 47  1  0
 27 48  1  0
 30 49  1  0
 30 50  1  0
M  END
>  <Binding energies>  (1) 
[-7.56]

>  <Ligand effiencies>  (1) 
[-0.23625]

>  <Interactions>  (1) 
["V-B:PRO:540:CB:9857, V-B:MET:535:CE:9807, V-B:TYR:539:CD2:9846, V-B:PRO:540:N:9856, V-B:PRO:540:CA:9855, H-B:TYR:539:N:9842, V-B:TYR:539:CE2:9848, V-B:MET:535:CG:9805, V-B:TYR:539:C:9839, V-B:TYR:531:CE2:9765, V-B:LEU:363:CD1:8160, V-B:TYR:539:CA:9841, H-A:TYR:484:OH:4347, V-A:ASP:366:CG:3212, H-A:GLY:454:N:4049, V-B:PRO:540:CD:9859, V-A:PRO:540:CA:4883, V-A:PRO:540:CB:4885, V-A:PRO:540:C:4881, V-A:GLU:543:CD:4908, H-A:ASP:366:OD2:3214, V-B:TYR:539:CZ:9849, V-B:TYR:539:CG:9844, V-A:ARG:545:CD:4923, V-B:TYR:539:CE1:9847, V-B:TYR:539:CD1:9845, V-A:ARG:545:CG:4922, V-A:ARG:545:CZ:4926, H-A:ALA:541:N:4891, V-B:ILE:538:CA:9832, V-B:ILE:538:CG1:9836, V-B:ILE:538:CG2:9835, V-B:ILE:538:C:9830, V-B:ILE:538:CB:9834, H-A:GLU:543:OE1:4909, H-A:GLU:543:OE2:4910, H-A:ASP:366:OD1:3213"]

$$$$
9a_Ghoteimi_2023
     RDKit          3D

 85 91  0  0  0  0  0  0  0  0999 V2000
  130.8700  131.7280   54.9580 C   0  0  0  0  0  0  0  0  0  0  0  0
  129.8290  131.2970   53.9200 C   0  0  0  0  0  0  0  0  0  0  0  0
  128.5290  131.6490   54.3780 O   0  0  0  0  0  0  0  0  0  0  0  0
  127.6440  130.6980   54.7720 C   0  0  0  0  0  0  0  0  0  0  0  0
  126.7580  130.2480   54.0390 O   0  0  0  0  0  0  0  0  0  0  0  0
  127.8440  130.2520   56.1920 C   0  0  0  0  0  0  0  0  0  0  0  0
  127.1600  129.1220   56.6580 C   0  0  0  0  0  0  0  0  0  0  0  0
  127.3220  128.6840   57.9690 C   0  0  0  0  0  0  0  0  0  0  0  0
  128.1720  129.3650   58.8410 C   0  0  0  0  0  0  0  0  0  0  0  0
  128.2590  128.8330   60.1430 N   0  0  0  0  0  0  0  0  0  0  0  0
  127.2830  128.4160   60.9880 C   0  0  0  0  0  0  0  0  0  0  0  0
  126.0810  128.4400   60.7230 O   0  0  0  0  0  0  0  0  0  0  0  0
  127.7510  127.9080   62.2810 C   0  0  0  0  0  0  0  0  0  0  0  0
  127.4940  128.8470   63.7520 S   0  0  0  0  0  0  0  0  0  0  0  0
  128.2700  127.6190   64.7250 C   0  0  0  0  0  0  0  0  0  0  0  0
  128.3820  127.7430   66.0470 N   0  0  0  0  0  0  0  0  0  0  0  0
  128.9920  126.7270   66.7130 C   0  0  0  0  0  0  0  0  0  0  0  0
  129.0970  126.8820   68.1950 C   0  0  0  0  0  0  0  0  0  0  0  0
  129.5950  128.0650   68.7530 C   0  0  0  0  0  0  0  0  0  0  0  0
  129.6960  128.2190   70.1330 C   0  0  0  0  0  0  0  0  0  0  0  0
  129.2890  127.2000   71.0080 C   0  0  0  0  0  0  0  0  0  0  0  0
  129.4020  127.3330   72.3960 N   0  0  0  0  0  0  0  0  0  0  0  0
  130.6130  126.8940   73.1170 C   0  0  0  0  0  0  0  0  0  0  0  0
  130.4220  126.7790   74.6440 C   0  0  0  0  0  0  0  0  0  0  0  0
  129.9340  128.0030   75.1670 O   0  0  0  0  0  0  0  0  0  0  0  0
  128.6820  128.3500   74.5950 C   0  0  0  0  0  0  0  0  0  0  0  0
  128.8280  128.5160   73.0690 C   0  0  0  0  0  0  0  0  0  0  0  0
  128.8040  126.0110   70.4440 C   0  0  0  0  0  0  0  0  0  0  0  0
  128.7070  125.8570   69.0640 C   0  0  0  0  0  0  0  0  0  0  0  0
  129.5090  125.6090   66.0540 C   0  0  0  0  0  0  0  0  0  0  0  0
  129.4110  125.4840   64.6640 C   0  0  0  0  0  0  0  0  0  0  0  0
  130.0100  124.2920   64.0100 C   0  0  0  0  0  0  0  0  0  0  0  0
  131.3940  124.1020   64.0080 C   0  0  0  0  0  0  0  0  0  0  0  0
  131.9520  122.9780   63.4070 C   0  0  0  0  0  0  0  0  0  0  0  0
  131.1390  122.0030   62.8080 C   0  0  0  0  0  0  0  0  0  0  0  0
  131.6770  120.8720   62.1890 N   0  0  0  0  0  0  0  0  0  0  0  0
  132.9410  120.9970   61.4350 C   0  0  0  0  0  0  0  0  0  0  0  0
  133.6100  119.6380   61.1360 C   0  0  0  0  0  0  0  0  0  0  0  0
  132.6990  118.7860   60.4600 O   0  0  0  0  0  0  0  0  0  0  0  0
  131.5380  118.5380   61.2360 C   0  0  0  0  0  0  0  0  0  0  0  0
  130.8130  119.8670   61.5380 C   0  0  0  0  0  0  0  0  0  0  0  0
  129.7510  122.2020   62.8190 C   0  0  0  0  0  0  0  0  0  0  0  0
  129.1930  123.3280   63.4160 C   0  0  0  0  0  0  0  0  0  0  0  0
  128.7430  126.5200   63.9510 C   0  0  0  0  0  0  0  0  0  0  0  0
  128.4120  126.7010   62.5590 C   0  0  0  0  0  0  0  0  0  0  0  0
  128.7070  125.7640   61.6020 N   0  0  0  0  0  0  0  0  0  0  0  0
  128.8650  130.4960   58.3830 C   0  0  0  0  0  0  0  0  0  0  0  0
  128.7000  130.9330   57.0710 C   0  0  0  0  0  0  0  0  0  0  0  0
  130.4699  131.5624   55.9692 H   0  0  0  0  0  0  0  0  0  0  0  0
  131.7874  131.1357   54.8251 H   0  0  0  0  0  0  0  0  0  0  0  0
  131.1002  132.7954   54.8251 H   0  0  0  0  0  0  0  0  0  0  0  0
  130.0313  131.8044   52.9652 H   0  0  0  0  0  0  0  0  0  0  0  0
  129.8845  130.2080   53.7753 H   0  0  0  0  0  0  0  0  0  0  0  0
  126.4877  128.5750   55.9806 H   0  0  0  0  0  0  0  0  0  0  0  0
  126.7766  127.7955   58.3199 H   0  0  0  0  0  0  0  0  0  0  0  0
  129.2030  128.7510   60.4900 H   0  0  0  0  0  0  0  0  0  0  0  0
  129.9112  128.8851   68.0916 H   0  0  0  0  0  0  0  0  0  0  0  0
  130.1016  129.1551   70.5444 H   0  0  0  0  0  0  0  0  0  0  0  0
  130.9090  125.9080   72.7294 H   0  0  0  0  0  0  0  0  0  0  0  0
  131.3824  127.6616   72.9475 H   0  0  0  0  0  0  0  0  0  0  0  0
  129.7009  125.9772   74.8612 H   0  0  0  0  0  0  0  0  0  0  0  0
  131.3904  126.5480   75.1118 H   0  0  0  0  0  0  0  0  0  0  0  0
  127.9517  127.5551   74.8069 H   0  0  0  0  0  0  0  0  0  0  0  0
  128.3365  129.2993   75.0303 H   0  0  0  0  0  0  0  0  0  0  0  0
  127.8320  128.7085   72.6436 H   0  0  0  0  0  0  0  0  0  0  0  0
  129.5242  129.3510   72.9013 H   0  0  0  0  0  0  0  0  0  0  0  0
  128.4951  125.1864   71.1032 H   0  0  0  0  0  0  0  0  0  0  0  0
  128.3178  124.9150   68.6502 H   0  0  0  0  0  0  0  0  0  0  0  0
  130.0002  124.8155   66.6363 H   0  0  0  0  0  0  0  0  0  0  0  0
  132.0478  124.8468   64.4853 H   0  0  0  0  0  0  0  0  0  0  0  0
  133.0447  122.8518   63.4012 H   0  0  0  0  0  0  0  0  0  0  0  0
  132.7296  121.4999   60.4798 H   0  0  0  0  0  0  0  0  0  0  0  0
  133.6384  121.5731   62.0609 H   0  0  0  0  0  0  0  0  0  0  0  0
  134.4954  119.7994   60.5036 H   0  0  0  0  0  0  0  0  0  0  0  0
  133.9089  119.1668   62.0840 H   0  0  0  0  0  0  0  0  0  0  0  0
  130.8623  117.8726   60.6787 H   0  0  0  0  0  0  0  0  0  0  0  0
  131.8310  118.0623   62.1836 H   0  0  0  0  0  0  0  0  0  0  0  0
  130.4440  120.2860   60.5902 H   0  0  0  0  0  0  0  0  0  0  0  0
  129.9958  119.6391   62.2382 H   0  0  0  0  0  0  0  0  0  0  0  0
  129.0933  121.4564   62.3484 H   0  0  0  0  0  0  0  0  0  0  0  0
  128.1009  123.4597   63.4201 H   0  0  0  0  0  0  0  0  0  0  0  0
  128.0760  125.5650   60.8380 H   0  0  0  0  0  0  0  0  0  0  0  0
  129.5690  125.2380   61.6300 H   0  0  0  0  0  0  0  0  0  0  0  0
  129.5398  131.0384   59.0615 H   0  0  0  0  0  0  0  0  0  0  0  0
  129.2462  131.8210   56.7202 H   0  0  0  0  0  0  0  0  0  0  0  0
  1  2  1  0
  2  3  1  0
  3  4  1  0
  4  5  2  0
  4  6  1  0
  6  7  2  0
  7  8  1  0
  8  9  2  0
  9 10  1  0
 10 11  1  0
 11 12  2  0
 11 13  1  0
 13 14  1  0
 14 15  1  0
 15 16  2  0
 16 17  1  0
 17 18  1  0
 18 19  2  0
 19 20  1  0
 20 21  2  0
 21 22  1  0
 22 23  1  0
 23 24  1  0
 24 25  1  0
 25 26  1  0
 26 27  1  0
 21 28  1  0
 28 29  2  0
 17 30  2  0
 30 31  1  0
 31 32  1  0
 32 33  2  0
 33 34  1  0
 34 35  2  0
 35 36  1  0
 36 37  1  0
 37 38  1  0
 38 39  1  0
 39 40  1  0
 40 41  1  0
 35 42  1  0
 42 43  2  0
 31 44  2  0
 44 45  1  0
 45 46  1  0
  9 47  1  0
 47 48  2  0
 48  6  1  0
 45 13  2  0
 44 15  1  0
 29 18  1  0
 43 32  1  0
 27 22  1  0
 41 36  1  0
  1 49  1  0
  1 50  1  0
  1 51  1  0
  2 52  1  0
  2 53  1  0
  7 54  1  0
  8 55  1  0
 10 56  1  0
 19 57  1  0
 20 58  1  0
 23 59  1  0
 23 60  1  0
 24 61  1  0
 24 62  1  0
 26 63  1  0
 26 64  1  0
 27 65  1  0
 27 66  1  0
 28 67  1  0
 29 68  1  0
 30 69  1  0
 33 70  1  0
 34 71  1  0
 37 72  1  0
 37 73  1  0
 38 74  1  0
 38 75  1  0
 40 76  1  0
 40 77  1  0
 41 78  1  0
 41 79  1  0
 42 80  1  0
 43 81  1  0
 46 82  1  0
 46 83  1  0
 47 84  1  0
 48 85  1  0
M  END
>  <Binding energies>  (1) 
[-9.53]

>  <Ligand effiencies>  (1) 
[-0.1868627450980392]

>  <Interactions>  (1) 
["V-A:ILE:369:CG2:3236, V-A:LEU:475:CD1:4257, H-A:SER:385:OG:3409, H-A:HIS:383:NE2:3393, V-B:ALA:541:CB:9864, V-A:PRO:482:CG:4326, V-B:TYR:531:CZ:9766, V-A:ILE:538:CA:4860, V-A:ILE:538:CG2:4863, V-A:TYR:539:CD1:4873, V-A:TYR:539:CZ:4877, V-A:TYR:539:CE1:4875, V-A:ILE:538:CB:4862, V-B:TYR:531:CE1:9764, H-B:LYS:534:NZ:9795, V-A:GLU:543:CD:4908, V-A:SER:385:CA:3406, H-A:TYR:539:OH:4878, V-A:SER:385:C:3404, V-A:GLU:543:C:4902, V-B:HIS:456:CE1:9041, V-A:HIS:456:CE1:4069, V-B:GLU:543:CB:9878, V-B:GLU:543:CG:9879, V-B:GLU:543:CD:9880, V-A:GLU:543:CB:4906, V-B:GLU:543:CA:9876, V-B:GLU:543:C:9874, V-B:HIS:456:CD2:9039, H-A:LYS:547:NZ:4951, V-A:HIS:456:CG:4065, V-A:HIS:456:CD2:4067"]

$$$$
9b_Ghoteimi_2023
     RDKit          3D

 72 78  0  0  0  0  0  0  0  0999 V2000
  129.2420  124.3700   61.1980 N   0  0  0  0  0  0  0  0  0  0  0  0
  129.4190  123.9350   62.4870 C   0  0  0  0  0  0  0  0  0  0  0  0
  129.6380  122.5900   62.8260 C   0  0  0  0  0  0  0  0  0  0  0  0
  129.7450  121.4300   61.9380 C   0  0  0  0  0  0  0  0  0  0  0  0
  128.8930  121.2190   61.0730 O   0  0  0  0  0  0  0  0  0  0  0  0
  130.8230  120.6330   62.1480 N   0  0  0  0  0  0  0  0  0  0  0  0
  131.1630  119.4710   61.4670 C   0  0  0  0  0  0  0  0  0  0  0  0
  130.2360  118.4850   61.1360 C   0  0  0  0  0  0  0  0  0  0  0  0
  130.9610  117.5190   60.4760 C   0  0  0  0  0  0  0  0  0  0  0  0
  132.2580  117.9050   60.4140 O   0  0  0  0  0  0  0  0  0  0  0  0
  132.3730  119.1440   61.0460 N   0  0  0  0  0  0  0  0  0  0  0  0
  129.7890  122.3900   64.5710 S   0  0  0  0  0  0  0  0  0  0  0  0
  129.5410  124.0990   64.8350 C   0  0  0  0  0  0  0  0  0  0  0  0
  129.5160  124.6200   66.0610 N   0  0  0  0  0  0  0  0  0  0  0  0
  129.2980  125.9580   66.1580 C   0  0  0  0  0  0  0  0  0  0  0  0
  129.2540  126.5130   67.5450 C   0  0  0  0  0  0  0  0  0  0  0  0
  128.8500  125.7240   68.6280 C   0  0  0  0  0  0  0  0  0  0  0  0
  128.7960  126.2500   69.9150 C   0  0  0  0  0  0  0  0  0  0  0  0
  129.1320  127.5900   70.1640 C   0  0  0  0  0  0  0  0  0  0  0  0
  129.0860  128.1330   71.4530 N   0  0  0  0  0  0  0  0  0  0  0  0
  128.6930  129.5380   71.6830 C   0  0  0  0  0  0  0  0  0  0  0  0
  128.3640  129.8610   73.1550 C   0  0  0  0  0  0  0  0  0  0  0  0
  129.4540  129.4960   73.9860 O   0  0  0  0  0  0  0  0  0  0  0  0
  129.7310  128.1080   73.9020 C   0  0  0  0  0  0  0  0  0  0  0  0
  130.0980  127.7270   72.4510 C   0  0  0  0  0  0  0  0  0  0  0  0
  129.5550  128.3700   69.0790 C   0  0  0  0  0  0  0  0  0  0  0  0
  129.6120  127.8420   67.7920 C   0  0  0  0  0  0  0  0  0  0  0  0
  129.1350  126.7710   65.0340 C   0  0  0  0  0  0  0  0  0  0  0  0
  129.1810  126.2310   63.7430 C   0  0  0  0  0  0  0  0  0  0  0  0
  129.0310  127.1430   62.5800 C   0  0  0  0  0  0  0  0  0  0  0  0
  127.7620  127.4950   62.1200 C   0  0  0  0  0  0  0  0  0  0  0  0
  127.6180  128.3640   61.0430 C   0  0  0  0  0  0  0  0  0  0  0  0
  128.7400  128.9040   60.3960 C   0  0  0  0  0  0  0  0  0  0  0  0
  128.6190  129.7910   59.3230 N   0  0  0  0  0  0  0  0  0  0  0  0
  129.5440  130.9360   59.2230 C   0  0  0  0  0  0  0  0  0  0  0  0
  129.0570  132.0290   58.2480 C   0  0  0  0  0  0  0  0  0  0  0  0
  128.8170  131.4650   56.9680 O   0  0  0  0  0  0  0  0  0  0  0  0
  127.8270  130.4480   57.0190 C   0  0  0  0  0  0  0  0  0  0  0  0
  128.2800  129.3170   57.9660 C   0  0  0  0  0  0  0  0  0  0  0  0
  130.0100  128.5580   60.8790 C   0  0  0  0  0  0  0  0  0  0  0  0
  130.1540  127.6880   61.9570 C   0  0  0  0  0  0  0  0  0  0  0  0
  129.3730  124.8260   63.6190 C   0  0  0  0  0  0  0  0  0  0  0  0
  129.0670  123.7270   60.4380 H   0  0  0  0  0  0  0  0  0  0  0  0
  129.2810  125.3520   60.9640 H   0  0  0  0  0  0  0  0  0  0  0  0
  131.4610  120.9080   62.8810 H   0  0  0  0  0  0  0  0  0  0  0  0
  129.1580  118.4797   61.3548 H   0  0  0  0  0  0  0  0  0  0  0  0
  130.5529  116.5839   60.0650 H   0  0  0  0  0  0  0  0  0  0  0  0
  128.5713  124.6733   68.4594 H   0  0  0  0  0  0  0  0  0  0  0  0
  128.4851  125.6056   70.7505 H   0  0  0  0  0  0  0  0  0  0  0  0
  129.5218  130.1865   71.3628 H   0  0  0  0  0  0  0  0  0  0  0  0
  127.7737  129.7117   71.1044 H   0  0  0  0  0  0  0  0  0  0  0  0
  128.1726  130.9394   73.2575 H   0  0  0  0  0  0  0  0  0  0  0  0
  127.4719  129.2938   73.4589 H   0  0  0  0  0  0  0  0  0  0  0  0
  130.5732  127.8642   74.5663 H   0  0  0  0  0  0  0  0  0  0  0  0
  128.8377  127.5434   74.2076 H   0  0  0  0  0  0  0  0  0  0  0  0
  131.0513  128.2128   72.1955 H   0  0  0  0  0  0  0  0  0  0  0  0
  130.1614  126.6294   72.4144 H   0  0  0  0  0  0  0  0  0  0  0  0
  129.8469  129.4171   69.2472 H   0  0  0  0  0  0  0  0  0  0  0  0
  129.9431  128.4788   66.9584 H   0  0  0  0  0  0  0  0  0  0  0  0
  128.9682  127.8504   65.1649 H   0  0  0  0  0  0  0  0  0  0  0  0
  126.8689  127.0826   62.6122 H   0  0  0  0  0  0  0  0  0  0  0  0
  126.6099  128.6316   60.6936 H   0  0  0  0  0  0  0  0  0  0  0  0
  129.6557  131.3832   60.2218 H   0  0  0  0  0  0  0  0  0  0  0  0
  130.4980  130.5519   58.8327 H   0  0  0  0  0  0  0  0  0  0  0  0
  128.1257  132.4710   58.6318 H   0  0  0  0  0  0  0  0  0  0  0  0
  129.8305  132.8063   58.1611 H   0  0  0  0  0  0  0  0  0  0  0  0
  126.8836  130.8763   57.3884 H   0  0  0  0  0  0  0  0  0  0  0  0
  127.6801  130.0364   56.0096 H   0  0  0  0  0  0  0  0  0  0  0  0
  127.4656  128.5820   58.0464 H   0  0  0  0  0  0  0  0  0  0  0  0
  129.1932  128.8792   57.5366 H   0  0  0  0  0  0  0  0  0  0  0  0
  130.9056  128.9798   60.3995 H   0  0  0  0  0  0  0  0  0  0  0  0
  131.1597  127.4289   62.3195 H   0  0  0  0  0  0  0  0  0  0  0  0
  1  2  1  0
  2  3  2  0
  3  4  1  0
  4  5  2  0
  4  6  1  0
  6  7  1  0
  7  8  1  0
  8  9  2  0
  9 10  1  0
 10 11  1  0
  3 12  1  0
 12 13  1  0
 13 14  2  0
 14 15  1  0
 15 16  1  0
 16 17  2  0
 17 18  1  0
 18 19  2  0
 19 20  1  0
 20 21  1  0
 21 22  1  0
 22 23  1  0
 23 24  1  0
 24 25  1  0
 19 26  1  0
 26 27  2  0
 15 28  2  0
 28 29  1  0
 29 30  1  0
 30 31  2  0
 31 32  1  0
 32 33  2  0
 33 34  1  0
 34 35  1  0
 35 36  1  0
 36 37  1  0
 37 38  1  0
 38 39  1  0
 33 40  1  0
 40 41  2  0
 29 42  2  0
 42  2  1  0
 11  7  2  0
 42 13  1  0
 27 16  1  0
 41 30  1  0
 25 20  1  0
 39 34  1  0
  1 43  1  0
  1 44  1  0
  6 45  1  0
  8 46  1  0
  9 47  1  0
 17 48  1  0
 18 49  1  0
 21 50  1  0
 21 51  1  0
 22 52  1  0
 22 53  1  0
 24 54  1  0
 24 55  1  0
 25 56  1  0
 25 57  1  0
 26 58  1  0
 27 59  1  0
 28 60  1  0
 31 61  1  0
 32 62  1  0
 35 63  1  0
 35 64  1  0
 36 65  1  0
 36 66  1  0
 38 67  1  0
 38 68  1  0
 39 69  1  0
 39 70  1  0
 40 71  1  0
 41 72  1  0
M  END
>  <Binding energies>  (1) 
[-8.39]

>  <Ligand effiencies>  (1) 
[-0.18644444444444447]

>  <Interactions>  (1) 
["H-B:ALA:541:N:9863, V-A:LEU:475:CD1:4257, H-A:SER:385:OG:3409, H-A:HIS:383:NE2:3393, V-B:ALA:541:CB:9864, V-B:TYR:539:C:9839, V-A:PRO:482:CG:4326, V-A:PRO:482:CB:4325, H-A:TYR:484:OH:4347, V-A:PRO:540:N:4884, V-A:TYR:539:CD1:4873, V-A:PRO:540:CA:4883, V-A:TYR:539:CZ:4877, V-A:TYR:539:CE1:4875, V-A:TYR:539:C:4867, V-A:GLU:543:CG:4907, V-A:GLU:543:CD:4908, V-A:GLU:543:C:4902, V-B:HIS:456:CE1:9041, V-A:HIS:456:CE1:4069, V-B:GLU:543:CB:9878, V-B:GLU:543:CG:9879, V-B:GLU:543:CD:9880, V-A:GLU:543:CB:4906, V-A:TYR:484:CE2:4345, V-B:GLU:543:CA:9876, V-B:GLU:543:C:9874, V-A:HIS:383:CE1:3392, V-B:HIS:456:CD2:9039, H-A:LYS:547:NZ:4951, V-A:LYS:547:CE:4950, V-B:HIS:456:CG:9037"]

$$$$
9c_Ghoteimi_2023
     RDKit          3D

 72 78  0  0  0  0  0  0  0  0999 V2000
  128.4130  128.5310   66.9460 N   0  0  0  0  0  0  0  0  0  0  0  0
  128.8730  127.2480   67.1000 C   0  0  0  0  0  0  0  0  0  0  0  0
  129.1590  126.6730   68.3480 C   0  0  0  0  0  0  0  0  0  0  0  0
  129.0200  127.2670   69.6810 C   0  0  0  0  0  0  0  0  0  0  0  0
  129.0450  128.4900   69.8320 O   0  0  0  0  0  0  0  0  0  0  0  0
  128.8730  126.3840   70.6980 N   0  0  0  0  0  0  0  0  0  0  0  0
  128.7380  126.6800   72.0480 C   0  0  0  0  0  0  0  0  0  0  0  0
  127.9050  126.1440   72.9130 N   0  0  0  0  0  0  0  0  0  0  0  0
  128.0480  126.6720   74.1140 C   0  0  0  0  0  0  0  0  0  0  0  0
  129.0170  127.6630   74.2390 C   0  0  0  0  0  0  0  0  0  0  0  0
  129.7770  127.9090   72.6950 S   0  0  0  0  0  0  0  0  0  0  0  0
  129.7570  125.0240   68.1680 S   0  0  0  0  0  0  0  0  0  0  0  0
  129.6380  125.1220   66.4280 C   0  0  0  0  0  0  0  0  0  0  0  0
  130.0030  124.1080   65.6450 N   0  0  0  0  0  0  0  0  0  0  0  0
  129.8870  124.2920   64.3040 C   0  0  0  0  0  0  0  0  0  0  0  0
  130.3230  123.1460   63.4480 C   0  0  0  0  0  0  0  0  0  0  0  0
  129.4060  122.4360   62.6660 C   0  0  0  0  0  0  0  0  0  0  0  0
  129.8150  121.3640   61.8780 C   0  0  0  0  0  0  0  0  0  0  0  0
  131.1580  120.9540   61.8550 C   0  0  0  0  0  0  0  0  0  0  0  0
  131.5870  119.8830   61.0620 N   0  0  0  0  0  0  0  0  0  0  0  0
  132.5780  120.0730   59.9840 C   0  0  0  0  0  0  0  0  0  0  0  0
  133.1880  118.7560   59.4590 C   0  0  0  0  0  0  0  0  0  0  0  0
  132.1550  117.8750   59.0480 O   0  0  0  0  0  0  0  0  0  0  0  0
  131.2910  117.5500   60.1250 C   0  0  0  0  0  0  0  0  0  0  0  0
  130.6250  118.8300   60.6760 C   0  0  0  0  0  0  0  0  0  0  0  0
  132.0760  121.6820   62.6260 C   0  0  0  0  0  0  0  0  0  0  0  0
  131.6660  122.7560   63.4100 C   0  0  0  0  0  0  0  0  0  0  0  0
  129.3840  125.4720   63.7530 C   0  0  0  0  0  0  0  0  0  0  0  0
  128.9790  126.5320   64.5720 C   0  0  0  0  0  0  0  0  0  0  0  0
  128.4220  127.7540   63.9400 C   0  0  0  0  0  0  0  0  0  0  0  0
  129.0840  128.3590   62.8710 C   0  0  0  0  0  0  0  0  0  0  0  0
  128.5550  129.4950   62.2640 C   0  0  0  0  0  0  0  0  0  0  0  0
  127.3500  130.0570   62.7130 C   0  0  0  0  0  0  0  0  0  0  0  0
  126.7950  131.1910   62.1120 N   0  0  0  0  0  0  0  0  0  0  0  0
  127.6830  132.1470   61.4200 C   0  0  0  0  0  0  0  0  0  0  0  0
  127.0160  133.5140   61.1540 C   0  0  0  0  0  0  0  0  0  0  0  0
  125.8100  133.3330   60.4280 O   0  0  0  0  0  0  0  0  0  0  0  0
  124.8860  132.5250   61.1390 C   0  0  0  0  0  0  0  0  0  0  0  0
  125.4980  131.1330   61.4100 C   0  0  0  0  0  0  0  0  0  0  0  0
  126.6830  129.4290   63.7750 C   0  0  0  0  0  0  0  0  0  0  0  0
  127.2110  128.2930   64.3810 C   0  0  0  0  0  0  0  0  0  0  0  0
  129.1240  126.3750   65.9800 C   0  0  0  0  0  0  0  0  0  0  0  0
  127.7250  128.9290   67.5710 H   0  0  0  0  0  0  0  0  0  0  0  0
  128.7470  129.1240   66.2000 H   0  0  0  0  0  0  0  0  0  0  0  0
  128.8570  125.4020   70.4620 H   0  0  0  0  0  0  0  0  0  0  0  0
  127.4357  126.3471   74.9681 H   0  0  0  0  0  0  0  0  0  0  0  0
  129.2624  128.2034   75.1652 H   0  0  0  0  0  0  0  0  0  0  0  0
  128.3458  122.7292   62.6739 H   0  0  0  0  0  0  0  0  0  0  0  0
  129.0750  120.8298   61.2639 H   0  0  0  0  0  0  0  0  0  0  0  0
  132.0839  120.5850   59.1451 H   0  0  0  0  0  0  0  0  0  0  0  0
  133.4044  120.6617   60.4088 H   0  0  0  0  0  0  0  0  0  0  0  0
  133.8437  118.9736   58.6030 H   0  0  0  0  0  0  0  0  0  0  0  0
  133.7702  118.2812   60.2625 H   0  0  0  0  0  0  0  0  0  0  0  0
  130.5124  116.8583   59.7709 H   0  0  0  0  0  0  0  0  0  0  0  0
  131.8769  117.0756   60.9260 H   0  0  0  0  0  0  0  0  0  0  0  0
  129.9589  119.2360   59.9004 H   0  0  0  0  0  0  0  0  0  0  0  0
  130.0819  118.5418   61.5881 H   0  0  0  0  0  0  0  0  0  0  0  0
  133.1388  121.3989   62.6106 H   0  0  0  0  0  0  0  0  0  0  0  0
  132.4078  123.3057   64.0079 H   0  0  0  0  0  0  0  0  0  0  0  0
  129.3049  125.5699   62.6602 H   0  0  0  0  0  0  0  0  0  0  0  0
  130.0309  127.9353   62.5051 H   0  0  0  0  0  0  0  0  0  0  0  0
  129.0888  129.9582   61.4211 H   0  0  0  0  0  0  0  0  0  0  0  0
  128.5754  132.3087   62.0425 H   0  0  0  0  0  0  0  0  0  0  0  0
  127.9347  131.7104   60.4422 H   0  0  0  0  0  0  0  0  0  0  0  0
  126.7935  134.0035   62.1136 H   0  0  0  0  0  0  0  0  0  0  0  0
  127.7012  134.1414   60.5650 H   0  0  0  0  0  0  0  0  0  0  0  0
  124.6419  133.0079   62.0967 H   0  0  0  0  0  0  0  0  0  0  0  0
  123.9732  132.4062   60.5367 H   0  0  0  0  0  0  0  0  0  0  0  0
  124.7931  130.5559   62.0265 H   0  0  0  0  0  0  0  0  0  0  0  0
  125.6777  130.6608   60.4329 H   0  0  0  0  0  0  0  0  0  0  0  0
  125.7283  129.8406   64.1343 H   0  0  0  0  0  0  0  0  0  0  0  0
  126.6713  127.8164   65.2126 H   0  0  0  0  0  0  0  0  0  0  0  0
  1  2  1  0
  2  3  2  0
  3  4  1  0
  4  5  2  0
  4  6  1  0
  6  7  1  0
  7  8  2  0
  8  9  1  0
  9 10  2  0
 10 11  1  0
  3 12  1  0
 12 13  1  0
 13 14  2  0
 14 15  1  0
 15 16  1  0
 16 17  2  0
 17 18  1  0
 18 19  2  0
 19 20  1  0
 20 21  1  0
 21 22  1  0
 22 23  1  0
 23 24  1  0
 24 25  1  0
 19 26  1  0
 26 27  2  0
 15 28  2  0
 28 29  1  0
 29 30  1  0
 30 31  2  0
 31 32  1  0
 32 33  2  0
 33 34  1  0
 34 35  1  0
 35 36  1  0
 36 37  1  0
 37 38  1  0
 38 39  1  0
 33 40  1  0
 40 41  2  0
 29 42  2  0
 42  2  1  0
 11  7  1  0
 42 13  1  0
 27 16  1  0
 41 30  1  0
 25 20  1  0
 39 34  1  0
  1 43  1  0
  1 44  1  0
  6 45  1  0
  9 46  1  0
 10 47  1  0
 17 48  1  0
 18 49  1  0
 21 50  1  0
 21 51  1  0
 22 52  1  0
 22 53  1  0
 24 54  1  0
 24 55  1  0
 25 56  1  0
 25 57  1  0
 26 58  1  0
 27 59  1  0
 28 60  1  0
 31 61  1  0
 32 62  1  0
 35 63  1  0
 35 64  1  0
 36 65  1  0
 36 66  1  0
 38 67  1  0
 38 68  1  0
 39 69  1  0
 39 70  1  0
 40 71  1  0
 41 72  1  0
M  END
>  <Binding energies>  (1) 
[-8.6]

>  <Ligand effiencies>  (1) 
[-0.1911111111111111]

>  <Interactions>  (1) 
["V-A:ILE:369:CG2:3236, V-B:TYR:539:CD2:9846, V-A:LEU:475:CD1:4257, H-A:HIS:383:NE2:3393, V-B:ALA:541:CB:9864, V-B:TYR:539:CE2:9848, V-B:TYR:539:C:9839, V-A:PRO:482:CG:4326, H-A:TYR:484:OH:4347, V-A:TYR:539:CD1:4873, V-A:ALA:541:CB:4892, V-B:ILE:369:CD1:8210, V-A:GLU:543:CG:4907, V-A:GLU:543:CD:4908, V-B:HIS:456:CE1:9041, V-A:TYR:484:CZ:4346, V-A:HIS:456:CE1:4069, V-B:GLU:543:CB:9878, V-B:GLU:543:CG:9879, V-B:GLU:543:CD:9880, V-A:GLU:543:CB:4906, V-A:TYR:484:CE2:4345, V-B:ILE:369:CG2:8208, H-A:GLU:543:OE1:4909, V-A:HIS:383:CE1:3392, V-A:HIS:383:CD2:3391, H-A:HIS:456:NE2:4070, V-B:HIS:456:CD2:9039, H-B:HIS:456:NE2:9042, H-B:GLU:543:O:9875"]

$$$$
9d_Ghoteimi_2023
     RDKit          3D

 68 73  0  0  0  0  0  0  0  0999 V2000
  124.0540  129.9560   63.3430 C   0  0  0  0  0  0  0  0  0  0  0  0
  124.6090  130.6320   64.4630 O   0  0  0  0  0  0  0  0  0  0  0  0
  125.9460  130.8590   64.5460 C   0  0  0  0  0  0  0  0  0  0  0  0
  126.4560  131.9820   64.5440 O   0  0  0  0  0  0  0  0  0  0  0  0
  126.7380  129.6120   64.6350 C   0  0  0  0  0  0  0  0  0  0  0  0
  127.0530  128.6660   63.1810 S   0  0  0  0  0  0  0  0  0  0  0  0
  127.9850  127.5020   64.0930 C   0  0  0  0  0  0  0  0  0  0  0  0
  128.5740  126.4630   63.5020 N   0  0  0  0  0  0  0  0  0  0  0  0
  129.2900  125.6260   64.2970 C   0  0  0  0  0  0  0  0  0  0  0  0
  129.9630  124.4820   63.6080 C   0  0  0  0  0  0  0  0  0  0  0  0
  131.3560  124.4500   63.4820 C   0  0  0  0  0  0  0  0  0  0  0  0
  131.9920  123.3910   62.8400 C   0  0  0  0  0  0  0  0  0  0  0  0
  131.2580  122.3160   62.3120 C   0  0  0  0  0  0  0  0  0  0  0  0
  131.8820  121.2530   61.6500 N   0  0  0  0  0  0  0  0  0  0  0  0
  133.3090  120.9410   61.8710 C   0  0  0  0  0  0  0  0  0  0  0  0
  133.9080  119.9830   60.8210 C   0  0  0  0  0  0  0  0  0  0  0  0
  133.1340  118.7980   60.7470 O   0  0  0  0  0  0  0  0  0  0  0  0
  131.7970  119.0750   60.3640 C   0  0  0  0  0  0  0  0  0  0  0  0
  131.1300  120.0060   61.3990 C   0  0  0  0  0  0  0  0  0  0  0  0
  129.8610  122.3610   62.4280 C   0  0  0  0  0  0  0  0  0  0  0  0
  129.2250  123.4220   63.0670 C   0  0  0  0  0  0  0  0  0  0  0  0
  129.3870  125.8090   65.6780 C   0  0  0  0  0  0  0  0  0  0  0  0
  128.7540  126.8880   66.3060 C   0  0  0  0  0  0  0  0  0  0  0  0
  128.8660  127.0210   67.7830 C   0  0  0  0  0  0  0  0  0  0  0  0
  128.2710  126.0850   68.6310 C   0  0  0  0  0  0  0  0  0  0  0  0
  128.3940  126.2030   70.0130 C   0  0  0  0  0  0  0  0  0  0  0  0
  129.1320  127.2540   70.5820 C   0  0  0  0  0  0  0  0  0  0  0  0
  129.2630  127.4000   71.9650 N   0  0  0  0  0  0  0  0  0  0  0  0
  129.2410  128.7550   72.5490 C   0  0  0  0  0  0  0  0  0  0  0  0
  129.0020  128.7580   74.0740 C   0  0  0  0  0  0  0  0  0  0  0  0
  129.9690  127.9440   74.7190 O   0  0  0  0  0  0  0  0  0  0  0  0
  129.9100  126.5990   74.2660 C   0  0  0  0  0  0  0  0  0  0  0  0
  130.1760  126.5440   72.7470 C   0  0  0  0  0  0  0  0  0  0  0  0
  129.7240  128.1880   69.7210 C   0  0  0  0  0  0  0  0  0  0  0  0
  129.5990  128.0700   68.3400 C   0  0  0  0  0  0  0  0  0  0  0  0
  128.0330  127.8010   65.4870 C   0  0  0  0  0  0  0  0  0  0  0  0
  127.3270  129.0250   65.7620 C   0  0  0  0  0  0  0  0  0  0  0  0
  127.2560  129.5790   67.0140 N   0  0  0  0  0  0  0  0  0  0  0  0
  123.3921  129.1498   63.6923 H   0  0  0  0  0  0  0  0  0  0  0  0
  123.4760  130.6674   62.7349 H   0  0  0  0  0  0  0  0  0  0  0  0
  124.8643  129.5275   62.7349 H   0  0  0  0  0  0  0  0  0  0  0  0
  131.9571  125.2730   63.8959 H   0  0  0  0  0  0  0  0  0  0  0  0
  133.0878  123.3962   62.7446 H   0  0  0  0  0  0  0  0  0  0  0  0
  133.8775  121.8823   61.8456 H   0  0  0  0  0  0  0  0  0  0  0  0
  133.3782  120.4327   62.8440 H   0  0  0  0  0  0  0  0  0  0  0  0
  133.9125  120.4769   59.8381 H   0  0  0  0  0  0  0  0  0  0  0  0
  134.9363  119.7244   61.1139 H   0  0  0  0  0  0  0  0  0  0  0  0
  131.7949  119.5652   59.3793 H   0  0  0  0  0  0  0  0  0  0  0  0
  131.2343  118.1312   60.3138 H   0  0  0  0  0  0  0  0  0  0  0  0
  130.1284  120.2729   61.0309 H   0  0  0  0  0  0  0  0  0  0  0  0
  131.0953  119.4552   62.3506 H   0  0  0  0  0  0  0  0  0  0  0  0
  129.2572  121.5437   62.0067 H   0  0  0  0  0  0  0  0  0  0  0  0
  128.1280  123.4277   63.1480 H   0  0  0  0  0  0  0  0  0  0  0  0
  129.9686  125.0957   66.2804 H   0  0  0  0  0  0  0  0  0  0  0  0
  127.7003  125.2473   68.2038 H   0  0  0  0  0  0  0  0  0  0  0  0
  127.9074  125.4643   70.6669 H   0  0  0  0  0  0  0  0  0  0  0  0
  130.2080  129.2385   72.3461 H   0  0  0  0  0  0  0  0  0  0  0  0
  128.4023  129.2959   72.0864 H   0  0  0  0  0  0  0  0  0  0  0  0
  129.0815  129.7876   74.4530 H   0  0  0  0  0  0  0  0  0  0  0  0
  127.9981  128.3597   74.2827 H   0  0  0  0  0  0  0  0  0  0  0  0
  130.6712  126.0035   74.7913 H   0  0  0  0  0  0  0  0  0  0  0  0
  128.9099  126.1907   74.4734 H   0  0  0  0  0  0  0  0  0  0  0  0
  131.2090  126.8732   72.5609 H   0  0  0  0  0  0  0  0  0  0  0  0
  130.0081  125.5062   72.4234 H   0  0  0  0  0  0  0  0  0  0  0  0
  130.2962  129.0272   70.1433 H   0  0  0  0  0  0  0  0  0  0  0  0
  130.0813  128.8086   67.6828 H   0  0  0  0  0  0  0  0  0  0  0  0
  126.5250  130.2260   67.2690 H   0  0  0  0  0  0  0  0  0  0  0  0
  127.9340  129.3530   67.7290 H   0  0  0  0  0  0  0  0  0  0  0  0
  1  2  1  0
  2  3  1  0
  3  4  2  0
  3  5  1  0
  5  6  1  0
  6  7  1  0
  7  8  2  0
  8  9  1  0
  9 10  1  0
 10 11  2  0
 11 12  1  0
 12 13  2  0
 13 14  1  0
 14 15  1  0
 15 16  1  0
 16 17  1  0
 17 18  1  0
 18 19  1  0
 13 20  1  0
 20 21  2  0
  9 22  2  0
 22 23  1  0
 23 24  1  0
 24 25  2  0
 25 26  1  0
 26 27  2  0
 27 28  1  0
 28 29  1  0
 29 30  1  0
 30 31  1  0
 31 32  1  0
 32 33  1  0
 27 34  1  0
 34 35  2  0
 23 36  2  0
 36 37  1  0
 37 38  1  0
 37  5  2  0
 36  7  1  0
 21 10  1  0
 35 24  1  0
 19 14  1  0
 33 28  1  0
  1 39  1  0
  1 40  1  0
  1 41  1  0
 11 42  1  0
 12 43  1  0
 15 44  1  0
 15 45  1  0
 16 46  1  0
 16 47  1  0
 18 48  1  0
 18 49  1  0
 19 50  1  0
 19 51  1  0
 20 52  1  0
 21 53  1  0
 22 54  1  0
 25 55  1  0
 26 56  1  0
 29 57  1  0
 29 58  1  0
 30 59  1  0
 30 60  1  0
 32 61  1  0
 32 62  1  0
 33 63  1  0
 33 64  1  0
 34 65  1  0
 35 66  1  0
 38 67  1  0
 38 68  1  0
M  END
>  <Binding energies>  (1) 
[-8.06]

>  <Ligand effiencies>  (1) 
[-0.2015]

>  <Interactions>  (1) 
["V-A:ILE:369:CG2:3236, V-B:TYR:539:CD2:9846, V-A:LEU:475:CD1:4257, H-A:SER:385:OG:3409, H-A:HIS:383:NE2:3393, V-B:ALA:541:CB:9864, V-B:ASP:366:CG:8184, H-B:GLY:454:N:9021, V-B:ARG:545:CZ:9898, V-A:GLU:543:CD:4908, H-B:TYR:484:OH:9319, V-A:SER:385:CA:3406, V-A:SER:385:C:3404, V-A:GLU:543:C:4902, V-B:HIS:456:CE1:9041, V-A:HIS:456:CE1:4069, V-B:GLU:543:CB:9878, V-B:GLU:543:CG:9879, V-B:GLU:543:CD:9880, V-A:GLU:543:CB:4906, V-B:TYR:484:CZ:9318, V-B:TYR:484:CE2:9317, V-B:GLU:543:CA:9876, V-B:GLU:543:C:9874, V-B:HIS:456:CD2:9039, H-A:LYS:547:NZ:4951, V-A:HIS:456:CG:4065, V-A:HIS:456:CD2:4067"]

$$$$
RR10_Rahimova_2017
     RDKit          3D

 66 70  0  0  0  0  0  0  0  0999 V2000
  132.1270  132.3900   56.2520 C   0  0  0  0  0  0  0  0  0  0  0  0
  130.6740  132.0860   55.8460 C   0  0  1  0  0  0  0  0  0  0  0  0
  130.6020  131.1130   54.6470 C   0  0  0  0  0  0  0  0  0  0  0  0
  129.1360  130.8490   54.2350 C   0  0  0  0  0  0  0  0  0  0  0  0
  128.2940  130.2780   55.4050 C   0  0  1  0  0  0  0  0  0  0  0  0
  128.7340  128.9190   55.7480 N   0  0  0  0  0  0  0  0  0  0  0  0
  129.2630  128.0300   54.8870 C   0  0  0  0  0  0  0  0  0  0  0  0
  129.4570  128.2820   53.6950 O   0  0  0  0  0  0  0  0  0  0  0  0
  129.6160  126.6390   55.4550 C   0  0  1  0  0  0  0  0  0  0  0  0
  130.9710  126.7190   56.2050 C   0  0  0  0  0  0  0  0  0  0  0  0
  131.2840  125.3490   56.8540 C   0  0  0  0  0  0  0  0  0  0  0  0
  130.1160  124.8240   57.7210 C   0  0  0  0  0  0  0  0  0  0  0  0
  128.8420  124.8400   56.9510 N   0  0  0  0  0  0  0  0  0  0  0  0
  127.5010  123.9870   57.7340 S   0  0  0  0  0  0  0  0  0  0  0  0
  127.9530  122.6280   58.0590 O   0  0  0  0  0  0  0  0  0  0  0  0
  126.2990  124.1900   56.9160 O   0  0  0  0  0  0  0  0  0  0  0  0
  127.2570  124.8360   59.2940 C   0  0  0  0  0  0  0  0  0  0  0  0
  127.4930  124.1520   60.4900 C   0  0  0  0  0  0  0  0  0  0  0  0
  127.3190  124.7550   61.7390 C   0  0  0  0  0  0  0  0  0  0  0  0
  126.8960  126.0870   61.7350 C   0  0  0  0  0  0  0  0  0  0  0  0
  126.6140  127.0000   62.7230 N   0  0  0  0  0  0  0  0  0  0  0  0
  126.2330  128.1780   62.1170 C   0  0  0  0  0  0  0  0  0  0  0  0
  125.8360  129.4130   62.8750 C   0  0  0  0  0  0  0  0  0  0  0  0
  124.9310  130.3270   62.3190 C   0  0  0  0  0  0  0  0  0  0  0  0
  124.5600  131.4700   63.0220 C   0  0  0  0  0  0  0  0  0  0  0  0
  125.0940  131.7060   64.2860 C   0  0  0  0  0  0  0  0  0  0  0  0
  125.9950  130.8080   64.8520 C   0  0  0  0  0  0  0  0  0  0  0  0
  126.3650  129.6650   64.1480 C   0  0  0  0  0  0  0  0  0  0  0  0
  126.2560  128.0870   60.8050 N   0  0  0  0  0  0  0  0  0  0  0  0
  126.6590  126.8050   60.5390 C   0  0  0  0  0  0  0  0  0  0  0  0
  126.8450  126.1740   59.3000 C   0  0  0  0  0  0  0  0  0  0  0  0
  128.4910  126.1790   56.4150 C   0  0  0  0  0  0  0  0  0  0  0  0
  128.3900  131.2560   56.6070 C   0  0  0  0  0  0  0  0  0  0  0  0
  129.8540  131.5150   57.0270 C   0  0  0  0  0  0  0  0  0  0  0  0
  132.2054  132.4064   57.3491 H   0  0  0  0  0  0  0  0  0  0  0  0
  132.7910  131.6113   55.8486 H   0  0  0  0  0  0  0  0  0  0  0  0
  132.4232  133.3696   55.8486 H   0  0  0  0  0  0  0  0  0  0  0  0
  130.2329  133.0474   55.5441 H   0  0  0  0  0  0  0  0  0  0  0  0
  131.1417  131.5518   53.7948 H   0  0  0  0  0  0  0  0  0  0  0  0
  131.0602  130.1578   54.9429 H   0  0  0  0  0  0  0  0  0  0  0  0
  128.6851  131.7958   53.9028 H   0  0  0  0  0  0  0  0  0  0  0  0
  129.1409  130.1033   53.4264 H   0  0  0  0  0  0  0  0  0  0  0  0
  127.2379  130.1926   55.1095 H   0  0  0  0  0  0  0  0  0  0  0  0
  128.5080  128.6040   56.6800 H   0  0  0  0  0  0  0  0  0  0  0  0
  129.7065  125.9094   54.6368 H   0  0  0  0  0  0  0  0  0  0  0  0
  131.7689  126.9785   55.4937 H   0  0  0  0  0  0  0  0  0  0  0  0
  130.9118  127.4900   56.9873 H   0  0  0  0  0  0  0  0  0  0  0  0
  131.4873  124.6191   56.0566 H   0  0  0  0  0  0  0  0  0  0  0  0
  132.1553  125.4821   57.5121 H   0  0  0  0  0  0  0  0  0  0  0  0
  130.3349  123.7930   58.0360 H   0  0  0  0  0  0  0  0  0  0  0  0
  130.0066  125.4760   58.6002 H   0  0  0  0  0  0  0  0  0  0  0  0
  127.8266  123.1047   60.4469 H   0  0  0  0  0  0  0  0  0  0  0  0
  127.5053  124.2097   62.6760 H   0  0  0  0  0  0  0  0  0  0  0  0
  126.6570  126.8790   63.7250 H   0  0  0  0  0  0  0  0  0  0  0  0
  124.5106  130.1400   61.3198 H   0  0  0  0  0  0  0  0  0  0  0  0
  123.8483  132.1833   62.5809 H   0  0  0  0  0  0  0  0  0  0  0  0
  124.8017  132.6091   64.8419 H   0  0  0  0  0  0  0  0  0  0  0  0
  126.4128  131.0007   65.8512 H   0  0  0  0  0  0  0  0  0  0  0  0
  127.0772  128.9552   64.5940 H   0  0  0  0  0  0  0  0  0  0  0  0
  126.6718  126.7159   58.3585 H   0  0  0  0  0  0  0  0  0  0  0  0
  127.5383  126.1209   55.8682 H   0  0  0  0  0  0  0  0  0  0  0  0
  128.3853  126.8978   57.2409 H   0  0  0  0  0  0  0  0  0  0  0  0
  127.9271  132.2129   56.3241 H   0  0  0  0  0  0  0  0  0  0  0  0
  127.8678  130.7982   57.4600 H   0  0  0  0  0  0  0  0  0  0  0  0
  129.8683  132.2362   57.8574 H   0  0  0  0  0  0  0  0  0  0  0  0
  130.3043  130.5611   57.3390 H   0  0  0  0  0  0  0  0  0  0  0  0
  1  2  1  0
  2  3  1  0
  3  4  1  0
  4  5  1  0
  5  6  1  0
  6  7  1  0
  7  8  2  0
  7  9  1  0
  9 10  1  0
 10 11  1  0
 11 12  1  0
 12 13  1  0
 13 14  1  0
 14 15  2  0
 14 16  2  0
 14 17  1  0
 17 18  2  0
 18 19  1  0
 19 20  2  0
 20 21  1  0
 21 22  1  0
 22 23  1  0
 23 24  2  0
 24 25  1  0
 25 26  2  0
 26 27  1  0
 27 28  2  0
 22 29  2  0
 29 30  1  0
 30 31  2  0
 13 32  1  0
  5 33  1  0
 33 34  1  0
 34  2  1  0
 32  9  1  0
 31 17  1  0
 30 20  1  0
 28 23  1  0
  1 35  1  0
  1 36  1  0
  1 37  1  0
  2 38  1  6
  3 39  1  0
  3 40  1  0
  4 41  1  0
  4 42  1  0
  5 43  1  6
  6 44  1  0
  9 45  1  6
 10 46  1  0
 10 47  1  0
 11 48  1  0
 11 49  1  0
 12 50  1  0
 12 51  1  0
 18 52  1  0
 19 53  1  0
 21 54  1  0
 24 55  1  0
 25 56  1  0
 26 57  1  0
 27 58  1  0
 28 59  1  0
 31 60  1  0
 32 61  1  0
 32 62  1  0
 33 63  1  0
 33 64  1  0
 34 65  1  0
 34 66  1  0
M  END
>  <Binding energies>  (1) 
[-9.77]

>  <Ligand effiencies>  (1) 
[-0.2713888888888889]

>  <Interactions>  (1) 
["H-B:TYR:531:OH:9767, V-B:MET:535:CE:9807, V-A:PRO:540:N:4884, V-A:ILE:538:CA:4860, V-A:ILE:538:CG2:4863, V-A:TYR:539:CD1:4873, V-A:PRO:540:CA:4883, H-A:TYR:531:OH:4795, V-A:TYR:539:CZ:4877, V-A:PRO:540:CB:4885, V-A:TYR:539:CE1:4875, V-A:TYR:531:CZ:4794, V-A:ILE:538:CB:4862, V-B:ASP:366:CG:8184, V-B:ARG:545:CZ:9898, V-A:PRO:540:CD:4887, V-A:LEU:363:CD1:3188, V-B:ILE:369:CD1:8210, V-B:GLY:454:CA:9020, V-B:TYR:539:CZ:9849, H-B:GLU:543:OE1:9881, V-B:GLU:543:CD:9880, H-B:GLU:543:OE2:9882, V-A:PRO:540:CG:4886, V-B:LEU:475:CD1:9229"]

$$$$
RR11_Rahimova_2017
     RDKit          3D

 55 60  0  0  0  0  0  0  0  0999 V2000
  132.8860  125.4030   55.5510 N   0  0  0  0  0  0  0  0  0  0  0  0
  131.7750  126.0790   56.0510 C   0  0  0  0  0  0  0  0  0  0  0  0
  131.9390  127.0430   57.0440 C   0  0  0  0  0  0  0  0  0  0  0  0
  130.8280  127.7200   57.5400 C   0  0  0  0  0  0  0  0  0  0  0  0
  129.5460  127.4410   57.0500 C   0  0  0  0  0  0  0  0  0  0  0  0
  128.3510  128.1750   57.5820 C   0  0  0  0  0  0  0  0  0  0  0  0
  128.1990  128.5360   58.8380 N   0  0  0  0  0  0  0  0  0  0  0  0
  126.9920  129.1830   58.8850 C   0  0  0  0  0  0  0  0  0  0  0  0
  126.3480  129.7760   59.9790 C   0  0  0  0  0  0  0  0  0  0  0  0
  125.1120  130.4000   59.7660 C   0  0  0  0  0  0  0  0  0  0  0  0
  124.3850  131.0480   60.9370 C   0  0  0  0  0  0  0  0  0  0  0  0
  125.1450  130.9220   62.2500 C   0  0  0  0  0  0  0  0  0  0  0  0
  125.6840  132.0670   62.8460 C   0  0  0  0  0  0  0  0  0  0  0  0
  126.3810  132.0040   64.0550 C   0  0  0  0  0  0  0  0  0  0  0  0
  126.5250  130.7540   64.6690 C   0  0  0  0  0  0  0  0  0  0  0  0
  127.1620  130.4290   65.8380 N   0  0  0  0  0  0  0  0  0  0  0  0
  127.0150  129.1280   65.9650 C   0  0  0  0  0  0  0  0  0  0  0  0
  127.5680  128.3170   67.1010 C   0  0  0  0  0  0  0  0  0  0  0  0
  128.7370  128.7200   67.7590 C   0  0  0  0  0  0  0  0  0  0  0  0
  129.2570  127.9630   68.8060 C   0  0  0  0  0  0  0  0  0  0  0  0
  128.6090  126.7950   69.2030 C   0  0  0  0  0  0  0  0  0  0  0  0
  129.1310  126.0340   70.2480 N   0  0  0  0  0  0  0  0  0  0  0  0
  127.4440  126.3840   68.5610 C   0  0  0  0  0  0  0  0  0  0  0  0
  126.9250  127.1420   67.5150 C   0  0  0  0  0  0  0  0  0  0  0  0
  126.2950  128.5860   64.9210 N   0  0  0  0  0  0  0  0  0  0  0  0
  125.9630  129.6060   64.0610 C   0  0  0  0  0  0  0  0  0  0  0  0
  125.2610  129.6630   62.8540 C   0  0  0  0  0  0  0  0  0  0  0  0
  124.5260  130.4060   58.4950 C   0  0  0  0  0  0  0  0  0  0  0  0
  125.1410  129.8190   57.3860 C   0  0  0  0  0  0  0  0  0  0  0  0
  126.3810  129.2150   57.6090 C   0  0  0  0  0  0  0  0  0  0  0  0
  127.2790  128.5570   56.8020 N   0  0  0  0  0  0  0  0  0  0  0  0
  129.3960  126.4680   56.0530 C   0  0  0  0  0  0  0  0  0  0  0  0
  130.5050  125.7890   55.5540 C   0  0  0  0  0  0  0  0  0  0  0  0
  133.6720  125.9300   55.1970 H   0  0  0  0  0  0  0  0  0  0  0  0
  132.9100  124.3940   55.5860 H   0  0  0  0  0  0  0  0  0  0  0  0
  132.9424  127.2682   57.4345 H   0  0  0  0  0  0  0  0  0  0  0  0
  130.9584  128.4808   58.3237 H   0  0  0  0  0  0  0  0  0  0  0  0
  126.8019  129.7521   60.9807 H   0  0  0  0  0  0  0  0  0  0  0  0
  124.2436  132.1160   60.7146 H   0  0  0  0  0  0  0  0  0  0  0  0
  123.4254  130.5245   61.0599 H   0  0  0  0  0  0  0  0  0  0  0  0
  125.5559  133.0407   62.3506 H   0  0  0  0  0  0  0  0  0  0  0  0
  126.8046  132.9107   64.5116 H   0  0  0  0  0  0  0  0  0  0  0  0
  129.2486  129.6421   67.4462 H   0  0  0  0  0  0  0  0  0  0  0  0
  130.1757  128.2859   69.3176 H   0  0  0  0  0  0  0  0  0  0  0  0
  129.5260  126.4990   71.0530 H   0  0  0  0  0  0  0  0  0  0  0  0
  129.0760  125.0260   70.2040 H   0  0  0  0  0  0  0  0  0  0  0  0
  126.9348  125.4625   68.8795 H   0  0  0  0  0  0  0  0  0  0  0  0
  126.0037  126.8166   67.0097 H   0  0  0  0  0  0  0  0  0  0  0  0
  126.0810  127.6020   64.8460 H   0  0  0  0  0  0  0  0  0  0  0  0
  124.8208  128.7630   62.4000 H   0  0  0  0  0  0  0  0  0  0  0  0
  123.5468  130.8899   58.3645 H   0  0  0  0  0  0  0  0  0  0  0  0
  124.6737  129.8318   56.3903 H   0  0  0  0  0  0  0  0  0  0  0  0
  127.2160  128.3660   55.8130 H   0  0  0  0  0  0  0  0  0  0  0  0
  128.3941  126.2385   55.6611 H   0  0  0  0  0  0  0  0  0  0  0  0
  130.3794  125.0269   54.7708 H   0  0  0  0  0  0  0  0  0  0  0  0
  1  2  1  0
  2  3  2  0
  3  4  1  0
  4  5  2  0
  5  6  1  0
  6  7  2  0
  7  8  1  0
  8  9  2  0
  9 10  1  0
 10 11  1  0
 11 12  1  0
 12 13  2  0
 13 14  1  0
 14 15  2  0
 15 16  1  0
 16 17  2  0
 17 18  1  0
 18 19  2  0
 19 20  1  0
 20 21  2  0
 21 22  1  0
 21 23  1  0
 23 24  2  0
 17 25  1  0
 25 26  1  0
 26 27  2  0
 10 28  2  0
 28 29  1  0
 29 30  2  0
 30 31  1  0
  5 32  1  0
 32 33  2  0
 33  2  1  0
 31  6  1  0
 30  8  1  0
 27 12  1  0
 26 15  1  0
 24 18  1  0
  1 34  1  0
  1 35  1  0
  3 36  1  0
  4 37  1  0
  9 38  1  0
 11 39  1  0
 11 40  1  0
 13 41  1  0
 14 42  1  0
 19 43  1  0
 20 44  1  0
 22 45  1  0
 22 46  1  0
 23 47  1  0
 24 48  1  0
 25 49  1  0
 27 50  1  0
 28 51  1  0
 29 52  1  0
 31 53  1  0
 32 54  1  0
 33 55  1  0
M  END
>  <Binding energies>  (1) 
[-8.64]

>  <Ligand effiencies>  (1) 
[-0.22153846153846155]

>  <Interactions>  (1) 
["H-B:TYR:531:OH:9767, V-B:MET:535:CE:9807, V-B:TYR:531:CZ:9766, V-A:ASP:366:CG:3212, V-A:TYR:531:CE1:4792, V-A:ASP:366:CB:3211, V-A:ASN:370:CB:3244, V-A:ASP:366:C:3207, H-B:TYR:539:OH:9850, H-A:TYR:531:OH:4795, V-A:TYR:539:CZ:4877, V-A:TYR:539:CE1:4875, V-A:TYR:531:CZ:4794, V-B:ASP:366:CG:8184, V-B:TYR:531:CE1:9764, V-B:ASP:366:CB:8183, V-B:ARG:545:CZ:9898, V-B:ASP:366:CA:8181, V-B:ILE:369:CD1:8210, V-A:GLU:543:CG:4907, V-A:GLU:543:CD:4908, H-B:TYR:484:OH:9319, V-B:ASP:366:C:8179, V-B:HIS:456:CE1:9041, V-A:HIS:456:CE1:4069, V-B:GLU:543:CB:9878, H-B:GLU:543:OE1:9881, V-B:GLU:543:CD:9880, H-B:GLU:543:OE2:9882, V-A:GLU:543:CB:4906, V-B:LEU:475:CD1:9229, V-B:ILE:369:CG2:8208, V-B:GLU:543:CA:9876, V-B:GLU:543:C:9874, V-B:ARG:545:CG:9894, H-A:ASN:370:OD1:3246, H-A:ASP:366:O:3208, H-A:HIS:456:NE2:4070, V-A:ASN:370:CG:3245, H-B:HIS:456:NE2:9042, H-B:GLU:543:O:9875"]

$$$$
RR11_Rahimova_2017-again1
     RDKit          3D

 56 61  0  0  0  0  0  0  0  0999 V2000
  132.8480  125.3870   55.8090 N   0  0  0  0  0  0  0  0  0  0  0  0
  131.7050  126.0370   56.2710 C   0  0  0  0  0  0  0  0  0  0  0  0
  130.5080  125.9190   55.5680 C   0  0  0  0  0  0  0  0  0  0  0  0
  129.3670  126.5720   56.0290 C   0  0  0  0  0  0  0  0  0  0  0  0
  129.4140  127.3480   57.1950 C   0  0  0  0  0  0  0  0  0  0  0  0
  128.1860  128.0580   57.6860 C   0  0  0  0  0  0  0  0  0  0  0  0
  127.2870  128.6120   56.9040 N   0  0  0  0  0  0  0  0  0  0  0  0
  126.3590  129.1600   57.7510 C   0  0  0  0  0  0  0  0  0  0  0  0
  125.1920  129.8740   57.4480 C   0  0  0  0  0  0  0  0  0  0  0  0
  124.4140  130.3450   58.5070 C   0  0  0  0  0  0  0  0  0  0  0  0
  124.7770  130.1210   59.8390 C   0  0  0  0  0  0  0  0  0  0  0  0
  123.8940  130.6600   60.9560 C   0  0  0  0  0  0  0  0  0  0  0  0
  124.5630  130.5850   62.3210 C   0  0  0  0  0  0  0  0  0  0  0  0
  124.7610  131.7580   63.0590 C   0  0  0  0  0  0  0  0  0  0  0  0
  125.3720  131.7510   64.3160 C   0  0  0  0  0  0  0  0  0  0  0  0
  125.7750  130.5070   64.8100 C   0  0  0  0  0  0  0  0  0  0  0  0
  126.4090  130.1410   65.9900 N   0  0  0  0  0  0  0  0  0  0  0  0
  126.6040  128.7790   66.0180 C   0  0  0  0  0  0  0  0  0  0  0  0
  127.2650  127.9890   67.1010 C   0  0  0  0  0  0  0  0  0  0  0  0
  126.6130  126.8840   67.6610 C   0  0  0  0  0  0  0  0  0  0  0  0
  127.2280  126.1380   68.6630 C   0  0  0  0  0  0  0  0  0  0  0  0
  128.4990  126.4960   69.1120 C   0  0  0  0  0  0  0  0  0  0  0  0
  129.1150  125.7460   70.1130 N   0  0  0  0  0  0  0  0  0  0  0  0
  129.1560  127.5960   68.5620 C   0  0  0  0  0  0  0  0  0  0  0  0
  128.5400  128.3400   67.5590 C   0  0  0  0  0  0  0  0  0  0  0  0
  126.0790  128.2880   64.8460 N   0  0  0  0  0  0  0  0  0  0  0  0
  125.5660  129.3250   64.0800 C   0  0  0  0  0  0  0  0  0  0  0  0
  124.9490  129.3370   62.8260 C   0  0  0  0  0  0  0  0  0  0  0  0
  125.9260  129.3890   60.1680 C   0  0  0  0  0  0  0  0  0  0  0  0
  126.7040  128.9280   59.1040 C   0  0  0  0  0  0  0  0  0  0  0  0
  127.8770  128.2140   59.0210 N   0  0  0  0  0  0  0  0  0  0  0  0
  130.6250  127.4570   57.8920 C   0  0  0  0  0  0  0  0  0  0  0  0
  131.7660  126.8040   57.4330 C   0  0  0  0  0  0  0  0  0  0  0  0
  132.8980  124.3790   55.8520 H   0  0  0  0  0  0  0  0  0  0  0  0
  133.6290  125.9330   55.4750 H   0  0  0  0  0  0  0  0  0  0  0  0
  130.4639  125.3120   54.6517 H   0  0  0  0  0  0  0  0  0  0  0  0
  128.4222  126.4778   55.4736 H   0  0  0  0  0  0  0  0  0  0  0  0
  124.8971  130.0583   56.4044 H   0  0  0  0  0  0  0  0  0  0  0  0
  123.4932  130.9058   58.2886 H   0  0  0  0  0  0  0  0  0  0  0  0
  123.6542  131.7113   60.7388 H   0  0  0  0  0  0  0  0  0  0  0  0
  122.9889  130.0361   60.9947 H   0  0  0  0  0  0  0  0  0  0  0  0
  124.4249  132.7161   62.6359 H   0  0  0  0  0  0  0  0  0  0  0  0
  125.5279  132.6777   64.8877 H   0  0  0  0  0  0  0  0  0  0  0  0
  126.7070  130.7470   66.7410 H   0  0  0  0  0  0  0  0  0  0  0  0
  125.6097  126.6037   67.3076 H   0  0  0  0  0  0  0  0  0  0  0  0
  126.7131  125.2692   69.0990 H   0  0  0  0  0  0  0  0  0  0  0  0
  128.9810  124.7450   70.1390 H   0  0  0  0  0  0  0  0  0  0  0  0
  129.6660  126.2150   70.8170 H   0  0  0  0  0  0  0  0  0  0  0  0
  130.1581  127.8753   68.9194 H   0  0  0  0  0  0  0  0  0  0  0  0
  129.0580  129.2077   67.1246 H   0  0  0  0  0  0  0  0  0  0  0  0
  126.0950  127.3050   64.6180 H   0  0  0  0  0  0  0  0  0  0  0  0
  124.7746  128.4090   62.2617 H   0  0  0  0  0  0  0  0  0  0  0  0
  126.2016  129.1874   61.2137 H   0  0  0  0  0  0  0  0  0  0  0  0
  128.4510  127.8540   59.7690 H   0  0  0  0  0  0  0  0  0  0  0  0
  130.6745  128.0630   58.8087 H   0  0  0  0  0  0  0  0  0  0  0  0
  132.7127  126.8933   57.9859 H   0  0  0  0  0  0  0  0  0  0  0  0
  1  2  1  0
  2  3  2  0
  3  4  1  0
  4  5  2  0
  5  6  1  0
  6  7  2  0
  7  8  1  0
  8  9  2  0
  9 10  1  0
 10 11  2  0
 11 12  1  0
 12 13  1  0
 13 14  2  0
 14 15  1  0
 15 16  2  0
 16 17  1  0
 17 18  1  0
 18 19  1  0
 19 20  2  0
 20 21  1  0
 21 22  2  0
 22 23  1  0
 22 24  1  0
 24 25  2  0
 18 26  2  0
 26 27  1  0
 27 28  2  0
 11 29  1  0
 29 30  2  0
 30 31  1  0
  5 32  1  0
 32 33  2  0
 33  2  1  0
 31  6  1  0
 30  8  1  0
 28 13  1  0
 27 16  1  0
 25 19  1  0
  1 34  1  0
  1 35  1  0
  3 36  1  0
  4 37  1  0
  9 38  1  0
 10 39  1  0
 12 40  1  0
 12 41  1  0
 14 42  1  0
 15 43  1  0
 17 44  1  0
 20 45  1  0
 21 46  1  0
 23 47  1  0
 23 48  1  0
 24 49  1  0
 25 50  1  0
 26 51  1  0
 28 52  1  0
 29 53  1  0
 31 54  1  0
 32 55  1  0
 33 56  1  0
M  CHG  1  26   1
M  END
>  <Binding energies>  (1) 
[-9.19]

>  <Ligand effiencies>  (1) 
[-0.22974999999999998]

>  <Interactions>  (1) 
["H-B:TYR:531:OH:9767, V-B:MET:535:CE:9807, V-A:ASP:366:CG:3212, V-A:TYR:531:CE1:4792, V-A:ASP:366:CB:3211, V-A:ASN:370:CB:3244, V-A:ASP:366:C:3207, H-B:TYR:539:OH:9850, H-A:TYR:531:OH:4795, V-A:TYR:539:CZ:4877, V-A:TYR:539:CE1:4875, V-B:ASP:366:CG:8184, V-B:ASP:366:CB:8183, V-B:ARG:545:CZ:9898, V-B:ASP:366:CA:8181, V-B:ILE:369:CD1:8210, V-B:GLY:454:CA:9020, H-B:TYR:484:OH:9319, V-B:ASP:366:C:8179, V-B:HIS:456:CE1:9041, V-A:HIS:456:CE1:4069, V-B:GLU:543:CB:9878, V-B:GLU:543:CG:9879, H-B:GLU:543:OE1:9881, V-B:GLU:543:CD:9880, H-B:GLU:543:OE2:9882, V-A:GLU:543:CB:4906, V-B:TYR:484:CZ:9318, V-B:LEU:475:CD1:9229, V-B:ILE:369:CG2:8208, V-B:TYR:484:CE2:9317, V-B:GLU:543:CA:9876, V-B:GLU:543:C:9874, V-B:ARG:545:CG:9894, H-A:ASN:370:OD1:3246, H-A:ASP:366:O:3208, H-A:HIS:456:NE2:4070, H-B:GLU:543:O:9875"]

$$$$
RR11_Rahimova_2017-again2
     RDKit          3D

 57 62  0  0  0  0  0  0  0  0999 V2000
  129.1250  125.9420   70.3100 N   0  0  0  0  0  0  0  0  0  0  0  0
  128.5550  126.6510   69.2540 C   0  0  0  0  0  0  0  0  0  0  0  0
  129.1820  127.7970   68.7690 C   0  0  0  0  0  0  0  0  0  0  0  0
  128.6100  128.5090   67.7180 C   0  0  0  0  0  0  0  0  0  0  0  0
  127.4060  128.0770   67.1460 C   0  0  0  0  0  0  0  0  0  0  0  0
  126.7860  128.8460   66.0250 C   0  0  0  0  0  0  0  0  0  0  0  0
  126.3930  128.3480   64.8030 N   0  0  0  0  0  0  0  0  0  0  0  0
  125.8400  129.3610   64.0310 C   0  0  0  0  0  0  0  0  0  0  0  0
  125.2960  129.3570   62.7440 C   0  0  0  0  0  0  0  0  0  0  0  0
  124.7970  130.5740   62.2620 C   0  0  0  0  0  0  0  0  0  0  0  0
  124.1870  130.6310   60.8680 C   0  0  0  0  0  0  0  0  0  0  0  0
  125.0570  129.9590   59.8150 C   0  0  0  0  0  0  0  0  0  0  0  0
  124.6400  129.9480   58.4790 C   0  0  0  0  0  0  0  0  0  0  0  0
  125.3950  129.3470   57.4690 C   0  0  0  0  0  0  0  0  0  0  0  0
  126.6010  128.7560   57.8560 C   0  0  0  0  0  0  0  0  0  0  0  0
  127.5710  128.0770   57.1320 N   0  0  0  0  0  0  0  0  0  0  0  0
  128.5870  127.6720   57.9660 C   0  0  0  0  0  0  0  0  0  0  0  0
  129.8080  126.9000   57.5840 C   0  0  0  0  0  0  0  0  0  0  0  0
  130.1930  126.8060   56.2420 C   0  0  0  0  0  0  0  0  0  0  0  0
  131.3370  126.0960   55.8860 C   0  0  0  0  0  0  0  0  0  0  0  0
  132.1010  125.4750   56.8720 C   0  0  0  0  0  0  0  0  0  0  0  0
  133.2500  124.7680   56.5170 N   0  0  0  0  0  0  0  0  0  0  0  0
  131.7250  125.5580   58.2120 C   0  0  0  0  0  0  0  0  0  0  0  0
  130.5820  126.2700   58.5670 C   0  0  0  0  0  0  0  0  0  0  0  0
  128.2520  128.1100   59.2260 N   0  0  0  0  0  0  0  0  0  0  0  0
  127.0330  128.7750   59.1920 C   0  0  0  0  0  0  0  0  0  0  0  0
  126.2760  129.3830   60.1980 C   0  0  0  0  0  0  0  0  0  0  0  0
  124.8730  131.7420   63.0290 C   0  0  0  0  0  0  0  0  0  0  0  0
  125.4220  131.7540   64.3140 C   0  0  0  0  0  0  0  0  0  0  0  0
  125.9000  130.5340   64.8010 C   0  0  0  0  0  0  0  0  0  0  0  0
  126.4840  130.1880   66.0120 N   0  0  0  0  0  0  0  0  0  0  0  0
  126.7870  126.9220   67.6380 C   0  0  0  0  0  0  0  0  0  0  0  0
  127.3600  126.2110   68.6890 C   0  0  0  0  0  0  0  0  0  0  0  0
  129.0180  124.9390   70.3510 H   0  0  0  0  0  0  0  0  0  0  0  0
  129.5820  126.4450   71.0580 H   0  0  0  0  0  0  0  0  0  0  0  0
  130.1274  128.1386   69.2157 H   0  0  0  0  0  0  0  0  0  0  0  0
  129.1050  129.4138   67.3354 H   0  0  0  0  0  0  0  0  0  0  0  0
  126.5040  127.3760   64.5550 H   0  0  0  0  0  0  0  0  0  0  0  0
  125.2612  128.4402   62.1371 H   0  0  0  0  0  0  0  0  0  0  0  0
  123.2100  130.1260   60.8911 H   0  0  0  0  0  0  0  0  0  0  0  0
  124.0921  131.6914   60.5913 H   0  0  0  0  0  0  0  0  0  0  0  0
  123.6862  130.4285   58.2156 H   0  0  0  0  0  0  0  0  0  0  0  0
  125.0575  129.3393   56.4221 H   0  0  0  0  0  0  0  0  0  0  0  0
  127.5740  127.8800   56.1420 H   0  0  0  0  0  0  0  0  0  0  0  0
  129.5888  127.2955   55.4640 H   0  0  0  0  0  0  0  0  0  0  0  0
  131.6365  126.0257   54.8299 H   0  0  0  0  0  0  0  0  0  0  0  0
  133.2430  124.1910   55.6900 H   0  0  0  0  0  0  0  0  0  0  0  0
  134.0530  124.7900   57.1280 H   0  0  0  0  0  0  0  0  0  0  0  0
  132.3292  125.0627   58.9863 H   0  0  0  0  0  0  0  0  0  0  0  0
  130.2856  126.3380   59.6241 H   0  0  0  0  0  0  0  0  0  0  0  0
  128.8370  127.9410   60.0320 H   0  0  0  0  0  0  0  0  0  0  0  0
  126.6213  129.4081   61.2421 H   0  0  0  0  0  0  0  0  0  0  0  0
  124.4879  132.6817   62.6064 H   0  0  0  0  0  0  0  0  0  0  0  0
  125.4753  132.6760   64.9115 H   0  0  0  0  0  0  0  0  0  0  0  0
  126.6750  130.7920   66.7980 H   0  0  0  0  0  0  0  0  0  0  0  0
  125.8434  126.5744   67.1922 H   0  0  0  0  0  0  0  0  0  0  0  0
  126.8702  125.3038   69.0724 H   0  0  0  0  0  0  0  0  0  0  0  0
  1  2  1  0
  2  3  2  0
  3  4  1  0
  4  5  2  0
  5  6  1  0
  6  7  1  0
  7  8  1  0
  8  9  2  0
  9 10  1  0
 10 11  1  0
 11 12  1  0
 12 13  2  0
 13 14  1  0
 14 15  2  0
 15 16  1  0
 16 17  1  0
 17 18  1  0
 18 19  2  0
 19 20  1  0
 20 21  2  0
 21 22  1  0
 21 23  1  0
 23 24  2  0
 17 25  2  0
 25 26  1  0
 26 27  2  0
 10 28  2  0
 28 29  1  0
 29 30  2  0
 30 31  1  0
  5 32  1  0
 32 33  2  0
 33  2  1  0
 31  6  2  0
 30  8  1  0
 27 12  1  0
 26 15  1  0
 24 18  1  0
  1 34  1  0
  1 35  1  0
  3 36  1  0
  4 37  1  0
  7 38  1  0
  9 39  1  0
 11 40  1  0
 11 41  1  0
 13 42  1  0
 14 43  1  0
 16 44  1  0
 19 45  1  0
 20 46  1  0
 22 47  1  0
 22 48  1  0
 23 49  1  0
 24 50  1  0
 25 51  1  0
 27 52  1  0
 28 53  1  0
 29 54  1  0
 31 55  1  0
 32 56  1  0
 33 57  1  0
M  CHG  2  25   1  31   1
M  END
>  <Binding energies>  (1) 
[-10.11]

>  <Ligand effiencies>  (1) 
[-0.24658536585365853]

>  <Interactions>  (1) 
["H-B:TYR:531:OH:9767, V-B:TYR:531:CZ:9766, V-A:ASP:366:CG:3212, V-A:ASP:366:CA:3209, V-A:ASP:366:CB:3211, V-A:ASN:370:CB:3244, V-A:ASP:366:C:3207, H-B:TYR:539:OH:9850, V-A:TYR:539:CE1:4875, V-B:ASP:366:CG:8184, V-B:TYR:531:CE1:9764, V-B:ASP:366:CB:8183, V-B:ARG:545:CZ:9898, V-B:ASP:366:CA:8181, V-B:ILE:369:CD1:8210, V-A:GLU:543:CG:4907, V-B:GLY:454:CA:9020, H-B:TYR:484:OH:9319, V-B:ASP:366:C:8179, V-B:TYR:539:CZ:9849, V-B:HIS:456:CE1:9041, V-A:HIS:456:CE1:4069, V-B:GLU:543:CB:9878, V-B:GLU:543:CG:9879, H-B:GLU:543:OE1:9881, V-B:GLU:543:CD:9880, H-B:GLU:543:OE2:9882, V-A:GLU:543:CB:4906, V-B:TYR:484:CZ:9318, V-B:LEU:475:CD1:9229, V-B:ILE:369:CG2:8208, V-B:TYR:484:CE2:9317, V-B:GLU:543:CA:9876, V-B:GLU:543:C:9874, V-B:ARG:545:CG:9894, H-A:ASN:370:OD1:3246, H-A:ASP:366:O:3208, H-A:HIS:456:NE2:4070, H-B:GLU:543:O:9875"]

$$$$
RR12_Rahimova_2017
     RDKit          3D

 51 53  0  0  0  0  0  0  0  0999 V2000
  126.6060  122.6990   57.1840 C   0  0  0  0  0  0  0  0  0  0  0  0
  128.0880  123.0270   57.4080 C   0  0  0  0  0  0  0  0  0  0  0  0
  128.3710  124.5400   57.3670 C   0  0  0  0  0  0  0  0  0  0  0  0
  129.7950  124.7950   57.1600 N   0  0  0  0  0  0  0  0  0  0  0  0
  130.3770  125.5830   56.1790 C   0  0  0  0  0  0  0  0  0  0  0  0
  129.5950  126.2990   55.0920 C   0  0  0  0  0  0  0  0  0  0  0  0
  129.3400  127.7790   55.4300 C   0  0  0  0  0  0  0  0  0  0  0  0
  129.4950  128.7040   54.2070 C   0  0  0  0  0  0  0  0  0  0  0  0
  129.5970  130.1220   54.5490 N   0  0  0  0  0  0  0  0  0  0  0  0
  128.5590  130.9750   54.6200 C   0  0  0  0  0  0  0  0  0  0  0  0
  127.3930  130.6410   54.3960 O   0  0  0  0  0  0  0  0  0  0  0  0
  128.9100  132.4170   55.0080 C   0  0  0  0  0  0  0  0  0  0  0  0
  130.3020  132.5020   55.3190 O   0  0  0  0  0  0  0  0  0  0  0  0
  130.7590  131.9940   56.5200 C   0  0  0  0  0  0  0  0  0  0  0  0
  132.0880  131.5650   56.5460 C   0  0  0  0  0  0  0  0  0  0  0  0
  132.6400  131.0410   57.7130 C   0  0  0  0  0  0  0  0  0  0  0  0
  131.8590  130.9460   58.8610 C   0  0  0  0  0  0  0  0  0  0  0  0
  130.5310  131.3670   58.8520 C   0  0  0  0  0  0  0  0  0  0  0  0
  129.9810  131.8900   57.6850 C   0  0  0  0  0  0  0  0  0  0  0  0
  131.6830  125.6400   56.2670 N   0  0  0  0  0  0  0  0  0  0  0  0
  131.9950  124.8850   57.3630 C   0  0  0  0  0  0  0  0  0  0  0  0
  133.2540  124.6160   57.9210 C   0  0  0  0  0  0  0  0  0  0  0  0
  133.3110  123.8120   59.0590 C   0  0  0  0  0  0  0  0  0  0  0  0
  132.1530  123.2850   59.6320 C   0  0  0  0  0  0  0  0  0  0  0  0
  130.8860  123.5330   59.1000 C   0  0  0  0  0  0  0  0  0  0  0  0
  130.8300  124.3400   57.9570 C   0  0  0  0  0  0  0  0  0  0  0  0
  126.1040  122.5879   58.1564 H   0  0  0  0  0  0  0  0  0  0  0  0
  126.1317  123.5139   56.6175 H   0  0  0  0  0  0  0  0  0  0  0  0
  126.5198  121.7600   56.6175 H   0  0  0  0  0  0  0  0  0  0  0  0
  128.3903  122.6383   58.3916 H   0  0  0  0  0  0  0  0  0  0  0  0
  128.6603  122.5583   56.5939 H   0  0  0  0  0  0  0  0  0  0  0  0
  127.7999  124.9917   56.5425 H   0  0  0  0  0  0  0  0  0  0  0  0
  128.0692  124.9818   58.3281 H   0  0  0  0  0  0  0  0  0  0  0  0
  130.1648  126.2443   54.1527 H   0  0  0  0  0  0  0  0  0  0  0  0
  128.6175  125.8029   55.0002 H   0  0  0  0  0  0  0  0  0  0  0  0
  128.3163  127.8796   55.8197 H   0  0  0  0  0  0  0  0  0  0  0  0
  130.0905  128.0838   56.1742 H   0  0  0  0  0  0  0  0  0  0  0  0
  130.4060  128.4117   53.6643 H   0  0  0  0  0  0  0  0  0  0  0  0
  128.5863  128.5857   53.5985 H   0  0  0  0  0  0  0  0  0  0  0  0
  130.5240  130.4690   54.7500 H   0  0  0  0  0  0  0  0  0  0  0  0
  128.6805  133.0888   54.1678 H   0  0  0  0  0  0  0  0  0  0  0  0
  128.3194  132.7138   55.8873 H   0  0  0  0  0  0  0  0  0  0  0  0
  132.7038  131.6415   55.6377 H   0  0  0  0  0  0  0  0  0  0  0  0
  133.6871  130.7043   57.7269 H   0  0  0  0  0  0  0  0  0  0  0  0
  132.2942  130.5348   59.7838 H   0  0  0  0  0  0  0  0  0  0  0  0
  129.9198  131.2865   59.7630 H   0  0  0  0  0  0  0  0  0  0  0  0
  128.9327  132.2232   57.6751 H   0  0  0  0  0  0  0  0  0  0  0  0
  134.1705  125.0278   57.4733 H   0  0  0  0  0  0  0  0  0  0  0  0
  134.2875  123.5890   59.5136 H   0  0  0  0  0  0  0  0  0  0  0  0
  132.2408  122.6553   60.5297 H   0  0  0  0  0  0  0  0  0  0  0  0
  129.9766  123.1150   59.5564 H   0  0  0  0  0  0  0  0  0  0  0  0
  1  2  1  0
  2  3  1  0
  3  4  1  0
  4  5  1  0
  5  6  1  0
  6  7  1  0
  7  8  1  0
  8  9  1  0
  9 10  1  0
 10 11  2  0
 10 12  1  0
 12 13  1  0
 13 14  1  0
 14 15  2  0
 15 16  1  0
 16 17  2  0
 17 18  1  0
 18 19  2  0
  5 20  2  0
 20 21  1  0
 21 22  2  0
 22 23  1  0
 23 24  2  0
 24 25  1  0
 25 26  2  0
 26  4  1  0
 19 14  1  0
 26 21  1  0
  1 27  1  0
  1 28  1  0
  1 29  1  0
  2 30  1  0
  2 31  1  0
  3 32  1  0
  3 33  1  0
  6 34  1  0
  6 35  1  0
  7 36  1  0
  7 37  1  0
  8 38  1  0
  8 39  1  0
  9 40  1  0
 12 41  1  0
 12 42  1  0
 15 43  1  0
 16 44  1  0
 17 45  1  0
 18 46  1  0
 19 47  1  0
 22 48  1  0
 23 49  1  0
 24 50  1  0
 25 51  1  0
M  END
>  <Binding energies>  (1) 
[-7.66]

>  <Ligand effiencies>  (1) 
[-0.28370370370370374]

>  <Interactions>  (1) 
["V-B:MET:535:CE:9807, V-A:ILE:369:CG2:3236, V-B:PRO:540:N:9856, V-B:PRO:540:CA:9855, V-B:TYR:539:CE2:9848, V-A:ASP:366:CG:3212, V-A:PRO:540:N:4884, V-A:ILE:538:CA:4860, V-A:ASP:366:CA:3209, V-A:ASP:366:CB:3211, V-A:TYR:539:CG:4872, V-A:ILE:538:CG2:4863, V-A:ASP:366:C:3207, H-B:TYR:539:OH:9850, V-A:TYR:539:CD1:4873, V-A:TYR:539:CE2:4876, V-A:PRO:540:CA:4883, H-A:TYR:531:OH:4795, H-A:TYR:539:N:4870, V-A:TYR:539:CZ:4877, V-A:TYR:539:CD2:4874, V-A:PRO:540:CB:4885, V-A:TYR:539:CE1:4875, V-A:TYR:531:CZ:4794, V-A:ILE:538:CB:4862, H-B:LYS:534:NZ:9795, V-A:TYR:539:C:4867, V-A:LEU:363:CD1:3188, V-B:TYR:539:CZ:9849, H-A:TYR:539:OH:4878, V-A:ILE:538:C:4858"]

$$$$
RR13_Rahimova_2017
     RDKit          3D

 84 90  0  0  0  0  0  0  0  0999 V2000
  133.3310  131.0150   58.1220 Cl  0  0  0  0  0  0  0  0  0  0  0  0
  131.8850  130.8750   57.1800 C   0  0  0  0  0  0  0  0  0  0  0  0
  131.8490  131.5250   55.9440 C   0  0  0  0  0  0  0  0  0  0  0  0
  130.7070  131.4690   55.1490 C   0  0  0  0  0  0  0  0  0  0  0  0
  129.5900  130.7620   55.5870 C   0  0  0  0  0  0  0  0  0  0  0  0
  129.6190  130.1110   56.8190 C   0  0  0  0  0  0  0  0  0  0  0  0
  130.7650  130.1470   57.6290 C   0  0  0  0  0  0  0  0  0  0  0  0
  130.7620  129.4380   59.0020 C   0  0  1  0  0  0  0  0  0  0  0  0
  130.6940  130.4570   60.1490 C   0  0  0  0  0  0  0  0  0  0  0  0
  131.5660  130.6040   61.1220 N   0  0  0  0  0  0  0  0  0  0  0  0
  131.0700  131.6230   61.9280 N   0  0  0  0  0  0  0  0  0  0  0  0
  129.8650  132.0780   61.4300 N   0  0  0  0  0  0  0  0  0  0  0  0
  129.6430  131.3260   60.3460 N   0  0  0  0  0  0  0  0  0  0  0  0
  128.4600  131.5500   59.5230 C   0  0  0  0  0  0  0  0  0  0  0  0
  127.2430  130.8260   60.1290 C   0  0  0  0  0  0  0  0  0  0  0  0
  126.1850  130.5060   59.0840 C   0  0  0  0  0  0  0  0  0  0  0  0
  124.8660  130.9240   59.2770 C   0  0  0  0  0  0  0  0  0  0  0  0
  123.8970  130.6240   58.3230 C   0  0  0  0  0  0  0  0  0  0  0  0
  124.2510  129.9080   57.1810 C   0  0  0  0  0  0  0  0  0  0  0  0
  125.5640  129.4880   56.9840 C   0  0  0  0  0  0  0  0  0  0  0  0
  126.5340  129.7870   57.9380 C   0  0  0  0  0  0  0  0  0  0  0  0
  129.7260  128.3840   59.1200 N   0  0  0  0  0  0  0  0  0  0  0  0
  129.3810  128.1540   60.5350 C   0  0  0  0  0  0  0  0  0  0  0  0
  128.2090  127.1530   60.6590 C   0  0  0  0  0  0  0  0  0  0  0  0
  128.5740  125.8500   60.0790 N   0  0  0  0  0  0  0  0  0  0  0  0
  127.5090  124.8350   60.2490 C   0  0  1  0  0  0  0  0  0  0  0  0
  127.0630  124.1150   58.9580 C   0  0  0  0  0  0  0  0  0  0  0  0
  127.7200  122.9200   58.6320 C   0  0  0  0  0  0  0  0  0  0  0  0
  127.3720  122.1930   57.4940 C   0  0  0  0  0  0  0  0  0  0  0  0
  126.3610  122.6560   56.6570 C   0  0  0  0  0  0  0  0  0  0  0  0
  125.7070  123.8490   56.9540 C   0  0  0  0  0  0  0  0  0  0  0  0
  126.0510  124.5870   58.0900 C   0  0  0  0  0  0  0  0  0  0  0  0
  125.2270  126.0910   58.3340 Cl  0  0  0  0  0  0  0  0  0  0  0  0
  127.8230  123.8100   61.3410 C   0  0  0  0  0  0  0  0  0  0  0  0
  126.9400  123.2420   62.1300 N   0  0  0  0  0  0  0  0  0  0  0  0
  127.6590  122.3760   62.9470 N   0  0  0  0  0  0  0  0  0  0  0  0
  128.9990  122.4220   62.6220 N   0  0  0  0  0  0  0  0  0  0  0  0
  129.0740  123.2980   61.6140 N   0  0  0  0  0  0  0  0  0  0  0  0
  130.3680  123.6200   61.0200 C   0  0  0  0  0  0  0  0  0  0  0  0
  130.6900  122.6440   59.8740 C   0  0  0  0  0  0  0  0  0  0  0  0
  131.2580  121.3280   60.3830 C   0  0  0  0  0  0  0  0  0  0  0  0
  132.6410  121.1290   60.4100 C   0  0  0  0  0  0  0  0  0  0  0  0
  133.1610  119.9270   60.8830 C   0  0  0  0  0  0  0  0  0  0  0  0
  132.2970  118.9280   61.3260 C   0  0  0  0  0  0  0  0  0  0  0  0
  130.9160  119.1210   61.3020 C   0  0  0  0  0  0  0  0  0  0  0  0
  130.3960  120.3230   60.8300 C   0  0  0  0  0  0  0  0  0  0  0  0
  128.9130  126.0840   58.6640 C   0  0  0  0  0  0  0  0  0  0  0  0
  130.0920  127.0770   58.5470 C   0  0  0  0  0  0  0  0  0  0  0  0
  132.7294  132.0853   55.5961 H   0  0  0  0  0  0  0  0  0  0  0  0
  130.6873  131.9825   54.1764 H   0  0  0  0  0  0  0  0  0  0  0  0
  128.6862  130.7174   54.9616 H   0  0  0  0  0  0  0  0  0  0  0  0
  128.7304  129.5606   57.1619 H   0  0  0  0  0  0  0  0  0  0  0  0
  131.7212  128.9055   59.0823 H   0  0  0  0  0  0  0  0  0  0  0  0
  128.2522  132.6290   59.4722 H   0  0  0  0  0  0  0  0  0  0  0  0
  128.6459  131.1544   58.5136 H   0  0  0  0  0  0  0  0  0  0  0  0
  127.5827  129.8860   60.5884 H   0  0  0  0  0  0  0  0  0  0  0  0
  126.7891  131.4953   60.8747 H   0  0  0  0  0  0  0  0  0  0  0  0
  124.5935  131.4889   60.1807 H   0  0  0  0  0  0  0  0  0  0  0  0
  122.8570  130.9506   58.4701 H   0  0  0  0  0  0  0  0  0  0  0  0
  123.4853  129.6722   56.4273 H   0  0  0  0  0  0  0  0  0  0  0  0
  125.8338  128.9230   56.0796 H   0  0  0  0  0  0  0  0  0  0  0  0
  127.5729  129.4576   57.7893 H   0  0  0  0  0  0  0  0  0  0  0  0
  130.2589  127.7480   61.0588 H   0  0  0  0  0  0  0  0  0  0  0  0
  129.0761  129.1110   60.9835 H   0  0  0  0  0  0  0  0  0  0  0  0
  127.9602  127.0181   61.7220 H   0  0  0  0  0  0  0  0  0  0  0  0
  127.3426  127.5533   60.1121 H   0  0  0  0  0  0  0  0  0  0  0  0
  126.6508  125.4438   60.5695 H   0  0  0  0  0  0  0  0  0  0  0  0
  128.5238  122.5496   59.2852 H   0  0  0  0  0  0  0  0  0  0  0  0
  127.8958  121.2549   57.2582 H   0  0  0  0  0  0  0  0  0  0  0  0
  126.0792  122.0808   55.7628 H   0  0  0  0  0  0  0  0  0  0  0  0
  124.9116  124.2143   56.2878 H   0  0  0  0  0  0  0  0  0  0  0  0
  130.3402  124.6463   60.6250 H   0  0  0  0  0  0  0  0  0  0  0  0
  131.1466  123.5331   61.7921 H   0  0  0  0  0  0  0  0  0  0  0  0
  129.7660  122.4380   59.3139 H   0  0  0  0  0  0  0  0  0  0  0  0
  131.4501  123.1146   59.2330 H   0  0  0  0  0  0  0  0  0  0  0  0
  133.3182  121.9212   60.0579 H   0  0  0  0  0  0  0  0  0  0  0  0
  134.2490  119.7670   60.9068 H   0  0  0  0  0  0  0  0  0  0  0  0
  132.7079  117.9780   61.6982 H   0  0  0  0  0  0  0  0  0  0  0  0
  130.2409  118.3272   61.6543 H   0  0  0  0  0  0  0  0  0  0  0  0
  129.3077  120.4815   60.8089 H   0  0  0  0  0  0  0  0  0  0  0  0
  129.1961  125.1292   58.1969 H   0  0  0  0  0  0  0  0  0  0  0  0
  128.0366  126.5104   58.1540 H   0  0  0  0  0  0  0  0  0  0  0  0
  130.9596  126.6741   59.0900 H   0  0  0  0  0  0  0  0  0  0  0  0
  130.3387  127.2118   57.4835 H   0  0  0  0  0  0  0  0  0  0  0  0
  1  2  1  0
  2  3  2  0
  3  4  1  0
  4  5  2  0
  5  6  1  0
  6  7  2  0
  7  8  1  0
  8  9  1  0
  9 10  2  0
 10 11  1  0
 11 12  2  0
 12 13  1  0
 13 14  1  0
 14 15  1  0
 15 16  1  0
 16 17  2  0
 17 18  1  0
 18 19  2  0
 19 20  1  0
 20 21  2  0
  8 22  1  0
 22 23  1  0
 23 24  1  0
 24 25  1  0
 25 26  1  0
 26 27  1  0
 27 28  2  0
 28 29  1  0
 29 30  2  0
 30 31  1  0
 31 32  2  0
 32 33  1  0
 26 34  1  0
 34 35  2  0
 35 36  1  0
 36 37  2  0
 37 38  1  0
 38 39  1  0
 39 40  1  0
 40 41  1  0
 41 42  2  0
 42 43  1  0
 43 44  2  0
 44 45  1  0
 45 46  2  0
 25 47  1  0
 47 48  1  0
  7  2  1  0
 13  9  1  0
 21 16  1  0
 48 22  1  0
 32 27  1  0
 38 34  1  0
 46 41  1  0
  3 49  1  0
  4 50  1  0
  5 51  1  0
  6 52  1  0
  8 53  1  1
 14 54  1  0
 14 55  1  0
 15 56  1  0
 15 57  1  0
 17 58  1  0
 18 59  1  0
 19 60  1  0
 20 61  1  0
 21 62  1  0
 23 63  1  0
 23 64  1  0
 24 65  1  0
 24 66  1  0
 26 67  1  1
 28 68  1  0
 29 69  1  0
 30 70  1  0
 31 71  1  0
 39 72  1  0
 39 73  1  0
 40 74  1  0
 40 75  1  0
 42 76  1  0
 43 77  1  0
 44 78  1  0
 45 79  1  0
 46 80  1  0
 47 81  1  0
 47 82  1  0
 48 83  1  0
 48 84  1  0
M  END
>  <Binding energies>  (1) 
[-12.64]

>  <Ligand effiencies>  (1) 
[-0.26333333333333336]

>  <Interactions>  (1) 
["H-B:ALA:541:N:9863, V-B:MET:535:CE:9807, V-A:ILE:369:CG2:3236, V-B:TYR:539:CD2:9846, V-B:PRO:540:N:9856, V-A:LEU:475:CD1:4257, V-B:PRO:540:CA:9855, V-B:TYR:539:CE2:9848, V-B:TYR:539:C:9839, V-B:TYR:531:CE2:9765, V-B:TYR:531:CZ:9766, V-B:LEU:363:CD1:8160, V-A:ILE:538:CG2:4863, V-A:TYR:539:CD1:4873, V-A:PRO:540:CA:4883, V-A:TYR:539:CZ:4877, V-A:PRO:540:CB:4885, V-A:TYR:539:CE1:4875, V-A:ILE:538:CB:4862, V-B:ASP:366:CG:8184, V-B:TYR:531:CE1:9764, V-B:ASP:366:CB:8183, V-B:ASP:366:CA:8181, V-A:LEU:363:CD1:3188, V-B:ASP:366:C:8179, H-A:ALA:541:N:4891, V-A:LEU:363:CA:3184, V-A:LEU:363:CB:3186, V-B:ILE:369:CG2:8208, V-B:ILE:369:CB:8207"]

$$$$
RR14_Rahimova_2017
     RDKit          3D

 76 80  0  0  0  0  0  0  0  0999 V2000
  129.4640  130.7850   62.2320 C   0  0  0  0  0  0  0  0  0  0  0  0
  130.0960  131.8080   61.4700 O   0  0  0  0  0  0  0  0  0  0  0  0
  130.2760  131.6220   60.1130 C   0  0  0  0  0  0  0  0  0  0  0  0
  129.2560  132.0830   59.2800 C   0  0  0  0  0  0  0  0  0  0  0  0
  129.3370  131.9180   57.9010 C   0  0  0  0  0  0  0  0  0  0  0  0
  130.4460  131.2800   57.3390 C   0  0  0  0  0  0  0  0  0  0  0  0
  130.5080  131.0390   55.8350 C   0  0  0  0  0  0  0  0  0  0  0  0
  129.1960  130.8100   55.2310 N   0  0  0  0  0  0  0  0  0  0  0  0
  128.4190  131.8440   54.8890 N   0  0  0  0  0  0  0  0  0  0  0  0
  127.2680  131.2680   54.3880 N   0  0  0  0  0  0  0  0  0  0  0  0
  127.3660  129.8810   54.4410 N   0  0  0  0  0  0  0  0  0  0  0  0
  128.5420  129.6260   54.9630 C   0  0  0  0  0  0  0  0  0  0  0  0
  129.0950  128.2360   55.2440 C   0  0  0  0  0  0  0  0  0  0  0  0
  129.0560  127.8940   56.6760 N   0  0  0  0  0  0  0  0  0  0  0  0
  128.4640  126.5700   56.9080 C   0  0  0  0  0  0  0  0  0  0  0  0
  127.7230  126.4590   58.2580 C   0  0  0  0  0  0  0  0  0  0  0  0
  126.5150  125.4990   58.2250 C   0  0  0  0  0  0  0  0  0  0  0  0
  126.7290  124.3270   57.3700 N   0  0  0  0  0  0  0  0  0  0  0  0
  125.4450  123.6970   57.0370 C   0  0  0  0  0  0  0  0  0  0  0  0
  125.6380  122.4280   56.1800 C   0  0  0  0  0  0  0  0  0  0  0  0
  126.5280  121.5280   56.8320 O   0  0  0  0  0  0  0  0  0  0  0  0
  127.8110  122.1030   57.0520 C   0  0  0  0  0  0  0  0  0  0  0  0
  127.6830  123.3610   57.9380 C   0  0  0  0  0  0  0  0  0  0  0  0
  130.4090  127.9610   57.2480 C   0  0  0  0  0  0  0  0  0  0  0  0
  130.8740  126.7260   58.0170 C   0  0  0  0  0  0  0  0  0  0  0  0
  130.8380  126.6920   59.3720 C   0  0  0  0  0  0  0  0  0  0  0  0
  131.3190  125.5260   60.1410 C   0  0  0  0  0  0  0  0  0  0  0  0
  131.2790  125.4480   61.5430 C   0  0  0  0  0  0  0  0  0  0  0  0
  130.7240  126.5860   62.3900 C   0  0  0  0  0  0  0  0  0  0  0  0
  131.7580  124.2970   62.1740 C   0  0  0  0  0  0  0  0  0  0  0  0
  132.2690  123.2370   61.4280 C   0  0  0  0  0  0  0  0  0  0  0  0
  132.3110  123.3030   60.0330 C   0  0  0  0  0  0  0  0  0  0  0  0
  132.8740  122.1270   59.2450 C   0  0  0  0  0  0  0  0  0  0  0  0
  131.8330  124.4550   59.3880 C   0  0  0  0  0  0  0  0  0  0  0  0
  131.8580  124.5680   57.9820 N   0  0  0  0  0  0  0  0  0  0  0  0
  131.4290  125.6170   57.2360 C   0  0  0  0  0  0  0  0  0  0  0  0
  131.5250  125.5890   56.0090 O   0  0  0  0  0  0  0  0  0  0  0  0
  131.4860  130.8420   58.1610 C   0  0  0  0  0  0  0  0  0  0  0  0
  131.4020  131.0070   59.5400 C   0  0  0  0  0  0  0  0  0  0  0  0
  129.5930  130.9938   63.3043 H   0  0  0  0  0  0  0  0  0  0  0  0
  128.3912  130.7574   61.9903 H   0  0  0  0  0  0  0  0  0  0  0  0
  129.9194  129.8133   61.9903 H   0  0  0  0  0  0  0  0  0  0  0  0
  128.3790  132.5819   59.7181 H   0  0  0  0  0  0  0  0  0  0  0  0
  128.5289  132.2894   57.2537 H   0  0  0  0  0  0  0  0  0  0  0  0
  130.9626  131.9202   55.3587 H   0  0  0  0  0  0  0  0  0  0  0  0
  131.1035  130.1280   55.6754 H   0  0  0  0  0  0  0  0  0  0  0  0
  128.4964  127.4990   54.6886 H   0  0  0  0  0  0  0  0  0  0  0  0
  130.1477  128.2236   54.9253 H   0  0  0  0  0  0  0  0  0  0  0  0
  127.7485  126.3611   56.0990 H   0  0  0  0  0  0  0  0  0  0  0  0
  129.2898  125.8437   56.9296 H   0  0  0  0  0  0  0  0  0  0  0  0
  128.4337  126.0971   59.0156 H   0  0  0  0  0  0  0  0  0  0  0  0
  127.3322  127.4599   58.4937 H   0  0  0  0  0  0  0  0  0  0  0  0
  126.3166  125.1521   59.2498 H   0  0  0  0  0  0  0  0  0  0  0  0
  125.6658  126.0581   57.8051 H   0  0  0  0  0  0  0  0  0  0  0  0
  124.9299  123.4227   57.9694 H   0  0  0  0  0  0  0  0  0  0  0  0
  124.8501  124.4167   56.4555 H   0  0  0  0  0  0  0  0  0  0  0  0
  124.6651  121.9359   56.0343 H   0  0  0  0  0  0  0  0  0  0  0  0
  126.0631  122.7124   55.2061 H   0  0  0  0  0  0  0  0  0  0  0  0
  128.4578  121.3685   57.5541 H   0  0  0  0  0  0  0  0  0  0  0  0
  128.2493  122.3872   56.0839 H   0  0  0  0  0  0  0  0  0  0  0  0
  127.3348  123.0603   58.9372 H   0  0  0  0  0  0  0  0  0  0  0  0
  128.6696  123.8440   57.9955 H   0  0  0  0  0  0  0  0  0  0  0  0
  131.1155  128.1285   56.4217 H   0  0  0  0  0  0  0  0  0  0  0  0
  130.3781  128.7754   57.9867 H   0  0  0  0  0  0  0  0  0  0  0  0
  130.4379  127.5603   59.9160 H   0  0  0  0  0  0  0  0  0  0  0  0
  130.8432  126.3416   63.4559 H   0  0  0  0  0  0  0  0  0  0  0  0
  131.2713  127.5128   62.1629 H   0  0  0  0  0  0  0  0  0  0  0  0
  129.6568  126.7254   62.1629 H   0  0  0  0  0  0  0  0  0  0  0  0
  131.7314  124.2270   63.2714 H   0  0  0  0  0  0  0  0  0  0  0  0
  132.6430  122.3394   61.9423 H   0  0  0  0  0  0  0  0  0  0  0  0
  133.2411  121.3601   59.9429 H   0  0  0  0  0  0  0  0  0  0  0  0
  132.0836  121.6981   58.6116 H   0  0  0  0  0  0  0  0  0  0  0  0
  133.7038  122.4737   58.6116 H   0  0  0  0  0  0  0  0  0  0  0  0
  132.2370  123.8010   57.4490 H   0  0  0  0  0  0  0  0  0  0  0  0
  132.3730  130.3658   57.7178 H   0  0  0  0  0  0  0  0  0  0  0  0
  132.2207  130.6544   60.1845 H   0  0  0  0  0  0  0  0  0  0  0  0
  1  2  1  0
  2  3  1  0
  3  4  2  0
  4  5  1  0
  5  6  2  0
  6  7  1  0
  7  8  1  0
  8  9  1  0
  9 10  2  0
 10 11  1  0
 11 12  2  0
 12 13  1  0
 13 14  1  0
 14 15  1  0
 15 16  1  0
 16 17  1  0
 17 18  1  0
 18 19  1  0
 19 20  1  0
 20 21  1  0
 21 22  1  0
 22 23  1  0
 14 24  1  0
 24 25  1  0
 25 26  2  0
 26 27  1  0
 27 28  2  0
 28 29  1  0
 28 30  1  0
 30 31  2  0
 31 32  1  0
 32 33  1  0
 32 34  2  0
 34 35  1  0
 35 36  1  0
 36 37  2  0
  6 38  1  0
 38 39  2  0
 39  3  1  0
 12  8  1  0
 23 18  1  0
 36 25  1  0
 34 27  1  0
  1 40  1  0
  1 41  1  0
  1 42  1  0
  4 43  1  0
  5 44  1  0
  7 45  1  0
  7 46  1  0
 13 47  1  0
 13 48  1  0
 15 49  1  0
 15 50  1  0
 16 51  1  0
 16 52  1  0
 17 53  1  0
 17 54  1  0
 19 55  1  0
 19 56  1  0
 20 57  1  0
 20 58  1  0
 22 59  1  0
 22 60  1  0
 23 61  1  0
 23 62  1  0
 24 63  1  0
 24 64  1  0
 26 65  1  0
 29 66  1  0
 29 67  1  0
 29 68  1  0
 30 69  1  0
 31 70  1  0
 33 71  1  0
 33 72  1  0
 33 73  1  0
 35 74  1  0
 38 75  1  0
 39 76  1  0
M  END
>  <Binding energies>  (1) 
[-10.46]

>  <Ligand effiencies>  (1) 
[-0.2615]

>  <Interactions>  (1) 
["H-B:TYR:531:OH:9767, V-B:MET:535:CE:9807, V-A:ILE:369:CG2:3236, V-B:TYR:539:CD2:9846, V-B:PRO:540:N:9856, H-B:TYR:539:N:9842, V-B:TYR:539:CE2:9848, V-B:TYR:539:C:9839, V-B:TYR:531:CE2:9765, V-B:TYR:531:CZ:9766, V-B:LEU:363:CD1:8160, V-B:TYR:539:CA:9841, V-A:ASP:366:CG:3212, V-A:PRO:540:N:4884, H-B:TYR:539:OH:9850, V-A:TYR:539:CD1:4873, V-A:PRO:540:CA:4883, H-A:TYR:531:OH:4795, V-A:PRO:540:CB:4885, V-A:TYR:539:CE1:4875, H-B:LYS:534:NZ:9795, V-A:ALA:541:CB:4892, V-A:PRO:540:C:4881, V-A:TYR:539:C:4867, V-A:GLU:543:CG:4907, V-A:GLU:543:CD:4908, V-B:TYR:539:CZ:9849, H-A:TYR:539:OH:4878, V-B:TYR:539:CG:9844, V-B:TYR:539:CE1:9847, V-B:TYR:539:CD1:9845, H-A:ALA:541:N:4891"]

$$$$
RR15_Rahimova_2017
     RDKit          3D

 85 89  0  0  0  0  0  0  0  0999 V2000
  134.0770  120.5470   61.4700 C   0  0  0  0  0  0  0  0  0  0  0  0
  133.7640  121.9200   61.6800 O   0  0  0  0  0  0  0  0  0  0  0  0
  133.3140  122.6860   60.6190 C   0  0  0  0  0  0  0  0  0  0  0  0
  134.1470  123.5090   59.8450 C   0  0  0  0  0  0  0  0  0  0  0  0
  133.6290  124.2570   58.7910 C   0  0  0  0  0  0  0  0  0  0  0  0
  132.2660  124.2070   58.4810 C   0  0  0  0  0  0  0  0  0  0  0  0
  131.7050  125.0200   57.3470 C   0  0  0  0  0  0  0  0  0  0  0  0
  132.4320  125.4040   56.3060 N   0  0  0  0  0  0  0  0  0  0  0  0
  131.5830  126.1280   55.4930 N   0  0  0  0  0  0  0  0  0  0  0  0
  130.4110  126.0630   56.1260 N   0  0  0  0  0  0  0  0  0  0  0  0
  129.2520  126.8400   55.6910 C   0  0  0  0  0  0  0  0  0  0  0  0
  128.9400  128.0840   56.5610 C   0  0  0  0  0  0  0  0  0  0  0  0
  129.8280  128.9260   56.7130 O   0  0  0  0  0  0  0  0  0  0  0  0
  127.6940  128.2320   57.1070 N   0  0  0  0  0  0  0  0  0  0  0  0
  127.3150  127.5380   58.3540 C   0  0  0  0  0  0  0  0  0  0  0  0
  126.0320  126.6900   58.2230 C   0  0  0  0  0  0  0  0  0  0  0  0
  126.1580  125.2380   58.7420 C   0  0  0  0  0  0  0  0  0  0  0  0
  126.5420  124.2730   57.7060 N   0  0  0  0  0  0  0  0  0  0  0  0
  127.6370  123.3790   58.1120 C   0  0  0  0  0  0  0  0  0  0  0  0
  127.9430  122.3300   57.0230 C   0  0  0  0  0  0  0  0  0  0  0  0
  126.7610  121.6130   56.6850 O   0  0  0  0  0  0  0  0  0  0  0  0
  125.7320  122.4650   56.1920 C   0  0  0  0  0  0  0  0  0  0  0  0
  125.3630  123.5170   57.2610 C   0  0  0  0  0  0  0  0  0  0  0  0
  126.6960  129.2330   56.6190 C   0  0  2  0  0  0  0  0  0  0  0  0
  127.1870  130.0800   55.4030 C   0  0  0  0  0  0  0  0  0  0  0  0
  126.5580  130.0950   54.3450 O   0  0  0  0  0  0  0  0  0  0  0  0
  128.2990  130.8060   55.6110 N   0  0  0  0  0  0  0  0  0  0  0  0
  128.8830  131.7460   54.6600 C   0  0  0  0  0  0  0  0  0  0  0  0
  130.1250  132.4380   55.2530 C   0  0  2  0  0  0  0  0  0  0  0  0
  131.4410  131.6500   55.1300 C   0  0  0  0  0  0  0  0  0  0  0  0
  131.6500  131.0460   56.4970 C   0  0  0  0  0  0  0  0  0  0  0  0
  131.0560  132.1190   57.3930 C   0  0  0  0  0  0  0  0  0  0  0  0
  129.8990  132.5200   56.6670 O   0  0  0  0  0  0  0  0  0  0  0  0
  126.0700  129.9830   57.7890 C   0  0  0  0  0  0  0  0  0  0  0  0
  124.6730  130.0120   57.8820 C   0  0  0  0  0  0  0  0  0  0  0  0
  124.0460  130.6820   58.9290 C   0  0  0  0  0  0  0  0  0  0  0  0
  124.8130  131.3280   59.8940 C   0  0  0  0  0  0  0  0  0  0  0  0
  124.2040  131.9770   60.9110 F   0  0  0  0  0  0  0  0  0  0  0  0
  126.2030  131.3080   59.8190 C   0  0  0  0  0  0  0  0  0  0  0  0
  126.8300  130.6390   58.7710 C   0  0  0  0  0  0  0  0  0  0  0  0
  130.4480  125.4210   57.3000 N   0  0  0  0  0  0  0  0  0  0  0  0
  131.4370  123.3840   59.2530 C   0  0  0  0  0  0  0  0  0  0  0  0
  131.9460  122.6200   60.3180 C   0  0  0  0  0  0  0  0  0  0  0  0
  131.1680  121.7900   61.1070 O   0  0  0  0  0  0  0  0  0  0  0  0
  129.7930  121.6030   60.7890 C   0  0  0  0  0  0  0  0  0  0  0  0
  134.1916  120.0443   62.4417 H   0  0  0  0  0  0  0  0  0  0  0  0
  133.2649  120.0684   60.9030 H   0  0  0  0  0  0  0  0  0  0  0  0
  135.0163  120.4676   60.9030 H   0  0  0  0  0  0  0  0  0  0  0  0
  135.2216  123.5637   60.0738 H   0  0  0  0  0  0  0  0  0  0  0  0
  134.2992  124.8944   58.1955 H   0  0  0  0  0  0  0  0  0  0  0  0
  129.4349  127.1799   54.6610 H   0  0  0  0  0  0  0  0  0  0  0  0
  128.3813  126.1736   55.7799 H   0  0  0  0  0  0  0  0  0  0  0  0
  128.1418  126.8748   58.6481 H   0  0  0  0  0  0  0  0  0  0  0  0
  127.1135  128.3141   59.1070 H   0  0  0  0  0  0  0  0  0  0  0  0
  125.2329  127.1884   58.7914 H   0  0  0  0  0  0  0  0  0  0  0  0
  125.8181  126.6165   57.1465 H   0  0  0  0  0  0  0  0  0  0  0  0
  126.9198  125.2176   59.5352 H   0  0  0  0  0  0  0  0  0  0  0  0
  125.1642  124.9396   59.1070 H   0  0  0  0  0  0  0  0  0  0  0  0
  128.5404  123.9798   58.2936 H   0  0  0  0  0  0  0  0  0  0  0  0
  127.3294  122.8489   59.0254 H   0  0  0  0  0  0  0  0  0  0  0  0
  128.3283  122.8384   56.1269 H   0  0  0  0  0  0  0  0  0  0  0  0
  128.6940  121.6235   57.4062 H   0  0  0  0  0  0  0  0  0  0  0  0
  126.0853  122.9760   55.2842 H   0  0  0  0  0  0  0  0  0  0  0  0
  124.8434  121.8608   55.9568 H   0  0  0  0  0  0  0  0  0  0  0  0
  124.6300  124.2175   56.8343 H   0  0  0  0  0  0  0  0  0  0  0  0
  124.9434  122.9907   58.1310 H   0  0  0  0  0  0  0  0  0  0  0  0
  125.8555  128.6956   56.1555 H   0  0  0  0  0  0  0  0  0  0  0  0
  128.7420  130.7600   56.5180 H   0  0  0  0  0  0  0  0  0  0  0  0
  129.1757  131.2011   53.7504 H   0  0  0  0  0  0  0  0  0  0  0  0
  128.1333  132.5161   54.4260 H   0  0  0  0  0  0  0  0  0  0  0  0
  130.2389  133.3860   54.7068 H   0  0  0  0  0  0  0  0  0  0  0  0
  131.3528  130.8629   54.3667 H   0  0  0  0  0  0  0  0  0  0  0  0
  132.2827  132.2876   54.8217 H   0  0  0  0  0  0  0  0  0  0  0  0
  131.1128  130.0918   56.6016 H   0  0  0  0  0  0  0  0  0  0  0  0
  132.6977  130.7998   56.7243 H   0  0  0  0  0  0  0  0  0  0  0  0
  130.7856  131.7099   58.3777 H   0  0  0  0  0  0  0  0  0  0  0  0
  131.7491  132.9463   57.6056 H   0  0  0  0  0  0  0  0  0  0  0  0
  124.0655  129.5007   57.1208 H   0  0  0  0  0  0  0  0  0  0  0  0
  122.9480  130.7007   58.9933 H   0  0  0  0  0  0  0  0  0  0  0  0
  126.8042  131.8192   60.5853 H   0  0  0  0  0  0  0  0  0  0  0  0
  127.9283  130.6242   58.7119 H   0  0  0  0  0  0  0  0  0  0  0  0
  130.3629  123.3340   59.0210 H   0  0  0  0  0  0  0  0  0  0  0  0
  129.2093  121.5236   61.7180 H   0  0  0  0  0  0  0  0  0  0  0  0
  129.4326  122.4604   60.2017 H   0  0  0  0  0  0  0  0  0  0  0  0
  129.6747  120.6805   60.2017 H   0  0  0  0  0  0  0  0  0  0  0  0
  1  2  1  0
  2  3  1  0
  3  4  2  0
  4  5  1  0
  5  6  2  0
  6  7  1  0
  7  8  1  0
  8  9  2  0
  9 10  1  0
 10 11  1  0
 11 12  1  0
 12 13  2  0
 12 14  1  0
 14 15  1  0
 15 16  1  0
 16 17  1  0
 17 18  1  0
 18 19  1  0
 19 20  1  0
 20 21  1  0
 21 22  1  0
 22 23  1  0
 14 24  1  0
 24 25  1  0
 25 26  2  0
 25 27  1  0
 27 28  1  0
 28 29  1  0
 29 30  1  0
 30 31  1  0
 31 32  1  0
 32 33  1  0
 24 34  1  0
 34 35  2  0
 35 36  1  0
 36 37  2  0
 37 38  1  0
 37 39  1  0
 39 40  2  0
 10 41  1  0
  6 42  1  0
 42 43  2  0
 43 44  1  0
 44 45  1  0
 43  3  1  0
 41  7  2  0
 23 18  1  0
 33 29  1  0
 40 34  1  0
  1 46  1  0
  1 47  1  0
  1 48  1  0
  4 49  1  0
  5 50  1  0
 11 51  1  0
 11 52  1  0
 15 53  1  0
 15 54  1  0
 16 55  1  0
 16 56  1  0
 17 57  1  0
 17 58  1  0
 19 59  1  0
 19 60  1  0
 20 61  1  0
 20 62  1  0
 22 63  1  0
 22 64  1  0
 23 65  1  0
 23 66  1  0
 24 67  1  6
 27 68  1  0
 28 69  1  0
 28 70  1  0
 29 71  1  6
 30 72  1  0
 30 73  1  0
 31 74  1  0
 31 75  1  0
 32 76  1  0
 32 77  1  0
 35 78  1  0
 36 79  1  0
 39 80  1  0
 40 81  1  0
 42 82  1  0
 45 83  1  0
 45 84  1  0
 45 85  1  0
M  END
>  <Binding energies>  (1) 
[-11.12]

>  <Ligand effiencies>  (1) 
[-0.2417391304347826]

>  <Interactions>  (1) 
["H-B:TYR:531:OH:9767, V-B:MET:535:CE:9807, V-A:ILE:369:CG2:3236, V-B:TYR:539:CD2:9846, V-B:PRO:540:N:9856, V-A:LEU:475:CD1:4257, H-B:TYR:539:N:9842, V-B:TYR:539:CE2:9848, V-B:TYR:539:C:9839, V-B:TYR:531:CE2:9765, V-B:TYR:531:CZ:9766, V-B:LEU:363:CD1:8160, V-A:ASP:366:CG:3212, V-A:PRO:540:N:4884, V-A:ILE:538:CA:4860, V-A:ASP:366:CA:3209, V-A:ASP:366:CB:3211, V-A:ILE:538:CG2:4863, V-A:ASP:366:C:3207, H-B:TYR:539:OH:9850, V-A:TYR:539:CD1:4873, V-A:TYR:539:CE2:4876, V-A:PRO:540:CA:4883, H-A:TYR:531:OH:4795, H-A:TYR:539:N:4870, V-A:TYR:539:CZ:4877, V-A:PRO:540:CB:4885, V-A:TYR:539:CE1:4875, V-A:TYR:531:CZ:4794, V-A:ILE:538:CB:4862, V-B:ASP:366:CG:8184, V-B:TYR:531:CE1:9764, H-B:LYS:534:NZ:9795, V-B:ASP:366:CB:8183, V-A:PRO:540:CD:4887, V-B:ASP:366:CA:8181, V-A:TYR:539:C:4867, V-A:LEU:363:CD1:3188, V-B:ILE:369:CD1:8210, V-B:ASP:366:C:8179, V-A:ILE:369:CD1:3238, V-B:TYR:539:CZ:9849, H-A:TYR:539:OH:4878, V-A:ILE:369:CB:3235, V-A:SER:385:C:3404, V-B:TYR:539:CG:9844, V-B:TYR:539:CE1:9847, V-B:TYR:539:CD1:9845, V-A:ILE:538:C:4858, V-A:TYR:531:CE2:4793, V-B:ILE:369:CG2:8208, V-B:ILE:369:CB:8207"]

$$$$
RR16_Rahimova_2017
     RDKit          3D

 80 85  0  0  0  0  0  0  0  0999 V2000
  132.9080  122.6370   64.2010 O   0  0  0  0  0  0  0  0  0  0  0  0
  133.4700  123.1790   62.9580 S   0  0  0  0  0  0  0  0  0  0  0  0
  134.7310  122.6610   62.4140 O   0  0  0  0  0  0  0  0  0  0  0  0
  133.6380  124.9230   63.1660 N   0  0  0  0  0  0  0  0  0  0  0  0
  132.7360  125.6720   64.0730 C   0  0  0  0  0  0  0  0  0  0  0  0
  131.2690  125.2570   63.7890 C   0  0  0  0  0  0  0  0  0  0  0  0
  130.1810  125.8170   64.7260 C   0  0  0  0  0  0  0  0  0  0  0  0
  130.1710  125.1740   66.1240 C   0  0  0  0  0  0  0  0  0  0  0  0
  131.1720  125.7580   67.1380 C   0  0  0  0  0  0  0  0  0  0  0  0
  132.4920  126.3240   66.5790 C   0  0  0  0  0  0  0  0  0  0  0  0
  133.2210  125.4650   65.5270 C   0  0  0  0  0  0  0  0  0  0  0  0
  132.2120  122.9990   61.6990 C   0  0  0  0  0  0  0  0  0  0  0  0
  132.4100  123.5330   60.4240 C   0  0  0  0  0  0  0  0  0  0  0  0
  131.3760  123.4930   59.4920 C   0  0  0  0  0  0  0  0  0  0  0  0
  130.1510  122.9210   59.8400 C   0  0  0  0  0  0  0  0  0  0  0  0
  128.7750  122.9950   58.6940 S   0  0  0  0  0  0  0  0  0  0  0  0
  127.5410  122.8930   59.4840 O   0  0  0  0  0  0  0  0  0  0  0  0
  129.0480  122.0360   57.6170 O   0  0  0  0  0  0  0  0  0  0  0  0
  128.8660  124.6310   58.0130 N   0  0  0  0  0  0  0  0  0  0  0  0
  129.3730  124.6900   56.6180 C   0  0  0  0  0  0  0  0  0  0  0  0
  129.7110  126.1430   56.2270 C   0  0  0  0  0  0  0  0  0  0  0  0
  128.5160  127.0970   56.4770 C   0  0  0  0  0  0  0  0  0  0  0  0
  128.8460  128.5530   56.1380 C   0  0  0  0  0  0  0  0  0  0  0  0
  127.9180  129.3310   55.4310 C   0  0  0  0  0  0  0  0  0  0  0  0
  128.1740  130.6640   55.1080 C   0  0  0  0  0  0  0  0  0  0  0  0
  127.2530  131.4100   54.4190 O   0  0  0  0  0  0  0  0  0  0  0  0
  129.3970  131.2210   55.5130 C   0  0  0  0  0  0  0  0  0  0  0  0
  129.9040  132.4790   55.3590 N   0  0  0  0  0  0  0  0  0  0  0  0
  131.1370  132.5070   55.9730 N   0  0  0  0  0  0  0  0  0  0  0  0
  131.4000  131.2770   56.4560 N   0  0  0  0  0  0  0  0  0  0  0  0
  132.6080  131.0380   57.2350 C   0  0  0  0  0  0  0  0  0  0  0  0
  132.3700  131.1370   58.7350 C   0  0  0  0  0  0  0  0  0  0  0  0
  133.4480  131.0600   59.6240 C   0  0  0  0  0  0  0  0  0  0  0  0
  133.2340  131.1730   60.9980 C   0  0  0  0  0  0  0  0  0  0  0  0
  131.9430  131.3650   61.4910 C   0  0  0  0  0  0  0  0  0  0  0  0
  130.8650  131.4460   60.6100 C   0  0  0  0  0  0  0  0  0  0  0  0
  129.2680  131.6940   61.2160 Cl  0  0  0  0  0  0  0  0  0  0  0  0
  131.0770  131.3280   59.2350 C   0  0  0  0  0  0  0  0  0  0  0  0
  130.3310  130.4280   56.2200 C   0  0  0  0  0  0  0  0  0  0  0  0
  130.0780  129.0900   56.5410 C   0  0  0  0  0  0  0  0  0  0  0  0
  127.9180  126.9320   57.8980 C   0  0  0  0  0  0  0  0  0  0  0  0
  127.6480  125.4530   58.2400 C   0  0  0  0  0  0  0  0  0  0  0  0
  129.9690  122.3510   61.1020 C   0  0  0  0  0  0  0  0  0  0  0  0
  131.0000  122.3930   62.0340 C   0  0  0  0  0  0  0  0  0  0  0  0
  134.5670  125.3230   63.0140 H   0  0  0  0  0  0  0  0  0  0  0  0
  132.7646  126.7578   63.8993 H   0  0  0  0  0  0  0  0  0  0  0  0
  131.0252  125.5839   62.7674 H   0  0  0  0  0  0  0  0  0  0  0  0
  131.2474  124.1691   63.9503 H   0  0  0  0  0  0  0  0  0  0  0  0
  130.3476  126.8980   64.8431 H   0  0  0  0  0  0  0  0  0  0  0  0
  129.2106  125.5872   64.2618 H   0  0  0  0  0  0  0  0  0  0  0  0
  129.1603  125.2911   66.5420 H   0  0  0  0  0  0  0  0  0  0  0  0
  130.4748  124.1276   65.9735 H   0  0  0  0  0  0  0  0  0  0  0  0
  130.6630  126.5730   67.6735 H   0  0  0  0  0  0  0  0  0  0  0  0
  131.4721  124.9045   67.7637 H   0  0  0  0  0  0  0  0  0  0  0  0
  132.2690  127.2977   66.1183 H   0  0  0  0  0  0  0  0  0  0  0  0
  133.1753  126.3699   67.4398 H   0  0  0  0  0  0  0  0  0  0  0  0
  134.2927  125.7093   65.5685 H   0  0  0  0  0  0  0  0  0  0  0  0
  133.0054  124.4163   65.7795 H   0  0  0  0  0  0  0  0  0  0  0  0
  133.3777  123.9829   60.1572 H   0  0  0  0  0  0  0  0  0  0  0  0
  131.5240  123.9106   58.4852 H   0  0  0  0  0  0  0  0  0  0  0  0
  130.2798  124.0728   56.5360 H   0  0  0  0  0  0  0  0  0  0  0  0
  128.5939  124.3113   55.9401 H   0  0  0  0  0  0  0  0  0  0  0  0
  130.5694  126.4826   56.8253 H   0  0  0  0  0  0  0  0  0  0  0  0
  129.9464  126.1629   55.1527 H   0  0  0  0  0  0  0  0  0  0  0  0
  127.7249  126.7957   55.7746 H   0  0  0  0  0  0  0  0  0  0  0  0
  126.9637  128.8788   55.1231 H   0  0  0  0  0  0  0  0  0  0  0  0
  126.3640  131.3340   54.7710 H   0  0  0  0  0  0  0  0  0  0  0  0
  132.9817  130.0296   57.0040 H   0  0  0  0  0  0  0  0  0  0  0  0
  133.3375  131.8150   56.9628 H   0  0  0  0  0  0  0  0  0  0  0  0
  134.4672  130.9099   59.2383 H   0  0  0  0  0  0  0  0  0  0  0  0
  134.0840  131.1107   61.6934 H   0  0  0  0  0  0  0  0  0  0  0  0
  131.7755  131.4525   62.5746 H   0  0  0  0  0  0  0  0  0  0  0  0
  130.2245  131.3854   58.5422 H   0  0  0  0  0  0  0  0  0  0  0  0
  130.8153  128.4834   57.0873 H   0  0  0  0  0  0  0  0  0  0  0  0
  128.6267  127.3431   58.6320 H   0  0  0  0  0  0  0  0  0  0  0  0
  126.9588  127.4696   57.9287 H   0  0  0  0  0  0  0  0  0  0  0  0
  127.3512  125.3749   59.2963 H   0  0  0  0  0  0  0  0  0  0  0  0
  126.8432  125.0804   57.5892 H   0  0  0  0  0  0  0  0  0  0  0  0
  129.0132  121.8704   61.3578 H   0  0  0  0  0  0  0  0  0  0  0  0
  130.8611  121.9504   63.0314 H   0  0  0  0  0  0  0  0  0  0  0  0
  1  2  2  0
  2  3  2  0
  2  4  1  0
  4  5  1  0
  5  6  1  0
  6  7  1  0
  7  8  1  0
  8  9  1  0
  9 10  1  0
 10 11  1  0
  2 12  1  0
 12 13  2  0
 13 14  1  0
 14 15  2  0
 15 16  1  0
 16 17  2  0
 16 18  2  0
 16 19  1  0
 19 20  1  0
 20 21  1  0
 21 22  1  0
 22 23  1  0
 23 24  2  0
 24 25  1  0
 25 26  1  0
 25 27  2  0
 27 28  1  0
 28 29  2  0
 29 30  1  0
 30 31  1  0
 31 32  1  0
 32 33  2  0
 33 34  1  0
 34 35  2  0
 35 36  1  0
 36 37  1  0
 36 38  2  0
 30 39  1  0
 39 40  2  0
 22 41  1  0
 41 42  1  0
 15 43  1  0
 43 44  2  0
 11  5  1  0
 44 12  1  0
 42 19  1  0
 40 23  1  0
 39 27  1  0
 38 32  1  0
  4 45  1  0
  5 46  1  0
  6 47  1  0
  6 48  1  0
  7 49  1  0
  7 50  1  0
  8 51  1  0
  8 52  1  0
  9 53  1  0
  9 54  1  0
 10 55  1  0
 10 56  1  0
 11 57  1  0
 11 58  1  0
 13 59  1  0
 14 60  1  0
 20 61  1  0
 20 62  1  0
 21 63  1  0
 21 64  1  0
 22 65  1  0
 24 66  1  0
 26 67  1  0
 31 68  1  0
 31 69  1  0
 33 70  1  0
 34 71  1  0
 35 72  1  0
 38 73  1  0
 40 74  1  0
 41 75  1  0
 41 76  1  0
 42 77  1  0
 42 78  1  0
 43 79  1  0
 44 80  1  0
M  END
>  <Binding energies>  (1) 
[-12.07]

>  <Ligand effiencies>  (1) 
[-0.25145833333333334]

>  <Interactions>  (1) 
["V-B:MET:535:CE:9807, V-B:TYR:539:CE2:9848, H-A:TYR:484:OH:4347, V-A:ASP:366:CG:3212, H-A:GLY:454:N:4049, V-A:PRO:540:N:4884, V-A:PRO:540:CA:4883, H-A:TYR:539:N:4870, V-A:TYR:539:CZ:4877, V-A:PRO:540:CB:4885, V-A:TYR:539:CE1:4875, V-B:TYR:531:CE1:9764, H-B:LYS:534:NZ:9795, V-A:ALA:541:CB:4892, V-A:PRO:540:C:4881, V-A:LEU:363:CD1:3188, V-A:GLU:543:CD:4908, V-B:TYR:539:CZ:9849, H-A:TYR:539:OH:4878, H-A:ARG:545:NH2:4928, V-A:TYR:484:CZ:4346, V-A:HIS:456:CE1:4069, V-A:ARG:545:CD:4923, V-B:GLU:543:CG:9879, V-A:ARG:545:CG:4922, V-A:ARG:545:CZ:4926, H-A:ARG:545:NH1:4927, V-A:TYR:484:CE2:4345, V-A:LEU:363:CA:3184, V-A:GLY:454:CA:4048, V-A:ASN:362:CB:3175, V-A:ASN:362:C:3171, H-A:ASP:366:OD1:3213, H-B:ASN:370:OD1:8218"]

$$$$
RR17_Rahimova_2017
     RDKit          3D

 63 66  0  0  0  0  0  0  0  0999 V2000
  130.6730  117.1610   59.9350 C   0  0  0  0  0  0  0  0  0  0  0  0
  131.3510  117.6440   61.2200 C   0  0  0  0  0  0  0  0  0  0  0  0
  132.5730  118.2910   60.8770 O   0  0  0  0  0  0  0  0  0  0  0  0
  132.5900  119.6630   60.7090 C   0  0  0  0  0  0  0  0  0  0  0  0
  133.7690  120.3190   61.0580 C   0  0  0  0  0  0  0  0  0  0  0  0
  133.8790  121.7000   60.9250 C   0  0  0  0  0  0  0  0  0  0  0  0
  132.8040  122.4570   60.4380 C   0  0  0  0  0  0  0  0  0  0  0  0
  132.9520  123.9450   60.3040 C   0  0  0  0  0  0  0  0  0  0  0  0
  133.1690  124.4930   59.2190 O   0  0  0  0  0  0  0  0  0  0  0  0
  132.8360  124.7810   61.5980 C   0  0  0  0  0  0  0  0  0  0  0  0
  133.8290  124.0770   62.9640 S   0  0  0  0  0  0  0  0  0  0  0  0
  132.9620  124.7560   64.3510 C   0  0  0  0  0  0  0  0  0  0  0  0
  133.5150  125.4060   65.3480 N   0  0  0  0  0  0  0  0  0  0  0  0
  132.5040  125.7800   66.2250 N   0  0  0  0  0  0  0  0  0  0  0  0
  131.3760  125.3450   65.7210 C   0  0  0  0  0  0  0  0  0  0  0  0
  130.0100  125.5500   66.3580 C   0  0  0  0  0  0  0  0  0  0  0  0
  129.8390  126.8610   66.9790 N   0  0  0  0  0  0  0  0  0  0  0  0
  129.6250  127.0510   68.3560 C   0  0  0  0  0  0  0  0  0  0  0  0
  128.9910  126.0240   69.0550 C   0  0  0  0  0  0  0  0  0  0  0  0
  128.7440  126.1490   70.4190 C   0  0  0  0  0  0  0  0  0  0  0  0
  129.1320  127.3050   71.1020 C   0  0  0  0  0  0  0  0  0  0  0  0
  128.8470  127.4290   72.5990 C   0  0  0  0  0  0  0  0  0  0  0  0
  129.9210  127.1530   73.3420 F   0  0  0  0  0  0  0  0  0  0  0  0
  128.4480  128.6670   72.8960 F   0  0  0  0  0  0  0  0  0  0  0  0
  127.8780  126.5760   72.9310 F   0  0  0  0  0  0  0  0  0  0  0  0
  129.7750  128.3330   70.4050 C   0  0  0  0  0  0  0  0  0  0  0  0
  130.0230  128.2060   69.0410 C   0  0  0  0  0  0  0  0  0  0  0  0
  131.5970  124.6740   64.5360 N   0  0  0  0  0  0  0  0  0  0  0  0
  130.6460  124.0760   63.6960 C   0  0  0  0  0  0  0  0  0  0  0  0
  130.6480  122.6910   63.5320 C   0  0  0  0  0  0  0  0  0  0  0  0
  129.7060  122.0980   62.6960 C   0  0  0  0  0  0  0  0  0  0  0  0
  128.7600  122.8880   62.0220 C   0  0  0  0  0  0  0  0  0  0  0  0
  127.7900  122.3870   61.1750 O   0  0  0  0  0  0  0  0  0  0  0  0
  126.5890  123.1270   60.9800 C   0  0  0  0  0  0  0  0  0  0  0  0
  128.7750  124.2730   62.1970 C   0  0  0  0  0  0  0  0  0  0  0  0
  129.7130  124.8730   63.0320 C   0  0  0  0  0  0  0  0  0  0  0  0
  131.6180  121.7960   60.0870 C   0  0  0  0  0  0  0  0  0  0  0  0
  131.5100  120.4140   60.2200 C   0  0  0  0  0  0  0  0  0  0  0  0
  129.8017  116.5403   60.1911 H   0  0  0  0  0  0  0  0  0  0  0  0
  130.3440  118.0293   59.3453 H   0  0  0  0  0  0  0  0  0  0  0  0
  131.3862  116.5663   59.3453 H   0  0  0  0  0  0  0  0  0  0  0  0
  130.6913  118.3522   61.7427 H   0  0  0  0  0  0  0  0  0  0  0  0
  131.5530  116.7885   61.8813 H   0  0  0  0  0  0  0  0  0  0  0  0
  134.6212  119.7394   61.4425 H   0  0  0  0  0  0  0  0  0  0  0  0
  134.8172  122.2018   61.2043 H   0  0  0  0  0  0  0  0  0  0  0  0
  133.1887  125.8025   61.3930 H   0  0  0  0  0  0  0  0  0  0  0  0
  131.7811  124.7779   61.9097 H   0  0  0  0  0  0  0  0  0  0  0  0
  129.2429  125.4330   65.5784 H   0  0  0  0  0  0  0  0  0  0  0  0
  129.9147  124.8018   67.1587 H   0  0  0  0  0  0  0  0  0  0  0  0
  129.6620  127.6440   66.3670 H   0  0  0  0  0  0  0  0  0  0  0  0
  128.6844  125.1100   68.5252 H   0  0  0  0  0  0  0  0  0  0  0  0
  128.2414  125.3348   70.9616 H   0  0  0  0  0  0  0  0  0  0  0  0
  130.0857  129.2447   70.9362 H   0  0  0  0  0  0  0  0  0  0  0  0
  130.5335  129.0158   68.4992 H   0  0  0  0  0  0  0  0  0  0  0  0
  131.3885  122.0717   64.0594 H   0  0  0  0  0  0  0  0  0  0  0  0
  129.7024  121.0061   62.5626 H   0  0  0  0  0  0  0  0  0  0  0  0
  126.1589  123.3920   61.9571 H   0  0  0  0  0  0  0  0  0  0  0  0
  126.8114  124.0449   60.4161 H   0  0  0  0  0  0  0  0  0  0  0  0
  125.8691  122.5156   60.4161 H   0  0  0  0  0  0  0  0  0  0  0  0
  128.0380  124.8964   61.6696 H   0  0  0  0  0  0  0  0  0  0  0  0
  129.7187  125.9647   63.1671 H   0  0  0  0  0  0  0  0  0  0  0  0
  130.7650  122.3747   59.7030 H   0  0  0  0  0  0  0  0  0  0  0  0
  130.5738  119.9086   59.9405 H   0  0  0  0  0  0  0  0  0  0  0  0
  1  2  1  0
  2  3  1  0
  3  4  1  0
  4  5  2  0
  5  6  1  0
  6  7  2  0
  7  8  1  0
  8  9  2  0
  8 10  1  0
 10 11  1  0
 11 12  1  0
 12 13  2  0
 13 14  1  0
 14 15  2  0
 15 16  1  0
 16 17  1  0
 17 18  1  0
 18 19  2  0
 19 20  1  0
 20 21  2  0
 21 22  1  0
 22 23  1  0
 22 24  1  0
 22 25  1  0
 21 26  1  0
 26 27  2  0
 15 28  1  0
 28 29  1  0
 29 30  2  0
 30 31  1  0
 31 32  2  0
 32 33  1  0
 33 34  1  0
 32 35  1  0
 35 36  2  0
  7 37  1  0
 37 38  2  0
 38  4  1  0
 28 12  1  0
 36 29  1  0
 27 18  1  0
  1 39  1  0
  1 40  1  0
  1 41  1  0
  2 42  1  0
  2 43  1  0
  5 44  1  0
  6 45  1  0
 10 46  1  0
 10 47  1  0
 16 48  1  0
 16 49  1  0
 17 50  1  0
 19 51  1  0
 20 52  1  0
 26 53  1  0
 27 54  1  0
 30 55  1  0
 31 56  1  0
 34 57  1  0
 34 58  1  0
 34 59  1  0
 35 60  1  0
 36 61  1  0
 37 62  1  0
 38 63  1  0
M  END
>  <Binding energies>  (1) 
[-8.67]

>  <Ligand effiencies>  (1) 
[-0.22230769230769232]

>  <Interactions>  (1) 
["H-B:ALA:541:N:9863, V-B:PRO:540:CB:9857, V-A:ILE:369:CG2:3236, V-B:TYR:539:CD2:9846, V-A:LEU:475:CD1:4257, V-B:PRO:540:CA:9855, H-A:SER:385:OG:3409, H-A:HIS:383:NE2:3393, V-B:ALA:541:CB:9864, V-B:TYR:539:CE2:9848, V-B:TYR:539:C:9839, V-A:PRO:482:CG:4326, V-A:PRO:482:CB:4325, H-A:TYR:484:OH:4347, V-A:ASP:366:CG:3212, H-A:GLY:454:N:4049, V-A:GLU:543:CD:4908, V-A:ILE:369:CD1:3238, H-A:ARG:545:NH2:4928, V-A:GLU:543:C:4902, V-B:HIS:456:CE1:9041, V-A:TYR:484:CZ:4346, V-A:HIS:456:CE1:4069, V-B:GLU:543:CB:9878, V-B:GLU:543:CG:9879, V-B:GLU:543:CD:9880, H-A:ARG:545:NE:4924, V-A:ARG:545:CZ:4926, V-A:GLU:543:CB:4906, V-B:GLU:543:C:9874, H-A:GLU:543:OE1:4909, V-B:TYR:539:CB:9843, V-A:HIS:383:CE1:3392, V-B:HIS:456:CD2:9039, V-B:HIS:456:CG:9037"]

$$$$
RR18_Rahimova_2017
     RDKit          3D

 56 61  0  0  0  0  0  0  0  0999 V2000
  134.6800  123.8620   60.3740 C   0  0  0  0  0  0  0  0  0  0  0  0
  133.3750  124.1770   59.6870 C   0  0  0  0  0  0  0  0  0  0  0  0
  132.9710  124.2360   58.3630 C   0  0  0  0  0  0  0  0  0  0  0  0
  131.6220  124.5880   58.3690 C   0  0  0  0  0  0  0  0  0  0  0  0
  131.2500  124.7310   59.6960 C   0  0  0  0  0  0  0  0  0  0  0  0
  129.9410  125.0890   60.3950 C   0  0  1  0  0  0  0  0  0  0  0  0
  129.7240  124.2300   61.6770 C   0  0  0  0  0  0  0  0  0  0  0  0
  129.5360  122.7860   61.5750 C   0  0  0  0  0  0  0  0  0  0  0  0
  128.4150  122.2740   61.5980 O   0  0  0  0  0  0  0  0  0  0  0  0
  130.6860  122.0850   61.4410 N   0  0  0  0  0  0  0  0  0  0  0  0
  130.9000  120.6940   61.3370 C   0  0  0  0  0  0  0  0  0  0  0  0
  129.8620  119.7450   61.3690 C   0  0  0  0  0  0  0  0  0  0  0  0
  130.1410  118.3840   61.2680 C   0  0  0  0  0  0  0  0  0  0  0  0
  131.4570  117.9490   61.1400 C   0  0  0  0  0  0  0  0  0  0  0  0
  132.4960  118.8760   61.1190 C   0  0  0  0  0  0  0  0  0  0  0  0
  132.2310  120.2450   61.2180 C   0  0  0  0  0  0  0  0  0  0  0  0
  133.4060  121.2190   61.1940 C   0  0  0  0  0  0  0  0  0  0  0  0
  129.8180  124.8400   62.8870 C   0  0  0  0  0  0  0  0  0  0  0  0
  129.9720  126.1800   63.0730 N   0  0  0  0  0  0  0  0  0  0  0  0
  129.9520  126.9630   62.0580 C   0  0  0  0  0  0  0  0  0  0  0  0
  129.9860  128.7080   62.1500 S   0  0  0  0  0  0  0  0  0  0  0  0
  129.8900  128.8570   60.3670 C   0  0  0  0  0  0  0  0  0  0  0  0
  129.8640  130.0210   59.6290 C   0  0  0  0  0  0  0  0  0  0  0  0
  129.8340  131.3270   60.3030 C   0  0  0  0  0  0  0  0  0  0  0  0
  129.8530  131.5990   61.5030 O   0  0  0  0  0  0  0  0  0  0  0  0
  129.7590  132.2640   59.3530 N   0  0  0  0  0  0  0  0  0  0  0  0
  129.7690  131.7460   58.0930 C   0  0  0  0  0  0  0  0  0  0  0  0
  129.7180  132.4380   56.8840 C   0  0  0  0  0  0  0  0  0  0  0  0
  129.7710  131.7170   55.6940 C   0  0  0  0  0  0  0  0  0  0  0  0
  129.8830  130.3290   55.7340 C   0  0  0  0  0  0  0  0  0  0  0  0
  129.9310  129.6580   56.9580 C   0  0  0  0  0  0  0  0  0  0  0  0
  129.8550  130.3670   58.1720 C   0  0  0  0  0  0  0  0  0  0  0  0
  129.8260  127.5080   59.8040 C   0  0  0  0  0  0  0  0  0  0  0  0
  129.7000  127.2170   58.6190 O   0  0  0  0  0  0  0  0  0  0  0  0
  129.8990  126.5480   60.7660 N   0  0  0  0  0  0  0  0  0  0  0  0
  132.3240  124.4800   60.4920 O   0  0  0  0  0  0  0  0  0  0  0  0
  134.5380  123.8963   61.4643 H   0  0  0  0  0  0  0  0  0  0  0  0
  135.0162  122.8569   60.0794 H   0  0  0  0  0  0  0  0  0  0  0  0
  135.4377  124.6031   60.0794 H   0  0  0  0  0  0  0  0  0  0  0  0
  133.5945  124.0424   57.4777 H   0  0  0  0  0  0  0  0  0  0  0  0
  130.9767  124.7258   57.4889 H   0  0  0  0  0  0  0  0  0  0  0  0
  129.1331  124.8748   59.6799 H   0  0  0  0  0  0  0  0  0  0  0  0
  131.5270  122.6350   61.3520 H   0  0  0  0  0  0  0  0  0  0  0  0
  128.8199  120.0810   61.4748 H   0  0  0  0  0  0  0  0  0  0  0  0
  129.3202  117.6520   61.2894 H   0  0  0  0  0  0  0  0  0  0  0  0
  131.6760  116.8743   61.0555 H   0  0  0  0  0  0  0  0  0  0  0  0
  133.5350  118.5277   61.0236 H   0  0  0  0  0  0  0  0  0  0  0  0
  133.7008  121.4634   62.2252 H   0  0  0  0  0  0  0  0  0  0  0  0
  134.2552  120.7563   60.6698 H   0  0  0  0  0  0  0  0  0  0  0  0
  133.1088  122.1392   60.6698 H   0  0  0  0  0  0  0  0  0  0  0  0
  129.7658  124.2042   63.7831 H   0  0  0  0  0  0  0  0  0  0  0  0
  129.7210  133.2530   59.5550 H   0  0  0  0  0  0  0  0  0  0  0  0
  129.6373  133.5349   56.8703 H   0  0  0  0  0  0  0  0  0  0  0  0
  129.7247  132.2405   54.7277 H   0  0  0  0  0  0  0  0  0  0  0  0
  129.9340  129.7577   54.7954 H   0  0  0  0  0  0  0  0  0  0  0  0
  130.0294  128.5625   56.9737 H   0  0  0  0  0  0  0  0  0  0  0  0
  1  2  1  0
  2  3  2  0
  3  4  1  0
  4  5  2  0
  5  6  1  0
  6  7  1  0
  7  8  1  0
  8  9  2  0
  8 10  1  0
 10 11  1  0
 11 12  2  0
 12 13  1  0
 13 14  2  0
 14 15  1  0
 15 16  2  0
 16 17  1  0
  7 18  2  0
 18 19  1  0
 19 20  2  0
 20 21  1  0
 21 22  1  0
 22 23  2  0
 23 24  1  0
 24 25  2  0
 24 26  1  0
 26 27  1  0
 27 28  2  0
 28 29  1  0
 29 30  2  0
 30 31  1  0
 31 32  2  0
 22 33  1  0
 33 34  2  0
 33 35  1  0
  5 36  1  0
 36  2  1  0
 35  6  1  0
 16 11  1  0
 35 20  1  0
 32 23  1  0
 32 27  1  0
  1 37  1  0
  1 38  1  0
  1 39  1  0
  3 40  1  0
  4 41  1  0
  6 42  1  6
 10 43  1  0
 12 44  1  0
 13 45  1  0
 14 46  1  0
 15 47  1  0
 17 48  1  0
 17 49  1  0
 17 50  1  0
 18 51  1  0
 26 52  1  0
 28 53  1  0
 29 54  1  0
 30 55  1  0
 31 56  1  0
M  END
>  <Binding energies>  (1) 
[-9.14]

>  <Ligand effiencies>  (1) 
[-0.2405263157894737]

>  <Interactions>  (1) 
["H-B:ALA:541:N:9863, V-A:ILE:369:CG2:3236, V-A:LEU:475:CD1:4257, V-B:PRO:540:C:9853, V-B:ALA:541:CB:9864, V-B:TYR:539:CE2:9848, V-B:TYR:539:C:9839, V-A:PRO:482:CG:4326, V-A:PRO:482:CB:4325, V-A:ASP:366:CG:3212, V-A:PRO:540:N:4884, V-A:ASP:366:CA:3209, V-A:ASP:366:CB:3211, V-A:TYR:539:CG:4872, V-A:ASP:366:C:3207, V-A:TYR:539:CD1:4873, V-A:PRO:540:CA:4883, V-A:TYR:539:CE1:4875, V-A:PRO:540:C:4881, V-A:TYR:539:C:4867, V-A:GLU:543:CD:4908, V-A:ILE:369:CD1:3238, V-A:ILE:369:CB:3235, H-A:ALA:541:N:4891, H-A:TYR:539:O:4868, V-A:TYR:539:CA:4869, V-B:ALA:541:CA:9862, V-A:ILE:369:CG1:3237"]

$$$$
RR19_Rahimova_2017
     RDKit          3D

 72 77  0  0  0  0  0  0  0  0999 V2000
  132.4570  122.8470   60.2170 O   0  0  0  0  0  0  0  0  0  0  0  0
  131.2910  123.0340   59.8580 C   0  0  0  0  0  0  0  0  0  0  0  0
  130.8880  123.8480   58.8480 N   0  0  0  0  0  0  0  0  0  0  0  0
  131.5620  124.4910   57.8400 C   0  0  0  0  0  0  0  0  0  0  0  0
  133.1810  124.2340   57.4160 S   0  0  0  0  0  0  0  0  0  0  0  0
  130.7050  125.3750   57.2330 N   0  0  0  0  0  0  0  0  0  0  0  0
  130.8050  126.1430   56.1180 C   0  0  0  0  0  0  0  0  0  0  0  0
  131.6880  126.0740   55.2590 O   0  0  0  0  0  0  0  0  0  0  0  0
  129.6840  127.2040   55.9830 C   0  0  2  0  0  0  0  0  0  0  0  0
  129.5280  127.8100   54.5580 C   0  0  0  0  0  0  0  0  0  0  0  0
  129.2010  129.2940   54.5190 C   0  0  0  0  0  0  0  0  0  0  0  0
  127.8790  129.7500   54.7140 C   0  0  0  0  0  0  0  0  0  0  0  0
  127.6120  131.1110   54.7530 C   0  0  0  0  0  0  0  0  0  0  0  0
  128.6440  132.0320   54.6190 C   0  0  0  0  0  0  0  0  0  0  0  0
  129.9540  131.5990   54.4560 C   0  0  0  0  0  0  0  0  0  0  0  0
  130.2420  130.2410   54.4170 C   0  0  0  0  0  0  0  0  0  0  0  0
  129.8180  128.2660   57.0180 N   0  0  0  0  0  0  0  0  0  0  0  0
  128.7350  128.7220   57.7090 C   0  0  0  0  0  0  0  0  0  0  0  0
  127.5610  128.3740   57.5720 O   0  0  0  0  0  0  0  0  0  0  0  0
  129.2680  129.7250   58.6640 C   0  0  0  0  0  0  0  0  0  0  0  0
  128.6220  130.5160   59.6150 C   0  0  0  0  0  0  0  0  0  0  0  0
  129.3900  131.3850   60.3970 C   0  0  0  0  0  0  0  0  0  0  0  0
  130.7790  131.4510   60.2220 C   0  0  0  0  0  0  0  0  0  0  0  0
  131.4080  130.6490   59.2630 C   0  0  0  0  0  0  0  0  0  0  0  0
  130.6240  129.7900   58.4930 C   0  0  0  0  0  0  0  0  0  0  0  0
  130.9950  128.8290   57.4240 C   0  0  0  0  0  0  0  0  0  0  0  0
  132.1270  128.5880   57.0030 O   0  0  0  0  0  0  0  0  0  0  0  0
  130.1360  122.3110   60.6000 C   0  0  2  0  0  0  0  0  0  0  0  0
  130.3390  120.7740   60.7370 C   0  0  0  0  0  0  0  0  0  0  0  0
  131.7950  120.3450   60.7620 C   0  0  0  0  0  0  0  0  0  0  0  0
  132.6290  120.7340   61.8330 C   0  0  0  0  0  0  0  0  0  0  0  0
  133.9320  120.2570   61.9060 C   0  0  0  0  0  0  0  0  0  0  0  0
  134.4110  119.3760   60.9450 C   0  0  0  0  0  0  0  0  0  0  0  0
  133.5880  118.9530   59.9080 C   0  0  0  0  0  0  0  0  0  0  0  0
  132.2830  119.4200   59.8160 C   0  0  0  0  0  0  0  0  0  0  0  0
  128.7870  122.6360   60.0550 N   0  0  0  0  0  0  0  0  0  0  0  0
  127.7940  123.1310   60.8460 C   0  0  0  0  0  0  0  0  0  0  0  0
  127.8450  123.3550   62.0560 O   0  0  0  0  0  0  0  0  0  0  0  0
  126.6380  123.3440   59.9400 C   0  0  0  0  0  0  0  0  0  0  0  0
  125.3530  123.8250   60.1940 C   0  0  0  0  0  0  0  0  0  0  0  0
  124.4520  123.9250   59.1290 C   0  0  0  0  0  0  0  0  0  0  0  0
  124.8420  123.5500   57.8360 C   0  0  0  0  0  0  0  0  0  0  0  0
  126.1360  123.0720   57.6010 C   0  0  0  0  0  0  0  0  0  0  0  0
  127.0190  122.9780   58.6780 C   0  0  0  0  0  0  0  0  0  0  0  0
  128.4280  122.5210   58.7410 C   0  0  0  0  0  0  0  0  0  0  0  0
  129.1270  122.1230   57.8090 O   0  0  0  0  0  0  0  0  0  0  0  0
  129.8840  123.9170   58.7690 H   0  0  0  0  0  0  0  0  0  0  0  0
  129.8700  125.5610   57.7690 H   0  0  0  0  0  0  0  0  0  0  0  0
  128.7470  126.6551   56.1582 H   0  0  0  0  0  0  0  0  0  0  0  0
  130.4731  127.6553   54.0169 H   0  0  0  0  0  0  0  0  0  0  0  0
  128.6704  127.2959   54.0994 H   0  0  0  0  0  0  0  0  0  0  0  0
  127.0601  129.0256   54.8351 H   0  0  0  0  0  0  0  0  0  0  0  0
  126.5788  131.4626   54.8906 H   0  0  0  0  0  0  0  0  0  0  0  0
  128.4226  133.1092   54.6421 H   0  0  0  0  0  0  0  0  0  0  0  0
  130.7660  132.3345   54.3575 H   0  0  0  0  0  0  0  0  0  0  0  0
  131.2830  129.9032   54.3065 H   0  0  0  0  0  0  0  0  0  0  0  0
  127.5315  130.4573   59.7469 H   0  0  0  0  0  0  0  0  0  0  0  0
  128.9020  132.0189   61.1520 H   0  0  0  0  0  0  0  0  0  0  0  0
  131.3772  132.1359   60.8409 H   0  0  0  0  0  0  0  0  0  0  0  0
  132.4976  130.6951   59.1195 H   0  0  0  0  0  0  0  0  0  0  0  0
  130.1766  122.7207   61.6201 H   0  0  0  0  0  0  0  0  0  0  0  0
  129.8648  120.4442   61.6731 H   0  0  0  0  0  0  0  0  0  0  0  0
  129.8855  120.3118   59.8478 H   0  0  0  0  0  0  0  0  0  0  0  0
  132.2475  121.4141   62.6089 H   0  0  0  0  0  0  0  0  0  0  0  0
  134.5873  120.5787   62.7288 H   0  0  0  0  0  0  0  0  0  0  0  0
  135.4470  119.0112   61.0050 H   0  0  0  0  0  0  0  0  0  0  0  0
  133.9713  118.2460   59.1575 H   0  0  0  0  0  0  0  0  0  0  0  0
  131.6295  119.0679   59.0043 H   0  0  0  0  0  0  0  0  0  0  0  0
  125.0548  124.1195   61.2110 H   0  0  0  0  0  0  0  0  0  0  0  0
  123.4331  124.2995   59.3068 H   0  0  0  0  0  0  0  0  0  0  0  0
  124.1283  123.6317   57.0030 H   0  0  0  0  0  0  0  0  0  0  0  0
  126.4506  122.7766   56.5892 H   0  0  0  0  0  0  0  0  0  0  0  0
  1  2  2  0
  2  3  1  0
  3  4  1  0
  4  5  2  0
  4  6  1  0
  6  7  1  0
  7  8  2  0
  7  9  1  0
  9 10  1  0
 10 11  1  0
 11 12  2  0
 12 13  1  0
 13 14  2  0
 14 15  1  0
 15 16  2  0
  9 17  1  0
 17 18  1  0
 18 19  2  0
 18 20  1  0
 20 21  2  0
 21 22  1  0
 22 23  2  0
 23 24  1  0
 24 25  2  0
 25 26  1  0
 26 27  2  0
  2 28  1  0
 28 29  1  0
 29 30  1  0
 30 31  2  0
 31 32  1  0
 32 33  2  0
 33 34  1  0
 34 35  2  0
 28 36  1  0
 36 37  1  0
 37 38  2  0
 37 39  1  0
 39 40  2  0
 40 41  1  0
 41 42  2  0
 42 43  1  0
 43 44  2  0
 44 45  1  0
 45 46  2  0
 16 11  1  0
 26 17  1  0
 35 30  1  0
 45 36  1  0
 25 20  1  0
 44 39  1  0
  3 47  1  0
  6 48  1  0
  9 49  1  1
 10 50  1  0
 10 51  1  0
 12 52  1  0
 13 53  1  0
 14 54  1  0
 15 55  1  0
 16 56  1  0
 21 57  1  0
 22 58  1  0
 23 59  1  0
 24 60  1  0
 28 61  1  1
 29 62  1  0
 29 63  1  0
 31 64  1  0
 32 65  1  0
 33 66  1  0
 34 67  1  0
 35 68  1  0
 40 69  1  0
 41 70  1  0
 42 71  1  0
 43 72  1  0
M  END
>  <Binding energies>  (1) 
[-11.61]

>  <Ligand effiencies>  (1) 
[-0.24187499999999998]

>  <Interactions>  (1) 
["V-B:PRO:540:CB:9857, H-B:TYR:531:OH:9767, V-B:MET:535:CE:9807, V-A:ILE:369:CG2:3236, V-B:TYR:539:CD2:9846, V-B:PRO:540:N:9856, V-A:LEU:475:CD1:4257, V-B:PRO:540:CA:9855, V-B:TYR:539:CE2:9848, V-B:TYR:539:C:9839, V-B:TYR:531:CE2:9765, V-B:LEU:363:CD1:8160, V-A:ILE:538:CA:4860, V-A:ASP:366:CA:3209, V-A:ASP:366:CB:3211, V-A:ILE:538:CG2:4863, V-A:ASP:366:C:3207, H-B:TYR:539:OH:9850, V-A:TYR:539:CE2:4876, V-A:PRO:540:CA:4883, H-A:TYR:531:OH:4795, V-A:TYR:539:CZ:4877, V-A:TYR:539:CD2:4874, V-A:PRO:540:CB:4885, V-A:TYR:539:CE1:4875, V-A:TYR:531:CZ:4794, V-A:ILE:538:CB:4862, V-B:ASP:366:CG:8184, V-B:TYR:531:CE1:9764, V-A:PRO:540:C:4881, V-B:TYR:539:CZ:9849, V-A:SER:385:CA:3406, V-B:LEU:363:CA:8156, V-A:SER:385:C:3404, V-A:SER:385:CB:3408, V-A:HIS:383:CD2:3391"]

$$$$
RR19_Rahimova_2017-again1
     RDKit          3D

 71 76  0  0  0  0  0  0  0  0999 V2000
  132.3360  122.3930   59.4910 O   0  0  0  0  0  0  0  0  0  0  0  0
  131.2150  122.9060   59.5110 C   0  0  0  0  0  0  0  0  0  0  0  0
  130.8390  124.0160   58.8310 N   0  0  0  0  0  0  0  0  0  0  0  0
  131.4580  124.7730   57.8760 C   0  0  0  0  0  0  0  0  0  0  0  0
  133.0150  124.6720   57.2510 S   0  0  0  0  0  0  0  0  0  0  0  0
  130.5120  125.6650   57.4030 N   0  0  0  0  0  0  0  0  0  0  0  0
  130.4490  126.2580   56.2560 C   0  0  0  0  0  0  0  0  0  0  0  0
  131.1630  126.1320   55.2410 O   0  0  0  0  0  0  0  0  0  0  0  0
  129.3070  127.3200   56.1100 C   0  0  2  0  0  0  0  0  0  0  0  0
  129.2090  127.8560   54.6430 C   0  0  0  0  0  0  0  0  0  0  0  0
  129.0160  129.3660   54.5320 C   0  0  0  0  0  0  0  0  0  0  0  0
  127.8120  129.9460   54.9370 C   0  0  0  0  0  0  0  0  0  0  0  0
  127.6400  131.3250   54.8500 C   0  0  0  0  0  0  0  0  0  0  0  0
  128.6730  132.1200   54.3540 C   0  0  0  0  0  0  0  0  0  0  0  0
  129.8750  131.5470   53.9430 C   0  0  0  0  0  0  0  0  0  0  0  0
  130.0460  130.1680   54.0300 C   0  0  0  0  0  0  0  0  0  0  0  0
  129.3410  128.3870   57.1640 N   0  0  0  0  0  0  0  0  0  0  0  0
  128.2330  128.7120   57.8880 C   0  0  0  0  0  0  0  0  0  0  0  0
  127.1060  128.2260   57.7890 O   0  0  0  0  0  0  0  0  0  0  0  0
  128.6720  129.7810   58.8210 C   0  0  0  0  0  0  0  0  0  0  0  0
  127.9650  130.4940   59.7910 C   0  0  0  0  0  0  0  0  0  0  0  0
  128.6460  131.4620   60.5380 C   0  0  0  0  0  0  0  0  0  0  0  0
  130.0070  131.7020   60.3110 C   0  0  0  0  0  0  0  0  0  0  0  0
  130.6970  130.9760   59.3350 C   0  0  0  0  0  0  0  0  0  0  0  0
  130.0000  130.0160   58.5990 C   0  0  0  0  0  0  0  0  0  0  0  0
  130.4510  129.1050   57.5200 C   0  0  0  0  0  0  0  0  0  0  0  0
  131.5830  129.0170   57.0480 O   0  0  0  0  0  0  0  0  0  0  0  0
  130.0900  122.2680   60.3790 C   0  0  2  0  0  0  0  0  0  0  0  0
  130.2960  120.7500   60.6520 C   0  0  0  0  0  0  0  0  0  0  0  0
  131.7520  120.3340   60.7610 C   0  0  0  0  0  0  0  0  0  0  0  0
  132.5820  120.9150   61.7430 C   0  0  0  0  0  0  0  0  0  0  0  0
  133.8860  120.4640   61.9070 C   0  0  0  0  0  0  0  0  0  0  0  0
  134.3690  119.4220   61.1250 C   0  0  0  0  0  0  0  0  0  0  0  0
  133.5510  118.8160   60.1810 C   0  0  0  0  0  0  0  0  0  0  0  0
  132.2450  119.2520   60.0020 C   0  0  0  0  0  0  0  0  0  0  0  0
  128.7070  122.5700   59.9020 N   0  0  0  0  0  0  0  0  0  0  0  0
  127.6810  122.7830   60.7740 C   0  0  0  0  0  0  0  0  0  0  0  0
  127.7110  122.6860   62.0010 O   0  0  0  0  0  0  0  0  0  0  0  0
  126.5210  123.1680   59.9320 C   0  0  0  0  0  0  0  0  0  0  0  0
  125.2140  123.5120   60.2800 C   0  0  0  0  0  0  0  0  0  0  0  0
  124.3190  123.8580   59.2610 C   0  0  0  0  0  0  0  0  0  0  0  0
  124.7360  123.8520   57.9230 C   0  0  0  0  0  0  0  0  0  0  0  0
  126.0500  123.5010   57.5940 C   0  0  0  0  0  0  0  0  0  0  0  0
  126.9270  123.1630   58.6260 C   0  0  0  0  0  0  0  0  0  0  0  0
  128.3610  122.7820   58.5970 C   0  0  0  0  0  0  0  0  0  0  0  0
  129.0870  122.6890   57.6060 O   0  0  0  0  0  0  0  0  0  0  0  0
  129.8830  124.2910   58.9970 H   0  0  0  0  0  0  0  0  0  0  0  0
  128.3566  126.8018   56.3053 H   0  0  0  0  0  0  0  0  0  0  0  0
  130.1374  127.5888   54.1169 H   0  0  0  0  0  0  0  0  0  0  0  0
  128.3148  127.3931   54.2001 H   0  0  0  0  0  0  0  0  0  0  0  0
  126.9997  129.3136   55.3246 H   0  0  0  0  0  0  0  0  0  0  0  0
  126.6939  131.7852   55.1710 H   0  0  0  0  0  0  0  0  0  0  0  0
  128.5377  133.2096   54.2866 H   0  0  0  0  0  0  0  0  0  0  0  0
  130.6844  132.1809   53.5519 H   0  0  0  0  0  0  0  0  0  0  0  0
  130.9911  129.7093   53.7039 H   0  0  0  0  0  0  0  0  0  0  0  0
  126.8963  130.2993   59.9643 H   0  0  0  0  0  0  0  0  0  0  0  0
  128.1097  132.0371   61.3071 H   0  0  0  0  0  0  0  0  0  0  0  0
  130.5351  132.4643   60.9025 H   0  0  0  0  0  0  0  0  0  0  0  0
  131.7662  131.1575   59.1511 H   0  0  0  0  0  0  0  0  0  0  0  0
  130.1887  122.7725   61.3515 H   0  0  0  0  0  0  0  0  0  0  0  0
  129.7924  120.4970   61.5967 H   0  0  0  0  0  0  0  0  0  0  0  0
  129.8750  120.2117   59.7900 H   0  0  0  0  0  0  0  0  0  0  0  0
  132.1966  121.7254   62.3791 H   0  0  0  0  0  0  0  0  0  0  0  0
  134.5380  120.9334   62.6583 H   0  0  0  0  0  0  0  0  0  0  0  0
  135.4049  119.0754   61.2545 H   0  0  0  0  0  0  0  0  0  0  0  0
  133.9394  117.9864   59.5719 H   0  0  0  0  0  0  0  0  0  0  0  0
  131.5946  118.7536   59.2681 H   0  0  0  0  0  0  0  0  0  0  0  0
  124.8941  123.5112   61.3325 H   0  0  0  0  0  0  0  0  0  0  0  0
  123.2845  124.1357   59.5113 H   0  0  0  0  0  0  0  0  0  0  0  0
  124.0268  124.1246   57.1275 H   0  0  0  0  0  0  0  0  0  0  0  0
  126.3842  123.4917   56.5460 H   0  0  0  0  0  0  0  0  0  0  0  0
  1  2  2  0
  2  3  1  0
  3  4  1  0
  4  5  2  0
  4  6  1  0
  6  7  2  0
  7  8  1  0
  7  9  1  0
  9 10  1  0
 10 11  1  0
 11 12  2  0
 12 13  1  0
 13 14  2  0
 14 15  1  0
 15 16  2  0
  9 17  1  0
 17 18  1  0
 18 19  2  0
 18 20  1  0
 20 21  2  0
 21 22  1  0
 22 23  2  0
 23 24  1  0
 24 25  2  0
 25 26  1  0
 26 27  2  0
  2 28  1  0
 28 29  1  0
 29 30  1  0
 30 31  2  0
 31 32  1  0
 32 33  2  0
 33 34  1  0
 34 35  2  0
 28 36  1  0
 36 37  1  0
 37 38  2  0
 37 39  1  0
 39 40  2  0
 40 41  1  0
 41 42  2  0
 42 43  1  0
 43 44  2  0
 44 45  1  0
 45 46  2  0
 16 11  1  0
 26 17  1  0
 35 30  1  0
 45 36  1  0
 25 20  1  0
 44 39  1  0
  3 47  1  0
  9 48  1  1
 10 49  1  0
 10 50  1  0
 12 51  1  0
 13 52  1  0
 14 53  1  0
 15 54  1  0
 16 55  1  0
 21 56  1  0
 22 57  1  0
 23 58  1  0
 24 59  1  0
 28 60  1  1
 29 61  1  0
 29 62  1  0
 31 63  1  0
 32 64  1  0
 33 65  1  0
 34 66  1  0
 35 67  1  0
 40 68  1  0
 41 69  1  0
 42 70  1  0
 43 71  1  0
M  CHG  1   8  -1
M  END
>  <Binding energies>  (1) 
[-11.44]

>  <Ligand effiencies>  (1) 
[-0.24340425531914892]

>  <Interactions>  (1) 
["H-B:ALA:541:N:9863, V-B:PRO:540:CB:9857, H-B:TYR:531:OH:9767, V-A:ILE:369:CG2:3236, V-B:TYR:539:CD2:9846, V-B:PRO:540:N:9856, V-A:LEU:475:CD1:4257, V-B:PRO:540:CA:9855, V-B:PRO:540:C:9853, V-B:TYR:539:CE2:9848, V-B:TYR:539:C:9839, V-B:TYR:531:CE2:9765, V-B:LEU:363:CD1:8160, V-A:ILE:538:CA:4860, V-A:ASP:366:CA:3209, V-A:ASP:366:CB:3211, V-A:ILE:538:CG2:4863, V-A:ASP:366:C:3207, H-B:TYR:539:OH:9850, V-A:TYR:539:CE2:4876, V-A:PRO:540:CA:4883, H-A:TYR:531:OH:4795, V-A:TYR:539:CZ:4877, V-A:TYR:539:CD2:4874, V-A:TYR:539:CE1:4875, V-A:TYR:531:CZ:4794, V-A:ILE:538:CB:4862, V-B:ASP:366:CG:8184, V-A:MET:535:CG:4833, V-B:TYR:531:CE1:9764, V-A:PRO:540:C:4881, V-B:TYR:539:CZ:9849, V-A:SER:385:CA:3406, V-B:LEU:363:CA:8156, V-A:SER:385:C:3404, V-A:SER:385:CB:3408, V-A:HIS:383:CD2:3391, V-B:LEU:363:CB:8158"]

$$$$
RR1_Rahimova_2017
     RDKit          3D

 68 71  0  0  0  0  0  0  0  0999 V2000
  133.7010  125.5300   66.0160 C   0  0  0  0  0  0  0  0  0  0  0  0
  133.5310  124.8080   64.8020 O   0  0  0  0  0  0  0  0  0  0  0  0
  132.2600  124.6510   64.2830 C   0  0  0  0  0  0  0  0  0  0  0  0
  131.6750  123.4100   63.9840 C   0  0  0  0  0  0  0  0  0  0  0  0
  130.3890  123.3500   63.4560 C   0  0  0  0  0  0  0  0  0  0  0  0
  129.6650  124.5210   63.2240 C   0  0  0  0  0  0  0  0  0  0  0  0
  128.3920  124.3580   62.6460 N   0  0  0  0  0  0  0  0  0  0  0  0
  127.6400  125.2510   61.9670 C   0  0  0  0  0  0  0  0  0  0  0  0
  127.9390  126.4330   61.7960 O   0  0  0  0  0  0  0  0  0  0  0  0
  126.3300  124.6840   61.3990 C   0  0  0  0  0  0  0  0  0  0  0  0
  126.1490  122.8700   61.5080 S   0  0  0  0  0  0  0  0  0  0  0  0
  127.6490  122.4290   60.6970 C   0  0  0  0  0  0  0  0  0  0  0  0
  128.7480  122.0830   61.3190 N   0  0  0  0  0  0  0  0  0  0  0  0
  129.6040  121.8280   60.3350 C   0  0  0  0  0  0  0  0  0  0  0  0
  131.0130  121.3750   60.5920 C   0  0  0  0  0  0  0  0  0  0  0  0
  131.3150  120.0280   60.8470 C   0  0  0  0  0  0  0  0  0  0  0  0
  132.6340  119.6360   61.0860 C   0  0  0  0  0  0  0  0  0  0  0  0
  133.6310  120.6100   61.0630 C   0  0  0  0  0  0  0  0  0  0  0  0
  133.3740  121.9200   60.8200 N   0  0  0  0  0  0  0  0  0  0  0  0
  132.0850  122.2800   60.5900 C   0  0  0  0  0  0  0  0  0  0  0  0
  129.1300  121.9970   59.1150 N   0  0  0  0  0  0  0  0  0  0  0  0
  127.8720  122.3850   59.3450 N   0  0  0  0  0  0  0  0  0  0  0  0
  126.9640  122.6620   58.2320 C   0  0  0  0  0  0  0  0  0  0  0  0
  127.1600  124.0310   57.5580 C   0  0  0  0  0  0  0  0  0  0  0  0
  126.2100  124.6150   57.0220 O   0  0  0  0  0  0  0  0  0  0  0  0
  128.4170  124.5120   57.6030 N   0  0  0  0  0  0  0  0  0  0  0  0
  128.6400  125.8040   57.1470 N   0  0  0  0  0  0  0  0  0  0  0  0
  129.5780  126.5420   57.7800 C   0  0  0  0  0  0  0  0  0  0  0  0
  130.3190  126.1070   58.6680 O   0  0  0  0  0  0  0  0  0  0  0  0
  129.7050  127.9790   57.3140 C   0  0  0  0  0  0  0  0  0  0  0  0
  130.4650  128.8890   58.0570 C   0  0  0  0  0  0  0  0  0  0  0  0
  130.5850  130.2150   57.6550 C   0  0  0  0  0  0  0  0  0  0  0  0
  129.9400  130.6750   56.4960 C   0  0  0  0  0  0  0  0  0  0  0  0
  130.0070  131.9830   56.0480 O   0  0  0  0  0  0  0  0  0  0  0  0
  131.2760  132.6090   55.9020 C   0  0  0  0  0  0  0  0  0  0  0  0
  129.1680  129.7810   55.7420 C   0  0  0  0  0  0  0  0  0  0  0  0
  128.5360  130.2890   54.6190 O   0  0  0  0  0  0  0  0  0  0  0  0
  128.0310  129.3980   53.6310 C   0  0  0  0  0  0  0  0  0  0  0  0
  129.0600  128.4410   56.1560 C   0  0  0  0  0  0  0  0  0  0  0  0
  130.2460  125.7630   63.5230 C   0  0  0  0  0  0  0  0  0  0  0  0
  131.5320  125.8180   64.0520 C   0  0  0  0  0  0  0  0  0  0  0  0
  133.5420  124.8547   66.8696 H   0  0  0  0  0  0  0  0  0  0  0  0
  134.7205  125.9409   66.0585 H   0  0  0  0  0  0  0  0  0  0  0  0
  132.9720  126.3526   66.0585 H   0  0  0  0  0  0  0  0  0  0  0  0
  132.2356  122.4816   64.1679 H   0  0  0  0  0  0  0  0  0  0  0  0
  129.9400  122.3739   63.2199 H   0  0  0  0  0  0  0  0  0  0  0  0
  127.9790  123.4490   62.7960 H   0  0  0  0  0  0  0  0  0  0  0  0
  125.4951  125.1420   61.9496 H   0  0  0  0  0  0  0  0  0  0  0  0
  126.3363  124.9239   60.3255 H   0  0  0  0  0  0  0  0  0  0  0  0
  130.5099  119.2786   60.8586 H   0  0  0  0  0  0  0  0  0  0  0  0
  132.8804  118.5831   61.2877 H   0  0  0  0  0  0  0  0  0  0  0  0
  134.6708  120.3034   61.2499 H   0  0  0  0  0  0  0  0  0  0  0  0
  131.8694  123.3402   60.3911 H   0  0  0  0  0  0  0  0  0  0  0  0
  127.1106  121.8824   57.4699 H   0  0  0  0  0  0  0  0  0  0  0  0
  125.9498  122.6715   58.6578 H   0  0  0  0  0  0  0  0  0  0  0  0
  129.1490  124.1600   58.2050 H   0  0  0  0  0  0  0  0  0  0  0  0
  127.7910  126.2230   56.7960 H   0  0  0  0  0  0  0  0  0  0  0  0
  130.9745  128.5511   58.9715 H   0  0  0  0  0  0  0  0  0  0  0  0
  131.1922  130.9113   58.2520 H   0  0  0  0  0  0  0  0  0  0  0  0
  131.6986  132.8174   56.8960 H   0  0  0  0  0  0  0  0  0  0  0  0
  131.9527  131.9413   55.3486 H   0  0  0  0  0  0  0  0  0  0  0  0
  131.1580  133.5523   55.3486 H   0  0  0  0  0  0  0  0  0  0  0  0
  127.5458  128.5420   54.1228 H   0  0  0  0  0  0  0  0  0  0  0  0
  127.2970  129.9245   53.0032 H   0  0  0  0  0  0  0  0  0  0  0  0
  128.8598  129.0388   53.0032 H   0  0  0  0  0  0  0  0  0  0  0  0
  128.4573  127.7402   55.5596 H   0  0  0  0  0  0  0  0  0  0  0  0
  129.6857  126.6917   63.3395 H   0  0  0  0  0  0  0  0  0  0  0  0
  131.9798  126.7939   64.2909 H   0  0  0  0  0  0  0  0  0  0  0  0
  1  2  1  0
  2  3  1  0
  3  4  2  0
  4  5  1  0
  5  6  2  0
  6  7  1  0
  7  8  1  0
  8  9  2  0
  8 10  1  0
 10 11  1  0
 11 12  1  0
 12 13  2  0
 13 14  1  0
 14 15  1  0
 15 16  2  0
 16 17  1  0
 17 18  2  0
 18 19  1  0
 19 20  2  0
 14 21  2  0
 21 22  1  0
 22 23  1  0
 23 24  1  0
 24 25  2  0
 24 26  1  0
 26 27  1  0
 27 28  1  0
 28 29  2  0
 28 30  1  0
 30 31  2  0
 31 32  1  0
 32 33  2  0
 33 34  1  0
 34 35  1  0
 33 36  1  0
 36 37  1  0
 37 38  1  0
 36 39  2  0
  6 40  1  0
 40 41  2  0
 41  3  1  0
 22 12  1  0
 39 30  1  0
 20 15  1  0
  1 42  1  0
  1 43  1  0
  1 44  1  0
  4 45  1  0
  5 46  1  0
  7 47  1  0
 10 48  1  0
 10 49  1  0
 16 50  1  0
 17 51  1  0
 18 52  1  0
 20 53  1  0
 23 54  1  0
 23 55  1  0
 26 56  1  0
 27 57  1  0
 31 58  1  0
 32 59  1  0
 35 60  1  0
 35 61  1  0
 35 62  1  0
 38 63  1  0
 38 64  1  0
 38 65  1  0
 39 66  1  0
 40 67  1  0
 41 68  1  0
M  END
>  <Binding energies>  (1) 
[-8.04]

>  <Ligand effiencies>  (1) 
[-0.1827272727272727]

>  <Interactions>  (1) 
["H-B:ALA:541:N:9863, V-B:PRO:540:CB:9857, H-B:TYR:531:OH:9767, V-B:MET:535:CE:9807, V-A:ILE:369:CG2:3236, V-B:TYR:539:CD2:9846, V-B:PRO:540:N:9856, V-A:LEU:475:CD1:4257, V-B:PRO:540:CA:9855, V-B:PRO:540:C:9853, V-B:TYR:539:CE2:9848, V-B:TYR:539:C:9839, H-A:TYR:484:OH:4347, H-A:GLY:454:N:4049, V-A:PRO:540:N:4884, V-A:ILE:538:CA:4860, V-A:ILE:538:CG2:4863, H-A:TYR:539:N:4870, V-A:ILE:538:CB:4862, V-B:TYR:531:CE1:9764, H-B:LYS:534:NZ:9795, V-A:PRO:540:CD:4887, V-A:TYR:539:C:4867, V-A:ARG:545:CD:4923, V-B:GLU:543:CG:9879, H-B:GLU:543:OE1:9881, V-B:GLU:543:CD:9880, H-B:GLU:543:OE2:9882, V-A:ARG:545:CG:4922, V-A:ARG:545:CZ:4926, V-B:LYS:534:CE:9794, V-A:ILE:538:C:4858, V-B:LYS:534:CD:9793"]

$$$$
RR20_Rahimova_2017
     RDKit          3D

 68 73  0  0  0  0  0  0  0  0999 V2000
  133.2150  130.9160   57.9050 C   0  0  0  0  0  0  0  0  0  0  0  0
  131.8040  130.8100   57.3560 C   0  0  0  0  0  0  0  0  0  0  0  0
  131.1780  129.5650   57.2860 C   0  0  0  0  0  0  0  0  0  0  0  0
  129.8800  129.4670   56.7920 C   0  0  0  0  0  0  0  0  0  0  0  0
  129.2030  130.6100   56.3510 C   0  0  0  0  0  0  0  0  0  0  0  0
  127.7860  130.4840   55.8370 C   0  0  0  0  0  0  0  0  0  0  0  0
  127.6100  130.5750   54.6190 O   0  0  0  0  0  0  0  0  0  0  0  0
  126.7700  130.2630   56.7220 N   0  0  0  0  0  0  0  0  0  0  0  0
  125.5730  129.4930   56.3460 C   0  0  0  0  0  0  0  0  0  0  0  0
  124.7540  129.3290   57.6150 C   0  0  0  0  0  0  0  0  0  0  0  0
  125.7300  129.6940   58.6920 C   0  0  0  0  0  0  0  0  0  0  0  0
  125.5680  129.6470   60.0770 C   0  0  0  0  0  0  0  0  0  0  0  0
  126.5410  130.1870   60.9270 C   0  0  0  0  0  0  0  0  0  0  0  0
  126.3720  130.1290   62.4200 C   0  0  0  0  0  0  0  0  0  0  0  0
  127.1240  129.2820   63.1050 N   0  0  0  0  0  0  0  0  0  0  0  0
  126.9070  129.3300   64.3950 C   0  0  0  0  0  0  0  0  0  0  0  0
  127.5210  128.5880   65.3920 N   0  0  0  0  0  0  0  0  0  0  0  0
  126.9500  128.1210   66.5290 C   0  0  0  0  0  0  0  0  0  0  0  0
  125.7640  128.2840   66.8220 O   0  0  0  0  0  0  0  0  0  0  0  0
  127.8340  127.3110   67.5070 C   0  0  0  0  0  0  0  0  0  0  0  0
  129.2010  127.0880   66.9990 N   0  0  0  0  0  0  0  0  0  0  0  0
  130.2030  127.0680   68.0740 C   0  0  0  0  0  0  0  0  0  0  0  0
  131.6280  127.1020   67.4750 C   0  0  0  0  0  0  0  0  0  0  0  0
  131.8090  126.1250   66.3130 C   0  0  0  0  0  0  0  0  0  0  0  0
  133.0830  125.8180   65.8220 C   0  0  0  0  0  0  0  0  0  0  0  0
  133.2470  124.9590   64.7380 C   0  0  0  0  0  0  0  0  0  0  0  0
  132.1300  124.3910   64.1310 C   0  0  0  0  0  0  0  0  0  0  0  0
  130.8570  124.6810   64.6160 C   0  0  0  0  0  0  0  0  0  0  0  0
  130.6790  125.5440   65.7030 C   0  0  0  0  0  0  0  0  0  0  0  0
  129.2860  125.8160   66.2710 C   0  0  0  0  0  0  0  0  0  0  0  0
  125.7030  130.4610   64.8730 S   0  0  0  0  0  0  0  0  0  0  0  0
  125.4730  130.8930   63.1950 C   0  0  0  0  0  0  0  0  0  0  0  0
  124.4260  131.9110   62.8020 C   0  0  0  0  0  0  0  0  0  0  0  0
  127.6530  130.8240   60.3530 C   0  0  0  0  0  0  0  0  0  0  0  0
  127.8070  130.8890   58.9690 C   0  0  0  0  0  0  0  0  0  0  0  0
  126.8690  130.2700   58.1320 C   0  0  0  0  0  0  0  0  0  0  0  0
  129.8270  131.8600   56.4520 C   0  0  0  0  0  0  0  0  0  0  0  0
  131.1250  131.9590   56.9470 C   0  0  0  0  0  0  0  0  0  0  0  0
  133.1818  130.9135   59.0045 H   0  0  0  0  0  0  0  0  0  0  0  0
  133.8102  130.0600   57.5542 H   0  0  0  0  0  0  0  0  0  0  0  0
  133.6756  131.8513   57.5542 H   0  0  0  0  0  0  0  0  0  0  0  0
  131.7094  128.6619   57.6207 H   0  0  0  0  0  0  0  0  0  0  0  0
  129.3839  128.4862   56.7480 H   0  0  0  0  0  0  0  0  0  0  0  0
  124.9931  130.0377   55.5864 H   0  0  0  0  0  0  0  0  0  0  0  0
  125.8444  128.5171   55.9170 H   0  0  0  0  0  0  0  0  0  0  0  0
  123.8887  130.0081   57.6182 H   0  0  0  0  0  0  0  0  0  0  0  0
  124.3334  128.3195   57.7335 H   0  0  0  0  0  0  0  0  0  0  0  0
  124.6679  129.1816   60.5050 H   0  0  0  0  0  0  0  0  0  0  0  0
  128.5010  128.3840   65.2540 H   0  0  0  0  0  0  0  0  0  0  0  0
  127.8987  127.8602   68.4579 H   0  0  0  0  0  0  0  0  0  0  0  0
  127.3651  126.3240   67.6338 H   0  0  0  0  0  0  0  0  0  0  0  0
  130.0596  127.9460   68.7210 H   0  0  0  0  0  0  0  0  0  0  0  0
  130.0819  126.1457   68.6610 H   0  0  0  0  0  0  0  0  0  0  0  0
  131.8320  128.1203   67.1123 H   0  0  0  0  0  0  0  0  0  0  0  0
  132.3271  126.8025   68.2697 H   0  0  0  0  0  0  0  0  0  0  0  0
  133.9688  126.2621   66.2997 H   0  0  0  0  0  0  0  0  0  0  0  0
  134.2554  124.7301   64.3627 H   0  0  0  0  0  0  0  0  0  0  0  0
  132.2525  123.7156   63.2714 H   0  0  0  0  0  0  0  0  0  0  0  0
  129.9781  124.2246   64.1372 H   0  0  0  0  0  0  0  0  0  0  0  0
  128.5668  125.8397   65.4390 H   0  0  0  0  0  0  0  0  0  0  0  0
  129.0601  125.0119   66.9867 H   0  0  0  0  0  0  0  0  0  0  0  0
  123.9789  132.3457   63.7082 H   0  0  0  0  0  0  0  0  0  0  0  0
  124.8949  132.7078   62.2060 H   0  0  0  0  0  0  0  0  0  0  0  0
  123.6427  131.4199   62.2060 H   0  0  0  0  0  0  0  0  0  0  0  0
  128.4137  131.2783   61.0049 H   0  0  0  0  0  0  0  0  0  0  0  0
  128.6635  131.4254   58.5346 H   0  0  0  0  0  0  0  0  0  0  0  0
  129.2895  132.7673   56.1390 H   0  0  0  0  0  0  0  0  0  0  0  0
  131.6146  132.9416   57.0156 H   0  0  0  0  0  0  0  0  0  0  0  0
  1  2  1  0
  2  3  2  0
  3  4  1  0
  4  5  2  0
  5  6  1  0
  6  7  2  0
  6  8  1  0
  8  9  1  0
  9 10  1  0
 10 11  1  0
 11 12  2  0
 12 13  1  0
 13 14  1  0
 14 15  1  0
 15 16  2  0
 16 17  1  0
 17 18  1  0
 18 19  2  0
 18 20  1  0
 20 21  1  0
 21 22  1  0
 22 23  1  0
 23 24  1  0
 24 25  2  0
 25 26  1  0
 26 27  2  0
 27 28  1  0
 28 29  2  0
 29 30  1  0
 16 31  1  0
 31 32  1  0
 32 33  1  0
 13 34  2  0
 34 35  1  0
 35 36  2  0
  5 37  1  0
 37 38  2  0
 38  2  1  0
 36  8  1  0
 36 11  1  0
 32 14  2  0
 30 21  1  0
 29 24  1  0
  1 39  1  0
  1 40  1  0
  1 41  1  0
  3 42  1  0
  4 43  1  0
  9 44  1  0
  9 45  1  0
 10 46  1  0
 10 47  1  0
 12 48  1  0
 17 49  1  0
 20 50  1  0
 20 51  1  0
 22 52  1  0
 22 53  1  0
 23 54  1  0
 23 55  1  0
 25 56  1  0
 26 57  1  0
 27 58  1  0
 28 59  1  0
 30 60  1  0
 30 61  1  0
 33 62  1  0
 33 63  1  0
 33 64  1  0
 34 65  1  0
 35 66  1  0
 37 67  1  0
 38 68  1  0
M  END
>  <Binding energies>  (1) 
[-10.73]

>  <Ligand effiencies>  (1) 
[-0.2751282051282051]

>  <Interactions>  (1) 
["V-B:TYR:531:CZ:9766, V-A:PRO:540:N:4884, V-A:TYR:539:CD1:4873, V-A:PRO:540:CA:4883, V-A:TYR:539:CZ:4877, V-A:PRO:540:CB:4885, V-A:TYR:539:CE1:4875, V-B:ASP:366:CG:8184, V-B:TYR:531:CE1:9764, H-B:LYS:534:NZ:9795, V-B:ASP:366:CB:8183, V-A:PRO:540:CD:4887, V-B:ASP:366:CA:8181, V-A:TYR:539:C:4867, V-A:LEU:363:CD1:3188, V-B:ILE:369:CD1:8210, V-B:GLY:454:CA:9020, V-A:GLU:543:CD:4908, H-B:ARG:545:NE:9896, H-B:TYR:484:OH:9319, V-B:ASP:366:C:8179, H-A:TYR:539:OH:4878, V-B:HIS:456:CE1:9041, V-A:HIS:456:CE1:4069, V-B:GLU:543:CB:9878, V-A:ARG:545:CD:4923, V-B:GLU:543:CG:9879, V-B:GLU:543:CD:9880, H-B:GLU:543:OE2:9882, V-A:ARG:545:CG:4922, V-A:ARG:545:CZ:4926, V-A:GLU:543:CB:4906, V-A:LEU:363:CA:3184, V-A:LEU:363:CB:3186, V-B:LEU:475:CD1:9229, H-A:GLU:543:OE1:4909"]

$$$$
RR20_Rahimova_2017-again1
     RDKit          3D

 68 73  0  0  0  0  0  0  0  0999 V2000
  128.8000  126.6610   68.0090 C   0  0  0  0  0  0  0  0  0  0  0  0
  129.9640  126.2130   67.1430 C   0  0  0  0  0  0  0  0  0  0  0  0
  129.7320  125.3990   66.0330 C   0  0  0  0  0  0  0  0  0  0  0  0
  130.7970  124.9930   65.2340 C   0  0  0  0  0  0  0  0  0  0  0  0
  132.1030  125.3880   65.5430 C   0  0  0  0  0  0  0  0  0  0  0  0
  133.2460  124.9520   64.6530 C   0  0  0  0  0  0  0  0  0  0  0  0
  134.3740  125.3710   64.9210 O   0  0  0  0  0  0  0  0  0  0  0  0
  132.9950  124.1000   63.6150 N   0  0  0  0  0  0  0  0  0  0  0  0
  133.1890  122.6470   63.7510 C   0  0  0  0  0  0  0  0  0  0  0  0
  132.6720  122.0240   62.4650 C   0  0  0  0  0  0  0  0  0  0  0  0
  131.8780  123.1380   61.8520 C   0  0  0  0  0  0  0  0  0  0  0  0
  131.1000  123.1280   60.6940 C   0  0  0  0  0  0  0  0  0  0  0  0
  130.5620  124.3200   60.1830 C   0  0  0  0  0  0  0  0  0  0  0  0
  129.7300  124.3100   58.9330 C   0  0  0  0  0  0  0  0  0  0  0  0
  129.8760  125.3090   58.0760 N   0  0  0  0  0  0  0  0  0  0  0  0
  129.1050  125.2250   57.0200 C   0  0  0  0  0  0  0  0  0  0  0  0
  128.9750  126.1010   55.9740 N   0  0  0  0  0  0  0  0  0  0  0  0
  129.9430  126.5020   55.2200 C   0  0  0  0  0  0  0  0  0  0  0  0
  131.1460  126.1790   55.1770 O   0  0  0  0  0  0  0  0  0  0  0  0
  129.5280  127.5630   54.1810 C   0  0  0  0  0  0  0  0  0  0  0  0
  128.4610  128.5170   54.7930 N   0  0  2  0  0  0  0  0  0  0  0  0
  128.1300  129.7060   53.8680 C   0  0  0  0  0  0  0  0  0  0  0  0
  129.3640  130.6130   53.7150 C   0  0  0  0  0  0  0  0  0  0  0  0
  130.0130  130.9750   55.0480 C   0  0  0  0  0  0  0  0  0  0  0  0
  130.8550  132.0900   55.1300 C   0  0  0  0  0  0  0  0  0  0  0  0
  131.5020  132.4220   56.3170 C   0  0  0  0  0  0  0  0  0  0  0  0
  131.3100  131.6380   57.4470 C   0  0  0  0  0  0  0  0  0  0  0  0
  130.4650  130.5330   57.3850 C   0  0  0  0  0  0  0  0  0  0  0  0
  129.8000  130.1870   56.2030 C   0  0  0  0  0  0  0  0  0  0  0  0
  128.8420  128.9900   56.2170 C   0  0  0  0  0  0  0  0  0  0  0  0
  128.0780  123.8400   57.0360 S   0  0  0  0  0  0  0  0  0  0  0  0
  128.7850  123.3370   58.5520 C   0  0  0  0  0  0  0  0  0  0  0  0
  128.3610  122.0380   59.2040 C   0  0  0  0  0  0  0  0  0  0  0  0
  130.8650  125.5220   60.8360 C   0  0  0  0  0  0  0  0  0  0  0  0
  131.6580  125.5370   61.9840 C   0  0  0  0  0  0  0  0  0  0  0  0
  132.1230  124.3330   62.5290 C   0  0  0  0  0  0  0  0  0  0  0  0
  132.3240  126.2300   66.6400 C   0  0  0  0  0  0  0  0  0  0  0  0
  131.2600  126.6360   67.4400 C   0  0  0  0  0  0  0  0  0  0  0  0
  129.0709  126.5567   69.0700 H   0  0  0  0  0  0  0  0  0  0  0  0
  128.5655  127.7136   67.7922 H   0  0  0  0  0  0  0  0  0  0  0  0
  127.9203  126.0372   67.7922 H   0  0  0  0  0  0  0  0  0  0  0  0
  128.7082  125.0786   65.7899 H   0  0  0  0  0  0  0  0  0  0  0  0
  130.6108  124.3583   64.3551 H   0  0  0  0  0  0  0  0  0  0  0  0
  134.2563  122.4163   63.8835 H   0  0  0  0  0  0  0  0  0  0  0  0
  132.6547  122.2533   64.6282 H   0  0  0  0  0  0  0  0  0  0  0  0
  133.5021  121.7218   61.8095 H   0  0  0  0  0  0  0  0  0  0  0  0
  132.0835  121.1094   62.6301 H   0  0  0  0  0  0  0  0  0  0  0  0
  130.9062  122.1770   60.1763 H   0  0  0  0  0  0  0  0  0  0  0  0
  130.4114  128.1471   53.8837 H   0  0  0  0  0  0  0  0  0  0  0  0
  129.1008  127.0597   53.3011 H   0  0  0  0  0  0  0  0  0  0  0  0
  127.6130  127.9710   54.8720 H   0  0  0  0  0  0  0  0  0  0  0  0
  127.8319  129.3266   52.8795 H   0  0  0  0  0  0  0  0  0  0  0  0
  127.3066  130.2876   54.3081 H   0  0  0  0  0  0  0  0  0  0  0  0
  130.1072  130.0905   53.0948 H   0  0  0  0  0  0  0  0  0  0  0  0
  129.0248  131.5510   53.2512 H   0  0  0  0  0  0  0  0  0  0  0  0
  131.0085  132.7163   54.2389 H   0  0  0  0  0  0  0  0  0  0  0  0
  132.1620  133.3009   56.3597 H   0  0  0  0  0  0  0  0  0  0  0  0
  131.8232  131.8888   58.3870 H   0  0  0  0  0  0  0  0  0  0  0  0
  130.3168  129.9183   58.2851 H   0  0  0  0  0  0  0  0  0  0  0  0
  129.3265  128.1569   56.7473 H   0  0  0  0  0  0  0  0  0  0  0  0
  127.9177  129.3084   56.7212 H   0  0  0  0  0  0  0  0  0  0  0  0
  128.3969  122.1480   60.2979 H   0  0  0  0  0  0  0  0  0  0  0  0
  127.3352  121.7898   58.8939 H   0  0  0  0  0  0  0  0  0  0  0  0
  129.0428  121.2324   58.8939 H   0  0  0  0  0  0  0  0  0  0  0  0
  130.4716  126.4687   60.4374 H   0  0  0  0  0  0  0  0  0  0  0  0
  131.9179  126.4936   62.4608 H   0  0  0  0  0  0  0  0  0  0  0  0
  133.3437  126.5722   66.8705 H   0  0  0  0  0  0  0  0  0  0  0  0
  131.4407  127.2899   68.3059 H   0  0  0  0  0  0  0  0  0  0  0  0
  1  2  1  0
  2  3  2  0
  3  4  1  0
  4  5  2  0
  5  6  1  0
  6  7  2  0
  6  8  1  0
  8  9  1  0
  9 10  1  0
 10 11  1  0
 11 12  2  0
 12 13  1  0
 13 14  1  0
 14 15  1  0
 15 16  2  0
 16 17  1  0
 17 18  2  0
 18 19  1  0
 18 20  1  0
 20 21  1  0
 21 22  1  0
 22 23  1  0
 23 24  1  0
 24 25  2  0
 25 26  1  0
 26 27  2  0
 27 28  1  0
 28 29  2  0
 29 30  1  0
 16 31  1  0
 31 32  1  0
 32 33  1  0
 13 34  2  0
 34 35  1  0
 35 36  2  0
  5 37  1  0
 37 38  2  0
 38  2  1  0
 36  8  1  0
 36 11  1  0
 32 14  2  0
 30 21  1  0
 29 24  1  0
  1 39  1  0
  1 40  1  0
  1 41  1  0
  3 42  1  0
  4 43  1  0
  9 44  1  0
  9 45  1  0
 10 46  1  0
 10 47  1  0
 12 48  1  0
 20 49  1  0
 20 50  1  0
 21 51  1  1
 22 52  1  0
 22 53  1  0
 23 54  1  0
 23 55  1  0
 25 56  1  0
 26 57  1  0
 27 58  1  0
 28 59  1  0
 30 60  1  0
 30 61  1  0
 33 62  1  0
 33 63  1  0
 33 64  1  0
 34 65  1  0
 35 66  1  0
 37 67  1  0
 38 68  1  0
M  CHG  2  19  -1  21   1
M  END
>  <Binding energies>  (1) 
[-10.39]

>  <Ligand effiencies>  (1) 
[-0.26641025641025645]

>  <Interactions>  (1) 
["H-B:TYR:531:OH:9767, V-B:MET:535:CE:9807, V-B:TYR:539:CD2:9846, V-B:PRO:540:N:9856, V-A:LEU:475:CD1:4257, V-B:PRO:540:CA:9855, V-B:TYR:539:CE2:9848, V-B:TYR:539:C:9839, V-B:TYR:531:CZ:9766, V-A:ASP:366:CG:3212, H-A:GLY:454:N:4049, V-A:PRO:540:N:4884, V-A:ILE:538:CA:4860, V-A:ILE:538:CG2:4863, H-B:TYR:539:OH:9850, V-A:PRO:540:CA:4883, H-A:TYR:531:OH:4795, V-A:PRO:540:CB:4885, V-A:ILE:538:CB:4862, V-A:MET:535:CG:4833, V-B:TYR:531:CE1:9764, V-A:PRO:540:CD:4887, V-A:TYR:539:C:4867, V-A:LEU:363:CD1:3188, H-A:ARG:545:NH2:4928, V-A:TYR:484:CZ:4346, V-A:HIS:456:CE1:4069, V-B:GLU:543:CB:9878, V-B:GLU:543:CG:9879, V-B:GLU:543:CD:9880, H-A:ARG:545:NE:4924, V-A:ARG:545:CG:4922, V-A:ARG:545:CZ:4926, H-A:ARG:545:NH1:4927, H-B:MET:535:SD:9806, V-B:LYS:534:CE:9794, V-B:LYS:534:CD:9793, V-A:GLY:454:CA:4048, V-A:MET:535:CE:4835"]

$$$$
RR21_Rahimova_2017
     RDKit          3D

 62 67  0  0  0  0  0  0  0  0999 V2000
  124.5890  130.1820   62.4570 C   0  0  0  0  0  0  0  0  0  0  0  0
  124.4440  130.2380   63.8730 O   0  0  0  0  0  0  0  0  0  0  0  0
  125.3750  129.6030   64.6730 C   0  0  0  0  0  0  0  0  0  0  0  0
  126.7280  129.4340   64.3300 C   0  0  0  0  0  0  0  0  0  0  0  0
  127.6040  128.7820   65.1970 C   0  0  0  0  0  0  0  0  0  0  0  0
  127.1550  128.2860   66.4260 C   0  0  0  0  0  0  0  0  0  0  0  0
  128.1000  127.5900   67.3570 C   0  0  0  0  0  0  0  0  0  0  0  0
  128.1700  127.9640   68.6200 N   0  0  0  0  0  0  0  0  0  0  0  0
  129.0840  127.1760   69.2050 N   0  0  0  0  0  0  0  0  0  0  0  0
  129.3950  127.2990   70.5840 C   0  0  0  0  0  0  0  0  0  0  0  0
  130.1960  128.3530   71.0480 C   0  0  0  0  0  0  0  0  0  0  0  0
  130.4900  128.4660   72.4050 C   0  0  0  0  0  0  0  0  0  0  0  0
  129.9860  127.5260   73.3010 C   0  0  0  0  0  0  0  0  0  0  0  0
  129.1930  126.4730   72.8530 C   0  0  0  0  0  0  0  0  0  0  0  0
  128.8970  126.3580   71.4970 C   0  0  0  0  0  0  0  0  0  0  0  0
  129.5860  126.2780   68.2970 C   0  0  0  0  0  0  0  0  0  0  0  0
  128.9810  126.5220   67.0730 C   0  0  0  0  0  0  0  0  0  0  0  0
  129.1570  125.7980   65.8230 C   0  0  0  0  0  0  0  0  0  0  0  0
  130.3100  125.5210   65.1710 C   0  0  0  0  0  0  0  0  0  0  0  0
  131.9650  125.9680   65.6410 S   0  0  0  0  0  0  0  0  0  0  0  0
  132.5780  125.1380   64.2180 C   0  0  0  0  0  0  0  0  0  0  0  0
  133.8130  124.9990   63.8480 N   0  0  0  0  0  0  0  0  0  0  0  0
  134.1770  124.2880   62.6720 C   0  0  0  0  0  0  0  0  0  0  0  0
  135.3230  124.0950   62.2650 O   0  0  0  0  0  0  0  0  0  0  0  0
  133.0050  123.7390   61.9060 C   0  0  0  0  0  0  0  0  0  0  0  0
  133.2740  122.9690   60.6070 C   0  0  0  0  0  0  0  0  0  0  0  0
  132.7090  121.5500   60.5880 C   0  0  0  0  0  0  0  0  0  0  0  0
  133.5620  120.4540   60.7430 C   0  0  0  0  0  0  0  0  0  0  0  0
  133.0440  119.1620   60.7420 C   0  0  0  0  0  0  0  0  0  0  0  0
  131.6710  118.9610   60.5900 C   0  0  0  0  0  0  0  0  0  0  0  0
  131.1100  117.5510   60.6020 C   0  0  0  0  0  0  0  0  0  0  0  0
  130.8140  120.0560   60.4470 C   0  0  0  0  0  0  0  0  0  0  0  0
  131.3320  121.3480   60.4470 C   0  0  0  0  0  0  0  0  0  0  0  0
  131.7770  123.8900   62.2850 N   0  0  0  0  0  0  0  0  0  0  0  0
  131.5620  124.6030   63.4700 N   0  0  0  0  0  0  0  0  0  0  0  0
  130.2950  124.7750   63.9210 C   0  0  0  0  0  0  0  0  0  0  0  0
  129.2810  124.3510   63.3530 O   0  0  0  0  0  0  0  0  0  0  0  0
  125.8080  128.4470   66.7650 C   0  0  0  0  0  0  0  0  0  0  0  0
  124.9290  129.0990   65.8990 C   0  0  0  0  0  0  0  0  0  0  0  0
  123.6310  129.2400   66.2570 F   0  0  0  0  0  0  0  0  0  0  0  0
  125.5880  129.7962   62.2057 H   0  0  0  0  0  0  0  0  0  0  0  0
  123.8219  129.5155   62.0359 H   0  0  0  0  0  0  0  0  0  0  0  0
  124.4691  131.1911   62.0359 H   0  0  0  0  0  0  0  0  0  0  0  0
  127.0988  129.8197   63.3689 H   0  0  0  0  0  0  0  0  0  0  0  0
  128.6589  128.6562   64.9119 H   0  0  0  0  0  0  0  0  0  0  0  0
  130.5934  129.0930   70.3377 H   0  0  0  0  0  0  0  0  0  0  0  0
  131.1173  129.2938   72.7673 H   0  0  0  0  0  0  0  0  0  0  0  0
  130.2167  127.6165   74.3727 H   0  0  0  0  0  0  0  0  0  0  0  0
  128.8015  125.7342   73.5678 H   0  0  0  0  0  0  0  0  0  0  0  0
  128.2708  125.5267   71.1410 H   0  0  0  0  0  0  0  0  0  0  0  0
  130.3366  125.5009   68.5036 H   0  0  0  0  0  0  0  0  0  0  0  0
  128.2360  125.4291   65.3479 H   0  0  0  0  0  0  0  0  0  0  0  0
  132.8240  123.5300   59.7747 H   0  0  0  0  0  0  0  0  0  0  0  0
  134.3663  122.8740   60.5180 H   0  0  0  0  0  0  0  0  0  0  0  0
  134.6436  120.6124   60.8659 H   0  0  0  0  0  0  0  0  0  0  0  0
  133.7164  118.2996   60.8610 H   0  0  0  0  0  0  0  0  0  0  0  0
  130.9775  117.2179   61.6420 H   0  0  0  0  0  0  0  0  0  0  0  0
  130.1384  117.5385   60.0864 H   0  0  0  0  0  0  0  0  0  0  0  0
  131.8075  116.8745   60.0864 H   0  0  0  0  0  0  0  0  0  0  0  0
  129.7314  119.8969   60.3346 H   0  0  0  0  0  0  0  0  0  0  0  0
  130.6583  122.2105   60.3361 H   0  0  0  0  0  0  0  0  0  0  0  0
  125.4374  128.0558   67.7240 H   0  0  0  0  0  0  0  0  0  0  0  0
  1  2  1  0
  2  3  1  0
  3  4  2  0
  4  5  1  0
  5  6  2  0
  6  7  1  0
  7  8  2  0
  8  9  1  0
  9 10  1  0
 10 11  2  0
 11 12  1  0
 12 13  2  0
 13 14  1  0
 14 15  2  0
  9 16  1  0
 16 17  2  0
 17 18  1  0
 18 19  2  0
 19 20  1  0
 20 21  1  0
 21 22  2  0
 22 23  1  0
 23 24  2  0
 23 25  1  0
 25 26  1  0
 26 27  1  0
 27 28  2  0
 28 29  1  0
 29 30  2  0
 30 31  1  0
 30 32  1  0
 32 33  2  0
 25 34  2  0
 34 35  1  0
 35 36  1  0
 36 37  2  0
  6 38  1  0
 38 39  2  0
 39 40  1  0
 39  3  1  0
 17  7  1  0
 36 19  1  0
 15 10  1  0
 35 21  1  0
 33 27  1  0
  1 41  1  0
  1 42  1  0
  1 43  1  0
  4 44  1  0
  5 45  1  0
 11 46  1  0
 12 47  1  0
 13 48  1  0
 14 49  1  0
 15 50  1  0
 16 51  1  0
 18 52  1  0
 26 53  1  0
 26 54  1  0
 28 55  1  0
 29 56  1  0
 31 57  1  0
 31 58  1  0
 31 59  1  0
 32 60  1  0
 33 61  1  0
 38 62  1  0
M  END
>  <Binding energies>  (1) 
[-10.95]

>  <Ligand effiencies>  (1) 
[-0.27375]

>  <Interactions>  (1) 
["V-A:ILE:369:CG2:3236, V-B:TYR:539:CD2:9846, V-A:LEU:475:CD1:4257, V-B:TYR:539:CE2:9848, V-A:PRO:482:CG:4326, H-A:GLY:454:N:4049, V-B:ASP:366:CG:8184, H-B:GLY:454:N:9021, V-B:ARG:545:CZ:9898, V-B:GLY:453:C:9013, V-B:GLY:453:CA:9015, V-B:GLY:454:CA:9020, V-A:GLU:543:CD:4908, H-A:ARG:545:NH2:4928, V-A:GLU:543:C:4902, V-B:HIS:456:CE1:9041, V-A:HIS:456:CE1:4069, V-A:GLY:544:C:4912, V-B:GLU:543:CB:9878, V-B:GLU:543:CG:9879, V-B:GLU:543:CD:9880, V-A:ARG:545:CZ:4926, H-A:ARG:545:NH1:4927, V-B:ARG:545:CG:9894, V-A:GLY:453:CA:4043, V-A:GLY:453:C:4041, V-A:HIS:383:CE1:3392, V-B:HIS:456:CD2:9039, V-A:GLY:544:CA:4914, V-B:ARG:545:CD:9895"]

$$$$
RR22_Rahimova_2017
     RDKit          3D

 49 54  0  0  0  0  0  0  0  0999 V2000
  123.7800  129.8760   55.7390 O   0  0  0  0  0  0  0  0  0  0  0  0
  124.6510  129.8660   56.6060 C   0  0  0  0  0  0  0  0  0  0  0  0
  124.4840  129.6800   57.9680 N   0  0  0  0  0  0  0  0  0  0  0  0
  125.6170  129.6360   58.8410 C   0  0  1  0  0  0  0  0  0  0  0  0
  125.3700  130.6430   59.8260 O   0  0  0  0  0  0  0  0  0  0  0  0
  125.2980  130.2570   61.1650 C   0  0  0  0  0  0  0  0  0  0  0  0
  124.7030  131.1640   62.0430 C   0  0  0  0  0  0  0  0  0  0  0  0
  124.6310  130.8660   63.4030 C   0  0  0  0  0  0  0  0  0  0  0  0
  125.1610  129.6680   63.8850 C   0  0  0  0  0  0  0  0  0  0  0  0
  125.7570  128.7620   63.0070 C   0  0  0  0  0  0  0  0  0  0  0  0
  125.8140  129.0360   61.6370 C   0  0  0  0  0  0  0  0  0  0  0  0
  126.4760  128.1420   60.6120 C   0  0  1  0  0  0  0  0  0  0  0  0
  126.5080  126.6330   60.7480 C   0  0  0  0  0  0  0  0  0  0  0  0
  126.5220  126.2370   59.2680 C   0  0  0  0  0  0  0  0  0  0  0  0
  126.9390  124.8990   58.8040 C   0  0  0  0  0  0  0  0  0  0  0  0
  128.2430  124.4380   59.0350 C   0  0  0  0  0  0  0  0  0  0  0  0
  128.6300  123.1740   58.5970 C   0  0  0  0  0  0  0  0  0  0  0  0
  127.7170  122.3660   57.9240 C   0  0  0  0  0  0  0  0  0  0  0  0
  126.4190  122.8100   57.6870 C   0  0  0  0  0  0  0  0  0  0  0  0
  126.0300  124.0720   58.1260 C   0  0  0  0  0  0  0  0  0  0  0  0
  126.1100  127.1980   58.5300 N   0  0  0  0  0  0  0  0  0  0  0  0
  125.7760  128.2730   59.3700 N   0  0  0  0  0  0  0  0  0  0  0  0
  126.8150  130.0950   58.0230 C   0  0  0  0  0  0  0  0  0  0  0  0
  127.9760  130.5060   58.5840 C   0  0  0  0  0  0  0  0  0  0  0  0
  129.2130  130.9550   57.9140 C   0  0  0  0  0  0  0  0  0  0  0  0
  130.4670  130.3740   58.1490 C   0  0  0  0  0  0  0  0  0  0  0  0
  131.5940  130.8510   57.4790 C   0  0  0  0  0  0  0  0  0  0  0  0
  131.4370  131.9120   56.5870 C   0  0  0  0  0  0  0  0  0  0  0  0
  130.2390  132.4990   56.3460 N   0  0  0  0  0  0  0  0  0  0  0  0
  129.1540  132.0190   57.0070 C   0  0  0  0  0  0  0  0  0  0  0  0
  126.4260  130.1050   56.2960 S   0  0  0  0  0  0  0  0  0  0  0  0
  123.5620  129.6160   58.3720 H   0  0  0  0  0  0  0  0  0  0  0  0
  124.2921  132.1111   61.6632 H   0  0  0  0  0  0  0  0  0  0  0  0
  124.1562  131.5754   64.0967 H   0  0  0  0  0  0  0  0  0  0  0  0
  125.1087  129.4377   64.9593 H   0  0  0  0  0  0  0  0  0  0  0  0
  126.1849  127.8259   63.3952 H   0  0  0  0  0  0  0  0  0  0  0  0
  127.5099  128.4997   60.7264 H   0  0  0  0  0  0  0  0  0  0  0  0
  127.4118  126.2887   61.2720 H   0  0  0  0  0  0  0  0  0  0  0  0
  125.6850  126.2017   61.3369 H   0  0  0  0  0  0  0  0  0  0  0  0
  128.9639  125.0780   59.5648 H   0  0  0  0  0  0  0  0  0  0  0  0
  129.6532  122.8151   58.7820 H   0  0  0  0  0  0  0  0  0  0  0  0
  128.0241  121.3684   57.5767 H   0  0  0  0  0  0  0  0  0  0  0  0
  125.7036  122.1658   57.1548 H   0  0  0  0  0  0  0  0  0  0  0  0
  125.0043  124.4234   57.9406 H   0  0  0  0  0  0  0  0  0  0  0  0
  128.0016  130.5055   59.6837 H   0  0  0  0  0  0  0  0  0  0  0  0
  130.5624  129.5417   58.8619 H   0  0  0  0  0  0  0  0  0  0  0  0
  132.5831  130.4010   57.6501 H   0  0  0  0  0  0  0  0  0  0  0  0
  132.3237  132.2887   56.0561 H   0  0  0  0  0  0  0  0  0  0  0  0
  128.1783  132.4911   56.8197 H   0  0  0  0  0  0  0  0  0  0  0  0
  1  2  2  0
  2  3  1  0
  3  4  1  0
  4  5  1  1
  5  6  1  0
  6  7  2  0
  7  8  1  0
  8  9  2  0
  9 10  1  0
 10 11  2  0
 11 12  1  0
 12 13  1  0
 13 14  1  0
 14 15  1  0
 15 16  2  0
 16 17  1  0
 17 18  2  0
 18 19  1  0
 19 20  2  0
 14 21  2  0
 21 22  1  0
  4 23  1  0
 23 24  2  0
 24 25  1  0
 25 26  2  0
 26 27  1  0
 27 28  2  0
 28 29  1  0
 29 30  2  0
 23 31  1  0
 31  2  1  0
 22  4  1  0
 30 25  1  0
 11  6  1  0
 22 12  1  0
 20 15  1  0
  3 32  1  0
  7 33  1  0
  8 34  1  0
  9 35  1  0
 10 36  1  0
 12 37  1  6
 13 38  1  0
 13 39  1  0
 16 40  1  0
 17 41  1  0
 18 42  1  0
 19 43  1  0
 20 44  1  0
 24 45  1  0
 26 46  1  0
 27 47  1  0
 28 48  1  0
 30 49  1  0
M  END
>  <Binding energies>  (1) 
[-9.16]

>  <Ligand effiencies>  (1) 
[-0.28625]

>  <Interactions>  (1) 
["V-B:PRO:540:CB:9857, H-B:TYR:531:OH:9767, V-B:MET:535:CE:9807, V-B:PRO:540:N:9856, V-B:PRO:540:CA:9855, V-B:TYR:539:C:9839, V-B:TYR:531:CZ:9766, V-A:PRO:540:N:4884, V-A:TYR:539:CG:4872, V-A:TYR:539:CD1:4873, V-A:PRO:540:CA:4883, H-A:TYR:539:N:4870, V-A:TYR:539:CZ:4877, V-A:PRO:540:CB:4885, V-A:TYR:539:CE1:4875, V-B:ASP:366:CG:8184, V-B:TYR:531:CE1:9764, V-B:ASP:366:CB:8183, V-B:ARG:545:CZ:9898, V-A:PRO:540:CD:4887, V-B:ASP:366:CA:8181, V-A:TYR:539:C:4867, V-B:ILE:369:CD1:8210, V-B:GLY:454:CA:9020, V-B:ASP:366:C:8179, H-A:TYR:539:OH:4878, H-B:ASP:366:O:8180"]

$$$$
RR23_Rahimova_2017
     RDKit          3D

 65 70  0  0  0  0  0  0  0  0999 V2000
  133.6160  130.8640   61.4160 C   0  0  0  0  0  0  0  0  0  0  0  0
  132.7630  131.0670   60.1770 C   0  0  0  0  0  0  0  0  0  0  0  0
  131.4080  131.3730   60.3040 C   0  0  0  0  0  0  0  0  0  0  0  0
  130.6280  131.5680   59.1660 C   0  0  0  0  0  0  0  0  0  0  0  0
  131.1960  131.4460   57.8930 C   0  0  0  0  0  0  0  0  0  0  0  0
  130.3370  131.6810   56.6710 C   0  0  0  0  0  0  0  0  0  0  0  0
  130.2360  132.8390   56.2580 O   0  0  0  0  0  0  0  0  0  0  0  0
  129.7250  130.6190   56.0660 N   0  0  0  0  0  0  0  0  0  0  0  0
  129.8790  130.3590   54.6260 C   0  0  0  0  0  0  0  0  0  0  0  0
  129.1880  129.0330   54.3540 C   0  0  0  0  0  0  0  0  0  0  0  0
  129.0200  128.4570   55.7280 C   0  0  0  0  0  0  0  0  0  0  0  0
  128.5230  127.2090   56.1020 C   0  0  0  0  0  0  0  0  0  0  0  0
  128.2930  126.9130   57.4540 C   0  0  0  0  0  0  0  0  0  0  0  0
  127.7470  125.5510   57.9100 C   0  0  2  0  0  0  0  0  0  0  0  0
  128.0680  125.2690   59.2920 N   0  0  0  0  0  0  0  0  0  0  0  0
  128.2320  124.0240   59.4960 C   0  0  0  0  0  0  0  0  0  0  0  0
  128.5660  123.4010   60.6590 N   0  0  0  0  0  0  0  0  0  0  0  0
  128.9390  123.9590   61.8360 C   0  0  0  0  0  0  0  0  0  0  0  0
  129.0000  125.1690   62.0680 O   0  0  0  0  0  0  0  0  0  0  0  0
  129.3140  122.9680   62.9490 C   0  0  0  0  0  0  0  0  0  0  0  0
  130.4700  122.1560   62.5070 N   0  0  0  0  0  0  0  0  0  0  0  0
  131.7010  122.5410   63.0240 N   0  0  0  0  0  0  0  0  0  0  0  0
  132.7900  121.9140   62.7140 N   0  0  0  0  0  0  0  0  0  0  0  0
  132.7390  120.8230   61.8420 C   0  0  0  0  0  0  0  0  0  0  0  0
  133.9330  120.1700   61.5270 C   0  0  0  0  0  0  0  0  0  0  0  0
  133.9150  119.0770   60.6590 C   0  0  0  0  0  0  0  0  0  0  0  0
  132.7090  118.6380   60.1070 C   0  0  0  0  0  0  0  0  0  0  0  0
  131.5150  119.2900   60.4210 C   0  0  0  0  0  0  0  0  0  0  0  0
  131.5340  120.3850   61.2930 C   0  0  0  0  0  0  0  0  0  0  0  0
  130.2530  121.1070   61.6420 C   0  0  0  0  0  0  0  0  0  0  0  0
  129.1460  120.7970   61.1930 O   0  0  0  0  0  0  0  0  0  0  0  0
  128.0180  122.9380   58.0930 S   0  0  0  0  0  0  0  0  0  0  0  0
  128.1550  124.3660   57.0040 C   0  0  2  0  0  0  0  0  0  0  0  0
  129.5770  124.4090   56.4060 C   0  0  0  0  0  0  0  0  0  0  0  0
  128.5250  127.9080   58.4120 C   0  0  0  0  0  0  0  0  0  0  0  0
  129.0020  129.1640   58.0360 C   0  0  0  0  0  0  0  0  0  0  0  0
  129.3060  129.4240   56.6930 C   0  0  0  0  0  0  0  0  0  0  0  0
  132.5630  131.1660   57.7730 C   0  0  0  0  0  0  0  0  0  0  0  0
  133.3420  130.9720   58.9100 C   0  0  0  0  0  0  0  0  0  0  0  0
  132.9985  131.0110   62.3144 H   0  0  0  0  0  0  0  0  0  0  0  0
  134.0259  129.8432   61.4158 H   0  0  0  0  0  0  0  0  0  0  0  0
  134.4418  131.5907   61.4158 H   0  0  0  0  0  0  0  0  0  0  0  0
  130.9552  131.4604   61.3027 H   0  0  0  0  0  0  0  0  0  0  0  0
  129.5619  131.8187   59.2687 H   0  0  0  0  0  0  0  0  0  0  0  0
  129.4057  131.1617   54.0416 H   0  0  0  0  0  0  0  0  0  0  0  0
  130.9401  130.3226   54.3382 H   0  0  0  0  0  0  0  0  0  0  0  0
  128.2137  129.1867   53.8671 H   0  0  0  0  0  0  0  0  0  0  0  0
  129.7537  128.3789   53.6741 H   0  0  0  0  0  0  0  0  0  0  0  0
  128.3100  126.4522   55.3326 H   0  0  0  0  0  0  0  0  0  0  0  0
  126.6554  125.6481   57.8156 H   0  0  0  0  0  0  0  0  0  0  0  0
  128.5840  122.3930   60.6300 H   0  0  0  0  0  0  0  0  0  0  0  0
  129.5807  123.5223   63.8609 H   0  0  0  0  0  0  0  0  0  0  0  0
  128.4589  122.3095   63.1617 H   0  0  0  0  0  0  0  0  0  0  0  0
  134.8829  120.5155   61.9609 H   0  0  0  0  0  0  0  0  0  0  0  0
  134.8531  118.5598   60.4089 H   0  0  0  0  0  0  0  0  0  0  0  0
  132.7001  117.7764   59.4232 H   0  0  0  0  0  0  0  0  0  0  0  0
  130.5653  118.9454   59.9859 H   0  0  0  0  0  0  0  0  0  0  0  0
  127.5098  124.3646   56.1131 H   0  0  0  0  0  0  0  0  0  0  0  0
  130.3166  124.4314   57.2200 H   0  0  0  0  0  0  0  0  0  0  0  0
  129.7412  123.5154   55.7859 H   0  0  0  0  0  0  0  0  0  0  0  0
  129.6869  125.3109   55.7859 H   0  0  0  0  0  0  0  0  0  0  0  0
  128.3288  127.6967   59.4735 H   0  0  0  0  0  0  0  0  0  0  0  0
  129.1394  129.9498   58.7934 H   0  0  0  0  0  0  0  0  0  0  0  0
  133.0229  131.0991   56.7760 H   0  0  0  0  0  0  0  0  0  0  0  0
  134.4135  130.7439   58.8105 H   0  0  0  0  0  0  0  0  0  0  0  0
  1  2  1  0
  2  3  2  0
  3  4  1  0
  4  5  2  0
  5  6  1  0
  6  7  2  0
  6  8  1  0
  8  9  1  0
  9 10  1  0
 10 11  1  0
 11 12  2  0
 12 13  1  0
 13 14  1  0
 14 15  1  0
 15 16  2  0
 16 17  1  0
 17 18  1  0
 18 19  2  0
 18 20  1  0
 20 21  1  0
 21 22  1  0
 22 23  2  0
 23 24  1  0
 24 25  2  0
 25 26  1  0
 26 27  2  0
 27 28  1  0
 28 29  2  0
 29 30  1  0
 30 31  2  0
 16 32  1  0
 32 33  1  0
 33 34  1  0
 13 35  2  0
 35 36  1  0
 36 37  2  0
  5 38  1  0
 38 39  2  0
 39  2  1  0
 37  8  1  0
 37 11  1  0
 33 14  1  0
 30 21  1  0
 29 24  1  0
  1 40  1  0
  1 41  1  0
  1 42  1  0
  3 43  1  0
  4 44  1  0
  9 45  1  0
  9 46  1  0
 10 47  1  0
 10 48  1  0
 12 49  1  0
 14 50  1  1
 17 51  1  0
 20 52  1  0
 20 53  1  0
 25 54  1  0
 26 55  1  0
 27 56  1  0
 28 57  1  0
 33 58  1  6
 34 59  1  0
 34 60  1  0
 34 61  1  0
 35 62  1  0
 36 63  1  0
 38 64  1  0
 39 65  1  0
M  END
>  <Binding energies>  (1) 
[-9.98]

>  <Ligand effiencies>  (1) 
[-0.2495]

>  <Interactions>  (1) 
["H-B:ALA:541:N:9863, V-B:MET:535:CE:9807, V-A:ILE:369:CG2:3236, V-B:TYR:539:CD2:9846, V-A:LEU:475:CD1:4257, V-B:ALA:541:CB:9864, V-B:TYR:539:CE2:9848, V-B:TYR:531:CZ:9766, V-A:ASP:366:CG:3212, V-A:PRO:540:N:4884, V-A:PRO:540:CA:4883, H-A:TYR:539:N:4870, V-A:PRO:540:CB:4885, V-A:PRO:540:C:4881, V-A:LEU:363:CD1:3188, V-B:TYR:539:CZ:9849, V-A:SER:385:CA:3406, H-B:TYR:539:O:9840, V-A:SER:385:C:3404, V-A:SER:385:CB:3408, V-A:LEU:363:CA:3184, V-A:LEU:363:CB:3186, V-A:ASN:362:CB:3175, V-A:ASN:362:C:3171, V-A:HIS:383:CD2:3391, V-A:ASN:362:CA:3173"]

$$$$
RR24_Rahimova_2017
     RDKit          3D

 65 71  0  0  0  0  0  0  0  0999 V2000
  128.4590  132.4740   54.7890 C   0  0  0  0  0  0  0  0  0  0  0  0
  129.4070  131.2660   54.7710 C   0  0  2  0  0  0  0  0  0  0  0  0
  128.6820  129.9210   54.4690 C   0  0  0  0  0  0  0  0  0  0  0  0
  127.4500  129.8260   54.4680 O   0  0  0  0  0  0  0  0  0  0  0  0
  129.5550  128.8970   54.2410 O   0  0  0  0  0  0  0  0  0  0  0  0
  129.5360  127.7920   55.0620 C   0  0  0  0  0  0  0  0  0  0  0  0
  130.2420  126.6470   54.6860 C   0  0  0  0  0  0  0  0  0  0  0  0
  130.2370  125.5280   55.5120 C   0  0  0  0  0  0  0  0  0  0  0  0
  129.5350  125.5490   56.7200 C   0  0  0  0  0  0  0  0  0  0  0  0
  129.5180  124.3060   57.6170 C   0  0  1  0  0  0  0  0  0  0  0  0
  130.7670  124.2320   58.5270 C   0  0  0  0  0  0  0  0  0  0  0  0
  130.6890  124.0420   59.8570 C   0  0  0  0  0  0  0  0  0  0  0  0
  129.4880  123.9020   60.5070 N   0  0  0  0  0  0  0  0  0  0  0  0
  128.2960  123.9500   59.8250 C   0  0  0  0  0  0  0  0  0  0  0  0
  127.2020  123.7850   60.6120 N   0  0  0  0  0  0  0  0  0  0  0  0
  125.9340  123.8810   60.1260 C   0  0  0  0  0  0  0  0  0  0  0  0
  124.9980  124.0420   60.9110 O   0  0  0  0  0  0  0  0  0  0  0  0
  125.8630  123.9500   58.7430 N   0  0  0  0  0  0  0  0  0  0  0  0
  124.5060  123.9640   58.1580 C   0  0  0  0  0  0  0  0  0  0  0  0
  126.9070  124.1210   57.8510 C   0  0  0  0  0  0  0  0  0  0  0  0
  126.7650  124.2280   56.6290 O   0  0  0  0  0  0  0  0  0  0  0  0
  128.2320  124.1420   58.4810 C   0  0  0  0  0  0  0  0  0  0  0  0
  132.0140  124.0160   60.4530 C   0  0  0  0  0  0  0  0  0  0  0  0
  132.4640  123.8570   61.7650 C   0  0  0  0  0  0  0  0  0  0  0  0
  133.8370  123.8790   62.0220 C   0  0  0  0  0  0  0  0  0  0  0  0
  134.7470  124.0570   60.9750 C   0  0  0  0  0  0  0  0  0  0  0  0
  134.2900  124.2160   59.6640 C   0  0  0  0  0  0  0  0  0  0  0  0
  132.9170  124.1940   59.4130 C   0  0  0  0  0  0  0  0  0  0  0  0
  132.1710  124.3330   58.1450 C   0  0  0  0  0  0  0  0  0  0  0  0
  132.5900  124.4980   57.0000 O   0  0  0  0  0  0  0  0  0  0  0  0
  128.8440  126.7040   57.1030 C   0  0  0  0  0  0  0  0  0  0  0  0
  128.8490  127.8250   56.2780 C   0  0  0  0  0  0  0  0  0  0  0  0
  130.2470  131.1940   56.0040 N   0  0  0  0  0  0  0  0  0  0  0  0
  129.6920  131.0120   57.2350 C   0  0  0  0  0  0  0  0  0  0  0  0
  128.4950  130.8970   57.5070 O   0  0  0  0  0  0  0  0  0  0  0  0
  130.8340  130.9840   58.1820 C   0  0  0  0  0  0  0  0  0  0  0  0
  130.8670  130.8280   59.5690 C   0  0  0  0  0  0  0  0  0  0  0  0
  132.1100  130.8380   60.2140 C   0  0  0  0  0  0  0  0  0  0  0  0
  133.2880  131.0000   59.4740 C   0  0  0  0  0  0  0  0  0  0  0  0
  133.2340  131.1540   58.0850 C   0  0  0  0  0  0  0  0  0  0  0  0
  131.9860  131.1430   57.4600 C   0  0  0  0  0  0  0  0  0  0  0  0
  131.6120  131.2770   56.0300 C   0  0  0  0  0  0  0  0  0  0  0  0
  132.3710  131.4260   55.0720 O   0  0  0  0  0  0  0  0  0  0  0  0
  128.2402  132.7529   55.8303 H   0  0  0  0  0  0  0  0  0  0  0  0
  128.9354  133.3217   54.2748 H   0  0  0  0  0  0  0  0  0  0  0  0
  127.5223  132.2127   54.2748 H   0  0  0  0  0  0  0  0  0  0  0  0
  130.0911  131.4305   53.9254 H   0  0  0  0  0  0  0  0  0  0  0  0
  130.8008  126.6303   53.7386 H   0  0  0  0  0  0  0  0  0  0  0  0
  130.7874  124.6236   55.2134 H   0  0  0  0  0  0  0  0  0  0  0  0
  129.5270  123.4670   56.9057 H   0  0  0  0  0  0  0  0  0  0  0  0
  129.4770  123.7580   61.5080 H   0  0  0  0  0  0  0  0  0  0  0  0
  127.2980  123.6110   61.6010 H   0  0  0  0  0  0  0  0  0  0  0  0
  123.7588  123.9717   58.9652 H   0  0  0  0  0  0  0  0  0  0  0  0
  124.3838  124.8635   57.5367 H   0  0  0  0  0  0  0  0  0  0  0  0
  124.3653  123.0673   57.5367 H   0  0  0  0  0  0  0  0  0  0  0  0
  131.7461  123.7161   62.5865 H   0  0  0  0  0  0  0  0  0  0  0  0
  134.2037  123.7559   63.0517 H   0  0  0  0  0  0  0  0  0  0  0  0
  135.8268  124.0719   61.1843 H   0  0  0  0  0  0  0  0  0  0  0  0
  135.0041  124.3569   58.8392 H   0  0  0  0  0  0  0  0  0  0  0  0
  128.2965  126.7260   58.0568 H   0  0  0  0  0  0  0  0  0  0  0  0
  128.3127  128.7357   56.5830 H   0  0  0  0  0  0  0  0  0  0  0  0
  129.9371  130.7001   60.1425 H   0  0  0  0  0  0  0  0  0  0  0  0
  132.1613  130.7181   61.3062 H   0  0  0  0  0  0  0  0  0  0  0  0
  134.2606  131.0061   59.9879 H   0  0  0  0  0  0  0  0  0  0  0  0
  134.1553  131.2811   57.4976 H   0  0  0  0  0  0  0  0  0  0  0  0
  1  2  1  0
  2  3  1  0
  3  4  2  0
  3  5  1  0
  5  6  1  0
  6  7  2  0
  7  8  1  0
  8  9  2  0
  9 10  1  0
 10 11  1  0
 11 12  2  0
 12 13  1  0
 13 14  1  0
 14 15  1  0
 15 16  1  0
 16 17  2  0
 16 18  1  0
 18 19  1  0
 18 20  1  0
 20 21  2  0
 20 22  1  0
 12 23  1  0
 23 24  2  0
 24 25  1  0
 25 26  2  0
 26 27  1  0
 27 28  2  0
 28 29  1  0
 29 30  2  0
  9 31  1  0
 31 32  2  0
  2 33  1  0
 33 34  1  0
 34 35  2  0
 34 36  1  0
 36 37  2  0
 37 38  1  0
 38 39  2  0
 39 40  1  0
 40 41  2  0
 41 42  1  0
 42 43  2  0
 32  6  1  0
 42 33  1  0
 22 10  1  0
 28 23  1  0
 41 36  1  0
 29 11  1  0
 22 14  2  0
  1 44  1  0
  1 45  1  0
  1 46  1  0
  2 47  1  6
  7 48  1  0
  8 49  1  0
 10 50  1  6
 13 51  1  0
 15 52  1  0
 19 53  1  0
 19 54  1  0
 19 55  1  0
 24 56  1  0
 25 57  1  0
 26 58  1  0
 27 59  1  0
 31 60  1  0
 32 61  1  0
 37 62  1  0
 38 63  1  0
 39 64  1  0
 40 65  1  0
M  END
>  <Binding energies>  (1) 
[-11.08]

>  <Ligand effiencies>  (1) 
[-0.24622222222222223]

>  <Interactions>  (1) 
["V-B:PRO:540:CB:9857, H-B:TYR:531:OH:9767, V-B:MET:535:CE:9807, V-A:ILE:369:CG2:3236, V-B:PRO:540:CA:9855, V-B:TYR:539:CE2:9848, V-B:TYR:531:CE2:9765, V-B:LEU:363:CD1:8160, V-A:ASP:366:CG:3212, V-A:TYR:531:CE1:4792, V-A:ILE:538:CA:4860, V-A:ASP:366:CA:3209, V-A:ASP:366:CB:3211, V-A:TYR:539:CG:4872, V-A:ILE:538:CG2:4863, V-A:ASP:366:C:3207, H-B:TYR:539:OH:9850, V-A:TYR:539:CD1:4873, V-A:TYR:539:CE2:4876, V-A:PRO:540:CA:4883, H-A:TYR:531:OH:4795, V-A:TYR:539:CZ:4877, V-A:TYR:539:CD2:4874, V-A:PRO:540:CB:4885, V-A:TYR:539:CE1:4875, V-A:TYR:531:CZ:4794, V-A:ILE:538:CB:4862, H-B:LYS:534:NZ:9795, V-A:LEU:363:CD1:3188, V-A:ILE:369:CD1:3238, V-B:TYR:539:CZ:9849, V-B:LEU:363:CA:8156, H-A:TYR:539:OH:4878, V-A:ILE:369:CB:3235, H-B:GLU:543:OE1:9881, V-A:ILE:538:C:4858, V-A:LEU:363:CA:3184, V-A:LEU:363:CB:3186, V-A:MET:535:CE:4835"]

$$$$
RR24_Rahimova_2017-again1
     RDKit          3D

 63 69  0  0  0  0  0  0  0  0999 V2000
  126.2390  128.6410   57.7420 C   0  0  0  0  0  0  0  0  0  0  0  0
  125.8990  127.5840   58.8010 C   0  0  2  0  0  0  0  0  0  0  0  0
  126.4400  127.9350   60.2180 C   0  0  0  0  0  0  0  0  0  0  0  0
  125.6900  128.2830   61.1380 O   0  0  0  0  0  0  0  0  0  0  0  0
  127.8000  127.8370   60.3020 O   0  0  0  0  0  0  0  0  0  0  0  0
  128.3640  126.8880   61.1240 C   0  0  0  0  0  0  0  0  0  0  0  0
  127.6600  125.7160   61.4060 C   0  0  0  0  0  0  0  0  0  0  0  0
  128.2320  124.7430   62.2210 C   0  0  0  0  0  0  0  0  0  0  0  0
  129.5120  124.9330   62.7510 C   0  0  0  0  0  0  0  0  0  0  0  0
  130.1470  123.8620   63.6500 C   0  0  1  0  0  0  0  0  0  0  0  0
  130.6700  122.6680   62.8180 C   0  0  0  0  0  0  0  0  0  0  0  0
  130.0430  121.7560   62.0420 C   0  0  0  0  0  0  0  0  0  0  0  0
  128.7670  121.6890   61.8660 O   0  0  0  0  0  0  0  0  0  0  0  0
  131.0190  120.8710   61.4080 C   0  0  0  0  0  0  0  0  0  0  0  0
  130.8840  119.7950   60.5220 C   0  0  0  0  0  0  0  0  0  0  0  0
  132.0230  119.1280   60.0680 C   0  0  0  0  0  0  0  0  0  0  0  0
  133.2880  119.5320   60.4980 C   0  0  0  0  0  0  0  0  0  0  0  0
  133.4180  120.6050   61.3830 C   0  0  0  0  0  0  0  0  0  0  0  0
  132.2770  121.2730   61.8330 C   0  0  0  0  0  0  0  0  0  0  0  0
  132.0950  122.3870   62.7470 C   0  0  0  0  0  0  0  0  0  0  0  0
  132.9600  123.0510   63.4180 N   0  0  0  0  0  0  0  0  0  0  0  0
  132.5880  123.9940   64.3290 C   0  0  0  0  0  0  0  0  0  0  0  0
  133.6360  124.4750   65.0590 N   0  0  0  0  0  0  0  0  0  0  0  0
  133.4230  125.3850   65.9420 C   0  0  0  0  0  0  0  0  0  0  0  0
  134.4490  125.7510   66.5410 O   0  0  0  0  0  0  0  0  0  0  0  0
  132.1520  125.8980   66.1940 N   0  0  0  0  0  0  0  0  0  0  0  0
  131.8750  126.9460   67.2040 C   0  0  0  0  0  0  0  0  0  0  0  0
  131.0310  125.4580   65.5170 C   0  0  0  0  0  0  0  0  0  0  0  0
  129.8840  125.8670   65.7260 O   0  0  0  0  0  0  0  0  0  0  0  0
  131.3020  124.4310   64.5070 C   0  0  0  0  0  0  0  0  0  0  0  0
  130.2190  126.1030   62.4550 C   0  0  0  0  0  0  0  0  0  0  0  0
  129.6490  127.0750   61.6390 C   0  0  0  0  0  0  0  0  0  0  0  0
  126.2920  126.2110   58.3680 N   0  0  0  0  0  0  0  0  0  0  0  0
  125.3630  125.2360   58.1580 C   0  0  0  0  0  0  0  0  0  0  0  0
  124.1410  125.3260   58.2850 O   0  0  0  0  0  0  0  0  0  0  0  0
  126.1350  124.0390   57.7410 C   0  0  0  0  0  0  0  0  0  0  0  0
  125.7140  122.7510   57.4020 C   0  0  0  0  0  0  0  0  0  0  0  0
  126.6790  121.8050   57.0430 C   0  0  0  0  0  0  0  0  0  0  0  0
  128.0370  122.1500   57.0260 C   0  0  0  0  0  0  0  0  0  0  0  0
  128.4390  123.4450   57.3680 C   0  0  0  0  0  0  0  0  0  0  0  0
  127.4610  124.3750   57.7260 C   0  0  0  0  0  0  0  0  0  0  0  0
  127.5750  125.8000   58.1290 C   0  0  0  0  0  0  0  0  0  0  0  0
  128.6050  126.4680   58.2240 O   0  0  0  0  0  0  0  0  0  0  0  0
  126.5394  129.5750   58.2394 H   0  0  0  0  0  0  0  0  0  0  0  0
  127.0657  128.2779   57.1137 H   0  0  0  0  0  0  0  0  0  0  0  0
  125.3557  128.8279   57.1137 H   0  0  0  0  0  0  0  0  0  0  0  0
  124.8029  127.5915   58.8934 H   0  0  0  0  0  0  0  0  0  0  0  0
  126.6555  125.5616   60.9852 H   0  0  0  0  0  0  0  0  0  0  0  0
  127.6754  123.8220   62.4487 H   0  0  0  0  0  0  0  0  0  0  0  0
  129.3510  123.5145   64.3249 H   0  0  0  0  0  0  0  0  0  0  0  0
  129.8860  119.4772   60.1857 H   0  0  0  0  0  0  0  0  0  0  0  0
  131.9236  118.2831   59.3706 H   0  0  0  0  0  0  0  0  0  0  0  0
  134.1842  119.0045   60.1393 H   0  0  0  0  0  0  0  0  0  0  0  0
  134.4145  120.9224   61.7239 H   0  0  0  0  0  0  0  0  0  0  0  0
  131.9871  126.5218   68.2127 H   0  0  0  0  0  0  0  0  0  0  0  0
  132.5844  127.7766   67.0746 H   0  0  0  0  0  0  0  0  0  0  0  0
  130.8478  127.3176   67.0746 H   0  0  0  0  0  0  0  0  0  0  0  0
  131.2272  126.2548   62.8680 H   0  0  0  0  0  0  0  0  0  0  0  0
  130.2099  127.9904   61.3994 H   0  0  0  0  0  0  0  0  0  0  0  0
  124.6463  122.4866   57.4171 H   0  0  0  0  0  0  0  0  0  0  0  0
  126.3705  120.7844   56.7725 H   0  0  0  0  0  0  0  0  0  0  0  0
  128.7896  121.3995   56.7426 H   0  0  0  0  0  0  0  0  0  0  0  0
  129.5027  123.7249   57.3553 H   0  0  0  0  0  0  0  0  0  0  0  0
  1  2  1  0
  2  3  1  0
  3  4  2  0
  3  5  1  0
  5  6  1  0
  6  7  2  0
  7  8  1  0
  8  9  2  0
  9 10  1  0
 10 11  1  0
 11 12  2  0
 12 13  1  0
 12 14  1  0
 14 15  2  0
 15 16  1  0
 16 17  2  0
 17 18  1  0
 18 19  2  0
 19 20  1  0
 20 21  2  0
 21 22  1  0
 22 23  1  0
 23 24  2  0
 24 25  1  0
 24 26  1  0
 26 27  1  0
 26 28  1  0
 28 29  2  0
 28 30  1  0
  9 31  1  0
 31 32  2  0
  2 33  1  0
 33 34  1  0
 34 35  2  0
 34 36  1  0
 36 37  2  0
 37 38  1  0
 38 39  2  0
 39 40  1  0
 40 41  2  0
 41 42  1  0
 42 43  2  0
 32  6  1  0
 42 33  1  0
 30 10  1  0
 41 36  1  0
 20 11  1  0
 30 22  2  0
 19 14  1  0
  1 44  1  0
  1 45  1  0
  1 46  1  0
  2 47  1  1
  7 48  1  0
  8 49  1  0
 10 50  1  1
 15 51  1  0
 16 52  1  0
 17 53  1  0
 18 54  1  0
 27 55  1  0
 27 56  1  0
 27 57  1  0
 31 58  1  0
 32 59  1  0
 37 60  1  0
 38 61  1  0
 39 62  1  0
 40 63  1  0
M  CHG  2  13  -1  25  -1
M  END
>  <Binding energies>  (1) 
[-9.07]

>  <Ligand effiencies>  (1) 
[-0.21093023255813953]

>  <Interactions>  (1) 
["H-B:ALA:541:N:9863, V-B:PRO:540:CB:9857, H-B:TYR:531:OH:9767, V-B:MET:535:CE:9807, V-A:ILE:369:CG2:3236, V-B:TYR:539:CD2:9846, V-B:PRO:540:N:9856, V-A:LEU:475:CD1:4257, V-B:PRO:540:CA:9855, V-B:ALA:541:CB:9864, V-B:TYR:539:CE2:9848, V-B:TYR:539:C:9839, V-B:TYR:531:CE2:9765, V-B:TYR:531:CZ:9766, V-B:LEU:363:CD1:8160, V-B:TYR:539:CA:9841, H-A:TYR:484:OH:4347, H-A:GLY:454:N:4049, V-B:PRO:540:CD:9859, V-B:ASP:366:CG:8184, V-B:ASP:366:CB:8183, V-A:GLU:543:CD:4908, H-B:ARG:545:NH2:9900, V-B:TYR:539:CZ:9849, V-B:TYR:539:CG:9844, V-A:HIS:456:CE1:4069, V-A:ARG:545:CD:4923, V-B:TYR:539:CE1:9847, V-B:GLU:543:CD:9880, V-B:TYR:539:CD1:9845, H-A:ARG:545:NE:4924, V-A:ARG:545:CG:4922, V-A:ARG:545:CZ:4926, V-A:GLU:543:CB:4906, V-A:GLY:454:CA:4048"]

$$$$
RR25_Rahimova_2017
     RDKit          3D

 63 68  0  0  0  0  0  0  0  0999 V2000
  126.6910  122.5370   60.6680 O   0  0  0  0  0  0  0  0  0  0  0  0
  127.4800  123.2720   61.2640 C   0  0  0  0  0  0  0  0  0  0  0  0
  128.0380  122.7590   62.4090 O   0  0  0  0  0  0  0  0  0  0  0  0
  129.1120  123.3750   63.0260 C   0  0  0  0  0  0  0  0  0  0  0  0
  129.9440  122.5620   63.7950 C   0  0  0  0  0  0  0  0  0  0  0  0
  131.0400  123.1180   64.4510 C   0  0  0  0  0  0  0  0  0  0  0  0
  131.3180  124.4890   64.3520 C   0  0  0  0  0  0  0  0  0  0  0  0
  132.4910  125.0770   65.0460 N   0  0  0  0  0  0  0  0  0  0  0  0
  133.6130  124.8460   64.6020 O   0  0  0  0  0  0  0  0  0  0  0  0
  132.2980  125.7730   66.0380 O   0  0  0  0  0  0  0  0  0  0  0  0
  130.4610  125.2930   63.5830 C   0  0  0  0  0  0  0  0  0  0  0  0
  129.3520  124.7530   62.9250 C   0  0  0  0  0  0  0  0  0  0  0  0
  128.4030  125.5760   62.0730 C   0  0  0  0  0  0  0  0  0  0  0  0
  127.8970  124.7210   60.8780 C   0  0  2  0  0  0  0  0  0  0  0  0
  126.8440  125.5000   60.0370 C   0  0  0  0  0  0  0  0  0  0  0  0
  125.8660  124.8510   59.6550 O   0  0  0  0  0  0  0  0  0  0  0  0
  126.9270  126.8500   59.8380 N   0  0  0  0  0  0  0  0  0  0  0  0
  128.1880  127.6060   59.9890 C   0  0  0  0  0  0  0  0  0  0  0  0
  127.8750  128.9890   60.5970 C   0  0  0  0  0  0  0  0  0  0  0  0
  126.8740  129.7080   59.8030 N   0  0  0  0  0  0  0  0  0  0  0  0
  126.6710  131.0750   60.3030 C   0  0  0  0  0  0  0  0  0  0  0  0
  127.6150  132.1080   59.6300 C   0  0  0  0  0  0  0  0  0  0  0  0
  129.0400  131.6940   59.4810 N   0  0  0  0  0  0  0  0  0  0  0  0
  129.4160  131.3230   58.2080 C   0  0  0  0  0  0  0  0  0  0  0  0
  128.6320  131.2940   57.2520 O   0  0  0  0  0  0  0  0  0  0  0  0
  130.8830  130.9690   58.0600 C   0  0  0  0  0  0  0  0  0  0  0  0
  131.3790  130.6020   56.8020 C   0  0  0  0  0  0  0  0  0  0  0  0
  132.7230  130.2780   56.6280 C   0  0  0  0  0  0  0  0  0  0  0  0
  133.6130  130.3130   57.7010 C   0  0  0  0  0  0  0  0  0  0  0  0
  133.1570  130.6770   58.9910 C   0  0  0  0  0  0  0  0  0  0  0  0
  134.0060  130.7340   60.1220 C   0  0  0  0  0  0  0  0  0  0  0  0
  133.4920  131.1030   61.3640 C   0  0  0  0  0  0  0  0  0  0  0  0
  132.1440  131.4210   61.5150 C   0  0  0  0  0  0  0  0  0  0  0  0
  131.2670  131.3780   60.4240 C   0  0  0  0  0  0  0  0  0  0  0  0
  131.7820  131.0040   59.1560 C   0  0  0  0  0  0  0  0  0  0  0  0
  129.8080  131.7390   60.6270 C   0  0  0  0  0  0  0  0  0  0  0  0
  129.3610  132.0620   61.7330 O   0  0  0  0  0  0  0  0  0  0  0  0
  125.6210  128.9500   59.7790 C   0  0  0  0  0  0  0  0  0  0  0  0
  125.8140  127.5480   59.1540 C   0  0  0  0  0  0  0  0  0  0  0  0
  129.7356  121.4855   63.8833 H   0  0  0  0  0  0  0  0  0  0  0  0
  131.6959  122.4733   65.0545 H   0  0  0  0  0  0  0  0  0  0  0  0
  130.6666  126.3701   63.4966 H   0  0  0  0  0  0  0  0  0  0  0  0
  127.5454  125.8942   62.6840 H   0  0  0  0  0  0  0  0  0  0  0  0
  128.9319  126.4611   61.6897 H   0  0  0  0  0  0  0  0  0  0  0  0
  128.7584  124.5544   60.2145 H   0  0  0  0  0  0  0  0  0  0  0  0
  128.8700  127.0564   60.6544 H   0  0  0  0  0  0  0  0  0  0  0  0
  128.6658  127.7317   59.0062 H   0  0  0  0  0  0  0  0  0  0  0  0
  127.4907  128.8522   61.6186 H   0  0  0  0  0  0  0  0  0  0  0  0
  128.8017  129.5816   60.6048 H   0  0  0  0  0  0  0  0  0  0  0  0
  125.6297  131.3702   60.1065 H   0  0  0  0  0  0  0  0  0  0  0  0
  126.8977  131.0711   61.3794 H   0  0  0  0  0  0  0  0  0  0  0  0
  127.2198  132.3202   58.6256 H   0  0  0  0  0  0  0  0  0  0  0  0
  127.6286  132.9783   60.3026 H   0  0  0  0  0  0  0  0  0  0  0  0
  130.6975  130.5692   55.9392 H   0  0  0  0  0  0  0  0  0  0  0  0
  133.0870  129.9907   55.6305 H   0  0  0  0  0  0  0  0  0  0  0  0
  134.6714  130.0573   57.5448 H   0  0  0  0  0  0  0  0  0  0  0  0
  135.0731  130.4867   60.0207 H   0  0  0  0  0  0  0  0  0  0  0  0
  134.1599  131.1437   62.2370 H   0  0  0  0  0  0  0  0  0  0  0  0
  131.7630  131.7101   62.5056 H   0  0  0  0  0  0  0  0  0  0  0  0
  125.2546  128.8338   60.8096 H   0  0  0  0  0  0  0  0  0  0  0  0
  124.8963  129.5036   59.1638 H   0  0  0  0  0  0  0  0  0  0  0  0
  124.8889  126.9644   59.2704 H   0  0  0  0  0  0  0  0  0  0  0  0
  126.0499  127.6532   58.0847 H   0  0  0  0  0  0  0  0  0  0  0  0
  1  2  2  0
  2  3  1  0
  3  4  1  0
  4  5  2  0
  5  6  1  0
  6  7  2  0
  7  8  1  0
  8  9  2  0
  8 10  1  0
  7 11  1  0
 11 12  2  0
 12 13  1  0
 13 14  1  0
 14 15  1  0
 15 16  2  0
 15 17  1  0
 17 18  1  0
 18 19  1  0
 19 20  1  0
 20 21  1  0
 21 22  1  0
 22 23  1  0
 23 24  1  0
 24 25  2  0
 24 26  1  0
 26 27  2  0
 27 28  1  0
 28 29  2  0
 29 30  1  0
 30 31  2  0
 31 32  1  0
 32 33  2  0
 33 34  1  0
 34 35  2  0
 34 36  1  0
 36 37  2  0
 20 38  1  0
 38 39  1  0
 14  2  1  0
 39 17  1  0
 12  4  1  0
 36 23  1  0
 35 26  1  0
 35 30  1  0
  5 40  1  0
  6 41  1  0
 11 42  1  0
 13 43  1  0
 13 44  1  0
 14 45  1  6
 18 46  1  0
 18 47  1  0
 19 48  1  0
 19 49  1  0
 21 50  1  0
 21 51  1  0
 22 52  1  0
 22 53  1  0
 27 54  1  0
 28 55  1  0
 29 56  1  0
 31 57  1  0
 32 58  1  0
 33 59  1  0
 38 60  1  0
 38 61  1  0
 39 62  1  0
 39 63  1  0
M  CHG  2   8   1  10  -1
M  END
>  <Binding energies>  (1) 
[-10.22]

>  <Ligand effiencies>  (1) 
[-0.2620512820512821]

>  <Interactions>  (1) 
["H-B:ALA:541:N:9863, V-B:PRO:540:CA:9855, V-B:ALA:541:CB:9864, H-A:TYR:484:OH:4347, V-A:ASP:366:CG:3212, H-A:GLY:454:N:4049, V-A:ASP:366:CB:3211, V-A:TYR:539:CD1:4873, V-A:PRO:540:CA:4883, V-A:PRO:540:CB:4885, V-A:TYR:539:CE1:4875, V-A:TYR:531:CZ:4794, V-B:ASP:366:CG:8184, V-B:ASP:366:CB:8183, V-A:PRO:540:C:4881, V-A:LEU:363:CD1:3188, V-A:GLU:543:CD:4908, H-A:ARG:545:NH2:4928, V-A:TYR:484:CZ:4346, V-B:GLU:543:CG:9879, V-B:GLU:543:CD:9880, H-A:ARG:545:NE:4924, V-A:ARG:545:CZ:4926, H-A:ALA:541:N:4891, V-A:TYR:531:CE2:4793, V-A:LEU:363:CA:3184, V-A:LEU:363:CB:3186, V-A:ASN:362:CB:3175, V-A:ASN:362:C:3171, V-A:ASN:362:CA:3173"]

$$$$
RR26_Rahimova_2017
     RDKit          3D

 59 65  0  0  0  0  0  0  0  0999 V2000
  133.6610  121.4280   61.5960 C   0  0  0  0  0  0  0  0  0  0  0  0
  132.5680  120.4080   61.3070 C   0  0  0  0  0  0  0  0  0  0  0  0
  132.8990  119.2770   60.5530 C   0  0  0  0  0  0  0  0  0  0  0  0
  131.9490  118.2920   60.2920 C   0  0  0  0  0  0  0  0  0  0  0  0
  130.6570  118.4260   60.7910 C   0  0  0  0  0  0  0  0  0  0  0  0
  130.3150  119.5470   61.5440 C   0  0  0  0  0  0  0  0  0  0  0  0
  131.2560  120.5540   61.8090 C   0  0  0  0  0  0  0  0  0  0  0  0
  130.8000  121.7360   62.6150 C   0  0  0  0  0  0  0  0  0  0  0  0
  130.6260  121.6740   63.9330 N   0  0  0  0  0  0  0  0  0  0  0  0
  130.2500  122.8930   64.2130 C   0  0  0  0  0  0  0  0  0  0  0  0
  129.7990  123.7510   65.6400 S   0  0  0  0  0  0  0  0  0  0  0  0
  129.5510  125.2330   64.6420 C   0  0  0  0  0  0  0  0  0  0  0  0
  129.1500  126.4540   65.0600 C   0  0  0  0  0  0  0  0  0  0  0  0
  128.8250  126.8770   66.4130 C   0  0  0  0  0  0  0  0  0  0  0  0
  129.4780  126.5510   67.5920 C   0  0  0  0  0  0  0  0  0  0  0  0
  128.8500  127.2100   68.6190 N   0  0  0  0  0  0  0  0  0  0  0  0
  129.1680  127.1870   70.0010 C   0  0  0  0  0  0  0  0  0  0  0  0
  129.8820  128.2420   70.5910 C   0  0  0  0  0  0  0  0  0  0  0  0
  130.1900  128.2050   71.9480 C   0  0  0  0  0  0  0  0  0  0  0  0
  129.7860  127.1200   72.7200 C   0  0  0  0  0  0  0  0  0  0  0  0
  129.0740  126.0680   72.1470 C   0  0  0  0  0  0  0  0  0  0  0  0
  128.7660  126.0990   70.7900 C   0  0  0  0  0  0  0  0  0  0  0  0
  127.8450  127.9610   68.1430 N   0  0  0  0  0  0  0  0  0  0  0  0
  127.8160  127.7700   66.8390 C   0  0  0  0  0  0  0  0  0  0  0  0
  126.7870  128.4690   66.0050 C   0  0  0  0  0  0  0  0  0  0  0  0
  125.5180  128.7540   66.5340 C   0  0  0  0  0  0  0  0  0  0  0  0
  124.5510  129.4020   65.7640 C   0  0  0  0  0  0  0  0  0  0  0  0
  124.8470  129.7710   64.4530 C   0  0  0  0  0  0  0  0  0  0  0  0
  126.1170  129.5090   63.9190 C   0  0  0  0  0  0  0  0  0  0  0  0
  127.0790  128.8560   64.6890 C   0  0  0  0  0  0  0  0  0  0  0  0
  126.4400  129.8170   62.6120 O   0  0  0  0  0  0  0  0  0  0  0  0
  125.5780  130.7870   62.0090 C   0  0  0  0  0  0  0  0  0  0  0  0
  124.0960  130.4700   62.3280 C   0  0  0  0  0  0  0  0  0  0  0  0
  123.8790  130.4530   63.7430 O   0  0  0  0  0  0  0  0  0  0  0  0
  129.8240  125.0010   63.2270 C   0  0  0  0  0  0  0  0  0  0  0  0
  129.7500  125.7890   62.2820 O   0  0  0  0  0  0  0  0  0  0  0  0
  130.2090  123.6570   63.1070 N   0  0  0  0  0  0  0  0  0  0  0  0
  130.5710  122.9150   62.0570 N   0  0  0  0  0  0  0  0  0  0  0  0
  133.7803  121.5393   62.6838 H   0  0  0  0  0  0  0  0  0  0  0  0
  134.6089  121.0841   61.1565 H   0  0  0  0  0  0  0  0  0  0  0  0
  133.3834  122.3974   61.1565 H   0  0  0  0  0  0  0  0  0  0  0  0
  133.9209  119.1642   60.1618 H   0  0  0  0  0  0  0  0  0  0  0  0
  132.2197  117.4102   59.6927 H   0  0  0  0  0  0  0  0  0  0  0  0
  129.9062  117.6473   60.5910 H   0  0  0  0  0  0  0  0  0  0  0  0
  129.2921  119.6444   61.9368 H   0  0  0  0  0  0  0  0  0  0  0  0
  129.0579  127.2238   64.2797 H   0  0  0  0  0  0  0  0  0  0  0  0
  130.3461  125.8822   67.6873 H   0  0  0  0  0  0  0  0  0  0  0  0
  130.1988  129.0998   69.9796 H   0  0  0  0  0  0  0  0  0  0  0  0
  130.7512  129.0312   72.4088 H   0  0  0  0  0  0  0  0  0  0  0  0
  130.0308  127.0925   73.7921 H   0  0  0  0  0  0  0  0  0  0  0  0
  128.7563  125.2155   72.7654 H   0  0  0  0  0  0  0  0  0  0  0  0
  128.2061  125.2685   70.3352 H   0  0  0  0  0  0  0  0  0  0  0  0
  125.2830  128.4629   67.5684 H   0  0  0  0  0  0  0  0  0  0  0  0
  123.5604  129.6203   66.1896 H   0  0  0  0  0  0  0  0  0  0  0  0
  128.0705  128.6437   64.2626 H   0  0  0  0  0  0  0  0  0  0  0  0
  125.8268  131.7847   62.3997 H   0  0  0  0  0  0  0  0  0  0  0  0
  125.7204  130.7599   60.9186 H   0  0  0  0  0  0  0  0  0  0  0  0
  123.4554  131.2398   61.8730 H   0  0  0  0  0  0  0  0  0  0  0  0
  123.8486  129.4794   61.9188 H   0  0  0  0  0  0  0  0  0  0  0  0
  1  2  1  0
  2  3  2  0
  3  4  1  0
  4  5  2  0
  5  6  1  0
  6  7  2  0
  7  8  1  0
  8  9  1  0
  9 10  2  0
 10 11  1  0
 11 12  1  0
 12 13  2  0
 13 14  1  0
 14 15  2  0
 15 16  1  0
 16 17  1  0
 17 18  2  0
 18 19  1  0
 19 20  2  0
 20 21  1  0
 21 22  2  0
 16 23  1  0
 23 24  2  0
 24 25  1  0
 25 26  2  0
 26 27  1  0
 27 28  2  0
 28 29  1  0
 29 30  2  0
 29 31  1  0
 31 32  1  0
 32 33  1  0
 33 34  1  0
 12 35  1  0
 35 36  2  0
 35 37  1  0
 37 38  1  0
  7  2  1  0
 38  8  2  0
 37 10  1  0
 24 14  1  0
 30 25  1  0
 22 17  1  0
 34 28  1  0
  1 39  1  0
  1 40  1  0
  1 41  1  0
  3 42  1  0
  4 43  1  0
  5 44  1  0
  6 45  1  0
 13 46  1  0
 15 47  1  0
 18 48  1  0
 19 49  1  0
 20 50  1  0
 21 51  1  0
 22 52  1  0
 26 53  1  0
 27 54  1  0
 30 55  1  0
 32 56  1  0
 32 57  1  0
 33 58  1  0
 33 59  1  0
M  END
>  <Binding energies>  (1) 
[-9.74]

>  <Ligand effiencies>  (1) 
[-0.2563157894736842]

>  <Interactions>  (1) 
["V-A:ILE:369:CG2:3236, V-B:TYR:539:CD2:9846, V-A:LEU:475:CD1:4257, V-B:ALA:541:CB:9864, V-A:PRO:482:CG:4326, H-A:TYR:484:OH:4347, V-B:ASP:366:CG:8184, H-B:GLY:454:N:9021, V-B:ARG:545:CZ:9898, V-B:ILE:369:CD1:8210, V-A:GLU:543:CD:4908, V-A:ILE:369:CD1:3238, V-A:GLU:543:C:4902, V-B:HIS:456:CE1:9041, V-A:TYR:484:CZ:4346, V-A:HIS:456:CE1:4069, V-B:GLU:543:CB:9878, V-B:GLU:543:CG:9879, V-B:GLU:543:CD:9880, V-A:TYR:484:CE2:4345, V-B:GLU:543:C:9874, V-B:ARG:545:CG:9894, V-B:ARG:545:CD:9895"]

$$$$
RR27_Rahimova_2017
     RDKit          3D

 66 71  0  0  0  0  0  0  0  0999 V2000
  130.6330  122.1940   59.3240 O   0  0  0  0  0  0  0  0  0  0  0  0
  129.6280  122.7700   59.7490 C   0  0  0  0  0  0  0  0  0  0  0  0
  128.9870  123.8830   58.8680 C   0  0  0  0  0  0  0  0  0  0  0  0
  127.6870  123.4330   58.1770 C   0  0  0  0  0  0  0  0  0  0  0  0
  126.4680  124.0980   58.3870 C   0  0  0  0  0  0  0  0  0  0  0  0
  125.3120  123.6660   57.7440 C   0  0  0  0  0  0  0  0  0  0  0  0
  125.3670  122.5680   56.8890 C   0  0  0  0  0  0  0  0  0  0  0  0
  126.5670  121.8970   56.6740 C   0  0  0  0  0  0  0  0  0  0  0  0
  127.7240  122.3290   57.3170 C   0  0  0  0  0  0  0  0  0  0  0  0
  130.0230  124.5420   57.9370 C   0  0  0  0  0  0  0  0  0  0  0  0
  131.3630  124.6940   58.3160 C   0  0  0  0  0  0  0  0  0  0  0  0
  132.2710  125.3050   57.4540 C   0  0  0  0  0  0  0  0  0  0  0  0
  131.8410  125.7700   56.2150 C   0  0  0  0  0  0  0  0  0  0  0  0
  130.5100  125.6360   55.8300 C   0  0  0  0  0  0  0  0  0  0  0  0
  129.6030  125.0260   56.6920 C   0  0  0  0  0  0  0  0  0  0  0  0
  128.9910  122.3560   60.8810 N   0  0  0  0  0  0  0  0  0  0  0  0
  127.9570  123.1460   61.5650 C   0  0  0  0  0  0  0  0  0  0  0  0
  128.6890  124.0870   62.5480 C   0  0  0  0  0  0  0  0  0  0  0  0
  129.6280  123.3180   63.5320 C   0  0  0  0  0  0  0  0  0  0  0  0
  130.4670  124.2170   64.4590 C   0  0  0  0  0  0  0  0  0  0  0  0
  131.8090  124.2560   64.2140 N   0  0  0  0  0  0  0  0  0  0  0  0
  132.5930  125.0570   64.9880 C   0  0  0  0  0  0  0  0  0  0  0  0
  133.9490  125.1840   64.8370 O   0  0  0  0  0  0  0  0  0  0  0  0
  131.9860  125.8110   66.0110 C   0  0  0  0  0  0  0  0  0  0  0  0
  132.4610  126.6910   66.9390 N   0  0  0  0  0  0  0  0  0  0  0  0
  131.3820  127.1150   67.6920 N   0  0  0  0  0  0  0  0  0  0  0  0
  130.2650  126.5130   67.2310 N   0  0  0  0  0  0  0  0  0  0  0  0
  128.9730  126.7630   67.8660 C   0  0  0  0  0  0  0  0  0  0  0  0
  129.0660  127.0250   69.3630 C   0  0  0  0  0  0  0  0  0  0  0  0
  129.4430  128.2860   69.8350 C   0  0  0  0  0  0  0  0  0  0  0  0
  129.5180  128.5290   71.2070 C   0  0  0  0  0  0  0  0  0  0  0  0
  129.2120  127.5140   72.1140 C   0  0  0  0  0  0  0  0  0  0  0  0
  128.8260  126.2560   71.6490 C   0  0  0  0  0  0  0  0  0  0  0  0
  128.4200  125.0060   72.7700 Cl  0  0  0  0  0  0  0  0  0  0  0  0
  128.7580  126.0110   70.2780 C   0  0  0  0  0  0  0  0  0  0  0  0
  130.5910  125.6780   66.1760 C   0  0  0  0  0  0  0  0  0  0  0  0
  129.8010  124.8950   65.4370 N   0  0  0  0  0  0  0  0  0  0  0  0
  130.4690  122.2270   62.8010 C   0  0  0  0  0  0  0  0  0  0  0  0
  129.6420  121.3970   61.7870 C   0  0  0  0  0  0  0  0  0  0  0  0
  128.6553  124.6855   59.5433 H   0  0  0  0  0  0  0  0  0  0  0  0
  126.4268  124.9647   59.0631 H   0  0  0  0  0  0  0  0  0  0  0  0
  124.3589  124.1894   57.9103 H   0  0  0  0  0  0  0  0  0  0  0  0
  124.4536  122.2281   56.3790 H   0  0  0  0  0  0  0  0  0  0  0  0
  126.6014  121.0291   55.9990 H   0  0  0  0  0  0  0  0  0  0  0  0
  128.6732  121.7994   57.1481 H   0  0  0  0  0  0  0  0  0  0  0  0
  131.6995  124.3296   59.2978 H   0  0  0  0  0  0  0  0  0  0  0  0
  133.3238  125.4194   57.7517 H   0  0  0  0  0  0  0  0  0  0  0  0
  132.5598  126.2481   55.5332 H   0  0  0  0  0  0  0  0  0  0  0  0
  130.1770  126.0099   54.8506 H   0  0  0  0  0  0  0  0  0  0  0  0
  128.5494  124.9235   56.3931 H   0  0  0  0  0  0  0  0  0  0  0  0
  127.3846  123.7346   60.8330 H   0  0  0  0  0  0  0  0  0  0  0  0
  127.2500  122.4928   62.0974 H   0  0  0  0  0  0  0  0  0  0  0  0
  129.2942  124.7996   61.9684 H   0  0  0  0  0  0  0  0  0  0  0  0
  127.9240  124.5989   63.1502 H   0  0  0  0  0  0  0  0  0  0  0  0
  128.9539  122.7929   64.2248 H   0  0  0  0  0  0  0  0  0  0  0  0
  134.3350  125.8000   65.4630 H   0  0  0  0  0  0  0  0  0  0  0  0
  128.5154  127.6415   67.3877 H   0  0  0  0  0  0  0  0  0  0  0  0
  128.3701  125.8521   67.7364 H   0  0  0  0  0  0  0  0  0  0  0  0
  129.6813  129.0893   69.1223 H   0  0  0  0  0  0  0  0  0  0  0  0
  129.8186  129.5215   71.5737 H   0  0  0  0  0  0  0  0  0  0  0  0
  129.2750  127.7052   73.1954 H   0  0  0  0  0  0  0  0  0  0  0  0
  128.4610  125.0165   69.9136 H   0  0  0  0  0  0  0  0  0  0  0  0
  131.2898  122.7217   62.2610 H   0  0  0  0  0  0  0  0  0  0  0  0
  130.8396  121.5312   63.5681 H   0  0  0  0  0  0  0  0  0  0  0  0
  130.3033  120.7274   61.2175 H   0  0  0  0  0  0  0  0  0  0  0  0
  128.8966  120.7739   62.3029 H   0  0  0  0  0  0  0  0  0  0  0  0
  1  2  2  0
  2  3  1  0
  3  4  1  0
  4  5  2  0
  5  6  1  0
  6  7  2  0
  7  8  1  0
  8  9  2  0
  3 10  1  0
 10 11  2  0
 11 12  1  0
 12 13  2  0
 13 14  1  0
 14 15  2  0
  2 16  1  0
 16 17  1  0
 17 18  1  0
 18 19  1  0
 19 20  1  0
 20 21  2  0
 21 22  1  0
 22 23  1  0
 22 24  2  0
 24 25  1  0
 25 26  2  0
 26 27  1  0
 27 28  1  0
 28 29  1  0
 29 30  2  0
 30 31  1  0
 31 32  2  0
 32 33  1  0
 33 34  1  0
 33 35  2  0
 27 36  1  0
 36 37  2  0
 19 38  1  0
 38 39  1  0
  9  4  1  0
 15 10  1  0
 39 16  1  0
 37 20  1  0
 36 24  1  0
 35 29  1  0
  3 40  1  0
  5 41  1  0
  6 42  1  0
  7 43  1  0
  8 44  1  0
  9 45  1  0
 11 46  1  0
 12 47  1  0
 13 48  1  0
 14 49  1  0
 15 50  1  0
 17 51  1  0
 17 52  1  0
 18 53  1  0
 18 54  1  0
 19 55  1  0
 23 56  1  0
 28 57  1  0
 28 58  1  0
 30 59  1  0
 31 60  1  0
 32 61  1  0
 35 62  1  0
 38 63  1  0
 38 64  1  0
 39 65  1  0
 39 66  1  0
M  END
>  <Binding energies>  (1) 
[-10.99]

>  <Ligand effiencies>  (1) 
[-0.27475]

>  <Interactions>  (1) 
["V-B:PRO:540:CB:9857, V-B:MET:535:CE:9807, V-B:PRO:540:N:9856, V-A:LEU:475:CD1:4257, V-B:PRO:540:CA:9855, V-B:ALA:541:CB:9864, V-B:TYR:539:CE2:9848, V-B:TYR:539:C:9839, V-B:TYR:531:CE2:9765, V-B:LEU:363:CD1:8160, V-B:TYR:539:CA:9841, H-A:TYR:484:OH:4347, V-A:ASP:366:CG:3212, H-A:GLY:454:N:4049, V-B:PRO:540:CD:9859, V-A:ASP:366:CA:3209, V-A:ASP:366:CB:3211, V-B:TYR:539:CZ:9849, H-A:ARG:545:NH2:4928, V-A:GLU:543:C:4902, V-B:HIS:456:CE1:9041, V-A:HIS:456:CE1:4069, V-B:GLU:543:CB:9878, V-B:GLU:543:CG:9879, V-B:GLU:543:CD:9880, H-A:ARG:545:NE:4924, V-A:ARG:545:CZ:4926, H-A:ARG:545:NH1:4927, V-B:GLU:543:C:9874, V-B:ALA:541:CA:9862, V-B:HIS:456:CD2:9039, V-B:GLY:544:CA:9886"]

$$$$
RR27_Rahimova_2017-again1
     RDKit          3D

 66 71  0  0  0  0  0  0  0  0999 V2000
  126.0540  124.9270   57.3920 O   0  0  0  0  0  0  0  0  0  0  0  0
  126.9130  125.1930   58.2390 C   0  0  0  0  0  0  0  0  0  0  0  0
  126.4390  125.6920   59.6370 C   0  0  0  0  0  0  0  0  0  0  0  0
  126.4620  127.2280   59.7540 C   0  0  0  0  0  0  0  0  0  0  0  0
  126.1450  127.8890   60.9510 C   0  0  0  0  0  0  0  0  0  0  0  0
  126.1790  129.2790   61.0180 C   0  0  0  0  0  0  0  0  0  0  0  0
  126.5290  130.0160   59.8900 C   0  0  0  0  0  0  0  0  0  0  0  0
  126.8470  129.3760   58.6970 C   0  0  0  0  0  0  0  0  0  0  0  0
  126.8140  127.9860   58.6290 C   0  0  0  0  0  0  0  0  0  0  0  0
  127.1700  124.9730   60.7860 C   0  0  0  0  0  0  0  0  0  0  0  0
  126.9760  123.6060   61.0340 C   0  0  0  0  0  0  0  0  0  0  0  0
  127.6320  122.9810   62.0920 C   0  0  0  0  0  0  0  0  0  0  0  0
  128.4880  123.7190   62.9050 C   0  0  0  0  0  0  0  0  0  0  0  0
  128.6890  125.0770   62.6720 C   0  0  0  0  0  0  0  0  0  0  0  0
  128.0270  125.7030   61.6190 C   0  0  0  0  0  0  0  0  0  0  0  0
  128.2300  124.9050   58.0240 N   0  0  0  0  0  0  0  0  0  0  0  0
  129.3250  125.4360   58.8480 C   0  0  0  0  0  0  0  0  0  0  0  0
  129.7010  126.8280   58.2900 C   0  0  0  0  0  0  0  0  0  0  0  0
  129.8030  126.9310   56.7320 C   0  0  0  0  0  0  0  0  0  0  0  0
  129.5610  128.3450   56.1970 C   0  0  0  0  0  0  0  0  0  0  0  0
  130.4360  129.2820   56.3880 N   0  0  0  0  0  0  0  0  0  0  0  0
  130.1130  130.5010   55.8730 C   0  0  0  0  0  0  0  0  0  0  0  0
  128.9540  130.8200   55.1820 C   0  0  0  0  0  0  0  0  0  0  0  0
  128.9620  132.0950   54.8350 N   0  0  0  0  0  0  0  0  0  0  0  0
  130.1510  132.6470   55.3000 N   0  0  0  0  0  0  0  0  0  0  0  0
  130.8370  131.6640   55.9080 N   0  0  0  0  0  0  0  0  0  0  0  0
  132.1300  131.9250   56.5280 C   0  0  0  0  0  0  0  0  0  0  0  0
  132.2070  131.4740   57.9790 C   0  0  0  0  0  0  0  0  0  0  0  0
  133.4390  131.1240   58.5410 C   0  0  0  0  0  0  0  0  0  0  0  0
  133.5100  130.7010   59.8690 C   0  0  0  0  0  0  0  0  0  0  0  0
  132.3520  130.6290   60.6420 C   0  0  0  0  0  0  0  0  0  0  0  0
  131.1200  130.9820   60.0890 C   0  0  0  0  0  0  0  0  0  0  0  0
  129.6870  130.8880   61.0440 Cl  0  0  0  0  0  0  0  0  0  0  0  0
  131.0480  131.4060   58.7610 C   0  0  0  0  0  0  0  0  0  0  0  0
  127.9530  129.7790   54.9470 C   0  0  0  0  0  0  0  0  0  0  0  0
  126.8780  129.8690   54.3580 O   0  0  0  0  0  0  0  0  0  0  0  0
  128.3800  128.5910   55.5020 N   0  0  0  0  0  0  0  0  0  0  0  0
  129.0210  125.8490   55.9220 C   0  0  0  0  0  0  0  0  0  0  0  0
  128.6900  124.5380   56.6770 C   0  0  0  0  0  0  0  0  0  0  0  0
  125.3800  125.4120   59.7372 H   0  0  0  0  0  0  0  0  0  0  0  0
  125.8681  127.3052   61.8413 H   0  0  0  0  0  0  0  0  0  0  0  0
  125.9304  129.7929   61.9583 H   0  0  0  0  0  0  0  0  0  0  0  0
  126.5542  131.1144   59.9428 H   0  0  0  0  0  0  0  0  0  0  0  0
  127.1235  129.9658   57.8106 H   0  0  0  0  0  0  0  0  0  0  0  0
  127.0659  127.4791   57.6858 H   0  0  0  0  0  0  0  0  0  0  0  0
  126.3015  123.0239   60.3888 H   0  0  0  0  0  0  0  0  0  0  0  0
  127.4745  121.9094   62.2842 H   0  0  0  0  0  0  0  0  0  0  0  0
  129.0097  123.2253   63.7381 H   0  0  0  0  0  0  0  0  0  0  0  0
  129.3683  125.6532   63.3174 H   0  0  0  0  0  0  0  0  0  0  0  0
  128.1782  126.7778   61.4403 H   0  0  0  0  0  0  0  0  0  0  0  0
  128.9963  125.5279   59.8937 H   0  0  0  0  0  0  0  0  0  0  0  0
  130.1930  124.7611   58.8165 H   0  0  0  0  0  0  0  0  0  0  0  0
  128.9371  127.5443   58.6265 H   0  0  0  0  0  0  0  0  0  0  0  0
  130.7110  127.0402   58.6707 H   0  0  0  0  0  0  0  0  0  0  0  0
  130.8601  126.6904   56.5458 H   0  0  0  0  0  0  0  0  0  0  0  0
  132.9045  131.3931   55.9561 H   0  0  0  0  0  0  0  0  0  0  0  0
  132.2804  133.0146   56.5185 H   0  0  0  0  0  0  0  0  0  0  0  0
  134.3548  131.1823   57.9344 H   0  0  0  0  0  0  0  0  0  0  0  0
  134.4806  130.4241   60.3063 H   0  0  0  0  0  0  0  0  0  0  0  0
  132.4093  130.2939   61.6881 H   0  0  0  0  0  0  0  0  0  0  0  0
  130.0771  131.6877   58.3275 H   0  0  0  0  0  0  0  0  0  0  0  0
  127.7420  127.8180   55.3860 H   0  0  0  0  0  0  0  0  0  0  0  0
  128.0713  126.2965   55.5938 H   0  0  0  0  0  0  0  0  0  0  0  0
  129.6903  125.5550   55.1000 H   0  0  0  0  0  0  0  0  0  0  0  0
  127.8977  123.9894   56.1466 H   0  0  0  0  0  0  0  0  0  0  0  0
  129.5776  123.8908   56.7348 H   0  0  0  0  0  0  0  0  0  0  0  0
  1  2  2  0
  2  3  1  0
  3  4  1  0
  4  5  2  0
  5  6  1  0
  6  7  2  0
  7  8  1  0
  8  9  2  0
  3 10  1  0
 10 11  2  0
 11 12  1  0
 12 13  2  0
 13 14  1  0
 14 15  2  0
  2 16  1  0
 16 17  1  0
 17 18  1  0
 18 19  1  0
 19 20  1  0
 20 21  2  0
 21 22  1  0
 22 23  2  0
 23 24  1  0
 24 25  2  0
 25 26  1  0
 26 27  1  0
 27 28  1  0
 28 29  2  0
 29 30  1  0
 30 31  2  0
 31 32  1  0
 32 33  1  0
 32 34  2  0
 23 35  1  0
 35 36  2  0
 35 37  1  0
 19 38  1  0
 38 39  1  0
  9  4  1  0
 15 10  1  0
 39 16  1  0
 37 20  1  0
 26 22  1  0
 34 28  1  0
  3 40  1  0
  5 41  1  0
  6 42  1  0
  7 43  1  0
  8 44  1  0
  9 45  1  0
 11 46  1  0
 12 47  1  0
 13 48  1  0
 14 49  1  0
 15 50  1  0
 17 51  1  0
 17 52  1  0
 18 53  1  0
 18 54  1  0
 19 55  1  0
 27 56  1  0
 27 57  1  0
 29 58  1  0
 30 59  1  0
 31 60  1  0
 34 61  1  0
 37 62  1  0
 38 63  1  0
 38 64  1  0
 39 65  1  0
 39 66  1  0
M  END
>  <Binding energies>  (1) 
[-10.65]

>  <Ligand effiencies>  (1) 
[-0.26625]

>  <Interactions>  (1) 
["H-B:TYR:531:OH:9767, V-B:MET:535:CE:9807, V-B:PRO:540:CA:9855, V-B:ALA:541:CB:9864, V-A:ASP:366:CG:3212, V-A:PRO:540:N:4884, V-A:ASP:366:CB:3211, V-A:PRO:540:CA:4883, H-A:TYR:531:OH:4795, H-A:TYR:539:N:4870, V-A:PRO:540:CB:4885, V-A:ILE:538:CB:4862, V-B:ASP:366:CG:8184, V-B:TYR:531:CE1:9764, H-B:LYS:534:NZ:9795, V-A:PRO:540:CD:4887, V-A:LEU:363:CD1:3188, H-A:TYR:539:OH:4878, V-B:GLU:543:CG:9879, V-B:GLU:543:CD:9880, V-A:LEU:363:CA:3184, V-A:LEU:363:CB:3186, V-A:ASN:362:C:3171"]

$$$$
RR28_Rahimova_2017
     RDKit          3D

 82 85  0  0  0  0  0  0  0  0999 V2000
  130.6040  119.3970   61.1280 C   0  0  0  0  0  0  0  0  0  0  0  0
  130.5540  120.9210   61.1550 C   0  0  0  0  0  0  0  0  0  0  0  0
  131.5230  121.5530   61.5730 O   0  0  0  0  0  0  0  0  0  0  0  0
  129.4170  121.4890   60.7070 N   0  0  0  0  0  0  0  0  0  0  0  0
  129.0830  122.9300   60.6250 C   0  0  0  0  0  0  0  0  0  0  0  0
  129.4850  123.6000   61.9700 C   0  0  0  0  0  0  0  0  0  0  0  0
  129.1430  122.9750   63.1790 C   0  0  0  0  0  0  0  0  0  0  0  0
  129.4830  123.5470   64.4010 C   0  0  0  0  0  0  0  0  0  0  0  0
  130.1730  124.7600   64.4420 C   0  0  0  0  0  0  0  0  0  0  0  0
  130.5330  125.3760   65.7940 C   0  0  0  0  0  0  0  0  0  0  0  0
  130.2270  124.5730   66.8150 F   0  0  0  0  0  0  0  0  0  0  0  0
  131.8400  125.6340   65.8510 F   0  0  0  0  0  0  0  0  0  0  0  0
  129.8630  126.5190   65.9470 F   0  0  0  0  0  0  0  0  0  0  0  0
  130.5180  125.3930   63.2450 C   0  0  0  0  0  0  0  0  0  0  0  0
  130.1770  124.8190   62.0230 C   0  0  0  0  0  0  0  0  0  0  0  0
  127.5700  123.1240   60.2500 C   0  0  0  0  0  0  0  0  0  0  0  0
  127.2220  122.6200   58.8260 C   0  0  0  0  0  0  0  0  0  0  0  0
  128.0790  123.3720   57.8960 N   0  0  0  0  0  0  0  0  0  0  0  0
  127.6240  124.5150   57.3140 C   0  0  0  0  0  0  0  0  0  0  0  0
  126.4470  124.8700   57.4010 O   0  0  0  0  0  0  0  0  0  0  0  0
  128.5710  125.3060   56.3780 C   0  0  0  0  0  0  0  0  0  0  0  0
  129.5120  126.3290   57.0720 C   0  0  0  0  0  0  0  0  0  0  0  0
  128.8600  127.6850   57.4270 C   0  0  0  0  0  0  0  0  0  0  0  0
  128.7710  128.5350   56.5360 O   0  0  0  0  0  0  0  0  0  0  0  0
  128.2850  127.8600   58.6510 N   0  0  0  0  0  0  0  0  0  0  0  0
  128.6220  127.0450   59.8240 C   0  0  0  0  0  0  0  0  0  0  0  0
  129.8630  127.6970   60.4720 C   0  0  0  0  0  0  0  0  0  0  0  0
  129.6840  129.2050   60.8630 C   0  0  0  0  0  0  0  0  0  0  0  0
  131.0140  129.8100   61.0850 N   0  0  0  0  0  0  0  0  0  0  0  0
  131.3280  131.1180   61.1810 C   0  0  0  0  0  0  0  0  0  0  0  0
  132.8030  131.4450   61.3950 C   0  0  0  0  0  0  0  0  0  0  0  0
  130.5070  132.0310   61.1040 O   0  0  0  0  0  0  0  0  0  0  0  0
  128.9130  129.2480   62.2220 C   0  0  0  0  0  0  0  0  0  0  0  0
  128.4960  130.4470   62.8240 C   0  0  0  0  0  0  0  0  0  0  0  0
  127.8110  130.4410   64.0360 C   0  0  0  0  0  0  0  0  0  0  0  0
  127.5280  129.2350   64.6800 C   0  0  0  0  0  0  0  0  0  0  0  0
  126.7730  129.2120   66.0090 C   0  0  0  0  0  0  0  0  0  0  0  0
  126.9650  128.0510   66.6380 F   0  0  0  0  0  0  0  0  0  0  0  0
  127.2250  130.1960   66.7850 F   0  0  0  0  0  0  0  0  0  0  0  0
  125.4600  129.3780   65.8440 F   0  0  0  0  0  0  0  0  0  0  0  0
  127.9430  128.0360   64.1000 C   0  0  0  0  0  0  0  0  0  0  0  0
  128.6270  128.0450   62.8880 C   0  0  0  0  0  0  0  0  0  0  0  0
  128.9280  129.9520   59.6970 C   0  0  0  0  0  0  0  0  0  0  0  0
  127.7570  129.1750   59.0360 C   0  0  0  0  0  0  0  0  0  0  0  0
  129.5110  123.0810   58.0580 C   0  0  0  0  0  0  0  0  0  0  0  0
  129.9190  123.5740   59.4700 C   0  0  0  0  0  0  0  0  0  0  0  0
  130.6166  119.0122   62.1584 H   0  0  0  0  0  0  0  0  0  0  0  0
  129.7181  119.0103   60.6030 H   0  0  0  0  0  0  0  0  0  0  0  0
  131.5134  119.0692   60.6030 H   0  0  0  0  0  0  0  0  0  0  0  0
  128.6800  120.8680   60.4080 H   0  0  0  0  0  0  0  0  0  0  0  0
  128.5985  122.0194   63.1604 H   0  0  0  0  0  0  0  0  0  0  0  0
  129.2071  123.0416   65.3383 H   0  0  0  0  0  0  0  0  0  0  0  0
  131.0614  126.3491   63.2681 H   0  0  0  0  0  0  0  0  0  0  0  0
  130.4537  125.3277   61.0878 H   0  0  0  0  0  0  0  0  0  0  0  0
  126.9565  122.5703   60.9760 H   0  0  0  0  0  0  0  0  0  0  0  0
  127.3646  124.2044   60.2726 H   0  0  0  0  0  0  0  0  0  0  0  0
  127.4261  121.5422   58.7439 H   0  0  0  0  0  0  0  0  0  0  0  0
  126.1568  122.7741   58.5986 H   0  0  0  0  0  0  0  0  0  0  0  0
  129.1995  124.5794   55.8422 H   0  0  0  0  0  0  0  0  0  0  0  0
  127.9155  125.9002   55.7244 H   0  0  0  0  0  0  0  0  0  0  0  0
  129.8816  125.8746   58.0031 H   0  0  0  0  0  0  0  0  0  0  0  0
  130.3084  126.5529   56.3470 H   0  0  0  0  0  0  0  0  0  0  0  0
  127.7825  127.0373   60.5348 H   0  0  0  0  0  0  0  0  0  0  0  0
  128.8253  126.0025   59.5378 H   0  0  0  0  0  0  0  0  0  0  0  0
  130.1086  127.1336   61.3843 H   0  0  0  0  0  0  0  0  0  0  0  0
  130.6605  127.6656   59.7150 H   0  0  0  0  0  0  0  0  0  0  0  0
  131.7770  129.1510   61.1320 H   0  0  0  0  0  0  0  0  0  0  0  0
  133.0154  131.4921   62.4733 H   0  0  0  0  0  0  0  0  0  0  0  0
  133.4228  130.6625   60.9330 H   0  0  0  0  0  0  0  0  0  0  0  0
  133.0340  132.4162   60.9330 H   0  0  0  0  0  0  0  0  0  0  0  0
  128.7141  131.4053   62.3300 H   0  0  0  0  0  0  0  0  0  0  0  0
  127.4911  131.3912   64.4885 H   0  0  0  0  0  0  0  0  0  0  0  0
  127.7290  127.0809   64.6020 H   0  0  0  0  0  0  0  0  0  0  0  0
  128.9497  127.0920   62.4433 H   0  0  0  0  0  0  0  0  0  0  0  0
  128.5217  130.8890   60.1056 H   0  0  0  0  0  0  0  0  0  0  0  0
  129.6754  130.0935   58.9024 H   0  0  0  0  0  0  0  0  0  0  0  0
  126.9296  129.0564   59.7511 H   0  0  0  0  0  0  0  0  0  0  0  0
  127.3682  129.7161   58.1608 H   0  0  0  0  0  0  0  0  0  0  0  0
  129.6885  121.9990   57.9701 H   0  0  0  0  0  0  0  0  0  0  0  0
  130.1036  123.5855   57.2806 H   0  0  0  0  0  0  0  0  0  0  0  0
  130.9794  123.3297   59.6305 H   0  0  0  0  0  0  0  0  0  0  0  0
  129.7295  124.6571   59.5003 H   0  0  0  0  0  0  0  0  0  0  0  0
  1  2  1  0
  2  3  2  0
  2  4  1  0
  4  5  1  0
  5  6  1  0
  6  7  2  0
  7  8  1  0
  8  9  2  0
  9 10  1  0
 10 11  1  0
 10 12  1  0
 10 13  1  0
  9 14  1  0
 14 15  2  0
  5 16  1  0
 16 17  1  0
 17 18  1  0
 18 19  1  0
 19 20  2  0
 19 21  1  0
 21 22  1  0
 22 23  1  0
 23 24  2  0
 23 25  1  0
 25 26  1  0
 26 27  1  0
 27 28  1  0
 28 29  1  0
 29 30  1  0
 30 31  1  0
 30 32  2  0
 28 33  1  0
 33 34  2  0
 34 35  1  0
 35 36  2  0
 36 37  1  0
 37 38  1  0
 37 39  1  0
 37 40  1  0
 36 41  1  0
 41 42  2  0
 28 43  1  0
 43 44  1  0
 18 45  1  0
 45 46  1  0
 46  5  1  0
 15  6  1  0
 44 25  1  0
 42 33  1  0
  1 47  1  0
  1 48  1  0
  1 49  1  0
  4 50  1  0
  7 51  1  0
  8 52  1  0
 14 53  1  0
 15 54  1  0
 16 55  1  0
 16 56  1  0
 17 57  1  0
 17 58  1  0
 21 59  1  0
 21 60  1  0
 22 61  1  0
 22 62  1  0
 26 63  1  0
 26 64  1  0
 27 65  1  0
 27 66  1  0
 29 67  1  0
 31 68  1  0
 31 69  1  0
 31 70  1  0
 34 71  1  0
 35 72  1  0
 41 73  1  0
 42 74  1  0
 43 75  1  0
 43 76  1  0
 44 77  1  0
 44 78  1  0
 45 79  1  0
 45 80  1  0
 46 81  1  0
 46 82  1  0
M  END
>  <Binding energies>  (1) 
[-8.56]

>  <Ligand effiencies>  (1) 
[-0.17833333333333334]

>  <Interactions>  (1) 
["V-B:PRO:540:CB:9857, H-B:TYR:531:OH:9767, V-B:MET:535:CE:9807, V-B:TYR:539:CD2:9846, V-B:PRO:540:N:9856, V-B:PRO:540:CA:9855, V-B:ALA:541:CB:9864, V-B:TYR:539:CE2:9848, V-B:TYR:539:C:9839, V-A:PRO:540:CA:4883, V-A:PRO:540:CB:4885, V-B:ARG:545:CZ:9898, V-A:PRO:540:C:4881, V-A:GLU:543:CG:4907, V-A:GLU:543:CD:4908, H-A:ASP:366:OD2:3214, V-B:TYR:539:CZ:9849, H-B:TYR:539:O:9840, V-B:HIS:456:CE1:9041, V-A:TYR:484:CZ:4346, V-B:GLU:543:CB:9878, V-B:GLU:543:CG:9879, V-B:GLU:543:CD:9880, V-A:TYR:484:CE2:4345, H-A:ALA:541:N:4891, V-B:TYR:484:CZ:9318, V-B:TYR:484:CE2:9317, H-A:GLU:543:OE2:4910, V-A:ASN:362:CB:3175"]

$$$$
RR29_Rahimova_2017
     RDKit          3D

 35 36  0  0  0  0  0  0  0  0999 V2000
  126.5080  126.3360   59.5640 C   0  0  0  0  0  0  0  0  0  0  0  0
  126.8510  126.1110   61.0290 C   0  0  0  0  0  0  0  0  0  0  0  0
  126.6230  124.6520   61.4840 C   0  0  0  0  0  0  0  0  0  0  0  0
  127.7740  123.7270   61.0350 C   0  0  0  0  0  0  0  0  0  0  0  0
  127.5420  123.1490   59.6480 C   0  0  0  0  0  0  0  0  0  0  0  0
  128.6190  122.5970   58.9270 C   0  0  0  0  0  0  0  0  0  0  0  0
  128.4270  122.0580   57.6470 C   0  0  0  0  0  0  0  0  0  0  0  0
  127.1420  122.1010   57.1170 C   0  0  0  0  0  0  0  0  0  0  0  0
  126.0950  122.6380   57.8110 C   0  0  0  0  0  0  0  0  0  0  0  0
  126.2530  123.1700   59.0860 C   0  0  0  0  0  0  0  0  0  0  0  0
  124.9590  122.5170   57.0740 O   0  0  0  0  0  0  0  0  0  0  0  0
  125.3740  122.0810   55.8070 C   0  0  0  0  0  0  0  0  0  0  0  0
  126.6960  121.6270   55.9240 O   0  0  0  0  0  0  0  0  0  0  0  0
  127.2700  127.1050   61.7220 N   0  0  0  0  0  0  0  0  0  0  0  0
  127.4990  126.9230   63.0680 N   0  0  0  0  0  0  0  0  0  0  0  0
  128.7030  127.0520   63.6490 C   0  0  0  0  0  0  0  0  0  0  0  0
  129.8250  127.3900   63.0120 N   0  0  0  0  0  0  0  0  0  0  0  0
  128.7850  126.8300   64.9530 N   0  0  0  0  0  0  0  0  0  0  0  0
  125.5903  126.9380   59.4906 H   0  0  0  0  0  0  0  0  0  0  0  0
  127.3355  126.8673   59.0711 H   0  0  0  0  0  0  0  0  0  0  0  0
  126.3502  125.3654   59.0711 H   0  0  0  0  0  0  0  0  0  0  0  0
  126.5537  124.6277   62.5815 H   0  0  0  0  0  0  0  0  0  0  0  0
  125.6926  124.2904   61.0219 H   0  0  0  0  0  0  0  0  0  0  0  0
  128.7095  124.3056   61.0252 H   0  0  0  0  0  0  0  0  0  0  0  0
  127.8279  122.8881   61.7445 H   0  0  0  0  0  0  0  0  0  0  0  0
  129.6240  122.5887   59.3742 H   0  0  0  0  0  0  0  0  0  0  0  0
  129.2621  121.6173   57.0827 H   0  0  0  0  0  0  0  0  0  0  0  0
  125.3993  123.5927   59.6360 H   0  0  0  0  0  0  0  0  0  0  0  0
  124.7258  121.2620   55.4618 H   0  0  0  0  0  0  0  0  0  0  0  0
  125.3118  122.9020   55.0776 H   0  0  0  0  0  0  0  0  0  0  0  0
  126.7060  126.6490   63.6300 H   0  0  0  0  0  0  0  0  0  0  0  0
  130.6060  127.7710   63.5250 H   0  0  0  0  0  0  0  0  0  0  0  0
  129.8830  127.2710   62.0100 H   0  0  0  0  0  0  0  0  0  0  0  0
  128.0780  126.2790   65.4170 H   0  0  0  0  0  0  0  0  0  0  0  0
  129.5590  127.2080   65.4790 H   0  0  0  0  0  0  0  0  0  0  0  0
  1  2  1  0
  2  3  1  0
  3  4  1  0
  4  5  1  0
  5  6  2  0
  6  7  1  0
  7  8  2  0
  8  9  1  0
  9 10  2  0
  9 11  1  0
 11 12  1  0
 12 13  1  0
  2 14  2  0
 14 15  1  0
 15 16  1  0
 16 17  1  0
 16 18  2  0
 10  5  1  0
 13  8  1  0
  1 19  1  0
  1 20  1  0
  1 21  1  0
  3 22  1  0
  3 23  1  0
  4 24  1  0
  4 25  1  0
  6 26  1  0
  7 27  1  0
 10 28  1  0
 12 29  1  0
 12 30  1  0
 15 31  1  0
 17 32  1  0
 17 33  1  0
 18 34  1  0
 18 35  1  0
M  CHG  1  18   1
M  END
>  <Binding energies>  (1) 
[-7.68]

>  <Ligand effiencies>  (1) 
[-0.33391304347826084]

>  <Interactions>  (1) 
["V-B:PRO:540:CB:9857, V-B:MET:535:CE:9807, V-B:TYR:539:CD2:9846, V-B:PRO:540:N:9856, V-B:PRO:540:CA:9855, H-B:TYR:539:N:9842, V-B:TYR:539:CE2:9848, V-B:TYR:539:C:9839, V-B:LEU:363:CD1:8160, V-B:TYR:539:CA:9841, V-B:PRO:540:CD:9859, V-B:ASP:366:CG:8184, V-A:GLU:543:CD:4908, V-B:TYR:539:CZ:9849, V-B:TYR:539:CG:9844, V-B:TYR:539:CE1:9847, H-B:GLU:543:OE1:9881, V-B:GLU:543:CD:9880, H-B:GLU:543:OE2:9882, V-B:TYR:539:CD1:9845, V-B:ILE:538:CG2:9835, H-A:GLU:543:OE1:4909, H-A:GLU:543:OE2:4910"]

$$$$
RR29_Rahimova_2017-again1
     RDKit          3D

 34 35  0  0  0  0  0  0  0  0999 V2000
  129.9150  122.4600   63.2470 C   0  0  0  0  0  0  0  0  0  0  0  0
  128.8450  122.3130   62.1760 C   0  0  0  0  0  0  0  0  0  0  0  0
  129.3580  121.6500   60.8830 C   0  0  0  0  0  0  0  0  0  0  0  0
  129.7710  122.7020   59.8330 C   0  0  0  0  0  0  0  0  0  0  0  0
  128.6380  123.0350   58.8740 C   0  0  0  0  0  0  0  0  0  0  0  0
  128.1310  124.3480   58.8140 C   0  0  0  0  0  0  0  0  0  0  0  0
  127.0880  124.6780   57.9370 C   0  0  0  0  0  0  0  0  0  0  0  0
  126.5720  123.6620   57.1400 C   0  0  0  0  0  0  0  0  0  0  0  0
  127.0590  122.3850   57.1950 C   0  0  0  0  0  0  0  0  0  0  0  0
  128.0990  122.0330   58.0490 C   0  0  0  0  0  0  0  0  0  0  0  0
  126.3990  121.6140   56.2930 O   0  0  0  0  0  0  0  0  0  0  0  0
  125.3360  122.4020   55.8270 C   0  0  0  0  0  0  0  0  0  0  0  0
  125.5920  123.7290   56.2020 O   0  0  0  0  0  0  0  0  0  0  0  0
  127.6570  122.7480   62.4110 N   0  0  0  0  0  0  0  0  0  0  0  0
  126.7840  122.6290   61.4630 N   0  0  0  0  0  0  0  0  0  0  0  0
  126.0380  123.6440   61.2180 C   0  0  0  0  0  0  0  0  0  0  0  0
  126.0400  124.9100   61.8670 N   0  0  0  0  0  0  0  0  0  0  0  0
  125.0620  123.6060   60.1990 N   0  0  0  0  0  0  0  0  0  0  0  0
  129.4495  122.3960   64.2416 H   0  0  0  0  0  0  0  0  0  0  0  0
  130.6569  121.6553   63.1370 H   0  0  0  0  0  0  0  0  0  0  0  0
  130.4124  123.4349   63.1370 H   0  0  0  0  0  0  0  0  0  0  0  0
  130.2300  121.0242   61.1240 H   0  0  0  0  0  0  0  0  0  0  0  0
  128.5442  121.0423   60.4607 H   0  0  0  0  0  0  0  0  0  0  0  0
  130.0753  123.6217   60.3542 H   0  0  0  0  0  0  0  0  0  0  0  0
  130.5992  122.2822   59.2432 H   0  0  0  0  0  0  0  0  0  0  0  0
  128.5593  125.1251   59.4642 H   0  0  0  0  0  0  0  0  0  0  0  0
  126.6924  125.7029   57.8815 H   0  0  0  0  0  0  0  0  0  0  0  0
  128.4869  121.0041   58.0777 H   0  0  0  0  0  0  0  0  0  0  0  0
  125.2677  122.3289   54.7316 H   0  0  0  0  0  0  0  0  0  0  0  0
  124.3839  122.0573   56.2567 H   0  0  0  0  0  0  0  0  0  0  0  0
  126.6690  125.1210   62.6290 H   0  0  0  0  0  0  0  0  0  0  0  0
  125.4090  125.6530   61.6080 H   0  0  0  0  0  0  0  0  0  0  0  0
  124.9110  122.7860   59.6310 H   0  0  0  0  0  0  0  0  0  0  0  0
  124.4630  124.3910   59.9940 H   0  0  0  0  0  0  0  0  0  0  0  0
  1  2  1  0
  2  3  1  0
  3  4  1  0
  4  5  1  0
  5  6  2  0
  6  7  1  0
  7  8  2  0
  8  9  1  0
  9 10  2  0
  9 11  1  0
 11 12  1  0
 12 13  1  0
  2 14  2  0
 14 15  1  0
 15 16  2  0
 16 17  1  0
 16 18  1  0
 10  5  1  0
 13  8  1  0
  1 19  1  0
  1 20  1  0
  1 21  1  0
  3 22  1  0
  3 23  1  0
  4 24  1  0
  4 25  1  0
  6 26  1  0
  7 27  1  0
 10 28  1  0
 12 29  1  0
 12 30  1  0
 17 31  1  0
 17 32  1  0
 18 33  1  0
 18 34  1  0
M  END
>  <Binding energies>  (1) 
[-6.92]

>  <Ligand effiencies>  (1) 
[-0.3145454545454545]

>  <Interactions>  (1) 
["H-B:ALA:541:N:9863, V-B:PRO:540:CB:9857, H-B:TYR:531:OH:9767, V-B:MET:535:CE:9807, V-B:TYR:539:CD2:9846, V-B:PRO:540:N:9856, V-B:PRO:540:CA:9855, H-B:TYR:539:N:9842, V-B:ALA:541:CB:9864, V-B:TYR:539:CE2:9848, V-B:MET:535:CG:9805, V-B:TYR:539:C:9839, V-B:TYR:531:CE2:9765, V-B:LEU:363:CD1:8160, V-B:TYR:539:CG:9844, H-B:GLU:543:OE1:9881, V-B:GLU:543:CD:9880, H-B:GLU:543:OE2:9882, H-B:ASP:366:OD2:8186, H-B:ASP:366:OD1:8185, V-B:ALA:541:CA:9862"]

$$$$
RR2_Rahimova_2017
     RDKit          3D

 76 80  0  0  0  0  0  0  0  0999 V2000
  129.6090  121.4980   61.0410 C   0  0  0  0  0  0  0  0  0  0  0  0
  128.7630  121.9460   62.0940 O   0  0  0  0  0  0  0  0  0  0  0  0
  128.2500  123.2290   62.0480 C   0  0  0  0  0  0  0  0  0  0  0  0
  128.9080  124.3620   62.5450 C   0  0  0  0  0  0  0  0  0  0  0  0
  128.3110  125.6160   62.4580 C   0  0  0  0  0  0  0  0  0  0  0  0
  127.0450  125.7680   61.8760 C   0  0  0  0  0  0  0  0  0  0  0  0
  126.4130  127.1440   61.7990 C   0  0  0  0  0  0  0  0  0  0  0  0
  126.1700  127.7760   62.8320 O   0  0  0  0  0  0  0  0  0  0  0  0
  126.1360  127.5980   60.5540 N   0  0  0  0  0  0  0  0  0  0  0  0
  125.4720  128.8130   60.4310 N   0  0  0  0  0  0  0  0  0  0  0  0
  125.0130  129.1690   59.2140 C   0  0  0  0  0  0  0  0  0  0  0  0
  125.2870  128.5890   58.1600 O   0  0  0  0  0  0  0  0  0  0  0  0
  124.0660  130.3760   59.1920 C   0  0  0  0  0  0  0  0  0  0  0  0
  124.6470  131.8350   60.1330 S   0  0  0  0  0  0  0  0  0  0  0  0
  124.7140  131.1630   61.7660 C   0  0  0  0  0  0  0  0  0  0  0  0
  123.6450  130.8570   62.4560 N   0  0  0  0  0  0  0  0  0  0  0  0
  124.0640  130.4300   63.7080 N   0  0  0  0  0  0  0  0  0  0  0  0
  125.3750  130.4660   63.7180 C   0  0  0  0  0  0  0  0  0  0  0  0
  126.2000  130.0600   64.8960 C   0  0  0  0  0  0  0  0  0  0  0  0
  127.2100  130.9050   65.3620 C   0  0  0  0  0  0  0  0  0  0  0  0
  127.9880  130.5320   66.4530 C   0  0  0  0  0  0  0  0  0  0  0  0
  127.7510  129.3150   67.1020 C   0  0  0  0  0  0  0  0  0  0  0  0
  128.5100  128.8830   68.2000 N   0  0  0  0  0  0  0  0  0  0  0  0
  128.7990  127.1810   68.6240 S   0  0  0  0  0  0  0  0  0  0  0  0
  127.5250  126.4880   68.4040 O   0  0  0  0  0  0  0  0  0  0  0  0
  129.4600  127.1440   69.9340 O   0  0  0  0  0  0  0  0  0  0  0  0
  129.9380  126.5760   67.3800 C   0  0  0  0  0  0  0  0  0  0  0  0
  129.4830  125.7790   66.3270 C   0  0  0  0  0  0  0  0  0  0  0  0
  130.3870  125.3050   65.3800 C   0  0  0  0  0  0  0  0  0  0  0  0
  131.7410  125.6330   65.4810 C   0  0  0  0  0  0  0  0  0  0  0  0
  132.7260  125.1040   64.4560 C   0  0  0  0  0  0  0  0  0  0  0  0
  132.1930  126.4270   66.5380 C   0  0  0  0  0  0  0  0  0  0  0  0
  131.2910  126.9000   67.4860 C   0  0  0  0  0  0  0  0  0  0  0  0
  126.7390  128.4740   66.6390 C   0  0  0  0  0  0  0  0  0  0  0  0
  125.9650  128.8430   65.5430 C   0  0  0  0  0  0  0  0  0  0  0  0
  125.8590  130.9310   62.5060 N   0  0  0  0  0  0  0  0  0  0  0  0
  127.1980  131.1590   62.1250 C   0  0  0  0  0  0  0  0  0  0  0  0
  128.1810  130.2190   62.4380 C   0  0  0  0  0  0  0  0  0  0  0  0
  129.4990  130.4490   62.0550 C   0  0  0  0  0  0  0  0  0  0  0  0
  129.8470  131.6100   61.3640 C   0  0  0  0  0  0  0  0  0  0  0  0
  131.1800  131.7500   61.0280 O   0  0  0  0  0  0  0  0  0  0  0  0
  132.0260  130.6040   61.0500 C   0  0  0  0  0  0  0  0  0  0  0  0
  128.8510  132.5510   61.0540 C   0  0  0  0  0  0  0  0  0  0  0  0
  127.5310  132.3250   61.4320 C   0  0  0  0  0  0  0  0  0  0  0  0
  126.3950  124.6290   61.3740 C   0  0  0  0  0  0  0  0  0  0  0  0
  126.9950  123.3760   61.4620 C   0  0  0  0  0  0  0  0  0  0  0  0
  130.5051  121.0235   61.4673 H   0  0  0  0  0  0  0  0  0  0  0  0
  129.0676  120.7684   60.4209 H   0  0  0  0  0  0  0  0  0  0  0  0
  129.9082  122.3559   60.4209 H   0  0  0  0  0  0  0  0  0  0  0  0
  129.9014  124.2596   63.0062 H   0  0  0  0  0  0  0  0  0  0  0  0
  128.8386  126.4979   62.8504 H   0  0  0  0  0  0  0  0  0  0  0  0
  125.9010  126.9660   59.8020 H   0  0  0  0  0  0  0  0  0  0  0  0
  125.0610  129.1330   61.2970 H   0  0  0  0  0  0  0  0  0  0  0  0
  123.9254  130.6800   58.1442 H   0  0  0  0  0  0  0  0  0  0  0  0
  123.1372  130.0460   59.6804 H   0  0  0  0  0  0  0  0  0  0  0  0
  127.3908  131.8691   64.8642 H   0  0  0  0  0  0  0  0  0  0  0  0
  128.7914  131.1951   66.8065 H   0  0  0  0  0  0  0  0  0  0  0  0
  128.9440  129.5890   68.7770 H   0  0  0  0  0  0  0  0  0  0  0  0
  128.4153  125.5270   66.2463 H   0  0  0  0  0  0  0  0  0  0  0  0
  130.0348  124.6721   64.5521 H   0  0  0  0  0  0  0  0  0  0  0  0
  133.5815  124.6445   64.9727 H   0  0  0  0  0  0  0  0  0  0  0  0
  132.2305  124.3507   63.8260 H   0  0  0  0  0  0  0  0  0  0  0  0
  133.0803  125.9332   63.8260 H   0  0  0  0  0  0  0  0  0  0  0  0
  133.2608  126.6779   66.6207 H   0  0  0  0  0  0  0  0  0  0  0  0
  131.6438  127.5281   68.3173 H   0  0  0  0  0  0  0  0  0  0  0  0
  126.5518  127.5142   67.1428 H   0  0  0  0  0  0  0  0  0  0  0  0
  125.1669  128.1760   65.1850 H   0  0  0  0  0  0  0  0  0  0  0  0
  127.9156  129.3018   62.9842 H   0  0  0  0  0  0  0  0  0  0  0  0
  130.2742  129.7079   62.2995 H   0  0  0  0  0  0  0  0  0  0  0  0
  132.2342  130.3219   62.0926 H   0  0  0  0  0  0  0  0  0  0  0  0
  131.5259  129.7692   60.5372 H   0  0  0  0  0  0  0  0  0  0  0  0
  132.9711  130.8360   60.5372 H   0  0  0  0  0  0  0  0  0  0  0  0
  129.1156  133.4700   60.5104 H   0  0  0  0  0  0  0  0  0  0  0  0
  126.7525  133.0621   61.1859 H   0  0  0  0  0  0  0  0  0  0  0  0
  125.4037  124.7277   60.9075 H   0  0  0  0  0  0  0  0  0  0  0  0
  126.4728  122.4931   61.0648 H   0  0  0  0  0  0  0  0  0  0  0  0
  1  2  1  0
  2  3  1  0
  3  4  2  0
  4  5  1  0
  5  6  2  0
  6  7  1  0
  7  8  2  0
  7  9  1  0
  9 10  1  0
 10 11  1  0
 11 12  2  0
 11 13  1  0
 13 14  1  0
 14 15  1  0
 15 16  2  0
 16 17  1  0
 17 18  2  0
 18 19  1  0
 19 20  2  0
 20 21  1  0
 21 22  2  0
 22 23  1  0
 23 24  1  0
 24 25  2  0
 24 26  2  0
 24 27  1  0
 27 28  2  0
 28 29  1  0
 29 30  2  0
 30 31  1  0
 30 32  1  0
 32 33  2  0
 22 34  1  0
 34 35  2  0
 18 36  1  0
 36 37  1  0
 37 38  2  0
 38 39  1  0
 39 40  2  0
 40 41  1  0
 41 42  1  0
 40 43  1  0
 43 44  2  0
  6 45  1  0
 45 46  2  0
 46  3  1  0
 36 15  1  0
 44 37  1  0
 35 19  1  0
 33 27  1  0
  1 47  1  0
  1 48  1  0
  1 49  1  0
  4 50  1  0
  5 51  1  0
  9 52  1  0
 10 53  1  0
 13 54  1  0
 13 55  1  0
 20 56  1  0
 21 57  1  0
 23 58  1  0
 28 59  1  0
 29 60  1  0
 31 61  1  0
 31 62  1  0
 31 63  1  0
 32 64  1  0
 33 65  1  0
 34 66  1  0
 35 67  1  0
 38 68  1  0
 39 69  1  0
 42 70  1  0
 42 71  1  0
 42 72  1  0
 43 73  1  0
 44 74  1  0
 45 75  1  0
 46 76  1  0
M  END
>  <Binding energies>  (1) 
[-10.71]

>  <Ligand effiencies>  (1) 
[-0.21857142857142858]

>  <Interactions>  (1) 
["H-B:ALA:541:N:9863, H-B:TYR:531:OH:9767, V-B:PRO:540:CA:9855, V-B:ALA:541:CB:9864, V-A:PRO:540:CA:4883, V-A:TYR:539:CE1:4875, V-B:ASP:366:CG:8184, H-B:GLY:454:N:9021, V-B:ASP:366:CB:8183, V-B:ARG:545:CZ:9898, V-A:ALA:541:CB:4892, V-A:PRO:540:C:4881, V-B:ASP:366:CA:8181, V-B:ILE:369:CD1:8210, V-A:GLU:543:CG:4907, V-A:GLU:543:CD:4908, H-B:ARG:545:NH2:9900, V-B:ASP:366:C:8179, V-B:HIS:456:CE1:9041, V-A:HIS:456:CE1:4069, V-B:GLU:543:CB:9878, V-B:GLU:543:CG:9879, V-B:GLU:543:CD:9880, V-A:ARG:545:CG:4922, V-A:ARG:545:CZ:4926, V-A:GLU:543:CB:4906, H-A:ALA:541:N:4891, V-B:TYR:484:CZ:9318, V-B:ILE:369:CG2:8208, V-B:TYR:484:CE2:9317, H-B:ASP:366:OD2:8186, H-B:ASP:366:OD1:8185, V-B:ILE:369:CB:8207, V-A:ALA:541:CA:4890, H-A:GLU:543:O:4903"]

$$$$
RR30_Rahimova_2017
     RDKit          3D

 29 30  0  0  0  0  0  0  0  0999 V2000
  129.1030  132.1480   60.3780 C   0  0  0  0  0  0  0  0  0  0  0  0
  130.1260  131.2440   61.0810 C   0  0  0  0  0  0  0  0  0  0  0  0
  131.4020  131.0940   60.2820 C   0  0  0  0  0  0  0  0  0  0  0  0
  132.6330  131.3180   60.6710 N   0  0  0  0  0  0  0  0  0  0  0  0
  133.4380  131.0420   59.5680 N   0  0  0  0  0  0  0  0  0  0  0  0
  132.6240  130.6860   58.6070 C   0  0  0  0  0  0  0  0  0  0  0  0
  133.0480  130.2020   56.9640 S   0  0  0  0  0  0  0  0  0  0  0  0
  132.3520  131.6050   56.0350 C   0  0  0  0  0  0  0  0  0  0  0  0
  130.8230  131.6400   56.1000 C   0  0  0  0  0  0  0  0  0  0  0  0
  130.2650  132.5800   56.6700 O   0  0  0  0  0  0  0  0  0  0  0  0
  130.1840  130.5890   55.5380 N   0  0  0  0  0  0  0  0  0  0  0  0
  128.8120  130.3970   55.4750 C   0  0  0  0  0  0  0  0  0  0  0  0
  128.0200  130.5180   54.4330 N   0  0  0  0  0  0  0  0  0  0  0  0
  126.6930  130.2480   54.7440 N   0  0  0  0  0  0  0  0  0  0  0  0
  126.5080  129.9300   56.0050 C   0  0  0  0  0  0  0  0  0  0  0  0
  125.1520  129.5970   56.5840 C   0  0  0  0  0  0  0  0  0  0  0  0
  127.9850  129.9350   56.9300 S   0  0  0  0  0  0  0  0  0  0  0  0
  131.3220  130.6920   58.9890 O   0  0  0  0  0  0  0  0  0  0  0  0
  128.5029  132.6783   61.1322 H   0  0  0  0  0  0  0  0  0  0  0  0
  129.6313  132.8797   59.7491 H   0  0  0  0  0  0  0  0  0  0  0  0
  128.4419  131.5336   59.7491 H   0  0  0  0  0  0  0  0  0  0  0  0
  130.3708  131.6812   62.0603 H   0  0  0  0  0  0  0  0  0  0  0  0
  129.6762  130.2459   61.1886 H   0  0  0  0  0  0  0  0  0  0  0  0
  132.7461  132.5406   56.4584 H   0  0  0  0  0  0  0  0  0  0  0  0
  132.6426  131.4892   54.9804 H   0  0  0  0  0  0  0  0  0  0  0  0
  130.7510  129.8630   55.1250 H   0  0  0  0  0  0  0  0  0  0  0  0
  125.2089  129.6110   57.6824 H   0  0  0  0  0  0  0  0  0  0  0  0
  124.4160  130.3411   56.2455 H   0  0  0  0  0  0  0  0  0  0  0  0
  124.8444  128.5966   56.2455 H   0  0  0  0  0  0  0  0  0  0  0  0
  1  2  1  0
  2  3  1  0
  3  4  2  0
  4  5  1  0
  5  6  2  0
  6  7  1  0
  7  8  1  0
  8  9  1  0
  9 10  2  0
  9 11  1  0
 11 12  1  0
 12 13  2  0
 13 14  1  0
 14 15  2  0
 15 16  1  0
 15 17  1  0
  6 18  1  0
 18  3  1  0
 17 12  1  0
  1 19  1  0
  1 20  1  0
  1 21  1  0
  2 22  1  0
  2 23  1  0
  8 24  1  0
  8 25  1  0
 11 26  1  0
 16 27  1  0
 16 28  1  0
 16 29  1  0
M  END
>  <Binding energies>  (1) 
[-6.82]

>  <Ligand effiencies>  (1) 
[-0.3589473684210526]

>  <Interactions>  (1) 
["H-B:TYR:531:OH:9767, V-B:TYR:531:CZ:9766, V-A:ASP:366:CG:3212, V-A:PRO:540:CA:4883, H-A:TYR:531:OH:4795, H-A:TYR:539:N:4870, V-A:TYR:539:CZ:4877, V-A:PRO:540:CB:4885, V-A:TYR:539:CE1:4875, V-B:TYR:531:CE1:9764, H-B:LYS:534:NZ:9795, V-A:TYR:539:C:4867, V-A:LEU:363:CD1:3188, H-A:TYR:539:OH:4878, V-A:TYR:531:CE2:4793, H-A:LEU:363:N:3185"]

$$$$
RR31_Rahimova_2017
     RDKit          3D

 44 45  0  0  0  0  0  0  0  0999 V2000
  125.6190  122.4730   56.3940 C   0  0  0  0  0  0  0  0  0  0  0  0
  126.3370  122.7940   57.6990 C   0  0  0  0  0  0  0  0  0  0  0  0
  127.6580  122.3790   57.8680 C   0  0  0  0  0  0  0  0  0  0  0  0
  128.3430  122.6600   59.0480 C   0  0  0  0  0  0  0  0  0  0  0  0
  127.7300  123.3710   60.0920 C   0  0  0  0  0  0  0  0  0  0  0  0
  128.4000  123.6510   61.2850 N   0  0  0  0  0  0  0  0  0  0  0  0
  128.6330  125.0340   61.7450 C   0  0  0  0  0  0  0  0  0  0  0  0
  129.7220  125.1610   62.8370 C   0  0  0  0  0  0  0  0  0  0  0  0
  129.4110  124.3080   63.9870 N   0  0  0  0  0  0  0  0  0  0  0  0
  130.4080  124.4330   65.0550 C   0  0  0  0  0  0  0  0  0  0  0  0
  129.7770  124.6450   66.4460 C   0  0  0  0  0  0  0  0  0  0  0  0
  129.5430  126.1320   66.7590 C   0  0  0  0  0  0  0  0  0  0  0  0
  128.7500  126.7880   65.6230 N   0  0  0  0  0  0  0  0  0  0  0  0
  129.3730  122.9260   63.5090 C   0  0  0  0  0  0  0  0  0  0  0  0
  128.2680  122.7450   62.4430 C   0  0  0  0  0  0  0  0  0  0  0  0
  126.3980  123.7740   59.9120 C   0  0  0  0  0  0  0  0  0  0  0  0
  125.6990  123.4970   58.7320 C   0  0  0  0  0  0  0  0  0  0  0  0
  124.2530  123.9600   58.6000 C   0  0  0  0  0  0  0  0  0  0  0  0
  124.6353  122.0332   56.6153 H   0  0  0  0  0  0  0  0  0  0  0  0
  125.4851  123.3970   55.8123 H   0  0  0  0  0  0  0  0  0  0  0  0
  126.2182  121.7571   55.8123 H   0  0  0  0  0  0  0  0  0  0  0  0
  128.1630  121.8253   57.0628 H   0  0  0  0  0  0  0  0  0  0  0  0
  129.3823  122.3189   59.1638 H   0  0  0  0  0  0  0  0  0  0  0  0
  128.9397  125.6391   60.8791 H   0  0  0  0  0  0  0  0  0  0  0  0
  127.6911  125.3821   62.1940 H   0  0  0  0  0  0  0  0  0  0  0  0
  130.6918  124.8579   62.4155 H   0  0  0  0  0  0  0  0  0  0  0  0
  129.7603  126.2070   63.1753 H   0  0  0  0  0  0  0  0  0  0  0  0
  131.0118  123.5139   65.0803 H   0  0  0  0  0  0  0  0  0  0  0  0
  131.0195  125.3198   64.8323 H   0  0  0  0  0  0  0  0  0  0  0  0
  128.8111  124.1199   66.4802 H   0  0  0  0  0  0  0  0  0  0  0  0
  130.4761  124.2485   67.1971 H   0  0  0  0  0  0  0  0  0  0  0  0
  128.9768  126.2220   67.6978 H   0  0  0  0  0  0  0  0  0  0  0  0
  130.5149  126.6372   66.8598 H   0  0  0  0  0  0  0  0  0  0  0  0
  127.8510  127.1010   65.9620 H   0  0  0  0  0  0  0  0  0  0  0  0
  128.6020  126.1260   64.8740 H   0  0  0  0  0  0  0  0  0  0  0  0
  129.2540  127.5840   65.2590 H   0  0  0  0  0  0  0  0  0  0  0  0
  130.3469  122.6705   63.0661 H   0  0  0  0  0  0  0  0  0  0  0  0
  129.1544  122.2641   64.3599 H   0  0  0  0  0  0  0  0  0  0  0  0
  128.3057  121.7081   62.0776 H   0  0  0  0  0  0  0  0  0  0  0  0
  127.3118  122.9865   62.9301 H   0  0  0  0  0  0  0  0  0  0  0  0
  125.8902  124.3219   60.7195 H   0  0  0  0  0  0  0  0  0  0  0  0
  123.8196  124.0988   59.6014 H   0  0  0  0  0  0  0  0  0  0  0  0
  124.2218  124.9131   58.0516 H   0  0  0  0  0  0  0  0  0  0  0  0
  123.6740  123.2023   58.0516 H   0  0  0  0  0  0  0  0  0  0  0  0
  1  2  1  0
  2  3  2  0
  3  4  1  0
  4  5  2  0
  5  6  1  0
  6  7  1  0
  7  8  1  0
  8  9  1  0
  9 10  1  0
 10 11  1  0
 11 12  1  0
 12 13  1  0
  9 14  1  0
 14 15  1  0
  5 16  1  0
 16 17  2  0
 17 18  1  0
 17  2  1  0
 15  6  1  0
  1 19  1  0
  1 20  1  0
  1 21  1  0
  3 22  1  0
  4 23  1  0
  7 24  1  0
  7 25  1  0
  8 26  1  0
  8 27  1  0
 10 28  1  0
 10 29  1  0
 11 30  1  0
 11 31  1  0
 12 32  1  0
 12 33  1  0
 13 34  1  0
 13 35  1  0
 13 36  1  0
 14 37  1  0
 14 38  1  0
 15 39  1  0
 15 40  1  0
 16 41  1  0
 18 42  1  0
 18 43  1  0
 18 44  1  0
M  CHG  1  13   1
M  END
>  <Binding energies>  (1) 
[-6.9]

>  <Ligand effiencies>  (1) 
[-0.32857142857142857]

>  <Interactions>  (1) 
["V-B:PRO:540:CB:9857, V-B:MET:535:CE:9807, V-B:PRO:540:N:9856, V-B:PRO:540:CA:9855, V-B:ALA:541:CB:9864, V-B:TYR:539:C:9839, V-B:LEU:363:CD1:8160, V-B:PRO:540:CD:9859, V-A:GLU:543:CD:4908, V-B:LEU:363:CA:8156, V-A:TYR:484:CZ:4346, V-B:GLU:543:CB:9878, V-B:GLU:543:CG:9879, V-B:GLU:543:CD:9880, H-B:GLU:543:OE2:9882, V-A:TYR:484:CE2:4345, H-A:GLU:543:OE1:4909, V-B:ALA:541:CA:9862, V-B:LEU:363:CB:8158"]

$$$$
RR32_Rahimova_2017
     RDKit          3D

 37 39  0  0  0  0  0  0  0  0999 V2000
  130.2140  131.5270   56.5560 C   0  0  0  0  0  0  0  0  0  0  0  0
  130.2070  131.5850   58.0800 C   0  0  0  0  0  0  0  0  0  0  0  0
  129.0000  131.8560   58.7250 C   0  0  0  0  0  0  0  0  0  0  0  0
  128.9550  131.9130   60.1150 C   0  0  0  0  0  0  0  0  0  0  0  0
  127.7550  132.1820   60.7510 N   0  0  0  0  0  0  0  0  0  0  0  0
  127.6270  133.4840   61.4290 C   0  0  0  0  0  0  0  0  0  0  0  0
  126.3280  133.6150   62.2590 C   0  0  0  0  0  0  0  0  0  0  0  0
  125.1590  133.4190   61.4020 N   0  0  0  0  0  0  0  0  0  0  0  0
  123.9330  133.5740   62.1770 C   0  0  0  0  0  0  0  0  0  0  0  0
  125.2350  132.0720   60.8380 C   0  0  0  0  0  0  0  0  0  0  0  0
  126.5190  131.9160   59.9900 C   0  0  0  0  0  0  0  0  0  0  0  0
  130.0520  131.7180   60.8920 N   0  0  0  0  0  0  0  0  0  0  0  0
  131.2450  131.4550   60.2920 C   0  0  0  0  0  0  0  0  0  0  0  0
  132.3720  131.2580   61.1260 C   0  0  0  0  0  0  0  0  0  0  0  0
  133.6170  130.9860   60.5690 C   0  0  0  0  0  0  0  0  0  0  0  0
  133.7690  130.9040   59.1900 C   0  0  0  0  0  0  0  0  0  0  0  0
  132.6810  131.0930   58.3420 C   0  0  0  0  0  0  0  0  0  0  0  0
  131.3870  131.3740   58.8680 C   0  0  0  0  0  0  0  0  0  0  0  0
  130.3399  130.4842   56.2293 H   0  0  0  0  0  0  0  0  0  0  0  0
  129.2619  131.9199   56.1697 H   0  0  0  0  0  0  0  0  0  0  0  0
  131.0453  132.1351   56.1697 H   0  0  0  0  0  0  0  0  0  0  0  0
  128.0860  132.0242   58.1365 H   0  0  0  0  0  0  0  0  0  0  0  0
  128.4868  133.6130   62.1029 H   0  0  0  0  0  0  0  0  0  0  0  0
  127.5943  134.2573   60.6473 H   0  0  0  0  0  0  0  0  0  0  0  0
  126.3269  132.8552   63.0544 H   0  0  0  0  0  0  0  0  0  0  0  0
  126.2844  134.6214   62.7009 H   0  0  0  0  0  0  0  0  0  0  0  0
  124.1715  133.5438   63.2504 H   0  0  0  0  0  0  0  0  0  0  0  0
  123.4641  134.5386   61.9325 H   0  0  0  0  0  0  0  0  0  0  0  0
  123.2388  132.7565   61.9325 H   0  0  0  0  0  0  0  0  0  0  0  0
  125.2489  131.3365   61.6559 H   0  0  0  0  0  0  0  0  0  0  0  0
  124.3589  131.9039   60.1944 H   0  0  0  0  0  0  0  0  0  0  0  0
  126.5605  130.8865   59.6048 H   0  0  0  0  0  0  0  0  0  0  0  0
  126.4678  132.6588   59.1803 H   0  0  0  0  0  0  0  0  0  0  0  0
  132.2625  131.3203   62.2188 H   0  0  0  0  0  0  0  0  0  0  0  0
  134.4874  130.8347   61.2244 H   0  0  0  0  0  0  0  0  0  0  0  0
  134.7597  130.6874   58.7638 H   0  0  0  0  0  0  0  0  0  0  0  0
  132.8221  131.0246   57.2532 H   0  0  0  0  0  0  0  0  0  0  0  0
  1  2  1  0
  2  3  2  0
  3  4  1  0
  4  5  1  0
  5  6  1  0
  6  7  1  0
  7  8  1  0
  8  9  1  0
  8 10  1  0
 10 11  1  0
  4 12  2  0
 12 13  1  0
 13 14  2  0
 14 15  1  0
 15 16  2  0
 16 17  1  0
 17 18  2  0
 18  2  1  0
 11  5  1  0
 18 13  1  0
  1 19  1  0
  1 20  1  0
  1 21  1  0
  3 22  1  0
  6 23  1  0
  6 24  1  0
  7 25  1  0
  7 26  1  0
  9 27  1  0
  9 28  1  0
  9 29  1  0
 10 30  1  0
 10 31  1  0
 11 32  1  0
 11 33  1  0
 14 34  1  0
 15 35  1  0
 16 36  1  0
 17 37  1  0
M  END
>  <Binding energies>  (1) 
[-6.52]

>  <Ligand effiencies>  (1) 
[-0.3622222222222222]

>  <Interactions>  (1) 
["V-A:ASP:366:CG:3212, V-A:PRO:540:N:4884, V-A:ASP:366:CB:3211, V-A:TYR:539:CD1:4873, V-A:PRO:540:CA:4883, V-A:PRO:540:CB:4885, V-A:TYR:539:CE1:4875, V-A:ALA:541:CB:4892, V-A:PRO:540:C:4881, V-A:TYR:539:C:4867, V-A:LEU:363:CD1:3188, V-B:ILE:369:CD1:8210, V-B:GLY:454:CA:9020, H-A:ALA:541:N:4891, V-A:LEU:363:CA:3184, V-A:LEU:363:CB:3186, V-B:LEU:475:CD1:9229, V-B:ILE:369:CG2:8208, V-A:ASN:362:CB:3175, V-A:ASN:362:C:3171"]

$$$$
RR32_Rahimova_2017-again1
     RDKit          3D

 38 40  0  0  0  0  0  0  0  0999 V2000
  128.9820  122.9980   58.0280 C   0  0  0  0  0  0  0  0  0  0  0  0
  128.4910  122.9190   59.4670 C   0  0  0  0  0  0  0  0  0  0  0  0
  129.3850  122.6400   60.5000 C   0  0  0  0  0  0  0  0  0  0  0  0
  128.9320  122.5730   61.8220 C   0  0  0  0  0  0  0  0  0  0  0  0
  129.8090  122.2850   62.8740 N   0  0  0  0  0  0  0  0  0  0  0  0
  131.2620  122.4900   62.7120 C   0  0  0  0  0  0  0  0  0  0  0  0
  131.6980  123.9380   63.0380 C   0  0  0  0  0  0  0  0  0  0  0  0
  131.3460  124.2370   64.5090 N   0  0  0  0  0  0  0  0  0  0  0  0
  131.7440  125.6770   64.8850 C   0  0  0  0  0  0  0  0  0  0  0  0
  129.8320  124.0200   64.7090 C   0  0  0  0  0  0  0  0  0  0  0  0
  129.4820  122.5730   64.2870 C   0  0  0  0  0  0  0  0  0  0  0  0
  127.6180  122.7480   62.1310 N   0  0  0  0  0  0  0  0  0  0  0  0
  126.7230  123.0240   61.1440 C   0  0  0  0  0  0  0  0  0  0  0  0
  125.3670  123.2150   61.5020 C   0  0  0  0  0  0  0  0  0  0  0  0
  124.4180  123.5020   60.5250 C   0  0  0  0  0  0  0  0  0  0  0  0
  124.7880  123.6030   59.1880 C   0  0  0  0  0  0  0  0  0  0  0  0
  126.1140  123.4180   58.8040 C   0  0  0  0  0  0  0  0  0  0  0  0
  127.1120  123.1250   59.7730 C   0  0  0  0  0  0  0  0  0  0  0  0
  130.0680  123.1727   58.0202 H   0  0  0  0  0  0  0  0  0  0  0  0
  128.7590  122.0524   57.5121 H   0  0  0  0  0  0  0  0  0  0  0  0
  128.4737  123.8259   57.5121 H   0  0  0  0  0  0  0  0  0  0  0  0
  130.4486  122.4722   60.2751 H   0  0  0  0  0  0  0  0  0  0  0  0
  131.7923  121.8019   63.3867 H   0  0  0  0  0  0  0  0  0  0  0  0
  131.5105  122.2963   61.6581 H   0  0  0  0  0  0  0  0  0  0  0  0
  132.7828  124.0413   62.8880 H   0  0  0  0  0  0  0  0  0  0  0  0
  131.1783  124.6457   62.3754 H   0  0  0  0  0  0  0  0  0  0  0  0
  131.8440  123.5840   65.0960 H   0  0  0  0  0  0  0  0  0  0  0  0
  131.7713  125.7758   65.9802 H   0  0  0  0  0  0  0  0  0  0  0  0
  132.7381  125.9024   64.4716 H   0  0  0  0  0  0  0  0  0  0  0  0
  131.0068  126.3810   64.4716 H   0  0  0  0  0  0  0  0  0  0  0  0
  129.5724  124.1707   65.7673 H   0  0  0  0  0  0  0  0  0  0  0  0
  129.2650  124.7378   64.0980 H   0  0  0  0  0  0  0  0  0  0  0  0
  130.0450  121.8764   64.9255 H   0  0  0  0  0  0  0  0  0  0  0  0
  128.3949  122.4517   64.4031 H   0  0  0  0  0  0  0  0  0  0  0  0
  125.0621  123.1364   62.5560 H   0  0  0  0  0  0  0  0  0  0  0  0
  123.3667  123.6502   60.8127 H   0  0  0  0  0  0  0  0  0  0  0  0
  124.0268  123.8310   58.4273 H   0  0  0  0  0  0  0  0  0  0  0  0
  126.3911  123.4993   57.7426 H   0  0  0  0  0  0  0  0  0  0  0  0
  1  2  1  0
  2  3  2  0
  3  4  1  0
  4  5  1  0
  5  6  1  0
  6  7  1  0
  7  8  1  0
  8  9  1  0
  8 10  1  0
 10 11  1  0
  4 12  2  0
 12 13  1  0
 13 14  2  0
 14 15  1  0
 15 16  2  0
 16 17  1  0
 17 18  2  0
 18  2  1  0
 11  5  1  0
 18 13  1  0
  1 19  1  0
  1 20  1  0
  1 21  1  0
  3 22  1  0
  6 23  1  0
  6 24  1  0
  7 25  1  0
  7 26  1  0
  8 27  1  0
  9 28  1  0
  9 29  1  0
  9 30  1  0
 10 31  1  0
 10 32  1  0
 11 33  1  0
 11 34  1  0
 14 35  1  0
 15 36  1  0
 16 37  1  0
 17 38  1  0
M  CHG  1   8   1
M  END
>  <Binding energies>  (1) 
[-6.69]

>  <Ligand effiencies>  (1) 
[-0.35210526315789475]

>  <Interactions>  (1) 
["H-B:ALA:541:N:9863, V-B:PRO:540:CB:9857, V-B:TYR:539:CD2:9846, V-A:LEU:475:CD1:4257, V-B:PRO:540:CA:9855, V-B:PRO:540:C:9853, V-B:ALA:541:CB:9864, V-B:TYR:539:CE2:9848, V-B:LEU:363:CD1:8160, H-A:TYR:484:OH:4347, V-B:TYR:539:CZ:9849, V-B:LEU:363:CA:8156, V-B:GLU:543:CG:9879, V-B:GLU:543:CD:9880"]

$$$$
RR32_Rahimova_2017-again2
     RDKit          3D

 39 41  0  0  0  0  0  0  0  0999 V2000
  133.2560  126.0120   67.1540 C   0  0  0  0  0  0  0  0  0  0  0  0
  131.8010  126.0370   66.7050 C   0  0  0  0  0  0  0  0  0  0  0  0
  130.8460  126.7250   67.4580 C   0  0  0  0  0  0  0  0  0  0  0  0
  129.5010  126.7550   67.0640 C   0  0  0  0  0  0  0  0  0  0  0  0
  128.4810  127.4620   67.7960 N   0  0  0  0  0  0  0  0  0  0  0  0
  128.7060  128.8540   68.2670 C   0  0  0  0  0  0  0  0  0  0  0  0
  128.3590  129.8750   67.1510 C   0  0  0  0  0  0  0  0  0  0  0  0
  126.8770  129.7060   66.7390 N   0  0  0  0  0  0  0  0  0  0  0  0
  126.5100  130.6650   65.5910 C   0  0  0  0  0  0  0  0  0  0  0  0
  126.5970  128.2360   66.3440 C   0  0  0  0  0  0  0  0  0  0  0  0
  127.0330  127.3030   67.5050 C   0  0  0  0  0  0  0  0  0  0  0  0
  129.1620  126.1070   65.9310 N   0  0  0  0  0  0  0  0  0  0  0  0
  130.0310  125.4070   65.1270 C   0  0  0  0  0  0  0  0  0  0  0  0
  129.5690  124.7610   63.9580 C   0  0  0  0  0  0  0  0  0  0  0  0
  130.4770  124.0640   63.1650 C   0  0  0  0  0  0  0  0  0  0  0  0
  131.8240  124.0010   63.5170 C   0  0  0  0  0  0  0  0  0  0  0  0
  132.2930  124.6340   64.6680 C   0  0  0  0  0  0  0  0  0  0  0  0
  131.4040  125.3590   65.5100 C   0  0  0  0  0  0  0  0  0  0  0  0
  133.3006  126.0112   68.2531 H   0  0  0  0  0  0  0  0  0  0  0  0
  133.7437  125.1053   66.7666 H   0  0  0  0  0  0  0  0  0  0  0  0
  133.7746  126.9014   66.7666 H   0  0  0  0  0  0  0  0  0  0  0  0
  131.1542  127.2509   68.3736 H   0  0  0  0  0  0  0  0  0  0  0  0
  128.0686  129.0461   69.1427 H   0  0  0  0  0  0  0  0  0  0  0  0
  129.7669  128.9694   68.5336 H   0  0  0  0  0  0  0  0  0  0  0  0
  128.5212  130.8965   67.5254 H   0  0  0  0  0  0  0  0  0  0  0  0
  129.0045  129.6973   66.2782 H   0  0  0  0  0  0  0  0  0  0  0  0
  126.3070  129.9220   67.5460 H   0  0  0  0  0  0  0  0  0  0  0  0
  126.1464  131.6152   66.0091 H   0  0  0  0  0  0  0  0  0  0  0  0
  127.3996  130.8533   64.9720 H   0  0  0  0  0  0  0  0  0  0  0  0
  125.7220  130.2113   64.9720 H   0  0  0  0  0  0  0  0  0  0  0  0
  125.5219  128.1054   66.1511 H   0  0  0  0  0  0  0  0  0  0  0  0
  127.1629  127.9837   65.4351 H   0  0  0  0  0  0  0  0  0  0  0  0
  126.4546  127.5546   68.4062 H   0  0  0  0  0  0  0  0  0  0  0  0
  126.8461  126.2605   67.2079 H   0  0  0  0  0  0  0  0  0  0  0  0
  128.1940  126.1450   65.6490 H   0  0  0  0  0  0  0  0  0  0  0  0
  128.5062  124.8082   63.6782 H   0  0  0  0  0  0  0  0  0  0  0  0
  130.1279  123.5586   62.2525 H   0  0  0  0  0  0  0  0  0  0  0  0
  132.5264  123.4448   62.8788 H   0  0  0  0  0  0  0  0  0  0  0  0
  133.3602  124.5722   64.9273 H   0  0  0  0  0  0  0  0  0  0  0  0
  1  2  1  0
  2  3  2  0
  3  4  1  0
  4  5  1  0
  5  6  1  0
  6  7  1  0
  7  8  1  0
  8  9  1  0
  8 10  1  0
 10 11  1  0
  4 12  2  0
 12 13  1  0
 13 14  2  0
 14 15  1  0
 15 16  2  0
 16 17  1  0
 17 18  2  0
 18  2  1  0
 11  5  1  0
 18 13  1  0
  1 19  1  0
  1 20  1  0
  1 21  1  0
  3 22  1  0
  6 23  1  0
  6 24  1  0
  7 25  1  0
  7 26  1  0
  8 27  1  0
  9 28  1  0
  9 29  1  0
  9 30  1  0
 10 31  1  0
 10 32  1  0
 11 33  1  0
 11 34  1  0
 12 35  1  0
 14 36  1  0
 15 37  1  0
 16 38  1  0
 17 39  1  0
M  CHG  2   8   1  12   1
M  END
>  <Binding energies>  (1) 
[-7.1]

>  <Ligand effiencies>  (1) 
[-0.355]

>  <Interactions>  (1) 
["V-A:GLU:543:CG:4907, V-A:GLU:543:CD:4908, H-B:TYR:484:OH:9319, V-B:HIS:456:CE1:9041, V-A:HIS:456:CE1:4069, V-B:GLU:543:CB:9878, V-A:ARG:545:CD:4923, V-B:GLU:543:CG:9879, V-B:GLU:543:CD:9880, H-B:GLU:543:OE2:9882, V-A:ARG:545:CG:4922, V-A:GLU:543:CA:4904, V-A:GLU:543:CB:4906, V-B:TYR:484:CZ:9318, V-B:TYR:484:CE2:9317, H-A:GLU:543:OE1:4909"]

$$$$
RR33_Rahimova_2017
     RDKit          3D

 36 37  0  0  0  0  0  0  0  0999 V2000
  133.2600  118.7050   59.3210 C   0  0  0  0  0  0  0  0  0  0  0  0
  133.5610  119.0100   60.7910 C   0  0  0  0  0  0  0  0  0  0  0  0
  133.2810  120.3860   61.0390 O   0  0  0  0  0  0  0  0  0  0  0  0
  131.9950  120.8580   60.8640 C   0  0  0  0  0  0  0  0  0  0  0  0
  131.8480  121.9670   60.0320 C   0  0  0  0  0  0  0  0  0  0  0  0
  130.5900  122.5160   59.7990 C   0  0  0  0  0  0  0  0  0  0  0  0
  129.4550  121.9600   60.3980 C   0  0  0  0  0  0  0  0  0  0  0  0
  128.1050  122.5510   60.1480 C   0  0  0  0  0  0  0  0  0  0  0  0
  127.6570  123.0880   59.0350 N   0  0  0  0  0  0  0  0  0  0  0  0
  126.4160  123.4640   59.3020 C   0  0  0  0  0  0  0  0  0  0  0  0
  125.5580  124.1230   58.2430 C   0  0  0  0  0  0  0  0  0  0  0  0
  126.1200  123.9060   56.9180 N   0  0  0  0  0  0  0  0  0  0  0  0
  125.4990  122.7580   56.2800 C   0  0  0  0  0  0  0  0  0  0  0  0
  126.1050  123.1450   60.6180 C   0  0  0  0  0  0  0  0  0  0  0  0
  124.8920  123.3010   61.5020 C   0  0  0  0  0  0  0  0  0  0  0  0
  127.1970  122.5570   61.1590 O   0  0  0  0  0  0  0  0  0  0  0  0
  129.5980  120.8450   61.2300 C   0  0  0  0  0  0  0  0  0  0  0  0
  130.8570  120.2970   61.4640 C   0  0  0  0  0  0  0  0  0  0  0  0
  132.4886  117.9233   59.2592 H   0  0  0  0  0  0  0  0  0  0  0  0
  132.8983  119.6172   58.8239 H   0  0  0  0  0  0  0  0  0  0  0  0
  134.1769  118.3554   58.8239 H   0  0  0  0  0  0  0  0  0  0  0  0
  132.9295  118.3816   61.4362 H   0  0  0  0  0  0  0  0  0  0  0  0
  134.6180  118.7974   61.0091 H   0  0  0  0  0  0  0  0  0  0  0  0
  132.7338  122.4122   59.5554 H   0  0  0  0  0  0  0  0  0  0  0  0
  130.4882  123.3913   59.1406 H   0  0  0  0  0  0  0  0  0  0  0  0
  124.5455  123.6947   58.2805 H   0  0  0  0  0  0  0  0  0  0  0  0
  125.5220  125.2047   58.4394 H   0  0  0  0  0  0  0  0  0  0  0  0
  127.1130  123.7380   57.0020 H   0  0  0  0  0  0  0  0  0  0  0  0
  125.1256  122.0677   57.0507 H   0  0  0  0  0  0  0  0  0  0  0  0
  124.6606  123.0959   55.6531 H   0  0  0  0  0  0  0  0  0  0  0  0
  126.2406  122.2412   55.6531 H   0  0  0  0  0  0  0  0  0  0  0  0
  125.1998  123.2614   62.5573 H   0  0  0  0  0  0  0  0  0  0  0  0
  124.4105  124.2685   61.2965 H   0  0  0  0  0  0  0  0  0  0  0  0
  124.1814  122.4868   61.2965 H   0  0  0  0  0  0  0  0  0  0  0  0
  128.7108  120.3981   61.7025 H   0  0  0  0  0  0  0  0  0  0  0  0
  130.9597  119.4212   62.1216 H   0  0  0  0  0  0  0  0  0  0  0  0
  1  2  1  0
  2  3  1  0
  3  4  1  0
  4  5  2  0
  5  6  1  0
  6  7  2  0
  7  8  1  0
  8  9  2  0
  9 10  1  0
 10 11  1  0
 11 12  1  0
 12 13  1  0
 10 14  2  0
 14 15  1  0
 14 16  1  0
  7 17  1  0
 17 18  2  0
 18  4  1  0
 16  8  1  0
  1 19  1  0
  1 20  1  0
  1 21  1  0
  2 22  1  0
  2 23  1  0
  5 24  1  0
  6 25  1  0
 11 26  1  0
 11 27  1  0
 12 28  1  0
 13 29  1  0
 13 30  1  0
 13 31  1  0
 15 32  1  0
 15 33  1  0
 15 34  1  0
 17 35  1  0
 18 36  1  0
M  END
>  <Binding energies>  (1) 
[-5.26]

>  <Ligand effiencies>  (1) 
[-0.2768421052631579]

>  <Interactions>  (1) 
["H-B:ALA:541:N:9863, V-B:PRO:540:CB:9857, H-B:TYR:531:OH:9767, V-B:MET:535:CE:9807, V-A:ILE:369:CG2:3236, V-B:TYR:539:CD2:9846, V-A:LEU:475:CD1:4257, V-B:PRO:540:CA:9855, V-B:PRO:540:C:9853, V-B:ALA:541:CB:9864, V-B:TYR:539:CE2:9848, V-B:TYR:531:CE2:9765, V-B:LEU:363:CD1:8160, V-A:SER:385:CA:3406, V-A:SER:385:C:3404, V-A:SER:385:CB:3408, V-B:GLU:543:CD:9880, V-B:ALA:541:CA:9862, V-A:HIS:383:CD2:3391, V-B:ASN:362:CB:8147"]

$$$$
RR33_Rahimova_2017-again1
     RDKit          3D

 37 38  0  0  0  0  0  0  0  0999 V2000
  126.0580  129.8480   56.6320 C   0  0  0  0  0  0  0  0  0  0  0  0
  124.6590  129.6370   57.2180 C   0  0  0  0  0  0  0  0  0  0  0  0
  124.4240  130.6290   58.2130 O   0  0  0  0  0  0  0  0  0  0  0  0
  124.6390  130.3200   59.5430 C   0  0  0  0  0  0  0  0  0  0  0  0
  123.9170  131.0610   60.4780 C   0  0  0  0  0  0  0  0  0  0  0  0
  124.0660  130.8220   61.8420 C   0  0  0  0  0  0  0  0  0  0  0  0
  124.9470  129.8320   62.2910 C   0  0  0  0  0  0  0  0  0  0  0  0
  125.1100  129.5710   63.7540 C   0  0  0  0  0  0  0  0  0  0  0  0
  126.2000  129.1930   64.3850 N   0  0  0  0  0  0  0  0  0  0  0  0
  125.8530  129.0950   65.6600 C   0  0  0  0  0  0  0  0  0  0  0  0
  126.8540  128.6640   66.7140 C   0  0  0  0  0  0  0  0  0  0  0  0
  127.9620  127.8330   66.0470 N   0  0  0  0  0  0  0  0  0  0  0  0
  128.6460  126.8440   67.0000 C   0  0  0  0  0  0  0  0  0  0  0  0
  124.5080  129.4170   65.8000 C   0  0  0  0  0  0  0  0  0  0  0  0
  123.5350  129.4910   66.9510 C   0  0  0  0  0  0  0  0  0  0  0  0
  124.0360  129.7250   64.5690 O   0  0  0  0  0  0  0  0  0  0  0  0
  125.6740  129.0870   61.3550 C   0  0  0  0  0  0  0  0  0  0  0  0
  125.5220  129.3270   59.9930 C   0  0  0  0  0  0  0  0  0  0  0  0
  126.7854  129.9577   57.4498 H   0  0  0  0  0  0  0  0  0  0  0  0
  126.3307  128.9808   56.0126 H   0  0  0  0  0  0  0  0  0  0  0  0
  126.0628  130.7570   56.0126 H   0  0  0  0  0  0  0  0  0  0  0  0
  123.9066  129.7275   56.4207 H   0  0  0  0  0  0  0  0  0  0  0  0
  124.5883  128.6346   57.6654 H   0  0  0  0  0  0  0  0  0  0  0  0
  123.2228  131.8422   60.1348 H   0  0  0  0  0  0  0  0  0  0  0  0
  123.4893  131.4133   62.5685 H   0  0  0  0  0  0  0  0  0  0  0  0
  127.2954  129.5531   67.1880 H   0  0  0  0  0  0  0  0  0  0  0  0
  126.3474  128.0585   67.4799 H   0  0  0  0  0  0  0  0  0  0  0  0
  127.5640  127.3220   65.2720 H   0  0  0  0  0  0  0  0  0  0  0  0
  128.6590  128.4650   65.6770 H   0  0  0  0  0  0  0  0  0  0  0  0
  128.4430  127.1374   68.0405 H   0  0  0  0  0  0  0  0  0  0  0  0
  128.2540  125.8319   66.8213 H   0  0  0  0  0  0  0  0  0  0  0  0
  129.7314  126.8536   66.8213 H   0  0  0  0  0  0  0  0  0  0  0  0
  124.0874  129.4490   67.9013 H   0  0  0  0  0  0  0  0  0  0  0  0
  122.9723  130.4345   66.8954 H   0  0  0  0  0  0  0  0  0  0  0  0
  122.8361  128.6434   66.8954 H   0  0  0  0  0  0  0  0  0  0  0  0
  126.3696  128.3071   61.6984 H   0  0  0  0  0  0  0  0  0  0  0  0
  126.0970  128.7353   59.2655 H   0  0  0  0  0  0  0  0  0  0  0  0
  1  2  1  0
  2  3  1  0
  3  4  1  0
  4  5  2  0
  5  6  1  0
  6  7  2  0
  7  8  1  0
  8  9  2  0
  9 10  1  0
 10 11  1  0
 11 12  1  0
 12 13  1  0
 10 14  2  0
 14 15  1  0
 14 16  1  0
  7 17  1  0
 17 18  2  0
 18  4  1  0
 16  8  1  0
  1 19  1  0
  1 20  1  0
  1 21  1  0
  2 22  1  0
  2 23  1  0
  5 24  1  0
  6 25  1  0
 11 26  1  0
 11 27  1  0
 12 28  1  0
 12 29  1  0
 13 30  1  0
 13 31  1  0
 13 32  1  0
 15 33  1  0
 15 34  1  0
 15 35  1  0
 17 36  1  0
 18 37  1  0
M  CHG  1  12   1
M  END
>  <Binding energies>  (1) 
[-6.64]

>  <Ligand effiencies>  (1) 
[-0.33199999999999996]

>  <Interactions>  (1) 
["V-B:TYR:531:CZ:9766, V-A:TYR:539:CZ:4877, V-A:TYR:539:CE1:4875, V-B:ASP:366:CG:8184, V-B:TYR:531:CE1:9764, H-B:GLY:454:N:9021, V-B:ASP:366:CB:8183, H-B:ARG:545:NH1:9899, V-B:ARG:545:CZ:9898, V-B:GLY:453:C:9013, V-B:ASP:366:CA:8181, V-B:ILE:369:CD1:8210, V-B:GLY:454:CA:9020, V-A:GLU:543:CD:4908, H-B:ARG:545:NH2:9900, V-B:ASP:366:C:8179, H-A:TYR:539:OH:4878, V-B:HIS:456:CE1:9041, V-B:GLU:543:CB:9878, V-B:GLU:543:CD:9880, H-B:GLU:543:OE2:9882, V-B:ILE:369:CG2:8208, V-B:ARG:545:CG:9894, H-A:GLU:543:OE1:4909, V-B:ILE:369:CB:8207, V-B:ARG:545:CD:9895, V-B:GLY:454:C:9018, V-B:ILE:455:C:9023"]

$$$$
RR3_Rahimova_2017
     RDKit          3D

 63 69  0  0  0  0  0  0  0  0999 V2000
  133.7140  122.8640   62.3180 C   0  0  0  0  0  0  0  0  0  0  0  0
  132.6400  122.3310   63.0230 C   0  0  0  0  0  0  0  0  0  0  0  0
  131.9770  123.1120   63.9650 C   0  0  0  0  0  0  0  0  0  0  0  0
  132.3770  124.4330   64.2150 C   0  0  0  0  0  0  0  0  0  0  0  0
  131.6620  125.2720   65.2280 C   0  0  0  0  0  0  0  0  0  0  0  0
  130.2620  125.2950   65.2860 C   0  0  0  0  0  0  0  0  0  0  0  0
  129.5980  126.0780   66.2260 C   0  0  0  0  0  0  0  0  0  0  0  0
  130.3210  126.8650   67.1270 C   0  0  0  0  0  0  0  0  0  0  0  0
  129.6140  127.7130   68.1360 C   0  0  0  0  0  0  0  0  0  0  0  0
  129.8870  127.5750   69.4290 N   0  0  0  0  0  0  0  0  0  0  0  0
  129.1620  128.4650   70.0620 C   0  0  0  0  0  0  0  0  0  0  0  0
  129.1490  128.6660   71.5090 C   0  0  0  0  0  0  0  0  0  0  0  0
  129.7320  127.8320   72.4470 C   0  0  0  0  0  0  0  0  0  0  0  0
  129.5350  128.3280   73.7090 N   0  0  0  0  0  0  0  0  0  0  0  0
  128.8150  129.5010   73.6440 C   0  0  0  0  0  0  0  0  0  0  0  0
  128.3760  130.3600   74.6570 C   0  0  0  0  0  0  0  0  0  0  0  0
  127.6560  131.4880   74.2620 C   0  0  0  0  0  0  0  0  0  0  0  0
  127.3820  131.7520   72.9250 C   0  0  0  0  0  0  0  0  0  0  0  0
  127.8200  130.8970   71.9160 C   0  0  0  0  0  0  0  0  0  0  0  0
  128.5510  129.7450   72.2590 C   0  0  0  0  0  0  0  0  0  0  0  0
  128.4010  129.1890   69.1860 N   0  0  0  0  0  0  0  0  0  0  0  0
  128.6490  128.7130   67.9240 C   0  0  0  0  0  0  0  0  0  0  0  0
  127.9470  129.2280   66.7110 C   0  0  0  0  0  0  0  0  0  0  0  0
  127.9960  130.5870   66.3970 C   0  0  0  0  0  0  0  0  0  0  0  0
  127.3330  131.0720   65.2750 C   0  0  0  0  0  0  0  0  0  0  0  0
  126.6090  130.2110   64.4370 C   0  0  0  0  0  0  0  0  0  0  0  0
  125.8810  130.7390   63.2410 C   0  0  0  0  0  0  0  0  0  0  0  0
  126.4620  131.7160   62.4180 C   0  0  0  0  0  0  0  0  0  0  0  0
  125.7850  132.2040   61.3020 C   0  0  0  0  0  0  0  0  0  0  0  0
  124.5170  131.7190   60.9980 C   0  0  0  0  0  0  0  0  0  0  0  0
  123.9230  130.7510   61.8000 C   0  0  0  0  0  0  0  0  0  0  0  0
  124.6010  130.2660   62.9140 C   0  0  0  0  0  0  0  0  0  0  0  0
  126.5830  128.8460   64.7530 C   0  0  0  0  0  0  0  0  0  0  0  0
  127.2450  128.3570   65.8750 C   0  0  0  0  0  0  0  0  0  0  0  0
  131.7170  126.8380   67.0850 C   0  0  0  0  0  0  0  0  0  0  0  0
  132.3780  126.0550   66.1440 C   0  0  0  0  0  0  0  0  0  0  0  0
  133.4640  124.9490   63.4940 C   0  0  0  0  0  0  0  0  0  0  0  0
  134.1290  124.1720   62.5500 C   0  0  0  0  0  0  0  0  0  0  0  0
  134.2385  122.2481   61.5727 H   0  0  0  0  0  0  0  0  0  0  0  0
  132.3160  121.2964   62.8368 H   0  0  0  0  0  0  0  0  0  0  0  0
  131.1279  122.6877   64.5209 H   0  0  0  0  0  0  0  0  0  0  0  0
  129.6798  124.6859   64.5789 H   0  0  0  0  0  0  0  0  0  0  0  0
  128.4985  126.0774   66.2600 H   0  0  0  0  0  0  0  0  0  0  0  0
  130.2753  126.9045   72.2131 H   0  0  0  0  0  0  0  0  0  0  0  0
  129.8860  127.8660   74.5350 H   0  0  0  0  0  0  0  0  0  0  0  0
  128.5887  130.1555   75.7167 H   0  0  0  0  0  0  0  0  0  0  0  0
  127.2951  132.1879   75.0300 H   0  0  0  0  0  0  0  0  0  0  0  0
  126.8089  132.6524   72.6588 H   0  0  0  0  0  0  0  0  0  0  0  0
  127.5966  131.1203   70.8623 H   0  0  0  0  0  0  0  0  0  0  0  0
  127.7500  129.9230   69.4280 H   0  0  0  0  0  0  0  0  0  0  0  0
  128.5616  131.2775   67.0399 H   0  0  0  0  0  0  0  0  0  0  0  0
  127.3769  132.1460   65.0413 H   0  0  0  0  0  0  0  0  0  0  0  0
  127.4642  132.1014   62.6568 H   0  0  0  0  0  0  0  0  0  0  0  0
  126.2512  132.9694   60.6642 H   0  0  0  0  0  0  0  0  0  0  0  0
  123.9811  132.1037   60.1178 H   0  0  0  0  0  0  0  0  0  0  0  0
  122.9207  130.3700   61.5547 H   0  0  0  0  0  0  0  0  0  0  0  0
  124.1271  129.5013   63.5470 H   0  0  0  0  0  0  0  0  0  0  0  0
  126.0307  128.1504   64.1041 H   0  0  0  0  0  0  0  0  0  0  0  0
  127.2153  127.2815   66.1041 H   0  0  0  0  0  0  0  0  0  0  0  0
  132.2972  127.4395   67.8003 H   0  0  0  0  0  0  0  0  0  0  0  0
  133.4777  126.0503   66.1185 H   0  0  0  0  0  0  0  0  0  0  0  0
  133.7953  125.9818   63.6772 H   0  0  0  0  0  0  0  0  0  0  0  0
  134.9786  124.5898   61.9899 H   0  0  0  0  0  0  0  0  0  0  0  0
  1  2  2  0
  2  3  1  0
  3  4  2  0
  4  5  1  0
  5  6  2  0
  6  7  1  0
  7  8  2  0
  8  9  1  0
  9 10  1  0
 10 11  2  0
 11 12  1  0
 12 13  2  0
 13 14  1  0
 14 15  1  0
 15 16  2  0
 16 17  1  0
 17 18  2  0
 18 19  1  0
 19 20  2  0
 11 21  1  0
 21 22  1  0
 22 23  1  0
 23 24  2  0
 24 25  1  0
 25 26  2  0
 26 27  1  0
 27 28  2  0
 28 29  1  0
 29 30  2  0
 30 31  1  0
 31 32  2  0
 26 33  1  0
 33 34  2  0
  8 35  1  0
 35 36  2  0
  4 37  1  0
 37 38  2  0
 38  1  1  0
 36  5  1  0
 22  9  2  0
 34 23  1  0
 20 12  1  0
 32 27  1  0
 20 15  1  0
  1 39  1  0
  2 40  1  0
  3 41  1  0
  6 42  1  0
  7 43  1  0
 13 44  1  0
 14 45  1  0
 16 46  1  0
 17 47  1  0
 18 48  1  0
 19 49  1  0
 21 50  1  0
 24 51  1  0
 25 52  1  0
 28 53  1  0
 29 54  1  0
 30 55  1  0
 31 56  1  0
 32 57  1  0
 33 58  1  0
 34 59  1  0
 35 60  1  0
 36 61  1  0
 37 62  1  0
 38 63  1  0
M  END
>  <Binding energies>  (1) 
[-9.67]

>  <Ligand effiencies>  (1) 
[-0.24175]

>  <Interactions>  (1) 
["V-A:LEU:475:CD1:4257, V-B:ASP:366:CG:8184, V-B:ILE:369:CD1:8210, V-A:GLU:543:CG:4907, V-A:GLU:543:CD:4908, H-B:TYR:484:OH:9319, V-A:GLU:543:C:4902, V-B:HIS:456:CE1:9041, V-A:HIS:456:CE1:4069, V-B:GLU:543:CG:9879, V-B:GLU:543:CD:9880, V-A:ARG:545:CG:4922, V-A:ARG:545:CZ:4926, V-A:GLU:543:CB:4906, V-B:TYR:484:CZ:9318, V-B:ILE:369:CG2:8208, V-B:TYR:484:CE2:9317, V-A:GLY:454:CA:4048, V-A:GLY:453:CA:4043, V-A:GLY:453:C:4041, V-B:HIS:456:CD2:9039, H-A:GLU:543:O:4903, H-B:HIS:456:NE2:9042, V-B:TYR:484:CD1:9314, V-B:HIS:456:CG:9037, V-B:TYR:484:CB:9312, V-B:TYR:484:CG:9313, V-B:TYR:484:CD2:9315"]

$$$$
RR4_Rahimova_2017
     RDKit          3D

 66 70  0  0  0  0  0  0  0  0999 V2000
  131.7260  131.7410   55.4080 C   0  0  0  0  0  0  0  0  0  0  0  0
  131.9730  132.0620   56.7720 O   0  0  0  0  0  0  0  0  0  0  0  0
  131.0210  131.7450   57.7230 C   0  0  0  0  0  0  0  0  0  0  0  0
  129.7150  132.1500   57.4590 C   0  0  0  0  0  0  0  0  0  0  0  0
  128.6910  131.8730   58.3590 C   0  0  0  0  0  0  0  0  0  0  0  0
  128.9430  131.1830   59.5540 C   0  0  0  0  0  0  0  0  0  0  0  0
  127.8350  130.8870   60.5230 C   0  0  0  0  0  0  0  0  0  0  0  0
  128.0680  130.5660   61.8650 C   0  0  0  0  0  0  0  0  0  0  0  0
  127.0000  130.3020   62.7320 C   0  0  0  0  0  0  0  0  0  0  0  0
  127.3240  129.9950   64.1570 C   0  0  0  0  0  0  0  0  0  0  0  0
  127.3050  128.6730   64.6120 C   0  0  0  0  0  0  0  0  0  0  0  0
  127.6170  128.3770   65.9370 C   0  0  0  0  0  0  0  0  0  0  0  0
  127.9600  129.3930   66.8280 C   0  0  0  0  0  0  0  0  0  0  0  0
  128.2550  129.0040   68.1210 O   0  0  0  0  0  0  0  0  0  0  0  0
  129.1580  127.9240   68.3330 C   0  0  0  0  0  0  0  0  0  0  0  0
  127.9850  130.7200   66.3750 C   0  0  0  0  0  0  0  0  0  0  0  0
  127.6730  131.0140   65.0500 C   0  0  0  0  0  0  0  0  0  0  0  0
  125.6830  130.3380   62.2100 C   0  0  0  0  0  0  0  0  0  0  0  0
  124.5290  130.0700   63.0740 C   0  0  0  0  0  0  0  0  0  0  0  0
  123.6180  129.8590   63.7550 N   0  0  0  0  0  0  0  0  0  0  0  0
  125.5220  130.6400   60.8390 C   0  0  0  0  0  0  0  0  0  0  0  0
  123.9470  130.7170   60.0130 S   0  0  0  0  0  0  0  0  0  0  0  0
  124.2600  130.7160   58.2160 C   0  0  0  0  0  0  0  0  0  0  0  0
  125.0950  129.5300   57.7160 C   0  0  0  0  0  0  0  0  0  0  0  0
  124.5470  128.4860   57.3530 O   0  0  0  0  0  0  0  0  0  0  0  0
  126.4330  129.7340   57.7270 N   0  0  0  0  0  0  0  0  0  0  0  0
  127.4490  128.8600   57.3350 C   0  0  0  0  0  0  0  0  0  0  0  0
  128.1890  127.7150   58.4230 S   0  0  0  0  0  0  0  0  0  0  0  0
  129.2450  127.1270   57.1760 C   0  0  0  0  0  0  0  0  0  0  0  0
  129.0330  127.7980   55.9620 C   0  0  0  0  0  0  0  0  0  0  0  0
  128.0050  128.7680   56.0500 C   0  0  0  0  0  0  0  0  0  0  0  0
  127.5760  129.5890   54.9220 C   0  0  0  0  0  0  0  0  0  0  0  0
  127.2370  130.2410   54.0280 N   0  0  0  0  0  0  0  0  0  0  0  0
  129.8180  127.4330   54.6960 C   0  0  0  0  0  0  0  0  0  0  0  0
  130.4990  126.0550   54.8550 C   0  0  0  0  0  0  0  0  0  0  0  0
  131.2090  125.9120   56.2130 C   0  0  0  0  0  0  0  0  0  0  0  0
  130.2170  125.9750   57.3940 C   0  0  0  0  0  0  0  0  0  0  0  0
  126.5710  130.9230   60.0310 N   0  0  0  0  0  0  0  0  0  0  0  0
  130.2620  130.7750   59.8090 C   0  0  0  0  0  0  0  0  0  0  0  0
  131.2890  131.0510   58.9110 C   0  0  0  0  0  0  0  0  0  0  0  0
  131.0561  130.8704   55.3517 H   0  0  0  0  0  0  0  0  0  0  0  0
  131.2537  132.6000   54.9089 H   0  0  0  0  0  0  0  0  0  0  0  0
  132.6773  131.5045   54.9089 H   0  0  0  0  0  0  0  0  0  0  0  0
  129.4909  132.6943   56.5297 H   0  0  0  0  0  0  0  0  0  0  0  0
  127.6663  132.2006   58.1296 H   0  0  0  0  0  0  0  0  0  0  0  0
  129.1001  130.5205   62.2428 H   0  0  0  0  0  0  0  0  0  0  0  0
  127.0417  127.8607   63.9186 H   0  0  0  0  0  0  0  0  0  0  0  0
  127.5925  127.3332   66.2831 H   0  0  0  0  0  0  0  0  0  0  0  0
  129.2915  127.7643   69.4131 H   0  0  0  0  0  0  0  0  0  0  0  0
  128.7511  127.0105   67.8748 H   0  0  0  0  0  0  0  0  0  0  0  0
  130.1291  128.1627   67.8748 H   0  0  0  0  0  0  0  0  0  0  0  0
  128.2519  131.5311   67.0684 H   0  0  0  0  0  0  0  0  0  0  0  0
  127.7012  132.0572   64.7022 H   0  0  0  0  0  0  0  0  0  0  0  0
  123.2897  130.6954   57.6983 H   0  0  0  0  0  0  0  0  0  0  0  0
  124.8439  131.6228   57.9998 H   0  0  0  0  0  0  0  0  0  0  0  0
  126.7500  130.6370   58.0490 H   0  0  0  0  0  0  0  0  0  0  0  0
  129.1276  127.3982   53.8403 H   0  0  0  0  0  0  0  0  0  0  0  0
  130.5942  128.1943   54.5289 H   0  0  0  0  0  0  0  0  0  0  0  0
  129.7336  125.2695   54.7707 H   0  0  0  0  0  0  0  0  0  0  0  0
  131.2582  125.9597   54.0647 H   0  0  0  0  0  0  0  0  0  0  0  0
  131.7322  124.9448   56.2400 H   0  0  0  0  0  0  0  0  0  0  0  0
  131.9147  126.7494   56.3171 H   0  0  0  0  0  0  0  0  0  0  0  0
  129.6581  125.0295   57.4549 H   0  0  0  0  0  0  0  0  0  0  0  0
  130.7706  126.1332   58.3313 H   0  0  0  0  0  0  0  0  0  0  0  0
  130.4879  130.2271   60.7357 H   0  0  0  0  0  0  0  0  0  0  0  0
  132.3150  130.7232   59.1345 H   0  0  0  0  0  0  0  0  0  0  0  0
  1  2  1  0
  2  3  1  0
  3  4  2  0
  4  5  1  0
  5  6  2  0
  6  7  1  0
  7  8  2  0
  8  9  1  0
  9 10  1  0
 10 11  2  0
 11 12  1  0
 12 13  2  0
 13 14  1  0
 14 15  1  0
 13 16  1  0
 16 17  2  0
  9 18  2  0
 18 19  1  0
 19 20  3  0
 18 21  1  0
 21 22  1  0
 22 23  1  0
 23 24  1  0
 24 25  2  0
 24 26  1  0
 26 27  1  0
 27 28  1  0
 28 29  1  0
 29 30  2  0
 30 31  1  0
 31 32  1  0
 32 33  3  0
 30 34  1  0
 34 35  1  0
 35 36  1  0
 36 37  1  0
 21 38  2  0
  6 39  1  0
 39 40  2  0
 40  3  1  0
 38  7  1  0
 17 10  1  0
 31 27  2  0
 37 29  1  0
  1 41  1  0
  1 42  1  0
  1 43  1  0
  4 44  1  0
  5 45  1  0
  8 46  1  0
 11 47  1  0
 12 48  1  0
 15 49  1  0
 15 50  1  0
 15 51  1  0
 16 52  1  0
 17 53  1  0
 23 54  1  0
 23 55  1  0
 26 56  1  0
 34 57  1  0
 34 58  1  0
 35 59  1  0
 35 60  1  0
 36 61  1  0
 36 62  1  0
 37 63  1  0
 37 64  1  0
 39 65  1  0
 40 66  1  0
M  END
>  <Binding energies>  (1) 
[-10.14]

>  <Ligand effiencies>  (1) 
[-0.24731707317073173]

>  <Interactions>  (1) 
["H-B:TYR:531:OH:9767, V-B:MET:535:CE:9807, V-B:TYR:531:CZ:9766, V-A:PRO:540:N:4884, V-A:ILE:538:CG2:4863, V-A:TYR:539:CD1:4873, V-A:PRO:540:CA:4883, V-A:TYR:539:CZ:4877, V-A:PRO:540:CB:4885, V-A:TYR:539:CE1:4875, V-A:TYR:531:CZ:4794, V-A:ILE:538:CB:4862, V-B:TYR:531:CE1:9764, H-B:LYS:534:NZ:9795, H-B:GLY:454:N:9021, V-B:ASP:366:CB:8183, H-B:ARG:545:NH1:9899, V-B:ASP:366:CA:8181, V-A:TYR:539:C:4867, V-A:LEU:363:CD1:3188, V-A:GLU:543:CG:4907, V-A:GLU:543:CD:4908, H-B:ARG:545:NH2:9900, V-B:ASP:366:C:8179, H-A:TYR:539:OH:4878, V-B:HIS:456:CE1:9041, V-A:GLU:543:CB:4906, V-A:TYR:531:CE2:4793, V-B:TYR:484:CZ:9318, V-B:ILE:369:CG2:8208, V-B:TYR:484:CE2:9317"]

$$$$
RR5_Rahimova_2017
     RDKit          3D

 77 82  0  0  0  0  0  0  0  0999 V2000
  127.9830  131.6760   58.6820 O   0  0  0  0  0  0  0  0  0  0  0  0
  127.8470  130.5440   59.1430 C   0  0  0  0  0  0  0  0  0  0  0  0
  126.7040  130.2560   60.1350 C   0  0  0  0  0  0  0  0  0  0  0  0
  125.6490  129.2180   59.6100 C   0  0  2  0  0  0  0  0  0  0  0  0
  126.0180  127.8020   59.8030 N   0  0  0  0  0  0  0  0  0  0  0  0
  127.0540  127.4290   60.6490 C   0  0  0  0  0  0  0  0  0  0  0  0
  127.7370  128.1780   61.3520 O   0  0  0  0  0  0  0  0  0  0  0  0
  127.2080  126.0960   60.5680 O   0  0  0  0  0  0  0  0  0  0  0  0
  126.8260  125.2370   61.6390 C   0  0  0  0  0  0  0  0  0  0  0  0
  126.7370  123.7710   61.1620 C   0  0  0  0  0  0  0  0  0  0  0  0
  126.3240  123.6270   59.7080 C   0  0  0  0  0  0  0  0  0  0  0  0
  125.1710  124.0820   59.0620 C   0  0  0  0  0  0  0  0  0  0  0  0
  125.0050  123.8550   57.6950 C   0  0  0  0  0  0  0  0  0  0  0  0
  125.9860  123.1740   56.9730 C   0  0  0  0  0  0  0  0  0  0  0  0
  127.1380  122.7160   57.6160 C   0  0  0  0  0  0  0  0  0  0  0  0
  127.3010  122.9430   58.9840 C   0  0  0  0  0  0  0  0  0  0  0  0
  128.3890  122.5720   59.9040 C   0  0  0  0  0  0  0  0  0  0  0  0
  129.5790  121.8750   59.6860 C   0  0  0  0  0  0  0  0  0  0  0  0
  130.4430  121.6340   60.7550 C   0  0  0  0  0  0  0  0  0  0  0  0
  130.1190  122.0900   62.0350 C   0  0  0  0  0  0  0  0  0  0  0  0
  128.9310  122.7900   62.2470 C   0  0  0  0  0  0  0  0  0  0  0  0
  128.0650  123.0360   61.1790 C   0  0  0  0  0  0  0  0  0  0  0  0
  125.3220  129.4740   58.1180 C   0  0  0  0  0  0  0  0  0  0  0  0
  125.0410  130.5570   57.6470 O   0  0  0  0  0  0  0  0  0  0  0  0
  125.4180  128.3040   57.4200 O   0  0  0  0  0  0  0  0  0  0  0  0
  128.6200  129.4830   58.8220 N   0  0  0  0  0  0  0  0  0  0  0  0
  129.8020  129.3060   57.9260 C   0  0  0  0  0  0  0  0  0  0  0  0
  129.3910  130.1490   56.6720 C   0  0  0  0  0  0  0  0  0  0  0  0
  129.9670  131.4030   56.4100 C   0  0  0  0  0  0  0  0  0  0  0  0
  129.5950  132.1430   55.2910 C   0  0  0  0  0  0  0  0  0  0  0  0
  128.6310  131.6460   54.4200 C   0  0  0  0  0  0  0  0  0  0  0  0
  128.0440  130.4070   54.6540 C   0  0  0  0  0  0  0  0  0  0  0  0
  128.4250  129.6640   55.7670 C   0  0  0  0  0  0  0  0  0  0  0  0
  131.0450  129.9010   58.6690 C   0  0  0  0  0  0  0  0  0  0  0  0
  130.9830  130.2880   60.0170 C   0  0  0  0  0  0  0  0  0  0  0  0
  132.0960  130.8340   60.6530 C   0  0  0  0  0  0  0  0  0  0  0  0
  133.2830  131.0010   59.9490 C   0  0  0  0  0  0  0  0  0  0  0  0
  133.3700  130.6220   58.6140 C   0  0  0  0  0  0  0  0  0  0  0  0
  132.2610  130.0690   57.9830 C   0  0  0  0  0  0  0  0  0  0  0  0
  129.8940  127.7720   57.6250 C   0  0  0  0  0  0  0  0  0  0  0  0
  128.7530  126.9520   57.6890 C   0  0  0  0  0  0  0  0  0  0  0  0
  128.8300  125.5860   57.4300 C   0  0  0  0  0  0  0  0  0  0  0  0
  130.0530  125.0160   57.0950 C   0  0  0  0  0  0  0  0  0  0  0  0
  131.1950  125.8030   57.0100 C   0  0  0  0  0  0  0  0  0  0  0  0
  131.1140  127.1680   57.2690 C   0  0  0  0  0  0  0  0  0  0  0  0
  127.1430  129.8632   61.0640 H   0  0  0  0  0  0  0  0  0  0  0  0
  126.1684  131.2046   60.2876 H   0  0  0  0  0  0  0  0  0  0  0  0
  124.7587  129.3847   60.2342 H   0  0  0  0  0  0  0  0  0  0  0  0
  125.6220  127.1150   59.1780 H   0  0  0  0  0  0  0  0  0  0  0  0
  127.5728  125.3097   62.4434 H   0  0  0  0  0  0  0  0  0  0  0  0
  125.8368  125.5490   62.0052 H   0  0  0  0  0  0  0  0  0  0  0  0
  126.0030  123.3595   61.8705 H   0  0  0  0  0  0  0  0  0  0  0  0
  124.3961  124.6178   59.6298 H   0  0  0  0  0  0  0  0  0  0  0  0
  124.0986  124.2138   57.1854 H   0  0  0  0  0  0  0  0  0  0  0  0
  125.8517  122.9976   55.8956 H   0  0  0  0  0  0  0  0  0  0  0  0
  127.9124  122.1796   57.0481 H   0  0  0  0  0  0  0  0  0  0  0  0
  129.8340  121.5179   58.6773 H   0  0  0  0  0  0  0  0  0  0  0  0
  131.3810  121.0839   60.5894 H   0  0  0  0  0  0  0  0  0  0  0  0
  130.8009  121.8970   62.8763 H   0  0  0  0  0  0  0  0  0  0  0  0
  128.6762  123.1483   63.2553 H   0  0  0  0  0  0  0  0  0  0  0  0
  126.1110  128.3320   56.7570 H   0  0  0  0  0  0  0  0  0  0  0  0
  128.4300  128.6550   59.3680 H   0  0  0  0  0  0  0  0  0  0  0  0
  130.7234  131.8064   57.0993 H   0  0  0  0  0  0  0  0  0  0  0  0
  130.0627  133.1193   55.0959 H   0  0  0  0  0  0  0  0  0  0  0  0
  128.3313  132.2361   53.5414 H   0  0  0  0  0  0  0  0  0  0  0  0
  127.2826  130.0165   53.9628 H   0  0  0  0  0  0  0  0  0  0  0  0
  127.9644  128.6809   55.9439 H   0  0  0  0  0  0  0  0  0  0  0  0
  130.0453  130.1588   60.5774 H   0  0  0  0  0  0  0  0  0  0  0  0
  132.0355  131.1323   61.7101 H   0  0  0  0  0  0  0  0  0  0  0  0
  134.1595  131.4360   60.4515 H   0  0  0  0  0  0  0  0  0  0  0  0
  134.3106  130.7588   58.0603 H   0  0  0  0  0  0  0  0  0  0  0  0
  132.3362  129.7580   56.9305 H   0  0  0  0  0  0  0  0  0  0  0  0
  127.7816  127.3982   57.9485 H   0  0  0  0  0  0  0  0  0  0  0  0
  127.9271  124.9606   57.4902 H   0  0  0  0  0  0  0  0  0  0  0  0
  130.1170  123.9360   56.8961 H   0  0  0  0  0  0  0  0  0  0  0  0
  132.1595  125.3488   56.7390 H   0  0  0  0  0  0  0  0  0  0  0  0
  132.0207  127.7863   57.1940 H   0  0  0  0  0  0  0  0  0  0  0  0
  1  2  2  0
  2  3  1  0
  3  4  1  0
  4  5  1  0
  5  6  1  0
  6  7  2  0
  6  8  1  0
  8  9  1  0
  9 10  1  0
 10 11  1  0
 11 12  2  0
 12 13  1  0
 13 14  2  0
 14 15  1  0
 15 16  2  0
 16 17  1  0
 17 18  2  0
 18 19  1  0
 19 20  2  0
 20 21  1  0
 21 22  2  0
  4 23  1  0
 23 24  2  0
 23 25  1  0
  2 26  1  0
 26 27  1  0
 27 28  1  0
 28 29  2  0
 29 30  1  0
 30 31  2  0
 31 32  1  0
 32 33  2  0
 27 34  1  0
 34 35  2  0
 35 36  1  0
 36 37  2  0
 37 38  1  0
 38 39  2  0
 27 40  1  0
 40 41  2  0
 41 42  1  0
 42 43  2  0
 43 44  1  0
 44 45  2  0
 22 10  1  0
 33 28  1  0
 39 34  1  0
 45 40  1  0
 16 11  1  0
 22 17  1  0
  3 46  1  0
  3 47  1  0
  4 48  1  1
  5 49  1  0
  9 50  1  0
  9 51  1  0
 10 52  1  0
 12 53  1  0
 13 54  1  0
 14 55  1  0
 15 56  1  0
 18 57  1  0
 19 58  1  0
 20 59  1  0
 21 60  1  0
 25 61  1  0
 26 62  1  0
 29 63  1  0
 30 64  1  0
 31 65  1  0
 32 66  1  0
 33 67  1  0
 35 68  1  0
 36 69  1  0
 37 70  1  0
 38 71  1  0
 39 72  1  0
 41 73  1  0
 42 74  1  0
 43 75  1  0
 44 76  1  0
 45 77  1  0
M  END
>  <Binding energies>  (1) 
[-10.12]

>  <Ligand effiencies>  (1) 
[-0.21083333333333332]

>  <Interactions>  (1) 
["V-B:PRO:540:CB:9857, H-B:TYR:531:OH:9767, V-B:MET:535:CE:9807, V-B:TYR:539:CD2:9846, V-B:PRO:540:N:9856, V-B:PRO:540:CA:9855, V-B:ALA:541:CB:9864, V-B:TYR:539:CE2:9848, V-B:TYR:539:C:9839, V-B:TYR:531:CE2:9765, V-B:LEU:363:CD1:8160, V-A:ASP:366:CG:3212, V-A:ILE:538:CA:4860, V-A:ASP:366:CB:3211, V-A:ILE:538:CG2:4863, V-A:TYR:539:CE2:4876, V-A:PRO:540:CA:4883, V-A:TYR:539:CZ:4877, V-A:PRO:540:CB:4885, V-A:TYR:539:CE1:4875, V-A:ILE:538:CB:4862, V-B:ASP:366:CG:8184, V-B:ASP:366:CB:8183, V-A:LEU:363:CD1:3188, V-B:TYR:539:CZ:9849, H-A:TYR:539:OH:4878, V-B:GLU:543:CD:9880, V-A:ILE:538:C:4858, V-A:LEU:363:CA:3184, H-B:ASP:366:OD1:8185, V-A:ASN:362:C:3171"]

$$$$
RR5_Rahimova_2017-again1
     RDKit          3D

 76 81  0  0  0  0  0  0  0  0999 V2000
  127.8490  122.4130   61.8650 O   0  0  0  0  0  0  0  0  0  0  0  0
  128.2400  122.6940   60.7320 C   0  0  0  0  0  0  0  0  0  0  0  0
  127.2070  123.1440   59.6790 C   0  0  0  0  0  0  0  0  0  0  0  0
  127.7600  123.5010   58.2600 C   0  0  2  0  0  0  0  0  0  0  0  0
  127.9350  124.9660   58.1630 N   0  0  0  0  0  0  0  0  0  0  0  0
  129.0910  125.5940   58.6130 C   0  0  0  0  0  0  0  0  0  0  0  0
  130.0630  125.0510   59.1460 O   0  0  0  0  0  0  0  0  0  0  0  0
  128.9840  126.9150   58.3740 O   0  0  0  0  0  0  0  0  0  0  0  0
  129.7870  127.8540   59.0820 C   0  0  0  0  0  0  0  0  0  0  0  0
  129.2410  129.2800   58.8750 C   0  0  0  0  0  0  0  0  0  0  0  0
  130.0780  130.1160   57.9230 C   0  0  0  0  0  0  0  0  0  0  0  0
  131.4220  130.4890   58.0090 C   0  0  0  0  0  0  0  0  0  0  0  0
  131.9970  131.2600   56.9970 C   0  0  0  0  0  0  0  0  0  0  0  0
  131.2310  131.6630   55.9010 C   0  0  0  0  0  0  0  0  0  0  0  0
  129.8880  131.2970   55.8150 C   0  0  0  0  0  0  0  0  0  0  0  0
  129.3150  130.5250   56.8280 C   0  0  0  0  0  0  0  0  0  0  0  0
  127.9450  130.0150   56.9970 C   0  0  0  0  0  0  0  0  0  0  0  0
  126.8080  130.1510   56.1980 C   0  0  0  0  0  0  0  0  0  0  0  0
  125.6060  129.5680   56.6030 C   0  0  0  0  0  0  0  0  0  0  0  0
  125.5420  128.8530   57.8000 C   0  0  0  0  0  0  0  0  0  0  0  0
  126.6820  128.7170   58.5970 C   0  0  0  0  0  0  0  0  0  0  0  0
  127.8880  129.2970   58.1930 C   0  0  0  0  0  0  0  0  0  0  0  0
  126.8360  122.9410   57.1050 C   0  0  0  0  0  0  0  0  0  0  0  0
  126.0930  123.8000   56.5750 O   0  0  0  0  0  0  0  0  0  0  0  0
  126.9660  121.7270   56.8150 O   0  0  0  0  0  0  0  0  0  0  0  0
  129.5480  122.7460   60.4010 N   0  0  0  0  0  0  0  0  0  0  0  0
  130.7440  122.3930   61.2080 C   0  0  0  0  0  0  0  0  0  0  0  0
  130.9350  120.8430   61.2340 C   0  0  0  0  0  0  0  0  0  0  0  0
  132.2080  120.2700   61.0640 C   0  0  0  0  0  0  0  0  0  0  0  0
  132.3840  118.8900   61.1000 C   0  0  0  0  0  0  0  0  0  0  0  0
  131.2870  118.0610   61.3100 C   0  0  0  0  0  0  0  0  0  0  0  0
  130.0170  118.6020   61.4850 C   0  0  0  0  0  0  0  0  0  0  0  0
  129.8430  119.9830   61.4490 C   0  0  0  0  0  0  0  0  0  0  0  0
  132.1040  122.9220   60.6510 C   0  0  0  0  0  0  0  0  0  0  0  0
  133.1630  123.2440   61.5180 C   0  0  0  0  0  0  0  0  0  0  0  0
  134.3750  123.7170   61.0240 C   0  0  0  0  0  0  0  0  0  0  0  0
  134.5490  123.8700   59.6530 C   0  0  0  0  0  0  0  0  0  0  0  0
  133.5200  123.5480   58.7720 C   0  0  0  0  0  0  0  0  0  0  0  0
  132.3090  123.0750   59.2690 C   0  0  0  0  0  0  0  0  0  0  0  0
  130.4110  122.9320   62.6420 C   0  0  0  0  0  0  0  0  0  0  0  0
  130.2530  122.0670   63.7390 C   0  0  0  0  0  0  0  0  0  0  0  0
  129.9760  122.5620   65.0090 C   0  0  0  0  0  0  0  0  0  0  0  0
  129.8660  123.9350   65.2060 C   0  0  0  0  0  0  0  0  0  0  0  0
  130.0400  124.8150   64.1440 C   0  0  0  0  0  0  0  0  0  0  0  0
  130.3160  124.3160   62.8730 C   0  0  0  0  0  0  0  0  0  0  0  0
  126.4783  122.3290   59.5574 H   0  0  0  0  0  0  0  0  0  0  0  0
  126.7861  124.0822   60.0696 H   0  0  0  0  0  0  0  0  0  0  0  0
  128.7373  123.0138   58.1273 H   0  0  0  0  0  0  0  0  0  0  0  0
  127.2210  125.5080   57.6980 H   0  0  0  0  0  0  0  0  0  0  0  0
  129.7712  127.6105   60.1546 H   0  0  0  0  0  0  0  0  0  0  0  0
  130.8181  127.8046   58.7021 H   0  0  0  0  0  0  0  0  0  0  0  0
  129.2273  129.6759   59.9012 H   0  0  0  0  0  0  0  0  0  0  0  0
  132.0262  130.1755   58.8731 H   0  0  0  0  0  0  0  0  0  0  0  0
  133.0558  131.5507   57.0631 H   0  0  0  0  0  0  0  0  0  0  0  0
  131.6873  132.2696   55.1049 H   0  0  0  0  0  0  0  0  0  0  0  0
  129.2828  131.6149   54.9532 H   0  0  0  0  0  0  0  0  0  0  0  0
  126.8592  130.7144   55.2546 H   0  0  0  0  0  0  0  0  0  0  0  0
  124.7073  129.6723   55.9774 H   0  0  0  0  0  0  0  0  0  0  0  0
  124.5929  128.3959   58.1166 H   0  0  0  0  0  0  0  0  0  0  0  0
  126.6303  128.1544   59.5408 H   0  0  0  0  0  0  0  0  0  0  0  0
  129.7500  122.9250   59.4280 H   0  0  0  0  0  0  0  0  0  0  0  0
  133.0781  120.9227   60.9000 H   0  0  0  0  0  0  0  0  0  0  0  0
  133.3858  118.4569   60.9630 H   0  0  0  0  0  0  0  0  0  0  0  0
  131.4244  116.9700   61.3379 H   0  0  0  0  0  0  0  0  0  0  0  0
  129.1536  117.9410   61.6512 H   0  0  0  0  0  0  0  0  0  0  0  0
  128.8380  120.4071   61.5906 H   0  0  0  0  0  0  0  0  0  0  0  0
  133.0315  123.1202   62.6031 H   0  0  0  0  0  0  0  0  0  0  0  0
  135.1924  123.9689   61.7157 H   0  0  0  0  0  0  0  0  0  0  0  0
  135.5053  124.2477   59.2621 H   0  0  0  0  0  0  0  0  0  0  0  0
  133.6635  123.6669   57.6879 H   0  0  0  0  0  0  0  0  0  0  0  0
  131.5001  122.8170   58.5696 H   0  0  0  0  0  0  0  0  0  0  0  0
  130.3500  120.9814   63.5906 H   0  0  0  0  0  0  0  0  0  0  0  0
  129.8444  121.8707   65.8544 H   0  0  0  0  0  0  0  0  0  0  0  0
  129.6399  124.3267   66.2087 H   0  0  0  0  0  0  0  0  0  0  0  0
  129.9601  125.9000   64.3065 H   0  0  0  0  0  0  0  0  0  0  0  0
  130.4619  125.0156   62.0368 H   0  0  0  0  0  0  0  0  0  0  0  0
  1  2  2  0
  2  3  1  0
  3  4  1  0
  4  5  1  0
  5  6  1  0
  6  7  2  0
  6  8  1  0
  8  9  1  0
  9 10  1  0
 10 11  1  0
 11 12  2  0
 12 13  1  0
 13 14  2  0
 14 15  1  0
 15 16  2  0
 16 17  1  0
 17 18  2  0
 18 19  1  0
 19 20  2  0
 20 21  1  0
 21 22  2  0
  4 23  1  0
 23 24  2  0
 23 25  1  0
  2 26  1  0
 26 27  1  0
 27 28  1  0
 28 29  2  0
 29 30  1  0
 30 31  2  0
 31 32  1  0
 32 33  2  0
 27 34  1  0
 34 35  2  0
 35 36  1  0
 36 37  2  0
 37 38  1  0
 38 39  2  0
 27 40  1  0
 40 41  2  0
 41 42  1  0
 42 43  2  0
 43 44  1  0
 44 45  2  0
 22 10  1  0
 33 28  1  0
 39 34  1  0
 45 40  1  0
 16 11  1  0
 22 17  1  0
  3 46  1  0
  3 47  1  0
  4 48  1  6
  5 49  1  0
  9 50  1  0
  9 51  1  0
 10 52  1  0
 12 53  1  0
 13 54  1  0
 14 55  1  0
 15 56  1  0
 18 57  1  0
 19 58  1  0
 20 59  1  0
 21 60  1  0
 26 61  1  0
 29 62  1  0
 30 63  1  0
 31 64  1  0
 32 65  1  0
 33 66  1  0
 35 67  1  0
 36 68  1  0
 37 69  1  0
 38 70  1  0
 39 71  1  0
 41 72  1  0
 42 73  1  0
 43 74  1  0
 44 75  1  0
 45 76  1  0
M  CHG  1  25  -1
M  END
>  <Binding energies>  (1) 
[-10.94]

>  <Ligand effiencies>  (1) 
[-0.2327659574468085]

>  <Interactions>  (1) 
["H-B:ALA:541:N:9863, V-B:PRO:540:CB:9857, H-B:TYR:531:OH:9767, V-B:MET:535:CE:9807, V-A:ILE:369:CG2:3236, V-A:LEU:475:CD1:4257, V-B:PRO:540:CA:9855, V-B:PRO:540:C:9853, H-B:TYR:539:N:9842, V-B:ALA:541:CB:9864, V-B:TYR:539:CE2:9848, V-A:PRO:482:CG:4326, V-B:TYR:531:CZ:9766, V-A:PRO:482:CB:4325, V-A:ASP:366:CG:3212, V-A:ASP:366:CA:3209, V-A:ASP:366:CB:3211, V-A:ILE:538:CG2:4863, V-A:ASP:366:C:3207, V-A:TYR:539:CZ:4877, V-A:PRO:540:CB:4885, V-A:TYR:539:CE1:4875, V-A:ILE:538:CB:4862, V-B:TYR:531:CE1:9764, V-B:ASP:366:CB:8183, V-A:LEU:363:CD1:3188, V-A:ILE:369:CD1:3238, V-A:ILE:369:CB:3235, V-A:TYR:484:CZ:4346, V-B:GLU:543:CG:9879, V-B:GLU:543:CD:9880, V-A:TYR:484:CE2:4345, V-B:ALA:541:CA:9862, V-A:ILE:369:CG1:3237"]

$$$$
RR6_Rahimova_2017
     RDKit          3D

 63 66  0  0  0  0  0  0  0  0999 V2000
  128.4600  129.7840   53.6880 C   0  0  0  0  0  0  0  0  0  0  0  0
  127.6570  130.6130   54.5170 O   0  0  0  0  0  0  0  0  0  0  0  0
  127.9120  130.7280   55.8460 C   0  0  0  0  0  0  0  0  0  0  0  0
  128.5060  131.6900   56.3430 O   0  0  0  0  0  0  0  0  0  0  0  0
  127.4000  129.5690   56.6520 C   0  0  0  0  0  0  0  0  0  0  0  0
  128.2390  128.5250   57.0690 C   0  0  0  0  0  0  0  0  0  0  0  0
  127.7330  127.4590   57.8090 C   0  0  0  0  0  0  0  0  0  0  0  0
  126.3700  127.4190   58.1420 C   0  0  0  0  0  0  0  0  0  0  0  0
  125.7500  126.3790   58.8590 N   0  0  0  0  0  0  0  0  0  0  0  0
  125.5920  125.0810   58.5200 C   0  0  0  0  0  0  0  0  0  0  0  0
  125.9940  124.5610   57.4790 O   0  0  0  0  0  0  0  0  0  0  0  0
  124.7890  124.2310   59.5100 C   0  0  0  0  0  0  0  0  0  0  0  0
  125.8160  123.4130   60.7760 S   0  0  0  0  0  0  0  0  0  0  0  0
  126.8440  124.6750   61.4980 C   0  0  0  0  0  0  0  0  0  0  0  0
  126.3030  125.9160   61.4730 N   0  0  0  0  0  0  0  0  0  0  0  0
  126.9800  126.9570   62.0200 C   0  0  0  0  0  0  0  0  0  0  0  0
  126.2850  128.2870   62.0060 C   0  0  0  0  0  0  0  0  0  0  0  0
  125.7670  128.8440   63.1860 C   0  0  0  0  0  0  0  0  0  0  0  0
  125.1100  130.0710   63.1700 C   0  0  0  0  0  0  0  0  0  0  0  0
  124.9640  130.7690   61.9720 C   0  0  0  0  0  0  0  0  0  0  0  0
  124.2390  132.1030   61.9590 C   0  0  0  0  0  0  0  0  0  0  0  0
  125.4730  130.2350   60.7910 C   0  0  0  0  0  0  0  0  0  0  0  0
  126.1290  129.0080   60.8120 C   0  0  0  0  0  0  0  0  0  0  0  0
  128.2390  126.7660   62.6000 C   0  0  0  0  0  0  0  0  0  0  0  0
  128.8220  125.4910   62.6350 C   0  0  0  0  0  0  0  0  0  0  0  0
  130.1590  125.3550   63.2850 C   0  0  0  0  0  0  0  0  0  0  0  0
  131.2940  125.0970   62.5110 C   0  0  0  0  0  0  0  0  0  0  0  0
  132.5470  124.9840   63.1080 C   0  0  0  0  0  0  0  0  0  0  0  0
  132.6910  125.1320   64.4860 C   0  0  0  0  0  0  0  0  0  0  0  0
  133.9710  125.0060   64.9900 O   0  0  0  0  0  0  0  0  0  0  0  0
  134.2190  125.3550   66.3480 C   0  0  0  0  0  0  0  0  0  0  0  0
  131.5550  125.3970   65.2670 C   0  0  0  0  0  0  0  0  0  0  0  0
  130.3040  125.5090   64.6670 C   0  0  0  0  0  0  0  0  0  0  0  0
  128.1090  124.4090   62.0620 C   0  0  0  0  0  0  0  0  0  0  0  0
  128.6730  123.0560   62.0380 C   0  0  0  0  0  0  0  0  0  0  0  0
  129.1180  121.9880   62.0210 N   0  0  0  0  0  0  0  0  0  0  0  0
  125.5360  128.4640   57.7440 C   0  0  0  0  0  0  0  0  0  0  0  0
  126.0440  129.5270   57.0010 C   0  0  0  0  0  0  0  0  0  0  0  0
  129.0881  129.1355   54.3164 H   0  0  0  0  0  0  0  0  0  0  0  0
  127.8116  129.1625   53.0529 H   0  0  0  0  0  0  0  0  0  0  0  0
  129.1018  130.4123   53.0529 H   0  0  0  0  0  0  0  0  0  0  0  0
  129.3075  128.5485   56.8089 H   0  0  0  0  0  0  0  0  0  0  0  0
  128.4019  126.6480   58.1327 H   0  0  0  0  0  0  0  0  0  0  0  0
  125.2900  126.6760   59.7070 H   0  0  0  0  0  0  0  0  0  0  0  0
  124.0641  124.8831   60.0192 H   0  0  0  0  0  0  0  0  0  0  0  0
  124.3014  123.4349   58.9282 H   0  0  0  0  0  0  0  0  0  0  0  0
  125.8820  128.3030   64.1368 H   0  0  0  0  0  0  0  0  0  0  0  0
  124.7057  130.4902   64.1032 H   0  0  0  0  0  0  0  0  0  0  0  0
  124.0597  132.4329   62.9929 H   0  0  0  0  0  0  0  0  0  0  0  0
  124.8552  132.8501   61.4373 H   0  0  0  0  0  0  0  0  0  0  0  0
  123.2769  131.9924   61.4373 H   0  0  0  0  0  0  0  0  0  0  0  0
  125.3568  130.7818   59.8437 H   0  0  0  0  0  0  0  0  0  0  0  0
  126.5327  128.5956   59.8756 H   0  0  0  0  0  0  0  0  0  0  0  0
  128.7760  127.6232   63.0322 H   0  0  0  0  0  0  0  0  0  0  0  0
  131.1966  124.9823   61.4213 H   0  0  0  0  0  0  0  0  0  0  0  0
  133.4305  124.7762   62.4865 H   0  0  0  0  0  0  0  0  0  0  0  0
  133.7099  124.6386   67.0095 H   0  0  0  0  0  0  0  0  0  0  0  0
  135.3015  125.3278   66.5418 H   0  0  0  0  0  0  0  0  0  0  0  0
  133.8372  126.3683   66.5418 H   0  0  0  0  0  0  0  0  0  0  0  0
  131.6537  125.5165   66.3560 H   0  0  0  0  0  0  0  0  0  0  0  0
  129.4202  125.7209   65.2867 H   0  0  0  0  0  0  0  0  0  0  0  0
  124.4709  128.4484   58.0185 H   0  0  0  0  0  0  0  0  0  0  0  0
  125.3744  130.3407   56.6855 H   0  0  0  0  0  0  0  0  0  0  0  0
  1  2  1  0
  2  3  1  0
  3  4  2  0
  3  5  1  0
  5  6  2  0
  6  7  1  0
  7  8  2  0
  8  9  1  0
  9 10  1  0
 10 11  2  0
 10 12  1  0
 12 13  1  0
 13 14  1  0
 14 15  2  0
 15 16  1  0
 16 17  1  0
 17 18  2  0
 18 19  1  0
 19 20  2  0
 20 21  1  0
 20 22  1  0
 22 23  2  0
 16 24  2  0
 24 25  1  0
 25 26  1  0
 26 27  2  0
 27 28  1  0
 28 29  2  0
 29 30  1  0
 30 31  1  0
 29 32  1  0
 32 33  2  0
 25 34  2  0
 34 35  1  0
 35 36  3  0
  8 37  1  0
 37 38  2  0
 38  5  1  0
 34 14  1  0
 23 17  1  0
 33 26  1  0
  1 39  1  0
  1 40  1  0
  1 41  1  0
  6 42  1  0
  7 43  1  0
  9 44  1  0
 12 45  1  0
 12 46  1  0
 18 47  1  0
 19 48  1  0
 21 49  1  0
 21 50  1  0
 21 51  1  0
 22 52  1  0
 23 53  1  0
 24 54  1  0
 27 55  1  0
 28 56  1  0
 31 57  1  0
 31 58  1  0
 31 59  1  0
 32 60  1  0
 33 61  1  0
 37 62  1  0
 38 63  1  0
M  END
>  <Binding energies>  (1) 
[-9.54]

>  <Ligand effiencies>  (1) 
[-0.2446153846153846]

>  <Interactions>  (1) 
["H-B:ALA:541:N:9863, V-B:PRO:540:CB:9857, H-B:TYR:531:OH:9767, V-B:ALA:541:CB:9864, V-B:TYR:531:CZ:9766, H-A:TYR:484:OH:4347, H-A:GLY:454:N:4049, V-A:TYR:539:CZ:4877, V-A:TYR:539:CE1:4875, V-B:ASP:366:CG:8184, V-B:TYR:531:CE1:9764, H-B:LYS:534:NZ:9795, V-B:ASP:366:CB:8183, V-B:ARG:545:CZ:9898, V-B:ILE:369:CD1:8210, H-B:ARG:545:NH2:9900, H-A:TYR:539:OH:4878, H-A:ARG:545:NH2:4928, V-A:ARG:545:CD:4923, V-B:GLU:543:CD:9880, H-A:ARG:545:NE:4924, V-A:ARG:545:CG:4922, V-A:ARG:545:CZ:4926, H-A:ARG:545:NH1:4927, V-B:LYS:534:CE:9794, V-B:ILE:369:CG2:8208, H-B:ASP:366:OD2:8186, H-B:ASP:366:OD1:8185, V-A:GLY:453:CA:4043, V-A:GLY:453:C:4041"]

$$$$
RR7_Rahimova_2017
     RDKit          3D

 80 86  0  0  0  0  0  0  0  0999 V2000
  132.8160  124.2400   58.1760 C   0  0  0  0  0  0  0  0  0  0  0  0
  131.4520  124.5570   58.4380 O   0  0  0  0  0  0  0  0  0  0  0  0
  131.0280  125.8650   58.3000 C   0  0  0  0  0  0  0  0  0  0  0  0
  130.0890  126.3150   59.2250 C   0  0  0  0  0  0  0  0  0  0  0  0
  129.6060  127.6190   59.1700 C   0  0  0  0  0  0  0  0  0  0  0  0
  130.0450  128.5040   58.1740 C   0  0  0  0  0  0  0  0  0  0  0  0
  129.5460  129.9810   58.1070 C   0  0  0  0  0  0  0  0  0  0  0  0
  128.2480  129.9430   57.4710 O   0  0  0  0  0  0  0  0  0  0  0  0
  127.6670  128.6880   57.1010 C   0  0  0  0  0  0  0  0  0  0  0  0
  126.1550  128.7360   57.3780 C   0  0  1  0  0  0  0  0  0  0  0  0
  125.9520  128.1490   58.6600 O   0  0  0  0  0  0  0  0  0  0  0  0
  125.3350  129.0360   59.5490 C   0  0  1  0  0  0  0  0  0  0  0  0
  125.8070  128.7990   60.9000 N   0  0  0  0  0  0  0  0  0  0  0  0
  126.7170  127.8500   61.3300 C   0  0  0  0  0  0  0  0  0  0  0  0
  126.9310  127.8230   62.6220 N   0  0  0  0  0  0  0  0  0  0  0  0
  126.0850  128.7800   63.1130 C   0  0  0  0  0  0  0  0  0  0  0  0
  125.8270  129.2280   64.4240 C   0  0  0  0  0  0  0  0  0  0  0  0
  126.5390  128.6450   65.4890 N   0  0  0  0  0  0  0  0  0  0  0  0
  127.3450  129.2390   66.4010 C   0  0  0  0  0  0  0  0  0  0  0  0
  127.6020  130.4450   66.4200 O   0  0  0  0  0  0  0  0  0  0  0  0
  127.9720  128.3140   67.4220 C   0  0  0  0  0  0  0  0  0  0  0  0
  128.9700  128.8010   68.2800 C   0  0  0  0  0  0  0  0  0  0  0  0
  129.5550  127.9690   69.2290 C   0  0  0  0  0  0  0  0  0  0  0  0
  129.1450  126.6440   69.3330 C   0  0  0  0  0  0  0  0  0  0  0  0
  128.1530  126.1420   68.4950 C   0  0  0  0  0  0  0  0  0  0  0  0
  127.5670  126.9730   67.5430 C   0  0  0  0  0  0  0  0  0  0  0  0
  124.8940  130.2080   64.6230 N   0  0  0  0  0  0  0  0  0  0  0  0
  124.2550  130.7050   63.5320 C   0  0  0  0  0  0  0  0  0  0  0  0
  124.4280  130.3500   62.2310 N   0  0  0  0  0  0  0  0  0  0  0  0
  125.3510  129.3940   62.0660 C   0  0  0  0  0  0  0  0  0  0  0  0
  125.6300  130.4260   58.9990 C   0  0  0  0  0  0  0  0  0  0  0  0
  125.5630  130.1460   57.5070 C   0  0  2  0  0  0  0  0  0  0  0  0
  124.2380  130.2240   57.0110 O   0  0  0  0  0  0  0  0  0  0  0  0
  129.3420  130.6000   59.5150 C   0  0  0  0  0  0  0  0  0  0  0  0
  128.3890  131.6120   59.7130 C   0  0  0  0  0  0  0  0  0  0  0  0
  128.2080  132.1840   60.9680 C   0  0  0  0  0  0  0  0  0  0  0  0
  128.9800  131.7490   62.0410 C   0  0  0  0  0  0  0  0  0  0  0  0
  129.9310  130.7480   61.8680 C   0  0  0  0  0  0  0  0  0  0  0  0
  130.1120  130.1770   60.6120 C   0  0  0  0  0  0  0  0  0  0  0  0
  130.4680  130.9730   57.3440 C   0  0  0  0  0  0  0  0  0  0  0  0
  130.0130  131.6180   56.1830 C   0  0  0  0  0  0  0  0  0  0  0  0
  130.8340  132.5000   55.4880 C   0  0  0  0  0  0  0  0  0  0  0  0
  132.1270  132.7400   55.9430 C   0  0  0  0  0  0  0  0  0  0  0  0
  132.6050  132.1020   57.0830 C   0  0  0  0  0  0  0  0  0  0  0  0
  131.7810  131.2210   57.7770 C   0  0  0  0  0  0  0  0  0  0  0  0
  131.0010  128.0500   57.2530 C   0  0  0  0  0  0  0  0  0  0  0  0
  131.4840  126.7450   57.3100 C   0  0  0  0  0  0  0  0  0  0  0  0
  133.3528  124.1152   59.1280 H   0  0  0  0  0  0  0  0  0  0  0  0
  132.8709  123.3052   57.5989 H   0  0  0  0  0  0  0  0  0  0  0  0
  133.2775  125.0548   57.5989 H   0  0  0  0  0  0  0  0  0  0  0  0
  129.7253  125.6325   60.0073 H   0  0  0  0  0  0  0  0  0  0  0  0
  128.8722  127.9594   59.9154 H   0  0  0  0  0  0  0  0  0  0  0  0
  127.8403  128.5025   56.0307 H   0  0  0  0  0  0  0  0  0  0  0  0
  128.1269  127.8782   57.6865 H   0  0  0  0  0  0  0  0  0  0  0  0
  125.6733  128.2325   56.5268 H   0  0  0  0  0  0  0  0  0  0  0  0
  124.2453  128.9055   59.6228 H   0  0  0  0  0  0  0  0  0  0  0  0
  127.2256  127.1655   60.6352 H   0  0  0  0  0  0  0  0  0  0  0  0
  126.4260  127.6450   65.5700 H   0  0  0  0  0  0  0  0  0  0  0  0
  129.2925  129.8497   68.2014 H   0  0  0  0  0  0  0  0  0  0  0  0
  130.3394  128.3578   69.8951 H   0  0  0  0  0  0  0  0  0  0  0  0
  129.6085  125.9871   70.0838 H   0  0  0  0  0  0  0  0  0  0  0  0
  127.8333  125.0933   68.5843 H   0  0  0  0  0  0  0  0  0  0  0  0
  126.7822  126.5775   66.8815 H   0  0  0  0  0  0  0  0  0  0  0  0
  123.5077  131.4890   63.7243 H   0  0  0  0  0  0  0  0  0  0  0  0
  124.8695  131.1571   59.3107 H   0  0  0  0  0  0  0  0  0  0  0  0
  126.5774  130.8664   59.3432 H   0  0  0  0  0  0  0  0  0  0  0  0
  126.1141  130.8871   56.9095 H   0  0  0  0  0  0  0  0  0  0  0  0
  124.1880  130.9500   56.3840 H   0  0  0  0  0  0  0  0  0  0  0  0
  127.7782  131.9566   58.8655 H   0  0  0  0  0  0  0  0  0  0  0  0
  127.4584  132.9762   61.1115 H   0  0  0  0  0  0  0  0  0  0  0  0
  128.8373  132.2001   63.0340 H   0  0  0  0  0  0  0  0  0  0  0  0
  130.5374  130.4093   62.7210 H   0  0  0  0  0  0  0  0  0  0  0  0
  130.8651  129.3868   60.4764 H   0  0  0  0  0  0  0  0  0  0  0  0
  128.9937  131.4233   55.8181 H   0  0  0  0  0  0  0  0  0  0  0  0
  130.4632  133.0049   54.5838 H   0  0  0  0  0  0  0  0  0  0  0  0
  132.7764  133.4399   55.3968 H   0  0  0  0  0  0  0  0  0  0  0  0
  133.6297  132.2930   57.4343 H   0  0  0  0  0  0  0  0  0  0  0  0
  132.1624  130.7130   58.6750 H   0  0  0  0  0  0  0  0  0  0  0  0
  131.3738  128.7335   56.4759 H   0  0  0  0  0  0  0  0  0  0  0  0
  132.2270  126.4037   56.5742 H   0  0  0  0  0  0  0  0  0  0  0  0
  1  2  1  0
  2  3  1  0
  3  4  2  0
  4  5  1  0
  5  6  2  0
  6  7  1  0
  7  8  1  0
  8  9  1  0
  9 10  1  0
 10 11  1  0
 11 12  1  0
 12 13  1  0
 13 14  1  0
 14 15  2  0
 15 16  1  0
 16 17  2  0
 17 18  1  0
 18 19  1  0
 19 20  2  0
 19 21  1  0
 21 22  2  0
 22 23  1  0
 23 24  2  0
 24 25  1  0
 25 26  2  0
 17 27  1  0
 27 28  2  0
 28 29  1  0
 29 30  2  0
 12 31  1  0
 31 32  1  0
 32 33  1  0
  7 34  1  0
 34 35  2  0
 35 36  1  0
 36 37  2  0
 37 38  1  0
 38 39  2  0
  7 40  1  0
 40 41  2  0
 41 42  1  0
 42 43  2  0
 43 44  1  0
 44 45  2  0
  6 46  1  0
 46 47  2  0
 47  3  1  0
 32 10  1  0
 39 34  1  0
 45 40  1  0
 30 13  1  0
 30 16  1  0
 26 21  1  0
  1 48  1  0
  1 49  1  0
  1 50  1  0
  4 51  1  0
  5 52  1  0
  9 53  1  0
  9 54  1  0
 10 55  1  6
 12 56  1  1
 14 57  1  0
 18 58  1  0
 22 59  1  0
 23 60  1  0
 24 61  1  0
 25 62  1  0
 26 63  1  0
 28 64  1  0
 31 65  1  0
 31 66  1  0
 32 67  1  6
 33 68  1  0
 35 69  1  0
 36 70  1  0
 37 71  1  0
 38 72  1  0
 39 73  1  0
 41 74  1  0
 42 75  1  0
 43 76  1  0
 44 77  1  0
 45 78  1  0
 46 79  1  0
 47 80  1  0
M  END
>  <Binding energies>  (1) 
[-9.84]

>  <Ligand effiencies>  (1) 
[-0.20081632653061224]

>  <Interactions>  (1) 
["H-B:TYR:531:OH:9767, V-B:TYR:539:CE2:9848, V-B:TYR:531:CZ:9766, V-A:PRO:540:N:4884, V-A:ILE:538:CA:4860, V-A:ASP:366:CA:3209, V-A:ASP:366:CB:3211, V-A:ILE:538:CG2:4863, H-B:TYR:539:OH:9850, V-A:TYR:539:CD1:4873, V-A:PRO:540:CA:4883, V-A:TYR:539:CZ:4877, V-A:PRO:540:CB:4885, V-A:TYR:539:CE1:4875, V-A:ILE:538:CB:4862, V-B:ASP:366:CG:8184, V-B:TYR:531:CE1:9764, H-B:GLY:454:N:9021, V-B:ASP:366:CB:8183, V-B:ARG:545:CZ:9898, V-A:ALA:541:CB:4892, V-A:PRO:540:CD:4887, V-A:LEU:363:CD1:3188, V-A:GLU:543:CG:4907, V-B:GLY:454:CA:9020, V-A:GLU:543:CD:4908, H-B:ARG:545:NH2:9900, H-B:TYR:484:OH:9319, V-B:TYR:539:CZ:9849, H-A:TYR:539:OH:4878, V-A:GLU:543:C:4902, V-B:HIS:456:CE1:9041, V-A:HIS:456:CE1:4069, V-B:GLU:543:CB:9878, V-B:GLU:543:CD:9880, H-B:GLU:543:OE2:9882, V-A:GLU:543:CA:4904, V-A:GLU:543:CB:4906, V-A:ILE:538:C:4858, V-A:PRO:540:CG:4886, V-B:GLU:543:CA:9876, V-B:GLU:543:C:9874, H-B:ASP:366:O:8180"]

$$$$
RR8_A_Rahimova_2017
     RDKit          3D

 73 77  0  0  0  0  0  0  0  0999 V2000
  129.2330  122.1400   62.6530 O   0  0  0  0  0  0  0  0  0  0  0  0
  128.9050  123.1340   61.9950 C   0  0  0  0  0  0  0  0  0  0  0  0
  129.1040  124.4280   62.3970 O   0  0  0  0  0  0  0  0  0  0  0  0
  130.4010  124.9470   62.2930 C   0  0  1  0  0  0  0  0  0  0  0  0
  131.3020  124.2510   63.1040 O   0  0  0  0  0  0  0  0  0  0  0  0
  132.5700  124.0940   62.4730 C   0  0  2  0  0  0  0  0  0  0  0  0
  133.6540  124.6750   63.3980 C   0  0  0  0  0  0  0  0  0  0  0  0
  133.2410  124.5090   64.7480 O   0  0  0  0  0  0  0  0  0  0  0  0
  133.3380  125.6910   65.5310 C   0  0  0  0  0  0  0  0  0  0  0  0
  131.9990  125.9810   66.1940 C   0  0  0  0  0  0  0  0  0  0  0  0
  130.8480  125.3200   65.7580 C   0  0  0  0  0  0  0  0  0  0  0  0
  129.6220  125.5790   66.3670 C   0  0  0  0  0  0  0  0  0  0  0  0
  129.5510  126.4970   67.4130 C   0  0  0  0  0  0  0  0  0  0  0  0
  130.6950  127.1570   67.8570 C   0  0  0  0  0  0  0  0  0  0  0  0
  131.9210  126.8970   67.2500 C   0  0  0  0  0  0  0  0  0  0  0  0
  132.3990  124.8080   61.1260 C   0  0  1  0  0  0  0  0  0  0  0  0
  133.0500  124.1370   60.0490 O   0  0  0  0  0  0  0  0  0  0  0  0
  134.0240  123.1700   60.4230 C   0  0  0  0  0  0  0  0  0  0  0  0
  133.3610  121.8140   60.6200 C   0  0  0  0  0  0  0  0  0  0  0  0
  134.0820  120.7680   61.2030 C   0  0  0  0  0  0  0  0  0  0  0  0
  133.4850  119.5230   61.3780 C   0  0  0  0  0  0  0  0  0  0  0  0
  132.1680  119.3240   60.9670 C   0  0  0  0  0  0  0  0  0  0  0  0
  131.4450  120.3590   60.3790 C   0  0  0  0  0  0  0  0  0  0  0  0
  132.0420  121.6040   60.2020 C   0  0  0  0  0  0  0  0  0  0  0  0
  130.9050  124.7250   60.8730 C   0  0  2  0  0  0  0  0  0  0  0  0
  130.4940  125.7350   59.9550 O   0  0  0  0  0  0  0  0  0  0  0  0
  129.7530  125.2790   58.8280 C   0  0  0  0  0  0  0  0  0  0  0  0
  130.5870  125.4300   57.5650 C   0  0  0  0  0  0  0  0  0  0  0  0
  129.9610  125.5940   56.3240 C   0  0  0  0  0  0  0  0  0  0  0  0
  130.7280  125.7410   55.1720 C   0  0  0  0  0  0  0  0  0  0  0  0
  132.1180  125.7280   55.2620 C   0  0  0  0  0  0  0  0  0  0  0  0
  132.7490  125.5710   56.4930 C   0  0  0  0  0  0  0  0  0  0  0  0
  131.9820  125.4230   57.6470 C   0  0  0  0  0  0  0  0  0  0  0  0
  128.2500  123.0410   60.6480 C   0  0  0  0  0  0  0  0  0  0  0  0
  128.8550  122.3700   59.5730 C   0  0  0  0  0  0  0  0  0  0  0  0
  128.2220  122.3020   58.3350 C   0  0  0  0  0  0  0  0  0  0  0  0
  126.9710  122.9020   58.1380 C   0  0  0  0  0  0  0  0  0  0  0  0
  126.2980  122.8270   56.8190 N   0  0  0  0  0  0  0  0  0  0  0  0
  125.7670  123.8400   56.3710 O   0  0  0  0  0  0  0  0  0  0  0  0
  126.2940  121.7560   56.2200 O   0  0  0  0  0  0  0  0  0  0  0  0
  126.3700  123.5730   59.2100 C   0  0  0  0  0  0  0  0  0  0  0  0
  127.0010  123.6420   60.4490 C   0  0  0  0  0  0  0  0  0  0  0  0
  130.3492  126.0067   62.5834 H   0  0  0  0  0  0  0  0  0  0  0  0
  132.8927  123.0580   62.2927 H   0  0  0  0  0  0  0  0  0  0  0  0
  134.6034  124.1443   63.2339 H   0  0  0  0  0  0  0  0  0  0  0  0
  133.7982  125.7435   63.1799 H   0  0  0  0  0  0  0  0  0  0  0  0
  134.1070  125.5540   66.3055 H   0  0  0  0  0  0  0  0  0  0  0  0
  133.6125  126.5355   64.8817 H   0  0  0  0  0  0  0  0  0  0  0  0
  130.9098  124.5946   64.9334 H   0  0  0  0  0  0  0  0  0  0  0  0
  128.7142  125.0612   66.0237 H   0  0  0  0  0  0  0  0  0  0  0  0
  128.5827  126.7025   67.8927 H   0  0  0  0  0  0  0  0  0  0  0  0
  130.6300  127.8802   68.6833 H   0  0  0  0  0  0  0  0  0  0  0  0
  132.8281  127.4113   67.6002 H   0  0  0  0  0  0  0  0  0  0  0  0
  132.8250  125.8212   61.1708 H   0  0  0  0  0  0  0  0  0  0  0  0
  134.7836  123.0927   59.6311 H   0  0  0  0  0  0  0  0  0  0  0  0
  134.4986  123.4807   61.3655 H   0  0  0  0  0  0  0  0  0  0  0  0
  135.1218  120.9289   61.5237 H   0  0  0  0  0  0  0  0  0  0  0  0
  134.0502  118.6994   61.8388 H   0  0  0  0  0  0  0  0  0  0  0  0
  131.6955  118.3407   61.1083 H   0  0  0  0  0  0  0  0  0  0  0  0
  130.4067  120.1934   60.0558 H   0  0  0  0  0  0  0  0  0  0  0  0
  131.4768  122.4231   59.7334 H   0  0  0  0  0  0  0  0  0  0  0  0
  130.5331  123.7993   60.4096 H   0  0  0  0  0  0  0  0  0  0  0  0
  129.4912  124.2198   58.9678 H   0  0  0  0  0  0  0  0  0  0  0  0
  128.8360  125.8787   58.7305 H   0  0  0  0  0  0  0  0  0  0  0  0
  128.8630  125.6067   56.2592 H   0  0  0  0  0  0  0  0  0  0  0  0
  130.2388  125.8669   54.1949 H   0  0  0  0  0  0  0  0  0  0  0  0
  132.7235  125.8430   54.3508 H   0  0  0  0  0  0  0  0  0  0  0  0
  133.8473  125.5638   56.5544 H   0  0  0  0  0  0  0  0  0  0  0  0
  132.4748  125.3006   58.6228 H   0  0  0  0  0  0  0  0  0  0  0  0
  129.8372  121.8942   59.7103 H   0  0  0  0  0  0  0  0  0  0  0  0
  128.7087  121.7720   57.5030 H   0  0  0  0  0  0  0  0  0  0  0  0
  125.3888  124.0507   59.0717 H   0  0  0  0  0  0  0  0  0  0  0  0
  126.5138  124.1737   61.2796 H   0  0  0  0  0  0  0  0  0  0  0  0
  1  2  2  0
  2  3  1  0
  3  4  1  0
  4  5  1  0
  5  6  1  0
  6  7  1  0
  7  8  1  0
  8  9  1  0
  9 10  1  0
 10 11  2  0
 11 12  1  0
 12 13  2  0
 13 14  1  0
 14 15  2  0
  6 16  1  0
 16 17  1  0
 17 18  1  0
 18 19  1  0
 19 20  2  0
 20 21  1  0
 21 22  2  0
 22 23  1  0
 23 24  2  0
 16 25  1  0
 25 26  1  0
 26 27  1  0
 27 28  1  0
 28 29  2  0
 29 30  1  0
 30 31  2  0
 31 32  1  0
 32 33  2  0
  2 34  1  0
 34 35  2  0
 35 36  1  0
 36 37  2  0
 37 38  1  0
 38 39  2  0
 38 40  1  0
 37 41  1  0
 41 42  2  0
 25  4  1  0
 33 28  1  0
 42 34  1  0
 15 10  1  0
 24 19  1  0
  4 43  1  1
  6 44  1  6
  7 45  1  0
  7 46  1  0
  9 47  1  0
  9 48  1  0
 11 49  1  0
 12 50  1  0
 13 51  1  0
 14 52  1  0
 15 53  1  0
 16 54  1  1
 18 55  1  0
 18 56  1  0
 20 57  1  0
 21 58  1  0
 22 59  1  0
 23 60  1  0
 24 61  1  0
 25 62  1  6
 27 63  1  0
 27 64  1  0
 29 65  1  0
 30 66  1  0
 31 67  1  0
 32 68  1  0
 33 69  1  0
 35 70  1  0
 36 71  1  0
 41 72  1  0
 42 73  1  0
M  CHG  2  38   1  40  -1
M  END
>  <Binding energies>  (1) 
[-10.06]

>  <Ligand effiencies>  (1) 
[-0.23952380952380953]

>  <Interactions>  (1) 
["H-B:ALA:541:N:9863, V-B:PRO:540:CB:9857, H-B:TYR:531:OH:9767, V-B:MET:535:CE:9807, V-A:ILE:369:CG2:3236, V-B:TYR:539:CD2:9846, V-B:PRO:540:N:9856, V-A:LEU:475:CD1:4257, V-B:PRO:540:CA:9855, H-B:TYR:539:N:9842, V-B:TYR:539:CE2:9848, V-B:TYR:539:C:9839, H-A:TYR:484:OH:4347, V-A:ASP:366:CG:3212, H-A:GLY:454:N:4049, V-A:TYR:531:CE1:4792, V-A:ASP:366:CA:3209, V-A:ASP:366:CB:3211, V-A:ASN:370:CB:3244, V-A:ASP:366:C:3207, V-A:TYR:531:CZ:4794, V-A:GLU:543:CD:4908, V-A:ILE:369:CD1:3238, V-A:SER:385:CA:3406, V-A:ILE:369:CB:3235, V-A:SER:385:C:3404, V-A:TYR:484:CZ:4346, V-A:HIS:456:CE1:4069, V-B:GLU:543:CB:9878, V-A:ARG:545:CD:4923, V-B:GLU:543:CG:9879, V-B:GLU:543:CD:9880, V-A:ARG:545:CG:4922, V-A:ARG:545:CZ:4926, V-A:GLU:543:CB:4906, V-A:GLY:453:CA:4043, V-A:GLY:453:C:4041, V-A:ASN:370:CG:3245"]

$$$$
RR8_B_Rahimova_2017
     RDKit          3D

 73 77  0  0  0  0  0  0  0  0999 V2000
  132.3870  125.0740   58.5190 O   0  0  0  0  0  0  0  0  0  0  0  0
  131.5500  124.3640   59.0860 C   0  0  0  0  0  0  0  0  0  0  0  0
  131.7170  123.8120   60.3250 O   0  0  0  0  0  0  0  0  0  0  0  0
  132.0120  124.6700   61.4000 C   0  0  2  0  0  0  0  0  0  0  0  0
  133.1090  124.2180   62.1430 O   0  0  0  0  0  0  0  0  0  0  0  0
  132.6990  123.3800   63.2220 C   0  0  2  0  0  0  0  0  0  0  0  0
  133.3720  122.0020   63.0870 C   0  0  0  0  0  0  0  0  0  0  0  0
  134.2150  122.0030   61.9420 O   0  0  0  0  0  0  0  0  0  0  0  0
  133.5650  121.6860   60.7200 C   0  0  0  0  0  0  0  0  0  0  0  0
  132.5410  120.5890   60.9680 C   0  0  0  0  0  0  0  0  0  0  0  0
  132.9630  119.2620   61.0970 C   0  0  0  0  0  0  0  0  0  0  0  0
  132.0290  118.2500   61.2990 C   0  0  0  0  0  0  0  0  0  0  0  0
  130.6740  118.5680   61.3740 C   0  0  0  0  0  0  0  0  0  0  0  0
  130.2470  119.8880   61.2530 C   0  0  0  0  0  0  0  0  0  0  0  0
  131.1810  120.9010   61.0470 C   0  0  0  0  0  0  0  0  0  0  0  0
  131.1680  123.3770   63.1400 C   0  0  1  0  0  0  0  0  0  0  0  0
  130.6110  123.3340   64.4570 O   0  0  0  0  0  0  0  0  0  0  0  0
  129.7740  124.4260   64.8450 C   0  0  0  0  0  0  0  0  0  0  0  0
  130.4890  125.4000   65.7760 C   0  0  0  0  0  0  0  0  0  0  0  0
  129.7870  126.0220   66.8130 C   0  0  0  0  0  0  0  0  0  0  0  0
  130.4500  126.8860   67.6810 C   0  0  0  0  0  0  0  0  0  0  0  0
  131.8110  127.1280   67.5060 C   0  0  0  0  0  0  0  0  0  0  0  0
  132.5160  126.5150   66.4730 C   0  0  0  0  0  0  0  0  0  0  0  0
  131.8540  125.6480   65.6060 C   0  0  0  0  0  0  0  0  0  0  0  0
  130.8480  124.6650   62.3900 C   0  0  2  0  0  0  0  0  0  0  0  0
  129.5670  124.5750   61.7720 O   0  0  0  0  0  0  0  0  0  0  0  0
  128.8670  123.3590   61.9840 C   0  0  0  0  0  0  0  0  0  0  0  0
  127.4710  123.5060   61.4050 C   0  0  0  0  0  0  0  0  0  0  0  0
  127.2320  124.4030   60.3590 C   0  0  0  0  0  0  0  0  0  0  0  0
  125.9440  124.5440   59.8490 C   0  0  0  0  0  0  0  0  0  0  0  0
  124.9020  123.7900   60.3830 C   0  0  0  0  0  0  0  0  0  0  0  0
  125.1340  122.8930   61.4250 C   0  0  0  0  0  0  0  0  0  0  0  0
  126.4210  122.7510   61.9350 C   0  0  0  0  0  0  0  0  0  0  0  0
  130.2390  123.9830   58.4600 C   0  0  0  0  0  0  0  0  0  0  0  0
  129.5470  124.8530   57.6050 C   0  0  0  0  0  0  0  0  0  0  0  0
  128.3300  124.4760   57.0470 C   0  0  0  0  0  0  0  0  0  0  0  0
  127.7690  123.2270   57.3370 C   0  0  0  0  0  0  0  0  0  0  0  0
  126.4580  122.8370   56.7610 N   0  0  0  0  0  0  0  0  0  0  0  0
  126.2700  121.6590   56.4680 O   0  0  0  0  0  0  0  0  0  0  0  0
  125.6040  123.7060   56.6030 O   0  0  0  0  0  0  0  0  0  0  0  0
  128.4640  122.3550   58.1860 C   0  0  0  0  0  0  0  0  0  0  0  0
  129.6840  122.7280   58.7390 C   0  0  0  0  0  0  0  0  0  0  0  0
  132.2105  125.6593   60.9620 H   0  0  0  0  0  0  0  0  0  0  0  0
  133.0040  123.7246   64.2211 H   0  0  0  0  0  0  0  0  0  0  0  0
  133.9723  121.7962   63.9855 H   0  0  0  0  0  0  0  0  0  0  0  0
  132.6020  121.2240   62.9781 H   0  0  0  0  0  0  0  0  0  0  0  0
  133.0582  122.5810   60.3299 H   0  0  0  0  0  0  0  0  0  0  0  0
  134.3072  121.3396   59.9857 H   0  0  0  0  0  0  0  0  0  0  0  0
  134.0340  119.0178   61.0388 H   0  0  0  0  0  0  0  0  0  0  0  0
  132.3583  117.2052   61.3989 H   0  0  0  0  0  0  0  0  0  0  0  0
  129.9348  117.7686   61.5303 H   0  0  0  0  0  0  0  0  0  0  0  0
  129.1760  120.1300   61.3198 H   0  0  0  0  0  0  0  0  0  0  0  0
  130.8485  121.9447   60.9467 H   0  0  0  0  0  0  0  0  0  0  0  0
  130.7412  122.5039   62.6247 H   0  0  0  0  0  0  0  0  0  0  0  0
  129.4575  124.9677   63.9415 H   0  0  0  0  0  0  0  0  0  0  0  0
  128.9112  124.0128   65.3880 H   0  0  0  0  0  0  0  0  0  0  0  0
  128.7119  125.8290   66.9431 H   0  0  0  0  0  0  0  0  0  0  0  0
  129.9023  127.3747   68.5002 H   0  0  0  0  0  0  0  0  0  0  0  0
  132.3345  127.8108   68.1914 H   0  0  0  0  0  0  0  0  0  0  0  0
  133.5899  126.7143   66.3423 H   0  0  0  0  0  0  0  0  0  0  0  0
  132.4049  125.1594   64.7889 H   0  0  0  0  0  0  0  0  0  0  0  0
  130.7740  125.5845   62.9891 H   0  0  0  0  0  0  0  0  0  0  0  0
  129.3933  122.5342   61.4813 H   0  0  0  0  0  0  0  0  0  0  0  0
  128.8099  123.1369   63.0598 H   0  0  0  0  0  0  0  0  0  0  0  0
  128.0590  124.9954   59.9404 H   0  0  0  0  0  0  0  0  0  0  0  0
  125.7502  125.2487   59.0269 H   0  0  0  0  0  0  0  0  0  0  0  0
  123.8853  123.9033   59.9785 H   0  0  0  0  0  0  0  0  0  0  0  0
  124.3052  122.3015   61.8412 H   0  0  0  0  0  0  0  0  0  0  0  0
  126.6120  122.0441   62.7558 H   0  0  0  0  0  0  0  0  0  0  0  0
  129.9702  125.8417   57.3738 H   0  0  0  0  0  0  0  0  0  0  0  0
  127.8034  125.1661   56.3713 H   0  0  0  0  0  0  0  0  0  0  0  0
  128.0404  121.3664   58.4170 H   0  0  0  0  0  0  0  0  0  0  0  0
  130.2180  122.0310   59.4016 H   0  0  0  0  0  0  0  0  0  0  0  0
  1  2  2  0
  2  3  1  0
  3  4  1  0
  4  5  1  0
  5  6  1  0
  6  7  1  0
  7  8  1  0
  8  9  1  0
  9 10  1  0
 10 11  2  0
 11 12  1  0
 12 13  2  0
 13 14  1  0
 14 15  2  0
  6 16  1  0
 16 17  1  0
 17 18  1  0
 18 19  1  0
 19 20  2  0
 20 21  1  0
 21 22  2  0
 22 23  1  0
 23 24  2  0
 16 25  1  0
 25 26  1  0
 26 27  1  0
 27 28  1  0
 28 29  2  0
 29 30  1  0
 30 31  2  0
 31 32  1  0
 32 33  2  0
  2 34  1  0
 34 35  2  0
 35 36  1  0
 36 37  2  0
 37 38  1  0
 38 39  2  0
 38 40  1  0
 37 41  1  0
 41 42  2  0
 25  4  1  0
 33 28  1  0
 42 34  1  0
 15 10  1  0
 24 19  1  0
  4 43  1  6
  6 44  1  1
  7 45  1  0
  7 46  1  0
  9 47  1  0
  9 48  1  0
 11 49  1  0
 12 50  1  0
 13 51  1  0
 14 52  1  0
 15 53  1  0
 16 54  1  6
 18 55  1  0
 18 56  1  0
 20 57  1  0
 21 58  1  0
 22 59  1  0
 23 60  1  0
 24 61  1  0
 25 62  1  1
 27 63  1  0
 27 64  1  0
 29 65  1  0
 30 66  1  0
 31 67  1  0
 32 68  1  0
 33 69  1  0
 35 70  1  0
 36 71  1  0
 41 72  1  0
 42 73  1  0
M  CHG  2  38   1  40  -1
M  END
>  <Binding energies>  (1) 
[-9.35]

>  <Ligand effiencies>  (1) 
[-0.2226190476190476]

>  <Interactions>  (1) 
["V-B:PRO:540:CB:9857, H-B:TYR:531:OH:9767, V-B:MET:535:CE:9807, V-A:ILE:369:CG2:3236, V-B:TYR:539:CD2:9846, V-B:PRO:540:N:9856, V-A:LEU:475:CD1:4257, V-B:PRO:540:CA:9855, V-B:PRO:540:C:9853, H-B:TYR:539:N:9842, V-B:ALA:541:CB:9864, V-B:TYR:539:CE2:9848, V-B:TYR:539:C:9839, V-A:PRO:482:CG:4326, V-A:PRO:482:CB:4325, H-A:TYR:484:OH:4347, V-A:ASP:366:CG:3212, H-A:GLY:454:N:4049, V-B:ASP:366:CG:8184, V-A:GLU:543:CD:4908, V-A:ILE:369:CD1:3238, V-B:TYR:539:CZ:9849, V-A:HIS:456:CE1:4069, V-A:ARG:545:CD:4923, V-B:GLU:543:CG:9879, V-B:GLU:543:CD:9880, V-A:ARG:545:CG:4922, V-A:ARG:545:CZ:4926, V-A:GLU:543:CB:4906, V-A:GLY:454:CA:4048, V-B:ALA:541:CA:9862, V-B:ASN:362:CB:8147"]

$$$$
RR9_Rahimova_2017
     RDKit          3D

 64 68  0  0  0  0  0  0  0  0999 V2000
  128.7480  125.4340   72.4660 C   0  0  0  0  0  0  0  0  0  0  0  0
  128.9260  126.9460   72.3010 C   0  0  0  0  0  0  0  0  0  0  0  0
  129.7330  127.1900   71.1520 O   0  0  0  0  0  0  0  0  0  0  0  0
  129.1260  127.4380   69.9370 C   0  0  0  0  0  0  0  0  0  0  0  0
  129.1260  128.7610   69.4990 C   0  0  0  0  0  0  0  0  0  0  0  0
  128.5350  129.1070   68.2870 C   0  0  0  0  0  0  0  0  0  0  0  0
  127.9260  128.1370   67.4780 C   0  0  0  0  0  0  0  0  0  0  0  0
  127.2840  128.5040   66.1730 C   0  0  0  0  0  0  0  0  0  0  0  0
  127.7480  127.9890   64.9530 C   0  0  0  0  0  0  0  0  0  0  0  0
  127.1340  128.3260   63.7340 C   0  0  0  0  0  0  0  0  0  0  0  0
  127.6140  127.6620   62.4720 C   0  0  0  0  0  0  0  0  0  0  0  0
  128.4000  128.2430   61.7230 O   0  0  0  0  0  0  0  0  0  0  0  0
  127.1100  126.4370   62.2270 N   0  0  0  0  0  0  0  0  0  0  0  0
  127.3210  125.6480   61.0090 C   0  0  0  0  0  0  0  0  0  0  0  0
  126.2020  124.6100   60.7570 C   0  0  0  0  0  0  0  0  0  0  0  0
  126.3170  123.8570   59.4370 C   0  0  0  0  0  0  0  0  0  0  0  0
  127.4750  123.1290   59.1430 C   0  0  0  0  0  0  0  0  0  0  0  0
  127.5630  122.4140   57.9520 C   0  0  0  0  0  0  0  0  0  0  0  0
  126.4960  122.4320   57.0560 C   0  0  0  0  0  0  0  0  0  0  0  0
  125.3410  123.1580   57.3400 C   0  0  0  0  0  0  0  0  0  0  0  0
  125.2520  123.8730   58.5330 C   0  0  0  0  0  0  0  0  0  0  0  0
  126.0510  129.2370   63.8080 C   0  0  0  0  0  0  0  0  0  0  0  0
  125.1380  129.9140   62.9180 C   0  0  0  0  0  0  0  0  0  0  0  0
  125.0950  129.9170   61.4250 C   0  0  0  0  0  0  0  0  0  0  0  0
  124.4170  130.9320   60.7430 C   0  0  0  0  0  0  0  0  0  0  0  0
  124.3650  130.9240   59.3510 C   0  0  0  0  0  0  0  0  0  0  0  0
  124.9940  129.9030   58.6370 C   0  0  0  0  0  0  0  0  0  0  0  0
  124.9210  129.8840   57.1200 C   0  0  0  0  0  0  0  0  0  0  0  0
  125.6700  128.8870   59.3140 C   0  0  0  0  0  0  0  0  0  0  0  0
  125.7230  128.8980   60.7050 C   0  0  0  0  0  0  0  0  0  0  0  0
  124.2680  130.6230   63.6010 N   0  0  0  0  0  0  0  0  0  0  0  0
  124.5760  130.5110   64.9030 N   0  0  0  0  0  0  0  0  0  0  0  0
  125.6610  129.6880   65.0920 C   0  0  0  0  0  0  0  0  0  0  0  0
  126.2300  129.3650   66.2520 N   0  0  0  0  0  0  0  0  0  0  0  0
  127.9280  126.8080   67.9260 C   0  0  0  0  0  0  0  0  0  0  0  0
  128.5200  126.4590   69.1380 C   0  0  0  0  0  0  0  0  0  0  0  0
  128.7184  125.1829   73.5366 H   0  0  0  0  0  0  0  0  0  0  0  0
  127.8069  125.1215   71.9900 H   0  0  0  0  0  0  0  0  0  0  0  0
  129.5908  124.9115   71.9900 H   0  0  0  0  0  0  0  0  0  0  0  0
  127.9430  127.4220   72.1704 H   0  0  0  0  0  0  0  0  0  0  0  0
  129.4112  127.3653   73.1948 H   0  0  0  0  0  0  0  0  0  0  0  0
  129.5975  129.5394   70.1169 H   0  0  0  0  0  0  0  0  0  0  0  0
  128.5459  130.1569   67.9591 H   0  0  0  0  0  0  0  0  0  0  0  0
  128.6109  127.3068   64.9503 H   0  0  0  0  0  0  0  0  0  0  0  0
  126.5390  126.0050   62.9400 H   0  0  0  0  0  0  0  0  0  0  0  0
  127.3620  126.3341   60.1502 H   0  0  0  0  0  0  0  0  0  0  0  0
  128.2614  125.0920   61.1372 H   0  0  0  0  0  0  0  0  0  0  0  0
  126.2268  123.8743   61.5744 H   0  0  0  0  0  0  0  0  0  0  0  0
  125.2591  125.1747   60.7113 H   0  0  0  0  0  0  0  0  0  0  0  0
  128.3154  123.1217   59.8527 H   0  0  0  0  0  0  0  0  0  0  0  0
  128.4705  121.8375   57.7192 H   0  0  0  0  0  0  0  0  0  0  0  0
  126.5662  121.8672   56.1147 H   0  0  0  0  0  0  0  0  0  0  0  0
  124.5039  123.1667   56.6264 H   0  0  0  0  0  0  0  0  0  0  0  0
  124.3438  124.4495   58.7627 H   0  0  0  0  0  0  0  0  0  0  0  0
  123.9240  131.7379   61.3064 H   0  0  0  0  0  0  0  0  0  0  0  0
  123.8289  131.7213   58.8153 H   0  0  0  0  0  0  0  0  0  0  0  0
  123.9010  129.6185   56.8053 H   0  0  0  0  0  0  0  0  0  0  0  0
  125.1784  130.8791   56.7280 H   0  0  0  0  0  0  0  0  0  0  0  0
  125.6308  129.1407   56.7280 H   0  0  0  0  0  0  0  0  0  0  0  0
  126.1597  128.0795   58.7499 H   0  0  0  0  0  0  0  0  0  0  0  0
  126.2614  128.1013   61.2392 H   0  0  0  0  0  0  0  0  0  0  0  0
  124.0330  130.9960   65.6040 H   0  0  0  0  0  0  0  0  0  0  0  0
  127.4546  126.0287   67.3107 H   0  0  0  0  0  0  0  0  0  0  0  0
  128.5117  125.4101   69.4693 H   0  0  0  0  0  0  0  0  0  0  0  0
  1  2  1  0
  2  3  1  0
  3  4  1  0
  4  5  2  0
  5  6  1  0
  6  7  2  0
  7  8  1  0
  8  9  2  0
  9 10  1  0
 10 11  1  0
 11 12  2  0
 11 13  1  0
 13 14  1  0
 14 15  1  0
 15 16  1  0
 16 17  2  0
 17 18  1  0
 18 19  2  0
 19 20  1  0
 20 21  2  0
 10 22  2  0
 22 23  1  0
 23 24  1  0
 24 25  2  0
 25 26  1  0
 26 27  2  0
 27 28  1  0
 27 29  1  0
 29 30  2  0
 23 31  2  0
 31 32  1  0
 32 33  1  0
 33 34  2  0
  7 35  1  0
 35 36  2  0
 36  4  1  0
 34  8  1  0
 21 16  1  0
 33 22  1  0
 30 24  1  0
  1 37  1  0
  1 38  1  0
  1 39  1  0
  2 40  1  0
  2 41  1  0
  5 42  1  0
  6 43  1  0
  9 44  1  0
 13 45  1  0
 14 46  1  0
 14 47  1  0
 15 48  1  0
 15 49  1  0
 17 50  1  0
 18 51  1  0
 19 52  1  0
 20 53  1  0
 21 54  1  0
 25 55  1  0
 26 56  1  0
 28 57  1  0
 28 58  1  0
 28 59  1  0
 29 60  1  0
 30 61  1  0
 32 62  1  0
 35 63  1  0
 36 64  1  0
M  END
>  <Binding energies>  (1) 
[-9.3]

>  <Ligand effiencies>  (1) 
[-0.24473684210526317]

>  <Interactions>  (1) 
["V-B:PRO:540:CB:9857, V-B:MET:535:CE:9807, V-B:PRO:540:N:9856, V-B:PRO:540:CA:9855, V-B:TYR:539:C:9839, V-B:TYR:531:CE2:9765, V-B:TYR:531:CZ:9766, V-B:LEU:363:CD1:8160, V-B:PRO:540:CD:9859, V-A:TYR:539:CZ:4877, V-A:TYR:539:CE1:4875, V-B:ASP:366:CG:8184, V-B:TYR:531:CE1:9764, H-B:GLY:454:N:9021, V-B:ASP:366:CB:8183, V-B:ASP:366:CA:8181, V-B:ILE:369:CD1:8210, V-A:GLU:543:CG:4907, V-B:GLY:454:CA:9020, V-A:GLU:543:CD:4908, H-B:TYR:484:OH:9319, V-A:GLU:543:C:4902, V-B:HIS:456:CE1:9041, V-A:HIS:456:CE1:4069, V-B:GLU:543:CB:9878, H-B:GLU:543:OE1:9881, V-B:GLU:543:CD:9880, H-B:GLU:543:OE2:9882, V-A:GLU:543:CB:4906, V-B:ILE:369:CG2:8208, V-B:TYR:484:CE2:9317, H-B:ASP:366:OD1:8185, V-B:ILE:369:CB:8207, V-B:HIS:456:CD2:9039, H-A:HIS:456:ND1:4066"]

$$$$
1a_Ghoteimi_2023
     RDKit          3D

 67 70  0  0  0  0  0  0  0  0999 V2000
  130.5920  132.1180   55.5340 C   0  0  0  0  0  0  0  0  0  0  0  0
  129.8370  131.5870   56.7560 C   0  0  0  0  0  0  0  0  0  0  0  0
  128.4370  131.6930   56.5270 O   0  0  0  0  0  0  0  0  0  0  0  0
  127.7730  130.7590   55.7990 C   0  0  0  0  0  0  0  0  0  0  0  0
  127.5630  130.8640   54.5860 O   0  0  0  0  0  0  0  0  0  0  0  0
  127.3220  129.5820   56.6150 C   0  0  0  0  0  0  0  0  0  0  0  0
  128.2060  128.5600   56.9940 C   0  0  0  0  0  0  0  0  0  0  0  0
  127.7580  127.4790   57.7490 C   0  0  0  0  0  0  0  0  0  0  0  0
  126.4140  127.4030   58.1420 C   0  0  0  0  0  0  0  0  0  0  0  0
  125.8540  126.3560   58.9000 N   0  0  0  0  0  0  0  0  0  0  0  0
  125.5620  125.0870   58.5390 C   0  0  0  0  0  0  0  0  0  0  0  0
  125.7600  124.5950   57.4290 O   0  0  0  0  0  0  0  0  0  0  0  0
  124.9400  124.2200   59.6340 C   0  0  0  0  0  0  0  0  0  0  0  0
  126.2080  123.3530   60.6060 S   0  0  0  0  0  0  0  0  0  0  0  0
  127.1010  124.6120   61.4880 C   0  0  0  0  0  0  0  0  0  0  0  0
  126.4560  125.8010   61.5530 N   0  0  0  0  0  0  0  0  0  0  0  0
  127.0300  126.8460   62.2050 C   0  0  0  0  0  0  0  0  0  0  0  0
  126.2420  128.1240   62.2520 C   0  0  0  0  0  0  0  0  0  0  0  0
  125.9250  128.7420   63.4730 C   0  0  0  0  0  0  0  0  0  0  0  0
  125.1960  129.9260   63.5120 C   0  0  0  0  0  0  0  0  0  0  0  0
  124.7590  130.5300   62.3360 C   0  0  0  0  0  0  0  0  0  0  0  0
  124.0440  131.7050   62.4700 O   0  0  0  0  0  0  0  0  0  0  0  0
  124.5580  132.9000   61.8930 C   0  0  0  0  0  0  0  0  0  0  0  0
  125.0640  129.9240   61.1090 C   0  0  0  0  0  0  0  0  0  0  0  0
  125.7930  128.7390   61.0730 C   0  0  0  0  0  0  0  0  0  0  0  0
  128.2850  126.7060   62.8090 C   0  0  0  0  0  0  0  0  0  0  0  0
  128.9830  125.4940   62.7340 C   0  0  0  0  0  0  0  0  0  0  0  0
  130.3320  125.4270   63.3740 C   0  0  0  0  0  0  0  0  0  0  0  0
  130.4780  125.5890   64.7560 C   0  0  0  0  0  0  0  0  0  0  0  0
  131.7360  125.5110   65.3470 C   0  0  0  0  0  0  0  0  0  0  0  0
  132.8690  125.2610   64.5730 C   0  0  0  0  0  0  0  0  0  0  0  0
  134.0730  125.2000   65.2460 O   0  0  0  0  0  0  0  0  0  0  0  0
  134.0880  125.3620   66.6600 C   0  0  0  0  0  0  0  0  0  0  0  0
  132.7250  125.0890   63.1870 C   0  0  0  0  0  0  0  0  0  0  0  0
  131.4660  125.1690   62.5980 C   0  0  0  0  0  0  0  0  0  0  0  0
  128.3770  124.4080   62.0570 C   0  0  0  0  0  0  0  0  0  0  0  0
  129.0520  123.1100   61.9580 C   0  0  0  0  0  0  0  0  0  0  0  0
  129.5850  122.0860   61.8810 N   0  0  0  0  0  0  0  0  0  0  0  0
  125.5320  128.4150   57.7630 C   0  0  0  0  0  0  0  0  0  0  0  0
  125.9810  129.4960   57.0090 C   0  0  0  0  0  0  0  0  0  0  0  0
  131.4497  132.7212   55.8665 H   0  0  0  0  0  0  0  0  0  0  0  0
  130.9510  131.2725   54.9289 H   0  0  0  0  0  0  0  0  0  0  0  0
  129.9176  132.7417   54.9289 H   0  0  0  0  0  0  0  0  0  0  0  0
  130.1032  130.5328   56.9227 H   0  0  0  0  0  0  0  0  0  0  0  0
  130.1107  132.1771   57.6430 H   0  0  0  0  0  0  0  0  0  0  0  0
  129.2624  128.6133   56.6919 H   0  0  0  0  0  0  0  0  0  0  0  0
  128.4600  126.6829   58.0378 H   0  0  0  0  0  0  0  0  0  0  0  0
  125.6780  126.5950   59.8640 H   0  0  0  0  0  0  0  0  0  0  0  0
  124.3524  124.8622   60.3066 H   0  0  0  0  0  0  0  0  0  0  0  0
  124.3012  123.4650   59.1524 H   0  0  0  0  0  0  0  0  0  0  0  0
  126.2590  128.2817   64.4145 H   0  0  0  0  0  0  0  0  0  0  0  0
  124.9624  130.3898   64.4817 H   0  0  0  0  0  0  0  0  0  0  0  0
  124.8566  133.5942   62.6924 H   0  0  0  0  0  0  0  0  0  0  0  0
  125.4324  132.6599   61.2703 H   0  0  0  0  0  0  0  0  0  0  0  0
  123.7823  133.3696   61.2703 H   0  0  0  0  0  0  0  0  0  0  0  0
  124.7255  130.3873   60.1705 H   0  0  0  0  0  0  0  0  0  0  0  0
  126.0217  128.2756   60.1020 H   0  0  0  0  0  0  0  0  0  0  0  0
  128.7276  127.5566   63.3481 H   0  0  0  0  0  0  0  0  0  0  0  0
  129.5924  125.7794   65.3800 H   0  0  0  0  0  0  0  0  0  0  0  0
  131.8373  125.6477   66.4338 H   0  0  0  0  0  0  0  0  0  0  0  0
  133.9969  124.3778   67.1428 H   0  0  0  0  0  0  0  0  0  0  0  0
  135.0337  125.8339   66.9650 H   0  0  0  0  0  0  0  0  0  0  0  0
  133.2450  125.9995   66.9650 H   0  0  0  0  0  0  0  0  0  0  0  0
  133.6098  124.8904   62.5644 H   0  0  0  0  0  0  0  0  0  0  0  0
  131.3625  125.0279   61.5120 H   0  0  0  0  0  0  0  0  0  0  0  0
  124.4748  128.3587   58.0617 H   0  0  0  0  0  0  0  0  0  0  0  0
  125.2761  130.2895   56.7203 H   0  0  0  0  0  0  0  0  0  0  0  0
  1  2  1  0
  2  3  1  0
  3  4  1  0
  4  5  2  0
  4  6  1  0
  6  7  2  0
  7  8  1  0
  8  9  2  0
  9 10  1  0
 10 11  1  0
 11 12  2  0
 11 13  1  0
 13 14  1  0
 14 15  1  0
 15 16  2  0
 16 17  1  0
 17 18  1  0
 18 19  2  0
 19 20  1  0
 20 21  2  0
 21 22  1  0
 22 23  1  0
 21 24  1  0
 24 25  2  0
 17 26  2  0
 26 27  1  0
 27 28  1  0
 28 29  2  0
 29 30  1  0
 30 31  2  0
 31 32  1  0
 32 33  1  0
 31 34  1  0
 34 35  2  0
 27 36  2  0
 36 37  1  0
 37 38  3  0
  9 39  1  0
 39 40  2  0
 40  6  1  0
 36 15  1  0
 25 18  1  0
 35 28  1  0
  1 41  1  0
  1 42  1  0
  1 43  1  0
  2 44  1  0
  2 45  1  0
  7 46  1  0
  8 47  1  0
 10 48  1  0
 13 49  1  0
 13 50  1  0
 19 51  1  0
 20 52  1  0
 23 53  1  0
 23 54  1  0
 23 55  1  0
 24 56  1  0
 25 57  1  0
 26 58  1  0
 29 59  1  0
 30 60  1  0
 33 61  1  0
 33 62  1  0
 33 63  1  0
 34 64  1  0
 35 65  1  0
 39 66  1  0
 40 67  1  0
M  END
>  <Binding energies>  (1) 
[-9.26]

>  <Ligand effiencies>  (1) 
[-0.22585365853658537]

>  <Interactions>  (1) 
["H-B:ALA:541:N:9863, V-B:PRO:540:CB:9857, H-B:TYR:531:OH:9767, V-B:TYR:531:CZ:9766, H-A:TYR:484:OH:4347, H-A:GLY:454:N:4049, V-A:ILE:538:CA:4860, V-A:ILE:538:CG2:4863, V-A:TYR:539:CZ:4877, V-A:TYR:539:CE1:4875, V-A:ILE:538:CB:4862, V-B:ASP:366:CG:8184, V-B:TYR:531:CE1:9764, H-B:LYS:534:NZ:9795, H-B:GLY:454:N:9021, V-B:ASP:366:CB:8183, V-B:ARG:545:CZ:9898, V-B:ILE:369:CD1:8210, H-B:ARG:545:NH2:9900, H-A:TYR:539:OH:4878, H-A:ARG:545:NH2:4928, V-A:TYR:484:CZ:4346, V-A:ARG:545:CD:4923, V-B:GLU:543:CD:9880, H-A:ARG:545:NE:4924, V-A:ARG:545:CG:4922, V-A:ARG:545:CZ:4926, H-A:ARG:545:NH1:4927, V-B:LEU:475:CD1:9229, V-B:ILE:369:CG2:8208, H-B:ASP:366:OD1:8185"]

$$$$
1a_Grossjean_2025
     RDKit          3D

 45 46  0  0  0  0  0  0  0  0999 V2000
  124.3760  123.7520   58.9120 C   0  0  0  0  0  0  0  0  0  0  0  0
  125.4830  124.5450   58.2120 C   0  0  0  0  0  0  0  0  0  0  0  0
  125.8390  123.8920   56.9990 O   0  0  0  0  0  0  0  0  0  0  0  0
  126.6450  122.7990   57.0020 C   0  0  0  0  0  0  0  0  0  0  0  0
  126.3190  121.7120   56.5150 O   0  0  0  0  0  0  0  0  0  0  0  0
  127.9680  123.0380   57.6720 C   0  0  0  0  0  0  0  0  0  0  0  0
  128.3440  122.2290   58.7510 C   0  0  0  0  0  0  0  0  0  0  0  0
  129.5620  122.4290   59.3950 C   0  0  0  0  0  0  0  0  0  0  0  0
  130.4260  123.4410   58.9770 C   0  0  0  0  0  0  0  0  0  0  0  0
  131.6290  123.5550   59.7020 N   0  0  0  0  0  0  0  0  0  0  0  0
  132.9080  123.4700   59.2800 C   0  0  0  0  0  0  0  0  0  0  0  0
  133.2660  123.2680   58.1200 O   0  0  0  0  0  0  0  0  0  0  0  0
  133.9700  123.6450   60.3680 C   0  0  0  0  0  0  0  0  0  0  0  0
  134.2070  122.1310   61.3440 S   0  0  0  0  0  0  0  0  0  0  0  0
  132.6200  121.3440   61.5050 C   0  0  0  0  0  0  0  0  0  0  0  0
  131.6820  122.1210   62.1040 N   0  0  0  0  0  0  0  0  0  0  0  0
  130.4380  121.6180   62.2820 C   0  0  0  0  0  0  0  0  0  0  0  0
  129.4470  122.5390   62.9700 C   0  0  0  0  0  0  0  0  0  0  0  0
  130.0770  120.3390   61.8660 C   0  0  0  0  0  0  0  0  0  0  0  0
  131.0300  119.5370   61.2280 C   0  0  0  0  0  0  0  0  0  0  0  0
  130.6080  118.1440   60.7670 C   0  0  0  0  0  0  0  0  0  0  0  0
  132.3360  120.0430   61.0280 C   0  0  0  0  0  0  0  0  0  0  0  0
  133.3370  119.2400   60.3200 C   0  0  0  0  0  0  0  0  0  0  0  0
  134.1250  118.6050   59.7600 N   0  0  0  0  0  0  0  0  0  0  0  0
  130.0610  124.2520   57.8920 C   0  0  0  0  0  0  0  0  0  0  0  0
  128.8430  124.0510   57.2490 C   0  0  0  0  0  0  0  0  0  0  0  0
  124.4963  123.8382   60.0020 H   0  0  0  0  0  0  0  0  0  0  0  0
  123.3951  124.1542   58.6185 H   0  0  0  0  0  0  0  0  0  0  0  0
  124.4412  122.6939   58.6185 H   0  0  0  0  0  0  0  0  0  0  0  0
  125.1226  125.5603   57.9899 H   0  0  0  0  0  0  0  0  0  0  0  0
  126.3634  124.6043   58.8688 H   0  0  0  0  0  0  0  0  0  0  0  0
  127.6714  121.4286   59.0928 H   0  0  0  0  0  0  0  0  0  0  0  0
  129.8451  121.7840   60.2399 H   0  0  0  0  0  0  0  0  0  0  0  0
  131.4980  123.7620   60.6810 H   0  0  0  0  0  0  0  0  0  0  0  0
  134.9247  123.9127   59.8916 H   0  0  0  0  0  0  0  0  0  0  0  0
  133.6277  124.4370   61.0503 H   0  0  0  0  0  0  0  0  0  0  0  0
  129.5520  122.4415   64.0606 H   0  0  0  0  0  0  0  0  0  0  0  0
  129.6468  123.5794   62.6740 H   0  0  0  0  0  0  0  0  0  0  0  0
  128.4240  122.2636   62.6740 H   0  0  0  0  0  0  0  0  0  0  0  0
  129.0569  119.9643   62.0365 H   0  0  0  0  0  0  0  0  0  0  0  0
  130.4159  117.5098   61.6450 H   0  0  0  0  0  0  0  0  0  0  0  0
  129.6925  118.2197   60.1619 H   0  0  0  0  0  0  0  0  0  0  0  0
  131.4116  117.6989   60.1619 H   0  0  0  0  0  0  0  0  0  0  0  0
  130.7384  125.0479   57.5489 H   0  0  0  0  0  0  0  0  0  0  0  0
  128.5631  124.6926   56.4005 H   0  0  0  0  0  0  0  0  0  0  0  0
  1  2  1  0
  2  3  1  0
  3  4  1  0
  4  5  2  0
  4  6  1  0
  6  7  2  0
  7  8  1  0
  8  9  2  0
  9 10  1  0
 10 11  1  0
 11 12  2  0
 11 13  1  0
 13 14  1  0
 14 15  1  0
 15 16  2  0
 16 17  1  0
 17 18  1  0
 17 19  2  0
 19 20  1  0
 20 21  1  0
 20 22  2  0
 22 23  1  0
 23 24  3  0
  9 25  1  0
 25 26  2  0
 26  6  1  0
 22 15  1  0
  1 27  1  0
  1 28  1  0
  1 29  1  0
  2 30  1  0
  2 31  1  0
  7 32  1  0
  8 33  1  0
 10 34  1  0
 13 35  1  0
 13 36  1  0
 18 37  1  0
 18 38  1  0
 18 39  1  0
 19 40  1  0
 21 41  1  0
 21 42  1  0
 21 43  1  0
 25 44  1  0
 26 45  1  0
M  END
>  <Binding energies>  (1) 
[-8.1]

>  <Ligand effiencies>  (1) 
[-0.3]

>  <Interactions>  (1) 
["V-B:PRO:540:CB:9857, H-B:TYR:531:OH:9767, V-B:MET:535:CE:9807, V-A:ILE:369:CG2:3236, V-B:TYR:539:CD2:9846, V-B:PRO:540:N:9856, V-A:LEU:475:CD1:4257, V-B:PRO:540:CA:9855, H-A:SER:385:OG:3409, H-A:HIS:383:NE2:3393, H-B:TYR:539:N:9842, V-B:ALA:541:CB:9864, V-B:TYR:539:CE2:9848, V-B:TYR:539:C:9839, V-B:TYR:531:CE2:9765, V-A:PRO:482:CG:4326, V-A:PRO:482:CB:4325, V-B:LEU:363:CD1:8160, V-A:ASP:366:CG:3212, V-A:ASP:366:CA:3209, H-B:TYR:539:OH:9850, V-A:ILE:369:CD1:3238, V-B:TYR:539:CZ:9849, V-B:LEU:363:CA:8156, V-A:ILE:369:CB:3235, V-B:ALA:541:CA:9862, V-B:LEU:363:CB:8158"]

$$$$
1aa_Ghoteimi_2023
     RDKit          3D

 67 70  0  0  0  0  0  0  0  0999 V2000
  129.1660  124.3310   72.8860 C   0  0  0  0  0  0  0  0  0  0  0  0
  129.4800  125.8150   73.0970 C   0  0  0  0  0  0  0  0  0  0  0  0
  128.6140  126.6020   72.2870 O   0  0  0  0  0  0  0  0  0  0  0  0
  129.0990  127.6070   71.5140 C   0  0  0  0  0  0  0  0  0  0  0  0
  129.4460  128.7040   71.9640 O   0  0  0  0  0  0  0  0  0  0  0  0
  129.1720  127.2540   70.0570 C   0  0  0  0  0  0  0  0  0  0  0  0
  129.3320  128.2320   69.0630 C   0  0  0  0  0  0  0  0  0  0  0  0
  129.3970  127.8750   67.7180 C   0  0  0  0  0  0  0  0  0  0  0  0
  129.3050  126.5260   67.3430 C   0  0  0  0  0  0  0  0  0  0  0  0
  129.3570  126.0490   66.0200 N   0  0  0  0  0  0  0  0  0  0  0  0
  130.4170  125.6980   65.2560 C   0  0  0  0  0  0  0  0  0  0  0  0
  131.5920  125.7360   65.6220 O   0  0  0  0  0  0  0  0  0  0  0  0
  130.1240  125.2130   63.8270 C   0  0  0  0  0  0  0  0  0  0  0  0
  128.7510  124.8210   63.7010 O   0  0  0  0  0  0  0  0  0  0  0  0
  127.9990  125.2390   62.6130 C   0  0  0  0  0  0  0  0  0  0  0  0
  127.4970  126.5050   62.6300 N   0  0  0  0  0  0  0  0  0  0  0  0
  126.7430  126.9470   61.5890 C   0  0  0  0  0  0  0  0  0  0  0  0
  126.2300  128.3550   61.6820 C   0  0  0  0  0  0  0  0  0  0  0  0
  125.8620  128.9090   62.9170 C   0  0  0  0  0  0  0  0  0  0  0  0
  125.3840  130.2140   63.0060 C   0  0  0  0  0  0  0  0  0  0  0  0
  125.2600  131.0040   61.8660 C   0  0  0  0  0  0  0  0  0  0  0  0
  124.7760  132.2850   62.0510 O   0  0  0  0  0  0  0  0  0  0  0  0
  125.0250  133.2710   61.0540 C   0  0  0  0  0  0  0  0  0  0  0  0
  125.6280  130.4670   60.6260 C   0  0  0  0  0  0  0  0  0  0  0  0
  126.1070  129.1630   60.5400 C   0  0  0  0  0  0  0  0  0  0  0  0
  126.4920  126.1200   60.4880 C   0  0  0  0  0  0  0  0  0  0  0  0
  127.0060  124.8160   60.4400 C   0  0  0  0  0  0  0  0  0  0  0  0
  126.7120  123.9870   59.2340 C   0  0  0  0  0  0  0  0  0  0  0  0
  127.7530  123.3660   58.5370 C   0  0  0  0  0  0  0  0  0  0  0  0
  127.4850  122.5840   57.4170 C   0  0  0  0  0  0  0  0  0  0  0  0
  126.1760  122.4010   56.9740 C   0  0  0  0  0  0  0  0  0  0  0  0
  126.0060  121.6100   55.8550 O   0  0  0  0  0  0  0  0  0  0  0  0
  125.0160  121.9650   54.8960 C   0  0  0  0  0  0  0  0  0  0  0  0
  125.1280  123.0160   57.6760 C   0  0  0  0  0  0  0  0  0  0  0  0
  125.3970  123.7990   58.7950 C   0  0  0  0  0  0  0  0  0  0  0  0
  127.7730  124.3620   61.5390 C   0  0  0  0  0  0  0  0  0  0  0  0
  128.3130  123.0030   61.5990 C   0  0  0  0  0  0  0  0  0  0  0  0
  128.7410  121.9290   61.6480 N   0  0  0  0  0  0  0  0  0  0  0  0
  129.1440  125.5520   68.3290 C   0  0  0  0  0  0  0  0  0  0  0  0
  129.0790  125.9100   69.6720 C   0  0  0  0  0  0  0  0  0  0  0  0
  129.0612  123.8359   73.8627 H   0  0  0  0  0  0  0  0  0  0  0  0
  128.2269  124.2315   72.3219 H   0  0  0  0  0  0  0  0  0  0  0  0
  129.9843  123.8597   72.3219 H   0  0  0  0  0  0  0  0  0  0  0  0
  129.3294  126.0750   74.1552 H   0  0  0  0  0  0  0  0  0  0  0  0
  130.5251  126.0126   72.8165 H   0  0  0  0  0  0  0  0  0  0  0  0
  129.4069  129.2915   69.3491 H   0  0  0  0  0  0  0  0  0  0  0  0
  129.5206  128.6517   66.9489 H   0  0  0  0  0  0  0  0  0  0  0  0
  128.4510  125.9510   65.5830 H   0  0  0  0  0  0  0  0  0  0  0  0
  130.3344  126.0274   63.1181 H   0  0  0  0  0  0  0  0  0  0  0  0
  130.7631  124.3449   63.6081 H   0  0  0  0  0  0  0  0  0  0  0  0
  125.9525  128.3026   63.8303 H   0  0  0  0  0  0  0  0  0  0  0  0
  125.1016  130.6248   63.9866 H   0  0  0  0  0  0  0  0  0  0  0  0
  125.2669  134.2288   61.5379 H   0  0  0  0  0  0  0  0  0  0  0  0
  125.8710  132.9530   60.4270 H   0  0  0  0  0  0  0  0  0  0  0  0
  124.1294  133.3928   60.4270 H   0  0  0  0  0  0  0  0  0  0  0  0
  125.5381  131.0785   59.7160 H   0  0  0  0  0  0  0  0  0  0  0  0
  126.3947  128.7576   59.5588 H   0  0  0  0  0  0  0  0  0  0  0  0
  125.8852  126.4968   59.6515 H   0  0  0  0  0  0  0  0  0  0  0  0
  128.7913  123.4964   58.8762 H   0  0  0  0  0  0  0  0  0  0  0  0
  128.3147  122.1055   56.8760 H   0  0  0  0  0  0  0  0  0  0  0  0
  124.1032  122.2923   55.4153 H   0  0  0  0  0  0  0  0  0  0  0  0
  125.3930  122.7840   54.2658 H   0  0  0  0  0  0  0  0  0  0  0  0
  124.7867  121.0931   54.2658 H   0  0  0  0  0  0  0  0  0  0  0  0
  124.0894  122.8787   57.3405 H   0  0  0  0  0  0  0  0  0  0  0  0
  124.5677  124.2745   59.3393 H   0  0  0  0  0  0  0  0  0  0  0  0
  129.0679  124.4927   68.0424 H   0  0  0  0  0  0  0  0  0  0  0  0
  128.9535  125.1309   70.4383 H   0  0  0  0  0  0  0  0  0  0  0  0
  1  2  1  0
  2  3  1  0
  3  4  1  0
  4  5  2  0
  4  6  1  0
  6  7  2  0
  7  8  1  0
  8  9  2  0
  9 10  1  0
 10 11  1  0
 11 12  2  0
 11 13  1  0
 13 14  1  0
 14 15  1  0
 15 16  2  0
 16 17  1  0
 17 18  1  0
 18 19  2  0
 19 20  1  0
 20 21  2  0
 21 22  1  0
 22 23  1  0
 21 24  1  0
 24 25  2  0
 17 26  2  0
 26 27  1  0
 27 28  1  0
 28 29  2  0
 29 30  1  0
 30 31  2  0
 31 32  1  0
 32 33  1  0
 31 34  1  0
 34 35  2  0
 27 36  2  0
 36 37  1  0
 37 38  3  0
  9 39  1  0
 39 40  2  0
 40  6  1  0
 36 15  1  0
 25 18  1  0
 35 28  1  0
  1 41  1  0
  1 42  1  0
  1 43  1  0
  2 44  1  0
  2 45  1  0
  7 46  1  0
  8 47  1  0
 10 48  1  0
 13 49  1  0
 13 50  1  0
 19 51  1  0
 20 52  1  0
 23 53  1  0
 23 54  1  0
 23 55  1  0
 24 56  1  0
 25 57  1  0
 26 58  1  0
 29 59  1  0
 30 60  1  0
 33 61  1  0
 33 62  1  0
 33 63  1  0
 34 64  1  0
 35 65  1  0
 39 66  1  0
 40 67  1  0
M  END
>  <Binding energies>  (1) 
[-8.8]

>  <Ligand effiencies>  (1) 
[-0.21463414634146344]

>  <Interactions>  (1) 
["H-B:ALA:541:N:9863, V-B:PRO:540:CB:9857, V-B:MET:535:CE:9807, V-B:PRO:540:N:9856, V-B:PRO:540:CA:9855, H-B:TYR:539:N:9842, V-B:MET:535:CG:9805, V-B:TYR:539:C:9839, V-B:LEU:363:CD1:8160, H-A:TYR:484:OH:4347, V-B:PRO:540:CD:9859, V-B:ASP:366:CG:8184, V-B:ARG:545:CZ:9898, V-A:GLU:543:CD:4908, H-B:ARG:545:NH2:9900, V-A:GLU:543:C:4902, V-B:HIS:456:CE1:9041, V-A:HIS:456:CE1:4069, V-B:GLU:543:CB:9878, V-B:GLU:543:CG:9879, V-B:GLU:543:CD:9880, H-B:GLU:543:OE2:9882, V-A:GLU:543:CB:4906, V-A:TYR:484:CE2:4345, V-B:ILE:369:CG2:8208, V-B:ILE:538:CA:9832, V-B:ILE:538:CG1:9836, V-B:ILE:538:CG2:9835, V-B:ILE:538:CB:9834, V-B:GLU:543:CA:9876, V-B:GLU:543:C:9874, H-A:GLU:543:OE1:4909, V-B:MET:535:CB:9804, V-B:HIS:456:CD2:9039, V-A:HIS:456:CD2:4067"]

$$$$
1b_Ghoteimi_2023
     RDKit          3D

 54 57  0  0  0  0  0  0  0  0999 V2000
  133.9240  125.4220   66.2800 C   0  0  0  0  0  0  0  0  0  0  0  0
  133.9680  125.0010   64.9220 O   0  0  0  0  0  0  0  0  0  0  0  0
  132.9310  125.3460   64.0770 C   0  0  0  0  0  0  0  0  0  0  0  0
  133.0980  125.0410   62.7270 C   0  0  0  0  0  0  0  0  0  0  0  0
  132.1070  125.3530   61.8010 C   0  0  0  0  0  0  0  0  0  0  0  0
  130.9150  125.9760   62.1970 C   0  0  0  0  0  0  0  0  0  0  0  0
  129.8470  126.3130   61.1940 C   0  0  0  0  0  0  0  0  0  0  0  0
  129.2240  125.3500   60.3930 C   0  0  0  0  0  0  0  0  0  0  0  0
  128.2320  125.7160   59.4750 C   0  0  0  0  0  0  0  0  0  0  0  0
  127.6130  124.6360   58.6500 C   0  0  0  0  0  0  0  0  0  0  0  0
  128.4190  123.7410   57.9410 C   0  0  0  0  0  0  0  0  0  0  0  0
  127.8480  122.7380   57.1630 C   0  0  0  0  0  0  0  0  0  0  0  0
  126.4610  122.6110   57.0760 C   0  0  0  0  0  0  0  0  0  0  0  0
  125.9830  121.5870   56.2810 O   0  0  0  0  0  0  0  0  0  0  0  0
  125.1220  121.8990   55.1920 C   0  0  0  0  0  0  0  0  0  0  0  0
  125.6480  123.5120   57.7800 C   0  0  0  0  0  0  0  0  0  0  0  0
  126.2230  124.5150   58.5560 C   0  0  0  0  0  0  0  0  0  0  0  0
  127.8660  127.0820   59.3870 C   0  0  0  0  0  0  0  0  0  0  0  0
  126.7670  127.5030   58.5120 C   0  0  0  0  0  0  0  0  0  0  0  0
  125.9000  127.8340   57.8210 N   0  0  0  0  0  0  0  0  0  0  0  0
  128.5490  128.0060   60.2090 C   0  0  0  0  0  0  0  0  0  0  0  0
  128.2290  129.7580   60.2260 S   0  0  0  0  0  0  0  0  0  0  0  0
  129.5950  130.5860   59.3440 C   0  0  0  0  0  0  0  0  0  0  0  0
  129.3880  130.7490   57.8320 C   0  0  0  0  0  0  0  0  0  0  0  0
  130.0060  131.6090   57.2000 O   0  0  0  0  0  0  0  0  0  0  0  0
  128.4960  129.8900   57.2900 N   0  0  0  0  0  0  0  0  0  0  0  0
  128.1130  129.8050   55.9560 C   0  0  0  0  0  0  0  0  0  0  0  0
  128.5330  128.7830   55.1070 C   0  0  0  0  0  0  0  0  0  0  0  0
  127.9430  129.0590   53.8950 C   0  0  0  0  0  0  0  0  0  0  0  0
  127.2030  130.1880   54.0100 O   0  0  0  0  0  0  0  0  0  0  0  0
  127.3190  130.6520   55.3210 N   0  0  0  0  0  0  0  0  0  0  0  0
  129.4960  127.6220   61.0990 N   0  0  0  0  0  0  0  0  0  0  0  0
  130.7580  126.2800   63.5590 C   0  0  0  0  0  0  0  0  0  0  0  0
  131.7470  125.9710   64.4880 C   0  0  0  0  0  0  0  0  0  0  0  0
  134.0156  124.5458   66.9387 H   0  0  0  0  0  0  0  0  0  0  0  0
  134.7545  126.1163   66.4757 H   0  0  0  0  0  0  0  0  0  0  0  0
  132.9679  125.9295   66.4757 H   0  0  0  0  0  0  0  0  0  0  0  0
  134.0223  124.5488   62.3903 H   0  0  0  0  0  0  0  0  0  0  0  0
  132.2616  125.1066   60.7402 H   0  0  0  0  0  0  0  0  0  0  0  0
  129.5166  124.2937   60.4853 H   0  0  0  0  0  0  0  0  0  0  0  0
  129.5139  123.8300   57.9983 H   0  0  0  0  0  0  0  0  0  0  0  0
  128.4953  122.0397   56.6122 H   0  0  0  0  0  0  0  0  0  0  0  0
  124.1539  122.2498   55.5789 H   0  0  0  0  0  0  0  0  0  0  0  0
  125.5792  122.6886   54.5776 H   0  0  0  0  0  0  0  0  0  0  0  0
  124.9673  120.9998   54.5776 H   0  0  0  0  0  0  0  0  0  0  0  0
  124.5531  123.4258   57.7187 H   0  0  0  0  0  0  0  0  0  0  0  0
  125.5772  125.2194   59.1007 H   0  0  0  0  0  0  0  0  0  0  0  0
  129.7252  131.5874   59.7803 H   0  0  0  0  0  0  0  0  0  0  0  0
  130.4757  129.9382   59.4651 H   0  0  0  0  0  0  0  0  0  0  0  0
  128.0610  129.2220   57.9090 H   0  0  0  0  0  0  0  0  0  0  0  0
  129.1934  127.9383   55.3526 H   0  0  0  0  0  0  0  0  0  0  0  0
  128.0543  128.4592   52.9796 H   0  0  0  0  0  0  0  0  0  0  0  0
  129.8347  126.7723   63.8984 H   0  0  0  0  0  0  0  0  0  0  0  0
  131.5982  126.2186   65.5494 H   0  0  0  0  0  0  0  0  0  0  0  0
  1  2  1  0
  2  3  1  0
  3  4  2  0
  4  5  1  0
  5  6  2  0
  6  7  1  0
  7  8  2  0
  8  9  1  0
  9 10  1  0
 10 11  2  0
 11 12  1  0
 12 13  2  0
 13 14  1  0
 14 15  1  0
 13 16  1  0
 16 17  2  0
  9 18  2  0
 18 19  1  0
 19 20  3  0
 18 21  1  0
 21 22  1  0
 22 23  1  0
 23 24  1  0
 24 25  2  0
 24 26  1  0
 26 27  1  0
 27 28  1  0
 28 29  2  0
 29 30  1  0
 30 31  1  0
 21 32  2  0
  6 33  1  0
 33 34  2  0
 34  3  1  0
 32  7  1  0
 17 10  1  0
 31 27  2  0
  1 35  1  0
  1 36  1  0
  1 37  1  0
  4 38  1  0
  5 39  1  0
  8 40  1  0
 11 41  1  0
 12 42  1  0
 15 43  1  0
 15 44  1  0
 15 45  1  0
 16 46  1  0
 17 47  1  0
 23 48  1  0
 23 49  1  0
 26 50  1  0
 28 51  1  0
 29 52  1  0
 33 53  1  0
 34 54  1  0
M  END
>  <Binding energies>  (1) 
[-8.21]

>  <Ligand effiencies>  (1) 
[-0.2345714285714286]

>  <Interactions>  (1) 
["V-B:PRO:540:CB:9857, H-B:TYR:531:OH:9767, V-B:MET:535:CE:9807, V-B:PRO:540:N:9856, V-B:PRO:540:CA:9855, H-B:TYR:539:N:9842, V-B:MET:535:CG:9805, V-B:TYR:539:C:9839, V-B:TYR:531:CZ:9766, V-B:LEU:363:CD1:8160, H-A:TYR:484:OH:4347, V-A:ASP:366:CG:3212, H-A:GLY:454:N:4049, V-B:TYR:531:CE1:9764, H-B:LYS:534:NZ:9795, V-A:GLU:543:CD:4908, H-A:TYR:539:OH:4878, H-A:ARG:545:NH2:4928, V-A:ARG:545:CD:4923, H-A:ARG:545:NE:4924, V-A:ARG:545:CG:4922, V-A:ARG:545:CZ:4926, H-A:ARG:545:NH1:4927, V-B:LYS:534:CE:9794, V-B:LYS:534:CD:9793, V-B:ILE:538:CA:9832, V-B:ILE:538:CG1:9836, V-B:ILE:538:CG2:9835, V-B:ILE:538:CB:9834"]

$$$$
1b_Grossjean_2025
     RDKit          3D

 42 43  0  0  0  0  0  0  0  0999 V2000
  125.0140  124.2240   58.0920 C   0  0  0  0  0  0  0  0  0  0  0  0
  125.8550  123.9150   56.9900 O   0  0  0  0  0  0  0  0  0  0  0  0
  126.6340  122.8030   56.9960 C   0  0  0  0  0  0  0  0  0  0  0  0
  126.3020  121.7360   56.4690 O   0  0  0  0  0  0  0  0  0  0  0  0
  127.9450  123.0000   57.7030 C   0  0  0  0  0  0  0  0  0  0  0  0
  128.2660  122.3060   58.8790 C   0  0  0  0  0  0  0  0  0  0  0  0
  129.4890  122.5130   59.5100 C   0  0  0  0  0  0  0  0  0  0  0  0
  130.4150  123.4120   58.9820 C   0  0  0  0  0  0  0  0  0  0  0  0
  131.6170  123.5420   59.7030 N   0  0  0  0  0  0  0  0  0  0  0  0
  132.8980  123.5040   59.2750 C   0  0  0  0  0  0  0  0  0  0  0  0
  133.2580  123.3450   58.1090 O   0  0  0  0  0  0  0  0  0  0  0  0
  133.9580  123.6890   60.3620 C   0  0  0  0  0  0  0  0  0  0  0  0
  134.2200  122.1710   61.3290 S   0  0  0  0  0  0  0  0  0  0  0  0
  132.6410  121.3660   61.4920 C   0  0  0  0  0  0  0  0  0  0  0  0
  131.7180  122.1020   62.1590 N   0  0  0  0  0  0  0  0  0  0  0  0
  130.4800  121.5850   62.3390 C   0  0  0  0  0  0  0  0  0  0  0  0
  129.4960  122.4710   63.0810 C   0  0  0  0  0  0  0  0  0  0  0  0
  130.1190  120.3220   61.8750 C   0  0  0  0  0  0  0  0  0  0  0  0
  131.0700  119.5460   61.2060 C   0  0  0  0  0  0  0  0  0  0  0  0
  130.6560  118.1580   60.7210 C   0  0  0  0  0  0  0  0  0  0  0  0
  132.3690  120.0650   61.0060 C   0  0  0  0  0  0  0  0  0  0  0  0
  133.3950  119.2540   60.3460 C   0  0  0  0  0  0  0  0  0  0  0  0
  134.2030  118.6100   59.8240 N   0  0  0  0  0  0  0  0  0  0  0  0
  130.1020  124.1100   57.8060 C   0  0  0  0  0  0  0  0  0  0  0  0
  128.8780  123.9020   57.1750 C   0  0  0  0  0  0  0  0  0  0  0  0
  125.5522  124.0263   59.0307 H   0  0  0  0  0  0  0  0  0  0  0  0
  124.7290  125.2856   58.0494 H   0  0  0  0  0  0  0  0  0  0  0  0
  124.1095  123.5995   58.0494 H   0  0  0  0  0  0  0  0  0  0  0  0
  127.5455  121.5927   59.3057 H   0  0  0  0  0  0  0  0  0  0  0  0
  129.7271  121.9631   60.4325 H   0  0  0  0  0  0  0  0  0  0  0  0
  131.4860  123.6720   60.6960 H   0  0  0  0  0  0  0  0  0  0  0  0
  134.9077  123.9746   59.8861 H   0  0  0  0  0  0  0  0  0  0  0  0
  133.6045  124.4714   61.0496 H   0  0  0  0  0  0  0  0  0  0  0  0
  129.6351  122.3458   64.1650 H   0  0  0  0  0  0  0  0  0  0  0  0
  129.6709  123.5221   62.8079 H   0  0  0  0  0  0  0  0  0  0  0  0
  128.4689  122.1872   62.8079 H   0  0  0  0  0  0  0  0  0  0  0  0
  129.0994  119.9405   62.0329 H   0  0  0  0  0  0  0  0  0  0  0  0
  130.4625  117.5093   61.5880 H   0  0  0  0  0  0  0  0  0  0  0  0
  129.7430  118.2393   60.1129 H   0  0  0  0  0  0  0  0  0  0  0  0
  131.4644  117.7259   60.1129 H   0  0  0  0  0  0  0  0  0  0  0  0
  130.8245  124.8227   57.3816 H   0  0  0  0  0  0  0  0  0  0  0  0
  128.6412  124.4518   56.2522 H   0  0  0  0  0  0  0  0  0  0  0  0
  1  2  1  0
  2  3  1  0
  3  4  2  0
  3  5  1  0
  5  6  2  0
  6  7  1  0
  7  8  2  0
  8  9  1  0
  9 10  1  0
 10 11  2  0
 10 12  1  0
 12 13  1  0
 13 14  1  0
 14 15  2  0
 15 16  1  0
 16 17  1  0
 16 18  2  0
 18 19  1  0
 19 20  1  0
 19 21  2  0
 21 22  1  0
 22 23  3  0
  8 24  1  0
 24 25  2  0
 25  5  1  0
 21 14  1  0
  1 26  1  0
  1 27  1  0
  1 28  1  0
  6 29  1  0
  7 30  1  0
  9 31  1  0
 12 32  1  0
 12 33  1  0
 17 34  1  0
 17 35  1  0
 17 36  1  0
 18 37  1  0
 20 38  1  0
 20 39  1  0
 20 40  1  0
 24 41  1  0
 25 42  1  0
M  END
>  <Binding energies>  (1) 
[-7.85]

>  <Ligand effiencies>  (1) 
[-0.3019230769230769]

>  <Interactions>  (1) 
["H-B:TYR:531:OH:9767, V-B:MET:535:CE:9807, V-A:ILE:369:CG2:3236, V-B:TYR:539:CD2:9846, V-B:PRO:540:N:9856, V-A:LEU:475:CD1:4257, V-B:PRO:540:CA:9855, H-A:SER:385:OG:3409, H-A:HIS:383:NE2:3393, H-B:TYR:539:N:9842, V-B:ALA:541:CB:9864, V-B:TYR:539:CE2:9848, V-B:TYR:539:C:9839, V-B:TYR:531:CE2:9765, V-A:PRO:482:CG:4326, V-B:LEU:363:CD1:8160, V-A:ASP:366:CG:3212, V-A:ASP:366:CA:3209, H-B:TYR:539:OH:9850, V-A:ILE:369:CD1:3238, V-B:TYR:539:CZ:9849, V-B:ALA:541:CA:9862"]

$$$$
1c_Ghoteimi_2023
     RDKit          3D

 54 57  0  0  0  0  0  0  0  0999 V2000
  133.9980  125.3720   66.6220 C   0  0  0  0  0  0  0  0  0  0  0  0
  133.9760  124.9020   65.2790 O   0  0  0  0  0  0  0  0  0  0  0  0
  132.8910  125.2020   64.4760 C   0  0  0  0  0  0  0  0  0  0  0  0
  133.1000  125.1590   63.1010 C   0  0  0  0  0  0  0  0  0  0  0  0
  132.0640  125.4490   62.2170 C   0  0  0  0  0  0  0  0  0  0  0  0
  130.7860  125.7920   62.6850 C   0  0  0  0  0  0  0  0  0  0  0  0
  129.6670  126.1110   61.7360 C   0  0  0  0  0  0  0  0  0  0  0  0
  129.1990  125.1980   60.7850 C   0  0  0  0  0  0  0  0  0  0  0  0
  128.1340  125.5310   59.9390 C   0  0  0  0  0  0  0  0  0  0  0  0
  127.6420  124.4840   58.9950 C   0  0  0  0  0  0  0  0  0  0  0  0
  126.2770  124.2050   58.8910 C   0  0  0  0  0  0  0  0  0  0  0  0
  125.8220  123.2140   58.0260 C   0  0  0  0  0  0  0  0  0  0  0  0
  126.7230  122.4820   57.2520 C   0  0  0  0  0  0  0  0  0  0  0  0
  126.1820  121.5190   56.4220 O   0  0  0  0  0  0  0  0  0  0  0  0
  125.3410  121.9220   55.3460 C   0  0  0  0  0  0  0  0  0  0  0  0
  128.0950  122.7550   57.3590 C   0  0  0  0  0  0  0  0  0  0  0  0
  128.5470  123.7470   58.2250 C   0  0  0  0  0  0  0  0  0  0  0  0
  127.5640  126.8210   60.0500 C   0  0  0  0  0  0  0  0  0  0  0  0
  126.4680  127.2430   59.1700 C   0  0  0  0  0  0  0  0  0  0  0  0
  125.6040  127.5740   58.4760 N   0  0  0  0  0  0  0  0  0  0  0  0
  128.0730  127.6850   61.0420 C   0  0  0  0  0  0  0  0  0  0  0  0
  127.3430  129.2670   61.4050 S   0  0  0  0  0  0  0  0  0  0  0  0
  128.5460  130.0970   62.4930 C   0  0  0  0  0  0  0  0  0  0  0  0
  129.6720  130.7710   61.7020 C   0  0  0  0  0  0  0  0  0  0  0  0
  129.8580  131.9830   61.8220 O   0  0  0  0  0  0  0  0  0  0  0  0
  130.4210  129.9410   60.9440 N   0  0  0  0  0  0  0  0  0  0  0  0
  131.5810  130.2650   60.2590 C   0  0  0  0  0  0  0  0  0  0  0  0
  131.7960  130.2100   58.9620 N   0  0  0  0  0  0  0  0  0  0  0  0
  133.0070  130.6320   58.6540 C   0  0  0  0  0  0  0  0  0  0  0  0
  133.8040  131.0440   59.7170 C   0  0  0  0  0  0  0  0  0  0  0  0
  132.9110  130.8620   61.1980 S   0  0  0  0  0  0  0  0  0  0  0  0
  129.0890  127.3340   61.8650 N   0  0  0  0  0  0  0  0  0  0  0  0
  130.5850  125.8260   64.0730 C   0  0  0  0  0  0  0  0  0  0  0  0
  131.6180  125.5380   64.9590 C   0  0  0  0  0  0  0  0  0  0  0  0
  133.9579  124.5154   67.3109 H   0  0  0  0  0  0  0  0  0  0  0  0
  134.9237  125.9400   66.7966 H   0  0  0  0  0  0  0  0  0  0  0  0
  133.1294  126.0239   66.7966 H   0  0  0  0  0  0  0  0  0  0  0  0
  134.0928  124.8935   62.7087 H   0  0  0  0  0  0  0  0  0  0  0  0
  132.2503  125.4086   61.1336 H   0  0  0  0  0  0  0  0  0  0  0  0
  129.6723  124.2086   60.7009 H   0  0  0  0  0  0  0  0  0  0  0  0
  125.5562  124.7730   59.4975 H   0  0  0  0  0  0  0  0  0  0  0  0
  124.7443  123.0064   57.9521 H   0  0  0  0  0  0  0  0  0  0  0  0
  124.4177  122.3644   55.7482 H   0  0  0  0  0  0  0  0  0  0  0  0
  125.8659  122.6664   54.7293 H   0  0  0  0  0  0  0  0  0  0  0  0
  125.0897  121.0465   54.7293 H   0  0  0  0  0  0  0  0  0  0  0  0
  128.8162  122.1832   56.7565 H   0  0  0  0  0  0  0  0  0  0  0  0
  129.6247  123.9526   58.3041 H   0  0  0  0  0  0  0  0  0  0  0  0
  128.0207  130.8620   63.0836 H   0  0  0  0  0  0  0  0  0  0  0  0
  128.9991  129.3325   63.1412 H   0  0  0  0  0  0  0  0  0  0  0  0
  130.1590  128.9670   60.9250 H   0  0  0  0  0  0  0  0  0  0  0  0
  133.3666  130.6568   57.6147 H   0  0  0  0  0  0  0  0  0  0  0  0
  134.8331  131.4237   59.6341 H   0  0  0  0  0  0  0  0  0  0  0  0
  129.5917  126.0853   64.4682 H   0  0  0  0  0  0  0  0  0  0  0  0
  131.4356  125.5740   66.0432 H   0  0  0  0  0  0  0  0  0  0  0  0
  1  2  1  0
  2  3  1  0
  3  4  2  0
  4  5  1  0
  5  6  2  0
  6  7  1  0
  7  8  2  0
  8  9  1  0
  9 10  1  0
 10 11  2  0
 11 12  1  0
 12 13  2  0
 13 14  1  0
 14 15  1  0
 13 16  1  0
 16 17  2  0
  9 18  2  0
 18 19  1  0
 19 20  3  0
 18 21  1  0
 21 22  1  0
 22 23  1  0
 23 24  1  0
 24 25  2  0
 24 26  1  0
 26 27  1  0
 27 28  2  0
 28 29  1  0
 29 30  2  0
 30 31  1  0
 21 32  2  0
  6 33  1  0
 33 34  2  0
 34  3  1  0
 32  7  1  0
 17 10  1  0
 31 27  1  0
  1 35  1  0
  1 36  1  0
  1 37  1  0
  4 38  1  0
  5 39  1  0
  8 40  1  0
 11 41  1  0
 12 42  1  0
 15 43  1  0
 15 44  1  0
 15 45  1  0
 16 46  1  0
 17 47  1  0
 23 48  1  0
 23 49  1  0
 26 50  1  0
 29 51  1  0
 30 52  1  0
 33 53  1  0
 34 54  1  0
M  END
>  <Binding energies>  (1) 
[-8.53]

>  <Ligand effiencies>  (1) 
[-0.2437142857142857]

>  <Interactions>  (1) 
["V-B:PRO:540:CB:9857, H-B:TYR:531:OH:9767, V-B:MET:535:CE:9807, V-B:PRO:540:N:9856, V-B:PRO:540:CA:9855, H-B:TYR:539:N:9842, V-B:TYR:539:CE2:9848, V-B:MET:535:CG:9805, V-B:TYR:539:C:9839, V-B:LEU:363:CD1:8160, H-A:TYR:484:OH:4347, V-A:ASP:366:CG:3212, H-A:GLY:454:N:4049, V-A:ASP:366:CB:3211, V-A:PRO:540:CA:4883, V-A:PRO:540:CB:4885, V-B:ASP:366:CG:8184, V-B:ASP:366:CB:8183, V-A:LEU:363:CD1:3188, V-A:GLU:543:CD:4908, H-A:ASP:366:OD2:3214, V-B:TYR:539:CZ:9849, V-A:TYR:484:CZ:4346, V-A:ARG:545:CD:4923, H-A:ARG:545:NE:4924, V-A:ARG:545:CG:4922, V-A:ARG:545:CZ:4926, H-A:ALA:541:N:4891, V-A:LEU:363:CA:3184, V-A:LEU:363:CB:3186, V-B:ILE:538:CA:9832, V-B:ILE:538:CG1:9836, V-B:ILE:538:CG2:9835, V-B:ILE:538:CB:9834, H-A:GLU:543:OE2:4910, V-A:ASN:362:CB:3175, V-A:ASN:362:C:3171"]

$$$$
1c_Grossjean_2025
     RDKit          3D

 40 41  0  0  0  0  0  0  0  0999 V2000
  124.0710  130.3330   62.9680 C   0  0  0  0  0  0  0  0  0  0  0  0
  124.3190  130.5340   64.3560 O   0  0  0  0  0  0  0  0  0  0  0  0
  125.3030  129.7900   64.9780 C   0  0  0  0  0  0  0  0  0  0  0  0
  126.5590  129.7880   64.3710 C   0  0  0  0  0  0  0  0  0  0  0  0
  127.6150  129.0690   64.9230 C   0  0  0  0  0  0  0  0  0  0  0  0
  127.4250  128.3420   66.1080 C   0  0  0  0  0  0  0  0  0  0  0  0
  128.4190  127.5740   66.7450 N   0  0  0  0  0  0  0  0  0  0  0  0
  128.3130  126.7420   67.8030 C   0  0  0  0  0  0  0  0  0  0  0  0
  127.2730  126.4870   68.4090 O   0  0  0  0  0  0  0  0  0  0  0  0
  129.6170  126.0760   68.2470 C   0  0  0  0  0  0  0  0  0  0  0  0
  131.0650  126.8120   67.4320 S   0  0  0  0  0  0  0  0  0  0  0  0
  131.2260  126.0900   65.8120 C   0  0  0  0  0  0  0  0  0  0  0  0
  130.0720  126.1080   65.0960 N   0  0  0  0  0  0  0  0  0  0  0  0
  130.0720  125.5850   63.8480 C   0  0  0  0  0  0  0  0  0  0  0  0
  128.7500  125.6500   63.1060 C   0  0  0  0  0  0  0  0  0  0  0  0
  131.2060  125.0200   63.2690 C   0  0  0  0  0  0  0  0  0  0  0  0
  132.3940  124.9740   64.0060 C   0  0  0  0  0  0  0  0  0  0  0  0
  133.6190  124.3330   63.3570 C   0  0  0  0  0  0  0  0  0  0  0  0
  132.4170  125.5120   65.3140 C   0  0  0  0  0  0  0  0  0  0  0  0
  133.6370  125.4240   66.1210 C   0  0  0  0  0  0  0  0  0  0  0  0
  134.6000  125.3550   66.7580 N   0  0  0  0  0  0  0  0  0  0  0  0
  126.1670  128.3330   66.7120 C   0  0  0  0  0  0  0  0  0  0  0  0
  125.1130  129.0530   66.1570 C   0  0  0  0  0  0  0  0  0  0  0  0
  123.2220  129.6449   62.8431 H   0  0  0  0  0  0  0  0  0  0  0  0
  123.8342  131.2972   62.4944 H   0  0  0  0  0  0  0  0  0  0  0  0
  124.9653  129.9017   62.4944 H   0  0  0  0  0  0  0  0  0  0  0  0
  126.7165  130.3613   63.4455 H   0  0  0  0  0  0  0  0  0  0  0  0
  128.5985  129.0706   64.4304 H   0  0  0  0  0  0  0  0  0  0  0  0
  129.3280  127.6260   66.3090 H   0  0  0  0  0  0  0  0  0  0  0  0
  129.7236  126.1933   69.3355 H   0  0  0  0  0  0  0  0  0  0  0  0
  129.5705  125.0136   67.9655 H   0  0  0  0  0  0  0  0  0  0  0  0
  127.9240  125.6906   63.8313 H   0  0  0  0  0  0  0  0  0  0  0  0
  128.7279  126.5503   62.4744 H   0  0  0  0  0  0  0  0  0  0  0  0
  128.6397  124.7562   62.4744 H   0  0  0  0  0  0  0  0  0  0  0  0
  131.1678  124.6157   62.2467 H   0  0  0  0  0  0  0  0  0  0  0  0
  134.3035  123.9748   64.1400 H   0  0  0  0  0  0  0  0  0  0  0  0
  133.3015  123.4855   62.7318 H   0  0  0  0  0  0  0  0  0  0  0  0
  134.1343  125.0771   62.7318 H   0  0  0  0  0  0  0  0  0  0  0  0
  126.0073  127.7530   67.6329 H   0  0  0  0  0  0  0  0  0  0  0  0
  124.1270  129.0443   66.6446 H   0  0  0  0  0  0  0  0  0  0  0  0
  1  2  1  0
  2  3  1  0
  3  4  2  0
  4  5  1  0
  5  6  2  0
  6  7  1  0
  7  8  1  0
  8  9  2  0
  8 10  1  0
 10 11  1  0
 11 12  1  0
 12 13  2  0
 13 14  1  0
 14 15  1  0
 14 16  2  0
 16 17  1  0
 17 18  1  0
 17 19  2  0
 19 20  1  0
 20 21  3  0
  6 22  1  0
 22 23  2  0
 23  3  1  0
 19 12  1  0
  1 24  1  0
  1 25  1  0
  1 26  1  0
  4 27  1  0
  5 28  1  0
  7 29  1  0
 10 30  1  0
 10 31  1  0
 15 32  1  0
 15 33  1  0
 15 34  1  0
 16 35  1  0
 18 36  1  0
 18 37  1  0
 18 38  1  0
 22 39  1  0
 23 40  1  0
M  END
>  <Binding energies>  (1) 
[-6.93]

>  <Ligand effiencies>  (1) 
[-0.28875]

>  <Interactions>  (1) 
["H-A:TYR:484:OH:4347, H-A:GLY:454:N:4049, H-B:GLY:454:N:9021, V-B:ARG:545:CZ:9898, V-A:GLU:543:CD:4908, H-B:TYR:484:OH:9319, V-B:HIS:456:CE1:9041, V-A:HIS:456:CE1:4069, V-B:GLU:543:CB:9878, V-A:ARG:545:CD:4923, V-B:GLU:543:CD:9880, H-B:GLU:543:OE2:9882, H-A:ARG:545:NE:4924, V-A:ARG:545:CG:4922, V-A:ARG:545:CZ:4926, V-B:ARG:545:CG:9894, H-A:GLU:543:OE1:4909, V-A:GLY:454:CA:4048, V-A:GLY:453:C:4041, H-A:ILE:455:N:4054, V-B:ARG:545:CD:9895"]

$$$$
1d_Ghoteimi_2023
     RDKit          3D

 50 52  0  0  0  0  0  0  0  0999 V2000
  124.9100  122.0010   54.7200 C   0  0  0  0  0  0  0  0  0  0  0  0
  125.7680  121.3110   55.6160 O   0  0  0  0  0  0  0  0  0  0  0  0
  126.4030  121.9750   56.6040 C   0  0  0  0  0  0  0  0  0  0  0  0
  127.4830  121.6680   57.1110 O   0  0  0  0  0  0  0  0  0  0  0  0
  125.6260  123.2030   57.0700 C   0  0  0  0  0  0  0  0  0  0  0  0
  125.9240  123.3950   58.8530 S   0  0  0  0  0  0  0  0  0  0  0  0
  127.3340  124.4670   59.0320 C   0  0  0  0  0  0  0  0  0  0  0  0
  127.3590  125.4880   58.1430 N   0  0  0  0  0  0  0  0  0  0  0  0
  128.3820  126.3800   58.1660 C   0  0  0  0  0  0  0  0  0  0  0  0
  128.3330  127.4850   57.1510 C   0  0  0  0  0  0  0  0  0  0  0  0
  127.5430  128.6280   57.3560 C   0  0  0  0  0  0  0  0  0  0  0  0
  127.4930  129.6480   56.4120 C   0  0  0  0  0  0  0  0  0  0  0  0
  128.2290  129.5600   55.2330 C   0  0  0  0  0  0  0  0  0  0  0  0
  128.1160  130.6180   54.3510 O   0  0  0  0  0  0  0  0  0  0  0  0
  129.0710  131.6720   54.4070 C   0  0  0  0  0  0  0  0  0  0  0  0
  129.0220  128.4250   55.0130 C   0  0  0  0  0  0  0  0  0  0  0  0
  129.0700  127.4070   55.9610 C   0  0  0  0  0  0  0  0  0  0  0  0
  129.4110  126.2610   59.1090 C   0  0  0  0  0  0  0  0  0  0  0  0
  129.4170  125.2060   60.0300 C   0  0  0  0  0  0  0  0  0  0  0  0
  130.5490  125.1360   61.0030 C   0  0  0  0  0  0  0  0  0  0  0  0
  130.4010  125.6530   62.2940 C   0  0  0  0  0  0  0  0  0  0  0  0
  131.4510  125.5910   63.2060 C   0  0  0  0  0  0  0  0  0  0  0  0
  132.6660  125.0070   62.8490 C   0  0  0  0  0  0  0  0  0  0  0  0
  133.6530  124.9960   63.8160 O   0  0  0  0  0  0  0  0  0  0  0  0
  133.3180  125.3370   65.1560 C   0  0  0  0  0  0  0  0  0  0  0  0
  132.8150  124.4750   61.5590 C   0  0  0  0  0  0  0  0  0  0  0  0
  131.7630  124.5380   60.6500 C   0  0  0  0  0  0  0  0  0  0  0  0
  128.3600  124.2640   59.9830 C   0  0  0  0  0  0  0  0  0  0  0  0
  128.3700  123.0840   60.8530 C   0  0  0  0  0  0  0  0  0  0  0  0
  128.3800  122.1530   61.5390 N   0  0  0  0  0  0  0  0  0  0  0  0
  124.1783  122.5895   55.2930 H   0  0  0  0  0  0  0  0  0  0  0  0
  125.5063  122.6740   54.0864 H   0  0  0  0  0  0  0  0  0  0  0  0
  124.3806  121.2742   54.0864 H   0  0  0  0  0  0  0  0  0  0  0  0
  125.9774  124.0960   56.5323 H   0  0  0  0  0  0  0  0  0  0  0  0
  124.5516  123.0810   56.8680 H   0  0  0  0  0  0  0  0  0  0  0  0
  126.9531  128.7181   58.2801 H   0  0  0  0  0  0  0  0  0  0  0  0
  126.8663  130.5326   56.5983 H   0  0  0  0  0  0  0  0  0  0  0  0
  129.2896  131.9133   55.4577 H   0  0  0  0  0  0  0  0  0  0  0  0
  129.9963  131.3556   53.9033 H   0  0  0  0  0  0  0  0  0  0  0  0
  128.6651  132.5617   53.9033 H   0  0  0  0  0  0  0  0  0  0  0  0
  129.6091  128.3386   54.0868 H   0  0  0  0  0  0  0  0  0  0  0  0
  129.6985  126.5241   55.7728 H   0  0  0  0  0  0  0  0  0  0  0  0
  130.2224  127.0036   59.1263 H   0  0  0  0  0  0  0  0  0  0  0  0
  129.4468  126.1125   62.5913 H   0  0  0  0  0  0  0  0  0  0  0  0
  131.3212  126.0060   64.2164 H   0  0  0  0  0  0  0  0  0  0  0  0
  133.9162  124.7281   65.8498 H   0  0  0  0  0  0  0  0  0  0  0  0
  133.5301  126.4027   65.3271 H   0  0  0  0  0  0  0  0  0  0  0  0
  132.2487  125.1439   65.3271 H   0  0  0  0  0  0  0  0  0  0  0  0
  133.7661  124.0068   61.2654 H   0  0  0  0  0  0  0  0  0  0  0  0
  131.8877  124.1129   59.6431 H   0  0  0  0  0  0  0  0  0  0  0  0
  1  2  1  0
  2  3  1  0
  3  4  2  0
  3  5  1  0
  5  6  1  0
  6  7  1  0
  7  8  2  0
  8  9  1  0
  9 10  1  0
 10 11  2  0
 11 12  1  0
 12 13  2  0
 13 14  1  0
 14 15  1  0
 13 16  1  0
 16 17  2  0
  9 18  2  0
 18 19  1  0
 19 20  1  0
 20 21  2  0
 21 22  1  0
 22 23  2  0
 23 24  1  0
 24 25  1  0
 23 26  1  0
 26 27  2  0
 19 28  2  0
 28 29  1  0
 29 30  3  0
 28  7  1  0
 17 10  1  0
 27 20  1  0
  1 31  1  0
  1 32  1  0
  1 33  1  0
  5 34  1  0
  5 35  1  0
 11 36  1  0
 12 37  1  0
 15 38  1  0
 15 39  1  0
 15 40  1  0
 16 41  1  0
 17 42  1  0
 18 43  1  0
 21 44  1  0
 22 45  1  0
 25 46  1  0
 25 47  1  0
 25 48  1  0
 26 49  1  0
 27 50  1  0
M  END
>  <Binding energies>  (1) 
[-7.88]

>  <Ligand effiencies>  (1) 
[-0.26266666666666666]

>  <Interactions>  (1) 
["H-B:ALA:541:N:9863, V-B:PRO:540:CB:9857, H-B:TYR:531:OH:9767, V-B:MET:535:CE:9807, V-B:PRO:540:N:9856, V-B:PRO:540:CA:9855, H-B:TYR:539:N:9842, V-B:MET:535:CG:9805, V-B:TYR:539:C:9839, V-B:TYR:531:CE2:9765, V-B:LEU:363:CD1:8160, V-A:ASP:366:CG:3212, H-A:GLY:454:N:4049, V-B:PRO:540:CD:9859, V-A:ILE:538:CA:4860, V-A:ILE:538:CG2:4863, V-A:TYR:539:CE1:4875, V-A:ILE:538:CB:4862, H-B:LYS:534:NZ:9795, H-A:ARG:545:NH2:4928, V-A:ARG:545:CZ:4926, H-A:ARG:545:NH1:4927, V-B:ILE:538:CA:9832, V-B:ILE:538:CG1:9836, V-B:ILE:538:CG2:9835, V-B:ILE:538:CB:9834, V-B:MET:535:CB:9804"]

$$$$
1d_Grossjean_2025
     RDKit          3D

 36 37  0  0  0  0  0  0  0  0999 V2000
  125.6070  130.1170   57.5460 C   0  0  0  0  0  0  0  0  0  0  0  0
  126.7670  129.2990   57.0110 C   0  0  0  0  0  0  0  0  0  0  0  0
  127.3120  128.2430   57.7380 C   0  0  0  0  0  0  0  0  0  0  0  0
  128.3740  127.5170   57.1900 C   0  0  0  0  0  0  0  0  0  0  0  0
  128.9450  126.3540   57.9990 C   0  0  0  0  0  0  0  0  0  0  0  0
  128.8750  127.8770   55.9180 C   0  0  0  0  0  0  0  0  0  0  0  0
  129.9540  127.1010   55.3040 C   0  0  0  0  0  0  0  0  0  0  0  0
  130.8070  126.4860   54.8210 N   0  0  0  0  0  0  0  0  0  0  0  0
  128.2770  128.9790   55.2620 C   0  0  0  0  0  0  0  0  0  0  0  0
  128.7790  129.5690   53.6600 S   0  0  0  0  0  0  0  0  0  0  0  0
  129.3000  131.3000   53.8590 C   0  0  0  0  0  0  0  0  0  0  0  0
  129.7580  131.6040   55.2860 C   0  0  0  0  0  0  0  0  0  0  0  0
  129.2050  132.5060   55.9150 O   0  0  0  0  0  0  0  0  0  0  0  0
  130.7470  130.8130   55.7560 N   0  0  0  0  0  0  0  0  0  0  0  0
  131.4030  130.8340   57.0010 C   0  0  0  0  0  0  0  0  0  0  0  0
  132.7110  130.3410   57.0050 C   0  0  0  0  0  0  0  0  0  0  0  0
  133.4520  130.3210   58.1830 C   0  0  0  0  0  0  0  0  0  0  0  0
  132.8870  130.8020   59.3620 C   0  0  0  0  0  0  0  0  0  0  0  0
  131.5880  131.3040   59.3710 C   0  0  0  0  0  0  0  0  0  0  0  0
  130.8440  131.3240   58.1940 C   0  0  0  0  0  0  0  0  0  0  0  0
  127.2320  129.6640   55.7930 N   0  0  0  0  0  0  0  0  0  0  0  0
  125.6255  130.1039   58.6458 H   0  0  0  0  0  0  0  0  0  0  0  0
  125.6947  131.1541   57.1901 H   0  0  0  0  0  0  0  0  0  0  0  0
  124.6595  129.6861   57.1901 H   0  0  0  0  0  0  0  0  0  0  0  0
  126.9124  127.9839   58.7295 H   0  0  0  0  0  0  0  0  0  0  0  0
  128.8400  126.5679   59.0729 H   0  0  0  0  0  0  0  0  0  0  0  0
  128.3969  125.4325   57.7534 H   0  0  0  0  0  0  0  0  0  0  0  0
  130.0093  126.2241   57.7534 H   0  0  0  0  0  0  0  0  0  0  0  0
  130.1328  131.5010   53.1691 H   0  0  0  0  0  0  0  0  0  0  0  0
  128.4340  131.9413   53.6380 H   0  0  0  0  0  0  0  0  0  0  0  0
  131.0660  130.0830   55.1360 H   0  0  0  0  0  0  0  0  0  0  0  0
  133.1572  129.9667   56.0718 H   0  0  0  0  0  0  0  0  0  0  0  0
  134.4791  129.9272   58.1830 H   0  0  0  0  0  0  0  0  0  0  0  0
  133.4717  130.7852   60.2936 H   0  0  0  0  0  0  0  0  0  0  0  0
  131.1505  131.6840   60.3060 H   0  0  0  0  0  0  0  0  0  0  0  0
  129.8190  131.7232   58.1979 H   0  0  0  0  0  0  0  0  0  0  0  0
  1  2  1  0
  2  3  2  0
  3  4  1  0
  4  5  1  0
  4  6  2  0
  6  7  1  0
  7  8  3  0
  6  9  1  0
  9 10  1  0
 10 11  1  0
 11 12  1  0
 12 13  2  0
 12 14  1  0
 14 15  1  0
 15 16  2  0
 16 17  1  0
 17 18  2  0
 18 19  1  0
 19 20  2  0
  9 21  2  0
 21  2  1  0
 20 15  1  0
  1 22  1  0
  1 23  1  0
  1 24  1  0
  3 25  1  0
  5 26  1  0
  5 27  1  0
  5 28  1  0
 11 29  1  0
 11 30  1  0
 14 31  1  0
 16 32  1  0
 17 33  1  0
 18 34  1  0
 19 35  1  0
 20 36  1  0
M  END
>  <Binding energies>  (1) 
[-7.2]

>  <Ligand effiencies>  (1) 
[-0.32727272727272727]

>  <Interactions>  (1) 
["H-B:TYR:531:OH:9767, V-B:TYR:531:CZ:9766, V-A:ASP:366:CG:3212, V-A:PRO:540:N:4884, V-A:ILE:538:CA:4860, V-A:ASP:366:CB:3211, V-A:ILE:538:CG2:4863, V-A:PRO:540:CA:4883, H-A:TYR:531:OH:4795, H-A:TYR:539:N:4870, V-A:TYR:539:CZ:4877, V-A:PRO:540:CB:4885, V-A:TYR:539:CE1:4875, V-A:TYR:531:CZ:4794, V-A:ILE:538:CB:4862, V-B:TYR:531:CE1:9764, H-B:LYS:534:NZ:9795, V-A:LEU:363:CD1:3188, H-A:TYR:539:OH:4878, V-B:LYS:534:CE:9794, V-A:LEU:363:CA:3184"]

$$$$
1e_Grossjean_2025
     RDKit          3D

 38 39  0  0  0  0  0  0  0  0999 V2000
  125.3630  122.3290   55.4970 C   0  0  0  0  0  0  0  0  0  0  0  0
  126.0370  122.8990   56.7310 C   0  0  0  0  0  0  0  0  0  0  0  0
  127.0020  122.1760   57.4380 C   0  0  0  0  0  0  0  0  0  0  0  0
  127.5770  122.7640   58.5650 C   0  0  0  0  0  0  0  0  0  0  0  0
  127.1790  124.0450   58.9560 C   0  0  0  0  0  0  0  0  0  0  0  0
  126.2100  124.7160   58.1990 C   0  0  0  0  0  0  0  0  0  0  0  0
  125.8410  125.9960   58.6480 N   0  0  0  0  0  0  0  0  0  0  0  0
  126.4790  127.1710   58.4540 C   0  0  0  0  0  0  0  0  0  0  0  0
  127.5350  127.3080   57.8350 O   0  0  0  0  0  0  0  0  0  0  0  0
  125.8230  128.3980   59.0910 C   0  0  0  0  0  0  0  0  0  0  0  0
  125.7910  129.8190   57.9570 S   0  0  0  0  0  0  0  0  0  0  0  0
  127.4080  130.5660   57.9330 C   0  0  0  0  0  0  0  0  0  0  0  0
  127.8530  130.9280   59.1630 N   0  0  0  0  0  0  0  0  0  0  0  0
  129.0710  131.5100   59.2710 C   0  0  0  0  0  0  0  0  0  0  0  0
  129.5040  131.8800   60.6770 C   0  0  0  0  0  0  0  0  0  0  0  0
  129.8830  131.7630   58.1680 C   0  0  0  0  0  0  0  0  0  0  0  0
  129.4240  131.4170   56.8930 C   0  0  0  0  0  0  0  0  0  0  0  0
  130.3260  131.7220   55.6980 C   0  0  0  0  0  0  0  0  0  0  0  0
  128.1540  130.8110   56.7550 C   0  0  0  0  0  0  0  0  0  0  0  0
  127.6350  130.4960   55.4230 C   0  0  0  0  0  0  0  0  0  0  0  0
  127.2260  130.2470   54.3680 N   0  0  0  0  0  0  0  0  0  0  0  0
  125.6400  124.1440   57.0970 N   0  0  0  0  0  0  0  0  0  0  0  0
  124.5561  121.6466   55.8022 H   0  0  0  0  0  0  0  0  0  0  0  0
  124.9422  123.1494   54.8971 H   0  0  0  0  0  0  0  0  0  0  0  0
  126.1021  121.7778   54.8971 H   0  0  0  0  0  0  0  0  0  0  0  0
  127.3007  121.1682   57.1138 H   0  0  0  0  0  0  0  0  0  0  0  0
  128.3399  122.2218   59.1429 H   0  0  0  0  0  0  0  0  0  0  0  0
  127.6200  124.5195   59.8450 H   0  0  0  0  0  0  0  0  0  0  0  0
  125.0190  126.0180   59.2340 H   0  0  0  0  0  0  0  0  0  0  0  0
  124.7900  128.1435   59.3707 H   0  0  0  0  0  0  0  0  0  0  0  0
  126.4159  128.6807   59.9733 H   0  0  0  0  0  0  0  0  0  0  0  0
  128.8779  131.3450   61.4062 H   0  0  0  0  0  0  0  0  0  0  0  0
  130.5575  131.5988   60.8222 H   0  0  0  0  0  0  0  0  0  0  0  0
  129.3906  132.9645   60.8222 H   0  0  0  0  0  0  0  0  0  0  0  0
  130.8712  132.2283   58.2978 H   0  0  0  0  0  0  0  0  0  0  0  0
  131.3108  132.0550   56.0575 H   0  0  0  0  0  0  0  0  0  0  0  0
  130.4460  130.8145   55.0881 H   0  0  0  0  0  0  0  0  0  0  0  0
  129.8706  132.5161   55.0881 H   0  0  0  0  0  0  0  0  0  0  0  0
  1  2  1  0
  2  3  2  0
  3  4  1  0
  4  5  2  0
  5  6  1  0
  6  7  1  0
  7  8  1  0
  8  9  2  0
  8 10  1  0
 10 11  1  0
 11 12  1  0
 12 13  2  0
 13 14  1  0
 14 15  1  0
 14 16  2  0
 16 17  1  0
 17 18  1  0
 17 19  2  0
 19 20  1  0
 20 21  3  0
  6 22  2  0
 22  2  1  0
 19 12  1  0
  1 23  1  0
  1 24  1  0
  1 25  1  0
  3 26  1  0
  4 27  1  0
  5 28  1  0
  7 29  1  0
 10 30  1  0
 10 31  1  0
 15 32  1  0
 15 33  1  0
 15 34  1  0
 16 35  1  0
 18 36  1  0
 18 37  1  0
 18 38  1  0
M  END
>  <Binding energies>  (1) 
[-7.81]

>  <Ligand effiencies>  (1) 
[-0.33956521739130435]

>  <Interactions>  (1) 
["V-B:PRO:540:CB:9857, H-B:TYR:531:OH:9767, V-B:MET:535:CE:9807, V-B:PRO:540:N:9856, V-B:PRO:540:CA:9855, V-B:MET:535:CG:9805, V-B:TYR:539:C:9839, V-B:TYR:531:CE2:9765, V-B:LEU:363:CD1:8160, V-B:PRO:540:CD:9859, V-A:PRO:540:N:4884, V-A:ILE:538:CG2:4863, V-A:TYR:539:CD1:4873, V-A:PRO:540:CA:4883, V-A:TYR:539:CZ:4877, V-A:TYR:539:CE1:4875, V-A:ILE:538:CB:4862, V-B:ASP:366:CG:8184, H-B:LYS:534:NZ:9795, V-B:ASP:366:CB:8183, V-A:PRO:540:C:4881, V-A:TYR:539:C:4867, H-A:TYR:539:OH:4878, V-B:ILE:538:CG2:9835, H-B:ASP:366:OD1:8185"]

$$$$
1f_Grossjean_2025
     RDKit          3D

 35 36  0  0  0  0  0  0  0  0999 V2000
  126.1730  129.9820   57.7230 C   0  0  0  0  0  0  0  0  0  0  0  0
  127.2200  129.0790   57.0990 C   0  0  0  0  0  0  0  0  0  0  0  0
  127.6610  127.9230   57.7370 C   0  0  0  0  0  0  0  0  0  0  0  0
  128.6380  127.1360   57.1180 C   0  0  0  0  0  0  0  0  0  0  0  0
  129.1190  125.8820   57.8470 C   0  0  0  0  0  0  0  0  0  0  0  0
  129.1450  127.5270   55.8580 C   0  0  0  0  0  0  0  0  0  0  0  0
  130.2080  126.7460   55.2200 C   0  0  0  0  0  0  0  0  0  0  0  0
  131.0470  126.1270   54.7170 N   0  0  0  0  0  0  0  0  0  0  0  0
  128.6190  128.7010   55.2700 C   0  0  0  0  0  0  0  0  0  0  0  0
  129.1340  129.3480   53.6920 S   0  0  0  0  0  0  0  0  0  0  0  0
  129.5230  131.1200   53.8950 C   0  0  0  0  0  0  0  0  0  0  0  0
  129.9590  131.5280   55.3100 C   0  0  0  0  0  0  0  0  0  0  0  0
  129.4950  132.5390   55.8390 O   0  0  0  0  0  0  0  0  0  0  0  0
  130.8790  130.7140   55.8700 N   0  0  0  0  0  0  0  0  0  0  0  0
  131.4870  130.7840   57.1380 C   0  0  0  0  0  0  0  0  0  0  0  0
  130.8120  130.9470   58.3630 C   0  0  0  0  0  0  0  0  0  0  0  0
  131.5430  130.9960   59.5530 C   0  0  0  0  0  0  0  0  0  0  0  0
  132.9310  130.8770   59.4910 C   0  0  0  0  0  0  0  0  0  0  0  0
  133.6050  130.7140   58.3250 N   0  0  0  0  0  0  0  0  0  0  0  0
  132.8810  130.6680   57.1760 C   0  0  0  0  0  0  0  0  0  0  0  0
  127.6890  129.4700   55.8900 N   0  0  0  0  0  0  0  0  0  0  0  0
  126.2430  129.9216   58.8191 H   0  0  0  0  0  0  0  0  0  0  0  0
  126.3450  131.0197   57.4012 H   0  0  0  0  0  0  0  0  0  0  0  0
  125.1718  129.6595   57.4012 H   0  0  0  0  0  0  0  0  0  0  0  0
  127.2472  127.6325   58.7139 H   0  0  0  0  0  0  0  0  0  0  0  0
  129.0572  126.0430   58.9334 H   0  0  0  0  0  0  0  0  0  0  0  0
  128.4844  125.0285   57.5662 H   0  0  0  0  0  0  0  0  0  0  0  0
  130.1616  125.6718   57.5662 H   0  0  0  0  0  0  0  0  0  0  0  0
  130.3374  131.3729   53.2002 H   0  0  0  0  0  0  0  0  0  0  0  0
  128.5905  131.6662   53.6898 H   0  0  0  0  0  0  0  0  0  0  0  0
  131.1990  129.9460   55.2990 H   0  0  0  0  0  0  0  0  0  0  0  0
  129.7157  131.0352   58.3831 H   0  0  0  0  0  0  0  0  0  0  0  0
  131.0337  131.1258   60.5193 H   0  0  0  0  0  0  0  0  0  0  0  0
  133.5046  130.9171   60.4288 H   0  0  0  0  0  0  0  0  0  0  0  0
  133.4189  130.5325   56.2261 H   0  0  0  0  0  0  0  0  0  0  0  0
  1  2  1  0
  2  3  2  0
  3  4  1  0
  4  5  1  0
  4  6  2  0
  6  7  1  0
  7  8  3  0
  6  9  1  0
  9 10  1  0
 10 11  1  0
 11 12  1  0
 12 13  2  0
 12 14  1  0
 14 15  1  0
 15 16  2  0
 16 17  1  0
 17 18  2  0
 18 19  1  0
 19 20  2  0
  9 21  2  0
 21  2  1  0
 20 15  1  0
  1 22  1  0
  1 23  1  0
  1 24  1  0
  3 25  1  0
  5 26  1  0
  5 27  1  0
  5 28  1  0
 11 29  1  0
 11 30  1  0
 14 31  1  0
 16 32  1  0
 17 33  1  0
 18 34  1  0
 20 35  1  0
M  END
>  <Binding energies>  (1) 
[-6.93]

>  <Ligand effiencies>  (1) 
[-0.315]

>  <Interactions>  (1) 
["H-B:TYR:531:OH:9767, V-A:ASP:366:CG:3212, V-A:ILE:538:CG2:4863, H-B:TYR:539:OH:9850, V-A:PRO:540:CA:4883, H-A:TYR:531:OH:4795, H-A:TYR:539:N:4870, V-A:TYR:539:CZ:4877, V-A:PRO:540:CB:4885, V-A:TYR:539:CE1:4875, V-A:ILE:538:CB:4862, V-A:LEU:363:CD1:3188"]

$$$$
1g_Grossjean_2025
     RDKit          3D

 39 40  0  0  0  0  0  0  0  0999 V2000
  128.9450  132.4340   59.9150 C   0  0  0  0  0  0  0  0  0  0  0  0
  128.5080  131.7730   58.6210 C   0  0  0  0  0  0  0  0  0  0  0  0
  127.5270  130.7830   58.6020 C   0  0  0  0  0  0  0  0  0  0  0  0
  127.1760  130.1980   57.3810 C   0  0  0  0  0  0  0  0  0  0  0  0
  126.1090  129.1040   57.3870 C   0  0  0  0  0  0  0  0  0  0  0  0
  127.8160  130.6300   56.1970 C   0  0  0  0  0  0  0  0  0  0  0  0
  127.5030  129.9950   54.9140 C   0  0  0  0  0  0  0  0  0  0  0  0
  127.2540  129.4910   53.9030 N   0  0  0  0  0  0  0  0  0  0  0  0
  128.7820  131.6580   56.3080 C   0  0  0  0  0  0  0  0  0  0  0  0
  129.6750  132.3270   54.9220 S   0  0  0  0  0  0  0  0  0  0  0  0
  131.2670  131.4540   54.8340 C   0  0  0  0  0  0  0  0  0  0  0  0
  132.1190  131.6890   56.0820 C   0  0  0  0  0  0  0  0  0  0  0  0
  132.2420  132.8260   56.5410 O   0  0  0  0  0  0  0  0  0  0  0  0
  132.7060  130.6030   56.6160 N   0  0  0  0  0  0  0  0  0  0  0  0
  133.5120  130.5880   57.8360 C   0  0  0  0  0  0  0  0  0  0  0  0
  132.6990  130.6160   59.1270 C   0  0  0  0  0  0  0  0  0  0  0  0
  133.1890  131.2950   60.2460 C   0  0  0  0  0  0  0  0  0  0  0  0
  132.4470  131.3220   61.4240 C   0  0  0  0  0  0  0  0  0  0  0  0
  131.2140  130.6730   61.4770 C   0  0  0  0  0  0  0  0  0  0  0  0
  130.7180  129.9990   60.3640 C   0  0  0  0  0  0  0  0  0  0  0  0
  131.4600  129.9710   59.1860 C   0  0  0  0  0  0  0  0  0  0  0  0
  129.1320  132.2040   57.5000 N   0  0  0  0  0  0  0  0  0  0  0  0
  128.5628  131.8559   60.7693 H   0  0  0  0  0  0  0  0  0  0  0  0
  130.0437  132.4673   59.9569 H   0  0  0  0  0  0  0  0  0  0  0  0
  128.5453  133.4579   59.9569 H   0  0  0  0  0  0  0  0  0  0  0  0
  127.0359  130.4663   59.5339 H   0  0  0  0  0  0  0  0  0  0  0  0
  125.8558  128.8444   58.4255 H   0  0  0  0  0  0  0  0  0  0  0  0
  125.2086  129.4672   56.8699 H   0  0  0  0  0  0  0  0  0  0  0  0
  126.4945  128.2130   56.8699 H   0  0  0  0  0  0  0  0  0  0  0  0
  131.0755  130.3755   54.7326 H   0  0  0  0  0  0  0  0  0  0  0  0
  131.8204  131.8431   53.9666 H   0  0  0  0  0  0  0  0  0  0  0  0
  132.5350  129.7050   56.1860 H   0  0  0  0  0  0  0  0  0  0  0  0
  134.1232  129.6734   57.8337 H   0  0  0  0  0  0  0  0  0  0  0  0
  134.1167  131.5068   57.8250 H   0  0  0  0  0  0  0  0  0  0  0  0
  134.1607  131.8081   60.1961 H   0  0  0  0  0  0  0  0  0  0  0  0
  132.8314  131.8523   62.3078 H   0  0  0  0  0  0  0  0  0  0  0  0
  130.6273  130.6936   62.4072 H   0  0  0  0  0  0  0  0  0  0  0  0
  129.7438  129.4907   60.4152 H   0  0  0  0  0  0  0  0  0  0  0  0
  131.0718  129.4421   58.3030 H   0  0  0  0  0  0  0  0  0  0  0  0
  1  2  1  0
  2  3  2  0
  3  4  1  0
  4  5  1  0
  4  6  2  0
  6  7  1  0
  7  8  3  0
  6  9  1  0
  9 10  1  0
 10 11  1  0
 11 12  1  0
 12 13  2  0
 12 14  1  0
 14 15  1  0
 15 16  1  0
 16 17  2  0
 17 18  1  0
 18 19  2  0
 19 20  1  0
 20 21  2  0
  9 22  2  0
 22  2  1  0
 21 16  1  0
  1 23  1  0
  1 24  1  0
  1 25  1  0
  3 26  1  0
  5 27  1  0
  5 28  1  0
  5 29  1  0
 11 30  1  0
 11 31  1  0
 14 32  1  0
 15 33  1  0
 15 34  1  0
 17 35  1  0
 18 36  1  0
 19 37  1  0
 20 38  1  0
 21 39  1  0
M  END
>  <Binding energies>  (1) 
[-7.34]

>  <Ligand effiencies>  (1) 
[-0.31913043478260866]

>  <Interactions>  (1) 
["H-B:TYR:531:OH:9767, V-B:TYR:531:CZ:9766, V-A:ASP:366:CG:3212, V-A:PRO:540:N:4884, V-A:ASP:366:CB:3211, V-A:ILE:538:CG2:4863, V-A:TYR:539:CD1:4873, V-A:PRO:540:CA:4883, H-A:TYR:531:OH:4795, H-A:TYR:539:N:4870, V-A:TYR:539:CZ:4877, V-A:PRO:540:CB:4885, V-A:TYR:539:CE1:4875, V-A:TYR:531:CZ:4794, V-A:ILE:538:CB:4862, V-B:TYR:531:CE1:9764, H-B:LYS:534:NZ:9795, V-A:PRO:540:C:4881, V-A:TYR:539:C:4867, V-A:LEU:363:CD1:3188, V-A:GLU:543:CD:4908, V-A:TYR:531:CE2:4793, V-A:LEU:363:CA:3184, V-A:LEU:363:CB:3186, V-A:ASN:362:CB:3175"]

$$$$
1h_Grossjean_2025
     RDKit          3D

 51 52  0  0  0  0  0  0  0  0999 V2000
  133.2450  131.3680   61.5540 C   0  0  0  0  0  0  0  0  0  0  0  0
  131.8740  131.7460   61.4960 O   0  0  0  0  0  0  0  0  0  0  0  0
  131.1470  131.4870   60.3480 C   0  0  0  0  0  0  0  0  0  0  0  0
  131.7130  131.0260   59.1490 C   0  0  0  0  0  0  0  0  0  0  0  0
  130.9180  130.7990   58.0250 C   0  0  0  0  0  0  0  0  0  0  0  0
  131.5430  130.2760   56.7350 C   0  0  0  0  0  0  0  0  0  0  0  0
  130.6670  130.3750   55.5670 N   0  0  0  0  0  0  0  0  0  0  0  0
  129.9640  131.4660   55.2140 C   0  0  0  0  0  0  0  0  0  0  0  0
  129.9990  132.5310   55.8300 O   0  0  0  0  0  0  0  0  0  0  0  0
  129.0780  131.3340   53.9750 C   0  0  0  0  0  0  0  0  0  0  0  0
  128.3650  129.6680   53.8220 S   0  0  0  0  0  0  0  0  0  0  0  0
  127.7330  129.1870   55.4220 C   0  0  0  0  0  0  0  0  0  0  0  0
  126.5820  129.7980   55.8080 N   0  0  0  0  0  0  0  0  0  0  0  0
  126.0460  129.4770   57.0090 C   0  0  0  0  0  0  0  0  0  0  0  0
  124.7590  130.1970   57.3680 C   0  0  0  0  0  0  0  0  0  0  0  0
  126.6260  128.5460   57.8670 C   0  0  0  0  0  0  0  0  0  0  0  0
  127.8110  127.9120   57.4810 C   0  0  0  0  0  0  0  0  0  0  0  0
  128.4290  126.8930   58.4360 C   0  0  0  0  0  0  0  0  0  0  0  0
  128.3890  128.2320   56.2310 C   0  0  0  0  0  0  0  0  0  0  0  0
  129.6320  127.5860   55.8020 C   0  0  0  0  0  0  0  0  0  0  0  0
  130.6140  127.0750   55.4640 N   0  0  0  0  0  0  0  0  0  0  0  0
  129.5390  130.9980   58.1040 C   0  0  0  0  0  0  0  0  0  0  0  0
  128.9460  131.4530   59.2920 C   0  0  0  0  0  0  0  0  0  0  0  0
  127.5890  131.6740   59.4420 O   0  0  0  0  0  0  0  0  0  0  0  0
  126.8120  130.7610   60.2100 C   0  0  0  0  0  0  0  0  0  0  0  0
  129.7620  131.7050   60.4040 C   0  0  0  0  0  0  0  0  0  0  0  0
  129.1950  132.1450   61.5750 O   0  0  0  0  0  0  0  0  0  0  0  0
  129.1460  131.1620   62.6000 C   0  0  0  0  0  0  0  0  0  0  0  0
  133.5574  131.2819   62.6052 H   0  0  0  0  0  0  0  0  0  0  0  0
  133.3798  130.3992   61.0508 H   0  0  0  0  0  0  0  0  0  0  0  0
  133.8573  132.1308   61.0508 H   0  0  0  0  0  0  0  0  0  0  0  0
  132.7961  130.8415   59.0949 H   0  0  0  0  0  0  0  0  0  0  0  0
  132.4558  130.8556   56.5330 H   0  0  0  0  0  0  0  0  0  0  0  0
  131.7466  129.2063   56.8906 H   0  0  0  0  0  0  0  0  0  0  0  0
  130.5690  129.5380   55.0120 H   0  0  0  0  0  0  0  0  0  0  0  0
  128.2595  132.0657   54.0441 H   0  0  0  0  0  0  0  0  0  0  0  0
  129.7031  131.5188   53.0889 H   0  0  0  0  0  0  0  0  0  0  0  0
  124.6622  130.2512   58.4624 H   0  0  0  0  0  0  0  0  0  0  0  0
  124.7795  131.2146   56.9509 H   0  0  0  0  0  0  0  0  0  0  0  0
  123.9025  129.6470   56.9509 H   0  0  0  0  0  0  0  0  0  0  0  0
  126.1584  128.3126   58.8349 H   0  0  0  0  0  0  0  0  0  0  0  0
  128.2411  127.2029   59.4746 H   0  0  0  0  0  0  0  0  0  0  0  0
  127.9776  125.9053   58.2606 H   0  0  0  0  0  0  0  0  0  0  0  0
  129.5135  126.8368   58.2606 H   0  0  0  0  0  0  0  0  0  0  0  0
  128.9094  130.7959   57.2249 H   0  0  0  0  0  0  0  0  0  0  0  0
  126.9745  130.9519   61.2811 H   0  0  0  0  0  0  0  0  0  0  0  0
  125.7466  130.8950   59.9711 H   0  0  0  0  0  0  0  0  0  0  0  0
  127.1146  129.7308   59.9711 H   0  0  0  0  0  0  0  0  0  0  0  0
  129.1706  131.6555   63.5828 H   0  0  0  0  0  0  0  0  0  0  0  0
  128.2177  130.5795   62.5053 H   0  0  0  0  0  0  0  0  0  0  0  0
  130.0118  130.4901   62.5053 H   0  0  0  0  0  0  0  0  0  0  0  0
  1  2  1  0
  2  3  1  0
  3  4  2  0
  4  5  1  0
  5  6  1  0
  6  7  1  0
  7  8  1  0
  8  9  2  0
  8 10  1  0
 10 11  1  0
 11 12  1  0
 12 13  2  0
 13 14  1  0
 14 15  1  0
 14 16  2  0
 16 17  1  0
 17 18  1  0
 17 19  2  0
 19 20  1  0
 20 21  3  0
  5 22  2  0
 22 23  1  0
 23 24  1  0
 24 25  1  0
 23 26  2  0
 26 27  1  0
 27 28  1  0
 26  3  1  0
 19 12  1  0
  1 29  1  0
  1 30  1  0
  1 31  1  0
  4 32  1  0
  6 33  1  0
  6 34  1  0
  7 35  1  0
 10 36  1  0
 10 37  1  0
 15 38  1  0
 15 39  1  0
 15 40  1  0
 16 41  1  0
 18 42  1  0
 18 43  1  0
 18 44  1  0
 22 45  1  0
 25 46  1  0
 25 47  1  0
 25 48  1  0
 28 49  1  0
 28 50  1  0
 28 51  1  0
M  END
>  <Binding energies>  (1) 
[-7.02]

>  <Ligand effiencies>  (1) 
[-0.24206896551724136]

>  <Interactions>  (1) 
["H-B:TYR:531:OH:9767, V-B:TYR:531:CZ:9766, V-A:ILE:538:CA:4860, V-A:ILE:538:CG2:4863, V-A:PRO:540:CA:4883, H-A:TYR:531:OH:4795, H-A:TYR:539:N:4870, V-A:TYR:539:CZ:4877, V-A:PRO:540:CB:4885, V-A:TYR:539:CE1:4875, V-A:TYR:531:CZ:4794, V-A:ILE:538:CB:4862, V-B:TYR:531:CE1:9764, H-B:LYS:534:NZ:9795, V-B:ASP:366:CB:8183, V-A:ALA:541:CB:4892, V-A:PRO:540:C:4881, V-A:GLU:543:CG:4907, V-A:GLU:543:CD:4908, V-B:ASP:366:C:8179, H-A:TYR:539:OH:4878, V-B:LYS:534:CE:9794, H-A:ALA:541:N:4891, V-A:ASN:362:CB:3175"]

$$$$
1i_Grossjean_2025
     RDKit          3D

 32 33  0  0  0  0  0  0  0  0999 V2000
  132.2460  131.7470   61.7740 C   0  0  0  0  0  0  0  0  0  0  0  0
  131.7710  130.8460   60.6510 C   0  0  0  0  0  0  0  0  0  0  0  0
  130.7740  129.8940   60.8510 C   0  0  0  0  0  0  0  0  0  0  0  0
  130.3690  129.0970   59.7750 C   0  0  0  0  0  0  0  0  0  0  0  0
  129.2610  128.0720   60.0150 C   0  0  0  0  0  0  0  0  0  0  0  0
  130.9850  129.2720   58.5140 C   0  0  0  0  0  0  0  0  0  0  0  0
  130.5410  128.4830   57.3620 C   0  0  0  0  0  0  0  0  0  0  0  0
  130.1880  127.8600   56.4530 N   0  0  0  0  0  0  0  0  0  0  0  0
  132.0060  130.2460   58.4090 C   0  0  0  0  0  0  0  0  0  0  0  0
  132.8870  130.5970   56.9030 S   0  0  0  0  0  0  0  0  0  0  0  0
  132.1460  132.0850   56.1670 C   0  0  0  0  0  0  0  0  0  0  0  0
  130.6230  131.9780   56.0630 C   0  0  0  0  0  0  0  0  0  0  0  0
  129.9200  132.8460   56.5840 O   0  0  0  0  0  0  0  0  0  0  0  0
  130.1590  130.9070   55.3840 N   0  0  0  0  0  0  0  0  0  0  0  0
  128.8340  130.5700   55.1470 C   0  0  0  0  0  0  0  0  0  0  0  0
  127.9750  130.1120   56.1450 C   0  0  0  0  0  0  0  0  0  0  0  0
  126.7740  129.8940   55.5120 C   0  0  0  0  0  0  0  0  0  0  0  0
  126.9020  130.2030   54.2000 O   0  0  0  0  0  0  0  0  0  0  0  0
  128.2130  130.6300   53.9800 N   0  0  0  0  0  0  0  0  0  0  0  0
  132.3780  131.0270   59.4540 N   0  0  0  0  0  0  0  0  0  0  0  0
  132.0026  131.2854   62.7423 H   0  0  0  0  0  0  0  0  0  0  0  0
  133.3345  131.8858   61.6972 H   0  0  0  0  0  0  0  0  0  0  0  0
  131.7455  132.7235   61.6972 H   0  0  0  0  0  0  0  0  0  0  0  0
  130.3115  129.7706   61.8414 H   0  0  0  0  0  0  0  0  0  0  0  0
  129.1147  127.9367   61.0968 H   0  0  0  0  0  0  0  0  0  0  0  0
  128.3255  128.4301   59.5605 H   0  0  0  0  0  0  0  0  0  0  0  0
  129.5453  127.1115   59.5605 H   0  0  0  0  0  0  0  0  0  0  0  0
  132.3987  132.9537   56.7927 H   0  0  0  0  0  0  0  0  0  0  0  0
  132.5482  132.1959   55.1492 H   0  0  0  0  0  0  0  0  0  0  0  0
  130.8420  130.2510   55.0300 H   0  0  0  0  0  0  0  0  0  0  0  0
  128.2078  129.9582   57.2090 H   0  0  0  0  0  0  0  0  0  0  0  0
  125.8560  129.5272   55.9944 H   0  0  0  0  0  0  0  0  0  0  0  0
  1  2  1  0
  2  3  2  0
  3  4  1  0
  4  5  1  0
  4  6  2  0
  6  7  1  0
  7  8  3  0
  6  9  1  0
  9 10  1  0
 10 11  1  0
 11 12  1  0
 12 13  2  0
 12 14  1  0
 14 15  1  0
 15 16  1  0
 16 17  2  0
 17 18  1  0
 18 19  1  0
  9 20  2  0
 20  2  1  0
 19 15  2  0
  1 21  1  0
  1 22  1  0
  1 23  1  0
  3 24  1  0
  5 25  1  0
  5 26  1  0
  5 27  1  0
 11 28  1  0
 11 29  1  0
 14 30  1  0
 16 31  1  0
 17 32  1  0
M  END
>  <Binding energies>  (1) 
[-7.23]

>  <Ligand effiencies>  (1) 
[-0.3442857142857143]

>  <Interactions>  (1) 
["V-B:TYR:531:CZ:9766, V-A:PRO:540:N:4884, V-A:PRO:540:CA:4883, H-A:TYR:531:OH:4795, H-A:TYR:539:N:4870, V-A:TYR:539:CZ:4877, V-A:PRO:540:CB:4885, V-A:TYR:539:CE1:4875, V-A:ILE:538:CB:4862, V-B:TYR:531:CE1:9764, H-B:LYS:534:NZ:9795, V-A:PRO:540:CD:4887, V-A:PRO:540:C:4881, V-A:LEU:363:CD1:3188, V-A:GLU:543:CD:4908, H-A:TYR:539:OH:4878, V-A:ALA:541:CA:4890, V-A:ALA:541:C:4888"]

$$$$
1j_Grossjean_2025
     RDKit          3D

 32 33  0  0  0  0  0  0  0  0999 V2000
  125.9930  129.9320   57.6470 C   0  0  0  0  0  0  0  0  0  0  0  0
  127.1130  129.0830   57.0730 C   0  0  0  0  0  0  0  0  0  0  0  0
  127.5920  127.9590   57.7420 C   0  0  0  0  0  0  0  0  0  0  0  0
  128.6160  127.2070   57.1590 C   0  0  0  0  0  0  0  0  0  0  0  0
  129.1140  125.9690   57.9040 C   0  0  0  0  0  0  0  0  0  0  0  0
  129.1440  127.6090   55.9110 C   0  0  0  0  0  0  0  0  0  0  0  0
  130.1810  126.8060   55.2570 C   0  0  0  0  0  0  0  0  0  0  0  0
  130.9980  126.1690   54.7420 N   0  0  0  0  0  0  0  0  0  0  0  0
  128.6150  128.7780   55.3160 C   0  0  0  0  0  0  0  0  0  0  0  0
  129.1610  129.4290   53.7520 S   0  0  0  0  0  0  0  0  0  0  0  0
  129.4860  131.2030   53.9750 C   0  0  0  0  0  0  0  0  0  0  0  0
  130.0600  131.5120   55.3590 C   0  0  0  0  0  0  0  0  0  0  0  0
  129.6550  132.4990   55.9750 O   0  0  0  0  0  0  0  0  0  0  0  0
  130.9940  130.6460   55.8090 N   0  0  0  0  0  0  0  0  0  0  0  0
  131.6670  130.7100   57.0220 C   0  0  0  0  0  0  0  0  0  0  0  0
  132.9520  130.5290   57.2420 N   0  0  0  0  0  0  0  0  0  0  0  0
  133.2460  130.6650   58.5200 C   0  0  0  0  0  0  0  0  0  0  0  0
  132.1850  130.9650   59.3690 C   0  0  0  0  0  0  0  0  0  0  0  0
  130.7250  131.0740   58.4320 S   0  0  0  0  0  0  0  0  0  0  0  0
  127.6060  129.4890   55.8790 N   0  0  0  0  0  0  0  0  0  0  0  0
  126.0350  129.9002   58.7457 H   0  0  0  0  0  0  0  0  0  0  0  0
  126.1088  130.9712   57.3056 H   0  0  0  0  0  0  0  0  0  0  0  0
  125.0237  129.5398   57.3056 H   0  0  0  0  0  0  0  0  0  0  0  0
  127.1704  127.6673   58.7152 H   0  0  0  0  0  0  0  0  0  0  0  0
  129.0448  126.1410   58.9883 H   0  0  0  0  0  0  0  0  0  0  0  0
  128.4946  125.1023   57.6300 H   0  0  0  0  0  0  0  0  0  0  0  0
  130.1611  125.7727   57.6300 H   0  0  0  0  0  0  0  0  0  0  0  0
  130.2061  131.5307   53.2108 H   0  0  0  0  0  0  0  0  0  0  0  0
  128.5299  131.7381   53.8770 H   0  0  0  0  0  0  0  0  0  0  0  0
  131.2610  129.8880   55.1990 H   0  0  0  0  0  0  0  0  0  0  0  0
  134.2736  130.5478   58.8946 H   0  0  0  0  0  0  0  0  0  0  0  0
  132.2584  131.1097   60.4570 H   0  0  0  0  0  0  0  0  0  0  0  0
  1  2  1  0
  2  3  2  0
  3  4  1  0
  4  5  1  0
  4  6  2  0
  6  7  1  0
  7  8  3  0
  6  9  1  0
  9 10  1  0
 10 11  1  0
 11 12  1  0
 12 13  2  0
 12 14  1  0
 14 15  1  0
 15 16  2  0
 16 17  1  0
 17 18  2  0
 18 19  1  0
  9 20  2  0
 20  2  1  0
 19 15  1  0
  1 21  1  0
  1 22  1  0
  1 23  1  0
  3 24  1  0
  5 25  1  0
  5 26  1  0
  5 27  1  0
 11 28  1  0
 11 29  1  0
 14 30  1  0
 17 31  1  0
 18 32  1  0
M  END
>  <Binding energies>  (1) 
[-6.71]

>  <Ligand effiencies>  (1) 
[-0.31952380952380954]

>  <Interactions>  (1) 
["H-B:TYR:531:OH:9767, V-B:TYR:531:CZ:9766, V-A:ASP:366:CG:3212, V-A:ILE:538:CA:4860, V-A:ASP:366:CB:3211, V-A:ILE:538:CG2:4863, H-B:TYR:539:OH:9850, V-A:PRO:540:CA:4883, H-A:TYR:531:OH:4795, H-A:TYR:539:N:4870, V-A:TYR:539:CZ:4877, V-A:PRO:540:CB:4885, V-A:TYR:539:CE1:4875, V-A:TYR:531:CZ:4794, V-A:ILE:538:CB:4862, V-A:LEU:363:CD1:3188, V-A:LEU:363:CA:3184"]

$$$$
1k_Grossjean_2025
     RDKit          3D

 50 50  0  0  0  0  0  0  0  0999 V2000
  125.3450  121.9860   55.4500 C   0  0  0  0  0  0  0  0  0  0  0  0
  126.4580  121.6290   56.2540 O   0  0  0  0  0  0  0  0  0  0  0  0
  126.6570  122.4960   57.3630 C   0  0  0  0  0  0  0  0  0  0  0  0
  125.5410  123.5490   57.3960 C   0  0  0  0  0  0  0  0  0  0  0  0
  126.1180  124.8490   57.3770 O   0  0  0  0  0  0  0  0  0  0  0  0
  125.4260  125.7930   58.1850 C   0  0  0  0  0  0  0  0  0  0  0  0
  126.4420  126.6910   58.9010 C   0  0  0  0  0  0  0  0  0  0  0  0
  126.6200  127.8910   58.1590 O   0  0  0  0  0  0  0  0  0  0  0  0
  125.4010  128.5370   57.8170 C   0  0  0  0  0  0  0  0  0  0  0  0
  125.6590  129.5670   56.7010 C   0  0  0  0  0  0  0  0  0  0  0  0
  127.0760  129.7880   56.4100 N   0  0  0  0  0  0  0  0  0  0  0  0
  127.5800  130.0990   55.2030 C   0  0  0  0  0  0  0  0  0  0  0  0
  126.8810  130.2380   54.1970 O   0  0  0  0  0  0  0  0  0  0  0  0
  129.1060  130.2680   55.1460 C   0  0  0  0  0  0  0  0  0  0  0  0
  129.7700  131.7400   56.0000 S   0  0  0  0  0  0  0  0  0  0  0  0
  129.5750  131.5330   57.7640 C   0  0  0  0  0  0  0  0  0  0  0  0
  128.2970  131.5370   58.2240 N   0  0  0  0  0  0  0  0  0  0  0  0
  128.0790  131.3950   59.5510 C   0  0  0  0  0  0  0  0  0  0  0  0
  126.6270  131.4190   59.9870 C   0  0  0  0  0  0  0  0  0  0  0  0
  129.1140  131.2350   60.4700 C   0  0  0  0  0  0  0  0  0  0  0  0
  130.4340  131.2210   60.0090 C   0  0  0  0  0  0  0  0  0  0  0  0
  131.5540  131.0450   61.0320 C   0  0  0  0  0  0  0  0  0  0  0  0
  130.6840  131.3730   58.6270 C   0  0  0  0  0  0  0  0  0  0  0  0
  132.0580  131.3660   58.1160 C   0  0  0  0  0  0  0  0  0  0  0  0
  133.1430  131.3610   57.7130 N   0  0  0  0  0  0  0  0  0  0  0  0
  124.4977  122.2578   56.0967 H   0  0  0  0  0  0  0  0  0  0  0  0
  125.6115  122.8437   54.8150 H   0  0  0  0  0  0  0  0  0  0  0  0
  125.0628  121.1333   54.8150 H   0  0  0  0  0  0  0  0  0  0  0  0
  126.6366  121.9108   58.2942 H   0  0  0  0  0  0  0  0  0  0  0  0
  127.6313  122.9973   57.2662 H   0  0  0  0  0  0  0  0  0  0  0  0
  124.8912  123.4229   56.5174 H   0  0  0  0  0  0  0  0  0  0  0  0
  124.9451  123.4246   58.3122 H   0  0  0  0  0  0  0  0  0  0  0  0
  124.7731  126.4105   57.5506 H   0  0  0  0  0  0  0  0  0  0  0  0
  124.8154  125.2618   58.9300 H   0  0  0  0  0  0  0  0  0  0  0  0
  126.0711  126.9340   59.9077 H   0  0  0  0  0  0  0  0  0  0  0  0
  127.4041  126.1639   58.9819 H   0  0  0  0  0  0  0  0  0  0  0  0
  124.6762  127.7885   57.4643 H   0  0  0  0  0  0  0  0  0  0  0  0
  124.9979  129.0502   58.7025 H   0  0  0  0  0  0  0  0  0  0  0  0
  125.1687  129.2118   55.7826 H   0  0  0  0  0  0  0  0  0  0  0  0
  125.2535  130.5266   57.0541 H   0  0  0  0  0  0  0  0  0  0  0  0
  127.7120  129.6880   57.1880 H   0  0  0  0  0  0  0  0  0  0  0  0
  129.5623  129.3773   55.6026 H   0  0  0  0  0  0  0  0  0  0  0  0
  129.3545  130.3997   54.0826 H   0  0  0  0  0  0  0  0  0  0  0  0
  126.5741  131.4199   61.0857 H   0  0  0  0  0  0  0  0  0  0  0  0
  126.1416  132.3253   59.5958 H   0  0  0  0  0  0  0  0  0  0  0  0
  126.1119  130.5292   59.5958 H   0  0  0  0  0  0  0  0  0  0  0  0
  128.8959  131.1214   61.5422 H   0  0  0  0  0  0  0  0  0  0  0  0
  131.1366  131.1106   62.0476 H   0  0  0  0  0  0  0  0  0  0  0  0
  132.0267  130.0616   60.8926 H   0  0  0  0  0  0  0  0  0  0  0  0
  132.3055  131.8361   60.8926 H   0  0  0  0  0  0  0  0  0  0  0  0
  1  2  1  0
  2  3  1  0
  3  4  1  0
  4  5  1  0
  5  6  1  0
  6  7  1  0
  7  8  1  0
  8  9  1  0
  9 10  1  0
 10 11  1  0
 11 12  1  0
 12 13  2  0
 12 14  1  0
 14 15  1  0
 15 16  1  0
 16 17  2  0
 17 18  1  0
 18 19  1  0
 18 20  2  0
 20 21  1  0
 21 22  1  0
 21 23  2  0
 23 24  1  0
 24 25  3  0
 23 16  1  0
  1 26  1  0
  1 27  1  0
  1 28  1  0
  3 29  1  0
  3 30  1  0
  4 31  1  0
  4 32  1  0
  6 33  1  0
  6 34  1  0
  7 35  1  0
  7 36  1  0
  9 37  1  0
  9 38  1  0
 10 39  1  0
 10 40  1  0
 11 41  1  0
 14 42  1  0
 14 43  1  0
 19 44  1  0
 19 45  1  0
 19 46  1  0
 20 47  1  0
 22 48  1  0
 22 49  1  0
 22 50  1  0
M  END
>  <Binding energies>  (1) 
[-6.76]

>  <Ligand effiencies>  (1) 
[-0.26]

>  <Interactions>  (1) 
["V-B:PRO:540:CB:9857, H-B:TYR:531:OH:9767, V-B:MET:535:CE:9807, V-B:PRO:540:N:9856, V-B:PRO:540:CA:9855, H-B:TYR:539:N:9842, V-B:MET:535:CG:9805, V-B:TYR:539:C:9839, V-B:TYR:531:CE2:9765, V-B:TYR:531:CZ:9766, V-B:LEU:363:CD1:8160, V-B:PRO:540:CD:9859, V-A:PRO:540:N:4884, V-A:TYR:539:CD1:4873, V-A:PRO:540:CA:4883, V-A:TYR:539:CZ:4877, V-A:PRO:540:CB:4885, V-A:TYR:539:CE1:4875, V-B:ASP:366:CG:8184, V-B:TYR:531:CE1:9764, H-B:LYS:534:NZ:9795, V-B:ASP:366:CB:8183, V-A:TYR:539:C:4867, H-A:TYR:539:OH:4878, V-B:ILE:538:CA:9832, V-B:ILE:538:CG1:9836, V-B:ILE:538:CG2:9835, V-B:ILE:538:CB:9834"]

$$$$
1l_Grossjean_2025
     RDKit          3D

 30 30  0  0  0  0  0  0  0  0999 V2000
  129.4880  127.6460   54.0050 C   0  0  0  0  0  0  0  0  0  0  0  0
  129.8840  128.9900   53.7710 O   0  0  0  0  0  0  0  0  0  0  0  0
  129.7540  129.7350   54.9420 N   0  0  0  0  0  0  0  0  0  0  0  0
  128.7950  130.6780   55.0130 C   0  0  0  0  0  0  0  0  0  0  0  0
  127.8730  130.7780   54.1990 O   0  0  0  0  0  0  0  0  0  0  0  0
  128.9100  131.6360   56.2070 C   0  0  0  0  0  0  0  0  0  0  0  0
  128.9850  130.8260   57.8420 S   0  0  0  0  0  0  0  0  0  0  0  0
  130.6980  130.7160   58.3290 C   0  0  0  0  0  0  0  0  0  0  0  0
  131.5440  130.2020   57.3990 N   0  0  0  0  0  0  0  0  0  0  0  0
  132.8590  130.0890   57.7030 C   0  0  0  0  0  0  0  0  0  0  0  0
  133.7390  129.5070   56.6130 C   0  0  0  0  0  0  0  0  0  0  0  0
  133.3820  130.4790   58.9330 C   0  0  0  0  0  0  0  0  0  0  0  0
  132.5210  131.0110   59.8990 C   0  0  0  0  0  0  0  0  0  0  0  0
  133.1170  131.4340   61.2410 C   0  0  0  0  0  0  0  0  0  0  0  0
  131.1460  131.1380   59.6030 C   0  0  0  0  0  0  0  0  0  0  0  0
  130.2200  131.6920   60.5960 C   0  0  0  0  0  0  0  0  0  0  0  0
  129.4920  132.1290   61.3810 N   0  0  0  0  0  0  0  0  0  0  0  0
  129.4341  127.4630   55.0883 H   0  0  0  0  0  0  0  0  0  0  0  0
  128.5001  127.4710   53.5539 H   0  0  0  0  0  0  0  0  0  0  0  0
  130.2232  126.9633   53.5539 H   0  0  0  0  0  0  0  0  0  0  0  0
  130.6140  129.7680   55.4710 H   0  0  0  0  0  0  0  0  0  0  0  0
  129.8256  132.2321   56.0792 H   0  0  0  0  0  0  0  0  0  0  0  0
  127.9912  132.2408   56.2054 H   0  0  0  0  0  0  0  0  0  0  0  0
  134.5732  128.9553   57.0708 H   0  0  0  0  0  0  0  0  0  0  0  0
  133.1455  128.8227   55.9889 H   0  0  0  0  0  0  0  0  0  0  0  0
  134.1364  130.3210   55.9889 H   0  0  0  0  0  0  0  0  0  0  0  0
  134.4564  130.3704   59.1422 H   0  0  0  0  0  0  0  0  0  0  0  0
  132.5173  131.0084   62.0590 H   0  0  0  0  0  0  0  0  0  0  0  0
  134.1512  131.0666   61.3150 H   0  0  0  0  0  0  0  0  0  0  0  0
  133.1116  132.5315   61.3150 H   0  0  0  0  0  0  0  0  0  0  0  0
  1  2  1  0
  2  3  1  0
  3  4  1  0
  4  5  2  0
  4  6  1  0
  6  7  1  0
  7  8  1  0
  8  9  2  0
  9 10  1  0
 10 11  1  0
 10 12  2  0
 12 13  1  0
 13 14  1  0
 13 15  2  0
 15 16  1  0
 16 17  3  0
 15  8  1  0
  1 18  1  0
  1 19  1  0
  1 20  1  0
  3 21  1  0
  6 22  1  0
  6 23  1  0
 11 24  1  0
 11 25  1  0
 11 26  1  0
 12 27  1  0
 14 28  1  0
 14 29  1  0
 14 30  1  0
M  END
>  <Binding energies>  (1) 
[-5.94]

>  <Ligand effiencies>  (1) 
[-0.33]

>  <Interactions>  (1) 
["V-A:ASP:366:CG:3212, V-A:ASP:366:CB:3211, V-A:TYR:539:CD1:4873, V-A:PRO:540:CA:4883, H-A:TYR:531:OH:4795, V-A:TYR:539:CZ:4877, V-A:PRO:540:CB:4885, V-A:TYR:539:CE1:4875, V-A:TYR:531:CZ:4794, H-B:LYS:534:NZ:9795, V-A:PRO:540:C:4881, V-A:LEU:363:CD1:3188, H-A:TYR:539:OH:4878, H-A:ALA:541:N:4891, V-A:TYR:531:CE2:4793, V-A:LEU:363:CA:3184, V-A:ASN:362:CB:3175, V-A:MET:535:CE:4835"]

$$$$
1m_Grossjean_2025
     RDKit          3D

 35 35  0  0  0  0  0  0  0  0999 V2000
  131.6810  125.7880   55.7680 C   0  0  0  0  0  0  0  0  0  0  0  0
  130.9740  126.4990   54.7620 O   0  0  0  0  0  0  0  0  0  0  0  0
  129.6950  126.8800   54.9620 C   0  0  0  0  0  0  0  0  0  0  0  0
  128.9280  126.4040   55.8050 O   0  0  0  0  0  0  0  0  0  0  0  0
  129.2860  128.0160   54.0020 C   0  0  0  0  0  0  0  0  0  0  0  0
  129.5260  129.3530   54.5660 N   0  0  0  0  0  0  0  0  0  0  0  0
  128.6260  130.3530   54.6260 C   0  0  0  0  0  0  0  0  0  0  0  0
  127.4790  130.2510   54.1860 O   0  0  0  0  0  0  0  0  0  0  0  0
  129.1220  131.6510   55.2770 C   0  0  0  0  0  0  0  0  0  0  0  0
  130.8010  131.5540   55.9870 S   0  0  0  0  0  0  0  0  0  0  0  0
  130.6480  131.5180   57.7600 C   0  0  0  0  0  0  0  0  0  0  0  0
  129.4580  131.9900   58.2110 N   0  0  0  0  0  0  0  0  0  0  0  0
  129.2260  132.0040   59.5440 C   0  0  0  0  0  0  0  0  0  0  0  0
  127.8680  132.5270   59.9720 C   0  0  0  0  0  0  0  0  0  0  0  0
  130.1650  131.5650   60.4760 C   0  0  0  0  0  0  0  0  0  0  0  0
  131.4050  131.1010   60.0230 C   0  0  0  0  0  0  0  0  0  0  0  0
  132.4240  130.6390   61.0630 C   0  0  0  0  0  0  0  0  0  0  0  0
  131.6700  131.0770   58.6350 C   0  0  0  0  0  0  0  0  0  0  0  0
  132.9790  130.6430   58.1430 C   0  0  0  0  0  0  0  0  0  0  0  0
  134.0130  130.2990   57.7550 N   0  0  0  0  0  0  0  0  0  0  0  0
  131.3456  126.1253   56.7598 H   0  0  0  0  0  0  0  0  0  0  0  0
  131.4856  124.7107   55.6616 H   0  0  0  0  0  0  0  0  0  0  0  0
  132.7594  125.9773   55.6616 H   0  0  0  0  0  0  0  0  0  0  0  0
  129.8665  127.9171   53.0729 H   0  0  0  0  0  0  0  0  0  0  0  0
  128.2052  127.9226   53.8198 H   0  0  0  0  0  0  0  0  0  0  0  0
  130.4550  129.5230   54.9230 H   0  0  0  0  0  0  0  0  0  0  0  0
  129.1185  132.4413   54.5119 H   0  0  0  0  0  0  0  0  0  0  0  0
  128.4411  131.8582   56.1157 H   0  0  0  0  0  0  0  0  0  0  0  0
  127.8128  132.5483   61.0704 H   0  0  0  0  0  0  0  0  0  0  0  0
  127.7260  133.5441   59.5780 H   0  0  0  0  0  0  0  0  0  0  0  0
  127.0804  131.8679   59.5780 H   0  0  0  0  0  0  0  0  0  0  0  0
  129.9347  131.5830   61.5515 H   0  0  0  0  0  0  0  0  0  0  0  0
  132.0255  130.8197   62.0722 H   0  0  0  0  0  0  0  0  0  0  0  0
  132.6193  129.5643   60.9328 H   0  0  0  0  0  0  0  0  0  0  0  0
  133.3610  131.2003   60.9328 H   0  0  0  0  0  0  0  0  0  0  0  0
  1  2  1  0
  2  3  1  0
  3  4  2  0
  3  5  1  0
  5  6  1  0
  6  7  1  0
  7  8  2  0
  7  9  1  0
  9 10  1  0
 10 11  1  0
 11 12  2  0
 12 13  1  0
 13 14  1  0
 13 15  2  0
 15 16  1  0
 16 17  1  0
 16 18  2  0
 18 19  1  0
 19 20  3  0
 18 11  1  0
  1 21  1  0
  1 22  1  0
  1 23  1  0
  5 24  1  0
  5 25  1  0
  6 26  1  0
  9 27  1  0
  9 28  1  0
 14 29  1  0
 14 30  1  0
 14 31  1  0
 15 32  1  0
 17 33  1  0
 17 34  1  0
 17 35  1  0
M  END
>  <Binding energies>  (1) 
[-6.83]

>  <Ligand effiencies>  (1) 
[-0.3252380952380952]

>  <Interactions>  (1) 
["H-B:TYR:531:OH:9767, V-A:ASP:366:CG:3212, V-A:PRO:540:N:4884, V-A:TYR:531:CE1:4792, V-A:ILE:538:CA:4860, V-A:ASP:366:CB:3211, V-A:TYR:539:CD1:4873, V-A:PRO:540:CA:4883, H-A:TYR:531:OH:4795, V-A:PRO:540:CB:4885, V-A:TYR:539:CE1:4875, H-B:LYS:534:NZ:9795, V-A:PRO:540:C:4881, V-A:TYR:539:C:4867, V-A:LEU:363:CD1:3188, H-A:TYR:539:OH:4878, V-A:LEU:363:CA:3184, V-A:MET:535:CE:4835"]

$$$$
1n_Grossjean_2025
     RDKit          3D

 48 49  0  0  0  0  0  0  0  0999 V2000
  125.3270  123.7990   59.3150 C   0  0  0  0  0  0  0  0  0  0  0  0
  124.8270  123.9990   57.8810 C   0  0  0  0  0  0  0  0  0  0  0  0
  125.9200  123.8790   56.9790 O   0  0  0  0  0  0  0  0  0  0  0  0
  126.7670  122.8190   57.0400 C   0  0  0  0  0  0  0  0  0  0  0  0
  126.4780  121.6930   56.6270 O   0  0  0  0  0  0  0  0  0  0  0  0
  128.0970  123.1580   57.6490 C   0  0  0  0  0  0  0  0  0  0  0  0
  128.7170  122.3230   58.5910 C   0  0  0  0  0  0  0  0  0  0  0  0
  129.9490  122.6680   59.1380 C   0  0  0  0  0  0  0  0  0  0  0  0
  130.5830  123.8540   58.7650 C   0  0  0  0  0  0  0  0  0  0  0  0
  131.8220  124.1070   59.3840 N   0  0  0  0  0  0  0  0  0  0  0  0
  133.0410  123.5870   59.1210 C   0  0  0  0  0  0  0  0  0  0  0  0
  133.2910  122.7640   58.2410 O   0  0  0  0  0  0  0  0  0  0  0  0
  134.1830  124.0940   60.0120 C   0  0  0  0  0  0  0  0  0  0  0  0
  133.9740  123.7710   61.5070 C   0  0  0  0  0  0  0  0  0  0  0  0
  134.1500  122.0120   61.9310 S   0  0  0  0  0  0  0  0  0  0  0  0
  132.5530  121.2490   61.7450 C   0  0  0  0  0  0  0  0  0  0  0  0
  131.5360  121.9870   62.2580 N   0  0  0  0  0  0  0  0  0  0  0  0
  130.2730  121.5120   62.1580 C   0  0  0  0  0  0  0  0  0  0  0  0
  129.1880  122.3950   62.7440 C   0  0  0  0  0  0  0  0  0  0  0  0
  129.9730  120.2920   61.5550 C   0  0  0  0  0  0  0  0  0  0  0  0
  131.0170  119.5140   61.0410 C   0  0  0  0  0  0  0  0  0  0  0  0
  130.6660  118.1750   60.3970 C   0  0  0  0  0  0  0  0  0  0  0  0
  132.3450  119.9880   61.1390 C   0  0  0  0  0  0  0  0  0  0  0  0
  133.4570  119.1680   60.6540 C   0  0  0  0  0  0  0  0  0  0  0  0
  134.3340  118.5170   60.2720 N   0  0  0  0  0  0  0  0  0  0  0  0
  129.9750  124.6890   57.8160 C   0  0  0  0  0  0  0  0  0  0  0  0
  128.7440  124.3400   57.2670 C   0  0  0  0  0  0  0  0  0  0  0  0
  124.5452  124.1117   60.0229 H   0  0  0  0  0  0  0  0  0  0  0  0
  125.5638  122.7369   59.4760 H   0  0  0  0  0  0  0  0  0  0  0  0
  126.2310  124.4047   59.4760 H   0  0  0  0  0  0  0  0  0  0  0  0
  124.0714  123.2350   57.6458 H   0  0  0  0  0  0  0  0  0  0  0  0
  124.3785  124.9987   57.7841 H   0  0  0  0  0  0  0  0  0  0  0  0
  128.2253  121.3886   58.8994 H   0  0  0  0  0  0  0  0  0  0  0  0
  130.4270  122.0007   59.8702 H   0  0  0  0  0  0  0  0  0  0  0  0
  131.7860  124.8110   60.1060 H   0  0  0  0  0  0  0  0  0  0  0  0
  135.1208  123.6244   59.6802 H   0  0  0  0  0  0  0  0  0  0  0  0
  134.2136  125.1892   59.9143 H   0  0  0  0  0  0  0  0  0  0  0  0
  134.7146  124.3401   62.0881 H   0  0  0  0  0  0  0  0  0  0  0  0
  132.9360  124.0473   61.7442 H   0  0  0  0  0  0  0  0  0  0  0  0
  129.2365  122.3555   63.8422 H   0  0  0  0  0  0  0  0  0  0  0  0
  129.3372  123.4315   62.4074 H   0  0  0  0  0  0  0  0  0  0  0  0
  128.2034  122.0383   62.4074 H   0  0  0  0  0  0  0  0  0  0  0  0
  128.9314  119.9456   61.4840 H   0  0  0  0  0  0  0  0  0  0  0  0
  130.4708  117.4303   61.1826 H   0  0  0  0  0  0  0  0  0  0  0  0
  129.7684  118.2927   59.7722 H   0  0  0  0  0  0  0  0  0  0  0  0
  131.5060  117.8373   59.7722 H   0  0  0  0  0  0  0  0  0  0  0  0
  130.4711  125.6203   57.5053 H   0  0  0  0  0  0  0  0  0  0  0  0
  128.2737  125.0009   56.5240 H   0  0  0  0  0  0  0  0  0  0  0  0
  1  2  1  0
  2  3  1  0
  3  4  1  0
  4  5  2  0
  4  6  1  0
  6  7  2  0
  7  8  1  0
  8  9  2  0
  9 10  1  0
 10 11  1  0
 11 12  2  0
 11 13  1  0
 13 14  1  0
 14 15  1  0
 15 16  1  0
 16 17  2  0
 17 18  1  0
 18 19  1  0
 18 20  2  0
 20 21  1  0
 21 22  1  0
 21 23  2  0
 23 24  1  0
 24 25  3  0
  9 26  1  0
 26 27  2  0
 27  6  1  0
 23 16  1  0
  1 28  1  0
  1 29  1  0
  1 30  1  0
  2 31  1  0
  2 32  1  0
  7 33  1  0
  8 34  1  0
 10 35  1  0
 13 36  1  0
 13 37  1  0
 14 38  1  0
 14 39  1  0
 19 40  1  0
 19 41  1  0
 19 42  1  0
 20 43  1  0
 22 44  1  0
 22 45  1  0
 22 46  1  0
 26 47  1  0
 27 48  1  0
M  END
>  <Binding energies>  (1) 
[-8.1]

>  <Ligand effiencies>  (1) 
[-0.28928571428571426]

>  <Interactions>  (1) 
["V-B:PRO:540:CB:9857, H-B:TYR:531:OH:9767, V-B:MET:535:CE:9807, V-A:ILE:369:CG2:3236, V-B:TYR:539:CD2:9846, V-B:PRO:540:N:9856, V-A:LEU:475:CD1:4257, V-B:PRO:540:CA:9855, V-B:PRO:540:C:9853, H-A:SER:385:OG:3409, H-A:HIS:383:NE2:3393, H-B:TYR:539:N:9842, V-B:ALA:541:CB:9864, V-B:TYR:539:CE2:9848, V-B:TYR:539:C:9839, V-B:TYR:531:CE2:9765, V-A:PRO:482:CG:4326, V-B:LEU:363:CD1:8160, V-A:ASP:366:CG:3212, H-A:GLY:454:N:4049, V-A:ASP:366:CA:3209, V-A:ASP:366:CB:3211, H-B:TYR:539:OH:9850, V-A:ILE:369:CD1:3238, H-A:ASP:366:OD2:3214, V-B:TYR:539:CZ:9849, V-A:SER:385:CA:3406, V-A:ILE:369:CB:3235, V-B:ALA:541:CA:9862"]

$$$$
1o_Grossjean_2025
     RDKit          3D

 45 46  0  0  0  0  0  0  0  0999 V2000
  125.0100  121.9950   54.9240 C   0  0  0  0  0  0  0  0  0  0  0  0
  125.5640  121.4820   56.1270 O   0  0  0  0  0  0  0  0  0  0  0  0
  126.6800  122.0300   56.6730 C   0  0  0  0  0  0  0  0  0  0  0  0
  127.7880  121.4860   56.6470 O   0  0  0  0  0  0  0  0  0  0  0  0
  126.4330  123.3670   57.3100 C   0  0  0  0  0  0  0  0  0  0  0  0
  127.4690  124.2890   57.5260 C   0  0  0  0  0  0  0  0  0  0  0  0
  127.2060  125.5220   58.1180 C   0  0  0  0  0  0  0  0  0  0  0  0
  125.9090  125.8570   58.5090 C   0  0  0  0  0  0  0  0  0  0  0  0
  125.7550  127.1320   59.0880 N   0  0  0  0  0  0  0  0  0  0  0  0
  126.0720  128.3500   58.5970 C   0  0  0  0  0  0  0  0  0  0  0  0
  126.5360  128.5650   57.4770 O   0  0  0  0  0  0  0  0  0  0  0  0
  125.7870  129.5350   59.5310 C   0  0  0  0  0  0  0  0  0  0  0  0
  127.0550  130.1080   60.1960 C   0  0  0  0  0  0  0  0  0  0  0  0
  127.5030  131.7720   59.6170 S   0  0  0  0  0  0  0  0  0  0  0  0
  128.8800  131.6280   58.4960 C   0  0  0  0  0  0  0  0  0  0  0  0
  128.5130  131.6190   57.1890 N   0  0  0  0  0  0  0  0  0  0  0  0
  129.4770  131.5220   56.2430 C   0  0  0  0  0  0  0  0  0  0  0  0
  128.9930  131.5330   54.8050 C   0  0  0  0  0  0  0  0  0  0  0  0
  130.8300  131.4180   56.5570 C   0  0  0  0  0  0  0  0  0  0  0  0
  131.2170  131.4000   57.9010 C   0  0  0  0  0  0  0  0  0  0  0  0
  132.7050  131.2700   58.2200 C   0  0  0  0  0  0  0  0  0  0  0  0
  130.2280  131.4960   58.9070 C   0  0  0  0  0  0  0  0  0  0  0  0
  130.6090  131.4190   60.3190 C   0  0  0  0  0  0  0  0  0  0  0  0
  130.9120  131.3590   61.4350 N   0  0  0  0  0  0  0  0  0  0  0  0
  124.8680  124.9430   58.2910 C   0  0  0  0  0  0  0  0  0  0  0  0
  125.1320  123.7110   57.6990 C   0  0  0  0  0  0  0  0  0  0  0  0
  124.2225  122.7243   55.1648 H   0  0  0  0  0  0  0  0  0  0  0  0
  125.7995  122.4880   54.3378 H   0  0  0  0  0  0  0  0  0  0  0  0
  124.5790  121.1700   54.3378 H   0  0  0  0  0  0  0  0  0  0  0  0
  128.4964  124.0359   57.2255 H   0  0  0  0  0  0  0  0  0  0  0  0
  128.0265  126.2368   58.2785 H   0  0  0  0  0  0  0  0  0  0  0  0
  125.3200  127.1210   59.9990 H   0  0  0  0  0  0  0  0  0  0  0  0
  125.3089  130.3339   58.9451 H   0  0  0  0  0  0  0  0  0  0  0  0
  125.1362  129.1648   60.3368 H   0  0  0  0  0  0  0  0  0  0  0  0
  126.8863  130.1530   61.2820 H   0  0  0  0  0  0  0  0  0  0  0  0
  127.8867  129.4411   59.9250 H   0  0  0  0  0  0  0  0  0  0  0  0
  127.8934  131.5580   54.7884 H   0  0  0  0  0  0  0  0  0  0  0  0
  129.3878  132.4224   54.2920 H   0  0  0  0  0  0  0  0  0  0  0  0
  129.3469  130.6266   54.2920 H   0  0  0  0  0  0  0  0  0  0  0  0
  131.5840  131.3509   55.7588 H   0  0  0  0  0  0  0  0  0  0  0  0
  132.8464  131.2576   59.3108 H   0  0  0  0  0  0  0  0  0  0  0  0
  133.0919  130.3346   57.7895 H   0  0  0  0  0  0  0  0  0  0  0  0
  133.2483  132.1241   57.7895 H   0  0  0  0  0  0  0  0  0  0  0  0
  123.8407  125.2001   58.5884 H   0  0  0  0  0  0  0  0  0  0  0  0
  124.3094  122.9994   57.5348 H   0  0  0  0  0  0  0  0  0  0  0  0
  1  2  1  0
  2  3  1  0
  3  4  2  0
  3  5  1  0
  5  6  2  0
  6  7  1  0
  7  8  2  0
  8  9  1  0
  9 10  1  0
 10 11  2  0
 10 12  1  0
 12 13  1  0
 13 14  1  0
 14 15  1  0
 15 16  2  0
 16 17  1  0
 17 18  1  0
 17 19  2  0
 19 20  1  0
 20 21  1  0
 20 22  2  0
 22 23  1  0
 23 24  3  0
  8 25  1  0
 25 26  2  0
 26  5  1  0
 22 15  1  0
  1 27  1  0
  1 28  1  0
  1 29  1  0
  6 30  1  0
  7 31  1  0
  9 32  1  0
 12 33  1  0
 12 34  1  0
 13 35  1  0
 13 36  1  0
 18 37  1  0
 18 38  1  0
 18 39  1  0
 19 40  1  0
 21 41  1  0
 21 42  1  0
 21 43  1  0
 25 44  1  0
 26 45  1  0
M  END
>  <Binding energies>  (1) 
[-7.95]

>  <Ligand effiencies>  (1) 
[-0.29444444444444445]

>  <Interactions>  (1) 
["V-B:PRO:540:CB:9857, H-B:TYR:531:OH:9767, V-B:MET:535:CE:9807, V-B:PRO:540:N:9856, V-B:PRO:540:CA:9855, H-B:TYR:539:N:9842, V-B:MET:535:CG:9805, V-B:TYR:539:C:9839, V-B:TYR:531:CE2:9765, V-B:TYR:531:CZ:9766, V-B:LEU:363:CD1:8160, V-B:PRO:540:CD:9859, V-A:PRO:540:N:4884, V-A:ILE:538:CA:4860, V-A:TYR:539:CD1:4873, V-A:PRO:540:CA:4883, V-A:TYR:539:CZ:4877, V-A:PRO:540:CB:4885, V-A:TYR:539:CE1:4875, V-B:ASP:366:CG:8184, V-B:ASP:366:CB:8183, V-A:PRO:540:C:4881, V-A:TYR:539:C:4867, V-A:LEU:363:CD1:3188, H-A:ALA:541:N:4891, H-B:ASP:366:OD2:8186, V-B:ILE:538:CA:9832, V-B:ILE:538:CG1:9836, V-B:ILE:538:CG2:9835, H-B:ASP:366:OD1:8185, V-B:ILE:538:CB:9834, V-B:MET:535:CB:9804"]

$$$$
1p_Grossjean_2025
     RDKit          3D

 35 36  0  0  0  0  0  0  0  0999 V2000
  130.7090  118.2580   60.6330 C   0  0  0  0  0  0  0  0  0  0  0  0
  131.3390  119.4810   61.2730 C   0  0  0  0  0  0  0  0  0  0  0  0
  132.7120  119.7130   61.2050 C   0  0  0  0  0  0  0  0  0  0  0  0
  133.2410  120.8500   61.8250 C   0  0  0  0  0  0  0  0  0  0  0  0
  134.7490  121.0770   61.7500 C   0  0  0  0  0  0  0  0  0  0  0  0
  132.3710  121.7380   62.4970 C   0  0  0  0  0  0  0  0  0  0  0  0
  132.9050  122.9090   63.1940 C   0  0  0  0  0  0  0  0  0  0  0  0
  133.3290  123.8350   63.7450 N   0  0  0  0  0  0  0  0  0  0  0  0
  130.9880  121.4350   62.4960 C   0  0  0  0  0  0  0  0  0  0  0  0
  129.7580  122.4490   63.2840 S   0  0  0  0  0  0  0  0  0  0  0  0
  129.2500  123.7000   62.0690 C   0  0  0  0  0  0  0  0  0  0  0  0
  129.5280  123.2970   60.6080 C   0  0  0  0  0  0  0  0  0  0  0  0
  128.2790  122.8090   59.8580 C   0  0  0  0  0  0  0  0  0  0  0  0
  127.3200  122.3710   60.4960 O   0  0  0  0  0  0  0  0  0  0  0  0
  128.3280  122.9160   58.5110 N   0  0  0  0  0  0  0  0  0  0  0  0
  127.3420  122.5520   57.6030 C   0  0  0  0  0  0  0  0  0  0  0  0
  126.0760  123.1370   57.5780 C   0  0  0  0  0  0  0  0  0  0  0  0
  125.4110  122.5090   56.5500 C   0  0  0  0  0  0  0  0  0  0  0  0
  126.2320  121.5920   55.9870 O   0  0  0  0  0  0  0  0  0  0  0  0
  127.4530  121.6280   56.6640 N   0  0  0  0  0  0  0  0  0  0  0  0
  130.4880  120.3180   61.9100 N   0  0  0  0  0  0  0  0  0  0  0  0
  130.3564  117.5736   61.4187 H   0  0  0  0  0  0  0  0  0  0  0  0
  129.8585  118.5682   60.0082 H   0  0  0  0  0  0  0  0  0  0  0  0
  131.4554  117.7456   60.0082 H   0  0  0  0  0  0  0  0  0  0  0  0
  133.3703  119.0117   60.6712 H   0  0  0  0  0  0  0  0  0  0  0  0
  135.1615  121.1391   62.7678 H   0  0  0  0  0  0  0  0  0  0  0  0
  135.2197  120.2396   61.2141 H   0  0  0  0  0  0  0  0  0  0  0  0
  134.9523  122.0159   61.2141 H   0  0  0  0  0  0  0  0  0  0  0  0
  128.1696  123.8738   62.1812 H   0  0  0  0  0  0  0  0  0  0  0  0
  129.8450  124.6029   62.2710 H   0  0  0  0  0  0  0  0  0  0  0  0
  129.9336  124.1708   60.0770 H   0  0  0  0  0  0  0  0  0  0  0  0
  130.2383  122.4574   60.6338 H   0  0  0  0  0  0  0  0  0  0  0  0
  129.1730  123.2910   58.1070 H   0  0  0  0  0  0  0  0  0  0  0  0
  125.6922  123.9292   58.2376 H   0  0  0  0  0  0  0  0  0  0  0  0
  124.3778  122.7186   56.2361 H   0  0  0  0  0  0  0  0  0  0  0  0
  1  2  1  0
  2  3  2  0
  3  4  1  0
  4  5  1  0
  4  6  2  0
  6  7  1  0
  7  8  3  0
  6  9  1  0
  9 10  1  0
 10 11  1  0
 11 12  1  0
 12 13  1  0
 13 14  2  0
 13 15  1  0
 15 16  1  0
 16 17  1  0
 17 18  2  0
 18 19  1  0
 19 20  1  0
  9 21  2  0
 21  2  1  0
 20 16  2  0
  1 22  1  0
  1 23  1  0
  1 24  1  0
  3 25  1  0
  5 26  1  0
  5 27  1  0
  5 28  1  0
 11 29  1  0
 11 30  1  0
 12 31  1  0
 12 32  1  0
 15 33  1  0
 17 34  1  0
 18 35  1  0
M  END
>  <Binding energies>  (1) 
[-7.39]

>  <Ligand effiencies>  (1) 
[-0.3359090909090909]

>  <Interactions>  (1) 
["H-B:ALA:541:N:9863, V-B:PRO:540:CB:9857, V-B:MET:535:CE:9807, V-A:ILE:369:CG2:3236, V-B:TYR:539:CD2:9846, V-B:PRO:540:N:9856, V-A:LEU:475:CD1:4257, V-B:PRO:540:CA:9855, H-B:TYR:539:N:9842, V-B:ALA:541:CB:9864, V-B:TYR:539:C:9839, V-A:PRO:482:CG:4326, V-B:LEU:363:CD1:8160, H-A:TYR:484:OH:4347, H-A:GLY:454:N:4049, V-B:PRO:540:CD:9859, V-A:ILE:369:CD1:3238, V-A:SER:385:C:3404, V-A:GLY:454:CA:4048"]

$$$$
1q_Grossjean_2025
     RDKit          3D

 38 38  0  0  0  0  0  0  0  0999 V2000
  131.7430  131.7440   56.2260 C   0  0  0  0  0  0  0  0  0  0  0  0
  130.5700  132.5400   56.1500 O   0  0  0  0  0  0  0  0  0  0  0  0
  129.6720  132.3490   55.1520 C   0  0  0  0  0  0  0  0  0  0  0  0
  128.5540  132.8640   55.0870 O   0  0  0  0  0  0  0  0  0  0  0  0
  130.1470  131.3700   54.0570 C   0  0  0  0  0  0  0  0  0  0  0  0
  129.7660  129.9760   54.3290 N   0  0  0  0  0  0  0  0  0  0  0  0
  128.5120  129.4850   54.3200 C   0  0  0  0  0  0  0  0  0  0  0  0
  127.5200  130.1740   54.0740 O   0  0  0  0  0  0  0  0  0  0  0  0
  128.3750  127.9860   54.6230 C   0  0  0  0  0  0  0  0  0  0  0  0
  128.9910  127.5520   55.9680 C   0  0  0  0  0  0  0  0  0  0  0  0
  129.9570  126.0160   55.8650 S   0  0  0  0  0  0  0  0  0  0  0  0
  129.1960  124.7950   56.9150 C   0  0  0  0  0  0  0  0  0  0  0  0
  127.8810  124.5960   56.6440 N   0  0  0  0  0  0  0  0  0  0  0  0
  127.1940  123.6920   57.3800 C   0  0  0  0  0  0  0  0  0  0  0  0
  125.7250  123.5370   57.0290 C   0  0  0  0  0  0  0  0  0  0  0  0
  127.7830  122.9470   58.3980 C   0  0  0  0  0  0  0  0  0  0  0  0
  129.1430  123.1250   58.6700 C   0  0  0  0  0  0  0  0  0  0  0  0
  129.7710  122.2830   59.7800 C   0  0  0  0  0  0  0  0  0  0  0  0
  129.8830  124.0620   57.9130 C   0  0  0  0  0  0  0  0  0  0  0  0
  131.3200  124.2200   58.1450 C   0  0  0  0  0  0  0  0  0  0  0  0
  132.4560  124.3420   58.3310 N   0  0  0  0  0  0  0  0  0  0  0  0
  132.0000  131.5696   57.2812 H   0  0  0  0  0  0  0  0  0  0  0  0
  131.5646  130.7796   55.7278 H   0  0  0  0  0  0  0  0  0  0  0  0
  132.5733  132.2660   55.7278 H   0  0  0  0  0  0  0  0  0  0  0  0
  129.7026  131.6742   53.0979 H   0  0  0  0  0  0  0  0  0  0  0  0
  131.2459  131.4121   54.0317 H   0  0  0  0  0  0  0  0  0  0  0  0
  130.5210  129.3490   54.5660 H   0  0  0  0  0  0  0  0  0  0  0  0
  127.3044  127.7337   54.6370 H   0  0  0  0  0  0  0  0  0  0  0  0
  128.9293  127.4535   53.8361 H   0  0  0  0  0  0  0  0  0  0  0  0
  129.6529  128.3558   56.3227 H   0  0  0  0  0  0  0  0  0  0  0  0
  128.1560  127.3619   56.6584 H   0  0  0  0  0  0  0  0  0  0  0  0
  125.1318  123.4744   57.9532 H   0  0  0  0  0  0  0  0  0  0  0  0
  125.3952  124.4053   56.4397 H   0  0  0  0  0  0  0  0  0  0  0  0
  125.5837  122.6190   56.4397 H   0  0  0  0  0  0  0  0  0  0  0  0
  127.1870  122.2286   58.9800 H   0  0  0  0  0  0  0  0  0  0  0  0
  129.4713  122.6848   60.7592 H   0  0  0  0  0  0  0  0  0  0  0  0
  129.4269  121.2421   59.6899 H   0  0  0  0  0  0  0  0  0  0  0  0
  130.8668  122.3160   59.6899 H   0  0  0  0  0  0  0  0  0  0  0  0
  1  2  1  0
  2  3  1  0
  3  4  2  0
  3  5  1  0
  5  6  1  0
  6  7  1  0
  7  8  2  0
  7  9  1  0
  9 10  1  0
 10 11  1  0
 11 12  1  0
 12 13  2  0
 13 14  1  0
 14 15  1  0
 14 16  2  0
 16 17  1  0
 17 18  1  0
 17 19  2  0
 19 20  1  0
 20 21  3  0
 19 12  1  0
  1 22  1  0
  1 23  1  0
  1 24  1  0
  5 25  1  0
  5 26  1  0
  6 27  1  0
  9 28  1  0
  9 29  1  0
 10 30  1  0
 10 31  1  0
 15 32  1  0
 15 33  1  0
 15 34  1  0
 16 35  1  0
 18 36  1  0
 18 37  1  0
 18 38  1  0
M  END
>  <Binding energies>  (1) 
[-6.79]

>  <Ligand effiencies>  (1) 
[-0.30863636363636365]

>  <Interactions>  (1) 
["H-B:TYR:531:OH:9767, V-B:MET:535:CE:9807, V-B:TYR:539:CD2:9846, V-B:PRO:540:CA:9855, V-B:TYR:539:CE2:9848, V-B:TYR:539:C:9839, V-B:TYR:531:CE2:9765, V-B:TYR:531:CZ:9766, V-B:LEU:363:CD1:8160, V-A:ILE:538:CA:4860, V-A:ILE:538:CG2:4863, H-B:TYR:539:OH:9850, H-A:TYR:531:OH:4795, H-A:TYR:539:N:4870, V-A:TYR:531:CZ:4794, V-A:ILE:538:CB:4862, V-B:TYR:531:CE1:9764, H-B:LYS:534:NZ:9795, V-A:LEU:363:CD1:3188, V-B:TYR:539:CZ:9849, H-A:TYR:539:OH:4878, V-A:ILE:538:C:4858"]

$$$$
2a_Ghoteimi_2023
     RDKit          3D

 85 90  0  0  0  0  0  0  0  0999 V2000
  125.2680  121.7640   56.3660 C   0  0  0  0  0  0  0  0  0  0  0  0
  125.3490  123.2140   55.8780 C   0  0  0  0  0  0  0  0  0  0  0  0
  125.5450  124.0760   56.9910 O   0  0  0  0  0  0  0  0  0  0  0  0
  125.5610  123.5920   58.2600 C   0  0  0  0  0  0  0  0  0  0  0  0
  124.5530  123.5040   58.9670 O   0  0  0  0  0  0  0  0  0  0  0  0
  126.9280  123.1670   58.7150 C   0  0  0  0  0  0  0  0  0  0  0  0
  127.2830  123.1370   60.0710 C   0  0  0  0  0  0  0  0  0  0  0  0
  128.5580  122.7370   60.4590 C   0  0  0  0  0  0  0  0  0  0  0  0
  129.5030  122.3550   59.5040 C   0  0  0  0  0  0  0  0  0  0  0  0
  130.7610  121.9740   60.0080 N   0  0  0  0  0  0  0  0  0  0  0  0
  131.0730  121.2940   61.1330 C   0  0  0  0  0  0  0  0  0  0  0  0
  130.2630  120.9150   61.9790 O   0  0  0  0  0  0  0  0  0  0  0  0
  132.5710  121.0370   61.3450 C   0  0  0  0  0  0  0  0  0  0  0  0
  133.5920  122.5440   61.4130 S   0  0  0  0  0  0  0  0  0  0  0  0
  132.4440  123.9010   61.4500 C   0  0  0  0  0  0  0  0  0  0  0  0
  132.0850  124.2810   62.6980 N   0  0  0  0  0  0  0  0  0  0  0  0
  131.2050  125.3020   62.8570 C   0  0  0  0  0  0  0  0  0  0  0  0
  130.8470  125.6600   64.2640 C   0  0  0  0  0  0  0  0  0  0  0  0
  131.8340  125.8320   65.2420 C   0  0  0  0  0  0  0  0  0  0  0  0
  131.4950  126.1540   66.5530 C   0  0  0  0  0  0  0  0  0  0  0  0
  130.1560  126.3250   66.9340 C   0  0  0  0  0  0  0  0  0  0  0  0
  129.8280  126.6190   68.2620 N   0  0  0  0  0  0  0  0  0  0  0  0
  128.7280  125.9210   68.9560 C   0  0  0  0  0  0  0  0  0  0  0  0
  128.7430  126.1020   70.4890 C   0  0  0  0  0  0  0  0  0  0  0  0
  128.7540  127.4830   70.8140 O   0  0  0  0  0  0  0  0  0  0  0  0
  129.9030  128.1290   70.2910 C   0  0  0  0  0  0  0  0  0  0  0  0
  129.9250  128.0100   68.7520 C   0  0  0  0  0  0  0  0  0  0  0  0
  129.1700  126.1390   65.9520 C   0  0  0  0  0  0  0  0  0  0  0  0
  129.5100  125.8200   64.6410 C   0  0  0  0  0  0  0  0  0  0  0  0
  130.6740  125.9760   61.7550 C   0  0  0  0  0  0  0  0  0  0  0  0
  131.0310  125.6000   60.4530 C   0  0  0  0  0  0  0  0  0  0  0  0
  130.4210  126.3600   59.3200 C   0  0  0  0  0  0  0  0  0  0  0  0
  130.5490  127.7500   59.2550 C   0  0  0  0  0  0  0  0  0  0  0  0
  129.9680  128.4680   58.2150 C   0  0  0  0  0  0  0  0  0  0  0  0
  129.2420  127.8180   57.2050 C   0  0  0  0  0  0  0  0  0  0  0  0
  128.6350  128.5230   56.1620 N   0  0  0  0  0  0  0  0  0  0  0  0
  129.4310  128.8790   54.9700 C   0  0  0  0  0  0  0  0  0  0  0  0
  128.5650  129.2920   53.7600 C   0  0  0  0  0  0  0  0  0  0  0  0
  127.6980  130.3540   54.1230 O   0  0  0  0  0  0  0  0  0  0  0  0
  126.8250  129.9830   55.1790 C   0  0  0  0  0  0  0  0  0  0  0  0
  127.6430  129.5840   56.4250 C   0  0  0  0  0  0  0  0  0  0  0  0
  129.1080  126.4250   57.2840 C   0  0  0  0  0  0  0  0  0  0  0  0
  129.6880  125.7060   58.3250 C   0  0  0  0  0  0  0  0  0  0  0  0
  131.9490  124.5340   60.2880 C   0  0  0  0  0  0  0  0  0  0  0  0
  132.4030  124.1330   58.9530 C   0  0  0  0  0  0  0  0  0  0  0  0
  132.7600  123.8170   57.8980 N   0  0  0  0  0  0  0  0  0  0  0  0
  129.1580  122.3910   58.1450 C   0  0  0  0  0  0  0  0  0  0  0  0
  127.8810  122.7900   57.7580 C   0  0  0  0  0  0  0  0  0  0  0  0
  125.2670  121.7468   57.4659 H   0  0  0  0  0  0  0  0  0  0  0  0
  124.3427  121.3022   55.9913 H   0  0  0  0  0  0  0  0  0  0  0  0
  126.1361  121.2020   55.9913 H   0  0  0  0  0  0  0  0  0  0  0  0
  126.1918  123.3195   55.1791 H   0  0  0  0  0  0  0  0  0  0  0  0
  124.4133  123.4822   55.3656 H   0  0  0  0  0  0  0  0  0  0  0  0
  126.5478  123.4320   60.8342 H   0  0  0  0  0  0  0  0  0  0  0  0
  128.8238  122.7215   61.5263 H   0  0  0  0  0  0  0  0  0  0  0  0
  131.5400  122.2810   59.4450 H   0  0  0  0  0  0  0  0  0  0  0  0
  132.6959  120.4940   62.2934 H   0  0  0  0  0  0  0  0  0  0  0  0
  132.9171  120.4630   60.4728 H   0  0  0  0  0  0  0  0  0  0  0  0
  132.8930  125.7109   64.9703 H   0  0  0  0  0  0  0  0  0  0  0  0
  132.2905  126.2764   67.3028 H   0  0  0  0  0  0  0  0  0  0  0  0
  127.7735  126.3088   68.5705 H   0  0  0  0  0  0  0  0  0  0  0  0
  128.8565  124.8464   68.7594 H   0  0  0  0  0  0  0  0  0  0  0  0
  127.8460  125.6334   70.9200 H   0  0  0  0  0  0  0  0  0  0  0  0
  129.6459  125.6269   70.9001 H   0  0  0  0  0  0  0  0  0  0  0  0
  129.8828  129.1920   70.5733 H   0  0  0  0  0  0  0  0  0  0  0  0
  130.8037  127.6493   70.7018 H   0  0  0  0  0  0  0  0  0  0  0  0
  129.0761  128.5807   68.3474 H   0  0  0  0  0  0  0  0  0  0  0  0
  130.8948  128.4032   68.4131 H   0  0  0  0  0  0  0  0  0  0  0  0
  128.1097  126.2474   66.2239 H   0  0  0  0  0  0  0  0  0  0  0  0
  128.7159  125.6919   63.8907 H   0  0  0  0  0  0  0  0  0  0  0  0
  129.9708  126.8076   61.9101 H   0  0  0  0  0  0  0  0  0  0  0  0
  131.1149  128.2817   60.0341 H   0  0  0  0  0  0  0  0  0  0  0  0
  130.0792  129.5619   58.1837 H   0  0  0  0  0  0  0  0  0  0  0  0
  130.0921  129.7190   55.2295 H   0  0  0  0  0  0  0  0  0  0  0  0
  129.9968  127.9827   54.6757 H   0  0  0  0  0  0  0  0  0  0  0  0
  129.2194  129.6205   52.9391 H   0  0  0  0  0  0  0  0  0  0  0  0
  127.9635  128.4300   53.4359 H   0  0  0  0  0  0  0  0  0  0  0  0
  126.1730  130.8332   55.4283 H   0  0  0  0  0  0  0  0  0  0  0  0
  126.2146  129.1259   54.8584 H   0  0  0  0  0  0  0  0  0  0  0  0
  128.1743  130.4743   56.7927 H   0  0  0  0  0  0  0  0  0  0  0  0
  126.9328  129.1872   57.1654 H   0  0  0  0  0  0  0  0  0  0  0  0
  128.5354  125.8916   56.5110 H   0  0  0  0  0  0  0  0  0  0  0  0
  129.5687  124.6132   58.3654 H   0  0  0  0  0  0  0  0  0  0  0  0
  129.8976  122.1035   57.3832 H   0  0  0  0  0  0  0  0  0  0  0  0
  127.6172  122.8096   56.6903 H   0  0  0  0  0  0  0  0  0  0  0  0
  1  2  1  0
  2  3  1  0
  3  4  1  0
  4  5  2  0
  4  6  1  0
  6  7  2  0
  7  8  1  0
  8  9  2  0
  9 10  1  0
 10 11  1  0
 11 12  2  0
 11 13  1  0
 13 14  1  0
 14 15  1  0
 15 16  2  0
 16 17  1  0
 17 18  1  0
 18 19  2  0
 19 20  1  0
 20 21  2  0
 21 22  1  0
 22 23  1  0
 23 24  1  0
 24 25  1  0
 25 26  1  0
 26 27  1  0
 21 28  1  0
 28 29  2  0
 17 30  2  0
 30 31  1  0
 31 32  1  0
 32 33  2  0
 33 34  1  0
 34 35  2  0
 35 36  1  0
 36 37  1  0
 37 38  1  0
 38 39  1  0
 39 40  1  0
 40 41  1  0
 35 42  1  0
 42 43  2  0
 31 44  2  0
 44 45  1  0
 45 46  3  0
  9 47  1  0
 47 48  2  0
 48  6  1  0
 44 15  1  0
 29 18  1  0
 43 32  1  0
 27 22  1  0
 41 36  1  0
  1 49  1  0
  1 50  1  0
  1 51  1  0
  2 52  1  0
  2 53  1  0
  7 54  1  0
  8 55  1  0
 10 56  1  0
 13 57  1  0
 13 58  1  0
 19 59  1  0
 20 60  1  0
 23 61  1  0
 23 62  1  0
 24 63  1  0
 24 64  1  0
 26 65  1  0
 26 66  1  0
 27 67  1  0
 27 68  1  0
 28 69  1  0
 29 70  1  0
 30 71  1  0
 33 72  1  0
 34 73  1  0
 37 74  1  0
 37 75  1  0
 38 76  1  0
 38 77  1  0
 40 78  1  0
 40 79  1  0
 41 80  1  0
 41 81  1  0
 42 82  1  0
 43 83  1  0
 47 84  1  0
 48 85  1  0
M  END
>  <Binding energies>  (1) 
[-10.34]

>  <Ligand effiencies>  (1) 
[-0.2110204081632653]

>  <Interactions>  (1) 
["V-B:PRO:540:CB:9857, H-B:TYR:531:OH:9767, V-B:MET:535:CE:9807, V-B:TYR:539:CD2:9846, V-B:PRO:540:N:9856, V-A:LEU:475:CD1:4257, V-B:PRO:540:CA:9855, V-B:TYR:539:CE2:9848, V-B:MET:535:CG:9805, V-B:TYR:539:C:9839, V-B:TYR:531:CE2:9765, V-B:TYR:531:CZ:9766, V-B:LEU:363:CD1:8160, V-A:ASP:366:CG:3212, V-B:PRO:540:CD:9859, V-A:ASP:366:CB:3211, H-B:TYR:539:OH:9850, V-A:TYR:539:CZ:4877, V-A:TYR:539:CE1:4875, V-B:TYR:531:CE1:9764, H-B:LYS:534:NZ:9795, V-B:TYR:539:CZ:9849, H-A:TYR:539:OH:4878, V-A:GLU:543:C:4902, V-B:TYR:539:CG:9844, V-A:HIS:456:CE1:4069, V-B:GLU:543:CB:9878, V-B:GLU:543:CG:9879, V-B:GLU:543:CD:9880, V-A:ARG:545:CZ:4926, V-A:GLU:543:CB:4906, V-B:LYS:534:CE:9794, V-B:ILE:538:CG2:9835, V-B:PRO:540:CG:9858, V-B:GLU:543:C:9874"]

$$$$
2a_Grossjean_2025
     RDKit          3D

 45 46  0  0  0  0  0  0  0  0999 V2000
  125.6000  123.6620   61.1060 C   0  0  0  0  0  0  0  0  0  0  0  0
  127.0980  123.5420   61.4040 C   0  0  0  0  0  0  0  0  0  0  0  0
  127.6140  122.3830   60.7600 O   0  0  0  0  0  0  0  0  0  0  0  0
  128.7900  122.4240   60.0820 C   0  0  0  0  0  0  0  0  0  0  0  0
  129.7610  121.7140   60.3590 O   0  0  0  0  0  0  0  0  0  0  0  0
  128.7830  123.4060   58.9450 C   0  0  0  0  0  0  0  0  0  0  0  0
  129.8480  124.2920   58.7230 C   0  0  0  0  0  0  0  0  0  0  0  0
  129.8090  125.1910   57.6610 C   0  0  0  0  0  0  0  0  0  0  0  0
  128.7070  125.2290   56.8060 C   0  0  0  0  0  0  0  0  0  0  0  0
  128.7690  126.1860   55.7760 N   0  0  0  0  0  0  0  0  0  0  0  0
  129.8350  126.6620   55.0970 C   0  0  0  0  0  0  0  0  0  0  0  0
  131.0080  126.3400   55.2890 O   0  0  0  0  0  0  0  0  0  0  0  0
  129.5170  127.6900   54.0050 C   0  0  0  0  0  0  0  0  0  0  0  0
  128.2980  128.9420   54.5260 S   0  0  0  0  0  0  0  0  0  0  0  0
  129.0590  130.0820   55.6760 C   0  0  0  0  0  0  0  0  0  0  0  0
  130.1860  130.6970   55.2370 N   0  0  0  0  0  0  0  0  0  0  0  0
  130.8210  131.5630   56.0600 C   0  0  0  0  0  0  0  0  0  0  0  0
  132.0890  132.1890   55.5090 C   0  0  0  0  0  0  0  0  0  0  0  0
  130.3600  131.8580   57.3390 C   0  0  0  0  0  0  0  0  0  0  0  0
  129.1910  131.2410   57.8110 C   0  0  0  0  0  0  0  0  0  0  0  0
  128.6940  131.5790   59.2290 C   0  0  0  0  0  0  0  0  0  0  0  0
  128.6800  130.4800   59.9840 F   0  0  0  0  0  0  0  0  0  0  0  0
  129.5000  132.4810   59.7920 F   0  0  0  0  0  0  0  0  0  0  0  0
  127.4590  132.0860   59.2350 F   0  0  0  0  0  0  0  0  0  0  0  0
  128.5180  130.3280   56.9600 C   0  0  0  0  0  0  0  0  0  0  0  0
  127.2940  129.6520   57.4030 C   0  0  0  0  0  0  0  0  0  0  0  0
  126.3280  129.1190   57.7520 N   0  0  0  0  0  0  0  0  0  0  0  0
  127.6420  124.3420   57.0160 C   0  0  0  0  0  0  0  0  0  0  0  0
  127.6840  123.4400   58.0770 C   0  0  0  0  0  0  0  0  0  0  0  0
  125.0404  123.7068   62.0520 H   0  0  0  0  0  0  0  0  0  0  0  0
  125.4137  124.5779   60.5260 H   0  0  0  0  0  0  0  0  0  0  0  0
  125.2703  122.7874   60.5260 H   0  0  0  0  0  0  0  0  0  0  0  0
  127.6201  124.4343   61.0282 H   0  0  0  0  0  0  0  0  0  0  0  0
  127.2523  123.4597   62.4900 H   0  0  0  0  0  0  0  0  0  0  0  0
  130.7202  124.2761   59.3931 H   0  0  0  0  0  0  0  0  0  0  0  0
  130.6531  125.8765   57.4946 H   0  0  0  0  0  0  0  0  0  0  0  0
  127.8690  126.5300   55.4790 H   0  0  0  0  0  0  0  0  0  0  0  0
  130.4490  128.2043   53.7276 H   0  0  0  0  0  0  0  0  0  0  0  0
  129.0787  127.1411   53.1585 H   0  0  0  0  0  0  0  0  0  0  0  0
  132.7330  132.5069   56.3422 H   0  0  0  0  0  0  0  0  0  0  0  0
  132.6241  131.4516   54.8927 H   0  0  0  0  0  0  0  0  0  0  0  0
  131.8289  133.0622   54.8927 H   0  0  0  0  0  0  0  0  0  0  0  0
  130.9073  132.5691   57.9753 H   0  0  0  0  0  0  0  0  0  0  0  0
  126.7724  124.3581   56.3425 H   0  0  0  0  0  0  0  0  0  0  0  0
  126.8447  122.7467   58.2349 H   0  0  0  0  0  0  0  0  0  0  0  0
  1  2  1  0
  2  3  1  0
  3  4  1  0
  4  5  2  0
  4  6  1  0
  6  7  2  0
  7  8  1  0
  8  9  2  0
  9 10  1  0
 10 11  1  0
 11 12  2  0
 11 13  1  0
 13 14  1  0
 14 15  1  0
 15 16  2  0
 16 17  1  0
 17 18  1  0
 17 19  2  0
 19 20  1  0
 20 21  1  0
 21 22  1  0
 21 23  1  0
 21 24  1  0
 20 25  2  0
 25 26  1  0
 26 27  3  0
  9 28  1  0
 28 29  2  0
 29  6  1  0
 25 15  1  0
  1 30  1  0
  1 31  1  0
  1 32  1  0
  2 33  1  0
  2 34  1  0
  7 35  1  0
  8 36  1  0
 10 37  1  0
 13 38  1  0
 13 39  1  0
 18 40  1  0
 18 41  1  0
 18 42  1  0
 19 43  1  0
 28 44  1  0
 29 45  1  0
M  END
>  <Binding energies>  (1) 
[-6.95]

>  <Ligand effiencies>  (1) 
[-0.23166666666666666]

>  <Interactions>  (1) 
["H-B:ALA:541:N:9863, V-B:PRO:540:CB:9857, H-B:TYR:531:OH:9767, V-B:MET:535:CE:9807, V-B:PRO:540:CA:9855, V-A:PRO:540:N:4884, V-A:ILE:538:CG2:4863, H-B:TYR:539:OH:9850, V-A:TYR:539:CD1:4873, V-A:PRO:540:CA:4883, H-A:TYR:531:OH:4795, V-A:TYR:539:CE1:4875, V-A:ILE:538:CB:4862, V-A:PRO:540:CD:4887, V-A:PRO:540:C:4881, V-A:TYR:539:C:4867, V-A:LEU:363:CD1:3188, V-B:GLU:543:CD:9880, H-B:MET:535:SD:9806, V-A:TYR:531:CE2:4793, V-A:MET:535:CE:4835"]

$$$$
2aa_Ghoteimi_2023
     RDKit          3D

 85 90  0  0  0  0  0  0  0  0999 V2000
  132.1670  131.7520   56.9020 C   0  0  0  0  0  0  0  0  0  0  0  0
  131.5790  132.1100   55.5340 C   0  0  0  0  0  0  0  0  0  0  0  0
  130.3430  132.7890   55.7160 O   0  0  0  0  0  0  0  0  0  0  0  0
  129.1580  132.1520   55.5300 C   0  0  0  0  0  0  0  0  0  0  0  0
  128.5240  132.1900   54.4700 O   0  0  0  0  0  0  0  0  0  0  0  0
  128.7010  131.3840   56.7370 C   0  0  0  0  0  0  0  0  0  0  0  0
  127.9370  130.2130   56.6240 C   0  0  0  0  0  0  0  0  0  0  0  0
  127.5330  129.5210   57.7620 C   0  0  0  0  0  0  0  0  0  0  0  0
  127.8740  129.9880   59.0330 C   0  0  0  0  0  0  0  0  0  0  0  0
  127.4160  129.2090   60.1130 N   0  0  0  0  0  0  0  0  0  0  0  0
  126.6170  128.1200   60.1170 C   0  0  0  0  0  0  0  0  0  0  0  0
  126.1500  127.5800   59.1120 O   0  0  0  0  0  0  0  0  0  0  0  0
  126.3240  127.5480   61.5100 C   0  0  0  0  0  0  0  0  0  0  0  0
  127.2130  128.1340   62.4680 O   0  0  0  0  0  0  0  0  0  0  0  0
  127.9140  127.3270   63.3530 C   0  0  0  0  0  0  0  0  0  0  0  0
  128.4560  126.1720   62.8740 N   0  0  0  0  0  0  0  0  0  0  0  0
  129.1520  125.3620   63.7110 C   0  0  0  0  0  0  0  0  0  0  0  0
  129.7140  124.1090   63.1160 C   0  0  0  0  0  0  0  0  0  0  0  0
  129.0210  123.4200   62.1160 C   0  0  0  0  0  0  0  0  0  0  0  0
  129.5420  122.2580   61.5540 C   0  0  0  0  0  0  0  0  0  0  0  0
  130.7840  121.7480   61.9630 C   0  0  0  0  0  0  0  0  0  0  0  0
  131.3170  120.5740   61.4190 N   0  0  0  0  0  0  0  0  0  0  0  0
  132.7720  120.3160   61.4190 C   0  0  0  0  0  0  0  0  0  0  0  0
  133.2010  119.1700   60.4790 C   0  0  0  0  0  0  0  0  0  0  0  0
  132.4770  117.9910   60.7870 O   0  0  0  0  0  0  0  0  0  0  0  0
  131.0800  118.1830   60.6270 C   0  0  0  0  0  0  0  0  0  0  0  0
  130.5870  119.2990   61.5730 C   0  0  0  0  0  0  0  0  0  0  0  0
  131.4650  122.4300   62.9820 C   0  0  0  0  0  0  0  0  0  0  0  0
  130.9410  123.5910   63.5450 C   0  0  0  0  0  0  0  0  0  0  0  0
  129.3080  125.6830   65.0630 C   0  0  0  0  0  0  0  0  0  0  0  0
  128.7510  126.8580   65.5830 C   0  0  0  0  0  0  0  0  0  0  0  0
  128.9300  127.1350   67.0410 C   0  0  0  0  0  0  0  0  0  0  0  0
  128.8890  126.0900   67.9670 C   0  0  0  0  0  0  0  0  0  0  0  0
  129.0350  126.3430   69.3280 C   0  0  0  0  0  0  0  0  0  0  0  0
  129.2130  127.6520   69.8040 C   0  0  0  0  0  0  0  0  0  0  0  0
  129.3650  127.9290   71.1650 N   0  0  0  0  0  0  0  0  0  0  0  0
  129.1670  126.8860   72.1890 C   0  0  0  0  0  0  0  0  0  0  0  0
  129.7170  127.2750   73.5780 C   0  0  0  0  0  0  0  0  0  0  0  0
  129.1490  128.5080   73.9960 O   0  0  0  0  0  0  0  0  0  0  0  0
  129.4560  129.5570   73.0910 C   0  0  0  0  0  0  0  0  0  0  0  0
  128.8990  129.2290   71.6910 C   0  0  0  0  0  0  0  0  0  0  0  0
  129.2600  128.6930   68.8660 C   0  0  0  0  0  0  0  0  0  0  0  0
  129.1140  128.4400   67.5050 C   0  0  0  0  0  0  0  0  0  0  0  0
  128.0480  127.7100   64.6990 C   0  0  0  0  0  0  0  0  0  0  0  0
  127.4750  128.9830   65.1430 C   0  0  0  0  0  0  0  0  0  0  0  0
  127.0240  129.9880   65.4950 N   0  0  0  0  0  0  0  0  0  0  0  0
  128.6440  131.1530   59.1530 C   0  0  0  0  0  0  0  0  0  0  0  0
  129.0510  131.8420   58.0140 C   0  0  0  0  0  0  0  0  0  0  0  0
  131.5165  132.1481   57.6957 H   0  0  0  0  0  0  0  0  0  0  0  0
  132.2364  130.6583   56.9964 H   0  0  0  0  0  0  0  0  0  0  0  0
  133.1705  132.1925   56.9964 H   0  0  0  0  0  0  0  0  0  0  0  0
  132.2799  132.7620   54.9922 H   0  0  0  0  0  0  0  0  0  0  0  0
  131.4121  131.1909   54.9531 H   0  0  0  0  0  0  0  0  0  0  0  0
  127.6551  129.8389   55.6287 H   0  0  0  0  0  0  0  0  0  0  0  0
  126.9409  128.5997   57.6594 H   0  0  0  0  0  0  0  0  0  0  0  0
  127.7780  129.4960   61.0110 H   0  0  0  0  0  0  0  0  0  0  0  0
  125.2845  127.7763   61.7880 H   0  0  0  0  0  0  0  0  0  0  0  0
  126.4709  126.4580   61.4950 H   0  0  0  0  0  0  0  0  0  0  0  0
  128.0498  123.8018   61.7683 H   0  0  0  0  0  0  0  0  0  0  0  0
  128.9706  121.7304   60.7761 H   0  0  0  0  0  0  0  0  0  0  0  0
  133.2872  121.2351   61.1030 H   0  0  0  0  0  0  0  0  0  0  0  0
  133.0435  120.0113   62.4405 H   0  0  0  0  0  0  0  0  0  0  0  0
  132.9993  119.4592   59.4370 H   0  0  0  0  0  0  0  0  0  0  0  0
  134.2758  118.9779   60.6125 H   0  0  0  0  0  0  0  0  0  0  0  0
  130.8687  118.4686   59.5859 H   0  0  0  0  0  0  0  0  0  0  0  0
  130.5572  117.2465   60.8712 H   0  0  0  0  0  0  0  0  0  0  0  0
  129.5217  119.4819   61.3686 H   0  0  0  0  0  0  0  0  0  0  0  0
  130.7634  118.9499   62.6011 H   0  0  0  0  0  0  0  0  0  0  0  0
  132.4289  122.0414   63.3424 H   0  0  0  0  0  0  0  0  0  0  0  0
  131.4999  124.1084   64.3386 H   0  0  0  0  0  0  0  0  0  0  0  0
  129.8723  125.0077   65.7229 H   0  0  0  0  0  0  0  0  0  0  0  0
  128.7400  125.0577   67.6175 H   0  0  0  0  0  0  0  0  0  0  0  0
  129.0106  125.5055   70.0408 H   0  0  0  0  0  0  0  0  0  0  0  0
  128.0885  126.6911   72.2836 H   0  0  0  0  0  0  0  0  0  0  0  0
  129.7239  125.9971   71.8576 H   0  0  0  0  0  0  0  0  0  0  0  0
  129.4599  126.4903   74.3047 H   0  0  0  0  0  0  0  0  0  0  0  0
  130.8100  127.3825   73.5171 H   0  0  0  0  0  0  0  0  0  0  0  0
  129.0045  130.4928   73.4521 H   0  0  0  0  0  0  0  0  0  0  0  0
  130.5484  129.6689   73.0267 H   0  0  0  0  0  0  0  0  0  0  0  0
  127.8007  129.2087   71.7484 H   0  0  0  0  0  0  0  0  0  0  0  0
  129.2645  130.0073   71.0050 H   0  0  0  0  0  0  0  0  0  0  0  0
  129.4147  129.7260   69.2110 H   0  0  0  0  0  0  0  0  0  0  0  0
  129.1437  129.2744   66.7888 H   0  0  0  0  0  0  0  0  0  0  0  0
  128.9272  131.5236   60.1492 H   0  0  0  0  0  0  0  0  0  0  0  0
  129.6540  132.7561   58.1177 H   0  0  0  0  0  0  0  0  0  0  0  0
  1  2  1  0
  2  3  1  0
  3  4  1  0
  4  5  2  0
  4  6  1  0
  6  7  2  0
  7  8  1  0
  8  9  2  0
  9 10  1  0
 10 11  1  0
 11 12  2  0
 11 13  1  0
 13 14  1  0
 14 15  1  0
 15 16  2  0
 16 17  1  0
 17 18  1  0
 18 19  2  0
 19 20  1  0
 20 21  2  0
 21 22  1  0
 22 23  1  0
 23 24  1  0
 24 25  1  0
 25 26  1  0
 26 27  1  0
 21 28  1  0
 28 29  2  0
 17 30  2  0
 30 31  1  0
 31 32  1  0
 32 33  2  0
 33 34  1  0
 34 35  2  0
 35 36  1  0
 36 37  1  0
 37 38  1  0
 38 39  1  0
 39 40  1  0
 40 41  1  0
 35 42  1  0
 42 43  2  0
 31 44  2  0
 44 45  1  0
 45 46  3  0
  9 47  1  0
 47 48  2  0
 48  6  1  0
 44 15  1  0
 29 18  1  0
 43 32  1  0
 27 22  1  0
 41 36  1  0
  1 49  1  0
  1 50  1  0
  1 51  1  0
  2 52  1  0
  2 53  1  0
  7 54  1  0
  8 55  1  0
 10 56  1  0
 13 57  1  0
 13 58  1  0
 19 59  1  0
 20 60  1  0
 23 61  1  0
 23 62  1  0
 24 63  1  0
 24 64  1  0
 26 65  1  0
 26 66  1  0
 27 67  1  0
 27 68  1  0
 28 69  1  0
 29 70  1  0
 30 71  1  0
 33 72  1  0
 34 73  1  0
 37 74  1  0
 37 75  1  0
 38 76  1  0
 38 77  1  0
 40 78  1  0
 40 79  1  0
 41 80  1  0
 41 81  1  0
 42 82  1  0
 43 83  1  0
 47 84  1  0
 48 85  1  0
M  END
>  <Binding energies>  (1) 
[-10.36]

>  <Ligand effiencies>  (1) 
[-0.2114285714285714]

>  <Interactions>  (1) 
["V-A:ILE:369:CG2:3236, V-B:TYR:539:CD2:9846, V-A:LEU:475:CD1:4257, H-A:SER:385:OG:3409, H-A:HIS:383:NE2:3393, V-B:ALA:541:CB:9864, V-A:PRO:482:CG:4326, V-A:PRO:540:N:4884, V-A:ILE:538:CA:4860, V-A:TYR:539:CG:4872, V-A:ILE:538:CG2:4863, V-A:TYR:539:CD1:4873, V-A:PRO:540:CA:4883, H-A:TYR:539:N:4870, V-A:TYR:539:CZ:4877, V-A:PRO:540:CB:4885, V-A:TYR:539:CE1:4875, V-A:ILE:538:CB:4862, V-B:ASP:366:CG:8184, H-B:LYS:534:NZ:9795, V-A:PRO:540:CD:4887, V-A:TYR:539:C:4867, V-A:LEU:363:CD1:3188, V-A:GLU:543:CG:4907, V-A:GLU:543:CD:4908, H-B:TYR:484:OH:9319, V-A:GLU:543:C:4902, V-B:HIS:456:CE1:9041, V-A:HIS:456:CE1:4069, V-B:GLU:543:CB:9878, V-B:GLU:543:CG:9879, V-B:GLU:543:CD:9880, V-A:GLU:543:CA:4904, V-A:GLU:543:CB:4906, V-B:HIS:456:CD2:9039, H-A:LYS:547:NZ:4951, V-A:LYS:547:CE:4950"]

$$$$
2b_Ghoteimi_2023
     RDKit          3D

 72 77  0  0  0  0  0  0  0  0999 V2000
  127.5860  132.2040   65.6910 N   0  0  0  0  0  0  0  0  0  0  0  0
  127.5030  131.3230   64.9450 C   0  0  0  0  0  0  0  0  0  0  0  0
  127.3990  130.2030   64.0050 C   0  0  0  0  0  0  0  0  0  0  0  0
  127.6270  128.8730   64.4410 C   0  0  0  0  0  0  0  0  0  0  0  0
  127.9780  128.5090   65.8460 C   0  0  0  0  0  0  0  0  0  0  0  0
  127.9380  129.4730   66.8550 C   0  0  0  0  0  0  0  0  0  0  0  0
  128.2650  129.1390   68.1660 C   0  0  0  0  0  0  0  0  0  0  0  0
  128.6580  127.8340   68.5010 C   0  0  0  0  0  0  0  0  0  0  0  0
  128.9780  127.4710   69.8100 N   0  0  0  0  0  0  0  0  0  0  0  0
  129.1550  128.5290   70.8260 C   0  0  0  0  0  0  0  0  0  0  0  0
  129.8650  128.0350   72.1050 C   0  0  0  0  0  0  0  0  0  0  0  0
  129.1780  126.9170   72.6450 O   0  0  0  0  0  0  0  0  0  0  0  0
  129.1280  125.8370   71.7250 C   0  0  0  0  0  0  0  0  0  0  0  0
  128.3910  126.2740   70.4430 C   0  0  0  0  0  0  0  0  0  0  0  0
  128.6980  126.8730   67.4810 C   0  0  0  0  0  0  0  0  0  0  0  0
  128.3670  127.2060   66.1700 C   0  0  0  0  0  0  0  0  0  0  0  0
  127.5110  127.8360   63.5080 C   0  0  0  0  0  0  0  0  0  0  0  0
  127.1480  128.1100   62.1860 C   0  0  0  0  0  0  0  0  0  0  0  0
  126.9820  127.0360   61.1580 C   0  0  0  0  0  0  0  0  0  0  0  0
  126.7490  127.3610   59.8170 C   0  0  0  0  0  0  0  0  0  0  0  0
  126.6100  126.3670   58.8530 C   0  0  0  0  0  0  0  0  0  0  0  0
  126.6840  125.0080   59.1950 C   0  0  0  0  0  0  0  0  0  0  0  0
  126.5760  123.9980   58.2320 N   0  0  0  0  0  0  0  0  0  0  0  0
  127.4780  122.8290   58.2870 C   0  0  0  0  0  0  0  0  0  0  0  0
  127.5150  122.0150   56.9760 C   0  0  0  0  0  0  0  0  0  0  0  0
  126.2000  121.6270   56.6080 O   0  0  0  0  0  0  0  0  0  0  0  0
  125.3670  122.7540   56.3920 C   0  0  0  0  0  0  0  0  0  0  0  0
  125.2670  123.5940   57.6840 C   0  0  0  0  0  0  0  0  0  0  0  0
  126.9250  124.6870   60.5390 C   0  0  0  0  0  0  0  0  0  0  0  0
  127.0670  125.6820   61.5020 C   0  0  0  0  0  0  0  0  0  0  0  0
  126.9300  129.3840   61.7710 N   0  0  0  0  0  0  0  0  0  0  0  0
  127.0680  130.4070   62.6470 C   0  0  0  0  0  0  0  0  0  0  0  0
  126.7500  132.0050   61.9320 S   0  0  0  0  0  0  0  0  0  0  0  0
  128.2500  132.5180   61.0420 C   0  0  0  0  0  0  0  0  0  0  0  0
  128.2860  131.9730   59.6140 C   0  0  0  0  0  0  0  0  0  0  0  0
  127.4730  131.1100   59.2760 O   0  0  0  0  0  0  0  0  0  0  0  0
  129.2410  132.4970   58.8150 N   0  0  0  0  0  0  0  0  0  0  0  0
  129.4860  132.1910   57.4840 C   0  0  0  0  0  0  0  0  0  0  0  0
  128.8830  131.1210   56.8260 C   0  0  0  0  0  0  0  0  0  0  0  0
  129.3820  131.1610   55.5450 C   0  0  0  0  0  0  0  0  0  0  0  0
  130.2410  132.2030   55.4370 O   0  0  0  0  0  0  0  0  0  0  0  0
  130.2970  132.8500   56.6730 N   0  0  0  0  0  0  0  0  0  0  0  0
  127.6456  130.5052   66.6119 H   0  0  0  0  0  0  0  0  0  0  0  0
  128.2147  129.9085   68.9504 H   0  0  0  0  0  0  0  0  0  0  0  0
  129.7538  129.3396   70.3852 H   0  0  0  0  0  0  0  0  0  0  0  0
  128.1512  128.8685   71.1211 H   0  0  0  0  0  0  0  0  0  0  0  0
  130.8966  127.7434   71.8586 H   0  0  0  0  0  0  0  0  0  0  0  0
  129.8718  128.8459   72.8482 H   0  0  0  0  0  0  0  0  0  0  0  0
  130.1522  125.5277   71.4695 H   0  0  0  0  0  0  0  0  0  0  0  0
  128.5890  124.9949   72.1837 H   0  0  0  0  0  0  0  0  0  0  0  0
  128.4256  125.4450   69.7209 H   0  0  0  0  0  0  0  0  0  0  0  0
  127.3610  126.5306   70.7314 H   0  0  0  0  0  0  0  0  0  0  0  0
  128.9951  125.8411   67.7197 H   0  0  0  0  0  0  0  0  0  0  0  0
  128.4120  126.4381   65.3836 H   0  0  0  0  0  0  0  0  0  0  0  0
  127.7068  126.7986   63.8170 H   0  0  0  0  0  0  0  0  0  0  0  0
  126.6746  128.4177   59.5205 H   0  0  0  0  0  0  0  0  0  0  0  0
  126.4391  126.6516   57.8043 H   0  0  0  0  0  0  0  0  0  0  0  0
  128.4959  123.1850   58.5042 H   0  0  0  0  0  0  0  0  0  0  0  0
  127.0925  122.1606   59.0710 H   0  0  0  0  0  0  0  0  0  0  0  0
  127.9499  122.6323   56.1761 H   0  0  0  0  0  0  0  0  0  0  0  0
  128.1281  121.1143   57.1274 H   0  0  0  0  0  0  0  0  0  0  0  0
  125.7924  123.3723   55.5878 H   0  0  0  0  0  0  0  0  0  0  0  0
  124.3618  122.4100   56.1070 H   0  0  0  0  0  0  0  0  0  0  0  0
  124.6876  124.5026   57.4634 H   0  0  0  0  0  0  0  0  0  0  0  0
  124.7828  122.9609   58.4422 H   0  0  0  0  0  0  0  0  0  0  0  0
  127.0031  123.6310   60.8370 H   0  0  0  0  0  0  0  0  0  0  0  0
  127.2488  125.3998   62.5495 H   0  0  0  0  0  0  0  0  0  0  0  0
  128.2811  133.6169   61.0032 H   0  0  0  0  0  0  0  0  0  0  0  0
  129.1191  132.1130   61.5812 H   0  0  0  0  0  0  0  0  0  0  0  0
  129.8360  133.2100   59.2120 H   0  0  0  0  0  0  0  0  0  0  0  0
  128.1634  130.4001   57.2413 H   0  0  0  0  0  0  0  0  0  0  0  0
  129.1249  130.4595   54.7377 H   0  0  0  0  0  0  0  0  0  0  0  0
  1  2  3  0
  2  3  1  0
  3  4  2  0
  4  5  1  0
  5  6  2  0
  6  7  1  0
  7  8  2  0
  8  9  1  0
  9 10  1  0
 10 11  1  0
 11 12  1  0
 12 13  1  0
 13 14  1  0
  8 15  1  0
 15 16  2  0
  4 17  1  0
 17 18  2  0
 18 19  1  0
 19 20  2  0
 20 21  1  0
 21 22  2  0
 22 23  1  0
 23 24  1  0
 24 25  1  0
 25 26  1  0
 26 27  1  0
 27 28  1  0
 22 29  1  0
 29 30  2  0
 18 31  1  0
 31 32  2  0
 32 33  1  0
 33 34  1  0
 34 35  1  0
 35 36  2  0
 35 37  1  0
 37 38  1  0
 38 39  1  0
 39 40  2  0
 40 41  1  0
 41 42  1  0
 32  3  1  0
 42 38  2  0
 16  5  1  0
 30 19  1  0
 14  9  1  0
 28 23  1  0
  6 43  1  0
  7 44  1  0
 10 45  1  0
 10 46  1  0
 11 47  1  0
 11 48  1  0
 13 49  1  0
 13 50  1  0
 14 51  1  0
 14 52  1  0
 15 53  1  0
 16 54  1  0
 17 55  1  0
 20 56  1  0
 21 57  1  0
 24 58  1  0
 24 59  1  0
 25 60  1  0
 25 61  1  0
 27 62  1  0
 27 63  1  0
 28 64  1  0
 28 65  1  0
 29 66  1  0
 30 67  1  0
 34 68  1  0
 34 69  1  0
 37 70  1  0
 39 71  1  0
 40 72  1  0
M  END
>  <Binding energies>  (1) 
[-10.57]

>  <Ligand effiencies>  (1) 
[-0.2458139534883721]

>  <Interactions>  (1) 
["V-B:PRO:540:CB:9857, V-B:MET:535:CE:9807, V-B:PRO:540:N:9856, V-B:PRO:540:CA:9855, H-B:TYR:539:N:9842, V-B:TYR:539:C:9839, V-B:TYR:531:CE2:9765, V-B:LEU:363:CD1:8160, V-B:TYR:539:CA:9841, V-A:PRO:540:N:4884, V-A:TYR:539:CD1:4873, V-A:PRO:540:CA:4883, H-A:TYR:539:N:4870, V-A:TYR:539:CE1:4875, V-B:ASP:366:CG:8184, V-A:ALA:541:CB:4892, V-A:TYR:539:C:4867, V-A:GLU:543:CG:4907, V-A:GLU:543:CD:4908, H-B:TYR:484:OH:9319, V-A:GLU:543:C:4902, V-B:TYR:539:CG:9844, V-B:HIS:456:CE1:9041, V-A:HIS:456:CE1:4069, V-B:GLU:543:CB:9878, V-B:GLU:543:CD:9880, V-B:TYR:539:CD1:9845, V-A:GLU:543:CB:4906, H-A:TYR:539:O:4868, V-A:TYR:539:CA:4869, V-B:TYR:484:CE2:9317, V-B:GLU:543:C:9874, V-B:HIS:456:CD2:9039, V-A:HIS:456:CD2:4067"]

$$$$
2b_Grossjean_2025
     RDKit          3D

 42 43  0  0  0  0  0  0  0  0999 V2000
  125.3590  121.6620   55.5900 C   0  0  0  0  0  0  0  0  0  0  0  0
  126.4890  121.9100   56.4150 O   0  0  0  0  0  0  0  0  0  0  0  0
  126.6900  123.1290   56.9770 C   0  0  0  0  0  0  0  0  0  0  0  0
  125.8710  124.0510   56.9140 O   0  0  0  0  0  0  0  0  0  0  0  0
  128.0110  123.2460   57.6810 C   0  0  0  0  0  0  0  0  0  0  0  0
  128.4400  122.2950   58.6190 C   0  0  0  0  0  0  0  0  0  0  0  0
  129.6700  122.4350   59.2550 C   0  0  0  0  0  0  0  0  0  0  0  0
  130.4980  123.5190   58.9650 C   0  0  0  0  0  0  0  0  0  0  0  0
  131.7160  123.5650   59.6700 N   0  0  0  0  0  0  0  0  0  0  0  0
  132.9800  123.4180   59.2170 C   0  0  0  0  0  0  0  0  0  0  0  0
  133.2960  123.1790   58.0510 O   0  0  0  0  0  0  0  0  0  0  0  0
  134.0730  123.5490   60.2820 C   0  0  0  0  0  0  0  0  0  0  0  0
  134.1680  122.1080   61.3950 S   0  0  0  0  0  0  0  0  0  0  0  0
  132.5720  121.3090   61.4950 C   0  0  0  0  0  0  0  0  0  0  0  0
  131.5790  122.0440   62.0570 N   0  0  0  0  0  0  0  0  0  0  0  0
  130.3460  121.5000   62.1700 C   0  0  0  0  0  0  0  0  0  0  0  0
  129.2970  122.3810   62.8200 C   0  0  0  0  0  0  0  0  0  0  0  0
  130.0490  120.2160   61.7240 C   0  0  0  0  0  0  0  0  0  0  0  0
  131.0570  119.4400   61.1330 C   0  0  0  0  0  0  0  0  0  0  0  0
  130.7100  118.0220   60.6410 C   0  0  0  0  0  0  0  0  0  0  0  0
  131.3970  117.1160   61.3390 F   0  0  0  0  0  0  0  0  0  0  0  0
  129.4060  117.7890   60.7970 F   0  0  0  0  0  0  0  0  0  0  0  0
  130.9980  117.8380   59.3510 F   0  0  0  0  0  0  0  0  0  0  0  0
  132.3570  119.9950   61.0140 C   0  0  0  0  0  0  0  0  0  0  0  0
  133.4510  119.2280   60.4110 C   0  0  0  0  0  0  0  0  0  0  0  0
  134.3130  118.6220   59.9330 N   0  0  0  0  0  0  0  0  0  0  0  0
  130.0740  124.4780   58.0340 C   0  0  0  0  0  0  0  0  0  0  0  0
  128.8430  124.3390   57.4000 C   0  0  0  0  0  0  0  0  0  0  0  0
  124.4793  121.4689   56.2215 H   0  0  0  0  0  0  0  0  0  0  0  0
  125.1689  122.5398   54.9549 H   0  0  0  0  0  0  0  0  0  0  0  0
  125.5540  120.7853   54.9549 H   0  0  0  0  0  0  0  0  0  0  0  0
  127.7993  121.4321   58.8536 H   0  0  0  0  0  0  0  0  0  0  0  0
  129.9916  121.6847   59.9923 H   0  0  0  0  0  0  0  0  0  0  0  0
  131.6130  123.6800   60.6670 H   0  0  0  0  0  0  0  0  0  0  0  0
  135.0426  123.6640   59.7755 H   0  0  0  0  0  0  0  0  0  0  0  0
  133.8235  124.4238   60.9005 H   0  0  0  0  0  0  0  0  0  0  0  0
  129.3838  122.3081   63.9141 H   0  0  0  0  0  0  0  0  0  0  0  0
  129.4507  123.4248   62.5087 H   0  0  0  0  0  0  0  0  0  0  0  0
  128.2955  122.0492   62.5087 H   0  0  0  0  0  0  0  0  0  0  0  0
  129.0316  119.8125   61.8340 H   0  0  0  0  0  0  0  0  0  0  0  0
  130.7155  125.3416   57.8044 H   0  0  0  0  0  0  0  0  0  0  0  0
  128.5190  125.0954   56.6700 H   0  0  0  0  0  0  0  0  0  0  0  0
  1  2  1  0
  2  3  1  0
  3  4  2  0
  3  5  1  0
  5  6  2  0
  6  7  1  0
  7  8  2  0
  8  9  1  0
  9 10  1  0
 10 11  2  0
 10 12  1  0
 12 13  1  0
 13 14  1  0
 14 15  2  0
 15 16  1  0
 16 17  1  0
 16 18  2  0
 18 19  1  0
 19 20  1  0
 20 21  1  0
 20 22  1  0
 20 23  1  0
 19 24  2  0
 24 25  1  0
 25 26  3  0
  8 27  1  0
 27 28  2  0
 28  5  1  0
 24 14  1  0
  1 29  1  0
  1 30  1  0
  1 31  1  0
  6 32  1  0
  7 33  1  0
  9 34  1  0
 12 35  1  0
 12 36  1  0
 17 37  1  0
 17 38  1  0
 17 39  1  0
 18 40  1  0
 27 41  1  0
 28 42  1  0
M  END
>  <Binding energies>  (1) 
[-7.63]

>  <Ligand effiencies>  (1) 
[-0.2631034482758621]

>  <Interactions>  (1) 
["H-B:TYR:531:OH:9767, V-B:MET:535:CE:9807, V-A:ILE:369:CG2:3236, V-B:TYR:539:CD2:9846, V-B:PRO:540:N:9856, V-A:LEU:475:CD1:4257, V-B:PRO:540:CA:9855, V-B:PRO:540:C:9853, H-A:SER:385:OG:3409, H-A:HIS:383:NE2:3393, H-B:TYR:539:N:9842, V-B:ALA:541:CB:9864, V-B:TYR:539:CE2:9848, V-B:TYR:539:C:9839, V-A:PRO:482:CG:4326, V-A:PRO:482:CB:4325, V-B:LEU:363:CD1:8160, V-A:ASP:366:CG:3212, V-B:PRO:540:CD:9859, V-A:ASP:366:CA:3209, H-B:TYR:539:OH:9850, V-A:ILE:369:CD1:3238, V-B:TYR:539:CZ:9849, V-A:SER:385:CA:3406, V-A:ILE:369:CB:3235, V-B:TYR:539:CG:9844, V-B:ILE:538:CA:9832, V-B:ILE:538:CG1:9836, V-B:ILE:538:CG2:9835, V-B:ILE:538:C:9830, V-B:ILE:538:CB:9834, V-B:TYR:539:CB:9843, V-B:ALA:541:CA:9862, V-A:HIS:383:CE1:3392, V-A:PRO:482:CD:4327"]

$$$$
2c_Ghoteimi_2023
     RDKit          3D

 72 77  0  0  0  0  0  0  0  0999 V2000
  129.5230  122.1000   65.3030 N   0  0  0  0  0  0  0  0  0  0  0  0
  129.6110  122.9870   64.5670 C   0  0  0  0  0  0  0  0  0  0  0  0
  129.7230  124.1160   63.6380 C   0  0  0  0  0  0  0  0  0  0  0  0
  129.7480  125.4480   64.1210 C   0  0  0  0  0  0  0  0  0  0  0  0
  129.6610  125.8100   65.5670 C   0  0  0  0  0  0  0  0  0  0  0  0
  128.8220  126.8460   65.9830 C   0  0  0  0  0  0  0  0  0  0  0  0
  128.7320  127.1860   67.3300 C   0  0  0  0  0  0  0  0  0  0  0  0
  129.4890  126.5100   68.2980 C   0  0  0  0  0  0  0  0  0  0  0  0
  129.4000  126.8210   69.6570 N   0  0  0  0  0  0  0  0  0  0  0  0
  129.5270  128.2280   70.0850 C   0  0  0  0  0  0  0  0  0  0  0  0
  129.7970  128.3830   71.5970 C   0  0  0  0  0  0  0  0  0  0  0  0
  128.7890  127.7160   72.3420 O   0  0  0  0  0  0  0  0  0  0  0  0
  128.7480  126.3290   72.0450 C   0  0  0  0  0  0  0  0  0  0  0  0
  128.4520  126.1200   70.5450 C   0  0  0  0  0  0  0  0  0  0  0  0
  130.3320  125.4740   67.8700 C   0  0  0  0  0  0  0  0  0  0  0  0
  130.4200  125.1320   66.5240 C   0  0  0  0  0  0  0  0  0  0  0  0
  129.8600  126.4910   63.1930 C   0  0  0  0  0  0  0  0  0  0  0  0
  129.9720  126.2160   61.8270 C   0  0  0  0  0  0  0  0  0  0  0  0
  130.1110  127.2920   60.7990 C   0  0  0  0  0  0  0  0  0  0  0  0
  130.0250  126.9940   59.4350 C   0  0  0  0  0  0  0  0  0  0  0  0
  130.1480  127.9930   58.4730 C   0  0  0  0  0  0  0  0  0  0  0  0
  130.3740  129.3290   58.8400 C   0  0  0  0  0  0  0  0  0  0  0  0
  130.4750  130.3490   57.8880 N   0  0  0  0  0  0  0  0  0  0  0  0
  129.2940  131.1770   57.5690 C   0  0  0  0  0  0  0  0  0  0  0  0
  129.4370  131.9800   56.2590 C   0  0  0  0  0  0  0  0  0  0  0  0
  130.6120  132.7730   56.3000 O   0  0  0  0  0  0  0  0  0  0  0  0
  131.7740  131.9720   56.4440 C   0  0  0  0  0  0  0  0  0  0  0  0
  131.7010  131.1630   57.7570 C   0  0  0  0  0  0  0  0  0  0  0  0
  130.4460  129.6260   60.2090 C   0  0  0  0  0  0  0  0  0  0  0  0
  130.3210  128.6260   61.1700 C   0  0  0  0  0  0  0  0  0  0  0  0
  129.9510  124.9390   61.3670 N   0  0  0  0  0  0  0  0  0  0  0  0
  129.8110  123.9140   62.2410 C   0  0  0  0  0  0  0  0  0  0  0  0
  129.7920  122.3140   61.4660 S   0  0  0  0  0  0  0  0  0  0  0  0
  130.5400  122.4960   59.8190 C   0  0  0  0  0  0  0  0  0  0  0  0
  129.5210  122.9500   58.7730 C   0  0  0  0  0  0  0  0  0  0  0  0
  129.7680  123.9340   58.0740 O   0  0  0  0  0  0  0  0  0  0  0  0
  128.3920  122.2120   58.7010 N   0  0  0  0  0  0  0  0  0  0  0  0
  127.3290  122.4040   57.8310 C   0  0  0  0  0  0  0  0  0  0  0  0
  126.9740  121.6540   56.8110 N   0  0  0  0  0  0  0  0  0  0  0  0
  125.9070  122.1330   56.2040 C   0  0  0  0  0  0  0  0  0  0  0  0
  125.3710  123.3030   56.7350 C   0  0  0  0  0  0  0  0  0  0  0  0
  126.3250  123.7920   58.1030 S   0  0  0  0  0  0  0  0  0  0  0  0
  128.2273  127.3979   65.2402 H   0  0  0  0  0  0  0  0  0  0  0  0
  128.0568  127.9973   67.6399 H   0  0  0  0  0  0  0  0  0  0  0  0
  130.3598  128.6874   69.5325 H   0  0  0  0  0  0  0  0  0  0  0  0
  128.5672  128.7216   69.8726 H   0  0  0  0  0  0  0  0  0  0  0  0
  130.7773  127.9463   71.8385 H   0  0  0  0  0  0  0  0  0  0  0  0
  129.7900  129.4518   71.8570 H   0  0  0  0  0  0  0  0  0  0  0  0
  129.7189  125.8746   72.2916 H   0  0  0  0  0  0  0  0  0  0  0  0
  127.9531  125.8553   72.6398 H   0  0  0  0  0  0  0  0  0  0  0  0
  128.5011  125.0430   70.3267 H   0  0  0  0  0  0  0  0  0  0  0  0
  127.4538  126.5389   70.3496 H   0  0  0  0  0  0  0  0  0  0  0  0
  130.9325  124.9237   68.6093 H   0  0  0  0  0  0  0  0  0  0  0  0
  131.0933  124.3205   66.2107 H   0  0  0  0  0  0  0  0  0  0  0  0
  129.8598  127.5343   63.5416 H   0  0  0  0  0  0  0  0  0  0  0  0
  129.8576  125.9542   59.1175 H   0  0  0  0  0  0  0  0  0  0  0  0
  130.0667  127.7310   57.4077 H   0  0  0  0  0  0  0  0  0  0  0  0
  128.4201  130.5153   57.4775 H   0  0  0  0  0  0  0  0  0  0  0  0
  129.1829  131.9073   58.3841 H   0  0  0  0  0  0  0  0  0  0  0  0
  129.4975  131.2834   55.4099 H   0  0  0  0  0  0  0  0  0  0  0  0
  128.5627  132.6372   56.1420 H   0  0  0  0  0  0  0  0  0  0  0  0
  131.8458  131.2788   55.5930 H   0  0  0  0  0  0  0  0  0  0  0  0
  132.6596  132.6238   56.4714 H   0  0  0  0  0  0  0  0  0  0  0  0
  132.5702  130.4902   57.7987 H   0  0  0  0  0  0  0  0  0  0  0  0
  131.6923  131.8907   58.5818 H   0  0  0  0  0  0  0  0  0  0  0  0
  130.6039  130.6665   60.5289 H   0  0  0  0  0  0  0  0  0  0  0  0
  130.3882  128.8877   62.2363 H   0  0  0  0  0  0  0  0  0  0  0  0
  131.3466  123.2418   59.8759 H   0  0  0  0  0  0  0  0  0  0  0  0
  130.9270  121.5133   59.5116 H   0  0  0  0  0  0  0  0  0  0  0  0
  128.3110  121.4200   59.3230 H   0  0  0  0  0  0  0  0  0  0  0  0
  125.4649  121.6366   55.3275 H   0  0  0  0  0  0  0  0  0  0  0  0
  124.4866  123.8324   56.3508 H   0  0  0  0  0  0  0  0  0  0  0  0
  1  2  3  0
  2  3  1  0
  3  4  2  0
  4  5  1  0
  5  6  2  0
  6  7  1  0
  7  8  2  0
  8  9  1  0
  9 10  1  0
 10 11  1  0
 11 12  1  0
 12 13  1  0
 13 14  1  0
  8 15  1  0
 15 16  2  0
  4 17  1  0
 17 18  2  0
 18 19  1  0
 19 20  2  0
 20 21  1  0
 21 22  2  0
 22 23  1  0
 23 24  1  0
 24 25  1  0
 25 26  1  0
 26 27  1  0
 27 28  1  0
 22 29  1  0
 29 30  2  0
 18 31  1  0
 31 32  2  0
 32 33  1  0
 33 34  1  0
 34 35  1  0
 35 36  2  0
 35 37  1  0
 37 38  1  0
 38 39  2  0
 39 40  1  0
 40 41  2  0
 41 42  1  0
 32  3  1  0
 42 38  1  0
 16  5  1  0
 30 19  1  0
 14  9  1  0
 28 23  1  0
  6 43  1  0
  7 44  1  0
 10 45  1  0
 10 46  1  0
 11 47  1  0
 11 48  1  0
 13 49  1  0
 13 50  1  0
 14 51  1  0
 14 52  1  0
 15 53  1  0
 16 54  1  0
 17 55  1  0
 20 56  1  0
 21 57  1  0
 24 58  1  0
 24 59  1  0
 25 60  1  0
 25 61  1  0
 27 62  1  0
 27 63  1  0
 28 64  1  0
 28 65  1  0
 29 66  1  0
 30 67  1  0
 34 68  1  0
 34 69  1  0
 37 70  1  0
 40 71  1  0
 41 72  1  0
M  END
>  <Binding energies>  (1) 
[-10.19]

>  <Ligand effiencies>  (1) 
[-0.2369767441860465]

>  <Interactions>  (1) 
["V-B:PRO:540:CB:9857, V-B:MET:535:CE:9807, V-B:TYR:539:CD2:9846, V-B:PRO:540:N:9856, V-B:PRO:540:CA:9855, H-B:TYR:539:N:9842, V-B:ALA:541:CB:9864, V-B:TYR:539:CE2:9848, V-B:TYR:539:C:9839, V-B:TYR:531:CE2:9765, V-B:LEU:363:CD1:8160, H-A:TYR:484:OH:4347, V-B:PRO:540:CD:9859, V-A:PRO:540:N:4884, H-B:TYR:539:OH:9850, V-A:TYR:539:CD1:4873, V-A:PRO:540:CA:4883, H-A:TYR:539:N:4870, V-A:PRO:540:CB:4885, V-A:TYR:539:CE1:4875, V-A:PRO:540:CD:4887, V-A:LEU:363:CD1:3188, V-A:GLU:543:CD:4908, V-B:TYR:539:CZ:9849, H-B:TYR:539:O:9840, V-A:GLU:543:C:4902, V-B:HIS:456:CE1:9041, V-A:TYR:484:CZ:4346, V-A:HIS:456:CE1:4069, V-B:GLU:543:CG:9879, V-B:GLU:543:CD:9880, V-A:TYR:484:CE2:4345, V-B:GLU:543:C:9874, V-B:HIS:456:CD2:9039"]

$$$$
2c_Grossjean_2025
     RDKit          3D

 40 41  0  0  0  0  0  0  0  0999 V2000
  125.1460  122.0210   55.2980 C   0  0  0  0  0  0  0  0  0  0  0  0
  126.3850  121.6270   55.8770 O   0  0  0  0  0  0  0  0  0  0  0  0
  126.7930  122.2130   57.0600 C   0  0  0  0  0  0  0  0  0  0  0  0
  128.1400  122.0720   57.3920 C   0  0  0  0  0  0  0  0  0  0  0  0
  128.6460  122.6270   58.5650 C   0  0  0  0  0  0  0  0  0  0  0  0
  127.7930  123.3270   59.4310 C   0  0  0  0  0  0  0  0  0  0  0  0
  128.2150  123.9360   60.6270 N   0  0  0  0  0  0  0  0  0  0  0  0
  128.1300  123.4640   61.8890 C   0  0  0  0  0  0  0  0  0  0  0  0
  127.5960  122.3990   62.2040 O   0  0  0  0  0  0  0  0  0  0  0  0
  128.7250  124.3840   62.9660 C   0  0  0  0  0  0  0  0  0  0  0  0
  130.0540  123.6480   63.9800 S   0  0  0  0  0  0  0  0  0  0  0  0
  130.9110  122.4020   63.0250 C   0  0  0  0  0  0  0  0  0  0  0  0
  130.1550  121.3490   62.6210 N   0  0  0  0  0  0  0  0  0  0  0  0
  130.7380  120.3650   61.9030 C   0  0  0  0  0  0  0  0  0  0  0  0
  129.8330  119.2150   61.5040 C   0  0  0  0  0  0  0  0  0  0  0  0
  132.0860  120.3890   61.5500 C   0  0  0  0  0  0  0  0  0  0  0  0
  132.8840  121.4710   61.9490 C   0  0  0  0  0  0  0  0  0  0  0  0
  134.3720  121.4850   61.5490 C   0  0  0  0  0  0  0  0  0  0  0  0
  135.1320  121.6840   62.6270 F   0  0  0  0  0  0  0  0  0  0  0  0
  134.7070  120.3210   60.9920 F   0  0  0  0  0  0  0  0  0  0  0  0
  134.6600  122.4480   60.6710 F   0  0  0  0  0  0  0  0  0  0  0  0
  132.2860  122.5090   62.7080 C   0  0  0  0  0  0  0  0  0  0  0  0
  133.0730  123.6630   63.1550 C   0  0  0  0  0  0  0  0  0  0  0  0
  133.6940  124.5740   63.5070 N   0  0  0  0  0  0  0  0  0  0  0  0
  126.4480  123.4840   59.0960 C   0  0  0  0  0  0  0  0  0  0  0  0
  125.9470  122.9280   57.9220 C   0  0  0  0  0  0  0  0  0  0  0  0
  124.4247  122.2504   56.0962 H   0  0  0  0  0  0  0  0  0  0  0  0
  125.3000  122.9145   54.6751 H   0  0  0  0  0  0  0  0  0  0  0  0
  124.7557  121.2027   54.6751 H   0  0  0  0  0  0  0  0  0  0  0  0
  128.8105  121.5162   56.7200 H   0  0  0  0  0  0  0  0  0  0  0  0
  129.7123  122.5166   58.8117 H   0  0  0  0  0  0  0  0  0  0  0  0
  128.5700  124.8750   60.5200 H   0  0  0  0  0  0  0  0  0  0  0  0
  129.1342  125.2732   62.4641 H   0  0  0  0  0  0  0  0  0  0  0  0
  127.9024  124.6074   63.6613 H   0  0  0  0  0  0  0  0  0  0  0  0
  129.4455  118.7226   62.4081 H   0  0  0  0  0  0  0  0  0  0  0  0
  128.9928  119.5996   60.9073 H   0  0  0  0  0  0  0  0  0  0  0  0
  130.4044  118.4888   60.9073 H   0  0  0  0  0  0  0  0  0  0  0  0
  132.5204  119.5661   60.9633 H   0  0  0  0  0  0  0  0  0  0  0  0
  125.7802  124.0496   59.7624 H   0  0  0  0  0  0  0  0  0  0  0  0
  124.8834  123.0496   57.6689 H   0  0  0  0  0  0  0  0  0  0  0  0
  1  2  1  0
  2  3  1  0
  3  4  2  0
  4  5  1  0
  5  6  2  0
  6  7  1  0
  7  8  1  0
  8  9  2  0
  8 10  1  0
 10 11  1  0
 11 12  1  0
 12 13  2  0
 13 14  1  0
 14 15  1  0
 14 16  2  0
 16 17  1  0
 17 18  1  0
 18 19  1  0
 18 20  1  0
 18 21  1  0
 17 22  2  0
 22 23  1  0
 23 24  3  0
  6 25  1  0
 25 26  2  0
 26  3  1  0
 22 12  1  0
  1 27  1  0
  1 28  1  0
  1 29  1  0
  4 30  1  0
  5 31  1  0
  7 32  1  0
 10 33  1  0
 10 34  1  0
 15 35  1  0
 15 36  1  0
 15 37  1  0
 16 38  1  0
 25 39  1  0
 26 40  1  0
M  END
>  <Binding energies>  (1) 
[-7.33]

>  <Ligand effiencies>  (1) 
[-0.2714814814814815]

>  <Interactions>  (1) 
["H-B:ALA:541:N:9863, V-B:PRO:540:CB:9857, V-B:MET:535:CE:9807, V-A:ILE:369:CG2:3236, V-B:TYR:539:CD2:9846, V-B:PRO:540:N:9856, V-A:LEU:475:CD1:4257, V-B:PRO:540:CA:9855, V-B:PRO:540:C:9853, H-B:TYR:539:N:9842, V-B:ALA:541:CB:9864, V-B:TYR:539:CE2:9848, V-B:MET:535:CG:9805, V-B:TYR:539:C:9839, V-A:PRO:482:CG:4326, V-A:PRO:482:CB:4325, V-B:LEU:363:CD1:8160, V-B:TYR:539:CA:9841, H-A:GLY:454:N:4049, V-B:PRO:540:CD:9859, V-A:ILE:369:CD1:3238, V-B:TYR:539:CZ:9849, V-A:SER:385:CA:3406, V-A:ILE:369:CB:3235, V-A:SER:385:C:3404, H-A:ARG:545:NH2:4928, V-B:TYR:539:CG:9844, V-B:GLU:543:CG:9879, V-B:TYR:539:CE1:9847, V-B:GLU:543:CD:9880, V-B:TYR:539:CD1:9845, V-B:ILE:538:CA:9832, V-B:ILE:538:CG1:9836, V-B:ILE:538:CG2:9835, V-B:ILE:538:CB:9834, V-A:GLY:454:CA:4048, V-A:GLY:453:C:4041, V-B:ALA:541:CA:9862, V-A:ILE:369:CG1:3237"]

$$$$
2d_Ghoteimi_2023
     RDKit          3D

 68 72  0  0  0  0  0  0  0  0999 V2000
  124.0820  130.2020   63.0960 C   0  0  0  0  0  0  0  0  0  0  0  0
  124.1740  129.8560   64.4690 O   0  0  0  0  0  0  0  0  0  0  0  0
  125.3360  129.4040   64.9860 C   0  0  0  0  0  0  0  0  0  0  0  0
  125.4410  128.6160   65.9300 O   0  0  0  0  0  0  0  0  0  0  0  0
  126.5440  129.9930   64.2420 C   0  0  0  0  0  0  0  0  0  0  0  0
  127.1810  128.8260   62.9910 S   0  0  0  0  0  0  0  0  0  0  0  0
  128.0670  127.5310   63.8330 C   0  0  0  0  0  0  0  0  0  0  0  0
  128.1780  127.7390   65.1680 N   0  0  0  0  0  0  0  0  0  0  0  0
  128.8360  126.8330   65.9350 C   0  0  0  0  0  0  0  0  0  0  0  0
  128.9340  127.1390   67.3950 C   0  0  0  0  0  0  0  0  0  0  0  0
  128.9490  126.1070   68.3390 C   0  0  0  0  0  0  0  0  0  0  0  0
  129.0400  126.3840   69.7010 C   0  0  0  0  0  0  0  0  0  0  0  0
  129.1300  127.7050   70.1660 C   0  0  0  0  0  0  0  0  0  0  0  0
  129.2040  128.0020   71.5320 N   0  0  0  0  0  0  0  0  0  0  0  0
  130.2700  127.4430   72.3870 C   0  0  0  0  0  0  0  0  0  0  0  0
  129.9800  127.5690   73.8980 C   0  0  0  0  0  0  0  0  0  0  0  0
  129.7240  128.9250   74.2300 O   0  0  0  0  0  0  0  0  0  0  0  0
  128.6000  129.4300   73.5290 C   0  0  0  0  0  0  0  0  0  0  0  0
  128.8450  129.3540   72.0070 C   0  0  0  0  0  0  0  0  0  0  0  0
  129.1000  128.7360   69.2170 C   0  0  0  0  0  0  0  0  0  0  0  0
  129.0070  128.4590   67.8570 C   0  0  0  0  0  0  0  0  0  0  0  0
  129.3990  125.6850   65.3720 C   0  0  0  0  0  0  0  0  0  0  0  0
  129.2690  125.4290   64.0020 C   0  0  0  0  0  0  0  0  0  0  0  0
  129.8710  124.1680   63.4750 C   0  0  0  0  0  0  0  0  0  0  0  0
  131.2310  123.9110   63.6540 C   0  0  0  0  0  0  0  0  0  0  0  0
  131.8000  122.7330   63.1780 C   0  0  0  0  0  0  0  0  0  0  0  0
  131.0210  121.7770   62.5040 C   0  0  0  0  0  0  0  0  0  0  0  0
  131.5680  120.5820   62.0290 N   0  0  0  0  0  0  0  0  0  0  0  0
  132.7910  120.5710   61.2020 C   0  0  0  0  0  0  0  0  0  0  0  0
  133.4370  119.1740   61.0780 C   0  0  0  0  0  0  0  0  0  0  0  0
  132.4860  118.2410   60.5900 O   0  0  0  0  0  0  0  0  0  0  0  0
  131.3650  118.1330   61.4550 C   0  0  0  0  0  0  0  0  0  0  0  0
  130.6650  119.5030   61.5850 C   0  0  0  0  0  0  0  0  0  0  0  0
  129.6530  122.0360   62.3440 C   0  0  0  0  0  0  0  0  0  0  0  0
  129.0850  123.2140   62.8220 C   0  0  0  0  0  0  0  0  0  0  0  0
  128.5780  126.3730   63.2010 C   0  0  0  0  0  0  0  0  0  0  0  0
  128.4000  126.1410   61.7650 C   0  0  0  0  0  0  0  0  0  0  0  0
  128.2610  125.9540   60.6310 N   0  0  0  0  0  0  0  0  0  0  0  0
  123.8004  131.2612   63.0029 H   0  0  0  0  0  0  0  0  0  0  0  0
  125.0551  130.0373   62.6104 H   0  0  0  0  0  0  0  0  0  0  0  0
  123.3192  129.5757   62.6104 H   0  0  0  0  0  0  0  0  0  0  0  0
  126.2385  130.9239   63.7419 H   0  0  0  0  0  0  0  0  0  0  0  0
  127.3418  130.1898   64.9733 H   0  0  0  0  0  0  0  0  0  0  0  0
  128.8881  125.0620   68.0010 H   0  0  0  0  0  0  0  0  0  0  0  0
  129.0413  125.5544   70.4234 H   0  0  0  0  0  0  0  0  0  0  0  0
  130.3881  126.3769   72.1433 H   0  0  0  0  0  0  0  0  0  0  0  0
  131.1830  128.0221   72.1843 H   0  0  0  0  0  0  0  0  0  0  0  0
  129.1007  126.9590   74.1526 H   0  0  0  0  0  0  0  0  0  0  0  0
  130.8543  127.2165   74.4649 H   0  0  0  0  0  0  0  0  0  0  0  0
  127.7130  128.8319   73.7849 H   0  0  0  0  0  0  0  0  0  0  0  0
  128.4394  130.4798   73.8155 H   0  0  0  0  0  0  0  0  0  0  0  0
  127.9270  129.6715   71.4908 H   0  0  0  0  0  0  0  0  0  0  0  0
  129.6988  130.0110   71.7848 H   0  0  0  0  0  0  0  0  0  0  0  0
  129.1509  129.7821   69.5534 H   0  0  0  0  0  0  0  0  0  0  0  0
  128.9906  129.2882   67.1344 H   0  0  0  0  0  0  0  0  0  0  0  0
  129.9484  124.9771   66.0100 H   0  0  0  0  0  0  0  0  0  0  0  0
  131.8598  124.6468   64.1766 H   0  0  0  0  0  0  0  0  0  0  0  0
  132.8734  122.5480   63.3314 H   0  0  0  0  0  0  0  0  0  0  0  0
  132.5327  120.9261   60.1934 H   0  0  0  0  0  0  0  0  0  0  0  0
  133.5238  121.2239   61.6987 H   0  0  0  0  0  0  0  0  0  0  0  0
  134.2867  119.2262   60.3814 H   0  0  0  0  0  0  0  0  0  0  0  0
  133.7863  118.8486   62.0690 H   0  0  0  0  0  0  0  0  0  0  0  0
  130.6563  117.3994   61.0432 H   0  0  0  0  0  0  0  0  0  0  0  0
  131.7054  117.8055   62.4484 H   0  0  0  0  0  0  0  0  0  0  0  0
  130.2500  119.7771   60.6039 H   0  0  0  0  0  0  0  0  0  0  0  0
  129.8835  119.3971   62.3518 H   0  0  0  0  0  0  0  0  0  0  0  0
  129.0182  121.2972   61.8329 H   0  0  0  0  0  0  0  0  0  0  0  0
  128.0088  123.3955   62.6847 H   0  0  0  0  0  0  0  0  0  0  0  0
  1  2  1  0
  2  3  1  0
  3  4  2  0
  3  5  1  0
  5  6  1  0
  6  7  1  0
  7  8  2  0
  8  9  1  0
  9 10  1  0
 10 11  2  0
 11 12  1  0
 12 13  2  0
 13 14  1  0
 14 15  1  0
 15 16  1  0
 16 17  1  0
 17 18  1  0
 18 19  1  0
 13 20  1  0
 20 21  2  0
  9 22  2  0
 22 23  1  0
 23 24  1  0
 24 25  2  0
 25 26  1  0
 26 27  2  0
 27 28  1  0
 28 29  1  0
 29 30  1  0
 30 31  1  0
 31 32  1  0
 32 33  1  0
 27 34  1  0
 34 35  2  0
 23 36  2  0
 36 37  1  0
 37 38  3  0
 36  7  1  0
 21 10  1  0
 35 24  1  0
 19 14  1  0
 33 28  1  0
  1 39  1  0
  1 40  1  0
  1 41  1  0
  5 42  1  0
  5 43  1  0
 11 44  1  0
 12 45  1  0
 15 46  1  0
 15 47  1  0
 16 48  1  0
 16 49  1  0
 18 50  1  0
 18 51  1  0
 19 52  1  0
 19 53  1  0
 20 54  1  0
 21 55  1  0
 22 56  1  0
 25 57  1  0
 26 58  1  0
 29 59  1  0
 29 60  1  0
 30 61  1  0
 30 62  1  0
 32 63  1  0
 32 64  1  0
 33 65  1  0
 33 66  1  0
 34 67  1  0
 35 68  1  0
M  END
>  <Binding energies>  (1) 
[-8.37]

>  <Ligand effiencies>  (1) 
[-0.22026315789473683]

>  <Interactions>  (1) 
["V-A:ILE:369:CG2:3236, V-A:LEU:475:CD1:4257, H-A:SER:385:OG:3409, H-A:HIS:383:NE2:3393, V-B:ALA:541:CB:9864, V-A:PRO:482:CG:4326, V-A:PRO:482:CB:4325, V-B:ASP:366:CG:8184, H-B:GLY:454:N:9021, H-B:ARG:545:NH1:9899, V-B:ARG:545:CZ:9898, V-A:GLU:543:CG:4907, V-A:GLU:543:CD:4908, H-B:ARG:545:NH2:9900, H-B:ARG:545:NE:9896, H-B:TYR:484:OH:9319, V-A:SER:385:CA:3406, V-A:SER:385:C:3404, V-A:GLU:543:C:4902, V-B:HIS:456:CE1:9041, V-A:HIS:456:CE1:4069, V-B:GLU:543:CB:9878, V-B:GLU:543:CG:9879, V-B:GLU:543:CD:9880, V-A:GLU:543:CB:4906, V-B:HIS:456:CD2:9039, H-A:LYS:547:NZ:4951"]

$$$$
2d_Grossjean_2025
     RDKit          3D

 36 37  0  0  0  0  0  0  0  0999 V2000
  129.8370  131.7080   60.3870 C   0  0  0  0  0  0  0  0  0  0  0  0
  129.2340  131.3800   59.0340 C   0  0  0  0  0  0  0  0  0  0  0  0
  129.8770  131.7210   57.8470 C   0  0  0  0  0  0  0  0  0  0  0  0
  129.2800  131.3910   56.6210 C   0  0  0  0  0  0  0  0  0  0  0  0
  130.0110  131.7680   55.3170 C   0  0  0  0  0  0  0  0  0  0  0  0
  129.1970  132.4610   54.5210 F   0  0  0  0  0  0  0  0  0  0  0  0
  131.0830  132.5140   55.5930 F   0  0  0  0  0  0  0  0  0  0  0  0
  130.4300  130.7020   54.6330 F   0  0  0  0  0  0  0  0  0  0  0  0
  128.0290  130.7230   56.6330 C   0  0  0  0  0  0  0  0  0  0  0  0
  127.3880  130.3160   55.3800 C   0  0  0  0  0  0  0  0  0  0  0  0
  126.8820  129.9940   54.3900 N   0  0  0  0  0  0  0  0  0  0  0  0
  127.4390  130.4390   57.8870 C   0  0  0  0  0  0  0  0  0  0  0  0
  125.8600  129.6360   58.0850 S   0  0  0  0  0  0  0  0  0  0  0  0
  126.0660  128.2040   59.1940 C   0  0  0  0  0  0  0  0  0  0  0  0
  126.5800  126.9550   58.4720 C   0  0  0  0  0  0  0  0  0  0  0  0
  127.5780  127.0470   57.7550 O   0  0  0  0  0  0  0  0  0  0  0  0
  125.8590  125.8310   58.6630 N   0  0  0  0  0  0  0  0  0  0  0  0
  126.0730  124.5390   58.1470 C   0  0  0  0  0  0  0  0  0  0  0  0
  127.3740  124.0430   58.2590 C   0  0  0  0  0  0  0  0  0  0  0  0
  127.6860  122.7760   57.7720 C   0  0  0  0  0  0  0  0  0  0  0  0
  126.6960  122.0070   57.1650 C   0  0  0  0  0  0  0  0  0  0  0  0
  125.3990  122.4970   57.0360 C   0  0  0  0  0  0  0  0  0  0  0  0
  125.0830  123.7620   57.5220 C   0  0  0  0  0  0  0  0  0  0  0  0
  128.0390  130.7460   59.0630 N   0  0  0  0  0  0  0  0  0  0  0  0
  129.1703  131.3453   61.1832 H   0  0  0  0  0  0  0  0  0  0  0  0
  130.8181  131.2193   60.4794 H   0  0  0  0  0  0  0  0  0  0  0  0
  129.9598  132.7972   60.4794 H   0  0  0  0  0  0  0  0  0  0  0  0
  130.8442  132.2444   57.8703 H   0  0  0  0  0  0  0  0  0  0  0  0
  126.7837  128.4726   59.9832 H   0  0  0  0  0  0  0  0  0  0  0  0
  125.0747  127.9614   59.6045 H   0  0  0  0  0  0  0  0  0  0  0  0
  125.0130  125.9290   59.2060 H   0  0  0  0  0  0  0  0  0  0  0  0
  128.1550  124.6553   58.7336 H   0  0  0  0  0  0  0  0  0  0  0  0
  128.7096  122.3845   57.8663 H   0  0  0  0  0  0  0  0  0  0  0  0
  126.9407  121.0044   56.7844 H   0  0  0  0  0  0  0  0  0  0  0  0
  124.6249  121.8847   56.5504 H   0  0  0  0  0  0  0  0  0  0  0  0
  124.0602  124.1530   57.4171 H   0  0  0  0  0  0  0  0  0  0  0  0
  1  2  1  0
  2  3  2  0
  3  4  1  0
  4  5  1  0
  5  6  1  0
  5  7  1  0
  5  8  1  0
  4  9  2  0
  9 10  1  0
 10 11  3  0
  9 12  1  0
 12 13  1  0
 13 14  1  0
 14 15  1  0
 15 16  2  0
 15 17  1  0
 17 18  1  0
 18 19  2  0
 19 20  1  0
 20 21  2  0
 21 22  1  0
 22 23  2  0
 12 24  2  0
 24  2  1  0
 23 18  1  0
  1 25  1  0
  1 26  1  0
  1 27  1  0
  3 28  1  0
 14 29  1  0
 14 30  1  0
 17 31  1  0
 19 32  1  0
 20 33  1  0
 21 34  1  0
 22 35  1  0
 23 36  1  0
M  END
>  <Binding energies>  (1) 
[-7.06]

>  <Ligand effiencies>  (1) 
[-0.2824]

>  <Interactions>  (1) 
["V-B:PRO:540:CB:9857, H-B:TYR:531:OH:9767, V-B:MET:535:CE:9807, V-B:PRO:540:N:9856, V-B:PRO:540:CA:9855, V-B:TYR:539:C:9839, V-B:TYR:531:CE2:9765, V-B:LEU:363:CD1:8160, V-B:TYR:539:CA:9841, V-B:PRO:540:CD:9859, V-A:PRO:540:N:4884, V-A:ILE:538:CA:4860, V-A:ILE:538:CG2:4863, V-A:TYR:539:CD1:4873, V-A:TYR:539:CE2:4876, V-A:PRO:540:CA:4883, V-A:TYR:539:CZ:4877, V-A:TYR:539:CD2:4874, V-A:TYR:539:CE1:4875, V-A:TYR:531:CZ:4794, V-A:ILE:538:CB:4862, V-B:ASP:366:CG:8184, V-B:TYR:531:CE1:9764, H-B:LYS:534:NZ:9795, V-B:ASP:366:CB:8183, V-A:PRO:540:CD:4887, V-A:PRO:540:C:4881, V-A:TYR:539:C:4867, H-A:TYR:539:OH:4878, V-A:ILE:538:C:4858, H-B:ASP:366:OD1:8185"]

$$$$
2e_Grossjean_2025
     RDKit          3D

 38 39  0  0  0  0  0  0  0  0999 V2000
  125.3570  122.1240   55.4810 C   0  0  0  0  0  0  0  0  0  0  0  0
  126.0340  122.7350   56.6930 C   0  0  0  0  0  0  0  0  0  0  0  0
  127.0340  122.0550   57.3920 C   0  0  0  0  0  0  0  0  0  0  0  0
  127.6210  122.6840   58.4920 C   0  0  0  0  0  0  0  0  0  0  0  0
  127.1980  123.9630   58.8620 C   0  0  0  0  0  0  0  0  0  0  0  0
  126.1840  124.5830   58.1230 C   0  0  0  0  0  0  0  0  0  0  0  0
  125.8270  125.8860   58.5120 N   0  0  0  0  0  0  0  0  0  0  0  0
  126.5660  127.0140   58.4230 C   0  0  0  0  0  0  0  0  0  0  0  0
  127.6800  127.0900   57.9020 O   0  0  0  0  0  0  0  0  0  0  0  0
  125.9560  128.2620   59.0690 C   0  0  0  0  0  0  0  0  0  0  0  0
  125.7340  129.6140   57.8690 S   0  0  0  0  0  0  0  0  0  0  0  0
  127.2930  130.4710   57.8240 C   0  0  0  0  0  0  0  0  0  0  0  0
  127.7410  130.8930   59.0330 N   0  0  0  0  0  0  0  0  0  0  0  0
  128.8970  131.5920   59.0840 C   0  0  0  0  0  0  0  0  0  0  0  0
  129.3400  132.0330   60.4660 C   0  0  0  0  0  0  0  0  0  0  0  0
  129.6410  131.9010   57.9460 C   0  0  0  0  0  0  0  0  0  0  0  0
  129.1860  131.4800   56.6880 C   0  0  0  0  0  0  0  0  0  0  0  0
  130.0080  131.8480   55.4390 C   0  0  0  0  0  0  0  0  0  0  0  0
  130.4830  130.7430   54.8610 F   0  0  0  0  0  0  0  0  0  0  0  0
  129.2410  132.4980   54.5640 F   0  0  0  0  0  0  0  0  0  0  0  0
  131.0510  132.6330   55.7200 F   0  0  0  0  0  0  0  0  0  0  0  0
  127.9790  130.7410   56.6180 C   0  0  0  0  0  0  0  0  0  0  0  0
  127.4360  130.2980   55.3300 C   0  0  0  0  0  0  0  0  0  0  0  0
  127.0060  129.9490   54.3140 N   0  0  0  0  0  0  0  0  0  0  0  0
  125.6110  123.9770   57.0420 N   0  0  0  0  0  0  0  0  0  0  0  0
  124.5781  121.4211   55.8116 H   0  0  0  0  0  0  0  0  0  0  0  0
  124.8992  122.9207   54.8762 H   0  0  0  0  0  0  0  0  0  0  0  0
  126.1027  121.5872   54.8762 H   0  0  0  0  0  0  0  0  0  0  0  0
  127.3516  121.0481   57.0834 H   0  0  0  0  0  0  0  0  0  0  0  0
  128.4115  122.1756   59.0635 H   0  0  0  0  0  0  0  0  0  0  0  0
  127.6552  124.4752   59.7215 H   0  0  0  0  0  0  0  0  0  0  0  0
  124.8870  125.9820   58.8650 H   0  0  0  0  0  0  0  0  0  0  0  0
  124.9756  127.9991   59.4928 H   0  0  0  0  0  0  0  0  0  0  0  0
  126.6470  128.6118   59.8501 H   0  0  0  0  0  0  0  0  0  0  0  0
  128.7774  131.4730   61.2275 H   0  0  0  0  0  0  0  0  0  0  0  0
  130.4156  131.8364   60.5864 H   0  0  0  0  0  0  0  0  0  0  0  0
  129.1483  133.1095   60.5864 H   0  0  0  0  0  0  0  0  0  0  0  0
  130.5778  132.4707   58.0342 H   0  0  0  0  0  0  0  0  0  0  0  0
  1  2  1  0
  2  3  2  0
  3  4  1  0
  4  5  2  0
  5  6  1  0
  6  7  1  0
  7  8  1  0
  8  9  2  0
  8 10  1  0
 10 11  1  0
 11 12  1  0
 12 13  2  0
 13 14  1  0
 14 15  1  0
 14 16  2  0
 16 17  1  0
 17 18  1  0
 18 19  1  0
 18 20  1  0
 18 21  1  0
 17 22  2  0
 22 23  1  0
 23 24  3  0
  6 25  2  0
 25  2  1  0
 22 12  1  0
  1 26  1  0
  1 27  1  0
  1 28  1  0
  3 29  1  0
  4 30  1  0
  5 31  1  0
  7 32  1  0
 10 33  1  0
 10 34  1  0
 15 35  1  0
 15 36  1  0
 15 37  1  0
 16 38  1  0
M  END
>  <Binding energies>  (1) 
[-7.68]

>  <Ligand effiencies>  (1) 
[-0.29538461538461536]

>  <Interactions>  (1) 
["V-B:PRO:540:CB:9857, H-B:TYR:531:OH:9767, V-B:MET:535:CE:9807, V-B:PRO:540:N:9856, V-B:PRO:540:CA:9855, V-B:MET:535:CG:9805, V-B:TYR:539:C:9839, V-B:TYR:531:CZ:9766, V-B:LEU:363:CD1:8160, V-B:TYR:539:CA:9841, V-B:PRO:540:CD:9859, V-A:PRO:540:N:4884, V-A:ILE:538:CA:4860, V-A:ILE:538:CG2:4863, V-A:TYR:539:CD1:4873, V-A:TYR:539:CE2:4876, V-A:PRO:540:CA:4883, V-A:TYR:539:CZ:4877, V-A:TYR:539:CD2:4874, V-A:TYR:539:CE1:4875, V-A:TYR:531:CZ:4794, V-A:ILE:538:CB:4862, V-B:ASP:366:CG:8184, V-B:TYR:531:CE1:9764, H-B:LYS:534:NZ:9795, V-B:ASP:366:CB:8183, V-A:PRO:540:CD:4887, V-A:PRO:540:C:4881, V-A:TYR:539:C:4867, H-A:TYR:539:OH:4878, V-A:ILE:538:C:4858, V-B:ILE:538:CA:9832, V-B:ILE:538:CG1:9836, V-B:ILE:538:CG2:9835, H-B:ASP:366:OD1:8185"]

$$$$
2f_Grossjean_2025
     RDKit          3D

 35 36  0  0  0  0  0  0  0  0999 V2000
  126.3310  130.2390   58.1880 C   0  0  0  0  0  0  0  0  0  0  0  0
  127.2530  129.3540   57.3710 C   0  0  0  0  0  0  0  0  0  0  0  0
  127.6870  128.1180   57.8440 C   0  0  0  0  0  0  0  0  0  0  0  0
  128.5470  127.3390   57.0550 C   0  0  0  0  0  0  0  0  0  0  0  0
  129.0250  125.9810   57.6010 C   0  0  0  0  0  0  0  0  0  0  0  0
  128.7240  125.0080   56.7390 F   0  0  0  0  0  0  0  0  0  0  0  0
  130.3460  126.0040   57.7830 F   0  0  0  0  0  0  0  0  0  0  0  0
  128.4640  125.6670   58.7710 F   0  0  0  0  0  0  0  0  0  0  0  0
  128.9410  127.8390   55.7870 C   0  0  0  0  0  0  0  0  0  0  0  0
  129.8820  127.0890   54.9500 C   0  0  0  0  0  0  0  0  0  0  0  0
  130.6240  126.4960   54.2890 N   0  0  0  0  0  0  0  0  0  0  0  0
  128.4290  129.0930   55.3770 C   0  0  0  0  0  0  0  0  0  0  0  0
  128.8090  129.8650   53.8170 S   0  0  0  0  0  0  0  0  0  0  0  0
  130.2180  130.9970   54.0730 C   0  0  0  0  0  0  0  0  0  0  0  0
  130.4200  131.4670   55.5200 C   0  0  0  0  0  0  0  0  0  0  0  0
  129.8790  132.4960   55.9280 O   0  0  0  0  0  0  0  0  0  0  0  0
  131.2330  130.6800   56.2570 N   0  0  0  0  0  0  0  0  0  0  0  0
  131.6230  130.8070   57.6040 C   0  0  0  0  0  0  0  0  0  0  0  0
  130.7480  130.9040   58.7010 C   0  0  0  0  0  0  0  0  0  0  0  0
  131.2680  131.0210   59.9920 C   0  0  0  0  0  0  0  0  0  0  0  0
  132.6530  131.0350   60.1540 C   0  0  0  0  0  0  0  0  0  0  0  0
  133.5190  130.9350   59.1140 N   0  0  0  0  0  0  0  0  0  0  0  0
  132.9980  130.8200   57.8660 C   0  0  0  0  0  0  0  0  0  0  0  0
  127.6180  129.8410   56.1630 N   0  0  0  0  0  0  0  0  0  0  0  0
  126.5111  130.0661   59.2593 H   0  0  0  0  0  0  0  0  0  0  0  0
  126.5286  131.2943   57.9486 H   0  0  0  0  0  0  0  0  0  0  0  0
  125.2847  129.9984   57.9486 H   0  0  0  0  0  0  0  0  0  0  0  0
  127.3580  127.7551   58.8289 H   0  0  0  0  0  0  0  0  0  0  0  0
  131.1339  130.4794   53.7517 H   0  0  0  0  0  0  0  0  0  0  0  0
  129.9965  131.9001   53.4853 H   0  0  0  0  0  0  0  0  0  0  0  0
  131.6560  129.8990   55.7750 H   0  0  0  0  0  0  0  0  0  0  0  0
  129.6595  130.8878   58.5429 H   0  0  0  0  0  0  0  0  0  0  0  0
  130.5996  131.1004   60.8620 H   0  0  0  0  0  0  0  0  0  0  0  0
  133.0619  131.1314   61.1706 H   0  0  0  0  0  0  0  0  0  0  0  0
  133.6918  130.7325   57.0169 H   0  0  0  0  0  0  0  0  0  0  0  0
  1  2  1  0
  2  3  2  0
  3  4  1  0
  4  5  1  0
  5  6  1  0
  5  7  1  0
  5  8  1  0
  4  9  2  0
  9 10  1  0
 10 11  3  0
  9 12  1  0
 12 13  1  0
 13 14  1  0
 14 15  1  0
 15 16  2  0
 15 17  1  0
 17 18  1  0
 18 19  2  0
 19 20  1  0
 20 21  2  0
 21 22  1  0
 22 23  2  0
 12 24  2  0
 24  2  1  0
 23 18  1  0
  1 25  1  0
  1 26  1  0
  1 27  1  0
  3 28  1  0
 14 29  1  0
 14 30  1  0
 17 31  1  0
 19 32  1  0
 20 33  1  0
 21 34  1  0
 23 35  1  0
M  END
>  <Binding energies>  (1) 
[-6.52]

>  <Ligand effiencies>  (1) 
[-0.2608]

>  <Interactions>  (1) 
["H-B:TYR:531:OH:9767, V-B:MET:535:CE:9807, V-A:ILE:538:CG2:4863, V-A:PRO:540:CA:4883, H-A:TYR:531:OH:4795, H-A:TYR:539:N:4870, V-A:TYR:539:CZ:4877, V-A:PRO:540:CB:4885, V-A:TYR:539:CE1:4875, V-A:ILE:538:CB:4862, H-B:LYS:534:NZ:9795, V-A:LEU:363:CD1:3188, V-A:LEU:363:CA:3184, H-A:LEU:363:N:3185"]

$$$$
2g_Grossjean_2025
     RDKit          3D

 39 40  0  0  0  0  0  0  0  0999 V2000
  126.3090  130.1010   57.7910 C   0  0  0  0  0  0  0  0  0  0  0  0
  127.3300  129.1690   57.1670 C   0  0  0  0  0  0  0  0  0  0  0  0
  127.7350  127.9980   57.8040 C   0  0  0  0  0  0  0  0  0  0  0  0
  128.6890  127.1730   57.1880 C   0  0  0  0  0  0  0  0  0  0  0  0
  129.1310  125.8860   57.9120 C   0  0  0  0  0  0  0  0  0  0  0  0
  128.5190  125.7870   59.0940 F   0  0  0  0  0  0  0  0  0  0  0  0
  128.8170  124.8210   57.1730 F   0  0  0  0  0  0  0  0  0  0  0  0
  130.4450  125.8470   58.1390 F   0  0  0  0  0  0  0  0  0  0  0  0
  129.2060  127.5580   55.9250 C   0  0  0  0  0  0  0  0  0  0  0  0
  130.2450  126.7620   55.2660 C   0  0  0  0  0  0  0  0  0  0  0  0
  131.0650  126.1330   54.7470 N   0  0  0  0  0  0  0  0  0  0  0  0
  128.7130  128.7500   55.3400 C   0  0  0  0  0  0  0  0  0  0  0  0
  129.2330  129.3660   53.7530 S   0  0  0  0  0  0  0  0  0  0  0  0
  129.0970  131.1850   53.8000 C   0  0  0  0  0  0  0  0  0  0  0  0
  129.9420  131.8640   54.8870 C   0  0  0  0  0  0  0  0  0  0  0  0
  129.5330  132.8570   55.4910 O   0  0  0  0  0  0  0  0  0  0  0  0
  131.1440  131.3050   55.1180 N   0  0  0  0  0  0  0  0  0  0  0  0
  132.1190  131.7660   56.1070 C   0  0  0  0  0  0  0  0  0  0  0  0
  131.7510  131.4430   57.5520 C   0  0  0  0  0  0  0  0  0  0  0  0
  132.7390  131.0130   58.4420 C   0  0  0  0  0  0  0  0  0  0  0  0
  132.4110  130.7540   59.7710 C   0  0  0  0  0  0  0  0  0  0  0  0
  131.1020  130.9360   60.2070 C   0  0  0  0  0  0  0  0  0  0  0  0
  130.1150  131.3770   59.3270 C   0  0  0  0  0  0  0  0  0  0  0  0
  130.4410  131.6370   57.9990 C   0  0  0  0  0  0  0  0  0  0  0  0
  127.8080  129.5470   55.9590 N   0  0  0  0  0  0  0  0  0  0  0  0
  126.3773  130.0387   58.8871 H   0  0  0  0  0  0  0  0  0  0  0  0
  126.5101  131.1335   57.4692 H   0  0  0  0  0  0  0  0  0  0  0  0
  125.2991  129.8068   57.4692 H   0  0  0  0  0  0  0  0  0  0  0  0
  127.3110  127.7225   58.7809 H   0  0  0  0  0  0  0  0  0  0  0  0
  129.4157  131.5777   52.8232 H   0  0  0  0  0  0  0  0  0  0  0  0
  128.0469  131.4118   54.0362 H   0  0  0  0  0  0  0  0  0  0  0  0
  131.3970  130.4770   54.5980 H   0  0  0  0  0  0  0  0  0  0  0  0
  133.0861  131.2917   55.8839 H   0  0  0  0  0  0  0  0  0  0  0  0
  132.1514  132.8627   56.0287 H   0  0  0  0  0  0  0  0  0  0  0  0
  133.7738  130.8793   58.0938 H   0  0  0  0  0  0  0  0  0  0  0  0
  133.1836  130.4070   60.4729 H   0  0  0  0  0  0  0  0  0  0  0  0
  130.8437  130.7299   61.2562 H   0  0  0  0  0  0  0  0  0  0  0  0
  129.0831  131.5189   59.6805 H   0  0  0  0  0  0  0  0  0  0  0  0
  129.6686  131.9947   57.3022 H   0  0  0  0  0  0  0  0  0  0  0  0
  1  2  1  0
  2  3  2  0
  3  4  1  0
  4  5  1  0
  5  6  1  0
  5  7  1  0
  5  8  1  0
  4  9  2  0
  9 10  1  0
 10 11  3  0
  9 12  1  0
 12 13  1  0
 13 14  1  0
 14 15  1  0
 15 16  2  0
 15 17  1  0
 17 18  1  0
 18 19  1  0
 19 20  2  0
 20 21  1  0
 21 22  2  0
 22 23  1  0
 23 24  2  0
 12 25  2  0
 25  2  1  0
 24 19  1  0
  1 26  1  0
  1 27  1  0
  1 28  1  0
  3 29  1  0
 14 30  1  0
 14 31  1  0
 17 32  1  0
 18 33  1  0
 18 34  1  0
 20 35  1  0
 21 36  1  0
 22 37  1  0
 23 38  1  0
 24 39  1  0
M  END
>  <Binding energies>  (1) 
[-7.04]

>  <Ligand effiencies>  (1) 
[-0.27076923076923076]

>  <Interactions>  (1) 
["H-B:TYR:531:OH:9767, V-B:MET:535:CE:9807, V-A:ASP:366:CG:3212, V-A:PRO:540:N:4884, V-A:ILE:538:CA:4860, V-A:ILE:538:CG2:4863, H-B:TYR:539:OH:9850, V-A:PRO:540:CA:4883, H-A:TYR:531:OH:4795, H-A:TYR:539:N:4870, V-A:TYR:539:CZ:4877, V-A:PRO:540:CB:4885, V-A:TYR:539:CE1:4875, V-A:TYR:531:CZ:4794, V-A:ILE:538:CB:4862, V-A:TYR:539:C:4867, V-A:LEU:363:CD1:3188, V-B:LYS:534:CE:9794, V-A:TYR:531:CE2:4793"]

$$$$
2h_Grossjean_2025
     RDKit          3D

 51 52  0  0  0  0  0  0  0  0999 V2000
  125.5710  121.8570   55.6930 C   0  0  0  0  0  0  0  0  0  0  0  0
  126.1320  121.7050   56.9920 O   0  0  0  0  0  0  0  0  0  0  0  0
  127.1960  122.5040   57.3710 C   0  0  0  0  0  0  0  0  0  0  0  0
  128.4530  122.0070   57.7480 C   0  0  0  0  0  0  0  0  0  0  0  0
  129.4810  122.8750   58.1090 C   0  0  0  0  0  0  0  0  0  0  0  0
  129.2770  124.2560   58.1020 C   0  0  0  0  0  0  0  0  0  0  0  0
  130.4250  125.1890   58.4830 C   0  0  0  0  0  0  0  0  0  0  0  0
  131.7200  124.5150   58.5840 N   0  0  0  0  0  0  0  0  0  0  0  0
  132.4250  124.3680   59.7200 C   0  0  0  0  0  0  0  0  0  0  0  0
  132.0850  124.8650   60.7950 O   0  0  0  0  0  0  0  0  0  0  0  0
  133.7000  123.5210   59.6030 C   0  0  0  0  0  0  0  0  0  0  0  0
  133.9050  122.2540   60.8990 S   0  0  0  0  0  0  0  0  0  0  0  0
  132.3730  121.3510   60.9820 C   0  0  0  0  0  0  0  0  0  0  0  0
  131.3090  122.1140   61.3360 N   0  0  0  0  0  0  0  0  0  0  0  0
  130.0980  121.5240   61.4470 C   0  0  0  0  0  0  0  0  0  0  0  0
  128.9560  122.4360   61.8540 C   0  0  0  0  0  0  0  0  0  0  0  0
  129.8980  120.1660   61.2090 C   0  0  0  0  0  0  0  0  0  0  0  0
  130.9830  119.3650   60.8220 C   0  0  0  0  0  0  0  0  0  0  0  0
  130.7400  117.8670   60.5530 C   0  0  0  0  0  0  0  0  0  0  0  0
  131.0840  117.5680   59.3010 F   0  0  0  0  0  0  0  0  0  0  0  0
  131.4480  117.0760   61.3630 F   0  0  0  0  0  0  0  0  0  0  0  0
  129.4510  117.5730   60.7300 F   0  0  0  0  0  0  0  0  0  0  0  0
  132.2590  119.9700   60.6930 C   0  0  0  0  0  0  0  0  0  0  0  0
  133.4120  119.1910   60.2350 C   0  0  0  0  0  0  0  0  0  0  0  0
  134.3200  118.5740   59.8700 N   0  0  0  0  0  0  0  0  0  0  0  0
  128.0180  124.7660   57.7500 C   0  0  0  0  0  0  0  0  0  0  0  0
  127.8080  126.1250   57.7440 O   0  0  0  0  0  0  0  0  0  0  0  0
  128.5220  126.8230   56.7320 C   0  0  0  0  0  0  0  0  0  0  0  0
  126.9890  123.8890   57.3670 C   0  0  0  0  0  0  0  0  0  0  0  0
  125.7600  124.3870   57.0040 O   0  0  0  0  0  0  0  0  0  0  0  0
  124.8660  124.5780   58.0920 C   0  0  0  0  0  0  0  0  0  0  0  0
  124.5128  122.1437   55.7819 H   0  0  0  0  0  0  0  0  0  0  0  0
  126.1182  122.6393   55.1465 H   0  0  0  0  0  0  0  0  0  0  0  0
  125.6484  120.9055   55.1465 H   0  0  0  0  0  0  0  0  0  0  0  0
  128.6283  120.9211   57.7586 H   0  0  0  0  0  0  0  0  0  0  0  0
  130.4606  122.4693   58.4017 H   0  0  0  0  0  0  0  0  0  0  0  0
  130.5015  125.9761   57.7184 H   0  0  0  0  0  0  0  0  0  0  0  0
  130.1940  125.5939   59.4793 H   0  0  0  0  0  0  0  0  0  0  0  0
  132.0460  124.0510   57.7490 H   0  0  0  0  0  0  0  0  0  0  0  0
  133.6834  123.0122   58.6279 H   0  0  0  0  0  0  0  0  0  0  0  0
  134.5436  124.2176   59.7177 H   0  0  0  0  0  0  0  0  0  0  0  0
  128.8974  122.4828   62.9514 H   0  0  0  0  0  0  0  0  0  0  0  0
  129.1318  123.4450   61.4528 H   0  0  0  0  0  0  0  0  0  0  0  0
  128.0108  122.0414   61.4528 H   0  0  0  0  0  0  0  0  0  0  0  0
  128.8968  119.7250   61.3236 H   0  0  0  0  0  0  0  0  0  0  0  0
  129.2340  127.5191   57.1994 H   0  0  0  0  0  0  0  0  0  0  0  0
  129.0700  126.1028   56.1068 H   0  0  0  0  0  0  0  0  0  0  0  0
  127.8144  127.3872   56.1068 H   0  0  0  0  0  0  0  0  0  0  0  0
  125.4118  124.4614   59.0399 H   0  0  0  0  0  0  0  0  0  0  0  0
  124.4347  125.5886   58.0391 H   0  0  0  0  0  0  0  0  0  0  0  0
  124.0594  123.8319   58.0391 H   0  0  0  0  0  0  0  0  0  0  0  0
  1  2  1  0
  2  3  1  0
  3  4  2  0
  4  5  1  0
  5  6  2  0
  6  7  1  0
  7  8  1  0
  8  9  1  0
  9 10  2  0
  9 11  1  0
 11 12  1  0
 12 13  1  0
 13 14  2  0
 14 15  1  0
 15 16  1  0
 15 17  2  0
 17 18  1  0
 18 19  1  0
 19 20  1  0
 19 21  1  0
 19 22  1  0
 18 23  2  0
 23 24  1  0
 24 25  3  0
  6 26  1  0
 26 27  1  0
 27 28  1  0
 26 29  2  0
 29 30  1  0
 30 31  1  0
 29  3  1  0
 23 13  1  0
  1 32  1  0
  1 33  1  0
  1 34  1  0
  4 35  1  0
  5 36  1  0
  7 37  1  0
  7 38  1  0
  8 39  1  0
 11 40  1  0
 11 41  1  0
 16 42  1  0
 16 43  1  0
 16 44  1  0
 17 45  1  0
 28 46  1  0
 28 47  1  0
 28 48  1  0
 31 49  1  0
 31 50  1  0
 31 51  1  0
M  END
>  <Binding energies>  (1) 
[-6.69]

>  <Ligand effiencies>  (1) 
[-0.2090625]

>  <Interactions>  (1) 
["H-B:TYR:531:OH:9767, V-B:MET:535:CE:9807, V-A:ILE:369:CG2:3236, V-B:TYR:539:CD2:9846, V-B:PRO:540:N:9856, V-A:LEU:475:CD1:4257, V-B:PRO:540:CA:9855, V-B:PRO:540:C:9853, H-A:SER:385:OG:3409, H-A:HIS:383:NE2:3393, H-B:TYR:539:N:9842, V-B:ALA:541:CB:9864, V-B:TYR:539:CE2:9848, V-B:TYR:539:C:9839, V-B:TYR:531:CE2:9765, V-A:PRO:482:CG:4326, V-B:TYR:531:CZ:9766, V-A:PRO:482:CB:4325, V-B:LEU:363:CD1:8160, V-B:TYR:539:CA:9841, V-A:ASP:366:CG:3212, V-B:PRO:540:CD:9859, V-A:ASP:366:CA:3209, V-A:ASP:366:CB:3211, H-B:TYR:539:OH:9850, V-B:ASP:366:CB:8183, V-B:TYR:539:CZ:9849, V-A:ILE:369:CB:3235, V-B:TYR:539:CG:9844, V-B:TYR:539:CE1:9847, V-B:TYR:539:CD1:9845, V-B:ILE:538:CA:9832, V-B:ILE:538:CG2:9835, V-B:TYR:539:CB:9843, V-B:ALA:541:CA:9862, V-A:HIS:383:CE1:3392, V-A:HIS:383:CD2:3391, V-A:PRO:482:CD:4327"]

$$$$
2i_Grossjean_2025
     RDKit          3D

 32 33  0  0  0  0  0  0  0  0999 V2000
  132.6040  131.7610   61.6020 C   0  0  0  0  0  0  0  0  0  0  0  0
  132.0120  130.8810   60.5170 C   0  0  0  0  0  0  0  0  0  0  0  0
  130.9600  130.0070   60.7790 C   0  0  0  0  0  0  0  0  0  0  0  0
  130.4460  129.2160   59.7420 C   0  0  0  0  0  0  0  0  0  0  0  0
  129.2820  128.2540   60.0500 C   0  0  0  0  0  0  0  0  0  0  0  0
  128.9900  128.2930   61.3510 F   0  0  0  0  0  0  0  0  0  0  0  0
  128.2010  128.6050   59.3530 F   0  0  0  0  0  0  0  0  0  0  0  0
  129.5640  126.9860   59.7400 F   0  0  0  0  0  0  0  0  0  0  0  0
  131.0200  129.3350   58.4510 C   0  0  0  0  0  0  0  0  0  0  0  0
  130.5210  128.5320   57.3290 C   0  0  0  0  0  0  0  0  0  0  0  0
  130.1270  127.9000   56.4440 N   0  0  0  0  0  0  0  0  0  0  0  0
  132.0870  130.2450   58.2740 C   0  0  0  0  0  0  0  0  0  0  0  0
  132.8930  130.4740   56.6970 S   0  0  0  0  0  0  0  0  0  0  0  0
  132.1300  131.9040   55.8740 C   0  0  0  0  0  0  0  0  0  0  0  0
  130.6020  131.8310   55.8830 C   0  0  0  0  0  0  0  0  0  0  0  0
  129.9620  132.7380   56.4180 O   0  0  0  0  0  0  0  0  0  0  0  0
  130.0620  130.7340   55.3090 N   0  0  0  0  0  0  0  0  0  0  0  0
  128.7140  130.4310   55.2080 C   0  0  0  0  0  0  0  0  0  0  0  0
  127.7990  130.0440   56.1980 C   0  0  0  0  0  0  0  0  0  0  0  0
  126.6080  129.8800   55.5280 C   0  0  0  0  0  0  0  0  0  0  0  0
  126.7960  130.1590   54.2160 O   0  0  0  0  0  0  0  0  0  0  0  0
  128.1340  130.5120   54.0310 N   0  0  0  0  0  0  0  0  0  0  0  0
  132.5690  131.0030   59.2920 N   0  0  0  0  0  0  0  0  0  0  0  0
  132.3331  131.3583   62.5891 H   0  0  0  0  0  0  0  0  0  0  0  0
  133.6993  131.7800   61.5017 H   0  0  0  0  0  0  0  0  0  0  0  0
  132.2088  132.7827   61.5017 H   0  0  0  0  0  0  0  0  0  0  0  0
  130.5357  129.9378   61.7915 H   0  0  0  0  0  0  0  0  0  0  0  0
  132.4435  132.8208   56.3947 H   0  0  0  0  0  0  0  0  0  0  0  0
  132.4610  131.9050   54.8250 H   0  0  0  0  0  0  0  0  0  0  0  0
  130.6940  130.0390   54.9390 H   0  0  0  0  0  0  0  0  0  0  0  0
  127.9908  129.9028   57.2719 H   0  0  0  0  0  0  0  0  0  0  0  0
  125.6560  129.5717   55.9848 H   0  0  0  0  0  0  0  0  0  0  0  0
  1  2  1  0
  2  3  2  0
  3  4  1  0
  4  5  1  0
  5  6  1  0
  5  7  1  0
  5  8  1  0
  4  9  2  0
  9 10  1  0
 10 11  3  0
  9 12  1  0
 12 13  1  0
 13 14  1  0
 14 15  1  0
 15 16  2  0
 15 17  1  0
 17 18  1  0
 18 19  1  0
 19 20  2  0
 20 21  1  0
 21 22  1  0
 12 23  2  0
 23  2  1  0
 22 18  2  0
  1 24  1  0
  1 25  1  0
  1 26  1  0
  3 27  1  0
 14 28  1  0
 14 29  1  0
 17 30  1  0
 19 31  1  0
 20 32  1  0
M  END
>  <Binding energies>  (1) 
[-6.81]

>  <Ligand effiencies>  (1) 
[-0.28375]

>  <Interactions>  (1) 
["V-B:TYR:531:CZ:9766, V-A:ILE:538:CG2:4863, V-A:PRO:540:CA:4883, H-A:TYR:531:OH:4795, H-A:TYR:539:N:4870, V-A:TYR:539:CZ:4877, V-A:PRO:540:CB:4885, V-A:TYR:539:CE1:4875, V-A:ILE:538:CB:4862, V-B:TYR:531:CE1:9764, H-B:LYS:534:NZ:9795, V-A:PRO:540:C:4881, V-A:LEU:363:CD1:3188, H-A:TYR:539:OH:4878, V-A:ASN:362:CB:3175, V-A:ALA:541:C:4888"]

$$$$
2j_Grossjean_2025
     RDKit          3D

 32 33  0  0  0  0  0  0  0  0999 V2000
  126.2430  129.8640   57.8760 C   0  0  0  0  0  0  0  0  0  0  0  0
  127.2860  129.0000   57.1920 C   0  0  0  0  0  0  0  0  0  0  0  0
  127.7060  127.7910   57.7410 C   0  0  0  0  0  0  0  0  0  0  0  0
  128.6700  127.0250   57.0690 C   0  0  0  0  0  0  0  0  0  0  0  0
  129.1240  125.6910   57.6910 C   0  0  0  0  0  0  0  0  0  0  0  0
  128.5170  125.5050   58.8630 F   0  0  0  0  0  0  0  0  0  0  0  0
  128.8140  124.6790   56.8780 F   0  0  0  0  0  0  0  0  0  0  0  0
  130.4400  125.6430   57.9070 F   0  0  0  0  0  0  0  0  0  0  0  0
  129.1880  127.5140   55.8430 C   0  0  0  0  0  0  0  0  0  0  0  0
  130.1980  126.7560   55.0980 C   0  0  0  0  0  0  0  0  0  0  0  0
  130.9940  126.1560   54.5100 N   0  0  0  0  0  0  0  0  0  0  0  0
  128.7040  128.7530   55.3580 C   0  0  0  0  0  0  0  0  0  0  0  0
  129.2840  129.4640   53.8250 S   0  0  0  0  0  0  0  0  0  0  0  0
  129.6400  131.2310   54.1090 C   0  0  0  0  0  0  0  0  0  0  0  0
  130.2300  131.5570   55.4890 C   0  0  0  0  0  0  0  0  0  0  0  0
  129.8760  132.5660   56.1030 O   0  0  0  0  0  0  0  0  0  0  0  0
  131.1460  130.6710   55.9370 N   0  0  0  0  0  0  0  0  0  0  0  0
  131.8300  130.7230   57.1440 C   0  0  0  0  0  0  0  0  0  0  0  0
  133.1200  130.5660   57.3480 N   0  0  0  0  0  0  0  0  0  0  0  0
  133.4280  130.6820   58.6250 C   0  0  0  0  0  0  0  0  0  0  0  0
  132.3700  130.9400   59.4920 C   0  0  0  0  0  0  0  0  0  0  0  0
  130.8970  131.0330   58.5730 S   0  0  0  0  0  0  0  0  0  0  0  0
  127.7690  129.4780   56.0230 N   0  0  0  0  0  0  0  0  0  0  0  0
  126.3510  129.7745   58.9670 H   0  0  0  0  0  0  0  0  0  0  0  0
  126.3839  130.9136   57.5784 H   0  0  0  0  0  0  0  0  0  0  0  0
  125.2380  129.5303   57.5784 H   0  0  0  0  0  0  0  0  0  0  0  0
  127.2849  127.4394   58.6945 H   0  0  0  0  0  0  0  0  0  0  0  0
  130.3570  131.5626   53.3436 H   0  0  0  0  0  0  0  0  0  0  0  0
  128.6735  131.7535   54.0549 H   0  0  0  0  0  0  0  0  0  0  0  0
  131.3660  129.8860   55.3410 H   0  0  0  0  0  0  0  0  0  0  0  0
  134.4626  130.5806   58.9847 H   0  0  0  0  0  0  0  0  0  0  0  0
  132.4525  131.0648   60.5818 H   0  0  0  0  0  0  0  0  0  0  0  0
  1  2  1  0
  2  3  2  0
  3  4  1  0
  4  5  1  0
  5  6  1  0
  5  7  1  0
  5  8  1  0
  4  9  2  0
  9 10  1  0
 10 11  3  0
  9 12  1  0
 12 13  1  0
 13 14  1  0
 14 15  1  0
 15 16  2  0
 15 17  1  0
 17 18  1  0
 18 19  2  0
 19 20  1  0
 20 21  2  0
 21 22  1  0
 12 23  2  0
 23  2  1  0
 22 18  1  0
  1 24  1  0
  1 25  1  0
  1 26  1  0
  3 27  1  0
 14 28  1  0
 14 29  1  0
 17 30  1  0
 20 31  1  0
 21 32  1  0
M  END
>  <Binding energies>  (1) 
[-6.31]

>  <Ligand effiencies>  (1) 
[-0.26291666666666663]

>  <Interactions>  (1) 
["H-B:TYR:531:OH:9767, V-B:MET:535:CE:9807, V-A:ASP:366:CG:3212, V-A:ILE:538:CA:4860, V-A:ASP:366:CB:3211, V-A:ILE:538:CG2:4863, H-B:TYR:539:OH:9850, V-A:PRO:540:CA:4883, H-A:TYR:531:OH:4795, H-A:TYR:539:N:4870, V-A:PRO:540:CB:4885, V-A:TYR:539:CE1:4875, V-A:TYR:531:CZ:4794, V-A:ILE:538:CB:4862, V-A:LEU:363:CD1:3188, V-A:LEU:363:CA:3184, V-A:LEU:363:CB:3186"]

$$$$
2k_Grossjean_2025
     RDKit          3D

 50 50  0  0  0  0  0  0  0  0999 V2000
  125.4180  121.9700   55.7770 C   0  0  0  0  0  0  0  0  0  0  0  0
  126.5620  121.6280   56.5440 O   0  0  0  0  0  0  0  0  0  0  0  0
  127.1040  122.7220   57.2720 C   0  0  0  0  0  0  0  0  0  0  0  0
  125.9730  123.6520   57.7290 C   0  0  0  0  0  0  0  0  0  0  0  0
  126.4490  124.9900   57.7390 O   0  0  0  0  0  0  0  0  0  0  0  0
  126.9970  125.4050   58.9850 C   0  0  0  0  0  0  0  0  0  0  0  0
  127.1740  126.9290   58.9520 C   0  0  0  0  0  0  0  0  0  0  0  0
  128.5620  127.2030   58.8360 O   0  0  0  0  0  0  0  0  0  0  0  0
  129.2210  127.5110   60.0550 C   0  0  0  0  0  0  0  0  0  0  0  0
  129.3620  129.0400   60.1740 C   0  0  0  0  0  0  0  0  0  0  0  0
  130.7380  129.5040   59.9800 N   0  0  0  0  0  0  0  0  0  0  0  0
  131.1880  130.7480   60.2330 C   0  0  0  0  0  0  0  0  0  0  0  0
  130.4780  131.6450   60.6930 O   0  0  0  0  0  0  0  0  0  0  0  0
  132.6620  131.0060   59.8900 C   0  0  0  0  0  0  0  0  0  0  0  0
  133.1270  130.6960   58.1510 S   0  0  0  0  0  0  0  0  0  0  0  0
  131.8700  129.6930   57.3700 C   0  0  0  0  0  0  0  0  0  0  0  0
  131.9780  128.3540   57.5690 N   0  0  0  0  0  0  0  0  0  0  0  0
  131.0640  127.5340   57.0040 C   0  0  0  0  0  0  0  0  0  0  0  0
  131.2590  126.0530   57.2620 C   0  0  0  0  0  0  0  0  0  0  0  0
  130.0050  128.0070   56.2330 C   0  0  0  0  0  0  0  0  0  0  0  0
  129.8690  129.3880   56.0210 C   0  0  0  0  0  0  0  0  0  0  0  0
  128.6890  129.8950   55.1700 C   0  0  0  0  0  0  0  0  0  0  0  0
  129.0820  130.6090   54.1150 F   0  0  0  0  0  0  0  0  0  0  0  0
  127.9790  128.8620   54.7130 F   0  0  0  0  0  0  0  0  0  0  0  0
  127.8950  130.6720   55.9070 F   0  0  0  0  0  0  0  0  0  0  0  0
  130.8260  130.2590   56.6020 C   0  0  0  0  0  0  0  0  0  0  0  0
  130.7350  131.7100   56.4100 C   0  0  0  0  0  0  0  0  0  0  0  0
  130.6620  132.8560   56.2580 N   0  0  0  0  0  0  0  0  0  0  0  0
  124.5854  122.2189   56.4514 H   0  0  0  0  0  0  0  0  0  0  0  0
  125.6482  122.8386   55.1425 H   0  0  0  0  0  0  0  0  0  0  0  0
  125.1337  121.1176   55.1425 H   0  0  0  0  0  0  0  0  0  0  0  0
  127.6439  122.3434   58.1524 H   0  0  0  0  0  0  0  0  0  0  0  0
  127.7962  123.2816   56.6257 H   0  0  0  0  0  0  0  0  0  0  0  0
  125.1236  123.5681   57.0351 H   0  0  0  0  0  0  0  0  0  0  0  0
  125.6438  123.3675   58.7393 H   0  0  0  0  0  0  0  0  0  0  0  0
  126.3145  125.1277   59.8019 H   0  0  0  0  0  0  0  0  0  0  0  0
  127.9674  124.9151   59.1534 H   0  0  0  0  0  0  0  0  0  0  0  0
  126.6364  127.3494   58.0893 H   0  0  0  0  0  0  0  0  0  0  0  0
  126.7685  127.3825   59.8684 H   0  0  0  0  0  0  0  0  0  0  0  0
  128.6311  127.1278   60.9006 H   0  0  0  0  0  0  0  0  0  0  0  0
  130.2164  127.0430   60.0689 H   0  0  0  0  0  0  0  0  0  0  0  0
  128.7224  129.5114   59.4133 H   0  0  0  0  0  0  0  0  0  0  0  0
  129.0606  129.3202   61.1941 H   0  0  0  0  0  0  0  0  0  0  0  0
  131.3900  128.8240   59.6180 H   0  0  0  0  0  0  0  0  0  0  0  0
  132.8844  132.0588   60.1184 H   0  0  0  0  0  0  0  0  0  0  0  0
  133.2429  130.2912   60.4913 H   0  0  0  0  0  0  0  0  0  0  0  0
  131.2831  125.8698   58.3464 H   0  0  0  0  0  0  0  0  0  0  0  0
  130.4272  125.4900   56.8134 H   0  0  0  0  0  0  0  0  0  0  0  0
  132.2081  125.7245   56.8134 H   0  0  0  0  0  0  0  0  0  0  0  0
  129.2814  127.3045   55.7939 H   0  0  0  0  0  0  0  0  0  0  0  0
  1  2  1  0
  2  3  1  0
  3  4  1  0
  4  5  1  0
  5  6  1  0
  6  7  1  0
  7  8  1  0
  8  9  1  0
  9 10  1  0
 10 11  1  0
 11 12  1  0
 12 13  2  0
 12 14  1  0
 14 15  1  0
 15 16  1  0
 16 17  2  0
 17 18  1  0
 18 19  1  0
 18 20  2  0
 20 21  1  0
 21 22  1  0
 22 23  1  0
 22 24  1  0
 22 25  1  0
 21 26  2  0
 26 27  1  0
 27 28  3  0
 26 16  1  0
  1 29  1  0
  1 30  1  0
  1 31  1  0
  3 32  1  0
  3 33  1  0
  4 34  1  0
  4 35  1  0
  6 36  1  0
  6 37  1  0
  7 38  1  0
  7 39  1  0
  9 40  1  0
  9 41  1  0
 10 42  1  0
 10 43  1  0
 11 44  1  0
 14 45  1  0
 14 46  1  0
 19 47  1  0
 19 48  1  0
 19 49  1  0
 20 50  1  0
M  END
>  <Binding energies>  (1) 
[-6.03]

>  <Ligand effiencies>  (1) 
[-0.20793103448275863]

>  <Interactions>  (1) 
["H-B:TYR:531:OH:9767, V-B:MET:535:CE:9807, V-B:PRO:540:N:9856, V-B:PRO:540:CA:9855, H-B:TYR:539:N:9842, V-B:TYR:539:C:9839, V-B:TYR:531:CZ:9766, V-B:LEU:363:CD1:8160, V-A:ASP:366:CG:3212, V-B:PRO:540:CD:9859, V-A:PRO:540:CA:4883, H-A:TYR:531:OH:4795, H-A:TYR:539:N:4870, V-A:TYR:539:CZ:4877, V-A:PRO:540:CB:4885, V-A:TYR:539:CE1:4875, V-B:TYR:531:CE1:9764, H-A:ASP:366:OD2:3214, H-A:ALA:541:N:4891, V-B:ILE:538:CA:9832, V-B:ILE:538:CG2:9835"]

$$$$
3aa_Grossjean_2025
     RDKit          3D

 52 54  0  0  0  0  0  0  0  0999 V2000
  130.4420  131.8350   55.1450 C   0  0  0  0  0  0  0  0  0  0  0  0
  129.8590  131.0180   53.9870 C   0  0  0  0  0  0  0  0  0  0  0  0
  128.4380  131.0490   54.0540 O   0  0  0  0  0  0  0  0  0  0  0  0
  127.7360  129.9740   54.4950 C   0  0  0  0  0  0  0  0  0  0  0  0
  126.5090  129.8760   54.3970 O   0  0  0  0  0  0  0  0  0  0  0  0
  128.5990  128.9210   55.1310 C   0  0  0  0  0  0  0  0  0  0  0  0
  129.0290  127.7880   54.4250 C   0  0  0  0  0  0  0  0  0  0  0  0
  129.8330  126.8330   55.0430 C   0  0  0  0  0  0  0  0  0  0  0  0
  130.2260  126.9940   56.3730 C   0  0  0  0  0  0  0  0  0  0  0  0
  131.0410  125.9730   56.9010 N   0  0  0  0  0  0  0  0  0  0  0  0
  132.2970  125.6090   56.5590 C   0  0  0  0  0  0  0  0  0  0  0  0
  132.9690  126.1220   55.6640 O   0  0  0  0  0  0  0  0  0  0  0  0
  132.8910  124.4540   57.3650 C   0  0  0  0  0  0  0  0  0  0  0  0
  132.5560  124.6290   59.1430 S   0  0  0  0  0  0  0  0  0  0  0  0
  131.3200  123.4200   59.5620 C   0  0  0  0  0  0  0  0  0  0  0  0
  130.1380  123.6100   58.9270 N   0  0  0  0  0  0  0  0  0  0  0  0
  129.1060  122.7580   59.1580 C   0  0  0  0  0  0  0  0  0  0  0  0
  127.8360  123.0260   58.4080 C   0  0  0  0  0  0  0  0  0  0  0  0
  127.3920  122.1370   57.4160 C   0  0  0  0  0  0  0  0  0  0  0  0
  126.2130  122.3790   56.7140 C   0  0  0  0  0  0  0  0  0  0  0  0
  125.4620  123.5150   56.9970 C   0  0  0  0  0  0  0  0  0  0  0  0
  125.8800  124.4090   57.9770 C   0  0  0  0  0  0  0  0  0  0  0  0
  127.0570  124.1640   58.6780 C   0  0  0  0  0  0  0  0  0  0  0  0
  129.2470  121.6800   60.0380 C   0  0  0  0  0  0  0  0  0  0  0  0
  130.4560  121.4730   60.7200 C   0  0  0  0  0  0  0  0  0  0  0  0
  130.5680  120.2810   61.6890 C   0  0  0  0  0  0  0  0  0  0  0  0
  130.6220  120.6570   62.9680 F   0  0  0  0  0  0  0  0  0  0  0  0
  129.5130  119.4780   61.5540 F   0  0  0  0  0  0  0  0  0  0  0  0
  131.6760  119.5860   61.4270 F   0  0  0  0  0  0  0  0  0  0  0  0
  131.5240  122.3740   60.4880 C   0  0  0  0  0  0  0  0  0  0  0  0
  132.7900  122.2410   61.2160 C   0  0  0  0  0  0  0  0  0  0  0  0
  133.7890  122.1370   61.7910 N   0  0  0  0  0  0  0  0  0  0  0  0
  129.7880  128.1180   57.0890 C   0  0  0  0  0  0  0  0  0  0  0  0
  128.9840  129.0700   56.4700 C   0  0  0  0  0  0  0  0  0  0  0  0
  130.1263  131.3926   56.1013 H   0  0  0  0  0  0  0  0  0  0  0  0
  131.5402  131.8278   55.0825 H   0  0  0  0  0  0  0  0  0  0  0  0
  130.0780  132.8711   55.0825 H   0  0  0  0  0  0  0  0  0  0  0  0
  130.1906  131.4487   53.0307 H   0  0  0  0  0  0  0  0  0  0  0  0
  130.2073  129.9772   54.0602 H   0  0  0  0  0  0  0  0  0  0  0  0
  128.7291  127.6525   53.3754 H   0  0  0  0  0  0  0  0  0  0  0  0
  130.1603  125.9466   54.4797 H   0  0  0  0  0  0  0  0  0  0  0  0
  130.5910  125.4080   57.6070 H   0  0  0  0  0  0  0  0  0  0  0  0
  132.4514  123.5098   57.0111 H   0  0  0  0  0  0  0  0  0  0  0  0
  133.9814  124.4613   57.2202 H   0  0  0  0  0  0  0  0  0  0  0  0
  127.9830  121.2372   57.1900 H   0  0  0  0  0  0  0  0  0  0  0  0
  125.8774  121.6743   55.9389 H   0  0  0  0  0  0  0  0  0  0  0  0
  124.5318  123.7075   56.4423 H   0  0  0  0  0  0  0  0  0  0  0  0
  125.2827  125.3061   58.1971 H   0  0  0  0  0  0  0  0  0  0  0  0
  127.3823  124.8716   59.4549 H   0  0  0  0  0  0  0  0  0  0  0  0
  128.4050  120.9901   60.1965 H   0  0  0  0  0  0  0  0  0  0  0  0
  130.0806  128.2469   58.1415 H   0  0  0  0  0  0  0  0  0  0  0  0
  128.6468  129.9495   57.0382 H   0  0  0  0  0  0  0  0  0  0  0  0
  1  2  1  0
  2  3  1  0
  3  4  1  0
  4  5  2  0
  4  6  1  0
  6  7  2  0
  7  8  1  0
  8  9  2  0
  9 10  1  0
 10 11  1  0
 11 12  2  0
 11 13  1  0
 13 14  1  0
 14 15  1  0
 15 16  2  0
 16 17  1  0
 17 18  1  0
 18 19  2  0
 19 20  1  0
 20 21  2  0
 21 22  1  0
 22 23  2  0
 17 24  2  0
 24 25  1  0
 25 26  1  0
 26 27  1  0
 26 28  1  0
 26 29  1  0
 25 30  2  0
 30 31  1  0
 31 32  3  0
  9 33  1  0
 33 34  2  0
 34  6  1  0
 30 15  1  0
 23 18  1  0
  1 35  1  0
  1 36  1  0
  1 37  1  0
  2 38  1  0
  2 39  1  0
  7 40  1  0
  8 41  1  0
 10 42  1  0
 13 43  1  0
 13 44  1  0
 19 45  1  0
 20 46  1  0
 21 47  1  0
 22 48  1  0
 23 49  1  0
 24 50  1  0
 33 51  1  0
 34 52  1  0
M  END
>  <Binding energies>  (1) 
[-8.82]

>  <Ligand effiencies>  (1) 
[-0.252]

>  <Interactions>  (1) 
["V-B:PRO:540:CB:9857, H-B:TYR:531:OH:9767, V-B:MET:535:CE:9807, V-B:TYR:539:CD2:9846, V-B:PRO:540:N:9856, V-A:LEU:475:CD1:4257, V-B:PRO:540:CA:9855, V-B:PRO:540:C:9853, V-B:ALA:541:CB:9864, V-B:TYR:539:CE2:9848, V-B:TYR:539:C:9839, V-B:TYR:531:CE2:9765, V-A:PRO:482:CG:4326, V-B:LEU:363:CD1:8160, V-B:TYR:539:CA:9841, V-B:PRO:540:CD:9859, V-A:ILE:538:CA:4860, V-A:ASP:366:CA:3209, V-A:ASP:366:CB:3211, V-A:ILE:538:CG2:4863, V-A:ASP:366:C:3207, H-B:TYR:539:OH:9850, H-A:TYR:531:OH:4795, V-A:ILE:538:CB:4862, V-B:TYR:531:CE1:9764, H-B:LYS:534:NZ:9795, V-B:TYR:539:CZ:9849, H-A:TYR:539:OH:4878, V-B:LYS:534:CE:9794, V-B:ALA:541:CA:9862"]

$$$$
3ab_Grossjean_2025
     RDKit          3D

 49 51  0  0  0  0  0  0  0  0999 V2000
  128.8930  131.2610   54.3970 C   0  0  0  0  0  0  0  0  0  0  0  0
  127.6900  130.5190   54.2530 O   0  0  0  0  0  0  0  0  0  0  0  0
  127.2010  129.7760   55.2790 C   0  0  0  0  0  0  0  0  0  0  0  0
  126.0450  129.8740   55.7000 O   0  0  0  0  0  0  0  0  0  0  0  0
  128.2070  128.8190   55.8500 C   0  0  0  0  0  0  0  0  0  0  0  0
  128.5530  128.8280   57.2100 C   0  0  0  0  0  0  0  0  0  0  0  0
  129.4880  127.9270   57.7120 C   0  0  0  0  0  0  0  0  0  0  0  0
  130.0990  126.9970   56.8570 C   0  0  0  0  0  0  0  0  0  0  0  0
  131.0510  126.0390   57.2550 N   0  0  0  0  0  0  0  0  0  0  0  0
  132.1330  125.5680   56.6000 C   0  0  0  0  0  0  0  0  0  0  0  0
  132.4870  125.9030   55.4700 O   0  0  0  0  0  0  0  0  0  0  0  0
  132.9590  124.5290   57.3610 C   0  0  0  0  0  0  0  0  0  0  0  0
  132.6920  124.6230   59.1570 S   0  0  0  0  0  0  0  0  0  0  0  0
  131.4230  123.4440   59.5710 C   0  0  0  0  0  0  0  0  0  0  0  0
  130.2390  123.6870   58.9610 N   0  0  0  0  0  0  0  0  0  0  0  0
  129.1820  122.8630   59.1830 C   0  0  0  0  0  0  0  0  0  0  0  0
  127.9070  123.2000   58.4680 C   0  0  0  0  0  0  0  0  0  0  0  0
  127.1860  124.3590   58.7940 C   0  0  0  0  0  0  0  0  0  0  0  0
  126.0020  124.6770   58.1330 C   0  0  0  0  0  0  0  0  0  0  0  0
  125.5220  123.8360   57.1340 C   0  0  0  0  0  0  0  0  0  0  0  0
  126.2150  122.6800   56.7940 C   0  0  0  0  0  0  0  0  0  0  0  0
  127.3980  122.3660   57.4580 C   0  0  0  0  0  0  0  0  0  0  0  0
  129.2950  121.7730   60.0530 C   0  0  0  0  0  0  0  0  0  0  0  0
  130.5060  121.5110   60.7110 C   0  0  0  0  0  0  0  0  0  0  0  0
  130.5870  120.3040   61.6650 C   0  0  0  0  0  0  0  0  0  0  0  0
  131.6690  119.5510   61.4560 F   0  0  0  0  0  0  0  0  0  0  0  0
  130.6290  120.7200   62.9310 F   0  0  0  0  0  0  0  0  0  0  0  0
  129.5170  119.5240   61.5030 F   0  0  0  0  0  0  0  0  0  0  0  0
  131.6050  122.3730   60.4740 C   0  0  0  0  0  0  0  0  0  0  0  0
  132.8750  122.1790   61.1790 C   0  0  0  0  0  0  0  0  0  0  0  0
  133.8770  122.0230   61.7370 N   0  0  0  0  0  0  0  0  0  0  0  0
  129.7530  126.9820   55.5050 C   0  0  0  0  0  0  0  0  0  0  0  0
  128.8190  127.8840   55.0050 C   0  0  0  0  0  0  0  0  0  0  0  0
  129.1140  131.3973   55.4659 H   0  0  0  0  0  0  0  0  0  0  0  0
  129.7197  130.7157   53.9183 H   0  0  0  0  0  0  0  0  0  0  0  0
  128.7767  132.2445   53.9183 H   0  0  0  0  0  0  0  0  0  0  0  0
  128.0802  129.5550   57.8868 H   0  0  0  0  0  0  0  0  0  0  0  0
  129.7483  127.9441   58.7806 H   0  0  0  0  0  0  0  0  0  0  0  0
  130.8640  125.6270   58.1580 H   0  0  0  0  0  0  0  0  0  0  0  0
  132.6743  123.5253   57.0124 H   0  0  0  0  0  0  0  0  0  0  0  0
  134.0221  124.7333   57.1660 H   0  0  0  0  0  0  0  0  0  0  0  0
  127.5616  125.0265   59.5836 H   0  0  0  0  0  0  0  0  0  0  0  0
  125.4486  125.5895   58.3997 H   0  0  0  0  0  0  0  0  0  0  0  0
  124.5882  124.0875   56.6099 H   0  0  0  0  0  0  0  0  0  0  0  0
  125.8310  122.0169   56.0048 H   0  0  0  0  0  0  0  0  0  0  0  0
  127.9432  121.4498   57.1874 H   0  0  0  0  0  0  0  0  0  0  0  0
  128.4284  121.1170   60.2222 H   0  0  0  0  0  0  0  0  0  0  0  0
  130.2223  126.2515   54.8296 H   0  0  0  0  0  0  0  0  0  0  0  0
  128.5587  127.8628   53.9364 H   0  0  0  0  0  0  0  0  0  0  0  0
  1  2  1  0
  2  3  1  0
  3  4  2  0
  3  5  1  0
  5  6  2  0
  6  7  1  0
  7  8  2  0
  8  9  1  0
  9 10  1  0
 10 11  2  0
 10 12  1  0
 12 13  1  0
 13 14  1  0
 14 15  2  0
 15 16  1  0
 16 17  1  0
 17 18  2  0
 18 19  1  0
 19 20  2  0
 20 21  1  0
 21 22  2  0
 16 23  2  0
 23 24  1  0
 24 25  1  0
 25 26  1  0
 25 27  1  0
 25 28  1  0
 24 29  2  0
 29 30  1  0
 30 31  3  0
  8 32  1  0
 32 33  2  0
 33  5  1  0
 29 14  1  0
 22 17  1  0
  1 34  1  0
  1 35  1  0
  1 36  1  0
  6 37  1  0
  7 38  1  0
  9 39  1  0
 12 40  1  0
 12 41  1  0
 18 42  1  0
 19 43  1  0
 20 44  1  0
 21 45  1  0
 22 46  1  0
 23 47  1  0
 32 48  1  0
 33 49  1  0
M  END
>  <Binding energies>  (1) 
[-7.87]

>  <Ligand effiencies>  (1) 
[-0.23147058823529412]

>  <Interactions>  (1) 
["H-B:TYR:531:OH:9767, V-B:MET:535:CE:9807, V-B:TYR:539:CD2:9846, V-B:PRO:540:N:9856, V-A:LEU:475:CD1:4257, V-B:PRO:540:CA:9855, V-B:PRO:540:C:9853, V-B:ALA:541:CB:9864, V-B:TYR:539:CE2:9848, V-B:TYR:539:C:9839, V-B:TYR:531:CE2:9765, V-A:PRO:482:CG:4326, V-B:TYR:531:CZ:9766, V-B:LEU:363:CD1:8160, V-A:ASP:366:CA:3209, V-A:ASP:366:CB:3211, V-A:ASP:366:C:3207, H-B:TYR:539:OH:9850, H-A:TYR:531:OH:4795, V-A:TYR:539:CZ:4877, V-B:TYR:531:CE1:9764, H-B:LYS:534:NZ:9795, V-B:TYR:539:CZ:9849, H-A:TYR:539:OH:4878, V-B:ALA:541:CA:9862"]

$$$$
3ac_Grossjean_2025
     RDKit          3D

 47 49  0  0  0  0  0  0  0  0999 V2000
  133.2420  131.3270   61.6990 C   0  0  0  0  0  0  0  0  0  0  0  0
  133.7600  130.9560   60.4250 O   0  0  0  0  0  0  0  0  0  0  0  0
  132.9180  130.9500   59.3300 C   0  0  0  0  0  0  0  0  0  0  0  0
  133.4910  130.6040   58.1060 C   0  0  0  0  0  0  0  0  0  0  0  0
  132.7200  130.5670   56.9480 C   0  0  0  0  0  0  0  0  0  0  0  0
  131.3620  130.8850   56.9960 C   0  0  0  0  0  0  0  0  0  0  0  0
  130.6620  130.7990   55.7780 N   0  0  0  0  0  0  0  0  0  0  0  0
  129.6590  131.5770   55.3160 C   0  0  0  0  0  0  0  0  0  0  0  0
  129.1990  132.5630   55.8930 O   0  0  0  0  0  0  0  0  0  0  0  0
  129.0790  131.1680   53.9610 C   0  0  0  0  0  0  0  0  0  0  0  0
  129.0230  129.3620   53.7530 S   0  0  0  0  0  0  0  0  0  0  0  0
  128.6700  128.6150   55.3330 C   0  0  0  0  0  0  0  0  0  0  0  0
  127.8090  129.3410   56.0860 N   0  0  0  0  0  0  0  0  0  0  0  0
  127.4410  128.8940   57.3140 C   0  0  0  0  0  0  0  0  0  0  0  0
  126.4900  129.7610   58.0850 C   0  0  0  0  0  0  0  0  0  0  0  0
  125.1270  129.8090   57.7470 C   0  0  0  0  0  0  0  0  0  0  0  0
  124.2380  130.6070   58.4620 C   0  0  0  0  0  0  0  0  0  0  0  0
  124.7020  131.3720   59.5280 C   0  0  0  0  0  0  0  0  0  0  0  0
  126.0470  131.3470   59.8800 C   0  0  0  0  0  0  0  0  0  0  0  0
  126.9320  130.5470   59.1620 C   0  0  0  0  0  0  0  0  0  0  0  0
  127.9540  127.6980   57.8240 C   0  0  0  0  0  0  0  0  0  0  0  0
  128.8640  126.9380   57.0750 C   0  0  0  0  0  0  0  0  0  0  0  0
  129.4090  125.6290   57.6780 C   0  0  0  0  0  0  0  0  0  0  0  0
  129.1200  124.5570   56.9360 F   0  0  0  0  0  0  0  0  0  0  0  0
  130.7380  125.6880   57.7870 F   0  0  0  0  0  0  0  0  0  0  0  0
  128.8840  125.4350   58.8890 F   0  0  0  0  0  0  0  0  0  0  0  0
  129.2500  127.4110   55.7960 C   0  0  0  0  0  0  0  0  0  0  0  0
  130.2560  126.6930   55.0100 C   0  0  0  0  0  0  0  0  0  0  0  0
  131.0520  126.1260   54.3900 N   0  0  0  0  0  0  0  0  0  0  0  0
  130.7760  131.2270   58.2250 C   0  0  0  0  0  0  0  0  0  0  0  0
  131.5500  131.2630   59.3810 C   0  0  0  0  0  0  0  0  0  0  0  0
  133.8628  130.8824   62.4908 H   0  0  0  0  0  0  0  0  0  0  0  0
  133.2546  132.4227   61.7950 H   0  0  0  0  0  0  0  0  0  0  0  0
  132.2086  130.9624   61.7950 H   0  0  0  0  0  0  0  0  0  0  0  0
  134.5620  130.3582   58.0557 H   0  0  0  0  0  0  0  0  0  0  0  0
  133.1830  130.2859   55.9906 H   0  0  0  0  0  0  0  0  0  0  0  0
  130.9980  130.0820   55.1530 H   0  0  0  0  0  0  0  0  0  0  0  0
  128.0567  131.5657   53.8789 H   0  0  0  0  0  0  0  0  0  0  0  0
  129.7327  131.5776   53.1769 H   0  0  0  0  0  0  0  0  0  0  0  0
  124.7566  129.2067   56.9044 H   0  0  0  0  0  0  0  0  0  0  0  0
  123.1736  130.6327   58.1856 H   0  0  0  0  0  0  0  0  0  0  0  0
  124.0002  132.0005   60.0958 H   0  0  0  0  0  0  0  0  0  0  0  0
  126.4099  131.9559   60.7211 H   0  0  0  0  0  0  0  0  0  0  0  0
  127.9954  130.5302   59.4430 H   0  0  0  0  0  0  0  0  0  0  0  0
  127.6417  127.3505   58.8198 H   0  0  0  0  0  0  0  0  0  0  0  0
  129.7036  131.4668   58.2743 H   0  0  0  0  0  0  0  0  0  0  0  0
  131.0875  131.5383   60.3403 H   0  0  0  0  0  0  0  0  0  0  0  0
  1  2  1  0
  2  3  1  0
  3  4  2  0
  4  5  1  0
  5  6  2  0
  6  7  1  0
  7  8  1  0
  8  9  2  0
  8 10  1  0
 10 11  1  0
 11 12  1  0
 12 13  2  0
 13 14  1  0
 14 15  1  0
 15 16  2  0
 16 17  1  0
 17 18  2  0
 18 19  1  0
 19 20  2  0
 14 21  2  0
 21 22  1  0
 22 23  1  0
 23 24  1  0
 23 25  1  0
 23 26  1  0
 22 27  2  0
 27 28  1  0
 28 29  3  0
  6 30  1  0
 30 31  2  0
 31  3  1  0
 27 12  1  0
 20 15  1  0
  1 32  1  0
  1 33  1  0
  1 34  1  0
  4 35  1  0
  5 36  1  0
  7 37  1  0
 10 38  1  0
 10 39  1  0
 16 40  1  0
 17 41  1  0
 18 42  1  0
 19 43  1  0
 20 44  1  0
 21 45  1  0
 30 46  1  0
 31 47  1  0
M  END
>  <Binding energies>  (1) 
[-8.36]

>  <Ligand effiencies>  (1) 
[-0.26125]

>  <Interactions>  (1) 
["H-B:TYR:531:OH:9767, V-B:MET:535:CE:9807, V-A:ASP:366:CG:3212, V-A:PRO:540:N:4884, V-A:ILE:538:CA:4860, V-A:ASP:366:CB:3211, V-A:ILE:538:CG2:4863, H-B:TYR:539:OH:9850, V-A:TYR:539:CD1:4873, V-A:PRO:540:CA:4883, H-A:TYR:531:OH:4795, H-A:TYR:539:N:4870, V-A:TYR:539:CZ:4877, V-A:PRO:540:CB:4885, V-A:TYR:539:CE1:4875, V-A:TYR:531:CZ:4794, V-B:ASP:366:CB:8183, V-B:ASP:366:CA:8181, V-A:LEU:363:CD1:3188, V-B:ASP:366:C:8179, V-B:TYR:539:CZ:9849, V-B:LYS:534:CE:9794, V-A:LEU:363:CA:3184, V-A:LEU:363:CB:3186, V-B:ILE:369:CG2:8208, V-A:ASN:362:CB:3175, H-A:LEU:363:N:3185"]

$$$$
3ad_Grossjean_2025
     RDKit          3D

 43 45  0  0  0  0  0  0  0  0999 V2000
  130.5680  126.7070   53.9840 N   0  0  0  0  0  0  0  0  0  0  0  0
  129.8760  127.2440   54.7400 C   0  0  0  0  0  0  0  0  0  0  0  0
  128.9990  127.9220   55.7000 C   0  0  0  0  0  0  0  0  0  0  0  0
  128.6940  127.3250   56.9470 C   0  0  0  0  0  0  0  0  0  0  0  0
  129.2850  125.9730   57.3900 C   0  0  0  0  0  0  0  0  0  0  0  0
  130.6170  125.9420   57.3210 F   0  0  0  0  0  0  0  0  0  0  0  0
  128.9420  125.7190   58.6550 F   0  0  0  0  0  0  0  0  0  0  0  0
  128.8220  124.9930   56.6120 F   0  0  0  0  0  0  0  0  0  0  0  0
  127.8120  127.9930   57.8110 C   0  0  0  0  0  0  0  0  0  0  0  0
  127.2500  129.2190   57.4400 C   0  0  0  0  0  0  0  0  0  0  0  0
  126.2920  129.9670   58.3180 C   0  0  0  0  0  0  0  0  0  0  0  0
  126.7570  130.7300   59.4010 C   0  0  0  0  0  0  0  0  0  0  0  0
  125.8730  131.4270   60.2190 C   0  0  0  0  0  0  0  0  0  0  0  0
  124.5060  131.3720   59.9630 C   0  0  0  0  0  0  0  0  0  0  0  0
  124.0200  130.6270   58.8950 C   0  0  0  0  0  0  0  0  0  0  0  0
  124.9080  129.9310   58.0780 C   0  0  0  0  0  0  0  0  0  0  0  0
  127.5420  129.7830   56.2410 N   0  0  0  0  0  0  0  0  0  0  0  0
  128.4050  129.1680   55.3990 C   0  0  0  0  0  0  0  0  0  0  0  0
  128.6790  130.0560   53.8820 S   0  0  0  0  0  0  0  0  0  0  0  0
  130.2290  130.9860   54.0730 C   0  0  0  0  0  0  0  0  0  0  0  0
  130.4480  131.4550   55.5130 C   0  0  0  0  0  0  0  0  0  0  0  0
  129.8960  132.4860   55.8970 O   0  0  0  0  0  0  0  0  0  0  0  0
  131.2550  130.6720   56.2610 N   0  0  0  0  0  0  0  0  0  0  0  0
  131.6480  130.8070   57.6060 C   0  0  0  0  0  0  0  0  0  0  0  0
  130.6070  130.9350   58.5300 C   0  0  0  0  0  0  0  0  0  0  0  0
  130.8850  131.0790   59.8870 C   0  0  0  0  0  0  0  0  0  0  0  0
  132.2070  131.0990   60.3220 C   0  0  0  0  0  0  0  0  0  0  0  0
  133.2530  130.9800   59.4110 C   0  0  0  0  0  0  0  0  0  0  0  0
  132.9800  130.8370   58.0530 C   0  0  0  0  0  0  0  0  0  0  0  0
  127.5613  127.5495   58.7859 H   0  0  0  0  0  0  0  0  0  0  0  0
  127.8367  130.7775   59.6060 H   0  0  0  0  0  0  0  0  0  0  0  0
  126.2531  132.0191   61.0646 H   0  0  0  0  0  0  0  0  0  0  0  0
  123.8061  131.9214   60.6098 H   0  0  0  0  0  0  0  0  0  0  0  0
  122.9389  130.5872   58.6958 H   0  0  0  0  0  0  0  0  0  0  0  0
  124.5199  129.3444   57.2323 H   0  0  0  0  0  0  0  0  0  0  0  0
  131.0688  130.3390   53.7796 H   0  0  0  0  0  0  0  0  0  0  0  0
  130.1685  131.8784   53.4327 H   0  0  0  0  0  0  0  0  0  0  0  0
  131.6770  129.8880   55.7860 H   0  0  0  0  0  0  0  0  0  0  0  0
  129.5631  130.9219   58.1836 H   0  0  0  0  0  0  0  0  0  0  0  0
  130.0634  131.1765   60.6119 H   0  0  0  0  0  0  0  0  0  0  0  0
  132.4271  131.2097   61.3941 H   0  0  0  0  0  0  0  0  0  0  0  0
  134.2947  130.9989   59.7638 H   0  0  0  0  0  0  0  0  0  0  0  0
  133.8055  130.7477   57.3315 H   0  0  0  0  0  0  0  0  0  0  0  0
  1  2  3  0
  2  3  1  0
  3  4  2  0
  4  5  1  0
  5  6  1  0
  5  7  1  0
  5  8  1  0
  4  9  1  0
  9 10  2  0
 10 11  1  0
 11 12  2  0
 12 13  1  0
 13 14  2  0
 14 15  1  0
 15 16  2  0
 10 17  1  0
 17 18  2  0
 18 19  1  0
 19 20  1  0
 20 21  1  0
 21 22  2  0
 21 23  1  0
 23 24  1  0
 24 25  2  0
 25 26  1  0
 26 27  2  0
 27 28  1  0
 28 29  2  0
 18  3  1  0
 29 24  1  0
 16 11  1  0
  9 30  1  0
 12 31  1  0
 13 32  1  0
 14 33  1  0
 15 34  1  0
 16 35  1  0
 20 36  1  0
 20 37  1  0
 23 38  1  0
 25 39  1  0
 26 40  1  0
 27 41  1  0
 28 42  1  0
 29 43  1  0
M  END
>  <Binding energies>  (1) 
[-8.2]

>  <Ligand effiencies>  (1) 
[-0.2733333333333333]

>  <Interactions>  (1) 
["H-B:TYR:531:OH:9767, V-B:MET:535:CE:9807, V-A:ASP:366:CG:3212, V-A:ILE:538:CG2:4863, V-A:PRO:540:CA:4883, H-A:TYR:531:OH:4795, H-A:TYR:539:N:4870, V-A:PRO:540:CB:4885, V-A:TYR:539:CE1:4875, V-A:TYR:531:CZ:4794, V-A:ILE:538:CB:4862, V-B:ASP:366:CG:8184, H-B:LYS:534:NZ:9795, V-B:ASP:366:CB:8183, V-B:ASP:366:CA:8181, V-A:LEU:363:CD1:3188, V-B:ASP:366:C:8179, V-A:LEU:363:CA:3184, V-B:ILE:369:CG2:8208, V-B:ILE:369:CB:8207"]

$$$$
3af_Grossjean_2025
     RDKit          3D

 42 44  0  0  0  0  0  0  0  0999 V2000
  126.7010  130.1180   54.3590 N   0  0  0  0  0  0  0  0  0  0  0  0
  127.4970  130.3160   55.1750 C   0  0  0  0  0  0  0  0  0  0  0  0
  128.5070  130.5670   56.2070 C   0  0  0  0  0  0  0  0  0  0  0  0
  129.8140  130.9810   55.8530 C   0  0  0  0  0  0  0  0  0  0  0  0
  130.2390  131.2390   54.3930 C   0  0  0  0  0  0  0  0  0  0  0  0
  131.5150  131.6160   54.2840 F   0  0  0  0  0  0  0  0  0  0  0  0
  130.0850  130.1280   53.6720 F   0  0  0  0  0  0  0  0  0  0  0  0
  129.4920  132.2080   53.8630 F   0  0  0  0  0  0  0  0  0  0  0  0
  130.7620  131.1560   56.8730 C   0  0  0  0  0  0  0  0  0  0  0  0
  130.4150  130.9220   58.2070 C   0  0  0  0  0  0  0  0  0  0  0  0
  131.3930  131.0750   59.3340 C   0  0  0  0  0  0  0  0  0  0  0  0
  132.7680  130.8870   59.1210 C   0  0  0  0  0  0  0  0  0  0  0  0
  133.6810  131.0300   60.1630 C   0  0  0  0  0  0  0  0  0  0  0  0
  133.2290  131.3640   61.4350 C   0  0  0  0  0  0  0  0  0  0  0  0
  131.8720  131.5590   61.6720 C   0  0  0  0  0  0  0  0  0  0  0  0
  130.9630  131.4160   60.6270 C   0  0  0  0  0  0  0  0  0  0  0  0
  129.1620  130.5210   58.5420 N   0  0  0  0  0  0  0  0  0  0  0  0
  128.2230  130.3680   57.5770 C   0  0  0  0  0  0  0  0  0  0  0  0
  126.6390  129.8530   58.2090 S   0  0  0  0  0  0  0  0  0  0  0  0
  126.5160  128.0490   58.0170 C   0  0  0  0  0  0  0  0  0  0  0  0
  127.8910  127.3820   58.0180 C   0  0  0  0  0  0  0  0  0  0  0  0
  128.3560  126.9680   59.0790 O   0  0  0  0  0  0  0  0  0  0  0  0
  128.5000  127.3100   56.8140 N   0  0  0  0  0  0  0  0  0  0  0  0
  129.7560  126.7730   56.4730 C   0  0  0  0  0  0  0  0  0  0  0  0
  130.7720  126.4210   57.3810 C   0  0  0  0  0  0  0  0  0  0  0  0
  131.9760  125.8980   56.9020 C   0  0  0  0  0  0  0  0  0  0  0  0
  132.1350  125.7400   55.5250 C   0  0  0  0  0  0  0  0  0  0  0  0
  131.1720  126.0710   54.6300 N   0  0  0  0  0  0  0  0  0  0  0  0
  130.0080  126.5780   55.1110 C   0  0  0  0  0  0  0  0  0  0  0  0
  131.7831  131.4789   56.6216 H   0  0  0  0  0  0  0  0  0  0  0  0
  133.1295  130.6229   58.1162 H   0  0  0  0  0  0  0  0  0  0  0  0
  134.7553  130.8794   59.9805 H   0  0  0  0  0  0  0  0  0  0  0  0
  133.9491  131.4747   62.2592 H   0  0  0  0  0  0  0  0  0  0  0  0
  131.5191  131.8247   62.6794 H   0  0  0  0  0  0  0  0  0  0  0  0
  129.8909  131.5726   60.8171 H   0  0  0  0  0  0  0  0  0  0  0  0
  125.9226  127.6422   58.8491 H   0  0  0  0  0  0  0  0  0  0  0  0
  126.0361  127.8405   57.0494 H   0  0  0  0  0  0  0  0  0  0  0  0
  127.9860  127.6890   56.0330 H   0  0  0  0  0  0  0  0  0  0  0  0
  130.6192  126.5568   58.4618 H   0  0  0  0  0  0  0  0  0  0  0  0
  132.7816  125.6167   57.5962 H   0  0  0  0  0  0  0  0  0  0  0  0
  133.0834  125.3288   55.1489 H   0  0  0  0  0  0  0  0  0  0  0  0
  129.2215  126.8498   54.3916 H   0  0  0  0  0  0  0  0  0  0  0  0
  1  2  3  0
  2  3  1  0
  3  4  2  0
  4  5  1  0
  5  6  1  0
  5  7  1  0
  5  8  1  0
  4  9  1  0
  9 10  2  0
 10 11  1  0
 11 12  2  0
 12 13  1  0
 13 14  2  0
 14 15  1  0
 15 16  2  0
 10 17  1  0
 17 18  2  0
 18 19  1  0
 19 20  1  0
 20 21  1  0
 21 22  2  0
 21 23  1  0
 23 24  1  0
 24 25  2  0
 25 26  1  0
 26 27  2  0
 27 28  1  0
 28 29  2  0
 18  3  1  0
 29 24  1  0
 16 11  1  0
  9 30  1  0
 12 31  1  0
 13 32  1  0
 14 33  1  0
 15 34  1  0
 16 35  1  0
 20 36  1  0
 20 37  1  0
 23 38  1  0
 25 39  1  0
 26 40  1  0
 27 41  1  0
 29 42  1  0
M  END
>  <Binding energies>  (1) 
[-7.92]

>  <Ligand effiencies>  (1) 
[-0.264]

>  <Interactions>  (1) 
["H-B:TYR:531:OH:9767, V-B:TYR:531:CZ:9766, V-A:ASP:366:CG:3212, V-A:TYR:531:CE1:4792, V-A:ILE:538:CA:4860, V-A:MET:535:CB:4832, V-A:ASP:366:CB:3211, V-A:ILE:538:CG2:4863, V-A:ASN:370:CB:3244, H-B:TYR:539:OH:9850, V-A:PRO:540:CA:4883, H-A:TYR:531:OH:4795, V-A:TYR:539:CZ:4877, V-A:PRO:540:CB:4885, V-A:TYR:539:CE1:4875, V-A:TYR:531:CZ:4794, V-A:ILE:538:CB:4862, V-A:MET:535:CG:4833, V-B:TYR:531:CE1:9764, H-B:LYS:534:NZ:9795, V-A:PRO:540:C:4881, V-A:GLU:543:CD:4908, H-A:TYR:539:OH:4878, V-A:ILE:538:C:4858, V-A:TYR:531:CE2:4793, V-A:LEU:363:CA:3184, V-A:ASN:362:CB:3175, V-A:ASN:362:C:3171, V-A:ALA:541:CA:4890, V-A:VAL:537:C:4850"]

$$$$
3ag_Grossjean_2025
     RDKit          3D

 46 48  0  0  0  0  0  0  0  0999 V2000
  127.0050  126.2300   58.6230 N   0  0  0  0  0  0  0  0  0  0  0  0
  127.6060  125.2920   58.9390 C   0  0  0  0  0  0  0  0  0  0  0  0
  128.3620  124.1030   59.3410 C   0  0  0  0  0  0  0  0  0  0  0  0
  127.8240  123.1830   60.2730 C   0  0  0  0  0  0  0  0  0  0  0  0
  126.4110  123.3350   60.8710 C   0  0  0  0  0  0  0  0  0  0  0  0
  125.4470  123.2290   59.9540 F   0  0  0  0  0  0  0  0  0  0  0  0
  126.2020  122.3890   61.7860 F   0  0  0  0  0  0  0  0  0  0  0  0
  126.2820  124.5310   61.4480 F   0  0  0  0  0  0  0  0  0  0  0  0
  128.6090  122.0890   60.6670 C   0  0  0  0  0  0  0  0  0  0  0  0
  129.9000  121.9250   60.1540 C   0  0  0  0  0  0  0  0  0  0  0  0
  130.7830  120.7770   60.5410 C   0  0  0  0  0  0  0  0  0  0  0  0
  130.2430  119.6280   61.1410 C   0  0  0  0  0  0  0  0  0  0  0  0
  131.0570  118.5590   61.5040 C   0  0  0  0  0  0  0  0  0  0  0  0
  132.4270  118.6240   61.2700 C   0  0  0  0  0  0  0  0  0  0  0  0
  132.9880  119.7520   60.6790 C   0  0  0  0  0  0  0  0  0  0  0  0
  132.1710  120.8200   60.3200 C   0  0  0  0  0  0  0  0  0  0  0  0
  130.4080  122.8020   59.2500 N   0  0  0  0  0  0  0  0  0  0  0  0
  129.6600  123.8550   58.8410 C   0  0  0  0  0  0  0  0  0  0  0  0
  130.4840  124.8940   57.6550 S   0  0  0  0  0  0  0  0  0  0  0  0
  129.3680  125.0830   56.2330 C   0  0  0  0  0  0  0  0  0  0  0  0
  129.8600  126.1470   55.2500 C   0  0  0  0  0  0  0  0  0  0  0  0
  131.0380  126.1480   54.8850 O   0  0  0  0  0  0  0  0  0  0  0  0
  128.9470  127.0380   54.8270 N   0  0  0  0  0  0  0  0  0  0  0  0
  129.1910  128.1120   53.8640 C   0  0  0  0  0  0  0  0  0  0  0  0
  129.1590  129.5100   54.4710 C   0  0  0  0  0  0  0  0  0  0  0  0
  129.1420  130.6290   53.6340 C   0  0  0  0  0  0  0  0  0  0  0  0
  129.0820  131.9080   54.1840 C   0  0  0  0  0  0  0  0  0  0  0  0
  129.0300  132.0610   55.5680 C   0  0  0  0  0  0  0  0  0  0  0  0
  129.0310  130.9500   56.4070 C   0  0  0  0  0  0  0  0  0  0  0  0
  129.0900  129.6710   55.8580 C   0  0  0  0  0  0  0  0  0  0  0  0
  128.2073  121.3567   61.3828 H   0  0  0  0  0  0  0  0  0  0  0  0
  129.1603  119.5719   61.3269 H   0  0  0  0  0  0  0  0  0  0  0  0
  130.6189  117.6662   61.9741 H   0  0  0  0  0  0  0  0  0  0  0  0
  133.0707  117.7784   61.5540 H   0  0  0  0  0  0  0  0  0  0  0  0
  134.0717  119.7993   60.4965 H   0  0  0  0  0  0  0  0  0  0  0  0
  132.6180  121.7116   59.8562 H   0  0  0  0  0  0  0  0  0  0  0  0
  129.2984  124.1196   55.7067 H   0  0  0  0  0  0  0  0  0  0  0  0
  128.3868  125.4028   56.6138 H   0  0  0  0  0  0  0  0  0  0  0  0
  128.0010  126.9570   55.1700 H   0  0  0  0  0  0  0  0  0  0  0  0
  130.1818  127.9535   53.4132 H   0  0  0  0  0  0  0  0  0  0  0  0
  128.3769  128.0676   53.1256 H   0  0  0  0  0  0  0  0  0  0  0  0
  129.1759  130.5003   52.5421 H   0  0  0  0  0  0  0  0  0  0  0  0
  129.0757  132.7919   53.5292 H   0  0  0  0  0  0  0  0  0  0  0  0
  128.9877  133.0707   56.0024 H   0  0  0  0  0  0  0  0  0  0  0  0
  128.9854  131.0815   57.4982 H   0  0  0  0  0  0  0  0  0  0  0  0
  129.0823  128.7888   56.5151 H   0  0  0  0  0  0  0  0  0  0  0  0
  1  2  3  0
  2  3  1  0
  3  4  2  0
  4  5  1  0
  5  6  1  0
  5  7  1  0
  5  8  1  0
  4  9  1  0
  9 10  2  0
 10 11  1  0
 11 12  2  0
 12 13  1  0
 13 14  2  0
 14 15  1  0
 15 16  2  0
 10 17  1  0
 17 18  2  0
 18 19  1  0
 19 20  1  0
 20 21  1  0
 21 22  2  0
 21 23  1  0
 23 24  1  0
 24 25  1  0
 25 26  2  0
 26 27  1  0
 27 28  2  0
 28 29  1  0
 29 30  2  0
 18  3  1  0
 30 25  1  0
 16 11  1  0
  9 31  1  0
 12 32  1  0
 13 33  1  0
 14 34  1  0
 15 35  1  0
 16 36  1  0
 20 37  1  0
 20 38  1  0
 23 39  1  0
 24 40  1  0
 24 41  1  0
 26 42  1  0
 27 43  1  0
 28 44  1  0
 29 45  1  0
 30 46  1  0
M  END
>  <Binding energies>  (1) 
[-8.12]

>  <Ligand effiencies>  (1) 
[-0.2619354838709677]

>  <Interactions>  (1) 
["V-B:PRO:540:CB:9857, H-B:TYR:531:OH:9767, V-B:MET:535:CE:9807, V-A:ILE:369:CG2:3236, V-B:TYR:539:CD2:9846, V-A:LEU:475:CD1:4257, V-B:PRO:540:CA:9855, V-B:PRO:540:C:9853, V-B:ALA:541:CB:9864, V-B:TYR:539:CE2:9848, V-B:TYR:539:C:9839, V-A:PRO:482:CG:4326, V-A:PRO:482:CB:4325, V-A:ILE:538:CA:4860, V-A:TYR:539:CG:4872, V-A:ILE:538:CG2:4863, H-B:TYR:539:OH:9850, V-A:TYR:539:CD1:4873, H-A:TYR:531:OH:4795, V-A:TYR:539:CZ:4877, V-A:TYR:539:CE1:4875, V-A:ILE:538:CB:4862, V-A:MET:535:CG:4833, V-B:GLU:543:CD:9880, H-B:MET:535:SD:9806, V-B:LYS:534:CE:9794, V-B:ALA:541:CA:9862, V-A:MET:535:CE:4835, V-B:ALA:541:C:9860"]

$$$$
3ai_Grossjean_2025
     RDKit          3D

 39 41  0  0  0  0  0  0  0  0999 V2000
  127.2090  126.5470   62.6950 N   0  0  0  0  0  0  0  0  0  0  0  0
  127.7970  125.5660   62.5200 C   0  0  0  0  0  0  0  0  0  0  0  0
  128.5430  124.3230   62.2990 C   0  0  0  0  0  0  0  0  0  0  0  0
  129.9130  124.2290   62.6450 C   0  0  0  0  0  0  0  0  0  0  0  0
  130.6850  125.3880   63.3060 C   0  0  0  0  0  0  0  0  0  0  0  0
  131.9710  125.0990   63.5180 F   0  0  0  0  0  0  0  0  0  0  0  0
  130.6390  126.4690   62.5250 F   0  0  0  0  0  0  0  0  0  0  0  0
  130.1440  125.6850   64.4870 F   0  0  0  0  0  0  0  0  0  0  0  0
  130.5940  123.0340   62.3690 C   0  0  0  0  0  0  0  0  0  0  0  0
  129.9290  121.9640   61.7630 C   0  0  0  0  0  0  0  0  0  0  0  0
  130.6090  120.6690   61.4360 C   0  0  0  0  0  0  0  0  0  0  0  0
  131.9690  120.6420   61.0870 C   0  0  0  0  0  0  0  0  0  0  0  0
  132.6080  119.4430   60.7870 C   0  0  0  0  0  0  0  0  0  0  0  0
  131.8950  118.2500   60.8330 C   0  0  0  0  0  0  0  0  0  0  0  0
  130.5480  118.2480   61.1790 C   0  0  0  0  0  0  0  0  0  0  0  0
  129.9110  119.4490   61.4790 C   0  0  0  0  0  0  0  0  0  0  0  0
  128.6170  122.0610   61.4260 N   0  0  0  0  0  0  0  0  0  0  0  0
  127.9320  123.1960   61.7040 C   0  0  0  0  0  0  0  0  0  0  0  0
  126.2220  123.1310   61.2100 S   0  0  0  0  0  0  0  0  0  0  0  0
  125.9010  124.5550   60.1150 C   0  0  0  0  0  0  0  0  0  0  0  0
  125.6200  124.1950   58.6480 C   0  0  0  0  0  0  0  0  0  0  0  0
  124.9520  124.9440   57.9320 O   0  0  0  0  0  0  0  0  0  0  0  0
  126.1560  123.0220   58.2430 N   0  0  0  0  0  0  0  0  0  0  0  0
  126.0710  122.4500   56.9800 C   0  0  0  0  0  0  0  0  0  0  0  0
  125.0670  122.7660   56.0660 C   0  0  0  0  0  0  0  0  0  0  0  0
  125.3340  121.9960   54.9580 C   0  0  0  0  0  0  0  0  0  0  0  0
  126.4430  121.2550   55.1920 O   0  0  0  0  0  0  0  0  0  0  0  0
  126.9010  121.5520   56.4760 N   0  0  0  0  0  0  0  0  0  0  0  0
  131.6580  122.9383   62.6311 H   0  0  0  0  0  0  0  0  0  0  0  0
  132.5376  121.5829   61.0503 H   0  0  0  0  0  0  0  0  0  0  0  0
  133.6737  119.4388   60.5143 H   0  0  0  0  0  0  0  0  0  0  0  0
  132.3995  117.3021   60.5943 H   0  0  0  0  0  0  0  0  0  0  0  0
  129.9884  117.3017   61.2155 H   0  0  0  0  0  0  0  0  0  0  0  0
  128.8459  119.4435   61.7538 H   0  0  0  0  0  0  0  0  0  0  0  0
  125.0276  125.0968   60.5068 H   0  0  0  0  0  0  0  0  0  0  0  0
  126.8225  125.1557   60.1133 H   0  0  0  0  0  0  0  0  0  0  0  0
  126.6830  122.4940   58.9230 H   0  0  0  0  0  0  0  0  0  0  0  0
  124.2394  123.4779   56.2017 H   0  0  0  0  0  0  0  0  0  0  0  0
  124.7420  121.9841   54.0310 H   0  0  0  0  0  0  0  0  0  0  0  0
  1  2  3  0
  2  3  1  0
  3  4  2  0
  4  5  1  0
  5  6  1  0
  5  7  1  0
  5  8  1  0
  4  9  1  0
  9 10  2  0
 10 11  1  0
 11 12  2  0
 12 13  1  0
 13 14  2  0
 14 15  1  0
 15 16  2  0
 10 17  1  0
 17 18  2  0
 18 19  1  0
 19 20  1  0
 20 21  1  0
 21 22  2  0
 21 23  1  0
 23 24  1  0
 24 25  1  0
 25 26  2  0
 26 27  1  0
 27 28  1  0
 18  3  1  0
 28 24  2  0
 16 11  1  0
  9 29  1  0
 12 30  1  0
 13 31  1  0
 14 32  1  0
 15 33  1  0
 16 34  1  0
 20 35  1  0
 20 36  1  0
 23 37  1  0
 25 38  1  0
 26 39  1  0
M  END
>  <Binding energies>  (1) 
[-8.03]

>  <Ligand effiencies>  (1) 
[-0.2768965517241379]

>  <Interactions>  (1) 
["H-B:ALA:541:N:9863, V-B:PRO:540:CB:9857, H-B:TYR:531:OH:9767, V-B:MET:535:CE:9807, V-B:PRO:540:N:9856, V-A:LEU:475:CD1:4257, V-B:PRO:540:CA:9855, V-B:PRO:540:C:9853, H-B:TYR:539:N:9842, V-B:ALA:541:CB:9864, V-B:MET:535:CG:9805, V-B:TYR:531:CE2:9765, V-A:PRO:482:CG:4326, V-A:PRO:482:CB:4325, V-B:LEU:363:CD1:8160, V-B:PRO:540:CD:9859, H-B:ARG:545:NH2:9900, H-B:TYR:539:O:9840, V-B:GLU:543:CD:9880, V-B:ILE:538:CA:9832, V-B:ILE:538:CG1:9836, V-B:ILE:538:CG2:9835, V-B:ILE:538:CB:9834, V-B:ALA:541:CA:9862, V-B:MET:535:CB:9804"]

$$$$
3aj_Grossjean_2025
     RDKit          3D

 39 41  0  0  0  0  0  0  0  0999 V2000
  131.0150  126.1280   54.3490 N   0  0  0  0  0  0  0  0  0  0  0  0
  130.2470  126.6950   55.0030 C   0  0  0  0  0  0  0  0  0  0  0  0
  129.2760  127.4120   55.8340 C   0  0  0  0  0  0  0  0  0  0  0  0
  128.7930  126.8420   57.0380 C   0  0  0  0  0  0  0  0  0  0  0  0
  129.2790  125.4780   57.5660 C   0  0  0  0  0  0  0  0  0  0  0  0
  129.0240  124.4760   56.7210 F   0  0  0  0  0  0  0  0  0  0  0  0
  130.5970  125.5100   57.7670 F   0  0  0  0  0  0  0  0  0  0  0  0
  128.6720  125.1930   58.7180 F   0  0  0  0  0  0  0  0  0  0  0  0
  127.8280  127.5470   57.7730 C   0  0  0  0  0  0  0  0  0  0  0  0
  127.3560  128.7830   57.3180 C   0  0  0  0  0  0  0  0  0  0  0  0
  126.3200  129.5720   58.0590 C   0  0  0  0  0  0  0  0  0  0  0  0
  125.0880  129.8770   57.4600 C   0  0  0  0  0  0  0  0  0  0  0  0
  124.1190  130.6070   58.1440 C   0  0  0  0  0  0  0  0  0  0  0  0
  124.3710  131.0440   59.4400 C   0  0  0  0  0  0  0  0  0  0  0  0
  125.5840  130.7540   60.0570 C   0  0  0  0  0  0  0  0  0  0  0  0
  126.5490  130.0230   59.3700 C   0  0  0  0  0  0  0  0  0  0  0  0
  127.8160  129.3210   56.1600 N   0  0  0  0  0  0  0  0  0  0  0  0
  128.7650  128.6720   55.4450 C   0  0  0  0  0  0  0  0  0  0  0  0
  129.2620  129.5380   53.9720 S   0  0  0  0  0  0  0  0  0  0  0  0
  129.3480  131.3170   54.3720 C   0  0  0  0  0  0  0  0  0  0  0  0
  130.0940  131.6550   55.6710 C   0  0  0  0  0  0  0  0  0  0  0  0
  129.8770  132.7140   56.2660 O   0  0  0  0  0  0  0  0  0  0  0  0
  130.9740  130.7140   56.0770 N   0  0  0  0  0  0  0  0  0  0  0  0
  131.7720  130.7600   57.2130 C   0  0  0  0  0  0  0  0  0  0  0  0
  133.0740  130.5910   57.2930 N   0  0  0  0  0  0  0  0  0  0  0  0
  133.5040  130.7070   58.5340 C   0  0  0  0  0  0  0  0  0  0  0  0
  132.5350  130.9760   59.4980 C   0  0  0  0  0  0  0  0  0  0  0  0
  130.9820  131.0800   58.7250 S   0  0  0  0  0  0  0  0  0  0  0  0
  127.4403  127.1256   58.7122 H   0  0  0  0  0  0  0  0  0  0  0  0
  124.8846  129.5343   56.4347 H   0  0  0  0  0  0  0  0  0  0  0  0
  123.1579  130.8371   57.6609 H   0  0  0  0  0  0  0  0  0  0  0  0
  123.6070  131.6222   59.9804 H   0  0  0  0  0  0  0  0  0  0  0  0
  125.7793  131.1007   61.0825 H   0  0  0  0  0  0  0  0  0  0  0  0
  127.5063  129.7947   59.8613 H   0  0  0  0  0  0  0  0  0  0  0  0
  129.8579  131.8289   53.5426 H   0  0  0  0  0  0  0  0  0  0  0  0
  128.3098  131.6496   54.5184 H   0  0  0  0  0  0  0  0  0  0  0  0
  131.0630  129.8830   55.5110 H   0  0  0  0  0  0  0  0  0  0  0  0
  134.5674  130.5976   58.7934 H   0  0  0  0  0  0  0  0  0  0  0  0
  132.7225  131.1022   60.5745 H   0  0  0  0  0  0  0  0  0  0  0  0
  1  2  3  0
  2  3  1  0
  3  4  2  0
  4  5  1  0
  5  6  1  0
  5  7  1  0
  5  8  1  0
  4  9  1  0
  9 10  2  0
 10 11  1  0
 11 12  2  0
 12 13  1  0
 13 14  2  0
 14 15  1  0
 15 16  2  0
 10 17  1  0
 17 18  2  0
 18 19  1  0
 19 20  1  0
 20 21  1  0
 21 22  2  0
 21 23  1  0
 23 24  1  0
 24 25  2  0
 25 26  1  0
 26 27  2  0
 27 28  1  0
 18  3  1  0
 28 24  1  0
 16 11  1  0
  9 29  1  0
 12 30  1  0
 13 31  1  0
 14 32  1  0
 15 33  1  0
 16 34  1  0
 20 35  1  0
 20 36  1  0
 23 37  1  0
 26 38  1  0
 27 39  1  0
M  END
>  <Binding energies>  (1) 
[-7.72]

>  <Ligand effiencies>  (1) 
[-0.26620689655172414]

>  <Interactions>  (1) 
["H-B:TYR:531:OH:9767, V-B:MET:535:CE:9807, V-A:ASP:366:CG:3212, V-A:ILE:538:CA:4860, V-A:ASP:366:CB:3211, V-A:ILE:538:CG2:4863, H-B:TYR:539:OH:9850, V-A:PRO:540:CA:4883, H-A:TYR:531:OH:4795, H-A:TYR:539:N:4870, V-A:TYR:539:CZ:4877, V-A:PRO:540:CB:4885, V-A:TYR:539:CE1:4875, V-A:TYR:531:CZ:4794, V-B:ASP:366:CB:8183, V-B:ASP:366:CA:8181, V-A:LEU:363:CD1:3188, V-B:ASP:366:C:8179, V-B:TYR:539:CZ:9849, V-A:LEU:363:CA:3184, V-A:LEU:363:CB:3186, V-B:ILE:369:CG2:8208, V-B:ILE:369:CB:8207"]

$$$$
3ak_Grossjean_2025
     RDKit          3D

 57 58  0  0  0  0  0  0  0  0999 V2000
  131.4620  132.0230   55.8670 C   0  0  0  0  0  0  0  0  0  0  0  0
  130.2790  132.7730   56.0930 O   0  0  0  0  0  0  0  0  0  0  0  0
  129.0910  132.0020   55.9780 C   0  0  0  0  0  0  0  0  0  0  0  0
  128.7560  131.8200   54.4930 C   0  0  0  0  0  0  0  0  0  0  0  0
  127.6460  130.9360   54.3740 O   0  0  0  0  0  0  0  0  0  0  0  0
  127.8650  129.6080   54.8400 C   0  0  0  0  0  0  0  0  0  0  0  0
  129.0720  128.9120   54.1850 C   0  0  0  0  0  0  0  0  0  0  0  0
  128.8250  127.5140   54.1170 O   0  0  0  0  0  0  0  0  0  0  0  0
  129.8550  126.7180   54.6890 C   0  0  0  0  0  0  0  0  0  0  0  0
  129.7410  126.7260   56.2240 C   0  0  0  0  0  0  0  0  0  0  0  0
  130.7050  125.8460   56.8880 N   0  0  0  0  0  0  0  0  0  0  0  0
  131.9670  125.6090   56.4830 C   0  0  0  0  0  0  0  0  0  0  0  0
  132.4590  126.1420   55.4870 O   0  0  0  0  0  0  0  0  0  0  0  0
  132.8350  124.6320   57.2940 C   0  0  0  0  0  0  0  0  0  0  0  0
  132.5820  124.6270   59.1070 S   0  0  0  0  0  0  0  0  0  0  0  0
  131.3260  123.4210   59.5080 C   0  0  0  0  0  0  0  0  0  0  0  0
  130.1420  123.5720   58.8640 N   0  0  0  0  0  0  0  0  0  0  0  0
  129.1240  122.7090   59.1070 C   0  0  0  0  0  0  0  0  0  0  0  0
  127.8510  122.9490   58.3510 C   0  0  0  0  0  0  0  0  0  0  0  0
  127.0300  124.0460   58.6570 C   0  0  0  0  0  0  0  0  0  0  0  0
  125.8490  124.2760   57.9560 C   0  0  0  0  0  0  0  0  0  0  0  0
  125.4730  123.4100   56.9350 C   0  0  0  0  0  0  0  0  0  0  0  0
  126.2690  122.3180   56.6090 C   0  0  0  0  0  0  0  0  0  0  0  0
  127.4500  122.0910   57.3110 C   0  0  0  0  0  0  0  0  0  0  0  0
  129.2810  121.6470   60.0040 C   0  0  0  0  0  0  0  0  0  0  0  0
  130.4960  121.4680   60.6820 C   0  0  0  0  0  0  0  0  0  0  0  0
  130.6310  120.2880   61.6650 C   0  0  0  0  0  0  0  0  0  0  0  0
  130.6290  120.7380   62.9200 F   0  0  0  0  0  0  0  0  0  0  0  0
  129.6120  119.4420   61.5070 F   0  0  0  0  0  0  0  0  0  0  0  0
  131.7580  119.5940   61.4890 F   0  0  0  0  0  0  0  0  0  0  0  0
  131.5510  122.3780   60.4320 C   0  0  0  0  0  0  0  0  0  0  0  0
  132.8430  122.2390   61.1120 C   0  0  0  0  0  0  0  0  0  0  0  0
  133.8630  122.1310   61.6500 N   0  0  0  0  0  0  0  0  0  0  0  0
  131.9072  131.7407   56.8324 H   0  0  0  0  0  0  0  0  0  0  0  0
  131.2171  131.1149   55.2967 H   0  0  0  0  0  0  0  0  0  0  0  0
  132.1789  132.6320   55.2967 H   0  0  0  0  0  0  0  0  0  0  0  0
  129.2434  131.0178   56.4450 H   0  0  0  0  0  0  0  0  0  0  0  0
  128.2625  132.5179   56.4854 H   0  0  0  0  0  0  0  0  0  0  0  0
  128.5010  132.7941   54.0502 H   0  0  0  0  0  0  0  0  0  0  0  0
  129.6245  131.3999   53.9645 H   0  0  0  0  0  0  0  0  0  0  0  0
  128.0331  129.6448   55.9265 H   0  0  0  0  0  0  0  0  0  0  0  0
  126.9729  129.0228   54.5722 H   0  0  0  0  0  0  0  0  0  0  0  0
  129.2196  129.3093   53.1699 H   0  0  0  0  0  0  0  0  0  0  0  0
  129.9759  129.0989   54.7833 H   0  0  0  0  0  0  0  0  0  0  0  0
  129.7618  125.6849   54.3229 H   0  0  0  0  0  0  0  0  0  0  0  0
  130.8320  127.1319   54.3990 H   0  0  0  0  0  0  0  0  0  0  0  0
  129.9060  127.7538   56.5796 H   0  0  0  0  0  0  0  0  0  0  0  0
  128.7372  126.3526   56.4749 H   0  0  0  0  0  0  0  0  0  0  0  0
  130.3810  125.3860   57.7260 H   0  0  0  0  0  0  0  0  0  0  0  0
  132.6290  123.6164   56.9250 H   0  0  0  0  0  0  0  0  0  0  0  0
  133.8710  124.9705   57.1454 H   0  0  0  0  0  0  0  0  0  0  0  0
  127.3242  124.7344   59.4629 H   0  0  0  0  0  0  0  0  0  0  0  0
  125.2160  125.1393   58.2089 H   0  0  0  0  0  0  0  0  0  0  0  0
  124.5395  123.5903   56.3817 H   0  0  0  0  0  0  0  0  0  0  0  0
  125.9673  121.6363   55.8001 H   0  0  0  0  0  0  0  0  0  0  0  0
  128.0789  121.2276   57.0482 H   0  0  0  0  0  0  0  0  0  0  0  0
  128.4484  120.9495   60.1784 H   0  0  0  0  0  0  0  0  0  0  0  0
  1  2  1  0
  2  3  1  0
  3  4  1  0
  4  5  1  0
  5  6  1  0
  6  7  1  0
  7  8  1  0
  8  9  1  0
  9 10  1  0
 10 11  1  0
 11 12  1  0
 12 13  2  0
 12 14  1  0
 14 15  1  0
 15 16  1  0
 16 17  2  0
 17 18  1  0
 18 19  1  0
 19 20  2  0
 20 21  1  0
 21 22  2  0
 22 23  1  0
 23 24  2  0
 18 25  2  0
 25 26  1  0
 26 27  1  0
 27 28  1  0
 27 29  1  0
 27 30  1  0
 26 31  2  0
 31 32  1  0
 32 33  3  0
 31 16  1  0
 24 19  1  0
  1 34  1  0
  1 35  1  0
  1 36  1  0
  3 37  1  0
  3 38  1  0
  4 39  1  0
  4 40  1  0
  6 41  1  0
  6 42  1  0
  7 43  1  0
  7 44  1  0
  9 45  1  0
  9 46  1  0
 10 47  1  0
 10 48  1  0
 11 49  1  0
 14 50  1  0
 14 51  1  0
 20 52  1  0
 21 53  1  0
 22 54  1  0
 23 55  1  0
 24 56  1  0
 25 57  1  0
M  END
>  <Binding energies>  (1) 
[-7.9]

>  <Ligand effiencies>  (1) 
[-0.2323529411764706]

>  <Interactions>  (1) 
["H-B:TYR:531:OH:9767, V-B:MET:535:CE:9807, V-B:TYR:539:CD2:9846, V-B:PRO:540:N:9856, V-A:LEU:475:CD1:4257, V-B:PRO:540:CA:9855, V-B:PRO:540:C:9853, V-B:ALA:541:CB:9864, V-B:TYR:539:CE2:9848, V-B:TYR:539:C:9839, V-B:TYR:531:CE2:9765, V-A:PRO:482:CG:4326, V-B:LEU:363:CD1:8160, V-B:TYR:539:CA:9841, V-B:PRO:540:CD:9859, V-A:ILE:538:CA:4860, V-A:ASP:366:CA:3209, V-A:ASP:366:CB:3211, V-A:TYR:539:CG:4872, V-A:ILE:538:CG2:4863, V-A:ASP:366:C:3207, H-B:TYR:539:OH:9850, V-A:TYR:539:CD1:4873, V-A:TYR:539:CE2:4876, H-A:TYR:531:OH:4795, H-A:TYR:539:N:4870, V-A:TYR:539:CZ:4877, V-A:TYR:539:CE1:4875, V-A:ILE:538:CB:4862, V-B:TYR:531:CE1:9764, H-B:LYS:534:NZ:9795, V-A:PRO:540:CD:4887, V-A:LEU:363:CD1:3188, V-B:TYR:539:CZ:9849, H-A:TYR:539:OH:4878, V-B:ALA:541:CA:9862, V-A:MET:535:CE:4835"]

$$$$
3bc_Grossjean_2025
     RDKit          3D

 47 49  0  0  0  0  0  0  0  0999 V2000
  132.6530  131.7500   61.6690 C   0  0  0  0  0  0  0  0  0  0  0  0
  133.4000  131.1180   60.6360 O   0  0  0  0  0  0  0  0  0  0  0  0
  132.8330  130.9820   59.3820 C   0  0  0  0  0  0  0  0  0  0  0  0
  131.4750  131.2840   59.2780 C   0  0  0  0  0  0  0  0  0  0  0  0
  130.8160  131.1760   58.0560 C   0  0  0  0  0  0  0  0  0  0  0  0
  131.5090  130.7560   56.9190 C   0  0  0  0  0  0  0  0  0  0  0  0
  130.7620  130.6900   55.7280 N   0  0  0  0  0  0  0  0  0  0  0  0
  129.7880  131.5130   55.2860 C   0  0  0  0  0  0  0  0  0  0  0  0
  129.4070  132.5280   55.8730 O   0  0  0  0  0  0  0  0  0  0  0  0
  129.1820  131.1210   53.9310 C   0  0  0  0  0  0  0  0  0  0  0  0
  128.7920  129.3490   53.7390 S   0  0  0  0  0  0  0  0  0  0  0  0
  128.5550  128.6660   55.3640 C   0  0  0  0  0  0  0  0  0  0  0  0
  127.6190  129.3160   56.0990 N   0  0  0  0  0  0  0  0  0  0  0  0
  127.3370  128.8970   57.3600 C   0  0  0  0  0  0  0  0  0  0  0  0
  126.3050  129.6840   58.1120 C   0  0  0  0  0  0  0  0  0  0  0  0
  126.6010  130.2370   59.3670 C   0  0  0  0  0  0  0  0  0  0  0  0
  125.6480  130.9690   60.0720 C   0  0  0  0  0  0  0  0  0  0  0  0
  124.3820  131.1550   59.5280 C   0  0  0  0  0  0  0  0  0  0  0  0
  124.0610  130.6150   58.2880 C   0  0  0  0  0  0  0  0  0  0  0  0
  125.0170  129.8830   57.5870 C   0  0  0  0  0  0  0  0  0  0  0  0
  127.9990  127.7980   57.9170 C   0  0  0  0  0  0  0  0  0  0  0  0
  128.9510  127.1010   57.1640 C   0  0  0  0  0  0  0  0  0  0  0  0
  129.6370  125.8970   57.8070 C   0  0  0  0  0  0  0  0  0  0  0  0
  129.2390  127.5280   55.8490 C   0  0  0  0  0  0  0  0  0  0  0  0
  130.1950  126.7850   55.0260 C   0  0  0  0  0  0  0  0  0  0  0  0
  130.9510  126.1960   54.3780 N   0  0  0  0  0  0  0  0  0  0  0  0
  132.8770  130.4630   57.0120 C   0  0  0  0  0  0  0  0  0  0  0  0
  133.5330  130.5720   58.2360 C   0  0  0  0  0  0  0  0  0  0  0  0
  133.0353  131.4265   62.6484 H   0  0  0  0  0  0  0  0  0  0  0  0
  132.7532  132.8417   61.5786 H   0  0  0  0  0  0  0  0  0  0  0  0
  131.5930  131.4704   61.5786 H   0  0  0  0  0  0  0  0  0  0  0  0
  130.9196  131.6105   60.1696 H   0  0  0  0  0  0  0  0  0  0  0  0
  129.7462  131.4223   57.9863 H   0  0  0  0  0  0  0  0  0  0  0  0
  131.0450  129.9520   55.0990 H   0  0  0  0  0  0  0  0  0  0  0  0
  128.2508  131.6910   53.7968 H   0  0  0  0  0  0  0  0  0  0  0  0
  129.9488  131.3487   53.1759 H   0  0  0  0  0  0  0  0  0  0  0  0
  127.6010  130.0903   59.8011 H   0  0  0  0  0  0  0  0  0  0  0  0
  125.8959  131.3977   61.0542 H   0  0  0  0  0  0  0  0  0  0  0  0
  123.6289  131.7337   60.0830 H   0  0  0  0  0  0  0  0  0  0  0  0
  123.0577  130.7648   57.8625 H   0  0  0  0  0  0  0  0  0  0  0  0
  124.7594  129.4542   56.6073 H   0  0  0  0  0  0  0  0  0  0  0  0
  127.7717  127.4818   58.9458 H   0  0  0  0  0  0  0  0  0  0  0  0
  129.5856  125.9873   58.9021 H   0  0  0  0  0  0  0  0  0  0  0  0
  129.1293  124.9737   57.4910 H   0  0  0  0  0  0  0  0  0  0  0  0
  130.6901  125.8630   57.4910 H   0  0  0  0  0  0  0  0  0  0  0  0
  133.4330  130.1466   56.1171 H   0  0  0  0  0  0  0  0  0  0  0  0
  134.6051  130.3356   58.3051 H   0  0  0  0  0  0  0  0  0  0  0  0
  1  2  1  0
  2  3  1  0
  3  4  2  0
  4  5  1  0
  5  6  2  0
  6  7  1  0
  7  8  1  0
  8  9  2  0
  8 10  1  0
 10 11  1  0
 11 12  1  0
 12 13  2  0
 13 14  1  0
 14 15  1  0
 15 16  2  0
 16 17  1  0
 17 18  2  0
 18 19  1  0
 19 20  2  0
 14 21  2  0
 21 22  1  0
 22 23  1  0
 22 24  2  0
 24 25  1  0
 25 26  3  0
  6 27  1  0
 27 28  2  0
 28  3  1  0
 24 12  1  0
 20 15  1  0
  1 29  1  0
  1 30  1  0
  1 31  1  0
  4 32  1  0
  5 33  1  0
  7 34  1  0
 10 35  1  0
 10 36  1  0
 16 37  1  0
 17 38  1  0
 18 39  1  0
 19 40  1  0
 20 41  1  0
 21 42  1  0
 23 43  1  0
 23 44  1  0
 23 45  1  0
 27 46  1  0
 28 47  1  0
M  END
>  <Binding energies>  (1) 
[-8.74]

>  <Ligand effiencies>  (1) 
[-0.30137931034482757]

>  <Interactions>  (1) 
["H-B:TYR:531:OH:9767, V-A:ASP:366:CG:3212, V-A:PRO:540:N:4884, V-A:ASP:366:CB:3211, V-A:ILE:538:CG2:4863, H-B:TYR:539:OH:9850, V-A:PRO:540:CA:4883, H-A:TYR:531:OH:4795, H-A:TYR:539:N:4870, V-A:TYR:539:CZ:4877, V-A:PRO:540:CB:4885, V-A:TYR:539:CE1:4875, V-A:TYR:531:CZ:4794, V-B:ASP:366:CB:8183, V-A:PRO:540:C:4881, V-B:ASP:366:CA:8181, V-A:LEU:363:CD1:3188, V-B:ASP:366:C:8179, V-B:LYS:534:CE:9794, V-A:LEU:363:CA:3184, V-A:LEU:363:CB:3186, V-B:ILE:369:CG2:8208, V-A:ASN:362:CB:3175, V-B:ILE:369:CB:8207, V-A:ALA:541:C:4888"]

$$$$
3bd_Grossjean_2025
     RDKit          3D

 43 45  0  0  0  0  0  0  0  0999 V2000
  129.4560  125.7200   57.7170 C   0  0  0  0  0  0  0  0  0  0  0  0
  128.8980  127.0090   57.1180 C   0  0  0  0  0  0  0  0  0  0  0  0
  127.9870  127.7520   57.8770 C   0  0  0  0  0  0  0  0  0  0  0  0
  127.4490  128.9370   57.3620 C   0  0  0  0  0  0  0  0  0  0  0  0
  126.4730  129.7830   58.1240 C   0  0  0  0  0  0  0  0  0  0  0  0
  126.8940  130.5580   59.2160 C   0  0  0  0  0  0  0  0  0  0  0  0
  125.9920  131.3440   59.9290 C   0  0  0  0  0  0  0  0  0  0  0  0
  124.6510  131.3640   59.5590 C   0  0  0  0  0  0  0  0  0  0  0  0
  124.2070  130.6030   58.4830 C   0  0  0  0  0  0  0  0  0  0  0  0
  125.1120  129.8190   57.7730 C   0  0  0  0  0  0  0  0  0  0  0  0
  127.8120  129.3880   56.1320 N   0  0  0  0  0  0  0  0  0  0  0  0
  128.6930  128.6800   55.3820 C   0  0  0  0  0  0  0  0  0  0  0  0
  129.0770  129.3720   53.7810 S   0  0  0  0  0  0  0  0  0  0  0  0
  129.3170  131.1630   53.9850 C   0  0  0  0  0  0  0  0  0  0  0  0
  129.8610  131.5140   55.3710 C   0  0  0  0  0  0  0  0  0  0  0  0
  129.4190  132.5050   55.9530 O   0  0  0  0  0  0  0  0  0  0  0  0
  130.8190  130.6910   55.8490 N   0  0  0  0  0  0  0  0  0  0  0  0
  131.4870  130.7360   57.0880 C   0  0  0  0  0  0  0  0  0  0  0  0
  130.6880  130.9730   58.2090 C   0  0  0  0  0  0  0  0  0  0  0  0
  131.2610  131.0420   59.4760 C   0  0  0  0  0  0  0  0  0  0  0  0
  132.6360  130.8850   59.6220 C   0  0  0  0  0  0  0  0  0  0  0  0
  133.4450  130.6630   58.5100 C   0  0  0  0  0  0  0  0  0  0  0  0
  132.8750  130.5910   57.2420 C   0  0  0  0  0  0  0  0  0  0  0  0
  129.2660  127.4730   55.8370 C   0  0  0  0  0  0  0  0  0  0  0  0
  130.2190  126.7180   55.0170 C   0  0  0  0  0  0  0  0  0  0  0  0
  130.9720  126.1230   54.3710 N   0  0  0  0  0  0  0  0  0  0  0  0
  129.4284  125.7838   58.8148 H   0  0  0  0  0  0  0  0  0  0  0  0
  128.8466  124.8670   57.3839 H   0  0  0  0  0  0  0  0  0  0  0  0
  130.4950  125.5806   57.3839 H   0  0  0  0  0  0  0  0  0  0  0  0
  127.6936  127.4047   58.8786 H   0  0  0  0  0  0  0  0  0  0  0  0
  127.9530  130.5443   59.5133 H   0  0  0  0  0  0  0  0  0  0  0  0
  126.3386  131.9467   60.7814 H   0  0  0  0  0  0  0  0  0  0  0  0
  123.9379  131.9853   60.1207 H   0  0  0  0  0  0  0  0  0  0  0  0
  123.1457  130.6205   58.1943 H   0  0  0  0  0  0  0  0  0  0  0  0
  124.7565  129.2177   56.9233 H   0  0  0  0  0  0  0  0  0  0  0  0
  130.0294  131.5148   53.2243 H   0  0  0  0  0  0  0  0  0  0  0  0
  128.3385  131.6522   53.8701 H   0  0  0  0  0  0  0  0  0  0  0  0
  131.1480  129.9730   55.2210 H   0  0  0  0  0  0  0  0  0  0  0  0
  129.6025  131.1056   58.0903 H   0  0  0  0  0  0  0  0  0  0  0  0
  130.6290  131.2200   60.3586 H   0  0  0  0  0  0  0  0  0  0  0  0
  133.0877  130.9366   60.6237 H   0  0  0  0  0  0  0  0  0  0  0  0
  134.5316  130.5449   58.6335 H   0  0  0  0  0  0  0  0  0  0  0  0
  133.5116  130.4206   56.3613 H   0  0  0  0  0  0  0  0  0  0  0  0
  1  2  1  0
  2  3  2  0
  3  4  1  0
  4  5  1  0
  5  6  2  0
  6  7  1  0
  7  8  2  0
  8  9  1  0
  9 10  2  0
  4 11  2  0
 11 12  1  0
 12 13  1  0
 13 14  1  0
 14 15  1  0
 15 16  2  0
 15 17  1  0
 17 18  1  0
 18 19  2  0
 19 20  1  0
 20 21  2  0
 21 22  1  0
 22 23  2  0
 12 24  2  0
 24 25  1  0
 25 26  3  0
 24  2  1  0
 10  5  1  0
 23 18  1  0
  1 27  1  0
  1 28  1  0
  1 29  1  0
  3 30  1  0
  6 31  1  0
  7 32  1  0
  8 33  1  0
  9 34  1  0
 10 35  1  0
 14 36  1  0
 14 37  1  0
 17 38  1  0
 19 39  1  0
 20 40  1  0
 21 41  1  0
 22 42  1  0
 23 43  1  0
M  END
>  <Binding energies>  (1) 
[-8.6]

>  <Ligand effiencies>  (1) 
[-0.3185185185185185]

>  <Interactions>  (1) 
["H-B:TYR:531:OH:9767, V-A:ASP:366:CG:3212, V-A:ASP:366:CB:3211, V-A:ILE:538:CG2:4863, H-B:TYR:539:OH:9850, V-A:TYR:539:CD1:4873, V-A:PRO:540:CA:4883, H-A:TYR:531:OH:4795, H-A:TYR:539:N:4870, V-A:TYR:539:CZ:4877, V-A:PRO:540:CB:4885, V-A:TYR:539:CE1:4875, V-B:ASP:366:CB:8183, V-B:ASP:366:CA:8181, V-A:LEU:363:CD1:3188, V-B:ASP:366:C:8179, V-A:LEU:363:CA:3184, V-A:LEU:363:CB:3186, V-B:ILE:369:CG2:8208"]

$$$$
3be_Grossjean_2025
     RDKit          3D

 45 47  0  0  0  0  0  0  0  0999 V2000
  130.7480  131.3270   60.6530 C   0  0  0  0  0  0  0  0  0  0  0  0
  131.5370  131.0560   59.3870 C   0  0  0  0  0  0  0  0  0  0  0  0
  132.9230  130.8820   59.4120 C   0  0  0  0  0  0  0  0  0  0  0  0
  133.5840  130.6390   58.2080 C   0  0  0  0  0  0  0  0  0  0  0  0
  132.8520  130.5740   57.0200 C   0  0  0  0  0  0  0  0  0  0  0  0
  131.4650  130.7530   57.0660 C   0  0  0  0  0  0  0  0  0  0  0  0
  130.7850  130.6860   55.8350 N   0  0  0  0  0  0  0  0  0  0  0  0
  129.8650  131.5360   55.3310 C   0  0  0  0  0  0  0  0  0  0  0  0
  129.4560  132.5470   55.9050 O   0  0  0  0  0  0  0  0  0  0  0  0
  129.3340  131.1570   53.9390 C   0  0  0  0  0  0  0  0  0  0  0  0
  128.8810  129.4010   53.7330 S   0  0  0  0  0  0  0  0  0  0  0  0
  128.6270  128.7030   55.3500 C   0  0  0  0  0  0  0  0  0  0  0  0
  127.6990  129.3620   56.0870 N   0  0  0  0  0  0  0  0  0  0  0  0
  127.4010  128.9340   57.3420 C   0  0  0  0  0  0  0  0  0  0  0  0
  126.3730  129.7270   58.0950 C   0  0  0  0  0  0  0  0  0  0  0  0
  125.0800  129.9010   57.5770 C   0  0  0  0  0  0  0  0  0  0  0  0
  124.1230  130.6370   58.2690 C   0  0  0  0  0  0  0  0  0  0  0  0
  124.4470  131.2130   59.4920 C   0  0  0  0  0  0  0  0  0  0  0  0
  125.7210  131.0580   60.0270 C   0  0  0  0  0  0  0  0  0  0  0  0
  126.6760  130.3210   59.3310 C   0  0  0  0  0  0  0  0  0  0  0  0
  128.0430  127.8190   57.8910 C   0  0  0  0  0  0  0  0  0  0  0  0
  128.9850  127.1130   57.1360 C   0  0  0  0  0  0  0  0  0  0  0  0
  129.6490  125.8920   57.7700 C   0  0  0  0  0  0  0  0  0  0  0  0
  129.2870  127.5470   55.8270 C   0  0  0  0  0  0  0  0  0  0  0  0
  130.2290  126.7920   54.9990 C   0  0  0  0  0  0  0  0  0  0  0  0
  130.9740  126.1930   54.3470 N   0  0  0  0  0  0  0  0  0  0  0  0
  130.8130  130.9950   58.2410 N   0  0  0  0  0  0  0  0  0  0  0  0
  131.3762  131.1112   61.5298 H   0  0  0  0  0  0  0  0  0  0  0  0
  130.4394  132.3826   60.6738 H   0  0  0  0  0  0  0  0  0  0  0  0
  129.8559  130.6838   60.6738 H   0  0  0  0  0  0  0  0  0  0  0  0
  133.4800  130.9354   60.3591 H   0  0  0  0  0  0  0  0  0  0  0  0
  134.6750  130.4994   58.1941 H   0  0  0  0  0  0  0  0  0  0  0  0
  133.3587  130.3848   56.0621 H   0  0  0  0  0  0  0  0  0  0  0  0
  131.0070  129.8750   55.2760 H   0  0  0  0  0  0  0  0  0  0  0  0
  128.4396  131.7651   53.7386 H   0  0  0  0  0  0  0  0  0  0  0  0
  130.1588  131.3445   53.2357 H   0  0  0  0  0  0  0  0  0  0  0  0
  124.8192  129.4485   56.6089 H   0  0  0  0  0  0  0  0  0  0  0  0
  123.1138  130.7626   57.8498 H   0  0  0  0  0  0  0  0  0  0  0  0
  123.6910  131.7948   60.0397 H   0  0  0  0  0  0  0  0  0  0  0  0
  125.9733  131.5152   60.9951 H   0  0  0  0  0  0  0  0  0  0  0  0
  127.6836  130.2023   59.7561 H   0  0  0  0  0  0  0  0  0  0  0  0
  127.8070  127.4976   58.9162 H   0  0  0  0  0  0  0  0  0  0  0  0
  129.6027  125.9771   58.8657 H   0  0  0  0  0  0  0  0  0  0  0  0
  129.1222  124.9808   57.4504 H   0  0  0  0  0  0  0  0  0  0  0  0
  130.7002  125.8390   57.4504 H   0  0  0  0  0  0  0  0  0  0  0  0
  1  2  1  0
  2  3  2  0
  3  4  1  0
  4  5  2  0
  5  6  1  0
  6  7  1  0
  7  8  1  0
  8  9  2  0
  8 10  1  0
 10 11  1  0
 11 12  1  0
 12 13  2  0
 13 14  1  0
 14 15  1  0
 15 16  2  0
 16 17  1  0
 17 18  2  0
 18 19  1  0
 19 20  2  0
 14 21  2  0
 21 22  1  0
 22 23  1  0
 22 24  2  0
 24 25  1  0
 25 26  3  0
  6 27  2  0
 27  2  1  0
 24 12  1  0
 20 15  1  0
  1 28  1  0
  1 29  1  0
  1 30  1  0
  3 31  1  0
  4 32  1  0
  5 33  1  0
  7 34  1  0
 10 35  1  0
 10 36  1  0
 16 37  1  0
 17 38  1  0
 18 39  1  0
 19 40  1  0
 20 41  1  0
 21 42  1  0
 23 43  1  0
 23 44  1  0
 23 45  1  0
M  END
>  <Binding energies>  (1) 
[-8.72]

>  <Ligand effiencies>  (1) 
[-0.31142857142857144]

>  <Interactions>  (1) 
["H-B:TYR:531:OH:9767, V-A:ASP:366:CG:3212, V-A:ASP:366:CB:3211, V-A:ILE:538:CG2:4863, H-B:TYR:539:OH:9850, V-A:PRO:540:CA:4883, H-A:TYR:531:OH:4795, H-A:TYR:539:N:4870, V-A:TYR:539:CZ:4877, V-A:PRO:540:CB:4885, V-A:TYR:539:CE1:4875, V-A:TYR:531:CZ:4794, V-A:ILE:538:CB:4862, V-B:ASP:366:CB:8183, V-B:ASP:366:CA:8181, V-A:LEU:363:CD1:3188, V-B:ASP:366:C:8179, V-A:LEU:363:CA:3184, V-A:LEU:363:CB:3186, V-B:ILE:369:CG2:8208, V-B:ILE:369:CB:8207"]

$$$$
3bf_Grossjean_2025
     RDKit          3D

 42 44  0  0  0  0  0  0  0  0999 V2000
  130.2430  131.1020   54.1450 C   0  0  0  0  0  0  0  0  0  0  0  0
  129.8130  130.8320   55.5850 C   0  0  0  0  0  0  0  0  0  0  0  0
  130.7640  130.9920   56.5980 C   0  0  0  0  0  0  0  0  0  0  0  0
  130.4080  130.7690   57.9330 C   0  0  0  0  0  0  0  0  0  0  0  0
  131.3740  130.9450   59.0660 C   0  0  0  0  0  0  0  0  0  0  0  0
  132.7560  130.8240   58.8550 C   0  0  0  0  0  0  0  0  0  0  0  0
  133.6590  130.9860   59.9020 C   0  0  0  0  0  0  0  0  0  0  0  0
  133.1890  131.2710   61.1800 C   0  0  0  0  0  0  0  0  0  0  0  0
  131.8240  131.3950   61.4160 C   0  0  0  0  0  0  0  0  0  0  0  0
  130.9240  131.2310   60.3660 C   0  0  0  0  0  0  0  0  0  0  0  0
  129.1440  130.3950   58.2640 N   0  0  0  0  0  0  0  0  0  0  0  0
  128.2180  130.2110   57.2910 C   0  0  0  0  0  0  0  0  0  0  0  0
  126.6230  129.7160   57.9100 S   0  0  0  0  0  0  0  0  0  0  0  0
  126.6440  127.9070   58.1460 C   0  0  0  0  0  0  0  0  0  0  0  0
  128.0300  127.2530   58.0540 C   0  0  0  0  0  0  0  0  0  0  0  0
  128.5580  126.7540   59.0500 O   0  0  0  0  0  0  0  0  0  0  0  0
  128.5730  127.2540   56.8170 N   0  0  0  0  0  0  0  0  0  0  0  0
  129.8190  126.7510   56.3990 C   0  0  0  0  0  0  0  0  0  0  0  0
  130.8320  126.6740   57.3600 C   0  0  0  0  0  0  0  0  0  0  0  0
  132.0870  126.1720   57.0110 C   0  0  0  0  0  0  0  0  0  0  0  0
  132.2930  125.7510   55.6970 C   0  0  0  0  0  0  0  0  0  0  0  0
  131.3270  125.8040   54.7460 N   0  0  0  0  0  0  0  0  0  0  0  0
  130.1110  126.2950   55.1010 C   0  0  0  0  0  0  0  0  0  0  0  0
  128.5010  130.4370   55.9260 C   0  0  0  0  0  0  0  0  0  0  0  0
  127.4770  130.3110   54.8860 C   0  0  0  0  0  0  0  0  0  0  0  0
  126.6690  130.2110   54.0630 N   0  0  0  0  0  0  0  0  0  0  0  0
  131.1746  131.6869   54.1441 H   0  0  0  0  0  0  0  0  0  0  0  0
  130.4097  130.1462   53.6268 H   0  0  0  0  0  0  0  0  0  0  0  0
  129.4545  131.6674   53.6268 H   0  0  0  0  0  0  0  0  0  0  0  0
  131.7914  131.2930   56.3455 H   0  0  0  0  0  0  0  0  0  0  0  0
  133.1318  130.5975   57.8463 H   0  0  0  0  0  0  0  0  0  0  0  0
  134.7394  130.8891   59.7196 H   0  0  0  0  0  0  0  0  0  0  0  0
  133.9011  131.3990   62.0086 H   0  0  0  0  0  0  0  0  0  0  0  0
  131.4568  131.6217   62.4278 H   0  0  0  0  0  0  0  0  0  0  0  0
  129.8450  131.3268   60.5572 H   0  0  0  0  0  0  0  0  0  0  0  0
  126.2298  127.6886   59.1414 H   0  0  0  0  0  0  0  0  0  0  0  0
  126.0510  127.4842   57.3216 H   0  0  0  0  0  0  0  0  0  0  0  0
  127.9980  127.6220   56.0730 H   0  0  0  0  0  0  0  0  0  0  0  0
  130.6401  127.0087   58.3901 H   0  0  0  0  0  0  0  0  0  0  0  0
  132.8949  126.1098   57.7549 H   0  0  0  0  0  0  0  0  0  0  0  0
  133.2826  125.3587   55.4198 H   0  0  0  0  0  0  0  0  0  0  0  0
  129.3190  126.3378   54.3388 H   0  0  0  0  0  0  0  0  0  0  0  0
  1  2  1  0
  2  3  2  0
  3  4  1  0
  4  5  1  0
  5  6  2  0
  6  7  1  0
  7  8  2  0
  8  9  1  0
  9 10  2  0
  4 11  2  0
 11 12  1  0
 12 13  1  0
 13 14  1  0
 14 15  1  0
 15 16  2  0
 15 17  1  0
 17 18  1  0
 18 19  2  0
 19 20  1  0
 20 21  2  0
 21 22  1  0
 22 23  2  0
 12 24  2  0
 24 25  1  0
 25 26  3  0
 24  2  1  0
 10  5  1  0
 23 18  1  0
  1 27  1  0
  1 28  1  0
  1 29  1  0
  3 30  1  0
  6 31  1  0
  7 32  1  0
  8 33  1  0
  9 34  1  0
 10 35  1  0
 14 36  1  0
 14 37  1  0
 17 38  1  0
 19 39  1  0
 20 40  1  0
 21 41  1  0
 23 42  1  0
M  END
>  <Binding energies>  (1) 
[-8.29]

>  <Ligand effiencies>  (1) 
[-0.307037037037037]

>  <Interactions>  (1) 
["H-B:TYR:531:OH:9767, V-B:MET:535:CE:9807, V-B:TYR:531:CZ:9766, V-A:ASP:366:CG:3212, V-A:TYR:531:CE1:4792, V-A:ASP:366:CB:3211, V-A:ILE:538:CG2:4863, V-A:ASN:370:CB:3244, H-B:TYR:539:OH:9850, V-A:PRO:540:CA:4883, H-A:TYR:531:OH:4795, V-A:TYR:539:CZ:4877, V-A:PRO:540:CB:4885, V-A:TYR:539:CE1:4875, V-A:TYR:531:CZ:4794, V-A:ILE:538:CB:4862, V-B:TYR:531:CE1:9764, H-B:LYS:534:NZ:9795, V-A:PRO:540:C:4881, V-A:GLU:543:CD:4908, H-A:TYR:539:OH:4878, V-A:LEU:363:CA:3184, V-A:ASN:362:CB:3175, V-A:ASN:362:C:3171"]

$$$$
3bg_Grossjean_2025
     RDKit          3D

 46 48  0  0  0  0  0  0  0  0999 V2000
  129.5260  125.7500   57.8160 C   0  0  0  0  0  0  0  0  0  0  0  0
  128.9340  127.0150   57.1980 C   0  0  0  0  0  0  0  0  0  0  0  0
  128.0180  127.7540   57.9530 C   0  0  0  0  0  0  0  0  0  0  0  0
  127.4570  128.9250   57.4270 C   0  0  0  0  0  0  0  0  0  0  0  0
  126.4760  129.7710   58.1910 C   0  0  0  0  0  0  0  0  0  0  0  0
  126.8840  130.5310   59.3000 C   0  0  0  0  0  0  0  0  0  0  0  0
  125.9830  131.3300   59.9980 C   0  0  0  0  0  0  0  0  0  0  0  0
  124.6520  131.3800   59.5990 C   0  0  0  0  0  0  0  0  0  0  0  0
  124.2160  130.6290   58.5130 C   0  0  0  0  0  0  0  0  0  0  0  0
  125.1210  129.8310   57.8190 C   0  0  0  0  0  0  0  0  0  0  0  0
  127.8090  129.3640   56.1890 N   0  0  0  0  0  0  0  0  0  0  0  0
  128.6990  128.6600   55.4440 C   0  0  0  0  0  0  0  0  0  0  0  0
  129.1010  129.3620   53.8520 S   0  0  0  0  0  0  0  0  0  0  0  0
  128.9240  131.1730   53.9650 C   0  0  0  0  0  0  0  0  0  0  0  0
  129.8650  131.7740   55.0130 C   0  0  0  0  0  0  0  0  0  0  0  0
  129.5720  132.8360   55.5640 O   0  0  0  0  0  0  0  0  0  0  0  0
  130.9990  131.0950   55.2590 N   0  0  0  0  0  0  0  0  0  0  0  0
  132.1140  131.5710   56.0770 C   0  0  0  0  0  0  0  0  0  0  0  0
  131.8540  131.3640   57.5640 C   0  0  0  0  0  0  0  0  0  0  0  0
  130.5620  131.5180   58.0780 C   0  0  0  0  0  0  0  0  0  0  0  0
  130.3250  131.3390   59.4370 C   0  0  0  0  0  0  0  0  0  0  0  0
  131.3800  130.9920   60.2800 C   0  0  0  0  0  0  0  0  0  0  0  0
  132.6660  130.8170   59.7740 C   0  0  0  0  0  0  0  0  0  0  0  0
  132.9020  130.9970   58.4130 C   0  0  0  0  0  0  0  0  0  0  0  0
  129.2860  127.4650   55.9080 C   0  0  0  0  0  0  0  0  0  0  0  0
  130.2490  126.7160   55.0950 C   0  0  0  0  0  0  0  0  0  0  0  0
  131.0090  126.1240   54.4550 N   0  0  0  0  0  0  0  0  0  0  0  0
  129.4903  125.8264   58.9128 H   0  0  0  0  0  0  0  0  0  0  0  0
  128.9436  124.8756   57.4902 H   0  0  0  0  0  0  0  0  0  0  0  0
  130.5705  125.6370   57.4902 H   0  0  0  0  0  0  0  0  0  0  0  0
  127.7375  127.4154   58.9613 H   0  0  0  0  0  0  0  0  0  0  0  0
  127.9350  130.4939   59.6226 H   0  0  0  0  0  0  0  0  0  0  0  0
  126.3227  131.9198   60.8622 H   0  0  0  0  0  0  0  0  0  0  0  0
  123.9405  132.0168   60.1451 H   0  0  0  0  0  0  0  0  0  0  0  0
  123.1610  130.6654   58.2038 H   0  0  0  0  0  0  0  0  0  0  0  0
  124.7697  129.2359   56.9632 H   0  0  0  0  0  0  0  0  0  0  0  0
  129.1550  131.6148   52.9845 H   0  0  0  0  0  0  0  0  0  0  0  0
  127.8901  131.3965   54.2668 H   0  0  0  0  0  0  0  0  0  0  0  0
  131.1570  130.2340   54.7550 H   0  0  0  0  0  0  0  0  0  0  0  0
  133.0233  131.0202   55.7945 H   0  0  0  0  0  0  0  0  0  0  0  0
  132.2333  132.6497   55.8978 H   0  0  0  0  0  0  0  0  0  0  0  0
  129.7318  131.7812   57.4061 H   0  0  0  0  0  0  0  0  0  0  0  0
  129.3116  131.4704   59.8440 H   0  0  0  0  0  0  0  0  0  0  0  0
  131.1949  130.8550   61.3556 H   0  0  0  0  0  0  0  0  0  0  0  0
  133.4911  130.5380   60.4459 H   0  0  0  0  0  0  0  0  0  0  0  0
  133.9134  130.8503   58.0062 H   0  0  0  0  0  0  0  0  0  0  0  0
  1  2  1  0
  2  3  2  0
  3  4  1  0
  4  5  1  0
  5  6  2  0
  6  7  1  0
  7  8  2  0
  8  9  1  0
  9 10  2  0
  4 11  2  0
 11 12  1  0
 12 13  1  0
 13 14  1  0
 14 15  1  0
 15 16  2  0
 15 17  1  0
 17 18  1  0
 18 19  1  0
 19 20  2  0
 20 21  1  0
 21 22  2  0
 22 23  1  0
 23 24  2  0
 12 25  2  0
 25 26  1  0
 26 27  3  0
 25  2  1  0
 10  5  1  0
 24 19  1  0
  1 28  1  0
  1 29  1  0
  1 30  1  0
  3 31  1  0
  6 32  1  0
  7 33  1  0
  8 34  1  0
  9 35  1  0
 10 36  1  0
 14 37  1  0
 14 38  1  0
 17 39  1  0
 18 40  1  0
 18 41  1  0
 20 42  1  0
 21 43  1  0
 22 44  1  0
 23 45  1  0
 24 46  1  0
M  END
>  <Binding energies>  (1) 
[-8.8]

>  <Ligand effiencies>  (1) 
[-0.31428571428571433]

>  <Interactions>  (1) 
["H-B:TYR:531:OH:9767, V-A:ASP:366:CG:3212, V-A:PRO:540:N:4884, V-A:ILE:538:CA:4860, V-A:ILE:538:CG2:4863, H-B:TYR:539:OH:9850, V-A:TYR:539:CD1:4873, V-A:PRO:540:CA:4883, H-A:TYR:531:OH:4795, H-A:TYR:539:N:4870, V-A:PRO:540:CB:4885, V-A:TYR:539:CE1:4875, V-A:TYR:531:CZ:4794, V-A:ILE:538:CB:4862, V-B:ASP:366:CB:8183, V-B:ASP:366:CA:8181, V-A:TYR:539:C:4867, V-A:LEU:363:CD1:3188, V-B:ASP:366:C:8179, V-B:LYS:534:CE:9794, V-A:TYR:531:CE2:4793, V-A:LEU:363:CA:3184, V-B:ILE:369:CG2:8208"]

$$$$
3bk_Grossjean_2025
     RDKit          3D

 57 58  0  0  0  0  0  0  0  0999 V2000
  125.3950  121.6390   55.9060 C   0  0  0  0  0  0  0  0  0  0  0  0
  126.6000  121.6660   56.6550 O   0  0  0  0  0  0  0  0  0  0  0  0
  126.8000  122.8820   57.3630 C   0  0  0  0  0  0  0  0  0  0  0  0
  125.4800  123.6640   57.4260 C   0  0  0  0  0  0  0  0  0  0  0  0
  125.7490  125.0150   57.7730 O   0  0  0  0  0  0  0  0  0  0  0  0
  127.1220  125.2790   58.0320 C   0  0  0  0  0  0  0  0  0  0  0  0
  127.2360  126.4760   58.9850 C   0  0  0  0  0  0  0  0  0  0  0  0
  127.1990  127.6820   58.2340 O   0  0  0  0  0  0  0  0  0  0  0  0
  125.8960  128.2340   58.0950 C   0  0  0  0  0  0  0  0  0  0  0  0
  125.9270  129.3610   57.0520 C   0  0  0  0  0  0  0  0  0  0  0  0
  127.2920  129.7460   56.6890 N   0  0  0  0  0  0  0  0  0  0  0  0
  127.6660  130.2760   55.5120 C   0  0  0  0  0  0  0  0  0  0  0  0
  126.8840  130.5190   54.5910 O   0  0  0  0  0  0  0  0  0  0  0  0
  129.1520  130.6070   55.3540 C   0  0  0  0  0  0  0  0  0  0  0  0
  130.2080  129.4610   56.2960 S   0  0  0  0  0  0  0  0  0  0  0  0
  130.5870  130.1900   57.8810 C   0  0  0  0  0  0  0  0  0  0  0  0
  129.5230  130.6100   58.6100 N   0  0  0  0  0  0  0  0  0  0  0  0
  129.7150  131.1810   59.8290 C   0  0  0  0  0  0  0  0  0  0  0  0
  128.4850  131.5970   60.5770 C   0  0  0  0  0  0  0  0  0  0  0  0
  127.2770  131.8290   59.9000 C   0  0  0  0  0  0  0  0  0  0  0  0
  126.1320  132.2210   60.5890 C   0  0  0  0  0  0  0  0  0  0  0  0
  126.1800  132.3860   61.9690 C   0  0  0  0  0  0  0  0  0  0  0  0
  127.3630  132.1580   62.6650 C   0  0  0  0  0  0  0  0  0  0  0  0
  128.5050  131.7650   61.9720 C   0  0  0  0  0  0  0  0  0  0  0  0
  131.0040  131.3390   60.3510 C   0  0  0  0  0  0  0  0  0  0  0  0
  132.1140  130.9130   59.6120 C   0  0  0  0  0  0  0  0  0  0  0  0
  133.5020  131.1050   60.2190 C   0  0  0  0  0  0  0  0  0  0  0  0
  131.9130  130.3240   58.3460 C   0  0  0  0  0  0  0  0  0  0  0  0
  133.0560  129.8660   57.5500 C   0  0  0  0  0  0  0  0  0  0  0  0
  133.9590  129.5050   56.9220 N   0  0  0  0  0  0  0  0  0  0  0  0
  124.5364  121.6198   56.5933 H   0  0  0  0  0  0  0  0  0  0  0  0
  125.3371  122.5361   55.2720 H   0  0  0  0  0  0  0  0  0  0  0  0
  125.3774  120.7402   55.2720 H   0  0  0  0  0  0  0  0  0  0  0  0
  127.1426  122.6590   58.3842 H   0  0  0  0  0  0  0  0  0  0  0  0
  127.5585  123.4865   56.8441 H   0  0  0  0  0  0  0  0  0  0  0  0
  124.9851  123.6286   56.4443 H   0  0  0  0  0  0  0  0  0  0  0  0
  124.8216  123.2138   58.1835 H   0  0  0  0  0  0  0  0  0  0  0  0
  127.5854  124.3952   58.4947 H   0  0  0  0  0  0  0  0  0  0  0  0
  127.6381  125.5084   57.0881 H   0  0  0  0  0  0  0  0  0  0  0  0
  126.3968  126.4604   59.6959 H   0  0  0  0  0  0  0  0  0  0  0  0
  128.1849  126.4164   59.5382 H   0  0  0  0  0  0  0  0  0  0  0  0
  125.1984  127.4495   57.7667 H   0  0  0  0  0  0  0  0  0  0  0  0
  125.5635  128.6383   59.0625 H   0  0  0  0  0  0  0  0  0  0  0  0
  125.4034  129.0196   56.1469 H   0  0  0  0  0  0  0  0  0  0  0  0
  125.4357  130.2408   57.4932 H   0  0  0  0  0  0  0  0  0  0  0  0
  127.9880  129.6350   57.4110 H   0  0  0  0  0  0  0  0  0  0  0  0
  129.4192  130.5425   54.2889 H   0  0  0  0  0  0  0  0  0  0  0  0
  129.3181  131.6219   55.7443 H   0  0  0  0  0  0  0  0  0  0  0  0
  127.2344  131.6991   58.8085 H   0  0  0  0  0  0  0  0  0  0  0  0
  125.1934  132.3994   60.0438 H   0  0  0  0  0  0  0  0  0  0  0  0
  125.2770  132.6987   62.5138 H   0  0  0  0  0  0  0  0  0  0  0  0
  127.3959  132.2875   63.7569 H   0  0  0  0  0  0  0  0  0  0  0  0
  129.4380  131.5831   62.5255 H   0  0  0  0  0  0  0  0  0  0  0  0
  131.1447  131.7975   61.3410 H   0  0  0  0  0  0  0  0  0  0  0  0
  133.4269  131.0946   61.3164 H   0  0  0  0  0  0  0  0  0  0  0  0
  134.1625  130.2897   59.8889 H   0  0  0  0  0  0  0  0  0  0  0  0
  133.9164  132.0690   59.8889 H   0  0  0  0  0  0  0  0  0  0  0  0
  1  2  1  0
  2  3  1  0
  3  4  1  0
  4  5  1  0
  5  6  1  0
  6  7  1  0
  7  8  1  0
  8  9  1  0
  9 10  1  0
 10 11  1  0
 11 12  1  0
 12 13  2  0
 12 14  1  0
 14 15  1  0
 15 16  1  0
 16 17  2  0
 17 18  1  0
 18 19  1  0
 19 20  2  0
 20 21  1  0
 21 22  2  0
 22 23  1  0
 23 24  2  0
 18 25  2  0
 25 26  1  0
 26 27  1  0
 26 28  2  0
 28 29  1  0
 29 30  3  0
 28 16  1  0
 24 19  1  0
  1 31  1  0
  1 32  1  0
  1 33  1  0
  3 34  1  0
  3 35  1  0
  4 36  1  0
  4 37  1  0
  6 38  1  0
  6 39  1  0
  7 40  1  0
  7 41  1  0
  9 42  1  0
  9 43  1  0
 10 44  1  0
 10 45  1  0
 11 46  1  0
 14 47  1  0
 14 48  1  0
 20 49  1  0
 21 50  1  0
 22 51  1  0
 23 52  1  0
 24 53  1  0
 25 54  1  0
 27 55  1  0
 27 56  1  0
 27 57  1  0
M  END
>  <Binding energies>  (1) 
[-6.92]

>  <Ligand effiencies>  (1) 
[-0.2232258064516129]

>  <Interactions>  (1) 
["H-B:TYR:531:OH:9767, V-B:MET:535:CE:9807, V-B:PRO:540:N:9856, V-B:PRO:540:CA:9855, H-B:TYR:539:N:9842, V-B:TYR:531:CE2:9765, V-B:TYR:531:CZ:9766, V-B:LEU:363:CD1:8160, V-A:ASP:366:CG:3212, V-B:PRO:540:CD:9859, V-A:ASP:366:CB:3211, V-A:TYR:539:CD1:4873, V-A:PRO:540:CA:4883, H-A:TYR:531:OH:4795, V-A:TYR:539:CZ:4877, V-A:PRO:540:CB:4885, V-A:TYR:539:CE1:4875, V-B:TYR:531:CE1:9764, H-B:LYS:534:NZ:9795, V-B:ASP:366:CB:8183, V-A:ALA:541:CB:4892, V-A:PRO:540:C:4881, V-A:LEU:363:CD1:3188, H-A:TYR:539:OH:4878, V-A:LEU:363:CA:3184, V-B:ILE:538:CA:9832, V-B:ILE:538:CG2:9835, V-B:ILE:538:C:9830, V-B:ILE:538:CB:9834, V-A:ASN:362:CB:3175, V-A:ASN:362:C:3171"]

$$$$
3ca_Grossjean_2025
     RDKit          3D

 52 54  0  0  0  0  0  0  0  0999 V2000
  127.3970  128.0770   67.1140 C   0  0  0  0  0  0  0  0  0  0  0  0
  128.7500  128.6730   67.5130 C   0  0  0  0  0  0  0  0  0  0  0  0
  129.2760  127.9540   68.6220 O   0  0  0  0  0  0  0  0  0  0  0  0
  129.4260  126.6070   68.5770 C   0  0  0  0  0  0  0  0  0  0  0  0
  129.1240  125.8560   69.5100 O   0  0  0  0  0  0  0  0  0  0  0  0
  129.9920  126.1160   67.2750 C   0  0  0  0  0  0  0  0  0  0  0  0
  131.3220  126.4110   66.9520 C   0  0  0  0  0  0  0  0  0  0  0  0
  131.8750  125.9700   65.7530 C   0  0  0  0  0  0  0  0  0  0  0  0
  131.1070  125.2330   64.8490 C   0  0  0  0  0  0  0  0  0  0  0  0
  131.7640  124.8360   63.6680 N   0  0  0  0  0  0  0  0  0  0  0  0
  133.0850  124.7480   63.4050 C   0  0  0  0  0  0  0  0  0  0  0  0
  133.9890  124.9940   64.2030 O   0  0  0  0  0  0  0  0  0  0  0  0
  133.4410  124.2770   61.9900 C   0  0  0  0  0  0  0  0  0  0  0  0
  132.3650  122.9330   61.3900 S   0  0  0  0  0  0  0  0  0  0  0  0
  131.5050  123.4570   59.9130 C   0  0  0  0  0  0  0  0  0  0  0  0
  132.2420  124.1740   59.0270 N   0  0  0  0  0  0  0  0  0  0  0  0
  131.6630  124.5860   57.8780 C   0  0  0  0  0  0  0  0  0  0  0  0
  132.5560  125.3640   56.9330 C   0  0  0  0  0  0  0  0  0  0  0  0
  130.3310  124.3170   57.5720 C   0  0  0  0  0  0  0  0  0  0  0  0
  129.5440  123.5950   58.4790 C   0  0  0  0  0  0  0  0  0  0  0  0
  128.1170  123.3420   58.1140 C   0  0  0  0  0  0  0  0  0  0  0  0
  127.1050  124.1660   58.6230 C   0  0  0  0  0  0  0  0  0  0  0  0
  125.7720  123.9330   58.2960 C   0  0  0  0  0  0  0  0  0  0  0  0
  125.4440  122.8680   57.4600 C   0  0  0  0  0  0  0  0  0  0  0  0
  126.4370  122.0350   56.9520 C   0  0  0  0  0  0  0  0  0  0  0  0
  127.7690  122.2710   57.2810 C   0  0  0  0  0  0  0  0  0  0  0  0
  130.1450  123.1410   59.6810 C   0  0  0  0  0  0  0  0  0  0  0  0
  129.3850  122.3370   60.6440 C   0  0  0  0  0  0  0  0  0  0  0  0
  128.7850  121.7020   61.4030 N   0  0  0  0  0  0  0  0  0  0  0  0
  129.7760  124.9260   65.1680 C   0  0  0  0  0  0  0  0  0  0  0  0
  129.2260  125.3660   66.3690 C   0  0  0  0  0  0  0  0  0  0  0  0
  126.8258  127.8254   68.0197 H   0  0  0  0  0  0  0  0  0  0  0  0
  126.8346  128.8107   66.5178 H   0  0  0  0  0  0  0  0  0  0  0  0
  127.5587  127.1668   66.5178 H   0  0  0  0  0  0  0  0  0  0  0  0
  129.4470  128.6006   66.6651 H   0  0  0  0  0  0  0  0  0  0  0  0
  128.6182  129.7294   67.7899 H   0  0  0  0  0  0  0  0  0  0  0  0
  131.9357  126.9967   67.6522 H   0  0  0  0  0  0  0  0  0  0  0  0
  132.9235  126.2035   65.5161 H   0  0  0  0  0  0  0  0  0  0  0  0
  131.1430  124.5300   62.9340 H   0  0  0  0  0  0  0  0  0  0  0  0
  133.3493  125.1315   61.3034 H   0  0  0  0  0  0  0  0  0  0  0  0
  134.4677  123.8838   62.0244 H   0  0  0  0  0  0  0  0  0  0  0  0
  133.2598  125.9772   57.5150 H   0  0  0  0  0  0  0  0  0  0  0  0
  133.1182  124.6626   56.2990 H   0  0  0  0  0  0  0  0  0  0  0  0
  131.9383  126.0170   56.2990 H   0  0  0  0  0  0  0  0  0  0  0  0
  129.8993  124.6694   56.6236 H   0  0  0  0  0  0  0  0  0  0  0  0
  127.3656  125.0039   59.2864 H   0  0  0  0  0  0  0  0  0  0  0  0
  124.9822  124.5862   58.6955 H   0  0  0  0  0  0  0  0  0  0  0  0
  124.3914  122.6837   57.1991 H   0  0  0  0  0  0  0  0  0  0  0  0
  126.1706  121.1947   56.2941 H   0  0  0  0  0  0  0  0  0  0  0  0
  128.5544  121.6112   56.8837 H   0  0  0  0  0  0  0  0  0  0  0  0
  129.1656  124.3365   64.4680 H   0  0  0  0  0  0  0  0  0  0  0  0
  128.1806  125.1234   66.6103 H   0  0  0  0  0  0  0  0  0  0  0  0
  1  2  1  0
  2  3  1  0
  3  4  1  0
  4  5  2  0
  4  6  1  0
  6  7  2  0
  7  8  1  0
  8  9  2  0
  9 10  1  0
 10 11  1  0
 11 12  2  0
 11 13  1  0
 13 14  1  0
 14 15  1  0
 15 16  2  0
 16 17  1  0
 17 18  1  0
 17 19  2  0
 19 20  1  0
 20 21  1  0
 21 22  2  0
 22 23  1  0
 23 24  2  0
 24 25  1  0
 25 26  2  0
 20 27  2  0
 27 28  1  0
 28 29  3  0
  9 30  1  0
 30 31  2  0
 31  6  1  0
 27 15  1  0
 26 21  1  0
  1 32  1  0
  1 33  1  0
  1 34  1  0
  2 35  1  0
  2 36  1  0
  7 37  1  0
  8 38  1  0
 10 39  1  0
 13 40  1  0
 13 41  1  0
 18 42  1  0
 18 43  1  0
 18 44  1  0
 19 45  1  0
 22 46  1  0
 23 47  1  0
 24 48  1  0
 25 49  1  0
 26 50  1  0
 30 51  1  0
 31 52  1  0
M  END
>  <Binding energies>  (1) 
[-8.8]

>  <Ligand effiencies>  (1) 
[-0.275]

>  <Interactions>  (1) 
["H-B:ALA:541:N:9863, V-B:PRO:540:CB:9857, V-B:MET:535:CE:9807, V-B:TYR:539:CD2:9846, V-B:PRO:540:N:9856, V-B:PRO:540:CA:9855, V-B:TYR:539:CE2:9848, V-B:TYR:539:C:9839, V-B:LEU:363:CD1:8160, V-A:ASP:366:CG:3212, H-A:GLY:454:N:4049, V-B:PRO:540:CD:9859, V-A:ASP:366:CA:3209, V-A:ASP:366:CB:3211, V-A:ASP:366:C:3207, V-A:GLU:543:CG:4907, V-A:GLU:543:CD:4908, V-B:TYR:539:CZ:9849, H-A:ARG:545:NH2:4928, V-B:TYR:539:CG:9844, V-B:HIS:456:CE1:9041, V-A:HIS:456:CE1:4069, V-B:GLU:543:CB:9878, V-B:GLU:543:CG:9879, V-B:GLU:543:CD:9880, H-A:ARG:545:NE:4924, V-A:ARG:545:CZ:4926, H-A:ARG:545:NH1:4927, V-A:GLU:543:CB:4906"]

$$$$
3cb_Grossjean_2025
     RDKit          3D

 49 51  0  0  0  0  0  0  0  0999 V2000
  130.0570  120.8220   61.1990 C   0  0  0  0  0  0  0  0  0  0  0  0
  129.8420  121.7120   60.1140 O   0  0  0  0  0  0  0  0  0  0  0  0
  128.7250  122.4820   60.0520 C   0  0  0  0  0  0  0  0  0  0  0  0
  127.7760  122.3690   60.8330 O   0  0  0  0  0  0  0  0  0  0  0  0
  128.7570  123.4850   58.9340 C   0  0  0  0  0  0  0  0  0  0  0  0
  127.6500  123.7070   58.1020 C   0  0  0  0  0  0  0  0  0  0  0  0
  127.7120  124.6460   57.0760 C   0  0  0  0  0  0  0  0  0  0  0  0
  128.8800  125.3780   56.8560 C   0  0  0  0  0  0  0  0  0  0  0  0
  128.8310  126.3030   55.7940 N   0  0  0  0  0  0  0  0  0  0  0  0
  129.8200  126.7600   54.9950 C   0  0  0  0  0  0  0  0  0  0  0  0
  130.9980  126.4050   55.0570 O   0  0  0  0  0  0  0  0  0  0  0  0
  129.3660  127.7820   53.9410 C   0  0  0  0  0  0  0  0  0  0  0  0
  128.1950  129.0440   54.5480 S   0  0  0  0  0  0  0  0  0  0  0  0
  129.0700  130.0970   55.6870 C   0  0  0  0  0  0  0  0  0  0  0  0
  130.1700  130.6770   55.1490 N   0  0  0  0  0  0  0  0  0  0  0  0
  130.9140  131.4980   55.9230 C   0  0  0  0  0  0  0  0  0  0  0  0
  132.1230  132.1220   55.2510 C   0  0  0  0  0  0  0  0  0  0  0  0
  130.5980  131.7670   57.2510 C   0  0  0  0  0  0  0  0  0  0  0  0
  129.4740  131.1660   57.8340 C   0  0  0  0  0  0  0  0  0  0  0  0
  129.1810  131.4810   59.2650 C   0  0  0  0  0  0  0  0  0  0  0  0
  130.0680  131.0790   60.2710 C   0  0  0  0  0  0  0  0  0  0  0  0
  129.8090  131.3780   61.6070 C   0  0  0  0  0  0  0  0  0  0  0  0
  128.6580  132.0860   61.9420 C   0  0  0  0  0  0  0  0  0  0  0  0
  127.7690  132.5010   60.9550 C   0  0  0  0  0  0  0  0  0  0  0  0
  128.0320  132.2020   59.6200 C   0  0  0  0  0  0  0  0  0  0  0  0
  128.6900  130.2900   57.0390 C   0  0  0  0  0  0  0  0  0  0  0  0
  127.5600  129.5620   57.6220 C   0  0  0  0  0  0  0  0  0  0  0  0
  126.6670  128.9870   58.0810 N   0  0  0  0  0  0  0  0  0  0  0  0
  129.9900  125.1650   57.6860 C   0  0  0  0  0  0  0  0  0  0  0  0
  129.9270  124.2260   58.7130 C   0  0  0  0  0  0  0  0  0  0  0  0
  129.9264  121.3626   62.1481 H   0  0  0  0  0  0  0  0  0  0  0  0
  129.3326  119.9960   61.1448 H   0  0  0  0  0  0  0  0  0  0  0  0
  131.0786  120.4178   61.1448 H   0  0  0  0  0  0  0  0  0  0  0  0
  126.7246  123.1341   58.2615 H   0  0  0  0  0  0  0  0  0  0  0  0
  126.8343  124.8123   56.4341 H   0  0  0  0  0  0  0  0  0  0  0  0
  127.9040  126.6510   55.5950 H   0  0  0  0  0  0  0  0  0  0  0  0
  130.2588  128.2995   53.5601 H   0  0  0  0  0  0  0  0  0  0  0  0
  128.8306  127.2109   53.1682 H   0  0  0  0  0  0  0  0  0  0  0  0
  132.8233  132.4834   56.0185 H   0  0  0  0  0  0  0  0  0  0  0  0
  132.6230  131.3693   54.6237 H   0  0  0  0  0  0  0  0  0  0  0  0
  131.7991  132.9656   54.6237 H   0  0  0  0  0  0  0  0  0  0  0  0
  131.2280  132.4488   57.8412 H   0  0  0  0  0  0  0  0  0  0  0  0
  130.9781  130.5218   60.0040 H   0  0  0  0  0  0  0  0  0  0  0  0
  130.5094  131.0567   62.3920 H   0  0  0  0  0  0  0  0  0  0  0  0
  128.4494  132.3195   62.9965 H   0  0  0  0  0  0  0  0  0  0  0  0
  126.8631  133.0623   61.2276 H   0  0  0  0  0  0  0  0  0  0  0  0
  127.3329  132.5341   58.8384 H   0  0  0  0  0  0  0  0  0  0  0  0
  130.9132  125.7411   57.5256 H   0  0  0  0  0  0  0  0  0  0  0  0
  130.8038  124.0641   59.3572 H   0  0  0  0  0  0  0  0  0  0  0  0
  1  2  1  0
  2  3  1  0
  3  4  2  0
  3  5  1  0
  5  6  2  0
  6  7  1  0
  7  8  2  0
  8  9  1  0
  9 10  1  0
 10 11  2  0
 10 12  1  0
 12 13  1  0
 13 14  1  0
 14 15  2  0
 15 16  1  0
 16 17  1  0
 16 18  2  0
 18 19  1  0
 19 20  1  0
 20 21  2  0
 21 22  1  0
 22 23  2  0
 23 24  1  0
 24 25  2  0
 19 26  2  0
 26 27  1  0
 27 28  3  0
  8 29  1  0
 29 30  2  0
 30  5  1  0
 26 14  1  0
 25 20  1  0
  1 31  1  0
  1 32  1  0
  1 33  1  0
  6 34  1  0
  7 35  1  0
  9 36  1  0
 12 37  1  0
 12 38  1  0
 17 39  1  0
 17 40  1  0
 17 41  1  0
 18 42  1  0
 21 43  1  0
 22 44  1  0
 23 45  1  0
 24 46  1  0
 25 47  1  0
 29 48  1  0
 30 49  1  0
M  END
>  <Binding energies>  (1) 
[-8.08]

>  <Ligand effiencies>  (1) 
[-0.26064516129032256]

>  <Interactions>  (1) 
["H-B:ALA:541:N:9863, H-B:TYR:531:OH:9767, V-B:MET:535:CE:9807, V-B:PRO:540:CA:9855, V-B:ALA:541:CB:9864, V-A:PRO:540:N:4884, V-A:ILE:538:CG2:4863, H-B:TYR:539:OH:9850, V-A:TYR:539:CD1:4873, V-A:PRO:540:CA:4883, H-A:TYR:531:OH:4795, V-A:TYR:539:CE1:4875, V-A:ILE:538:CB:4862, V-A:ALA:541:CB:4892, V-A:TYR:539:C:4867, V-A:LEU:363:CD1:3188, V-A:GLU:543:CD:4908, H-B:MET:535:SD:9806, V-A:TYR:531:CE2:4793, V-A:MET:535:CE:4835, V-A:ALA:541:CA:4890"]

$$$$
3ce_Grossjean_2025
     RDKit          3D

 45 47  0  0  0  0  0  0  0  0999 V2000
  130.8000  131.2870   60.7570 C   0  0  0  0  0  0  0  0  0  0  0  0
  131.5810  131.0460   59.4790 C   0  0  0  0  0  0  0  0  0  0  0  0
  132.9650  130.8570   59.4920 C   0  0  0  0  0  0  0  0  0  0  0  0
  133.6160  130.6300   58.2800 C   0  0  0  0  0  0  0  0  0  0  0  0
  132.8760  130.5990   57.0950 C   0  0  0  0  0  0  0  0  0  0  0  0
  131.4940  130.8060   57.1510 C   0  0  0  0  0  0  0  0  0  0  0  0
  130.7990  130.7430   55.9310 N   0  0  0  0  0  0  0  0  0  0  0  0
  129.9210  131.6370   55.4230 C   0  0  0  0  0  0  0  0  0  0  0  0
  129.5860  132.6880   55.9710 O   0  0  0  0  0  0  0  0  0  0  0  0
  129.3290  131.2820   54.0600 C   0  0  0  0  0  0  0  0  0  0  0  0
  129.3560  129.4910   53.7530 S   0  0  0  0  0  0  0  0  0  0  0  0
  128.7920  128.7330   55.2600 C   0  0  0  0  0  0  0  0  0  0  0  0
  127.8940  129.4790   55.9480 N   0  0  0  0  0  0  0  0  0  0  0  0
  127.3900  128.9830   57.1020 C   0  0  0  0  0  0  0  0  0  0  0  0
  126.3810  129.8630   57.8140 C   0  0  0  0  0  0  0  0  0  0  0  0
  127.7690  127.7450   57.6140 C   0  0  0  0  0  0  0  0  0  0  0  0
  128.7160  126.9710   56.9300 C   0  0  0  0  0  0  0  0  0  0  0  0
  129.1090  125.6610   57.5310 C   0  0  0  0  0  0  0  0  0  0  0  0
  130.3190  125.5410   58.2250 C   0  0  0  0  0  0  0  0  0  0  0  0
  130.6950  124.3220   58.7830 C   0  0  0  0  0  0  0  0  0  0  0  0
  129.8640  123.2140   58.6430 C   0  0  0  0  0  0  0  0  0  0  0  0
  128.6620  123.3140   57.9470 C   0  0  0  0  0  0  0  0  0  0  0  0
  128.2890  124.5340   57.3910 C   0  0  0  0  0  0  0  0  0  0  0  0
  129.2440  127.4710   55.7130 C   0  0  0  0  0  0  0  0  0  0  0  0
  130.2270  126.7000   54.9460 C   0  0  0  0  0  0  0  0  0  0  0  0
  131.0020  126.0890   54.3410 N   0  0  0  0  0  0  0  0  0  0  0  0
  130.8490  131.0210   58.3360 N   0  0  0  0  0  0  0  0  0  0  0  0
  131.4461  131.0876   61.6247 H   0  0  0  0  0  0  0  0  0  0  0  0
  130.4586  132.3323   60.7865 H   0  0  0  0  0  0  0  0  0  0  0  0
  129.9290  130.6158   60.7865 H   0  0  0  0  0  0  0  0  0  0  0  0
  133.5282  130.8866   60.4364 H   0  0  0  0  0  0  0  0  0  0  0  0
  134.7050  130.4763   58.2568 H   0  0  0  0  0  0  0  0  0  0  0  0
  133.3736  130.4143   56.1315 H   0  0  0  0  0  0  0  0  0  0  0  0
  131.0620  129.9760   55.3310 H   0  0  0  0  0  0  0  0  0  0  0  0
  128.2873  131.6332   54.0227 H   0  0  0  0  0  0  0  0  0  0  0  0
  129.9405  131.7691   53.2862 H   0  0  0  0  0  0  0  0  0  0  0  0
  126.5040  129.7557   58.9018 H   0  0  0  0  0  0  0  0  0  0  0  0
  126.5439  130.9127   57.5283 H   0  0  0  0  0  0  0  0  0  0  0  0
  125.3632  129.5589   57.5283 H   0  0  0  0  0  0  0  0  0  0  0  0
  127.3270  127.3761   58.5513 H   0  0  0  0  0  0  0  0  0  0  0  0
  130.9773  126.4160   58.3302 H   0  0  0  0  0  0  0  0  0  0  0  0
  131.6443  124.2349   59.3319 H   0  0  0  0  0  0  0  0  0  0  0  0
  130.1593  122.2514   59.0859 H   0  0  0  0  0  0  0  0  0  0  0  0
  128.0113  122.4339   57.8374 H   0  0  0  0  0  0  0  0  0  0  0  0
  127.3422  124.6140   56.8369 H   0  0  0  0  0  0  0  0  0  0  0  0
  1  2  1  0
  2  3  2  0
  3  4  1  0
  4  5  2  0
  5  6  1  0
  6  7  1  0
  7  8  1  0
  8  9  2  0
  8 10  1  0
 10 11  1  0
 11 12  1  0
 12 13  2  0
 13 14  1  0
 14 15  1  0
 14 16  2  0
 16 17  1  0
 17 18  1  0
 18 19  2  0
 19 20  1  0
 20 21  2  0
 21 22  1  0
 22 23  2  0
 17 24  2  0
 24 25  1  0
 25 26  3  0
  6 27  2  0
 27  2  1  0
 24 12  1  0
 23 18  1  0
  1 28  1  0
  1 29  1  0
  1 30  1  0
  3 31  1  0
  4 32  1  0
  5 33  1  0
  7 34  1  0
 10 35  1  0
 10 36  1  0
 15 37  1  0
 15 38  1  0
 15 39  1  0
 16 40  1  0
 19 41  1  0
 20 42  1  0
 21 43  1  0
 22 44  1  0
 23 45  1  0
M  END
>  <Binding energies>  (1) 
[-8.41]

>  <Ligand effiencies>  (1) 
[-0.3003571428571429]

>  <Interactions>  (1) 
["H-B:TYR:531:OH:9767, V-B:MET:535:CE:9807, V-B:TYR:539:CD2:9846, V-B:TYR:539:CE2:9848, V-A:ASP:366:CG:3212, V-A:ILE:538:CA:4860, V-A:ASP:366:CB:3211, V-A:ILE:538:CG2:4863, H-B:TYR:539:OH:9850, V-A:PRO:540:CA:4883, H-A:TYR:531:OH:4795, H-A:TYR:539:N:4870, V-A:PRO:540:CB:4885, V-A:TYR:539:CE1:4875, V-A:TYR:531:CZ:4794, V-A:ILE:538:CB:4862, V-A:LEU:363:CD1:3188, V-B:TYR:539:CZ:9849, V-A:LEU:363:CA:3184, V-A:LEU:363:CB:3186"]

$$$$
3ch_Grossjean_2025
     RDKit          3D

 55 57  0  0  0  0  0  0  0  0999 V2000
  134.0120  123.9350   59.8170 C   0  0  0  0  0  0  0  0  0  0  0  0
  132.7210  123.8520   60.4110 O   0  0  0  0  0  0  0  0  0  0  0  0
  132.4320  124.6160   61.5270 C   0  0  0  0  0  0  0  0  0  0  0  0
  131.5010  125.6670   61.5400 C   0  0  0  0  0  0  0  0  0  0  0  0
  131.2530  126.3940   62.7140 C   0  0  0  0  0  0  0  0  0  0  0  0
  130.3370  127.4570   62.8250 N   0  0  0  0  0  0  0  0  0  0  0  0
  129.8040  128.2410   61.8630 C   0  0  0  0  0  0  0  0  0  0  0  0
  130.0320  128.1460   60.6570 O   0  0  0  0  0  0  0  0  0  0  0  0
  128.8100  129.2960   62.3470 C   0  0  0  0  0  0  0  0  0  0  0  0
  129.4700  130.9820   62.1980 S   0  0  0  0  0  0  0  0  0  0  0  0
  130.3710  131.0260   60.6640 C   0  0  0  0  0  0  0  0  0  0  0  0
  131.7170  130.9670   60.8150 N   0  0  0  0  0  0  0  0  0  0  0  0
  132.4930  131.0020   59.7080 C   0  0  0  0  0  0  0  0  0  0  0  0
  133.9890  130.9380   59.9490 C   0  0  0  0  0  0  0  0  0  0  0  0
  131.9650  131.0970   58.4230 C   0  0  0  0  0  0  0  0  0  0  0  0
  130.5750  131.1520   58.2460 C   0  0  0  0  0  0  0  0  0  0  0  0
  130.0540  131.2640   56.8490 C   0  0  0  0  0  0  0  0  0  0  0  0
  130.3230  130.2560   55.9150 C   0  0  0  0  0  0  0  0  0  0  0  0
  129.8480  130.3570   54.6100 C   0  0  0  0  0  0  0  0  0  0  0  0
  129.1030  131.4720   54.2330 C   0  0  0  0  0  0  0  0  0  0  0  0
  128.8320  132.4860   55.1480 C   0  0  0  0  0  0  0  0  0  0  0  0
  129.3100  132.3810   56.4520 C   0  0  0  0  0  0  0  0  0  0  0  0
  129.7470  131.0970   59.3960 C   0  0  0  0  0  0  0  0  0  0  0  0
  128.2870  131.0550   59.2650 C   0  0  0  0  0  0  0  0  0  0  0  0
  127.1350  131.0230   59.1630 N   0  0  0  0  0  0  0  0  0  0  0  0
  131.9600  126.0730   63.8740 C   0  0  0  0  0  0  0  0  0  0  0  0
  132.8980  125.0290   63.8850 C   0  0  0  0  0  0  0  0  0  0  0  0
  133.6250  124.6560   65.0030 O   0  0  0  0  0  0  0  0  0  0  0  0
  133.5580  125.4530   66.1800 C   0  0  0  0  0  0  0  0  0  0  0  0
  133.1260  124.3100   62.7050 C   0  0  0  0  0  0  0  0  0  0  0  0
  134.0290  123.2730   62.7080 O   0  0  0  0  0  0  0  0  0  0  0  0
  133.4310  121.9850   62.6560 C   0  0  0  0  0  0  0  0  0  0  0  0
  134.7764  123.9841   60.6065 H   0  0  0  0  0  0  0  0  0  0  0  0
  134.1862  123.0462   59.1928 H   0  0  0  0  0  0  0  0  0  0  0  0
  134.0710  124.8388   59.1928 H   0  0  0  0  0  0  0  0  0  0  0  0
  130.9591  125.9237   60.6178 H   0  0  0  0  0  0  0  0  0  0  0  0
  130.0070  127.6220   63.7650 H   0  0  0  0  0  0  0  0  0  0  0  0
  127.8924  129.2205   61.7450 H   0  0  0  0  0  0  0  0  0  0  0  0
  128.6079  129.1058   63.4114 H   0  0  0  0  0  0  0  0  0  0  0  0
  134.1860  130.9296   61.0312 H   0  0  0  0  0  0  0  0  0  0  0  0
  134.3946  130.0217   59.4953 H   0  0  0  0  0  0  0  0  0  0  0  0
  134.4714  131.8163   59.4953 H   0  0  0  0  0  0  0  0  0  0  0  0
  132.6349  131.1287   57.5511 H   0  0  0  0  0  0  0  0  0  0  0  0
  130.9139  129.3779   56.2144 H   0  0  0  0  0  0  0  0  0  0  0  0
  130.0598  129.5609   53.8810 H   0  0  0  0  0  0  0  0  0  0  0  0
  128.7253  131.5522   53.2030 H   0  0  0  0  0  0  0  0  0  0  0  0
  128.2442  133.3643   54.8429 H   0  0  0  0  0  0  0  0  0  0  0  0
  129.1011  133.1826   57.1758 H   0  0  0  0  0  0  0  0  0  0  0  0
  131.7791  126.6476   64.7944 H   0  0  0  0  0  0  0  0  0  0  0  0
  133.6126  124.8036   67.0662 H   0  0  0  0  0  0  0  0  0  0  0  0
  134.3998  126.1610   66.1918 H   0  0  0  0  0  0  0  0  0  0  0  0
  132.6098  126.0105   66.1918 H   0  0  0  0  0  0  0  0  0  0  0  0
  133.2607  121.6182   63.6790 H   0  0  0  0  0  0  0  0  0  0  0  0
  132.4701  122.0481   62.1244 H   0  0  0  0  0  0  0  0  0  0  0  0
  134.0993  121.2916   62.1244 H   0  0  0  0  0  0  0  0  0  0  0  0
  1  2  1  0
  2  3  1  0
  3  4  2  0
  4  5  1  0
  5  6  1  0
  6  7  1  0
  7  8  2  0
  7  9  1  0
  9 10  1  0
 10 11  1  0
 11 12  2  0
 12 13  1  0
 13 14  1  0
 13 15  2  0
 15 16  1  0
 16 17  1  0
 17 18  2  0
 18 19  1  0
 19 20  2  0
 20 21  1  0
 21 22  2  0
 16 23  2  0
 23 24  1  0
 24 25  3  0
  5 26  2  0
 26 27  1  0
 27 28  1  0
 28 29  1  0
 27 30  2  0
 30 31  1  0
 31 32  1  0
 30  3  1  0
 23 11  1  0
 22 17  1  0
  1 33  1  0
  1 34  1  0
  1 35  1  0
  4 36  1  0
  6 37  1  0
  9 38  1  0
  9 39  1  0
 14 40  1  0
 14 41  1  0
 14 42  1  0
 15 43  1  0
 18 44  1  0
 19 45  1  0
 20 46  1  0
 21 47  1  0
 22 48  1  0
 26 49  1  0
 29 50  1  0
 29 51  1  0
 29 52  1  0
 32 53  1  0
 32 54  1  0
 32 55  1  0
M  END
>  <Binding energies>  (1) 
[-7.67]

>  <Ligand effiencies>  (1) 
[-0.23242424242424242]

>  <Interactions>  (1) 
["V-A:ILE:369:CG2:3236, V-A:LEU:475:CD1:4257, H-A:TYR:484:OH:4347, V-A:ASP:366:CG:3212, H-A:GLY:454:N:4049, V-A:PRO:540:N:4884, V-A:ILE:538:CA:4860, V-A:ASP:366:CA:3209, V-A:ASP:366:CB:3211, V-A:TYR:539:CG:4872, V-A:ILE:538:CG2:4863, V-A:TYR:539:CD1:4873, V-A:TYR:539:CE2:4876, V-A:PRO:540:CA:4883, V-A:TYR:539:CZ:4877, V-A:TYR:539:CD2:4874, V-A:PRO:540:CB:4885, V-A:TYR:539:CE1:4875, V-A:ILE:538:CB:4862, V-A:TYR:539:C:4867, V-A:GLU:543:CD:4908, V-A:ILE:369:CD1:3238, V-A:ILE:369:CB:3235, V-A:ARG:545:CD:4923, V-A:ARG:545:CG:4922, V-A:ARG:545:CZ:4926, V-A:ILE:538:C:4858, V-A:LEU:363:CA:3184, V-A:LEU:363:CB:3186, V-A:TYR:539:CA:4869, H-A:GLU:543:OE1:4909, H-A:GLU:543:OE2:4910, V-A:GLY:454:CA:4048, V-A:ASN:362:CB:3175, V-A:ASN:362:C:3171"]

$$$$
3ci_Grossjean_2025
     RDKit          3D

 39 41  0  0  0  0  0  0  0  0999 V2000
  129.8720  123.4890   65.1130 C   0  0  0  0  0  0  0  0  0  0  0  0
  129.7030  123.1380   63.6470 C   0  0  0  0  0  0  0  0  0  0  0  0
  130.3390  122.0360   63.0810 C   0  0  0  0  0  0  0  0  0  0  0  0
  130.1380  121.7430   61.7250 C   0  0  0  0  0  0  0  0  0  0  0  0
  130.8280  120.5420   61.1640 C   0  0  0  0  0  0  0  0  0  0  0  0
  130.2670  119.2660   61.2980 C   0  0  0  0  0  0  0  0  0  0  0  0
  130.9180  118.1490   60.7810 C   0  0  0  0  0  0  0  0  0  0  0  0
  132.1390  118.3030   60.1320 C   0  0  0  0  0  0  0  0  0  0  0  0
  132.7150  119.5640   59.9980 C   0  0  0  0  0  0  0  0  0  0  0  0
  132.0610  120.6790   60.5150 C   0  0  0  0  0  0  0  0  0  0  0  0
  129.2950  122.5960   60.9680 C   0  0  0  0  0  0  0  0  0  0  0  0
  129.0830  122.3640   59.5350 C   0  0  0  0  0  0  0  0  0  0  0  0
  128.9150  122.1790   58.4040 N   0  0  0  0  0  0  0  0  0  0  0  0
  128.6840  123.6920   61.6240 C   0  0  0  0  0  0  0  0  0  0  0  0
  127.5870  124.8180   60.7720 S   0  0  0  0  0  0  0  0  0  0  0  0
  125.8730  124.2130   60.9040 C   0  0  0  0  0  0  0  0  0  0  0  0
  125.3600  123.5530   59.6190 C   0  0  0  0  0  0  0  0  0  0  0  0
  124.1670  123.2600   59.5270 O   0  0  0  0  0  0  0  0  0  0  0  0
  126.2910  123.3240   58.6660 N   0  0  0  0  0  0  0  0  0  0  0  0
  126.0890  122.7690   57.4090 C   0  0  0  0  0  0  0  0  0  0  0  0
  125.3120  123.3790   56.4250 C   0  0  0  0  0  0  0  0  0  0  0  0
  125.3610  122.5220   55.3480 C   0  0  0  0  0  0  0  0  0  0  0  0
  126.1280  121.4530   55.6690 O   0  0  0  0  0  0  0  0  0  0  0  0
  126.5820  121.6200   56.9780 N   0  0  0  0  0  0  0  0  0  0  0  0
  128.8950  123.9560   62.9380 N   0  0  0  0  0  0  0  0  0  0  0  0
  129.4780  122.6708   65.7337 H   0  0  0  0  0  0  0  0  0  0  0  0
  130.9395  123.6358   65.3342 H   0  0  0  0  0  0  0  0  0  0  0  0
  129.3210  124.4150   65.3342 H   0  0  0  0  0  0  0  0  0  0  0  0
  130.9946  121.3998   63.6938 H   0  0  0  0  0  0  0  0  0  0  0  0
  129.3041  119.1451   61.8159 H   0  0  0  0  0  0  0  0  0  0  0  0
  130.4693  117.1501   60.8851 H   0  0  0  0  0  0  0  0  0  0  0  0
  132.6536  117.4217   59.7214 H   0  0  0  0  0  0  0  0  0  0  0  0
  133.6819  119.6784   59.4862 H   0  0  0  0  0  0  0  0  0  0  0  0
  132.5164  121.6751   60.4128 H   0  0  0  0  0  0  0  0  0  0  0  0
  125.8255  123.4748   61.7181 H   0  0  0  0  0  0  0  0  0  0  0  0
  125.2340  125.0871   61.0977 H   0  0  0  0  0  0  0  0  0  0  0  0
  127.2380  123.6060   58.8680 H   0  0  0  0  0  0  0  0  0  0  0  0
  124.7760  124.3371   56.4940 H   0  0  0  0  0  0  0  0  0  0  0  0
  124.8581  122.6803   54.3826 H   0  0  0  0  0  0  0  0  0  0  0  0
  1  2  1  0
  2  3  2  0
  3  4  1  0
  4  5  1  0
  5  6  2  0
  6  7  1  0
  7  8  2  0
  8  9  1  0
  9 10  2  0
  4 11  2  0
 11 12  1  0
 12 13  3  0
 11 14  1  0
 14 15  1  0
 15 16  1  0
 16 17  1  0
 17 18  2  0
 17 19  1  0
 19 20  1  0
 20 21  1  0
 21 22  2  0
 22 23  1  0
 23 24  1  0
 14 25  2  0
 25  2  1  0
 10  5  1  0
 24 20  2  0
  1 26  1  0
  1 27  1  0
  1 28  1  0
  3 29  1  0
  6 30  1  0
  7 31  1  0
  8 32  1  0
  9 33  1  0
 10 34  1  0
 16 35  1  0
 16 36  1  0
 19 37  1  0
 21 38  1  0
 22 39  1  0
M  END
>  <Binding energies>  (1) 
[-8.16]

>  <Ligand effiencies>  (1) 
[-0.31384615384615383]

>  <Interactions>  (1) 
["V-B:PRO:540:CB:9857, V-B:MET:535:CE:9807, V-A:ILE:369:CG2:3236, V-B:TYR:539:CD2:9846, V-B:PRO:540:N:9856, V-A:LEU:475:CD1:4257, V-B:PRO:540:CA:9855, H-B:TYR:539:N:9842, V-B:ALA:541:CB:9864, V-B:TYR:539:CE2:9848, V-B:MET:535:CG:9805, V-B:TYR:539:C:9839, V-B:TYR:531:CE2:9765, V-A:PRO:482:CG:4326, V-B:TYR:531:CZ:9766, V-B:LEU:363:CD1:8160, V-A:TYR:484:CZ:4346, V-B:GLU:543:CG:9879, V-B:GLU:543:CD:9880, V-A:TYR:484:CE2:4345, H-B:LEU:363:N:8157, V-A:HIS:383:CD2:3391"]

$$$$
3cj_Grossjean_2025
     RDKit          3D

 39 41  0  0  0  0  0  0  0  0999 V2000
  126.3560  129.9300   57.9660 C   0  0  0  0  0  0  0  0  0  0  0  0
  127.3640  129.0410   57.2630 C   0  0  0  0  0  0  0  0  0  0  0  0
  127.6450  127.7550   57.7200 C   0  0  0  0  0  0  0  0  0  0  0  0
  128.5670  126.9600   57.0250 C   0  0  0  0  0  0  0  0  0  0  0  0
  128.7880  125.5670   57.5120 C   0  0  0  0  0  0  0  0  0  0  0  0
  130.0080  125.2030   58.0950 C   0  0  0  0  0  0  0  0  0  0  0  0
  130.2180  123.8990   58.5370 C   0  0  0  0  0  0  0  0  0  0  0  0
  129.2090  122.9520   58.3910 C   0  0  0  0  0  0  0  0  0  0  0  0
  127.9940  123.2960   57.8050 C   0  0  0  0  0  0  0  0  0  0  0  0
  127.7860  124.6010   57.3640 C   0  0  0  0  0  0  0  0  0  0  0  0
  129.2110  127.5100   55.8900 C   0  0  0  0  0  0  0  0  0  0  0  0
  130.2070  126.7380   55.1390 C   0  0  0  0  0  0  0  0  0  0  0  0
  130.9910  126.1280   54.5450 N   0  0  0  0  0  0  0  0  0  0  0  0
  128.8620  128.8210   55.4960 C   0  0  0  0  0  0  0  0  0  0  0  0
  129.4950  129.5810   54.0150 S   0  0  0  0  0  0  0  0  0  0  0  0
  129.4910  131.3680   54.3690 C   0  0  0  0  0  0  0  0  0  0  0  0
  130.2360  131.6940   55.6670 C   0  0  0  0  0  0  0  0  0  0  0  0
  129.9210  132.6960   56.3130 O   0  0  0  0  0  0  0  0  0  0  0  0
  131.1850  130.8040   56.0290 N   0  0  0  0  0  0  0  0  0  0  0  0
  131.9020  130.7950   57.2150 C   0  0  0  0  0  0  0  0  0  0  0  0
  133.1940  130.6090   57.3770 N   0  0  0  0  0  0  0  0  0  0  0  0
  133.5390  130.6980   58.6460 C   0  0  0  0  0  0  0  0  0  0  0  0
  132.5120  130.9600   59.5480 C   0  0  0  0  0  0  0  0  0  0  0  0
  131.0150  131.0960   58.6750 S   0  0  0  0  0  0  0  0  0  0  0  0
  127.9480  129.5680   56.1640 N   0  0  0  0  0  0  0  0  0  0  0  0
  126.4728  129.8270   59.0549 H   0  0  0  0  0  0  0  0  0  0  0  0
  126.5261  130.9775   57.6765 H   0  0  0  0  0  0  0  0  0  0  0  0
  125.3380  129.6303   57.6765 H   0  0  0  0  0  0  0  0  0  0  0  0
  127.1466  127.3662   58.6202 H   0  0  0  0  0  0  0  0  0  0  0  0
  130.8060  125.9521   58.2047 H   0  0  0  0  0  0  0  0  0  0  0  0
  131.1763  123.6193   58.9990 H   0  0  0  0  0  0  0  0  0  0  0  0
  129.3729  121.9224   58.7417 H   0  0  0  0  0  0  0  0  0  0  0  0
  127.2021  122.5411   57.6907 H   0  0  0  0  0  0  0  0  0  0  0  0
  126.8284  124.8739   56.8966 H   0  0  0  0  0  0  0  0  0  0  0  0
  129.9785  131.8967   53.5366 H   0  0  0  0  0  0  0  0  0  0  0  0
  128.4458  131.6905   54.4852 H   0  0  0  0  0  0  0  0  0  0  0  0
  131.3360  130.0130   55.4200 H   0  0  0  0  0  0  0  0  0  0  0  0
  134.5814  130.5721   58.9741 H   0  0  0  0  0  0  0  0  0  0  0  0
  132.6287  131.0641   60.6368 H   0  0  0  0  0  0  0  0  0  0  0  0
  1  2  1  0
  2  3  2  0
  3  4  1  0
  4  5  1  0
  5  6  2  0
  6  7  1  0
  7  8  2  0
  8  9  1  0
  9 10  2  0
  4 11  2  0
 11 12  1  0
 12 13  3  0
 11 14  1  0
 14 15  1  0
 15 16  1  0
 16 17  1  0
 17 18  2  0
 17 19  1  0
 19 20  1  0
 20 21  2  0
 21 22  1  0
 22 23  2  0
 23 24  1  0
 14 25  2  0
 25  2  1  0
 10  5  1  0
 24 20  1  0
  1 26  1  0
  1 27  1  0
  1 28  1  0
  3 29  1  0
  6 30  1  0
  7 31  1  0
  8 32  1  0
  9 33  1  0
 10 34  1  0
 16 35  1  0
 16 36  1  0
 19 37  1  0
 22 38  1  0
 23 39  1  0
M  END
>  <Binding energies>  (1) 
[-7.84]

>  <Ligand effiencies>  (1) 
[-0.30153846153846153]

>  <Interactions>  (1) 
["H-B:TYR:531:OH:9767, V-B:MET:535:CE:9807, V-B:TYR:539:CD2:9846, V-B:TYR:539:CE2:9848, V-A:ASP:366:CG:3212, V-A:ILE:538:CA:4860, V-A:ASP:366:CB:3211, V-A:ILE:538:CG2:4863, H-B:TYR:539:OH:9850, V-A:PRO:540:CA:4883, H-A:TYR:531:OH:4795, H-A:TYR:539:N:4870, V-A:PRO:540:CB:4885, V-A:TYR:539:CE1:4875, V-A:ILE:538:CB:4862, V-A:LEU:363:CD1:3188, V-B:TYR:539:CZ:9849, V-A:LEU:363:CA:3184, V-A:LEU:363:CB:3186"]

$$$$
3ck_Grossjean_2025
     RDKit          3D

 57 58  0  0  0  0  0  0  0  0999 V2000
  127.6430  129.2630   54.5640 C   0  0  0  0  0  0  0  0  0  0  0  0
  127.7810  130.5790   54.0510 O   0  0  0  0  0  0  0  0  0  0  0  0
  129.0580  131.1500   54.2940 C   0  0  0  0  0  0  0  0  0  0  0  0
  128.8930  132.4780   55.0440 C   0  0  0  0  0  0  0  0  0  0  0  0
  129.7740  132.5010   56.1600 O   0  0  0  0  0  0  0  0  0  0  0  0
  129.1400  132.2240   57.4010 C   0  0  0  0  0  0  0  0  0  0  0  0
  130.1920  131.7300   58.4020 C   0  0  0  0  0  0  0  0  0  0  0  0
  129.8730  130.3950   58.7640 O   0  0  0  0  0  0  0  0  0  0  0  0
  130.8880  129.7150   59.4880 C   0  0  0  0  0  0  0  0  0  0  0  0
  130.4050  129.4490   60.9260 C   0  0  0  0  0  0  0  0  0  0  0  0
  131.0460  128.2930   61.5590 N   0  0  0  0  0  0  0  0  0  0  0  0
  130.4660  127.1000   61.7830 C   0  0  0  0  0  0  0  0  0  0  0  0
  129.3090  126.8370   61.4470 O   0  0  0  0  0  0  0  0  0  0  0  0
  131.3470  126.0580   62.4920 C   0  0  0  0  0  0  0  0  0  0  0  0
  131.0700  124.3250   61.9880 S   0  0  0  0  0  0  0  0  0  0  0  0
  130.5770  124.2860   60.2710 C   0  0  0  0  0  0  0  0  0  0  0  0
  131.4770  124.7950   59.3920 N   0  0  0  0  0  0  0  0  0  0  0  0
  131.1680  124.8020   58.0760 C   0  0  0  0  0  0  0  0  0  0  0  0
  132.2200  125.3880   57.1550 C   0  0  0  0  0  0  0  0  0  0  0  0
  129.9620  124.3070   57.5860 C   0  0  0  0  0  0  0  0  0  0  0  0
  129.0150  123.7830   58.4760 C   0  0  0  0  0  0  0  0  0  0  0  0
  127.7270  123.2850   57.9080 C   0  0  0  0  0  0  0  0  0  0  0  0
  127.7020  122.1150   57.1390 C   0  0  0  0  0  0  0  0  0  0  0  0
  126.5050  121.6510   56.5980 C   0  0  0  0  0  0  0  0  0  0  0  0
  125.3280  122.3610   56.8190 C   0  0  0  0  0  0  0  0  0  0  0  0
  125.3380  123.5310   57.5740 C   0  0  0  0  0  0  0  0  0  0  0  0
  126.5350  123.9920   58.1140 C   0  0  0  0  0  0  0  0  0  0  0  0
  129.3320  123.7580   59.8590 C   0  0  0  0  0  0  0  0  0  0  0  0
  128.3970  123.1830   60.8320 C   0  0  0  0  0  0  0  0  0  0  0  0
  127.6590  122.7280   61.5990 N   0  0  0  0  0  0  0  0  0  0  0  0
  127.6464  129.2958   55.6635 H   0  0  0  0  0  0  0  0  0  0  0  0
  126.6945  128.8302   54.2131 H   0  0  0  0  0  0  0  0  0  0  0  0
  128.4810  128.6429   54.2131 H   0  0  0  0  0  0  0  0  0  0  0  0
  129.6588  130.4580   54.9025 H   0  0  0  0  0  0  0  0  0  0  0  0
  129.5654  131.3323   53.3352 H   0  0  0  0  0  0  0  0  0  0  0  0
  129.1329  133.3131   54.3694 H   0  0  0  0  0  0  0  0  0  0  0  0
  127.8545  132.5773   55.3927 H   0  0  0  0  0  0  0  0  0  0  0  0
  128.6668  133.1396   57.7855 H   0  0  0  0  0  0  0  0  0  0  0  0
  128.3704  131.4508   57.2599 H   0  0  0  0  0  0  0  0  0  0  0  0
  131.1892  131.7613   57.9388 H   0  0  0  0  0  0  0  0  0  0  0  0
  130.1963  132.3731   59.2944 H   0  0  0  0  0  0  0  0  0  0  0  0
  131.1119  128.7581   58.9939 H   0  0  0  0  0  0  0  0  0  0  0  0
  131.7958  130.3356   59.5159 H   0  0  0  0  0  0  0  0  0  0  0  0
  130.6181  130.3404   61.5343 H   0  0  0  0  0  0  0  0  0  0  0  0
  129.3291  129.2277   60.8677 H   0  0  0  0  0  0  0  0  0  0  0  0
  132.0030  128.4220   61.8520 H   0  0  0  0  0  0  0  0  0  0  0  0
  132.3987  126.3070   62.2872 H   0  0  0  0  0  0  0  0  0  0  0  0
  131.0798  126.1101   63.5578 H   0  0  0  0  0  0  0  0  0  0  0  0
  133.0248  125.8363   57.7560 H   0  0  0  0  0  0  0  0  0  0  0  0
  132.6363  124.5918   56.5204 H   0  0  0  0  0  0  0  0  0  0  0  0
  131.7622  126.1611   56.5204 H   0  0  0  0  0  0  0  0  0  0  0  0
  129.7540  124.3273   56.5060 H   0  0  0  0  0  0  0  0  0  0  0  0
  128.6339  121.5584   56.9609 H   0  0  0  0  0  0  0  0  0  0  0  0
  126.4899  120.7283   55.9993 H   0  0  0  0  0  0  0  0  0  0  0  0
  124.3821  121.9946   56.3936 H   0  0  0  0  0  0  0  0  0  0  0  0
  124.4046  124.0880   57.7427 H   0  0  0  0  0  0  0  0  0  0  0  0
  126.5453  124.9184   58.7070 H   0  0  0  0  0  0  0  0  0  0  0  0
  1  2  1  0
  2  3  1  0
  3  4  1  0
  4  5  1  0
  5  6  1  0
  6  7  1  0
  7  8  1  0
  8  9  1  0
  9 10  1  0
 10 11  1  0
 11 12  1  0
 12 13  2  0
 12 14  1  0
 14 15  1  0
 15 16  1  0
 16 17  2  0
 17 18  1  0
 18 19  1  0
 18 20  2  0
 20 21  1  0
 21 22  1  0
 22 23  2  0
 23 24  1  0
 24 25  2  0
 25 26  1  0
 26 27  2  0
 21 28  2  0
 28 29  1  0
 29 30  3  0
 28 16  1  0
 27 22  1  0
  1 31  1  0
  1 32  1  0
  1 33  1  0
  3 34  1  0
  3 35  1  0
  4 36  1  0
  4 37  1  0
  6 38  1  0
  6 39  1  0
  7 40  1  0
  7 41  1  0
  9 42  1  0
  9 43  1  0
 10 44  1  0
 10 45  1  0
 11 46  1  0
 14 47  1  0
 14 48  1  0
 19 49  1  0
 19 50  1  0
 19 51  1  0
 20 52  1  0
 23 53  1  0
 24 54  1  0
 25 55  1  0
 26 56  1  0
 27 57  1  0
M  END
>  <Binding energies>  (1) 
[-7.13]

>  <Ligand effiencies>  (1) 
[-0.23]

>  <Interactions>  (1) 
["H-B:ALA:541:N:9863, V-B:PRO:540:CB:9857, V-B:MET:535:CE:9807, V-B:TYR:539:CD2:9846, V-B:PRO:540:N:9856, V-B:PRO:540:CA:9855, V-B:TYR:539:CE2:9848, V-B:TYR:539:C:9839, V-B:TYR:531:CE2:9765, V-B:TYR:531:CZ:9766, V-B:LEU:363:CD1:8160, V-B:TYR:539:CA:9841, V-A:ASP:366:CG:3212, V-B:PRO:540:CD:9859, V-A:PRO:540:N:4884, V-A:ILE:538:CA:4860, V-A:ASP:366:CB:3211, V-A:TYR:539:CG:4872, V-A:ILE:538:CG2:4863, V-A:TYR:539:CD1:4873, V-A:TYR:539:CE2:4876, V-A:PRO:540:CA:4883, H-A:TYR:539:N:4870, V-A:TYR:539:CZ:4877, V-A:TYR:539:CD2:4874, V-A:TYR:539:CE1:4875, V-A:ILE:538:CB:4862, V-B:TYR:531:CE1:9764, H-B:LYS:534:NZ:9795, V-A:TYR:539:C:4867, V-A:GLU:543:CD:4908, H-A:ASP:366:OD2:3214, V-B:TYR:539:CZ:9849, H-A:TYR:539:OH:4878, V-B:TYR:539:CG:9844, V-B:TYR:539:CD1:9845, V-A:ILE:538:C:4858, V-A:TYR:539:CA:4869, H-A:GLU:543:OE1:4909, H-A:GLU:543:OE2:4910, H-A:ASP:366:OD1:3213"]

$$$$
4aa_Grossjean_2025
     RDKit          3D

 45 47  0  0  0  0  0  0  0  0999 V2000
  130.8220  126.2520   67.4130 C   0  0  0  0  0  0  0  0  0  0  0  0
  132.2440  126.7410   67.1200 C   0  0  0  0  0  0  0  0  0  0  0  0
  133.0960  125.6200   66.9160 O   0  0  0  0  0  0  0  0  0  0  0  0
  133.6310  125.3590   65.6960 C   0  0  0  0  0  0  0  0  0  0  0  0
  134.8450  125.3640   65.4700 O   0  0  0  0  0  0  0  0  0  0  0  0
  132.5980  125.0660   64.6460 C   0  0  0  0  0  0  0  0  0  0  0  0
  132.4810  123.7610   64.1480 C   0  0  0  0  0  0  0  0  0  0  0  0
  131.5370  123.4590   63.1700 C   0  0  0  0  0  0  0  0  0  0  0  0
  130.6860  124.4500   62.6780 C   0  0  0  0  0  0  0  0  0  0  0  0
  129.7750  124.0360   61.6870 N   0  0  0  0  0  0  0  0  0  0  0  0
  128.7510  123.1520   61.7550 C   0  0  0  0  0  0  0  0  0  0  0  0
  128.4690  122.4960   62.7590 O   0  0  0  0  0  0  0  0  0  0  0  0
  127.9830  122.9890   60.5200 C   0  0  0  0  0  0  0  0  0  0  0  0
  128.6100  121.9910   59.2050 S   0  0  0  0  0  0  0  0  0  0  0  0
  127.2220  122.3530   58.2050 C   0  0  0  0  0  0  0  0  0  0  0  0
  127.0880  121.8520   56.9760 N   0  0  0  0  0  0  0  0  0  0  0  0
  125.9670  122.2150   56.3050 C   0  0  0  0  0  0  0  0  0  0  0  0
  125.8360  121.6380   54.9070 C   0  0  0  0  0  0  0  0  0  0  0  0
  124.9870  123.0550   56.8300 C   0  0  0  0  0  0  0  0  0  0  0  0
  125.1310  123.5770   58.1190 C   0  0  0  0  0  0  0  0  0  0  0  0
  124.0340  124.4890   58.6490 C   0  0  0  0  0  0  0  0  0  0  0  0
  126.2950  123.2230   58.8530 C   0  0  0  0  0  0  0  0  0  0  0  0
  126.7550  123.5740   60.1700 C   0  0  0  0  0  0  0  0  0  0  0  0
  126.0420  124.4050   60.9970 N   0  0  0  0  0  0  0  0  0  0  0  0
  130.7990  125.7590   63.1670 C   0  0  0  0  0  0  0  0  0  0  0  0
  131.7470  126.0610   64.1430 C   0  0  0  0  0  0  0  0  0  0  0  0
  130.6692  126.1995   68.5011 H   0  0  0  0  0  0  0  0  0  0  0  0
  130.0958  126.9520   66.9742 H   0  0  0  0  0  0  0  0  0  0  0  0
  130.6799  125.2534   66.9742 H   0  0  0  0  0  0  0  0  0  0  0  0
  132.2379  127.3669   66.2154 H   0  0  0  0  0  0  0  0  0  0  0  0
  132.6121  127.3325   67.9713 H   0  0  0  0  0  0  0  0  0  0  0  0
  133.1403  122.9690   64.5329 H   0  0  0  0  0  0  0  0  0  0  0  0
  131.4614  122.4323   62.7824 H   0  0  0  0  0  0  0  0  0  0  0  0
  129.9270  124.4630   60.7840 H   0  0  0  0  0  0  0  0  0  0  0  0
  125.5929  120.5673   54.9736 H   0  0  0  0  0  0  0  0  0  0  0  0
  125.0342  122.1632   54.3672 H   0  0  0  0  0  0  0  0  0  0  0  0
  126.7859  121.7655   54.3672 H   0  0  0  0  0  0  0  0  0  0  0  0
  124.1001  123.3074   56.2303 H   0  0  0  0  0  0  0  0  0  0  0  0
  124.0474  124.4778   59.7489 H   0  0  0  0  0  0  0  0  0  0  0  0
  124.2050  125.5148   58.2906 H   0  0  0  0  0  0  0  0  0  0  0  0
  123.0567  124.1335   58.2906 H   0  0  0  0  0  0  0  0  0  0  0  0
  125.6860  125.2950   60.6800 H   0  0  0  0  0  0  0  0  0  0  0  0
  125.8500  124.1530   61.9570 H   0  0  0  0  0  0  0  0  0  0  0  0
  130.1385  126.5489   62.7798 H   0  0  0  0  0  0  0  0  0  0  0  0
  131.8286  127.0902   64.5227 H   0  0  0  0  0  0  0  0  0  0  0  0
  1  2  1  0
  2  3  1  0
  3  4  1  0
  4  5  2  0
  4  6  1  0
  6  7  2  0
  7  8  1  0
  8  9  2  0
  9 10  1  0
 10 11  1  0
 11 12  2  0
 11 13  1  0
 13 14  1  0
 14 15  1  0
 15 16  2  0
 16 17  1  0
 17 18  1  0
 17 19  2  0
 19 20  1  0
 20 21  1  0
 20 22  2  0
 22 23  1  0
 23 24  1  0
  9 25  1  0
 25 26  2  0
 26  6  1  0
 23 13  2  0
 22 15  1  0
  1 27  1  0
  1 28  1  0
  1 29  1  0
  2 30  1  0
  2 31  1  0
  7 32  1  0
  8 33  1  0
 10 34  1  0
 18 35  1  0
 18 36  1  0
 18 37  1  0
 19 38  1  0
 21 39  1  0
 21 40  1  0
 21 41  1  0
 24 42  1  0
 24 43  1  0
 25 44  1  0
 26 45  1  0
M  END
>  <Binding energies>  (1) 
[-7.36]

>  <Ligand effiencies>  (1) 
[-0.2537931034482759]

>  <Interactions>  (1) 
["H-B:ALA:541:N:9863, V-B:PRO:540:CB:9857, V-B:MET:535:CE:9807, V-B:TYR:539:CD2:9846, V-B:PRO:540:N:9856, V-B:PRO:540:CA:9855, H-B:TYR:539:N:9842, V-B:TYR:539:CE2:9848, V-B:MET:535:CG:9805, V-B:TYR:539:C:9839, V-B:TYR:531:CE2:9765, V-B:LEU:363:CD1:8160, H-A:TYR:484:OH:4347, H-A:GLY:454:N:4049, V-B:PRO:540:CD:9859, V-B:ASP:366:CG:8184, V-B:ASP:366:CB:8183, V-A:GLU:543:CD:4908, V-B:LEU:363:CA:8156, V-A:HIS:456:CE1:4069, V-A:ARG:545:CD:4923, H-B:GLU:543:OE1:9881, H-B:GLU:543:OE2:9882, H-A:ARG:545:NE:4924, V-A:ARG:545:CG:4922, V-A:ARG:545:CZ:4926, H-A:ARG:545:NH1:4927, V-B:ILE:538:CA:9832, V-B:ILE:538:CG1:9836, V-B:ILE:538:CG2:9835, H-B:ASP:366:OD1:8185, V-B:ILE:538:C:9830, V-B:ILE:538:CB:9834, V-A:GLY:454:CA:4048, V-B:MET:535:CB:9804, V-B:LEU:363:CB:8158"]

$$$$
4ab_Grossjean_2025
     RDKit          3D

 42 44  0  0  0  0  0  0  0  0999 V2000
  124.6610  124.5560   57.6960 C   0  0  0  0  0  0  0  0  0  0  0  0
  125.3370  123.7940   56.7060 O   0  0  0  0  0  0  0  0  0  0  0  0
  126.1430  122.7580   57.0510 C   0  0  0  0  0  0  0  0  0  0  0  0
  126.0910  121.6460   56.5140 O   0  0  0  0  0  0  0  0  0  0  0  0
  127.1020  123.0950   58.1560 C   0  0  0  0  0  0  0  0  0  0  0  0
  126.6150  123.2370   59.4630 C   0  0  0  0  0  0  0  0  0  0  0  0
  127.4790  123.5510   60.5090 C   0  0  0  0  0  0  0  0  0  0  0  0
  128.8430  123.7210   60.2740 C   0  0  0  0  0  0  0  0  0  0  0  0
  129.6210  124.0440   61.4020 N   0  0  0  0  0  0  0  0  0  0  0  0
  129.4120  123.7740   62.7140 C   0  0  0  0  0  0  0  0  0  0  0  0
  128.4170  123.1960   63.1520 O   0  0  0  0  0  0  0  0  0  0  0  0
  130.4610  124.2430   63.6220 C   0  0  0  0  0  0  0  0  0  0  0  0
  132.1340  123.7290   63.3910 S   0  0  0  0  0  0  0  0  0  0  0  0
  132.6540  124.6250   64.8000 C   0  0  0  0  0  0  0  0  0  0  0  0
  133.9270  124.6420   65.1970 N   0  0  0  0  0  0  0  0  0  0  0  0
  134.1960  125.3730   66.3050 C   0  0  0  0  0  0  0  0  0  0  0  0
  135.6490  125.3740   66.7430 C   0  0  0  0  0  0  0  0  0  0  0  0
  133.2320  126.0840   67.0180 C   0  0  0  0  0  0  0  0  0  0  0  0
  131.8970  126.0640   66.5990 C   0  0  0  0  0  0  0  0  0  0  0  0
  130.8820  126.8550   67.4100 C   0  0  0  0  0  0  0  0  0  0  0  0
  131.5750  125.3050   65.4420 C   0  0  0  0  0  0  0  0  0  0  0  0
  130.3360  125.0640   64.7530 C   0  0  0  0  0  0  0  0  0  0  0  0
  129.1460  125.6020   65.1770 N   0  0  0  0  0  0  0  0  0  0  0  0
  129.3390  123.5860   58.9680 C   0  0  0  0  0  0  0  0  0  0  0  0
  128.4740  123.2740   57.9230 C   0  0  0  0  0  0  0  0  0  0  0  0
  124.9662  124.2120   58.6953 H   0  0  0  0  0  0  0  0  0  0  0  0
  124.9185  125.6191   57.5797 H   0  0  0  0  0  0  0  0  0  0  0  0
  123.5748  124.4270   57.5797 H   0  0  0  0  0  0  0  0  0  0  0  0
  125.5423  123.0993   59.6637 H   0  0  0  0  0  0  0  0  0  0  0  0
  127.0824  123.6658   61.5286 H   0  0  0  0  0  0  0  0  0  0  0  0
  130.4550  124.5700   61.1900 H   0  0  0  0  0  0  0  0  0  0  0  0
  135.7007  125.3740   67.8418 H   0  0  0  0  0  0  0  0  0  0  0  0
  136.1503  124.4762   66.3523 H   0  0  0  0  0  0  0  0  0  0  0  0
  136.1491  126.2725   66.3523 H   0  0  0  0  0  0  0  0  0  0  0  0
  133.5205  126.6604   67.9094 H   0  0  0  0  0  0  0  0  0  0  0  0
  131.0735  126.7058   68.4829 H   0  0  0  0  0  0  0  0  0  0  0  0
  130.9713  127.9241   67.1668 H   0  0  0  0  0  0  0  0  0  0  0  0
  129.8672  126.5072   67.1668 H   0  0  0  0  0  0  0  0  0  0  0  0
  128.3670  125.0240   65.4520 H   0  0  0  0  0  0  0  0  0  0  0  0
  129.0110  126.6030   65.2230 H   0  0  0  0  0  0  0  0  0  0  0  0
  130.4119  123.7268   58.7701 H   0  0  0  0  0  0  0  0  0  0  0  0
  128.8707  123.1665   56.9027 H   0  0  0  0  0  0  0  0  0  0  0  0
  1  2  1  0
  2  3  1  0
  3  4  2  0
  3  5  1  0
  5  6  2  0
  6  7  1  0
  7  8  2  0
  8  9  1  0
  9 10  1  0
 10 11  2  0
 10 12  1  0
 12 13  1  0
 13 14  1  0
 14 15  2  0
 15 16  1  0
 16 17  1  0
 16 18  2  0
 18 19  1  0
 19 20  1  0
 19 21  2  0
 21 22  1  0
 22 23  1  0
  8 24  1  0
 24 25  2  0
 25  5  1  0
 22 12  2  0
 21 14  1  0
  1 26  1  0
  1 27  1  0
  1 28  1  0
  6 29  1  0
  7 30  1  0
  9 31  1  0
 17 32  1  0
 17 33  1  0
 17 34  1  0
 18 35  1  0
 20 36  1  0
 20 37  1  0
 20 38  1  0
 23 39  1  0
 23 40  1  0
 24 41  1  0
 25 42  1  0
M  END
>  <Binding energies>  (1) 
[-7.46]

>  <Ligand effiencies>  (1) 
[-0.2664285714285714]

>  <Interactions>  (1) 
["V-B:PRO:540:CB:9857, H-B:TYR:531:OH:9767, V-B:MET:535:CE:9807, V-B:PRO:540:N:9856, V-B:PRO:540:CA:9855, H-B:TYR:539:N:9842, V-B:TYR:539:CE2:9848, V-B:TYR:531:CE2:9765, V-B:TYR:531:CZ:9766, V-B:LEU:363:CD1:8160, H-A:TYR:484:OH:4347, H-A:GLY:454:N:4049, V-B:ASP:366:CB:8183, V-A:GLU:543:CD:4908, V-A:HIS:456:CE1:4069, V-B:GLU:543:CB:9878, V-A:ARG:545:CD:4923, V-A:ILE:455:C:4051, V-B:GLU:543:CG:9879, H-B:GLU:543:OE1:9881, V-B:GLU:543:CD:9880, H-B:GLU:543:OE2:9882, V-A:ARG:545:CG:4922, V-A:ARG:545:CZ:4926, V-A:GLU:543:CB:4906, H-A:GLU:543:OE1:4909, V-A:GLY:454:CA:4048, V-A:GLY:453:CA:4043, V-A:GLY:453:C:4041, V-A:GLY:454:C:4046, V-A:ILE:455:CA:4053, V-A:ARG:545:CB:4921, V-A:VAL:452:CG2:4039"]

$$$$
4ac_Grossjean_2025
     RDKit          3D

 40 42  0  0  0  0  0  0  0  0999 V2000
  133.8330  125.3830   66.6950 C   0  0  0  0  0  0  0  0  0  0  0  0
  134.0460  125.3270   65.2890 O   0  0  0  0  0  0  0  0  0  0  0  0
  132.9900  125.0060   64.4590 C   0  0  0  0  0  0  0  0  0  0  0  0
  133.3170  124.4760   63.2110 C   0  0  0  0  0  0  0  0  0  0  0  0
  132.3190  124.1230   62.3070 C   0  0  0  0  0  0  0  0  0  0  0  0
  130.9750  124.2860   62.6450 C   0  0  0  0  0  0  0  0  0  0  0  0
  130.0370  123.9140   61.6640 N   0  0  0  0  0  0  0  0  0  0  0  0
  128.9580  123.1040   61.7740 C   0  0  0  0  0  0  0  0  0  0  0  0
  128.6420  122.5130   62.8090 O   0  0  0  0  0  0  0  0  0  0  0  0
  128.1590  122.9520   60.5550 C   0  0  0  0  0  0  0  0  0  0  0  0
  128.7880  122.0360   59.1850 S   0  0  0  0  0  0  0  0  0  0  0  0
  127.3370  122.3390   58.2560 C   0  0  0  0  0  0  0  0  0  0  0  0
  127.1800  121.8670   57.0180 N   0  0  0  0  0  0  0  0  0  0  0  0
  126.0090  122.1740   56.4090 C   0  0  0  0  0  0  0  0  0  0  0  0
  125.8500  121.6280   55.0020 C   0  0  0  0  0  0  0  0  0  0  0  0
  125.0030  122.9360   57.0010 C   0  0  0  0  0  0  0  0  0  0  0  0
  125.1720  123.4300   58.2990 C   0  0  0  0  0  0  0  0  0  0  0  0
  124.0460  124.2560   58.9020 C   0  0  0  0  0  0  0  0  0  0  0  0
  126.3860  123.1260   58.9710 C   0  0  0  0  0  0  0  0  0  0  0  0
  126.8790  123.4600   60.2800 C   0  0  0  0  0  0  0  0  0  0  0  0
  126.1500  124.2120   61.1670 N   0  0  0  0  0  0  0  0  0  0  0  0
  130.6370  124.8300   63.8930 C   0  0  0  0  0  0  0  0  0  0  0  0
  131.6390  125.1830   64.7940 C   0  0  0  0  0  0  0  0  0  0  0  0
  134.7690  125.1369   67.2177 H   0  0  0  0  0  0  0  0  0  0  0  0
  133.5110  126.3963   66.9770 H   0  0  0  0  0  0  0  0  0  0  0  0
  133.0543  124.6591   66.9770 H   0  0  0  0  0  0  0  0  0  0  0  0
  134.3734  124.3356   62.9385 H   0  0  0  0  0  0  0  0  0  0  0  0
  132.5908  123.7141   61.3227 H   0  0  0  0  0  0  0  0  0  0  0  0
  130.2250  124.2850   60.7430 H   0  0  0  0  0  0  0  0  0  0  0  0
  125.5427  120.5729   55.0507 H   0  0  0  0  0  0  0  0  0  0  0  0
  125.0837  122.2088   54.4677 H   0  0  0  0  0  0  0  0  0  0  0  0
  126.8083  121.7065   54.4677 H   0  0  0  0  0  0  0  0  0  0  0  0
  124.0764  123.1489   56.4477 H   0  0  0  0  0  0  0  0  0  0  0  0
  124.1061  124.2119   59.9995 H   0  0  0  0  0  0  0  0  0  0  0  0
  124.1401  125.3009   58.5713 H   0  0  0  0  0  0  0  0  0  0  0  0
  123.0776  123.8525   58.5713 H   0  0  0  0  0  0  0  0  0  0  0  0
  125.4760  124.8960   60.8580 H   0  0  0  0  0  0  0  0  0  0  0  0
  126.2630  124.1020   62.1650 H   0  0  0  0  0  0  0  0  0  0  0  0
  129.5803  124.9779   64.1603 H   0  0  0  0  0  0  0  0  0  0  0  0
  131.3694  125.6031   65.7742 H   0  0  0  0  0  0  0  0  0  0  0  0
  1  2  1  0
  2  3  1  0
  3  4  2  0
  4  5  1  0
  5  6  2  0
  6  7  1  0
  7  8  1  0
  8  9  2  0
  8 10  1  0
 10 11  1  0
 11 12  1  0
 12 13  2  0
 13 14  1  0
 14 15  1  0
 14 16  2  0
 16 17  1  0
 17 18  1  0
 17 19  2  0
 19 20  1  0
 20 21  1  0
  6 22  1  0
 22 23  2  0
 23  3  1  0
 20 10  2  0
 19 12  1  0
  1 24  1  0
  1 25  1  0
  1 26  1  0
  4 27  1  0
  5 28  1  0
  7 29  1  0
 15 30  1  0
 15 31  1  0
 15 32  1  0
 16 33  1  0
 18 34  1  0
 18 35  1  0
 18 36  1  0
 21 37  1  0
 21 38  1  0
 22 39  1  0
 23 40  1  0
M  END
>  <Binding energies>  (1) 
[-7.29]

>  <Ligand effiencies>  (1) 
[-0.2803846153846154]

>  <Interactions>  (1) 
["H-B:ALA:541:N:9863, V-B:PRO:540:CB:9857, V-B:MET:535:CE:9807, V-B:TYR:539:CD2:9846, V-B:PRO:540:N:9856, V-B:PRO:540:CA:9855, H-B:TYR:539:N:9842, V-B:TYR:539:CE2:9848, V-B:MET:535:CG:9805, V-B:TYR:539:C:9839, V-B:TYR:531:CE2:9765, V-B:LEU:363:CD1:8160, H-A:TYR:484:OH:4347, H-A:GLY:454:N:4049, V-B:PRO:540:CD:9859, V-B:ASP:366:CG:8184, V-B:ASP:366:CB:8183, V-B:LEU:363:CA:8156, H-A:ARG:545:NH2:4928, V-A:TYR:484:CZ:4346, V-A:ARG:545:CD:4923, H-B:GLU:543:OE1:9881, V-B:GLU:543:CD:9880, H-B:GLU:543:OE2:9882, H-A:ARG:545:NE:4924, V-A:ARG:545:CG:4922, V-A:ARG:545:CZ:4926, H-A:ARG:545:NH1:4927, V-B:ILE:538:CA:9832, V-B:ILE:538:CG1:9836, V-B:ILE:538:CG2:9835, H-B:ASP:366:OD1:8185, V-B:ILE:538:C:9830, V-B:ILE:538:CB:9834, V-B:LEU:363:CB:8158"]

$$$$
4ad_Grossjean_2025
     RDKit          3D

 36 38  0  0  0  0  0  0  0  0999 V2000
  130.2550  132.1250   54.7640 C   0  0  0  0  0  0  0  0  0  0  0  0
  130.5050  131.7860   56.2210 C   0  0  0  0  0  0  0  0  0  0  0  0
  131.7430  131.3080   56.6450 C   0  0  0  0  0  0  0  0  0  0  0  0
  131.9510  131.0000   57.9950 C   0  0  0  0  0  0  0  0  0  0  0  0
  133.3180  130.4780   58.4080 C   0  0  0  0  0  0  0  0  0  0  0  0
  130.8660  131.1920   58.8930 C   0  0  0  0  0  0  0  0  0  0  0  0
  130.7310  130.9840   60.3090 C   0  0  0  0  0  0  0  0  0  0  0  0
  131.7660  130.5170   61.0810 N   0  0  0  0  0  0  0  0  0  0  0  0
  129.4610  131.3020   60.8150 C   0  0  0  0  0  0  0  0  0  0  0  0
  128.9750  131.1960   62.1920 C   0  0  0  0  0  0  0  0  0  0  0  0
  129.5830  131.7400   63.1160 O   0  0  0  0  0  0  0  0  0  0  0  0
  127.8330  130.4820   62.3520 N   0  0  0  0  0  0  0  0  0  0  0  0
  127.1370  130.1600   63.5330 C   0  0  0  0  0  0  0  0  0  0  0  0
  125.7820  129.8520   63.3780 C   0  0  0  0  0  0  0  0  0  0  0  0
  125.0090  129.5100   64.4850 C   0  0  0  0  0  0  0  0  0  0  0  0
  125.5940  129.4670   65.7480 C   0  0  0  0  0  0  0  0  0  0  0  0
  126.9460  129.7580   65.9130 C   0  0  0  0  0  0  0  0  0  0  0  0
  127.7210  130.1020   64.8080 C   0  0  0  0  0  0  0  0  0  0  0  0
  128.3920  131.8770   59.5340 S   0  0  0  0  0  0  0  0  0  0  0  0
  129.6490  131.6870   58.3340 C   0  0  0  0  0  0  0  0  0  0  0  0
  129.4500  131.9820   57.0480 N   0  0  0  0  0  0  0  0  0  0  0  0
  129.6032  133.0088   54.6998 H   0  0  0  0  0  0  0  0  0  0  0  0
  131.2131  132.3391   54.2677 H   0  0  0  0  0  0  0  0  0  0  0  0
  129.7674  131.2730   54.2677 H   0  0  0  0  0  0  0  0  0  0  0  0
  132.5578  131.1724   55.9186 H   0  0  0  0  0  0  0  0  0  0  0  0
  133.3845  130.4526   59.5057 H   0  0  0  0  0  0  0  0  0  0  0  0
  133.4589  129.4628   58.0085 H   0  0  0  0  0  0  0  0  0  0  0  0
  134.0996  131.1409   58.0085 H   0  0  0  0  0  0  0  0  0  0  0  0
  132.4660  129.8900   60.7140 H   0  0  0  0  0  0  0  0  0  0  0  0
  131.8630  130.7920   62.0500 H   0  0  0  0  0  0  0  0  0  0  0  0
  127.4010  130.1410   61.5060 H   0  0  0  0  0  0  0  0  0  0  0  0
  125.3247  129.8799   62.3779 H   0  0  0  0  0  0  0  0  0  0  0  0
  123.9414  129.2750   64.3622 H   0  0  0  0  0  0  0  0  0  0  0  0
  124.9829  129.2009   66.6231 H   0  0  0  0  0  0  0  0  0  0  0  0
  127.4007  129.7162   66.9137 H   0  0  0  0  0  0  0  0  0  0  0  0
  128.7901  130.3281   64.9345 H   0  0  0  0  0  0  0  0  0  0  0  0
  1  2  1  0
  2  3  2  0
  3  4  1  0
  4  5  1  0
  4  6  2  0
  6  7  1  0
  7  8  1  0
  7  9  2  0
  9 10  1  0
 10 11  2  0
 10 12  1  0
 12 13  1  0
 13 14  2  0
 14 15  1  0
 15 16  2  0
 16 17  1  0
 17 18  2  0
  9 19  1  0
 19 20  1  0
 20 21  2  0
 21  2  1  0
 20  6  1  0
 18 13  1  0
  1 22  1  0
  1 23  1  0
  1 24  1  0
  3 25  1  0
  5 26  1  0
  5 27  1  0
  5 28  1  0
  8 29  1  0
  8 30  1  0
 12 31  1  0
 14 32  1  0
 15 33  1  0
 16 34  1  0
 17 35  1  0
 18 36  1  0
M  END
>  <Binding energies>  (1) 
[-6.81]

>  <Ligand effiencies>  (1) 
[-0.28375]

>  <Interactions>  (1) 
["V-A:ASP:366:CG:3212, V-A:PRO:540:N:4884, V-A:ILE:538:CA:4860, V-A:ASP:366:CB:3211, V-A:ILE:538:CG2:4863, V-A:TYR:539:CD1:4873, V-A:PRO:540:CA:4883, H-A:TYR:539:N:4870, V-A:PRO:540:CB:4885, V-A:TYR:539:CE1:4875, V-A:ILE:538:CB:4862, V-B:ARG:545:CZ:9898, V-A:ALA:541:CB:4892, V-A:TYR:539:C:4867, V-A:LEU:363:CD1:3188, V-A:GLU:543:CG:4907, V-A:GLU:543:CD:4908, H-A:ASP:366:OD2:3214, V-A:ILE:538:C:4858, H-A:ALA:541:N:4891, V-A:LEU:363:CA:3184, V-B:TYR:484:CZ:9318, V-B:TYR:484:CE2:9317, H-A:GLU:543:OE2:4910"]

$$$$
4ae_Grossjean_2025
     RDKit          3D

 38 40  0  0  0  0  0  0  0  0999 V2000
  128.0130  129.4900   67.1770 C   0  0  0  0  0  0  0  0  0  0  0  0
  127.2180  129.6540   65.8970 C   0  0  0  0  0  0  0  0  0  0  0  0
  125.8310  129.4830   65.8700 C   0  0  0  0  0  0  0  0  0  0  0  0
  125.1670  129.6430   64.6540 C   0  0  0  0  0  0  0  0  0  0  0  0
  125.8950  129.9640   63.5060 C   0  0  0  0  0  0  0  0  0  0  0  0
  127.2810  130.1290   63.6050 C   0  0  0  0  0  0  0  0  0  0  0  0
  127.9620  130.4320   62.4130 N   0  0  0  0  0  0  0  0  0  0  0  0
  129.0750  131.1880   62.2410 C   0  0  0  0  0  0  0  0  0  0  0  0
  129.6710  131.7500   63.1610 O   0  0  0  0  0  0  0  0  0  0  0  0
  129.5430  131.3080   60.8580 C   0  0  0  0  0  0  0  0  0  0  0  0
  128.4560  131.8900   59.5970 S   0  0  0  0  0  0  0  0  0  0  0  0
  129.6910  131.6970   58.3750 C   0  0  0  0  0  0  0  0  0  0  0  0
  129.4690  131.9910   57.0940 N   0  0  0  0  0  0  0  0  0  0  0  0
  130.5080  131.7910   56.2480 C   0  0  0  0  0  0  0  0  0  0  0  0
  130.2310  132.1260   54.7940 C   0  0  0  0  0  0  0  0  0  0  0  0
  131.7530  131.3110   56.6500 C   0  0  0  0  0  0  0  0  0  0  0  0
  131.9830  131.0040   57.9960 C   0  0  0  0  0  0  0  0  0  0  0  0
  133.3570  130.4800   58.3850 C   0  0  0  0  0  0  0  0  0  0  0  0
  130.9160  131.1990   58.9130 C   0  0  0  0  0  0  0  0  0  0  0  0
  130.8050  130.9880   60.3320 C   0  0  0  0  0  0  0  0  0  0  0  0
  131.8490  130.5140   61.0860 N   0  0  0  0  0  0  0  0  0  0  0  0
  127.9390  129.9680   64.7910 N   0  0  0  0  0  0  0  0  0  0  0  0
  127.3476  129.6273   68.0421 H   0  0  0  0  0  0  0  0  0  0  0  0
  128.4527  128.4822   67.2089 H   0  0  0  0  0  0  0  0  0  0  0  0
  128.8157  130.2415   67.2089 H   0  0  0  0  0  0  0  0  0  0  0  0
  125.2767  129.2285   66.7854 H   0  0  0  0  0  0  0  0  0  0  0  0
  124.0756  129.5170   64.5993 H   0  0  0  0  0  0  0  0  0  0  0  0
  125.3863  130.0853   62.5383 H   0  0  0  0  0  0  0  0  0  0  0  0
  127.5270  130.0750   61.5760 H   0  0  0  0  0  0  0  0  0  0  0  0
  129.5309  132.9727   54.7398 H   0  0  0  0  0  0  0  0  0  0  0  0
  131.1728  132.3964   54.2942 H   0  0  0  0  0  0  0  0  0  0  0  0
  129.7885  131.2517   54.2942 H   0  0  0  0  0  0  0  0  0  0  0  0
  132.5548  131.1734   55.9096 H   0  0  0  0  0  0  0  0  0  0  0  0
  133.4404  130.4482   59.4814 H   0  0  0  0  0  0  0  0  0  0  0  0
  133.4921  129.4672   57.9775 H   0  0  0  0  0  0  0  0  0  0  0  0
  134.1322  131.1456   57.9775 H   0  0  0  0  0  0  0  0  0  0  0  0
  131.9800  130.7900   62.0490 H   0  0  0  0  0  0  0  0  0  0  0  0
  132.5240  129.8680   60.7010 H   0  0  0  0  0  0  0  0  0  0  0  0
  1  2  1  0
  2  3  2  0
  3  4  1  0
  4  5  2  0
  5  6  1  0
  6  7  1  0
  7  8  1  0
  8  9  2  0
  8 10  1  0
 10 11  1  0
 11 12  1  0
 12 13  2  0
 13 14  1  0
 14 15  1  0
 14 16  2  0
 16 17  1  0
 17 18  1  0
 17 19  2  0
 19 20  1  0
 20 21  1  0
  6 22  2  0
 22  2  1  0
 20 10  2  0
 19 12  1  0
  1 23  1  0
  1 24  1  0
  1 25  1  0
  3 26  1  0
  4 27  1  0
  5 28  1  0
  7 29  1  0
 15 30  1  0
 15 31  1  0
 15 32  1  0
 16 33  1  0
 18 34  1  0
 18 35  1  0
 18 36  1  0
 21 37  1  0
 21 38  1  0
M  END
>  <Binding energies>  (1) 
[-6.99]

>  <Ligand effiencies>  (1) 
[-0.2796]

>  <Interactions>  (1) 
["V-A:ASP:366:CG:3212, V-A:PRO:540:N:4884, V-A:ILE:538:CA:4860, V-A:ASP:366:CB:3211, V-A:ILE:538:CG2:4863, V-A:TYR:539:CD1:4873, V-A:PRO:540:CA:4883, H-A:TYR:539:N:4870, V-A:PRO:540:CB:4885, V-A:TYR:539:CE1:4875, V-A:ILE:538:CB:4862, V-B:ARG:545:CZ:9898, V-A:ALA:541:CB:4892, V-A:TYR:539:C:4867, V-A:LEU:363:CD1:3188, V-A:GLU:543:CG:4907, V-A:GLU:543:CD:4908, H-A:ASP:366:OD2:3214, V-B:HIS:456:CE1:9041, V-A:GLU:543:CB:4906, V-A:ILE:538:C:4858, H-A:ALA:541:N:4891, V-A:LEU:363:CA:3184, V-B:TYR:484:CE2:9317, H-A:GLU:543:OE2:4910, H-A:ALA:541:O:4889"]

$$$$
4af_Grossjean_2025
     RDKit          3D

 35 37  0  0  0  0  0  0  0  0999 V2000
  130.2370  132.1210   54.8400 C   0  0  0  0  0  0  0  0  0  0  0  0
  130.4600  131.7920   56.3050 C   0  0  0  0  0  0  0  0  0  0  0  0
  131.7090  131.3800   56.7650 C   0  0  0  0  0  0  0  0  0  0  0  0
  131.8910  131.0790   58.1210 C   0  0  0  0  0  0  0  0  0  0  0  0
  133.2710  130.6320   58.5750 C   0  0  0  0  0  0  0  0  0  0  0  0
  130.7700  131.2080   58.9850 C   0  0  0  0  0  0  0  0  0  0  0  0
  130.6020  130.9840   60.3960 C   0  0  0  0  0  0  0  0  0  0  0  0
  131.6340  130.5650   61.1980 N   0  0  0  0  0  0  0  0  0  0  0  0
  129.3020  131.2330   60.8630 C   0  0  0  0  0  0  0  0  0  0  0  0
  128.7770  131.0810   62.2210 C   0  0  0  0  0  0  0  0  0  0  0  0
  129.4130  131.4980   63.1900 O   0  0  0  0  0  0  0  0  0  0  0  0
  127.5670  130.4770   62.3100 N   0  0  0  0  0  0  0  0  0  0  0  0
  126.8160  130.1400   63.4520 C   0  0  0  0  0  0  0  0  0  0  0  0
  127.3020  129.4340   64.5680 C   0  0  0  0  0  0  0  0  0  0  0  0
  126.4440  129.1480   65.6320 C   0  0  0  0  0  0  0  0  0  0  0  0
  125.1160  129.5710   65.5520 C   0  0  0  0  0  0  0  0  0  0  0  0
  124.6210  130.2460   64.4840 N   0  0  0  0  0  0  0  0  0  0  0  0
  125.4670  130.5160   63.4580 C   0  0  0  0  0  0  0  0  0  0  0  0
  128.2430  131.7540   59.5500 S   0  0  0  0  0  0  0  0  0  0  0  0
  129.5460  131.6380   58.3890 C   0  0  0  0  0  0  0  0  0  0  0  0
  129.3700  131.9270   57.0990 N   0  0  0  0  0  0  0  0  0  0  0  0
  129.6216  133.0290   54.7577 H   0  0  0  0  0  0  0  0  0  0  0  0
  131.2074  132.2901   54.3504 H   0  0  0  0  0  0  0  0  0  0  0  0
  129.7205  131.2823   54.3504 H   0  0  0  0  0  0  0  0  0  0  0  0
  132.5518  131.2911   56.0637 H   0  0  0  0  0  0  0  0  0  0  0  0
  133.3092  130.6196   59.6743 H   0  0  0  0  0  0  0  0  0  0  0  0
  133.4745  129.6220   58.1896 H   0  0  0  0  0  0  0  0  0  0  0  0
  134.0280  131.3309   58.1896 H   0  0  0  0  0  0  0  0  0  0  0  0
  132.3370  129.9180   60.8690 H   0  0  0  0  0  0  0  0  0  0  0  0
  131.7270  130.8960   62.1480 H   0  0  0  0  0  0  0  0  0  0  0  0
  127.1260  130.2340   61.4350 H   0  0  0  0  0  0  0  0  0  0  0  0
  128.3524  129.1091   64.6021 H   0  0  0  0  0  0  0  0  0  0  0  0
  126.8069  128.6009   66.5146 H   0  0  0  0  0  0  0  0  0  0  0  0
  124.4413  129.3473   66.3915 H   0  0  0  0  0  0  0  0  0  0  0  0
  125.0728  131.0583   62.5859 H   0  0  0  0  0  0  0  0  0  0  0  0
  1  2  1  0
  2  3  2  0
  3  4  1  0
  4  5  1  0
  4  6  2  0
  6  7  1  0
  7  8  1  0
  7  9  2  0
  9 10  1  0
 10 11  2  0
 10 12  1  0
 12 13  1  0
 13 14  2  0
 14 15  1  0
 15 16  2  0
 16 17  1  0
 17 18  2  0
  9 19  1  0
 19 20  1  0
 20 21  2  0
 21  2  1  0
 20  6  1  0
 18 13  1  0
  1 22  1  0
  1 23  1  0
  1 24  1  0
  3 25  1  0
  5 26  1  0
  5 27  1  0
  5 28  1  0
  8 29  1  0
  8 30  1  0
 12 31  1  0
 14 32  1  0
 15 33  1  0
 16 34  1  0
 18 35  1  0
M  END
>  <Binding energies>  (1) 
[-6.8]

>  <Ligand effiencies>  (1) 
[-0.2833333333333333]

>  <Interactions>  (1) 
["V-A:ASP:366:CG:3212, V-A:PRO:540:N:4884, V-A:ILE:538:CA:4860, V-A:ASP:366:CB:3211, V-A:ILE:538:CG2:4863, V-A:TYR:539:CD1:4873, V-A:PRO:540:CA:4883, V-A:PRO:540:CB:4885, V-A:TYR:539:CE1:4875, V-A:ILE:538:CB:4862, H-B:GLY:454:N:9021, V-B:ARG:545:CZ:9898, V-A:ALA:541:CB:4892, V-A:TYR:539:C:4867, V-A:LEU:363:CD1:3188, V-A:GLU:543:CD:4908, H-B:TYR:484:OH:9319, H-A:ASP:366:OD2:3214, V-A:ILE:538:C:4858, H-A:ALA:541:N:4891, V-A:LEU:363:CA:3184, H-A:GLU:543:OE2:4910, H-A:ALA:541:O:4889"]

$$$$
4ag_Grossjean_2025
     RDKit          3D

 39 41  0  0  0  0  0  0  0  0999 V2000
  129.8650  131.7490   54.4340 C   0  0  0  0  0  0  0  0  0  0  0  0
  130.1710  131.5200   55.9020 C   0  0  0  0  0  0  0  0  0  0  0  0
  131.3310  130.8560   56.2980 C   0  0  0  0  0  0  0  0  0  0  0  0
  131.5950  130.6570   57.6570 C   0  0  0  0  0  0  0  0  0  0  0  0
  132.8740  129.9270   58.0390 C   0  0  0  0  0  0  0  0  0  0  0  0
  130.6490  131.1510   58.5950 C   0  0  0  0  0  0  0  0  0  0  0  0
  130.6030  131.1220   60.0320 C   0  0  0  0  0  0  0  0  0  0  0  0
  131.5930  130.5420   60.7860 N   0  0  0  0  0  0  0  0  0  0  0  0
  129.4650  131.7330   60.5780 C   0  0  0  0  0  0  0  0  0  0  0  0
  129.1060  131.8920   61.9870 C   0  0  0  0  0  0  0  0  0  0  0  0
  129.9360  131.7260   62.8840 O   0  0  0  0  0  0  0  0  0  0  0  0
  127.8190  132.2100   62.2400 N   0  0  0  0  0  0  0  0  0  0  0  0
  127.2480  132.4410   63.5660 C   0  0  0  0  0  0  0  0  0  0  0  0
  126.7210  131.1810   64.2420 C   0  0  0  0  0  0  0  0  0  0  0  0
  127.4500  130.5900   65.2780 C   0  0  0  0  0  0  0  0  0  0  0  0
  126.9590  129.4530   65.9140 C   0  0  0  0  0  0  0  0  0  0  0  0
  125.7340  128.9160   65.5190 C   0  0  0  0  0  0  0  0  0  0  0  0
  124.9950  129.5090   64.4990 C   0  0  0  0  0  0  0  0  0  0  0  0
  125.4860  130.6460   63.8630 C   0  0  0  0  0  0  0  0  0  0  0  0
  128.4160  132.3760   59.3140 S   0  0  0  0  0  0  0  0  0  0  0  0
  129.5020  131.8140   58.0630 C   0  0  0  0  0  0  0  0  0  0  0  0
  129.2490  132.0060   56.7680 N   0  0  0  0  0  0  0  0  0  0  0  0
  128.9875  132.4057   54.3405 H   0  0  0  0  0  0  0  0  0  0  0  0
  130.7309  132.2228   53.9485 H   0  0  0  0  0  0  0  0  0  0  0  0
  129.6547  130.7846   53.9485 H   0  0  0  0  0  0  0  0  0  0  0  0
  132.0393  130.4882   55.5410 H   0  0  0  0  0  0  0  0  0  0  0  0
  132.9561  129.8801   59.1349 H   0  0  0  0  0  0  0  0  0  0  0  0
  132.8501  128.9065   57.6291 H   0  0  0  0  0  0  0  0  0  0  0  0
  133.7405  130.4666   57.6291 H   0  0  0  0  0  0  0  0  0  0  0  0
  131.7030  130.7470   61.7690 H   0  0  0  0  0  0  0  0  0  0  0  0
  132.2440  129.8830   60.3810 H   0  0  0  0  0  0  0  0  0  0  0  0
  127.2080  132.3870   61.4560 H   0  0  0  0  0  0  0  0  0  0  0  0
  128.0281  132.8772   64.2073 H   0  0  0  0  0  0  0  0  0  0  0  0
  126.3875  133.1125   63.4294 H   0  0  0  0  0  0  0  0  0  0  0  0
  128.4115  131.0232   65.5907 H   0  0  0  0  0  0  0  0  0  0  0  0
  127.5343  128.9806   66.7239 H   0  0  0  0  0  0  0  0  0  0  0  0
  125.3479  128.0151   66.0183 H   0  0  0  0  0  0  0  0  0  0  0  0
  124.0277  129.0812   64.1970 H   0  0  0  0  0  0  0  0  0  0  0  0
  124.9023  131.1235   63.0622 H   0  0  0  0  0  0  0  0  0  0  0  0
  1  2  1  0
  2  3  2  0
  3  4  1  0
  4  5  1  0
  4  6  2  0
  6  7  1  0
  7  8  1  0
  7  9  2  0
  9 10  1  0
 10 11  2  0
 10 12  1  0
 12 13  1  0
 13 14  1  0
 14 15  2  0
 15 16  1  0
 16 17  2  0
 17 18  1  0
 18 19  2  0
  9 20  1  0
 20 21  1  0
 21 22  2  0
 22  2  1  0
 21  6  1  0
 19 14  1  0
  1 23  1  0
  1 24  1  0
  1 25  1  0
  3 26  1  0
  5 27  1  0
  5 28  1  0
  5 29  1  0
  8 30  1  0
  8 31  1  0
 12 32  1  0
 13 33  1  0
 13 34  1  0
 15 35  1  0
 16 36  1  0
 17 37  1  0
 18 38  1  0
 19 39  1  0
M  END
>  <Binding energies>  (1) 
[-6.84]

>  <Ligand effiencies>  (1) 
[-0.2736]

>  <Interactions>  (1) 
["V-A:ASP:366:CG:3212, V-A:PRO:540:N:4884, V-A:ILE:538:CA:4860, V-A:ASP:366:CB:3211, V-A:ILE:538:CG2:4863, V-A:TYR:539:CD1:4873, V-A:PRO:540:CA:4883, H-A:TYR:539:N:4870, V-A:TYR:539:CE1:4875, V-A:ILE:538:CB:4862, V-B:ARG:545:CZ:9898, V-A:ALA:541:CB:4892, V-A:TYR:539:C:4867, V-A:LEU:363:CD1:3188, V-A:GLU:543:CG:4907, V-A:GLU:543:CD:4908, H-A:ASP:366:OD2:3214, H-A:ALA:541:N:4891, V-B:LEU:475:CD1:9229, V-B:TYR:484:CE2:9317, H-A:GLU:543:OE2:4910, V-A:ALA:541:CA:4890"]

$$$$
4ah_Grossjean_2025
     RDKit          3D

 51 53  0  0  0  0  0  0  0  0999 V2000
  128.8460  132.0390   54.8800 C   0  0  0  0  0  0  0  0  0  0  0  0
  129.4950  132.7760   55.9100 O   0  0  0  0  0  0  0  0  0  0  0  0
  129.9150  132.1190   57.0530 C   0  0  0  0  0  0  0  0  0  0  0  0
  129.0430  131.5500   57.9950 C   0  0  0  0  0  0  0  0  0  0  0  0
  129.5380  130.9030   59.1280 C   0  0  0  0  0  0  0  0  0  0  0  0
  128.5780  130.2510   60.1160 C   0  0  0  0  0  0  0  0  0  0  0  0
  128.0250  128.9810   59.6440 N   0  0  0  0  0  0  0  0  0  0  0  0
  128.5010  127.7580   59.9570 C   0  0  0  0  0  0  0  0  0  0  0  0
  129.4990  127.5920   60.6600 O   0  0  0  0  0  0  0  0  0  0  0  0
  127.7850  126.6240   59.3730 C   0  0  0  0  0  0  0  0  0  0  0  0
  128.0430  126.1860   57.6840 S   0  0  0  0  0  0  0  0  0  0  0  0
  126.8770  124.8870   57.7960 C   0  0  0  0  0  0  0  0  0  0  0  0
  126.5960  124.1000   56.7570 N   0  0  0  0  0  0  0  0  0  0  0  0
  125.6760  123.1300   56.9770 C   0  0  0  0  0  0  0  0  0  0  0  0
  125.3680  122.2470   55.7820 C   0  0  0  0  0  0  0  0  0  0  0  0
  125.0380  122.9300   58.1990 C   0  0  0  0  0  0  0  0  0  0  0  0
  125.3340  123.7590   59.2880 C   0  0  0  0  0  0  0  0  0  0  0  0
  124.6110  123.5010   60.6020 C   0  0  0  0  0  0  0  0  0  0  0  0
  126.2930  124.7890   59.0950 C   0  0  0  0  0  0  0  0  0  0  0  0
  126.8200  125.8000   59.9720 C   0  0  0  0  0  0  0  0  0  0  0  0
  126.4110  125.9270   61.2750 N   0  0  0  0  0  0  0  0  0  0  0  0
  130.9180  130.7960   59.3110 C   0  0  0  0  0  0  0  0  0  0  0  0
  131.8130  131.3590   58.3890 C   0  0  0  0  0  0  0  0  0  0  0  0
  133.1890  131.3040   58.5160 O   0  0  0  0  0  0  0  0  0  0  0  0
  133.7610  130.9860   59.7800 C   0  0  0  0  0  0  0  0  0  0  0  0
  131.2980  132.0240   57.2670 C   0  0  0  0  0  0  0  0  0  0  0  0
  132.1630  132.5640   56.3450 O   0  0  0  0  0  0  0  0  0  0  0  0
  132.2890  131.8020   55.1530 C   0  0  0  0  0  0  0  0  0  0  0  0
  128.1827  131.2858   55.3303 H   0  0  0  0  0  0  0  0  0  0  0  0
  128.2528  132.7243   54.2568 H   0  0  0  0  0  0  0  0  0  0  0  0
  129.6009  131.5372   54.2568 H   0  0  0  0  0  0  0  0  0  0  0  0
  127.9562  131.6150   57.8379 H   0  0  0  0  0  0  0  0  0  0  0  0
  129.1185  130.0670   61.0562 H   0  0  0  0  0  0  0  0  0  0  0  0
  127.7323  130.9420   60.2480 H   0  0  0  0  0  0  0  0  0  0  0  0
  127.1570  129.0390   59.1320 H   0  0  0  0  0  0  0  0  0  0  0  0
  125.0246  121.2625   56.1324 H   0  0  0  0  0  0  0  0  0  0  0  0
  124.5800  122.7150   55.1737 H   0  0  0  0  0  0  0  0  0  0  0  0
  126.2761  122.1234   55.1737 H   0  0  0  0  0  0  0  0  0  0  0  0
  124.3013  122.1205   58.3086 H   0  0  0  0  0  0  0  0  0  0  0  0
  125.2802  123.7398   61.4417 H   0  0  0  0  0  0  0  0  0  0  0  0
  123.7132  124.1343   60.6570 H   0  0  0  0  0  0  0  0  0  0  0  0
  124.3170  122.4425   60.6570 H   0  0  0  0  0  0  0  0  0  0  0  0
  127.0600  126.1330   62.0200 H   0  0  0  0  0  0  0  0  0  0  0  0
  125.4410  125.8120   61.5330 H   0  0  0  0  0  0  0  0  0  0  0  0
  131.3089  130.2629   60.1902 H   0  0  0  0  0  0  0  0  0  0  0  0
  133.1034  131.3516   60.5824 H   0  0  0  0  0  0  0  0  0  0  0  0
  133.8744  129.8953   59.8672 H   0  0  0  0  0  0  0  0  0  0  0  0
  134.7472  131.4653   59.8672 H   0  0  0  0  0  0  0  0  0  0  0  0
  132.4635  130.7466   55.4092 H   0  0  0  0  0  0  0  0  0  0  0  0
  131.3644  131.8881   54.5633 H   0  0  0  0  0  0  0  0  0  0  0  0
  133.1366  132.1812   54.5633 H   0  0  0  0  0  0  0  0  0  0  0  0
  1  2  1  0
  2  3  1  0
  3  4  2  0
  4  5  1  0
  5  6  1  0
  6  7  1  0
  7  8  1  0
  8  9  2  0
  8 10  1  0
 10 11  1  0
 11 12  1  0
 12 13  2  0
 13 14  1  0
 14 15  1  0
 14 16  2  0
 16 17  1  0
 17 18  1  0
 17 19  2  0
 19 20  1  0
 20 21  1  0
  5 22  2  0
 22 23  1  0
 23 24  1  0
 24 25  1  0
 23 26  2  0
 26 27  1  0
 27 28  1  0
 26  3  1  0
 20 10  2  0
 19 12  1  0
  1 29  1  0
  1 30  1  0
  1 31  1  0
  4 32  1  0
  6 33  1  0
  6 34  1  0
  7 35  1  0
 15 36  1  0
 15 37  1  0
 15 38  1  0
 16 39  1  0
 18 40  1  0
 18 41  1  0
 18 42  1  0
 21 43  1  0
 21 44  1  0
 22 45  1  0
 25 46  1  0
 25 47  1  0
 25 48  1  0
 28 49  1  0
 28 50  1  0
 28 51  1  0
M  END
>  <Binding energies>  (1) 
[-6.71]

>  <Ligand effiencies>  (1) 
[-0.21645161290322582]

>  <Interactions>  (1) 
["V-B:PRO:540:CB:9857, H-B:TYR:531:OH:9767, V-B:MET:535:CE:9807, V-B:PRO:540:N:9856, V-B:PRO:540:CA:9855, V-B:MET:535:CG:9805, V-B:TYR:531:CE2:9765, V-B:LEU:363:CD1:8160, V-A:ASP:366:CG:3212, V-A:PRO:540:N:4884, V-A:ILE:538:CA:4860, V-A:ILE:538:CG2:4863, V-A:TYR:539:CD1:4873, V-A:TYR:539:CE2:4876, V-A:PRO:540:CA:4883, H-A:TYR:539:N:4870, V-A:TYR:539:CZ:4877, V-A:TYR:539:CD2:4874, V-A:PRO:540:CB:4885, V-A:TYR:539:CE1:4875, V-A:TYR:531:CZ:4794, V-A:ILE:538:CB:4862, V-B:ASP:366:CG:8184, V-A:PRO:540:CD:4887, V-A:TYR:539:C:4867, V-A:LEU:363:CD1:3188, H-B:GLU:543:OE1:9881, H-B:GLU:543:OE2:9882, V-A:TYR:531:CE2:4793, V-A:LEU:363:CA:3184, V-A:LEU:363:CB:3186, H-B:ASP:366:OD2:8186, V-B:ILE:538:CG2:9835, V-B:PRO:540:CG:9858, H-B:ASP:366:OD1:8185, V-A:ASN:362:CB:3175, V-A:ASN:362:C:3171"]

$$$$
4ai_Grossjean_2025
     RDKit          3D

 32 34  0  0  0  0  0  0  0  0999 V2000
  135.5300  124.3080   61.9170 C   0  0  0  0  0  0  0  0  0  0  0  0
  134.3450  123.4390   61.5370 C   0  0  0  0  0  0  0  0  0  0  0  0
  134.3960  122.0540   61.6820 C   0  0  0  0  0  0  0  0  0  0  0  0
  133.2890  121.2720   61.3320 C   0  0  0  0  0  0  0  0  0  0  0  0
  133.3920  119.7650   61.5110 C   0  0  0  0  0  0  0  0  0  0  0  0
  132.1370  121.9390   60.8320 C   0  0  0  0  0  0  0  0  0  0  0  0
  130.8560  121.4600   60.3880 C   0  0  0  0  0  0  0  0  0  0  0  0
  130.5360  120.1260   60.3810 N   0  0  0  0  0  0  0  0  0  0  0  0
  129.9790  122.4760   59.9760 C   0  0  0  0  0  0  0  0  0  0  0  0
  128.6140  122.3470   59.4610 C   0  0  0  0  0  0  0  0  0  0  0  0
  127.6580  122.2460   60.2320 O   0  0  0  0  0  0  0  0  0  0  0  0
  128.4990  122.3660   58.1090 N   0  0  0  0  0  0  0  0  0  0  0  0
  127.3340  122.2730   57.3600 C   0  0  0  0  0  0  0  0  0  0  0  0
  126.3440  123.2560   57.3650 C   0  0  0  0  0  0  0  0  0  0  0  0
  125.3720  122.7900   56.5100 C   0  0  0  0  0  0  0  0  0  0  0  0
  125.7560  121.5900   56.0150 O   0  0  0  0  0  0  0  0  0  0  0  0
  127.0010  121.2730   56.5590 N   0  0  0  0  0  0  0  0  0  0  0  0
  130.7370  124.0640   60.1070 S   0  0  0  0  0  0  0  0  0  0  0  0
  132.2130  123.3610   60.7310 C   0  0  0  0  0  0  0  0  0  0  0  0
  133.2660  124.1090   61.0630 N   0  0  0  0  0  0  0  0  0  0  0  0
  135.6069  124.3644   63.0129 H   0  0  0  0  0  0  0  0  0  0  0  0
  136.4521  123.8704   61.5068 H   0  0  0  0  0  0  0  0  0  0  0  0
  135.3898  125.3190   61.5068 H   0  0  0  0  0  0  0  0  0  0  0  0
  135.3064  121.5751   62.0716 H   0  0  0  0  0  0  0  0  0  0  0  0
  133.4085  119.5235   62.5840 H   0  0  0  0  0  0  0  0  0  0  0  0
  132.5249  119.2796   61.0392 H   0  0  0  0  0  0  0  0  0  0  0  0
  134.3170  119.4021   61.0392 H   0  0  0  0  0  0  0  0  0  0  0  0
  131.2450  119.4080   60.3500 H   0  0  0  0  0  0  0  0  0  0  0  0
  129.5740  119.8170   60.4010 H   0  0  0  0  0  0  0  0  0  0  0  0
  129.3500  122.4670   57.5770 H   0  0  0  0  0  0  0  0  0  0  0  0
  126.3412  124.1996   57.9303 H   0  0  0  0  0  0  0  0  0  0  0  0
  124.4332  123.3094   56.2675 H   0  0  0  0  0  0  0  0  0  0  0  0
  1  2  1  0
  2  3  2  0
  3  4  1  0
  4  5  1  0
  4  6  2  0
  6  7  1  0
  7  8  1  0
  7  9  2  0
  9 10  1  0
 10 11  2  0
 10 12  1  0
 12 13  1  0
 13 14  1  0
 14 15  2  0
 15 16  1  0
 16 17  1  0
  9 18  1  0
 18 19  1  0
 19 20  2  0
 20  2  1  0
 19  6  1  0
 17 13  2  0
  1 21  1  0
  1 22  1  0
  1 23  1  0
  3 24  1  0
  5 25  1  0
  5 26  1  0
  5 27  1  0
  8 28  1  0
  8 29  1  0
 12 30  1  0
 14 31  1  0
 15 32  1  0
M  END
>  <Binding energies>  (1) 
[-6.79]

>  <Ligand effiencies>  (1) 
[-0.2952173913043478]

>  <Interactions>  (1) 
["H-B:ALA:541:N:9863, V-B:MET:535:CE:9807, V-A:ILE:369:CG2:3236, V-B:TYR:539:CD2:9846, V-B:PRO:540:N:9856, V-A:LEU:475:CD1:4257, V-B:PRO:540:CA:9855, H-B:TYR:539:N:9842, V-B:TYR:539:CE2:9848, V-B:TYR:539:C:9839, V-B:TYR:531:CE2:9765, V-B:LEU:363:CD1:8160, V-A:ASP:366:CG:3212, H-B:TYR:539:OH:9850, V-A:ILE:369:CD1:3238, V-B:TYR:539:CZ:9849, H-B:TYR:539:O:9840, V-A:SER:385:C:3404, V-B:TYR:539:CG:9844, V-A:GLY:454:CA:4048, V-A:GLY:453:CA:4043, V-A:GLY:453:C:4041"]

$$$$
4aj_Grossjean_2025
     RDKit          3D

 32 34  0  0  0  0  0  0  0  0999 V2000
  129.5080  132.1220   54.2910 C   0  0  0  0  0  0  0  0  0  0  0  0
  129.9730  131.7850   55.6960 C   0  0  0  0  0  0  0  0  0  0  0  0
  131.2200  131.2050   55.9180 C   0  0  0  0  0  0  0  0  0  0  0  0
  131.6260  130.8980   57.2220 C   0  0  0  0  0  0  0  0  0  0  0  0
  132.9960  130.2660   57.4130 C   0  0  0  0  0  0  0  0  0  0  0  0
  130.7320  131.1990   58.2840 C   0  0  0  0  0  0  0  0  0  0  0  0
  130.8240  131.0210   59.7080 C   0  0  0  0  0  0  0  0  0  0  0  0
  131.9240  130.4640   60.3070 N   0  0  0  0  0  0  0  0  0  0  0  0
  129.6960  131.4720   60.4120 C   0  0  0  0  0  0  0  0  0  0  0  0
  129.4490  131.4360   61.8550 C   0  0  0  0  0  0  0  0  0  0  0  0
  130.3340  131.7500   62.6540 O   0  0  0  0  0  0  0  0  0  0  0  0
  128.2010  131.0530   62.2220 N   0  0  0  0  0  0  0  0  0  0  0  0
  127.7080  130.9470   63.5160 C   0  0  0  0  0  0  0  0  0  0  0  0
  127.9150  131.7620   64.5280 N   0  0  0  0  0  0  0  0  0  0  0  0
  127.2860  131.3560   65.6140 C   0  0  0  0  0  0  0  0  0  0  0  0
  126.5470  130.1810   65.4940 C   0  0  0  0  0  0  0  0  0  0  0  0
  126.6910  129.5870   63.8670 S   0  0  0  0  0  0  0  0  0  0  0  0
  128.4760  132.1190   59.3150 S   0  0  0  0  0  0  0  0  0  0  0  0
  129.4860  131.7950   57.9240 C   0  0  0  0  0  0  0  0  0  0  0  0
  129.0950  132.0880   56.6830 N   0  0  0  0  0  0  0  0  0  0  0  0
  128.6183  132.7668   54.3440 H   0  0  0  0  0  0  0  0  0  0  0  0
  130.3114  132.6490   53.7554 H   0  0  0  0  0  0  0  0  0  0  0  0
  129.2573  131.1945   53.7554 H   0  0  0  0  0  0  0  0  0  0  0  0
  131.8852  130.9884   55.0691 H   0  0  0  0  0  0  0  0  0  0  0  0
  133.2080  130.1682   58.4879 H   0  0  0  0  0  0  0  0  0  0  0  0
  133.0092  129.2708   56.9446 H   0  0  0  0  0  0  0  0  0  0  0  0
  133.7617  130.9019   56.9446 H   0  0  0  0  0  0  0  0  0  0  0  0
  132.5560  129.8570   59.8040 H   0  0  0  0  0  0  0  0  0  0  0  0
  132.1400  130.6410   61.2790 H   0  0  0  0  0  0  0  0  0  0  0  0
  127.5520  130.8220   61.4850 H   0  0  0  0  0  0  0  0  0  0  0  0
  127.3417  131.9135   66.5606 H   0  0  0  0  0  0  0  0  0  0  0  0
  125.9664  129.7062   66.2987 H   0  0  0  0  0  0  0  0  0  0  0  0
  1  2  1  0
  2  3  2  0
  3  4  1  0
  4  5  1  0
  4  6  2  0
  6  7  1  0
  7  8  1  0
  7  9  2  0
  9 10  1  0
 10 11  2  0
 10 12  1  0
 12 13  1  0
 13 14  2  0
 14 15  1  0
 15 16  2  0
 16 17  1  0
  9 18  1  0
 18 19  1  0
 19 20  2  0
 20  2  1  0
 19  6  1  0
 17 13  1  0
  1 21  1  0
  1 22  1  0
  1 23  1  0
  3 24  1  0
  5 25  1  0
  5 26  1  0
  5 27  1  0
  8 28  1  0
  8 29  1  0
 12 30  1  0
 15 31  1  0
 16 32  1  0
M  END
>  <Binding energies>  (1) 
[-6.31]

>  <Ligand effiencies>  (1) 
[-0.2743478260869565]

>  <Interactions>  (1) 
["V-A:ASP:366:CG:3212, V-A:PRO:540:N:4884, V-A:ILE:538:CA:4860, V-A:ASP:366:CB:3211, V-A:ILE:538:CG2:4863, V-A:TYR:539:CD1:4873, V-A:PRO:540:CA:4883, H-A:TYR:539:N:4870, V-A:TYR:539:CE1:4875, V-A:ILE:538:CB:4862, V-A:ALA:541:CB:4892, V-A:TYR:539:C:4867, V-A:LEU:363:CD1:3188, V-A:GLU:543:CG:4907, V-A:GLU:543:CD:4908, H-A:ASP:366:OD2:3214, V-A:ILE:538:C:4858, H-A:ALA:541:N:4891, V-B:TYR:484:CZ:9318, V-B:TYR:484:CE2:9317, H-A:GLU:543:OE2:4910"]

$$$$
4ak_Grossjean_2025
     RDKit          3D

 50 51  0  0  0  0  0  0  0  0999 V2000
  127.7530  122.3860   57.3590 C   0  0  0  0  0  0  0  0  0  0  0  0
  126.9110  121.5860   56.5420 O   0  0  0  0  0  0  0  0  0  0  0  0
  125.7910  122.2910   56.0230 C   0  0  0  0  0  0  0  0  0  0  0  0
  125.0230  122.9520   57.1760 C   0  0  0  0  0  0  0  0  0  0  0  0
  125.5330  124.2610   57.3920 O   0  0  0  0  0  0  0  0  0  0  0  0
  125.1230  124.8390   58.6240 C   0  0  0  0  0  0  0  0  0  0  0  0
  124.2270  123.8490   59.3770 C   0  0  0  0  0  0  0  0  0  0  0  0
  124.5510  123.8790   60.7600 O   0  0  0  0  0  0  0  0  0  0  0  0
  125.6770  123.0830   61.1050 C   0  0  0  0  0  0  0  0  0  0  0  0
  126.9240  123.9790   61.2000 C   0  0  0  0  0  0  0  0  0  0  0  0
  126.6280  125.3560   61.5960 N   0  0  0  0  0  0  0  0  0  0  0  0
  127.4760  126.1830   62.2400 C   0  0  0  0  0  0  0  0  0  0  0  0
  128.6220  125.8480   62.5430 O   0  0  0  0  0  0  0  0  0  0  0  0
  126.9620  127.5150   62.5540 C   0  0  0  0  0  0  0  0  0  0  0  0
  125.9040  128.3510   61.4170 S   0  0  0  0  0  0  0  0  0  0  0  0
  125.7670  129.7280   62.4880 C   0  0  0  0  0  0  0  0  0  0  0  0
  125.0390  130.7990   62.1690 N   0  0  0  0  0  0  0  0  0  0  0  0
  125.0180  131.7980   63.0860 C   0  0  0  0  0  0  0  0  0  0  0  0
  124.1840  133.0080   62.7050 C   0  0  0  0  0  0  0  0  0  0  0  0
  125.6990  131.7500   64.3000 C   0  0  0  0  0  0  0  0  0  0  0  0
  126.4610  130.6230   64.6320 C   0  0  0  0  0  0  0  0  0  0  0  0
  127.1900  130.6190   65.9670 C   0  0  0  0  0  0  0  0  0  0  0  0
  126.5080  129.5560   63.6950 C   0  0  0  0  0  0  0  0  0  0  0  0
  127.1760  128.2830   63.7090 C   0  0  0  0  0  0  0  0  0  0  0  0
  127.9510  127.8720   64.7640 N   0  0  0  0  0  0  0  0  0  0  0  0
  127.5378  122.1816   58.4182 H   0  0  0  0  0  0  0  0  0  0  0  0
  128.8053  122.1470   57.1458 H   0  0  0  0  0  0  0  0  0  0  0  0
  127.5681  123.4492   57.1458 H   0  0  0  0  0  0  0  0  0  0  0  0
  126.1375  123.0648   55.3221 H   0  0  0  0  0  0  0  0  0  0  0  0
  125.1281  121.5890   55.4959 H   0  0  0  0  0  0  0  0  0  0  0  0
  123.9550  123.0117   56.9193 H   0  0  0  0  0  0  0  0  0  0  0  0
  125.1458  122.3536   58.0908 H   0  0  0  0  0  0  0  0  0  0  0  0
  126.0088  125.0697   59.2340 H   0  0  0  0  0  0  0  0  0  0  0  0
  124.5633  125.7653   58.4273 H   0  0  0  0  0  0  0  0  0  0  0  0
  123.1725  124.1310   59.2406 H   0  0  0  0  0  0  0  0  0  0  0  0
  124.3875  122.8345   58.9833 H   0  0  0  0  0  0  0  0  0  0  0  0
  125.4994  122.5965   62.0755 H   0  0  0  0  0  0  0  0  0  0  0  0
  125.8341  122.3138   60.3345 H   0  0  0  0  0  0  0  0  0  0  0  0
  127.6092  123.5435   61.9422 H   0  0  0  0  0  0  0  0  0  0  0  0
  127.3678  124.0212   60.1944 H   0  0  0  0  0  0  0  0  0  0  0  0
  125.7030  125.6960   61.3700 H   0  0  0  0  0  0  0  0  0  0  0  0
  123.8349  133.5145   63.6169 H   0  0  0  0  0  0  0  0  0  0  0  0
  124.7959  133.7028   62.1110 H   0  0  0  0  0  0  0  0  0  0  0  0
  123.3169  132.6834   62.1110 H   0  0  0  0  0  0  0  0  0  0  0  0
  125.6383  132.5977   64.9983 H   0  0  0  0  0  0  0  0  0  0  0  0
  126.4555  130.6230   66.7859 H   0  0  0  0  0  0  0  0  0  0  0  0
  127.8159  129.7174   66.0403 H   0  0  0  0  0  0  0  0  0  0  0  0
  127.8258  131.5137   66.0403 H   0  0  0  0  0  0  0  0  0  0  0  0
  128.8830  128.2340   64.9140 H   0  0  0  0  0  0  0  0  0  0  0  0
  127.6120  127.1940   65.4310 H   0  0  0  0  0  0  0  0  0  0  0  0
  1  2  1  0
  2  3  1  0
  3  4  1  0
  4  5  1  0
  5  6  1  0
  6  7  1  0
  7  8  1  0
  8  9  1  0
  9 10  1  0
 10 11  1  0
 11 12  1  0
 12 13  2  0
 12 14  1  0
 14 15  1  0
 15 16  1  0
 16 17  2  0
 17 18  1  0
 18 19  1  0
 18 20  2  0
 20 21  1  0
 21 22  1  0
 21 23  2  0
 23 24  1  0
 24 25  1  0
 24 14  2  0
 23 16  1  0
  1 26  1  0
  1 27  1  0
  1 28  1  0
  3 29  1  0
  3 30  1  0
  4 31  1  0
  4 32  1  0
  6 33  1  0
  6 34  1  0
  7 35  1  0
  7 36  1  0
  9 37  1  0
  9 38  1  0
 10 39  1  0
 10 40  1  0
 11 41  1  0
 19 42  1  0
 19 43  1  0
 19 44  1  0
 20 45  1  0
 22 46  1  0
 22 47  1  0
 22 48  1  0
 25 49  1  0
 25 50  1  0
M  END
>  <Binding energies>  (1) 
[-5.82]

>  <Ligand effiencies>  (1) 
[-0.20785714285714288]

>  <Interactions>  (1) 
["V-B:PRO:540:CB:9857, H-B:TYR:531:OH:9767, V-B:MET:535:CE:9807, V-B:PRO:540:N:9856, V-B:PRO:540:CA:9855, V-B:PRO:540:C:9853, H-B:TYR:539:N:9842, V-B:TYR:539:C:9839, V-B:TYR:531:CE2:9765, V-B:LEU:363:CD1:8160, V-B:PRO:540:CD:9859, V-B:ASP:366:CG:8184, V-B:ASP:366:CB:8183, V-B:ILE:369:CD1:8210, V-A:GLU:543:CG:4907, V-B:GLY:454:CA:9020, V-A:GLU:543:CD:4908, V-B:LEU:363:CA:8156, H-B:GLU:543:OE1:9881, V-B:GLU:543:CD:9880, H-B:GLU:543:OE2:9882, V-B:TYR:484:CZ:9318, V-B:LEU:475:CD1:9229, V-B:TYR:484:CE2:9317, H-B:ASP:366:OD1:8185, H-A:GLU:543:OE1:4909, H-A:GLU:543:OE2:4910, V-B:LEU:363:CB:8158"]

$$$$
4al_Grossjean_2025
     RDKit          3D

 28 29  0  0  0  0  0  0  0  0999 V2000
  127.2660  129.8300   54.7030 C   0  0  0  0  0  0  0  0  0  0  0  0
  127.9730  131.0220   54.3970 O   0  0  0  0  0  0  0  0  0  0  0  0
  129.3150  131.1070   54.5940 C   0  0  0  0  0  0  0  0  0  0  0  0
  130.1440  131.1620   53.6830 O   0  0  0  0  0  0  0  0  0  0  0  0
  129.6860  131.1290   56.0260 C   0  0  0  0  0  0  0  0  0  0  0  0
  128.4370  131.3290   57.2570 S   0  0  0  0  0  0  0  0  0  0  0  0
  129.6270  131.2500   58.5360 C   0  0  0  0  0  0  0  0  0  0  0  0
  129.2870  131.3470   59.8220 N   0  0  0  0  0  0  0  0  0  0  0  0
  130.3060  131.2700   60.7140 C   0  0  0  0  0  0  0  0  0  0  0  0
  129.8980  131.3830   62.1710 C   0  0  0  0  0  0  0  0  0  0  0  0
  131.6410  131.0990   60.3530 C   0  0  0  0  0  0  0  0  0  0  0  0
  131.9940  130.9970   59.0030 C   0  0  0  0  0  0  0  0  0  0  0  0
  133.4630  130.8120   58.6590 C   0  0  0  0  0  0  0  0  0  0  0  0
  130.9520  131.0740   58.0390 C   0  0  0  0  0  0  0  0  0  0  0  0
  130.9550  131.0090   56.6040 C   0  0  0  0  0  0  0  0  0  0  0  0
  132.1040  130.8430   55.8740 N   0  0  0  0  0  0  0  0  0  0  0  0
  127.1974  129.7144   55.7948 H   0  0  0  0  0  0  0  0  0  0  0  0
  126.2538  129.8841   54.2757 H   0  0  0  0  0  0  0  0  0  0  0  0
  127.7988  128.9677   54.2757 H   0  0  0  0  0  0  0  0  0  0  0  0
  130.7592  131.1445   62.8125 H   0  0  0  0  0  0  0  0  0  0  0  0
  129.5592  132.4088   62.3784 H   0  0  0  0  0  0  0  0  0  0  0  0
  129.0798  130.6777   62.3784 H   0  0  0  0  0  0  0  0  0  0  0  0
  132.4178  131.0442   61.1299 H   0  0  0  0  0  0  0  0  0  0  0  0
  134.0502  130.7380   59.5862 H   0  0  0  0  0  0  0  0  0  0  0  0
  133.5887  129.8909   58.0709 H   0  0  0  0  0  0  0  0  0  0  0  0
  133.8131  131.6731   58.0709 H   0  0  0  0  0  0  0  0  0  0  0  0
  133.0190  130.8900   56.2990 H   0  0  0  0  0  0  0  0  0  0  0  0
  132.0730  130.6670   54.8780 H   0  0  0  0  0  0  0  0  0  0  0  0
  1  2  1  0
  2  3  1  0
  3  4  2  0
  3  5  1  0
  5  6  1  0
  6  7  1  0
  7  8  2  0
  8  9  1  0
  9 10  1  0
  9 11  2  0
 11 12  1  0
 12 13  1  0
 12 14  2  0
 14 15  1  0
 15 16  1  0
 15  5  2  0
 14  7  1  0
  1 17  1  0
  1 18  1  0
  1 19  1  0
 10 20  1  0
 10 21  1  0
 10 22  1  0
 11 23  1  0
 13 24  1  0
 13 25  1  0
 13 26  1  0
 16 27  1  0
 16 28  1  0
M  END
>  <Binding energies>  (1) 
[-5.35]

>  <Ligand effiencies>  (1) 
[-0.2972222222222222]

>  <Interactions>  (1) 
["V-B:TYR:531:CZ:9766, V-A:ASP:366:CG:3212, V-A:ASP:366:CB:3211, V-A:ILE:538:CG2:4863, V-A:TYR:539:CD1:4873, V-A:PRO:540:CA:4883, H-A:TYR:531:OH:4795, V-A:TYR:539:CZ:4877, V-A:PRO:540:CB:4885, V-A:TYR:539:CE1:4875, V-A:TYR:531:CZ:4794, V-B:TYR:531:CE1:9764, H-B:LYS:534:NZ:9795, V-A:ALA:541:CB:4892, V-A:LEU:363:CD1:3188, V-A:GLU:543:CG:4907, V-A:GLU:543:CD:4908, H-A:TYR:539:OH:4878, V-A:TYR:531:CE2:4793, V-A:LEU:363:CA:3184, V-A:LEU:363:CB:3186, V-A:ALA:541:CA:4890"]

$$$$
4ba_Grossjean_2025
     RDKit          3D

 44 46  0  0  0  0  0  0  0  0999 V2000
  124.9430  122.0200   54.9910 C   0  0  0  0  0  0  0  0  0  0  0  0
  125.4480  122.3060   56.4180 C   0  0  0  0  0  0  0  0  0  0  0  0
  126.9280  121.9530   56.6720 C   0  0  0  0  0  0  0  0  0  0  0  0
  127.5340  121.2540   55.8560 O   0  0  0  0  0  0  0  0  0  0  0  0
  127.5700  122.4900   57.9170 C   0  0  0  0  0  0  0  0  0  0  0  0
  128.9670  122.5460   58.0020 C   0  0  0  0  0  0  0  0  0  0  0  0
  129.5890  123.0380   59.1450 C   0  0  0  0  0  0  0  0  0  0  0  0
  128.8290  123.4880   60.2260 C   0  0  0  0  0  0  0  0  0  0  0  0
  129.5600  123.9570   61.3350 N   0  0  0  0  0  0  0  0  0  0  0  0
  129.1940  124.8110   62.3220 C   0  0  0  0  0  0  0  0  0  0  0  0
  128.1020  125.3780   62.3770 O   0  0  0  0  0  0  0  0  0  0  0  0
  130.2120  125.0550   63.3460 C   0  0  0  0  0  0  0  0  0  0  0  0
  131.8860  124.5860   63.0610 S   0  0  0  0  0  0  0  0  0  0  0  0
  132.3600  125.1330   64.6520 C   0  0  0  0  0  0  0  0  0  0  0  0
  133.6200  125.0350   65.0730 N   0  0  0  0  0  0  0  0  0  0  0  0
  133.8650  125.4910   66.3230 C   0  0  0  0  0  0  0  0  0  0  0  0
  135.3050  125.3620   66.7860 C   0  0  0  0  0  0  0  0  0  0  0  0
  132.8910  126.0420   67.1510 C   0  0  0  0  0  0  0  0  0  0  0  0
  131.5610  126.1480   66.7130 C   0  0  0  0  0  0  0  0  0  0  0  0
  130.5250  126.7630   67.6590 C   0  0  0  0  0  0  0  0  0  0  0  0
  129.5720  127.4430   67.0190 F   0  0  0  0  0  0  0  0  0  0  0  0
  129.9260  125.8000   68.3610 F   0  0  0  0  0  0  0  0  0  0  0  0
  131.1250  127.6090   68.4960 F   0  0  0  0  0  0  0  0  0  0  0  0
  131.2680  125.6700   65.4000 C   0  0  0  0  0  0  0  0  0  0  0  0
  130.0500  125.6030   64.6300 C   0  0  0  0  0  0  0  0  0  0  0  0
  128.8430  126.0400   65.1140 N   0  0  0  0  0  0  0  0  0  0  0  0
  127.4290  123.4290   60.1530 C   0  0  0  0  0  0  0  0  0  0  0  0
  126.8090  122.9360   59.0080 C   0  0  0  0  0  0  0  0  0  0  0  0
  123.9869  121.4785   55.0421 H   0  0  0  0  0  0  0  0  0  0  0  0
  124.7982  122.9702   54.4560 H   0  0  0  0  0  0  0  0  0  0  0  0
  125.6834  121.4071   54.4560 H   0  0  0  0  0  0  0  0  0  0  0  0
  125.3147  123.3795   56.6178 H   0  0  0  0  0  0  0  0  0  0  0  0
  124.8601  121.6594   57.0861 H   0  0  0  0  0  0  0  0  0  0  0  0
  129.5784  122.1975   57.1566 H   0  0  0  0  0  0  0  0  0  0  0  0
  130.6872  123.0727   59.1973 H   0  0  0  0  0  0  0  0  0  0  0  0
  130.5040  123.6060   61.3830 H   0  0  0  0  0  0  0  0  0  0  0  0
  135.3378  125.3591   67.8855 H   0  0  0  0  0  0  0  0  0  0  0  0
  135.7302  124.4222   66.4040 H   0  0  0  0  0  0  0  0  0  0  0  0
  135.8905  126.2113   66.4040 H   0  0  0  0  0  0  0  0  0  0  0  0
  133.1651  126.3969   68.1555 H   0  0  0  0  0  0  0  0  0  0  0  0
  128.1100  126.3700   64.5030 H   0  0  0  0  0  0  0  0  0  0  0  0
  128.6480  126.0530   66.1050 H   0  0  0  0  0  0  0  0  0  0  0  0
  126.8201  123.7729   61.0021 H   0  0  0  0  0  0  0  0  0  0  0  0
  125.7109  122.8958   58.9582 H   0  0  0  0  0  0  0  0  0  0  0  0
  1  2  1  0
  2  3  1  0
  3  4  2  0
  3  5  1  0
  5  6  2  0
  6  7  1  0
  7  8  2  0
  8  9  1  0
  9 10  1  0
 10 11  2  0
 10 12  1  0
 12 13  1  0
 13 14  1  0
 14 15  2  0
 15 16  1  0
 16 17  1  0
 16 18  2  0
 18 19  1  0
 19 20  1  0
 20 21  1  0
 20 22  1  0
 20 23  1  0
 19 24  2  0
 24 25  1  0
 25 26  1  0
  8 27  1  0
 27 28  2  0
 28  5  1  0
 25 12  2  0
 24 14  1  0
  1 29  1  0
  1 30  1  0
  1 31  1  0
  2 32  1  0
  2 33  1  0
  6 34  1  0
  7 35  1  0
  9 36  1  0
 17 37  1  0
 17 38  1  0
 17 39  1  0
 18 40  1  0
 26 41  1  0
 26 42  1  0
 27 43  1  0
 28 44  1  0
M  END
>  <Binding energies>  (1) 
[-7.08]

>  <Ligand effiencies>  (1) 
[-0.22838709677419355]

>  <Interactions>  (1) 
["V-B:PRO:540:CB:9857, V-B:MET:535:CE:9807, V-B:TYR:539:CD2:9846, V-B:PRO:540:N:9856, V-B:PRO:540:CA:9855, H-B:TYR:539:N:9842, V-B:TYR:539:CE2:9848, V-B:MET:535:CG:9805, V-B:TYR:539:C:9839, V-B:TYR:531:CE2:9765, V-B:LEU:363:CD1:8160, V-B:TYR:539:CA:9841, H-A:TYR:484:OH:4347, H-A:GLY:454:N:4049, V-B:PRO:540:CD:9859, V-A:GLU:543:CD:4908, V-B:TYR:539:CZ:9849, H-A:ARG:545:NH2:4928, V-B:TYR:539:CG:9844, V-A:TYR:484:CZ:4346, V-A:HIS:456:CE1:4069, V-A:ARG:545:CD:4923, V-A:ILE:455:C:4051, V-B:GLU:543:CG:9879, H-B:GLU:543:OE1:9881, V-B:GLU:543:CD:9880, H-B:GLU:543:OE2:9882, H-A:ARG:545:NE:4924, V-A:ARG:545:CG:4922, V-A:ARG:545:CZ:4926, V-A:GLU:543:CB:4906, V-A:TYR:484:CE2:4345, V-B:ILE:538:CA:9832, V-B:ILE:538:CG1:9836, V-B:ILE:538:CG2:9835, V-B:ILE:538:CB:9834, H-A:GLU:543:OE1:4909, V-A:GLY:454:CA:4048, V-A:GLY:453:CA:4043, V-A:GLY:453:C:4041, V-A:GLY:454:C:4046, V-A:ILE:455:CA:4053"]

$$$$
4bb_Grossjean_2025
     RDKit          3D

 41 43  0  0  0  0  0  0  0  0999 V2000
  125.4040  123.3820   56.2970 C   0  0  0  0  0  0  0  0  0  0  0  0
  126.3530  122.4200   57.0150 C   0  0  0  0  0  0  0  0  0  0  0  0
  126.4640  121.2750   56.5720 O   0  0  0  0  0  0  0  0  0  0  0  0
  127.0880  122.9170   58.2240 C   0  0  0  0  0  0  0  0  0  0  0  0
  128.4850  122.8270   58.2640 C   0  0  0  0  0  0  0  0  0  0  0  0
  129.1910  123.2800   59.3750 C   0  0  0  0  0  0  0  0  0  0  0  0
  128.5160  123.8380   60.4620 C   0  0  0  0  0  0  0  0  0  0  0  0
  129.3280  124.2610   61.5340 N   0  0  0  0  0  0  0  0  0  0  0  0
  129.1850  125.3180   62.3700 C   0  0  0  0  0  0  0  0  0  0  0  0
  128.2730  126.1410   62.2950 O   0  0  0  0  0  0  0  0  0  0  0  0
  130.2290  125.4530   63.3890 C   0  0  0  0  0  0  0  0  0  0  0  0
  131.8720  124.9120   63.0530 S   0  0  0  0  0  0  0  0  0  0  0  0
  132.3980  125.3570   64.6600 C   0  0  0  0  0  0  0  0  0  0  0  0
  133.6590  125.1820   65.0520 N   0  0  0  0  0  0  0  0  0  0  0  0
  133.9450  125.5640   66.3180 C   0  0  0  0  0  0  0  0  0  0  0  0
  135.3870  125.3570   66.7440 C   0  0  0  0  0  0  0  0  0  0  0  0
  133.0100  126.1120   67.1920 C   0  0  0  0  0  0  0  0  0  0  0  0
  131.6810  126.3000   66.7840 C   0  0  0  0  0  0  0  0  0  0  0  0
  130.6880  126.9060   67.7810 C   0  0  0  0  0  0  0  0  0  0  0  0
  131.2660  127.7320   68.6570 F   0  0  0  0  0  0  0  0  0  0  0  0
  129.7610  127.6050   67.1250 F   0  0  0  0  0  0  0  0  0  0  0  0
  130.0970  125.9360   68.4770 F   0  0  0  0  0  0  0  0  0  0  0  0
  131.3440  125.9070   65.4530 C   0  0  0  0  0  0  0  0  0  0  0  0
  130.1160  125.9440   64.7010 C   0  0  0  0  0  0  0  0  0  0  0  0
  128.9420  126.4240   65.2220 N   0  0  0  0  0  0  0  0  0  0  0  0
  127.1160  123.9240   60.4320 C   0  0  0  0  0  0  0  0  0  0  0  0
  126.4120  123.4690   59.3210 C   0  0  0  0  0  0  0  0  0  0  0  0
  124.8349  123.9589   57.0408 H   0  0  0  0  0  0  0  0  0  0  0  0
  125.9869  124.0701   55.6670 H   0  0  0  0  0  0  0  0  0  0  0  0
  124.7081  122.8086   55.6670 H   0  0  0  0  0  0  0  0  0  0  0  0
  129.0287  122.3950   57.4109 H   0  0  0  0  0  0  0  0  0  0  0  0
  130.2877  123.1977   59.3964 H   0  0  0  0  0  0  0  0  0  0  0  0
  130.1500  123.6940   61.6760 H   0  0  0  0  0  0  0  0  0  0  0  0
  135.4472  125.3484   67.8423 H   0  0  0  0  0  0  0  0  0  0  0  0
  135.7518  124.3973   66.3492 H   0  0  0  0  0  0  0  0  0  0  0  0
  136.0070  126.1753   66.3492 H   0  0  0  0  0  0  0  0  0  0  0  0
  133.3153  126.3994   68.2090 H   0  0  0  0  0  0  0  0  0  0  0  0
  128.7460  127.4140   65.2770 H   0  0  0  0  0  0  0  0  0  0  0  0
  128.2270  125.8000   65.5730 H   0  0  0  0  0  0  0  0  0  0  0  0
  126.5738  124.3518   61.2881 H   0  0  0  0  0  0  0  0  0  0  0  0
  125.3146  123.5432   59.3035 H   0  0  0  0  0  0  0  0  0  0  0  0
  1  2  1  0
  2  3  2  0
  2  4  1  0
  4  5  2  0
  5  6  1  0
  6  7  2  0
  7  8  1  0
  8  9  1  0
  9 10  2  0
  9 11  1  0
 11 12  1  0
 12 13  1  0
 13 14  2  0
 14 15  1  0
 15 16  1  0
 15 17  2  0
 17 18  1  0
 18 19  1  0
 19 20  1  0
 19 21  1  0
 19 22  1  0
 18 23  2  0
 23 24  1  0
 24 25  1  0
  7 26  1  0
 26 27  2  0
 27  4  1  0
 24 11  2  0
 23 13  1  0
  1 28  1  0
  1 29  1  0
  1 30  1  0
  5 31  1  0
  6 32  1  0
  8 33  1  0
 16 34  1  0
 16 35  1  0
 16 36  1  0
 17 37  1  0
 25 38  1  0
 25 39  1  0
 26 40  1  0
 27 41  1  0
M  END
>  <Binding energies>  (1) 
[-7.2]

>  <Ligand effiencies>  (1) 
[-0.24000000000000002]

>  <Interactions>  (1) 
["V-B:PRO:540:CB:9857, V-B:MET:535:CE:9807, V-B:PRO:540:N:9856, V-B:PRO:540:CA:9855, H-B:TYR:539:N:9842, V-B:TYR:539:CE2:9848, V-B:MET:535:CG:9805, V-B:TYR:539:C:9839, V-B:TYR:531:CE2:9765, V-B:TYR:531:CZ:9766, V-B:LEU:363:CD1:8160, H-A:TYR:484:OH:4347, H-A:GLY:454:N:4049, V-B:PRO:540:CD:9859, V-A:GLU:543:CG:4907, V-A:GLU:543:CD:4908, H-A:ARG:545:NH2:4928, V-A:GLU:543:C:4902, V-A:HIS:456:CE1:4069, V-A:ARG:545:CD:4923, V-A:ILE:455:C:4051, V-B:GLU:543:CG:9879, H-B:GLU:543:OE1:9881, V-B:GLU:543:CD:9880, H-B:GLU:543:OE2:9882, H-A:ARG:545:NE:4924, V-A:ARG:545:CG:4922, V-A:ARG:545:CZ:4926, V-A:GLU:543:CB:4906, V-A:TYR:484:CE2:4345, H-A:GLU:543:OE1:4909, V-A:GLY:454:CA:4048, V-A:GLY:453:CA:4043, V-A:GLY:453:C:4041, V-A:GLY:454:C:4046, V-A:ILE:455:CA:4053"]

$$$$
4bc_Grossjean_2025
     RDKit          3D

 40 42  0  0  0  0  0  0  0  0999 V2000
  125.3860  122.0360   56.3000 C   0  0  0  0  0  0  0  0  0  0  0  0
  126.7810  121.8500   56.5160 O   0  0  0  0  0  0  0  0  0  0  0  0
  127.3610  122.3710   57.6580 C   0  0  0  0  0  0  0  0  0  0  0  0
  128.7480  122.2670   57.7540 C   0  0  0  0  0  0  0  0  0  0  0  0
  129.4210  122.7630   58.8680 C   0  0  0  0  0  0  0  0  0  0  0  0
  128.7120  123.3780   59.9010 C   0  0  0  0  0  0  0  0  0  0  0  0
  129.4740  123.8340   60.9920 N   0  0  0  0  0  0  0  0  0  0  0  0
  129.5200  125.0690   61.5490 C   0  0  0  0  0  0  0  0  0  0  0  0
  128.8840  126.0360   61.1290 O   0  0  0  0  0  0  0  0  0  0  0  0
  130.4010  125.2010   62.7140 C   0  0  0  0  0  0  0  0  0  0  0  0
  132.1230  124.8610   62.5660 S   0  0  0  0  0  0  0  0  0  0  0  0
  132.3870  125.2290   64.2550 C   0  0  0  0  0  0  0  0  0  0  0  0
  133.6000  125.1510   64.8020 N   0  0  0  0  0  0  0  0  0  0  0  0
  133.6790  125.4580   66.1170 C   0  0  0  0  0  0  0  0  0  0  0  0
  135.0690  125.3690   66.7190 C   0  0  0  0  0  0  0  0  0  0  0  0
  132.5840  125.8350   66.8910 C   0  0  0  0  0  0  0  0  0  0  0  0
  131.3050  125.9180   66.3200 C   0  0  0  0  0  0  0  0  0  0  0  0
  130.1310  126.3360   67.2140 C   0  0  0  0  0  0  0  0  0  0  0  0
  129.4260  125.2970   67.6670 F   0  0  0  0  0  0  0  0  0  0  0  0
  130.5870  127.0020   68.2730 F   0  0  0  0  0  0  0  0  0  0  0  0
  129.2960  127.1160   66.5280 F   0  0  0  0  0  0  0  0  0  0  0  0
  131.1870  125.6030   64.9340 C   0  0  0  0  0  0  0  0  0  0  0  0
  130.0680  125.5800   64.0240 C   0  0  0  0  0  0  0  0  0  0  0  0
  128.7920  125.9020   64.4120 N   0  0  0  0  0  0  0  0  0  0  0  0
  127.3140  123.4740   59.8180 C   0  0  0  0  0  0  0  0  0  0  0  0
  126.6450  122.9770   58.7030 C   0  0  0  0  0  0  0  0  0  0  0  0
  124.8708  122.1047   57.2695 H   0  0  0  0  0  0  0  0  0  0  0  0
  125.2234  122.9638   55.7318 H   0  0  0  0  0  0  0  0  0  0  0  0
  124.9860  121.1832   55.7318 H   0  0  0  0  0  0  0  0  0  0  0  0
  129.3161  121.7888   56.9424 H   0  0  0  0  0  0  0  0  0  0  0  0
  130.5151  122.6697   58.9339 H   0  0  0  0  0  0  0  0  0  0  0  0
  130.0930  123.1420   61.3880 H   0  0  0  0  0  0  0  0  0  0  0  0
  134.9943  125.3738   67.8164 H   0  0  0  0  0  0  0  0  0  0  0  0
  135.5528  124.4380   66.3885 H   0  0  0  0  0  0  0  0  0  0  0  0
  135.6676  126.2307   66.3885 H   0  0  0  0  0  0  0  0  0  0  0  0
  132.7229  126.0692   67.9568 H   0  0  0  0  0  0  0  0  0  0  0  0
  128.4780  125.7900   65.3640 H   0  0  0  0  0  0  0  0  0  0  0  0
  128.1210  126.2700   63.7510 H   0  0  0  0  0  0  0  0  0  0  0  0
  126.7463  123.9427   60.6353 H   0  0  0  0  0  0  0  0  0  0  0  0
  125.5499  123.0594   58.6402 H   0  0  0  0  0  0  0  0  0  0  0  0
  1  2  1  0
  2  3  1  0
  3  4  2  0
  4  5  1  0
  5  6  2  0
  6  7  1  0
  7  8  1  0
  8  9  2  0
  8 10  1  0
 10 11  1  0
 11 12  1  0
 12 13  2  0
 13 14  1  0
 14 15  1  0
 14 16  2  0
 16 17  1  0
 17 18  1  0
 18 19  1  0
 18 20  1  0
 18 21  1  0
 17 22  2  0
 22 23  1  0
 23 24  1  0
  6 25  1  0
 25 26  2  0
 26  3  1  0
 23 10  2  0
 22 12  1  0
  1 27  1  0
  1 28  1  0
  1 29  1  0
  4 30  1  0
  5 31  1  0
  7 32  1  0
 15 33  1  0
 15 34  1  0
 15 35  1  0
 16 36  1  0
 24 37  1  0
 24 38  1  0
 25 39  1  0
 26 40  1  0
M  END
>  <Binding energies>  (1) 
[-6.44]

>  <Ligand effiencies>  (1) 
[-0.2220689655172414]

>  <Interactions>  (1) 
["V-B:PRO:540:CB:9857, V-B:MET:535:CE:9807, V-B:TYR:539:CD2:9846, V-B:PRO:540:N:9856, V-B:PRO:540:CA:9855, H-B:TYR:539:N:9842, V-B:TYR:539:CE2:9848, V-B:TYR:539:C:9839, V-B:LEU:363:CD1:8160, H-A:TYR:484:OH:4347, H-A:GLY:454:N:4049, V-B:PRO:540:CD:9859, V-A:GLU:543:CD:4908, V-B:TYR:539:CZ:9849, H-A:ARG:545:NH2:4928, V-B:TYR:539:CG:9844, V-A:TYR:484:CZ:4346, V-A:HIS:456:CE1:4069, V-B:GLU:543:CB:9878, V-A:ARG:545:CD:4923, V-A:ILE:455:C:4051, V-B:GLU:543:CG:9879, V-B:TYR:539:CE1:9847, H-B:GLU:543:OE1:9881, V-B:GLU:543:CD:9880, H-B:GLU:543:OE2:9882, V-B:TYR:539:CD1:9845, H-A:ARG:545:NE:4924, V-A:ARG:545:CG:4922, V-A:ARG:545:CZ:4926, V-A:GLU:543:CB:4906, V-A:TYR:484:CE2:4345, V-B:ILE:538:CG2:9835, H-A:GLU:543:OE1:4909, V-A:GLY:454:CA:4048, V-A:GLY:453:CA:4043, V-A:GLY:453:C:4041"]

$$$$
4bd_Grossjean_2025
     RDKit          3D

 36 38  0  0  0  0  0  0  0  0999 V2000
  129.4970  132.1330   54.3070 C   0  0  0  0  0  0  0  0  0  0  0  0
  129.9530  131.7380   55.7000 C   0  0  0  0  0  0  0  0  0  0  0  0
  131.1660  131.0860   55.9010 C   0  0  0  0  0  0  0  0  0  0  0  0
  131.5740  130.7240   57.1940 C   0  0  0  0  0  0  0  0  0  0  0  0
  132.9160  130.0050   57.3660 C   0  0  0  0  0  0  0  0  0  0  0  0
  133.6190  129.9340   56.2330 F   0  0  0  0  0  0  0  0  0  0  0  0
  133.6650  130.6520   58.2590 F   0  0  0  0  0  0  0  0  0  0  0  0
  132.7090  128.7570   57.7840 F   0  0  0  0  0  0  0  0  0  0  0  0
  130.6980  131.0550   58.2710 C   0  0  0  0  0  0  0  0  0  0  0  0
  130.7740  130.8500   59.6970 C   0  0  0  0  0  0  0  0  0  0  0  0
  131.8410  130.2350   60.2990 N   0  0  0  0  0  0  0  0  0  0  0  0
  129.6630  131.3350   60.4070 C   0  0  0  0  0  0  0  0  0  0  0  0
  129.4060  131.2810   61.8490 C   0  0  0  0  0  0  0  0  0  0  0  0
  130.2150  131.7520   62.6500 O   0  0  0  0  0  0  0  0  0  0  0  0
  128.2350  130.6980   62.2090 N   0  0  0  0  0  0  0  0  0  0  0  0
  127.7160  130.4530   63.4940 C   0  0  0  0  0  0  0  0  0  0  0  0
  127.0690  129.2260   63.6690 C   0  0  0  0  0  0  0  0  0  0  0  0
  126.5300  128.8860   64.9070 C   0  0  0  0  0  0  0  0  0  0  0  0
  126.6450  129.7710   65.9760 C   0  0  0  0  0  0  0  0  0  0  0  0
  127.2980  130.9910   65.8180 C   0  0  0  0  0  0  0  0  0  0  0  0
  127.8380  131.3350   64.5810 C   0  0  0  0  0  0  0  0  0  0  0  0
  128.4850  132.0700   59.3220 S   0  0  0  0  0  0  0  0  0  0  0  0
  129.4820  131.7230   57.9290 C   0  0  0  0  0  0  0  0  0  0  0  0
  129.1010  132.0640   56.6990 N   0  0  0  0  0  0  0  0  0  0  0  0
  128.6675  132.8515   54.3827 H   0  0  0  0  0  0  0  0  0  0  0  0
  130.3346  132.5957   53.7645 H   0  0  0  0  0  0  0  0  0  0  0  0
  129.1585  131.2380   53.7645 H   0  0  0  0  0  0  0  0  0  0  0  0
  131.8097  130.8527   55.0400 H   0  0  0  0  0  0  0  0  0  0  0  0
  132.0550  130.3710   61.2780 H   0  0  0  0  0  0  0  0  0  0  0  0
  132.4500  129.6150   59.7840 H   0  0  0  0  0  0  0  0  0  0  0  0
  127.6320  130.4080   61.4530 H   0  0  0  0  0  0  0  0  0  0  0  0
  126.9854  128.5259   62.8247 H   0  0  0  0  0  0  0  0  0  0  0  0
  126.0157  127.9228   65.0400 H   0  0  0  0  0  0  0  0  0  0  0  0
  126.2165  129.5043   66.9534 H   0  0  0  0  0  0  0  0  0  0  0  0
  127.3872  131.6821   66.6691 H   0  0  0  0  0  0  0  0  0  0  0  0
  128.3591  132.2955   64.4553 H   0  0  0  0  0  0  0  0  0  0  0  0
  1  2  1  0
  2  3  2  0
  3  4  1  0
  4  5  1  0
  5  6  1  0
  5  7  1  0
  5  8  1  0
  4  9  2  0
  9 10  1  0
 10 11  1  0
 10 12  2  0
 12 13  1  0
 13 14  2  0
 13 15  1  0
 15 16  1  0
 16 17  2  0
 17 18  1  0
 18 19  2  0
 19 20  1  0
 20 21  2  0
 12 22  1  0
 22 23  1  0
 23 24  2  0
 24  2  1  0
 23  9  1  0
 21 16  1  0
  1 25  1  0
  1 26  1  0
  1 27  1  0
  3 28  1  0
 11 29  1  0
 11 30  1  0
 15 31  1  0
 17 32  1  0
 18 33  1  0
 19 34  1  0
 20 35  1  0
 21 36  1  0
M  END
>  <Binding energies>  (1) 
[-6.33]

>  <Ligand effiencies>  (1) 
[-0.23444444444444446]

>  <Interactions>  (1) 
["V-A:ASP:366:CG:3212, V-A:PRO:540:N:4884, V-A:ILE:538:CA:4860, V-A:ASP:366:CB:3211, V-A:ILE:538:CG2:4863, V-A:TYR:539:CD1:4873, V-A:PRO:540:CA:4883, H-A:TYR:539:N:4870, V-A:PRO:540:CB:4885, V-A:TYR:539:CE1:4875, V-A:TYR:531:CZ:4794, V-A:ILE:538:CB:4862, V-A:ALA:541:CB:4892, V-A:TYR:539:C:4867, V-A:LEU:363:CD1:3188, V-A:GLU:543:CG:4907, V-A:GLU:543:CD:4908, H-A:ASP:366:OD2:3214, V-A:ILE:538:C:4858, H-A:ALA:541:N:4891, V-A:TYR:531:CE2:4793, V-A:LEU:363:CA:3184, V-A:LEU:363:CB:3186, V-B:TYR:484:CZ:9318, V-B:TYR:484:CE2:9317, H-A:GLU:543:OE2:4910"]

$$$$
4be_Grossjean_2025
     RDKit          3D

 38 40  0  0  0  0  0  0  0  0999 V2000
  128.0250  129.5110   67.2230 C   0  0  0  0  0  0  0  0  0  0  0  0
  127.1690  129.6510   65.9780 C   0  0  0  0  0  0  0  0  0  0  0  0
  125.7820  129.4910   66.0230 C   0  0  0  0  0  0  0  0  0  0  0  0
  125.0590  129.6310   64.8370 C   0  0  0  0  0  0  0  0  0  0  0  0
  125.7330  129.9240   63.6490 C   0  0  0  0  0  0  0  0  0  0  0  0
  127.1240  130.0770   63.6760 C   0  0  0  0  0  0  0  0  0  0  0  0
  127.7420  130.3640   62.4460 N   0  0  0  0  0  0  0  0  0  0  0  0
  128.8270  131.1400   62.1980 C   0  0  0  0  0  0  0  0  0  0  0  0
  129.4620  131.7310   63.0740 O   0  0  0  0  0  0  0  0  0  0  0  0
  129.2050  131.2600   60.7870 C   0  0  0  0  0  0  0  0  0  0  0  0
  128.1120  132.0340   59.6410 S   0  0  0  0  0  0  0  0  0  0  0  0
  129.2200  131.7440   58.3200 C   0  0  0  0  0  0  0  0  0  0  0  0
  128.9380  132.1360   57.0790 N   0  0  0  0  0  0  0  0  0  0  0  0
  129.8740  131.8570   56.1410 C   0  0  0  0  0  0  0  0  0  0  0  0
  129.5330  132.3090   54.7330 C   0  0  0  0  0  0  0  0  0  0  0  0
  131.0730  131.2050   56.4150 C   0  0  0  0  0  0  0  0  0  0  0  0
  131.3760  130.7910   57.7210 C   0  0  0  0  0  0  0  0  0  0  0  0
  132.7100  130.0800   57.9740 C   0  0  0  0  0  0  0  0  0  0  0  0
  133.3270  130.5060   59.0790 F   0  0  0  0  0  0  0  0  0  0  0  0
  132.5040  128.7710   58.1130 F   0  0  0  0  0  0  0  0  0  0  0  0
  133.5350  130.2900   56.9490 F   0  0  0  0  0  0  0  0  0  0  0  0
  130.4080  131.0650   58.7330 C   0  0  0  0  0  0  0  0  0  0  0  0
  130.3650  130.7930   60.1490 C   0  0  0  0  0  0  0  0  0  0  0  0
  131.3740  130.1400   60.8090 N   0  0  0  0  0  0  0  0  0  0  0  0
  127.8380  129.9360   64.8310 N   0  0  0  0  0  0  0  0  0  0  0  0
  127.3921  129.6145   68.1167 H   0  0  0  0  0  0  0  0  0  0  0  0
  128.5068  128.5221   67.2274 H   0  0  0  0  0  0  0  0  0  0  0  0
  128.7967  130.2949   67.2274 H   0  0  0  0  0  0  0  0  0  0  0  0
  125.2719  129.2603   66.9699 H   0  0  0  0  0  0  0  0  0  0  0  0
  123.9655  129.5114   64.8380 H   0  0  0  0  0  0  0  0  0  0  0  0
  125.1782  130.0330   62.7054 H   0  0  0  0  0  0  0  0  0  0  0  0
  127.2830  129.9640   61.6410 H   0  0  0  0  0  0  0  0  0  0  0  0
  128.8711  133.1863   54.7797 H   0  0  0  0  0  0  0  0  0  0  0  0
  130.4573  132.5751   54.1993 H   0  0  0  0  0  0  0  0  0  0  0  0
  129.0234  131.4932   54.1993 H   0  0  0  0  0  0  0  0  0  0  0  0
  131.7882  131.0129   55.6016 H   0  0  0  0  0  0  0  0  0  0  0  0
  131.5750  130.3120   61.7840 H   0  0  0  0  0  0  0  0  0  0  0  0
  131.9600  129.4660   60.3370 H   0  0  0  0  0  0  0  0  0  0  0  0
  1  2  1  0
  2  3  2  0
  3  4  1  0
  4  5  2  0
  5  6  1  0
  6  7  1  0
  7  8  1  0
  8  9  2  0
  8 10  1  0
 10 11  1  0
 11 12  1  0
 12 13  2  0
 13 14  1  0
 14 15  1  0
 14 16  2  0
 16 17  1  0
 17 18  1  0
 18 19  1  0
 18 20  1  0
 18 21  1  0
 17 22  2  0
 22 23  1  0
 23 24  1  0
  6 25  2  0
 25  2  1  0
 23 10  2  0
 22 12  1  0
  1 26  1  0
  1 27  1  0
  1 28  1  0
  3 29  1  0
  4 30  1  0
  5 31  1  0
  7 32  1  0
 15 33  1  0
 15 34  1  0
 15 35  1  0
 16 36  1  0
 24 37  1  0
 24 38  1  0
M  END
>  <Binding energies>  (1) 
[-6.25]

>  <Ligand effiencies>  (1) 
[-0.22321428571428573]

>  <Interactions>  (1) 
["V-A:ASP:366:CG:3212, V-A:PRO:540:N:4884, V-A:ILE:538:CA:4860, V-A:ASP:366:CB:3211, V-A:ILE:538:CG2:4863, V-A:TYR:539:CD1:4873, V-A:PRO:540:CA:4883, H-A:TYR:539:N:4870, V-A:PRO:540:CB:4885, V-A:TYR:539:CE1:4875, V-A:TYR:531:CZ:4794, V-A:ILE:538:CB:4862, V-B:ARG:545:CZ:9898, V-A:ALA:541:CB:4892, V-A:TYR:539:C:4867, V-A:LEU:363:CD1:3188, V-A:GLU:543:CG:4907, V-A:GLU:543:CD:4908, H-A:ASP:366:OD2:3214, V-B:HIS:456:CE1:9041, V-A:GLU:543:CB:4906, V-A:ILE:538:C:4858, H-A:ALA:541:N:4891, V-A:TYR:531:CE2:4793, V-A:LEU:363:CA:3184, V-A:LEU:363:CG:3187, V-B:TYR:484:CZ:9318, V-B:TYR:484:CE2:9317, H-A:GLU:543:OE2:4910"]

$$$$
4bf_Grossjean_2025
     RDKit          3D

 35 37  0  0  0  0  0  0  0  0999 V2000
  129.5010  132.3710   54.7940 C   0  0  0  0  0  0  0  0  0  0  0  0
  129.7930  131.8980   56.2080 C   0  0  0  0  0  0  0  0  0  0  0  0
  131.0100  131.3030   56.5280 C   0  0  0  0  0  0  0  0  0  0  0  0
  131.2650  130.8680   57.8370 C   0  0  0  0  0  0  0  0  0  0  0  0
  132.6190  130.2160   58.1420 C   0  0  0  0  0  0  0  0  0  0  0  0
  133.1090  130.5640   59.3350 F   0  0  0  0  0  0  0  0  0  0  0  0
  132.4940  128.8890   58.1340 F   0  0  0  0  0  0  0  0  0  0  0  0
  133.5130  130.5810   57.2220 F   0  0  0  0  0  0  0  0  0  0  0  0
  130.2330  131.0620   58.8030 C   0  0  0  0  0  0  0  0  0  0  0  0
  130.1320  130.7510   60.2070 C   0  0  0  0  0  0  0  0  0  0  0  0
  131.1480  130.1500   60.9070 N   0  0  0  0  0  0  0  0  0  0  0  0
  128.9090  131.1210   60.7910 C   0  0  0  0  0  0  0  0  0  0  0  0
  128.4610  130.9280   62.1740 C   0  0  0  0  0  0  0  0  0  0  0  0
  129.2170  131.1640   63.1170 O   0  0  0  0  0  0  0  0  0  0  0  0
  127.1830  130.4970   62.3150 N   0  0  0  0  0  0  0  0  0  0  0  0
  126.4720  130.1710   63.4850 C   0  0  0  0  0  0  0  0  0  0  0  0
  127.0460  129.7560   64.6990 C   0  0  0  0  0  0  0  0  0  0  0  0
  126.2220  129.4470   65.7840 C   0  0  0  0  0  0  0  0  0  0  0  0
  124.8400  129.5560   65.6250 C   0  0  0  0  0  0  0  0  0  0  0  0
  124.2610  129.9470   64.4620 N   0  0  0  0  0  0  0  0  0  0  0  0
  125.0750  130.2440   63.4170 C   0  0  0  0  0  0  0  0  0  0  0  0
  127.8380  131.8670   59.6070 S   0  0  0  0  0  0  0  0  0  0  0  0
  129.0320  131.6850   58.3430 C   0  0  0  0  0  0  0  0  0  0  0  0
  128.7950  132.0980   57.0990 N   0  0  0  0  0  0  0  0  0  0  0  0
  128.9235  133.3064   54.8322 H   0  0  0  0  0  0  0  0  0  0  0  0
  130.4483  132.5463   54.2630 H   0  0  0  0  0  0  0  0  0  0  0  0
  128.9198  131.6027   54.2630 H   0  0  0  0  0  0  0  0  0  0  0  0
  131.7764  131.1731   55.7497 H   0  0  0  0  0  0  0  0  0  0  0  0
  131.2930  130.3230   61.8910 H   0  0  0  0  0  0  0  0  0  0  0  0
  131.7870  129.5100   60.4580 H   0  0  0  0  0  0  0  0  0  0  0  0
  126.6510  130.3990   61.4630 H   0  0  0  0  0  0  0  0  0  0  0  0
  128.1389  129.6749   64.7943 H   0  0  0  0  0  0  0  0  0  0  0  0
  126.6534  129.1247   66.7432 H   0  0  0  0  0  0  0  0  0  0  0  0
  124.1916  129.3143   66.4801 H   0  0  0  0  0  0  0  0  0  0  0  0
  124.6141  130.5579   62.4688 H   0  0  0  0  0  0  0  0  0  0  0  0
  1  2  1  0
  2  3  2  0
  3  4  1  0
  4  5  1  0
  5  6  1  0
  5  7  1  0
  5  8  1  0
  4  9  2  0
  9 10  1  0
 10 11  1  0
 10 12  2  0
 12 13  1  0
 13 14  2  0
 13 15  1  0
 15 16  1  0
 16 17  2  0
 17 18  1  0
 18 19  2  0
 19 20  1  0
 20 21  2  0
 12 22  1  0
 22 23  1  0
 23 24  2  0
 24  2  1  0
 23  9  1  0
 21 16  1  0
  1 25  1  0
  1 26  1  0
  1 27  1  0
  3 28  1  0
 11 29  1  0
 11 30  1  0
 15 31  1  0
 17 32  1  0
 18 33  1  0
 19 34  1  0
 21 35  1  0
M  END
>  <Binding energies>  (1) 
[-6.11]

>  <Ligand effiencies>  (1) 
[-0.2262962962962963]

>  <Interactions>  (1) 
["V-A:ASP:366:CG:3212, V-A:ILE:538:CA:4860, V-A:ASP:366:CB:3211, V-A:ILE:538:CG2:4863, V-A:TYR:539:CD1:4873, V-A:PRO:540:CA:4883, H-A:TYR:539:N:4870, V-A:PRO:540:CB:4885, V-A:TYR:539:CE1:4875, V-A:ILE:538:CB:4862, H-B:GLY:454:N:9021, V-B:ARG:545:CZ:9898, V-A:TYR:539:C:4867, V-A:LEU:363:CD1:3188, H-B:ARG:545:NH2:9900, H-A:ASP:366:OD2:3214, V-A:ILE:538:C:4858, V-A:LEU:363:CA:3184, V-A:LEU:363:CG:3187, V-A:LEU:363:CB:3186, H-A:GLU:543:OE2:4910"]

$$$$
4bg_Grossjean_2025
     RDKit          3D

 39 41  0  0  0  0  0  0  0  0999 V2000
  128.9320  121.7210   61.1090 C   0  0  0  0  0  0  0  0  0  0  0  0
  129.6480  122.5610   60.0670 C   0  0  0  0  0  0  0  0  0  0  0  0
  131.0370  122.6590   60.0560 C   0  0  0  0  0  0  0  0  0  0  0  0
  131.6870  123.4440   59.0890 C   0  0  0  0  0  0  0  0  0  0  0  0
  133.2170  123.5210   59.1170 C   0  0  0  0  0  0  0  0  0  0  0  0
  133.7750  123.2400   57.9370 F   0  0  0  0  0  0  0  0  0  0  0  0
  133.5990  124.7520   59.4560 F   0  0  0  0  0  0  0  0  0  0  0  0
  133.6980  122.6500   60.0030 F   0  0  0  0  0  0  0  0  0  0  0  0
  130.8650  124.1200   58.1390 C   0  0  0  0  0  0  0  0  0  0  0  0
  131.1620  124.9970   57.0330 C   0  0  0  0  0  0  0  0  0  0  0  0
  132.4410  125.3640   56.6980 N   0  0  0  0  0  0  0  0  0  0  0  0
  130.0290  125.4320   56.3280 C   0  0  0  0  0  0  0  0  0  0  0  0
  129.9600  126.3420   55.1850 C   0  0  0  0  0  0  0  0  0  0  0  0
  130.9080  126.4730   54.4090 O   0  0  0  0  0  0  0  0  0  0  0  0
  128.7880  126.9900   55.0160 N   0  0  0  0  0  0  0  0  0  0  0  0
  128.4970  127.9550   53.9560 C   0  0  0  0  0  0  0  0  0  0  0  0
  128.8490  129.3900   54.3250 C   0  0  0  0  0  0  0  0  0  0  0  0
  128.1630  130.0380   55.3560 C   0  0  0  0  0  0  0  0  0  0  0  0
  128.5130  131.3370   55.7160 C   0  0  0  0  0  0  0  0  0  0  0  0
  129.5580  131.9790   55.0550 C   0  0  0  0  0  0  0  0  0  0  0  0
  130.2580  131.3330   54.0390 C   0  0  0  0  0  0  0  0  0  0  0  0
  129.9070  130.0350   53.6770 C   0  0  0  0  0  0  0  0  0  0  0  0
  128.5480  124.7960   57.0380 S   0  0  0  0  0  0  0  0  0  0  0  0
  129.4540  123.9290   58.2570 C   0  0  0  0  0  0  0  0  0  0  0  0
  128.8420  123.1850   59.1780 N   0  0  0  0  0  0  0  0  0  0  0  0
  129.2209  122.0599   62.1148 H   0  0  0  0  0  0  0  0  0  0  0  0
  127.8446  121.8298   60.9836 H   0  0  0  0  0  0  0  0  0  0  0  0
  129.2117  120.6646   60.9836 H   0  0  0  0  0  0  0  0  0  0  0  0
  131.6290  122.1184   60.8092 H   0  0  0  0  0  0  0  0  0  0  0  0
  132.8190  126.2680   56.9430 H   0  0  0  0  0  0  0  0  0  0  0  0
  133.0490  124.7410   56.1840 H   0  0  0  0  0  0  0  0  0  0  0  0
  128.0840  126.8950   55.7340 H   0  0  0  0  0  0  0  0  0  0  0  0
  129.0735  127.6743   53.0622 H   0  0  0  0  0  0  0  0  0  0  0  0
  127.4116  127.9239   53.7803 H   0  0  0  0  0  0  0  0  0  0  0  0
  127.3468  129.5221   55.8830 H   0  0  0  0  0  0  0  0  0  0  0  0
  127.9668  131.8539   56.5188 H   0  0  0  0  0  0  0  0  0  0  0  0
  129.8328  133.0058   55.3383 H   0  0  0  0  0  0  0  0  0  0  0  0
  131.0843  131.8457   53.5249 H   0  0  0  0  0  0  0  0  0  0  0  0
  130.4621  129.5169   52.8811 H   0  0  0  0  0  0  0  0  0  0  0  0
  1  2  1  0
  2  3  2  0
  3  4  1  0
  4  5  1  0
  5  6  1  0
  5  7  1  0
  5  8  1  0
  4  9  2  0
  9 10  1  0
 10 11  1  0
 10 12  2  0
 12 13  1  0
 13 14  2  0
 13 15  1  0
 15 16  1  0
 16 17  1  0
 17 18  2  0
 18 19  1  0
 19 20  2  0
 20 21  1  0
 21 22  2  0
 12 23  1  0
 23 24  1  0
 24 25  2  0
 25  2  1  0
 24  9  1  0
 22 17  1  0
  1 26  1  0
  1 27  1  0
  1 28  1  0
  3 29  1  0
 11 30  1  0
 11 31  1  0
 15 32  1  0
 16 33  1  0
 16 34  1  0
 18 35  1  0
 19 36  1  0
 20 37  1  0
 21 38  1  0
 22 39  1  0
M  END
>  <Binding energies>  (1) 
[-6.51]

>  <Ligand effiencies>  (1) 
[-0.23249999999999998]

>  <Interactions>  (1) 
["H-B:TYR:531:OH:9767, V-B:MET:535:CE:9807, V-A:ILE:369:CG2:3236, V-B:PRO:540:CA:9855, V-B:PRO:540:C:9853, V-B:ALA:541:CB:9864, V-B:TYR:539:CE2:9848, V-B:TYR:531:CZ:9766, V-A:ASP:366:CG:3212, V-A:ILE:538:CA:4860, V-A:ASP:366:CA:3209, V-A:MET:535:CB:4832, V-A:ASP:366:CB:3211, V-A:ILE:538:CG2:4863, V-A:ASP:366:C:3207, H-B:TYR:539:OH:9850, V-A:TYR:539:CD1:4873, H-A:TYR:531:OH:4795, V-A:TYR:539:CZ:4877, V-A:TYR:539:CE1:4875, V-A:TYR:531:CZ:4794, V-A:ILE:538:CB:4862, V-A:MET:535:CG:4833, V-B:TYR:531:CE1:9764, V-A:ILE:369:CD1:3238, V-B:TYR:539:CZ:9849, V-A:ILE:369:CB:3235, H-B:MET:535:SD:9806, H-A:ASP:366:O:3208, V-A:ILE:369:C:3231"]

$$$$
4bh_Grossjean_2025
     RDKit          3D

 51 53  0  0  0  0  0  0  0  0999 V2000
  131.6030  120.6350   61.2500 C   0  0  0  0  0  0  0  0  0  0  0  0
  131.1260  121.9740   61.3300 O   0  0  0  0  0  0  0  0  0  0  0  0
  130.0060  122.3400   60.6060 C   0  0  0  0  0  0  0  0  0  0  0  0
  130.0310  122.6890   59.2470 C   0  0  0  0  0  0  0  0  0  0  0  0
  128.8610  123.0520   58.5790 C   0  0  0  0  0  0  0  0  0  0  0  0
  128.9010  123.3830   57.0920 C   0  0  0  0  0  0  0  0  0  0  0  0
  129.0240  124.8150   56.8150 N   0  0  0  0  0  0  0  0  0  0  0  0
  130.0830  125.5850   57.1400 C   0  0  0  0  0  0  0  0  0  0  0  0
  131.0570  125.1480   57.7540 O   0  0  0  0  0  0  0  0  0  0  0  0
  129.9920  126.9950   56.7590 C   0  0  0  0  0  0  0  0  0  0  0  0
  128.8180  127.5090   55.5510 S   0  0  0  0  0  0  0  0  0  0  0  0
  129.3700  129.1640   55.6570 C   0  0  0  0  0  0  0  0  0  0  0  0
  128.8190  130.1290   54.9210 N   0  0  0  0  0  0  0  0  0  0  0  0
  129.3290  131.3700   55.0910 C   0  0  0  0  0  0  0  0  0  0  0  0
  128.6890  132.4540   54.2410 C   0  0  0  0  0  0  0  0  0  0  0  0
  130.3640  131.6690   55.9730 C   0  0  0  0  0  0  0  0  0  0  0  0
  130.9500  130.6570   56.7500 C   0  0  0  0  0  0  0  0  0  0  0  0
  132.0850  131.0330   57.7080 C   0  0  0  0  0  0  0  0  0  0  0  0
  131.7200  130.9960   58.9920 F   0  0  0  0  0  0  0  0  0  0  0  0
  133.1010  130.1850   57.5590 F   0  0  0  0  0  0  0  0  0  0  0  0
  132.5030  132.2720   57.4470 F   0  0  0  0  0  0  0  0  0  0  0  0
  130.4380  129.3350   56.5920 C   0  0  0  0  0  0  0  0  0  0  0  0
  130.7800  128.0710   57.1970 C   0  0  0  0  0  0  0  0  0  0  0  0
  131.7820  127.9380   58.1240 N   0  0  0  0  0  0  0  0  0  0  0  0
  127.6460  123.0400   59.2660 C   0  0  0  0  0  0  0  0  0  0  0  0
  127.5920  122.7030   60.6270 C   0  0  0  0  0  0  0  0  0  0  0  0
  126.4260  122.6840   61.3720 O   0  0  0  0  0  0  0  0  0  0  0  0
  125.4370  123.6830   61.1460 C   0  0  0  0  0  0  0  0  0  0  0  0
  128.7810  122.3610   61.2870 C   0  0  0  0  0  0  0  0  0  0  0  0
  128.7400  122.0110   62.6160 O   0  0  0  0  0  0  0  0  0  0  0  0
  129.1030  123.0620   63.5010 C   0  0  0  0  0  0  0  0  0  0  0  0
  131.7454  120.2352   62.2648 H   0  0  0  0  0  0  0  0  0  0  0  0
  130.8700  120.0162   60.7117 H   0  0  0  0  0  0  0  0  0  0  0  0
  132.5621  120.6190   60.7117 H   0  0  0  0  0  0  0  0  0  0  0  0
  130.9858  122.6762   58.7010 H   0  0  0  0  0  0  0  0  0  0  0  0
  129.7625  122.8665   56.6435 H   0  0  0  0  0  0  0  0  0  0  0  0
  127.9447  123.0514   56.6612 H   0  0  0  0  0  0  0  0  0  0  0  0
  128.2990  125.2190   56.2400 H   0  0  0  0  0  0  0  0  0  0  0  0
  128.2394  133.2154   54.8953 H   0  0  0  0  0  0  0  0  0  0  0  0
  129.4554  132.9224   53.6061 H   0  0  0  0  0  0  0  0  0  0  0  0
  127.9086  132.0092   53.6061 H   0  0  0  0  0  0  0  0  0  0  0  0
  130.7248  132.7044   56.0616 H   0  0  0  0  0  0  0  0  0  0  0  0
  132.1110  127.0320   58.4290 H   0  0  0  0  0  0  0  0  0  0  0  0
  132.2210  128.7460   58.5420 H   0  0  0  0  0  0  0  0  0  0  0  0
  126.7187  123.2981   58.7335 H   0  0  0  0  0  0  0  0  0  0  0  0
  125.0665  124.0573   62.1117 H   0  0  0  0  0  0  0  0  0  0  0  0
  125.8785  124.5137   60.5758 H   0  0  0  0  0  0  0  0  0  0  0  0
  124.6019  123.2499   60.5758 H   0  0  0  0  0  0  0  0  0  0  0  0
  128.9858  122.7227   64.5408 H   0  0  0  0  0  0  0  0  0  0  0  0
  130.1510  123.3452   63.3236 H   0  0  0  0  0  0  0  0  0  0  0  0
  128.4531  123.9316   63.3236 H   0  0  0  0  0  0  0  0  0  0  0  0
  1  2  1  0
  2  3  1  0
  3  4  2  0
  4  5  1  0
  5  6  1  0
  6  7  1  0
  7  8  1  0
  8  9  2  0
  8 10  1  0
 10 11  1  0
 11 12  1  0
 12 13  2  0
 13 14  1  0
 14 15  1  0
 14 16  2  0
 16 17  1  0
 17 18  1  0
 18 19  1  0
 18 20  1  0
 18 21  1  0
 17 22  2  0
 22 23  1  0
 23 24  1  0
  5 25  2  0
 25 26  1  0
 26 27  1  0
 27 28  1  0
 26 29  2  0
 29 30  1  0
 30 31  1  0
 29  3  1  0
 23 10  2  0
 22 12  1  0
  1 32  1  0
  1 33  1  0
  1 34  1  0
  4 35  1  0
  6 36  1  0
  6 37  1  0
  7 38  1  0
 15 39  1  0
 15 40  1  0
 15 41  1  0
 16 42  1  0
 24 43  1  0
 24 44  1  0
 25 45  1  0
 28 46  1  0
 28 47  1  0
 28 48  1  0
 31 49  1  0
 31 50  1  0
 31 51  1  0
M  END
>  <Binding energies>  (1) 
[-5.88]

>  <Ligand effiencies>  (1) 
[-0.17294117647058824]

>  <Interactions>  (1) 
["H-B:ALA:541:N:9863, V-B:PRO:540:CB:9857, H-B:TYR:531:OH:9767, V-B:MET:535:CE:9807, V-B:TYR:539:CD2:9846, V-A:LEU:475:CD1:4257, V-B:PRO:540:CA:9855, V-B:PRO:540:C:9853, V-B:ALA:541:CB:9864, V-B:TYR:539:CE2:9848, V-A:ASP:366:CG:3212, V-A:PRO:540:N:4884, V-A:ILE:538:CA:4860, V-A:ASP:366:CB:3211, V-A:ILE:538:CG2:4863, H-B:TYR:539:OH:9850, V-A:TYR:539:CE2:4876, V-A:PRO:540:CA:4883, V-A:TYR:539:CZ:4877, V-A:TYR:539:CD2:4874, V-A:PRO:540:CB:4885, V-A:TYR:539:CE1:4875, V-A:ILE:538:CB:4862, V-A:PRO:540:CD:4887, V-A:LEU:363:CD1:3188, H-A:ASP:366:OD2:3214, V-B:TYR:539:CZ:9849, V-B:GLU:543:CG:9879, V-B:TYR:539:CE1:9847, V-B:GLU:543:CD:9880, H-B:MET:535:SD:9806, V-A:ILE:538:C:4858, V-A:LEU:363:CA:3184, V-A:PRO:540:CG:4886, V-A:VAL:537:C:4850"]

$$$$
4bi_Grossjean_2025
     RDKit          3D

 32 34  0  0  0  0  0  0  0  0999 V2000
  133.2670  125.1180   64.9960 C   0  0  0  0  0  0  0  0  0  0  0  0
  132.5910  124.2620   63.9400 C   0  0  0  0  0  0  0  0  0  0  0  0
  133.2480  123.1760   63.3680 C   0  0  0  0  0  0  0  0  0  0  0  0
  132.6090  122.3910   62.3950 C   0  0  0  0  0  0  0  0  0  0  0  0
  133.3690  121.2010   61.8000 C   0  0  0  0  0  0  0  0  0  0  0  0
  132.6860  120.0550   61.8740 F   0  0  0  0  0  0  0  0  0  0  0  0
  133.6270  121.4270   60.5130 F   0  0  0  0  0  0  0  0  0  0  0  0
  134.5160  121.0240   62.4560 F   0  0  0  0  0  0  0  0  0  0  0  0
  131.2800  122.7600   62.0280 C   0  0  0  0  0  0  0  0  0  0  0  0
  130.3330  122.2110   61.0890 C   0  0  0  0  0  0  0  0  0  0  0  0
  130.6120  121.1190   60.3080 N   0  0  0  0  0  0  0  0  0  0  0  0
  129.1030  122.8890   61.0510 C   0  0  0  0  0  0  0  0  0  0  0  0
  127.9330  122.6120   60.2130 C   0  0  0  0  0  0  0  0  0  0  0  0
  126.8280  122.4080   60.7220 O   0  0  0  0  0  0  0  0  0  0  0  0
  128.1590  122.6180   58.8760 N   0  0  0  0  0  0  0  0  0  0  0  0
  127.2370  122.4010   57.8610 C   0  0  0  0  0  0  0  0  0  0  0  0
  125.9780  122.9990   57.8360 C   0  0  0  0  0  0  0  0  0  0  0  0
  125.3830  122.5320   56.6860 C   0  0  0  0  0  0  0  0  0  0  0  0
  126.2400  121.6970   56.0510 O   0  0  0  0  0  0  0  0  0  0  0  0
  127.4120  121.6220   56.8070 N   0  0  0  0  0  0  0  0  0  0  0  0
  129.0920  124.2510   62.1680 S   0  0  0  0  0  0  0  0  0  0  0  0
  130.7210  123.8960   62.6910 C   0  0  0  0  0  0  0  0  0  0  0  0
  131.3320  124.6370   63.6150 N   0  0  0  0  0  0  0  0  0  0  0  0
  132.9832  124.7586   65.9961 H   0  0  0  0  0  0  0  0  0  0  0  0
  134.3587  125.0512   64.8785 H   0  0  0  0  0  0  0  0  0  0  0  0
  132.9490  126.1644   64.8785 H   0  0  0  0  0  0  0  0  0  0  0  0
  134.2740  122.9315   63.6803 H   0  0  0  0  0  0  0  0  0  0  0  0
  129.8880  120.4830   60.0010 H   0  0  0  0  0  0  0  0  0  0  0  0
  131.5550  120.9070   60.0160 H   0  0  0  0  0  0  0  0  0  0  0  0
  129.1030  122.8110   58.5710 H   0  0  0  0  0  0  0  0  0  0  0  0
  125.5523  123.6936   58.5751 H   0  0  0  0  0  0  0  0  0  0  0  0
  124.3731  122.7948   56.3382 H   0  0  0  0  0  0  0  0  0  0  0  0
  1  2  1  0
  2  3  2  0
  3  4  1  0
  4  5  1  0
  5  6  1  0
  5  7  1  0
  5  8  1  0
  4  9  2  0
  9 10  1  0
 10 11  1  0
 10 12  2  0
 12 13  1  0
 13 14  2  0
 13 15  1  0
 15 16  1  0
 16 17  1  0
 17 18  2  0
 18 19  1  0
 19 20  1  0
 12 21  1  0
 21 22  1  0
 22 23  2  0
 23  2  1  0
 22  9  1  0
 20 16  2  0
  1 24  1  0
  1 25  1  0
  1 26  1  0
  3 27  1  0
 11 28  1  0
 11 29  1  0
 15 30  1  0
 17 31  1  0
 18 32  1  0
M  END
>  <Binding energies>  (1) 
[-6.27]

>  <Ligand effiencies>  (1) 
[-0.24115384615384614]

>  <Interactions>  (1) 
["H-B:ALA:541:N:9863, V-B:PRO:540:CB:9857, V-B:MET:535:CE:9807, V-A:ILE:369:CG2:3236, V-B:TYR:539:CD2:9846, V-B:PRO:540:N:9856, V-A:LEU:475:CD1:4257, V-B:PRO:540:CA:9855, H-B:TYR:539:N:9842, V-B:TYR:539:CE2:9848, V-B:TYR:539:C:9839, V-B:LEU:363:CD1:8160, V-B:PRO:540:CD:9859, V-A:ILE:369:CD1:3238, H-B:TYR:539:O:9840, V-A:SER:385:C:3404, V-A:ARG:545:CZ:4926, V-A:GLY:454:CA:4048"]

$$$$
4bj_Grossjean_2025
     RDKit          3D

 32 34  0  0  0  0  0  0  0  0999 V2000
  129.4750  132.1030   54.3150 C   0  0  0  0  0  0  0  0  0  0  0  0
  129.9330  131.7290   55.7130 C   0  0  0  0  0  0  0  0  0  0  0  0
  131.1410  131.0680   55.9200 C   0  0  0  0  0  0  0  0  0  0  0  0
  131.5490  130.7220   57.2170 C   0  0  0  0  0  0  0  0  0  0  0  0
  132.8860  129.9920   57.3950 C   0  0  0  0  0  0  0  0  0  0  0  0
  133.6090  129.9490   56.2740 F   0  0  0  0  0  0  0  0  0  0  0  0
  133.6180  130.6110   58.3200 F   0  0  0  0  0  0  0  0  0  0  0  0
  132.6640  128.7340   57.7760 F   0  0  0  0  0  0  0  0  0  0  0  0
  130.6800  131.0790   58.2910 C   0  0  0  0  0  0  0  0  0  0  0  0
  130.7570  130.8910   59.7200 C   0  0  0  0  0  0  0  0  0  0  0  0
  131.8110  130.2580   60.3290 N   0  0  0  0  0  0  0  0  0  0  0  0
  129.6650  131.4200   60.4270 C   0  0  0  0  0  0  0  0  0  0  0  0
  129.4160  131.3980   61.8700 C   0  0  0  0  0  0  0  0  0  0  0  0
  130.2920  131.7410   62.6670 O   0  0  0  0  0  0  0  0  0  0  0  0
  128.1750  130.9970   62.2420 N   0  0  0  0  0  0  0  0  0  0  0  0
  127.6830  130.8990   63.5360 C   0  0  0  0  0  0  0  0  0  0  0  0
  127.8980  131.7130   64.5460 N   0  0  0  0  0  0  0  0  0  0  0  0
  127.2660  131.3160   65.6320 C   0  0  0  0  0  0  0  0  0  0  0  0
  126.5140  130.1510   65.5160 C   0  0  0  0  0  0  0  0  0  0  0  0
  126.6530  129.5490   63.8910 S   0  0  0  0  0  0  0  0  0  0  0  0
  128.4900  132.1490   59.3360 S   0  0  0  0  0  0  0  0  0  0  0  0
  129.4730  131.7590   57.9440 C   0  0  0  0  0  0  0  0  0  0  0  0
  129.0880  132.0820   56.7100 N   0  0  0  0  0  0  0  0  0  0  0  0
  128.6245  132.7975   54.3813 H   0  0  0  0  0  0  0  0  0  0  0  0
  130.3024  132.5869   53.7753 H   0  0  0  0  0  0  0  0  0  0  0  0
  129.1662  131.1956   53.7753 H   0  0  0  0  0  0  0  0  0  0  0  0
  131.7797  130.8154   55.0608 H   0  0  0  0  0  0  0  0  0  0  0  0
  132.0240  130.3930   61.3070 H   0  0  0  0  0  0  0  0  0  0  0  0
  132.4180  129.6360   59.8130 H   0  0  0  0  0  0  0  0  0  0  0  0
  127.5300  130.7460   61.5070 H   0  0  0  0  0  0  0  0  0  0  0  0
  127.3294  131.8745   66.5776 H   0  0  0  0  0  0  0  0  0  0  0  0
  125.9268  129.6863   66.3218 H   0  0  0  0  0  0  0  0  0  0  0  0
  1  2  1  0
  2  3  2  0
  3  4  1  0
  4  5  1  0
  5  6  1  0
  5  7  1  0
  5  8  1  0
  4  9  2  0
  9 10  1  0
 10 11  1  0
 10 12  2  0
 12 13  1  0
 13 14  2  0
 13 15  1  0
 15 16  1  0
 16 17  2  0
 17 18  1  0
 18 19  2  0
 19 20  1  0
 12 21  1  0
 21 22  1  0
 22 23  2  0
 23  2  1  0
 22  9  1  0
 20 16  1  0
  1 24  1  0
  1 25  1  0
  1 26  1  0
  3 27  1  0
 11 28  1  0
 11 29  1  0
 15 30  1  0
 18 31  1  0
 19 32  1  0
M  END
>  <Binding energies>  (1) 
[-5.89]

>  <Ligand effiencies>  (1) 
[-0.22653846153846152]

>  <Interactions>  (1) 
["V-A:ASP:366:CG:3212, V-A:PRO:540:N:4884, V-A:ILE:538:CA:4860, V-A:ASP:366:CB:3211, V-A:ILE:538:CG2:4863, V-A:TYR:539:CD1:4873, V-A:PRO:540:CA:4883, H-A:TYR:539:N:4870, V-A:PRO:540:CB:4885, V-A:TYR:539:CE1:4875, V-A:TYR:531:CZ:4794, V-A:ILE:538:CB:4862, V-A:ALA:541:CB:4892, V-A:TYR:539:C:4867, V-A:LEU:363:CD1:3188, V-A:GLU:543:CG:4907, V-A:GLU:543:CD:4908, H-A:ASP:366:OD2:3214, V-A:ILE:538:C:4858, H-A:ALA:541:N:4891, V-A:TYR:531:CE2:4793, V-A:LEU:363:CA:3184, V-A:LEU:363:CB:3186, V-B:TYR:484:CZ:9318, V-B:TYR:484:CE2:9317, H-A:GLU:543:OE2:4910"]

$$$$
4bk_Grossjean_2025
     RDKit          3D

 50 51  0  0  0  0  0  0  0  0999 V2000
  129.9150  132.1160   57.5700 C   0  0  0  0  0  0  0  0  0  0  0  0
  129.9740  132.4950   56.2040 O   0  0  0  0  0  0  0  0  0  0  0  0
  130.0940  131.3910   55.3150 C   0  0  0  0  0  0  0  0  0  0  0  0
  129.4200  131.7340   53.9810 C   0  0  0  0  0  0  0  0  0  0  0  0
  128.0740  131.2780   54.0010 O   0  0  0  0  0  0  0  0  0  0  0  0
  127.5980  130.9520   55.2990 C   0  0  0  0  0  0  0  0  0  0  0  0
  127.3540  129.4390   55.3890 C   0  0  0  0  0  0  0  0  0  0  0  0
  128.5980  128.7580   55.3010 O   0  0  0  0  0  0  0  0  0  0  0  0
  128.8730  128.2280   54.0100 C   0  0  0  0  0  0  0  0  0  0  0  0
  129.8270  127.0280   54.1430 C   0  0  0  0  0  0  0  0  0  0  0  0
  130.1790  126.7090   55.5280 N   0  0  0  0  0  0  0  0  0  0  0  0
  131.3040  126.0750   55.9200 C   0  0  0  0  0  0  0  0  0  0  0  0
  132.1710  125.7150   55.1210 O   0  0  0  0  0  0  0  0  0  0  0  0
  131.4450  125.8440   57.3580 C   0  0  0  0  0  0  0  0  0  0  0  0
  130.3890  126.6790   58.4950 S   0  0  0  0  0  0  0  0  0  0  0  0
  131.1460  125.8790   59.8520 C   0  0  0  0  0  0  0  0  0  0  0  0
  130.7550  126.1140   61.1040 N   0  0  0  0  0  0  0  0  0  0  0  0
  131.4150  125.4340   62.0700 C   0  0  0  0  0  0  0  0  0  0  0  0
  130.9510  125.7160   63.4880 C   0  0  0  0  0  0  0  0  0  0  0  0
  132.4460  124.5340   61.8170 C   0  0  0  0  0  0  0  0  0  0  0  0
  132.8640  124.2830   60.5010 C   0  0  0  0  0  0  0  0  0  0  0  0
  134.0060  123.2870   60.2720 C   0  0  0  0  0  0  0  0  0  0  0  0
  134.5690  122.8680   61.4070 F   0  0  0  0  0  0  0  0  0  0  0  0
  133.5450  122.2120   59.6330 F   0  0  0  0  0  0  0  0  0  0  0  0
  134.9620  123.8570   59.5400 F   0  0  0  0  0  0  0  0  0  0  0  0
  132.1880  124.9830   59.4570 C   0  0  0  0  0  0  0  0  0  0  0  0
  132.3310  124.9830   58.0220 C   0  0  0  0  0  0  0  0  0  0  0  0
  133.2560  124.2090   57.3690 N   0  0  0  0  0  0  0  0  0  0  0  0
  130.0533  133.0046   58.2034 H   0  0  0  0  0  0  0  0  0  0  0  0
  128.9355  131.6629   57.7828 H   0  0  0  0  0  0  0  0  0  0  0  0
  130.7104  131.3866   57.7828 H   0  0  0  0  0  0  0  0  0  0  0  0
  131.1583  131.1728   55.1428 H   0  0  0  0  0  0  0  0  0  0  0  0
  129.6061  130.5096   55.7566 H   0  0  0  0  0  0  0  0  0  0  0  0
  129.4361  132.8236   53.8312 H   0  0  0  0  0  0  0  0  0  0  0  0
  129.9618  131.2436   53.1589 H   0  0  0  0  0  0  0  0  0  0  0  0
  128.3461  131.2481   56.0491 H   0  0  0  0  0  0  0  0  0  0  0  0
  126.6562  131.4875   55.4896 H   0  0  0  0  0  0  0  0  0  0  0  0
  126.8715  129.2008   56.3484 H   0  0  0  0  0  0  0  0  0  0  0  0
  126.6999  129.1209   54.5638 H   0  0  0  0  0  0  0  0  0  0  0  0
  127.9340  127.9001   53.5402 H   0  0  0  0  0  0  0  0  0  0  0  0
  129.3424  129.0034   53.3867 H   0  0  0  0  0  0  0  0  0  0  0  0
  129.3425  126.1475   53.6958 H   0  0  0  0  0  0  0  0  0  0  0  0
  130.7601  127.2994   53.6276 H   0  0  0  0  0  0  0  0  0  0  0  0
  129.5080  126.9780   56.2310 H   0  0  0  0  0  0  0  0  0  0  0  0
  131.6666  125.2811   64.2013 H   0  0  0  0  0  0  0  0  0  0  0  0
  130.8916  126.8031   63.6450 H   0  0  0  0  0  0  0  0  0  0  0  0
  129.9587  125.2681   63.6450 H   0  0  0  0  0  0  0  0  0  0  0  0
  132.9366  124.0159   62.6542 H   0  0  0  0  0  0  0  0  0  0  0  0
  134.2280  124.1900   57.6440 H   0  0  0  0  0  0  0  0  0  0  0  0
  132.9930  123.6230   56.5880 H   0  0  0  0  0  0  0  0  0  0  0  0
  1  2  1  0
  2  3  1  0
  3  4  1  0
  4  5  1  0
  5  6  1  0
  6  7  1  0
  7  8  1  0
  8  9  1  0
  9 10  1  0
 10 11  1  0
 11 12  1  0
 12 13  2  0
 12 14  1  0
 14 15  1  0
 15 16  1  0
 16 17  2  0
 17 18  1  0
 18 19  1  0
 18 20  2  0
 20 21  1  0
 21 22  1  0
 22 23  1  0
 22 24  1  0
 22 25  1  0
 21 26  2  0
 26 27  1  0
 27 28  1  0
 27 14  2  0
 26 16  1  0
  1 29  1  0
  1 30  1  0
  1 31  1  0
  3 32  1  0
  3 33  1  0
  4 34  1  0
  4 35  1  0
  6 36  1  0
  6 37  1  0
  7 38  1  0
  7 39  1  0
  9 40  1  0
  9 41  1  0
 10 42  1  0
 10 43  1  0
 11 44  1  0
 19 45  1  0
 19 46  1  0
 19 47  1  0
 20 48  1  0
 28 49  1  0
 28 50  1  0
M  END
>  <Binding energies>  (1) 
[-5.85]

>  <Ligand effiencies>  (1) 
[-0.18870967741935482]

>  <Interactions>  (1) 
["H-B:TYR:531:OH:9767, V-A:ILE:369:CG2:3236, V-B:TYR:539:CE2:9848, V-B:TYR:531:CZ:9766, V-A:ASP:366:CG:3212, V-A:PRO:540:N:4884, V-A:ILE:538:CA:4860, V-A:ASP:366:CA:3209, V-A:ASP:366:CB:3211, V-A:ILE:538:CG2:4863, V-A:ASP:366:C:3207, H-B:TYR:539:OH:9850, V-A:TYR:539:CD1:4873, V-A:TYR:539:CE2:4876, V-A:PRO:540:CA:4883, H-A:TYR:531:OH:4795, H-A:TYR:539:N:4870, V-A:TYR:539:CZ:4877, V-A:TYR:539:CE1:4875, V-A:TYR:531:CZ:4794, V-A:ILE:538:CB:4862, V-B:TYR:531:CE1:9764, H-B:LYS:534:NZ:9795, V-A:TYR:539:C:4867, V-A:ILE:369:CD1:3238, V-B:TYR:539:CZ:9849, H-A:TYR:539:OH:4878, V-A:ILE:369:CB:3235, V-A:ILE:369:CG1:3237, V-A:MET:535:CE:4835, H-A:ASP:366:O:3208"]

$$$$
4ca_Grossjean_2025
     RDKit          3D

 52 55  0  0  0  0  0  0  0  0999 V2000
  127.8170  131.4140   72.4610 C   0  0  0  0  0  0  0  0  0  0  0  0
  128.8120  130.2620   72.6350 C   0  0  0  0  0  0  0  0  0  0  0  0
  128.7440  129.4050   71.5030 O   0  0  0  0  0  0  0  0  0  0  0  0
  129.4900  128.2720   71.4350 C   0  0  0  0  0  0  0  0  0  0  0  0
  130.1090  127.8070   72.3980 O   0  0  0  0  0  0  0  0  0  0  0  0
  129.4850  127.6390   70.0740 C   0  0  0  0  0  0  0  0  0  0  0  0
  128.7660  126.4530   69.8740 C   0  0  0  0  0  0  0  0  0  0  0  0
  128.7390  125.8450   68.6220 C   0  0  0  0  0  0  0  0  0  0  0  0
  129.4330  126.4030   67.5490 C   0  0  0  0  0  0  0  0  0  0  0  0
  129.3290  125.7110   66.3260 N   0  0  0  0  0  0  0  0  0  0  0  0
  130.2990  125.2590   65.4940 C   0  0  0  0  0  0  0  0  0  0  0  0
  131.5060  125.3540   65.7230 O   0  0  0  0  0  0  0  0  0  0  0  0
  129.8220  124.6120   64.2700 C   0  0  0  0  0  0  0  0  0  0  0  0
  128.5370  125.3530   63.3190 S   0  0  0  0  0  0  0  0  0  0  0  0
  128.6180  124.0740   62.1300 C   0  0  0  0  0  0  0  0  0  0  0  0
  127.8240  124.0680   61.0630 N   0  0  0  0  0  0  0  0  0  0  0  0
  127.9690  123.0410   60.1860 C   0  0  0  0  0  0  0  0  0  0  0  0
  127.0650  123.0680   58.9870 C   0  0  0  0  0  0  0  0  0  0  0  0
  127.3790  122.3320   57.8330 C   0  0  0  0  0  0  0  0  0  0  0  0
  126.5480  122.3570   56.7160 C   0  0  0  0  0  0  0  0  0  0  0  0
  125.3870  123.1220   56.7370 C   0  0  0  0  0  0  0  0  0  0  0  0
  125.0520  123.8630   57.8660 C   0  0  0  0  0  0  0  0  0  0  0  0
  125.8860  123.8350   58.9810 C   0  0  0  0  0  0  0  0  0  0  0  0
  128.8940  122.0140   60.3980 C   0  0  0  0  0  0  0  0  0  0  0  0
  129.7340  122.0090   61.5220 C   0  0  0  0  0  0  0  0  0  0  0  0
  130.7280  120.8540   61.6900 C   0  0  0  0  0  0  0  0  0  0  0  0
  130.5690  119.8900   60.7810 F   0  0  0  0  0  0  0  0  0  0  0  0
  131.9740  121.3100   61.5740 F   0  0  0  0  0  0  0  0  0  0  0  0
  130.5730  120.2970   62.8920 F   0  0  0  0  0  0  0  0  0  0  0  0
  129.6020  123.0910   62.4390 C   0  0  0  0  0  0  0  0  0  0  0  0
  130.2770  123.4260   63.6690 C   0  0  0  0  0  0  0  0  0  0  0  0
  131.2750  122.6490   64.2020 N   0  0  0  0  0  0  0  0  0  0  0  0
  130.1500  127.5930   67.7370 C   0  0  0  0  0  0  0  0  0  0  0  0
  130.1750  128.2020   68.9900 C   0  0  0  0  0  0  0  0  0  0  0  0
  127.5019  131.7788   73.4497 H   0  0  0  0  0  0  0  0  0  0  0  0
  128.2971  132.2322   71.9042 H   0  0  0  0  0  0  0  0  0  0  0  0
  126.9377  131.0581   71.9042 H   0  0  0  0  0  0  0  0  0  0  0  0
  129.8304  130.6674   72.7279 H   0  0  0  0  0  0  0  0  0  0  0  0
  128.5608  129.6932   73.5424 H   0  0  0  0  0  0  0  0  0  0  0  0
  128.2185  125.9988   70.7130 H   0  0  0  0  0  0  0  0  0  0  0  0
  128.1658  124.9173   68.4780 H   0  0  0  0  0  0  0  0  0  0  0  0
  128.3810  125.5160   66.0420 H   0  0  0  0  0  0  0  0  0  0  0  0
  128.2966  121.7257   57.8111 H   0  0  0  0  0  0  0  0  0  0  0  0
  126.8089  121.7739   55.8205 H   0  0  0  0  0  0  0  0  0  0  0  0
  124.7293  123.1415   55.8555 H   0  0  0  0  0  0  0  0  0  0  0  0
  124.1332  124.4678   57.8778 H   0  0  0  0  0  0  0  0  0  0  0  0
  125.6183  124.4224   59.8717 H   0  0  0  0  0  0  0  0  0  0  0  0
  128.9646  121.1934   59.6689 H   0  0  0  0  0  0  0  0  0  0  0  0
  131.5710  121.7870   63.7660 H   0  0  0  0  0  0  0  0  0  0  0  0
  131.7520  122.9150   65.0530 H   0  0  0  0  0  0  0  0  0  0  0  0
  130.6932  128.0462   66.8947 H   0  0  0  0  0  0  0  0  0  0  0  0
  130.7418  129.1342   69.1307 H   0  0  0  0  0  0  0  0  0  0  0  0
  1  2  1  0
  2  3  1  0
  3  4  1  0
  4  5  2  0
  4  6  1  0
  6  7  2  0
  7  8  1  0
  8  9  2  0
  9 10  1  0
 10 11  1  0
 11 12  2  0
 11 13  1  0
 13 14  1  0
 14 15  1  0
 15 16  2  0
 16 17  1  0
 17 18  1  0
 18 19  2  0
 19 20  1  0
 20 21  2  0
 21 22  1  0
 22 23  2  0
 17 24  2  0
 24 25  1  0
 25 26  1  0
 26 27  1  0
 26 28  1  0
 26 29  1  0
 25 30  2  0
 30 31  1  0
 31 32  1  0
  9 33  1  0
 33 34  2  0
 34  6  1  0
 31 13  2  0
 30 15  1  0
 23 18  1  0
  1 35  1  0
  1 36  1  0
  1 37  1  0
  2 38  1  0
  2 39  1  0
  7 40  1  0
  8 41  1  0
 10 42  1  0
 19 43  1  0
 20 44  1  0
 21 45  1  0
 22 46  1  0
 23 47  1  0
 24 48  1  0
 32 49  1  0
 32 50  1  0
 33 51  1  0
 34 52  1  0
M  END
>  <Binding energies>  (1) 
[-7.8]

>  <Ligand effiencies>  (1) 
[-0.2108108108108108]

>  <Interactions>  (1) 
["V-B:PRO:540:CB:9857, V-B:MET:535:CE:9807, V-B:TYR:539:CD2:9846, V-B:PRO:540:N:9856, V-A:LEU:475:CD1:4257, V-B:PRO:540:CA:9855, V-B:ALA:541:CB:9864, V-B:TYR:539:C:9839, V-B:TYR:531:CE2:9765, V-B:LEU:363:CD1:8160, H-A:TYR:484:OH:4347, V-B:PRO:540:CD:9859, V-A:GLU:543:CD:4908, V-A:GLU:543:C:4902, V-B:HIS:456:CE1:9041, V-A:TYR:484:CZ:4346, V-A:HIS:456:CE1:4069, V-B:GLU:543:CB:9878, V-B:GLU:543:CG:9879, V-B:GLU:543:CD:9880, H-B:GLU:543:OE2:9882, V-A:GLU:543:CA:4904, V-A:GLU:543:CB:4906, V-B:GLU:543:CA:9876, V-B:GLU:543:C:9874, V-B:ALA:541:CA:9862, V-B:HIS:456:CD2:9039, V-B:TYR:484:CD1:9314, V-B:HIS:456:CG:9037, V-B:TYR:484:CB:9312, V-B:TYR:484:CG:9313, V-B:TYR:484:CD2:9315"]

$$$$
4cb_Grossjean_2025
     RDKit          3D

 49 52  0  0  0  0  0  0  0  0999 V2000
  129.3910  126.3390   73.0950 C   0  0  0  0  0  0  0  0  0  0  0  0
  130.1030  127.3430   72.3860 O   0  0  0  0  0  0  0  0  0  0  0  0
  129.4870  128.1060   71.4480 C   0  0  0  0  0  0  0  0  0  0  0  0
  128.9680  129.2000   71.6920 O   0  0  0  0  0  0  0  0  0  0  0  0
  129.4980  127.4870   70.0790 C   0  0  0  0  0  0  0  0  0  0  0  0
  128.7350  126.3360   69.8420 C   0  0  0  0  0  0  0  0  0  0  0  0
  128.7180  125.7440   68.5820 C   0  0  0  0  0  0  0  0  0  0  0  0
  129.4680  126.2850   67.5370 C   0  0  0  0  0  0  0  0  0  0  0  0
  129.3660  125.6140   66.3030 N   0  0  0  0  0  0  0  0  0  0  0  0
  130.3360  125.2140   65.4440 C   0  0  0  0  0  0  0  0  0  0  0  0
  131.5430  125.3470   65.6530 O   0  0  0  0  0  0  0  0  0  0  0  0
  129.8590  124.5740   64.2150 C   0  0  0  0  0  0  0  0  0  0  0  0
  128.5750  125.3220   63.2670 S   0  0  0  0  0  0  0  0  0  0  0  0
  128.6550  124.0500   62.0710 C   0  0  0  0  0  0  0  0  0  0  0  0
  127.8610  124.0480   61.0040 N   0  0  0  0  0  0  0  0  0  0  0  0
  128.0030  123.0230   60.1230 C   0  0  0  0  0  0  0  0  0  0  0  0
  127.0970  123.0520   58.9270 C   0  0  0  0  0  0  0  0  0  0  0  0
  127.4060  122.3120   57.7750 C   0  0  0  0  0  0  0  0  0  0  0  0
  126.5720  122.3370   56.6590 C   0  0  0  0  0  0  0  0  0  0  0  0
  125.4130  123.1060   56.6820 C   0  0  0  0  0  0  0  0  0  0  0  0
  125.0850  123.8510   57.8100 C   0  0  0  0  0  0  0  0  0  0  0  0
  125.9220  123.8240   58.9210 C   0  0  0  0  0  0  0  0  0  0  0  0
  128.9280  121.9940   60.3320 C   0  0  0  0  0  0  0  0  0  0  0  0
  129.7680  121.9850   61.4560 C   0  0  0  0  0  0  0  0  0  0  0  0
  130.7600  120.8270   61.6210 C   0  0  0  0  0  0  0  0  0  0  0  0
  132.0340  121.2090   61.4970 F   0  0  0  0  0  0  0  0  0  0  0  0
  130.6230  120.2860   62.8310 F   0  0  0  0  0  0  0  0  0  0  0  0
  130.5300  119.8980   60.6940 F   0  0  0  0  0  0  0  0  0  0  0  0
  129.6380  123.0640   62.3770 C   0  0  0  0  0  0  0  0  0  0  0  0
  130.3150  123.3930   63.6080 C   0  0  0  0  0  0  0  0  0  0  0  0
  131.3150  122.6150   64.1340 N   0  0  0  0  0  0  0  0  0  0  0  0
  130.2330  127.4390   67.7640 C   0  0  0  0  0  0  0  0  0  0  0  0
  130.2470  128.0300   69.0240 C   0  0  0  0  0  0  0  0  0  0  0  0
  129.5067  126.5021   74.1767 H   0  0  0  0  0  0  0  0  0  0  0  0
  128.3249  126.3883   72.8287 H   0  0  0  0  0  0  0  0  0  0  0  0
  129.7901  125.3492   72.8287 H   0  0  0  0  0  0  0  0  0  0  0  0
  128.1440  125.8961   70.6589 H   0  0  0  0  0  0  0  0  0  0  0  0
  128.1095  124.8441   68.4092 H   0  0  0  0  0  0  0  0  0  0  0  0
  128.4200  125.3950   66.0300 H   0  0  0  0  0  0  0  0  0  0  0  0
  128.3214  121.7024   57.7528 H   0  0  0  0  0  0  0  0  0  0  0  0
  126.8289  121.7514   55.7640 H   0  0  0  0  0  0  0  0  0  0  0  0
  124.7520  123.1251   55.8030 H   0  0  0  0  0  0  0  0  0  0  0  0
  124.1682  124.4586   57.8235 H   0  0  0  0  0  0  0  0  0  0  0  0
  125.6600  124.4167   59.8098 H   0  0  0  0  0  0  0  0  0  0  0  0
  128.9981  121.1756   59.6004 H   0  0  0  0  0  0  0  0  0  0  0  0
  131.7630  122.8420   65.0110 H   0  0  0  0  0  0  0  0  0  0  0  0
  131.6370  121.7820   63.6620 H   0  0  0  0  0  0  0  0  0  0  0  0
  130.8224  127.8772   66.9451 H   0  0  0  0  0  0  0  0  0  0  0  0
  130.8519  128.9327   69.1947 H   0  0  0  0  0  0  0  0  0  0  0  0
  1  2  1  0
  2  3  1  0
  3  4  2  0
  3  5  1  0
  5  6  2  0
  6  7  1  0
  7  8  2  0
  8  9  1  0
  9 10  1  0
 10 11  2  0
 10 12  1  0
 12 13  1  0
 13 14  1  0
 14 15  2  0
 15 16  1  0
 16 17  1  0
 17 18  2  0
 18 19  1  0
 19 20  2  0
 20 21  1  0
 21 22  2  0
 16 23  2  0
 23 24  1  0
 24 25  1  0
 25 26  1  0
 25 27  1  0
 25 28  1  0
 24 29  2  0
 29 30  1  0
 30 31  1  0
  8 32  1  0
 32 33  2  0
 33  5  1  0
 30 12  2  0
 29 14  1  0
 22 17  1  0
  1 34  1  0
  1 35  1  0
  1 36  1  0
  6 37  1  0
  7 38  1  0
  9 39  1  0
 18 40  1  0
 19 41  1  0
 20 42  1  0
 21 43  1  0
 22 44  1  0
 23 45  1  0
 31 46  1  0
 31 47  1  0
 32 48  1  0
 33 49  1  0
M  END
>  <Binding energies>  (1) 
[-7.63]

>  <Ligand effiencies>  (1) 
[-0.21194444444444444]

>  <Interactions>  (1) 
["V-B:PRO:540:CB:9857, V-B:MET:535:CE:9807, V-B:TYR:539:CD2:9846, V-B:PRO:540:N:9856, V-A:LEU:475:CD1:4257, V-B:PRO:540:CA:9855, V-B:ALA:541:CB:9864, V-B:TYR:539:C:9839, V-B:TYR:531:CE2:9765, V-B:LEU:363:CD1:8160, H-A:TYR:484:OH:4347, V-B:PRO:540:CD:9859, V-A:GLU:543:CD:4908, V-A:GLU:543:C:4902, V-B:HIS:456:CE1:9041, V-A:TYR:484:CZ:4346, V-A:HIS:456:CE1:4069, V-B:GLU:543:CB:9878, V-B:GLU:543:CG:9879, V-B:GLU:543:CD:9880, H-B:GLU:543:OE2:9882, V-A:GLU:543:CB:4906, V-B:GLU:543:CA:9876, V-B:GLU:543:C:9874, V-B:HIS:456:CD2:9039, H-A:HIS:456:ND1:4066"]

$$$$
4cc_Grossjean_2025
     RDKit          3D

 47 50  0  0  0  0  0  0  0  0999 V2000
  130.6890  128.3900   72.0250 C   0  0  0  0  0  0  0  0  0  0  0  0
  129.4660  128.0150   71.4010 O   0  0  0  0  0  0  0  0  0  0  0  0
  129.4930  127.4990   70.1200 C   0  0  0  0  0  0  0  0  0  0  0  0
  128.7440  126.3430   69.8990 C   0  0  0  0  0  0  0  0  0  0  0  0
  128.7090  125.7500   68.6400 C   0  0  0  0  0  0  0  0  0  0  0  0
  129.4340  126.3030   67.5820 C   0  0  0  0  0  0  0  0  0  0  0  0
  129.3250  125.6440   66.3430 N   0  0  0  0  0  0  0  0  0  0  0  0
  130.2990  125.2980   65.4680 C   0  0  0  0  0  0  0  0  0  0  0  0
  131.5000  125.4900   65.6640 O   0  0  0  0  0  0  0  0  0  0  0  0
  129.8380  124.6590   64.2320 C   0  0  0  0  0  0  0  0  0  0  0  0
  128.5680  125.4080   63.2660 S   0  0  0  0  0  0  0  0  0  0  0  0
  128.6390  124.1170   62.0900 C   0  0  0  0  0  0  0  0  0  0  0  0
  127.8490  124.1080   61.0190 N   0  0  0  0  0  0  0  0  0  0  0  0
  127.9830  123.0680   60.1570 C   0  0  0  0  0  0  0  0  0  0  0  0
  127.0770  123.0840   58.9600 C   0  0  0  0  0  0  0  0  0  0  0  0
  127.3990  122.3510   57.8060 C   0  0  0  0  0  0  0  0  0  0  0  0
  126.5650  122.3620   56.6910 C   0  0  0  0  0  0  0  0  0  0  0  0
  125.3930  123.1100   56.7140 C   0  0  0  0  0  0  0  0  0  0  0  0
  125.0520  123.8480   57.8430 C   0  0  0  0  0  0  0  0  0  0  0  0
  125.8890  123.8350   58.9550 C   0  0  0  0  0  0  0  0  0  0  0  0
  128.8970  122.0340   60.3820 C   0  0  0  0  0  0  0  0  0  0  0  0
  129.7340  122.0320   61.5100 C   0  0  0  0  0  0  0  0  0  0  0  0
  130.7160  120.8700   61.6910 C   0  0  0  0  0  0  0  0  0  0  0  0
  130.5910  120.2560   62.8710 F   0  0  0  0  0  0  0  0  0  0  0  0
  130.5140  119.9550   60.7440 F   0  0  0  0  0  0  0  0  0  0  0  0
  131.9680  121.3200   61.6070 F   0  0  0  0  0  0  0  0  0  0  0  0
  129.6080  123.1230   62.4170 C   0  0  0  0  0  0  0  0  0  0  0  0
  130.2750  123.4590   63.6510 C   0  0  0  0  0  0  0  0  0  0  0  0
  131.2540  122.6710   64.2020 N   0  0  0  0  0  0  0  0  0  0  0  0
  130.1800  127.4730   67.7930 C   0  0  0  0  0  0  0  0  0  0  0  0
  130.2110  128.0620   69.0540 C   0  0  0  0  0  0  0  0  0  0  0  0
  130.5694  128.3533   73.1179 H   0  0  0  0  0  0  0  0  0  0  0  0
  131.4847  127.6946   71.7197 H   0  0  0  0  0  0  0  0  0  0  0  0
  130.9581  129.4119   71.7197 H   0  0  0  0  0  0  0  0  0  0  0  0
  128.1755  125.8957   70.7277 H   0  0  0  0  0  0  0  0  0  0  0  0
  128.1083  124.8429   68.4779 H   0  0  0  0  0  0  0  0  0  0  0  0
  128.3850  125.3720   66.0960 H   0  0  0  0  0  0  0  0  0  0  0  0
  128.3254  121.7584   57.7826 H   0  0  0  0  0  0  0  0  0  0  0  0
  126.8322  121.7814   55.7957 H   0  0  0  0  0  0  0  0  0  0  0  0
  124.7320  123.1182   55.8348 H   0  0  0  0  0  0  0  0  0  0  0  0
  124.1246  124.4394   57.8568 H   0  0  0  0  0  0  0  0  0  0  0  0
  125.6163  124.4220   59.8444 H   0  0  0  0  0  0  0  0  0  0  0  0
  128.9618  121.2056   59.6612 H   0  0  0  0  0  0  0  0  0  0  0  0
  131.5410  121.8000   63.7770 H   0  0  0  0  0  0  0  0  0  0  0  0
  131.7220  122.9350   65.0570 H   0  0  0  0  0  0  0  0  0  0  0  0
  130.7406  127.9249   66.9614 H   0  0  0  0  0  0  0  0  0  0  0  0
  130.8025  128.9752   69.2158 H   0  0  0  0  0  0  0  0  0  0  0  0
  1  2  1  0
  2  3  1  0
  3  4  2  0
  4  5  1  0
  5  6  2  0
  6  7  1  0
  7  8  1  0
  8  9  2  0
  8 10  1  0
 10 11  1  0
 11 12  1  0
 12 13  2  0
 13 14  1  0
 14 15  1  0
 15 16  2  0
 16 17  1  0
 17 18  2  0
 18 19  1  0
 19 20  2  0
 14 21  2  0
 21 22  1  0
 22 23  1  0
 23 24  1  0
 23 25  1  0
 23 26  1  0
 22 27  2  0
 27 28  1  0
 28 29  1  0
  6 30  1  0
 30 31  2  0
 31  3  1  0
 28 10  2  0
 27 12  1  0
 20 15  1  0
  1 32  1  0
  1 33  1  0
  1 34  1  0
  4 35  1  0
  5 36  1  0
  7 37  1  0
 16 38  1  0
 17 39  1  0
 18 40  1  0
 19 41  1  0
 20 42  1  0
 21 43  1  0
 29 44  1  0
 29 45  1  0
 30 46  1  0
 31 47  1  0
M  END
>  <Binding energies>  (1) 
[-7.36]

>  <Ligand effiencies>  (1) 
[-0.21647058823529414]

>  <Interactions>  (1) 
["V-B:PRO:540:CB:9857, V-B:MET:535:CE:9807, V-B:TYR:539:CD2:9846, V-B:PRO:540:N:9856, V-A:LEU:475:CD1:4257, V-B:PRO:540:CA:9855, V-B:ALA:541:CB:9864, V-B:TYR:539:C:9839, V-B:TYR:531:CE2:9765, V-B:LEU:363:CD1:8160, H-A:TYR:484:OH:4347, V-B:PRO:540:CD:9859, V-A:GLU:543:CD:4908, V-A:GLU:543:C:4902, V-B:HIS:456:CE1:9041, V-A:TYR:484:CZ:4346, V-A:HIS:456:CE1:4069, V-A:GLY:544:C:4912, V-B:GLU:543:CB:9878, V-B:GLU:543:CG:9879, V-B:GLU:543:CD:9880, H-B:GLU:543:OE2:9882, V-A:GLU:543:CB:4906, V-B:GLU:543:CA:9876, V-B:GLU:543:C:9874, V-B:ALA:541:CA:9862, V-A:GLY:544:CA:4914"]

$$$$
4cd_Grossjean_2025
     RDKit          3D

 43 46  0  0  0  0  0  0  0  0999 V2000
  131.1440  122.6740   64.2230 N   0  0  0  0  0  0  0  0  0  0  0  0
  130.1980  123.4800   63.6420 C   0  0  0  0  0  0  0  0  0  0  0  0
  129.7860  124.7040   64.1940 C   0  0  0  0  0  0  0  0  0  0  0  0
  130.2310  125.3410   65.4380 C   0  0  0  0  0  0  0  0  0  0  0  0
  131.4300  125.4340   65.7010 O   0  0  0  0  0  0  0  0  0  0  0  0
  129.2400  125.8070   66.2370 N   0  0  0  0  0  0  0  0  0  0  0  0
  129.3220  126.4140   67.5040 C   0  0  0  0  0  0  0  0  0  0  0  0
  128.7270  125.7150   68.5580 C   0  0  0  0  0  0  0  0  0  0  0  0
  128.7660  126.2270   69.8510 C   0  0  0  0  0  0  0  0  0  0  0  0
  129.4090  127.4380   70.0950 C   0  0  0  0  0  0  0  0  0  0  0  0
  130.0180  128.1380   69.0570 C   0  0  0  0  0  0  0  0  0  0  0  0
  129.9800  127.6290   67.7610 C   0  0  0  0  0  0  0  0  0  0  0  0
  128.5680  125.4790   63.1840 S   0  0  0  0  0  0  0  0  0  0  0  0
  128.6120  124.1600   62.0390 C   0  0  0  0  0  0  0  0  0  0  0  0
  127.8410  124.1550   60.9540 N   0  0  0  0  0  0  0  0  0  0  0  0
  127.9350  123.0790   60.1300 C   0  0  0  0  0  0  0  0  0  0  0  0
  127.0510  123.1010   58.9170 C   0  0  0  0  0  0  0  0  0  0  0  0
  125.8830  123.8810   58.8920 C   0  0  0  0  0  0  0  0  0  0  0  0
  125.0600  123.9060   57.7700 C   0  0  0  0  0  0  0  0  0  0  0  0
  125.3940  123.1500   56.6520 C   0  0  0  0  0  0  0  0  0  0  0  0
  126.5460  122.3710   56.6480 C   0  0  0  0  0  0  0  0  0  0  0  0
  127.3680  122.3500   57.7710 C   0  0  0  0  0  0  0  0  0  0  0  0
  128.8150  122.0240   60.3880 C   0  0  0  0  0  0  0  0  0  0  0  0
  129.6360  122.0220   61.5280 C   0  0  0  0  0  0  0  0  0  0  0  0
  130.5760  120.8310   61.7530 C   0  0  0  0  0  0  0  0  0  0  0  0
  130.6020  120.4160   63.0210 F   0  0  0  0  0  0  0  0  0  0  0  0
  130.1850  119.8000   61.0040 F   0  0  0  0  0  0  0  0  0  0  0  0
  131.8210  121.1710   61.4190 F   0  0  0  0  0  0  0  0  0  0  0  0
  129.5370  123.1380   62.4060 C   0  0  0  0  0  0  0  0  0  0  0  0
  131.5770  121.9120   63.7200 H   0  0  0  0  0  0  0  0  0  0  0  0
  131.4430  122.8180   65.1770 H   0  0  0  0  0  0  0  0  0  0  0  0
  128.3010  125.7250   65.8760 H   0  0  0  0  0  0  0  0  0  0  0  0
  128.2254  124.7554   68.3642 H   0  0  0  0  0  0  0  0  0  0  0  0
  128.2910  125.6776   70.6771 H   0  0  0  0  0  0  0  0  0  0  0  0
  129.4359  127.8449   71.1166 H   0  0  0  0  0  0  0  0  0  0  0  0
  130.5282  129.0912   69.2600 H   0  0  0  0  0  0  0  0  0  0  0  0
  130.4644  128.1773   66.9396 H   0  0  0  0  0  0  0  0  0  0  0  0
  125.6145  124.4817   59.7735 H   0  0  0  0  0  0  0  0  0  0  0  0
  124.1485  124.5217   57.7677 H   0  0  0  0  0  0  0  0  0  0  0  0
  124.7432  123.1682   55.7654 H   0  0  0  0  0  0  0  0  0  0  0  0
  126.8064  121.7742   55.7614 H   0  0  0  0  0  0  0  0  0  0  0  0
  128.2806  121.7359   57.7620 H   0  0  0  0  0  0  0  0  0  0  0  0
  128.8656  121.1794   59.6851 H   0  0  0  0  0  0  0  0  0  0  0  0
  1  2  1  0
  2  3  2  0
  3  4  1  0
  4  5  2  0
  4  6  1  0
  6  7  1  0
  7  8  2  0
  8  9  1  0
  9 10  2  0
 10 11  1  0
 11 12  2  0
  3 13  1  0
 13 14  1  0
 14 15  2  0
 15 16  1  0
 16 17  1  0
 17 18  2  0
 18 19  1  0
 19 20  2  0
 20 21  1  0
 21 22  2  0
 16 23  2  0
 23 24  1  0
 24 25  1  0
 25 26  1  0
 25 27  1  0
 25 28  1  0
 24 29  2  0
 29  2  1  0
 12  7  1  0
 29 14  1  0
 22 17  1  0
  1 30  1  0
  1 31  1  0
  6 32  1  0
  8 33  1  0
  9 34  1  0
 10 35  1  0
 11 36  1  0
 12 37  1  0
 18 38  1  0
 19 39  1  0
 20 40  1  0
 21 41  1  0
 22 42  1  0
 23 43  1  0
M  END
>  <Binding energies>  (1) 
[-7.53]

>  <Ligand effiencies>  (1) 
[-0.2353125]

>  <Interactions>  (1) 
["V-B:PRO:540:CB:9857, V-B:MET:535:CE:9807, V-B:TYR:539:CD2:9846, V-B:PRO:540:N:9856, V-A:LEU:475:CD1:4257, V-B:PRO:540:CA:9855, V-B:ALA:541:CB:9864, V-B:TYR:539:C:9839, V-B:TYR:531:CE2:9765, V-B:LEU:363:CD1:8160, H-A:TYR:484:OH:4347, V-A:GLU:543:CD:4908, V-A:GLU:543:C:4902, V-B:HIS:456:CE1:9041, V-A:TYR:484:CZ:4346, V-A:HIS:456:CE1:4069, V-B:GLU:543:CB:9878, V-B:GLU:543:CG:9879, V-B:GLU:543:CD:9880, H-B:GLU:543:OE2:9882, V-A:GLU:543:CB:4906, V-A:LEU:475:CD2:4258, V-B:GLU:543:CA:9876, V-B:GLU:543:C:9874, V-B:ALA:541:CA:9862, V-A:LEU:475:CG:4256"]

$$$$
4ce_Grossjean_2025
     RDKit          3D

 45 48  0  0  0  0  0  0  0  0999 V2000
  128.7690  125.7750   71.2120 C   0  0  0  0  0  0  0  0  0  0  0  0
  128.9500  126.5370   69.9130 C   0  0  0  0  0  0  0  0  0  0  0  0
  129.1800  127.9150   69.9000 C   0  0  0  0  0  0  0  0  0  0  0  0
  129.3450  128.5490   68.6670 C   0  0  0  0  0  0  0  0  0  0  0  0
  129.2780  127.7990   67.4920 C   0  0  0  0  0  0  0  0  0  0  0  0
  129.0390  126.4220   67.5760 C   0  0  0  0  0  0  0  0  0  0  0  0
  129.0070  125.7170   66.3590 N   0  0  0  0  0  0  0  0  0  0  0  0
  130.0440  125.2440   65.6250 C   0  0  0  0  0  0  0  0  0  0  0  0
  131.2260  125.3610   65.9540 O   0  0  0  0  0  0  0  0  0  0  0  0
  129.6760  124.5630   64.3810 C   0  0  0  0  0  0  0  0  0  0  0  0
  128.4090  125.2240   63.3500 S   0  0  0  0  0  0  0  0  0  0  0  0
  128.6310  123.9450   62.1820 C   0  0  0  0  0  0  0  0  0  0  0  0
  127.9020  123.8860   61.0700 N   0  0  0  0  0  0  0  0  0  0  0  0
  128.1570  122.8630   60.2130 C   0  0  0  0  0  0  0  0  0  0  0  0
  127.3220  122.8290   58.9670 C   0  0  0  0  0  0  0  0  0  0  0  0
  126.1420  123.5840   58.8750 C   0  0  0  0  0  0  0  0  0  0  0  0
  125.3580  123.5520   57.7240 C   0  0  0  0  0  0  0  0  0  0  0  0
  125.7460  122.7640   56.6460 C   0  0  0  0  0  0  0  0  0  0  0  0
  126.9100  122.0060   56.7120 C   0  0  0  0  0  0  0  0  0  0  0  0
  127.6900  122.0380   57.8650 C   0  0  0  0  0  0  0  0  0  0  0  0
  129.1260  121.8920   60.4870 C   0  0  0  0  0  0  0  0  0  0  0  0
  129.8970  121.9410   61.6600 C   0  0  0  0  0  0  0  0  0  0  0  0
  130.9430  120.8470   61.8960 C   0  0  0  0  0  0  0  0  0  0  0  0
  132.1720  121.3300   62.0890 F   0  0  0  0  0  0  0  0  0  0  0  0
  130.6180  120.1390   62.9790 F   0  0  0  0  0  0  0  0  0  0  0  0
  130.9940  120.0360   60.8400 F   0  0  0  0  0  0  0  0  0  0  0  0
  129.6490  123.0190   62.5580 C   0  0  0  0  0  0  0  0  0  0  0  0
  130.2290  123.3980   63.8230 C   0  0  0  0  0  0  0  0  0  0  0  0
  131.2320  122.6820   64.4230 N   0  0  0  0  0  0  0  0  0  0  0  0
  128.8810  125.7940   68.7780 N   0  0  0  0  0  0  0  0  0  0  0  0
  128.9305  126.4549   72.0615 H   0  0  0  0  0  0  0  0  0  0  0  0
  127.7488  125.3663   71.2583 H   0  0  0  0  0  0  0  0  0  0  0  0
  129.4965  124.9512   71.2583 H   0  0  0  0  0  0  0  0  0  0  0  0
  129.2299  128.4866   70.8385 H   0  0  0  0  0  0  0  0  0  0  0  0
  129.5267  129.6330   68.6220 H   0  0  0  0  0  0  0  0  0  0  0  0
  129.4111  128.2831   66.5132 H   0  0  0  0  0  0  0  0  0  0  0  0
  128.0810  125.5090   66.0160 H   0  0  0  0  0  0  0  0  0  0  0  0
  125.8319  124.2102   59.7245 H   0  0  0  0  0  0  0  0  0  0  0  0
  124.4352  124.1480   57.6681 H   0  0  0  0  0  0  0  0  0  0  0  0
  125.1287  122.7401   55.7359 H   0  0  0  0  0  0  0  0  0  0  0  0
  127.2132  121.3838   55.8570 H   0  0  0  0  0  0  0  0  0  0  0  0
  128.6085  121.4348   57.9142 H   0  0  0  0  0  0  0  0  0  0  0  0
  129.2873  121.0739   59.7696 H   0  0  0  0  0  0  0  0  0  0  0  0
  131.5080  121.7680   64.0930 H   0  0  0  0  0  0  0  0  0  0  0  0
  131.7310  123.0460   65.2230 H   0  0  0  0  0  0  0  0  0  0  0  0
  1  2  1  0
  2  3  2  0
  3  4  1  0
  4  5  2  0
  5  6  1  0
  6  7  1  0
  7  8  1  0
  8  9  2  0
  8 10  1  0
 10 11  1  0
 11 12  1  0
 12 13  2  0
 13 14  1  0
 14 15  1  0
 15 16  2  0
 16 17  1  0
 17 18  2  0
 18 19  1  0
 19 20  2  0
 14 21  2  0
 21 22  1  0
 22 23  1  0
 23 24  1  0
 23 25  1  0
 23 26  1  0
 22 27  2  0
 27 28  1  0
 28 29  1  0
  6 30  2  0
 30  2  1  0
 28 10  2  0
 27 12  1  0
 20 15  1  0
  1 31  1  0
  1 32  1  0
  1 33  1  0
  3 34  1  0
  4 35  1  0
  5 36  1  0
  7 37  1  0
 16 38  1  0
 17 39  1  0
 18 40  1  0
 19 41  1  0
 20 42  1  0
 21 43  1  0
 29 44  1  0
 29 45  1  0
M  END
>  <Binding energies>  (1) 
[-7.25]

>  <Ligand effiencies>  (1) 
[-0.2196969696969697]

>  <Interactions>  (1) 
["V-B:PRO:540:CB:9857, V-B:MET:535:CE:9807, V-B:TYR:539:CD2:9846, V-B:PRO:540:N:9856, V-A:LEU:475:CD1:4257, V-B:PRO:540:CA:9855, V-B:ALA:541:CB:9864, V-B:TYR:539:C:9839, V-B:TYR:531:CE2:9765, V-B:LEU:363:CD1:8160, V-B:TYR:539:CA:9841, H-A:TYR:484:OH:4347, V-B:PRO:540:CD:9859, V-A:GLU:543:CD:4908, V-A:GLU:543:C:4902, V-B:HIS:456:CE1:9041, V-A:TYR:484:CZ:4346, V-A:HIS:456:CE1:4069, V-B:GLU:543:CB:9878, V-B:GLU:543:CG:9879, H-B:GLU:543:OE1:9881, V-B:GLU:543:CD:9880, H-B:GLU:543:OE2:9882, V-A:GLU:543:CA:4904, V-A:GLU:543:CB:4906, V-A:TYR:484:CE2:4345, V-A:LEU:475:CD2:4258, V-B:GLU:543:C:9874, V-B:ALA:541:CA:9862, V-A:LEU:475:CG:4256"]

$$$$
4cf_Grossjean_2025
     RDKit          3D

 42 45  0  0  0  0  0  0  0  0999 V2000
  131.2680  122.7240   64.3060 N   0  0  0  0  0  0  0  0  0  0  0  0
  130.2840  123.5050   63.7560 C   0  0  0  0  0  0  0  0  0  0  0  0
  129.8280  124.6960   64.3440 C   0  0  0  0  0  0  0  0  0  0  0  0
  130.2450  125.3090   65.6080 C   0  0  0  0  0  0  0  0  0  0  0  0
  131.4380  125.3910   65.9010 O   0  0  0  0  0  0  0  0  0  0  0  0
  129.2380  125.7710   66.3890 N   0  0  0  0  0  0  0  0  0  0  0  0
  129.2910  126.3590   67.6670 C   0  0  0  0  0  0  0  0  0  0  0  0
  128.7430  125.8100   68.8420 C   0  0  0  0  0  0  0  0  0  0  0  0
  128.8530  126.5070   70.0470 C   0  0  0  0  0  0  0  0  0  0  0  0
  129.5070  127.7390   70.0490 C   0  0  0  0  0  0  0  0  0  0  0  0
  130.0380  128.2940   68.9300 N   0  0  0  0  0  0  0  0  0  0  0  0
  129.9210  127.6040   67.7650 C   0  0  0  0  0  0  0  0  0  0  0  0
  128.5650  125.4440   63.3680 S   0  0  0  0  0  0  0  0  0  0  0  0
  128.6520  124.1570   62.1890 C   0  0  0  0  0  0  0  0  0  0  0  0
  127.8650  124.1440   61.1140 N   0  0  0  0  0  0  0  0  0  0  0  0
  127.9940  123.0930   60.2630 C   0  0  0  0  0  0  0  0  0  0  0  0
  127.0900  123.1020   59.0650 C   0  0  0  0  0  0  0  0  0  0  0  0
  127.4220  122.3780   57.9100 C   0  0  0  0  0  0  0  0  0  0  0  0
  126.5880  122.3800   56.7950 C   0  0  0  0  0  0  0  0  0  0  0  0
  125.4040  123.1090   56.8210 C   0  0  0  0  0  0  0  0  0  0  0  0
  125.0480  123.8340   57.9540 C   0  0  0  0  0  0  0  0  0  0  0  0
  125.8850  123.8280   59.0670 C   0  0  0  0  0  0  0  0  0  0  0  0
  128.9270  122.0750   60.4810 C   0  0  0  0  0  0  0  0  0  0  0  0
  129.7640  122.0810   61.6080 C   0  0  0  0  0  0  0  0  0  0  0  0
  130.7610  120.9300   61.7880 C   0  0  0  0  0  0  0  0  0  0  0  0
  130.5980  119.9510   60.8950 F   0  0  0  0  0  0  0  0  0  0  0  0
  132.0060  121.3870   61.6560 F   0  0  0  0  0  0  0  0  0  0  0  0
  130.6160  120.3920   62.9990 F   0  0  0  0  0  0  0  0  0  0  0  0
  129.6250  123.1690   62.5180 C   0  0  0  0  0  0  0  0  0  0  0  0
  131.5600  121.8550   63.8820 H   0  0  0  0  0  0  0  0  0  0  0  0
  131.7390  122.9950   65.1590 H   0  0  0  0  0  0  0  0  0  0  0  0
  128.3070  125.6900   66.0070 H   0  0  0  0  0  0  0  0  0  0  0  0
  128.2308  124.8370   68.8109 H   0  0  0  0  0  0  0  0  0  0  0  0
  128.4326  126.0931   70.9754 H   0  0  0  0  0  0  0  0  0  0  0  0
  129.5964  128.2850   70.9997 H   0  0  0  0  0  0  0  0  0  0  0  0
  130.3438  128.0477   66.8516 H   0  0  0  0  0  0  0  0  0  0  0  0
  128.3569  121.7990   57.8849 H   0  0  0  0  0  0  0  0  0  0  0  0
  126.8645  121.8074   55.8974 H   0  0  0  0  0  0  0  0  0  0  0  0
  124.7448  123.1125   55.9404 H   0  0  0  0  0  0  0  0  0  0  0  0
  124.1103  124.4089   57.9705 H   0  0  0  0  0  0  0  0  0  0  0  0
  125.5993  124.4001   59.9620 H   0  0  0  0  0  0  0  0  0  0  0  0
  129.0069  121.2527   59.7548 H   0  0  0  0  0  0  0  0  0  0  0  0
  1  2  1  0
  2  3  2  0
  3  4  1  0
  4  5  2  0
  4  6  1  0
  6  7  1  0
  7  8  2  0
  8  9  1  0
  9 10  2  0
 10 11  1  0
 11 12  2  0
  3 13  1  0
 13 14  1  0
 14 15  2  0
 15 16  1  0
 16 17  1  0
 17 18  2  0
 18 19  1  0
 19 20  2  0
 20 21  1  0
 21 22  2  0
 16 23  2  0
 23 24  1  0
 24 25  1  0
 25 26  1  0
 25 27  1  0
 25 28  1  0
 24 29  2  0
 29  2  1  0
 12  7  1  0
 29 14  1  0
 22 17  1  0
  1 30  1  0
  1 31  1  0
  6 32  1  0
  8 33  1  0
  9 34  1  0
 10 35  1  0
 12 36  1  0
 18 37  1  0
 19 38  1  0
 20 39  1  0
 21 40  1  0
 22 41  1  0
 23 42  1  0
M  END
>  <Binding energies>  (1) 
[-7.2]

>  <Ligand effiencies>  (1) 
[-0.225]

>  <Interactions>  (1) 
["V-B:PRO:540:CB:9857, V-B:MET:535:CE:9807, V-B:TYR:539:CD2:9846, V-B:PRO:540:N:9856, V-A:LEU:475:CD1:4257, V-B:PRO:540:CA:9855, V-B:ALA:541:CB:9864, V-B:TYR:539:C:9839, V-B:TYR:531:CE2:9765, V-B:LEU:363:CD1:8160, H-A:TYR:484:OH:4347, V-B:PRO:540:CD:9859, V-A:GLU:543:CD:4908, V-B:HIS:456:CE1:9041, V-A:TYR:484:CZ:4346, V-A:HIS:456:CE1:4069, V-B:GLU:543:CB:9878, V-B:GLU:543:CG:9879, V-B:GLU:543:CD:9880, H-B:GLU:543:OE2:9882, V-A:GLU:543:CB:4906, V-A:LEU:475:CD2:4258, V-B:GLU:543:CA:9876, V-B:GLU:543:C:9874, V-B:ALA:541:CA:9862, V-A:LEU:475:CG:4256"]

$$$$
4cg_Grossjean_2025
     RDKit          3D

 46 49  0  0  0  0  0  0  0  0999 V2000
  131.9310  126.0840   64.7930 N   0  0  0  0  0  0  0  0  0  0  0  0
  131.2370  124.9020   64.7640 C   0  0  0  0  0  0  0  0  0  0  0  0
  130.2080  124.5940   65.6640 C   0  0  0  0  0  0  0  0  0  0  0  0
  129.6480  125.4250   66.7290 C   0  0  0  0  0  0  0  0  0  0  0  0
  129.5660  125.0150   67.8890 O   0  0  0  0  0  0  0  0  0  0  0  0
  129.1960  126.6410   66.3550 N   0  0  0  0  0  0  0  0  0  0  0  0
  128.6200  127.6430   67.2500 C   0  0  0  0  0  0  0  0  0  0  0  0
  127.4990  128.4540   66.6110 C   0  0  0  0  0  0  0  0  0  0  0  0
  127.8080  129.5660   65.8240 C   0  0  0  0  0  0  0  0  0  0  0  0
  126.7880  130.2910   65.2130 C   0  0  0  0  0  0  0  0  0  0  0  0
  125.4640  129.8950   65.3830 C   0  0  0  0  0  0  0  0  0  0  0  0
  125.1500  128.7780   66.1540 C   0  0  0  0  0  0  0  0  0  0  0  0
  126.1690  128.0520   66.7630 C   0  0  0  0  0  0  0  0  0  0  0  0
  129.5180  123.0070   65.3330 S   0  0  0  0  0  0  0  0  0  0  0  0
  130.6280  122.7570   64.0060 C   0  0  0  0  0  0  0  0  0  0  0  0
  130.6090  121.6380   63.2870 N   0  0  0  0  0  0  0  0  0  0  0  0
  131.5050  121.5340   62.2720 C   0  0  0  0  0  0  0  0  0  0  0  0
  131.4600  120.2580   61.4800 C   0  0  0  0  0  0  0  0  0  0  0  0
  132.5410  119.8720   60.6710 C   0  0  0  0  0  0  0  0  0  0  0  0
  132.5030  118.6920   59.9350 C   0  0  0  0  0  0  0  0  0  0  0  0
  131.3770  117.8760   59.9960 C   0  0  0  0  0  0  0  0  0  0  0  0
  130.2910  118.2350   60.7860 C   0  0  0  0  0  0  0  0  0  0  0  0
  130.3340  119.4160   61.5210 C   0  0  0  0  0  0  0  0  0  0  0  0
  132.4290  122.5490   61.9960 C   0  0  0  0  0  0  0  0  0  0  0  0
  132.4580  123.7330   62.7490 C   0  0  0  0  0  0  0  0  0  0  0  0
  133.4970  124.8040   62.3940 C   0  0  0  0  0  0  0  0  0  0  0  0
  134.2810  124.4540   61.3720 F   0  0  0  0  0  0  0  0  0  0  0  0
  132.8790  125.9360   62.0550 F   0  0  0  0  0  0  0  0  0  0  0  0
  134.2860  125.0310   63.4420 F   0  0  0  0  0  0  0  0  0  0  0  0
  131.5120  123.8580   63.8070 C   0  0  0  0  0  0  0  0  0  0  0  0
  131.4630  126.9780   64.8370 H   0  0  0  0  0  0  0  0  0  0  0  0
  132.9420  126.1000   64.7800 H   0  0  0  0  0  0  0  0  0  0  0  0
  129.3630  126.9380   65.4050 H   0  0  0  0  0  0  0  0  0  0  0  0
  128.2173  127.1291   68.1353 H   0  0  0  0  0  0  0  0  0  0  0  0
  129.4240  128.3481   67.5076 H   0  0  0  0  0  0  0  0  0  0  0  0
  128.8566  129.8688   65.6870 H   0  0  0  0  0  0  0  0  0  0  0  0
  127.0271  131.1720   64.5992 H   0  0  0  0  0  0  0  0  0  0  0  0
  124.6579  130.4699   64.9037 H   0  0  0  0  0  0  0  0  0  0  0  0
  124.1013  128.4713   66.2808 H   0  0  0  0  0  0  0  0  0  0  0  0
  125.9280  127.1625   67.3635 H   0  0  0  0  0  0  0  0  0  0  0  0
  133.4330  120.5135   60.6183 H   0  0  0  0  0  0  0  0  0  0  0  0
  133.3595  118.4050   59.3073 H   0  0  0  0  0  0  0  0  0  0  0  0
  131.3463  116.9419   59.4159 H   0  0  0  0  0  0  0  0  0  0  0  0
  129.4019  117.5887   60.8300 H   0  0  0  0  0  0  0  0  0  0  0  0
  129.4724  119.6959   62.1449 H   0  0  0  0  0  0  0  0  0  0  0  0
  133.1463  122.4159   61.1728 H   0  0  0  0  0  0  0  0  0  0  0  0
  1  2  1  0
  2  3  2  0
  3  4  1  0
  4  5  2  0
  4  6  1  0
  6  7  1  0
  7  8  1  0
  8  9  2  0
  9 10  1  0
 10 11  2  0
 11 12  1  0
 12 13  2  0
  3 14  1  0
 14 15  1  0
 15 16  2  0
 16 17  1  0
 17 18  1  0
 18 19  2  0
 19 20  1  0
 20 21  2  0
 21 22  1  0
 22 23  2  0
 17 24  2  0
 24 25  1  0
 25 26  1  0
 26 27  1  0
 26 28  1  0
 26 29  1  0
 25 30  2  0
 30  2  1  0
 13  8  1  0
 30 15  1  0
 23 18  1  0
  1 31  1  0
  1 32  1  0
  6 33  1  0
  7 34  1  0
  7 35  1  0
  9 36  1  0
 10 37  1  0
 11 38  1  0
 12 39  1  0
 13 40  1  0
 19 41  1  0
 20 42  1  0
 21 43  1  0
 22 44  1  0
 23 45  1  0
 24 46  1  0
M  END
>  <Binding energies>  (1) 
[-7.8]

>  <Ligand effiencies>  (1) 
[-0.23636363636363636]

>  <Interactions>  (1) 
["V-A:ILE:369:CG2:3236, V-B:TYR:539:CD2:9846, V-A:LEU:475:CD1:4257, V-B:ALA:541:CB:9864, V-B:TYR:539:C:9839, V-A:PRO:482:CG:4326, V-A:PRO:482:CB:4325, H-A:TYR:484:OH:4347, V-A:ASP:366:CG:3212, V-A:ASP:366:CA:3209, V-A:ASP:366:CB:3211, V-B:ARG:545:CZ:9898, V-A:GLU:543:CG:4907, V-A:GLU:543:CD:4908, V-A:ILE:369:CD1:3238, V-B:HIS:456:CE1:9041, V-A:TYR:484:CZ:4346, V-B:GLU:543:CB:9878, V-B:GLU:543:CG:9879, V-B:GLU:543:CD:9880, H-B:GLU:543:OE2:9882, V-A:ARG:545:CZ:4926, V-A:TYR:484:CE2:4345, V-B:ARG:545:CG:9894, H-A:GLU:543:OE1:4909, H-A:GLU:543:OE2:4910, V-A:GLY:453:CA:4043, V-A:GLY:453:C:4041, V-B:TYR:539:CB:9843, V-A:HIS:383:CE1:3392, V-A:HIS:383:CD2:3391, V-B:ARG:545:CD:9895"]

$$$$
4ch_Grossjean_2025
     RDKit          3D

 58 61  0  0  0  0  0  0  0  0999 V2000
  131.8090  132.3320   56.3530 C   0  0  0  0  0  0  0  0  0  0  0  0
  130.4530  132.7610   56.4170 O   0  0  0  0  0  0  0  0  0  0  0  0
  129.4530  131.8220   56.5950 C   0  0  0  0  0  0  0  0  0  0  0  0
  129.0210  131.3640   57.8510 C   0  0  0  0  0  0  0  0  0  0  0  0
  128.0040  130.4140   57.9550 C   0  0  0  0  0  0  0  0  0  0  0  0
  127.5680  129.9090   59.3260 C   0  0  0  0  0  0  0  0  0  0  0  0
  128.2780  128.7120   59.7780 N   0  0  0  0  0  0  0  0  0  0  0  0
  129.6120  128.5210   59.7170 C   0  0  0  0  0  0  0  0  0  0  0  0
  130.3850  129.3780   59.2830 O   0  0  0  0  0  0  0  0  0  0  0  0
  130.1010  127.2420   60.2320 C   0  0  0  0  0  0  0  0  0  0  0  0
  130.2080  125.8440   59.1670 S   0  0  0  0  0  0  0  0  0  0  0  0
  130.8510  124.8560   60.4560 C   0  0  0  0  0  0  0  0  0  0  0  0
  131.1580  123.5760   60.2630 N   0  0  0  0  0  0  0  0  0  0  0  0
  131.6580  122.8890   61.3230 C   0  0  0  0  0  0  0  0  0  0  0  0
  131.9880  121.4450   61.0740 C   0  0  0  0  0  0  0  0  0  0  0  0
  130.9750  120.5130   60.7960 C   0  0  0  0  0  0  0  0  0  0  0  0
  131.2740  119.1730   60.5650 C   0  0  0  0  0  0  0  0  0  0  0  0
  132.5960  118.7440   60.6090 C   0  0  0  0  0  0  0  0  0  0  0  0
  133.6190  119.6450   60.8860 C   0  0  0  0  0  0  0  0  0  0  0  0
  133.3150  120.9830   61.1180 C   0  0  0  0  0  0  0  0  0  0  0  0
  131.8310  123.4870   62.5750 C   0  0  0  0  0  0  0  0  0  0  0  0
  131.5090  124.8370   62.7910 C   0  0  0  0  0  0  0  0  0  0  0  0
  131.7230  125.4280   64.1880 C   0  0  0  0  0  0  0  0  0  0  0  0
  130.6200  125.4070   64.9410 F   0  0  0  0  0  0  0  0  0  0  0  0
  132.6590  124.7350   64.8340 F   0  0  0  0  0  0  0  0  0  0  0  0
  132.1100  126.7000   64.0850 F   0  0  0  0  0  0  0  0  0  0  0  0
  130.9960  125.5690   61.6830 C   0  0  0  0  0  0  0  0  0  0  0  0
  130.5690  126.9380   61.5200 C   0  0  0  0  0  0  0  0  0  0  0  0
  130.6080  127.8550   62.5390 N   0  0  0  0  0  0  0  0  0  0  0  0
  127.4200  129.9010   56.7970 C   0  0  0  0  0  0  0  0  0  0  0  0
  127.8330  130.3390   55.5280 C   0  0  0  0  0  0  0  0  0  0  0  0
  127.2990  129.8750   54.3400 O   0  0  0  0  0  0  0  0  0  0  0  0
  127.9000  128.7590   53.6910 C   0  0  0  0  0  0  0  0  0  0  0  0
  128.8470  131.3050   55.4410 C   0  0  0  0  0  0  0  0  0  0  0  0
  129.2710  131.7310   54.2060 O   0  0  0  0  0  0  0  0  0  0  0  0
  130.2770  130.9120   53.6250 C   0  0  0  0  0  0  0  0  0  0  0  0
  132.2027  132.2075   57.3726 H   0  0  0  0  0  0  0  0  0  0  0  0
  131.8651  131.3722   55.8185 H   0  0  0  0  0  0  0  0  0  0  0  0
  132.4069  133.0849   55.8185 H   0  0  0  0  0  0  0  0  0  0  0  0
  129.4903  131.7592   58.7640 H   0  0  0  0  0  0  0  0  0  0  0  0
  127.7407  130.7102   60.0597 H   0  0  0  0  0  0  0  0  0  0  0  0
  126.5068  129.6329   59.2383 H   0  0  0  0  0  0  0  0  0  0  0  0
  127.7000  127.9470   60.0950 H   0  0  0  0  0  0  0  0  0  0  0  0
  129.9276  120.8473   60.7601 H   0  0  0  0  0  0  0  0  0  0  0  0
  130.4678  118.4566   60.3486 H   0  0  0  0  0  0  0  0  0  0  0  0
  132.8342  117.6862   60.4237 H   0  0  0  0  0  0  0  0  0  0  0  0
  134.6634  119.3014   60.9215 H   0  0  0  0  0  0  0  0  0  0  0  0
  134.1269  121.6913   61.3396 H   0  0  0  0  0  0  0  0  0  0  0  0
  132.2274  122.8878   63.4080 H   0  0  0  0  0  0  0  0  0  0  0  0
  131.0050  128.7760   62.4140 H   0  0  0  0  0  0  0  0  0  0  0  0
  130.2350  127.6410   63.4530 H   0  0  0  0  0  0  0  0  0  0  0  0
  126.6261  129.1440   56.8785 H   0  0  0  0  0  0  0  0  0  0  0  0
  128.2789  128.0555   54.4470 H   0  0  0  0  0  0  0  0  0  0  0  0
  127.1519  128.2539   53.0623 H   0  0  0  0  0  0  0  0  0  0  0  0
  128.7335  129.1056   53.0623 H   0  0  0  0  0  0  0  0  0  0  0  0
  130.8653  130.4331   54.4216 H   0  0  0  0  0  0  0  0  0  0  0  0
  129.8051  130.1380   53.0019 H   0  0  0  0  0  0  0  0  0  0  0  0
  130.9392  131.5311   53.0019 H   0  0  0  0  0  0  0  0  0  0  0  0
  1  2  1  0
  2  3  1  0
  3  4  2  0
  4  5  1  0
  5  6  1  0
  6  7  1  0
  7  8  1  0
  8  9  2  0
  8 10  1  0
 10 11  1  0
 11 12  1  0
 12 13  2  0
 13 14  1  0
 14 15  1  0
 15 16  2  0
 16 17  1  0
 17 18  2  0
 18 19  1  0
 19 20  2  0
 14 21  2  0
 21 22  1  0
 22 23  1  0
 23 24  1  0
 23 25  1  0
 23 26  1  0
 22 27  2  0
 27 28  1  0
 28 29  1  0
  5 30  2  0
 30 31  1  0
 31 32  1  0
 32 33  1  0
 31 34  2  0
 34 35  1  0
 35 36  1  0
 34  3  1  0
 28 10  2  0
 27 12  1  0
 20 15  1  0
  1 37  1  0
  1 38  1  0
  1 39  1  0
  4 40  1  0
  6 41  1  0
  6 42  1  0
  7 43  1  0
 16 44  1  0
 17 45  1  0
 18 46  1  0
 19 47  1  0
 20 48  1  0
 21 49  1  0
 29 50  1  0
 29 51  1  0
 30 52  1  0
 33 53  1  0
 33 54  1  0
 33 55  1  0
 36 56  1  0
 36 57  1  0
 36 58  1  0
M  END
>  <Binding energies>  (1) 
[-7.62]

>  <Ligand effiencies>  (1) 
[-0.19538461538461538]

>  <Interactions>  (1) 
["H-B:TYR:531:OH:9767, V-A:ILE:369:CG2:3236, V-B:TYR:539:CD2:9846, V-A:LEU:475:CD1:4257, V-B:TYR:531:CZ:9766, V-A:PRO:540:N:4884, V-A:MET:535:CB:4832, V-A:ILE:538:CG2:4863, V-A:TYR:539:CD1:4873, V-A:PRO:540:CA:4883, H-A:TYR:539:N:4870, V-A:TYR:539:CZ:4877, V-A:PRO:540:CB:4885, V-A:TYR:539:CE1:4875, V-A:TYR:531:CZ:4794, V-A:ILE:538:CB:4862, V-A:MET:535:CG:4833, V-B:TYR:531:CE1:9764, H-B:LYS:534:NZ:9795, V-A:PRO:540:CD:4887, V-A:LEU:363:CD1:3188, V-A:GLU:543:CD:4908, H-A:ASP:366:OD2:3214, V-A:SER:385:CA:3406, H-A:TYR:539:OH:4878, V-A:SER:385:C:3404, V-A:ARG:545:CZ:4926, V-B:LYS:534:CE:9794, V-A:TYR:531:CE2:4793, V-B:LYS:534:CD:9793, H-A:GLU:543:OE1:4909, H-A:GLU:543:OE2:4910"]

$$$$
4ci_Grossjean_2025
     RDKit          3D

 39 42  0  0  0  0  0  0  0  0999 V2000
  132.2430  123.5000   58.3420 N   0  0  0  0  0  0  0  0  0  0  0  0
  131.4350  123.9250   59.3650 C   0  0  0  0  0  0  0  0  0  0  0  0
  130.0470  124.0940   59.2300 C   0  0  0  0  0  0  0  0  0  0  0  0
  129.2090  123.8570   58.0510 C   0  0  0  0  0  0  0  0  0  0  0  0
  129.5020  124.3540   56.9610 O   0  0  0  0  0  0  0  0  0  0  0  0
  128.1160  123.0820   58.2580 N   0  0  0  0  0  0  0  0  0  0  0  0
  127.1580  122.7040   57.3260 C   0  0  0  0  0  0  0  0  0  0  0  0
  126.0250  123.4670   57.0450 C   0  0  0  0  0  0  0  0  0  0  0  0
  125.3440  122.7570   56.0840 C   0  0  0  0  0  0  0  0  0  0  0  0
  126.0310  121.6240   55.8000 O   0  0  0  0  0  0  0  0  0  0  0  0
  127.1790  121.6020   56.5940 N   0  0  0  0  0  0  0  0  0  0  0  0
  129.3220  124.6390   60.7390 S   0  0  0  0  0  0  0  0  0  0  0  0
  130.8780  124.6470   61.5370 C   0  0  0  0  0  0  0  0  0  0  0  0
  131.0040  125.0020   62.8130 N   0  0  0  0  0  0  0  0  0  0  0  0
  132.2520  124.9740   63.3470 C   0  0  0  0  0  0  0  0  0  0  0  0
  132.3620  125.3850   64.7880 C   0  0  0  0  0  0  0  0  0  0  0  0
  133.6020  125.3700   65.4480 C   0  0  0  0  0  0  0  0  0  0  0  0
  133.7110  125.7500   66.7830 C   0  0  0  0  0  0  0  0  0  0  0  0
  132.5760  126.1520   67.4810 C   0  0  0  0  0  0  0  0  0  0  0  0
  131.3360  126.1710   66.8540 C   0  0  0  0  0  0  0  0  0  0  0  0
  131.2310  125.7890   65.5190 C   0  0  0  0  0  0  0  0  0  0  0  0
  133.3700  124.6060   62.5910 C   0  0  0  0  0  0  0  0  0  0  0  0
  133.2490  124.2290   61.2440 C   0  0  0  0  0  0  0  0  0  0  0  0
  134.5160  123.8370   60.4750 C   0  0  0  0  0  0  0  0  0  0  0  0
  134.7140  122.5180   60.4290 F   0  0  0  0  0  0  0  0  0  0  0  0
  134.4310  124.2720   59.2180 F   0  0  0  0  0  0  0  0  0  0  0  0
  135.5840  124.3820   61.0580 F   0  0  0  0  0  0  0  0  0  0  0  0
  131.9420  124.2430   60.6780 C   0  0  0  0  0  0  0  0  0  0  0  0
  131.9840  123.6140   57.3720 H   0  0  0  0  0  0  0  0  0  0  0  0
  133.1360  123.0620   58.5260 H   0  0  0  0  0  0  0  0  0  0  0  0
  127.9690  122.7350   59.1940 H   0  0  0  0  0  0  0  0  0  0  0  0
  125.7380  124.4289   57.4948 H   0  0  0  0  0  0  0  0  0  0  0  0
  124.3938  123.0603   55.6202 H   0  0  0  0  0  0  0  0  0  0  0  0
  134.5020  125.0527   64.9009 H   0  0  0  0  0  0  0  0  0  0  0  0
  134.6901  125.7326   67.2840 H   0  0  0  0  0  0  0  0  0  0  0  0
  132.6610  126.4563   68.5346 H   0  0  0  0  0  0  0  0  0  0  0  0
  130.4409  126.4866   67.4101 H   0  0  0  0  0  0  0  0  0  0  0  0
  130.2467  125.8036   65.0282 H   0  0  0  0  0  0  0  0  0  0  0  0
  134.3643  124.6121   63.0615 H   0  0  0  0  0  0  0  0  0  0  0  0
  1  2  1  0
  2  3  2  0
  3  4  1  0
  4  5  2  0
  4  6  1  0
  6  7  1  0
  7  8  1  0
  8  9  2  0
  9 10  1  0
 10 11  1  0
  3 12  1  0
 12 13  1  0
 13 14  2  0
 14 15  1  0
 15 16  1  0
 16 17  2  0
 17 18  1  0
 18 19  2  0
 19 20  1  0
 20 21  2  0
 15 22  2  0
 22 23  1  0
 23 24  1  0
 24 25  1  0
 24 26  1  0
 24 27  1  0
 23 28  2  0
 28  2  1  0
 11  7  2  0
 28 13  1  0
 21 16  1  0
  1 29  1  0
  1 30  1  0
  6 31  1  0
  8 32  1  0
  9 33  1  0
 17 34  1  0
 18 35  1  0
 19 36  1  0
 20 37  1  0
 21 38  1  0
 22 39  1  0
M  END
>  <Binding energies>  (1) 
[-7.55]

>  <Ligand effiencies>  (1) 
[-0.24354838709677418]

>  <Interactions>  (1) 
["V-B:MET:535:CE:9807, V-A:ILE:369:CG2:3236, V-B:PRO:540:N:9856, V-B:PRO:540:CA:9855, H-B:TYR:539:N:9842, V-B:TYR:539:CE2:9848, V-B:MET:535:CG:9805, V-B:TYR:539:C:9839, V-B:TYR:531:CE2:9765, V-B:LEU:363:CD1:8160, V-A:ASP:366:CG:3212, V-A:ASP:366:CA:3209, V-A:ASP:366:CB:3211, V-A:ASP:366:C:3207, H-B:TYR:539:OH:9850, V-A:ILE:369:CD1:3238, V-B:TYR:539:CZ:9849, H-B:TYR:539:O:9840, V-A:ILE:369:CB:3235, V-A:TYR:484:CZ:4346, V-A:HIS:456:CE1:4069, V-A:ARG:545:CD:4923, V-A:ARG:545:CG:4922, V-A:ARG:545:CZ:4926, V-A:GLY:453:CA:4043, V-A:ILE:369:CG1:3237, V-A:CYS:365:C:3203"]

$$$$
4cj_Grossjean_2025
     RDKit          3D

 39 42  0  0  0  0  0  0  0  0999 V2000
  131.2390  122.7380   64.1300 N   0  0  0  0  0  0  0  0  0  0  0  0
  130.2420  123.5030   63.5800 C   0  0  0  0  0  0  0  0  0  0  0  0
  129.7870  124.7010   64.1550 C   0  0  0  0  0  0  0  0  0  0  0  0
  130.2470  125.3590   65.3810 C   0  0  0  0  0  0  0  0  0  0  0  0
  131.4340  125.3150   65.7130 O   0  0  0  0  0  0  0  0  0  0  0  0
  129.2850  125.9910   66.0990 N   0  0  0  0  0  0  0  0  0  0  0  0
  129.4550  126.6860   67.2880 C   0  0  0  0  0  0  0  0  0  0  0  0
  130.4460  127.4840   67.6230 N   0  0  0  0  0  0  0  0  0  0  0  0
  130.2820  127.9800   68.8330 C   0  0  0  0  0  0  0  0  0  0  0  0
  129.1320  127.5840   69.5100 C   0  0  0  0  0  0  0  0  0  0  0  0
  128.2230  126.5030   68.4960 S   0  0  0  0  0  0  0  0  0  0  0  0
  128.5110  125.4300   63.1820 S   0  0  0  0  0  0  0  0  0  0  0  0
  128.5960  124.1290   62.0180 C   0  0  0  0  0  0  0  0  0  0  0  0
  127.8100  124.1060   60.9440 N   0  0  0  0  0  0  0  0  0  0  0  0
  127.9520  123.0590   60.0910 C   0  0  0  0  0  0  0  0  0  0  0  0
  127.0590  123.0710   58.8840 C   0  0  0  0  0  0  0  0  0  0  0  0
  125.8990  123.8610   58.8560 C   0  0  0  0  0  0  0  0  0  0  0  0
  125.0630  123.8720   57.7410 C   0  0  0  0  0  0  0  0  0  0  0  0
  125.3770  123.0870   56.6360 C   0  0  0  0  0  0  0  0  0  0  0  0
  126.5180  122.2940   56.6390 C   0  0  0  0  0  0  0  0  0  0  0  0
  127.3510  122.2870   57.7540 C   0  0  0  0  0  0  0  0  0  0  0  0
  128.8660  122.0280   60.3330 C   0  0  0  0  0  0  0  0  0  0  0  0
  129.6980  122.0410   61.4640 C   0  0  0  0  0  0  0  0  0  0  0  0
  130.6800  120.8800   61.6660 C   0  0  0  0  0  0  0  0  0  0  0  0
  130.5750  120.3090   62.8670 F   0  0  0  0  0  0  0  0  0  0  0  0
  130.4530  119.9360   60.7530 F   0  0  0  0  0  0  0  0  0  0  0  0
  131.9320  121.3210   61.5410 F   0  0  0  0  0  0  0  0  0  0  0  0
  129.5710  123.1440   62.3550 C   0  0  0  0  0  0  0  0  0  0  0  0
  131.5180  121.8530   63.7280 H   0  0  0  0  0  0  0  0  0  0  0  0
  131.7340  123.0370   64.9590 H   0  0  0  0  0  0  0  0  0  0  0  0
  128.3410  125.9500   65.7450 H   0  0  0  0  0  0  0  0  0  0  0  0
  131.0128  128.6682   69.2827 H   0  0  0  0  0  0  0  0  0  0  0  0
  128.8448  127.9033   70.5227 H   0  0  0  0  0  0  0  0  0  0  0  0
  125.6457  124.4815   59.7283 H   0  0  0  0  0  0  0  0  0  0  0  0
  124.1589  124.4985   57.7346 H   0  0  0  0  0  0  0  0  0  0  0  0
  124.7183  123.0942   55.7551 H   0  0  0  0  0  0  0  0  0  0  0  0
  126.7620  121.6742   55.7636 H   0  0  0  0  0  0  0  0  0  0  0  0
  128.2530  121.6575   57.7511 H   0  0  0  0  0  0  0  0  0  0  0  0
  128.9343  121.1905   59.6232 H   0  0  0  0  0  0  0  0  0  0  0  0
  1  2  1  0
  2  3  2  0
  3  4  1  0
  4  5  2  0
  4  6  1  0
  6  7  1  0
  7  8  2  0
  8  9  1  0
  9 10  2  0
 10 11  1  0
  3 12  1  0
 12 13  1  0
 13 14  2  0
 14 15  1  0
 15 16  1  0
 16 17  2  0
 17 18  1  0
 18 19  2  0
 19 20  1  0
 20 21  2  0
 15 22  2  0
 22 23  1  0
 23 24  1  0
 24 25  1  0
 24 26  1  0
 24 27  1  0
 23 28  2  0
 28  2  1  0
 11  7  1  0
 28 13  1  0
 21 16  1  0
  1 29  1  0
  1 30  1  0
  6 31  1  0
  9 32  1  0
 10 33  1  0
 17 34  1  0
 18 35  1  0
 19 36  1  0
 20 37  1  0
 21 38  1  0
 22 39  1  0
M  END
>  <Binding energies>  (1) 
[-6.85]

>  <Ligand effiencies>  (1) 
[-0.22096774193548385]

>  <Interactions>  (1) 
["V-B:PRO:540:CB:9857, V-B:MET:535:CE:9807, V-B:TYR:539:CD2:9846, V-B:PRO:540:N:9856, V-A:LEU:475:CD1:4257, V-B:PRO:540:CA:9855, V-B:ALA:541:CB:9864, V-B:TYR:539:C:9839, V-B:TYR:531:CE2:9765, V-B:LEU:363:CD1:8160, H-A:TYR:484:OH:4347, V-B:PRO:540:CD:9859, V-A:GLU:543:C:4902, V-B:HIS:456:CE1:9041, V-A:TYR:484:CZ:4346, V-A:HIS:456:CE1:4069, V-B:GLU:543:CB:9878, V-B:GLU:543:CG:9879, V-B:GLU:543:CD:9880, H-B:GLU:543:OE2:9882, V-A:GLU:543:CB:4906, H-A:GLU:543:OE1:4909, V-B:ALA:541:CA:9862"]

$$$$
4ck_Grossjean_2025
     RDKit          3D

 57 59  0  0  0  0  0  0  0  0999 V2000
  132.1850  129.4840   57.3850 C   0  0  0  0  0  0  0  0  0  0  0  0
  130.7730  129.5530   57.2600 O   0  0  0  0  0  0  0  0  0  0  0  0
  130.2320  130.8090   57.6450 C   0  0  0  0  0  0  0  0  0  0  0  0
  130.9350  131.9200   56.8550 C   0  0  0  0  0  0  0  0  0  0  0  0
  129.9800  132.5860   56.0410 O   0  0  0  0  0  0  0  0  0  0  0  0
  129.7360  131.9330   54.8020 C   0  0  0  0  0  0  0  0  0  0  0  0
  128.2660  131.4960   54.7450 C   0  0  0  0  0  0  0  0  0  0  0  0
  128.2150  130.0910   54.5380 O   0  0  0  0  0  0  0  0  0  0  0  0
  129.4920  129.4860   54.3810 C   0  0  0  0  0  0  0  0  0  0  0  0
  129.3590  127.9610   54.5090 C   0  0  0  0  0  0  0  0  0  0  0  0
  129.8480  127.4720   55.7980 N   0  0  0  0  0  0  0  0  0  0  0  0
  130.8160  126.5490   55.9770 C   0  0  0  0  0  0  0  0  0  0  0  0
  131.4230  126.0300   55.0380 O   0  0  0  0  0  0  0  0  0  0  0  0
  131.1190  126.2010   57.3660 C   0  0  0  0  0  0  0  0  0  0  0  0
  130.2010  126.9320   58.6800 S   0  0  0  0  0  0  0  0  0  0  0  0
  131.0850  126.0060   59.8690 C   0  0  0  0  0  0  0  0  0  0  0  0
  130.8310  126.1220   61.1700 N   0  0  0  0  0  0  0  0  0  0  0  0
  131.5700  125.3620   62.0200 C   0  0  0  0  0  0  0  0  0  0  0  0
  131.2460  125.5030   63.4790 C   0  0  0  0  0  0  0  0  0  0  0  0
  132.2670  125.6520   64.4320 C   0  0  0  0  0  0  0  0  0  0  0  0
  131.9730  125.7810   65.7870 C   0  0  0  0  0  0  0  0  0  0  0  0
  130.6480  125.7630   66.2100 C   0  0  0  0  0  0  0  0  0  0  0  0
  129.6170  125.6220   65.2880 C   0  0  0  0  0  0  0  0  0  0  0  0
  129.9150  125.4950   63.9330 C   0  0  0  0  0  0  0  0  0  0  0  0
  132.5550  124.4830   61.5580 C   0  0  0  0  0  0  0  0  0  0  0  0
  132.8320  124.3530   60.1880 C   0  0  0  0  0  0  0  0  0  0  0  0
  133.9280  123.3730   59.7510 C   0  0  0  0  0  0  0  0  0  0  0  0
  134.7770  123.8970   58.8660 F   0  0  0  0  0  0  0  0  0  0  0  0
  134.6410  122.9920   60.8110 F   0  0  0  0  0  0  0  0  0  0  0  0
  133.3730  122.3010   59.1860 F   0  0  0  0  0  0  0  0  0  0  0  0
  132.0650  125.1470   59.2890 C   0  0  0  0  0  0  0  0  0  0  0  0
  132.0550  125.2750   57.8510 C   0  0  0  0  0  0  0  0  0  0  0  0
  132.8920  124.5570   57.0360 N   0  0  0  0  0  0  0  0  0  0  0  0
  132.4586  129.4706   58.4504 H   0  0  0  0  0  0  0  0  0  0  0  0
  132.5516  128.5669   56.9008 H   0  0  0  0  0  0  0  0  0  0  0  0
  132.6393  130.3610   56.9008 H   0  0  0  0  0  0  0  0  0  0  0  0
  129.1538  130.8280   57.4280 H   0  0  0  0  0  0  0  0  0  0  0  0
  130.3866  130.9651   58.7228 H   0  0  0  0  0  0  0  0  0  0  0  0
  131.3888  132.6384   57.5536 H   0  0  0  0  0  0  0  0  0  0  0  0
  131.7222  131.4842   56.2223 H   0  0  0  0  0  0  0  0  0  0  0  0
  129.9469  132.6249   53.9733 H   0  0  0  0  0  0  0  0  0  0  0  0
  130.3881  131.0516   54.7132 H   0  0  0  0  0  0  0  0  0  0  0  0
  127.7679  131.7486   55.6927 H   0  0  0  0  0  0  0  0  0  0  0  0
  127.7530  132.0146   53.9216 H   0  0  0  0  0  0  0  0  0  0  0  0
  129.8962  129.7362   53.3890 H   0  0  0  0  0  0  0  0  0  0  0  0
  130.1718  129.8601   55.1607 H   0  0  0  0  0  0  0  0  0  0  0  0
  128.2986  127.6875   54.4051 H   0  0  0  0  0  0  0  0  0  0  0  0
  129.9695  127.5003   53.7184 H   0  0  0  0  0  0  0  0  0  0  0  0
  129.4600  127.9170   56.6160 H   0  0  0  0  0  0  0  0  0  0  0  0
  133.3164  125.6670   64.1025 H   0  0  0  0  0  0  0  0  0  0  0  0
  132.7852  125.8967   66.5198 H   0  0  0  0  0  0  0  0  0  0  0  0
  130.4145  125.8609   67.2805 H   0  0  0  0  0  0  0  0  0  0  0  0
  128.5706  125.6108   65.6269 H   0  0  0  0  0  0  0  0  0  0  0  0
  129.0961  125.3867   63.2066 H   0  0  0  0  0  0  0  0  0  0  0  0
  133.1238  123.8817   62.2825 H   0  0  0  0  0  0  0  0  0  0  0  0
  133.8000  124.2410   57.3440 H   0  0  0  0  0  0  0  0  0  0  0  0
  132.6230  124.3140   56.0910 H   0  0  0  0  0  0  0  0  0  0  0  0
  1  2  1  0
  2  3  1  0
  3  4  1  0
  4  5  1  0
  5  6  1  0
  6  7  1  0
  7  8  1  0
  8  9  1  0
  9 10  1  0
 10 11  1  0
 11 12  1  0
 12 13  2  0
 12 14  1  0
 14 15  1  0
 15 16  1  0
 16 17  2  0
 17 18  1  0
 18 19  1  0
 19 20  2  0
 20 21  1  0
 21 22  2  0
 22 23  1  0
 23 24  2  0
 18 25  2  0
 25 26  1  0
 26 27  1  0
 27 28  1  0
 27 29  1  0
 27 30  1  0
 26 31  2  0
 31 32  1  0
 32 33  1  0
 32 14  2  0
 31 16  1  0
 24 19  1  0
  1 34  1  0
  1 35  1  0
  1 36  1  0
  3 37  1  0
  3 38  1  0
  4 39  1  0
  4 40  1  0
  6 41  1  0
  6 42  1  0
  7 43  1  0
  7 44  1  0
  9 45  1  0
  9 46  1  0
 10 47  1  0
 10 48  1  0
 11 49  1  0
 20 50  1  0
 21 51  1  0
 22 52  1  0
 23 53  1  0
 24 54  1  0
 25 55  1  0
 33 56  1  0
 33 57  1  0
M  END
>  <Binding energies>  (1) 
[-6.27]

>  <Ligand effiencies>  (1) 
[-0.17416666666666666]

>  <Interactions>  (1) 
["V-A:ILE:369:CG2:3236, V-B:TYR:539:CE2:9848, V-A:ASP:366:CG:3212, V-A:PRO:540:N:4884, V-A:ILE:538:CA:4860, V-A:ASP:366:CA:3209, V-A:ASP:366:CB:3211, V-A:ILE:538:CG2:4863, V-A:ASP:366:C:3207, H-B:TYR:539:OH:9850, V-A:TYR:539:CE2:4876, V-A:PRO:540:CA:4883, H-A:TYR:531:OH:4795, H-A:TYR:539:N:4870, V-A:TYR:539:CZ:4877, V-A:TYR:539:CE1:4875, V-A:ILE:538:CB:4862, H-B:LYS:534:NZ:9795, V-A:PRO:540:CD:4887, V-A:TYR:539:C:4867, V-A:ILE:369:CD1:3238, V-B:TYR:539:CZ:9849, V-A:ILE:369:CB:3235, V-B:GLU:543:CG:9879, V-B:GLU:543:CD:9880, V-A:ARG:545:CZ:4926, V-A:ILE:369:CG1:3237, H-A:ASP:366:O:3208"]

$$$$
4dd_Grossjean_2025
     RDKit          3D

 43 46  0  0  0  0  0  0  0  0999 V2000
  130.3290  120.8080   61.9720 C   0  0  0  0  0  0  0  0  0  0  0  0
  129.4540  122.0220   61.6990 C   0  0  0  0  0  0  0  0  0  0  0  0
  128.6620  122.0200   60.5440 C   0  0  0  0  0  0  0  0  0  0  0  0
  127.8350  123.1070   60.2360 C   0  0  0  0  0  0  0  0  0  0  0  0
  126.9810  123.1340   59.0030 C   0  0  0  0  0  0  0  0  0  0  0  0
  127.3240  122.3730   57.8730 C   0  0  0  0  0  0  0  0  0  0  0  0
  126.5340  122.3910   56.7260 C   0  0  0  0  0  0  0  0  0  0  0  0
  125.3870  123.1760   56.6920 C   0  0  0  0  0  0  0  0  0  0  0  0
  125.0220  123.9380   57.7960 C   0  0  0  0  0  0  0  0  0  0  0  0
  125.8140  123.9150   58.9420 C   0  0  0  0  0  0  0  0  0  0  0  0
  127.7710  124.2100   61.0310 N   0  0  0  0  0  0  0  0  0  0  0  0
  128.5190  124.2100   62.1340 C   0  0  0  0  0  0  0  0  0  0  0  0
  128.5190  125.5540   63.2540 S   0  0  0  0  0  0  0  0  0  0  0  0
  129.6820  124.7400   64.3030 C   0  0  0  0  0  0  0  0  0  0  0  0
  130.1360  125.3780   65.5410 C   0  0  0  0  0  0  0  0  0  0  0  0
  131.3380  125.4650   65.7980 O   0  0  0  0  0  0  0  0  0  0  0  0
  129.1530  125.8520   66.3450 N   0  0  0  0  0  0  0  0  0  0  0  0
  129.2450  126.4610   67.6090 C   0  0  0  0  0  0  0  0  0  0  0  0
  128.6850  125.7470   68.6730 C   0  0  0  0  0  0  0  0  0  0  0  0
  128.7370  126.2580   69.9670 C   0  0  0  0  0  0  0  0  0  0  0  0
  129.3580  127.4830   70.2000 C   0  0  0  0  0  0  0  0  0  0  0  0
  129.9300  128.1980   69.1520 C   0  0  0  0  0  0  0  0  0  0  0  0
  129.8790  127.6900   67.8570 C   0  0  0  0  0  0  0  0  0  0  0  0
  130.0420  123.4870   63.7830 C   0  0  0  0  0  0  0  0  0  0  0  0
  130.9340  122.6370   64.3880 N   0  0  0  0  0  0  0  0  0  0  0  0
  129.3870  123.1600   62.5440 C   0  0  0  0  0  0  0  0  0  0  0  0
  130.4311  120.6664   63.0581 H   0  0  0  0  0  0  0  0  0  0  0  0
  129.8657  119.9147   61.5277 H   0  0  0  0  0  0  0  0  0  0  0  0
  131.3229  120.9650   61.5277 H   0  0  0  0  0  0  0  0  0  0  0  0
  128.6901  121.1519   59.8690 H   0  0  0  0  0  0  0  0  0  0  0  0
  128.2319  121.7524   57.8944 H   0  0  0  0  0  0  0  0  0  0  0  0
  126.8163  121.7869   55.8511 H   0  0  0  0  0  0  0  0  0  0  0  0
  124.7642  123.1943   55.7855 H   0  0  0  0  0  0  0  0  0  0  0  0
  124.1125  124.5559   57.7649 H   0  0  0  0  0  0  0  0  0  0  0  0
  125.5210  124.5183   59.8139 H   0  0  0  0  0  0  0  0  0  0  0  0
  128.2120  125.7740   65.9880 H   0  0  0  0  0  0  0  0  0  0  0  0
  128.2011  124.7769   68.4867 H   0  0  0  0  0  0  0  0  0  0  0  0
  128.2900  125.6973   70.8012 H   0  0  0  0  0  0  0  0  0  0  0  0
  129.3966  127.8889   71.2217 H   0  0  0  0  0  0  0  0  0  0  0  0
  130.4215  129.1627   69.3466 H   0  0  0  0  0  0  0  0  0  0  0  0
  130.3351  128.2508   67.0278 H   0  0  0  0  0  0  0  0  0  0  0  0
  131.4170  122.8870   65.2390 H   0  0  0  0  0  0  0  0  0  0  0  0
  131.1340  121.7260   64.0000 H   0  0  0  0  0  0  0  0  0  0  0  0
  1  2  1  0
  2  3  2  0
  3  4  1  0
  4  5  1  0
  5  6  2  0
  6  7  1  0
  7  8  2  0
  8  9  1  0
  9 10  2  0
  4 11  2  0
 11 12  1  0
 12 13  1  0
 13 14  1  0
 14 15  1  0
 15 16  2  0
 15 17  1  0
 17 18  1  0
 18 19  2  0
 19 20  1  0
 20 21  2  0
 21 22  1  0
 22 23  2  0
 14 24  2  0
 24 25  1  0
 24 26  1  0
 26  2  1  0
 10  5  1  0
 26 12  2  0
 23 18  1  0
  1 27  1  0
  1 28  1  0
  1 29  1  0
  3 30  1  0
  6 31  1  0
  7 32  1  0
  8 33  1  0
  9 34  1  0
 10 35  1  0
 17 36  1  0
 19 37  1  0
 20 38  1  0
 21 39  1  0
 22 40  1  0
 23 41  1  0
 25 42  1  0
 25 43  1  0
M  END
>  <Binding energies>  (1) 
[-7.92]

>  <Ligand effiencies>  (1) 
[-0.2731034482758621]

>  <Interactions>  (1) 
["V-B:PRO:540:CB:9857, V-B:MET:535:CE:9807, V-B:PRO:540:N:9856, V-A:LEU:475:CD1:4257, V-B:PRO:540:CA:9855, V-B:PRO:540:C:9853, V-B:ALA:541:CB:9864, V-B:TYR:539:C:9839, V-B:TYR:531:CE2:9765, V-B:LEU:363:CD1:8160, H-A:TYR:484:OH:4347, V-B:PRO:540:CD:9859, V-A:GLU:543:CD:4908, V-A:GLU:543:C:4902, V-B:HIS:456:CE1:9041, V-A:TYR:484:CZ:4346, V-A:HIS:456:CE1:4069, V-B:GLU:543:CB:9878, V-B:GLU:543:CG:9879, V-B:GLU:543:CD:9880, H-B:GLU:543:OE2:9882, V-A:GLU:543:CB:4906, V-A:TYR:484:CE2:4345, V-B:GLU:543:CA:9876, V-B:GLU:543:C:9874"]

$$$$
4dg_Grossjean_2025
     RDKit          3D

 46 49  0  0  0  0  0  0  0  0999 V2000
  132.8600  124.2790   58.7890 C   0  0  0  0  0  0  0  0  0  0  0  0
  131.5180  124.1350   59.4910 C   0  0  0  0  0  0  0  0  0  0  0  0
  130.4030  123.7890   58.7190 C   0  0  0  0  0  0  0  0  0  0  0  0
  129.1400  123.6400   59.3040 C   0  0  0  0  0  0  0  0  0  0  0  0
  127.9260  123.2680   58.5020 C   0  0  0  0  0  0  0  0  0  0  0  0
  126.6690  123.8210   58.7970 C   0  0  0  0  0  0  0  0  0  0  0  0
  125.5390  123.4750   58.0590 C   0  0  0  0  0  0  0  0  0  0  0  0
  125.6500  122.5690   57.0110 C   0  0  0  0  0  0  0  0  0  0  0  0
  126.8820  122.0020   56.6980 C   0  0  0  0  0  0  0  0  0  0  0  0
  128.0080  122.3500   57.4390 C   0  0  0  0  0  0  0  0  0  0  0  0
  128.9450  123.8070   60.6410 N   0  0  0  0  0  0  0  0  0  0  0  0
  130.0050  124.1380   61.3770 C   0  0  0  0  0  0  0  0  0  0  0  0
  129.8920  124.3880   63.1030 S   0  0  0  0  0  0  0  0  0  0  0  0
  131.6150  124.7470   63.2080 C   0  0  0  0  0  0  0  0  0  0  0  0
  132.2120  125.1140   64.4910 C   0  0  0  0  0  0  0  0  0  0  0  0
  133.2520  124.5870   64.8900 O   0  0  0  0  0  0  0  0  0  0  0  0
  131.5340  126.0280   65.2170 N   0  0  0  0  0  0  0  0  0  0  0  0
  131.9520  126.5590   66.5140 C   0  0  0  0  0  0  0  0  0  0  0  0
  130.7990  126.7410   67.4940 C   0  0  0  0  0  0  0  0  0  0  0  0
  129.8990  125.6930   67.7100 C   0  0  0  0  0  0  0  0  0  0  0  0
  128.8640  125.8450   68.6280 C   0  0  0  0  0  0  0  0  0  0  0  0
  128.7370  127.0390   69.3340 C   0  0  0  0  0  0  0  0  0  0  0  0
  129.6390  128.0810   69.1360 C   0  0  0  0  0  0  0  0  0  0  0  0
  130.6760  127.9300   68.2190 C   0  0  0  0  0  0  0  0  0  0  0  0
  132.2260  124.6860   61.9470 C   0  0  0  0  0  0  0  0  0  0  0  0
  133.5580  124.9340   61.7320 N   0  0  0  0  0  0  0  0  0  0  0  0
  131.3270  124.3260   60.8830 C   0  0  0  0  0  0  0  0  0  0  0  0
  133.6593  124.3648   59.5399 H   0  0  0  0  0  0  0  0  0  0  0  0
  133.0414  123.3952   58.1598 H   0  0  0  0  0  0  0  0  0  0  0  0
  132.8497  125.1812   58.1598 H   0  0  0  0  0  0  0  0  0  0  0  0
  130.5209  123.6318   57.6367 H   0  0  0  0  0  0  0  0  0  0  0  0
  126.5751  124.5394   59.6247 H   0  0  0  0  0  0  0  0  0  0  0  0
  124.5624  123.9174   58.3050 H   0  0  0  0  0  0  0  0  0  0  0  0
  124.7590  122.2984   56.4254 H   0  0  0  0  0  0  0  0  0  0  0  0
  126.9655  121.2829   55.8698 H   0  0  0  0  0  0  0  0  0  0  0  0
  128.9796  121.8990   57.1888 H   0  0  0  0  0  0  0  0  0  0  0  0
  130.7330  126.4730   64.7930 H   0  0  0  0  0  0  0  0  0  0  0  0
  132.6798  125.8635   66.9573 H   0  0  0  0  0  0  0  0  0  0  0  0
  132.3845  127.5541   66.3332 H   0  0  0  0  0  0  0  0  0  0  0  0
  130.0088  124.7496   67.1551 H   0  0  0  0  0  0  0  0  0  0  0  0
  128.1493  125.0257   68.7953 H   0  0  0  0  0  0  0  0  0  0  0  0
  127.9155  127.1600   70.0555 H   0  0  0  0  0  0  0  0  0  0  0  0
  129.5330  129.0188   69.7011 H   0  0  0  0  0  0  0  0  0  0  0  0
  131.3979  128.7456   68.0652 H   0  0  0  0  0  0  0  0  0  0  0  0
  134.0240  125.7340   62.1340 H   0  0  0  0  0  0  0  0  0  0  0  0
  134.1210  124.3150   61.1640 H   0  0  0  0  0  0  0  0  0  0  0  0
  1  2  1  0
  2  3  2  0
  3  4  1  0
  4  5  1  0
  5  6  2  0
  6  7  1  0
  7  8  2  0
  8  9  1  0
  9 10  2  0
  4 11  2  0
 11 12  1  0
 12 13  1  0
 13 14  1  0
 14 15  1  0
 15 16  2  0
 15 17  1  0
 17 18  1  0
 18 19  1  0
 19 20  2  0
 20 21  1  0
 21 22  2  0
 22 23  1  0
 23 24  2  0
 14 25  2  0
 25 26  1  0
 25 27  1  0
 27  2  1  0
 10  5  1  0
 27 12  2  0
 24 19  1  0
  1 28  1  0
  1 29  1  0
  1 30  1  0
  3 31  1  0
  6 32  1  0
  7 33  1  0
  8 34  1  0
  9 35  1  0
 10 36  1  0
 17 37  1  0
 18 38  1  0
 18 39  1  0
 20 40  1  0
 21 41  1  0
 22 42  1  0
 23 43  1  0
 24 44  1  0
 26 45  1  0
 26 46  1  0
M  END
>  <Binding energies>  (1) 
[-8.09]

>  <Ligand effiencies>  (1) 
[-0.26966666666666667]

>  <Interactions>  (1) 
["V-B:PRO:540:CB:9857, V-B:MET:535:CE:9807, V-B:TYR:539:CD2:9846, V-B:PRO:540:N:9856, V-B:PRO:540:CA:9855, V-B:TYR:539:CE2:9848, V-B:TYR:539:C:9839, V-B:LEU:363:CD1:8160, V-B:TYR:539:CA:9841, H-A:TYR:484:OH:4347, V-A:ASP:366:CG:3212, H-A:GLY:454:N:4049, V-B:PRO:540:CD:9859, V-A:ASP:366:CA:3209, V-A:ASP:366:CB:3211, V-A:GLU:543:CG:4907, V-A:GLU:543:CD:4908, H-A:ASP:366:OD2:3214, V-B:TYR:539:CZ:9849, V-A:GLU:543:C:4902, V-B:TYR:539:CG:9844, V-B:HIS:456:CE1:9041, V-A:HIS:456:CE1:4069, V-B:GLU:543:CB:9878, V-A:ARG:545:CG:4922, V-A:GLU:543:CB:4906, V-A:TYR:484:CE2:4345, V-B:GLU:543:C:9874, H-A:GLU:543:OE1:4909, H-A:ASP:366:OD1:3213"]

$$$$
4dj_Grossjean_2025
     RDKit          3D

 39 42  0  0  0  0  0  0  0  0999 V2000
  130.3680  120.8030   62.0200 C   0  0  0  0  0  0  0  0  0  0  0  0
  129.4930  122.0170   61.7430 C   0  0  0  0  0  0  0  0  0  0  0  0
  128.7040  122.0110   60.5870 C   0  0  0  0  0  0  0  0  0  0  0  0
  127.8790  123.0980   60.2730 C   0  0  0  0  0  0  0  0  0  0  0  0
  127.0160  123.1170   59.0430 C   0  0  0  0  0  0  0  0  0  0  0  0
  127.3680  122.3740   57.9050 C   0  0  0  0  0  0  0  0  0  0  0  0
  126.5740  122.3870   56.7620 C   0  0  0  0  0  0  0  0  0  0  0  0
  125.4120  123.1510   56.7390 C   0  0  0  0  0  0  0  0  0  0  0  0
  125.0410  123.9000   57.8500 C   0  0  0  0  0  0  0  0  0  0  0  0
  125.8380  123.8830   58.9910 C   0  0  0  0  0  0  0  0  0  0  0  0
  127.7950  124.1920   61.0780 N   0  0  0  0  0  0  0  0  0  0  0  0
  128.5470  124.2000   62.1780 C   0  0  0  0  0  0  0  0  0  0  0  0
  128.5420  125.5450   63.2970 S   0  0  0  0  0  0  0  0  0  0  0  0
  129.7170  124.7420   64.3410 C   0  0  0  0  0  0  0  0  0  0  0  0
  130.1910  125.3970   65.5610 C   0  0  0  0  0  0  0  0  0  0  0  0
  131.3850  125.3600   65.8730 O   0  0  0  0  0  0  0  0  0  0  0  0
  129.2380  126.0180   66.2980 N   0  0  0  0  0  0  0  0  0  0  0  0
  129.4210  126.7050   67.4900 C   0  0  0  0  0  0  0  0  0  0  0  0
  130.3970  127.5300   67.8050 N   0  0  0  0  0  0  0  0  0  0  0  0
  130.2520  128.0060   69.0270 C   0  0  0  0  0  0  0  0  0  0  0  0
  129.1360  127.5670   69.7310 C   0  0  0  0  0  0  0  0  0  0  0  0
  128.2320  126.4700   68.7300 S   0  0  0  0  0  0  0  0  0  0  0  0
  130.0830  123.4910   63.8210 C   0  0  0  0  0  0  0  0  0  0  0  0
  130.9830  122.6480   64.4230 N   0  0  0  0  0  0  0  0  0  0  0  0
  129.4250  123.1560   62.5870 C   0  0  0  0  0  0  0  0  0  0  0  0
  130.4684  120.6636   63.1065 H   0  0  0  0  0  0  0  0  0  0  0  0
  129.9054  119.9088   61.5769 H   0  0  0  0  0  0  0  0  0  0  0  0
  131.3626  120.9591   61.5769 H   0  0  0  0  0  0  0  0  0  0  0  0
  128.7324  121.1401   59.9156 H   0  0  0  0  0  0  0  0  0  0  0  0
  128.2878  121.7708   57.9169 H   0  0  0  0  0  0  0  0  0  0  0  0
  126.8641  121.7958   55.8809 H   0  0  0  0  0  0  0  0  0  0  0  0
  124.7830  123.1627   55.8367 H   0  0  0  0  0  0  0  0  0  0  0  0
  124.1216  124.5034   57.8274 H   0  0  0  0  0  0  0  0  0  0  0  0
  125.5413  124.4788   59.8668 H   0  0  0  0  0  0  0  0  0  0  0  0
  128.2890  125.9790   65.9550 H   0  0  0  0  0  0  0  0  0  0  0  0
  130.9740  128.7111   69.4647 H   0  0  0  0  0  0  0  0  0  0  0  0
  128.8685  127.8655   70.7554 H   0  0  0  0  0  0  0  0  0  0  0  0
  131.1620  121.7190   64.0730 H   0  0  0  0  0  0  0  0  0  0  0  0
  131.5000  122.9340   65.2430 H   0  0  0  0  0  0  0  0  0  0  0  0
  1  2  1  0
  2  3  2  0
  3  4  1  0
  4  5  1  0
  5  6  2  0
  6  7  1  0
  7  8  2  0
  8  9  1  0
  9 10  2  0
  4 11  2  0
 11 12  1  0
 12 13  1  0
 13 14  1  0
 14 15  1  0
 15 16  2  0
 15 17  1  0
 17 18  1  0
 18 19  2  0
 19 20  1  0
 20 21  2  0
 21 22  1  0
 14 23  2  0
 23 24  1  0
 23 25  1  0
 25  2  1  0
 10  5  1  0
 25 12  2  0
 22 18  1  0
  1 26  1  0
  1 27  1  0
  1 28  1  0
  3 29  1  0
  6 30  1  0
  7 31  1  0
  8 32  1  0
  9 33  1  0
 10 34  1  0
 17 35  1  0
 20 36  1  0
 21 37  1  0
 24 38  1  0
 24 39  1  0
M  END
>  <Binding energies>  (1) 
[-7.32]

>  <Ligand effiencies>  (1) 
[-0.26142857142857145]

>  <Interactions>  (1) 
["V-B:PRO:540:CB:9857, V-B:MET:535:CE:9807, V-B:PRO:540:N:9856, V-A:LEU:475:CD1:4257, V-B:PRO:540:CA:9855, V-B:PRO:540:C:9853, V-B:ALA:541:CB:9864, V-B:TYR:539:C:9839, V-B:TYR:531:CE2:9765, V-B:LEU:363:CD1:8160, H-A:TYR:484:OH:4347, V-B:PRO:540:CD:9859, V-A:GLU:543:C:4902, V-B:HIS:456:CE1:9041, V-A:TYR:484:CZ:4346, V-A:HIS:456:CE1:4069, V-B:GLU:543:CB:9878, V-B:GLU:543:CG:9879, V-B:GLU:543:CD:9880, H-B:GLU:543:OE2:9882, V-A:GLU:543:CB:4906, V-A:TYR:484:CE2:4345"]

$$$$
4ea_Grossjean_2025
     RDKit          3D

 52 55  0  0  0  0  0  0  0  0999 V2000
  124.9760  125.6500   58.1190 C   0  0  0  0  0  0  0  0  0  0  0  0
  124.4160  124.2750   57.7400 C   0  0  0  0  0  0  0  0  0  0  0  0
  125.2340  123.6940   56.7340 O   0  0  0  0  0  0  0  0  0  0  0  0
  126.1500  122.7390   57.0390 C   0  0  0  0  0  0  0  0  0  0  0  0
  126.1920  121.6350   56.4850 O   0  0  0  0  0  0  0  0  0  0  0  0
  127.1080  123.1580   58.1170 C   0  0  0  0  0  0  0  0  0  0  0  0
  126.6410  123.2920   59.4310 C   0  0  0  0  0  0  0  0  0  0  0  0
  127.5030  123.6790   60.4520 C   0  0  0  0  0  0  0  0  0  0  0  0
  128.8470  123.9400   60.1840 C   0  0  0  0  0  0  0  0  0  0  0  0
  129.6240  124.3240   61.2940 N   0  0  0  0  0  0  0  0  0  0  0  0
  129.5600  125.4350   62.0690 C   0  0  0  0  0  0  0  0  0  0  0  0
  128.7500  126.3470   61.9080 O   0  0  0  0  0  0  0  0  0  0  0  0
  130.5450  125.4960   63.1530 C   0  0  0  0  0  0  0  0  0  0  0  0
  132.2370  125.0960   62.8470 S   0  0  0  0  0  0  0  0  0  0  0  0
  132.6610  125.4030   64.5150 C   0  0  0  0  0  0  0  0  0  0  0  0
  133.9110  125.2640   64.9620 N   0  0  0  0  0  0  0  0  0  0  0  0
  134.1070  125.5330   66.2760 C   0  0  0  0  0  0  0  0  0  0  0  0
  135.5350  125.3690   66.7620 C   0  0  0  0  0  0  0  0  0  0  0  0
  133.0950  125.9330   67.1450 C   0  0  0  0  0  0  0  0  0  0  0  0
  131.7860  126.0770   66.6730 C   0  0  0  0  0  0  0  0  0  0  0  0
  130.7210  126.5020   67.6090 C   0  0  0  0  0  0  0  0  0  0  0  0
  129.6840  125.6240   67.9390 C   0  0  0  0  0  0  0  0  0  0  0  0
  128.6830  126.0230   68.8210 C   0  0  0  0  0  0  0  0  0  0  0  0
  128.7170  127.3030   69.3700 C   0  0  0  0  0  0  0  0  0  0  0  0
  129.7420  128.1870   69.0440 C   0  0  0  0  0  0  0  0  0  0  0  0
  130.7420  127.7870   68.1620 C   0  0  0  0  0  0  0  0  0  0  0  0
  131.5380  125.8040   65.2990 C   0  0  0  0  0  0  0  0  0  0  0  0
  130.3430  125.8490   64.4970 C   0  0  0  0  0  0  0  0  0  0  0  0
  129.1250  126.2070   65.0170 N   0  0  0  0  0  0  0  0  0  0  0  0
  129.3240  123.8090   58.8700 C   0  0  0  0  0  0  0  0  0  0  0  0
  128.4600  123.4210   57.8490 C   0  0  0  0  0  0  0  0  0  0  0  0
  125.0132  125.7415   59.2146 H   0  0  0  0  0  0  0  0  0  0  0  0
  125.9902  125.7590   57.7073 H   0  0  0  0  0  0  0  0  0  0  0  0
  124.3266  126.4366   57.7073 H   0  0  0  0  0  0  0  0  0  0  0  0
  124.4076  123.6248   58.6272 H   0  0  0  0  0  0  0  0  0  0  0  0
  123.3900  124.3879   57.3599 H   0  0  0  0  0  0  0  0  0  0  0  0
  125.5838  123.0895   59.6573 H   0  0  0  0  0  0  0  0  0  0  0  0
  127.1218  123.7800   61.4789 H   0  0  0  0  0  0  0  0  0  0  0  0
  130.3400  123.6570   61.5420 H   0  0  0  0  0  0  0  0  0  0  0  0
  135.5501  125.3673   67.8619 H   0  0  0  0  0  0  0  0  0  0  0  0
  135.9426  124.4181   66.3882 H   0  0  0  0  0  0  0  0  0  0  0  0
  136.1476  126.2027   66.3882 H   0  0  0  0  0  0  0  0  0  0  0  0
  133.3247  126.1355   68.2015 H   0  0  0  0  0  0  0  0  0  0  0  0
  129.6589  124.6154   67.5007 H   0  0  0  0  0  0  0  0  0  0  0  0
  127.8692  125.3308   69.0830 H   0  0  0  0  0  0  0  0  0  0  0  0
  127.9268  127.6181   70.0674 H   0  0  0  0  0  0  0  0  0  0  0  0
  129.7616  129.1962   69.4811 H   0  0  0  0  0  0  0  0  0  0  0  0
  131.5516  128.4837   67.8989 H   0  0  0  0  0  0  0  0  0  0  0  0
  128.3800  125.5360   65.1410 H   0  0  0  0  0  0  0  0  0  0  0  0
  128.9310  127.1600   65.2960 H   0  0  0  0  0  0  0  0  0  0  0  0
  130.3816  124.0131   58.6467 H   0  0  0  0  0  0  0  0  0  0  0  0
  128.8413  123.3197   56.8222 H   0  0  0  0  0  0  0  0  0  0  0  0
  1  2  1  0
  2  3  1  0
  3  4  1  0
  4  5  2  0
  4  6  1  0
  6  7  2  0
  7  8  1  0
  8  9  2  0
  9 10  1  0
 10 11  1  0
 11 12  2  0
 11 13  1  0
 13 14  1  0
 14 15  1  0
 15 16  2  0
 16 17  1  0
 17 18  1  0
 17 19  2  0
 19 20  1  0
 20 21  1  0
 21 22  2  0
 22 23  1  0
 23 24  2  0
 24 25  1  0
 25 26  2  0
 20 27  2  0
 27 28  1  0
 28 29  1  0
  9 30  1  0
 30 31  2  0
 31  6  1  0
 28 13  2  0
 27 15  1  0
 26 21  1  0
  1 32  1  0
  1 33  1  0
  1 34  1  0
  2 35  1  0
  2 36  1  0
  7 37  1  0
  8 38  1  0
 10 39  1  0
 18 40  1  0
 18 41  1  0
 18 42  1  0
 19 43  1  0
 22 44  1  0
 23 45  1  0
 24 46  1  0
 25 47  1  0
 26 48  1  0
 29 49  1  0
 29 50  1  0
 30 51  1  0
 31 52  1  0
M  END
>  <Binding energies>  (1) 
[-9.08]

>  <Ligand effiencies>  (1) 
[-0.2670588235294118]

>  <Interactions>  (1) 
["V-B:PRO:540:CB:9857, H-B:TYR:531:OH:9767, V-B:MET:535:CE:9807, V-B:PRO:540:N:9856, V-B:PRO:540:CA:9855, H-B:TYR:539:N:9842, V-B:TYR:531:CE2:9765, V-B:TYR:531:CZ:9766, V-B:LEU:363:CD1:8160, H-A:TYR:484:OH:4347, H-A:GLY:454:N:4049, V-B:ASP:366:CG:8184, V-B:ASP:366:CB:8183, V-A:GLU:543:CG:4907, V-A:GLU:543:CD:4908, V-B:LEU:363:CA:8156, H-A:ARG:545:NH2:4928, V-A:GLU:543:C:4902, V-B:HIS:456:CE1:9041, V-A:TYR:484:CZ:4346, V-A:HIS:456:CE1:4069, V-B:GLU:543:CB:9878, V-A:ARG:545:CD:4923, V-A:ILE:455:C:4051, V-B:GLU:543:CG:9879, H-B:GLU:543:OE1:9881, V-B:GLU:543:CD:9880, H-B:GLU:543:OE2:9882, H-A:ARG:545:NE:4924, V-A:ARG:545:CG:4922, V-A:ARG:545:CZ:4926, H-A:ARG:545:NH1:4927, V-A:GLU:543:CB:4906, V-A:TYR:484:CE2:4345, V-B:GLU:543:C:9874, H-A:GLU:543:OE1:4909, V-A:GLY:454:CA:4048, V-A:GLY:453:CA:4043, V-A:GLY:453:C:4041, V-A:GLY:454:C:4046, V-A:ILE:455:CA:4053, V-A:ARG:545:CB:4921"]

$$$$
4eb_Grossjean_2025
     RDKit          3D

 49 52  0  0  0  0  0  0  0  0999 V2000
  124.7290  124.3980   57.4310 C   0  0  0  0  0  0  0  0  0  0  0  0
  125.4620  123.6080   56.5050 O   0  0  0  0  0  0  0  0  0  0  0  0
  126.3380  122.6620   56.9340 C   0  0  0  0  0  0  0  0  0  0  0  0
  126.4930  121.5750   56.3710 O   0  0  0  0  0  0  0  0  0  0  0  0
  127.0980  123.0710   58.1630 C   0  0  0  0  0  0  0  0  0  0  0  0
  128.4530  123.4080   58.0480 C   0  0  0  0  0  0  0  0  0  0  0  0
  129.1850  123.7910   59.1680 C   0  0  0  0  0  0  0  0  0  0  0  0
  128.5800  123.8460   60.4240 C   0  0  0  0  0  0  0  0  0  0  0  0
  129.4170  124.2460   61.4840 N   0  0  0  0  0  0  0  0  0  0  0  0
  129.5240  125.4420   62.1150 C   0  0  0  0  0  0  0  0  0  0  0  0
  128.8540  126.4360   61.8350 O   0  0  0  0  0  0  0  0  0  0  0  0
  130.5170  125.4940   63.1900 C   0  0  0  0  0  0  0  0  0  0  0  0
  132.2140  125.1410   62.8560 S   0  0  0  0  0  0  0  0  0  0  0  0
  132.6500  125.4090   64.5280 C   0  0  0  0  0  0  0  0  0  0  0  0
  133.9070  125.2850   64.9580 N   0  0  0  0  0  0  0  0  0  0  0  0
  134.1110  125.5190   66.2760 C   0  0  0  0  0  0  0  0  0  0  0  0
  135.5490  125.3730   66.7430 C   0  0  0  0  0  0  0  0  0  0  0  0
  133.1000  125.8710   67.1670 C   0  0  0  0  0  0  0  0  0  0  0  0
  131.7830  126.0000   66.7120 C   0  0  0  0  0  0  0  0  0  0  0  0
  130.7180  126.3740   67.6710 C   0  0  0  0  0  0  0  0  0  0  0  0
  129.7840  125.4230   68.0900 C   0  0  0  0  0  0  0  0  0  0  0  0
  128.7830  125.7740   68.9940 C   0  0  0  0  0  0  0  0  0  0  0  0
  128.7170  127.0790   69.4760 C   0  0  0  0  0  0  0  0  0  0  0  0
  129.6420  128.0350   69.0620 C   0  0  0  0  0  0  0  0  0  0  0  0
  130.6410  127.6830   68.1590 C   0  0  0  0  0  0  0  0  0  0  0  0
  131.5260  125.7620   65.3340 C   0  0  0  0  0  0  0  0  0  0  0  0
  130.3230  125.8030   64.5460 C   0  0  0  0  0  0  0  0  0  0  0  0
  129.1030  126.1190   65.0880 N   0  0  0  0  0  0  0  0  0  0  0  0
  127.2230  123.5100   60.5500 C   0  0  0  0  0  0  0  0  0  0  0  0
  126.4930  123.1270   59.4280 C   0  0  0  0  0  0  0  0  0  0  0  0
  124.9996  124.1064   58.4566 H   0  0  0  0  0  0  0  0  0  0  0  0
  124.9684  125.4605   57.2767 H   0  0  0  0  0  0  0  0  0  0  0  0
  123.6516  124.2387   57.2767 H   0  0  0  0  0  0  0  0  0  0  0  0
  128.9427  123.3695   57.0637 H   0  0  0  0  0  0  0  0  0  0  0  0
  130.2483  124.0523   59.0622 H   0  0  0  0  0  0  0  0  0  0  0  0
  130.0300  123.5190   61.8190 H   0  0  0  0  0  0  0  0  0  0  0  0
  135.5789  125.3700   67.8426 H   0  0  0  0  0  0  0  0  0  0  0  0
  135.9640  124.4281   66.3623 H   0  0  0  0  0  0  0  0  0  0  0  0
  136.1455  126.2152   66.3623 H   0  0  0  0  0  0  0  0  0  0  0  0
  133.3364  126.0473   68.2267 H   0  0  0  0  0  0  0  0  0  0  0  0
  129.8389  124.3940   67.7051 H   0  0  0  0  0  0  0  0  0  0  0  0
  128.0491  125.0244   69.3250 H   0  0  0  0  0  0  0  0  0  0  0  0
  127.9277  127.3573   70.1898 H   0  0  0  0  0  0  0  0  0  0  0  0
  129.5831  129.0637   69.4471 H   0  0  0  0  0  0  0  0  0  0  0  0
  131.3717  128.4358   67.8282 H   0  0  0  0  0  0  0  0  0  0  0  0
  128.7870  125.7130   65.9570 H   0  0  0  0  0  0  0  0  0  0  0  0
  128.4770  126.7700   64.6340 H   0  0  0  0  0  0  0  0  0  0  0  0
  126.7361  123.5493   61.5356 H   0  0  0  0  0  0  0  0  0  0  0  0
  125.4299  122.8653   59.5343 H   0  0  0  0  0  0  0  0  0  0  0  0
  1  2  1  0
  2  3  1  0
  3  4  2  0
  3  5  1  0
  5  6  2  0
  6  7  1  0
  7  8  2  0
  8  9  1  0
  9 10  1  0
 10 11  2  0
 10 12  1  0
 12 13  1  0
 13 14  1  0
 14 15  2  0
 15 16  1  0
 16 17  1  0
 16 18  2  0
 18 19  1  0
 19 20  1  0
 20 21  2  0
 21 22  1  0
 22 23  2  0
 23 24  1  0
 24 25  2  0
 19 26  2  0
 26 27  1  0
 27 28  1  0
  8 29  1  0
 29 30  2  0
 30  5  1  0
 27 12  2  0
 26 14  1  0
 25 20  1  0
  1 31  1  0
  1 32  1  0
  1 33  1  0
  6 34  1  0
  7 35  1  0
  9 36  1  0
 17 37  1  0
 17 38  1  0
 17 39  1  0
 18 40  1  0
 21 41  1  0
 22 42  1  0
 23 43  1  0
 24 44  1  0
 25 45  1  0
 28 46  1  0
 28 47  1  0
 29 48  1  0
 30 49  1  0
M  END
>  <Binding energies>  (1) 
[-8.76]

>  <Ligand effiencies>  (1) 
[-0.26545454545454544]

>  <Interactions>  (1) 
["V-B:PRO:540:CB:9857, H-B:TYR:531:OH:9767, V-B:MET:535:CE:9807, V-B:PRO:540:N:9856, V-B:PRO:540:CA:9855, H-B:TYR:539:N:9842, V-B:TYR:531:CE2:9765, V-B:TYR:531:CZ:9766, V-B:LEU:363:CD1:8160, H-A:TYR:484:OH:4347, H-A:GLY:454:N:4049, V-A:GLU:543:CD:4908, H-A:ARG:545:NH2:4928, V-A:GLU:543:C:4902, V-B:HIS:456:CE1:9041, V-A:TYR:484:CZ:4346, V-A:HIS:456:CE1:4069, V-B:GLU:543:CB:9878, V-A:ARG:545:CD:4923, V-A:ILE:455:C:4051, V-B:GLU:543:CG:9879, V-B:GLU:543:CD:9880, H-B:GLU:543:OE2:9882, H-A:ARG:545:NE:4924, V-A:ARG:545:CG:4922, V-A:ARG:545:CZ:4926, H-A:ARG:545:NH1:4927, V-A:GLU:543:CB:4906, V-A:TYR:484:CE2:4345, V-B:GLU:543:CA:9876, V-B:GLU:543:C:9874, H-A:GLU:543:OE1:4909, V-A:GLY:454:CA:4048, V-A:GLY:453:CA:4043, V-A:GLY:453:C:4041, V-A:GLY:454:C:4046, V-A:ILE:455:CA:4053, V-A:ARG:545:CB:4921"]

$$$$
8a_Ghoteimi_2023
     RDKit          3D

 67 71  0  0  0  0  0  0  0  0999 V2000
  130.6400  117.4220   60.0340 C   0  0  0  0  0  0  0  0  0  0  0  0
  131.7810  117.8880   60.9430 C   0  0  0  0  0  0  0  0  0  0  0  0
  132.6880  118.6850   60.1930 O   0  0  0  0  0  0  0  0  0  0  0  0
  133.5490  119.5370   60.8100 C   0  0  0  0  0  0  0  0  0  0  0  0
  134.7760  119.4680   60.6910 O   0  0  0  0  0  0  0  0  0  0  0  0
  132.8590  120.5670   61.6560 C   0  0  0  0  0  0  0  0  0  0  0  0
  133.6200  121.3590   62.5250 C   0  0  0  0  0  0  0  0  0  0  0  0
  133.0090  122.3220   63.3240 C   0  0  0  0  0  0  0  0  0  0  0  0
  131.6280  122.5130   63.2730 C   0  0  0  0  0  0  0  0  0  0  0  0
  131.1210  123.5110   64.1290 N   0  0  0  0  0  0  0  0  0  0  0  0
  130.7190  124.7780   63.8570 C   0  0  0  0  0  0  0  0  0  0  0  0
  130.7400  125.2870   62.7370 O   0  0  0  0  0  0  0  0  0  0  0  0
  130.2320  125.5390   65.0110 C   0  0  0  0  0  0  0  0  0  0  0  0
  130.9980  125.3540   66.5890 S   0  0  0  0  0  0  0  0  0  0  0  0
  129.8910  126.4970   67.3130 C   0  0  0  0  0  0  0  0  0  0  0  0
  129.9440  126.7980   68.6100 N   0  0  0  0  0  0  0  0  0  0  0  0
  129.0340  127.6950   69.0730 C   0  0  0  0  0  0  0  0  0  0  0  0
  129.0990  128.0020   70.5350 C   0  0  0  0  0  0  0  0  0  0  0  0
  128.7710  129.2750   71.0230 C   0  0  0  0  0  0  0  0  0  0  0  0
  128.8450  129.5580   72.3840 C   0  0  0  0  0  0  0  0  0  0  0  0
  129.2450  128.5780   73.2900 C   0  0  0  0  0  0  0  0  0  0  0  0
  129.2910  128.9500   74.6210 O   0  0  0  0  0  0  0  0  0  0  0  0
  128.1400  128.7530   75.4350 C   0  0  0  0  0  0  0  0  0  0  0  0
  129.5690  127.3000   72.8140 C   0  0  0  0  0  0  0  0  0  0  0  0
  129.4970  127.0200   71.4520 C   0  0  0  0  0  0  0  0  0  0  0  0
  128.0830  128.2900   68.2420 C   0  0  0  0  0  0  0  0  0  0  0  0
  128.0340  127.9900   66.8760 C   0  0  0  0  0  0  0  0  0  0  0  0
  127.0240  128.6760   66.0300 C   0  0  0  0  0  0  0  0  0  0  0  0
  125.6620  128.5270   66.3020 C   0  0  0  0  0  0  0  0  0  0  0  0
  124.7130  129.1840   65.5240 C   0  0  0  0  0  0  0  0  0  0  0  0
  125.1070  130.0060   64.4680 C   0  0  0  0  0  0  0  0  0  0  0  0
  124.0970  130.6180   63.7520 O   0  0  0  0  0  0  0  0  0  0  0  0
  124.0730  130.4890   62.3350 C   0  0  0  0  0  0  0  0  0  0  0  0
  126.4760  130.1630   64.1980 C   0  0  0  0  0  0  0  0  0  0  0  0
  127.4230  129.5050   64.9790 C   0  0  0  0  0  0  0  0  0  0  0  0
  128.9640  127.0360   66.3730 C   0  0  0  0  0  0  0  0  0  0  0  0
  129.1700  126.4570   65.0690 C   0  0  0  0  0  0  0  0  0  0  0  0
  128.3810  126.7690   63.9900 N   0  0  0  0  0  0  0  0  0  0  0  0
  130.8580  121.7280   62.4020 C   0  0  0  0  0  0  0  0  0  0  0  0
  131.4700  120.7650   61.6040 C   0  0  0  0  0  0  0  0  0  0  0  0
  129.7969  117.0777   60.6510 H   0  0  0  0  0  0  0  0  0  0  0  0
  130.3122  118.2583   59.3990 H   0  0  0  0  0  0  0  0  0  0  0  0
  130.9913  116.5953   59.3990 H   0  0  0  0  0  0  0  0  0  0  0  0
  131.3699  118.4822   61.7724 H   0  0  0  0  0  0  0  0  0  0  0  0
  132.3096  117.0119   61.3468 H   0  0  0  0  0  0  0  0  0  0  0  0
  134.7098  121.2191   62.5768 H   0  0  0  0  0  0  0  0  0  0  0  0
  133.6202  122.9371   64.0008 H   0  0  0  0  0  0  0  0  0  0  0  0
  131.0390  123.2230   65.0920 H   0  0  0  0  0  0  0  0  0  0  0  0
  128.4512  130.0598   70.3216 H   0  0  0  0  0  0  0  0  0  0  0  0
  128.5856  130.5634   72.7471 H   0  0  0  0  0  0  0  0  0  0  0  0
  128.4281  128.8023   76.4955 H   0  0  0  0  0  0  0  0  0  0  0  0
  127.3997  129.5375   75.2193 H   0  0  0  0  0  0  0  0  0  0  0  0
  127.7028  127.7670   75.2193 H   0  0  0  0  0  0  0  0  0  0  0  0
  129.8813  126.5155   73.5190 H   0  0  0  0  0  0  0  0  0  0  0  0
  129.7562  126.0139   71.0908 H   0  0  0  0  0  0  0  0  0  0  0  0
  127.3624  129.0044   68.6667 H   0  0  0  0  0  0  0  0  0  0  0  0
  125.3376  127.8869   67.1357 H   0  0  0  0  0  0  0  0  0  0  0  0
  123.6431  129.0539   65.7438 H   0  0  0  0  0  0  0  0  0  0  0  0
  123.8779  129.4405   62.0655 H   0  0  0  0  0  0  0  0  0  0  0  0
  123.2783  131.1277   61.9221 H   0  0  0  0  0  0  0  0  0  0  0  0
  125.0443  130.7991   61.9221 H   0  0  0  0  0  0  0  0  0  0  0  0
  126.8012  130.8071   63.3678 H   0  0  0  0  0  0  0  0  0  0  0  0
  128.4939  129.6392   64.7664 H   0  0  0  0  0  0  0  0  0  0  0  0
  128.7410  126.7300   63.0470 H   0  0  0  0  0  0  0  0  0  0  0  0
  127.4150  127.0420   64.1000 H   0  0  0  0  0  0  0  0  0  0  0  0
  129.7689  121.8735   62.3493 H   0  0  0  0  0  0  0  0  0  0  0  0
  130.8584  120.1525   60.9252 H   0  0  0  0  0  0  0  0  0  0  0  0
  1  2  1  0
  2  3  1  0
  3  4  1  0
  4  5  2  0
  4  6  1  0
  6  7  2  0
  7  8  1  0
  8  9  2  0
  9 10  1  0
 10 11  1  0
 11 12  2  0
 11 13  1  0
 13 14  1  0
 14 15  1  0
 15 16  2  0
 16 17  1  0
 17 18  1  0
 18 19  2  0
 19 20  1  0
 20 21  2  0
 21 22  1  0
 22 23  1  0
 21 24  1  0
 24 25  2  0
 17 26  2  0
 26 27  1  0
 27 28  1  0
 28 29  2  0
 29 30  1  0
 30 31  2  0
 31 32  1  0
 32 33  1  0
 31 34  1  0
 34 35  2  0
 27 36  2  0
 36 37  1  0
 37 38  1  0
  9 39  1  0
 39 40  2  0
 40  6  1  0
 37 13  2  0
 36 15  1  0
 25 18  1  0
 35 28  1  0
  1 41  1  0
  1 42  1  0
  1 43  1  0
  2 44  1  0
  2 45  1  0
  7 46  1  0
  8 47  1  0
 10 48  1  0
 19 49  1  0
 20 50  1  0
 23 51  1  0
 23 52  1  0
 23 53  1  0
 24 54  1  0
 25 55  1  0
 26 56  1  0
 29 57  1  0
 30 58  1  0
 33 59  1  0
 33 60  1  0
 33 61  1  0
 34 62  1  0
 35 63  1  0
 38 64  1  0
 38 65  1  0
 39 66  1  0
 40 67  1  0
M  END
>  <Binding energies>  (1) 
[-8.63]

>  <Ligand effiencies>  (1) 
[-0.20069767441860467]

>  <Interactions>  (1) 
["V-A:ILE:369:CG2:3236, V-B:TYR:539:CD2:9846, V-A:LEU:475:CD1:4257, H-A:SER:385:OG:3409, H-A:HIS:383:NE2:3393, V-B:ALA:541:CB:9864, V-B:TYR:539:C:9839, V-A:PRO:482:CG:4326, H-A:TYR:484:OH:4347, V-B:ASP:366:CG:8184, H-B:GLY:454:N:9021, V-B:ARG:545:CZ:9898, V-B:ILE:369:CD1:8210, V-A:GLU:543:CG:4907, V-A:GLU:543:CD:4908, V-A:SER:385:CA:3406, V-A:GLU:543:C:4902, V-B:HIS:456:CE1:9041, V-A:TYR:484:CZ:4346, V-A:HIS:456:CE1:4069, H-B:GLU:543:OE1:9881, V-B:GLU:543:CD:9880, H-B:GLU:543:OE2:9882, V-A:TYR:484:CE2:4345, V-B:ARG:545:CG:9894, H-A:GLU:543:OE1:4909, V-A:GLY:454:CA:4048, V-B:TYR:539:CB:9843, V-A:HIS:383:CE1:3392, V-B:HIS:456:CD2:9039, H-A:LYS:547:NZ:4951, V-B:ARG:545:CD:9895"]

$$$$
8b_Ghoteimi_2023
     RDKit          3D

 54 58  0  0  0  0  0  0  0  0999 V2000
  130.0980  128.0100   69.5280 C   0  0  0  0  0  0  0  0  0  0  0  0
  131.1630  127.7030   68.6340 O   0  0  0  0  0  0  0  0  0  0  0  0
  130.8980  126.9600   67.5000 C   0  0  0  0  0  0  0  0  0  0  0  0
  129.5550  126.7510   67.1910 C   0  0  0  0  0  0  0  0  0  0  0  0
  129.1930  126.0140   66.0690 C   0  0  0  0  0  0  0  0  0  0  0  0
  130.1680  125.4630   65.2230 C   0  0  0  0  0  0  0  0  0  0  0  0
  129.7840  124.6680   64.0160 C   0  0  0  0  0  0  0  0  0  0  0  0
  130.5460  123.5790   63.5790 C   0  0  0  0  0  0  0  0  0  0  0  0
  130.1660  122.8510   62.4470 C   0  0  0  0  0  0  0  0  0  0  0  0
  131.0000  121.7100   62.0050 C   0  0  0  0  0  0  0  0  0  0  0  0
  130.4590  120.4240   61.9490 C   0  0  0  0  0  0  0  0  0  0  0  0
  131.2410  119.3540   61.5240 C   0  0  0  0  0  0  0  0  0  0  0  0
  132.5720  119.5510   61.1520 C   0  0  0  0  0  0  0  0  0  0  0  0
  133.2710  118.4320   60.7420 O   0  0  0  0  0  0  0  0  0  0  0  0
  134.3620  118.5860   59.8400 C   0  0  0  0  0  0  0  0  0  0  0  0
  133.1140  120.8440   61.2140 C   0  0  0  0  0  0  0  0  0  0  0  0
  132.3310  121.9140   61.6380 C   0  0  0  0  0  0  0  0  0  0  0  0
  128.9840  123.2460   61.7650 C   0  0  0  0  0  0  0  0  0  0  0  0
  128.3120  122.7320   60.5990 C   0  0  0  0  0  0  0  0  0  0  0  0
  128.7810  121.6510   59.8980 N   0  0  0  0  0  0  0  0  0  0  0  0
  127.1460  123.4360   60.2600 C   0  0  0  0  0  0  0  0  0  0  0  0
  126.2230  123.1890   59.1500 C   0  0  0  0  0  0  0  0  0  0  0  0
  125.0110  123.3770   59.2850 O   0  0  0  0  0  0  0  0  0  0  0  0
  126.7980  122.7480   58.0020 N   0  0  0  0  0  0  0  0  0  0  0  0
  126.1660  122.4410   56.8040 C   0  0  0  0  0  0  0  0  0  0  0  0
  125.4570  123.3790   56.0560 C   0  0  0  0  0  0  0  0  0  0  0  0
  124.9900  122.6850   54.9620 C   0  0  0  0  0  0  0  0  0  0  0  0
  125.4010  121.3980   55.0460 O   0  0  0  0  0  0  0  0  0  0  0  0
  126.1470  121.2550   56.2170 N   0  0  0  0  0  0  0  0  0  0  0  0
  126.8500  124.7610   61.3870 S   0  0  0  0  0  0  0  0  0  0  0  0
  128.2860  124.3650   62.3020 C   0  0  0  0  0  0  0  0  0  0  0  0
  128.6490  125.0610   63.3790 N   0  0  0  0  0  0  0  0  0  0  0  0
  131.5160  125.6790   65.5380 C   0  0  0  0  0  0  0  0  0  0  0  0
  131.8820  126.4160   66.6610 C   0  0  0  0  0  0  0  0  0  0  0  0
  130.4494  127.9087   70.5654 H   0  0  0  0  0  0  0  0  0  0  0  0
  129.7597  129.0422   69.3546 H   0  0  0  0  0  0  0  0  0  0  0  0
  129.2622  127.3162   69.3546 H   0  0  0  0  0  0  0  0  0  0  0  0
  128.7743  127.1731   67.8409 H   0  0  0  0  0  0  0  0  0  0  0  0
  128.1278  125.8606   65.8412 H   0  0  0  0  0  0  0  0  0  0  0  0
  131.4531  123.2926   64.1314 H   0  0  0  0  0  0  0  0  0  0  0  0
  129.4120  120.2561   62.2416 H   0  0  0  0  0  0  0  0  0  0  0  0
  130.8065  118.3444   61.4809 H   0  0  0  0  0  0  0  0  0  0  0  0
  135.2934  118.7175   60.4102 H   0  0  0  0  0  0  0  0  0  0  0  0
  134.4432  117.6904   59.2065 H   0  0  0  0  0  0  0  0  0  0  0  0
  134.1922  119.4691   59.2065 H   0  0  0  0  0  0  0  0  0  0  0  0
  134.1622  121.0127   60.9263 H   0  0  0  0  0  0  0  0  0  0  0  0
  132.7631  122.9245   61.6840 H   0  0  0  0  0  0  0  0  0  0  0  0
  129.1790  121.7560   58.9750 H   0  0  0  0  0  0  0  0  0  0  0  0
  128.7440  120.7150   60.2770 H   0  0  0  0  0  0  0  0  0  0  0  0
  127.8000  122.6300   58.0080 H   0  0  0  0  0  0  0  0  0  0  0  0
  125.3036  124.4431   56.2889 H   0  0  0  0  0  0  0  0  0  0  0  0
  124.3807  123.1086   54.1501 H   0  0  0  0  0  0  0  0  0  0  0  0
  132.2977  125.2596   64.8876 H   0  0  0  0  0  0  0  0  0  0  0  0
  132.9462  126.5723   66.8912 H   0  0  0  0  0  0  0  0  0  0  0  0
  1  2  1  0
  2  3  1  0
  3  4  2  0
  4  5  1  0
  5  6  2  0
  6  7  1  0
  7  8  2  0
  8  9  1  0
  9 10  1  0
 10 11  2  0
 11 12  1  0
 12 13  2  0
 13 14  1  0
 14 15  1  0
 13 16  1  0
 16 17  2  0
  9 18  2  0
 18 19  1  0
 19 20  1  0
 19 21  2  0
 21 22  1  0
 22 23  2  0
 22 24  1  0
 24 25  1  0
 25 26  1  0
 26 27  2  0
 27 28  1  0
 28 29  1  0
 21 30  1  0
 30 31  1  0
 31 32  2  0
  6 33  1  0
 33 34  2  0
 34  3  1  0
 32  7  1  0
 17 10  1  0
 31 18  1  0
 29 25  2  0
  1 35  1  0
  1 36  1  0
  1 37  1  0
  4 38  1  0
  5 39  1  0
  8 40  1  0
 11 41  1  0
 12 42  1  0
 15 43  1  0
 15 44  1  0
 15 45  1  0
 16 46  1  0
 17 47  1  0
 20 48  1  0
 20 49  1  0
 24 50  1  0
 26 51  1  0
 27 52  1  0
 33 53  1  0
 34 54  1  0
M  END
>  <Binding energies>  (1) 
[-9.12]

>  <Ligand effiencies>  (1) 
[-0.24648648648648647]

>  <Interactions>  (1) 
["V-B:PRO:540:CB:9857, V-B:MET:535:CE:9807, V-A:ILE:369:CG2:3236, V-B:TYR:539:CD2:9846, V-B:PRO:540:N:9856, V-A:LEU:475:CD1:4257, V-B:PRO:540:CA:9855, V-B:PRO:540:C:9853, H-A:SER:385:OG:3409, H-A:HIS:383:NE2:3393, H-B:TYR:539:N:9842, V-B:ALA:541:CB:9864, V-B:MET:535:CG:9805, V-B:TYR:539:C:9839, V-B:TYR:531:CE2:9765, V-B:TYR:531:CZ:9766, V-B:LEU:363:CD1:8160, V-B:PRO:540:CD:9859, V-A:GLU:543:CD:4908, V-A:SER:385:CA:3406, H-B:TYR:539:O:9840, V-A:SER:385:C:3404, V-A:SER:385:CB:3408, V-A:GLU:543:C:4902, V-A:HIS:456:CE1:4069, V-B:GLU:543:CB:9878, V-B:GLU:543:CG:9879, V-B:GLU:543:CD:9880, V-A:ARG:545:CG:4922, V-A:GLU:543:CB:4906, V-B:ILE:538:CG1:9836, V-A:HIS:383:CD2:3391, V-B:MET:535:CB:9804, H-A:HIS:456:ND1:4066"]

$$$$
8c_Ghoteimi_2023
     RDKit          3D

 54 58  0  0  0  0  0  0  0  0999 V2000
  130.6140  116.5000   59.9560 C   0  0  0  0  0  0  0  0  0  0  0  0
  131.5870  117.1320   60.7800 O   0  0  0  0  0  0  0  0  0  0  0  0
  131.5370  118.5030   60.9500 C   0  0  0  0  0  0  0  0  0  0  0  0
  130.3030  119.0430   61.3050 C   0  0  0  0  0  0  0  0  0  0  0  0
  130.1590  120.4150   61.4940 C   0  0  0  0  0  0  0  0  0  0  0  0
  131.2480  121.2830   61.3330 C   0  0  0  0  0  0  0  0  0  0  0  0
  131.0990  122.7580   61.5310 C   0  0  0  0  0  0  0  0  0  0  0  0
  131.1270  123.3380   62.8030 C   0  0  0  0  0  0  0  0  0  0  0  0
  130.9870  124.7210   62.9600 C   0  0  0  0  0  0  0  0  0  0  0  0
  131.0120  125.3020   64.3220 C   0  0  0  0  0  0  0  0  0  0  0  0
  129.8200  125.5070   65.0220 C   0  0  0  0  0  0  0  0  0  0  0  0
  129.8460  126.0440   66.3050 C   0  0  0  0  0  0  0  0  0  0  0  0
  131.0580  126.3870   66.9070 C   0  0  0  0  0  0  0  0  0  0  0  0
  130.9870  126.9110   68.1830 O   0  0  0  0  0  0  0  0  0  0  0  0
  129.8490  127.6800   68.5560 C   0  0  0  0  0  0  0  0  0  0  0  0
  132.2540  126.1840   66.2010 C   0  0  0  0  0  0  0  0  0  0  0  0
  132.2280  125.6450   64.9170 C   0  0  0  0  0  0  0  0  0  0  0  0
  130.8240  125.5130   61.7930 C   0  0  0  0  0  0  0  0  0  0  0  0
  130.6600  126.9280   61.5890 C   0  0  0  0  0  0  0  0  0  0  0  0
  130.6370  127.8230   62.6300 N   0  0  0  0  0  0  0  0  0  0  0  0
  130.5300  127.2980   60.2410 C   0  0  0  0  0  0  0  0  0  0  0  0
  130.3540  128.6370   59.6750 C   0  0  0  0  0  0  0  0  0  0  0  0
  129.4260  129.3600   60.0440 O   0  0  0  0  0  0  0  0  0  0  0  0
  131.2670  128.9970   58.7400 N   0  0  0  0  0  0  0  0  0  0  0  0
  131.3290  130.2030   58.0560 C   0  0  0  0  0  0  0  0  0  0  0  0
  130.3570  131.0660   57.8500 N   0  0  0  0  0  0  0  0  0  0  0  0
  130.7740  132.1090   57.1600 C   0  0  0  0  0  0  0  0  0  0  0  0
  132.1140  132.1060   56.7880 C   0  0  0  0  0  0  0  0  0  0  0  0
  132.8610  130.6510   57.3790 S   0  0  0  0  0  0  0  0  0  0  0  0
  130.6110  125.8870   59.1830 S   0  0  0  0  0  0  0  0  0  0  0  0
  130.8170  124.8160   60.5500 C   0  0  0  0  0  0  0  0  0  0  0  0
  130.9470  123.4980   60.3990 N   0  0  0  0  0  0  0  0  0  0  0  0
  132.4870  120.7320   60.9780 C   0  0  0  0  0  0  0  0  0  0  0  0
  132.6340  119.3610   60.7870 C   0  0  0  0  0  0  0  0  0  0  0  0
  129.8597  116.0101   60.5892 H   0  0  0  0  0  0  0  0  0  0  0  0
  130.1259  117.2539   59.3209 H   0  0  0  0  0  0  0  0  0  0  0  0
  131.1043  115.7475   59.3209 H   0  0  0  0  0  0  0  0  0  0  0  0
  129.4352  118.3801   61.4371 H   0  0  0  0  0  0  0  0  0  0  0  0
  129.1767  120.8236   61.7736 H   0  0  0  0  0  0  0  0  0  0  0  0
  131.2605  122.7003   63.6893 H   0  0  0  0  0  0  0  0  0  0  0  0
  128.8586  125.2430   64.5572 H   0  0  0  0  0  0  0  0  0  0  0  0
  128.9033  126.1997   66.8500 H   0  0  0  0  0  0  0  0  0  0  0  0
  129.7810  127.7259   69.6529 H   0  0  0  0  0  0  0  0  0  0  0  0
  129.9461  128.6984   68.1517 H   0  0  0  0  0  0  0  0  0  0  0  0
  128.9403  127.2100   68.1517 H   0  0  0  0  0  0  0  0  0  0  0  0
  133.2155  126.4516   66.6635 H   0  0  0  0  0  0  0  0  0  0  0  0
  133.1691  125.4888   64.3693 H   0  0  0  0  0  0  0  0  0  0  0  0
  131.0140  128.7550   62.5310 H   0  0  0  0  0  0  0  0  0  0  0  0
  130.2460  127.5810   63.5280 H   0  0  0  0  0  0  0  0  0  0  0  0
  131.9870  128.3270   58.5140 H   0  0  0  0  0  0  0  0  0  0  0  0
  130.0994  132.9359   56.8933 H   0  0  0  0  0  0  0  0  0  0  0  0
  132.6195  132.8959   56.2131 H   0  0  0  0  0  0  0  0  0  0  0  0
  133.3565  121.3931   60.8483 H   0  0  0  0  0  0  0  0  0  0  0  0
  133.6148  118.9490   60.5071 H   0  0  0  0  0  0  0  0  0  0  0  0
  1  2  1  0
  2  3  1  0
  3  4  2  0
  4  5  1  0
  5  6  2  0
  6  7  1  0
  7  8  2  0
  8  9  1  0
  9 10  1  0
 10 11  2  0
 11 12  1  0
 12 13  2  0
 13 14  1  0
 14 15  1  0
 13 16  1  0
 16 17  2  0
  9 18  2  0
 18 19  1  0
 19 20  1  0
 19 21  2  0
 21 22  1  0
 22 23  2  0
 22 24  1  0
 24 25  1  0
 25 26  2  0
 26 27  1  0
 27 28  2  0
 28 29  1  0
 21 30  1  0
 30 31  1  0
 31 32  2  0
  6 33  1  0
 33 34  2  0
 34  3  1  0
 32  7  1  0
 17 10  1  0
 31 18  1  0
 29 25  1  0
  1 35  1  0
  1 36  1  0
  1 37  1  0
  4 38  1  0
  5 39  1  0
  8 40  1  0
 11 41  1  0
 12 42  1  0
 15 43  1  0
 15 44  1  0
 15 45  1  0
 16 46  1  0
 17 47  1  0
 20 48  1  0
 20 49  1  0
 24 50  1  0
 27 51  1  0
 28 52  1  0
 33 53  1  0
 34 54  1  0
M  END
>  <Binding energies>  (1) 
[-7.92]

>  <Ligand effiencies>  (1) 
[-0.21405405405405406]

>  <Interactions>  (1) 
["V-A:LEU:475:CD1:4257, H-A:SER:385:OG:3409, H-A:HIS:383:NE2:3393, V-B:ALA:541:CB:9864, V-A:PRO:482:CG:4326, V-A:ASP:366:CG:3212, V-A:PRO:540:N:4884, V-A:ASP:366:CB:3211, V-A:PRO:540:CA:4883, V-A:PRO:540:CB:4885, V-A:PRO:540:CD:4887, V-A:TYR:539:C:4867, V-A:LEU:363:CD1:3188, V-A:GLU:543:CD:4908, H-A:ASP:366:OD2:3214, V-A:HIS:456:CE1:4069, V-B:GLU:543:CG:9879, V-B:GLU:543:CD:9880, V-A:ARG:545:CG:4922, V-A:ARG:545:CZ:4926, V-A:GLU:543:CB:4906, V-A:PRO:540:CG:4886, H-A:GLU:543:OE1:4909, H-A:GLU:543:OE2:4910, V-B:TYR:539:CB:9843, V-A:HIS:383:CE1:3392, V-B:VAL:344:CG1:7972"]

$$$$
8d_Ghoteimi_2023
     RDKit          3D

 50 53  0  0  0  0  0  0  0  0999 V2000
  132.1900  131.5860   61.4750 C   0  0  0  0  0  0  0  0  0  0  0  0
  130.7810  131.4150   61.5390 O   0  0  0  0  0  0  0  0  0  0  0  0
  130.0570  131.1820   60.4130 C   0  0  0  0  0  0  0  0  0  0  0  0
  129.6450  132.0690   59.6620 O   0  0  0  0  0  0  0  0  0  0  0  0
  129.8080  129.7430   60.1760 C   0  0  0  0  0  0  0  0  0  0  0  0
  128.6520  129.2420   58.9410 S   0  0  0  0  0  0  0  0  0  0  0  0
  128.9450  127.5550   59.2960 C   0  0  0  0  0  0  0  0  0  0  0  0
  128.3160  126.5780   58.6420 N   0  0  0  0  0  0  0  0  0  0  0  0
  128.6180  125.3010   58.9960 C   0  0  0  0  0  0  0  0  0  0  0  0
  127.8960  124.2250   58.2490 C   0  0  0  0  0  0  0  0  0  0  0  0
  126.5540  124.3800   57.8710 C   0  0  0  0  0  0  0  0  0  0  0  0
  125.8860  123.3760   57.1770 C   0  0  0  0  0  0  0  0  0  0  0  0
  126.5390  122.1900   56.8430 C   0  0  0  0  0  0  0  0  0  0  0  0
  125.7990  121.2500   56.1530 O   0  0  0  0  0  0  0  0  0  0  0  0
  125.0150  121.6640   55.0390 C   0  0  0  0  0  0  0  0  0  0  0  0
  127.8820  122.0250   57.2130 C   0  0  0  0  0  0  0  0  0  0  0  0
  128.5470  123.0330   57.9070 C   0  0  0  0  0  0  0  0  0  0  0  0
  129.5400  125.0040   60.0050 C   0  0  0  0  0  0  0  0  0  0  0  0
  130.2010  126.0280   60.6890 C   0  0  0  0  0  0  0  0  0  0  0  0
  131.1780  125.6820   61.7470 C   0  0  0  0  0  0  0  0  0  0  0  0
  130.9100  125.9970   63.0810 C   0  0  0  0  0  0  0  0  0  0  0  0
  131.8320  125.6790   64.0750 C   0  0  0  0  0  0  0  0  0  0  0  0
  133.0300  125.0410   63.7520 C   0  0  0  0  0  0  0  0  0  0  0  0
  133.8850  124.7660   64.8020 O   0  0  0  0  0  0  0  0  0  0  0  0
  133.6510  125.3760   66.0660 C   0  0  0  0  0  0  0  0  0  0  0  0
  133.2960  124.7210   62.4100 C   0  0  0  0  0  0  0  0  0  0  0  0
  132.3730  125.0400   61.4180 C   0  0  0  0  0  0  0  0  0  0  0  0
  129.9030  127.3700   60.3340 C   0  0  0  0  0  0  0  0  0  0  0  0
  130.3780  128.6370   60.8170 C   0  0  0  0  0  0  0  0  0  0  0  0
  131.3050  128.7430   61.8230 N   0  0  0  0  0  0  0  0  0  0  0  0
  132.6000  131.6358   62.4945 H   0  0  0  0  0  0  0  0  0  0  0  0
  132.6386  130.7357   60.9405 H   0  0  0  0  0  0  0  0  0  0  0  0
  132.4222  132.5189   60.9405 H   0  0  0  0  0  0  0  0  0  0  0  0
  126.0223  125.3084   58.1269 H   0  0  0  0  0  0  0  0  0  0  0  0
  124.8339  123.5190   56.8894 H   0  0  0  0  0  0  0  0  0  0  0  0
  124.0955  122.1495   55.3979 H   0  0  0  0  0  0  0  0  0  0  0  0
  125.5913  122.3754   54.4292 H   0  0  0  0  0  0  0  0  0  0  0  0
  124.7525  120.7869   54.4292 H   0  0  0  0  0  0  0  0  0  0  0  0
  128.4117  121.0964   56.9542 H   0  0  0  0  0  0  0  0  0  0  0  0
  129.6001  122.8907   58.1910 H   0  0  0  0  0  0  0  0  0  0  0  0
  129.7468  123.9548   60.2626 H   0  0  0  0  0  0  0  0  0  0  0  0
  129.9676  126.4979   63.3474 H   0  0  0  0  0  0  0  0  0  0  0  0
  131.6141  125.9328   65.1229 H   0  0  0  0  0  0  0  0  0  0  0  0
  133.9207  124.6730   66.8679 H   0  0  0  0  0  0  0  0  0  0  0  0
  134.2643  126.2850   66.1536 H   0  0  0  0  0  0  0  0  0  0  0  0
  132.5872  125.6416   66.1536 H   0  0  0  0  0  0  0  0  0  0  0  0
  134.2364  124.2169   62.1425 H   0  0  0  0  0  0  0  0  0  0  0  0
  132.5864  124.7849   60.3695 H   0  0  0  0  0  0  0  0  0  0  0  0
  132.0840  128.1030   61.8930 H   0  0  0  0  0  0  0  0  0  0  0  0
  131.2460  129.4670   62.5250 H   0  0  0  0  0  0  0  0  0  0  0  0
  1  2  1  0
  2  3  1  0
  3  4  2  0
  3  5  1  0
  5  6  1  0
  6  7  1  0
  7  8  2  0
  8  9  1  0
  9 10  1  0
 10 11  2  0
 11 12  1  0
 12 13  2  0
 13 14  1  0
 14 15  1  0
 13 16  1  0
 16 17  2  0
  9 18  2  0
 18 19  1  0
 19 20  1  0
 20 21  2  0
 21 22  1  0
 22 23  2  0
 23 24  1  0
 24 25  1  0
 23 26  1  0
 26 27  2  0
 19 28  2  0
 28 29  1  0
 29 30  1  0
 29  5  2  0
 28  7  1  0
 17 10  1  0
 27 20  1  0
  1 31  1  0
  1 32  1  0
  1 33  1  0
 11 34  1  0
 12 35  1  0
 15 36  1  0
 15 37  1  0
 15 38  1  0
 16 39  1  0
 17 40  1  0
 18 41  1  0
 21 42  1  0
 22 43  1  0
 25 44  1  0
 25 45  1  0
 25 46  1  0
 26 47  1  0
 27 48  1  0
 30 49  1  0
 30 50  1  0
M  END
>  <Binding energies>  (1) 
[-7.56]

>  <Ligand effiencies>  (1) 
[-0.23625]

>  <Interactions>  (1) 
["V-B:PRO:540:CB:9857, V-B:MET:535:CE:9807, V-B:TYR:539:CD2:9846, V-B:PRO:540:N:9856, V-B:PRO:540:CA:9855, H-B:TYR:539:N:9842, V-B:TYR:539:CE2:9848, V-B:MET:535:CG:9805, V-B:TYR:539:C:9839, V-B:TYR:531:CE2:9765, V-B:LEU:363:CD1:8160, V-B:TYR:539:CA:9841, H-A:TYR:484:OH:4347, V-A:ASP:366:CG:3212, H-A:GLY:454:N:4049, V-B:PRO:540:CD:9859, V-A:PRO:540:CA:4883, V-A:PRO:540:CB:4885, V-A:PRO:540:C:4881, V-A:GLU:543:CD:4908, H-A:ASP:366:OD2:3214, V-B:TYR:539:CZ:9849, V-B:TYR:539:CG:9844, V-A:ARG:545:CD:4923, V-B:TYR:539:CE1:9847, V-B:TYR:539:CD1:9845, V-A:ARG:545:CG:4922, V-A:ARG:545:CZ:4926, H-A:ALA:541:N:4891, V-B:ILE:538:CA:9832, V-B:ILE:538:CG1:9836, V-B:ILE:538:CG2:9835, V-B:ILE:538:C:9830, V-B:ILE:538:CB:9834, H-A:GLU:543:OE1:4909, H-A:GLU:543:OE2:4910, H-A:ASP:366:OD1:3213"]

$$$$
9a_Ghoteimi_2023
     RDKit          3D

 85 91  0  0  0  0  0  0  0  0999 V2000
  130.8700  131.7280   54.9580 C   0  0  0  0  0  0  0  0  0  0  0  0
  129.8290  131.2970   53.9200 C   0  0  0  0  0  0  0  0  0  0  0  0
  128.5290  131.6490   54.3780 O   0  0  0  0  0  0  0  0  0  0  0  0
  127.6440  130.6980   54.7720 C   0  0  0  0  0  0  0  0  0  0  0  0
  126.7580  130.2480   54.0390 O   0  0  0  0  0  0  0  0  0  0  0  0
  127.8440  130.2520   56.1920 C   0  0  0  0  0  0  0  0  0  0  0  0
  127.1600  129.1220   56.6580 C   0  0  0  0  0  0  0  0  0  0  0  0
  127.3220  128.6840   57.9690 C   0  0  0  0  0  0  0  0  0  0  0  0
  128.1720  129.3650   58.8410 C   0  0  0  0  0  0  0  0  0  0  0  0
  128.2590  128.8330   60.1430 N   0  0  0  0  0  0  0  0  0  0  0  0
  127.2830  128.4160   60.9880 C   0  0  0  0  0  0  0  0  0  0  0  0
  126.0810  128.4400   60.7230 O   0  0  0  0  0  0  0  0  0  0  0  0
  127.7510  127.9080   62.2810 C   0  0  0  0  0  0  0  0  0  0  0  0
  127.4940  128.8470   63.7520 S   0  0  0  0  0  0  0  0  0  0  0  0
  128.2700  127.6190   64.7250 C   0  0  0  0  0  0  0  0  0  0  0  0
  128.3820  127.7430   66.0470 N   0  0  0  0  0  0  0  0  0  0  0  0
  128.9920  126.7270   66.7130 C   0  0  0  0  0  0  0  0  0  0  0  0
  129.0970  126.8820   68.1950 C   0  0  0  0  0  0  0  0  0  0  0  0
  129.5950  128.0650   68.7530 C   0  0  0  0  0  0  0  0  0  0  0  0
  129.6960  128.2190   70.1330 C   0  0  0  0  0  0  0  0  0  0  0  0
  129.2890  127.2000   71.0080 C   0  0  0  0  0  0  0  0  0  0  0  0
  129.4020  127.3330   72.3960 N   0  0  0  0  0  0  0  0  0  0  0  0
  130.6130  126.8940   73.1170 C   0  0  0  0  0  0  0  0  0  0  0  0
  130.4220  126.7790   74.6440 C   0  0  0  0  0  0  0  0  0  0  0  0
  129.9340  128.0030   75.1670 O   0  0  0  0  0  0  0  0  0  0  0  0
  128.6820  128.3500   74.5950 C   0  0  0  0  0  0  0  0  0  0  0  0
  128.8280  128.5160   73.0690 C   0  0  0  0  0  0  0  0  0  0  0  0
  128.8040  126.0110   70.4440 C   0  0  0  0  0  0  0  0  0  0  0  0
  128.7070  125.8570   69.0640 C   0  0  0  0  0  0  0  0  0  0  0  0
  129.5090  125.6090   66.0540 C   0  0  0  0  0  0  0  0  0  0  0  0
  129.4110  125.4840   64.6640 C   0  0  0  0  0  0  0  0  0  0  0  0
  130.0100  124.2920   64.0100 C   0  0  0  0  0  0  0  0  0  0  0  0
  131.3940  124.1020   64.0080 C   0  0  0  0  0  0  0  0  0  0  0  0
  131.9520  122.9780   63.4070 C   0  0  0  0  0  0  0  0  0  0  0  0
  131.1390  122.0030   62.8080 C   0  0  0  0  0  0  0  0  0  0  0  0
  131.6770  120.8720   62.1890 N   0  0  0  0  0  0  0  0  0  0  0  0
  132.9410  120.9970   61.4350 C   0  0  0  0  0  0  0  0  0  0  0  0
  133.6100  119.6380   61.1360 C   0  0  0  0  0  0  0  0  0  0  0  0
  132.6990  118.7860   60.4600 O   0  0  0  0  0  0  0  0  0  0  0  0
  131.5380  118.5380   61.2360 C   0  0  0  0  0  0  0  0  0  0  0  0
  130.8130  119.8670   61.5380 C   0  0  0  0  0  0  0  0  0  0  0  0
  129.7510  122.2020   62.8190 C   0  0  0  0  0  0  0  0  0  0  0  0
  129.1930  123.3280   63.4160 C   0  0  0  0  0  0  0  0  0  0  0  0
  128.7430  126.5200   63.9510 C   0  0  0  0  0  0  0  0  0  0  0  0
  128.4120  126.7010   62.5590 C   0  0  0  0  0  0  0  0  0  0  0  0
  128.7070  125.7640   61.6020 N   0  0  0  0  0  0  0  0  0  0  0  0
  128.8650  130.4960   58.3830 C   0  0  0  0  0  0  0  0  0  0  0  0
  128.7000  130.9330   57.0710 C   0  0  0  0  0  0  0  0  0  0  0  0
  130.4699  131.5624   55.9692 H   0  0  0  0  0  0  0  0  0  0  0  0
  131.7874  131.1357   54.8251 H   0  0  0  0  0  0  0  0  0  0  0  0
  131.1002  132.7954   54.8251 H   0  0  0  0  0  0  0  0  0  0  0  0
  130.0313  131.8044   52.9652 H   0  0  0  0  0  0  0  0  0  0  0  0
  129.8845  130.2080   53.7753 H   0  0  0  0  0  0  0  0  0  0  0  0
  126.4877  128.5750   55.9806 H   0  0  0  0  0  0  0  0  0  0  0  0
  126.7766  127.7955   58.3199 H   0  0  0  0  0  0  0  0  0  0  0  0
  129.2030  128.7510   60.4900 H   0  0  0  0  0  0  0  0  0  0  0  0
  129.9112  128.8851   68.0916 H   0  0  0  0  0  0  0  0  0  0  0  0
  130.1016  129.1551   70.5444 H   0  0  0  0  0  0  0  0  0  0  0  0
  130.9090  125.9080   72.7294 H   0  0  0  0  0  0  0  0  0  0  0  0
  131.3824  127.6616   72.9475 H   0  0  0  0  0  0  0  0  0  0  0  0
  129.7009  125.9772   74.8612 H   0  0  0  0  0  0  0  0  0  0  0  0
  131.3904  126.5480   75.1118 H   0  0  0  0  0  0  0  0  0  0  0  0
  127.9517  127.5551   74.8069 H   0  0  0  0  0  0  0  0  0  0  0  0
  128.3365  129.2993   75.0303 H   0  0  0  0  0  0  0  0  0  0  0  0
  127.8320  128.7085   72.6436 H   0  0  0  0  0  0  0  0  0  0  0  0
  129.5242  129.3510   72.9013 H   0  0  0  0  0  0  0  0  0  0  0  0
  128.4951  125.1864   71.1032 H   0  0  0  0  0  0  0  0  0  0  0  0
  128.3178  124.9150   68.6502 H   0  0  0  0  0  0  0  0  0  0  0  0
  130.0002  124.8155   66.6363 H   0  0  0  0  0  0  0  0  0  0  0  0
  132.0478  124.8468   64.4853 H   0  0  0  0  0  0  0  0  0  0  0  0
  133.0447  122.8518   63.4012 H   0  0  0  0  0  0  0  0  0  0  0  0
  132.7296  121.4999   60.4798 H   0  0  0  0  0  0  0  0  0  0  0  0
  133.6384  121.5731   62.0609 H   0  0  0  0  0  0  0  0  0  0  0  0
  134.4954  119.7994   60.5036 H   0  0  0  0  0  0  0  0  0  0  0  0
  133.9089  119.1668   62.0840 H   0  0  0  0  0  0  0  0  0  0  0  0
  130.8623  117.8726   60.6787 H   0  0  0  0  0  0  0  0  0  0  0  0
  131.8310  118.0623   62.1836 H   0  0  0  0  0  0  0  0  0  0  0  0
  130.4440  120.2860   60.5902 H   0  0  0  0  0  0  0  0  0  0  0  0
  129.9958  119.6391   62.2382 H   0  0  0  0  0  0  0  0  0  0  0  0
  129.0933  121.4564   62.3484 H   0  0  0  0  0  0  0  0  0  0  0  0
  128.1009  123.4597   63.4201 H   0  0  0  0  0  0  0  0  0  0  0  0
  128.0760  125.5650   60.8380 H   0  0  0  0  0  0  0  0  0  0  0  0
  129.5690  125.2380   61.6300 H   0  0  0  0  0  0  0  0  0  0  0  0
  129.5398  131.0384   59.0615 H   0  0  0  0  0  0  0  0  0  0  0  0
  129.2462  131.8210   56.7202 H   0  0  0  0  0  0  0  0  0  0  0  0
  1  2  1  0
  2  3  1  0
  3  4  1  0
  4  5  2  0
  4  6  1  0
  6  7  2  0
  7  8  1  0
  8  9  2  0
  9 10  1  0
 10 11  1  0
 11 12  2  0
 11 13  1  0
 13 14  1  0
 14 15  1  0
 15 16  2  0
 16 17  1  0
 17 18  1  0
 18 19  2  0
 19 20  1  0
 20 21  2  0
 21 22  1  0
 22 23  1  0
 23 24  1  0
 24 25  1  0
 25 26  1  0
 26 27  1  0
 21 28  1  0
 28 29  2  0
 17 30  2  0
 30 31  1  0
 31 32  1  0
 32 33  2  0
 33 34  1  0
 34 35  2  0
 35 36  1  0
 36 37  1  0
 37 38  1  0
 38 39  1  0
 39 40  1  0
 40 41  1  0
 35 42  1  0
 42 43  2  0
 31 44  2  0
 44 45  1  0
 45 46  1  0
  9 47  1  0
 47 48  2  0
 48  6  1  0
 45 13  2  0
 44 15  1  0
 29 18  1  0
 43 32  1  0
 27 22  1  0
 41 36  1  0
  1 49  1  0
  1 50  1  0
  1 51  1  0
  2 52  1  0
  2 53  1  0
  7 54  1  0
  8 55  1  0
 10 56  1  0
 19 57  1  0
 20 58  1  0
 23 59  1  0
 23 60  1  0
 24 61  1  0
 24 62  1  0
 26 63  1  0
 26 64  1  0
 27 65  1  0
 27 66  1  0
 28 67  1  0
 29 68  1  0
 30 69  1  0
 33 70  1  0
 34 71  1  0
 37 72  1  0
 37 73  1  0
 38 74  1  0
 38 75  1  0
 40 76  1  0
 40 77  1  0
 41 78  1  0
 41 79  1  0
 42 80  1  0
 43 81  1  0
 46 82  1  0
 46 83  1  0
 47 84  1  0
 48 85  1  0
M  END
>  <Binding energies>  (1) 
[-9.53]

>  <Ligand effiencies>  (1) 
[-0.1868627450980392]

>  <Interactions>  (1) 
["V-A:ILE:369:CG2:3236, V-A:LEU:475:CD1:4257, H-A:SER:385:OG:3409, H-A:HIS:383:NE2:3393, V-B:ALA:541:CB:9864, V-A:PRO:482:CG:4326, V-B:TYR:531:CZ:9766, V-A:ILE:538:CA:4860, V-A:ILE:538:CG2:4863, V-A:TYR:539:CD1:4873, V-A:TYR:539:CZ:4877, V-A:TYR:539:CE1:4875, V-A:ILE:538:CB:4862, V-B:TYR:531:CE1:9764, H-B:LYS:534:NZ:9795, V-A:GLU:543:CD:4908, V-A:SER:385:CA:3406, H-A:TYR:539:OH:4878, V-A:SER:385:C:3404, V-A:GLU:543:C:4902, V-B:HIS:456:CE1:9041, V-A:HIS:456:CE1:4069, V-B:GLU:543:CB:9878, V-B:GLU:543:CG:9879, V-B:GLU:543:CD:9880, V-A:GLU:543:CB:4906, V-B:GLU:543:CA:9876, V-B:GLU:543:C:9874, V-B:HIS:456:CD2:9039, H-A:LYS:547:NZ:4951, V-A:HIS:456:CG:4065, V-A:HIS:456:CD2:4067"]

$$$$
9b_Ghoteimi_2023
     RDKit          3D

 72 78  0  0  0  0  0  0  0  0999 V2000
  129.2420  124.3700   61.1980 N   0  0  0  0  0  0  0  0  0  0  0  0
  129.4190  123.9350   62.4870 C   0  0  0  0  0  0  0  0  0  0  0  0
  129.6380  122.5900   62.8260 C   0  0  0  0  0  0  0  0  0  0  0  0
  129.7450  121.4300   61.9380 C   0  0  0  0  0  0  0  0  0  0  0  0
  128.8930  121.2190   61.0730 O   0  0  0  0  0  0  0  0  0  0  0  0
  130.8230  120.6330   62.1480 N   0  0  0  0  0  0  0  0  0  0  0  0
  131.1630  119.4710   61.4670 C   0  0  0  0  0  0  0  0  0  0  0  0
  130.2360  118.4850   61.1360 C   0  0  0  0  0  0  0  0  0  0  0  0
  130.9610  117.5190   60.4760 C   0  0  0  0  0  0  0  0  0  0  0  0
  132.2580  117.9050   60.4140 O   0  0  0  0  0  0  0  0  0  0  0  0
  132.3730  119.1440   61.0460 N   0  0  0  0  0  0  0  0  0  0  0  0
  129.7890  122.3900   64.5710 S   0  0  0  0  0  0  0  0  0  0  0  0
  129.5410  124.0990   64.8350 C   0  0  0  0  0  0  0  0  0  0  0  0
  129.5160  124.6200   66.0610 N   0  0  0  0  0  0  0  0  0  0  0  0
  129.2980  125.9580   66.1580 C   0  0  0  0  0  0  0  0  0  0  0  0
  129.2540  126.5130   67.5450 C   0  0  0  0  0  0  0  0  0  0  0  0
  128.8500  125.7240   68.6280 C   0  0  0  0  0  0  0  0  0  0  0  0
  128.7960  126.2500   69.9150 C   0  0  0  0  0  0  0  0  0  0  0  0
  129.1320  127.5900   70.1640 C   0  0  0  0  0  0  0  0  0  0  0  0
  129.0860  128.1330   71.4530 N   0  0  0  0  0  0  0  0  0  0  0  0
  128.6930  129.5380   71.6830 C   0  0  0  0  0  0  0  0  0  0  0  0
  128.3640  129.8610   73.1550 C   0  0  0  0  0  0  0  0  0  0  0  0
  129.4540  129.4960   73.9860 O   0  0  0  0  0  0  0  0  0  0  0  0
  129.7310  128.1080   73.9020 C   0  0  0  0  0  0  0  0  0  0  0  0
  130.0980  127.7270   72.4510 C   0  0  0  0  0  0  0  0  0  0  0  0
  129.5550  128.3700   69.0790 C   0  0  0  0  0  0  0  0  0  0  0  0
  129.6120  127.8420   67.7920 C   0  0  0  0  0  0  0  0  0  0  0  0
  129.1350  126.7710   65.0340 C   0  0  0  0  0  0  0  0  0  0  0  0
  129.1810  126.2310   63.7430 C   0  0  0  0  0  0  0  0  0  0  0  0
  129.0310  127.1430   62.5800 C   0  0  0  0  0  0  0  0  0  0  0  0
  127.7620  127.4950   62.1200 C   0  0  0  0  0  0  0  0  0  0  0  0
  127.6180  128.3640   61.0430 C   0  0  0  0  0  0  0  0  0  0  0  0
  128.7400  128.9040   60.3960 C   0  0  0  0  0  0  0  0  0  0  0  0
  128.6190  129.7910   59.3230 N   0  0  0  0  0  0  0  0  0  0  0  0
  129.5440  130.9360   59.2230 C   0  0  0  0  0  0  0  0  0  0  0  0
  129.0570  132.0290   58.2480 C   0  0  0  0  0  0  0  0  0  0  0  0
  128.8170  131.4650   56.9680 O   0  0  0  0  0  0  0  0  0  0  0  0
  127.8270  130.4480   57.0190 C   0  0  0  0  0  0  0  0  0  0  0  0
  128.2800  129.3170   57.9660 C   0  0  0  0  0  0  0  0  0  0  0  0
  130.0100  128.5580   60.8790 C   0  0  0  0  0  0  0  0  0  0  0  0
  130.1540  127.6880   61.9570 C   0  0  0  0  0  0  0  0  0  0  0  0
  129.3730  124.8260   63.6190 C   0  0  0  0  0  0  0  0  0  0  0  0
  129.0670  123.7270   60.4380 H   0  0  0  0  0  0  0  0  0  0  0  0
  129.2810  125.3520   60.9640 H   0  0  0  0  0  0  0  0  0  0  0  0
  131.4610  120.9080   62.8810 H   0  0  0  0  0  0  0  0  0  0  0  0
  129.1580  118.4797   61.3548 H   0  0  0  0  0  0  0  0  0  0  0  0
  130.5529  116.5839   60.0650 H   0  0  0  0  0  0  0  0  0  0  0  0
  128.5713  124.6733   68.4594 H   0  0  0  0  0  0  0  0  0  0  0  0
  128.4851  125.6056   70.7505 H   0  0  0  0  0  0  0  0  0  0  0  0
  129.5218  130.1865   71.3628 H   0  0  0  0  0  0  0  0  0  0  0  0
  127.7737  129.7117   71.1044 H   0  0  0  0  0  0  0  0  0  0  0  0
  128.1726  130.9394   73.2575 H   0  0  0  0  0  0  0  0  0  0  0  0
  127.4719  129.2938   73.4589 H   0  0  0  0  0  0  0  0  0  0  0  0
  130.5732  127.8642   74.5663 H   0  0  0  0  0  0  0  0  0  0  0  0
  128.8377  127.5434   74.2076 H   0  0  0  0  0  0  0  0  0  0  0  0
  131.0513  128.2128   72.1955 H   0  0  0  0  0  0  0  0  0  0  0  0
  130.1614  126.6294   72.4144 H   0  0  0  0  0  0  0  0  0  0  0  0
  129.8469  129.4171   69.2472 H   0  0  0  0  0  0  0  0  0  0  0  0
  129.9431  128.4788   66.9584 H   0  0  0  0  0  0  0  0  0  0  0  0
  128.9682  127.8504   65.1649 H   0  0  0  0  0  0  0  0  0  0  0  0
  126.8689  127.0826   62.6122 H   0  0  0  0  0  0  0  0  0  0  0  0
  126.6099  128.6316   60.6936 H   0  0  0  0  0  0  0  0  0  0  0  0
  129.6557  131.3832   60.2218 H   0  0  0  0  0  0  0  0  0  0  0  0
  130.4980  130.5519   58.8327 H   0  0  0  0  0  0  0  0  0  0  0  0
  128.1257  132.4710   58.6318 H   0  0  0  0  0  0  0  0  0  0  0  0
  129.8305  132.8063   58.1611 H   0  0  0  0  0  0  0  0  0  0  0  0
  126.8836  130.8763   57.3884 H   0  0  0  0  0  0  0  0  0  0  0  0
  127.6801  130.0364   56.0096 H   0  0  0  0  0  0  0  0  0  0  0  0
  127.4656  128.5820   58.0464 H   0  0  0  0  0  0  0  0  0  0  0  0
  129.1932  128.8792   57.5366 H   0  0  0  0  0  0  0  0  0  0  0  0
  130.9056  128.9798   60.3995 H   0  0  0  0  0  0  0  0  0  0  0  0
  131.1597  127.4289   62.3195 H   0  0  0  0  0  0  0  0  0  0  0  0
  1  2  1  0
  2  3  2  0
  3  4  1  0
  4  5  2  0
  4  6  1  0
  6  7  1  0
  7  8  1  0
  8  9  2  0
  9 10  1  0
 10 11  1  0
  3 12  1  0
 12 13  1  0
 13 14  2  0
 14 15  1  0
 15 16  1  0
 16 17  2  0
 17 18  1  0
 18 19  2  0
 19 20  1  0
 20 21  1  0
 21 22  1  0
 22 23  1  0
 23 24  1  0
 24 25  1  0
 19 26  1  0
 26 27  2  0
 15 28  2  0
 28 29  1  0
 29 30  1  0
 30 31  2  0
 31 32  1  0
 32 33  2  0
 33 34  1  0
 34 35  1  0
 35 36  1  0
 36 37  1  0
 37 38  1  0
 38 39  1  0
 33 40  1  0
 40 41  2  0
 29 42  2  0
 42  2  1  0
 11  7  2  0
 42 13  1  0
 27 16  1  0
 41 30  1  0
 25 20  1  0
 39 34  1  0
  1 43  1  0
  1 44  1  0
  6 45  1  0
  8 46  1  0
  9 47  1  0
 17 48  1  0
 18 49  1  0
 21 50  1  0
 21 51  1  0
 22 52  1  0
 22 53  1  0
 24 54  1  0
 24 55  1  0
 25 56  1  0
 25 57  1  0
 26 58  1  0
 27 59  1  0
 28 60  1  0
 31 61  1  0
 32 62  1  0
 35 63  1  0
 35 64  1  0
 36 65  1  0
 36 66  1  0
 38 67  1  0
 38 68  1  0
 39 69  1  0
 39 70  1  0
 40 71  1  0
 41 72  1  0
M  END
>  <Binding energies>  (1) 
[-8.39]

>  <Ligand effiencies>  (1) 
[-0.18644444444444447]

>  <Interactions>  (1) 
["H-B:ALA:541:N:9863, V-A:LEU:475:CD1:4257, H-A:SER:385:OG:3409, H-A:HIS:383:NE2:3393, V-B:ALA:541:CB:9864, V-B:TYR:539:C:9839, V-A:PRO:482:CG:4326, V-A:PRO:482:CB:4325, H-A:TYR:484:OH:4347, V-A:PRO:540:N:4884, V-A:TYR:539:CD1:4873, V-A:PRO:540:CA:4883, V-A:TYR:539:CZ:4877, V-A:TYR:539:CE1:4875, V-A:TYR:539:C:4867, V-A:GLU:543:CG:4907, V-A:GLU:543:CD:4908, V-A:GLU:543:C:4902, V-B:HIS:456:CE1:9041, V-A:HIS:456:CE1:4069, V-B:GLU:543:CB:9878, V-B:GLU:543:CG:9879, V-B:GLU:543:CD:9880, V-A:GLU:543:CB:4906, V-A:TYR:484:CE2:4345, V-B:GLU:543:CA:9876, V-B:GLU:543:C:9874, V-A:HIS:383:CE1:3392, V-B:HIS:456:CD2:9039, H-A:LYS:547:NZ:4951, V-A:LYS:547:CE:4950, V-B:HIS:456:CG:9037"]

$$$$
9c_Ghoteimi_2023
     RDKit          3D

 72 78  0  0  0  0  0  0  0  0999 V2000
  128.4130  128.5310   66.9460 N   0  0  0  0  0  0  0  0  0  0  0  0
  128.8730  127.2480   67.1000 C   0  0  0  0  0  0  0  0  0  0  0  0
  129.1590  126.6730   68.3480 C   0  0  0  0  0  0  0  0  0  0  0  0
  129.0200  127.2670   69.6810 C   0  0  0  0  0  0  0  0  0  0  0  0
  129.0450  128.4900   69.8320 O   0  0  0  0  0  0  0  0  0  0  0  0
  128.8730  126.3840   70.6980 N   0  0  0  0  0  0  0  0  0  0  0  0
  128.7380  126.6800   72.0480 C   0  0  0  0  0  0  0  0  0  0  0  0
  127.9050  126.1440   72.9130 N   0  0  0  0  0  0  0  0  0  0  0  0
  128.0480  126.6720   74.1140 C   0  0  0  0  0  0  0  0  0  0  0  0
  129.0170  127.6630   74.2390 C   0  0  0  0  0  0  0  0  0  0  0  0
  129.7770  127.9090   72.6950 S   0  0  0  0  0  0  0  0  0  0  0  0
  129.7570  125.0240   68.1680 S   0  0  0  0  0  0  0  0  0  0  0  0
  129.6380  125.1220   66.4280 C   0  0  0  0  0  0  0  0  0  0  0  0
  130.0030  124.1080   65.6450 N   0  0  0  0  0  0  0  0  0  0  0  0
  129.8870  124.2920   64.3040 C   0  0  0  0  0  0  0  0  0  0  0  0
  130.3230  123.1460   63.4480 C   0  0  0  0  0  0  0  0  0  0  0  0
  129.4060  122.4360   62.6660 C   0  0  0  0  0  0  0  0  0  0  0  0
  129.8150  121.3640   61.8780 C   0  0  0  0  0  0  0  0  0  0  0  0
  131.1580  120.9540   61.8550 C   0  0  0  0  0  0  0  0  0  0  0  0
  131.5870  119.8830   61.0620 N   0  0  0  0  0  0  0  0  0  0  0  0
  132.5780  120.0730   59.9840 C   0  0  0  0  0  0  0  0  0  0  0  0
  133.1880  118.7560   59.4590 C   0  0  0  0  0  0  0  0  0  0  0  0
  132.1550  117.8750   59.0480 O   0  0  0  0  0  0  0  0  0  0  0  0
  131.2910  117.5500   60.1250 C   0  0  0  0  0  0  0  0  0  0  0  0
  130.6250  118.8300   60.6760 C   0  0  0  0  0  0  0  0  0  0  0  0
  132.0760  121.6820   62.6260 C   0  0  0  0  0  0  0  0  0  0  0  0
  131.6660  122.7560   63.4100 C   0  0  0  0  0  0  0  0  0  0  0  0
  129.3840  125.4720   63.7530 C   0  0  0  0  0  0  0  0  0  0  0  0
  128.9790  126.5320   64.5720 C   0  0  0  0  0  0  0  0  0  0  0  0
  128.4220  127.7540   63.9400 C   0  0  0  0  0  0  0  0  0  0  0  0
  129.0840  128.3590   62.8710 C   0  0  0  0  0  0  0  0  0  0  0  0
  128.5550  129.4950   62.2640 C   0  0  0  0  0  0  0  0  0  0  0  0
  127.3500  130.0570   62.7130 C   0  0  0  0  0  0  0  0  0  0  0  0
  126.7950  131.1910   62.1120 N   0  0  0  0  0  0  0  0  0  0  0  0
  127.6830  132.1470   61.4200 C   0  0  0  0  0  0  0  0  0  0  0  0
  127.0160  133.5140   61.1540 C   0  0  0  0  0  0  0  0  0  0  0  0
  125.8100  133.3330   60.4280 O   0  0  0  0  0  0  0  0  0  0  0  0
  124.8860  132.5250   61.1390 C   0  0  0  0  0  0  0  0  0  0  0  0
  125.4980  131.1330   61.4100 C   0  0  0  0  0  0  0  0  0  0  0  0
  126.6830  129.4290   63.7750 C   0  0  0  0  0  0  0  0  0  0  0  0
  127.2110  128.2930   64.3810 C   0  0  0  0  0  0  0  0  0  0  0  0
  129.1240  126.3750   65.9800 C   0  0  0  0  0  0  0  0  0  0  0  0
  127.7250  128.9290   67.5710 H   0  0  0  0  0  0  0  0  0  0  0  0
  128.7470  129.1240   66.2000 H   0  0  0  0  0  0  0  0  0  0  0  0
  128.8570  125.4020   70.4620 H   0  0  0  0  0  0  0  0  0  0  0  0
  127.4357  126.3471   74.9681 H   0  0  0  0  0  0  0  0  0  0  0  0
  129.2624  128.2034   75.1652 H   0  0  0  0  0  0  0  0  0  0  0  0
  128.3458  122.7292   62.6739 H   0  0  0  0  0  0  0  0  0  0  0  0
  129.0750  120.8298   61.2639 H   0  0  0  0  0  0  0  0  0  0  0  0
  132.0839  120.5850   59.1451 H   0  0  0  0  0  0  0  0  0  0  0  0
  133.4044  120.6617   60.4088 H   0  0  0  0  0  0  0  0  0  0  0  0
  133.8437  118.9736   58.6030 H   0  0  0  0  0  0  0  0  0  0  0  0
  133.7702  118.2812   60.2625 H   0  0  0  0  0  0  0  0  0  0  0  0
  130.5124  116.8583   59.7709 H   0  0  0  0  0  0  0  0  0  0  0  0
  131.8769  117.0756   60.9260 H   0  0  0  0  0  0  0  0  0  0  0  0
  129.9589  119.2360   59.9004 H   0  0  0  0  0  0  0  0  0  0  0  0
  130.0819  118.5418   61.5881 H   0  0  0  0  0  0  0  0  0  0  0  0
  133.1388  121.3989   62.6106 H   0  0  0  0  0  0  0  0  0  0  0  0
  132.4078  123.3057   64.0079 H   0  0  0  0  0  0  0  0  0  0  0  0
  129.3049  125.5699   62.6602 H   0  0  0  0  0  0  0  0  0  0  0  0
  130.0309  127.9353   62.5051 H   0  0  0  0  0  0  0  0  0  0  0  0
  129.0888  129.9582   61.4211 H   0  0  0  0  0  0  0  0  0  0  0  0
  128.5754  132.3087   62.0425 H   0  0  0  0  0  0  0  0  0  0  0  0
  127.9347  131.7104   60.4422 H   0  0  0  0  0  0  0  0  0  0  0  0
  126.7935  134.0035   62.1136 H   0  0  0  0  0  0  0  0  0  0  0  0
  127.7012  134.1414   60.5650 H   0  0  0  0  0  0  0  0  0  0  0  0
  124.6419  133.0079   62.0967 H   0  0  0  0  0  0  0  0  0  0  0  0
  123.9732  132.4062   60.5367 H   0  0  0  0  0  0  0  0  0  0  0  0
  124.7931  130.5559   62.0265 H   0  0  0  0  0  0  0  0  0  0  0  0
  125.6777  130.6608   60.4329 H   0  0  0  0  0  0  0  0  0  0  0  0
  125.7283  129.8406   64.1343 H   0  0  0  0  0  0  0  0  0  0  0  0
  126.6713  127.8164   65.2126 H   0  0  0  0  0  0  0  0  0  0  0  0
  1  2  1  0
  2  3  2  0
  3  4  1  0
  4  5  2  0
  4  6  1  0
  6  7  1  0
  7  8  2  0
  8  9  1  0
  9 10  2  0
 10 11  1  0
  3 12  1  0
 12 13  1  0
 13 14  2  0
 14 15  1  0
 15 16  1  0
 16 17  2  0
 17 18  1  0
 18 19  2  0
 19 20  1  0
 20 21  1  0
 21 22  1  0
 22 23  1  0
 23 24  1  0
 24 25  1  0
 19 26  1  0
 26 27  2  0
 15 28  2  0
 28 29  1  0
 29 30  1  0
 30 31  2  0
 31 32  1  0
 32 33  2  0
 33 34  1  0
 34 35  1  0
 35 36  1  0
 36 37  1  0
 37 38  1  0
 38 39  1  0
 33 40  1  0
 40 41  2  0
 29 42  2  0
 42  2  1  0
 11  7  1  0
 42 13  1  0
 27 16  1  0
 41 30  1  0
 25 20  1  0
 39 34  1  0
  1 43  1  0
  1 44  1  0
  6 45  1  0
  9 46  1  0
 10 47  1  0
 17 48  1  0
 18 49  1  0
 21 50  1  0
 21 51  1  0
 22 52  1  0
 22 53  1  0
 24 54  1  0
 24 55  1  0
 25 56  1  0
 25 57  1  0
 26 58  1  0
 27 59  1  0
 28 60  1  0
 31 61  1  0
 32 62  1  0
 35 63  1  0
 35 64  1  0
 36 65  1  0
 36 66  1  0
 38 67  1  0
 38 68  1  0
 39 69  1  0
 39 70  1  0
 40 71  1  0
 41 72  1  0
M  END
>  <Binding energies>  (1) 
[-8.6]

>  <Ligand effiencies>  (1) 
[-0.1911111111111111]

>  <Interactions>  (1) 
["V-A:ILE:369:CG2:3236, V-B:TYR:539:CD2:9846, V-A:LEU:475:CD1:4257, H-A:HIS:383:NE2:3393, V-B:ALA:541:CB:9864, V-B:TYR:539:CE2:9848, V-B:TYR:539:C:9839, V-A:PRO:482:CG:4326, H-A:TYR:484:OH:4347, V-A:TYR:539:CD1:4873, V-A:ALA:541:CB:4892, V-B:ILE:369:CD1:8210, V-A:GLU:543:CG:4907, V-A:GLU:543:CD:4908, V-B:HIS:456:CE1:9041, V-A:TYR:484:CZ:4346, V-A:HIS:456:CE1:4069, V-B:GLU:543:CB:9878, V-B:GLU:543:CG:9879, V-B:GLU:543:CD:9880, V-A:GLU:543:CB:4906, V-A:TYR:484:CE2:4345, V-B:ILE:369:CG2:8208, H-A:GLU:543:OE1:4909, V-A:HIS:383:CE1:3392, V-A:HIS:383:CD2:3391, H-A:HIS:456:NE2:4070, V-B:HIS:456:CD2:9039, H-B:HIS:456:NE2:9042, H-B:GLU:543:O:9875"]

$$$$
9d_Ghoteimi_2023
     RDKit          3D

 68 73  0  0  0  0  0  0  0  0999 V2000
  124.0540  129.9560   63.3430 C   0  0  0  0  0  0  0  0  0  0  0  0
  124.6090  130.6320   64.4630 O   0  0  0  0  0  0  0  0  0  0  0  0
  125.9460  130.8590   64.5460 C   0  0  0  0  0  0  0  0  0  0  0  0
  126.4560  131.9820   64.5440 O   0  0  0  0  0  0  0  0  0  0  0  0
  126.7380  129.6120   64.6350 C   0  0  0  0  0  0  0  0  0  0  0  0
  127.0530  128.6660   63.1810 S   0  0  0  0  0  0  0  0  0  0  0  0
  127.9850  127.5020   64.0930 C   0  0  0  0  0  0  0  0  0  0  0  0
  128.5740  126.4630   63.5020 N   0  0  0  0  0  0  0  0  0  0  0  0
  129.2900  125.6260   64.2970 C   0  0  0  0  0  0  0  0  0  0  0  0
  129.9630  124.4820   63.6080 C   0  0  0  0  0  0  0  0  0  0  0  0
  131.3560  124.4500   63.4820 C   0  0  0  0  0  0  0  0  0  0  0  0
  131.9920  123.3910   62.8400 C   0  0  0  0  0  0  0  0  0  0  0  0
  131.2580  122.3160   62.3120 C   0  0  0  0  0  0  0  0  0  0  0  0
  131.8820  121.2530   61.6500 N   0  0  0  0  0  0  0  0  0  0  0  0
  133.3090  120.9410   61.8710 C   0  0  0  0  0  0  0  0  0  0  0  0
  133.9080  119.9830   60.8210 C   0  0  0  0  0  0  0  0  0  0  0  0
  133.1340  118.7980   60.7470 O   0  0  0  0  0  0  0  0  0  0  0  0
  131.7970  119.0750   60.3640 C   0  0  0  0  0  0  0  0  0  0  0  0
  131.1300  120.0060   61.3990 C   0  0  0  0  0  0  0  0  0  0  0  0
  129.8610  122.3610   62.4280 C   0  0  0  0  0  0  0  0  0  0  0  0
  129.2250  123.4220   63.0670 C   0  0  0  0  0  0  0  0  0  0  0  0
  129.3870  125.8090   65.6780 C   0  0  0  0  0  0  0  0  0  0  0  0
  128.7540  126.8880   66.3060 C   0  0  0  0  0  0  0  0  0  0  0  0
  128.8660  127.0210   67.7830 C   0  0  0  0  0  0  0  0  0  0  0  0
  128.2710  126.0850   68.6310 C   0  0  0  0  0  0  0  0  0  0  0  0
  128.3940  126.2030   70.0130 C   0  0  0  0  0  0  0  0  0  0  0  0
  129.1320  127.2540   70.5820 C   0  0  0  0  0  0  0  0  0  0  0  0
  129.2630  127.4000   71.9650 N   0  0  0  0  0  0  0  0  0  0  0  0
  129.2410  128.7550   72.5490 C   0  0  0  0  0  0  0  0  0  0  0  0
  129.0020  128.7580   74.0740 C   0  0  0  0  0  0  0  0  0  0  0  0
  129.9690  127.9440   74.7190 O   0  0  0  0  0  0  0  0  0  0  0  0
  129.9100  126.5990   74.2660 C   0  0  0  0  0  0  0  0  0  0  0  0
  130.1760  126.5440   72.7470 C   0  0  0  0  0  0  0  0  0  0  0  0
  129.7240  128.1880   69.7210 C   0  0  0  0  0  0  0  0  0  0  0  0
  129.5990  128.0700   68.3400 C   0  0  0  0  0  0  0  0  0  0  0  0
  128.0330  127.8010   65.4870 C   0  0  0  0  0  0  0  0  0  0  0  0
  127.3270  129.0250   65.7620 C   0  0  0  0  0  0  0  0  0  0  0  0
  127.2560  129.5790   67.0140 N   0  0  0  0  0  0  0  0  0  0  0  0
  123.3921  129.1498   63.6923 H   0  0  0  0  0  0  0  0  0  0  0  0
  123.4760  130.6674   62.7349 H   0  0  0  0  0  0  0  0  0  0  0  0
  124.8643  129.5275   62.7349 H   0  0  0  0  0  0  0  0  0  0  0  0
  131.9571  125.2730   63.8959 H   0  0  0  0  0  0  0  0  0  0  0  0
  133.0878  123.3962   62.7446 H   0  0  0  0  0  0  0  0  0  0  0  0
  133.8775  121.8823   61.8456 H   0  0  0  0  0  0  0  0  0  0  0  0
  133.3782  120.4327   62.8440 H   0  0  0  0  0  0  0  0  0  0  0  0
  133.9125  120.4769   59.8381 H   0  0  0  0  0  0  0  0  0  0  0  0
  134.9363  119.7244   61.1139 H   0  0  0  0  0  0  0  0  0  0  0  0
  131.7949  119.5652   59.3793 H   0  0  0  0  0  0  0  0  0  0  0  0
  131.2343  118.1312   60.3138 H   0  0  0  0  0  0  0  0  0  0  0  0
  130.1284  120.2729   61.0309 H   0  0  0  0  0  0  0  0  0  0  0  0
  131.0953  119.4552   62.3506 H   0  0  0  0  0  0  0  0  0  0  0  0
  129.2572  121.5437   62.0067 H   0  0  0  0  0  0  0  0  0  0  0  0
  128.1280  123.4277   63.1480 H   0  0  0  0  0  0  0  0  0  0  0  0
  129.9686  125.0957   66.2804 H   0  0  0  0  0  0  0  0  0  0  0  0
  127.7003  125.2473   68.2038 H   0  0  0  0  0  0  0  0  0  0  0  0
  127.9074  125.4643   70.6669 H   0  0  0  0  0  0  0  0  0  0  0  0
  130.2080  129.2385   72.3461 H   0  0  0  0  0  0  0  0  0  0  0  0
  128.4023  129.2959   72.0864 H   0  0  0  0  0  0  0  0  0  0  0  0
  129.0815  129.7876   74.4530 H   0  0  0  0  0  0  0  0  0  0  0  0
  127.9981  128.3597   74.2827 H   0  0  0  0  0  0  0  0  0  0  0  0
  130.6712  126.0035   74.7913 H   0  0  0  0  0  0  0  0  0  0  0  0
  128.9099  126.1907   74.4734 H   0  0  0  0  0  0  0  0  0  0  0  0
  131.2090  126.8732   72.5609 H   0  0  0  0  0  0  0  0  0  0  0  0
  130.0081  125.5062   72.4234 H   0  0  0  0  0  0  0  0  0  0  0  0
  130.2962  129.0272   70.1433 H   0  0  0  0  0  0  0  0  0  0  0  0
  130.0813  128.8086   67.6828 H   0  0  0  0  0  0  0  0  0  0  0  0
  126.5250  130.2260   67.2690 H   0  0  0  0  0  0  0  0  0  0  0  0
  127.9340  129.3530   67.7290 H   0  0  0  0  0  0  0  0  0  0  0  0
  1  2  1  0
  2  3  1  0
  3  4  2  0
  3  5  1  0
  5  6  1  0
  6  7  1  0
  7  8  2  0
  8  9  1  0
  9 10  1  0
 10 11  2  0
 11 12  1  0
 12 13  2  0
 13 14  1  0
 14 15  1  0
 15 16  1  0
 16 17  1  0
 17 18  1  0
 18 19  1  0
 13 20  1  0
 20 21  2  0
  9 22  2  0
 22 23  1  0
 23 24  1  0
 24 25  2  0
 25 26  1  0
 26 27  2  0
 27 28  1  0
 28 29  1  0
 29 30  1  0
 30 31  1  0
 31 32  1  0
 32 33  1  0
 27 34  1  0
 34 35  2  0
 23 36  2  0
 36 37  1  0
 37 38  1  0
 37  5  2  0
 36  7  1  0
 21 10  1  0
 35 24  1  0
 19 14  1  0
 33 28  1  0
  1 39  1  0
  1 40  1  0
  1 41  1  0
 11 42  1  0
 12 43  1  0
 15 44  1  0
 15 45  1  0
 16 46  1  0
 16 47  1  0
 18 48  1  0
 18 49  1  0
 19 50  1  0
 19 51  1  0
 20 52  1  0
 21 53  1  0
 22 54  1  0
 25 55  1  0
 26 56  1  0
 29 57  1  0
 29 58  1  0
 30 59  1  0
 30 60  1  0
 32 61  1  0
 32 62  1  0
 33 63  1  0
 33 64  1  0
 34 65  1  0
 35 66  1  0
 38 67  1  0
 38 68  1  0
M  END
>  <Binding energies>  (1) 
[-8.06]

>  <Ligand effiencies>  (1) 
[-0.2015]

>  <Interactions>  (1) 
["V-A:ILE:369:CG2:3236, V-B:TYR:539:CD2:9846, V-A:LEU:475:CD1:4257, H-A:SER:385:OG:3409, H-A:HIS:383:NE2:3393, V-B:ALA:541:CB:9864, V-B:ASP:366:CG:8184, H-B:GLY:454:N:9021, V-B:ARG:545:CZ:9898, V-A:GLU:543:CD:4908, H-B:TYR:484:OH:9319, V-A:SER:385:CA:3406, V-A:SER:385:C:3404, V-A:GLU:543:C:4902, V-B:HIS:456:CE1:9041, V-A:HIS:456:CE1:4069, V-B:GLU:543:CB:9878, V-B:GLU:543:CG:9879, V-B:GLU:543:CD:9880, V-A:GLU:543:CB:4906, V-B:TYR:484:CZ:9318, V-B:TYR:484:CE2:9317, V-B:GLU:543:CA:9876, V-B:GLU:543:C:9874, V-B:HIS:456:CD2:9039, H-A:LYS:547:NZ:4951, V-A:HIS:456:CG:4065, V-A:HIS:456:CD2:4067"]

$$$$
RR10_Rahimova_2017
     RDKit          3D

 66 70  0  0  0  0  0  0  0  0999 V2000
  132.1270  132.3900   56.2520 C   0  0  0  0  0  0  0  0  0  0  0  0
  130.6740  132.0860   55.8460 C   0  0  1  0  0  0  0  0  0  0  0  0
  130.6020  131.1130   54.6470 C   0  0  0  0  0  0  0  0  0  0  0  0
  129.1360  130.8490   54.2350 C   0  0  0  0  0  0  0  0  0  0  0  0
  128.2940  130.2780   55.4050 C   0  0  1  0  0  0  0  0  0  0  0  0
  128.7340  128.9190   55.7480 N   0  0  0  0  0  0  0  0  0  0  0  0
  129.2630  128.0300   54.8870 C   0  0  0  0  0  0  0  0  0  0  0  0
  129.4570  128.2820   53.6950 O   0  0  0  0  0  0  0  0  0  0  0  0
  129.6160  126.6390   55.4550 C   0  0  1  0  0  0  0  0  0  0  0  0
  130.9710  126.7190   56.2050 C   0  0  0  0  0  0  0  0  0  0  0  0
  131.2840  125.3490   56.8540 C   0  0  0  0  0  0  0  0  0  0  0  0
  130.1160  124.8240   57.7210 C   0  0  0  0  0  0  0  0  0  0  0  0
  128.8420  124.8400   56.9510 N   0  0  0  0  0  0  0  0  0  0  0  0
  127.5010  123.9870   57.7340 S   0  0  0  0  0  0  0  0  0  0  0  0
  127.9530  122.6280   58.0590 O   0  0  0  0  0  0  0  0  0  0  0  0
  126.2990  124.1900   56.9160 O   0  0  0  0  0  0  0  0  0  0  0  0
  127.2570  124.8360   59.2940 C   0  0  0  0  0  0  0  0  0  0  0  0
  127.4930  124.1520   60.4900 C   0  0  0  0  0  0  0  0  0  0  0  0
  127.3190  124.7550   61.7390 C   0  0  0  0  0  0  0  0  0  0  0  0
  126.8960  126.0870   61.7350 C   0  0  0  0  0  0  0  0  0  0  0  0
  126.6140  127.0000   62.7230 N   0  0  0  0  0  0  0  0  0  0  0  0
  126.2330  128.1780   62.1170 C   0  0  0  0  0  0  0  0  0  0  0  0
  125.8360  129.4130   62.8750 C   0  0  0  0  0  0  0  0  0  0  0  0
  124.9310  130.3270   62.3190 C   0  0  0  0  0  0  0  0  0  0  0  0
  124.5600  131.4700   63.0220 C   0  0  0  0  0  0  0  0  0  0  0  0
  125.0940  131.7060   64.2860 C   0  0  0  0  0  0  0  0  0  0  0  0
  125.9950  130.8080   64.8520 C   0  0  0  0  0  0  0  0  0  0  0  0
  126.3650  129.6650   64.1480 C   0  0  0  0  0  0  0  0  0  0  0  0
  126.2560  128.0870   60.8050 N   0  0  0  0  0  0  0  0  0  0  0  0
  126.6590  126.8050   60.5390 C   0  0  0  0  0  0  0  0  0  0  0  0
  126.8450  126.1740   59.3000 C   0  0  0  0  0  0  0  0  0  0  0  0
  128.4910  126.1790   56.4150 C   0  0  0  0  0  0  0  0  0  0  0  0
  128.3900  131.2560   56.6070 C   0  0  0  0  0  0  0  0  0  0  0  0
  129.8540  131.5150   57.0270 C   0  0  0  0  0  0  0  0  0  0  0  0
  132.2054  132.4064   57.3491 H   0  0  0  0  0  0  0  0  0  0  0  0
  132.7910  131.6113   55.8486 H   0  0  0  0  0  0  0  0  0  0  0  0
  132.4232  133.3696   55.8486 H   0  0  0  0  0  0  0  0  0  0  0  0
  130.2329  133.0474   55.5441 H   0  0  0  0  0  0  0  0  0  0  0  0
  131.1417  131.5518   53.7948 H   0  0  0  0  0  0  0  0  0  0  0  0
  131.0602  130.1578   54.9429 H   0  0  0  0  0  0  0  0  0  0  0  0
  128.6851  131.7958   53.9028 H   0  0  0  0  0  0  0  0  0  0  0  0
  129.1409  130.1033   53.4264 H   0  0  0  0  0  0  0  0  0  0  0  0
  127.2379  130.1926   55.1095 H   0  0  0  0  0  0  0  0  0  0  0  0
  128.5080  128.6040   56.6800 H   0  0  0  0  0  0  0  0  0  0  0  0
  129.7065  125.9094   54.6368 H   0  0  0  0  0  0  0  0  0  0  0  0
  131.7689  126.9785   55.4937 H   0  0  0  0  0  0  0  0  0  0  0  0
  130.9118  127.4900   56.9873 H   0  0  0  0  0  0  0  0  0  0  0  0
  131.4873  124.6191   56.0566 H   0  0  0  0  0  0  0  0  0  0  0  0
  132.1553  125.4821   57.5121 H   0  0  0  0  0  0  0  0  0  0  0  0
  130.3349  123.7930   58.0360 H   0  0  0  0  0  0  0  0  0  0  0  0
  130.0066  125.4760   58.6002 H   0  0  0  0  0  0  0  0  0  0  0  0
  127.8266  123.1047   60.4469 H   0  0  0  0  0  0  0  0  0  0  0  0
  127.5053  124.2097   62.6760 H   0  0  0  0  0  0  0  0  0  0  0  0
  126.6570  126.8790   63.7250 H   0  0  0  0  0  0  0  0  0  0  0  0
  124.5106  130.1400   61.3198 H   0  0  0  0  0  0  0  0  0  0  0  0
  123.8483  132.1833   62.5809 H   0  0  0  0  0  0  0  0  0  0  0  0
  124.8017  132.6091   64.8419 H   0  0  0  0  0  0  0  0  0  0  0  0
  126.4128  131.0007   65.8512 H   0  0  0  0  0  0  0  0  0  0  0  0
  127.0772  128.9552   64.5940 H   0  0  0  0  0  0  0  0  0  0  0  0
  126.6718  126.7159   58.3585 H   0  0  0  0  0  0  0  0  0  0  0  0
  127.5383  126.1209   55.8682 H   0  0  0  0  0  0  0  0  0  0  0  0
  128.3853  126.8978   57.2409 H   0  0  0  0  0  0  0  0  0  0  0  0
  127.9271  132.2129   56.3241 H   0  0  0  0  0  0  0  0  0  0  0  0
  127.8678  130.7982   57.4600 H   0  0  0  0  0  0  0  0  0  0  0  0
  129.8683  132.2362   57.8574 H   0  0  0  0  0  0  0  0  0  0  0  0
  130.3043  130.5611   57.3390 H   0  0  0  0  0  0  0  0  0  0  0  0
  1  2  1  0
  2  3  1  0
  3  4  1  0
  4  5  1  0
  5  6  1  0
  6  7  1  0
  7  8  2  0
  7  9  1  0
  9 10  1  0
 10 11  1  0
 11 12  1  0
 12 13  1  0
 13 14  1  0
 14 15  2  0
 14 16  2  0
 14 17  1  0
 17 18  2  0
 18 19  1  0
 19 20  2  0
 20 21  1  0
 21 22  1  0
 22 23  1  0
 23 24  2  0
 24 25  1  0
 25 26  2  0
 26 27  1  0
 27 28  2  0
 22 29  2  0
 29 30  1  0
 30 31  2  0
 13 32  1  0
  5 33  1  0
 33 34  1  0
 34  2  1  0
 32  9  1  0
 31 17  1  0
 30 20  1  0
 28 23  1  0
  1 35  1  0
  1 36  1  0
  1 37  1  0
  2 38  1  6
  3 39  1  0
  3 40  1  0
  4 41  1  0
  4 42  1  0
  5 43  1  6
  6 44  1  0
  9 45  1  6
 10 46  1  0
 10 47  1  0
 11 48  1  0
 11 49  1  0
 12 50  1  0
 12 51  1  0
 18 52  1  0
 19 53  1  0
 21 54  1  0
 24 55  1  0
 25 56  1  0
 26 57  1  0
 27 58  1  0
 28 59  1  0
 31 60  1  0
 32 61  1  0
 32 62  1  0
 33 63  1  0
 33 64  1  0
 34 65  1  0
 34 66  1  0
M  END
>  <Binding energies>  (1) 
[-9.77]

>  <Ligand effiencies>  (1) 
[-0.2713888888888889]

>  <Interactions>  (1) 
["H-B:TYR:531:OH:9767, V-B:MET:535:CE:9807, V-A:PRO:540:N:4884, V-A:ILE:538:CA:4860, V-A:ILE:538:CG2:4863, V-A:TYR:539:CD1:4873, V-A:PRO:540:CA:4883, H-A:TYR:531:OH:4795, V-A:TYR:539:CZ:4877, V-A:PRO:540:CB:4885, V-A:TYR:539:CE1:4875, V-A:TYR:531:CZ:4794, V-A:ILE:538:CB:4862, V-B:ASP:366:CG:8184, V-B:ARG:545:CZ:9898, V-A:PRO:540:CD:4887, V-A:LEU:363:CD1:3188, V-B:ILE:369:CD1:8210, V-B:GLY:454:CA:9020, V-B:TYR:539:CZ:9849, H-B:GLU:543:OE1:9881, V-B:GLU:543:CD:9880, H-B:GLU:543:OE2:9882, V-A:PRO:540:CG:4886, V-B:LEU:475:CD1:9229"]

$$$$
RR11_Rahimova_2017
     RDKit          3D

 55 60  0  0  0  0  0  0  0  0999 V2000
  132.8860  125.4030   55.5510 N   0  0  0  0  0  0  0  0  0  0  0  0
  131.7750  126.0790   56.0510 C   0  0  0  0  0  0  0  0  0  0  0  0
  131.9390  127.0430   57.0440 C   0  0  0  0  0  0  0  0  0  0  0  0
  130.8280  127.7200   57.5400 C   0  0  0  0  0  0  0  0  0  0  0  0
  129.5460  127.4410   57.0500 C   0  0  0  0  0  0  0  0  0  0  0  0
  128.3510  128.1750   57.5820 C   0  0  0  0  0  0  0  0  0  0  0  0
  128.1990  128.5360   58.8380 N   0  0  0  0  0  0  0  0  0  0  0  0
  126.9920  129.1830   58.8850 C   0  0  0  0  0  0  0  0  0  0  0  0
  126.3480  129.7760   59.9790 C   0  0  0  0  0  0  0  0  0  0  0  0
  125.1120  130.4000   59.7660 C   0  0  0  0  0  0  0  0  0  0  0  0
  124.3850  131.0480   60.9370 C   0  0  0  0  0  0  0  0  0  0  0  0
  125.1450  130.9220   62.2500 C   0  0  0  0  0  0  0  0  0  0  0  0
  125.6840  132.0670   62.8460 C   0  0  0  0  0  0  0  0  0  0  0  0
  126.3810  132.0040   64.0550 C   0  0  0  0  0  0  0  0  0  0  0  0
  126.5250  130.7540   64.6690 C   0  0  0  0  0  0  0  0  0  0  0  0
  127.1620  130.4290   65.8380 N   0  0  0  0  0  0  0  0  0  0  0  0
  127.0150  129.1280   65.9650 C   0  0  0  0  0  0  0  0  0  0  0  0
  127.5680  128.3170   67.1010 C   0  0  0  0  0  0  0  0  0  0  0  0
  128.7370  128.7200   67.7590 C   0  0  0  0  0  0  0  0  0  0  0  0
  129.2570  127.9630   68.8060 C   0  0  0  0  0  0  0  0  0  0  0  0
  128.6090  126.7950   69.2030 C   0  0  0  0  0  0  0  0  0  0  0  0
  129.1310  126.0340   70.2480 N   0  0  0  0  0  0  0  0  0  0  0  0
  127.4440  126.3840   68.5610 C   0  0  0  0  0  0  0  0  0  0  0  0
  126.9250  127.1420   67.5150 C   0  0  0  0  0  0  0  0  0  0  0  0
  126.2950  128.5860   64.9210 N   0  0  0  0  0  0  0  0  0  0  0  0
  125.9630  129.6060   64.0610 C   0  0  0  0  0  0  0  0  0  0  0  0
  125.2610  129.6630   62.8540 C   0  0  0  0  0  0  0  0  0  0  0  0
  124.5260  130.4060   58.4950 C   0  0  0  0  0  0  0  0  0  0  0  0
  125.1410  129.8190   57.3860 C   0  0  0  0  0  0  0  0  0  0  0  0
  126.3810  129.2150   57.6090 C   0  0  0  0  0  0  0  0  0  0  0  0
  127.2790  128.5570   56.8020 N   0  0  0  0  0  0  0  0  0  0  0  0
  129.3960  126.4680   56.0530 C   0  0  0  0  0  0  0  0  0  0  0  0
  130.5050  125.7890   55.5540 C   0  0  0  0  0  0  0  0  0  0  0  0
  133.6720  125.9300   55.1970 H   0  0  0  0  0  0  0  0  0  0  0  0
  132.9100  124.3940   55.5860 H   0  0  0  0  0  0  0  0  0  0  0  0
  132.9424  127.2682   57.4345 H   0  0  0  0  0  0  0  0  0  0  0  0
  130.9584  128.4808   58.3237 H   0  0  0  0  0  0  0  0  0  0  0  0
  126.8019  129.7521   60.9807 H   0  0  0  0  0  0  0  0  0  0  0  0
  124.2436  132.1160   60.7146 H   0  0  0  0  0  0  0  0  0  0  0  0
  123.4254  130.5245   61.0599 H   0  0  0  0  0  0  0  0  0  0  0  0
  125.5559  133.0407   62.3506 H   0  0  0  0  0  0  0  0  0  0  0  0
  126.8046  132.9107   64.5116 H   0  0  0  0  0  0  0  0  0  0  0  0
  129.2486  129.6421   67.4462 H   0  0  0  0  0  0  0  0  0  0  0  0
  130.1757  128.2859   69.3176 H   0  0  0  0  0  0  0  0  0  0  0  0
  129.5260  126.4990   71.0530 H   0  0  0  0  0  0  0  0  0  0  0  0
  129.0760  125.0260   70.2040 H   0  0  0  0  0  0  0  0  0  0  0  0
  126.9348  125.4625   68.8795 H   0  0  0  0  0  0  0  0  0  0  0  0
  126.0037  126.8166   67.0097 H   0  0  0  0  0  0  0  0  0  0  0  0
  126.0810  127.6020   64.8460 H   0  0  0  0  0  0  0  0  0  0  0  0
  124.8208  128.7630   62.4000 H   0  0  0  0  0  0  0  0  0  0  0  0
  123.5468  130.8899   58.3645 H   0  0  0  0  0  0  0  0  0  0  0  0
  124.6737  129.8318   56.3903 H   0  0  0  0  0  0  0  0  0  0  0  0
  127.2160  128.3660   55.8130 H   0  0  0  0  0  0  0  0  0  0  0  0
  128.3941  126.2385   55.6611 H   0  0  0  0  0  0  0  0  0  0  0  0
  130.3794  125.0269   54.7708 H   0  0  0  0  0  0  0  0  0  0  0  0
  1  2  1  0
  2  3  2  0
  3  4  1  0
  4  5  2  0
  5  6  1  0
  6  7  2  0
  7  8  1  0
  8  9  2  0
  9 10  1  0
 10 11  1  0
 11 12  1  0
 12 13  2  0
 13 14  1  0
 14 15  2  0
 15 16  1  0
 16 17  2  0
 17 18  1  0
 18 19  2  0
 19 20  1  0
 20 21  2  0
 21 22  1  0
 21 23  1  0
 23 24  2  0
 17 25  1  0
 25 26  1  0
 26 27  2  0
 10 28  2  0
 28 29  1  0
 29 30  2  0
 30 31  1  0
  5 32  1  0
 32 33  2  0
 33  2  1  0
 31  6  1  0
 30  8  1  0
 27 12  1  0
 26 15  1  0
 24 18  1  0
  1 34  1  0
  1 35  1  0
  3 36  1  0
  4 37  1  0
  9 38  1  0
 11 39  1  0
 11 40  1  0
 13 41  1  0
 14 42  1  0
 19 43  1  0
 20 44  1  0
 22 45  1  0
 22 46  1  0
 23 47  1  0
 24 48  1  0
 25 49  1  0
 27 50  1  0
 28 51  1  0
 29 52  1  0
 31 53  1  0
 32 54  1  0
 33 55  1  0
M  END
>  <Binding energies>  (1) 
[-8.64]

>  <Ligand effiencies>  (1) 
[-0.22153846153846155]

>  <Interactions>  (1) 
["H-B:TYR:531:OH:9767, V-B:MET:535:CE:9807, V-B:TYR:531:CZ:9766, V-A:ASP:366:CG:3212, V-A:TYR:531:CE1:4792, V-A:ASP:366:CB:3211, V-A:ASN:370:CB:3244, V-A:ASP:366:C:3207, H-B:TYR:539:OH:9850, H-A:TYR:531:OH:4795, V-A:TYR:539:CZ:4877, V-A:TYR:539:CE1:4875, V-A:TYR:531:CZ:4794, V-B:ASP:366:CG:8184, V-B:TYR:531:CE1:9764, V-B:ASP:366:CB:8183, V-B:ARG:545:CZ:9898, V-B:ASP:366:CA:8181, V-B:ILE:369:CD1:8210, V-A:GLU:543:CG:4907, V-A:GLU:543:CD:4908, H-B:TYR:484:OH:9319, V-B:ASP:366:C:8179, V-B:HIS:456:CE1:9041, V-A:HIS:456:CE1:4069, V-B:GLU:543:CB:9878, H-B:GLU:543:OE1:9881, V-B:GLU:543:CD:9880, H-B:GLU:543:OE2:9882, V-A:GLU:543:CB:4906, V-B:LEU:475:CD1:9229, V-B:ILE:369:CG2:8208, V-B:GLU:543:CA:9876, V-B:GLU:543:C:9874, V-B:ARG:545:CG:9894, H-A:ASN:370:OD1:3246, H-A:ASP:366:O:3208, H-A:HIS:456:NE2:4070, V-A:ASN:370:CG:3245, H-B:HIS:456:NE2:9042, H-B:GLU:543:O:9875"]

$$$$
RR11_Rahimova_2017-again1
     RDKit          3D

 56 61  0  0  0  0  0  0  0  0999 V2000
  132.8480  125.3870   55.8090 N   0  0  0  0  0  0  0  0  0  0  0  0
  131.7050  126.0370   56.2710 C   0  0  0  0  0  0  0  0  0  0  0  0
  130.5080  125.9190   55.5680 C   0  0  0  0  0  0  0  0  0  0  0  0
  129.3670  126.5720   56.0290 C   0  0  0  0  0  0  0  0  0  0  0  0
  129.4140  127.3480   57.1950 C   0  0  0  0  0  0  0  0  0  0  0  0
  128.1860  128.0580   57.6860 C   0  0  0  0  0  0  0  0  0  0  0  0
  127.2870  128.6120   56.9040 N   0  0  0  0  0  0  0  0  0  0  0  0
  126.3590  129.1600   57.7510 C   0  0  0  0  0  0  0  0  0  0  0  0
  125.1920  129.8740   57.4480 C   0  0  0  0  0  0  0  0  0  0  0  0
  124.4140  130.3450   58.5070 C   0  0  0  0  0  0  0  0  0  0  0  0
  124.7770  130.1210   59.8390 C   0  0  0  0  0  0  0  0  0  0  0  0
  123.8940  130.6600   60.9560 C   0  0  0  0  0  0  0  0  0  0  0  0
  124.5630  130.5850   62.3210 C   0  0  0  0  0  0  0  0  0  0  0  0
  124.7610  131.7580   63.0590 C   0  0  0  0  0  0  0  0  0  0  0  0
  125.3720  131.7510   64.3160 C   0  0  0  0  0  0  0  0  0  0  0  0
  125.7750  130.5070   64.8100 C   0  0  0  0  0  0  0  0  0  0  0  0
  126.4090  130.1410   65.9900 N   0  0  0  0  0  0  0  0  0  0  0  0
  126.6040  128.7790   66.0180 C   0  0  0  0  0  0  0  0  0  0  0  0
  127.2650  127.9890   67.1010 C   0  0  0  0  0  0  0  0  0  0  0  0
  126.6130  126.8840   67.6610 C   0  0  0  0  0  0  0  0  0  0  0  0
  127.2280  126.1380   68.6630 C   0  0  0  0  0  0  0  0  0  0  0  0
  128.4990  126.4960   69.1120 C   0  0  0  0  0  0  0  0  0  0  0  0
  129.1150  125.7460   70.1130 N   0  0  0  0  0  0  0  0  0  0  0  0
  129.1560  127.5960   68.5620 C   0  0  0  0  0  0  0  0  0  0  0  0
  128.5400  128.3400   67.5590 C   0  0  0  0  0  0  0  0  0  0  0  0
  126.0790  128.2880   64.8460 N   0  0  0  0  0  0  0  0  0  0  0  0
  125.5660  129.3250   64.0800 C   0  0  0  0  0  0  0  0  0  0  0  0
  124.9490  129.3370   62.8260 C   0  0  0  0  0  0  0  0  0  0  0  0
  125.9260  129.3890   60.1680 C   0  0  0  0  0  0  0  0  0  0  0  0
  126.7040  128.9280   59.1040 C   0  0  0  0  0  0  0  0  0  0  0  0
  127.8770  128.2140   59.0210 N   0  0  0  0  0  0  0  0  0  0  0  0
  130.6250  127.4570   57.8920 C   0  0  0  0  0  0  0  0  0  0  0  0
  131.7660  126.8040   57.4330 C   0  0  0  0  0  0  0  0  0  0  0  0
  132.8980  124.3790   55.8520 H   0  0  0  0  0  0  0  0  0  0  0  0
  133.6290  125.9330   55.4750 H   0  0  0  0  0  0  0  0  0  0  0  0
  130.4639  125.3120   54.6517 H   0  0  0  0  0  0  0  0  0  0  0  0
  128.4222  126.4778   55.4736 H   0  0  0  0  0  0  0  0  0  0  0  0
  124.8971  130.0583   56.4044 H   0  0  0  0  0  0  0  0  0  0  0  0
  123.4932  130.9058   58.2886 H   0  0  0  0  0  0  0  0  0  0  0  0
  123.6542  131.7113   60.7388 H   0  0  0  0  0  0  0  0  0  0  0  0
  122.9889  130.0361   60.9947 H   0  0  0  0  0  0  0  0  0  0  0  0
  124.4249  132.7161   62.6359 H   0  0  0  0  0  0  0  0  0  0  0  0
  125.5279  132.6777   64.8877 H   0  0  0  0  0  0  0  0  0  0  0  0
  126.7070  130.7470   66.7410 H   0  0  0  0  0  0  0  0  0  0  0  0
  125.6097  126.6037   67.3076 H   0  0  0  0  0  0  0  0  0  0  0  0
  126.7131  125.2692   69.0990 H   0  0  0  0  0  0  0  0  0  0  0  0
  128.9810  124.7450   70.1390 H   0  0  0  0  0  0  0  0  0  0  0  0
  129.6660  126.2150   70.8170 H   0  0  0  0  0  0  0  0  0  0  0  0
  130.1581  127.8753   68.9194 H   0  0  0  0  0  0  0  0  0  0  0  0
  129.0580  129.2077   67.1246 H   0  0  0  0  0  0  0  0  0  0  0  0
  126.0950  127.3050   64.6180 H   0  0  0  0  0  0  0  0  0  0  0  0
  124.7746  128.4090   62.2617 H   0  0  0  0  0  0  0  0  0  0  0  0
  126.2016  129.1874   61.2137 H   0  0  0  0  0  0  0  0  0  0  0  0
  128.4510  127.8540   59.7690 H   0  0  0  0  0  0  0  0  0  0  0  0
  130.6745  128.0630   58.8087 H   0  0  0  0  0  0  0  0  0  0  0  0
  132.7127  126.8933   57.9859 H   0  0  0  0  0  0  0  0  0  0  0  0
  1  2  1  0
  2  3  2  0
  3  4  1  0
  4  5  2  0
  5  6  1  0
  6  7  2  0
  7  8  1  0
  8  9  2  0
  9 10  1  0
 10 11  2  0
 11 12  1  0
 12 13  1  0
 13 14  2  0
 14 15  1  0
 15 16  2  0
 16 17  1  0
 17 18  1  0
 18 19  1  0
 19 20  2  0
 20 21  1  0
 21 22  2  0
 22 23  1  0
 22 24  1  0
 24 25  2  0
 18 26  2  0
 26 27  1  0
 27 28  2  0
 11 29  1  0
 29 30  2  0
 30 31  1  0
  5 32  1  0
 32 33  2  0
 33  2  1  0
 31  6  1  0
 30  8  1  0
 28 13  1  0
 27 16  1  0
 25 19  1  0
  1 34  1  0
  1 35  1  0
  3 36  1  0
  4 37  1  0
  9 38  1  0
 10 39  1  0
 12 40  1  0
 12 41  1  0
 14 42  1  0
 15 43  1  0
 17 44  1  0
 20 45  1  0
 21 46  1  0
 23 47  1  0
 23 48  1  0
 24 49  1  0
 25 50  1  0
 26 51  1  0
 28 52  1  0
 29 53  1  0
 31 54  1  0
 32 55  1  0
 33 56  1  0
M  CHG  1  26   1
M  END
>  <Binding energies>  (1) 
[-9.19]

>  <Ligand effiencies>  (1) 
[-0.22974999999999998]

>  <Interactions>  (1) 
["H-B:TYR:531:OH:9767, V-B:MET:535:CE:9807, V-A:ASP:366:CG:3212, V-A:TYR:531:CE1:4792, V-A:ASP:366:CB:3211, V-A:ASN:370:CB:3244, V-A:ASP:366:C:3207, H-B:TYR:539:OH:9850, H-A:TYR:531:OH:4795, V-A:TYR:539:CZ:4877, V-A:TYR:539:CE1:4875, V-B:ASP:366:CG:8184, V-B:ASP:366:CB:8183, V-B:ARG:545:CZ:9898, V-B:ASP:366:CA:8181, V-B:ILE:369:CD1:8210, V-B:GLY:454:CA:9020, H-B:TYR:484:OH:9319, V-B:ASP:366:C:8179, V-B:HIS:456:CE1:9041, V-A:HIS:456:CE1:4069, V-B:GLU:543:CB:9878, V-B:GLU:543:CG:9879, H-B:GLU:543:OE1:9881, V-B:GLU:543:CD:9880, H-B:GLU:543:OE2:9882, V-A:GLU:543:CB:4906, V-B:TYR:484:CZ:9318, V-B:LEU:475:CD1:9229, V-B:ILE:369:CG2:8208, V-B:TYR:484:CE2:9317, V-B:GLU:543:CA:9876, V-B:GLU:543:C:9874, V-B:ARG:545:CG:9894, H-A:ASN:370:OD1:3246, H-A:ASP:366:O:3208, H-A:HIS:456:NE2:4070, H-B:GLU:543:O:9875"]

$$$$
RR11_Rahimova_2017-again2
     RDKit          3D

 57 62  0  0  0  0  0  0  0  0999 V2000
  129.1250  125.9420   70.3100 N   0  0  0  0  0  0  0  0  0  0  0  0
  128.5550  126.6510   69.2540 C   0  0  0  0  0  0  0  0  0  0  0  0
  129.1820  127.7970   68.7690 C   0  0  0  0  0  0  0  0  0  0  0  0
  128.6100  128.5090   67.7180 C   0  0  0  0  0  0  0  0  0  0  0  0
  127.4060  128.0770   67.1460 C   0  0  0  0  0  0  0  0  0  0  0  0
  126.7860  128.8460   66.0250 C   0  0  0  0  0  0  0  0  0  0  0  0
  126.3930  128.3480   64.8030 N   0  0  0  0  0  0  0  0  0  0  0  0
  125.8400  129.3610   64.0310 C   0  0  0  0  0  0  0  0  0  0  0  0
  125.2960  129.3570   62.7440 C   0  0  0  0  0  0  0  0  0  0  0  0
  124.7970  130.5740   62.2620 C   0  0  0  0  0  0  0  0  0  0  0  0
  124.1870  130.6310   60.8680 C   0  0  0  0  0  0  0  0  0  0  0  0
  125.0570  129.9590   59.8150 C   0  0  0  0  0  0  0  0  0  0  0  0
  124.6400  129.9480   58.4790 C   0  0  0  0  0  0  0  0  0  0  0  0
  125.3950  129.3470   57.4690 C   0  0  0  0  0  0  0  0  0  0  0  0
  126.6010  128.7560   57.8560 C   0  0  0  0  0  0  0  0  0  0  0  0
  127.5710  128.0770   57.1320 N   0  0  0  0  0  0  0  0  0  0  0  0
  128.5870  127.6720   57.9660 C   0  0  0  0  0  0  0  0  0  0  0  0
  129.8080  126.9000   57.5840 C   0  0  0  0  0  0  0  0  0  0  0  0
  130.1930  126.8060   56.2420 C   0  0  0  0  0  0  0  0  0  0  0  0
  131.3370  126.0960   55.8860 C   0  0  0  0  0  0  0  0  0  0  0  0
  132.1010  125.4750   56.8720 C   0  0  0  0  0  0  0  0  0  0  0  0
  133.2500  124.7680   56.5170 N   0  0  0  0  0  0  0  0  0  0  0  0
  131.7250  125.5580   58.2120 C   0  0  0  0  0  0  0  0  0  0  0  0
  130.5820  126.2700   58.5670 C   0  0  0  0  0  0  0  0  0  0  0  0
  128.2520  128.1100   59.2260 N   0  0  0  0  0  0  0  0  0  0  0  0
  127.0330  128.7750   59.1920 C   0  0  0  0  0  0  0  0  0  0  0  0
  126.2760  129.3830   60.1980 C   0  0  0  0  0  0  0  0  0  0  0  0
  124.8730  131.7420   63.0290 C   0  0  0  0  0  0  0  0  0  0  0  0
  125.4220  131.7540   64.3140 C   0  0  0  0  0  0  0  0  0  0  0  0
  125.9000  130.5340   64.8010 C   0  0  0  0  0  0  0  0  0  0  0  0
  126.4840  130.1880   66.0120 N   0  0  0  0  0  0  0  0  0  0  0  0
  126.7870  126.9220   67.6380 C   0  0  0  0  0  0  0  0  0  0  0  0
  127.3600  126.2110   68.6890 C   0  0  0  0  0  0  0  0  0  0  0  0
  129.0180  124.9390   70.3510 H   0  0  0  0  0  0  0  0  0  0  0  0
  129.5820  126.4450   71.0580 H   0  0  0  0  0  0  0  0  0  0  0  0
  130.1274  128.1386   69.2157 H   0  0  0  0  0  0  0  0  0  0  0  0
  129.1050  129.4138   67.3354 H   0  0  0  0  0  0  0  0  0  0  0  0
  126.5040  127.3760   64.5550 H   0  0  0  0  0  0  0  0  0  0  0  0
  125.2612  128.4402   62.1371 H   0  0  0  0  0  0  0  0  0  0  0  0
  123.2100  130.1260   60.8911 H   0  0  0  0  0  0  0  0  0  0  0  0
  124.0921  131.6914   60.5913 H   0  0  0  0  0  0  0  0  0  0  0  0
  123.6862  130.4285   58.2156 H   0  0  0  0  0  0  0  0  0  0  0  0
  125.0575  129.3393   56.4221 H   0  0  0  0  0  0  0  0  0  0  0  0
  127.5740  127.8800   56.1420 H   0  0  0  0  0  0  0  0  0  0  0  0
  129.5888  127.2955   55.4640 H   0  0  0  0  0  0  0  0  0  0  0  0
  131.6365  126.0257   54.8299 H   0  0  0  0  0  0  0  0  0  0  0  0
  133.2430  124.1910   55.6900 H   0  0  0  0  0  0  0  0  0  0  0  0
  134.0530  124.7900   57.1280 H   0  0  0  0  0  0  0  0  0  0  0  0
  132.3292  125.0627   58.9863 H   0  0  0  0  0  0  0  0  0  0  0  0
  130.2856  126.3380   59.6241 H   0  0  0  0  0  0  0  0  0  0  0  0
  128.8370  127.9410   60.0320 H   0  0  0  0  0  0  0  0  0  0  0  0
  126.6213  129.4081   61.2421 H   0  0  0  0  0  0  0  0  0  0  0  0
  124.4879  132.6817   62.6064 H   0  0  0  0  0  0  0  0  0  0  0  0
  125.4753  132.6760   64.9115 H   0  0  0  0  0  0  0  0  0  0  0  0
  126.6750  130.7920   66.7980 H   0  0  0  0  0  0  0  0  0  0  0  0
  125.8434  126.5744   67.1922 H   0  0  0  0  0  0  0  0  0  0  0  0
  126.8702  125.3038   69.0724 H   0  0  0  0  0  0  0  0  0  0  0  0
  1  2  1  0
  2  3  2  0
  3  4  1  0
  4  5  2  0
  5  6  1  0
  6  7  1  0
  7  8  1  0
  8  9  2  0
  9 10  1  0
 10 11  1  0
 11 12  1  0
 12 13  2  0
 13 14  1  0
 14 15  2  0
 15 16  1  0
 16 17  1  0
 17 18  1  0
 18 19  2  0
 19 20  1  0
 20 21  2  0
 21 22  1  0
 21 23  1  0
 23 24  2  0
 17 25  2  0
 25 26  1  0
 26 27  2  0
 10 28  2  0
 28 29  1  0
 29 30  2  0
 30 31  1  0
  5 32  1  0
 32 33  2  0
 33  2  1  0
 31  6  2  0
 30  8  1  0
 27 12  1  0
 26 15  1  0
 24 18  1  0
  1 34  1  0
  1 35  1  0
  3 36  1  0
  4 37  1  0
  7 38  1  0
  9 39  1  0
 11 40  1  0
 11 41  1  0
 13 42  1  0
 14 43  1  0
 16 44  1  0
 19 45  1  0
 20 46  1  0
 22 47  1  0
 22 48  1  0
 23 49  1  0
 24 50  1  0
 25 51  1  0
 27 52  1  0
 28 53  1  0
 29 54  1  0
 31 55  1  0
 32 56  1  0
 33 57  1  0
M  CHG  2  25   1  31   1
M  END
>  <Binding energies>  (1) 
[-10.11]

>  <Ligand effiencies>  (1) 
[-0.24658536585365853]

>  <Interactions>  (1) 
["H-B:TYR:531:OH:9767, V-B:TYR:531:CZ:9766, V-A:ASP:366:CG:3212, V-A:ASP:366:CA:3209, V-A:ASP:366:CB:3211, V-A:ASN:370:CB:3244, V-A:ASP:366:C:3207, H-B:TYR:539:OH:9850, V-A:TYR:539:CE1:4875, V-B:ASP:366:CG:8184, V-B:TYR:531:CE1:9764, V-B:ASP:366:CB:8183, V-B:ARG:545:CZ:9898, V-B:ASP:366:CA:8181, V-B:ILE:369:CD1:8210, V-A:GLU:543:CG:4907, V-B:GLY:454:CA:9020, H-B:TYR:484:OH:9319, V-B:ASP:366:C:8179, V-B:TYR:539:CZ:9849, V-B:HIS:456:CE1:9041, V-A:HIS:456:CE1:4069, V-B:GLU:543:CB:9878, V-B:GLU:543:CG:9879, H-B:GLU:543:OE1:9881, V-B:GLU:543:CD:9880, H-B:GLU:543:OE2:9882, V-A:GLU:543:CB:4906, V-B:TYR:484:CZ:9318, V-B:LEU:475:CD1:9229, V-B:ILE:369:CG2:8208, V-B:TYR:484:CE2:9317, V-B:GLU:543:CA:9876, V-B:GLU:543:C:9874, V-B:ARG:545:CG:9894, H-A:ASN:370:OD1:3246, H-A:ASP:366:O:3208, H-A:HIS:456:NE2:4070, H-B:GLU:543:O:9875"]

$$$$
RR12_Rahimova_2017
     RDKit          3D

 51 53  0  0  0  0  0  0  0  0999 V2000
  126.6060  122.6990   57.1840 C   0  0  0  0  0  0  0  0  0  0  0  0
  128.0880  123.0270   57.4080 C   0  0  0  0  0  0  0  0  0  0  0  0
  128.3710  124.5400   57.3670 C   0  0  0  0  0  0  0  0  0  0  0  0
  129.7950  124.7950   57.1600 N   0  0  0  0  0  0  0  0  0  0  0  0
  130.3770  125.5830   56.1790 C   0  0  0  0  0  0  0  0  0  0  0  0
  129.5950  126.2990   55.0920 C   0  0  0  0  0  0  0  0  0  0  0  0
  129.3400  127.7790   55.4300 C   0  0  0  0  0  0  0  0  0  0  0  0
  129.4950  128.7040   54.2070 C   0  0  0  0  0  0  0  0  0  0  0  0
  129.5970  130.1220   54.5490 N   0  0  0  0  0  0  0  0  0  0  0  0
  128.5590  130.9750   54.6200 C   0  0  0  0  0  0  0  0  0  0  0  0
  127.3930  130.6410   54.3960 O   0  0  0  0  0  0  0  0  0  0  0  0
  128.9100  132.4170   55.0080 C   0  0  0  0  0  0  0  0  0  0  0  0
  130.3020  132.5020   55.3190 O   0  0  0  0  0  0  0  0  0  0  0  0
  130.7590  131.9940   56.5200 C   0  0  0  0  0  0  0  0  0  0  0  0
  132.0880  131.5650   56.5460 C   0  0  0  0  0  0  0  0  0  0  0  0
  132.6400  131.0410   57.7130 C   0  0  0  0  0  0  0  0  0  0  0  0
  131.8590  130.9460   58.8610 C   0  0  0  0  0  0  0  0  0  0  0  0
  130.5310  131.3670   58.8520 C   0  0  0  0  0  0  0  0  0  0  0  0
  129.9810  131.8900   57.6850 C   0  0  0  0  0  0  0  0  0  0  0  0
  131.6830  125.6400   56.2670 N   0  0  0  0  0  0  0  0  0  0  0  0
  131.9950  124.8850   57.3630 C   0  0  0  0  0  0  0  0  0  0  0  0
  133.2540  124.6160   57.9210 C   0  0  0  0  0  0  0  0  0  0  0  0
  133.3110  123.8120   59.0590 C   0  0  0  0  0  0  0  0  0  0  0  0
  132.1530  123.2850   59.6320 C   0  0  0  0  0  0  0  0  0  0  0  0
  130.8860  123.5330   59.1000 C   0  0  0  0  0  0  0  0  0  0  0  0
  130.8300  124.3400   57.9570 C   0  0  0  0  0  0  0  0  0  0  0  0
  126.1040  122.5879   58.1564 H   0  0  0  0  0  0  0  0  0  0  0  0
  126.1317  123.5139   56.6175 H   0  0  0  0  0  0  0  0  0  0  0  0
  126.5198  121.7600   56.6175 H   0  0  0  0  0  0  0  0  0  0  0  0
  128.3903  122.6383   58.3916 H   0  0  0  0  0  0  0  0  0  0  0  0
  128.6603  122.5583   56.5939 H   0  0  0  0  0  0  0  0  0  0  0  0
  127.7999  124.9917   56.5425 H   0  0  0  0  0  0  0  0  0  0  0  0
  128.0692  124.9818   58.3281 H   0  0  0  0  0  0  0  0  0  0  0  0
  130.1648  126.2443   54.1527 H   0  0  0  0  0  0  0  0  0  0  0  0
  128.6175  125.8029   55.0002 H   0  0  0  0  0  0  0  0  0  0  0  0
  128.3163  127.8796   55.8197 H   0  0  0  0  0  0  0  0  0  0  0  0
  130.0905  128.0838   56.1742 H   0  0  0  0  0  0  0  0  0  0  0  0
  130.4060  128.4117   53.6643 H   0  0  0  0  0  0  0  0  0  0  0  0
  128.5863  128.5857   53.5985 H   0  0  0  0  0  0  0  0  0  0  0  0
  130.5240  130.4690   54.7500 H   0  0  0  0  0  0  0  0  0  0  0  0
  128.6805  133.0888   54.1678 H   0  0  0  0  0  0  0  0  0  0  0  0
  128.3194  132.7138   55.8873 H   0  0  0  0  0  0  0  0  0  0  0  0
  132.7038  131.6415   55.6377 H   0  0  0  0  0  0  0  0  0  0  0  0
  133.6871  130.7043   57.7269 H   0  0  0  0  0  0  0  0  0  0  0  0
  132.2942  130.5348   59.7838 H   0  0  0  0  0  0  0  0  0  0  0  0
  129.9198  131.2865   59.7630 H   0  0  0  0  0  0  0  0  0  0  0  0
  128.9327  132.2232   57.6751 H   0  0  0  0  0  0  0  0  0  0  0  0
  134.1705  125.0278   57.4733 H   0  0  0  0  0  0  0  0  0  0  0  0
  134.2875  123.5890   59.5136 H   0  0  0  0  0  0  0  0  0  0  0  0
  132.2408  122.6553   60.5297 H   0  0  0  0  0  0  0  0  0  0  0  0
  129.9766  123.1150   59.5564 H   0  0  0  0  0  0  0  0  0  0  0  0
  1  2  1  0
  2  3  1  0
  3  4  1  0
  4  5  1  0
  5  6  1  0
  6  7  1  0
  7  8  1  0
  8  9  1  0
  9 10  1  0
 10 11  2  0
 10 12  1  0
 12 13  1  0
 13 14  1  0
 14 15  2  0
 15 16  1  0
 16 17  2  0
 17 18  1  0
 18 19  2  0
  5 20  2  0
 20 21  1  0
 21 22  2  0
 22 23  1  0
 23 24  2  0
 24 25  1  0
 25 26  2  0
 26  4  1  0
 19 14  1  0
 26 21  1  0
  1 27  1  0
  1 28  1  0
  1 29  1  0
  2 30  1  0
  2 31  1  0
  3 32  1  0
  3 33  1  0
  6 34  1  0
  6 35  1  0
  7 36  1  0
  7 37  1  0
  8 38  1  0
  8 39  1  0
  9 40  1  0
 12 41  1  0
 12 42  1  0
 15 43  1  0
 16 44  1  0
 17 45  1  0
 18 46  1  0
 19 47  1  0
 22 48  1  0
 23 49  1  0
 24 50  1  0
 25 51  1  0
M  END
>  <Binding energies>  (1) 
[-7.66]

>  <Ligand effiencies>  (1) 
[-0.28370370370370374]

>  <Interactions>  (1) 
["V-B:MET:535:CE:9807, V-A:ILE:369:CG2:3236, V-B:PRO:540:N:9856, V-B:PRO:540:CA:9855, V-B:TYR:539:CE2:9848, V-A:ASP:366:CG:3212, V-A:PRO:540:N:4884, V-A:ILE:538:CA:4860, V-A:ASP:366:CA:3209, V-A:ASP:366:CB:3211, V-A:TYR:539:CG:4872, V-A:ILE:538:CG2:4863, V-A:ASP:366:C:3207, H-B:TYR:539:OH:9850, V-A:TYR:539:CD1:4873, V-A:TYR:539:CE2:4876, V-A:PRO:540:CA:4883, H-A:TYR:531:OH:4795, H-A:TYR:539:N:4870, V-A:TYR:539:CZ:4877, V-A:TYR:539:CD2:4874, V-A:PRO:540:CB:4885, V-A:TYR:539:CE1:4875, V-A:TYR:531:CZ:4794, V-A:ILE:538:CB:4862, H-B:LYS:534:NZ:9795, V-A:TYR:539:C:4867, V-A:LEU:363:CD1:3188, V-B:TYR:539:CZ:9849, H-A:TYR:539:OH:4878, V-A:ILE:538:C:4858"]

$$$$
RR13_Rahimova_2017
     RDKit          3D

 84 90  0  0  0  0  0  0  0  0999 V2000
  133.3310  131.0150   58.1220 Cl  0  0  0  0  0  0  0  0  0  0  0  0
  131.8850  130.8750   57.1800 C   0  0  0  0  0  0  0  0  0  0  0  0
  131.8490  131.5250   55.9440 C   0  0  0  0  0  0  0  0  0  0  0  0
  130.7070  131.4690   55.1490 C   0  0  0  0  0  0  0  0  0  0  0  0
  129.5900  130.7620   55.5870 C   0  0  0  0  0  0  0  0  0  0  0  0
  129.6190  130.1110   56.8190 C   0  0  0  0  0  0  0  0  0  0  0  0
  130.7650  130.1470   57.6290 C   0  0  0  0  0  0  0  0  0  0  0  0
  130.7620  129.4380   59.0020 C   0  0  1  0  0  0  0  0  0  0  0  0
  130.6940  130.4570   60.1490 C   0  0  0  0  0  0  0  0  0  0  0  0
  131.5660  130.6040   61.1220 N   0  0  0  0  0  0  0  0  0  0  0  0
  131.0700  131.6230   61.9280 N   0  0  0  0  0  0  0  0  0  0  0  0
  129.8650  132.0780   61.4300 N   0  0  0  0  0  0  0  0  0  0  0  0
  129.6430  131.3260   60.3460 N   0  0  0  0  0  0  0  0  0  0  0  0
  128.4600  131.5500   59.5230 C   0  0  0  0  0  0  0  0  0  0  0  0
  127.2430  130.8260   60.1290 C   0  0  0  0  0  0  0  0  0  0  0  0
  126.1850  130.5060   59.0840 C   0  0  0  0  0  0  0  0  0  0  0  0
  124.8660  130.9240   59.2770 C   0  0  0  0  0  0  0  0  0  0  0  0
  123.8970  130.6240   58.3230 C   0  0  0  0  0  0  0  0  0  0  0  0
  124.2510  129.9080   57.1810 C   0  0  0  0  0  0  0  0  0  0  0  0
  125.5640  129.4880   56.9840 C   0  0  0  0  0  0  0  0  0  0  0  0
  126.5340  129.7870   57.9380 C   0  0  0  0  0  0  0  0  0  0  0  0
  129.7260  128.3840   59.1200 N   0  0  0  0  0  0  0  0  0  0  0  0
  129.3810  128.1540   60.5350 C   0  0  0  0  0  0  0  0  0  0  0  0
  128.2090  127.1530   60.6590 C   0  0  0  0  0  0  0  0  0  0  0  0
  128.5740  125.8500   60.0790 N   0  0  0  0  0  0  0  0  0  0  0  0
  127.5090  124.8350   60.2490 C   0  0  1  0  0  0  0  0  0  0  0  0
  127.0630  124.1150   58.9580 C   0  0  0  0  0  0  0  0  0  0  0  0
  127.7200  122.9200   58.6320 C   0  0  0  0  0  0  0  0  0  0  0  0
  127.3720  122.1930   57.4940 C   0  0  0  0  0  0  0  0  0  0  0  0
  126.3610  122.6560   56.6570 C   0  0  0  0  0  0  0  0  0  0  0  0
  125.7070  123.8490   56.9540 C   0  0  0  0  0  0  0  0  0  0  0  0
  126.0510  124.5870   58.0900 C   0  0  0  0  0  0  0  0  0  0  0  0
  125.2270  126.0910   58.3340 Cl  0  0  0  0  0  0  0  0  0  0  0  0
  127.8230  123.8100   61.3410 C   0  0  0  0  0  0  0  0  0  0  0  0
  126.9400  123.2420   62.1300 N   0  0  0  0  0  0  0  0  0  0  0  0
  127.6590  122.3760   62.9470 N   0  0  0  0  0  0  0  0  0  0  0  0
  128.9990  122.4220   62.6220 N   0  0  0  0  0  0  0  0  0  0  0  0
  129.0740  123.2980   61.6140 N   0  0  0  0  0  0  0  0  0  0  0  0
  130.3680  123.6200   61.0200 C   0  0  0  0  0  0  0  0  0  0  0  0
  130.6900  122.6440   59.8740 C   0  0  0  0  0  0  0  0  0  0  0  0
  131.2580  121.3280   60.3830 C   0  0  0  0  0  0  0  0  0  0  0  0
  132.6410  121.1290   60.4100 C   0  0  0  0  0  0  0  0  0  0  0  0
  133.1610  119.9270   60.8830 C   0  0  0  0  0  0  0  0  0  0  0  0
  132.2970  118.9280   61.3260 C   0  0  0  0  0  0  0  0  0  0  0  0
  130.9160  119.1210   61.3020 C   0  0  0  0  0  0  0  0  0  0  0  0
  130.3960  120.3230   60.8300 C   0  0  0  0  0  0  0  0  0  0  0  0
  128.9130  126.0840   58.6640 C   0  0  0  0  0  0  0  0  0  0  0  0
  130.0920  127.0770   58.5470 C   0  0  0  0  0  0  0  0  0  0  0  0
  132.7294  132.0853   55.5961 H   0  0  0  0  0  0  0  0  0  0  0  0
  130.6873  131.9825   54.1764 H   0  0  0  0  0  0  0  0  0  0  0  0
  128.6862  130.7174   54.9616 H   0  0  0  0  0  0  0  0  0  0  0  0
  128.7304  129.5606   57.1619 H   0  0  0  0  0  0  0  0  0  0  0  0
  131.7212  128.9055   59.0823 H   0  0  0  0  0  0  0  0  0  0  0  0
  128.2522  132.6290   59.4722 H   0  0  0  0  0  0  0  0  0  0  0  0
  128.6459  131.1544   58.5136 H   0  0  0  0  0  0  0  0  0  0  0  0
  127.5827  129.8860   60.5884 H   0  0  0  0  0  0  0  0  0  0  0  0
  126.7891  131.4953   60.8747 H   0  0  0  0  0  0  0  0  0  0  0  0
  124.5935  131.4889   60.1807 H   0  0  0  0  0  0  0  0  0  0  0  0
  122.8570  130.9506   58.4701 H   0  0  0  0  0  0  0  0  0  0  0  0
  123.4853  129.6722   56.4273 H   0  0  0  0  0  0  0  0  0  0  0  0
  125.8338  128.9230   56.0796 H   0  0  0  0  0  0  0  0  0  0  0  0
  127.5729  129.4576   57.7893 H   0  0  0  0  0  0  0  0  0  0  0  0
  130.2589  127.7480   61.0588 H   0  0  0  0  0  0  0  0  0  0  0  0
  129.0761  129.1110   60.9835 H   0  0  0  0  0  0  0  0  0  0  0  0
  127.9602  127.0181   61.7220 H   0  0  0  0  0  0  0  0  0  0  0  0
  127.3426  127.5533   60.1121 H   0  0  0  0  0  0  0  0  0  0  0  0
  126.6508  125.4438   60.5695 H   0  0  0  0  0  0  0  0  0  0  0  0
  128.5238  122.5496   59.2852 H   0  0  0  0  0  0  0  0  0  0  0  0
  127.8958  121.2549   57.2582 H   0  0  0  0  0  0  0  0  0  0  0  0
  126.0792  122.0808   55.7628 H   0  0  0  0  0  0  0  0  0  0  0  0
  124.9116  124.2143   56.2878 H   0  0  0  0  0  0  0  0  0  0  0  0
  130.3402  124.6463   60.6250 H   0  0  0  0  0  0  0  0  0  0  0  0
  131.1466  123.5331   61.7921 H   0  0  0  0  0  0  0  0  0  0  0  0
  129.7660  122.4380   59.3139 H   0  0  0  0  0  0  0  0  0  0  0  0
  131.4501  123.1146   59.2330 H   0  0  0  0  0  0  0  0  0  0  0  0
  133.3182  121.9212   60.0579 H   0  0  0  0  0  0  0  0  0  0  0  0
  134.2490  119.7670   60.9068 H   0  0  0  0  0  0  0  0  0  0  0  0
  132.7079  117.9780   61.6982 H   0  0  0  0  0  0  0  0  0  0  0  0
  130.2409  118.3272   61.6543 H   0  0  0  0  0  0  0  0  0  0  0  0
  129.3077  120.4815   60.8089 H   0  0  0  0  0  0  0  0  0  0  0  0
  129.1961  125.1292   58.1969 H   0  0  0  0  0  0  0  0  0  0  0  0
  128.0366  126.5104   58.1540 H   0  0  0  0  0  0  0  0  0  0  0  0
  130.9596  126.6741   59.0900 H   0  0  0  0  0  0  0  0  0  0  0  0
  130.3387  127.2118   57.4835 H   0  0  0  0  0  0  0  0  0  0  0  0
  1  2  1  0
  2  3  2  0
  3  4  1  0
  4  5  2  0
  5  6  1  0
  6  7  2  0
  7  8  1  0
  8  9  1  0
  9 10  2  0
 10 11  1  0
 11 12  2  0
 12 13  1  0
 13 14  1  0
 14 15  1  0
 15 16  1  0
 16 17  2  0
 17 18  1  0
 18 19  2  0
 19 20  1  0
 20 21  2  0
  8 22  1  0
 22 23  1  0
 23 24  1  0
 24 25  1  0
 25 26  1  0
 26 27  1  0
 27 28  2  0
 28 29  1  0
 29 30  2  0
 30 31  1  0
 31 32  2  0
 32 33  1  0
 26 34  1  0
 34 35  2  0
 35 36  1  0
 36 37  2  0
 37 38  1  0
 38 39  1  0
 39 40  1  0
 40 41  1  0
 41 42  2  0
 42 43  1  0
 43 44  2  0
 44 45  1  0
 45 46  2  0
 25 47  1  0
 47 48  1  0
  7  2  1  0
 13  9  1  0
 21 16  1  0
 48 22  1  0
 32 27  1  0
 38 34  1  0
 46 41  1  0
  3 49  1  0
  4 50  1  0
  5 51  1  0
  6 52  1  0
  8 53  1  1
 14 54  1  0
 14 55  1  0
 15 56  1  0
 15 57  1  0
 17 58  1  0
 18 59  1  0
 19 60  1  0
 20 61  1  0
 21 62  1  0
 23 63  1  0
 23 64  1  0
 24 65  1  0
 24 66  1  0
 26 67  1  1
 28 68  1  0
 29 69  1  0
 30 70  1  0
 31 71  1  0
 39 72  1  0
 39 73  1  0
 40 74  1  0
 40 75  1  0
 42 76  1  0
 43 77  1  0
 44 78  1  0
 45 79  1  0
 46 80  1  0
 47 81  1  0
 47 82  1  0
 48 83  1  0
 48 84  1  0
M  END
>  <Binding energies>  (1) 
[-12.64]

>  <Ligand effiencies>  (1) 
[-0.26333333333333336]

>  <Interactions>  (1) 
["H-B:ALA:541:N:9863, V-B:MET:535:CE:9807, V-A:ILE:369:CG2:3236, V-B:TYR:539:CD2:9846, V-B:PRO:540:N:9856, V-A:LEU:475:CD1:4257, V-B:PRO:540:CA:9855, V-B:TYR:539:CE2:9848, V-B:TYR:539:C:9839, V-B:TYR:531:CE2:9765, V-B:TYR:531:CZ:9766, V-B:LEU:363:CD1:8160, V-A:ILE:538:CG2:4863, V-A:TYR:539:CD1:4873, V-A:PRO:540:CA:4883, V-A:TYR:539:CZ:4877, V-A:PRO:540:CB:4885, V-A:TYR:539:CE1:4875, V-A:ILE:538:CB:4862, V-B:ASP:366:CG:8184, V-B:TYR:531:CE1:9764, V-B:ASP:366:CB:8183, V-B:ASP:366:CA:8181, V-A:LEU:363:CD1:3188, V-B:ASP:366:C:8179, H-A:ALA:541:N:4891, V-A:LEU:363:CA:3184, V-A:LEU:363:CB:3186, V-B:ILE:369:CG2:8208, V-B:ILE:369:CB:8207"]

$$$$
RR14_Rahimova_2017
     RDKit          3D

 76 80  0  0  0  0  0  0  0  0999 V2000
  129.4640  130.7850   62.2320 C   0  0  0  0  0  0  0  0  0  0  0  0
  130.0960  131.8080   61.4700 O   0  0  0  0  0  0  0  0  0  0  0  0
  130.2760  131.6220   60.1130 C   0  0  0  0  0  0  0  0  0  0  0  0
  129.2560  132.0830   59.2800 C   0  0  0  0  0  0  0  0  0  0  0  0
  129.3370  131.9180   57.9010 C   0  0  0  0  0  0  0  0  0  0  0  0
  130.4460  131.2800   57.3390 C   0  0  0  0  0  0  0  0  0  0  0  0
  130.5080  131.0390   55.8350 C   0  0  0  0  0  0  0  0  0  0  0  0
  129.1960  130.8100   55.2310 N   0  0  0  0  0  0  0  0  0  0  0  0
  128.4190  131.8440   54.8890 N   0  0  0  0  0  0  0  0  0  0  0  0
  127.2680  131.2680   54.3880 N   0  0  0  0  0  0  0  0  0  0  0  0
  127.3660  129.8810   54.4410 N   0  0  0  0  0  0  0  0  0  0  0  0
  128.5420  129.6260   54.9630 C   0  0  0  0  0  0  0  0  0  0  0  0
  129.0950  128.2360   55.2440 C   0  0  0  0  0  0  0  0  0  0  0  0
  129.0560  127.8940   56.6760 N   0  0  0  0  0  0  0  0  0  0  0  0
  128.4640  126.5700   56.9080 C   0  0  0  0  0  0  0  0  0  0  0  0
  127.7230  126.4590   58.2580 C   0  0  0  0  0  0  0  0  0  0  0  0
  126.5150  125.4990   58.2250 C   0  0  0  0  0  0  0  0  0  0  0  0
  126.7290  124.3270   57.3700 N   0  0  0  0  0  0  0  0  0  0  0  0
  125.4450  123.6970   57.0370 C   0  0  0  0  0  0  0  0  0  0  0  0
  125.6380  122.4280   56.1800 C   0  0  0  0  0  0  0  0  0  0  0  0
  126.5280  121.5280   56.8320 O   0  0  0  0  0  0  0  0  0  0  0  0
  127.8110  122.1030   57.0520 C   0  0  0  0  0  0  0  0  0  0  0  0
  127.6830  123.3610   57.9380 C   0  0  0  0  0  0  0  0  0  0  0  0
  130.4090  127.9610   57.2480 C   0  0  0  0  0  0  0  0  0  0  0  0
  130.8740  126.7260   58.0170 C   0  0  0  0  0  0  0  0  0  0  0  0
  130.8380  126.6920   59.3720 C   0  0  0  0  0  0  0  0  0  0  0  0
  131.3190  125.5260   60.1410 C   0  0  0  0  0  0  0  0  0  0  0  0
  131.2790  125.4480   61.5430 C   0  0  0  0  0  0  0  0  0  0  0  0
  130.7240  126.5860   62.3900 C   0  0  0  0  0  0  0  0  0  0  0  0
  131.7580  124.2970   62.1740 C   0  0  0  0  0  0  0  0  0  0  0  0
  132.2690  123.2370   61.4280 C   0  0  0  0  0  0  0  0  0  0  0  0
  132.3110  123.3030   60.0330 C   0  0  0  0  0  0  0  0  0  0  0  0
  132.8740  122.1270   59.2450 C   0  0  0  0  0  0  0  0  0  0  0  0
  131.8330  124.4550   59.3880 C   0  0  0  0  0  0  0  0  0  0  0  0
  131.8580  124.5680   57.9820 N   0  0  0  0  0  0  0  0  0  0  0  0
  131.4290  125.6170   57.2360 C   0  0  0  0  0  0  0  0  0  0  0  0
  131.5250  125.5890   56.0090 O   0  0  0  0  0  0  0  0  0  0  0  0
  131.4860  130.8420   58.1610 C   0  0  0  0  0  0  0  0  0  0  0  0
  131.4020  131.0070   59.5400 C   0  0  0  0  0  0  0  0  0  0  0  0
  129.5930  130.9938   63.3043 H   0  0  0  0  0  0  0  0  0  0  0  0
  128.3912  130.7574   61.9903 H   0  0  0  0  0  0  0  0  0  0  0  0
  129.9194  129.8133   61.9903 H   0  0  0  0  0  0  0  0  0  0  0  0
  128.3790  132.5819   59.7181 H   0  0  0  0  0  0  0  0  0  0  0  0
  128.5289  132.2894   57.2537 H   0  0  0  0  0  0  0  0  0  0  0  0
  130.9626  131.9202   55.3587 H   0  0  0  0  0  0  0  0  0  0  0  0
  131.1035  130.1280   55.6754 H   0  0  0  0  0  0  0  0  0  0  0  0
  128.4964  127.4990   54.6886 H   0  0  0  0  0  0  0  0  0  0  0  0
  130.1477  128.2236   54.9253 H   0  0  0  0  0  0  0  0  0  0  0  0
  127.7485  126.3611   56.0990 H   0  0  0  0  0  0  0  0  0  0  0  0
  129.2898  125.8437   56.9296 H   0  0  0  0  0  0  0  0  0  0  0  0
  128.4337  126.0971   59.0156 H   0  0  0  0  0  0  0  0  0  0  0  0
  127.3322  127.4599   58.4937 H   0  0  0  0  0  0  0  0  0  0  0  0
  126.3166  125.1521   59.2498 H   0  0  0  0  0  0  0  0  0  0  0  0
  125.6658  126.0581   57.8051 H   0  0  0  0  0  0  0  0  0  0  0  0
  124.9299  123.4227   57.9694 H   0  0  0  0  0  0  0  0  0  0  0  0
  124.8501  124.4167   56.4555 H   0  0  0  0  0  0  0  0  0  0  0  0
  124.6651  121.9359   56.0343 H   0  0  0  0  0  0  0  0  0  0  0  0
  126.0631  122.7124   55.2061 H   0  0  0  0  0  0  0  0  0  0  0  0
  128.4578  121.3685   57.5541 H   0  0  0  0  0  0  0  0  0  0  0  0
  128.2493  122.3872   56.0839 H   0  0  0  0  0  0  0  0  0  0  0  0
  127.3348  123.0603   58.9372 H   0  0  0  0  0  0  0  0  0  0  0  0
  128.6696  123.8440   57.9955 H   0  0  0  0  0  0  0  0  0  0  0  0
  131.1155  128.1285   56.4217 H   0  0  0  0  0  0  0  0  0  0  0  0
  130.3781  128.7754   57.9867 H   0  0  0  0  0  0  0  0  0  0  0  0
  130.4379  127.5603   59.9160 H   0  0  0  0  0  0  0  0  0  0  0  0
  130.8432  126.3416   63.4559 H   0  0  0  0  0  0  0  0  0  0  0  0
  131.2713  127.5128   62.1629 H   0  0  0  0  0  0  0  0  0  0  0  0
  129.6568  126.7254   62.1629 H   0  0  0  0  0  0  0  0  0  0  0  0
  131.7314  124.2270   63.2714 H   0  0  0  0  0  0  0  0  0  0  0  0
  132.6430  122.3394   61.9423 H   0  0  0  0  0  0  0  0  0  0  0  0
  133.2411  121.3601   59.9429 H   0  0  0  0  0  0  0  0  0  0  0  0
  132.0836  121.6981   58.6116 H   0  0  0  0  0  0  0  0  0  0  0  0
  133.7038  122.4737   58.6116 H   0  0  0  0  0  0  0  0  0  0  0  0
  132.2370  123.8010   57.4490 H   0  0  0  0  0  0  0  0  0  0  0  0
  132.3730  130.3658   57.7178 H   0  0  0  0  0  0  0  0  0  0  0  0
  132.2207  130.6544   60.1845 H   0  0  0  0  0  0  0  0  0  0  0  0
  1  2  1  0
  2  3  1  0
  3  4  2  0
  4  5  1  0
  5  6  2  0
  6  7  1  0
  7  8  1  0
  8  9  1  0
  9 10  2  0
 10 11  1  0
 11 12  2  0
 12 13  1  0
 13 14  1  0
 14 15  1  0
 15 16  1  0
 16 17  1  0
 17 18  1  0
 18 19  1  0
 19 20  1  0
 20 21  1  0
 21 22  1  0
 22 23  1  0
 14 24  1  0
 24 25  1  0
 25 26  2  0
 26 27  1  0
 27 28  2  0
 28 29  1  0
 28 30  1  0
 30 31  2  0
 31 32  1  0
 32 33  1  0
 32 34  2  0
 34 35  1  0
 35 36  1  0
 36 37  2  0
  6 38  1  0
 38 39  2  0
 39  3  1  0
 12  8  1  0
 23 18  1  0
 36 25  1  0
 34 27  1  0
  1 40  1  0
  1 41  1  0
  1 42  1  0
  4 43  1  0
  5 44  1  0
  7 45  1  0
  7 46  1  0
 13 47  1  0
 13 48  1  0
 15 49  1  0
 15 50  1  0
 16 51  1  0
 16 52  1  0
 17 53  1  0
 17 54  1  0
 19 55  1  0
 19 56  1  0
 20 57  1  0
 20 58  1  0
 22 59  1  0
 22 60  1  0
 23 61  1  0
 23 62  1  0
 24 63  1  0
 24 64  1  0
 26 65  1  0
 29 66  1  0
 29 67  1  0
 29 68  1  0
 30 69  1  0
 31 70  1  0
 33 71  1  0
 33 72  1  0
 33 73  1  0
 35 74  1  0
 38 75  1  0
 39 76  1  0
M  END
>  <Binding energies>  (1) 
[-10.46]

>  <Ligand effiencies>  (1) 
[-0.2615]

>  <Interactions>  (1) 
["H-B:TYR:531:OH:9767, V-B:MET:535:CE:9807, V-A:ILE:369:CG2:3236, V-B:TYR:539:CD2:9846, V-B:PRO:540:N:9856, H-B:TYR:539:N:9842, V-B:TYR:539:CE2:9848, V-B:TYR:539:C:9839, V-B:TYR:531:CE2:9765, V-B:TYR:531:CZ:9766, V-B:LEU:363:CD1:8160, V-B:TYR:539:CA:9841, V-A:ASP:366:CG:3212, V-A:PRO:540:N:4884, H-B:TYR:539:OH:9850, V-A:TYR:539:CD1:4873, V-A:PRO:540:CA:4883, H-A:TYR:531:OH:4795, V-A:PRO:540:CB:4885, V-A:TYR:539:CE1:4875, H-B:LYS:534:NZ:9795, V-A:ALA:541:CB:4892, V-A:PRO:540:C:4881, V-A:TYR:539:C:4867, V-A:GLU:543:CG:4907, V-A:GLU:543:CD:4908, V-B:TYR:539:CZ:9849, H-A:TYR:539:OH:4878, V-B:TYR:539:CG:9844, V-B:TYR:539:CE1:9847, V-B:TYR:539:CD1:9845, H-A:ALA:541:N:4891"]

$$$$
RR15_Rahimova_2017
     RDKit          3D

 85 89  0  0  0  0  0  0  0  0999 V2000
  134.0770  120.5470   61.4700 C   0  0  0  0  0  0  0  0  0  0  0  0
  133.7640  121.9200   61.6800 O   0  0  0  0  0  0  0  0  0  0  0  0
  133.3140  122.6860   60.6190 C   0  0  0  0  0  0  0  0  0  0  0  0
  134.1470  123.5090   59.8450 C   0  0  0  0  0  0  0  0  0  0  0  0
  133.6290  124.2570   58.7910 C   0  0  0  0  0  0  0  0  0  0  0  0
  132.2660  124.2070   58.4810 C   0  0  0  0  0  0  0  0  0  0  0  0
  131.7050  125.0200   57.3470 C   0  0  0  0  0  0  0  0  0  0  0  0
  132.4320  125.4040   56.3060 N   0  0  0  0  0  0  0  0  0  0  0  0
  131.5830  126.1280   55.4930 N   0  0  0  0  0  0  0  0  0  0  0  0
  130.4110  126.0630   56.1260 N   0  0  0  0  0  0  0  0  0  0  0  0
  129.2520  126.8400   55.6910 C   0  0  0  0  0  0  0  0  0  0  0  0
  128.9400  128.0840   56.5610 C   0  0  0  0  0  0  0  0  0  0  0  0
  129.8280  128.9260   56.7130 O   0  0  0  0  0  0  0  0  0  0  0  0
  127.6940  128.2320   57.1070 N   0  0  0  0  0  0  0  0  0  0  0  0
  127.3150  127.5380   58.3540 C   0  0  0  0  0  0  0  0  0  0  0  0
  126.0320  126.6900   58.2230 C   0  0  0  0  0  0  0  0  0  0  0  0
  126.1580  125.2380   58.7420 C   0  0  0  0  0  0  0  0  0  0  0  0
  126.5420  124.2730   57.7060 N   0  0  0  0  0  0  0  0  0  0  0  0
  127.6370  123.3790   58.1120 C   0  0  0  0  0  0  0  0  0  0  0  0
  127.9430  122.3300   57.0230 C   0  0  0  0  0  0  0  0  0  0  0  0
  126.7610  121.6130   56.6850 O   0  0  0  0  0  0  0  0  0  0  0  0
  125.7320  122.4650   56.1920 C   0  0  0  0  0  0  0  0  0  0  0  0
  125.3630  123.5170   57.2610 C   0  0  0  0  0  0  0  0  0  0  0  0
  126.6960  129.2330   56.6190 C   0  0  2  0  0  0  0  0  0  0  0  0
  127.1870  130.0800   55.4030 C   0  0  0  0  0  0  0  0  0  0  0  0
  126.5580  130.0950   54.3450 O   0  0  0  0  0  0  0  0  0  0  0  0
  128.2990  130.8060   55.6110 N   0  0  0  0  0  0  0  0  0  0  0  0
  128.8830  131.7460   54.6600 C   0  0  0  0  0  0  0  0  0  0  0  0
  130.1250  132.4380   55.2530 C   0  0  2  0  0  0  0  0  0  0  0  0
  131.4410  131.6500   55.1300 C   0  0  0  0  0  0  0  0  0  0  0  0
  131.6500  131.0460   56.4970 C   0  0  0  0  0  0  0  0  0  0  0  0
  131.0560  132.1190   57.3930 C   0  0  0  0  0  0  0  0  0  0  0  0
  129.8990  132.5200   56.6670 O   0  0  0  0  0  0  0  0  0  0  0  0
  126.0700  129.9830   57.7890 C   0  0  0  0  0  0  0  0  0  0  0  0
  124.6730  130.0120   57.8820 C   0  0  0  0  0  0  0  0  0  0  0  0
  124.0460  130.6820   58.9290 C   0  0  0  0  0  0  0  0  0  0  0  0
  124.8130  131.3280   59.8940 C   0  0  0  0  0  0  0  0  0  0  0  0
  124.2040  131.9770   60.9110 F   0  0  0  0  0  0  0  0  0  0  0  0
  126.2030  131.3080   59.8190 C   0  0  0  0  0  0  0  0  0  0  0  0
  126.8300  130.6390   58.7710 C   0  0  0  0  0  0  0  0  0  0  0  0
  130.4480  125.4210   57.3000 N   0  0  0  0  0  0  0  0  0  0  0  0
  131.4370  123.3840   59.2530 C   0  0  0  0  0  0  0  0  0  0  0  0
  131.9460  122.6200   60.3180 C   0  0  0  0  0  0  0  0  0  0  0  0
  131.1680  121.7900   61.1070 O   0  0  0  0  0  0  0  0  0  0  0  0
  129.7930  121.6030   60.7890 C   0  0  0  0  0  0  0  0  0  0  0  0
  134.1916  120.0443   62.4417 H   0  0  0  0  0  0  0  0  0  0  0  0
  133.2649  120.0684   60.9030 H   0  0  0  0  0  0  0  0  0  0  0  0
  135.0163  120.4676   60.9030 H   0  0  0  0  0  0  0  0  0  0  0  0
  135.2216  123.5637   60.0738 H   0  0  0  0  0  0  0  0  0  0  0  0
  134.2992  124.8944   58.1955 H   0  0  0  0  0  0  0  0  0  0  0  0
  129.4349  127.1799   54.6610 H   0  0  0  0  0  0  0  0  0  0  0  0
  128.3813  126.1736   55.7799 H   0  0  0  0  0  0  0  0  0  0  0  0
  128.1418  126.8748   58.6481 H   0  0  0  0  0  0  0  0  0  0  0  0
  127.1135  128.3141   59.1070 H   0  0  0  0  0  0  0  0  0  0  0  0
  125.2329  127.1884   58.7914 H   0  0  0  0  0  0  0  0  0  0  0  0
  125.8181  126.6165   57.1465 H   0  0  0  0  0  0  0  0  0  0  0  0
  126.9198  125.2176   59.5352 H   0  0  0  0  0  0  0  0  0  0  0  0
  125.1642  124.9396   59.1070 H   0  0  0  0  0  0  0  0  0  0  0  0
  128.5404  123.9798   58.2936 H   0  0  0  0  0  0  0  0  0  0  0  0
  127.3294  122.8489   59.0254 H   0  0  0  0  0  0  0  0  0  0  0  0
  128.3283  122.8384   56.1269 H   0  0  0  0  0  0  0  0  0  0  0  0
  128.6940  121.6235   57.4062 H   0  0  0  0  0  0  0  0  0  0  0  0
  126.0853  122.9760   55.2842 H   0  0  0  0  0  0  0  0  0  0  0  0
  124.8434  121.8608   55.9568 H   0  0  0  0  0  0  0  0  0  0  0  0
  124.6300  124.2175   56.8343 H   0  0  0  0  0  0  0  0  0  0  0  0
  124.9434  122.9907   58.1310 H   0  0  0  0  0  0  0  0  0  0  0  0
  125.8555  128.6956   56.1555 H   0  0  0  0  0  0  0  0  0  0  0  0
  128.7420  130.7600   56.5180 H   0  0  0  0  0  0  0  0  0  0  0  0
  129.1757  131.2011   53.7504 H   0  0  0  0  0  0  0  0  0  0  0  0
  128.1333  132.5161   54.4260 H   0  0  0  0  0  0  0  0  0  0  0  0
  130.2389  133.3860   54.7068 H   0  0  0  0  0  0  0  0  0  0  0  0
  131.3528  130.8629   54.3667 H   0  0  0  0  0  0  0  0  0  0  0  0
  132.2827  132.2876   54.8217 H   0  0  0  0  0  0  0  0  0  0  0  0
  131.1128  130.0918   56.6016 H   0  0  0  0  0  0  0  0  0  0  0  0
  132.6977  130.7998   56.7243 H   0  0  0  0  0  0  0  0  0  0  0  0
  130.7856  131.7099   58.3777 H   0  0  0  0  0  0  0  0  0  0  0  0
  131.7491  132.9463   57.6056 H   0  0  0  0  0  0  0  0  0  0  0  0
  124.0655  129.5007   57.1208 H   0  0  0  0  0  0  0  0  0  0  0  0
  122.9480  130.7007   58.9933 H   0  0  0  0  0  0  0  0  0  0  0  0
  126.8042  131.8192   60.5853 H   0  0  0  0  0  0  0  0  0  0  0  0
  127.9283  130.6242   58.7119 H   0  0  0  0  0  0  0  0  0  0  0  0
  130.3629  123.3340   59.0210 H   0  0  0  0  0  0  0  0  0  0  0  0
  129.2093  121.5236   61.7180 H   0  0  0  0  0  0  0  0  0  0  0  0
  129.4326  122.4604   60.2017 H   0  0  0  0  0  0  0  0  0  0  0  0
  129.6747  120.6805   60.2017 H   0  0  0  0  0  0  0  0  0  0  0  0
  1  2  1  0
  2  3  1  0
  3  4  2  0
  4  5  1  0
  5  6  2  0
  6  7  1  0
  7  8  1  0
  8  9  2  0
  9 10  1  0
 10 11  1  0
 11 12  1  0
 12 13  2  0
 12 14  1  0
 14 15  1  0
 15 16  1  0
 16 17  1  0
 17 18  1  0
 18 19  1  0
 19 20  1  0
 20 21  1  0
 21 22  1  0
 22 23  1  0
 14 24  1  0
 24 25  1  0
 25 26  2  0
 25 27  1  0
 27 28  1  0
 28 29  1  0
 29 30  1  0
 30 31  1  0
 31 32  1  0
 32 33  1  0
 24 34  1  0
 34 35  2  0
 35 36  1  0
 36 37  2  0
 37 38  1  0
 37 39  1  0
 39 40  2  0
 10 41  1  0
  6 42  1  0
 42 43  2  0
 43 44  1  0
 44 45  1  0
 43  3  1  0
 41  7  2  0
 23 18  1  0
 33 29  1  0
 40 34  1  0
  1 46  1  0
  1 47  1  0
  1 48  1  0
  4 49  1  0
  5 50  1  0
 11 51  1  0
 11 52  1  0
 15 53  1  0
 15 54  1  0
 16 55  1  0
 16 56  1  0
 17 57  1  0
 17 58  1  0
 19 59  1  0
 19 60  1  0
 20 61  1  0
 20 62  1  0
 22 63  1  0
 22 64  1  0
 23 65  1  0
 23 66  1  0
 24 67  1  6
 27 68  1  0
 28 69  1  0
 28 70  1  0
 29 71  1  6
 30 72  1  0
 30 73  1  0
 31 74  1  0
 31 75  1  0
 32 76  1  0
 32 77  1  0
 35 78  1  0
 36 79  1  0
 39 80  1  0
 40 81  1  0
 42 82  1  0
 45 83  1  0
 45 84  1  0
 45 85  1  0
M  END
>  <Binding energies>  (1) 
[-11.12]

>  <Ligand effiencies>  (1) 
[-0.2417391304347826]

>  <Interactions>  (1) 
["H-B:TYR:531:OH:9767, V-B:MET:535:CE:9807, V-A:ILE:369:CG2:3236, V-B:TYR:539:CD2:9846, V-B:PRO:540:N:9856, V-A:LEU:475:CD1:4257, H-B:TYR:539:N:9842, V-B:TYR:539:CE2:9848, V-B:TYR:539:C:9839, V-B:TYR:531:CE2:9765, V-B:TYR:531:CZ:9766, V-B:LEU:363:CD1:8160, V-A:ASP:366:CG:3212, V-A:PRO:540:N:4884, V-A:ILE:538:CA:4860, V-A:ASP:366:CA:3209, V-A:ASP:366:CB:3211, V-A:ILE:538:CG2:4863, V-A:ASP:366:C:3207, H-B:TYR:539:OH:9850, V-A:TYR:539:CD1:4873, V-A:TYR:539:CE2:4876, V-A:PRO:540:CA:4883, H-A:TYR:531:OH:4795, H-A:TYR:539:N:4870, V-A:TYR:539:CZ:4877, V-A:PRO:540:CB:4885, V-A:TYR:539:CE1:4875, V-A:TYR:531:CZ:4794, V-A:ILE:538:CB:4862, V-B:ASP:366:CG:8184, V-B:TYR:531:CE1:9764, H-B:LYS:534:NZ:9795, V-B:ASP:366:CB:8183, V-A:PRO:540:CD:4887, V-B:ASP:366:CA:8181, V-A:TYR:539:C:4867, V-A:LEU:363:CD1:3188, V-B:ILE:369:CD1:8210, V-B:ASP:366:C:8179, V-A:ILE:369:CD1:3238, V-B:TYR:539:CZ:9849, H-A:TYR:539:OH:4878, V-A:ILE:369:CB:3235, V-A:SER:385:C:3404, V-B:TYR:539:CG:9844, V-B:TYR:539:CE1:9847, V-B:TYR:539:CD1:9845, V-A:ILE:538:C:4858, V-A:TYR:531:CE2:4793, V-B:ILE:369:CG2:8208, V-B:ILE:369:CB:8207"]

$$$$
RR16_Rahimova_2017
     RDKit          3D

 80 85  0  0  0  0  0  0  0  0999 V2000
  132.9080  122.6370   64.2010 O   0  0  0  0  0  0  0  0  0  0  0  0
  133.4700  123.1790   62.9580 S   0  0  0  0  0  0  0  0  0  0  0  0
  134.7310  122.6610   62.4140 O   0  0  0  0  0  0  0  0  0  0  0  0
  133.6380  124.9230   63.1660 N   0  0  0  0  0  0  0  0  0  0  0  0
  132.7360  125.6720   64.0730 C   0  0  0  0  0  0  0  0  0  0  0  0
  131.2690  125.2570   63.7890 C   0  0  0  0  0  0  0  0  0  0  0  0
  130.1810  125.8170   64.7260 C   0  0  0  0  0  0  0  0  0  0  0  0
  130.1710  125.1740   66.1240 C   0  0  0  0  0  0  0  0  0  0  0  0
  131.1720  125.7580   67.1380 C   0  0  0  0  0  0  0  0  0  0  0  0
  132.4920  126.3240   66.5790 C   0  0  0  0  0  0  0  0  0  0  0  0
  133.2210  125.4650   65.5270 C   0  0  0  0  0  0  0  0  0  0  0  0
  132.2120  122.9990   61.6990 C   0  0  0  0  0  0  0  0  0  0  0  0
  132.4100  123.5330   60.4240 C   0  0  0  0  0  0  0  0  0  0  0  0
  131.3760  123.4930   59.4920 C   0  0  0  0  0  0  0  0  0  0  0  0
  130.1510  122.9210   59.8400 C   0  0  0  0  0  0  0  0  0  0  0  0
  128.7750  122.9950   58.6940 S   0  0  0  0  0  0  0  0  0  0  0  0
  127.5410  122.8930   59.4840 O   0  0  0  0  0  0  0  0  0  0  0  0
  129.0480  122.0360   57.6170 O   0  0  0  0  0  0  0  0  0  0  0  0
  128.8660  124.6310   58.0130 N   0  0  0  0  0  0  0  0  0  0  0  0
  129.3730  124.6900   56.6180 C   0  0  0  0  0  0  0  0  0  0  0  0
  129.7110  126.1430   56.2270 C   0  0  0  0  0  0  0  0  0  0  0  0
  128.5160  127.0970   56.4770 C   0  0  0  0  0  0  0  0  0  0  0  0
  128.8460  128.5530   56.1380 C   0  0  0  0  0  0  0  0  0  0  0  0
  127.9180  129.3310   55.4310 C   0  0  0  0  0  0  0  0  0  0  0  0
  128.1740  130.6640   55.1080 C   0  0  0  0  0  0  0  0  0  0  0  0
  127.2530  131.4100   54.4190 O   0  0  0  0  0  0  0  0  0  0  0  0
  129.3970  131.2210   55.5130 C   0  0  0  0  0  0  0  0  0  0  0  0
  129.9040  132.4790   55.3590 N   0  0  0  0  0  0  0  0  0  0  0  0
  131.1370  132.5070   55.9730 N   0  0  0  0  0  0  0  0  0  0  0  0
  131.4000  131.2770   56.4560 N   0  0  0  0  0  0  0  0  0  0  0  0
  132.6080  131.0380   57.2350 C   0  0  0  0  0  0  0  0  0  0  0  0
  132.3700  131.1370   58.7350 C   0  0  0  0  0  0  0  0  0  0  0  0
  133.4480  131.0600   59.6240 C   0  0  0  0  0  0  0  0  0  0  0  0
  133.2340  131.1730   60.9980 C   0  0  0  0  0  0  0  0  0  0  0  0
  131.9430  131.3650   61.4910 C   0  0  0  0  0  0  0  0  0  0  0  0
  130.8650  131.4460   60.6100 C   0  0  0  0  0  0  0  0  0  0  0  0
  129.2680  131.6940   61.2160 Cl  0  0  0  0  0  0  0  0  0  0  0  0
  131.0770  131.3280   59.2350 C   0  0  0  0  0  0  0  0  0  0  0  0
  130.3310  130.4280   56.2200 C   0  0  0  0  0  0  0  0  0  0  0  0
  130.0780  129.0900   56.5410 C   0  0  0  0  0  0  0  0  0  0  0  0
  127.9180  126.9320   57.8980 C   0  0  0  0  0  0  0  0  0  0  0  0
  127.6480  125.4530   58.2400 C   0  0  0  0  0  0  0  0  0  0  0  0
  129.9690  122.3510   61.1020 C   0  0  0  0  0  0  0  0  0  0  0  0
  131.0000  122.3930   62.0340 C   0  0  0  0  0  0  0  0  0  0  0  0
  134.5670  125.3230   63.0140 H   0  0  0  0  0  0  0  0  0  0  0  0
  132.7646  126.7578   63.8993 H   0  0  0  0  0  0  0  0  0  0  0  0
  131.0252  125.5839   62.7674 H   0  0  0  0  0  0  0  0  0  0  0  0
  131.2474  124.1691   63.9503 H   0  0  0  0  0  0  0  0  0  0  0  0
  130.3476  126.8980   64.8431 H   0  0  0  0  0  0  0  0  0  0  0  0
  129.2106  125.5872   64.2618 H   0  0  0  0  0  0  0  0  0  0  0  0
  129.1603  125.2911   66.5420 H   0  0  0  0  0  0  0  0  0  0  0  0
  130.4748  124.1276   65.9735 H   0  0  0  0  0  0  0  0  0  0  0  0
  130.6630  126.5730   67.6735 H   0  0  0  0  0  0  0  0  0  0  0  0
  131.4721  124.9045   67.7637 H   0  0  0  0  0  0  0  0  0  0  0  0
  132.2690  127.2977   66.1183 H   0  0  0  0  0  0  0  0  0  0  0  0
  133.1753  126.3699   67.4398 H   0  0  0  0  0  0  0  0  0  0  0  0
  134.2927  125.7093   65.5685 H   0  0  0  0  0  0  0  0  0  0  0  0
  133.0054  124.4163   65.7795 H   0  0  0  0  0  0  0  0  0  0  0  0
  133.3777  123.9829   60.1572 H   0  0  0  0  0  0  0  0  0  0  0  0
  131.5240  123.9106   58.4852 H   0  0  0  0  0  0  0  0  0  0  0  0
  130.2798  124.0728   56.5360 H   0  0  0  0  0  0  0  0  0  0  0  0
  128.5939  124.3113   55.9401 H   0  0  0  0  0  0  0  0  0  0  0  0
  130.5694  126.4826   56.8253 H   0  0  0  0  0  0  0  0  0  0  0  0
  129.9464  126.1629   55.1527 H   0  0  0  0  0  0  0  0  0  0  0  0
  127.7249  126.7957   55.7746 H   0  0  0  0  0  0  0  0  0  0  0  0
  126.9637  128.8788   55.1231 H   0  0  0  0  0  0  0  0  0  0  0  0
  126.3640  131.3340   54.7710 H   0  0  0  0  0  0  0  0  0  0  0  0
  132.9817  130.0296   57.0040 H   0  0  0  0  0  0  0  0  0  0  0  0
  133.3375  131.8150   56.9628 H   0  0  0  0  0  0  0  0  0  0  0  0
  134.4672  130.9099   59.2383 H   0  0  0  0  0  0  0  0  0  0  0  0
  134.0840  131.1107   61.6934 H   0  0  0  0  0  0  0  0  0  0  0  0
  131.7755  131.4525   62.5746 H   0  0  0  0  0  0  0  0  0  0  0  0
  130.2245  131.3854   58.5422 H   0  0  0  0  0  0  0  0  0  0  0  0
  130.8153  128.4834   57.0873 H   0  0  0  0  0  0  0  0  0  0  0  0
  128.6267  127.3431   58.6320 H   0  0  0  0  0  0  0  0  0  0  0  0
  126.9588  127.4696   57.9287 H   0  0  0  0  0  0  0  0  0  0  0  0
  127.3512  125.3749   59.2963 H   0  0  0  0  0  0  0  0  0  0  0  0
  126.8432  125.0804   57.5892 H   0  0  0  0  0  0  0  0  0  0  0  0
  129.0132  121.8704   61.3578 H   0  0  0  0  0  0  0  0  0  0  0  0
  130.8611  121.9504   63.0314 H   0  0  0  0  0  0  0  0  0  0  0  0
  1  2  2  0
  2  3  2  0
  2  4  1  0
  4  5  1  0
  5  6  1  0
  6  7  1  0
  7  8  1  0
  8  9  1  0
  9 10  1  0
 10 11  1  0
  2 12  1  0
 12 13  2  0
 13 14  1  0
 14 15  2  0
 15 16  1  0
 16 17  2  0
 16 18  2  0
 16 19  1  0
 19 20  1  0
 20 21  1  0
 21 22  1  0
 22 23  1  0
 23 24  2  0
 24 25  1  0
 25 26  1  0
 25 27  2  0
 27 28  1  0
 28 29  2  0
 29 30  1  0
 30 31  1  0
 31 32  1  0
 32 33  2  0
 33 34  1  0
 34 35  2  0
 35 36  1  0
 36 37  1  0
 36 38  2  0
 30 39  1  0
 39 40  2  0
 22 41  1  0
 41 42  1  0
 15 43  1  0
 43 44  2  0
 11  5  1  0
 44 12  1  0
 42 19  1  0
 40 23  1  0
 39 27  1  0
 38 32  1  0
  4 45  1  0
  5 46  1  0
  6 47  1  0
  6 48  1  0
  7 49  1  0
  7 50  1  0
  8 51  1  0
  8 52  1  0
  9 53  1  0
  9 54  1  0
 10 55  1  0
 10 56  1  0
 11 57  1  0
 11 58  1  0
 13 59  1  0
 14 60  1  0
 20 61  1  0
 20 62  1  0
 21 63  1  0
 21 64  1  0
 22 65  1  0
 24 66  1  0
 26 67  1  0
 31 68  1  0
 31 69  1  0
 33 70  1  0
 34 71  1  0
 35 72  1  0
 38 73  1  0
 40 74  1  0
 41 75  1  0
 41 76  1  0
 42 77  1  0
 42 78  1  0
 43 79  1  0
 44 80  1  0
M  END
>  <Binding energies>  (1) 
[-12.07]

>  <Ligand effiencies>  (1) 
[-0.25145833333333334]

>  <Interactions>  (1) 
["V-B:MET:535:CE:9807, V-B:TYR:539:CE2:9848, H-A:TYR:484:OH:4347, V-A:ASP:366:CG:3212, H-A:GLY:454:N:4049, V-A:PRO:540:N:4884, V-A:PRO:540:CA:4883, H-A:TYR:539:N:4870, V-A:TYR:539:CZ:4877, V-A:PRO:540:CB:4885, V-A:TYR:539:CE1:4875, V-B:TYR:531:CE1:9764, H-B:LYS:534:NZ:9795, V-A:ALA:541:CB:4892, V-A:PRO:540:C:4881, V-A:LEU:363:CD1:3188, V-A:GLU:543:CD:4908, V-B:TYR:539:CZ:9849, H-A:TYR:539:OH:4878, H-A:ARG:545:NH2:4928, V-A:TYR:484:CZ:4346, V-A:HIS:456:CE1:4069, V-A:ARG:545:CD:4923, V-B:GLU:543:CG:9879, V-A:ARG:545:CG:4922, V-A:ARG:545:CZ:4926, H-A:ARG:545:NH1:4927, V-A:TYR:484:CE2:4345, V-A:LEU:363:CA:3184, V-A:GLY:454:CA:4048, V-A:ASN:362:CB:3175, V-A:ASN:362:C:3171, H-A:ASP:366:OD1:3213, H-B:ASN:370:OD1:8218"]

$$$$
RR17_Rahimova_2017
     RDKit          3D

 63 66  0  0  0  0  0  0  0  0999 V2000
  130.6730  117.1610   59.9350 C   0  0  0  0  0  0  0  0  0  0  0  0
  131.3510  117.6440   61.2200 C   0  0  0  0  0  0  0  0  0  0  0  0
  132.5730  118.2910   60.8770 O   0  0  0  0  0  0  0  0  0  0  0  0
  132.5900  119.6630   60.7090 C   0  0  0  0  0  0  0  0  0  0  0  0
  133.7690  120.3190   61.0580 C   0  0  0  0  0  0  0  0  0  0  0  0
  133.8790  121.7000   60.9250 C   0  0  0  0  0  0  0  0  0  0  0  0
  132.8040  122.4570   60.4380 C   0  0  0  0  0  0  0  0  0  0  0  0
  132.9520  123.9450   60.3040 C   0  0  0  0  0  0  0  0  0  0  0  0
  133.1690  124.4930   59.2190 O   0  0  0  0  0  0  0  0  0  0  0  0
  132.8360  124.7810   61.5980 C   0  0  0  0  0  0  0  0  0  0  0  0
  133.8290  124.0770   62.9640 S   0  0  0  0  0  0  0  0  0  0  0  0
  132.9620  124.7560   64.3510 C   0  0  0  0  0  0  0  0  0  0  0  0
  133.5150  125.4060   65.3480 N   0  0  0  0  0  0  0  0  0  0  0  0
  132.5040  125.7800   66.2250 N   0  0  0  0  0  0  0  0  0  0  0  0
  131.3760  125.3450   65.7210 C   0  0  0  0  0  0  0  0  0  0  0  0
  130.0100  125.5500   66.3580 C   0  0  0  0  0  0  0  0  0  0  0  0
  129.8390  126.8610   66.9790 N   0  0  0  0  0  0  0  0  0  0  0  0
  129.6250  127.0510   68.3560 C   0  0  0  0  0  0  0  0  0  0  0  0
  128.9910  126.0240   69.0550 C   0  0  0  0  0  0  0  0  0  0  0  0
  128.7440  126.1490   70.4190 C   0  0  0  0  0  0  0  0  0  0  0  0
  129.1320  127.3050   71.1020 C   0  0  0  0  0  0  0  0  0  0  0  0
  128.8470  127.4290   72.5990 C   0  0  0  0  0  0  0  0  0  0  0  0
  129.9210  127.1530   73.3420 F   0  0  0  0  0  0  0  0  0  0  0  0
  128.4480  128.6670   72.8960 F   0  0  0  0  0  0  0  0  0  0  0  0
  127.8780  126.5760   72.9310 F   0  0  0  0  0  0  0  0  0  0  0  0
  129.7750  128.3330   70.4050 C   0  0  0  0  0  0  0  0  0  0  0  0
  130.0230  128.2060   69.0410 C   0  0  0  0  0  0  0  0  0  0  0  0
  131.5970  124.6740   64.5360 N   0  0  0  0  0  0  0  0  0  0  0  0
  130.6460  124.0760   63.6960 C   0  0  0  0  0  0  0  0  0  0  0  0
  130.6480  122.6910   63.5320 C   0  0  0  0  0  0  0  0  0  0  0  0
  129.7060  122.0980   62.6960 C   0  0  0  0  0  0  0  0  0  0  0  0
  128.7600  122.8880   62.0220 C   0  0  0  0  0  0  0  0  0  0  0  0
  127.7900  122.3870   61.1750 O   0  0  0  0  0  0  0  0  0  0  0  0
  126.5890  123.1270   60.9800 C   0  0  0  0  0  0  0  0  0  0  0  0
  128.7750  124.2730   62.1970 C   0  0  0  0  0  0  0  0  0  0  0  0
  129.7130  124.8730   63.0320 C   0  0  0  0  0  0  0  0  0  0  0  0
  131.6180  121.7960   60.0870 C   0  0  0  0  0  0  0  0  0  0  0  0
  131.5100  120.4140   60.2200 C   0  0  0  0  0  0  0  0  0  0  0  0
  129.8017  116.5403   60.1911 H   0  0  0  0  0  0  0  0  0  0  0  0
  130.3440  118.0293   59.3453 H   0  0  0  0  0  0  0  0  0  0  0  0
  131.3862  116.5663   59.3453 H   0  0  0  0  0  0  0  0  0  0  0  0
  130.6913  118.3522   61.7427 H   0  0  0  0  0  0  0  0  0  0  0  0
  131.5530  116.7885   61.8813 H   0  0  0  0  0  0  0  0  0  0  0  0
  134.6212  119.7394   61.4425 H   0  0  0  0  0  0  0  0  0  0  0  0
  134.8172  122.2018   61.2043 H   0  0  0  0  0  0  0  0  0  0  0  0
  133.1887  125.8025   61.3930 H   0  0  0  0  0  0  0  0  0  0  0  0
  131.7811  124.7779   61.9097 H   0  0  0  0  0  0  0  0  0  0  0  0
  129.2429  125.4330   65.5784 H   0  0  0  0  0  0  0  0  0  0  0  0
  129.9147  124.8018   67.1587 H   0  0  0  0  0  0  0  0  0  0  0  0
  129.6620  127.6440   66.3670 H   0  0  0  0  0  0  0  0  0  0  0  0
  128.6844  125.1100   68.5252 H   0  0  0  0  0  0  0  0  0  0  0  0
  128.2414  125.3348   70.9616 H   0  0  0  0  0  0  0  0  0  0  0  0
  130.0857  129.2447   70.9362 H   0  0  0  0  0  0  0  0  0  0  0  0
  130.5335  129.0158   68.4992 H   0  0  0  0  0  0  0  0  0  0  0  0
  131.3885  122.0717   64.0594 H   0  0  0  0  0  0  0  0  0  0  0  0
  129.7024  121.0061   62.5626 H   0  0  0  0  0  0  0  0  0  0  0  0
  126.1589  123.3920   61.9571 H   0  0  0  0  0  0  0  0  0  0  0  0
  126.8114  124.0449   60.4161 H   0  0  0  0  0  0  0  0  0  0  0  0
  125.8691  122.5156   60.4161 H   0  0  0  0  0  0  0  0  0  0  0  0
  128.0380  124.8964   61.6696 H   0  0  0  0  0  0  0  0  0  0  0  0
  129.7187  125.9647   63.1671 H   0  0  0  0  0  0  0  0  0  0  0  0
  130.7650  122.3747   59.7030 H   0  0  0  0  0  0  0  0  0  0  0  0
  130.5738  119.9086   59.9405 H   0  0  0  0  0  0  0  0  0  0  0  0
  1  2  1  0
  2  3  1  0
  3  4  1  0
  4  5  2  0
  5  6  1  0
  6  7  2  0
  7  8  1  0
  8  9  2  0
  8 10  1  0
 10 11  1  0
 11 12  1  0
 12 13  2  0
 13 14  1  0
 14 15  2  0
 15 16  1  0
 16 17  1  0
 17 18  1  0
 18 19  2  0
 19 20  1  0
 20 21  2  0
 21 22  1  0
 22 23  1  0
 22 24  1  0
 22 25  1  0
 21 26  1  0
 26 27  2  0
 15 28  1  0
 28 29  1  0
 29 30  2  0
 30 31  1  0
 31 32  2  0
 32 33  1  0
 33 34  1  0
 32 35  1  0
 35 36  2  0
  7 37  1  0
 37 38  2  0
 38  4  1  0
 28 12  1  0
 36 29  1  0
 27 18  1  0
  1 39  1  0
  1 40  1  0
  1 41  1  0
  2 42  1  0
  2 43  1  0
  5 44  1  0
  6 45  1  0
 10 46  1  0
 10 47  1  0
 16 48  1  0
 16 49  1  0
 17 50  1  0
 19 51  1  0
 20 52  1  0
 26 53  1  0
 27 54  1  0
 30 55  1  0
 31 56  1  0
 34 57  1  0
 34 58  1  0
 34 59  1  0
 35 60  1  0
 36 61  1  0
 37 62  1  0
 38 63  1  0
M  END
>  <Binding energies>  (1) 
[-8.67]

>  <Ligand effiencies>  (1) 
[-0.22230769230769232]

>  <Interactions>  (1) 
["H-B:ALA:541:N:9863, V-B:PRO:540:CB:9857, V-A:ILE:369:CG2:3236, V-B:TYR:539:CD2:9846, V-A:LEU:475:CD1:4257, V-B:PRO:540:CA:9855, H-A:SER:385:OG:3409, H-A:HIS:383:NE2:3393, V-B:ALA:541:CB:9864, V-B:TYR:539:CE2:9848, V-B:TYR:539:C:9839, V-A:PRO:482:CG:4326, V-A:PRO:482:CB:4325, H-A:TYR:484:OH:4347, V-A:ASP:366:CG:3212, H-A:GLY:454:N:4049, V-A:GLU:543:CD:4908, V-A:ILE:369:CD1:3238, H-A:ARG:545:NH2:4928, V-A:GLU:543:C:4902, V-B:HIS:456:CE1:9041, V-A:TYR:484:CZ:4346, V-A:HIS:456:CE1:4069, V-B:GLU:543:CB:9878, V-B:GLU:543:CG:9879, V-B:GLU:543:CD:9880, H-A:ARG:545:NE:4924, V-A:ARG:545:CZ:4926, V-A:GLU:543:CB:4906, V-B:GLU:543:C:9874, H-A:GLU:543:OE1:4909, V-B:TYR:539:CB:9843, V-A:HIS:383:CE1:3392, V-B:HIS:456:CD2:9039, V-B:HIS:456:CG:9037"]

$$$$
RR18_Rahimova_2017
     RDKit          3D

 56 61  0  0  0  0  0  0  0  0999 V2000
  134.6800  123.8620   60.3740 C   0  0  0  0  0  0  0  0  0  0  0  0
  133.3750  124.1770   59.6870 C   0  0  0  0  0  0  0  0  0  0  0  0
  132.9710  124.2360   58.3630 C   0  0  0  0  0  0  0  0  0  0  0  0
  131.6220  124.5880   58.3690 C   0  0  0  0  0  0  0  0  0  0  0  0
  131.2500  124.7310   59.6960 C   0  0  0  0  0  0  0  0  0  0  0  0
  129.9410  125.0890   60.3950 C   0  0  1  0  0  0  0  0  0  0  0  0
  129.7240  124.2300   61.6770 C   0  0  0  0  0  0  0  0  0  0  0  0
  129.5360  122.7860   61.5750 C   0  0  0  0  0  0  0  0  0  0  0  0
  128.4150  122.2740   61.5980 O   0  0  0  0  0  0  0  0  0  0  0  0
  130.6860  122.0850   61.4410 N   0  0  0  0  0  0  0  0  0  0  0  0
  130.9000  120.6940   61.3370 C   0  0  0  0  0  0  0  0  0  0  0  0
  129.8620  119.7450   61.3690 C   0  0  0  0  0  0  0  0  0  0  0  0
  130.1410  118.3840   61.2680 C   0  0  0  0  0  0  0  0  0  0  0  0
  131.4570  117.9490   61.1400 C   0  0  0  0  0  0  0  0  0  0  0  0
  132.4960  118.8760   61.1190 C   0  0  0  0  0  0  0  0  0  0  0  0
  132.2310  120.2450   61.2180 C   0  0  0  0  0  0  0  0  0  0  0  0
  133.4060  121.2190   61.1940 C   0  0  0  0  0  0  0  0  0  0  0  0
  129.8180  124.8400   62.8870 C   0  0  0  0  0  0  0  0  0  0  0  0
  129.9720  126.1800   63.0730 N   0  0  0  0  0  0  0  0  0  0  0  0
  129.9520  126.9630   62.0580 C   0  0  0  0  0  0  0  0  0  0  0  0
  129.9860  128.7080   62.1500 S   0  0  0  0  0  0  0  0  0  0  0  0
  129.8900  128.8570   60.3670 C   0  0  0  0  0  0  0  0  0  0  0  0
  129.8640  130.0210   59.6290 C   0  0  0  0  0  0  0  0  0  0  0  0
  129.8340  131.3270   60.3030 C   0  0  0  0  0  0  0  0  0  0  0  0
  129.8530  131.5990   61.5030 O   0  0  0  0  0  0  0  0  0  0  0  0
  129.7590  132.2640   59.3530 N   0  0  0  0  0  0  0  0  0  0  0  0
  129.7690  131.7460   58.0930 C   0  0  0  0  0  0  0  0  0  0  0  0
  129.7180  132.4380   56.8840 C   0  0  0  0  0  0  0  0  0  0  0  0
  129.7710  131.7170   55.6940 C   0  0  0  0  0  0  0  0  0  0  0  0
  129.8830  130.3290   55.7340 C   0  0  0  0  0  0  0  0  0  0  0  0
  129.9310  129.6580   56.9580 C   0  0  0  0  0  0  0  0  0  0  0  0
  129.8550  130.3670   58.1720 C   0  0  0  0  0  0  0  0  0  0  0  0
  129.8260  127.5080   59.8040 C   0  0  0  0  0  0  0  0  0  0  0  0
  129.7000  127.2170   58.6190 O   0  0  0  0  0  0  0  0  0  0  0  0
  129.8990  126.5480   60.7660 N   0  0  0  0  0  0  0  0  0  0  0  0
  132.3240  124.4800   60.4920 O   0  0  0  0  0  0  0  0  0  0  0  0
  134.5380  123.8963   61.4643 H   0  0  0  0  0  0  0  0  0  0  0  0
  135.0162  122.8569   60.0794 H   0  0  0  0  0  0  0  0  0  0  0  0
  135.4377  124.6031   60.0794 H   0  0  0  0  0  0  0  0  0  0  0  0
  133.5945  124.0424   57.4777 H   0  0  0  0  0  0  0  0  0  0  0  0
  130.9767  124.7258   57.4889 H   0  0  0  0  0  0  0  0  0  0  0  0
  129.1331  124.8748   59.6799 H   0  0  0  0  0  0  0  0  0  0  0  0
  131.5270  122.6350   61.3520 H   0  0  0  0  0  0  0  0  0  0  0  0
  128.8199  120.0810   61.4748 H   0  0  0  0  0  0  0  0  0  0  0  0
  129.3202  117.6520   61.2894 H   0  0  0  0  0  0  0  0  0  0  0  0
  131.6760  116.8743   61.0555 H   0  0  0  0  0  0  0  0  0  0  0  0
  133.5350  118.5277   61.0236 H   0  0  0  0  0  0  0  0  0  0  0  0
  133.7008  121.4634   62.2252 H   0  0  0  0  0  0  0  0  0  0  0  0
  134.2552  120.7563   60.6698 H   0  0  0  0  0  0  0  0  0  0  0  0
  133.1088  122.1392   60.6698 H   0  0  0  0  0  0  0  0  0  0  0  0
  129.7658  124.2042   63.7831 H   0  0  0  0  0  0  0  0  0  0  0  0
  129.7210  133.2530   59.5550 H   0  0  0  0  0  0  0  0  0  0  0  0
  129.6373  133.5349   56.8703 H   0  0  0  0  0  0  0  0  0  0  0  0
  129.7247  132.2405   54.7277 H   0  0  0  0  0  0  0  0  0  0  0  0
  129.9340  129.7577   54.7954 H   0  0  0  0  0  0  0  0  0  0  0  0
  130.0294  128.5625   56.9737 H   0  0  0  0  0  0  0  0  0  0  0  0
  1  2  1  0
  2  3  2  0
  3  4  1  0
  4  5  2  0
  5  6  1  0
  6  7  1  0
  7  8  1  0
  8  9  2  0
  8 10  1  0
 10 11  1  0
 11 12  2  0
 12 13  1  0
 13 14  2  0
 14 15  1  0
 15 16  2  0
 16 17  1  0
  7 18  2  0
 18 19  1  0
 19 20  2  0
 20 21  1  0
 21 22  1  0
 22 23  2  0
 23 24  1  0
 24 25  2  0
 24 26  1  0
 26 27  1  0
 27 28  2  0
 28 29  1  0
 29 30  2  0
 30 31  1  0
 31 32  2  0
 22 33  1  0
 33 34  2  0
 33 35  1  0
  5 36  1  0
 36  2  1  0
 35  6  1  0
 16 11  1  0
 35 20  1  0
 32 23  1  0
 32 27  1  0
  1 37  1  0
  1 38  1  0
  1 39  1  0
  3 40  1  0
  4 41  1  0
  6 42  1  6
 10 43  1  0
 12 44  1  0
 13 45  1  0
 14 46  1  0
 15 47  1  0
 17 48  1  0
 17 49  1  0
 17 50  1  0
 18 51  1  0
 26 52  1  0
 28 53  1  0
 29 54  1  0
 30 55  1  0
 31 56  1  0
M  END
>  <Binding energies>  (1) 
[-9.14]

>  <Ligand effiencies>  (1) 
[-0.2405263157894737]

>  <Interactions>  (1) 
["H-B:ALA:541:N:9863, V-A:ILE:369:CG2:3236, V-A:LEU:475:CD1:4257, V-B:PRO:540:C:9853, V-B:ALA:541:CB:9864, V-B:TYR:539:CE2:9848, V-B:TYR:539:C:9839, V-A:PRO:482:CG:4326, V-A:PRO:482:CB:4325, V-A:ASP:366:CG:3212, V-A:PRO:540:N:4884, V-A:ASP:366:CA:3209, V-A:ASP:366:CB:3211, V-A:TYR:539:CG:4872, V-A:ASP:366:C:3207, V-A:TYR:539:CD1:4873, V-A:PRO:540:CA:4883, V-A:TYR:539:CE1:4875, V-A:PRO:540:C:4881, V-A:TYR:539:C:4867, V-A:GLU:543:CD:4908, V-A:ILE:369:CD1:3238, V-A:ILE:369:CB:3235, H-A:ALA:541:N:4891, H-A:TYR:539:O:4868, V-A:TYR:539:CA:4869, V-B:ALA:541:CA:9862, V-A:ILE:369:CG1:3237"]

$$$$
RR19_Rahimova_2017
     RDKit          3D

 72 77  0  0  0  0  0  0  0  0999 V2000
  132.4570  122.8470   60.2170 O   0  0  0  0  0  0  0  0  0  0  0  0
  131.2910  123.0340   59.8580 C   0  0  0  0  0  0  0  0  0  0  0  0
  130.8880  123.8480   58.8480 N   0  0  0  0  0  0  0  0  0  0  0  0
  131.5620  124.4910   57.8400 C   0  0  0  0  0  0  0  0  0  0  0  0
  133.1810  124.2340   57.4160 S   0  0  0  0  0  0  0  0  0  0  0  0
  130.7050  125.3750   57.2330 N   0  0  0  0  0  0  0  0  0  0  0  0
  130.8050  126.1430   56.1180 C   0  0  0  0  0  0  0  0  0  0  0  0
  131.6880  126.0740   55.2590 O   0  0  0  0  0  0  0  0  0  0  0  0
  129.6840  127.2040   55.9830 C   0  0  2  0  0  0  0  0  0  0  0  0
  129.5280  127.8100   54.5580 C   0  0  0  0  0  0  0  0  0  0  0  0
  129.2010  129.2940   54.5190 C   0  0  0  0  0  0  0  0  0  0  0  0
  127.8790  129.7500   54.7140 C   0  0  0  0  0  0  0  0  0  0  0  0
  127.6120  131.1110   54.7530 C   0  0  0  0  0  0  0  0  0  0  0  0
  128.6440  132.0320   54.6190 C   0  0  0  0  0  0  0  0  0  0  0  0
  129.9540  131.5990   54.4560 C   0  0  0  0  0  0  0  0  0  0  0  0
  130.2420  130.2410   54.4170 C   0  0  0  0  0  0  0  0  0  0  0  0
  129.8180  128.2660   57.0180 N   0  0  0  0  0  0  0  0  0  0  0  0
  128.7350  128.7220   57.7090 C   0  0  0  0  0  0  0  0  0  0  0  0
  127.5610  128.3740   57.5720 O   0  0  0  0  0  0  0  0  0  0  0  0
  129.2680  129.7250   58.6640 C   0  0  0  0  0  0  0  0  0  0  0  0
  128.6220  130.5160   59.6150 C   0  0  0  0  0  0  0  0  0  0  0  0
  129.3900  131.3850   60.3970 C   0  0  0  0  0  0  0  0  0  0  0  0
  130.7790  131.4510   60.2220 C   0  0  0  0  0  0  0  0  0  0  0  0
  131.4080  130.6490   59.2630 C   0  0  0  0  0  0  0  0  0  0  0  0
  130.6240  129.7900   58.4930 C   0  0  0  0  0  0  0  0  0  0  0  0
  130.9950  128.8290   57.4240 C   0  0  0  0  0  0  0  0  0  0  0  0
  132.1270  128.5880   57.0030 O   0  0  0  0  0  0  0  0  0  0  0  0
  130.1360  122.3110   60.6000 C   0  0  2  0  0  0  0  0  0  0  0  0
  130.3390  120.7740   60.7370 C   0  0  0  0  0  0  0  0  0  0  0  0
  131.7950  120.3450   60.7620 C   0  0  0  0  0  0  0  0  0  0  0  0
  132.6290  120.7340   61.8330 C   0  0  0  0  0  0  0  0  0  0  0  0
  133.9320  120.2570   61.9060 C   0  0  0  0  0  0  0  0  0  0  0  0
  134.4110  119.3760   60.9450 C   0  0  0  0  0  0  0  0  0  0  0  0
  133.5880  118.9530   59.9080 C   0  0  0  0  0  0  0  0  0  0  0  0
  132.2830  119.4200   59.8160 C   0  0  0  0  0  0  0  0  0  0  0  0
  128.7870  122.6360   60.0550 N   0  0  0  0  0  0  0  0  0  0  0  0
  127.7940  123.1310   60.8460 C   0  0  0  0  0  0  0  0  0  0  0  0
  127.8450  123.3550   62.0560 O   0  0  0  0  0  0  0  0  0  0  0  0
  126.6380  123.3440   59.9400 C   0  0  0  0  0  0  0  0  0  0  0  0
  125.3530  123.8250   60.1940 C   0  0  0  0  0  0  0  0  0  0  0  0
  124.4520  123.9250   59.1290 C   0  0  0  0  0  0  0  0  0  0  0  0
  124.8420  123.5500   57.8360 C   0  0  0  0  0  0  0  0  0  0  0  0
  126.1360  123.0720   57.6010 C   0  0  0  0  0  0  0  0  0  0  0  0
  127.0190  122.9780   58.6780 C   0  0  0  0  0  0  0  0  0  0  0  0
  128.4280  122.5210   58.7410 C   0  0  0  0  0  0  0  0  0  0  0  0
  129.1270  122.1230   57.8090 O   0  0  0  0  0  0  0  0  0  0  0  0
  129.8840  123.9170   58.7690 H   0  0  0  0  0  0  0  0  0  0  0  0
  129.8700  125.5610   57.7690 H   0  0  0  0  0  0  0  0  0  0  0  0
  128.7470  126.6551   56.1582 H   0  0  0  0  0  0  0  0  0  0  0  0
  130.4731  127.6553   54.0169 H   0  0  0  0  0  0  0  0  0  0  0  0
  128.6704  127.2959   54.0994 H   0  0  0  0  0  0  0  0  0  0  0  0
  127.0601  129.0256   54.8351 H   0  0  0  0  0  0  0  0  0  0  0  0
  126.5788  131.4626   54.8906 H   0  0  0  0  0  0  0  0  0  0  0  0
  128.4226  133.1092   54.6421 H   0  0  0  0  0  0  0  0  0  0  0  0
  130.7660  132.3345   54.3575 H   0  0  0  0  0  0  0  0  0  0  0  0
  131.2830  129.9032   54.3065 H   0  0  0  0  0  0  0  0  0  0  0  0
  127.5315  130.4573   59.7469 H   0  0  0  0  0  0  0  0  0  0  0  0
  128.9020  132.0189   61.1520 H   0  0  0  0  0  0  0  0  0  0  0  0
  131.3772  132.1359   60.8409 H   0  0  0  0  0  0  0  0  0  0  0  0
  132.4976  130.6951   59.1195 H   0  0  0  0  0  0  0  0  0  0  0  0
  130.1766  122.7207   61.6201 H   0  0  0  0  0  0  0  0  0  0  0  0
  129.8648  120.4442   61.6731 H   0  0  0  0  0  0  0  0  0  0  0  0
  129.8855  120.3118   59.8478 H   0  0  0  0  0  0  0  0  0  0  0  0
  132.2475  121.4141   62.6089 H   0  0  0  0  0  0  0  0  0  0  0  0
  134.5873  120.5787   62.7288 H   0  0  0  0  0  0  0  0  0  0  0  0
  135.4470  119.0112   61.0050 H   0  0  0  0  0  0  0  0  0  0  0  0
  133.9713  118.2460   59.1575 H   0  0  0  0  0  0  0  0  0  0  0  0
  131.6295  119.0679   59.0043 H   0  0  0  0  0  0  0  0  0  0  0  0
  125.0548  124.1195   61.2110 H   0  0  0  0  0  0  0  0  0  0  0  0
  123.4331  124.2995   59.3068 H   0  0  0  0  0  0  0  0  0  0  0  0
  124.1283  123.6317   57.0030 H   0  0  0  0  0  0  0  0  0  0  0  0
  126.4506  122.7766   56.5892 H   0  0  0  0  0  0  0  0  0  0  0  0
  1  2  2  0
  2  3  1  0
  3  4  1  0
  4  5  2  0
  4  6  1  0
  6  7  1  0
  7  8  2  0
  7  9  1  0
  9 10  1  0
 10 11  1  0
 11 12  2  0
 12 13  1  0
 13 14  2  0
 14 15  1  0
 15 16  2  0
  9 17  1  0
 17 18  1  0
 18 19  2  0
 18 20  1  0
 20 21  2  0
 21 22  1  0
 22 23  2  0
 23 24  1  0
 24 25  2  0
 25 26  1  0
 26 27  2  0
  2 28  1  0
 28 29  1  0
 29 30  1  0
 30 31  2  0
 31 32  1  0
 32 33  2  0
 33 34  1  0
 34 35  2  0
 28 36  1  0
 36 37  1  0
 37 38  2  0
 37 39  1  0
 39 40  2  0
 40 41  1  0
 41 42  2  0
 42 43  1  0
 43 44  2  0
 44 45  1  0
 45 46  2  0
 16 11  1  0
 26 17  1  0
 35 30  1  0
 45 36  1  0
 25 20  1  0
 44 39  1  0
  3 47  1  0
  6 48  1  0
  9 49  1  1
 10 50  1  0
 10 51  1  0
 12 52  1  0
 13 53  1  0
 14 54  1  0
 15 55  1  0
 16 56  1  0
 21 57  1  0
 22 58  1  0
 23 59  1  0
 24 60  1  0
 28 61  1  1
 29 62  1  0
 29 63  1  0
 31 64  1  0
 32 65  1  0
 33 66  1  0
 34 67  1  0
 35 68  1  0
 40 69  1  0
 41 70  1  0
 42 71  1  0
 43 72  1  0
M  END
>  <Binding energies>  (1) 
[-11.61]

>  <Ligand effiencies>  (1) 
[-0.24187499999999998]

>  <Interactions>  (1) 
["V-B:PRO:540:CB:9857, H-B:TYR:531:OH:9767, V-B:MET:535:CE:9807, V-A:ILE:369:CG2:3236, V-B:TYR:539:CD2:9846, V-B:PRO:540:N:9856, V-A:LEU:475:CD1:4257, V-B:PRO:540:CA:9855, V-B:TYR:539:CE2:9848, V-B:TYR:539:C:9839, V-B:TYR:531:CE2:9765, V-B:LEU:363:CD1:8160, V-A:ILE:538:CA:4860, V-A:ASP:366:CA:3209, V-A:ASP:366:CB:3211, V-A:ILE:538:CG2:4863, V-A:ASP:366:C:3207, H-B:TYR:539:OH:9850, V-A:TYR:539:CE2:4876, V-A:PRO:540:CA:4883, H-A:TYR:531:OH:4795, V-A:TYR:539:CZ:4877, V-A:TYR:539:CD2:4874, V-A:PRO:540:CB:4885, V-A:TYR:539:CE1:4875, V-A:TYR:531:CZ:4794, V-A:ILE:538:CB:4862, V-B:ASP:366:CG:8184, V-B:TYR:531:CE1:9764, V-A:PRO:540:C:4881, V-B:TYR:539:CZ:9849, V-A:SER:385:CA:3406, V-B:LEU:363:CA:8156, V-A:SER:385:C:3404, V-A:SER:385:CB:3408, V-A:HIS:383:CD2:3391"]

$$$$
RR19_Rahimova_2017-again1
     RDKit          3D

 71 76  0  0  0  0  0  0  0  0999 V2000
  132.3360  122.3930   59.4910 O   0  0  0  0  0  0  0  0  0  0  0  0
  131.2150  122.9060   59.5110 C   0  0  0  0  0  0  0  0  0  0  0  0
  130.8390  124.0160   58.8310 N   0  0  0  0  0  0  0  0  0  0  0  0
  131.4580  124.7730   57.8760 C   0  0  0  0  0  0  0  0  0  0  0  0
  133.0150  124.6720   57.2510 S   0  0  0  0  0  0  0  0  0  0  0  0
  130.5120  125.6650   57.4030 N   0  0  0  0  0  0  0  0  0  0  0  0
  130.4490  126.2580   56.2560 C   0  0  0  0  0  0  0  0  0  0  0  0
  131.1630  126.1320   55.2410 O   0  0  0  0  0  0  0  0  0  0  0  0
  129.3070  127.3200   56.1100 C   0  0  2  0  0  0  0  0  0  0  0  0
  129.2090  127.8560   54.6430 C   0  0  0  0  0  0  0  0  0  0  0  0
  129.0160  129.3660   54.5320 C   0  0  0  0  0  0  0  0  0  0  0  0
  127.8120  129.9460   54.9370 C   0  0  0  0  0  0  0  0  0  0  0  0
  127.6400  131.3250   54.8500 C   0  0  0  0  0  0  0  0  0  0  0  0
  128.6730  132.1200   54.3540 C   0  0  0  0  0  0  0  0  0  0  0  0
  129.8750  131.5470   53.9430 C   0  0  0  0  0  0  0  0  0  0  0  0
  130.0460  130.1680   54.0300 C   0  0  0  0  0  0  0  0  0  0  0  0
  129.3410  128.3870   57.1640 N   0  0  0  0  0  0  0  0  0  0  0  0
  128.2330  128.7120   57.8880 C   0  0  0  0  0  0  0  0  0  0  0  0
  127.1060  128.2260   57.7890 O   0  0  0  0  0  0  0  0  0  0  0  0
  128.6720  129.7810   58.8210 C   0  0  0  0  0  0  0  0  0  0  0  0
  127.9650  130.4940   59.7910 C   0  0  0  0  0  0  0  0  0  0  0  0
  128.6460  131.4620   60.5380 C   0  0  0  0  0  0  0  0  0  0  0  0
  130.0070  131.7020   60.3110 C   0  0  0  0  0  0  0  0  0  0  0  0
  130.6970  130.9760   59.3350 C   0  0  0  0  0  0  0  0  0  0  0  0
  130.0000  130.0160   58.5990 C   0  0  0  0  0  0  0  0  0  0  0  0
  130.4510  129.1050   57.5200 C   0  0  0  0  0  0  0  0  0  0  0  0
  131.5830  129.0170   57.0480 O   0  0  0  0  0  0  0  0  0  0  0  0
  130.0900  122.2680   60.3790 C   0  0  2  0  0  0  0  0  0  0  0  0
  130.2960  120.7500   60.6520 C   0  0  0  0  0  0  0  0  0  0  0  0
  131.7520  120.3340   60.7610 C   0  0  0  0  0  0  0  0  0  0  0  0
  132.5820  120.9150   61.7430 C   0  0  0  0  0  0  0  0  0  0  0  0
  133.8860  120.4640   61.9070 C   0  0  0  0  0  0  0  0  0  0  0  0
  134.3690  119.4220   61.1250 C   0  0  0  0  0  0  0  0  0  0  0  0
  133.5510  118.8160   60.1810 C   0  0  0  0  0  0  0  0  0  0  0  0
  132.2450  119.2520   60.0020 C   0  0  0  0  0  0  0  0  0  0  0  0
  128.7070  122.5700   59.9020 N   0  0  0  0  0  0  0  0  0  0  0  0
  127.6810  122.7830   60.7740 C   0  0  0  0  0  0  0  0  0  0  0  0
  127.7110  122.6860   62.0010 O   0  0  0  0  0  0  0  0  0  0  0  0
  126.5210  123.1680   59.9320 C   0  0  0  0  0  0  0  0  0  0  0  0
  125.2140  123.5120   60.2800 C   0  0  0  0  0  0  0  0  0  0  0  0
  124.3190  123.8580   59.2610 C   0  0  0  0  0  0  0  0  0  0  0  0
  124.7360  123.8520   57.9230 C   0  0  0  0  0  0  0  0  0  0  0  0
  126.0500  123.5010   57.5940 C   0  0  0  0  0  0  0  0  0  0  0  0
  126.9270  123.1630   58.6260 C   0  0  0  0  0  0  0  0  0  0  0  0
  128.3610  122.7820   58.5970 C   0  0  0  0  0  0  0  0  0  0  0  0
  129.0870  122.6890   57.6060 O   0  0  0  0  0  0  0  0  0  0  0  0
  129.8830  124.2910   58.9970 H   0  0  0  0  0  0  0  0  0  0  0  0
  128.3566  126.8018   56.3053 H   0  0  0  0  0  0  0  0  0  0  0  0
  130.1374  127.5888   54.1169 H   0  0  0  0  0  0  0  0  0  0  0  0
  128.3148  127.3931   54.2001 H   0  0  0  0  0  0  0  0  0  0  0  0
  126.9997  129.3136   55.3246 H   0  0  0  0  0  0  0  0  0  0  0  0
  126.6939  131.7852   55.1710 H   0  0  0  0  0  0  0  0  0  0  0  0
  128.5377  133.2096   54.2866 H   0  0  0  0  0  0  0  0  0  0  0  0
  130.6844  132.1809   53.5519 H   0  0  0  0  0  0  0  0  0  0  0  0
  130.9911  129.7093   53.7039 H   0  0  0  0  0  0  0  0  0  0  0  0
  126.8963  130.2993   59.9643 H   0  0  0  0  0  0  0  0  0  0  0  0
  128.1097  132.0371   61.3071 H   0  0  0  0  0  0  0  0  0  0  0  0
  130.5351  132.4643   60.9025 H   0  0  0  0  0  0  0  0  0  0  0  0
  131.7662  131.1575   59.1511 H   0  0  0  0  0  0  0  0  0  0  0  0
  130.1887  122.7725   61.3515 H   0  0  0  0  0  0  0  0  0  0  0  0
  129.7924  120.4970   61.5967 H   0  0  0  0  0  0  0  0  0  0  0  0
  129.8750  120.2117   59.7900 H   0  0  0  0  0  0  0  0  0  0  0  0
  132.1966  121.7254   62.3791 H   0  0  0  0  0  0  0  0  0  0  0  0
  134.5380  120.9334   62.6583 H   0  0  0  0  0  0  0  0  0  0  0  0
  135.4049  119.0754   61.2545 H   0  0  0  0  0  0  0  0  0  0  0  0
  133.9394  117.9864   59.5719 H   0  0  0  0  0  0  0  0  0  0  0  0
  131.5946  118.7536   59.2681 H   0  0  0  0  0  0  0  0  0  0  0  0
  124.8941  123.5112   61.3325 H   0  0  0  0  0  0  0  0  0  0  0  0
  123.2845  124.1357   59.5113 H   0  0  0  0  0  0  0  0  0  0  0  0
  124.0268  124.1246   57.1275 H   0  0  0  0  0  0  0  0  0  0  0  0
  126.3842  123.4917   56.5460 H   0  0  0  0  0  0  0  0  0  0  0  0
  1  2  2  0
  2  3  1  0
  3  4  1  0
  4  5  2  0
  4  6  1  0
  6  7  2  0
  7  8  1  0
  7  9  1  0
  9 10  1  0
 10 11  1  0
 11 12  2  0
 12 13  1  0
 13 14  2  0
 14 15  1  0
 15 16  2  0
  9 17  1  0
 17 18  1  0
 18 19  2  0
 18 20  1  0
 20 21  2  0
 21 22  1  0
 22 23  2  0
 23 24  1  0
 24 25  2  0
 25 26  1  0
 26 27  2  0
  2 28  1  0
 28 29  1  0
 29 30  1  0
 30 31  2  0
 31 32  1  0
 32 33  2  0
 33 34  1  0
 34 35  2  0
 28 36  1  0
 36 37  1  0
 37 38  2  0
 37 39  1  0
 39 40  2  0
 40 41  1  0
 41 42  2  0
 42 43  1  0
 43 44  2  0
 44 45  1  0
 45 46  2  0
 16 11  1  0
 26 17  1  0
 35 30  1  0
 45 36  1  0
 25 20  1  0
 44 39  1  0
  3 47  1  0
  9 48  1  1
 10 49  1  0
 10 50  1  0
 12 51  1  0
 13 52  1  0
 14 53  1  0
 15 54  1  0
 16 55  1  0
 21 56  1  0
 22 57  1  0
 23 58  1  0
 24 59  1  0
 28 60  1  1
 29 61  1  0
 29 62  1  0
 31 63  1  0
 32 64  1  0
 33 65  1  0
 34 66  1  0
 35 67  1  0
 40 68  1  0
 41 69  1  0
 42 70  1  0
 43 71  1  0
M  CHG  1   8  -1
M  END
>  <Binding energies>  (1) 
[-11.44]

>  <Ligand effiencies>  (1) 
[-0.24340425531914892]

>  <Interactions>  (1) 
["H-B:ALA:541:N:9863, V-B:PRO:540:CB:9857, H-B:TYR:531:OH:9767, V-A:ILE:369:CG2:3236, V-B:TYR:539:CD2:9846, V-B:PRO:540:N:9856, V-A:LEU:475:CD1:4257, V-B:PRO:540:CA:9855, V-B:PRO:540:C:9853, V-B:TYR:539:CE2:9848, V-B:TYR:539:C:9839, V-B:TYR:531:CE2:9765, V-B:LEU:363:CD1:8160, V-A:ILE:538:CA:4860, V-A:ASP:366:CA:3209, V-A:ASP:366:CB:3211, V-A:ILE:538:CG2:4863, V-A:ASP:366:C:3207, H-B:TYR:539:OH:9850, V-A:TYR:539:CE2:4876, V-A:PRO:540:CA:4883, H-A:TYR:531:OH:4795, V-A:TYR:539:CZ:4877, V-A:TYR:539:CD2:4874, V-A:TYR:539:CE1:4875, V-A:TYR:531:CZ:4794, V-A:ILE:538:CB:4862, V-B:ASP:366:CG:8184, V-A:MET:535:CG:4833, V-B:TYR:531:CE1:9764, V-A:PRO:540:C:4881, V-B:TYR:539:CZ:9849, V-A:SER:385:CA:3406, V-B:LEU:363:CA:8156, V-A:SER:385:C:3404, V-A:SER:385:CB:3408, V-A:HIS:383:CD2:3391, V-B:LEU:363:CB:8158"]

$$$$
RR1_Rahimova_2017
     RDKit          3D

 68 71  0  0  0  0  0  0  0  0999 V2000
  133.7010  125.5300   66.0160 C   0  0  0  0  0  0  0  0  0  0  0  0
  133.5310  124.8080   64.8020 O   0  0  0  0  0  0  0  0  0  0  0  0
  132.2600  124.6510   64.2830 C   0  0  0  0  0  0  0  0  0  0  0  0
  131.6750  123.4100   63.9840 C   0  0  0  0  0  0  0  0  0  0  0  0
  130.3890  123.3500   63.4560 C   0  0  0  0  0  0  0  0  0  0  0  0
  129.6650  124.5210   63.2240 C   0  0  0  0  0  0  0  0  0  0  0  0
  128.3920  124.3580   62.6460 N   0  0  0  0  0  0  0  0  0  0  0  0
  127.6400  125.2510   61.9670 C   0  0  0  0  0  0  0  0  0  0  0  0
  127.9390  126.4330   61.7960 O   0  0  0  0  0  0  0  0  0  0  0  0
  126.3300  124.6840   61.3990 C   0  0  0  0  0  0  0  0  0  0  0  0
  126.1490  122.8700   61.5080 S   0  0  0  0  0  0  0  0  0  0  0  0
  127.6490  122.4290   60.6970 C   0  0  0  0  0  0  0  0  0  0  0  0
  128.7480  122.0830   61.3190 N   0  0  0  0  0  0  0  0  0  0  0  0
  129.6040  121.8280   60.3350 C   0  0  0  0  0  0  0  0  0  0  0  0
  131.0130  121.3750   60.5920 C   0  0  0  0  0  0  0  0  0  0  0  0
  131.3150  120.0280   60.8470 C   0  0  0  0  0  0  0  0  0  0  0  0
  132.6340  119.6360   61.0860 C   0  0  0  0  0  0  0  0  0  0  0  0
  133.6310  120.6100   61.0630 C   0  0  0  0  0  0  0  0  0  0  0  0
  133.3740  121.9200   60.8200 N   0  0  0  0  0  0  0  0  0  0  0  0
  132.0850  122.2800   60.5900 C   0  0  0  0  0  0  0  0  0  0  0  0
  129.1300  121.9970   59.1150 N   0  0  0  0  0  0  0  0  0  0  0  0
  127.8720  122.3850   59.3450 N   0  0  0  0  0  0  0  0  0  0  0  0
  126.9640  122.6620   58.2320 C   0  0  0  0  0  0  0  0  0  0  0  0
  127.1600  124.0310   57.5580 C   0  0  0  0  0  0  0  0  0  0  0  0
  126.2100  124.6150   57.0220 O   0  0  0  0  0  0  0  0  0  0  0  0
  128.4170  124.5120   57.6030 N   0  0  0  0  0  0  0  0  0  0  0  0
  128.6400  125.8040   57.1470 N   0  0  0  0  0  0  0  0  0  0  0  0
  129.5780  126.5420   57.7800 C   0  0  0  0  0  0  0  0  0  0  0  0
  130.3190  126.1070   58.6680 O   0  0  0  0  0  0  0  0  0  0  0  0
  129.7050  127.9790   57.3140 C   0  0  0  0  0  0  0  0  0  0  0  0
  130.4650  128.8890   58.0570 C   0  0  0  0  0  0  0  0  0  0  0  0
  130.5850  130.2150   57.6550 C   0  0  0  0  0  0  0  0  0  0  0  0
  129.9400  130.6750   56.4960 C   0  0  0  0  0  0  0  0  0  0  0  0
  130.0070  131.9830   56.0480 O   0  0  0  0  0  0  0  0  0  0  0  0
  131.2760  132.6090   55.9020 C   0  0  0  0  0  0  0  0  0  0  0  0
  129.1680  129.7810   55.7420 C   0  0  0  0  0  0  0  0  0  0  0  0
  128.5360  130.2890   54.6190 O   0  0  0  0  0  0  0  0  0  0  0  0
  128.0310  129.3980   53.6310 C   0  0  0  0  0  0  0  0  0  0  0  0
  129.0600  128.4410   56.1560 C   0  0  0  0  0  0  0  0  0  0  0  0
  130.2460  125.7630   63.5230 C   0  0  0  0  0  0  0  0  0  0  0  0
  131.5320  125.8180   64.0520 C   0  0  0  0  0  0  0  0  0  0  0  0
  133.5420  124.8547   66.8696 H   0  0  0  0  0  0  0  0  0  0  0  0
  134.7205  125.9409   66.0585 H   0  0  0  0  0  0  0  0  0  0  0  0
  132.9720  126.3526   66.0585 H   0  0  0  0  0  0  0  0  0  0  0  0
  132.2356  122.4816   64.1679 H   0  0  0  0  0  0  0  0  0  0  0  0
  129.9400  122.3739   63.2199 H   0  0  0  0  0  0  0  0  0  0  0  0
  127.9790  123.4490   62.7960 H   0  0  0  0  0  0  0  0  0  0  0  0
  125.4951  125.1420   61.9496 H   0  0  0  0  0  0  0  0  0  0  0  0
  126.3363  124.9239   60.3255 H   0  0  0  0  0  0  0  0  0  0  0  0
  130.5099  119.2786   60.8586 H   0  0  0  0  0  0  0  0  0  0  0  0
  132.8804  118.5831   61.2877 H   0  0  0  0  0  0  0  0  0  0  0  0
  134.6708  120.3034   61.2499 H   0  0  0  0  0  0  0  0  0  0  0  0
  131.8694  123.3402   60.3911 H   0  0  0  0  0  0  0  0  0  0  0  0
  127.1106  121.8824   57.4699 H   0  0  0  0  0  0  0  0  0  0  0  0
  125.9498  122.6715   58.6578 H   0  0  0  0  0  0  0  0  0  0  0  0
  129.1490  124.1600   58.2050 H   0  0  0  0  0  0  0  0  0  0  0  0
  127.7910  126.2230   56.7960 H   0  0  0  0  0  0  0  0  0  0  0  0
  130.9745  128.5511   58.9715 H   0  0  0  0  0  0  0  0  0  0  0  0
  131.1922  130.9113   58.2520 H   0  0  0  0  0  0  0  0  0  0  0  0
  131.6986  132.8174   56.8960 H   0  0  0  0  0  0  0  0  0  0  0  0
  131.9527  131.9413   55.3486 H   0  0  0  0  0  0  0  0  0  0  0  0
  131.1580  133.5523   55.3486 H   0  0  0  0  0  0  0  0  0  0  0  0
  127.5458  128.5420   54.1228 H   0  0  0  0  0  0  0  0  0  0  0  0
  127.2970  129.9245   53.0032 H   0  0  0  0  0  0  0  0  0  0  0  0
  128.8598  129.0388   53.0032 H   0  0  0  0  0  0  0  0  0  0  0  0
  128.4573  127.7402   55.5596 H   0  0  0  0  0  0  0  0  0  0  0  0
  129.6857  126.6917   63.3395 H   0  0  0  0  0  0  0  0  0  0  0  0
  131.9798  126.7939   64.2909 H   0  0  0  0  0  0  0  0  0  0  0  0
  1  2  1  0
  2  3  1  0
  3  4  2  0
  4  5  1  0
  5  6  2  0
  6  7  1  0
  7  8  1  0
  8  9  2  0
  8 10  1  0
 10 11  1  0
 11 12  1  0
 12 13  2  0
 13 14  1  0
 14 15  1  0
 15 16  2  0
 16 17  1  0
 17 18  2  0
 18 19  1  0
 19 20  2  0
 14 21  2  0
 21 22  1  0
 22 23  1  0
 23 24  1  0
 24 25  2  0
 24 26  1  0
 26 27  1  0
 27 28  1  0
 28 29  2  0
 28 30  1  0
 30 31  2  0
 31 32  1  0
 32 33  2  0
 33 34  1  0
 34 35  1  0
 33 36  1  0
 36 37  1  0
 37 38  1  0
 36 39  2  0
  6 40  1  0
 40 41  2  0
 41  3  1  0
 22 12  1  0
 39 30  1  0
 20 15  1  0
  1 42  1  0
  1 43  1  0
  1 44  1  0
  4 45  1  0
  5 46  1  0
  7 47  1  0
 10 48  1  0
 10 49  1  0
 16 50  1  0
 17 51  1  0
 18 52  1  0
 20 53  1  0
 23 54  1  0
 23 55  1  0
 26 56  1  0
 27 57  1  0
 31 58  1  0
 32 59  1  0
 35 60  1  0
 35 61  1  0
 35 62  1  0
 38 63  1  0
 38 64  1  0
 38 65  1  0
 39 66  1  0
 40 67  1  0
 41 68  1  0
M  END
>  <Binding energies>  (1) 
[-8.04]

>  <Ligand effiencies>  (1) 
[-0.1827272727272727]

>  <Interactions>  (1) 
["H-B:ALA:541:N:9863, V-B:PRO:540:CB:9857, H-B:TYR:531:OH:9767, V-B:MET:535:CE:9807, V-A:ILE:369:CG2:3236, V-B:TYR:539:CD2:9846, V-B:PRO:540:N:9856, V-A:LEU:475:CD1:4257, V-B:PRO:540:CA:9855, V-B:PRO:540:C:9853, V-B:TYR:539:CE2:9848, V-B:TYR:539:C:9839, H-A:TYR:484:OH:4347, H-A:GLY:454:N:4049, V-A:PRO:540:N:4884, V-A:ILE:538:CA:4860, V-A:ILE:538:CG2:4863, H-A:TYR:539:N:4870, V-A:ILE:538:CB:4862, V-B:TYR:531:CE1:9764, H-B:LYS:534:NZ:9795, V-A:PRO:540:CD:4887, V-A:TYR:539:C:4867, V-A:ARG:545:CD:4923, V-B:GLU:543:CG:9879, H-B:GLU:543:OE1:9881, V-B:GLU:543:CD:9880, H-B:GLU:543:OE2:9882, V-A:ARG:545:CG:4922, V-A:ARG:545:CZ:4926, V-B:LYS:534:CE:9794, V-A:ILE:538:C:4858, V-B:LYS:534:CD:9793"]

$$$$
RR20_Rahimova_2017
     RDKit          3D

 68 73  0  0  0  0  0  0  0  0999 V2000
  133.2150  130.9160   57.9050 C   0  0  0  0  0  0  0  0  0  0  0  0
  131.8040  130.8100   57.3560 C   0  0  0  0  0  0  0  0  0  0  0  0
  131.1780  129.5650   57.2860 C   0  0  0  0  0  0  0  0  0  0  0  0
  129.8800  129.4670   56.7920 C   0  0  0  0  0  0  0  0  0  0  0  0
  129.2030  130.6100   56.3510 C   0  0  0  0  0  0  0  0  0  0  0  0
  127.7860  130.4840   55.8370 C   0  0  0  0  0  0  0  0  0  0  0  0
  127.6100  130.5750   54.6190 O   0  0  0  0  0  0  0  0  0  0  0  0
  126.7700  130.2630   56.7220 N   0  0  0  0  0  0  0  0  0  0  0  0
  125.5730  129.4930   56.3460 C   0  0  0  0  0  0  0  0  0  0  0  0
  124.7540  129.3290   57.6150 C   0  0  0  0  0  0  0  0  0  0  0  0
  125.7300  129.6940   58.6920 C   0  0  0  0  0  0  0  0  0  0  0  0
  125.5680  129.6470   60.0770 C   0  0  0  0  0  0  0  0  0  0  0  0
  126.5410  130.1870   60.9270 C   0  0  0  0  0  0  0  0  0  0  0  0
  126.3720  130.1290   62.4200 C   0  0  0  0  0  0  0  0  0  0  0  0
  127.1240  129.2820   63.1050 N   0  0  0  0  0  0  0  0  0  0  0  0
  126.9070  129.3300   64.3950 C   0  0  0  0  0  0  0  0  0  0  0  0
  127.5210  128.5880   65.3920 N   0  0  0  0  0  0  0  0  0  0  0  0
  126.9500  128.1210   66.5290 C   0  0  0  0  0  0  0  0  0  0  0  0
  125.7640  128.2840   66.8220 O   0  0  0  0  0  0  0  0  0  0  0  0
  127.8340  127.3110   67.5070 C   0  0  0  0  0  0  0  0  0  0  0  0
  129.2010  127.0880   66.9990 N   0  0  0  0  0  0  0  0  0  0  0  0
  130.2030  127.0680   68.0740 C   0  0  0  0  0  0  0  0  0  0  0  0
  131.6280  127.1020   67.4750 C   0  0  0  0  0  0  0  0  0  0  0  0
  131.8090  126.1250   66.3130 C   0  0  0  0  0  0  0  0  0  0  0  0
  133.0830  125.8180   65.8220 C   0  0  0  0  0  0  0  0  0  0  0  0
  133.2470  124.9590   64.7380 C   0  0  0  0  0  0  0  0  0  0  0  0
  132.1300  124.3910   64.1310 C   0  0  0  0  0  0  0  0  0  0  0  0
  130.8570  124.6810   64.6160 C   0  0  0  0  0  0  0  0  0  0  0  0
  130.6790  125.5440   65.7030 C   0  0  0  0  0  0  0  0  0  0  0  0
  129.2860  125.8160   66.2710 C   0  0  0  0  0  0  0  0  0  0  0  0
  125.7030  130.4610   64.8730 S   0  0  0  0  0  0  0  0  0  0  0  0
  125.4730  130.8930   63.1950 C   0  0  0  0  0  0  0  0  0  0  0  0
  124.4260  131.9110   62.8020 C   0  0  0  0  0  0  0  0  0  0  0  0
  127.6530  130.8240   60.3530 C   0  0  0  0  0  0  0  0  0  0  0  0
  127.8070  130.8890   58.9690 C   0  0  0  0  0  0  0  0  0  0  0  0
  126.8690  130.2700   58.1320 C   0  0  0  0  0  0  0  0  0  0  0  0
  129.8270  131.8600   56.4520 C   0  0  0  0  0  0  0  0  0  0  0  0
  131.1250  131.9590   56.9470 C   0  0  0  0  0  0  0  0  0  0  0  0
  133.1818  130.9135   59.0045 H   0  0  0  0  0  0  0  0  0  0  0  0
  133.8102  130.0600   57.5542 H   0  0  0  0  0  0  0  0  0  0  0  0
  133.6756  131.8513   57.5542 H   0  0  0  0  0  0  0  0  0  0  0  0
  131.7094  128.6619   57.6207 H   0  0  0  0  0  0  0  0  0  0  0  0
  129.3839  128.4862   56.7480 H   0  0  0  0  0  0  0  0  0  0  0  0
  124.9931  130.0377   55.5864 H   0  0  0  0  0  0  0  0  0  0  0  0
  125.8444  128.5171   55.9170 H   0  0  0  0  0  0  0  0  0  0  0  0
  123.8887  130.0081   57.6182 H   0  0  0  0  0  0  0  0  0  0  0  0
  124.3334  128.3195   57.7335 H   0  0  0  0  0  0  0  0  0  0  0  0
  124.6679  129.1816   60.5050 H   0  0  0  0  0  0  0  0  0  0  0  0
  128.5010  128.3840   65.2540 H   0  0  0  0  0  0  0  0  0  0  0  0
  127.8987  127.8602   68.4579 H   0  0  0  0  0  0  0  0  0  0  0  0
  127.3651  126.3240   67.6338 H   0  0  0  0  0  0  0  0  0  0  0  0
  130.0596  127.9460   68.7210 H   0  0  0  0  0  0  0  0  0  0  0  0
  130.0819  126.1457   68.6610 H   0  0  0  0  0  0  0  0  0  0  0  0
  131.8320  128.1203   67.1123 H   0  0  0  0  0  0  0  0  0  0  0  0
  132.3271  126.8025   68.2697 H   0  0  0  0  0  0  0  0  0  0  0  0
  133.9688  126.2621   66.2997 H   0  0  0  0  0  0  0  0  0  0  0  0
  134.2554  124.7301   64.3627 H   0  0  0  0  0  0  0  0  0  0  0  0
  132.2525  123.7156   63.2714 H   0  0  0  0  0  0  0  0  0  0  0  0
  129.9781  124.2246   64.1372 H   0  0  0  0  0  0  0  0  0  0  0  0
  128.5668  125.8397   65.4390 H   0  0  0  0  0  0  0  0  0  0  0  0
  129.0601  125.0119   66.9867 H   0  0  0  0  0  0  0  0  0  0  0  0
  123.9789  132.3457   63.7082 H   0  0  0  0  0  0  0  0  0  0  0  0
  124.8949  132.7078   62.2060 H   0  0  0  0  0  0  0  0  0  0  0  0
  123.6427  131.4199   62.2060 H   0  0  0  0  0  0  0  0  0  0  0  0
  128.4137  131.2783   61.0049 H   0  0  0  0  0  0  0  0  0  0  0  0
  128.6635  131.4254   58.5346 H   0  0  0  0  0  0  0  0  0  0  0  0
  129.2895  132.7673   56.1390 H   0  0  0  0  0  0  0  0  0  0  0  0
  131.6146  132.9416   57.0156 H   0  0  0  0  0  0  0  0  0  0  0  0
  1  2  1  0
  2  3  2  0
  3  4  1  0
  4  5  2  0
  5  6  1  0
  6  7  2  0
  6  8  1  0
  8  9  1  0
  9 10  1  0
 10 11  1  0
 11 12  2  0
 12 13  1  0
 13 14  1  0
 14 15  1  0
 15 16  2  0
 16 17  1  0
 17 18  1  0
 18 19  2  0
 18 20  1  0
 20 21  1  0
 21 22  1  0
 22 23  1  0
 23 24  1  0
 24 25  2  0
 25 26  1  0
 26 27  2  0
 27 28  1  0
 28 29  2  0
 29 30  1  0
 16 31  1  0
 31 32  1  0
 32 33  1  0
 13 34  2  0
 34 35  1  0
 35 36  2  0
  5 37  1  0
 37 38  2  0
 38  2  1  0
 36  8  1  0
 36 11  1  0
 32 14  2  0
 30 21  1  0
 29 24  1  0
  1 39  1  0
  1 40  1  0
  1 41  1  0
  3 42  1  0
  4 43  1  0
  9 44  1  0
  9 45  1  0
 10 46  1  0
 10 47  1  0
 12 48  1  0
 17 49  1  0
 20 50  1  0
 20 51  1  0
 22 52  1  0
 22 53  1  0
 23 54  1  0
 23 55  1  0
 25 56  1  0
 26 57  1  0
 27 58  1  0
 28 59  1  0
 30 60  1  0
 30 61  1  0
 33 62  1  0
 33 63  1  0
 33 64  1  0
 34 65  1  0
 35 66  1  0
 37 67  1  0
 38 68  1  0
M  END
>  <Binding energies>  (1) 
[-10.73]

>  <Ligand effiencies>  (1) 
[-0.2751282051282051]

>  <Interactions>  (1) 
["V-B:TYR:531:CZ:9766, V-A:PRO:540:N:4884, V-A:TYR:539:CD1:4873, V-A:PRO:540:CA:4883, V-A:TYR:539:CZ:4877, V-A:PRO:540:CB:4885, V-A:TYR:539:CE1:4875, V-B:ASP:366:CG:8184, V-B:TYR:531:CE1:9764, H-B:LYS:534:NZ:9795, V-B:ASP:366:CB:8183, V-A:PRO:540:CD:4887, V-B:ASP:366:CA:8181, V-A:TYR:539:C:4867, V-A:LEU:363:CD1:3188, V-B:ILE:369:CD1:8210, V-B:GLY:454:CA:9020, V-A:GLU:543:CD:4908, H-B:ARG:545:NE:9896, H-B:TYR:484:OH:9319, V-B:ASP:366:C:8179, H-A:TYR:539:OH:4878, V-B:HIS:456:CE1:9041, V-A:HIS:456:CE1:4069, V-B:GLU:543:CB:9878, V-A:ARG:545:CD:4923, V-B:GLU:543:CG:9879, V-B:GLU:543:CD:9880, H-B:GLU:543:OE2:9882, V-A:ARG:545:CG:4922, V-A:ARG:545:CZ:4926, V-A:GLU:543:CB:4906, V-A:LEU:363:CA:3184, V-A:LEU:363:CB:3186, V-B:LEU:475:CD1:9229, H-A:GLU:543:OE1:4909"]

$$$$
RR20_Rahimova_2017-again1
     RDKit          3D

 68 73  0  0  0  0  0  0  0  0999 V2000
  128.8000  126.6610   68.0090 C   0  0  0  0  0  0  0  0  0  0  0  0
  129.9640  126.2130   67.1430 C   0  0  0  0  0  0  0  0  0  0  0  0
  129.7320  125.3990   66.0330 C   0  0  0  0  0  0  0  0  0  0  0  0
  130.7970  124.9930   65.2340 C   0  0  0  0  0  0  0  0  0  0  0  0
  132.1030  125.3880   65.5430 C   0  0  0  0  0  0  0  0  0  0  0  0
  133.2460  124.9520   64.6530 C   0  0  0  0  0  0  0  0  0  0  0  0
  134.3740  125.3710   64.9210 O   0  0  0  0  0  0  0  0  0  0  0  0
  132.9950  124.1000   63.6150 N   0  0  0  0  0  0  0  0  0  0  0  0
  133.1890  122.6470   63.7510 C   0  0  0  0  0  0  0  0  0  0  0  0
  132.6720  122.0240   62.4650 C   0  0  0  0  0  0  0  0  0  0  0  0
  131.8780  123.1380   61.8520 C   0  0  0  0  0  0  0  0  0  0  0  0
  131.1000  123.1280   60.6940 C   0  0  0  0  0  0  0  0  0  0  0  0
  130.5620  124.3200   60.1830 C   0  0  0  0  0  0  0  0  0  0  0  0
  129.7300  124.3100   58.9330 C   0  0  0  0  0  0  0  0  0  0  0  0
  129.8760  125.3090   58.0760 N   0  0  0  0  0  0  0  0  0  0  0  0
  129.1050  125.2250   57.0200 C   0  0  0  0  0  0  0  0  0  0  0  0
  128.9750  126.1010   55.9740 N   0  0  0  0  0  0  0  0  0  0  0  0
  129.9430  126.5020   55.2200 C   0  0  0  0  0  0  0  0  0  0  0  0
  131.1460  126.1790   55.1770 O   0  0  0  0  0  0  0  0  0  0  0  0
  129.5280  127.5630   54.1810 C   0  0  0  0  0  0  0  0  0  0  0  0
  128.4610  128.5170   54.7930 N   0  0  2  0  0  0  0  0  0  0  0  0
  128.1300  129.7060   53.8680 C   0  0  0  0  0  0  0  0  0  0  0  0
  129.3640  130.6130   53.7150 C   0  0  0  0  0  0  0  0  0  0  0  0
  130.0130  130.9750   55.0480 C   0  0  0  0  0  0  0  0  0  0  0  0
  130.8550  132.0900   55.1300 C   0  0  0  0  0  0  0  0  0  0  0  0
  131.5020  132.4220   56.3170 C   0  0  0  0  0  0  0  0  0  0  0  0
  131.3100  131.6380   57.4470 C   0  0  0  0  0  0  0  0  0  0  0  0
  130.4650  130.5330   57.3850 C   0  0  0  0  0  0  0  0  0  0  0  0
  129.8000  130.1870   56.2030 C   0  0  0  0  0  0  0  0  0  0  0  0
  128.8420  128.9900   56.2170 C   0  0  0  0  0  0  0  0  0  0  0  0
  128.0780  123.8400   57.0360 S   0  0  0  0  0  0  0  0  0  0  0  0
  128.7850  123.3370   58.5520 C   0  0  0  0  0  0  0  0  0  0  0  0
  128.3610  122.0380   59.2040 C   0  0  0  0  0  0  0  0  0  0  0  0
  130.8650  125.5220   60.8360 C   0  0  0  0  0  0  0  0  0  0  0  0
  131.6580  125.5370   61.9840 C   0  0  0  0  0  0  0  0  0  0  0  0
  132.1230  124.3330   62.5290 C   0  0  0  0  0  0  0  0  0  0  0  0
  132.3240  126.2300   66.6400 C   0  0  0  0  0  0  0  0  0  0  0  0
  131.2600  126.6360   67.4400 C   0  0  0  0  0  0  0  0  0  0  0  0
  129.0709  126.5567   69.0700 H   0  0  0  0  0  0  0  0  0  0  0  0
  128.5655  127.7136   67.7922 H   0  0  0  0  0  0  0  0  0  0  0  0
  127.9203  126.0372   67.7922 H   0  0  0  0  0  0  0  0  0  0  0  0
  128.7082  125.0786   65.7899 H   0  0  0  0  0  0  0  0  0  0  0  0
  130.6108  124.3583   64.3551 H   0  0  0  0  0  0  0  0  0  0  0  0
  134.2563  122.4163   63.8835 H   0  0  0  0  0  0  0  0  0  0  0  0
  132.6547  122.2533   64.6282 H   0  0  0  0  0  0  0  0  0  0  0  0
  133.5021  121.7218   61.8095 H   0  0  0  0  0  0  0  0  0  0  0  0
  132.0835  121.1094   62.6301 H   0  0  0  0  0  0  0  0  0  0  0  0
  130.9062  122.1770   60.1763 H   0  0  0  0  0  0  0  0  0  0  0  0
  130.4114  128.1471   53.8837 H   0  0  0  0  0  0  0  0  0  0  0  0
  129.1008  127.0597   53.3011 H   0  0  0  0  0  0  0  0  0  0  0  0
  127.6130  127.9710   54.8720 H   0  0  0  0  0  0  0  0  0  0  0  0
  127.8319  129.3266   52.8795 H   0  0  0  0  0  0  0  0  0  0  0  0
  127.3066  130.2876   54.3081 H   0  0  0  0  0  0  0  0  0  0  0  0
  130.1072  130.0905   53.0948 H   0  0  0  0  0  0  0  0  0  0  0  0
  129.0248  131.5510   53.2512 H   0  0  0  0  0  0  0  0  0  0  0  0
  131.0085  132.7163   54.2389 H   0  0  0  0  0  0  0  0  0  0  0  0
  132.1620  133.3009   56.3597 H   0  0  0  0  0  0  0  0  0  0  0  0
  131.8232  131.8888   58.3870 H   0  0  0  0  0  0  0  0  0  0  0  0
  130.3168  129.9183   58.2851 H   0  0  0  0  0  0  0  0  0  0  0  0
  129.3265  128.1569   56.7473 H   0  0  0  0  0  0  0  0  0  0  0  0
  127.9177  129.3084   56.7212 H   0  0  0  0  0  0  0  0  0  0  0  0
  128.3969  122.1480   60.2979 H   0  0  0  0  0  0  0  0  0  0  0  0
  127.3352  121.7898   58.8939 H   0  0  0  0  0  0  0  0  0  0  0  0
  129.0428  121.2324   58.8939 H   0  0  0  0  0  0  0  0  0  0  0  0
  130.4716  126.4687   60.4374 H   0  0  0  0  0  0  0  0  0  0  0  0
  131.9179  126.4936   62.4608 H   0  0  0  0  0  0  0  0  0  0  0  0
  133.3437  126.5722   66.8705 H   0  0  0  0  0  0  0  0  0  0  0  0
  131.4407  127.2899   68.3059 H   0  0  0  0  0  0  0  0  0  0  0  0
  1  2  1  0
  2  3  2  0
  3  4  1  0
  4  5  2  0
  5  6  1  0
  6  7  2  0
  6  8  1  0
  8  9  1  0
  9 10  1  0
 10 11  1  0
 11 12  2  0
 12 13  1  0
 13 14  1  0
 14 15  1  0
 15 16  2  0
 16 17  1  0
 17 18  2  0
 18 19  1  0
 18 20  1  0
 20 21  1  0
 21 22  1  0
 22 23  1  0
 23 24  1  0
 24 25  2  0
 25 26  1  0
 26 27  2  0
 27 28  1  0
 28 29  2  0
 29 30  1  0
 16 31  1  0
 31 32  1  0
 32 33  1  0
 13 34  2  0
 34 35  1  0
 35 36  2  0
  5 37  1  0
 37 38  2  0
 38  2  1  0
 36  8  1  0
 36 11  1  0
 32 14  2  0
 30 21  1  0
 29 24  1  0
  1 39  1  0
  1 40  1  0
  1 41  1  0
  3 42  1  0
  4 43  1  0
  9 44  1  0
  9 45  1  0
 10 46  1  0
 10 47  1  0
 12 48  1  0
 20 49  1  0
 20 50  1  0
 21 51  1  1
 22 52  1  0
 22 53  1  0
 23 54  1  0
 23 55  1  0
 25 56  1  0
 26 57  1  0
 27 58  1  0
 28 59  1  0
 30 60  1  0
 30 61  1  0
 33 62  1  0
 33 63  1  0
 33 64  1  0
 34 65  1  0
 35 66  1  0
 37 67  1  0
 38 68  1  0
M  CHG  2  19  -1  21   1
M  END
>  <Binding energies>  (1) 
[-10.39]

>  <Ligand effiencies>  (1) 
[-0.26641025641025645]

>  <Interactions>  (1) 
["H-B:TYR:531:OH:9767, V-B:MET:535:CE:9807, V-B:TYR:539:CD2:9846, V-B:PRO:540:N:9856, V-A:LEU:475:CD1:4257, V-B:PRO:540:CA:9855, V-B:TYR:539:CE2:9848, V-B:TYR:539:C:9839, V-B:TYR:531:CZ:9766, V-A:ASP:366:CG:3212, H-A:GLY:454:N:4049, V-A:PRO:540:N:4884, V-A:ILE:538:CA:4860, V-A:ILE:538:CG2:4863, H-B:TYR:539:OH:9850, V-A:PRO:540:CA:4883, H-A:TYR:531:OH:4795, V-A:PRO:540:CB:4885, V-A:ILE:538:CB:4862, V-A:MET:535:CG:4833, V-B:TYR:531:CE1:9764, V-A:PRO:540:CD:4887, V-A:TYR:539:C:4867, V-A:LEU:363:CD1:3188, H-A:ARG:545:NH2:4928, V-A:TYR:484:CZ:4346, V-A:HIS:456:CE1:4069, V-B:GLU:543:CB:9878, V-B:GLU:543:CG:9879, V-B:GLU:543:CD:9880, H-A:ARG:545:NE:4924, V-A:ARG:545:CG:4922, V-A:ARG:545:CZ:4926, H-A:ARG:545:NH1:4927, H-B:MET:535:SD:9806, V-B:LYS:534:CE:9794, V-B:LYS:534:CD:9793, V-A:GLY:454:CA:4048, V-A:MET:535:CE:4835"]

$$$$
RR21_Rahimova_2017
     RDKit          3D

 62 67  0  0  0  0  0  0  0  0999 V2000
  124.5890  130.1820   62.4570 C   0  0  0  0  0  0  0  0  0  0  0  0
  124.4440  130.2380   63.8730 O   0  0  0  0  0  0  0  0  0  0  0  0
  125.3750  129.6030   64.6730 C   0  0  0  0  0  0  0  0  0  0  0  0
  126.7280  129.4340   64.3300 C   0  0  0  0  0  0  0  0  0  0  0  0
  127.6040  128.7820   65.1970 C   0  0  0  0  0  0  0  0  0  0  0  0
  127.1550  128.2860   66.4260 C   0  0  0  0  0  0  0  0  0  0  0  0
  128.1000  127.5900   67.3570 C   0  0  0  0  0  0  0  0  0  0  0  0
  128.1700  127.9640   68.6200 N   0  0  0  0  0  0  0  0  0  0  0  0
  129.0840  127.1760   69.2050 N   0  0  0  0  0  0  0  0  0  0  0  0
  129.3950  127.2990   70.5840 C   0  0  0  0  0  0  0  0  0  0  0  0
  130.1960  128.3530   71.0480 C   0  0  0  0  0  0  0  0  0  0  0  0
  130.4900  128.4660   72.4050 C   0  0  0  0  0  0  0  0  0  0  0  0
  129.9860  127.5260   73.3010 C   0  0  0  0  0  0  0  0  0  0  0  0
  129.1930  126.4730   72.8530 C   0  0  0  0  0  0  0  0  0  0  0  0
  128.8970  126.3580   71.4970 C   0  0  0  0  0  0  0  0  0  0  0  0
  129.5860  126.2780   68.2970 C   0  0  0  0  0  0  0  0  0  0  0  0
  128.9810  126.5220   67.0730 C   0  0  0  0  0  0  0  0  0  0  0  0
  129.1570  125.7980   65.8230 C   0  0  0  0  0  0  0  0  0  0  0  0
  130.3100  125.5210   65.1710 C   0  0  0  0  0  0  0  0  0  0  0  0
  131.9650  125.9680   65.6410 S   0  0  0  0  0  0  0  0  0  0  0  0
  132.5780  125.1380   64.2180 C   0  0  0  0  0  0  0  0  0  0  0  0
  133.8130  124.9990   63.8480 N   0  0  0  0  0  0  0  0  0  0  0  0
  134.1770  124.2880   62.6720 C   0  0  0  0  0  0  0  0  0  0  0  0
  135.3230  124.0950   62.2650 O   0  0  0  0  0  0  0  0  0  0  0  0
  133.0050  123.7390   61.9060 C   0  0  0  0  0  0  0  0  0  0  0  0
  133.2740  122.9690   60.6070 C   0  0  0  0  0  0  0  0  0  0  0  0
  132.7090  121.5500   60.5880 C   0  0  0  0  0  0  0  0  0  0  0  0
  133.5620  120.4540   60.7430 C   0  0  0  0  0  0  0  0  0  0  0  0
  133.0440  119.1620   60.7420 C   0  0  0  0  0  0  0  0  0  0  0  0
  131.6710  118.9610   60.5900 C   0  0  0  0  0  0  0  0  0  0  0  0
  131.1100  117.5510   60.6020 C   0  0  0  0  0  0  0  0  0  0  0  0
  130.8140  120.0560   60.4470 C   0  0  0  0  0  0  0  0  0  0  0  0
  131.3320  121.3480   60.4470 C   0  0  0  0  0  0  0  0  0  0  0  0
  131.7770  123.8900   62.2850 N   0  0  0  0  0  0  0  0  0  0  0  0
  131.5620  124.6030   63.4700 N   0  0  0  0  0  0  0  0  0  0  0  0
  130.2950  124.7750   63.9210 C   0  0  0  0  0  0  0  0  0  0  0  0
  129.2810  124.3510   63.3530 O   0  0  0  0  0  0  0  0  0  0  0  0
  125.8080  128.4470   66.7650 C   0  0  0  0  0  0  0  0  0  0  0  0
  124.9290  129.0990   65.8990 C   0  0  0  0  0  0  0  0  0  0  0  0
  123.6310  129.2400   66.2570 F   0  0  0  0  0  0  0  0  0  0  0  0
  125.5880  129.7962   62.2057 H   0  0  0  0  0  0  0  0  0  0  0  0
  123.8219  129.5155   62.0359 H   0  0  0  0  0  0  0  0  0  0  0  0
  124.4691  131.1911   62.0359 H   0  0  0  0  0  0  0  0  0  0  0  0
  127.0988  129.8197   63.3689 H   0  0  0  0  0  0  0  0  0  0  0  0
  128.6589  128.6562   64.9119 H   0  0  0  0  0  0  0  0  0  0  0  0
  130.5934  129.0930   70.3377 H   0  0  0  0  0  0  0  0  0  0  0  0
  131.1173  129.2938   72.7673 H   0  0  0  0  0  0  0  0  0  0  0  0
  130.2167  127.6165   74.3727 H   0  0  0  0  0  0  0  0  0  0  0  0
  128.8015  125.7342   73.5678 H   0  0  0  0  0  0  0  0  0  0  0  0
  128.2708  125.5267   71.1410 H   0  0  0  0  0  0  0  0  0  0  0  0
  130.3366  125.5009   68.5036 H   0  0  0  0  0  0  0  0  0  0  0  0
  128.2360  125.4291   65.3479 H   0  0  0  0  0  0  0  0  0  0  0  0
  132.8240  123.5300   59.7747 H   0  0  0  0  0  0  0  0  0  0  0  0
  134.3663  122.8740   60.5180 H   0  0  0  0  0  0  0  0  0  0  0  0
  134.6436  120.6124   60.8659 H   0  0  0  0  0  0  0  0  0  0  0  0
  133.7164  118.2996   60.8610 H   0  0  0  0  0  0  0  0  0  0  0  0
  130.9775  117.2179   61.6420 H   0  0  0  0  0  0  0  0  0  0  0  0
  130.1384  117.5385   60.0864 H   0  0  0  0  0  0  0  0  0  0  0  0
  131.8075  116.8745   60.0864 H   0  0  0  0  0  0  0  0  0  0  0  0
  129.7314  119.8969   60.3346 H   0  0  0  0  0  0  0  0  0  0  0  0
  130.6583  122.2105   60.3361 H   0  0  0  0  0  0  0  0  0  0  0  0
  125.4374  128.0558   67.7240 H   0  0  0  0  0  0  0  0  0  0  0  0
  1  2  1  0
  2  3  1  0
  3  4  2  0
  4  5  1  0
  5  6  2  0
  6  7  1  0
  7  8  2  0
  8  9  1  0
  9 10  1  0
 10 11  2  0
 11 12  1  0
 12 13  2  0
 13 14  1  0
 14 15  2  0
  9 16  1  0
 16 17  2  0
 17 18  1  0
 18 19  2  0
 19 20  1  0
 20 21  1  0
 21 22  2  0
 22 23  1  0
 23 24  2  0
 23 25  1  0
 25 26  1  0
 26 27  1  0
 27 28  2  0
 28 29  1  0
 29 30  2  0
 30 31  1  0
 30 32  1  0
 32 33  2  0
 25 34  2  0
 34 35  1  0
 35 36  1  0
 36 37  2  0
  6 38  1  0
 38 39  2  0
 39 40  1  0
 39  3  1  0
 17  7  1  0
 36 19  1  0
 15 10  1  0
 35 21  1  0
 33 27  1  0
  1 41  1  0
  1 42  1  0
  1 43  1  0
  4 44  1  0
  5 45  1  0
 11 46  1  0
 12 47  1  0
 13 48  1  0
 14 49  1  0
 15 50  1  0
 16 51  1  0
 18 52  1  0
 26 53  1  0
 26 54  1  0
 28 55  1  0
 29 56  1  0
 31 57  1  0
 31 58  1  0
 31 59  1  0
 32 60  1  0
 33 61  1  0
 38 62  1  0
M  END
>  <Binding energies>  (1) 
[-10.95]

>  <Ligand effiencies>  (1) 
[-0.27375]

>  <Interactions>  (1) 
["V-A:ILE:369:CG2:3236, V-B:TYR:539:CD2:9846, V-A:LEU:475:CD1:4257, V-B:TYR:539:CE2:9848, V-A:PRO:482:CG:4326, H-A:GLY:454:N:4049, V-B:ASP:366:CG:8184, H-B:GLY:454:N:9021, V-B:ARG:545:CZ:9898, V-B:GLY:453:C:9013, V-B:GLY:453:CA:9015, V-B:GLY:454:CA:9020, V-A:GLU:543:CD:4908, H-A:ARG:545:NH2:4928, V-A:GLU:543:C:4902, V-B:HIS:456:CE1:9041, V-A:HIS:456:CE1:4069, V-A:GLY:544:C:4912, V-B:GLU:543:CB:9878, V-B:GLU:543:CG:9879, V-B:GLU:543:CD:9880, V-A:ARG:545:CZ:4926, H-A:ARG:545:NH1:4927, V-B:ARG:545:CG:9894, V-A:GLY:453:CA:4043, V-A:GLY:453:C:4041, V-A:HIS:383:CE1:3392, V-B:HIS:456:CD2:9039, V-A:GLY:544:CA:4914, V-B:ARG:545:CD:9895"]

$$$$
RR22_Rahimova_2017
     RDKit          3D

 49 54  0  0  0  0  0  0  0  0999 V2000
  123.7800  129.8760   55.7390 O   0  0  0  0  0  0  0  0  0  0  0  0
  124.6510  129.8660   56.6060 C   0  0  0  0  0  0  0  0  0  0  0  0
  124.4840  129.6800   57.9680 N   0  0  0  0  0  0  0  0  0  0  0  0
  125.6170  129.6360   58.8410 C   0  0  1  0  0  0  0  0  0  0  0  0
  125.3700  130.6430   59.8260 O   0  0  0  0  0  0  0  0  0  0  0  0
  125.2980  130.2570   61.1650 C   0  0  0  0  0  0  0  0  0  0  0  0
  124.7030  131.1640   62.0430 C   0  0  0  0  0  0  0  0  0  0  0  0
  124.6310  130.8660   63.4030 C   0  0  0  0  0  0  0  0  0  0  0  0
  125.1610  129.6680   63.8850 C   0  0  0  0  0  0  0  0  0  0  0  0
  125.7570  128.7620   63.0070 C   0  0  0  0  0  0  0  0  0  0  0  0
  125.8140  129.0360   61.6370 C   0  0  0  0  0  0  0  0  0  0  0  0
  126.4760  128.1420   60.6120 C   0  0  1  0  0  0  0  0  0  0  0  0
  126.5080  126.6330   60.7480 C   0  0  0  0  0  0  0  0  0  0  0  0
  126.5220  126.2370   59.2680 C   0  0  0  0  0  0  0  0  0  0  0  0
  126.9390  124.8990   58.8040 C   0  0  0  0  0  0  0  0  0  0  0  0
  128.2430  124.4380   59.0350 C   0  0  0  0  0  0  0  0  0  0  0  0
  128.6300  123.1740   58.5970 C   0  0  0  0  0  0  0  0  0  0  0  0
  127.7170  122.3660   57.9240 C   0  0  0  0  0  0  0  0  0  0  0  0
  126.4190  122.8100   57.6870 C   0  0  0  0  0  0  0  0  0  0  0  0
  126.0300  124.0720   58.1260 C   0  0  0  0  0  0  0  0  0  0  0  0
  126.1100  127.1980   58.5300 N   0  0  0  0  0  0  0  0  0  0  0  0
  125.7760  128.2730   59.3700 N   0  0  0  0  0  0  0  0  0  0  0  0
  126.8150  130.0950   58.0230 C   0  0  0  0  0  0  0  0  0  0  0  0
  127.9760  130.5060   58.5840 C   0  0  0  0  0  0  0  0  0  0  0  0
  129.2130  130.9550   57.9140 C   0  0  0  0  0  0  0  0  0  0  0  0
  130.4670  130.3740   58.1490 C   0  0  0  0  0  0  0  0  0  0  0  0
  131.5940  130.8510   57.4790 C   0  0  0  0  0  0  0  0  0  0  0  0
  131.4370  131.9120   56.5870 C   0  0  0  0  0  0  0  0  0  0  0  0
  130.2390  132.4990   56.3460 N   0  0  0  0  0  0  0  0  0  0  0  0
  129.1540  132.0190   57.0070 C   0  0  0  0  0  0  0  0  0  0  0  0
  126.4260  130.1050   56.2960 S   0  0  0  0  0  0  0  0  0  0  0  0
  123.5620  129.6160   58.3720 H   0  0  0  0  0  0  0  0  0  0  0  0
  124.2921  132.1111   61.6632 H   0  0  0  0  0  0  0  0  0  0  0  0
  124.1562  131.5754   64.0967 H   0  0  0  0  0  0  0  0  0  0  0  0
  125.1087  129.4377   64.9593 H   0  0  0  0  0  0  0  0  0  0  0  0
  126.1849  127.8259   63.3952 H   0  0  0  0  0  0  0  0  0  0  0  0
  127.5099  128.4997   60.7264 H   0  0  0  0  0  0  0  0  0  0  0  0
  127.4118  126.2887   61.2720 H   0  0  0  0  0  0  0  0  0  0  0  0
  125.6850  126.2017   61.3369 H   0  0  0  0  0  0  0  0  0  0  0  0
  128.9639  125.0780   59.5648 H   0  0  0  0  0  0  0  0  0  0  0  0
  129.6532  122.8151   58.7820 H   0  0  0  0  0  0  0  0  0  0  0  0
  128.0241  121.3684   57.5767 H   0  0  0  0  0  0  0  0  0  0  0  0
  125.7036  122.1658   57.1548 H   0  0  0  0  0  0  0  0  0  0  0  0
  125.0043  124.4234   57.9406 H   0  0  0  0  0  0  0  0  0  0  0  0
  128.0016  130.5055   59.6837 H   0  0  0  0  0  0  0  0  0  0  0  0
  130.5624  129.5417   58.8619 H   0  0  0  0  0  0  0  0  0  0  0  0
  132.5831  130.4010   57.6501 H   0  0  0  0  0  0  0  0  0  0  0  0
  132.3237  132.2887   56.0561 H   0  0  0  0  0  0  0  0  0  0  0  0
  128.1783  132.4911   56.8197 H   0  0  0  0  0  0  0  0  0  0  0  0
  1  2  2  0
  2  3  1  0
  3  4  1  0
  4  5  1  1
  5  6  1  0
  6  7  2  0
  7  8  1  0
  8  9  2  0
  9 10  1  0
 10 11  2  0
 11 12  1  0
 12 13  1  0
 13 14  1  0
 14 15  1  0
 15 16  2  0
 16 17  1  0
 17 18  2  0
 18 19  1  0
 19 20  2  0
 14 21  2  0
 21 22  1  0
  4 23  1  0
 23 24  2  0
 24 25  1  0
 25 26  2  0
 26 27  1  0
 27 28  2  0
 28 29  1  0
 29 30  2  0
 23 31  1  0
 31  2  1  0
 22  4  1  0
 30 25  1  0
 11  6  1  0
 22 12  1  0
 20 15  1  0
  3 32  1  0
  7 33  1  0
  8 34  1  0
  9 35  1  0
 10 36  1  0
 12 37  1  6
 13 38  1  0
 13 39  1  0
 16 40  1  0
 17 41  1  0
 18 42  1  0
 19 43  1  0
 20 44  1  0
 24 45  1  0
 26 46  1  0
 27 47  1  0
 28 48  1  0
 30 49  1  0
M  END
>  <Binding energies>  (1) 
[-9.16]

>  <Ligand effiencies>  (1) 
[-0.28625]

>  <Interactions>  (1) 
["V-B:PRO:540:CB:9857, H-B:TYR:531:OH:9767, V-B:MET:535:CE:9807, V-B:PRO:540:N:9856, V-B:PRO:540:CA:9855, V-B:TYR:539:C:9839, V-B:TYR:531:CZ:9766, V-A:PRO:540:N:4884, V-A:TYR:539:CG:4872, V-A:TYR:539:CD1:4873, V-A:PRO:540:CA:4883, H-A:TYR:539:N:4870, V-A:TYR:539:CZ:4877, V-A:PRO:540:CB:4885, V-A:TYR:539:CE1:4875, V-B:ASP:366:CG:8184, V-B:TYR:531:CE1:9764, V-B:ASP:366:CB:8183, V-B:ARG:545:CZ:9898, V-A:PRO:540:CD:4887, V-B:ASP:366:CA:8181, V-A:TYR:539:C:4867, V-B:ILE:369:CD1:8210, V-B:GLY:454:CA:9020, V-B:ASP:366:C:8179, H-A:TYR:539:OH:4878, H-B:ASP:366:O:8180"]

$$$$
RR23_Rahimova_2017
     RDKit          3D

 65 70  0  0  0  0  0  0  0  0999 V2000
  133.6160  130.8640   61.4160 C   0  0  0  0  0  0  0  0  0  0  0  0
  132.7630  131.0670   60.1770 C   0  0  0  0  0  0  0  0  0  0  0  0
  131.4080  131.3730   60.3040 C   0  0  0  0  0  0  0  0  0  0  0  0
  130.6280  131.5680   59.1660 C   0  0  0  0  0  0  0  0  0  0  0  0
  131.1960  131.4460   57.8930 C   0  0  0  0  0  0  0  0  0  0  0  0
  130.3370  131.6810   56.6710 C   0  0  0  0  0  0  0  0  0  0  0  0
  130.2360  132.8390   56.2580 O   0  0  0  0  0  0  0  0  0  0  0  0
  129.7250  130.6190   56.0660 N   0  0  0  0  0  0  0  0  0  0  0  0
  129.8790  130.3590   54.6260 C   0  0  0  0  0  0  0  0  0  0  0  0
  129.1880  129.0330   54.3540 C   0  0  0  0  0  0  0  0  0  0  0  0
  129.0200  128.4570   55.7280 C   0  0  0  0  0  0  0  0  0  0  0  0
  128.5230  127.2090   56.1020 C   0  0  0  0  0  0  0  0  0  0  0  0
  128.2930  126.9130   57.4540 C   0  0  0  0  0  0  0  0  0  0  0  0
  127.7470  125.5510   57.9100 C   0  0  2  0  0  0  0  0  0  0  0  0
  128.0680  125.2690   59.2920 N   0  0  0  0  0  0  0  0  0  0  0  0
  128.2320  124.0240   59.4960 C   0  0  0  0  0  0  0  0  0  0  0  0
  128.5660  123.4010   60.6590 N   0  0  0  0  0  0  0  0  0  0  0  0
  128.9390  123.9590   61.8360 C   0  0  0  0  0  0  0  0  0  0  0  0
  129.0000  125.1690   62.0680 O   0  0  0  0  0  0  0  0  0  0  0  0
  129.3140  122.9680   62.9490 C   0  0  0  0  0  0  0  0  0  0  0  0
  130.4700  122.1560   62.5070 N   0  0  0  0  0  0  0  0  0  0  0  0
  131.7010  122.5410   63.0240 N   0  0  0  0  0  0  0  0  0  0  0  0
  132.7900  121.9140   62.7140 N   0  0  0  0  0  0  0  0  0  0  0  0
  132.7390  120.8230   61.8420 C   0  0  0  0  0  0  0  0  0  0  0  0
  133.9330  120.1700   61.5270 C   0  0  0  0  0  0  0  0  0  0  0  0
  133.9150  119.0770   60.6590 C   0  0  0  0  0  0  0  0  0  0  0  0
  132.7090  118.6380   60.1070 C   0  0  0  0  0  0  0  0  0  0  0  0
  131.5150  119.2900   60.4210 C   0  0  0  0  0  0  0  0  0  0  0  0
  131.5340  120.3850   61.2930 C   0  0  0  0  0  0  0  0  0  0  0  0
  130.2530  121.1070   61.6420 C   0  0  0  0  0  0  0  0  0  0  0  0
  129.1460  120.7970   61.1930 O   0  0  0  0  0  0  0  0  0  0  0  0
  128.0180  122.9380   58.0930 S   0  0  0  0  0  0  0  0  0  0  0  0
  128.1550  124.3660   57.0040 C   0  0  2  0  0  0  0  0  0  0  0  0
  129.5770  124.4090   56.4060 C   0  0  0  0  0  0  0  0  0  0  0  0
  128.5250  127.9080   58.4120 C   0  0  0  0  0  0  0  0  0  0  0  0
  129.0020  129.1640   58.0360 C   0  0  0  0  0  0  0  0  0  0  0  0
  129.3060  129.4240   56.6930 C   0  0  0  0  0  0  0  0  0  0  0  0
  132.5630  131.1660   57.7730 C   0  0  0  0  0  0  0  0  0  0  0  0
  133.3420  130.9720   58.9100 C   0  0  0  0  0  0  0  0  0  0  0  0
  132.9985  131.0110   62.3144 H   0  0  0  0  0  0  0  0  0  0  0  0
  134.0259  129.8432   61.4158 H   0  0  0  0  0  0  0  0  0  0  0  0
  134.4418  131.5907   61.4158 H   0  0  0  0  0  0  0  0  0  0  0  0
  130.9552  131.4604   61.3027 H   0  0  0  0  0  0  0  0  0  0  0  0
  129.5619  131.8187   59.2687 H   0  0  0  0  0  0  0  0  0  0  0  0
  129.4057  131.1617   54.0416 H   0  0  0  0  0  0  0  0  0  0  0  0
  130.9401  130.3226   54.3382 H   0  0  0  0  0  0  0  0  0  0  0  0
  128.2137  129.1867   53.8671 H   0  0  0  0  0  0  0  0  0  0  0  0
  129.7537  128.3789   53.6741 H   0  0  0  0  0  0  0  0  0  0  0  0
  128.3100  126.4522   55.3326 H   0  0  0  0  0  0  0  0  0  0  0  0
  126.6554  125.6481   57.8156 H   0  0  0  0  0  0  0  0  0  0  0  0
  128.5840  122.3930   60.6300 H   0  0  0  0  0  0  0  0  0  0  0  0
  129.5807  123.5223   63.8609 H   0  0  0  0  0  0  0  0  0  0  0  0
  128.4589  122.3095   63.1617 H   0  0  0  0  0  0  0  0  0  0  0  0
  134.8829  120.5155   61.9609 H   0  0  0  0  0  0  0  0  0  0  0  0
  134.8531  118.5598   60.4089 H   0  0  0  0  0  0  0  0  0  0  0  0
  132.7001  117.7764   59.4232 H   0  0  0  0  0  0  0  0  0  0  0  0
  130.5653  118.9454   59.9859 H   0  0  0  0  0  0  0  0  0  0  0  0
  127.5098  124.3646   56.1131 H   0  0  0  0  0  0  0  0  0  0  0  0
  130.3166  124.4314   57.2200 H   0  0  0  0  0  0  0  0  0  0  0  0
  129.7412  123.5154   55.7859 H   0  0  0  0  0  0  0  0  0  0  0  0
  129.6869  125.3109   55.7859 H   0  0  0  0  0  0  0  0  0  0  0  0
  128.3288  127.6967   59.4735 H   0  0  0  0  0  0  0  0  0  0  0  0
  129.1394  129.9498   58.7934 H   0  0  0  0  0  0  0  0  0  0  0  0
  133.0229  131.0991   56.7760 H   0  0  0  0  0  0  0  0  0  0  0  0
  134.4135  130.7439   58.8105 H   0  0  0  0  0  0  0  0  0  0  0  0
  1  2  1  0
  2  3  2  0
  3  4  1  0
  4  5  2  0
  5  6  1  0
  6  7  2  0
  6  8  1  0
  8  9  1  0
  9 10  1  0
 10 11  1  0
 11 12  2  0
 12 13  1  0
 13 14  1  0
 14 15  1  0
 15 16  2  0
 16 17  1  0
 17 18  1  0
 18 19  2  0
 18 20  1  0
 20 21  1  0
 21 22  1  0
 22 23  2  0
 23 24  1  0
 24 25  2  0
 25 26  1  0
 26 27  2  0
 27 28  1  0
 28 29  2  0
 29 30  1  0
 30 31  2  0
 16 32  1  0
 32 33  1  0
 33 34  1  0
 13 35  2  0
 35 36  1  0
 36 37  2  0
  5 38  1  0
 38 39  2  0
 39  2  1  0
 37  8  1  0
 37 11  1  0
 33 14  1  0
 30 21  1  0
 29 24  1  0
  1 40  1  0
  1 41  1  0
  1 42  1  0
  3 43  1  0
  4 44  1  0
  9 45  1  0
  9 46  1  0
 10 47  1  0
 10 48  1  0
 12 49  1  0
 14 50  1  1
 17 51  1  0
 20 52  1  0
 20 53  1  0
 25 54  1  0
 26 55  1  0
 27 56  1  0
 28 57  1  0
 33 58  1  6
 34 59  1  0
 34 60  1  0
 34 61  1  0
 35 62  1  0
 36 63  1  0
 38 64  1  0
 39 65  1  0
M  END
>  <Binding energies>  (1) 
[-9.98]

>  <Ligand effiencies>  (1) 
[-0.2495]

>  <Interactions>  (1) 
["H-B:ALA:541:N:9863, V-B:MET:535:CE:9807, V-A:ILE:369:CG2:3236, V-B:TYR:539:CD2:9846, V-A:LEU:475:CD1:4257, V-B:ALA:541:CB:9864, V-B:TYR:539:CE2:9848, V-B:TYR:531:CZ:9766, V-A:ASP:366:CG:3212, V-A:PRO:540:N:4884, V-A:PRO:540:CA:4883, H-A:TYR:539:N:4870, V-A:PRO:540:CB:4885, V-A:PRO:540:C:4881, V-A:LEU:363:CD1:3188, V-B:TYR:539:CZ:9849, V-A:SER:385:CA:3406, H-B:TYR:539:O:9840, V-A:SER:385:C:3404, V-A:SER:385:CB:3408, V-A:LEU:363:CA:3184, V-A:LEU:363:CB:3186, V-A:ASN:362:CB:3175, V-A:ASN:362:C:3171, V-A:HIS:383:CD2:3391, V-A:ASN:362:CA:3173"]

$$$$
RR24_Rahimova_2017
     RDKit          3D

 65 71  0  0  0  0  0  0  0  0999 V2000
  128.4590  132.4740   54.7890 C   0  0  0  0  0  0  0  0  0  0  0  0
  129.4070  131.2660   54.7710 C   0  0  2  0  0  0  0  0  0  0  0  0
  128.6820  129.9210   54.4690 C   0  0  0  0  0  0  0  0  0  0  0  0
  127.4500  129.8260   54.4680 O   0  0  0  0  0  0  0  0  0  0  0  0
  129.5550  128.8970   54.2410 O   0  0  0  0  0  0  0  0  0  0  0  0
  129.5360  127.7920   55.0620 C   0  0  0  0  0  0  0  0  0  0  0  0
  130.2420  126.6470   54.6860 C   0  0  0  0  0  0  0  0  0  0  0  0
  130.2370  125.5280   55.5120 C   0  0  0  0  0  0  0  0  0  0  0  0
  129.5350  125.5490   56.7200 C   0  0  0  0  0  0  0  0  0  0  0  0
  129.5180  124.3060   57.6170 C   0  0  1  0  0  0  0  0  0  0  0  0
  130.7670  124.2320   58.5270 C   0  0  0  0  0  0  0  0  0  0  0  0
  130.6890  124.0420   59.8570 C   0  0  0  0  0  0  0  0  0  0  0  0
  129.4880  123.9020   60.5070 N   0  0  0  0  0  0  0  0  0  0  0  0
  128.2960  123.9500   59.8250 C   0  0  0  0  0  0  0  0  0  0  0  0
  127.2020  123.7850   60.6120 N   0  0  0  0  0  0  0  0  0  0  0  0
  125.9340  123.8810   60.1260 C   0  0  0  0  0  0  0  0  0  0  0  0
  124.9980  124.0420   60.9110 O   0  0  0  0  0  0  0  0  0  0  0  0
  125.8630  123.9500   58.7430 N   0  0  0  0  0  0  0  0  0  0  0  0
  124.5060  123.9640   58.1580 C   0  0  0  0  0  0  0  0  0  0  0  0
  126.9070  124.1210   57.8510 C   0  0  0  0  0  0  0  0  0  0  0  0
  126.7650  124.2280   56.6290 O   0  0  0  0  0  0  0  0  0  0  0  0
  128.2320  124.1420   58.4810 C   0  0  0  0  0  0  0  0  0  0  0  0
  132.0140  124.0160   60.4530 C   0  0  0  0  0  0  0  0  0  0  0  0
  132.4640  123.8570   61.7650 C   0  0  0  0  0  0  0  0  0  0  0  0
  133.8370  123.8790   62.0220 C   0  0  0  0  0  0  0  0  0  0  0  0
  134.7470  124.0570   60.9750 C   0  0  0  0  0  0  0  0  0  0  0  0
  134.2900  124.2160   59.6640 C   0  0  0  0  0  0  0  0  0  0  0  0
  132.9170  124.1940   59.4130 C   0  0  0  0  0  0  0  0  0  0  0  0
  132.1710  124.3330   58.1450 C   0  0  0  0  0  0  0  0  0  0  0  0
  132.5900  124.4980   57.0000 O   0  0  0  0  0  0  0  0  0  0  0  0
  128.8440  126.7040   57.1030 C   0  0  0  0  0  0  0  0  0  0  0  0
  128.8490  127.8250   56.2780 C   0  0  0  0  0  0  0  0  0  0  0  0
  130.2470  131.1940   56.0040 N   0  0  0  0  0  0  0  0  0  0  0  0
  129.6920  131.0120   57.2350 C   0  0  0  0  0  0  0  0  0  0  0  0
  128.4950  130.8970   57.5070 O   0  0  0  0  0  0  0  0  0  0  0  0
  130.8340  130.9840   58.1820 C   0  0  0  0  0  0  0  0  0  0  0  0
  130.8670  130.8280   59.5690 C   0  0  0  0  0  0  0  0  0  0  0  0
  132.1100  130.8380   60.2140 C   0  0  0  0  0  0  0  0  0  0  0  0
  133.2880  131.0000   59.4740 C   0  0  0  0  0  0  0  0  0  0  0  0
  133.2340  131.1540   58.0850 C   0  0  0  0  0  0  0  0  0  0  0  0
  131.9860  131.1430   57.4600 C   0  0  0  0  0  0  0  0  0  0  0  0
  131.6120  131.2770   56.0300 C   0  0  0  0  0  0  0  0  0  0  0  0
  132.3710  131.4260   55.0720 O   0  0  0  0  0  0  0  0  0  0  0  0
  128.2402  132.7529   55.8303 H   0  0  0  0  0  0  0  0  0  0  0  0
  128.9354  133.3217   54.2748 H   0  0  0  0  0  0  0  0  0  0  0  0
  127.5223  132.2127   54.2748 H   0  0  0  0  0  0  0  0  0  0  0  0
  130.0911  131.4305   53.9254 H   0  0  0  0  0  0  0  0  0  0  0  0
  130.8008  126.6303   53.7386 H   0  0  0  0  0  0  0  0  0  0  0  0
  130.7874  124.6236   55.2134 H   0  0  0  0  0  0  0  0  0  0  0  0
  129.5270  123.4670   56.9057 H   0  0  0  0  0  0  0  0  0  0  0  0
  129.4770  123.7580   61.5080 H   0  0  0  0  0  0  0  0  0  0  0  0
  127.2980  123.6110   61.6010 H   0  0  0  0  0  0  0  0  0  0  0  0
  123.7588  123.9717   58.9652 H   0  0  0  0  0  0  0  0  0  0  0  0
  124.3838  124.8635   57.5367 H   0  0  0  0  0  0  0  0  0  0  0  0
  124.3653  123.0673   57.5367 H   0  0  0  0  0  0  0  0  0  0  0  0
  131.7461  123.7161   62.5865 H   0  0  0  0  0  0  0  0  0  0  0  0
  134.2037  123.7559   63.0517 H   0  0  0  0  0  0  0  0  0  0  0  0
  135.8268  124.0719   61.1843 H   0  0  0  0  0  0  0  0  0  0  0  0
  135.0041  124.3569   58.8392 H   0  0  0  0  0  0  0  0  0  0  0  0
  128.2965  126.7260   58.0568 H   0  0  0  0  0  0  0  0  0  0  0  0
  128.3127  128.7357   56.5830 H   0  0  0  0  0  0  0  0  0  0  0  0
  129.9371  130.7001   60.1425 H   0  0  0  0  0  0  0  0  0  0  0  0
  132.1613  130.7181   61.3062 H   0  0  0  0  0  0  0  0  0  0  0  0
  134.2606  131.0061   59.9879 H   0  0  0  0  0  0  0  0  0  0  0  0
  134.1553  131.2811   57.4976 H   0  0  0  0  0  0  0  0  0  0  0  0
  1  2  1  0
  2  3  1  0
  3  4  2  0
  3  5  1  0
  5  6  1  0
  6  7  2  0
  7  8  1  0
  8  9  2  0
  9 10  1  0
 10 11  1  0
 11 12  2  0
 12 13  1  0
 13 14  1  0
 14 15  1  0
 15 16  1  0
 16 17  2  0
 16 18  1  0
 18 19  1  0
 18 20  1  0
 20 21  2  0
 20 22  1  0
 12 23  1  0
 23 24  2  0
 24 25  1  0
 25 26  2  0
 26 27  1  0
 27 28  2  0
 28 29  1  0
 29 30  2  0
  9 31  1  0
 31 32  2  0
  2 33  1  0
 33 34  1  0
 34 35  2  0
 34 36  1  0
 36 37  2  0
 37 38  1  0
 38 39  2  0
 39 40  1  0
 40 41  2  0
 41 42  1  0
 42 43  2  0
 32  6  1  0
 42 33  1  0
 22 10  1  0
 28 23  1  0
 41 36  1  0
 29 11  1  0
 22 14  2  0
  1 44  1  0
  1 45  1  0
  1 46  1  0
  2 47  1  6
  7 48  1  0
  8 49  1  0
 10 50  1  6
 13 51  1  0
 15 52  1  0
 19 53  1  0
 19 54  1  0
 19 55  1  0
 24 56  1  0
 25 57  1  0
 26 58  1  0
 27 59  1  0
 31 60  1  0
 32 61  1  0
 37 62  1  0
 38 63  1  0
 39 64  1  0
 40 65  1  0
M  END
>  <Binding energies>  (1) 
[-11.08]

>  <Ligand effiencies>  (1) 
[-0.24622222222222223]

>  <Interactions>  (1) 
["V-B:PRO:540:CB:9857, H-B:TYR:531:OH:9767, V-B:MET:535:CE:9807, V-A:ILE:369:CG2:3236, V-B:PRO:540:CA:9855, V-B:TYR:539:CE2:9848, V-B:TYR:531:CE2:9765, V-B:LEU:363:CD1:8160, V-A:ASP:366:CG:3212, V-A:TYR:531:CE1:4792, V-A:ILE:538:CA:4860, V-A:ASP:366:CA:3209, V-A:ASP:366:CB:3211, V-A:TYR:539:CG:4872, V-A:ILE:538:CG2:4863, V-A:ASP:366:C:3207, H-B:TYR:539:OH:9850, V-A:TYR:539:CD1:4873, V-A:TYR:539:CE2:4876, V-A:PRO:540:CA:4883, H-A:TYR:531:OH:4795, V-A:TYR:539:CZ:4877, V-A:TYR:539:CD2:4874, V-A:PRO:540:CB:4885, V-A:TYR:539:CE1:4875, V-A:TYR:531:CZ:4794, V-A:ILE:538:CB:4862, H-B:LYS:534:NZ:9795, V-A:LEU:363:CD1:3188, V-A:ILE:369:CD1:3238, V-B:TYR:539:CZ:9849, V-B:LEU:363:CA:8156, H-A:TYR:539:OH:4878, V-A:ILE:369:CB:3235, H-B:GLU:543:OE1:9881, V-A:ILE:538:C:4858, V-A:LEU:363:CA:3184, V-A:LEU:363:CB:3186, V-A:MET:535:CE:4835"]

$$$$
RR24_Rahimova_2017-again1
     RDKit          3D

 63 69  0  0  0  0  0  0  0  0999 V2000
  126.2390  128.6410   57.7420 C   0  0  0  0  0  0  0  0  0  0  0  0
  125.8990  127.5840   58.8010 C   0  0  2  0  0  0  0  0  0  0  0  0
  126.4400  127.9350   60.2180 C   0  0  0  0  0  0  0  0  0  0  0  0
  125.6900  128.2830   61.1380 O   0  0  0  0  0  0  0  0  0  0  0  0
  127.8000  127.8370   60.3020 O   0  0  0  0  0  0  0  0  0  0  0  0
  128.3640  126.8880   61.1240 C   0  0  0  0  0  0  0  0  0  0  0  0
  127.6600  125.7160   61.4060 C   0  0  0  0  0  0  0  0  0  0  0  0
  128.2320  124.7430   62.2210 C   0  0  0  0  0  0  0  0  0  0  0  0
  129.5120  124.9330   62.7510 C   0  0  0  0  0  0  0  0  0  0  0  0
  130.1470  123.8620   63.6500 C   0  0  1  0  0  0  0  0  0  0  0  0
  130.6700  122.6680   62.8180 C   0  0  0  0  0  0  0  0  0  0  0  0
  130.0430  121.7560   62.0420 C   0  0  0  0  0  0  0  0  0  0  0  0
  128.7670  121.6890   61.8660 O   0  0  0  0  0  0  0  0  0  0  0  0
  131.0190  120.8710   61.4080 C   0  0  0  0  0  0  0  0  0  0  0  0
  130.8840  119.7950   60.5220 C   0  0  0  0  0  0  0  0  0  0  0  0
  132.0230  119.1280   60.0680 C   0  0  0  0  0  0  0  0  0  0  0  0
  133.2880  119.5320   60.4980 C   0  0  0  0  0  0  0  0  0  0  0  0
  133.4180  120.6050   61.3830 C   0  0  0  0  0  0  0  0  0  0  0  0
  132.2770  121.2730   61.8330 C   0  0  0  0  0  0  0  0  0  0  0  0
  132.0950  122.3870   62.7470 C   0  0  0  0  0  0  0  0  0  0  0  0
  132.9600  123.0510   63.4180 N   0  0  0  0  0  0  0  0  0  0  0  0
  132.5880  123.9940   64.3290 C   0  0  0  0  0  0  0  0  0  0  0  0
  133.6360  124.4750   65.0590 N   0  0  0  0  0  0  0  0  0  0  0  0
  133.4230  125.3850   65.9420 C   0  0  0  0  0  0  0  0  0  0  0  0
  134.4490  125.7510   66.5410 O   0  0  0  0  0  0  0  0  0  0  0  0
  132.1520  125.8980   66.1940 N   0  0  0  0  0  0  0  0  0  0  0  0
  131.8750  126.9460   67.2040 C   0  0  0  0  0  0  0  0  0  0  0  0
  131.0310  125.4580   65.5170 C   0  0  0  0  0  0  0  0  0  0  0  0
  129.8840  125.8670   65.7260 O   0  0  0  0  0  0  0  0  0  0  0  0
  131.3020  124.4310   64.5070 C   0  0  0  0  0  0  0  0  0  0  0  0
  130.2190  126.1030   62.4550 C   0  0  0  0  0  0  0  0  0  0  0  0
  129.6490  127.0750   61.6390 C   0  0  0  0  0  0  0  0  0  0  0  0
  126.2920  126.2110   58.3680 N   0  0  0  0  0  0  0  0  0  0  0  0
  125.3630  125.2360   58.1580 C   0  0  0  0  0  0  0  0  0  0  0  0
  124.1410  125.3260   58.2850 O   0  0  0  0  0  0  0  0  0  0  0  0
  126.1350  124.0390   57.7410 C   0  0  0  0  0  0  0  0  0  0  0  0
  125.7140  122.7510   57.4020 C   0  0  0  0  0  0  0  0  0  0  0  0
  126.6790  121.8050   57.0430 C   0  0  0  0  0  0  0  0  0  0  0  0
  128.0370  122.1500   57.0260 C   0  0  0  0  0  0  0  0  0  0  0  0
  128.4390  123.4450   57.3680 C   0  0  0  0  0  0  0  0  0  0  0  0
  127.4610  124.3750   57.7260 C   0  0  0  0  0  0  0  0  0  0  0  0
  127.5750  125.8000   58.1290 C   0  0  0  0  0  0  0  0  0  0  0  0
  128.6050  126.4680   58.2240 O   0  0  0  0  0  0  0  0  0  0  0  0
  126.5394  129.5750   58.2394 H   0  0  0  0  0  0  0  0  0  0  0  0
  127.0657  128.2779   57.1137 H   0  0  0  0  0  0  0  0  0  0  0  0
  125.3557  128.8279   57.1137 H   0  0  0  0  0  0  0  0  0  0  0  0
  124.8029  127.5915   58.8934 H   0  0  0  0  0  0  0  0  0  0  0  0
  126.6555  125.5616   60.9852 H   0  0  0  0  0  0  0  0  0  0  0  0
  127.6754  123.8220   62.4487 H   0  0  0  0  0  0  0  0  0  0  0  0
  129.3510  123.5145   64.3249 H   0  0  0  0  0  0  0  0  0  0  0  0
  129.8860  119.4772   60.1857 H   0  0  0  0  0  0  0  0  0  0  0  0
  131.9236  118.2831   59.3706 H   0  0  0  0  0  0  0  0  0  0  0  0
  134.1842  119.0045   60.1393 H   0  0  0  0  0  0  0  0  0  0  0  0
  134.4145  120.9224   61.7239 H   0  0  0  0  0  0  0  0  0  0  0  0
  131.9871  126.5218   68.2127 H   0  0  0  0  0  0  0  0  0  0  0  0
  132.5844  127.7766   67.0746 H   0  0  0  0  0  0  0  0  0  0  0  0
  130.8478  127.3176   67.0746 H   0  0  0  0  0  0  0  0  0  0  0  0
  131.2272  126.2548   62.8680 H   0  0  0  0  0  0  0  0  0  0  0  0
  130.2099  127.9904   61.3994 H   0  0  0  0  0  0  0  0  0  0  0  0
  124.6463  122.4866   57.4171 H   0  0  0  0  0  0  0  0  0  0  0  0
  126.3705  120.7844   56.7725 H   0  0  0  0  0  0  0  0  0  0  0  0
  128.7896  121.3995   56.7426 H   0  0  0  0  0  0  0  0  0  0  0  0
  129.5027  123.7249   57.3553 H   0  0  0  0  0  0  0  0  0  0  0  0
  1  2  1  0
  2  3  1  0
  3  4  2  0
  3  5  1  0
  5  6  1  0
  6  7  2  0
  7  8  1  0
  8  9  2  0
  9 10  1  0
 10 11  1  0
 11 12  2  0
 12 13  1  0
 12 14  1  0
 14 15  2  0
 15 16  1  0
 16 17  2  0
 17 18  1  0
 18 19  2  0
 19 20  1  0
 20 21  2  0
 21 22  1  0
 22 23  1  0
 23 24  2  0
 24 25  1  0
 24 26  1  0
 26 27  1  0
 26 28  1  0
 28 29  2  0
 28 30  1  0
  9 31  1  0
 31 32  2  0
  2 33  1  0
 33 34  1  0
 34 35  2  0
 34 36  1  0
 36 37  2  0
 37 38  1  0
 38 39  2  0
 39 40  1  0
 40 41  2  0
 41 42  1  0
 42 43  2  0
 32  6  1  0
 42 33  1  0
 30 10  1  0
 41 36  1  0
 20 11  1  0
 30 22  2  0
 19 14  1  0
  1 44  1  0
  1 45  1  0
  1 46  1  0
  2 47  1  1
  7 48  1  0
  8 49  1  0
 10 50  1  1
 15 51  1  0
 16 52  1  0
 17 53  1  0
 18 54  1  0
 27 55  1  0
 27 56  1  0
 27 57  1  0
 31 58  1  0
 32 59  1  0
 37 60  1  0
 38 61  1  0
 39 62  1  0
 40 63  1  0
M  CHG  2  13  -1  25  -1
M  END
>  <Binding energies>  (1) 
[-9.07]

>  <Ligand effiencies>  (1) 
[-0.21093023255813953]

>  <Interactions>  (1) 
["H-B:ALA:541:N:9863, V-B:PRO:540:CB:9857, H-B:TYR:531:OH:9767, V-B:MET:535:CE:9807, V-A:ILE:369:CG2:3236, V-B:TYR:539:CD2:9846, V-B:PRO:540:N:9856, V-A:LEU:475:CD1:4257, V-B:PRO:540:CA:9855, V-B:ALA:541:CB:9864, V-B:TYR:539:CE2:9848, V-B:TYR:539:C:9839, V-B:TYR:531:CE2:9765, V-B:TYR:531:CZ:9766, V-B:LEU:363:CD1:8160, V-B:TYR:539:CA:9841, H-A:TYR:484:OH:4347, H-A:GLY:454:N:4049, V-B:PRO:540:CD:9859, V-B:ASP:366:CG:8184, V-B:ASP:366:CB:8183, V-A:GLU:543:CD:4908, H-B:ARG:545:NH2:9900, V-B:TYR:539:CZ:9849, V-B:TYR:539:CG:9844, V-A:HIS:456:CE1:4069, V-A:ARG:545:CD:4923, V-B:TYR:539:CE1:9847, V-B:GLU:543:CD:9880, V-B:TYR:539:CD1:9845, H-A:ARG:545:NE:4924, V-A:ARG:545:CG:4922, V-A:ARG:545:CZ:4926, V-A:GLU:543:CB:4906, V-A:GLY:454:CA:4048"]

$$$$
RR25_Rahimova_2017
     RDKit          3D

 63 68  0  0  0  0  0  0  0  0999 V2000
  126.6910  122.5370   60.6680 O   0  0  0  0  0  0  0  0  0  0  0  0
  127.4800  123.2720   61.2640 C   0  0  0  0  0  0  0  0  0  0  0  0
  128.0380  122.7590   62.4090 O   0  0  0  0  0  0  0  0  0  0  0  0
  129.1120  123.3750   63.0260 C   0  0  0  0  0  0  0  0  0  0  0  0
  129.9440  122.5620   63.7950 C   0  0  0  0  0  0  0  0  0  0  0  0
  131.0400  123.1180   64.4510 C   0  0  0  0  0  0  0  0  0  0  0  0
  131.3180  124.4890   64.3520 C   0  0  0  0  0  0  0  0  0  0  0  0
  132.4910  125.0770   65.0460 N   0  0  0  0  0  0  0  0  0  0  0  0
  133.6130  124.8460   64.6020 O   0  0  0  0  0  0  0  0  0  0  0  0
  132.2980  125.7730   66.0380 O   0  0  0  0  0  0  0  0  0  0  0  0
  130.4610  125.2930   63.5830 C   0  0  0  0  0  0  0  0  0  0  0  0
  129.3520  124.7530   62.9250 C   0  0  0  0  0  0  0  0  0  0  0  0
  128.4030  125.5760   62.0730 C   0  0  0  0  0  0  0  0  0  0  0  0
  127.8970  124.7210   60.8780 C   0  0  2  0  0  0  0  0  0  0  0  0
  126.8440  125.5000   60.0370 C   0  0  0  0  0  0  0  0  0  0  0  0
  125.8660  124.8510   59.6550 O   0  0  0  0  0  0  0  0  0  0  0  0
  126.9270  126.8500   59.8380 N   0  0  0  0  0  0  0  0  0  0  0  0
  128.1880  127.6060   59.9890 C   0  0  0  0  0  0  0  0  0  0  0  0
  127.8750  128.9890   60.5970 C   0  0  0  0  0  0  0  0  0  0  0  0
  126.8740  129.7080   59.8030 N   0  0  0  0  0  0  0  0  0  0  0  0
  126.6710  131.0750   60.3030 C   0  0  0  0  0  0  0  0  0  0  0  0
  127.6150  132.1080   59.6300 C   0  0  0  0  0  0  0  0  0  0  0  0
  129.0400  131.6940   59.4810 N   0  0  0  0  0  0  0  0  0  0  0  0
  129.4160  131.3230   58.2080 C   0  0  0  0  0  0  0  0  0  0  0  0
  128.6320  131.2940   57.2520 O   0  0  0  0  0  0  0  0  0  0  0  0
  130.8830  130.9690   58.0600 C   0  0  0  0  0  0  0  0  0  0  0  0
  131.3790  130.6020   56.8020 C   0  0  0  0  0  0  0  0  0  0  0  0
  132.7230  130.2780   56.6280 C   0  0  0  0  0  0  0  0  0  0  0  0
  133.6130  130.3130   57.7010 C   0  0  0  0  0  0  0  0  0  0  0  0
  133.1570  130.6770   58.9910 C   0  0  0  0  0  0  0  0  0  0  0  0
  134.0060  130.7340   60.1220 C   0  0  0  0  0  0  0  0  0  0  0  0
  133.4920  131.1030   61.3640 C   0  0  0  0  0  0  0  0  0  0  0  0
  132.1440  131.4210   61.5150 C   0  0  0  0  0  0  0  0  0  0  0  0
  131.2670  131.3780   60.4240 C   0  0  0  0  0  0  0  0  0  0  0  0
  131.7820  131.0040   59.1560 C   0  0  0  0  0  0  0  0  0  0  0  0
  129.8080  131.7390   60.6270 C   0  0  0  0  0  0  0  0  0  0  0  0
  129.3610  132.0620   61.7330 O   0  0  0  0  0  0  0  0  0  0  0  0
  125.6210  128.9500   59.7790 C   0  0  0  0  0  0  0  0  0  0  0  0
  125.8140  127.5480   59.1540 C   0  0  0  0  0  0  0  0  0  0  0  0
  129.7356  121.4855   63.8833 H   0  0  0  0  0  0  0  0  0  0  0  0
  131.6959  122.4733   65.0545 H   0  0  0  0  0  0  0  0  0  0  0  0
  130.6666  126.3701   63.4966 H   0  0  0  0  0  0  0  0  0  0  0  0
  127.5454  125.8942   62.6840 H   0  0  0  0  0  0  0  0  0  0  0  0
  128.9319  126.4611   61.6897 H   0  0  0  0  0  0  0  0  0  0  0  0
  128.7584  124.5544   60.2145 H   0  0  0  0  0  0  0  0  0  0  0  0
  128.8700  127.0564   60.6544 H   0  0  0  0  0  0  0  0  0  0  0  0
  128.6658  127.7317   59.0062 H   0  0  0  0  0  0  0  0  0  0  0  0
  127.4907  128.8522   61.6186 H   0  0  0  0  0  0  0  0  0  0  0  0
  128.8017  129.5816   60.6048 H   0  0  0  0  0  0  0  0  0  0  0  0
  125.6297  131.3702   60.1065 H   0  0  0  0  0  0  0  0  0  0  0  0
  126.8977  131.0711   61.3794 H   0  0  0  0  0  0  0  0  0  0  0  0
  127.2198  132.3202   58.6256 H   0  0  0  0  0  0  0  0  0  0  0  0
  127.6286  132.9783   60.3026 H   0  0  0  0  0  0  0  0  0  0  0  0
  130.6975  130.5692   55.9392 H   0  0  0  0  0  0  0  0  0  0  0  0
  133.0870  129.9907   55.6305 H   0  0  0  0  0  0  0  0  0  0  0  0
  134.6714  130.0573   57.5448 H   0  0  0  0  0  0  0  0  0  0  0  0
  135.0731  130.4867   60.0207 H   0  0  0  0  0  0  0  0  0  0  0  0
  134.1599  131.1437   62.2370 H   0  0  0  0  0  0  0  0  0  0  0  0
  131.7630  131.7101   62.5056 H   0  0  0  0  0  0  0  0  0  0  0  0
  125.2546  128.8338   60.8096 H   0  0  0  0  0  0  0  0  0  0  0  0
  124.8963  129.5036   59.1638 H   0  0  0  0  0  0  0  0  0  0  0  0
  124.8889  126.9644   59.2704 H   0  0  0  0  0  0  0  0  0  0  0  0
  126.0499  127.6532   58.0847 H   0  0  0  0  0  0  0  0  0  0  0  0
  1  2  2  0
  2  3  1  0
  3  4  1  0
  4  5  2  0
  5  6  1  0
  6  7  2  0
  7  8  1  0
  8  9  2  0
  8 10  1  0
  7 11  1  0
 11 12  2  0
 12 13  1  0
 13 14  1  0
 14 15  1  0
 15 16  2  0
 15 17  1  0
 17 18  1  0
 18 19  1  0
 19 20  1  0
 20 21  1  0
 21 22  1  0
 22 23  1  0
 23 24  1  0
 24 25  2  0
 24 26  1  0
 26 27  2  0
 27 28  1  0
 28 29  2  0
 29 30  1  0
 30 31  2  0
 31 32  1  0
 32 33  2  0
 33 34  1  0
 34 35  2  0
 34 36  1  0
 36 37  2  0
 20 38  1  0
 38 39  1  0
 14  2  1  0
 39 17  1  0
 12  4  1  0
 36 23  1  0
 35 26  1  0
 35 30  1  0
  5 40  1  0
  6 41  1  0
 11 42  1  0
 13 43  1  0
 13 44  1  0
 14 45  1  6
 18 46  1  0
 18 47  1  0
 19 48  1  0
 19 49  1  0
 21 50  1  0
 21 51  1  0
 22 52  1  0
 22 53  1  0
 27 54  1  0
 28 55  1  0
 29 56  1  0
 31 57  1  0
 32 58  1  0
 33 59  1  0
 38 60  1  0
 38 61  1  0
 39 62  1  0
 39 63  1  0
M  CHG  2   8   1  10  -1
M  END
>  <Binding energies>  (1) 
[-10.22]

>  <Ligand effiencies>  (1) 
[-0.2620512820512821]

>  <Interactions>  (1) 
["H-B:ALA:541:N:9863, V-B:PRO:540:CA:9855, V-B:ALA:541:CB:9864, H-A:TYR:484:OH:4347, V-A:ASP:366:CG:3212, H-A:GLY:454:N:4049, V-A:ASP:366:CB:3211, V-A:TYR:539:CD1:4873, V-A:PRO:540:CA:4883, V-A:PRO:540:CB:4885, V-A:TYR:539:CE1:4875, V-A:TYR:531:CZ:4794, V-B:ASP:366:CG:8184, V-B:ASP:366:CB:8183, V-A:PRO:540:C:4881, V-A:LEU:363:CD1:3188, V-A:GLU:543:CD:4908, H-A:ARG:545:NH2:4928, V-A:TYR:484:CZ:4346, V-B:GLU:543:CG:9879, V-B:GLU:543:CD:9880, H-A:ARG:545:NE:4924, V-A:ARG:545:CZ:4926, H-A:ALA:541:N:4891, V-A:TYR:531:CE2:4793, V-A:LEU:363:CA:3184, V-A:LEU:363:CB:3186, V-A:ASN:362:CB:3175, V-A:ASN:362:C:3171, V-A:ASN:362:CA:3173"]

$$$$
RR26_Rahimova_2017
     RDKit          3D

 59 65  0  0  0  0  0  0  0  0999 V2000
  133.6610  121.4280   61.5960 C   0  0  0  0  0  0  0  0  0  0  0  0
  132.5680  120.4080   61.3070 C   0  0  0  0  0  0  0  0  0  0  0  0
  132.8990  119.2770   60.5530 C   0  0  0  0  0  0  0  0  0  0  0  0
  131.9490  118.2920   60.2920 C   0  0  0  0  0  0  0  0  0  0  0  0
  130.6570  118.4260   60.7910 C   0  0  0  0  0  0  0  0  0  0  0  0
  130.3150  119.5470   61.5440 C   0  0  0  0  0  0  0  0  0  0  0  0
  131.2560  120.5540   61.8090 C   0  0  0  0  0  0  0  0  0  0  0  0
  130.8000  121.7360   62.6150 C   0  0  0  0  0  0  0  0  0  0  0  0
  130.6260  121.6740   63.9330 N   0  0  0  0  0  0  0  0  0  0  0  0
  130.2500  122.8930   64.2130 C   0  0  0  0  0  0  0  0  0  0  0  0
  129.7990  123.7510   65.6400 S   0  0  0  0  0  0  0  0  0  0  0  0
  129.5510  125.2330   64.6420 C   0  0  0  0  0  0  0  0  0  0  0  0
  129.1500  126.4540   65.0600 C   0  0  0  0  0  0  0  0  0  0  0  0
  128.8250  126.8770   66.4130 C   0  0  0  0  0  0  0  0  0  0  0  0
  129.4780  126.5510   67.5920 C   0  0  0  0  0  0  0  0  0  0  0  0
  128.8500  127.2100   68.6190 N   0  0  0  0  0  0  0  0  0  0  0  0
  129.1680  127.1870   70.0010 C   0  0  0  0  0  0  0  0  0  0  0  0
  129.8820  128.2420   70.5910 C   0  0  0  0  0  0  0  0  0  0  0  0
  130.1900  128.2050   71.9480 C   0  0  0  0  0  0  0  0  0  0  0  0
  129.7860  127.1200   72.7200 C   0  0  0  0  0  0  0  0  0  0  0  0
  129.0740  126.0680   72.1470 C   0  0  0  0  0  0  0  0  0  0  0  0
  128.7660  126.0990   70.7900 C   0  0  0  0  0  0  0  0  0  0  0  0
  127.8450  127.9610   68.1430 N   0  0  0  0  0  0  0  0  0  0  0  0
  127.8160  127.7700   66.8390 C   0  0  0  0  0  0  0  0  0  0  0  0
  126.7870  128.4690   66.0050 C   0  0  0  0  0  0  0  0  0  0  0  0
  125.5180  128.7540   66.5340 C   0  0  0  0  0  0  0  0  0  0  0  0
  124.5510  129.4020   65.7640 C   0  0  0  0  0  0  0  0  0  0  0  0
  124.8470  129.7710   64.4530 C   0  0  0  0  0  0  0  0  0  0  0  0
  126.1170  129.5090   63.9190 C   0  0  0  0  0  0  0  0  0  0  0  0
  127.0790  128.8560   64.6890 C   0  0  0  0  0  0  0  0  0  0  0  0
  126.4400  129.8170   62.6120 O   0  0  0  0  0  0  0  0  0  0  0  0
  125.5780  130.7870   62.0090 C   0  0  0  0  0  0  0  0  0  0  0  0
  124.0960  130.4700   62.3280 C   0  0  0  0  0  0  0  0  0  0  0  0
  123.8790  130.4530   63.7430 O   0  0  0  0  0  0  0  0  0  0  0  0
  129.8240  125.0010   63.2270 C   0  0  0  0  0  0  0  0  0  0  0  0
  129.7500  125.7890   62.2820 O   0  0  0  0  0  0  0  0  0  0  0  0
  130.2090  123.6570   63.1070 N   0  0  0  0  0  0  0  0  0  0  0  0
  130.5710  122.9150   62.0570 N   0  0  0  0  0  0  0  0  0  0  0  0
  133.7803  121.5393   62.6838 H   0  0  0  0  0  0  0  0  0  0  0  0
  134.6089  121.0841   61.1565 H   0  0  0  0  0  0  0  0  0  0  0  0
  133.3834  122.3974   61.1565 H   0  0  0  0  0  0  0  0  0  0  0  0
  133.9209  119.1642   60.1618 H   0  0  0  0  0  0  0  0  0  0  0  0
  132.2197  117.4102   59.6927 H   0  0  0  0  0  0  0  0  0  0  0  0
  129.9062  117.6473   60.5910 H   0  0  0  0  0  0  0  0  0  0  0  0
  129.2921  119.6444   61.9368 H   0  0  0  0  0  0  0  0  0  0  0  0
  129.0579  127.2238   64.2797 H   0  0  0  0  0  0  0  0  0  0  0  0
  130.3461  125.8822   67.6873 H   0  0  0  0  0  0  0  0  0  0  0  0
  130.1988  129.0998   69.9796 H   0  0  0  0  0  0  0  0  0  0  0  0
  130.7512  129.0312   72.4088 H   0  0  0  0  0  0  0  0  0  0  0  0
  130.0308  127.0925   73.7921 H   0  0  0  0  0  0  0  0  0  0  0  0
  128.7563  125.2155   72.7654 H   0  0  0  0  0  0  0  0  0  0  0  0
  128.2061  125.2685   70.3352 H   0  0  0  0  0  0  0  0  0  0  0  0
  125.2830  128.4629   67.5684 H   0  0  0  0  0  0  0  0  0  0  0  0
  123.5604  129.6203   66.1896 H   0  0  0  0  0  0  0  0  0  0  0  0
  128.0705  128.6437   64.2626 H   0  0  0  0  0  0  0  0  0  0  0  0
  125.8268  131.7847   62.3997 H   0  0  0  0  0  0  0  0  0  0  0  0
  125.7204  130.7599   60.9186 H   0  0  0  0  0  0  0  0  0  0  0  0
  123.4554  131.2398   61.8730 H   0  0  0  0  0  0  0  0  0  0  0  0
  123.8486  129.4794   61.9188 H   0  0  0  0  0  0  0  0  0  0  0  0
  1  2  1  0
  2  3  2  0
  3  4  1  0
  4  5  2  0
  5  6  1  0
  6  7  2  0
  7  8  1  0
  8  9  1  0
  9 10  2  0
 10 11  1  0
 11 12  1  0
 12 13  2  0
 13 14  1  0
 14 15  2  0
 15 16  1  0
 16 17  1  0
 17 18  2  0
 18 19  1  0
 19 20  2  0
 20 21  1  0
 21 22  2  0
 16 23  1  0
 23 24  2  0
 24 25  1  0
 25 26  2  0
 26 27  1  0
 27 28  2  0
 28 29  1  0
 29 30  2  0
 29 31  1  0
 31 32  1  0
 32 33  1  0
 33 34  1  0
 12 35  1  0
 35 36  2  0
 35 37  1  0
 37 38  1  0
  7  2  1  0
 38  8  2  0
 37 10  1  0
 24 14  1  0
 30 25  1  0
 22 17  1  0
 34 28  1  0
  1 39  1  0
  1 40  1  0
  1 41  1  0
  3 42  1  0
  4 43  1  0
  5 44  1  0
  6 45  1  0
 13 46  1  0
 15 47  1  0
 18 48  1  0
 19 49  1  0
 20 50  1  0
 21 51  1  0
 22 52  1  0
 26 53  1  0
 27 54  1  0
 30 55  1  0
 32 56  1  0
 32 57  1  0
 33 58  1  0
 33 59  1  0
M  END
>  <Binding energies>  (1) 
[-9.74]

>  <Ligand effiencies>  (1) 
[-0.2563157894736842]

>  <Interactions>  (1) 
["V-A:ILE:369:CG2:3236, V-B:TYR:539:CD2:9846, V-A:LEU:475:CD1:4257, V-B:ALA:541:CB:9864, V-A:PRO:482:CG:4326, H-A:TYR:484:OH:4347, V-B:ASP:366:CG:8184, H-B:GLY:454:N:9021, V-B:ARG:545:CZ:9898, V-B:ILE:369:CD1:8210, V-A:GLU:543:CD:4908, V-A:ILE:369:CD1:3238, V-A:GLU:543:C:4902, V-B:HIS:456:CE1:9041, V-A:TYR:484:CZ:4346, V-A:HIS:456:CE1:4069, V-B:GLU:543:CB:9878, V-B:GLU:543:CG:9879, V-B:GLU:543:CD:9880, V-A:TYR:484:CE2:4345, V-B:GLU:543:C:9874, V-B:ARG:545:CG:9894, V-B:ARG:545:CD:9895"]

$$$$
RR27_Rahimova_2017
     RDKit          3D

 66 71  0  0  0  0  0  0  0  0999 V2000
  130.6330  122.1940   59.3240 O   0  0  0  0  0  0  0  0  0  0  0  0
  129.6280  122.7700   59.7490 C   0  0  0  0  0  0  0  0  0  0  0  0
  128.9870  123.8830   58.8680 C   0  0  0  0  0  0  0  0  0  0  0  0
  127.6870  123.4330   58.1770 C   0  0  0  0  0  0  0  0  0  0  0  0
  126.4680  124.0980   58.3870 C   0  0  0  0  0  0  0  0  0  0  0  0
  125.3120  123.6660   57.7440 C   0  0  0  0  0  0  0  0  0  0  0  0
  125.3670  122.5680   56.8890 C   0  0  0  0  0  0  0  0  0  0  0  0
  126.5670  121.8970   56.6740 C   0  0  0  0  0  0  0  0  0  0  0  0
  127.7240  122.3290   57.3170 C   0  0  0  0  0  0  0  0  0  0  0  0
  130.0230  124.5420   57.9370 C   0  0  0  0  0  0  0  0  0  0  0  0
  131.3630  124.6940   58.3160 C   0  0  0  0  0  0  0  0  0  0  0  0
  132.2710  125.3050   57.4540 C   0  0  0  0  0  0  0  0  0  0  0  0
  131.8410  125.7700   56.2150 C   0  0  0  0  0  0  0  0  0  0  0  0
  130.5100  125.6360   55.8300 C   0  0  0  0  0  0  0  0  0  0  0  0
  129.6030  125.0260   56.6920 C   0  0  0  0  0  0  0  0  0  0  0  0
  128.9910  122.3560   60.8810 N   0  0  0  0  0  0  0  0  0  0  0  0
  127.9570  123.1460   61.5650 C   0  0  0  0  0  0  0  0  0  0  0  0
  128.6890  124.0870   62.5480 C   0  0  0  0  0  0  0  0  0  0  0  0
  129.6280  123.3180   63.5320 C   0  0  0  0  0  0  0  0  0  0  0  0
  130.4670  124.2170   64.4590 C   0  0  0  0  0  0  0  0  0  0  0  0
  131.8090  124.2560   64.2140 N   0  0  0  0  0  0  0  0  0  0  0  0
  132.5930  125.0570   64.9880 C   0  0  0  0  0  0  0  0  0  0  0  0
  133.9490  125.1840   64.8370 O   0  0  0  0  0  0  0  0  0  0  0  0
  131.9860  125.8110   66.0110 C   0  0  0  0  0  0  0  0  0  0  0  0
  132.4610  126.6910   66.9390 N   0  0  0  0  0  0  0  0  0  0  0  0
  131.3820  127.1150   67.6920 N   0  0  0  0  0  0  0  0  0  0  0  0
  130.2650  126.5130   67.2310 N   0  0  0  0  0  0  0  0  0  0  0  0
  128.9730  126.7630   67.8660 C   0  0  0  0  0  0  0  0  0  0  0  0
  129.0660  127.0250   69.3630 C   0  0  0  0  0  0  0  0  0  0  0  0
  129.4430  128.2860   69.8350 C   0  0  0  0  0  0  0  0  0  0  0  0
  129.5180  128.5290   71.2070 C   0  0  0  0  0  0  0  0  0  0  0  0
  129.2120  127.5140   72.1140 C   0  0  0  0  0  0  0  0  0  0  0  0
  128.8260  126.2560   71.6490 C   0  0  0  0  0  0  0  0  0  0  0  0
  128.4200  125.0060   72.7700 Cl  0  0  0  0  0  0  0  0  0  0  0  0
  128.7580  126.0110   70.2780 C   0  0  0  0  0  0  0  0  0  0  0  0
  130.5910  125.6780   66.1760 C   0  0  0  0  0  0  0  0  0  0  0  0
  129.8010  124.8950   65.4370 N   0  0  0  0  0  0  0  0  0  0  0  0
  130.4690  122.2270   62.8010 C   0  0  0  0  0  0  0  0  0  0  0  0
  129.6420  121.3970   61.7870 C   0  0  0  0  0  0  0  0  0  0  0  0
  128.6553  124.6855   59.5433 H   0  0  0  0  0  0  0  0  0  0  0  0
  126.4268  124.9647   59.0631 H   0  0  0  0  0  0  0  0  0  0  0  0
  124.3589  124.1894   57.9103 H   0  0  0  0  0  0  0  0  0  0  0  0
  124.4536  122.2281   56.3790 H   0  0  0  0  0  0  0  0  0  0  0  0
  126.6014  121.0291   55.9990 H   0  0  0  0  0  0  0  0  0  0  0  0
  128.6732  121.7994   57.1481 H   0  0  0  0  0  0  0  0  0  0  0  0
  131.6995  124.3296   59.2978 H   0  0  0  0  0  0  0  0  0  0  0  0
  133.3238  125.4194   57.7517 H   0  0  0  0  0  0  0  0  0  0  0  0
  132.5598  126.2481   55.5332 H   0  0  0  0  0  0  0  0  0  0  0  0
  130.1770  126.0099   54.8506 H   0  0  0  0  0  0  0  0  0  0  0  0
  128.5494  124.9235   56.3931 H   0  0  0  0  0  0  0  0  0  0  0  0
  127.3846  123.7346   60.8330 H   0  0  0  0  0  0  0  0  0  0  0  0
  127.2500  122.4928   62.0974 H   0  0  0  0  0  0  0  0  0  0  0  0
  129.2942  124.7996   61.9684 H   0  0  0  0  0  0  0  0  0  0  0  0
  127.9240  124.5989   63.1502 H   0  0  0  0  0  0  0  0  0  0  0  0
  128.9539  122.7929   64.2248 H   0  0  0  0  0  0  0  0  0  0  0  0
  134.3350  125.8000   65.4630 H   0  0  0  0  0  0  0  0  0  0  0  0
  128.5154  127.6415   67.3877 H   0  0  0  0  0  0  0  0  0  0  0  0
  128.3701  125.8521   67.7364 H   0  0  0  0  0  0  0  0  0  0  0  0
  129.6813  129.0893   69.1223 H   0  0  0  0  0  0  0  0  0  0  0  0
  129.8186  129.5215   71.5737 H   0  0  0  0  0  0  0  0  0  0  0  0
  129.2750  127.7052   73.1954 H   0  0  0  0  0  0  0  0  0  0  0  0
  128.4610  125.0165   69.9136 H   0  0  0  0  0  0  0  0  0  0  0  0
  131.2898  122.7217   62.2610 H   0  0  0  0  0  0  0  0  0  0  0  0
  130.8396  121.5312   63.5681 H   0  0  0  0  0  0  0  0  0  0  0  0
  130.3033  120.7274   61.2175 H   0  0  0  0  0  0  0  0  0  0  0  0
  128.8966  120.7739   62.3029 H   0  0  0  0  0  0  0  0  0  0  0  0
  1  2  2  0
  2  3  1  0
  3  4  1  0
  4  5  2  0
  5  6  1  0
  6  7  2  0
  7  8  1  0
  8  9  2  0
  3 10  1  0
 10 11  2  0
 11 12  1  0
 12 13  2  0
 13 14  1  0
 14 15  2  0
  2 16  1  0
 16 17  1  0
 17 18  1  0
 18 19  1  0
 19 20  1  0
 20 21  2  0
 21 22  1  0
 22 23  1  0
 22 24  2  0
 24 25  1  0
 25 26  2  0
 26 27  1  0
 27 28  1  0
 28 29  1  0
 29 30  2  0
 30 31  1  0
 31 32  2  0
 32 33  1  0
 33 34  1  0
 33 35  2  0
 27 36  1  0
 36 37  2  0
 19 38  1  0
 38 39  1  0
  9  4  1  0
 15 10  1  0
 39 16  1  0
 37 20  1  0
 36 24  1  0
 35 29  1  0
  3 40  1  0
  5 41  1  0
  6 42  1  0
  7 43  1  0
  8 44  1  0
  9 45  1  0
 11 46  1  0
 12 47  1  0
 13 48  1  0
 14 49  1  0
 15 50  1  0
 17 51  1  0
 17 52  1  0
 18 53  1  0
 18 54  1  0
 19 55  1  0
 23 56  1  0
 28 57  1  0
 28 58  1  0
 30 59  1  0
 31 60  1  0
 32 61  1  0
 35 62  1  0
 38 63  1  0
 38 64  1  0
 39 65  1  0
 39 66  1  0
M  END
>  <Binding energies>  (1) 
[-10.99]

>  <Ligand effiencies>  (1) 
[-0.27475]

>  <Interactions>  (1) 
["V-B:PRO:540:CB:9857, V-B:MET:535:CE:9807, V-B:PRO:540:N:9856, V-A:LEU:475:CD1:4257, V-B:PRO:540:CA:9855, V-B:ALA:541:CB:9864, V-B:TYR:539:CE2:9848, V-B:TYR:539:C:9839, V-B:TYR:531:CE2:9765, V-B:LEU:363:CD1:8160, V-B:TYR:539:CA:9841, H-A:TYR:484:OH:4347, V-A:ASP:366:CG:3212, H-A:GLY:454:N:4049, V-B:PRO:540:CD:9859, V-A:ASP:366:CA:3209, V-A:ASP:366:CB:3211, V-B:TYR:539:CZ:9849, H-A:ARG:545:NH2:4928, V-A:GLU:543:C:4902, V-B:HIS:456:CE1:9041, V-A:HIS:456:CE1:4069, V-B:GLU:543:CB:9878, V-B:GLU:543:CG:9879, V-B:GLU:543:CD:9880, H-A:ARG:545:NE:4924, V-A:ARG:545:CZ:4926, H-A:ARG:545:NH1:4927, V-B:GLU:543:C:9874, V-B:ALA:541:CA:9862, V-B:HIS:456:CD2:9039, V-B:GLY:544:CA:9886"]

$$$$
RR27_Rahimova_2017-again1
     RDKit          3D

 66 71  0  0  0  0  0  0  0  0999 V2000
  126.0540  124.9270   57.3920 O   0  0  0  0  0  0  0  0  0  0  0  0
  126.9130  125.1930   58.2390 C   0  0  0  0  0  0  0  0  0  0  0  0
  126.4390  125.6920   59.6370 C   0  0  0  0  0  0  0  0  0  0  0  0
  126.4620  127.2280   59.7540 C   0  0  0  0  0  0  0  0  0  0  0  0
  126.1450  127.8890   60.9510 C   0  0  0  0  0  0  0  0  0  0  0  0
  126.1790  129.2790   61.0180 C   0  0  0  0  0  0  0  0  0  0  0  0
  126.5290  130.0160   59.8900 C   0  0  0  0  0  0  0  0  0  0  0  0
  126.8470  129.3760   58.6970 C   0  0  0  0  0  0  0  0  0  0  0  0
  126.8140  127.9860   58.6290 C   0  0  0  0  0  0  0  0  0  0  0  0
  127.1700  124.9730   60.7860 C   0  0  0  0  0  0  0  0  0  0  0  0
  126.9760  123.6060   61.0340 C   0  0  0  0  0  0  0  0  0  0  0  0
  127.6320  122.9810   62.0920 C   0  0  0  0  0  0  0  0  0  0  0  0
  128.4880  123.7190   62.9050 C   0  0  0  0  0  0  0  0  0  0  0  0
  128.6890  125.0770   62.6720 C   0  0  0  0  0  0  0  0  0  0  0  0
  128.0270  125.7030   61.6190 C   0  0  0  0  0  0  0  0  0  0  0  0
  128.2300  124.9050   58.0240 N   0  0  0  0  0  0  0  0  0  0  0  0
  129.3250  125.4360   58.8480 C   0  0  0  0  0  0  0  0  0  0  0  0
  129.7010  126.8280   58.2900 C   0  0  0  0  0  0  0  0  0  0  0  0
  129.8030  126.9310   56.7320 C   0  0  0  0  0  0  0  0  0  0  0  0
  129.5610  128.3450   56.1970 C   0  0  0  0  0  0  0  0  0  0  0  0
  130.4360  129.2820   56.3880 N   0  0  0  0  0  0  0  0  0  0  0  0
  130.1130  130.5010   55.8730 C   0  0  0  0  0  0  0  0  0  0  0  0
  128.9540  130.8200   55.1820 C   0  0  0  0  0  0  0  0  0  0  0  0
  128.9620  132.0950   54.8350 N   0  0  0  0  0  0  0  0  0  0  0  0
  130.1510  132.6470   55.3000 N   0  0  0  0  0  0  0  0  0  0  0  0
  130.8370  131.6640   55.9080 N   0  0  0  0  0  0  0  0  0  0  0  0
  132.1300  131.9250   56.5280 C   0  0  0  0  0  0  0  0  0  0  0  0
  132.2070  131.4740   57.9790 C   0  0  0  0  0  0  0  0  0  0  0  0
  133.4390  131.1240   58.5410 C   0  0  0  0  0  0  0  0  0  0  0  0
  133.5100  130.7010   59.8690 C   0  0  0  0  0  0  0  0  0  0  0  0
  132.3520  130.6290   60.6420 C   0  0  0  0  0  0  0  0  0  0  0  0
  131.1200  130.9820   60.0890 C   0  0  0  0  0  0  0  0  0  0  0  0
  129.6870  130.8880   61.0440 Cl  0  0  0  0  0  0  0  0  0  0  0  0
  131.0480  131.4060   58.7610 C   0  0  0  0  0  0  0  0  0  0  0  0
  127.9530  129.7790   54.9470 C   0  0  0  0  0  0  0  0  0  0  0  0
  126.8780  129.8690   54.3580 O   0  0  0  0  0  0  0  0  0  0  0  0
  128.3800  128.5910   55.5020 N   0  0  0  0  0  0  0  0  0  0  0  0
  129.0210  125.8490   55.9220 C   0  0  0  0  0  0  0  0  0  0  0  0
  128.6900  124.5380   56.6770 C   0  0  0  0  0  0  0  0  0  0  0  0
  125.3800  125.4120   59.7372 H   0  0  0  0  0  0  0  0  0  0  0  0
  125.8681  127.3052   61.8413 H   0  0  0  0  0  0  0  0  0  0  0  0
  125.9304  129.7929   61.9583 H   0  0  0  0  0  0  0  0  0  0  0  0
  126.5542  131.1144   59.9428 H   0  0  0  0  0  0  0  0  0  0  0  0
  127.1235  129.9658   57.8106 H   0  0  0  0  0  0  0  0  0  0  0  0
  127.0659  127.4791   57.6858 H   0  0  0  0  0  0  0  0  0  0  0  0
  126.3015  123.0239   60.3888 H   0  0  0  0  0  0  0  0  0  0  0  0
  127.4745  121.9094   62.2842 H   0  0  0  0  0  0  0  0  0  0  0  0
  129.0097  123.2253   63.7381 H   0  0  0  0  0  0  0  0  0  0  0  0
  129.3683  125.6532   63.3174 H   0  0  0  0  0  0  0  0  0  0  0  0
  128.1782  126.7778   61.4403 H   0  0  0  0  0  0  0  0  0  0  0  0
  128.9963  125.5279   59.8937 H   0  0  0  0  0  0  0  0  0  0  0  0
  130.1930  124.7611   58.8165 H   0  0  0  0  0  0  0  0  0  0  0  0
  128.9371  127.5443   58.6265 H   0  0  0  0  0  0  0  0  0  0  0  0
  130.7110  127.0402   58.6707 H   0  0  0  0  0  0  0  0  0  0  0  0
  130.8601  126.6904   56.5458 H   0  0  0  0  0  0  0  0  0  0  0  0
  132.9045  131.3931   55.9561 H   0  0  0  0  0  0  0  0  0  0  0  0
  132.2804  133.0146   56.5185 H   0  0  0  0  0  0  0  0  0  0  0  0
  134.3548  131.1823   57.9344 H   0  0  0  0  0  0  0  0  0  0  0  0
  134.4806  130.4241   60.3063 H   0  0  0  0  0  0  0  0  0  0  0  0
  132.4093  130.2939   61.6881 H   0  0  0  0  0  0  0  0  0  0  0  0
  130.0771  131.6877   58.3275 H   0  0  0  0  0  0  0  0  0  0  0  0
  127.7420  127.8180   55.3860 H   0  0  0  0  0  0  0  0  0  0  0  0
  128.0713  126.2965   55.5938 H   0  0  0  0  0  0  0  0  0  0  0  0
  129.6903  125.5550   55.1000 H   0  0  0  0  0  0  0  0  0  0  0  0
  127.8977  123.9894   56.1466 H   0  0  0  0  0  0  0  0  0  0  0  0
  129.5776  123.8908   56.7348 H   0  0  0  0  0  0  0  0  0  0  0  0
  1  2  2  0
  2  3  1  0
  3  4  1  0
  4  5  2  0
  5  6  1  0
  6  7  2  0
  7  8  1  0
  8  9  2  0
  3 10  1  0
 10 11  2  0
 11 12  1  0
 12 13  2  0
 13 14  1  0
 14 15  2  0
  2 16  1  0
 16 17  1  0
 17 18  1  0
 18 19  1  0
 19 20  1  0
 20 21  2  0
 21 22  1  0
 22 23  2  0
 23 24  1  0
 24 25  2  0
 25 26  1  0
 26 27  1  0
 27 28  1  0
 28 29  2  0
 29 30  1  0
 30 31  2  0
 31 32  1  0
 32 33  1  0
 32 34  2  0
 23 35  1  0
 35 36  2  0
 35 37  1  0
 19 38  1  0
 38 39  1  0
  9  4  1  0
 15 10  1  0
 39 16  1  0
 37 20  1  0
 26 22  1  0
 34 28  1  0
  3 40  1  0
  5 41  1  0
  6 42  1  0
  7 43  1  0
  8 44  1  0
  9 45  1  0
 11 46  1  0
 12 47  1  0
 13 48  1  0
 14 49  1  0
 15 50  1  0
 17 51  1  0
 17 52  1  0
 18 53  1  0
 18 54  1  0
 19 55  1  0
 27 56  1  0
 27 57  1  0
 29 58  1  0
 30 59  1  0
 31 60  1  0
 34 61  1  0
 37 62  1  0
 38 63  1  0
 38 64  1  0
 39 65  1  0
 39 66  1  0
M  END
>  <Binding energies>  (1) 
[-10.65]

>  <Ligand effiencies>  (1) 
[-0.26625]

>  <Interactions>  (1) 
["H-B:TYR:531:OH:9767, V-B:MET:535:CE:9807, V-B:PRO:540:CA:9855, V-B:ALA:541:CB:9864, V-A:ASP:366:CG:3212, V-A:PRO:540:N:4884, V-A:ASP:366:CB:3211, V-A:PRO:540:CA:4883, H-A:TYR:531:OH:4795, H-A:TYR:539:N:4870, V-A:PRO:540:CB:4885, V-A:ILE:538:CB:4862, V-B:ASP:366:CG:8184, V-B:TYR:531:CE1:9764, H-B:LYS:534:NZ:9795, V-A:PRO:540:CD:4887, V-A:LEU:363:CD1:3188, H-A:TYR:539:OH:4878, V-B:GLU:543:CG:9879, V-B:GLU:543:CD:9880, V-A:LEU:363:CA:3184, V-A:LEU:363:CB:3186, V-A:ASN:362:C:3171"]

$$$$
RR28_Rahimova_2017
     RDKit          3D

 82 85  0  0  0  0  0  0  0  0999 V2000
  130.6040  119.3970   61.1280 C   0  0  0  0  0  0  0  0  0  0  0  0
  130.5540  120.9210   61.1550 C   0  0  0  0  0  0  0  0  0  0  0  0
  131.5230  121.5530   61.5730 O   0  0  0  0  0  0  0  0  0  0  0  0
  129.4170  121.4890   60.7070 N   0  0  0  0  0  0  0  0  0  0  0  0
  129.0830  122.9300   60.6250 C   0  0  0  0  0  0  0  0  0  0  0  0
  129.4850  123.6000   61.9700 C   0  0  0  0  0  0  0  0  0  0  0  0
  129.1430  122.9750   63.1790 C   0  0  0  0  0  0  0  0  0  0  0  0
  129.4830  123.5470   64.4010 C   0  0  0  0  0  0  0  0  0  0  0  0
  130.1730  124.7600   64.4420 C   0  0  0  0  0  0  0  0  0  0  0  0
  130.5330  125.3760   65.7940 C   0  0  0  0  0  0  0  0  0  0  0  0
  130.2270  124.5730   66.8150 F   0  0  0  0  0  0  0  0  0  0  0  0
  131.8400  125.6340   65.8510 F   0  0  0  0  0  0  0  0  0  0  0  0
  129.8630  126.5190   65.9470 F   0  0  0  0  0  0  0  0  0  0  0  0
  130.5180  125.3930   63.2450 C   0  0  0  0  0  0  0  0  0  0  0  0
  130.1770  124.8190   62.0230 C   0  0  0  0  0  0  0  0  0  0  0  0
  127.5700  123.1240   60.2500 C   0  0  0  0  0  0  0  0  0  0  0  0
  127.2220  122.6200   58.8260 C   0  0  0  0  0  0  0  0  0  0  0  0
  128.0790  123.3720   57.8960 N   0  0  0  0  0  0  0  0  0  0  0  0
  127.6240  124.5150   57.3140 C   0  0  0  0  0  0  0  0  0  0  0  0
  126.4470  124.8700   57.4010 O   0  0  0  0  0  0  0  0  0  0  0  0
  128.5710  125.3060   56.3780 C   0  0  0  0  0  0  0  0  0  0  0  0
  129.5120  126.3290   57.0720 C   0  0  0  0  0  0  0  0  0  0  0  0
  128.8600  127.6850   57.4270 C   0  0  0  0  0  0  0  0  0  0  0  0
  128.7710  128.5350   56.5360 O   0  0  0  0  0  0  0  0  0  0  0  0
  128.2850  127.8600   58.6510 N   0  0  0  0  0  0  0  0  0  0  0  0
  128.6220  127.0450   59.8240 C   0  0  0  0  0  0  0  0  0  0  0  0
  129.8630  127.6970   60.4720 C   0  0  0  0  0  0  0  0  0  0  0  0
  129.6840  129.2050   60.8630 C   0  0  0  0  0  0  0  0  0  0  0  0
  131.0140  129.8100   61.0850 N   0  0  0  0  0  0  0  0  0  0  0  0
  131.3280  131.1180   61.1810 C   0  0  0  0  0  0  0  0  0  0  0  0
  132.8030  131.4450   61.3950 C   0  0  0  0  0  0  0  0  0  0  0  0
  130.5070  132.0310   61.1040 O   0  0  0  0  0  0  0  0  0  0  0  0
  128.9130  129.2480   62.2220 C   0  0  0  0  0  0  0  0  0  0  0  0
  128.4960  130.4470   62.8240 C   0  0  0  0  0  0  0  0  0  0  0  0
  127.8110  130.4410   64.0360 C   0  0  0  0  0  0  0  0  0  0  0  0
  127.5280  129.2350   64.6800 C   0  0  0  0  0  0  0  0  0  0  0  0
  126.7730  129.2120   66.0090 C   0  0  0  0  0  0  0  0  0  0  0  0
  126.9650  128.0510   66.6380 F   0  0  0  0  0  0  0  0  0  0  0  0
  127.2250  130.1960   66.7850 F   0  0  0  0  0  0  0  0  0  0  0  0
  125.4600  129.3780   65.8440 F   0  0  0  0  0  0  0  0  0  0  0  0
  127.9430  128.0360   64.1000 C   0  0  0  0  0  0  0  0  0  0  0  0
  128.6270  128.0450   62.8880 C   0  0  0  0  0  0  0  0  0  0  0  0
  128.9280  129.9520   59.6970 C   0  0  0  0  0  0  0  0  0  0  0  0
  127.7570  129.1750   59.0360 C   0  0  0  0  0  0  0  0  0  0  0  0
  129.5110  123.0810   58.0580 C   0  0  0  0  0  0  0  0  0  0  0  0
  129.9190  123.5740   59.4700 C   0  0  0  0  0  0  0  0  0  0  0  0
  130.6166  119.0122   62.1584 H   0  0  0  0  0  0  0  0  0  0  0  0
  129.7181  119.0103   60.6030 H   0  0  0  0  0  0  0  0  0  0  0  0
  131.5134  119.0692   60.6030 H   0  0  0  0  0  0  0  0  0  0  0  0
  128.6800  120.8680   60.4080 H   0  0  0  0  0  0  0  0  0  0  0  0
  128.5985  122.0194   63.1604 H   0  0  0  0  0  0  0  0  0  0  0  0
  129.2071  123.0416   65.3383 H   0  0  0  0  0  0  0  0  0  0  0  0
  131.0614  126.3491   63.2681 H   0  0  0  0  0  0  0  0  0  0  0  0
  130.4537  125.3277   61.0878 H   0  0  0  0  0  0  0  0  0  0  0  0
  126.9565  122.5703   60.9760 H   0  0  0  0  0  0  0  0  0  0  0  0
  127.3646  124.2044   60.2726 H   0  0  0  0  0  0  0  0  0  0  0  0
  127.4261  121.5422   58.7439 H   0  0  0  0  0  0  0  0  0  0  0  0
  126.1568  122.7741   58.5986 H   0  0  0  0  0  0  0  0  0  0  0  0
  129.1995  124.5794   55.8422 H   0  0  0  0  0  0  0  0  0  0  0  0
  127.9155  125.9002   55.7244 H   0  0  0  0  0  0  0  0  0  0  0  0
  129.8816  125.8746   58.0031 H   0  0  0  0  0  0  0  0  0  0  0  0
  130.3084  126.5529   56.3470 H   0  0  0  0  0  0  0  0  0  0  0  0
  127.7825  127.0373   60.5348 H   0  0  0  0  0  0  0  0  0  0  0  0
  128.8253  126.0025   59.5378 H   0  0  0  0  0  0  0  0  0  0  0  0
  130.1086  127.1336   61.3843 H   0  0  0  0  0  0  0  0  0  0  0  0
  130.6605  127.6656   59.7150 H   0  0  0  0  0  0  0  0  0  0  0  0
  131.7770  129.1510   61.1320 H   0  0  0  0  0  0  0  0  0  0  0  0
  133.0154  131.4921   62.4733 H   0  0  0  0  0  0  0  0  0  0  0  0
  133.4228  130.6625   60.9330 H   0  0  0  0  0  0  0  0  0  0  0  0
  133.0340  132.4162   60.9330 H   0  0  0  0  0  0  0  0  0  0  0  0
  128.7141  131.4053   62.3300 H   0  0  0  0  0  0  0  0  0  0  0  0
  127.4911  131.3912   64.4885 H   0  0  0  0  0  0  0  0  0  0  0  0
  127.7290  127.0809   64.6020 H   0  0  0  0  0  0  0  0  0  0  0  0
  128.9497  127.0920   62.4433 H   0  0  0  0  0  0  0  0  0  0  0  0
  128.5217  130.8890   60.1056 H   0  0  0  0  0  0  0  0  0  0  0  0
  129.6754  130.0935   58.9024 H   0  0  0  0  0  0  0  0  0  0  0  0
  126.9296  129.0564   59.7511 H   0  0  0  0  0  0  0  0  0  0  0  0
  127.3682  129.7161   58.1608 H   0  0  0  0  0  0  0  0  0  0  0  0
  129.6885  121.9990   57.9701 H   0  0  0  0  0  0  0  0  0  0  0  0
  130.1036  123.5855   57.2806 H   0  0  0  0  0  0  0  0  0  0  0  0
  130.9794  123.3297   59.6305 H   0  0  0  0  0  0  0  0  0  0  0  0
  129.7295  124.6571   59.5003 H   0  0  0  0  0  0  0  0  0  0  0  0
  1  2  1  0
  2  3  2  0
  2  4  1  0
  4  5  1  0
  5  6  1  0
  6  7  2  0
  7  8  1  0
  8  9  2  0
  9 10  1  0
 10 11  1  0
 10 12  1  0
 10 13  1  0
  9 14  1  0
 14 15  2  0
  5 16  1  0
 16 17  1  0
 17 18  1  0
 18 19  1  0
 19 20  2  0
 19 21  1  0
 21 22  1  0
 22 23  1  0
 23 24  2  0
 23 25  1  0
 25 26  1  0
 26 27  1  0
 27 28  1  0
 28 29  1  0
 29 30  1  0
 30 31  1  0
 30 32  2  0
 28 33  1  0
 33 34  2  0
 34 35  1  0
 35 36  2  0
 36 37  1  0
 37 38  1  0
 37 39  1  0
 37 40  1  0
 36 41  1  0
 41 42  2  0
 28 43  1  0
 43 44  1  0
 18 45  1  0
 45 46  1  0
 46  5  1  0
 15  6  1  0
 44 25  1  0
 42 33  1  0
  1 47  1  0
  1 48  1  0
  1 49  1  0
  4 50  1  0
  7 51  1  0
  8 52  1  0
 14 53  1  0
 15 54  1  0
 16 55  1  0
 16 56  1  0
 17 57  1  0
 17 58  1  0
 21 59  1  0
 21 60  1  0
 22 61  1  0
 22 62  1  0
 26 63  1  0
 26 64  1  0
 27 65  1  0
 27 66  1  0
 29 67  1  0
 31 68  1  0
 31 69  1  0
 31 70  1  0
 34 71  1  0
 35 72  1  0
 41 73  1  0
 42 74  1  0
 43 75  1  0
 43 76  1  0
 44 77  1  0
 44 78  1  0
 45 79  1  0
 45 80  1  0
 46 81  1  0
 46 82  1  0
M  END
>  <Binding energies>  (1) 
[-8.56]

>  <Ligand effiencies>  (1) 
[-0.17833333333333334]

>  <Interactions>  (1) 
["V-B:PRO:540:CB:9857, H-B:TYR:531:OH:9767, V-B:MET:535:CE:9807, V-B:TYR:539:CD2:9846, V-B:PRO:540:N:9856, V-B:PRO:540:CA:9855, V-B:ALA:541:CB:9864, V-B:TYR:539:CE2:9848, V-B:TYR:539:C:9839, V-A:PRO:540:CA:4883, V-A:PRO:540:CB:4885, V-B:ARG:545:CZ:9898, V-A:PRO:540:C:4881, V-A:GLU:543:CG:4907, V-A:GLU:543:CD:4908, H-A:ASP:366:OD2:3214, V-B:TYR:539:CZ:9849, H-B:TYR:539:O:9840, V-B:HIS:456:CE1:9041, V-A:TYR:484:CZ:4346, V-B:GLU:543:CB:9878, V-B:GLU:543:CG:9879, V-B:GLU:543:CD:9880, V-A:TYR:484:CE2:4345, H-A:ALA:541:N:4891, V-B:TYR:484:CZ:9318, V-B:TYR:484:CE2:9317, H-A:GLU:543:OE2:4910, V-A:ASN:362:CB:3175"]

$$$$
RR29_Rahimova_2017
     RDKit          3D

 35 36  0  0  0  0  0  0  0  0999 V2000
  126.5080  126.3360   59.5640 C   0  0  0  0  0  0  0  0  0  0  0  0
  126.8510  126.1110   61.0290 C   0  0  0  0  0  0  0  0  0  0  0  0
  126.6230  124.6520   61.4840 C   0  0  0  0  0  0  0  0  0  0  0  0
  127.7740  123.7270   61.0350 C   0  0  0  0  0  0  0  0  0  0  0  0
  127.5420  123.1490   59.6480 C   0  0  0  0  0  0  0  0  0  0  0  0
  128.6190  122.5970   58.9270 C   0  0  0  0  0  0  0  0  0  0  0  0
  128.4270  122.0580   57.6470 C   0  0  0  0  0  0  0  0  0  0  0  0
  127.1420  122.1010   57.1170 C   0  0  0  0  0  0  0  0  0  0  0  0
  126.0950  122.6380   57.8110 C   0  0  0  0  0  0  0  0  0  0  0  0
  126.2530  123.1700   59.0860 C   0  0  0  0  0  0  0  0  0  0  0  0
  124.9590  122.5170   57.0740 O   0  0  0  0  0  0  0  0  0  0  0  0
  125.3740  122.0810   55.8070 C   0  0  0  0  0  0  0  0  0  0  0  0
  126.6960  121.6270   55.9240 O   0  0  0  0  0  0  0  0  0  0  0  0
  127.2700  127.1050   61.7220 N   0  0  0  0  0  0  0  0  0  0  0  0
  127.4990  126.9230   63.0680 N   0  0  0  0  0  0  0  0  0  0  0  0
  128.7030  127.0520   63.6490 C   0  0  0  0  0  0  0  0  0  0  0  0
  129.8250  127.3900   63.0120 N   0  0  0  0  0  0  0  0  0  0  0  0
  128.7850  126.8300   64.9530 N   0  0  0  0  0  0  0  0  0  0  0  0
  125.5903  126.9380   59.4906 H   0  0  0  0  0  0  0  0  0  0  0  0
  127.3355  126.8673   59.0711 H   0  0  0  0  0  0  0  0  0  0  0  0
  126.3502  125.3654   59.0711 H   0  0  0  0  0  0  0  0  0  0  0  0
  126.5537  124.6277   62.5815 H   0  0  0  0  0  0  0  0  0  0  0  0
  125.6926  124.2904   61.0219 H   0  0  0  0  0  0  0  0  0  0  0  0
  128.7095  124.3056   61.0252 H   0  0  0  0  0  0  0  0  0  0  0  0
  127.8279  122.8881   61.7445 H   0  0  0  0  0  0  0  0  0  0  0  0
  129.6240  122.5887   59.3742 H   0  0  0  0  0  0  0  0  0  0  0  0
  129.2621  121.6173   57.0827 H   0  0  0  0  0  0  0  0  0  0  0  0
  125.3993  123.5927   59.6360 H   0  0  0  0  0  0  0  0  0  0  0  0
  124.7258  121.2620   55.4618 H   0  0  0  0  0  0  0  0  0  0  0  0
  125.3118  122.9020   55.0776 H   0  0  0  0  0  0  0  0  0  0  0  0
  126.7060  126.6490   63.6300 H   0  0  0  0  0  0  0  0  0  0  0  0
  130.6060  127.7710   63.5250 H   0  0  0  0  0  0  0  0  0  0  0  0
  129.8830  127.2710   62.0100 H   0  0  0  0  0  0  0  0  0  0  0  0
  128.0780  126.2790   65.4170 H   0  0  0  0  0  0  0  0  0  0  0  0
  129.5590  127.2080   65.4790 H   0  0  0  0  0  0  0  0  0  0  0  0
  1  2  1  0
  2  3  1  0
  3  4  1  0
  4  5  1  0
  5  6  2  0
  6  7  1  0
  7  8  2  0
  8  9  1  0
  9 10  2  0
  9 11  1  0
 11 12  1  0
 12 13  1  0
  2 14  2  0
 14 15  1  0
 15 16  1  0
 16 17  1  0
 16 18  2  0
 10  5  1  0
 13  8  1  0
  1 19  1  0
  1 20  1  0
  1 21  1  0
  3 22  1  0
  3 23  1  0
  4 24  1  0
  4 25  1  0
  6 26  1  0
  7 27  1  0
 10 28  1  0
 12 29  1  0
 12 30  1  0
 15 31  1  0
 17 32  1  0
 17 33  1  0
 18 34  1  0
 18 35  1  0
M  CHG  1  18   1
M  END
>  <Binding energies>  (1) 
[-7.68]

>  <Ligand effiencies>  (1) 
[-0.33391304347826084]

>  <Interactions>  (1) 
["V-B:PRO:540:CB:9857, V-B:MET:535:CE:9807, V-B:TYR:539:CD2:9846, V-B:PRO:540:N:9856, V-B:PRO:540:CA:9855, H-B:TYR:539:N:9842, V-B:TYR:539:CE2:9848, V-B:TYR:539:C:9839, V-B:LEU:363:CD1:8160, V-B:TYR:539:CA:9841, V-B:PRO:540:CD:9859, V-B:ASP:366:CG:8184, V-A:GLU:543:CD:4908, V-B:TYR:539:CZ:9849, V-B:TYR:539:CG:9844, V-B:TYR:539:CE1:9847, H-B:GLU:543:OE1:9881, V-B:GLU:543:CD:9880, H-B:GLU:543:OE2:9882, V-B:TYR:539:CD1:9845, V-B:ILE:538:CG2:9835, H-A:GLU:543:OE1:4909, H-A:GLU:543:OE2:4910"]

$$$$
RR29_Rahimova_2017-again1
     RDKit          3D

 34 35  0  0  0  0  0  0  0  0999 V2000
  129.9150  122.4600   63.2470 C   0  0  0  0  0  0  0  0  0  0  0  0
  128.8450  122.3130   62.1760 C   0  0  0  0  0  0  0  0  0  0  0  0
  129.3580  121.6500   60.8830 C   0  0  0  0  0  0  0  0  0  0  0  0
  129.7710  122.7020   59.8330 C   0  0  0  0  0  0  0  0  0  0  0  0
  128.6380  123.0350   58.8740 C   0  0  0  0  0  0  0  0  0  0  0  0
  128.1310  124.3480   58.8140 C   0  0  0  0  0  0  0  0  0  0  0  0
  127.0880  124.6780   57.9370 C   0  0  0  0  0  0  0  0  0  0  0  0
  126.5720  123.6620   57.1400 C   0  0  0  0  0  0  0  0  0  0  0  0
  127.0590  122.3850   57.1950 C   0  0  0  0  0  0  0  0  0  0  0  0
  128.0990  122.0330   58.0490 C   0  0  0  0  0  0  0  0  0  0  0  0
  126.3990  121.6140   56.2930 O   0  0  0  0  0  0  0  0  0  0  0  0
  125.3360  122.4020   55.8270 C   0  0  0  0  0  0  0  0  0  0  0  0
  125.5920  123.7290   56.2020 O   0  0  0  0  0  0  0  0  0  0  0  0
  127.6570  122.7480   62.4110 N   0  0  0  0  0  0  0  0  0  0  0  0
  126.7840  122.6290   61.4630 N   0  0  0  0  0  0  0  0  0  0  0  0
  126.0380  123.6440   61.2180 C   0  0  0  0  0  0  0  0  0  0  0  0
  126.0400  124.9100   61.8670 N   0  0  0  0  0  0  0  0  0  0  0  0
  125.0620  123.6060   60.1990 N   0  0  0  0  0  0  0  0  0  0  0  0
  129.4495  122.3960   64.2416 H   0  0  0  0  0  0  0  0  0  0  0  0
  130.6569  121.6553   63.1370 H   0  0  0  0  0  0  0  0  0  0  0  0
  130.4124  123.4349   63.1370 H   0  0  0  0  0  0  0  0  0  0  0  0
  130.2300  121.0242   61.1240 H   0  0  0  0  0  0  0  0  0  0  0  0
  128.5442  121.0423   60.4607 H   0  0  0  0  0  0  0  0  0  0  0  0
  130.0753  123.6217   60.3542 H   0  0  0  0  0  0  0  0  0  0  0  0
  130.5992  122.2822   59.2432 H   0  0  0  0  0  0  0  0  0  0  0  0
  128.5593  125.1251   59.4642 H   0  0  0  0  0  0  0  0  0  0  0  0
  126.6924  125.7029   57.8815 H   0  0  0  0  0  0  0  0  0  0  0  0
  128.4869  121.0041   58.0777 H   0  0  0  0  0  0  0  0  0  0  0  0
  125.2677  122.3289   54.7316 H   0  0  0  0  0  0  0  0  0  0  0  0
  124.3839  122.0573   56.2567 H   0  0  0  0  0  0  0  0  0  0  0  0
  126.6690  125.1210   62.6290 H   0  0  0  0  0  0  0  0  0  0  0  0
  125.4090  125.6530   61.6080 H   0  0  0  0  0  0  0  0  0  0  0  0
  124.9110  122.7860   59.6310 H   0  0  0  0  0  0  0  0  0  0  0  0
  124.4630  124.3910   59.9940 H   0  0  0  0  0  0  0  0  0  0  0  0
  1  2  1  0
  2  3  1  0
  3  4  1  0
  4  5  1  0
  5  6  2  0
  6  7  1  0
  7  8  2  0
  8  9  1  0
  9 10  2  0
  9 11  1  0
 11 12  1  0
 12 13  1  0
  2 14  2  0
 14 15  1  0
 15 16  2  0
 16 17  1  0
 16 18  1  0
 10  5  1  0
 13  8  1  0
  1 19  1  0
  1 20  1  0
  1 21  1  0
  3 22  1  0
  3 23  1  0
  4 24  1  0
  4 25  1  0
  6 26  1  0
  7 27  1  0
 10 28  1  0
 12 29  1  0
 12 30  1  0
 17 31  1  0
 17 32  1  0
 18 33  1  0
 18 34  1  0
M  END
>  <Binding energies>  (1) 
[-6.92]

>  <Ligand effiencies>  (1) 
[-0.3145454545454545]

>  <Interactions>  (1) 
["H-B:ALA:541:N:9863, V-B:PRO:540:CB:9857, H-B:TYR:531:OH:9767, V-B:MET:535:CE:9807, V-B:TYR:539:CD2:9846, V-B:PRO:540:N:9856, V-B:PRO:540:CA:9855, H-B:TYR:539:N:9842, V-B:ALA:541:CB:9864, V-B:TYR:539:CE2:9848, V-B:MET:535:CG:9805, V-B:TYR:539:C:9839, V-B:TYR:531:CE2:9765, V-B:LEU:363:CD1:8160, V-B:TYR:539:CG:9844, H-B:GLU:543:OE1:9881, V-B:GLU:543:CD:9880, H-B:GLU:543:OE2:9882, H-B:ASP:366:OD2:8186, H-B:ASP:366:OD1:8185, V-B:ALA:541:CA:9862"]

$$$$
RR2_Rahimova_2017
     RDKit          3D

 76 80  0  0  0  0  0  0  0  0999 V2000
  129.6090  121.4980   61.0410 C   0  0  0  0  0  0  0  0  0  0  0  0
  128.7630  121.9460   62.0940 O   0  0  0  0  0  0  0  0  0  0  0  0
  128.2500  123.2290   62.0480 C   0  0  0  0  0  0  0  0  0  0  0  0
  128.9080  124.3620   62.5450 C   0  0  0  0  0  0  0  0  0  0  0  0
  128.3110  125.6160   62.4580 C   0  0  0  0  0  0  0  0  0  0  0  0
  127.0450  125.7680   61.8760 C   0  0  0  0  0  0  0  0  0  0  0  0
  126.4130  127.1440   61.7990 C   0  0  0  0  0  0  0  0  0  0  0  0
  126.1700  127.7760   62.8320 O   0  0  0  0  0  0  0  0  0  0  0  0
  126.1360  127.5980   60.5540 N   0  0  0  0  0  0  0  0  0  0  0  0
  125.4720  128.8130   60.4310 N   0  0  0  0  0  0  0  0  0  0  0  0
  125.0130  129.1690   59.2140 C   0  0  0  0  0  0  0  0  0  0  0  0
  125.2870  128.5890   58.1600 O   0  0  0  0  0  0  0  0  0  0  0  0
  124.0660  130.3760   59.1920 C   0  0  0  0  0  0  0  0  0  0  0  0
  124.6470  131.8350   60.1330 S   0  0  0  0  0  0  0  0  0  0  0  0
  124.7140  131.1630   61.7660 C   0  0  0  0  0  0  0  0  0  0  0  0
  123.6450  130.8570   62.4560 N   0  0  0  0  0  0  0  0  0  0  0  0
  124.0640  130.4300   63.7080 N   0  0  0  0  0  0  0  0  0  0  0  0
  125.3750  130.4660   63.7180 C   0  0  0  0  0  0  0  0  0  0  0  0
  126.2000  130.0600   64.8960 C   0  0  0  0  0  0  0  0  0  0  0  0
  127.2100  130.9050   65.3620 C   0  0  0  0  0  0  0  0  0  0  0  0
  127.9880  130.5320   66.4530 C   0  0  0  0  0  0  0  0  0  0  0  0
  127.7510  129.3150   67.1020 C   0  0  0  0  0  0  0  0  0  0  0  0
  128.5100  128.8830   68.2000 N   0  0  0  0  0  0  0  0  0  0  0  0
  128.7990  127.1810   68.6240 S   0  0  0  0  0  0  0  0  0  0  0  0
  127.5250  126.4880   68.4040 O   0  0  0  0  0  0  0  0  0  0  0  0
  129.4600  127.1440   69.9340 O   0  0  0  0  0  0  0  0  0  0  0  0
  129.9380  126.5760   67.3800 C   0  0  0  0  0  0  0  0  0  0  0  0
  129.4830  125.7790   66.3270 C   0  0  0  0  0  0  0  0  0  0  0  0
  130.3870  125.3050   65.3800 C   0  0  0  0  0  0  0  0  0  0  0  0
  131.7410  125.6330   65.4810 C   0  0  0  0  0  0  0  0  0  0  0  0
  132.7260  125.1040   64.4560 C   0  0  0  0  0  0  0  0  0  0  0  0
  132.1930  126.4270   66.5380 C   0  0  0  0  0  0  0  0  0  0  0  0
  131.2910  126.9000   67.4860 C   0  0  0  0  0  0  0  0  0  0  0  0
  126.7390  128.4740   66.6390 C   0  0  0  0  0  0  0  0  0  0  0  0
  125.9650  128.8430   65.5430 C   0  0  0  0  0  0  0  0  0  0  0  0
  125.8590  130.9310   62.5060 N   0  0  0  0  0  0  0  0  0  0  0  0
  127.1980  131.1590   62.1250 C   0  0  0  0  0  0  0  0  0  0  0  0
  128.1810  130.2190   62.4380 C   0  0  0  0  0  0  0  0  0  0  0  0
  129.4990  130.4490   62.0550 C   0  0  0  0  0  0  0  0  0  0  0  0
  129.8470  131.6100   61.3640 C   0  0  0  0  0  0  0  0  0  0  0  0
  131.1800  131.7500   61.0280 O   0  0  0  0  0  0  0  0  0  0  0  0
  132.0260  130.6040   61.0500 C   0  0  0  0  0  0  0  0  0  0  0  0
  128.8510  132.5510   61.0540 C   0  0  0  0  0  0  0  0  0  0  0  0
  127.5310  132.3250   61.4320 C   0  0  0  0  0  0  0  0  0  0  0  0
  126.3950  124.6290   61.3740 C   0  0  0  0  0  0  0  0  0  0  0  0
  126.9950  123.3760   61.4620 C   0  0  0  0  0  0  0  0  0  0  0  0
  130.5051  121.0235   61.4673 H   0  0  0  0  0  0  0  0  0  0  0  0
  129.0676  120.7684   60.4209 H   0  0  0  0  0  0  0  0  0  0  0  0
  129.9082  122.3559   60.4209 H   0  0  0  0  0  0  0  0  0  0  0  0
  129.9014  124.2596   63.0062 H   0  0  0  0  0  0  0  0  0  0  0  0
  128.8386  126.4979   62.8504 H   0  0  0  0  0  0  0  0  0  0  0  0
  125.9010  126.9660   59.8020 H   0  0  0  0  0  0  0  0  0  0  0  0
  125.0610  129.1330   61.2970 H   0  0  0  0  0  0  0  0  0  0  0  0
  123.9254  130.6800   58.1442 H   0  0  0  0  0  0  0  0  0  0  0  0
  123.1372  130.0460   59.6804 H   0  0  0  0  0  0  0  0  0  0  0  0
  127.3908  131.8691   64.8642 H   0  0  0  0  0  0  0  0  0  0  0  0
  128.7914  131.1951   66.8065 H   0  0  0  0  0  0  0  0  0  0  0  0
  128.9440  129.5890   68.7770 H   0  0  0  0  0  0  0  0  0  0  0  0
  128.4153  125.5270   66.2463 H   0  0  0  0  0  0  0  0  0  0  0  0
  130.0348  124.6721   64.5521 H   0  0  0  0  0  0  0  0  0  0  0  0
  133.5815  124.6445   64.9727 H   0  0  0  0  0  0  0  0  0  0  0  0
  132.2305  124.3507   63.8260 H   0  0  0  0  0  0  0  0  0  0  0  0
  133.0803  125.9332   63.8260 H   0  0  0  0  0  0  0  0  0  0  0  0
  133.2608  126.6779   66.6207 H   0  0  0  0  0  0  0  0  0  0  0  0
  131.6438  127.5281   68.3173 H   0  0  0  0  0  0  0  0  0  0  0  0
  126.5518  127.5142   67.1428 H   0  0  0  0  0  0  0  0  0  0  0  0
  125.1669  128.1760   65.1850 H   0  0  0  0  0  0  0  0  0  0  0  0
  127.9156  129.3018   62.9842 H   0  0  0  0  0  0  0  0  0  0  0  0
  130.2742  129.7079   62.2995 H   0  0  0  0  0  0  0  0  0  0  0  0
  132.2342  130.3219   62.0926 H   0  0  0  0  0  0  0  0  0  0  0  0
  131.5259  129.7692   60.5372 H   0  0  0  0  0  0  0  0  0  0  0  0
  132.9711  130.8360   60.5372 H   0  0  0  0  0  0  0  0  0  0  0  0
  129.1156  133.4700   60.5104 H   0  0  0  0  0  0  0  0  0  0  0  0
  126.7525  133.0621   61.1859 H   0  0  0  0  0  0  0  0  0  0  0  0
  125.4037  124.7277   60.9075 H   0  0  0  0  0  0  0  0  0  0  0  0
  126.4728  122.4931   61.0648 H   0  0  0  0  0  0  0  0  0  0  0  0
  1  2  1  0
  2  3  1  0
  3  4  2  0
  4  5  1  0
  5  6  2  0
  6  7  1  0
  7  8  2  0
  7  9  1  0
  9 10  1  0
 10 11  1  0
 11 12  2  0
 11 13  1  0
 13 14  1  0
 14 15  1  0
 15 16  2  0
 16 17  1  0
 17 18  2  0
 18 19  1  0
 19 20  2  0
 20 21  1  0
 21 22  2  0
 22 23  1  0
 23 24  1  0
 24 25  2  0
 24 26  2  0
 24 27  1  0
 27 28  2  0
 28 29  1  0
 29 30  2  0
 30 31  1  0
 30 32  1  0
 32 33  2  0
 22 34  1  0
 34 35  2  0
 18 36  1  0
 36 37  1  0
 37 38  2  0
 38 39  1  0
 39 40  2  0
 40 41  1  0
 41 42  1  0
 40 43  1  0
 43 44  2  0
  6 45  1  0
 45 46  2  0
 46  3  1  0
 36 15  1  0
 44 37  1  0
 35 19  1  0
 33 27  1  0
  1 47  1  0
  1 48  1  0
  1 49  1  0
  4 50  1  0
  5 51  1  0
  9 52  1  0
 10 53  1  0
 13 54  1  0
 13 55  1  0
 20 56  1  0
 21 57  1  0
 23 58  1  0
 28 59  1  0
 29 60  1  0
 31 61  1  0
 31 62  1  0
 31 63  1  0
 32 64  1  0
 33 65  1  0
 34 66  1  0
 35 67  1  0
 38 68  1  0
 39 69  1  0
 42 70  1  0
 42 71  1  0
 42 72  1  0
 43 73  1  0
 44 74  1  0
 45 75  1  0
 46 76  1  0
M  END
>  <Binding energies>  (1) 
[-10.71]

>  <Ligand effiencies>  (1) 
[-0.21857142857142858]

>  <Interactions>  (1) 
["H-B:ALA:541:N:9863, H-B:TYR:531:OH:9767, V-B:PRO:540:CA:9855, V-B:ALA:541:CB:9864, V-A:PRO:540:CA:4883, V-A:TYR:539:CE1:4875, V-B:ASP:366:CG:8184, H-B:GLY:454:N:9021, V-B:ASP:366:CB:8183, V-B:ARG:545:CZ:9898, V-A:ALA:541:CB:4892, V-A:PRO:540:C:4881, V-B:ASP:366:CA:8181, V-B:ILE:369:CD1:8210, V-A:GLU:543:CG:4907, V-A:GLU:543:CD:4908, H-B:ARG:545:NH2:9900, V-B:ASP:366:C:8179, V-B:HIS:456:CE1:9041, V-A:HIS:456:CE1:4069, V-B:GLU:543:CB:9878, V-B:GLU:543:CG:9879, V-B:GLU:543:CD:9880, V-A:ARG:545:CG:4922, V-A:ARG:545:CZ:4926, V-A:GLU:543:CB:4906, H-A:ALA:541:N:4891, V-B:TYR:484:CZ:9318, V-B:ILE:369:CG2:8208, V-B:TYR:484:CE2:9317, H-B:ASP:366:OD2:8186, H-B:ASP:366:OD1:8185, V-B:ILE:369:CB:8207, V-A:ALA:541:CA:4890, H-A:GLU:543:O:4903"]

$$$$
RR30_Rahimova_2017
     RDKit          3D

 29 30  0  0  0  0  0  0  0  0999 V2000
  129.1030  132.1480   60.3780 C   0  0  0  0  0  0  0  0  0  0  0  0
  130.1260  131.2440   61.0810 C   0  0  0  0  0  0  0  0  0  0  0  0
  131.4020  131.0940   60.2820 C   0  0  0  0  0  0  0  0  0  0  0  0
  132.6330  131.3180   60.6710 N   0  0  0  0  0  0  0  0  0  0  0  0
  133.4380  131.0420   59.5680 N   0  0  0  0  0  0  0  0  0  0  0  0
  132.6240  130.6860   58.6070 C   0  0  0  0  0  0  0  0  0  0  0  0
  133.0480  130.2020   56.9640 S   0  0  0  0  0  0  0  0  0  0  0  0
  132.3520  131.6050   56.0350 C   0  0  0  0  0  0  0  0  0  0  0  0
  130.8230  131.6400   56.1000 C   0  0  0  0  0  0  0  0  0  0  0  0
  130.2650  132.5800   56.6700 O   0  0  0  0  0  0  0  0  0  0  0  0
  130.1840  130.5890   55.5380 N   0  0  0  0  0  0  0  0  0  0  0  0
  128.8120  130.3970   55.4750 C   0  0  0  0  0  0  0  0  0  0  0  0
  128.0200  130.5180   54.4330 N   0  0  0  0  0  0  0  0  0  0  0  0
  126.6930  130.2480   54.7440 N   0  0  0  0  0  0  0  0  0  0  0  0
  126.5080  129.9300   56.0050 C   0  0  0  0  0  0  0  0  0  0  0  0
  125.1520  129.5970   56.5840 C   0  0  0  0  0  0  0  0  0  0  0  0
  127.9850  129.9350   56.9300 S   0  0  0  0  0  0  0  0  0  0  0  0
  131.3220  130.6920   58.9890 O   0  0  0  0  0  0  0  0  0  0  0  0
  128.5029  132.6783   61.1322 H   0  0  0  0  0  0  0  0  0  0  0  0
  129.6313  132.8797   59.7491 H   0  0  0  0  0  0  0  0  0  0  0  0
  128.4419  131.5336   59.7491 H   0  0  0  0  0  0  0  0  0  0  0  0
  130.3708  131.6812   62.0603 H   0  0  0  0  0  0  0  0  0  0  0  0
  129.6762  130.2459   61.1886 H   0  0  0  0  0  0  0  0  0  0  0  0
  132.7461  132.5406   56.4584 H   0  0  0  0  0  0  0  0  0  0  0  0
  132.6426  131.4892   54.9804 H   0  0  0  0  0  0  0  0  0  0  0  0
  130.7510  129.8630   55.1250 H   0  0  0  0  0  0  0  0  0  0  0  0
  125.2089  129.6110   57.6824 H   0  0  0  0  0  0  0  0  0  0  0  0
  124.4160  130.3411   56.2455 H   0  0  0  0  0  0  0  0  0  0  0  0
  124.8444  128.5966   56.2455 H   0  0  0  0  0  0  0  0  0  0  0  0
  1  2  1  0
  2  3  1  0
  3  4  2  0
  4  5  1  0
  5  6  2  0
  6  7  1  0
  7  8  1  0
  8  9  1  0
  9 10  2  0
  9 11  1  0
 11 12  1  0
 12 13  2  0
 13 14  1  0
 14 15  2  0
 15 16  1  0
 15 17  1  0
  6 18  1  0
 18  3  1  0
 17 12  1  0
  1 19  1  0
  1 20  1  0
  1 21  1  0
  2 22  1  0
  2 23  1  0
  8 24  1  0
  8 25  1  0
 11 26  1  0
 16 27  1  0
 16 28  1  0
 16 29  1  0
M  END
>  <Binding energies>  (1) 
[-6.82]

>  <Ligand effiencies>  (1) 
[-0.3589473684210526]

>  <Interactions>  (1) 
["H-B:TYR:531:OH:9767, V-B:TYR:531:CZ:9766, V-A:ASP:366:CG:3212, V-A:PRO:540:CA:4883, H-A:TYR:531:OH:4795, H-A:TYR:539:N:4870, V-A:TYR:539:CZ:4877, V-A:PRO:540:CB:4885, V-A:TYR:539:CE1:4875, V-B:TYR:531:CE1:9764, H-B:LYS:534:NZ:9795, V-A:TYR:539:C:4867, V-A:LEU:363:CD1:3188, H-A:TYR:539:OH:4878, V-A:TYR:531:CE2:4793, H-A:LEU:363:N:3185"]

$$$$
RR31_Rahimova_2017
     RDKit          3D

 44 45  0  0  0  0  0  0  0  0999 V2000
  125.6190  122.4730   56.3940 C   0  0  0  0  0  0  0  0  0  0  0  0
  126.3370  122.7940   57.6990 C   0  0  0  0  0  0  0  0  0  0  0  0
  127.6580  122.3790   57.8680 C   0  0  0  0  0  0  0  0  0  0  0  0
  128.3430  122.6600   59.0480 C   0  0  0  0  0  0  0  0  0  0  0  0
  127.7300  123.3710   60.0920 C   0  0  0  0  0  0  0  0  0  0  0  0
  128.4000  123.6510   61.2850 N   0  0  0  0  0  0  0  0  0  0  0  0
  128.6330  125.0340   61.7450 C   0  0  0  0  0  0  0  0  0  0  0  0
  129.7220  125.1610   62.8370 C   0  0  0  0  0  0  0  0  0  0  0  0
  129.4110  124.3080   63.9870 N   0  0  0  0  0  0  0  0  0  0  0  0
  130.4080  124.4330   65.0550 C   0  0  0  0  0  0  0  0  0  0  0  0
  129.7770  124.6450   66.4460 C   0  0  0  0  0  0  0  0  0  0  0  0
  129.5430  126.1320   66.7590 C   0  0  0  0  0  0  0  0  0  0  0  0
  128.7500  126.7880   65.6230 N   0  0  0  0  0  0  0  0  0  0  0  0
  129.3730  122.9260   63.5090 C   0  0  0  0  0  0  0  0  0  0  0  0
  128.2680  122.7450   62.4430 C   0  0  0  0  0  0  0  0  0  0  0  0
  126.3980  123.7740   59.9120 C   0  0  0  0  0  0  0  0  0  0  0  0
  125.6990  123.4970   58.7320 C   0  0  0  0  0  0  0  0  0  0  0  0
  124.2530  123.9600   58.6000 C   0  0  0  0  0  0  0  0  0  0  0  0
  124.6353  122.0332   56.6153 H   0  0  0  0  0  0  0  0  0  0  0  0
  125.4851  123.3970   55.8123 H   0  0  0  0  0  0  0  0  0  0  0  0
  126.2182  121.7571   55.8123 H   0  0  0  0  0  0  0  0  0  0  0  0
  128.1630  121.8253   57.0628 H   0  0  0  0  0  0  0  0  0  0  0  0
  129.3823  122.3189   59.1638 H   0  0  0  0  0  0  0  0  0  0  0  0
  128.9397  125.6391   60.8791 H   0  0  0  0  0  0  0  0  0  0  0  0
  127.6911  125.3821   62.1940 H   0  0  0  0  0  0  0  0  0  0  0  0
  130.6918  124.8579   62.4155 H   0  0  0  0  0  0  0  0  0  0  0  0
  129.7603  126.2070   63.1753 H   0  0  0  0  0  0  0  0  0  0  0  0
  131.0118  123.5139   65.0803 H   0  0  0  0  0  0  0  0  0  0  0  0
  131.0195  125.3198   64.8323 H   0  0  0  0  0  0  0  0  0  0  0  0
  128.8111  124.1199   66.4802 H   0  0  0  0  0  0  0  0  0  0  0  0
  130.4761  124.2485   67.1971 H   0  0  0  0  0  0  0  0  0  0  0  0
  128.9768  126.2220   67.6978 H   0  0  0  0  0  0  0  0  0  0  0  0
  130.5149  126.6372   66.8598 H   0  0  0  0  0  0  0  0  0  0  0  0
  127.8510  127.1010   65.9620 H   0  0  0  0  0  0  0  0  0  0  0  0
  128.6020  126.1260   64.8740 H   0  0  0  0  0  0  0  0  0  0  0  0
  129.2540  127.5840   65.2590 H   0  0  0  0  0  0  0  0  0  0  0  0
  130.3469  122.6705   63.0661 H   0  0  0  0  0  0  0  0  0  0  0  0
  129.1544  122.2641   64.3599 H   0  0  0  0  0  0  0  0  0  0  0  0
  128.3057  121.7081   62.0776 H   0  0  0  0  0  0  0  0  0  0  0  0
  127.3118  122.9865   62.9301 H   0  0  0  0  0  0  0  0  0  0  0  0
  125.8902  124.3219   60.7195 H   0  0  0  0  0  0  0  0  0  0  0  0
  123.8196  124.0988   59.6014 H   0  0  0  0  0  0  0  0  0  0  0  0
  124.2218  124.9131   58.0516 H   0  0  0  0  0  0  0  0  0  0  0  0
  123.6740  123.2023   58.0516 H   0  0  0  0  0  0  0  0  0  0  0  0
  1  2  1  0
  2  3  2  0
  3  4  1  0
  4  5  2  0
  5  6  1  0
  6  7  1  0
  7  8  1  0
  8  9  1  0
  9 10  1  0
 10 11  1  0
 11 12  1  0
 12 13  1  0
  9 14  1  0
 14 15  1  0
  5 16  1  0
 16 17  2  0
 17 18  1  0
 17  2  1  0
 15  6  1  0
  1 19  1  0
  1 20  1  0
  1 21  1  0
  3 22  1  0
  4 23  1  0
  7 24  1  0
  7 25  1  0
  8 26  1  0
  8 27  1  0
 10 28  1  0
 10 29  1  0
 11 30  1  0
 11 31  1  0
 12 32  1  0
 12 33  1  0
 13 34  1  0
 13 35  1  0
 13 36  1  0
 14 37  1  0
 14 38  1  0
 15 39  1  0
 15 40  1  0
 16 41  1  0
 18 42  1  0
 18 43  1  0
 18 44  1  0
M  CHG  1  13   1
M  END
>  <Binding energies>  (1) 
[-6.9]

>  <Ligand effiencies>  (1) 
[-0.32857142857142857]

>  <Interactions>  (1) 
["V-B:PRO:540:CB:9857, V-B:MET:535:CE:9807, V-B:PRO:540:N:9856, V-B:PRO:540:CA:9855, V-B:ALA:541:CB:9864, V-B:TYR:539:C:9839, V-B:LEU:363:CD1:8160, V-B:PRO:540:CD:9859, V-A:GLU:543:CD:4908, V-B:LEU:363:CA:8156, V-A:TYR:484:CZ:4346, V-B:GLU:543:CB:9878, V-B:GLU:543:CG:9879, V-B:GLU:543:CD:9880, H-B:GLU:543:OE2:9882, V-A:TYR:484:CE2:4345, H-A:GLU:543:OE1:4909, V-B:ALA:541:CA:9862, V-B:LEU:363:CB:8158"]

$$$$
RR32_Rahimova_2017
     RDKit          3D

 37 39  0  0  0  0  0  0  0  0999 V2000
  130.2140  131.5270   56.5560 C   0  0  0  0  0  0  0  0  0  0  0  0
  130.2070  131.5850   58.0800 C   0  0  0  0  0  0  0  0  0  0  0  0
  129.0000  131.8560   58.7250 C   0  0  0  0  0  0  0  0  0  0  0  0
  128.9550  131.9130   60.1150 C   0  0  0  0  0  0  0  0  0  0  0  0
  127.7550  132.1820   60.7510 N   0  0  0  0  0  0  0  0  0  0  0  0
  127.6270  133.4840   61.4290 C   0  0  0  0  0  0  0  0  0  0  0  0
  126.3280  133.6150   62.2590 C   0  0  0  0  0  0  0  0  0  0  0  0
  125.1590  133.4190   61.4020 N   0  0  0  0  0  0  0  0  0  0  0  0
  123.9330  133.5740   62.1770 C   0  0  0  0  0  0  0  0  0  0  0  0
  125.2350  132.0720   60.8380 C   0  0  0  0  0  0  0  0  0  0  0  0
  126.5190  131.9160   59.9900 C   0  0  0  0  0  0  0  0  0  0  0  0
  130.0520  131.7180   60.8920 N   0  0  0  0  0  0  0  0  0  0  0  0
  131.2450  131.4550   60.2920 C   0  0  0  0  0  0  0  0  0  0  0  0
  132.3720  131.2580   61.1260 C   0  0  0  0  0  0  0  0  0  0  0  0
  133.6170  130.9860   60.5690 C   0  0  0  0  0  0  0  0  0  0  0  0
  133.7690  130.9040   59.1900 C   0  0  0  0  0  0  0  0  0  0  0  0
  132.6810  131.0930   58.3420 C   0  0  0  0  0  0  0  0  0  0  0  0
  131.3870  131.3740   58.8680 C   0  0  0  0  0  0  0  0  0  0  0  0
  130.3399  130.4842   56.2293 H   0  0  0  0  0  0  0  0  0  0  0  0
  129.2619  131.9199   56.1697 H   0  0  0  0  0  0  0  0  0  0  0  0
  131.0453  132.1351   56.1697 H   0  0  0  0  0  0  0  0  0  0  0  0
  128.0860  132.0242   58.1365 H   0  0  0  0  0  0  0  0  0  0  0  0
  128.4868  133.6130   62.1029 H   0  0  0  0  0  0  0  0  0  0  0  0
  127.5943  134.2573   60.6473 H   0  0  0  0  0  0  0  0  0  0  0  0
  126.3269  132.8552   63.0544 H   0  0  0  0  0  0  0  0  0  0  0  0
  126.2844  134.6214   62.7009 H   0  0  0  0  0  0  0  0  0  0  0  0
  124.1715  133.5438   63.2504 H   0  0  0  0  0  0  0  0  0  0  0  0
  123.4641  134.5386   61.9325 H   0  0  0  0  0  0  0  0  0  0  0  0
  123.2388  132.7565   61.9325 H   0  0  0  0  0  0  0  0  0  0  0  0
  125.2489  131.3365   61.6559 H   0  0  0  0  0  0  0  0  0  0  0  0
  124.3589  131.9039   60.1944 H   0  0  0  0  0  0  0  0  0  0  0  0
  126.5605  130.8865   59.6048 H   0  0  0  0  0  0  0  0  0  0  0  0
  126.4678  132.6588   59.1803 H   0  0  0  0  0  0  0  0  0  0  0  0
  132.2625  131.3203   62.2188 H   0  0  0  0  0  0  0  0  0  0  0  0
  134.4874  130.8347   61.2244 H   0  0  0  0  0  0  0  0  0  0  0  0
  134.7597  130.6874   58.7638 H   0  0  0  0  0  0  0  0  0  0  0  0
  132.8221  131.0246   57.2532 H   0  0  0  0  0  0  0  0  0  0  0  0
  1  2  1  0
  2  3  2  0
  3  4  1  0
  4  5  1  0
  5  6  1  0
  6  7  1  0
  7  8  1  0
  8  9  1  0
  8 10  1  0
 10 11  1  0
  4 12  2  0
 12 13  1  0
 13 14  2  0
 14 15  1  0
 15 16  2  0
 16 17  1  0
 17 18  2  0
 18  2  1  0
 11  5  1  0
 18 13  1  0
  1 19  1  0
  1 20  1  0
  1 21  1  0
  3 22  1  0
  6 23  1  0
  6 24  1  0
  7 25  1  0
  7 26  1  0
  9 27  1  0
  9 28  1  0
  9 29  1  0
 10 30  1  0
 10 31  1  0
 11 32  1  0
 11 33  1  0
 14 34  1  0
 15 35  1  0
 16 36  1  0
 17 37  1  0
M  END
>  <Binding energies>  (1) 
[-6.52]

>  <Ligand effiencies>  (1) 
[-0.3622222222222222]

>  <Interactions>  (1) 
["V-A:ASP:366:CG:3212, V-A:PRO:540:N:4884, V-A:ASP:366:CB:3211, V-A:TYR:539:CD1:4873, V-A:PRO:540:CA:4883, V-A:PRO:540:CB:4885, V-A:TYR:539:CE1:4875, V-A:ALA:541:CB:4892, V-A:PRO:540:C:4881, V-A:TYR:539:C:4867, V-A:LEU:363:CD1:3188, V-B:ILE:369:CD1:8210, V-B:GLY:454:CA:9020, H-A:ALA:541:N:4891, V-A:LEU:363:CA:3184, V-A:LEU:363:CB:3186, V-B:LEU:475:CD1:9229, V-B:ILE:369:CG2:8208, V-A:ASN:362:CB:3175, V-A:ASN:362:C:3171"]

$$$$
RR32_Rahimova_2017-again1
     RDKit          3D

 38 40  0  0  0  0  0  0  0  0999 V2000
  128.9820  122.9980   58.0280 C   0  0  0  0  0  0  0  0  0  0  0  0
  128.4910  122.9190   59.4670 C   0  0  0  0  0  0  0  0  0  0  0  0
  129.3850  122.6400   60.5000 C   0  0  0  0  0  0  0  0  0  0  0  0
  128.9320  122.5730   61.8220 C   0  0  0  0  0  0  0  0  0  0  0  0
  129.8090  122.2850   62.8740 N   0  0  0  0  0  0  0  0  0  0  0  0
  131.2620  122.4900   62.7120 C   0  0  0  0  0  0  0  0  0  0  0  0
  131.6980  123.9380   63.0380 C   0  0  0  0  0  0  0  0  0  0  0  0
  131.3460  124.2370   64.5090 N   0  0  0  0  0  0  0  0  0  0  0  0
  131.7440  125.6770   64.8850 C   0  0  0  0  0  0  0  0  0  0  0  0
  129.8320  124.0200   64.7090 C   0  0  0  0  0  0  0  0  0  0  0  0
  129.4820  122.5730   64.2870 C   0  0  0  0  0  0  0  0  0  0  0  0
  127.6180  122.7480   62.1310 N   0  0  0  0  0  0  0  0  0  0  0  0
  126.7230  123.0240   61.1440 C   0  0  0  0  0  0  0  0  0  0  0  0
  125.3670  123.2150   61.5020 C   0  0  0  0  0  0  0  0  0  0  0  0
  124.4180  123.5020   60.5250 C   0  0  0  0  0  0  0  0  0  0  0  0
  124.7880  123.6030   59.1880 C   0  0  0  0  0  0  0  0  0  0  0  0
  126.1140  123.4180   58.8040 C   0  0  0  0  0  0  0  0  0  0  0  0
  127.1120  123.1250   59.7730 C   0  0  0  0  0  0  0  0  0  0  0  0
  130.0680  123.1727   58.0202 H   0  0  0  0  0  0  0  0  0  0  0  0
  128.7590  122.0524   57.5121 H   0  0  0  0  0  0  0  0  0  0  0  0
  128.4737  123.8259   57.5121 H   0  0  0  0  0  0  0  0  0  0  0  0
  130.4486  122.4722   60.2751 H   0  0  0  0  0  0  0  0  0  0  0  0
  131.7923  121.8019   63.3867 H   0  0  0  0  0  0  0  0  0  0  0  0
  131.5105  122.2963   61.6581 H   0  0  0  0  0  0  0  0  0  0  0  0
  132.7828  124.0413   62.8880 H   0  0  0  0  0  0  0  0  0  0  0  0
  131.1783  124.6457   62.3754 H   0  0  0  0  0  0  0  0  0  0  0  0
  131.8440  123.5840   65.0960 H   0  0  0  0  0  0  0  0  0  0  0  0
  131.7713  125.7758   65.9802 H   0  0  0  0  0  0  0  0  0  0  0  0
  132.7381  125.9024   64.4716 H   0  0  0  0  0  0  0  0  0  0  0  0
  131.0068  126.3810   64.4716 H   0  0  0  0  0  0  0  0  0  0  0  0
  129.5724  124.1707   65.7673 H   0  0  0  0  0  0  0  0  0  0  0  0
  129.2650  124.7378   64.0980 H   0  0  0  0  0  0  0  0  0  0  0  0
  130.0450  121.8764   64.9255 H   0  0  0  0  0  0  0  0  0  0  0  0
  128.3949  122.4517   64.4031 H   0  0  0  0  0  0  0  0  0  0  0  0
  125.0621  123.1364   62.5560 H   0  0  0  0  0  0  0  0  0  0  0  0
  123.3667  123.6502   60.8127 H   0  0  0  0  0  0  0  0  0  0  0  0
  124.0268  123.8310   58.4273 H   0  0  0  0  0  0  0  0  0  0  0  0
  126.3911  123.4993   57.7426 H   0  0  0  0  0  0  0  0  0  0  0  0
  1  2  1  0
  2  3  2  0
  3  4  1  0
  4  5  1  0
  5  6  1  0
  6  7  1  0
  7  8  1  0
  8  9  1  0
  8 10  1  0
 10 11  1  0
  4 12  2  0
 12 13  1  0
 13 14  2  0
 14 15  1  0
 15 16  2  0
 16 17  1  0
 17 18  2  0
 18  2  1  0
 11  5  1  0
 18 13  1  0
  1 19  1  0
  1 20  1  0
  1 21  1  0
  3 22  1  0
  6 23  1  0
  6 24  1  0
  7 25  1  0
  7 26  1  0
  8 27  1  0
  9 28  1  0
  9 29  1  0
  9 30  1  0
 10 31  1  0
 10 32  1  0
 11 33  1  0
 11 34  1  0
 14 35  1  0
 15 36  1  0
 16 37  1  0
 17 38  1  0
M  CHG  1   8   1
M  END
>  <Binding energies>  (1) 
[-6.69]

>  <Ligand effiencies>  (1) 
[-0.35210526315789475]

>  <Interactions>  (1) 
["H-B:ALA:541:N:9863, V-B:PRO:540:CB:9857, V-B:TYR:539:CD2:9846, V-A:LEU:475:CD1:4257, V-B:PRO:540:CA:9855, V-B:PRO:540:C:9853, V-B:ALA:541:CB:9864, V-B:TYR:539:CE2:9848, V-B:LEU:363:CD1:8160, H-A:TYR:484:OH:4347, V-B:TYR:539:CZ:9849, V-B:LEU:363:CA:8156, V-B:GLU:543:CG:9879, V-B:GLU:543:CD:9880"]

$$$$
RR32_Rahimova_2017-again2
     RDKit          3D

 39 41  0  0  0  0  0  0  0  0999 V2000
  133.2560  126.0120   67.1540 C   0  0  0  0  0  0  0  0  0  0  0  0
  131.8010  126.0370   66.7050 C   0  0  0  0  0  0  0  0  0  0  0  0
  130.8460  126.7250   67.4580 C   0  0  0  0  0  0  0  0  0  0  0  0
  129.5010  126.7550   67.0640 C   0  0  0  0  0  0  0  0  0  0  0  0
  128.4810  127.4620   67.7960 N   0  0  0  0  0  0  0  0  0  0  0  0
  128.7060  128.8540   68.2670 C   0  0  0  0  0  0  0  0  0  0  0  0
  128.3590  129.8750   67.1510 C   0  0  0  0  0  0  0  0  0  0  0  0
  126.8770  129.7060   66.7390 N   0  0  0  0  0  0  0  0  0  0  0  0
  126.5100  130.6650   65.5910 C   0  0  0  0  0  0  0  0  0  0  0  0
  126.5970  128.2360   66.3440 C   0  0  0  0  0  0  0  0  0  0  0  0
  127.0330  127.3030   67.5050 C   0  0  0  0  0  0  0  0  0  0  0  0
  129.1620  126.1070   65.9310 N   0  0  0  0  0  0  0  0  0  0  0  0
  130.0310  125.4070   65.1270 C   0  0  0  0  0  0  0  0  0  0  0  0
  129.5690  124.7610   63.9580 C   0  0  0  0  0  0  0  0  0  0  0  0
  130.4770  124.0640   63.1650 C   0  0  0  0  0  0  0  0  0  0  0  0
  131.8240  124.0010   63.5170 C   0  0  0  0  0  0  0  0  0  0  0  0
  132.2930  124.6340   64.6680 C   0  0  0  0  0  0  0  0  0  0  0  0
  131.4040  125.3590   65.5100 C   0  0  0  0  0  0  0  0  0  0  0  0
  133.3006  126.0112   68.2531 H   0  0  0  0  0  0  0  0  0  0  0  0
  133.7437  125.1053   66.7666 H   0  0  0  0  0  0  0  0  0  0  0  0
  133.7746  126.9014   66.7666 H   0  0  0  0  0  0  0  0  0  0  0  0
  131.1542  127.2509   68.3736 H   0  0  0  0  0  0  0  0  0  0  0  0
  128.0686  129.0461   69.1427 H   0  0  0  0  0  0  0  0  0  0  0  0
  129.7669  128.9694   68.5336 H   0  0  0  0  0  0  0  0  0  0  0  0
  128.5212  130.8965   67.5254 H   0  0  0  0  0  0  0  0  0  0  0  0
  129.0045  129.6973   66.2782 H   0  0  0  0  0  0  0  0  0  0  0  0
  126.3070  129.9220   67.5460 H   0  0  0  0  0  0  0  0  0  0  0  0
  126.1464  131.6152   66.0091 H   0  0  0  0  0  0  0  0  0  0  0  0
  127.3996  130.8533   64.9720 H   0  0  0  0  0  0  0  0  0  0  0  0
  125.7220  130.2113   64.9720 H   0  0  0  0  0  0  0  0  0  0  0  0
  125.5219  128.1054   66.1511 H   0  0  0  0  0  0  0  0  0  0  0  0
  127.1629  127.9837   65.4351 H   0  0  0  0  0  0  0  0  0  0  0  0
  126.4546  127.5546   68.4062 H   0  0  0  0  0  0  0  0  0  0  0  0
  126.8461  126.2605   67.2079 H   0  0  0  0  0  0  0  0  0  0  0  0
  128.1940  126.1450   65.6490 H   0  0  0  0  0  0  0  0  0  0  0  0
  128.5062  124.8082   63.6782 H   0  0  0  0  0  0  0  0  0  0  0  0
  130.1279  123.5586   62.2525 H   0  0  0  0  0  0  0  0  0  0  0  0
  132.5264  123.4448   62.8788 H   0  0  0  0  0  0  0  0  0  0  0  0
  133.3602  124.5722   64.9273 H   0  0  0  0  0  0  0  0  0  0  0  0
  1  2  1  0
  2  3  2  0
  3  4  1  0
  4  5  1  0
  5  6  1  0
  6  7  1  0
  7  8  1  0
  8  9  1  0
  8 10  1  0
 10 11  1  0
  4 12  2  0
 12 13  1  0
 13 14  2  0
 14 15  1  0
 15 16  2  0
 16 17  1  0
 17 18  2  0
 18  2  1  0
 11  5  1  0
 18 13  1  0
  1 19  1  0
  1 20  1  0
  1 21  1  0
  3 22  1  0
  6 23  1  0
  6 24  1  0
  7 25  1  0
  7 26  1  0
  8 27  1  0
  9 28  1  0
  9 29  1  0
  9 30  1  0
 10 31  1  0
 10 32  1  0
 11 33  1  0
 11 34  1  0
 12 35  1  0
 14 36  1  0
 15 37  1  0
 16 38  1  0
 17 39  1  0
M  CHG  2   8   1  12   1
M  END
>  <Binding energies>  (1) 
[-7.1]

>  <Ligand effiencies>  (1) 
[-0.355]

>  <Interactions>  (1) 
["V-A:GLU:543:CG:4907, V-A:GLU:543:CD:4908, H-B:TYR:484:OH:9319, V-B:HIS:456:CE1:9041, V-A:HIS:456:CE1:4069, V-B:GLU:543:CB:9878, V-A:ARG:545:CD:4923, V-B:GLU:543:CG:9879, V-B:GLU:543:CD:9880, H-B:GLU:543:OE2:9882, V-A:ARG:545:CG:4922, V-A:GLU:543:CA:4904, V-A:GLU:543:CB:4906, V-B:TYR:484:CZ:9318, V-B:TYR:484:CE2:9317, H-A:GLU:543:OE1:4909"]

$$$$
RR33_Rahimova_2017
     RDKit          3D

 36 37  0  0  0  0  0  0  0  0999 V2000
  133.2600  118.7050   59.3210 C   0  0  0  0  0  0  0  0  0  0  0  0
  133.5610  119.0100   60.7910 C   0  0  0  0  0  0  0  0  0  0  0  0
  133.2810  120.3860   61.0390 O   0  0  0  0  0  0  0  0  0  0  0  0
  131.9950  120.8580   60.8640 C   0  0  0  0  0  0  0  0  0  0  0  0
  131.8480  121.9670   60.0320 C   0  0  0  0  0  0  0  0  0  0  0  0
  130.5900  122.5160   59.7990 C   0  0  0  0  0  0  0  0  0  0  0  0
  129.4550  121.9600   60.3980 C   0  0  0  0  0  0  0  0  0  0  0  0
  128.1050  122.5510   60.1480 C   0  0  0  0  0  0  0  0  0  0  0  0
  127.6570  123.0880   59.0350 N   0  0  0  0  0  0  0  0  0  0  0  0
  126.4160  123.4640   59.3020 C   0  0  0  0  0  0  0  0  0  0  0  0
  125.5580  124.1230   58.2430 C   0  0  0  0  0  0  0  0  0  0  0  0
  126.1200  123.9060   56.9180 N   0  0  0  0  0  0  0  0  0  0  0  0
  125.4990  122.7580   56.2800 C   0  0  0  0  0  0  0  0  0  0  0  0
  126.1050  123.1450   60.6180 C   0  0  0  0  0  0  0  0  0  0  0  0
  124.8920  123.3010   61.5020 C   0  0  0  0  0  0  0  0  0  0  0  0
  127.1970  122.5570   61.1590 O   0  0  0  0  0  0  0  0  0  0  0  0
  129.5980  120.8450   61.2300 C   0  0  0  0  0  0  0  0  0  0  0  0
  130.8570  120.2970   61.4640 C   0  0  0  0  0  0  0  0  0  0  0  0
  132.4886  117.9233   59.2592 H   0  0  0  0  0  0  0  0  0  0  0  0
  132.8983  119.6172   58.8239 H   0  0  0  0  0  0  0  0  0  0  0  0
  134.1769  118.3554   58.8239 H   0  0  0  0  0  0  0  0  0  0  0  0
  132.9295  118.3816   61.4362 H   0  0  0  0  0  0  0  0  0  0  0  0
  134.6180  118.7974   61.0091 H   0  0  0  0  0  0  0  0  0  0  0  0
  132.7338  122.4122   59.5554 H   0  0  0  0  0  0  0  0  0  0  0  0
  130.4882  123.3913   59.1406 H   0  0  0  0  0  0  0  0  0  0  0  0
  124.5455  123.6947   58.2805 H   0  0  0  0  0  0  0  0  0  0  0  0
  125.5220  125.2047   58.4394 H   0  0  0  0  0  0  0  0  0  0  0  0
  127.1130  123.7380   57.0020 H   0  0  0  0  0  0  0  0  0  0  0  0
  125.1256  122.0677   57.0507 H   0  0  0  0  0  0  0  0  0  0  0  0
  124.6606  123.0959   55.6531 H   0  0  0  0  0  0  0  0  0  0  0  0
  126.2406  122.2412   55.6531 H   0  0  0  0  0  0  0  0  0  0  0  0
  125.1998  123.2614   62.5573 H   0  0  0  0  0  0  0  0  0  0  0  0
  124.4105  124.2685   61.2965 H   0  0  0  0  0  0  0  0  0  0  0  0
  124.1814  122.4868   61.2965 H   0  0  0  0  0  0  0  0  0  0  0  0
  128.7108  120.3981   61.7025 H   0  0  0  0  0  0  0  0  0  0  0  0
  130.9597  119.4212   62.1216 H   0  0  0  0  0  0  0  0  0  0  0  0
  1  2  1  0
  2  3  1  0
  3  4  1  0
  4  5  2  0
  5  6  1  0
  6  7  2  0
  7  8  1  0
  8  9  2  0
  9 10  1  0
 10 11  1  0
 11 12  1  0
 12 13  1  0
 10 14  2  0
 14 15  1  0
 14 16  1  0
  7 17  1  0
 17 18  2  0
 18  4  1  0
 16  8  1  0
  1 19  1  0
  1 20  1  0
  1 21  1  0
  2 22  1  0
  2 23  1  0
  5 24  1  0
  6 25  1  0
 11 26  1  0
 11 27  1  0
 12 28  1  0
 13 29  1  0
 13 30  1  0
 13 31  1  0
 15 32  1  0
 15 33  1  0
 15 34  1  0
 17 35  1  0
 18 36  1  0
M  END
>  <Binding energies>  (1) 
[-5.26]

>  <Ligand effiencies>  (1) 
[-0.2768421052631579]

>  <Interactions>  (1) 
["H-B:ALA:541:N:9863, V-B:PRO:540:CB:9857, H-B:TYR:531:OH:9767, V-B:MET:535:CE:9807, V-A:ILE:369:CG2:3236, V-B:TYR:539:CD2:9846, V-A:LEU:475:CD1:4257, V-B:PRO:540:CA:9855, V-B:PRO:540:C:9853, V-B:ALA:541:CB:9864, V-B:TYR:539:CE2:9848, V-B:TYR:531:CE2:9765, V-B:LEU:363:CD1:8160, V-A:SER:385:CA:3406, V-A:SER:385:C:3404, V-A:SER:385:CB:3408, V-B:GLU:543:CD:9880, V-B:ALA:541:CA:9862, V-A:HIS:383:CD2:3391, V-B:ASN:362:CB:8147"]

$$$$
RR33_Rahimova_2017-again1
     RDKit          3D

 37 38  0  0  0  0  0  0  0  0999 V2000
  126.0580  129.8480   56.6320 C   0  0  0  0  0  0  0  0  0  0  0  0
  124.6590  129.6370   57.2180 C   0  0  0  0  0  0  0  0  0  0  0  0
  124.4240  130.6290   58.2130 O   0  0  0  0  0  0  0  0  0  0  0  0
  124.6390  130.3200   59.5430 C   0  0  0  0  0  0  0  0  0  0  0  0
  123.9170  131.0610   60.4780 C   0  0  0  0  0  0  0  0  0  0  0  0
  124.0660  130.8220   61.8420 C   0  0  0  0  0  0  0  0  0  0  0  0
  124.9470  129.8320   62.2910 C   0  0  0  0  0  0  0  0  0  0  0  0
  125.1100  129.5710   63.7540 C   0  0  0  0  0  0  0  0  0  0  0  0
  126.2000  129.1930   64.3850 N   0  0  0  0  0  0  0  0  0  0  0  0
  125.8530  129.0950   65.6600 C   0  0  0  0  0  0  0  0  0  0  0  0
  126.8540  128.6640   66.7140 C   0  0  0  0  0  0  0  0  0  0  0  0
  127.9620  127.8330   66.0470 N   0  0  0  0  0  0  0  0  0  0  0  0
  128.6460  126.8440   67.0000 C   0  0  0  0  0  0  0  0  0  0  0  0
  124.5080  129.4170   65.8000 C   0  0  0  0  0  0  0  0  0  0  0  0
  123.5350  129.4910   66.9510 C   0  0  0  0  0  0  0  0  0  0  0  0
  124.0360  129.7250   64.5690 O   0  0  0  0  0  0  0  0  0  0  0  0
  125.6740  129.0870   61.3550 C   0  0  0  0  0  0  0  0  0  0  0  0
  125.5220  129.3270   59.9930 C   0  0  0  0  0  0  0  0  0  0  0  0
  126.7854  129.9577   57.4498 H   0  0  0  0  0  0  0  0  0  0  0  0
  126.3307  128.9808   56.0126 H   0  0  0  0  0  0  0  0  0  0  0  0
  126.0628  130.7570   56.0126 H   0  0  0  0  0  0  0  0  0  0  0  0
  123.9066  129.7275   56.4207 H   0  0  0  0  0  0  0  0  0  0  0  0
  124.5883  128.6346   57.6654 H   0  0  0  0  0  0  0  0  0  0  0  0
  123.2228  131.8422   60.1348 H   0  0  0  0  0  0  0  0  0  0  0  0
  123.4893  131.4133   62.5685 H   0  0  0  0  0  0  0  0  0  0  0  0
  127.2954  129.5531   67.1880 H   0  0  0  0  0  0  0  0  0  0  0  0
  126.3474  128.0585   67.4799 H   0  0  0  0  0  0  0  0  0  0  0  0
  127.5640  127.3220   65.2720 H   0  0  0  0  0  0  0  0  0  0  0  0
  128.6590  128.4650   65.6770 H   0  0  0  0  0  0  0  0  0  0  0  0
  128.4430  127.1374   68.0405 H   0  0  0  0  0  0  0  0  0  0  0  0
  128.2540  125.8319   66.8213 H   0  0  0  0  0  0  0  0  0  0  0  0
  129.7314  126.8536   66.8213 H   0  0  0  0  0  0  0  0  0  0  0  0
  124.0874  129.4490   67.9013 H   0  0  0  0  0  0  0  0  0  0  0  0
  122.9723  130.4345   66.8954 H   0  0  0  0  0  0  0  0  0  0  0  0
  122.8361  128.6434   66.8954 H   0  0  0  0  0  0  0  0  0  0  0  0
  126.3696  128.3071   61.6984 H   0  0  0  0  0  0  0  0  0  0  0  0
  126.0970  128.7353   59.2655 H   0  0  0  0  0  0  0  0  0  0  0  0
  1  2  1  0
  2  3  1  0
  3  4  1  0
  4  5  2  0
  5  6  1  0
  6  7  2  0
  7  8  1  0
  8  9  2  0
  9 10  1  0
 10 11  1  0
 11 12  1  0
 12 13  1  0
 10 14  2  0
 14 15  1  0
 14 16  1  0
  7 17  1  0
 17 18  2  0
 18  4  1  0
 16  8  1  0
  1 19  1  0
  1 20  1  0
  1 21  1  0
  2 22  1  0
  2 23  1  0
  5 24  1  0
  6 25  1  0
 11 26  1  0
 11 27  1  0
 12 28  1  0
 12 29  1  0
 13 30  1  0
 13 31  1  0
 13 32  1  0
 15 33  1  0
 15 34  1  0
 15 35  1  0
 17 36  1  0
 18 37  1  0
M  CHG  1  12   1
M  END
>  <Binding energies>  (1) 
[-6.64]

>  <Ligand effiencies>  (1) 
[-0.33199999999999996]

>  <Interactions>  (1) 
["V-B:TYR:531:CZ:9766, V-A:TYR:539:CZ:4877, V-A:TYR:539:CE1:4875, V-B:ASP:366:CG:8184, V-B:TYR:531:CE1:9764, H-B:GLY:454:N:9021, V-B:ASP:366:CB:8183, H-B:ARG:545:NH1:9899, V-B:ARG:545:CZ:9898, V-B:GLY:453:C:9013, V-B:ASP:366:CA:8181, V-B:ILE:369:CD1:8210, V-B:GLY:454:CA:9020, V-A:GLU:543:CD:4908, H-B:ARG:545:NH2:9900, V-B:ASP:366:C:8179, H-A:TYR:539:OH:4878, V-B:HIS:456:CE1:9041, V-B:GLU:543:CB:9878, V-B:GLU:543:CD:9880, H-B:GLU:543:OE2:9882, V-B:ILE:369:CG2:8208, V-B:ARG:545:CG:9894, H-A:GLU:543:OE1:4909, V-B:ILE:369:CB:8207, V-B:ARG:545:CD:9895, V-B:GLY:454:C:9018, V-B:ILE:455:C:9023"]

$$$$
RR3_Rahimova_2017
     RDKit          3D

 63 69  0  0  0  0  0  0  0  0999 V2000
  133.7140  122.8640   62.3180 C   0  0  0  0  0  0  0  0  0  0  0  0
  132.6400  122.3310   63.0230 C   0  0  0  0  0  0  0  0  0  0  0  0
  131.9770  123.1120   63.9650 C   0  0  0  0  0  0  0  0  0  0  0  0
  132.3770  124.4330   64.2150 C   0  0  0  0  0  0  0  0  0  0  0  0
  131.6620  125.2720   65.2280 C   0  0  0  0  0  0  0  0  0  0  0  0
  130.2620  125.2950   65.2860 C   0  0  0  0  0  0  0  0  0  0  0  0
  129.5980  126.0780   66.2260 C   0  0  0  0  0  0  0  0  0  0  0  0
  130.3210  126.8650   67.1270 C   0  0  0  0  0  0  0  0  0  0  0  0
  129.6140  127.7130   68.1360 C   0  0  0  0  0  0  0  0  0  0  0  0
  129.8870  127.5750   69.4290 N   0  0  0  0  0  0  0  0  0  0  0  0
  129.1620  128.4650   70.0620 C   0  0  0  0  0  0  0  0  0  0  0  0
  129.1490  128.6660   71.5090 C   0  0  0  0  0  0  0  0  0  0  0  0
  129.7320  127.8320   72.4470 C   0  0  0  0  0  0  0  0  0  0  0  0
  129.5350  128.3280   73.7090 N   0  0  0  0  0  0  0  0  0  0  0  0
  128.8150  129.5010   73.6440 C   0  0  0  0  0  0  0  0  0  0  0  0
  128.3760  130.3600   74.6570 C   0  0  0  0  0  0  0  0  0  0  0  0
  127.6560  131.4880   74.2620 C   0  0  0  0  0  0  0  0  0  0  0  0
  127.3820  131.7520   72.9250 C   0  0  0  0  0  0  0  0  0  0  0  0
  127.8200  130.8970   71.9160 C   0  0  0  0  0  0  0  0  0  0  0  0
  128.5510  129.7450   72.2590 C   0  0  0  0  0  0  0  0  0  0  0  0
  128.4010  129.1890   69.1860 N   0  0  0  0  0  0  0  0  0  0  0  0
  128.6490  128.7130   67.9240 C   0  0  0  0  0  0  0  0  0  0  0  0
  127.9470  129.2280   66.7110 C   0  0  0  0  0  0  0  0  0  0  0  0
  127.9960  130.5870   66.3970 C   0  0  0  0  0  0  0  0  0  0  0  0
  127.3330  131.0720   65.2750 C   0  0  0  0  0  0  0  0  0  0  0  0
  126.6090  130.2110   64.4370 C   0  0  0  0  0  0  0  0  0  0  0  0
  125.8810  130.7390   63.2410 C   0  0  0  0  0  0  0  0  0  0  0  0
  126.4620  131.7160   62.4180 C   0  0  0  0  0  0  0  0  0  0  0  0
  125.7850  132.2040   61.3020 C   0  0  0  0  0  0  0  0  0  0  0  0
  124.5170  131.7190   60.9980 C   0  0  0  0  0  0  0  0  0  0  0  0
  123.9230  130.7510   61.8000 C   0  0  0  0  0  0  0  0  0  0  0  0
  124.6010  130.2660   62.9140 C   0  0  0  0  0  0  0  0  0  0  0  0
  126.5830  128.8460   64.7530 C   0  0  0  0  0  0  0  0  0  0  0  0
  127.2450  128.3570   65.8750 C   0  0  0  0  0  0  0  0  0  0  0  0
  131.7170  126.8380   67.0850 C   0  0  0  0  0  0  0  0  0  0  0  0
  132.3780  126.0550   66.1440 C   0  0  0  0  0  0  0  0  0  0  0  0
  133.4640  124.9490   63.4940 C   0  0  0  0  0  0  0  0  0  0  0  0
  134.1290  124.1720   62.5500 C   0  0  0  0  0  0  0  0  0  0  0  0
  134.2385  122.2481   61.5727 H   0  0  0  0  0  0  0  0  0  0  0  0
  132.3160  121.2964   62.8368 H   0  0  0  0  0  0  0  0  0  0  0  0
  131.1279  122.6877   64.5209 H   0  0  0  0  0  0  0  0  0  0  0  0
  129.6798  124.6859   64.5789 H   0  0  0  0  0  0  0  0  0  0  0  0
  128.4985  126.0774   66.2600 H   0  0  0  0  0  0  0  0  0  0  0  0
  130.2753  126.9045   72.2131 H   0  0  0  0  0  0  0  0  0  0  0  0
  129.8860  127.8660   74.5350 H   0  0  0  0  0  0  0  0  0  0  0  0
  128.5887  130.1555   75.7167 H   0  0  0  0  0  0  0  0  0  0  0  0
  127.2951  132.1879   75.0300 H   0  0  0  0  0  0  0  0  0  0  0  0
  126.8089  132.6524   72.6588 H   0  0  0  0  0  0  0  0  0  0  0  0
  127.5966  131.1203   70.8623 H   0  0  0  0  0  0  0  0  0  0  0  0
  127.7500  129.9230   69.4280 H   0  0  0  0  0  0  0  0  0  0  0  0
  128.5616  131.2775   67.0399 H   0  0  0  0  0  0  0  0  0  0  0  0
  127.3769  132.1460   65.0413 H   0  0  0  0  0  0  0  0  0  0  0  0
  127.4642  132.1014   62.6568 H   0  0  0  0  0  0  0  0  0  0  0  0
  126.2512  132.9694   60.6642 H   0  0  0  0  0  0  0  0  0  0  0  0
  123.9811  132.1037   60.1178 H   0  0  0  0  0  0  0  0  0  0  0  0
  122.9207  130.3700   61.5547 H   0  0  0  0  0  0  0  0  0  0  0  0
  124.1271  129.5013   63.5470 H   0  0  0  0  0  0  0  0  0  0  0  0
  126.0307  128.1504   64.1041 H   0  0  0  0  0  0  0  0  0  0  0  0
  127.2153  127.2815   66.1041 H   0  0  0  0  0  0  0  0  0  0  0  0
  132.2972  127.4395   67.8003 H   0  0  0  0  0  0  0  0  0  0  0  0
  133.4777  126.0503   66.1185 H   0  0  0  0  0  0  0  0  0  0  0  0
  133.7953  125.9818   63.6772 H   0  0  0  0  0  0  0  0  0  0  0  0
  134.9786  124.5898   61.9899 H   0  0  0  0  0  0  0  0  0  0  0  0
  1  2  2  0
  2  3  1  0
  3  4  2  0
  4  5  1  0
  5  6  2  0
  6  7  1  0
  7  8  2  0
  8  9  1  0
  9 10  1  0
 10 11  2  0
 11 12  1  0
 12 13  2  0
 13 14  1  0
 14 15  1  0
 15 16  2  0
 16 17  1  0
 17 18  2  0
 18 19  1  0
 19 20  2  0
 11 21  1  0
 21 22  1  0
 22 23  1  0
 23 24  2  0
 24 25  1  0
 25 26  2  0
 26 27  1  0
 27 28  2  0
 28 29  1  0
 29 30  2  0
 30 31  1  0
 31 32  2  0
 26 33  1  0
 33 34  2  0
  8 35  1  0
 35 36  2  0
  4 37  1  0
 37 38  2  0
 38  1  1  0
 36  5  1  0
 22  9  2  0
 34 23  1  0
 20 12  1  0
 32 27  1  0
 20 15  1  0
  1 39  1  0
  2 40  1  0
  3 41  1  0
  6 42  1  0
  7 43  1  0
 13 44  1  0
 14 45  1  0
 16 46  1  0
 17 47  1  0
 18 48  1  0
 19 49  1  0
 21 50  1  0
 24 51  1  0
 25 52  1  0
 28 53  1  0
 29 54  1  0
 30 55  1  0
 31 56  1  0
 32 57  1  0
 33 58  1  0
 34 59  1  0
 35 60  1  0
 36 61  1  0
 37 62  1  0
 38 63  1  0
M  END
>  <Binding energies>  (1) 
[-9.67]

>  <Ligand effiencies>  (1) 
[-0.24175]

>  <Interactions>  (1) 
["V-A:LEU:475:CD1:4257, V-B:ASP:366:CG:8184, V-B:ILE:369:CD1:8210, V-A:GLU:543:CG:4907, V-A:GLU:543:CD:4908, H-B:TYR:484:OH:9319, V-A:GLU:543:C:4902, V-B:HIS:456:CE1:9041, V-A:HIS:456:CE1:4069, V-B:GLU:543:CG:9879, V-B:GLU:543:CD:9880, V-A:ARG:545:CG:4922, V-A:ARG:545:CZ:4926, V-A:GLU:543:CB:4906, V-B:TYR:484:CZ:9318, V-B:ILE:369:CG2:8208, V-B:TYR:484:CE2:9317, V-A:GLY:454:CA:4048, V-A:GLY:453:CA:4043, V-A:GLY:453:C:4041, V-B:HIS:456:CD2:9039, H-A:GLU:543:O:4903, H-B:HIS:456:NE2:9042, V-B:TYR:484:CD1:9314, V-B:HIS:456:CG:9037, V-B:TYR:484:CB:9312, V-B:TYR:484:CG:9313, V-B:TYR:484:CD2:9315"]

$$$$
RR4_Rahimova_2017
     RDKit          3D

 66 70  0  0  0  0  0  0  0  0999 V2000
  131.7260  131.7410   55.4080 C   0  0  0  0  0  0  0  0  0  0  0  0
  131.9730  132.0620   56.7720 O   0  0  0  0  0  0  0  0  0  0  0  0
  131.0210  131.7450   57.7230 C   0  0  0  0  0  0  0  0  0  0  0  0
  129.7150  132.1500   57.4590 C   0  0  0  0  0  0  0  0  0  0  0  0
  128.6910  131.8730   58.3590 C   0  0  0  0  0  0  0  0  0  0  0  0
  128.9430  131.1830   59.5540 C   0  0  0  0  0  0  0  0  0  0  0  0
  127.8350  130.8870   60.5230 C   0  0  0  0  0  0  0  0  0  0  0  0
  128.0680  130.5660   61.8650 C   0  0  0  0  0  0  0  0  0  0  0  0
  127.0000  130.3020   62.7320 C   0  0  0  0  0  0  0  0  0  0  0  0
  127.3240  129.9950   64.1570 C   0  0  0  0  0  0  0  0  0  0  0  0
  127.3050  128.6730   64.6120 C   0  0  0  0  0  0  0  0  0  0  0  0
  127.6170  128.3770   65.9370 C   0  0  0  0  0  0  0  0  0  0  0  0
  127.9600  129.3930   66.8280 C   0  0  0  0  0  0  0  0  0  0  0  0
  128.2550  129.0040   68.1210 O   0  0  0  0  0  0  0  0  0  0  0  0
  129.1580  127.9240   68.3330 C   0  0  0  0  0  0  0  0  0  0  0  0
  127.9850  130.7200   66.3750 C   0  0  0  0  0  0  0  0  0  0  0  0
  127.6730  131.0140   65.0500 C   0  0  0  0  0  0  0  0  0  0  0  0
  125.6830  130.3380   62.2100 C   0  0  0  0  0  0  0  0  0  0  0  0
  124.5290  130.0700   63.0740 C   0  0  0  0  0  0  0  0  0  0  0  0
  123.6180  129.8590   63.7550 N   0  0  0  0  0  0  0  0  0  0  0  0
  125.5220  130.6400   60.8390 C   0  0  0  0  0  0  0  0  0  0  0  0
  123.9470  130.7170   60.0130 S   0  0  0  0  0  0  0  0  0  0  0  0
  124.2600  130.7160   58.2160 C   0  0  0  0  0  0  0  0  0  0  0  0
  125.0950  129.5300   57.7160 C   0  0  0  0  0  0  0  0  0  0  0  0
  124.5470  128.4860   57.3530 O   0  0  0  0  0  0  0  0  0  0  0  0
  126.4330  129.7340   57.7270 N   0  0  0  0  0  0  0  0  0  0  0  0
  127.4490  128.8600   57.3350 C   0  0  0  0  0  0  0  0  0  0  0  0
  128.1890  127.7150   58.4230 S   0  0  0  0  0  0  0  0  0  0  0  0
  129.2450  127.1270   57.1760 C   0  0  0  0  0  0  0  0  0  0  0  0
  129.0330  127.7980   55.9620 C   0  0  0  0  0  0  0  0  0  0  0  0
  128.0050  128.7680   56.0500 C   0  0  0  0  0  0  0  0  0  0  0  0
  127.5760  129.5890   54.9220 C   0  0  0  0  0  0  0  0  0  0  0  0
  127.2370  130.2410   54.0280 N   0  0  0  0  0  0  0  0  0  0  0  0
  129.8180  127.4330   54.6960 C   0  0  0  0  0  0  0  0  0  0  0  0
  130.4990  126.0550   54.8550 C   0  0  0  0  0  0  0  0  0  0  0  0
  131.2090  125.9120   56.2130 C   0  0  0  0  0  0  0  0  0  0  0  0
  130.2170  125.9750   57.3940 C   0  0  0  0  0  0  0  0  0  0  0  0
  126.5710  130.9230   60.0310 N   0  0  0  0  0  0  0  0  0  0  0  0
  130.2620  130.7750   59.8090 C   0  0  0  0  0  0  0  0  0  0  0  0
  131.2890  131.0510   58.9110 C   0  0  0  0  0  0  0  0  0  0  0  0
  131.0561  130.8704   55.3517 H   0  0  0  0  0  0  0  0  0  0  0  0
  131.2537  132.6000   54.9089 H   0  0  0  0  0  0  0  0  0  0  0  0
  132.6773  131.5045   54.9089 H   0  0  0  0  0  0  0  0  0  0  0  0
  129.4909  132.6943   56.5297 H   0  0  0  0  0  0  0  0  0  0  0  0
  127.6663  132.2006   58.1296 H   0  0  0  0  0  0  0  0  0  0  0  0
  129.1001  130.5205   62.2428 H   0  0  0  0  0  0  0  0  0  0  0  0
  127.0417  127.8607   63.9186 H   0  0  0  0  0  0  0  0  0  0  0  0
  127.5925  127.3332   66.2831 H   0  0  0  0  0  0  0  0  0  0  0  0
  129.2915  127.7643   69.4131 H   0  0  0  0  0  0  0  0  0  0  0  0
  128.7511  127.0105   67.8748 H   0  0  0  0  0  0  0  0  0  0  0  0
  130.1291  128.1627   67.8748 H   0  0  0  0  0  0  0  0  0  0  0  0
  128.2519  131.5311   67.0684 H   0  0  0  0  0  0  0  0  0  0  0  0
  127.7012  132.0572   64.7022 H   0  0  0  0  0  0  0  0  0  0  0  0
  123.2897  130.6954   57.6983 H   0  0  0  0  0  0  0  0  0  0  0  0
  124.8439  131.6228   57.9998 H   0  0  0  0  0  0  0  0  0  0  0  0
  126.7500  130.6370   58.0490 H   0  0  0  0  0  0  0  0  0  0  0  0
  129.1276  127.3982   53.8403 H   0  0  0  0  0  0  0  0  0  0  0  0
  130.5942  128.1943   54.5289 H   0  0  0  0  0  0  0  0  0  0  0  0
  129.7336  125.2695   54.7707 H   0  0  0  0  0  0  0  0  0  0  0  0
  131.2582  125.9597   54.0647 H   0  0  0  0  0  0  0  0  0  0  0  0
  131.7322  124.9448   56.2400 H   0  0  0  0  0  0  0  0  0  0  0  0
  131.9147  126.7494   56.3171 H   0  0  0  0  0  0  0  0  0  0  0  0
  129.6581  125.0295   57.4549 H   0  0  0  0  0  0  0  0  0  0  0  0
  130.7706  126.1332   58.3313 H   0  0  0  0  0  0  0  0  0  0  0  0
  130.4879  130.2271   60.7357 H   0  0  0  0  0  0  0  0  0  0  0  0
  132.3150  130.7232   59.1345 H   0  0  0  0  0  0  0  0  0  0  0  0
  1  2  1  0
  2  3  1  0
  3  4  2  0
  4  5  1  0
  5  6  2  0
  6  7  1  0
  7  8  2  0
  8  9  1  0
  9 10  1  0
 10 11  2  0
 11 12  1  0
 12 13  2  0
 13 14  1  0
 14 15  1  0
 13 16  1  0
 16 17  2  0
  9 18  2  0
 18 19  1  0
 19 20  3  0
 18 21  1  0
 21 22  1  0
 22 23  1  0
 23 24  1  0
 24 25  2  0
 24 26  1  0
 26 27  1  0
 27 28  1  0
 28 29  1  0
 29 30  2  0
 30 31  1  0
 31 32  1  0
 32 33  3  0
 30 34  1  0
 34 35  1  0
 35 36  1  0
 36 37  1  0
 21 38  2  0
  6 39  1  0
 39 40  2  0
 40  3  1  0
 38  7  1  0
 17 10  1  0
 31 27  2  0
 37 29  1  0
  1 41  1  0
  1 42  1  0
  1 43  1  0
  4 44  1  0
  5 45  1  0
  8 46  1  0
 11 47  1  0
 12 48  1  0
 15 49  1  0
 15 50  1  0
 15 51  1  0
 16 52  1  0
 17 53  1  0
 23 54  1  0
 23 55  1  0
 26 56  1  0
 34 57  1  0
 34 58  1  0
 35 59  1  0
 35 60  1  0
 36 61  1  0
 36 62  1  0
 37 63  1  0
 37 64  1  0
 39 65  1  0
 40 66  1  0
M  END
>  <Binding energies>  (1) 
[-10.14]

>  <Ligand effiencies>  (1) 
[-0.24731707317073173]

>  <Interactions>  (1) 
["H-B:TYR:531:OH:9767, V-B:MET:535:CE:9807, V-B:TYR:531:CZ:9766, V-A:PRO:540:N:4884, V-A:ILE:538:CG2:4863, V-A:TYR:539:CD1:4873, V-A:PRO:540:CA:4883, V-A:TYR:539:CZ:4877, V-A:PRO:540:CB:4885, V-A:TYR:539:CE1:4875, V-A:TYR:531:CZ:4794, V-A:ILE:538:CB:4862, V-B:TYR:531:CE1:9764, H-B:LYS:534:NZ:9795, H-B:GLY:454:N:9021, V-B:ASP:366:CB:8183, H-B:ARG:545:NH1:9899, V-B:ASP:366:CA:8181, V-A:TYR:539:C:4867, V-A:LEU:363:CD1:3188, V-A:GLU:543:CG:4907, V-A:GLU:543:CD:4908, H-B:ARG:545:NH2:9900, V-B:ASP:366:C:8179, H-A:TYR:539:OH:4878, V-B:HIS:456:CE1:9041, V-A:GLU:543:CB:4906, V-A:TYR:531:CE2:4793, V-B:TYR:484:CZ:9318, V-B:ILE:369:CG2:8208, V-B:TYR:484:CE2:9317"]

$$$$
RR5_Rahimova_2017
     RDKit          3D

 77 82  0  0  0  0  0  0  0  0999 V2000
  127.9830  131.6760   58.6820 O   0  0  0  0  0  0  0  0  0  0  0  0
  127.8470  130.5440   59.1430 C   0  0  0  0  0  0  0  0  0  0  0  0
  126.7040  130.2560   60.1350 C   0  0  0  0  0  0  0  0  0  0  0  0
  125.6490  129.2180   59.6100 C   0  0  2  0  0  0  0  0  0  0  0  0
  126.0180  127.8020   59.8030 N   0  0  0  0  0  0  0  0  0  0  0  0
  127.0540  127.4290   60.6490 C   0  0  0  0  0  0  0  0  0  0  0  0
  127.7370  128.1780   61.3520 O   0  0  0  0  0  0  0  0  0  0  0  0
  127.2080  126.0960   60.5680 O   0  0  0  0  0  0  0  0  0  0  0  0
  126.8260  125.2370   61.6390 C   0  0  0  0  0  0  0  0  0  0  0  0
  126.7370  123.7710   61.1620 C   0  0  0  0  0  0  0  0  0  0  0  0
  126.3240  123.6270   59.7080 C   0  0  0  0  0  0  0  0  0  0  0  0
  125.1710  124.0820   59.0620 C   0  0  0  0  0  0  0  0  0  0  0  0
  125.0050  123.8550   57.6950 C   0  0  0  0  0  0  0  0  0  0  0  0
  125.9860  123.1740   56.9730 C   0  0  0  0  0  0  0  0  0  0  0  0
  127.1380  122.7160   57.6160 C   0  0  0  0  0  0  0  0  0  0  0  0
  127.3010  122.9430   58.9840 C   0  0  0  0  0  0  0  0  0  0  0  0
  128.3890  122.5720   59.9040 C   0  0  0  0  0  0  0  0  0  0  0  0
  129.5790  121.8750   59.6860 C   0  0  0  0  0  0  0  0  0  0  0  0
  130.4430  121.6340   60.7550 C   0  0  0  0  0  0  0  0  0  0  0  0
  130.1190  122.0900   62.0350 C   0  0  0  0  0  0  0  0  0  0  0  0
  128.9310  122.7900   62.2470 C   0  0  0  0  0  0  0  0  0  0  0  0
  128.0650  123.0360   61.1790 C   0  0  0  0  0  0  0  0  0  0  0  0
  125.3220  129.4740   58.1180 C   0  0  0  0  0  0  0  0  0  0  0  0
  125.0410  130.5570   57.6470 O   0  0  0  0  0  0  0  0  0  0  0  0
  125.4180  128.3040   57.4200 O   0  0  0  0  0  0  0  0  0  0  0  0
  128.6200  129.4830   58.8220 N   0  0  0  0  0  0  0  0  0  0  0  0
  129.8020  129.3060   57.9260 C   0  0  0  0  0  0  0  0  0  0  0  0
  129.3910  130.1490   56.6720 C   0  0  0  0  0  0  0  0  0  0  0  0
  129.9670  131.4030   56.4100 C   0  0  0  0  0  0  0  0  0  0  0  0
  129.5950  132.1430   55.2910 C   0  0  0  0  0  0  0  0  0  0  0  0
  128.6310  131.6460   54.4200 C   0  0  0  0  0  0  0  0  0  0  0  0
  128.0440  130.4070   54.6540 C   0  0  0  0  0  0  0  0  0  0  0  0
  128.4250  129.6640   55.7670 C   0  0  0  0  0  0  0  0  0  0  0  0
  131.0450  129.9010   58.6690 C   0  0  0  0  0  0  0  0  0  0  0  0
  130.9830  130.2880   60.0170 C   0  0  0  0  0  0  0  0  0  0  0  0
  132.0960  130.8340   60.6530 C   0  0  0  0  0  0  0  0  0  0  0  0
  133.2830  131.0010   59.9490 C   0  0  0  0  0  0  0  0  0  0  0  0
  133.3700  130.6220   58.6140 C   0  0  0  0  0  0  0  0  0  0  0  0
  132.2610  130.0690   57.9830 C   0  0  0  0  0  0  0  0  0  0  0  0
  129.8940  127.7720   57.6250 C   0  0  0  0  0  0  0  0  0  0  0  0
  128.7530  126.9520   57.6890 C   0  0  0  0  0  0  0  0  0  0  0  0
  128.8300  125.5860   57.4300 C   0  0  0  0  0  0  0  0  0  0  0  0
  130.0530  125.0160   57.0950 C   0  0  0  0  0  0  0  0  0  0  0  0
  131.1950  125.8030   57.0100 C   0  0  0  0  0  0  0  0  0  0  0  0
  131.1140  127.1680   57.2690 C   0  0  0  0  0  0  0  0  0  0  0  0
  127.1430  129.8632   61.0640 H   0  0  0  0  0  0  0  0  0  0  0  0
  126.1684  131.2046   60.2876 H   0  0  0  0  0  0  0  0  0  0  0  0
  124.7587  129.3847   60.2342 H   0  0  0  0  0  0  0  0  0  0  0  0
  125.6220  127.1150   59.1780 H   0  0  0  0  0  0  0  0  0  0  0  0
  127.5728  125.3097   62.4434 H   0  0  0  0  0  0  0  0  0  0  0  0
  125.8368  125.5490   62.0052 H   0  0  0  0  0  0  0  0  0  0  0  0
  126.0030  123.3595   61.8705 H   0  0  0  0  0  0  0  0  0  0  0  0
  124.3961  124.6178   59.6298 H   0  0  0  0  0  0  0  0  0  0  0  0
  124.0986  124.2138   57.1854 H   0  0  0  0  0  0  0  0  0  0  0  0
  125.8517  122.9976   55.8956 H   0  0  0  0  0  0  0  0  0  0  0  0
  127.9124  122.1796   57.0481 H   0  0  0  0  0  0  0  0  0  0  0  0
  129.8340  121.5179   58.6773 H   0  0  0  0  0  0  0  0  0  0  0  0
  131.3810  121.0839   60.5894 H   0  0  0  0  0  0  0  0  0  0  0  0
  130.8009  121.8970   62.8763 H   0  0  0  0  0  0  0  0  0  0  0  0
  128.6762  123.1483   63.2553 H   0  0  0  0  0  0  0  0  0  0  0  0
  126.1110  128.3320   56.7570 H   0  0  0  0  0  0  0  0  0  0  0  0
  128.4300  128.6550   59.3680 H   0  0  0  0  0  0  0  0  0  0  0  0
  130.7234  131.8064   57.0993 H   0  0  0  0  0  0  0  0  0  0  0  0
  130.0627  133.1193   55.0959 H   0  0  0  0  0  0  0  0  0  0  0  0
  128.3313  132.2361   53.5414 H   0  0  0  0  0  0  0  0  0  0  0  0
  127.2826  130.0165   53.9628 H   0  0  0  0  0  0  0  0  0  0  0  0
  127.9644  128.6809   55.9439 H   0  0  0  0  0  0  0  0  0  0  0  0
  130.0453  130.1588   60.5774 H   0  0  0  0  0  0  0  0  0  0  0  0
  132.0355  131.1323   61.7101 H   0  0  0  0  0  0  0  0  0  0  0  0
  134.1595  131.4360   60.4515 H   0  0  0  0  0  0  0  0  0  0  0  0
  134.3106  130.7588   58.0603 H   0  0  0  0  0  0  0  0  0  0  0  0
  132.3362  129.7580   56.9305 H   0  0  0  0  0  0  0  0  0  0  0  0
  127.7816  127.3982   57.9485 H   0  0  0  0  0  0  0  0  0  0  0  0
  127.9271  124.9606   57.4902 H   0  0  0  0  0  0  0  0  0  0  0  0
  130.1170  123.9360   56.8961 H   0  0  0  0  0  0  0  0  0  0  0  0
  132.1595  125.3488   56.7390 H   0  0  0  0  0  0  0  0  0  0  0  0
  132.0207  127.7863   57.1940 H   0  0  0  0  0  0  0  0  0  0  0  0
  1  2  2  0
  2  3  1  0
  3  4  1  0
  4  5  1  0
  5  6  1  0
  6  7  2  0
  6  8  1  0
  8  9  1  0
  9 10  1  0
 10 11  1  0
 11 12  2  0
 12 13  1  0
 13 14  2  0
 14 15  1  0
 15 16  2  0
 16 17  1  0
 17 18  2  0
 18 19  1  0
 19 20  2  0
 20 21  1  0
 21 22  2  0
  4 23  1  0
 23 24  2  0
 23 25  1  0
  2 26  1  0
 26 27  1  0
 27 28  1  0
 28 29  2  0
 29 30  1  0
 30 31  2  0
 31 32  1  0
 32 33  2  0
 27 34  1  0
 34 35  2  0
 35 36  1  0
 36 37  2  0
 37 38  1  0
 38 39  2  0
 27 40  1  0
 40 41  2  0
 41 42  1  0
 42 43  2  0
 43 44  1  0
 44 45  2  0
 22 10  1  0
 33 28  1  0
 39 34  1  0
 45 40  1  0
 16 11  1  0
 22 17  1  0
  3 46  1  0
  3 47  1  0
  4 48  1  1
  5 49  1  0
  9 50  1  0
  9 51  1  0
 10 52  1  0
 12 53  1  0
 13 54  1  0
 14 55  1  0
 15 56  1  0
 18 57  1  0
 19 58  1  0
 20 59  1  0
 21 60  1  0
 25 61  1  0
 26 62  1  0
 29 63  1  0
 30 64  1  0
 31 65  1  0
 32 66  1  0
 33 67  1  0
 35 68  1  0
 36 69  1  0
 37 70  1  0
 38 71  1  0
 39 72  1  0
 41 73  1  0
 42 74  1  0
 43 75  1  0
 44 76  1  0
 45 77  1  0
M  END
>  <Binding energies>  (1) 
[-10.12]

>  <Ligand effiencies>  (1) 
[-0.21083333333333332]

>  <Interactions>  (1) 
["V-B:PRO:540:CB:9857, H-B:TYR:531:OH:9767, V-B:MET:535:CE:9807, V-B:TYR:539:CD2:9846, V-B:PRO:540:N:9856, V-B:PRO:540:CA:9855, V-B:ALA:541:CB:9864, V-B:TYR:539:CE2:9848, V-B:TYR:539:C:9839, V-B:TYR:531:CE2:9765, V-B:LEU:363:CD1:8160, V-A:ASP:366:CG:3212, V-A:ILE:538:CA:4860, V-A:ASP:366:CB:3211, V-A:ILE:538:CG2:4863, V-A:TYR:539:CE2:4876, V-A:PRO:540:CA:4883, V-A:TYR:539:CZ:4877, V-A:PRO:540:CB:4885, V-A:TYR:539:CE1:4875, V-A:ILE:538:CB:4862, V-B:ASP:366:CG:8184, V-B:ASP:366:CB:8183, V-A:LEU:363:CD1:3188, V-B:TYR:539:CZ:9849, H-A:TYR:539:OH:4878, V-B:GLU:543:CD:9880, V-A:ILE:538:C:4858, V-A:LEU:363:CA:3184, H-B:ASP:366:OD1:8185, V-A:ASN:362:C:3171"]

$$$$
RR5_Rahimova_2017-again1
     RDKit          3D

 76 81  0  0  0  0  0  0  0  0999 V2000
  127.8490  122.4130   61.8650 O   0  0  0  0  0  0  0  0  0  0  0  0
  128.2400  122.6940   60.7320 C   0  0  0  0  0  0  0  0  0  0  0  0
  127.2070  123.1440   59.6790 C   0  0  0  0  0  0  0  0  0  0  0  0
  127.7600  123.5010   58.2600 C   0  0  2  0  0  0  0  0  0  0  0  0
  127.9350  124.9660   58.1630 N   0  0  0  0  0  0  0  0  0  0  0  0
  129.0910  125.5940   58.6130 C   0  0  0  0  0  0  0  0  0  0  0  0
  130.0630  125.0510   59.1460 O   0  0  0  0  0  0  0  0  0  0  0  0
  128.9840  126.9150   58.3740 O   0  0  0  0  0  0  0  0  0  0  0  0
  129.7870  127.8540   59.0820 C   0  0  0  0  0  0  0  0  0  0  0  0
  129.2410  129.2800   58.8750 C   0  0  0  0  0  0  0  0  0  0  0  0
  130.0780  130.1160   57.9230 C   0  0  0  0  0  0  0  0  0  0  0  0
  131.4220  130.4890   58.0090 C   0  0  0  0  0  0  0  0  0  0  0  0
  131.9970  131.2600   56.9970 C   0  0  0  0  0  0  0  0  0  0  0  0
  131.2310  131.6630   55.9010 C   0  0  0  0  0  0  0  0  0  0  0  0
  129.8880  131.2970   55.8150 C   0  0  0  0  0  0  0  0  0  0  0  0
  129.3150  130.5250   56.8280 C   0  0  0  0  0  0  0  0  0  0  0  0
  127.9450  130.0150   56.9970 C   0  0  0  0  0  0  0  0  0  0  0  0
  126.8080  130.1510   56.1980 C   0  0  0  0  0  0  0  0  0  0  0  0
  125.6060  129.5680   56.6030 C   0  0  0  0  0  0  0  0  0  0  0  0
  125.5420  128.8530   57.8000 C   0  0  0  0  0  0  0  0  0  0  0  0
  126.6820  128.7170   58.5970 C   0  0  0  0  0  0  0  0  0  0  0  0
  127.8880  129.2970   58.1930 C   0  0  0  0  0  0  0  0  0  0  0  0
  126.8360  122.9410   57.1050 C   0  0  0  0  0  0  0  0  0  0  0  0
  126.0930  123.8000   56.5750 O   0  0  0  0  0  0  0  0  0  0  0  0
  126.9660  121.7270   56.8150 O   0  0  0  0  0  0  0  0  0  0  0  0
  129.5480  122.7460   60.4010 N   0  0  0  0  0  0  0  0  0  0  0  0
  130.7440  122.3930   61.2080 C   0  0  0  0  0  0  0  0  0  0  0  0
  130.9350  120.8430   61.2340 C   0  0  0  0  0  0  0  0  0  0  0  0
  132.2080  120.2700   61.0640 C   0  0  0  0  0  0  0  0  0  0  0  0
  132.3840  118.8900   61.1000 C   0  0  0  0  0  0  0  0  0  0  0  0
  131.2870  118.0610   61.3100 C   0  0  0  0  0  0  0  0  0  0  0  0
  130.0170  118.6020   61.4850 C   0  0  0  0  0  0  0  0  0  0  0  0
  129.8430  119.9830   61.4490 C   0  0  0  0  0  0  0  0  0  0  0  0
  132.1040  122.9220   60.6510 C   0  0  0  0  0  0  0  0  0  0  0  0
  133.1630  123.2440   61.5180 C   0  0  0  0  0  0  0  0  0  0  0  0
  134.3750  123.7170   61.0240 C   0  0  0  0  0  0  0  0  0  0  0  0
  134.5490  123.8700   59.6530 C   0  0  0  0  0  0  0  0  0  0  0  0
  133.5200  123.5480   58.7720 C   0  0  0  0  0  0  0  0  0  0  0  0
  132.3090  123.0750   59.2690 C   0  0  0  0  0  0  0  0  0  0  0  0
  130.4110  122.9320   62.6420 C   0  0  0  0  0  0  0  0  0  0  0  0
  130.2530  122.0670   63.7390 C   0  0  0  0  0  0  0  0  0  0  0  0
  129.9760  122.5620   65.0090 C   0  0  0  0  0  0  0  0  0  0  0  0
  129.8660  123.9350   65.2060 C   0  0  0  0  0  0  0  0  0  0  0  0
  130.0400  124.8150   64.1440 C   0  0  0  0  0  0  0  0  0  0  0  0
  130.3160  124.3160   62.8730 C   0  0  0  0  0  0  0  0  0  0  0  0
  126.4783  122.3290   59.5574 H   0  0  0  0  0  0  0  0  0  0  0  0
  126.7861  124.0822   60.0696 H   0  0  0  0  0  0  0  0  0  0  0  0
  128.7373  123.0138   58.1273 H   0  0  0  0  0  0  0  0  0  0  0  0
  127.2210  125.5080   57.6980 H   0  0  0  0  0  0  0  0  0  0  0  0
  129.7712  127.6105   60.1546 H   0  0  0  0  0  0  0  0  0  0  0  0
  130.8181  127.8046   58.7021 H   0  0  0  0  0  0  0  0  0  0  0  0
  129.2273  129.6759   59.9012 H   0  0  0  0  0  0  0  0  0  0  0  0
  132.0262  130.1755   58.8731 H   0  0  0  0  0  0  0  0  0  0  0  0
  133.0558  131.5507   57.0631 H   0  0  0  0  0  0  0  0  0  0  0  0
  131.6873  132.2696   55.1049 H   0  0  0  0  0  0  0  0  0  0  0  0
  129.2828  131.6149   54.9532 H   0  0  0  0  0  0  0  0  0  0  0  0
  126.8592  130.7144   55.2546 H   0  0  0  0  0  0  0  0  0  0  0  0
  124.7073  129.6723   55.9774 H   0  0  0  0  0  0  0  0  0  0  0  0
  124.5929  128.3959   58.1166 H   0  0  0  0  0  0  0  0  0  0  0  0
  126.6303  128.1544   59.5408 H   0  0  0  0  0  0  0  0  0  0  0  0
  129.7500  122.9250   59.4280 H   0  0  0  0  0  0  0  0  0  0  0  0
  133.0781  120.9227   60.9000 H   0  0  0  0  0  0  0  0  0  0  0  0
  133.3858  118.4569   60.9630 H   0  0  0  0  0  0  0  0  0  0  0  0
  131.4244  116.9700   61.3379 H   0  0  0  0  0  0  0  0  0  0  0  0
  129.1536  117.9410   61.6512 H   0  0  0  0  0  0  0  0  0  0  0  0
  128.8380  120.4071   61.5906 H   0  0  0  0  0  0  0  0  0  0  0  0
  133.0315  123.1202   62.6031 H   0  0  0  0  0  0  0  0  0  0  0  0
  135.1924  123.9689   61.7157 H   0  0  0  0  0  0  0  0  0  0  0  0
  135.5053  124.2477   59.2621 H   0  0  0  0  0  0  0  0  0  0  0  0
  133.6635  123.6669   57.6879 H   0  0  0  0  0  0  0  0  0  0  0  0
  131.5001  122.8170   58.5696 H   0  0  0  0  0  0  0  0  0  0  0  0
  130.3500  120.9814   63.5906 H   0  0  0  0  0  0  0  0  0  0  0  0
  129.8444  121.8707   65.8544 H   0  0  0  0  0  0  0  0  0  0  0  0
  129.6399  124.3267   66.2087 H   0  0  0  0  0  0  0  0  0  0  0  0
  129.9601  125.9000   64.3065 H   0  0  0  0  0  0  0  0  0  0  0  0
  130.4619  125.0156   62.0368 H   0  0  0  0  0  0  0  0  0  0  0  0
  1  2  2  0
  2  3  1  0
  3  4  1  0
  4  5  1  0
  5  6  1  0
  6  7  2  0
  6  8  1  0
  8  9  1  0
  9 10  1  0
 10 11  1  0
 11 12  2  0
 12 13  1  0
 13 14  2  0
 14 15  1  0
 15 16  2  0
 16 17  1  0
 17 18  2  0
 18 19  1  0
 19 20  2  0
 20 21  1  0
 21 22  2  0
  4 23  1  0
 23 24  2  0
 23 25  1  0
  2 26  1  0
 26 27  1  0
 27 28  1  0
 28 29  2  0
 29 30  1  0
 30 31  2  0
 31 32  1  0
 32 33  2  0
 27 34  1  0
 34 35  2  0
 35 36  1  0
 36 37  2  0
 37 38  1  0
 38 39  2  0
 27 40  1  0
 40 41  2  0
 41 42  1  0
 42 43  2  0
 43 44  1  0
 44 45  2  0
 22 10  1  0
 33 28  1  0
 39 34  1  0
 45 40  1  0
 16 11  1  0
 22 17  1  0
  3 46  1  0
  3 47  1  0
  4 48  1  6
  5 49  1  0
  9 50  1  0
  9 51  1  0
 10 52  1  0
 12 53  1  0
 13 54  1  0
 14 55  1  0
 15 56  1  0
 18 57  1  0
 19 58  1  0
 20 59  1  0
 21 60  1  0
 26 61  1  0
 29 62  1  0
 30 63  1  0
 31 64  1  0
 32 65  1  0
 33 66  1  0
 35 67  1  0
 36 68  1  0
 37 69  1  0
 38 70  1  0
 39 71  1  0
 41 72  1  0
 42 73  1  0
 43 74  1  0
 44 75  1  0
 45 76  1  0
M  CHG  1  25  -1
M  END
>  <Binding energies>  (1) 
[-10.94]

>  <Ligand effiencies>  (1) 
[-0.2327659574468085]

>  <Interactions>  (1) 
["H-B:ALA:541:N:9863, V-B:PRO:540:CB:9857, H-B:TYR:531:OH:9767, V-B:MET:535:CE:9807, V-A:ILE:369:CG2:3236, V-A:LEU:475:CD1:4257, V-B:PRO:540:CA:9855, V-B:PRO:540:C:9853, H-B:TYR:539:N:9842, V-B:ALA:541:CB:9864, V-B:TYR:539:CE2:9848, V-A:PRO:482:CG:4326, V-B:TYR:531:CZ:9766, V-A:PRO:482:CB:4325, V-A:ASP:366:CG:3212, V-A:ASP:366:CA:3209, V-A:ASP:366:CB:3211, V-A:ILE:538:CG2:4863, V-A:ASP:366:C:3207, V-A:TYR:539:CZ:4877, V-A:PRO:540:CB:4885, V-A:TYR:539:CE1:4875, V-A:ILE:538:CB:4862, V-B:TYR:531:CE1:9764, V-B:ASP:366:CB:8183, V-A:LEU:363:CD1:3188, V-A:ILE:369:CD1:3238, V-A:ILE:369:CB:3235, V-A:TYR:484:CZ:4346, V-B:GLU:543:CG:9879, V-B:GLU:543:CD:9880, V-A:TYR:484:CE2:4345, V-B:ALA:541:CA:9862, V-A:ILE:369:CG1:3237"]

$$$$
RR6_Rahimova_2017
     RDKit          3D

 63 66  0  0  0  0  0  0  0  0999 V2000
  128.4600  129.7840   53.6880 C   0  0  0  0  0  0  0  0  0  0  0  0
  127.6570  130.6130   54.5170 O   0  0  0  0  0  0  0  0  0  0  0  0
  127.9120  130.7280   55.8460 C   0  0  0  0  0  0  0  0  0  0  0  0
  128.5060  131.6900   56.3430 O   0  0  0  0  0  0  0  0  0  0  0  0
  127.4000  129.5690   56.6520 C   0  0  0  0  0  0  0  0  0  0  0  0
  128.2390  128.5250   57.0690 C   0  0  0  0  0  0  0  0  0  0  0  0
  127.7330  127.4590   57.8090 C   0  0  0  0  0  0  0  0  0  0  0  0
  126.3700  127.4190   58.1420 C   0  0  0  0  0  0  0  0  0  0  0  0
  125.7500  126.3790   58.8590 N   0  0  0  0  0  0  0  0  0  0  0  0
  125.5920  125.0810   58.5200 C   0  0  0  0  0  0  0  0  0  0  0  0
  125.9940  124.5610   57.4790 O   0  0  0  0  0  0  0  0  0  0  0  0
  124.7890  124.2310   59.5100 C   0  0  0  0  0  0  0  0  0  0  0  0
  125.8160  123.4130   60.7760 S   0  0  0  0  0  0  0  0  0  0  0  0
  126.8440  124.6750   61.4980 C   0  0  0  0  0  0  0  0  0  0  0  0
  126.3030  125.9160   61.4730 N   0  0  0  0  0  0  0  0  0  0  0  0
  126.9800  126.9570   62.0200 C   0  0  0  0  0  0  0  0  0  0  0  0
  126.2850  128.2870   62.0060 C   0  0  0  0  0  0  0  0  0  0  0  0
  125.7670  128.8440   63.1860 C   0  0  0  0  0  0  0  0  0  0  0  0
  125.1100  130.0710   63.1700 C   0  0  0  0  0  0  0  0  0  0  0  0
  124.9640  130.7690   61.9720 C   0  0  0  0  0  0  0  0  0  0  0  0
  124.2390  132.1030   61.9590 C   0  0  0  0  0  0  0  0  0  0  0  0
  125.4730  130.2350   60.7910 C   0  0  0  0  0  0  0  0  0  0  0  0
  126.1290  129.0080   60.8120 C   0  0  0  0  0  0  0  0  0  0  0  0
  128.2390  126.7660   62.6000 C   0  0  0  0  0  0  0  0  0  0  0  0
  128.8220  125.4910   62.6350 C   0  0  0  0  0  0  0  0  0  0  0  0
  130.1590  125.3550   63.2850 C   0  0  0  0  0  0  0  0  0  0  0  0
  131.2940  125.0970   62.5110 C   0  0  0  0  0  0  0  0  0  0  0  0
  132.5470  124.9840   63.1080 C   0  0  0  0  0  0  0  0  0  0  0  0
  132.6910  125.1320   64.4860 C   0  0  0  0  0  0  0  0  0  0  0  0
  133.9710  125.0060   64.9900 O   0  0  0  0  0  0  0  0  0  0  0  0
  134.2190  125.3550   66.3480 C   0  0  0  0  0  0  0  0  0  0  0  0
  131.5550  125.3970   65.2670 C   0  0  0  0  0  0  0  0  0  0  0  0
  130.3040  125.5090   64.6670 C   0  0  0  0  0  0  0  0  0  0  0  0
  128.1090  124.4090   62.0620 C   0  0  0  0  0  0  0  0  0  0  0  0
  128.6730  123.0560   62.0380 C   0  0  0  0  0  0  0  0  0  0  0  0
  129.1180  121.9880   62.0210 N   0  0  0  0  0  0  0  0  0  0  0  0
  125.5360  128.4640   57.7440 C   0  0  0  0  0  0  0  0  0  0  0  0
  126.0440  129.5270   57.0010 C   0  0  0  0  0  0  0  0  0  0  0  0
  129.0881  129.1355   54.3164 H   0  0  0  0  0  0  0  0  0  0  0  0
  127.8116  129.1625   53.0529 H   0  0  0  0  0  0  0  0  0  0  0  0
  129.1018  130.4123   53.0529 H   0  0  0  0  0  0  0  0  0  0  0  0
  129.3075  128.5485   56.8089 H   0  0  0  0  0  0  0  0  0  0  0  0
  128.4019  126.6480   58.1327 H   0  0  0  0  0  0  0  0  0  0  0  0
  125.2900  126.6760   59.7070 H   0  0  0  0  0  0  0  0  0  0  0  0
  124.0641  124.8831   60.0192 H   0  0  0  0  0  0  0  0  0  0  0  0
  124.3014  123.4349   58.9282 H   0  0  0  0  0  0  0  0  0  0  0  0
  125.8820  128.3030   64.1368 H   0  0  0  0  0  0  0  0  0  0  0  0
  124.7057  130.4902   64.1032 H   0  0  0  0  0  0  0  0  0  0  0  0
  124.0597  132.4329   62.9929 H   0  0  0  0  0  0  0  0  0  0  0  0
  124.8552  132.8501   61.4373 H   0  0  0  0  0  0  0  0  0  0  0  0
  123.2769  131.9924   61.4373 H   0  0  0  0  0  0  0  0  0  0  0  0
  125.3568  130.7818   59.8437 H   0  0  0  0  0  0  0  0  0  0  0  0
  126.5327  128.5956   59.8756 H   0  0  0  0  0  0  0  0  0  0  0  0
  128.7760  127.6232   63.0322 H   0  0  0  0  0  0  0  0  0  0  0  0
  131.1966  124.9823   61.4213 H   0  0  0  0  0  0  0  0  0  0  0  0
  133.4305  124.7762   62.4865 H   0  0  0  0  0  0  0  0  0  0  0  0
  133.7099  124.6386   67.0095 H   0  0  0  0  0  0  0  0  0  0  0  0
  135.3015  125.3278   66.5418 H   0  0  0  0  0  0  0  0  0  0  0  0
  133.8372  126.3683   66.5418 H   0  0  0  0  0  0  0  0  0  0  0  0
  131.6537  125.5165   66.3560 H   0  0  0  0  0  0  0  0  0  0  0  0
  129.4202  125.7209   65.2867 H   0  0  0  0  0  0  0  0  0  0  0  0
  124.4709  128.4484   58.0185 H   0  0  0  0  0  0  0  0  0  0  0  0
  125.3744  130.3407   56.6855 H   0  0  0  0  0  0  0  0  0  0  0  0
  1  2  1  0
  2  3  1  0
  3  4  2  0
  3  5  1  0
  5  6  2  0
  6  7  1  0
  7  8  2  0
  8  9  1  0
  9 10  1  0
 10 11  2  0
 10 12  1  0
 12 13  1  0
 13 14  1  0
 14 15  2  0
 15 16  1  0
 16 17  1  0
 17 18  2  0
 18 19  1  0
 19 20  2  0
 20 21  1  0
 20 22  1  0
 22 23  2  0
 16 24  2  0
 24 25  1  0
 25 26  1  0
 26 27  2  0
 27 28  1  0
 28 29  2  0
 29 30  1  0
 30 31  1  0
 29 32  1  0
 32 33  2  0
 25 34  2  0
 34 35  1  0
 35 36  3  0
  8 37  1  0
 37 38  2  0
 38  5  1  0
 34 14  1  0
 23 17  1  0
 33 26  1  0
  1 39  1  0
  1 40  1  0
  1 41  1  0
  6 42  1  0
  7 43  1  0
  9 44  1  0
 12 45  1  0
 12 46  1  0
 18 47  1  0
 19 48  1  0
 21 49  1  0
 21 50  1  0
 21 51  1  0
 22 52  1  0
 23 53  1  0
 24 54  1  0
 27 55  1  0
 28 56  1  0
 31 57  1  0
 31 58  1  0
 31 59  1  0
 32 60  1  0
 33 61  1  0
 37 62  1  0
 38 63  1  0
M  END
>  <Binding energies>  (1) 
[-9.54]

>  <Ligand effiencies>  (1) 
[-0.2446153846153846]

>  <Interactions>  (1) 
["H-B:ALA:541:N:9863, V-B:PRO:540:CB:9857, H-B:TYR:531:OH:9767, V-B:ALA:541:CB:9864, V-B:TYR:531:CZ:9766, H-A:TYR:484:OH:4347, H-A:GLY:454:N:4049, V-A:TYR:539:CZ:4877, V-A:TYR:539:CE1:4875, V-B:ASP:366:CG:8184, V-B:TYR:531:CE1:9764, H-B:LYS:534:NZ:9795, V-B:ASP:366:CB:8183, V-B:ARG:545:CZ:9898, V-B:ILE:369:CD1:8210, H-B:ARG:545:NH2:9900, H-A:TYR:539:OH:4878, H-A:ARG:545:NH2:4928, V-A:ARG:545:CD:4923, V-B:GLU:543:CD:9880, H-A:ARG:545:NE:4924, V-A:ARG:545:CG:4922, V-A:ARG:545:CZ:4926, H-A:ARG:545:NH1:4927, V-B:LYS:534:CE:9794, V-B:ILE:369:CG2:8208, H-B:ASP:366:OD2:8186, H-B:ASP:366:OD1:8185, V-A:GLY:453:CA:4043, V-A:GLY:453:C:4041"]

$$$$
RR7_Rahimova_2017
     RDKit          3D

 80 86  0  0  0  0  0  0  0  0999 V2000
  132.8160  124.2400   58.1760 C   0  0  0  0  0  0  0  0  0  0  0  0
  131.4520  124.5570   58.4380 O   0  0  0  0  0  0  0  0  0  0  0  0
  131.0280  125.8650   58.3000 C   0  0  0  0  0  0  0  0  0  0  0  0
  130.0890  126.3150   59.2250 C   0  0  0  0  0  0  0  0  0  0  0  0
  129.6060  127.6190   59.1700 C   0  0  0  0  0  0  0  0  0  0  0  0
  130.0450  128.5040   58.1740 C   0  0  0  0  0  0  0  0  0  0  0  0
  129.5460  129.9810   58.1070 C   0  0  0  0  0  0  0  0  0  0  0  0
  128.2480  129.9430   57.4710 O   0  0  0  0  0  0  0  0  0  0  0  0
  127.6670  128.6880   57.1010 C   0  0  0  0  0  0  0  0  0  0  0  0
  126.1550  128.7360   57.3780 C   0  0  1  0  0  0  0  0  0  0  0  0
  125.9520  128.1490   58.6600 O   0  0  0  0  0  0  0  0  0  0  0  0
  125.3350  129.0360   59.5490 C   0  0  1  0  0  0  0  0  0  0  0  0
  125.8070  128.7990   60.9000 N   0  0  0  0  0  0  0  0  0  0  0  0
  126.7170  127.8500   61.3300 C   0  0  0  0  0  0  0  0  0  0  0  0
  126.9310  127.8230   62.6220 N   0  0  0  0  0  0  0  0  0  0  0  0
  126.0850  128.7800   63.1130 C   0  0  0  0  0  0  0  0  0  0  0  0
  125.8270  129.2280   64.4240 C   0  0  0  0  0  0  0  0  0  0  0  0
  126.5390  128.6450   65.4890 N   0  0  0  0  0  0  0  0  0  0  0  0
  127.3450  129.2390   66.4010 C   0  0  0  0  0  0  0  0  0  0  0  0
  127.6020  130.4450   66.4200 O   0  0  0  0  0  0  0  0  0  0  0  0
  127.9720  128.3140   67.4220 C   0  0  0  0  0  0  0  0  0  0  0  0
  128.9700  128.8010   68.2800 C   0  0  0  0  0  0  0  0  0  0  0  0
  129.5550  127.9690   69.2290 C   0  0  0  0  0  0  0  0  0  0  0  0
  129.1450  126.6440   69.3330 C   0  0  0  0  0  0  0  0  0  0  0  0
  128.1530  126.1420   68.4950 C   0  0  0  0  0  0  0  0  0  0  0  0
  127.5670  126.9730   67.5430 C   0  0  0  0  0  0  0  0  0  0  0  0
  124.8940  130.2080   64.6230 N   0  0  0  0  0  0  0  0  0  0  0  0
  124.2550  130.7050   63.5320 C   0  0  0  0  0  0  0  0  0  0  0  0
  124.4280  130.3500   62.2310 N   0  0  0  0  0  0  0  0  0  0  0  0
  125.3510  129.3940   62.0660 C   0  0  0  0  0  0  0  0  0  0  0  0
  125.6300  130.4260   58.9990 C   0  0  0  0  0  0  0  0  0  0  0  0
  125.5630  130.1460   57.5070 C   0  0  2  0  0  0  0  0  0  0  0  0
  124.2380  130.2240   57.0110 O   0  0  0  0  0  0  0  0  0  0  0  0
  129.3420  130.6000   59.5150 C   0  0  0  0  0  0  0  0  0  0  0  0
  128.3890  131.6120   59.7130 C   0  0  0  0  0  0  0  0  0  0  0  0
  128.2080  132.1840   60.9680 C   0  0  0  0  0  0  0  0  0  0  0  0
  128.9800  131.7490   62.0410 C   0  0  0  0  0  0  0  0  0  0  0  0
  129.9310  130.7480   61.8680 C   0  0  0  0  0  0  0  0  0  0  0  0
  130.1120  130.1770   60.6120 C   0  0  0  0  0  0  0  0  0  0  0  0
  130.4680  130.9730   57.3440 C   0  0  0  0  0  0  0  0  0  0  0  0
  130.0130  131.6180   56.1830 C   0  0  0  0  0  0  0  0  0  0  0  0
  130.8340  132.5000   55.4880 C   0  0  0  0  0  0  0  0  0  0  0  0
  132.1270  132.7400   55.9430 C   0  0  0  0  0  0  0  0  0  0  0  0
  132.6050  132.1020   57.0830 C   0  0  0  0  0  0  0  0  0  0  0  0
  131.7810  131.2210   57.7770 C   0  0  0  0  0  0  0  0  0  0  0  0
  131.0010  128.0500   57.2530 C   0  0  0  0  0  0  0  0  0  0  0  0
  131.4840  126.7450   57.3100 C   0  0  0  0  0  0  0  0  0  0  0  0
  133.3528  124.1152   59.1280 H   0  0  0  0  0  0  0  0  0  0  0  0
  132.8709  123.3052   57.5989 H   0  0  0  0  0  0  0  0  0  0  0  0
  133.2775  125.0548   57.5989 H   0  0  0  0  0  0  0  0  0  0  0  0
  129.7253  125.6325   60.0073 H   0  0  0  0  0  0  0  0  0  0  0  0
  128.8722  127.9594   59.9154 H   0  0  0  0  0  0  0  0  0  0  0  0
  127.8403  128.5025   56.0307 H   0  0  0  0  0  0  0  0  0  0  0  0
  128.1269  127.8782   57.6865 H   0  0  0  0  0  0  0  0  0  0  0  0
  125.6733  128.2325   56.5268 H   0  0  0  0  0  0  0  0  0  0  0  0
  124.2453  128.9055   59.6228 H   0  0  0  0  0  0  0  0  0  0  0  0
  127.2256  127.1655   60.6352 H   0  0  0  0  0  0  0  0  0  0  0  0
  126.4260  127.6450   65.5700 H   0  0  0  0  0  0  0  0  0  0  0  0
  129.2925  129.8497   68.2014 H   0  0  0  0  0  0  0  0  0  0  0  0
  130.3394  128.3578   69.8951 H   0  0  0  0  0  0  0  0  0  0  0  0
  129.6085  125.9871   70.0838 H   0  0  0  0  0  0  0  0  0  0  0  0
  127.8333  125.0933   68.5843 H   0  0  0  0  0  0  0  0  0  0  0  0
  126.7822  126.5775   66.8815 H   0  0  0  0  0  0  0  0  0  0  0  0
  123.5077  131.4890   63.7243 H   0  0  0  0  0  0  0  0  0  0  0  0
  124.8695  131.1571   59.3107 H   0  0  0  0  0  0  0  0  0  0  0  0
  126.5774  130.8664   59.3432 H   0  0  0  0  0  0  0  0  0  0  0  0
  126.1141  130.8871   56.9095 H   0  0  0  0  0  0  0  0  0  0  0  0
  124.1880  130.9500   56.3840 H   0  0  0  0  0  0  0  0  0  0  0  0
  127.7782  131.9566   58.8655 H   0  0  0  0  0  0  0  0  0  0  0  0
  127.4584  132.9762   61.1115 H   0  0  0  0  0  0  0  0  0  0  0  0
  128.8373  132.2001   63.0340 H   0  0  0  0  0  0  0  0  0  0  0  0
  130.5374  130.4093   62.7210 H   0  0  0  0  0  0  0  0  0  0  0  0
  130.8651  129.3868   60.4764 H   0  0  0  0  0  0  0  0  0  0  0  0
  128.9937  131.4233   55.8181 H   0  0  0  0  0  0  0  0  0  0  0  0
  130.4632  133.0049   54.5838 H   0  0  0  0  0  0  0  0  0  0  0  0
  132.7764  133.4399   55.3968 H   0  0  0  0  0  0  0  0  0  0  0  0
  133.6297  132.2930   57.4343 H   0  0  0  0  0  0  0  0  0  0  0  0
  132.1624  130.7130   58.6750 H   0  0  0  0  0  0  0  0  0  0  0  0
  131.3738  128.7335   56.4759 H   0  0  0  0  0  0  0  0  0  0  0  0
  132.2270  126.4037   56.5742 H   0  0  0  0  0  0  0  0  0  0  0  0
  1  2  1  0
  2  3  1  0
  3  4  2  0
  4  5  1  0
  5  6  2  0
  6  7  1  0
  7  8  1  0
  8  9  1  0
  9 10  1  0
 10 11  1  0
 11 12  1  0
 12 13  1  0
 13 14  1  0
 14 15  2  0
 15 16  1  0
 16 17  2  0
 17 18  1  0
 18 19  1  0
 19 20  2  0
 19 21  1  0
 21 22  2  0
 22 23  1  0
 23 24  2  0
 24 25  1  0
 25 26  2  0
 17 27  1  0
 27 28  2  0
 28 29  1  0
 29 30  2  0
 12 31  1  0
 31 32  1  0
 32 33  1  0
  7 34  1  0
 34 35  2  0
 35 36  1  0
 36 37  2  0
 37 38  1  0
 38 39  2  0
  7 40  1  0
 40 41  2  0
 41 42  1  0
 42 43  2  0
 43 44  1  0
 44 45  2  0
  6 46  1  0
 46 47  2  0
 47  3  1  0
 32 10  1  0
 39 34  1  0
 45 40  1  0
 30 13  1  0
 30 16  1  0
 26 21  1  0
  1 48  1  0
  1 49  1  0
  1 50  1  0
  4 51  1  0
  5 52  1  0
  9 53  1  0
  9 54  1  0
 10 55  1  6
 12 56  1  1
 14 57  1  0
 18 58  1  0
 22 59  1  0
 23 60  1  0
 24 61  1  0
 25 62  1  0
 26 63  1  0
 28 64  1  0
 31 65  1  0
 31 66  1  0
 32 67  1  6
 33 68  1  0
 35 69  1  0
 36 70  1  0
 37 71  1  0
 38 72  1  0
 39 73  1  0
 41 74  1  0
 42 75  1  0
 43 76  1  0
 44 77  1  0
 45 78  1  0
 46 79  1  0
 47 80  1  0
M  END
>  <Binding energies>  (1) 
[-9.84]

>  <Ligand effiencies>  (1) 
[-0.20081632653061224]

>  <Interactions>  (1) 
["H-B:TYR:531:OH:9767, V-B:TYR:539:CE2:9848, V-B:TYR:531:CZ:9766, V-A:PRO:540:N:4884, V-A:ILE:538:CA:4860, V-A:ASP:366:CA:3209, V-A:ASP:366:CB:3211, V-A:ILE:538:CG2:4863, H-B:TYR:539:OH:9850, V-A:TYR:539:CD1:4873, V-A:PRO:540:CA:4883, V-A:TYR:539:CZ:4877, V-A:PRO:540:CB:4885, V-A:TYR:539:CE1:4875, V-A:ILE:538:CB:4862, V-B:ASP:366:CG:8184, V-B:TYR:531:CE1:9764, H-B:GLY:454:N:9021, V-B:ASP:366:CB:8183, V-B:ARG:545:CZ:9898, V-A:ALA:541:CB:4892, V-A:PRO:540:CD:4887, V-A:LEU:363:CD1:3188, V-A:GLU:543:CG:4907, V-B:GLY:454:CA:9020, V-A:GLU:543:CD:4908, H-B:ARG:545:NH2:9900, H-B:TYR:484:OH:9319, V-B:TYR:539:CZ:9849, H-A:TYR:539:OH:4878, V-A:GLU:543:C:4902, V-B:HIS:456:CE1:9041, V-A:HIS:456:CE1:4069, V-B:GLU:543:CB:9878, V-B:GLU:543:CD:9880, H-B:GLU:543:OE2:9882, V-A:GLU:543:CA:4904, V-A:GLU:543:CB:4906, V-A:ILE:538:C:4858, V-A:PRO:540:CG:4886, V-B:GLU:543:CA:9876, V-B:GLU:543:C:9874, H-B:ASP:366:O:8180"]

$$$$
RR8_A_Rahimova_2017
     RDKit          3D

 73 77  0  0  0  0  0  0  0  0999 V2000
  129.2330  122.1400   62.6530 O   0  0  0  0  0  0  0  0  0  0  0  0
  128.9050  123.1340   61.9950 C   0  0  0  0  0  0  0  0  0  0  0  0
  129.1040  124.4280   62.3970 O   0  0  0  0  0  0  0  0  0  0  0  0
  130.4010  124.9470   62.2930 C   0  0  1  0  0  0  0  0  0  0  0  0
  131.3020  124.2510   63.1040 O   0  0  0  0  0  0  0  0  0  0  0  0
  132.5700  124.0940   62.4730 C   0  0  2  0  0  0  0  0  0  0  0  0
  133.6540  124.6750   63.3980 C   0  0  0  0  0  0  0  0  0  0  0  0
  133.2410  124.5090   64.7480 O   0  0  0  0  0  0  0  0  0  0  0  0
  133.3380  125.6910   65.5310 C   0  0  0  0  0  0  0  0  0  0  0  0
  131.9990  125.9810   66.1940 C   0  0  0  0  0  0  0  0  0  0  0  0
  130.8480  125.3200   65.7580 C   0  0  0  0  0  0  0  0  0  0  0  0
  129.6220  125.5790   66.3670 C   0  0  0  0  0  0  0  0  0  0  0  0
  129.5510  126.4970   67.4130 C   0  0  0  0  0  0  0  0  0  0  0  0
  130.6950  127.1570   67.8570 C   0  0  0  0  0  0  0  0  0  0  0  0
  131.9210  126.8970   67.2500 C   0  0  0  0  0  0  0  0  0  0  0  0
  132.3990  124.8080   61.1260 C   0  0  1  0  0  0  0  0  0  0  0  0
  133.0500  124.1370   60.0490 O   0  0  0  0  0  0  0  0  0  0  0  0
  134.0240  123.1700   60.4230 C   0  0  0  0  0  0  0  0  0  0  0  0
  133.3610  121.8140   60.6200 C   0  0  0  0  0  0  0  0  0  0  0  0
  134.0820  120.7680   61.2030 C   0  0  0  0  0  0  0  0  0  0  0  0
  133.4850  119.5230   61.3780 C   0  0  0  0  0  0  0  0  0  0  0  0
  132.1680  119.3240   60.9670 C   0  0  0  0  0  0  0  0  0  0  0  0
  131.4450  120.3590   60.3790 C   0  0  0  0  0  0  0  0  0  0  0  0
  132.0420  121.6040   60.2020 C   0  0  0  0  0  0  0  0  0  0  0  0
  130.9050  124.7250   60.8730 C   0  0  2  0  0  0  0  0  0  0  0  0
  130.4940  125.7350   59.9550 O   0  0  0  0  0  0  0  0  0  0  0  0
  129.7530  125.2790   58.8280 C   0  0  0  0  0  0  0  0  0  0  0  0
  130.5870  125.4300   57.5650 C   0  0  0  0  0  0  0  0  0  0  0  0
  129.9610  125.5940   56.3240 C   0  0  0  0  0  0  0  0  0  0  0  0
  130.7280  125.7410   55.1720 C   0  0  0  0  0  0  0  0  0  0  0  0
  132.1180  125.7280   55.2620 C   0  0  0  0  0  0  0  0  0  0  0  0
  132.7490  125.5710   56.4930 C   0  0  0  0  0  0  0  0  0  0  0  0
  131.9820  125.4230   57.6470 C   0  0  0  0  0  0  0  0  0  0  0  0
  128.2500  123.0410   60.6480 C   0  0  0  0  0  0  0  0  0  0  0  0
  128.8550  122.3700   59.5730 C   0  0  0  0  0  0  0  0  0  0  0  0
  128.2220  122.3020   58.3350 C   0  0  0  0  0  0  0  0  0  0  0  0
  126.9710  122.9020   58.1380 C   0  0  0  0  0  0  0  0  0  0  0  0
  126.2980  122.8270   56.8190 N   0  0  0  0  0  0  0  0  0  0  0  0
  125.7670  123.8400   56.3710 O   0  0  0  0  0  0  0  0  0  0  0  0
  126.2940  121.7560   56.2200 O   0  0  0  0  0  0  0  0  0  0  0  0
  126.3700  123.5730   59.2100 C   0  0  0  0  0  0  0  0  0  0  0  0
  127.0010  123.6420   60.4490 C   0  0  0  0  0  0  0  0  0  0  0  0
  130.3492  126.0067   62.5834 H   0  0  0  0  0  0  0  0  0  0  0  0
  132.8927  123.0580   62.2927 H   0  0  0  0  0  0  0  0  0  0  0  0
  134.6034  124.1443   63.2339 H   0  0  0  0  0  0  0  0  0  0  0  0
  133.7982  125.7435   63.1799 H   0  0  0  0  0  0  0  0  0  0  0  0
  134.1070  125.5540   66.3055 H   0  0  0  0  0  0  0  0  0  0  0  0
  133.6125  126.5355   64.8817 H   0  0  0  0  0  0  0  0  0  0  0  0
  130.9098  124.5946   64.9334 H   0  0  0  0  0  0  0  0  0  0  0  0
  128.7142  125.0612   66.0237 H   0  0  0  0  0  0  0  0  0  0  0  0
  128.5827  126.7025   67.8927 H   0  0  0  0  0  0  0  0  0  0  0  0
  130.6300  127.8802   68.6833 H   0  0  0  0  0  0  0  0  0  0  0  0
  132.8281  127.4113   67.6002 H   0  0  0  0  0  0  0  0  0  0  0  0
  132.8250  125.8212   61.1708 H   0  0  0  0  0  0  0  0  0  0  0  0
  134.7836  123.0927   59.6311 H   0  0  0  0  0  0  0  0  0  0  0  0
  134.4986  123.4807   61.3655 H   0  0  0  0  0  0  0  0  0  0  0  0
  135.1218  120.9289   61.5237 H   0  0  0  0  0  0  0  0  0  0  0  0
  134.0502  118.6994   61.8388 H   0  0  0  0  0  0  0  0  0  0  0  0
  131.6955  118.3407   61.1083 H   0  0  0  0  0  0  0  0  0  0  0  0
  130.4067  120.1934   60.0558 H   0  0  0  0  0  0  0  0  0  0  0  0
  131.4768  122.4231   59.7334 H   0  0  0  0  0  0  0  0  0  0  0  0
  130.5331  123.7993   60.4096 H   0  0  0  0  0  0  0  0  0  0  0  0
  129.4912  124.2198   58.9678 H   0  0  0  0  0  0  0  0  0  0  0  0
  128.8360  125.8787   58.7305 H   0  0  0  0  0  0  0  0  0  0  0  0
  128.8630  125.6067   56.2592 H   0  0  0  0  0  0  0  0  0  0  0  0
  130.2388  125.8669   54.1949 H   0  0  0  0  0  0  0  0  0  0  0  0
  132.7235  125.8430   54.3508 H   0  0  0  0  0  0  0  0  0  0  0  0
  133.8473  125.5638   56.5544 H   0  0  0  0  0  0  0  0  0  0  0  0
  132.4748  125.3006   58.6228 H   0  0  0  0  0  0  0  0  0  0  0  0
  129.8372  121.8942   59.7103 H   0  0  0  0  0  0  0  0  0  0  0  0
  128.7087  121.7720   57.5030 H   0  0  0  0  0  0  0  0  0  0  0  0
  125.3888  124.0507   59.0717 H   0  0  0  0  0  0  0  0  0  0  0  0
  126.5138  124.1737   61.2796 H   0  0  0  0  0  0  0  0  0  0  0  0
  1  2  2  0
  2  3  1  0
  3  4  1  0
  4  5  1  0
  5  6  1  0
  6  7  1  0
  7  8  1  0
  8  9  1  0
  9 10  1  0
 10 11  2  0
 11 12  1  0
 12 13  2  0
 13 14  1  0
 14 15  2  0
  6 16  1  0
 16 17  1  0
 17 18  1  0
 18 19  1  0
 19 20  2  0
 20 21  1  0
 21 22  2  0
 22 23  1  0
 23 24  2  0
 16 25  1  0
 25 26  1  0
 26 27  1  0
 27 28  1  0
 28 29  2  0
 29 30  1  0
 30 31  2  0
 31 32  1  0
 32 33  2  0
  2 34  1  0
 34 35  2  0
 35 36  1  0
 36 37  2  0
 37 38  1  0
 38 39  2  0
 38 40  1  0
 37 41  1  0
 41 42  2  0
 25  4  1  0
 33 28  1  0
 42 34  1  0
 15 10  1  0
 24 19  1  0
  4 43  1  1
  6 44  1  6
  7 45  1  0
  7 46  1  0
  9 47  1  0
  9 48  1  0
 11 49  1  0
 12 50  1  0
 13 51  1  0
 14 52  1  0
 15 53  1  0
 16 54  1  1
 18 55  1  0
 18 56  1  0
 20 57  1  0
 21 58  1  0
 22 59  1  0
 23 60  1  0
 24 61  1  0
 25 62  1  6
 27 63  1  0
 27 64  1  0
 29 65  1  0
 30 66  1  0
 31 67  1  0
 32 68  1  0
 33 69  1  0
 35 70  1  0
 36 71  1  0
 41 72  1  0
 42 73  1  0
M  CHG  2  38   1  40  -1
M  END
>  <Binding energies>  (1) 
[-10.06]

>  <Ligand effiencies>  (1) 
[-0.23952380952380953]

>  <Interactions>  (1) 
["H-B:ALA:541:N:9863, V-B:PRO:540:CB:9857, H-B:TYR:531:OH:9767, V-B:MET:535:CE:9807, V-A:ILE:369:CG2:3236, V-B:TYR:539:CD2:9846, V-B:PRO:540:N:9856, V-A:LEU:475:CD1:4257, V-B:PRO:540:CA:9855, H-B:TYR:539:N:9842, V-B:TYR:539:CE2:9848, V-B:TYR:539:C:9839, H-A:TYR:484:OH:4347, V-A:ASP:366:CG:3212, H-A:GLY:454:N:4049, V-A:TYR:531:CE1:4792, V-A:ASP:366:CA:3209, V-A:ASP:366:CB:3211, V-A:ASN:370:CB:3244, V-A:ASP:366:C:3207, V-A:TYR:531:CZ:4794, V-A:GLU:543:CD:4908, V-A:ILE:369:CD1:3238, V-A:SER:385:CA:3406, V-A:ILE:369:CB:3235, V-A:SER:385:C:3404, V-A:TYR:484:CZ:4346, V-A:HIS:456:CE1:4069, V-B:GLU:543:CB:9878, V-A:ARG:545:CD:4923, V-B:GLU:543:CG:9879, V-B:GLU:543:CD:9880, V-A:ARG:545:CG:4922, V-A:ARG:545:CZ:4926, V-A:GLU:543:CB:4906, V-A:GLY:453:CA:4043, V-A:GLY:453:C:4041, V-A:ASN:370:CG:3245"]

$$$$
RR8_B_Rahimova_2017
     RDKit          3D

 73 77  0  0  0  0  0  0  0  0999 V2000
  132.3870  125.0740   58.5190 O   0  0  0  0  0  0  0  0  0  0  0  0
  131.5500  124.3640   59.0860 C   0  0  0  0  0  0  0  0  0  0  0  0
  131.7170  123.8120   60.3250 O   0  0  0  0  0  0  0  0  0  0  0  0
  132.0120  124.6700   61.4000 C   0  0  2  0  0  0  0  0  0  0  0  0
  133.1090  124.2180   62.1430 O   0  0  0  0  0  0  0  0  0  0  0  0
  132.6990  123.3800   63.2220 C   0  0  2  0  0  0  0  0  0  0  0  0
  133.3720  122.0020   63.0870 C   0  0  0  0  0  0  0  0  0  0  0  0
  134.2150  122.0030   61.9420 O   0  0  0  0  0  0  0  0  0  0  0  0
  133.5650  121.6860   60.7200 C   0  0  0  0  0  0  0  0  0  0  0  0
  132.5410  120.5890   60.9680 C   0  0  0  0  0  0  0  0  0  0  0  0
  132.9630  119.2620   61.0970 C   0  0  0  0  0  0  0  0  0  0  0  0
  132.0290  118.2500   61.2990 C   0  0  0  0  0  0  0  0  0  0  0  0
  130.6740  118.5680   61.3740 C   0  0  0  0  0  0  0  0  0  0  0  0
  130.2470  119.8880   61.2530 C   0  0  0  0  0  0  0  0  0  0  0  0
  131.1810  120.9010   61.0470 C   0  0  0  0  0  0  0  0  0  0  0  0
  131.1680  123.3770   63.1400 C   0  0  1  0  0  0  0  0  0  0  0  0
  130.6110  123.3340   64.4570 O   0  0  0  0  0  0  0  0  0  0  0  0
  129.7740  124.4260   64.8450 C   0  0  0  0  0  0  0  0  0  0  0  0
  130.4890  125.4000   65.7760 C   0  0  0  0  0  0  0  0  0  0  0  0
  129.7870  126.0220   66.8130 C   0  0  0  0  0  0  0  0  0  0  0  0
  130.4500  126.8860   67.6810 C   0  0  0  0  0  0  0  0  0  0  0  0
  131.8110  127.1280   67.5060 C   0  0  0  0  0  0  0  0  0  0  0  0
  132.5160  126.5150   66.4730 C   0  0  0  0  0  0  0  0  0  0  0  0
  131.8540  125.6480   65.6060 C   0  0  0  0  0  0  0  0  0  0  0  0
  130.8480  124.6650   62.3900 C   0  0  2  0  0  0  0  0  0  0  0  0
  129.5670  124.5750   61.7720 O   0  0  0  0  0  0  0  0  0  0  0  0
  128.8670  123.3590   61.9840 C   0  0  0  0  0  0  0  0  0  0  0  0
  127.4710  123.5060   61.4050 C   0  0  0  0  0  0  0  0  0  0  0  0
  127.2320  124.4030   60.3590 C   0  0  0  0  0  0  0  0  0  0  0  0
  125.9440  124.5440   59.8490 C   0  0  0  0  0  0  0  0  0  0  0  0
  124.9020  123.7900   60.3830 C   0  0  0  0  0  0  0  0  0  0  0  0
  125.1340  122.8930   61.4250 C   0  0  0  0  0  0  0  0  0  0  0  0
  126.4210  122.7510   61.9350 C   0  0  0  0  0  0  0  0  0  0  0  0
  130.2390  123.9830   58.4600 C   0  0  0  0  0  0  0  0  0  0  0  0
  129.5470  124.8530   57.6050 C   0  0  0  0  0  0  0  0  0  0  0  0
  128.3300  124.4760   57.0470 C   0  0  0  0  0  0  0  0  0  0  0  0
  127.7690  123.2270   57.3370 C   0  0  0  0  0  0  0  0  0  0  0  0
  126.4580  122.8370   56.7610 N   0  0  0  0  0  0  0  0  0  0  0  0
  126.2700  121.6590   56.4680 O   0  0  0  0  0  0  0  0  0  0  0  0
  125.6040  123.7060   56.6030 O   0  0  0  0  0  0  0  0  0  0  0  0
  128.4640  122.3550   58.1860 C   0  0  0  0  0  0  0  0  0  0  0  0
  129.6840  122.7280   58.7390 C   0  0  0  0  0  0  0  0  0  0  0  0
  132.2105  125.6593   60.9620 H   0  0  0  0  0  0  0  0  0  0  0  0
  133.0040  123.7246   64.2211 H   0  0  0  0  0  0  0  0  0  0  0  0
  133.9723  121.7962   63.9855 H   0  0  0  0  0  0  0  0  0  0  0  0
  132.6020  121.2240   62.9781 H   0  0  0  0  0  0  0  0  0  0  0  0
  133.0582  122.5810   60.3299 H   0  0  0  0  0  0  0  0  0  0  0  0
  134.3072  121.3396   59.9857 H   0  0  0  0  0  0  0  0  0  0  0  0
  134.0340  119.0178   61.0388 H   0  0  0  0  0  0  0  0  0  0  0  0
  132.3583  117.2052   61.3989 H   0  0  0  0  0  0  0  0  0  0  0  0
  129.9348  117.7686   61.5303 H   0  0  0  0  0  0  0  0  0  0  0  0
  129.1760  120.1300   61.3198 H   0  0  0  0  0  0  0  0  0  0  0  0
  130.8485  121.9447   60.9467 H   0  0  0  0  0  0  0  0  0  0  0  0
  130.7412  122.5039   62.6247 H   0  0  0  0  0  0  0  0  0  0  0  0
  129.4575  124.9677   63.9415 H   0  0  0  0  0  0  0  0  0  0  0  0
  128.9112  124.0128   65.3880 H   0  0  0  0  0  0  0  0  0  0  0  0
  128.7119  125.8290   66.9431 H   0  0  0  0  0  0  0  0  0  0  0  0
  129.9023  127.3747   68.5002 H   0  0  0  0  0  0  0  0  0  0  0  0
  132.3345  127.8108   68.1914 H   0  0  0  0  0  0  0  0  0  0  0  0
  133.5899  126.7143   66.3423 H   0  0  0  0  0  0  0  0  0  0  0  0
  132.4049  125.1594   64.7889 H   0  0  0  0  0  0  0  0  0  0  0  0
  130.7740  125.5845   62.9891 H   0  0  0  0  0  0  0  0  0  0  0  0
  129.3933  122.5342   61.4813 H   0  0  0  0  0  0  0  0  0  0  0  0
  128.8099  123.1369   63.0598 H   0  0  0  0  0  0  0  0  0  0  0  0
  128.0590  124.9954   59.9404 H   0  0  0  0  0  0  0  0  0  0  0  0
  125.7502  125.2487   59.0269 H   0  0  0  0  0  0  0  0  0  0  0  0
  123.8853  123.9033   59.9785 H   0  0  0  0  0  0  0  0  0  0  0  0
  124.3052  122.3015   61.8412 H   0  0  0  0  0  0  0  0  0  0  0  0
  126.6120  122.0441   62.7558 H   0  0  0  0  0  0  0  0  0  0  0  0
  129.9702  125.8417   57.3738 H   0  0  0  0  0  0  0  0  0  0  0  0
  127.8034  125.1661   56.3713 H   0  0  0  0  0  0  0  0  0  0  0  0
  128.0404  121.3664   58.4170 H   0  0  0  0  0  0  0  0  0  0  0  0
  130.2180  122.0310   59.4016 H   0  0  0  0  0  0  0  0  0  0  0  0
  1  2  2  0
  2  3  1  0
  3  4  1  0
  4  5  1  0
  5  6  1  0
  6  7  1  0
  7  8  1  0
  8  9  1  0
  9 10  1  0
 10 11  2  0
 11 12  1  0
 12 13  2  0
 13 14  1  0
 14 15  2  0
  6 16  1  0
 16 17  1  0
 17 18  1  0
 18 19  1  0
 19 20  2  0
 20 21  1  0
 21 22  2  0
 22 23  1  0
 23 24  2  0
 16 25  1  0
 25 26  1  0
 26 27  1  0
 27 28  1  0
 28 29  2  0
 29 30  1  0
 30 31  2  0
 31 32  1  0
 32 33  2  0
  2 34  1  0
 34 35  2  0
 35 36  1  0
 36 37  2  0
 37 38  1  0
 38 39  2  0
 38 40  1  0
 37 41  1  0
 41 42  2  0
 25  4  1  0
 33 28  1  0
 42 34  1  0
 15 10  1  0
 24 19  1  0
  4 43  1  6
  6 44  1  1
  7 45  1  0
  7 46  1  0
  9 47  1  0
  9 48  1  0
 11 49  1  0
 12 50  1  0
 13 51  1  0
 14 52  1  0
 15 53  1  0
 16 54  1  6
 18 55  1  0
 18 56  1  0
 20 57  1  0
 21 58  1  0
 22 59  1  0
 23 60  1  0
 24 61  1  0
 25 62  1  1
 27 63  1  0
 27 64  1  0
 29 65  1  0
 30 66  1  0
 31 67  1  0
 32 68  1  0
 33 69  1  0
 35 70  1  0
 36 71  1  0
 41 72  1  0
 42 73  1  0
M  CHG  2  38   1  40  -1
M  END
>  <Binding energies>  (1) 
[-9.35]

>  <Ligand effiencies>  (1) 
[-0.2226190476190476]

>  <Interactions>  (1) 
["V-B:PRO:540:CB:9857, H-B:TYR:531:OH:9767, V-B:MET:535:CE:9807, V-A:ILE:369:CG2:3236, V-B:TYR:539:CD2:9846, V-B:PRO:540:N:9856, V-A:LEU:475:CD1:4257, V-B:PRO:540:CA:9855, V-B:PRO:540:C:9853, H-B:TYR:539:N:9842, V-B:ALA:541:CB:9864, V-B:TYR:539:CE2:9848, V-B:TYR:539:C:9839, V-A:PRO:482:CG:4326, V-A:PRO:482:CB:4325, H-A:TYR:484:OH:4347, V-A:ASP:366:CG:3212, H-A:GLY:454:N:4049, V-B:ASP:366:CG:8184, V-A:GLU:543:CD:4908, V-A:ILE:369:CD1:3238, V-B:TYR:539:CZ:9849, V-A:HIS:456:CE1:4069, V-A:ARG:545:CD:4923, V-B:GLU:543:CG:9879, V-B:GLU:543:CD:9880, V-A:ARG:545:CG:4922, V-A:ARG:545:CZ:4926, V-A:GLU:543:CB:4906, V-A:GLY:454:CA:4048, V-B:ALA:541:CA:9862, V-B:ASN:362:CB:8147"]

$$$$
RR9_Rahimova_2017
     RDKit          3D

 64 68  0  0  0  0  0  0  0  0999 V2000
  128.7480  125.4340   72.4660 C   0  0  0  0  0  0  0  0  0  0  0  0
  128.9260  126.9460   72.3010 C   0  0  0  0  0  0  0  0  0  0  0  0
  129.7330  127.1900   71.1520 O   0  0  0  0  0  0  0  0  0  0  0  0
  129.1260  127.4380   69.9370 C   0  0  0  0  0  0  0  0  0  0  0  0
  129.1260  128.7610   69.4990 C   0  0  0  0  0  0  0  0  0  0  0  0
  128.5350  129.1070   68.2870 C   0  0  0  0  0  0  0  0  0  0  0  0
  127.9260  128.1370   67.4780 C   0  0  0  0  0  0  0  0  0  0  0  0
  127.2840  128.5040   66.1730 C   0  0  0  0  0  0  0  0  0  0  0  0
  127.7480  127.9890   64.9530 C   0  0  0  0  0  0  0  0  0  0  0  0
  127.1340  128.3260   63.7340 C   0  0  0  0  0  0  0  0  0  0  0  0
  127.6140  127.6620   62.4720 C   0  0  0  0  0  0  0  0  0  0  0  0
  128.4000  128.2430   61.7230 O   0  0  0  0  0  0  0  0  0  0  0  0
  127.1100  126.4370   62.2270 N   0  0  0  0  0  0  0  0  0  0  0  0
  127.3210  125.6480   61.0090 C   0  0  0  0  0  0  0  0  0  0  0  0
  126.2020  124.6100   60.7570 C   0  0  0  0  0  0  0  0  0  0  0  0
  126.3170  123.8570   59.4370 C   0  0  0  0  0  0  0  0  0  0  0  0
  127.4750  123.1290   59.1430 C   0  0  0  0  0  0  0  0  0  0  0  0
  127.5630  122.4140   57.9520 C   0  0  0  0  0  0  0  0  0  0  0  0
  126.4960  122.4320   57.0560 C   0  0  0  0  0  0  0  0  0  0  0  0
  125.3410  123.1580   57.3400 C   0  0  0  0  0  0  0  0  0  0  0  0
  125.2520  123.8730   58.5330 C   0  0  0  0  0  0  0  0  0  0  0  0
  126.0510  129.2370   63.8080 C   0  0  0  0  0  0  0  0  0  0  0  0
  125.1380  129.9140   62.9180 C   0  0  0  0  0  0  0  0  0  0  0  0
  125.0950  129.9170   61.4250 C   0  0  0  0  0  0  0  0  0  0  0  0
  124.4170  130.9320   60.7430 C   0  0  0  0  0  0  0  0  0  0  0  0
  124.3650  130.9240   59.3510 C   0  0  0  0  0  0  0  0  0  0  0  0
  124.9940  129.9030   58.6370 C   0  0  0  0  0  0  0  0  0  0  0  0
  124.9210  129.8840   57.1200 C   0  0  0  0  0  0  0  0  0  0  0  0
  125.6700  128.8870   59.3140 C   0  0  0  0  0  0  0  0  0  0  0  0
  125.7230  128.8980   60.7050 C   0  0  0  0  0  0  0  0  0  0  0  0
  124.2680  130.6230   63.6010 N   0  0  0  0  0  0  0  0  0  0  0  0
  124.5760  130.5110   64.9030 N   0  0  0  0  0  0  0  0  0  0  0  0
  125.6610  129.6880   65.0920 C   0  0  0  0  0  0  0  0  0  0  0  0
  126.2300  129.3650   66.2520 N   0  0  0  0  0  0  0  0  0  0  0  0
  127.9280  126.8080   67.9260 C   0  0  0  0  0  0  0  0  0  0  0  0
  128.5200  126.4590   69.1380 C   0  0  0  0  0  0  0  0  0  0  0  0
  128.7184  125.1829   73.5366 H   0  0  0  0  0  0  0  0  0  0  0  0
  127.8069  125.1215   71.9900 H   0  0  0  0  0  0  0  0  0  0  0  0
  129.5908  124.9115   71.9900 H   0  0  0  0  0  0  0  0  0  0  0  0
  127.9430  127.4220   72.1704 H   0  0  0  0  0  0  0  0  0  0  0  0
  129.4112  127.3653   73.1948 H   0  0  0  0  0  0  0  0  0  0  0  0
  129.5975  129.5394   70.1169 H   0  0  0  0  0  0  0  0  0  0  0  0
  128.5459  130.1569   67.9591 H   0  0  0  0  0  0  0  0  0  0  0  0
  128.6109  127.3068   64.9503 H   0  0  0  0  0  0  0  0  0  0  0  0
  126.5390  126.0050   62.9400 H   0  0  0  0  0  0  0  0  0  0  0  0
  127.3620  126.3341   60.1502 H   0  0  0  0  0  0  0  0  0  0  0  0
  128.2614  125.0920   61.1372 H   0  0  0  0  0  0  0  0  0  0  0  0
  126.2268  123.8743   61.5744 H   0  0  0  0  0  0  0  0  0  0  0  0
  125.2591  125.1747   60.7113 H   0  0  0  0  0  0  0  0  0  0  0  0
  128.3154  123.1217   59.8527 H   0  0  0  0  0  0  0  0  0  0  0  0
  128.4705  121.8375   57.7192 H   0  0  0  0  0  0  0  0  0  0  0  0
  126.5662  121.8672   56.1147 H   0  0  0  0  0  0  0  0  0  0  0  0
  124.5039  123.1667   56.6264 H   0  0  0  0  0  0  0  0  0  0  0  0
  124.3438  124.4495   58.7627 H   0  0  0  0  0  0  0  0  0  0  0  0
  123.9240  131.7379   61.3064 H   0  0  0  0  0  0  0  0  0  0  0  0
  123.8289  131.7213   58.8153 H   0  0  0  0  0  0  0  0  0  0  0  0
  123.9010  129.6185   56.8053 H   0  0  0  0  0  0  0  0  0  0  0  0
  125.1784  130.8791   56.7280 H   0  0  0  0  0  0  0  0  0  0  0  0
  125.6308  129.1407   56.7280 H   0  0  0  0  0  0  0  0  0  0  0  0
  126.1597  128.0795   58.7499 H   0  0  0  0  0  0  0  0  0  0  0  0
  126.2614  128.1013   61.2392 H   0  0  0  0  0  0  0  0  0  0  0  0
  124.0330  130.9960   65.6040 H   0  0  0  0  0  0  0  0  0  0  0  0
  127.4546  126.0287   67.3107 H   0  0  0  0  0  0  0  0  0  0  0  0
  128.5117  125.4101   69.4693 H   0  0  0  0  0  0  0  0  0  0  0  0
  1  2  1  0
  2  3  1  0
  3  4  1  0
  4  5  2  0
  5  6  1  0
  6  7  2  0
  7  8  1  0
  8  9  2  0
  9 10  1  0
 10 11  1  0
 11 12  2  0
 11 13  1  0
 13 14  1  0
 14 15  1  0
 15 16  1  0
 16 17  2  0
 17 18  1  0
 18 19  2  0
 19 20  1  0
 20 21  2  0
 10 22  2  0
 22 23  1  0
 23 24  1  0
 24 25  2  0
 25 26  1  0
 26 27  2  0
 27 28  1  0
 27 29  1  0
 29 30  2  0
 23 31  2  0
 31 32  1  0
 32 33  1  0
 33 34  2  0
  7 35  1  0
 35 36  2  0
 36  4  1  0
 34  8  1  0
 21 16  1  0
 33 22  1  0
 30 24  1  0
  1 37  1  0
  1 38  1  0
  1 39  1  0
  2 40  1  0
  2 41  1  0
  5 42  1  0
  6 43  1  0
  9 44  1  0
 13 45  1  0
 14 46  1  0
 14 47  1  0
 15 48  1  0
 15 49  1  0
 17 50  1  0
 18 51  1  0
 19 52  1  0
 20 53  1  0
 21 54  1  0
 25 55  1  0
 26 56  1  0
 28 57  1  0
 28 58  1  0
 28 59  1  0
 29 60  1  0
 30 61  1  0
 32 62  1  0
 35 63  1  0
 36 64  1  0
M  END
>  <Binding energies>  (1) 
[-9.3]

>  <Ligand effiencies>  (1) 
[-0.24473684210526317]

>  <Interactions>  (1) 
["V-B:PRO:540:CB:9857, V-B:MET:535:CE:9807, V-B:PRO:540:N:9856, V-B:PRO:540:CA:9855, V-B:TYR:539:C:9839, V-B:TYR:531:CE2:9765, V-B:TYR:531:CZ:9766, V-B:LEU:363:CD1:8160, V-B:PRO:540:CD:9859, V-A:TYR:539:CZ:4877, V-A:TYR:539:CE1:4875, V-B:ASP:366:CG:8184, V-B:TYR:531:CE1:9764, H-B:GLY:454:N:9021, V-B:ASP:366:CB:8183, V-B:ASP:366:CA:8181, V-B:ILE:369:CD1:8210, V-A:GLU:543:CG:4907, V-B:GLY:454:CA:9020, V-A:GLU:543:CD:4908, H-B:TYR:484:OH:9319, V-A:GLU:543:C:4902, V-B:HIS:456:CE1:9041, V-A:HIS:456:CE1:4069, V-B:GLU:543:CB:9878, H-B:GLU:543:OE1:9881, V-B:GLU:543:CD:9880, H-B:GLU:543:OE2:9882, V-A:GLU:543:CB:4906, V-B:ILE:369:CG2:8208, V-B:TYR:484:CE2:9317, H-B:ASP:366:OD1:8185, V-B:ILE:369:CB:8207, V-B:HIS:456:CD2:9039, H-A:HIS:456:ND1:4066"]

$$$$
